# Generated by pormake.
# Topology ptr, (4,4)-cn, num edge types: 1
# Building blocks:
#     Node 0, Type 0, BuildingBlock: GALJAG_clean_sbu_0, # of connection points: 4
#     Node 1, Type 0, BuildingBlock: GALJAG_clean_sbu_0, # of connection points: 4
#     Node 2, Type 0, BuildingBlock: GALJAG_clean_sbu_0, # of connection points: 4
#     Node 3, Type 0, BuildingBlock: GALJAG_clean_sbu_0, # of connection points: 4
#     Node 4, Type 0, BuildingBlock: GALJAG_clean_sbu_0, # of connection points: 4
#     Node 5, Type 0, BuildingBlock: GALJAG_clean_sbu_0, # of connection points: 4
#     Node 6, Type 0, BuildingBlock: GALJAG_clean_sbu_0, # of connection points: 4
#     Node 7, Type 0, BuildingBlock: GALJAG_clean_sbu_0, # of connection points: 4
#     Node 8, Type 0, BuildingBlock: GALJAG_clean_sbu_0, # of connection points: 4
#     Node 9, Type 0, BuildingBlock: GALJAG_clean_sbu_0, # of connection points: 4
#     Node 10, Type 0, BuildingBlock: GALJAG_clean_sbu_0, # of connection points: 4
#     Node 11, Type 0, BuildingBlock: GALJAG_clean_sbu_0, # of connection points: 4
#     Node 12, Type 0, BuildingBlock: GALJAG_clean_sbu_0, # of connection points: 4
#     Node 13, Type 0, BuildingBlock: GALJAG_clean_sbu_0, # of connection points: 4
#     Node 14, Type 0, BuildingBlock: GALJAG_clean_sbu_0, # of connection points: 4
#     Node 15, Type 0, BuildingBlock: GALJAG_clean_sbu_0, # of connection points: 4
#     Node 16, Type 0, BuildingBlock: GALJAG_clean_sbu_0, # of connection points: 4
#     Node 17, Type 0, BuildingBlock: GALJAG_clean_sbu_0, # of connection points: 4
#     Node 18, Type 1, BuildingBlock: AZAVOO_clean_linker_0, # of connection points: 4
#     Node 19, Type 1, BuildingBlock: AZAVOO_clean_linker_0, # of connection points: 4
#     Node 20, Type 1, BuildingBlock: AZAVOO_clean_linker_0, # of connection points: 4
#     Node 21, Type 1, BuildingBlock: AZAVOO_clean_linker_0, # of connection points: 4
#     Node 22, Type 1, BuildingBlock: AZAVOO_clean_linker_0, # of connection points: 4
#     Node 23, Type 1, BuildingBlock: AZAVOO_clean_linker_0, # of connection points: 4
#     Node 24, Type 1, BuildingBlock: AZAVOO_clean_linker_0, # of connection points: 4
#     Node 25, Type 1, BuildingBlock: AZAVOO_clean_linker_0, # of connection points: 4
#     Node 26, Type 1, BuildingBlock: AZAVOO_clean_linker_0, # of connection points: 4
#     Node 27, Type 1, BuildingBlock: AZAVOO_clean_linker_0, # of connection points: 4
#     Node 28, Type 1, BuildingBlock: AZAVOO_clean_linker_0, # of connection points: 4
#     Node 29, Type 1, BuildingBlock: AZAVOO_clean_linker_0, # of connection points: 4
#     Node 30, Type 1, BuildingBlock: AZAVOO_clean_linker_0, # of connection points: 4
#     Node 31, Type 1, BuildingBlock: AZAVOO_clean_linker_0, # of connection points: 4
#     Node 32, Type 1, BuildingBlock: AZAVOO_clean_linker_0, # of connection points: 4
#     Node 33, Type 1, BuildingBlock: AZAVOO_clean_linker_0, # of connection points: 4
#     Node 34, Type 1, BuildingBlock: AZAVOO_clean_linker_0, # of connection points: 4
#     Node 35, Type 1, BuildingBlock: AZAVOO_clean_linker_0, # of connection points: 4
#     Edge 36, Type (0, 1), BuildingBlock: CIFDUS_clean_linker_0, # of connection points: 2
#     Edge 37, Type (0, 1), BuildingBlock: CIFDUS_clean_linker_0, # of connection points: 2
#     Edge 38, Type (0, 1), BuildingBlock: CIFDUS_clean_linker_0, # of connection points: 2
#     Edge 39, Type (0, 1), BuildingBlock: CIFDUS_clean_linker_0, # of connection points: 2
#     Edge 40, Type (0, 1), BuildingBlock: CIFDUS_clean_linker_0, # of connection points: 2
#     Edge 41, Type (0, 1), BuildingBlock: CIFDUS_clean_linker_0, # of connection points: 2
#     Edge 42, Type (0, 1), BuildingBlock: CIFDUS_clean_linker_0, # of connection points: 2
#     Edge 43, Type (0, 1), BuildingBlock: CIFDUS_clean_linker_0, # of connection points: 2
#     Edge 44, Type (0, 1), BuildingBlock: CIFDUS_clean_linker_0, # of connection points: 2
#     Edge 45, Type (0, 1), BuildingBlock: CIFDUS_clean_linker_0, # of connection points: 2
#     Edge 46, Type (0, 1), BuildingBlock: CIFDUS_clean_linker_0, # of connection points: 2
#     Edge 47, Type (0, 1), BuildingBlock: CIFDUS_clean_linker_0, # of connection points: 2
#     Edge 48, Type (0, 1), BuildingBlock: CIFDUS_clean_linker_0, # of connection points: 2
#     Edge 49, Type (0, 1), BuildingBlock: CIFDUS_clean_linker_0, # of connection points: 2
#     Edge 50, Type (0, 1), BuildingBlock: CIFDUS_clean_linker_0, # of connection points: 2
#     Edge 51, Type (0, 1), BuildingBlock: CIFDUS_clean_linker_0, # of connection points: 2
#     Edge 52, Type (0, 1), BuildingBlock: CIFDUS_clean_linker_0, # of connection points: 2
#     Edge 53, Type (0, 1), BuildingBlock: CIFDUS_clean_linker_0, # of connection points: 2
#     Edge 54, Type (0, 1), BuildingBlock: CIFDUS_clean_linker_0, # of connection points: 2
#     Edge 55, Type (0, 1), BuildingBlock: CIFDUS_clean_linker_0, # of connection points: 2
#     Edge 56, Type (0, 1), BuildingBlock: CIFDUS_clean_linker_0, # of connection points: 2
#     Edge 57, Type (0, 1), BuildingBlock: CIFDUS_clean_linker_0, # of connection points: 2
#     Edge 58, Type (0, 1), BuildingBlock: CIFDUS_clean_linker_0, # of connection points: 2
#     Edge 59, Type (0, 1), BuildingBlock: CIFDUS_clean_linker_0, # of connection points: 2
#     Edge 60, Type (0, 1), BuildingBlock: CIFDUS_clean_linker_0, # of connection points: 2
#     Edge 61, Type (0, 1), BuildingBlock: CIFDUS_clean_linker_0, # of connection points: 2
#     Edge 62, Type (0, 1), BuildingBlock: CIFDUS_clean_linker_0, # of connection points: 2
#     Edge 63, Type (0, 1), BuildingBlock: CIFDUS_clean_linker_0, # of connection points: 2
#     Edge 64, Type (0, 1), BuildingBlock: CIFDUS_clean_linker_0, # of connection points: 2
#     Edge 65, Type (0, 1), BuildingBlock: CIFDUS_clean_linker_0, # of connection points: 2
#     Edge 66, Type (0, 1), BuildingBlock: CIFDUS_clean_linker_0, # of connection points: 2
#     Edge 67, Type (0, 1), BuildingBlock: CIFDUS_clean_linker_0, # of connection points: 2
#     Edge 68, Type (0, 1), BuildingBlock: CIFDUS_clean_linker_0, # of connection points: 2
#     Edge 69, Type (0, 1), BuildingBlock: CIFDUS_clean_linker_0, # of connection points: 2
#     Edge 70, Type (0, 1), BuildingBlock: CIFDUS_clean_linker_0, # of connection points: 2
#     Edge 71, Type (0, 1), BuildingBlock: CIFDUS_clean_linker_0, # of connection points: 2
#     Edge 72, Type (0, 1), BuildingBlock: CIFDUS_clean_linker_0, # of connection points: 2
#     Edge 73, Type (0, 1), BuildingBlock: CIFDUS_clean_linker_0, # of connection points: 2
#     Edge 74, Type (0, 1), BuildingBlock: CIFDUS_clean_linker_0, # of connection points: 2
#     Edge 75, Type (0, 1), BuildingBlock: CIFDUS_clean_linker_0, # of connection points: 2
#     Edge 76, Type (0, 1), BuildingBlock: CIFDUS_clean_linker_0, # of connection points: 2
#     Edge 77, Type (0, 1), BuildingBlock: CIFDUS_clean_linker_0, # of connection points: 2
#     Edge 78, Type (0, 1), BuildingBlock: CIFDUS_clean_linker_0, # of connection points: 2
#     Edge 79, Type (0, 1), BuildingBlock: CIFDUS_clean_linker_0, # of connection points: 2
#     Edge 80, Type (0, 1), BuildingBlock: CIFDUS_clean_linker_0, # of connection points: 2
#     Edge 81, Type (0, 1), BuildingBlock: CIFDUS_clean_linker_0, # of connection points: 2
#     Edge 82, Type (0, 1), BuildingBlock: CIFDUS_clean_linker_0, # of connection points: 2
#     Edge 83, Type (0, 1), BuildingBlock: CIFDUS_clean_linker_0, # of connection points: 2
#     Edge 84, Type (0, 1), BuildingBlock: CIFDUS_clean_linker_0, # of connection points: 2
#     Edge 85, Type (0, 1), BuildingBlock: CIFDUS_clean_linker_0, # of connection points: 2
#     Edge 86, Type (0, 1), BuildingBlock: CIFDUS_clean_linker_0, # of connection points: 2
#     Edge 87, Type (0, 1), BuildingBlock: CIFDUS_clean_linker_0, # of connection points: 2
#     Edge 88, Type (0, 1), BuildingBlock: CIFDUS_clean_linker_0, # of connection points: 2
#     Edge 89, Type (0, 1), BuildingBlock: CIFDUS_clean_linker_0, # of connection points: 2
#     Edge 90, Type (0, 1), BuildingBlock: CIFDUS_clean_linker_0, # of connection points: 2
#     Edge 91, Type (0, 1), BuildingBlock: CIFDUS_clean_linker_0, # of connection points: 2
#     Edge 92, Type (0, 1), BuildingBlock: CIFDUS_clean_linker_0, # of connection points: 2
#     Edge 93, Type (0, 1), BuildingBlock: CIFDUS_clean_linker_0, # of connection points: 2
#     Edge 94, Type (0, 1), BuildingBlock: CIFDUS_clean_linker_0, # of connection points: 2
#     Edge 95, Type (0, 1), BuildingBlock: CIFDUS_clean_linker_0, # of connection points: 2
#     Edge 96, Type (0, 1), BuildingBlock: CIFDUS_clean_linker_0, # of connection points: 2
#     Edge 97, Type (0, 1), BuildingBlock: CIFDUS_clean_linker_0, # of connection points: 2
#     Edge 98, Type (0, 1), BuildingBlock: CIFDUS_clean_linker_0, # of connection points: 2
#     Edge 99, Type (0, 1), BuildingBlock: CIFDUS_clean_linker_0, # of connection points: 2
#     Edge 100, Type (0, 1), BuildingBlock: CIFDUS_clean_linker_0, # of connection points: 2
#     Edge 101, Type (0, 1), BuildingBlock: CIFDUS_clean_linker_0, # of connection points: 2
#     Edge 102, Type (0, 1), BuildingBlock: CIFDUS_clean_linker_0, # of connection points: 2
#     Edge 103, Type (0, 1), BuildingBlock: CIFDUS_clean_linker_0, # of connection points: 2
#     Edge 104, Type (0, 1), BuildingBlock: CIFDUS_clean_linker_0, # of connection points: 2
#     Edge 105, Type (0, 1), BuildingBlock: CIFDUS_clean_linker_0, # of connection points: 2
#     Edge 106, Type (0, 1), BuildingBlock: CIFDUS_clean_linker_0, # of connection points: 2
#     Edge 107, Type (0, 1), BuildingBlock: CIFDUS_clean_linker_0, # of connection points: 2
# Relax obj value: 0.034
# Max RMSD: 0.162
# Mean RMSD: 0.100
data_MOF--net-ptr--node1-GALJAG_clean_sbu_0--node2-AZAVOO_clean_linker_0--edge1-CIFDUS_clean_linker_0
_symmetry_space_group_name_H-M    P1
_symmetry_Int_Tables_number       1
_symmetry_cell_setting            triclinic
loop_
_symmetry_equiv_pos_as_xyz
'x, y, z'
_cell_length_a     72.400684
_cell_length_b     71.045768
_cell_length_c     64.780035
_cell_angle_alpha  92.789711
_cell_angle_beta   92.530545
_cell_angle_gamma 120.16896
loop_
_atom_site_label
_atom_site_type_symbol
_atom_site_fract_x
_atom_site_fract_y
_atom_site_fract_z
_atom_type_partial_charge
In0 In 0.00814 0.36688 0.02038 0.0
O1 O 0.98245 0.36767 0.03944 0.0
O2 O 0.01358 0.39588 0.04125 0.0
C3 C 0.97715 0.32847 0.00159 0.0
C4 C 0.03418 0.35965 0.04588 0.0
C5 C 0.02284 0.39155 0.98769 0.0
O6 O 0.97506 0.3451 0.00321 0.0
O7 O 0.9946 0.33124 0.00965 0.0
O8 O 0.02073 0.39883 0.00497 0.0
O9 O 0.01864 0.37202 0.98709 0.0
C10 C 0.9949 0.38698 0.04723 0.0
O11 O 0.04106 0.37103 0.0306 0.0
O12 O 0.01458 0.35214 0.048 0.0
In13 In 0.63161 0.61295 0.05889 0.0
O14 O 0.62622 0.58678 0.08119 0.0
O15 O 0.60618 0.60074 0.08179 0.0
C16 C 0.66791 0.62221 0.04115 0.0
C17 C 0.64476 0.65202 0.07923 0.0
C18 C 0.60307 0.5926 0.02571 0.0
O19 O 0.6607 0.60861 0.05477 0.0
O20 O 0.65691 0.63092 0.03684 0.0
O21 O 0.60854 0.61171 0.03282 0.0
O22 O 0.61165 0.58373 0.03558 0.0
C23 C 0.61091 0.58747 0.08919 0.0
O24 O 0.63015 0.644 0.06456 0.0
O25 O 0.65274 0.64031 0.08359 0.0
In26 In 0.38094 0.99804 0.01339 0.0
O27 O 0.38482 0.03183 0.01178 0.0
O28 O 0.36069 0.0056 0.99147 0.0
C29 C 0.40832 0.00545 0.04652 0.0
C30 C 0.39942 0.99247 0.98004 0.0
C31 C 0.34459 0.97088 0.0308 0.0
O32 O 0.40453 0.01992 0.04053 0.0
O33 O 0.39885 0.9876 0.03539 0.0
O34 O 0.3533 0.96371 0.01868 0.0
O35 O 0.35401 0.9914 0.03365 0.0
C36 C 0.36988 0.02562 0.99761 0.0
O37 O 0.38129 0.97774 0.98481 0.0
O38 O 0.40824 0.00947 0.99238 0.0
In39 In 0.99641 0.63811 0.0464 0.0
O40 O 0.01896 0.63136 0.0281 0.0
O41 O 0.9856 0.60803 0.02427 0.0
C42 C 0.02654 0.67892 0.06082 0.0
C43 C 0.9693 0.64718 0.02511 0.0
C44 C 0.98884 0.61347 0.0789 0.0
O45 O 0.02916 0.66859 0.04592 0.0
O46 O 0.00859 0.66873 0.06832 0.0
O47 O 0.97379 0.61156 0.0667 0.0
O48 O 0.0073 0.62789 0.07484 0.0
C49 C 0.00419 0.61346 0.0193 0.0
O50 O 0.96686 0.64213 0.04364 0.0
O51 O 0.98517 0.64752 0.01754 0.0
In52 In 0.37556 0.3817 0.00264 0.0
O53 O 0.38025 0.40544 0.97787 0.0
O54 O 0.40757 0.40495 0.99082 0.0
C55 C 0.33622 0.36948 0.01516 0.0
C56 C 0.36809 0.34642 0.9784 0.0
C57 C 0.3987 0.39603 0.03956 0.0
O58 O 0.34843 0.38851 0.00985 0.0
O59 O 0.34363 0.35687 0.01346 0.0
O60 O 0.39664 0.37964 0.02882 0.0
O61 O 0.38927 0.40509 0.03156 0.0
C62 C 0.40026 0.41297 0.97812 0.0
O63 O 0.37491 0.3494 0.99727 0.0
O64 O 0.36542 0.36135 0.97175 0.0
In65 In 0.61608 0.9961 0.03826 0.0
O66 O 0.61535 0.01857 0.06471 0.0
O67 O 0.59117 0.98496 0.06166 0.0
C68 C 0.65329 0.01947 0.02098 0.0
C69 C 0.62602 0.96784 0.05408 0.0
C70 C 0.58936 0.99197 0.00573 0.0
O71 O 0.64698 0.02826 0.03424 0.0
O72 O 0.64087 0.99925 0.01665 0.0
O73 O 0.58983 0.97571 0.0122 0.0
O74 O 0.60181 0.0099 0.01601 0.0
C75 C 0.5989 0.00329 0.07175 0.0
O76 O 0.61024 0.96164 0.04085 0.0
O77 O 0.6365 0.98812 0.05927 0.0
In78 In 0.67703 0.69858 0.35102 0.0
O79 O 0.65774 0.70892 0.37111 0.0
O80 O 0.69174 0.72693 0.37566 0.0
C81 C 0.64404 0.65976 0.33537 0.0
C82 C 0.70043 0.68412 0.37085 0.0
C83 C 0.68782 0.72399 0.31874 0.0
O84 O 0.64158 0.67258 0.34766 0.0
O85 O 0.66316 0.66643 0.33128 0.0
O86 O 0.70161 0.72606 0.33266 0.0
O87 O 0.66897 0.70923 0.32109 0.0
C88 C 0.6742 0.72434 0.38119 0.0
O89 O 0.70462 0.69149 0.35322 0.0
O90 O 0.68441 0.6838 0.37811 0.0
In91 In 0.29879 0.94883 0.3929 0.0
O92 O 0.29488 0.92477 0.41743 0.0
O93 O 0.27358 0.93729 0.4156 0.0
C94 C 0.33428 0.96138 0.3727 0.0
C95 C 0.31115 0.98797 0.41218 0.0
C96 C 0.27072 0.92561 0.36032 0.0
O97 O 0.32934 0.94775 0.38637 0.0
O98 O 0.32163 0.9685 0.36988 0.0
O99 O 0.2727 0.94324 0.36818 0.0
O100 O 0.28226 0.9194 0.36943 0.0
C101 C 0.27926 0.92553 0.4247 0.0
O102 O 0.29615 0.97915 0.39785 0.0
O103 O 0.32002 0.97706 0.41659 0.0
In104 In 0.05482 0.32935 0.35136 0.0
O105 O 0.0546 0.36135 0.34998 0.0
O106 O 0.03303 0.33409 0.32897 0.0
C107 C 0.08182 0.33577 0.38456 0.0
C108 C 0.07665 0.33023 0.31846 0.0
C109 C 0.01813 0.29919 0.36604 0.0
O110 O 0.07565 0.34915 0.38088 0.0
O111 O 0.07492 0.31973 0.3712 0.0
O112 O 0.02745 0.29389 0.35282 0.0
O113 O 0.02735 0.31932 0.37155 0.0
C114 C 0.04003 0.35381 0.33522 0.0
O115 O 0.06103 0.31256 0.32347 0.0
O116 O 0.08149 0.34687 0.33044 0.0
In117 In 0.651 0.95504 0.37149 0.0
O118 O 0.67339 0.94941 0.3515 0.0
O119 O 0.63965 0.92873 0.34511 0.0
C120 C 0.68565 0.99113 0.39031 0.0
C121 C 0.62572 0.96623 0.35014 0.0
C122 C 0.63469 0.92775 0.40198 0.0
O123 O 0.68462 0.97289 0.38815 0.0
O124 O 0.66948 0.99128 0.38257 0.0
O125 O 0.63542 0.94588 0.40246 0.0
O126 O 0.64135 0.92327 0.38594 0.0
C127 C 0.65818 0.93358 0.34041 0.0
O128 O 0.62034 0.95669 0.36667 0.0
O129 O 0.6438 0.97032 0.34474 0.0
In130 In 0.03403 0.7171 0.33554 0.0
O131 O 0.0352 0.73843 0.30946 0.0
O132 O 0.06358 0.73818 0.31881 0.0
C133 C 0.99446 0.70278 0.34833 0.0
C134 C 0.02855 0.67919 0.31828 0.0
C135 C 0.05745 0.73806 0.37144 0.0
O136 O 0.00341 0.71917 0.33776 0.0
O137 O 0.0052 0.6936 0.3517 0.0
O138 O 0.06058 0.72475 0.36071 0.0
O139 O 0.04306 0.74125 0.36373 0.0
C140 C 0.0547 0.74525 0.3068 0.0
O141 O 0.03719 0.68686 0.33637 0.0
O142 O 0.02284 0.69075 0.30875 0.0
In143 In 0.28239 0.34385 0.38029 0.0
O144 O 0.28037 0.31068 0.38151 0.0
O145 O 0.29764 0.33516 0.40641 0.0
C146 C 0.25444 0.33434 0.347 0.0
C147 C 0.26448 0.35128 0.41294 0.0
C148 C 0.31962 0.37225 0.3648 0.0
O149 O 0.26111 0.32164 0.35183 0.0
O150 O 0.2615 0.35131 0.35915 0.0
O151 O 0.30735 0.37825 0.37209 0.0
O152 O 0.3133 0.3523 0.36572 0.0
C153 C 0.29136 0.31604 0.39876 0.0
O154 O 0.28321 0.36492 0.40852 0.0
O155 O 0.25471 0.33432 0.40054 0.0
In156 In 0.33707 0.0338 0.67915 0.0
O157 O 0.37158 0.04079 0.68465 0.0
O158 O 0.34968 0.02425 0.7071 0.0
C159 C 0.34135 0.05547 0.64483 0.0
C160 C 0.32328 0.05283 0.70683 0.0
C161 C 0.31226 0.99242 0.66245 0.0
O162 O 0.35668 0.0616 0.65851 0.0
O163 O 0.32422 0.0387 0.64854 0.0
O164 O 0.30486 0.00285 0.67192 0.0
O165 O 0.33236 0.00278 0.66165 0.0
C166 C 0.36847 0.03204 0.70165 0.0
O167 O 0.31403 0.03243 0.70281 0.0
O168 O 0.33931 0.06366 0.6967 0.0
In169 In 0.95115 0.28301 0.71733 0.0
O170 O 0.94654 0.31221 0.72171 0.0
O171 O 0.96797 0.30982 0.74359 0.0
C172 C 0.92608 0.26295 0.68226 0.0
C173 C 0.92861 0.25462 0.7451 0.0
C174 C 0.98885 0.29639 0.7008 0.0
O175 O 0.92674 0.27929 0.69172 0.0
O176 O 0.9379 0.25665 0.69065 0.0
O177 O 0.98128 0.28066 0.71231 0.0
O178 O 0.9776 0.30517 0.69821 0.0
C179 C 0.95936 0.32054 0.73776 0.0
O180 O 0.94814 0.26071 0.74332 0.0
O181 O 0.9209 0.2626 0.73284 0.0
In182 In 0.71864 0.66369 0.68251 0.0
O183 O 0.72443 0.69794 0.67745 0.0
O184 O 0.6952 0.6704 0.66463 0.0
C185 C 0.74512 0.67118 0.71627 0.0
C186 C 0.73809 0.65639 0.65086 0.0
C187 C 0.68305 0.63682 0.70081 0.0
O188 O 0.7434 0.68631 0.70858 0.0
O189 O 0.73385 0.65254 0.70668 0.0
O190 O 0.68958 0.6298 0.68611 0.0
O191 O 0.69446 0.65703 0.70596 0.0
C192 C 0.70654 0.69088 0.66741 0.0
O193 O 0.71854 0.64355 0.65331 0.0
O194 O 0.74744 0.67241 0.66425 0.0
In195 In 0.33911 0.30687 0.70129 0.0
O196 O 0.35859 0.30265 0.6768 0.0
O197 O 0.32972 0.27446 0.68388 0.0
C198 C 0.36856 0.34684 0.71887 0.0
C199 C 0.3109 0.31255 0.67755 0.0
C200 C 0.33407 0.28193 0.733 0.0
O201 O 0.37305 0.33605 0.70612 0.0
O202 O 0.34905 0.33773 0.72241 0.0
O203 O 0.31904 0.28473 0.72616 0.0
O204 O 0.35122 0.29202 0.72423 0.0
C205 C 0.34593 0.28229 0.67342 0.0
O206 O 0.30723 0.30651 0.69571 0.0
O207 O 0.32859 0.31588 0.67177 0.0
In208 In 0.70839 0.04859 0.66941 0.0
O209 O 0.71408 0.06923 0.64153 0.0
O210 O 0.73764 0.06121 0.65105 0.0
C211 C 0.67237 0.04471 0.68438 0.0
C212 C 0.69442 0.00805 0.65212 0.0
C213 C 0.73591 0.06816 0.70343 0.0
O214 O 0.68433 0.06053 0.67412 0.0
O215 O 0.67841 0.03107 0.6865 0.0
O216 O 0.72809 0.04819 0.69776 0.0
O217 O 0.73002 0.07826 0.69185 0.0
C218 C 0.73188 0.07064 0.63845 0.0
O219 O 0.70606 0.01543 0.66898 0.0
O220 O 0.68991 0.02117 0.64393 0.0
In221 In 0.94894 0.66769 0.70822 0.0
O222 O 0.94573 0.63432 0.71198 0.0
O223 O 0.97002 0.66205 0.73078 0.0
C224 C 0.92213 0.6597 0.67446 0.0
C225 C 0.92793 0.67126 0.74016 0.0
C226 C 0.9853 0.69687 0.69227 0.0
O227 O 0.92839 0.64657 0.679 0.0
O228 O 0.92921 0.6764 0.68701 0.0
O229 O 0.97428 0.70282 0.70238 0.0
O230 O 0.9781 0.67657 0.69056 0.0
C231 C 0.96105 0.64176 0.72596 0.0
O232 O 0.94661 0.68632 0.73712 0.0
O233 O 0.92009 0.65494 0.72702 0.0
H234 H 0.17093 0.38604 0.0317 0.0
H235 H 0.2857 0.29778 0.16905 0.0
H236 H 0.16928 0.37451 0.14494 0.0
H237 H 0.14447 0.38268 0.126 0.0
H238 H 0.10008 0.31357 0.11273 0.0
H239 H 0.12507 0.30558 0.13166 0.0
H240 H 0.20122 0.37754 0.11403 0.0
H241 H 0.19353 0.38744 0.08037 0.0
H242 H 0.14358 0.32034 0.06477 0.0
H243 H 0.15159 0.31066 0.09841 0.0
H244 H 0.23882 0.37158 0.13601 0.0
H245 H 0.2651 0.38171 0.11015 0.0
H246 H 0.22092 0.32321 0.07147 0.0
H247 H 0.19506 0.31279 0.09793 0.0
H248 H 0.24057 0.35963 0.17616 0.0
H249 H 0.27103 0.35452 0.18425 0.0
H250 H 0.23678 0.29065 0.15075 0.0
H251 H 0.20636 0.29592 0.14295 0.0
H252 H 0.21237 0.35934 0.20074 0.0
H253 H 0.22193 0.3542 0.23576 0.0
H254 H 0.18547 0.28419 0.22172 0.0
H255 H 0.17607 0.28961 0.1864 0.0
H256 H 0.17794 0.36077 0.19642 0.0
H257 H 0.15714 0.35625 0.22617 0.0
H258 H 0.10887 0.29186 0.19955 0.0
H259 H 0.13092 0.29606 0.17059 0.0
O260 O 0.17398 0.3817 0.04476 0.0
O261 O 0.14854 0.34697 0.03747 0.0
O262 O 0.29079 0.33315 0.18318 0.0
O263 O 0.27389 0.30022 0.1661 0.0
C264 C 0.1665 0.33515 0.14487 0.0
C265 C 0.18074 0.33775 0.12953 0.0
C266 C 0.199 0.33604 0.13437 0.0
C267 C 0.20267 0.33101 0.15439 0.0
C268 C 0.18848 0.32844 0.16975 0.0
C269 C 0.17035 0.33053 0.16502 0.0
C270 C 0.14889 0.33946 0.13977 0.0
C271 C 0.15382 0.36115 0.13866 0.0
C272 C 0.1398 0.36578 0.12757 0.0
C273 C 0.12053 0.34876 0.11761 0.0
C274 C 0.11479 0.32701 0.1203 0.0
C275 C 0.12894 0.32239 0.13127 0.0
C276 C 0.17698 0.3434 0.10859 0.0
C277 C 0.18879 0.36499 0.10321 0.0
C278 C 0.18428 0.3706 0.08403 0.0
C279 C 0.16788 0.35469 0.0699 0.0
C280 C 0.15629 0.33299 0.07529 0.0
C281 C 0.16084 0.32741 0.09446 0.0
C282 C 0.21515 0.34135 0.11894 0.0
C283 C 0.23496 0.36081 0.12207 0.0
C284 C 0.24981 0.36673 0.10712 0.0
C285 C 0.24507 0.35336 0.08864 0.0
C286 C 0.22517 0.33378 0.0856 0.0
C287 C 0.21036 0.32781 0.10065 0.0
C288 C 0.22123 0.32805 0.15916 0.0
C289 C 0.23964 0.34449 0.17072 0.0
C290 C 0.25703 0.34156 0.17525 0.0
C291 C 0.25632 0.32214 0.16819 0.0
C292 C 0.23785 0.30577 0.15646 0.0
C293 C 0.22046 0.30873 0.15197 0.0
C294 C 0.19341 0.32485 0.19116 0.0
C295 C 0.20627 0.34289 0.2053 0.0
C296 C 0.21163 0.3399 0.22532 0.0
C297 C 0.20429 0.31877 0.23158 0.0
C298 C 0.1914 0.30066 0.21732 0.0
C299 C 0.18594 0.3037 0.19724 0.0
C300 C 0.15604 0.32869 0.18147 0.0
C301 C 0.16286 0.3457 0.19704 0.0
C302 C 0.15075 0.34312 0.21397 0.0
C303 C 0.13117 0.32363 0.21544 0.0
C304 C 0.124 0.30692 0.19926 0.0
C305 C 0.13642 0.30938 0.18252 0.0
C306 C 0.16283 0.36079 0.04972 0.0
C307 C 0.27474 0.31892 0.17298 0.0
H308 H 0.64394 0.80901 0.03346 0.0
H309 H 0.71401 0.98257 0.21298 0.0
H310 H 0.64479 0.79618 0.14741 0.0
H311 H 0.63493 0.76073 0.13003 0.0
H312 H 0.70166 0.77872 0.1338 0.0
H313 H 0.71131 0.81415 0.15162 0.0
H314 H 0.64611 0.83053 0.12218 0.0
H315 H 0.63902 0.82023 0.08484 0.0
H316 H 0.70413 0.83391 0.08162 0.0
H317 H 0.71103 0.84435 0.11896 0.0
H318 H 0.64879 0.8651 0.14995 0.0
H319 H 0.64092 0.88804 0.12856 0.0
H320 H 0.70422 0.91652 0.10652 0.0
H321 H 0.71195 0.89334 0.12806 0.0
H322 H 0.66032 0.87378 0.19747 0.0
H323 H 0.66276 0.90736 0.21233 0.0
H324 H 0.7242 0.9453 0.18725 0.0
H325 H 0.72171 0.91155 0.17276 0.0
H326 H 0.66157 0.83468 0.21635 0.0
H327 H 0.66097 0.84836 0.25131 0.0
H328 H 0.72419 0.90403 0.24698 0.0
H329 H 0.72531 0.88916 0.21254 0.0
H330 H 0.65386 0.79923 0.19221 0.0
H331 H 0.65284 0.77366 0.21646 0.0
H332 H 0.72215 0.80983 0.22466 0.0
H333 H 0.72278 0.83607 0.20108 0.0
O334 O 0.64713 0.81327 0.04819 0.0
O335 O 0.68073 0.8205 0.04737 0.0
O336 O 0.68107 0.94876 0.21998 0.0
O337 O 0.71262 0.96904 0.20725 0.0
C338 C 0.68443 0.82976 0.15927 0.0
C339 C 0.68335 0.84433 0.14587 0.0
C340 C 0.6855 0.8641 0.15411 0.0
C341 C 0.68965 0.86981 0.17565 0.0
C342 C 0.6914 0.85554 0.1891 0.0
C343 C 0.68858 0.83538 0.18087 0.0
C344 C 0.67873 0.80765 0.15067 0.0
C345 C 0.65723 0.79233 0.14467 0.0
C346 C 0.65167 0.77219 0.13461 0.0
C347 C 0.66755 0.76703 0.13031 0.0
C348 C 0.68907 0.78218 0.137 0.0
C349 C 0.69462 0.80239 0.14713 0.0
C350 C 0.67913 0.83838 0.12318 0.0
C351 C 0.65886 0.83147 0.11333 0.0
C352 C 0.65484 0.82551 0.09203 0.0
C353 C 0.67102 0.82628 0.08023 0.0
C354 C 0.69132 0.83316 0.09023 0.0
C355 C 0.69532 0.83915 0.11153 0.0
C356 C 0.68092 0.87765 0.14052 0.0
C357 C 0.66089 0.87621 0.1404 0.0
C358 C 0.65639 0.88919 0.1281 0.0
C359 C 0.67194 0.90398 0.11585 0.0
C360 C 0.692 0.90531 0.11591 0.0
C361 C 0.69642 0.89211 0.12809 0.0
C362 C 0.69092 0.89026 0.18419 0.0
C363 C 0.67432 0.88937 0.19528 0.0
C364 C 0.67574 0.90857 0.20371 0.0
C365 C 0.69371 0.92903 0.20101 0.0
C366 C 0.71017 0.92983 0.18965 0.0
C367 C 0.70878 0.9106 0.18131 0.0
C368 C 0.69351 0.86086 0.21186 0.0
C369 C 0.67575 0.8492 0.22332 0.0
C370 C 0.67526 0.85734 0.24318 0.0
C371 C 0.69227 0.87764 0.25174 0.0
C372 C 0.71081 0.88836 0.24093 0.0
C373 C 0.71148 0.87991 0.2212 0.0
C374 C 0.68837 0.81946 0.19494 0.0
C375 C 0.66881 0.80155 0.19921 0.0
C376 C 0.66831 0.78685 0.21298 0.0
C377 C 0.68744 0.7895 0.22251 0.0
C378 C 0.70709 0.80739 0.21789 0.0
C379 C 0.70753 0.82233 0.20432 0.0
C380 C 0.66668 0.81987 0.05761 0.0
C381 C 0.69534 0.94948 0.21001 0.0
H382 H 0.14347 0.83512 0.0263 0.0
H383 H 0.31571 0.96783 0.21812 0.0
H384 H 0.12566 0.83894 0.15106 0.0
H385 H 0.0939 0.80575 0.1349 0.0
H386 H 0.13355 0.77799 0.121 0.0
H387 H 0.16502 0.81114 0.13687 0.0
H388 H 0.15272 0.86368 0.11428 0.0
H389 H 0.14424 0.85342 0.07699 0.0
H390 H 0.19259 0.8347 0.07661 0.0
H391 H 0.20074 0.8448 0.11393 0.0
H392 H 0.20146 0.90726 0.12021 0.0
H393 H 0.22835 0.92762 0.09592 0.0
H394 H 0.26589 0.8997 0.11772 0.0
H395 H 0.23887 0.87933 0.14185 0.0
H396 H 0.22091 0.92796 0.16457 0.0
H397 H 0.25542 0.95932 0.17803 0.0
H398 H 0.27306 0.91556 0.20513 0.0
H399 H 0.23861 0.88434 0.19136 0.0
H400 H 0.19761 0.90897 0.20481 0.0
H401 H 0.20877 0.91953 0.24161 0.0
H402 H 0.20479 0.85732 0.24863 0.0
H403 H 0.19591 0.84806 0.21151 0.0
H404 H 0.14682 0.86248 0.19984 0.0
H405 H 0.12472 0.84026 0.22664 0.0
H406 H 0.13974 0.79029 0.20923 0.0
H407 H 0.16191 0.81261 0.18277 0.0
O408 O 0.14711 0.83912 0.04103 0.0
O409 O 0.17224 0.82986 0.04164 0.0
O410 O 0.29241 0.97747 0.19778 0.0
O411 O 0.30204 0.95571 0.21244 0.0
C412 C 0.16711 0.8479 0.15323 0.0
C413 C 0.18217 0.86097 0.13946 0.0
C414 C 0.20187 0.87929 0.14728 0.0
C415 C 0.20627 0.88492 0.16887 0.0
C416 C 0.19094 0.87215 0.18267 0.0
C417 C 0.17135 0.85352 0.17482 0.0
C418 C 0.14758 0.82743 0.14494 0.0
C419 C 0.12736 0.82558 0.14463 0.0
C420 C 0.1093 0.80665 0.13545 0.0
C421 C 0.11131 0.7894 0.12646 0.0
C422 C 0.13156 0.79118 0.12739 0.0
C423 C 0.14952 0.81001 0.13654 0.0
C424 C 0.17742 0.85511 0.11675 0.0
C425 C 0.16146 0.85738 0.10609 0.0
C426 C 0.15666 0.85151 0.0848 0.0
C427 C 0.16776 0.84327 0.07381 0.0
C428 C 0.18377 0.84104 0.08459 0.0
C429 C 0.18852 0.84687 0.10588 0.0
C430 C 0.21831 0.89195 0.13283 0.0
C431 C 0.21551 0.90559 0.11971 0.0
C432 C 0.23087 0.9172 0.10591 0.0
C433 C 0.2492 0.91521 0.1049 0.0
C434 C 0.25183 0.90137 0.11798 0.0
C435 C 0.23654 0.8899 0.13188 0.0
C436 C 0.22726 0.90391 0.17703 0.0
C437 C 0.2323 0.9252 0.17334 0.0
C438 C 0.25199 0.94307 0.18109 0.0
C439 C 0.26699 0.93994 0.1927 0.0
C440 C 0.26188 0.91855 0.19629 0.0
C441 C 0.2422 0.90069 0.18848 0.0
C442 C 0.19594 0.87775 0.20543 0.0
C443 C 0.19926 0.8977 0.21434 0.0
C444 C 0.20537 0.90356 0.23549 0.0
C445 C 0.2078 0.88934 0.24828 0.0
C446 C 0.20362 0.86898 0.23932 0.0
C447 C 0.19814 0.86344 0.2181 0.0
C448 C 0.15595 0.83914 0.18935 0.0
C449 C 0.14505 0.84658 0.20165 0.0
C450 C 0.13241 0.83388 0.21687 0.0
C451 C 0.13065 0.81363 0.22011 0.0
C452 C 0.141 0.80594 0.20724 0.0
C453 C 0.1535 0.81856 0.192 0.0
C454 C 0.16258 0.837 0.0512 0.0
C455 C 0.28788 0.95888 0.20107 0.0
H456 H 0.31444 0.16684 0.02151 0.0
H457 H 0.32714 0.03712 0.83265 0.0
H458 H 0.28931 0.17534 0.91487 0.0
H459 H 0.2977 0.20962 0.93435 0.0
H460 H 0.35975 0.2422 0.9097 0.0
H461 H 0.35177 0.2078 0.8912 0.0
H462 H 0.28806 0.13372 0.93446 0.0
H463 H 0.29309 0.14277 0.972 0.0
H464 H 0.35833 0.19377 0.96579 0.0
H465 H 0.35315 0.18435 0.92833 0.0
H466 H 0.28531 0.09366 0.9096 0.0
H467 H 0.29203 0.06918 0.92995 0.0
H468 H 0.35976 0.11708 0.93594 0.0
H469 H 0.35275 0.14148 0.91609 0.0
H470 H 0.27673 0.08922 0.86376 0.0
H471 H 0.27518 0.05605 0.84885 0.0
H472 H 0.34445 0.08938 0.85421 0.0
H473 H 0.34572 0.12243 0.86902 0.0
H474 H 0.27782 0.11751 0.83455 0.0
H475 H 0.27937 0.10527 0.79889 0.0
H476 H 0.34838 0.14627 0.80523 0.0
H477 H 0.34658 0.15842 0.84059 0.0
H478 H 0.27918 0.1637 0.85359 0.0
H479 H 0.27888 0.18748 0.82753 0.0
H480 H 0.34813 0.22076 0.83011 0.0
H481 H 0.348 0.19605 0.85495 0.0
O482 O 0.31284 0.16343 0.00666 0.0
O483 O 0.34622 0.18952 0.00262 0.0
O484 O 0.29171 0.03361 0.83605 0.0
O485 O 0.32728 0.04997 0.83856 0.0
C486 C 0.31629 0.1679 0.89241 0.0
C487 C 0.3169 0.1531 0.9059 0.0
C488 C 0.31499 0.1334 0.8977 0.0
C489 C 0.3122 0.1283 0.87608 0.0
C490 C 0.31181 0.14312 0.86259 0.0
C491 C 0.31373 0.16287 0.87071 0.0
C492 C 0.31974 0.18919 0.90122 0.0
C493 C 0.30453 0.18999 0.91337 0.0
C494 C 0.30937 0.20946 0.92454 0.0
C495 C 0.32931 0.22845 0.92338 0.0
C496 C 0.34415 0.22781 0.91057 0.0
C497 C 0.33951 0.20826 0.8998 0.0
C498 C 0.32018 0.15848 0.9287 0.0
C499 C 0.30343 0.14679 0.94127 0.0
C500 C 0.30635 0.15203 0.96269 0.0
C501 C 0.32609 0.16905 0.97189 0.0
C502 C 0.3429 0.18061 0.95921 0.0
C503 C 0.33998 0.17531 0.93781 0.0
C504 C 0.31854 0.1193 0.91149 0.0
C505 C 0.30152 0.09889 0.91559 0.0
C506 C 0.30543 0.08492 0.92707 0.0
C507 C 0.32645 0.09115 0.93454 0.0
C508 C 0.34336 0.11189 0.93074 0.0
C509 C 0.33942 0.12583 0.91934 0.0
C510 C 0.31132 0.10813 0.86743 0.0
C511 C 0.29152 0.08927 0.8617 0.0
C512 C 0.2907 0.07038 0.8532 0.0
C513 C 0.30971 0.07007 0.85033 0.0
C514 C 0.32952 0.08905 0.8562 0.0
C515 C 0.33031 0.10793 0.86468 0.0
C516 C 0.31208 0.13891 0.84002 0.0
C517 C 0.29317 0.12423 0.82796 0.0
C518 C 0.29412 0.11715 0.80771 0.0
C519 C 0.31401 0.12472 0.79927 0.0
C520 C 0.33279 0.14035 0.81112 0.0
C521 C 0.33182 0.14732 0.83133 0.0
C522 C 0.31363 0.17838 0.85631 0.0
C523 C 0.29423 0.17626 0.84855 0.0
C524 C 0.29413 0.18994 0.83375 0.0
C525 C 0.31347 0.20602 0.82657 0.0
C526 C 0.33288 0.20832 0.83489 0.0
C527 C 0.33291 0.19444 0.84936 0.0
C528 C 0.32908 0.17468 0.99463 0.0
C529 C 0.30893 0.05008 0.84122 0.0
H530 H 0.82564 0.19448 0.03211 0.0
H531 H 0.70848 0.00468 0.86803 0.0
H532 H 0.8304 0.19602 0.9193 0.0
H533 H 0.85821 0.23198 0.93432 0.0
H534 H 0.90567 0.21261 0.92769 0.0
H535 H 0.87738 0.17619 0.91345 0.0
H536 H 0.79833 0.16501 0.94447 0.0
H537 H 0.80492 0.17873 0.981 0.0
H538 H 0.85678 0.16526 0.98771 0.0
H539 H 0.84982 0.15133 0.95121 0.0
H540 H 0.76409 0.12884 0.91788 0.0
H541 H 0.73646 0.11156 0.94224 0.0
H542 H 0.77282 0.08564 0.9714 0.0
H543 H 0.8006 0.10324 0.94699 0.0
H544 H 0.76251 0.11365 0.87231 0.0
H545 H 0.7306 0.07874 0.86026 0.0
H546 H 0.75776 0.04458 0.89125 0.0
H547 H 0.78967 0.07962 0.90302 0.0
H548 H 0.79802 0.14742 0.8512 0.0
H549 H 0.78542 0.13203 0.81554 0.0
H550 H 0.80485 0.08444 0.82547 0.0
H551 H 0.81651 0.09952 0.86159 0.0
H552 H 0.83639 0.18922 0.8714 0.0
H553 H 0.86024 0.20923 0.84482 0.0
H554 H 0.88405 0.16433 0.84352 0.0
H555 H 0.86017 0.14445 0.87027 0.0
O556 O 0.82325 0.18891 0.01771 0.0
O557 O 0.84984 0.1818 0.02031 0.0
O558 O 0.70766 0.03705 0.85692 0.0
O559 O 0.7209 0.0187 0.87259 0.0
C560 C 0.83433 0.16101 0.90877 0.0
C561 C 0.81956 0.14868 0.9231 0.0
C562 C 0.80114 0.12853 0.91634 0.0
C563 C 0.79788 0.12025 0.89545 0.0
C564 C 0.81293 0.13229 0.88122 0.0
C565 C 0.83123 0.15263 0.8879 0.0
C566 C 0.85188 0.18349 0.91548 0.0
C567 C 0.84685 0.19962 0.92098 0.0
C568 C 0.8628 0.22023 0.9294 0.0
C569 C 0.88419 0.22519 0.93232 0.0
C570 C 0.8893 0.20921 0.92598 0.0
C571 C 0.87324 0.18848 0.91766 0.0
C572 C 0.82346 0.15698 0.94528 0.0
C573 C 0.81097 0.16485 0.95391 0.0
C574 C 0.81484 0.17277 0.97476 0.0
C575 C 0.83135 0.17305 0.9873 0.0
C576 C 0.84391 0.16524 0.97851 0.0
C577 C 0.83998 0.15728 0.95768 0.0
C578 C 0.78423 0.11718 0.93068 0.0
C579 C 0.76604 0.11938 0.9295 0.0
C580 C 0.75042 0.1097 0.94351 0.0
C581 C 0.75262 0.09741 0.95876 0.0
C582 C 0.77076 0.095 0.95975 0.0
C583 C 0.78656 0.10498 0.94587 0.0
C584 C 0.77841 0.0991 0.8884 0.0
C585 C 0.76156 0.09859 0.87639 0.0
C586 C 0.74334 0.07864 0.86958 0.0
C587 C 0.74165 0.05885 0.87476 0.0
C588 C 0.75855 0.05949 0.88695 0.0
C589 C 0.77678 0.07946 0.89372 0.0
C590 C 0.80818 0.12459 0.8589 0.0
C591 C 0.79986 0.13389 0.84554 0.0
C592 C 0.79275 0.12509 0.82509 0.0
C593 C 0.79407 0.10692 0.81751 0.0
C594 C 0.80325 0.09819 0.83083 0.0
C595 C 0.81012 0.10688 0.8514 0.0
C596 C 0.84662 0.16545 0.87274 0.0
C597 C 0.84692 0.18386 0.86552 0.0
C598 C 0.86043 0.19515 0.85028 0.0
C599 C 0.87391 0.18825 0.84204 0.0
C600 C 0.87395 0.17009 0.8497 0.0
C601 C 0.86029 0.1587 0.86487 0.0
C602 C 0.83544 0.1815 0.00943 0.0
C603 C 0.72235 0.0376 0.86752 0.0
H604 H 0.86585 0.68367 0.04549 0.0
H605 H 0.69485 0.64062 0.86633 0.0
H606 H 0.88126 0.70662 0.93999 0.0
H607 H 0.91006 0.70327 0.95777 0.0
H608 H 0.884 0.63864 0.92737 0.0
H609 H 0.8546 0.64147 0.9107 0.0
H610 H 0.84471 0.70337 0.96416 0.0
H611 H 0.85464 0.70118 1.0002 0.0
H612 H 0.84042 0.63504 0.98495 0.0
H613 H 0.83027 0.63738 0.94902 0.0
H614 H 0.80798 0.70189 0.94845 0.0
H615 H 0.78067 0.69576 0.97254 0.0
H616 H 0.75398 0.62603 0.96174 0.0
H617 H 0.78155 0.6324 0.93787 0.0
H618 H 0.79504 0.70251 0.909 0.0
H619 H 0.76022 0.6984 0.89851 0.0
H620 H 0.737 0.63144 0.87565 0.0
H621 H 0.77186 0.63575 0.88639 0.0
H622 H 0.81612 0.70424 0.87018 0.0
H623 H 0.80098 0.70067 0.83478 0.0
H624 H 0.79805 0.63859 0.82396 0.0
H625 H 0.81125 0.64148 0.85986 0.0
H626 H 0.8695 0.71305 0.88012 0.0
H627 H 0.89144 0.71718 0.85095 0.0
H628 H 0.86785 0.64776 0.84688 0.0
H629 H 0.84567 0.64377 0.87553 0.0
O630 O 0.86152 0.68406 0.03125 0.0
O631 O 0.85428 0.65023 0.02252 0.0
O632 O 0.72148 0.67721 0.88263 0.0
O633 O 0.70875 0.64268 0.87066 0.0
C634 C 0.84615 0.67434 0.917 0.0
C635 C 0.83175 0.6723 0.932 0.0
C636 C 0.81229 0.67122 0.92595 0.0
C637 C 0.80701 0.67194 0.9049 0.0
C638 C 0.82131 0.67391 0.88985 0.0
C639 C 0.84101 0.67531 0.89593 0.0
C640 C 0.86608 0.67446 0.92368 0.0
C641 C 0.8821 0.69197 0.93676 0.0
C642 C 0.89839 0.69001 0.94697 0.0
C643 C 0.89914 0.67074 0.94379 0.0
C644 C 0.88383 0.65374 0.9298 0.0
C645 C 0.86724 0.65547 0.92004 0.0
C646 C 0.83675 0.67053 0.95405 0.0
C647 C 0.84354 0.68836 0.96871 0.0
C648 C 0.8493 0.68709 0.98925 0.0
C649 C 0.84838 0.66795 0.99545 0.0
C650 C 0.84133 0.65003 0.98069 0.0
C651 C 0.83551 0.6513 0.96018 0.0
C652 C 0.7966 0.66758 0.94143 0.0
C653 C 0.79631 0.68533 0.95146 0.0
C654 C 0.78068 0.68178 0.96511 0.0
C655 C 0.76512 0.6604 0.96897 0.0
C656 C 0.76588 0.64268 0.95927 0.0
C657 C 0.78149 0.64626 0.94557 0.0
C658 C 0.78589 0.66941 0.89851 0.0
C659 C 0.78236 0.68695 0.90182 0.0
C660 C 0.76249 0.68457 0.89576 0.0
C661 C 0.74581 0.66457 0.88625 0.0
C662 C 0.74948 0.64704 0.88294 0.0
C663 C 0.76936 0.64945 0.88904 0.0
C664 C 0.81491 0.67319 0.86758 0.0
C665 C 0.81229 0.68995 0.86007 0.0
C666 C 0.8038 0.68793 0.83973 0.0
C667 C 0.79813 0.66925 0.82639 0.0
C668 C 0.80175 0.65298 0.83381 0.0
C669 C 0.80972 0.65479 0.85426 0.0
C670 C 0.85622 0.67816 0.88011 0.0
C671 C 0.8694 0.69883 0.87311 0.0
C672 C 0.88191 0.70116 0.85649 0.0
C673 C 0.88127 0.68277 0.84653 0.0
C674 C 0.8685 0.6622 0.85405 0.0
C675 C 0.85606 0.65992 0.87063 0.0
C676 C 0.85487 0.66679 0.01719 0.0
C677 C 0.72466 0.66196 0.87977 0.0
H678 H 0.80156 0.68274 0.36109 0.0
H679 H 0.94557 0.62468 0.51067 0.0
H680 H 0.80777 0.67718 0.48651 0.0
H681 H 0.77928 0.68216 0.47068 0.0
H682 H 0.75461 0.62124 0.43328 0.0
H683 H 0.78249 0.61579 0.44984 0.0
H684 H 0.83178 0.68482 0.44681 0.0
H685 H 0.82097 0.69038 0.4124 0.0
H686 H 0.80893 0.62664 0.38967 0.0
H687 H 0.81942 0.62113 0.42429 0.0
H688 H 0.87848 0.68687 0.4499 0.0
H689 H 0.90539 0.69361 0.42525 0.0
H690 H 0.88211 0.62425 0.41737 0.0
H691 H 0.85585 0.6179 0.44268 0.0
H692 H 0.89562 0.67993 0.49028 0.0
H693 H 0.92883 0.67979 0.4989 0.0
H694 H 0.89251 0.60941 0.49911 0.0
H695 H 0.85946 0.60982 0.49042 0.0
H696 H 0.86871 0.67634 0.5277 0.0
H697 H 0.88197 0.67447 0.56247 0.0
H698 H 0.84196 0.60412 0.55586 0.0
H699 H 0.82887 0.60623 0.52087 0.0
H700 H 0.82857 0.67631 0.52263 0.0
H701 H 0.80739 0.67486 0.55145 0.0
H702 H 0.76485 0.60571 0.5355 0.0
H703 H 0.78589 0.60762 0.50614 0.0
O704 O 0.80623 0.6804 0.37445 0.0
O705 O 0.80152 0.64809 0.36318 0.0
O706 O 0.95059 0.66142 0.50725 0.0
O707 O 0.9327 0.62521 0.50725 0.0
C708 C 0.81705 0.64566 0.47494 0.0
C709 C 0.8312 0.64855 0.45935 0.0
C710 C 0.85017 0.64817 0.46418 0.0
C711 C 0.85514 0.64504 0.48455 0.0
C712 C 0.84139 0.64279 0.50023 0.0
C713 C 0.82235 0.64316 0.49548 0.0
C714 C 0.79714 0.64606 0.46942 0.0
C715 C 0.79565 0.66442 0.47563 0.0
C716 C 0.77953 0.66735 0.46644 0.0
C717 C 0.76501 0.65216 0.45067 0.0
C718 C 0.76575 0.63319 0.44534 0.0
C719 C 0.78153 0.63002 0.45487 0.0
C720 C 0.82634 0.65257 0.43803 0.0
C721 C 0.82689 0.67213 0.43435 0.0
C722 C 0.82068 0.67525 0.41468 0.0
C723 C 0.814 0.65892 0.39829 0.0
C724 C 0.81396 0.63953 0.40196 0.0
C725 C 0.82005 0.63638 0.42167 0.0
C726 C 0.86535 0.65193 0.44809 0.0
C727 C 0.87916 0.67316 0.4427 0.0
C728 C 0.8944 0.67694 0.42849 0.0
C729 C 0.89599 0.65948 0.41932 0.0
C730 C 0.8816 0.63812 0.42438 0.0
C731 C 0.86651 0.63441 0.43873 0.0
C732 C 0.87522 0.64489 0.4897 0.0
C733 C 0.89492 0.66452 0.49214 0.0
C734 C 0.91383 0.66438 0.49709 0.0
C735 C 0.91332 0.64457 0.49969 0.0
C736 C 0.89348 0.62494 0.49722 0.0
C737 C 0.87459 0.62511 0.49227 0.0
C738 C 0.8478 0.64144 0.5219 0.0
C739 C 0.86263 0.66057 0.5339 0.0
C740 C 0.87011 0.65945 0.55375 0.0
C741 C 0.86296 0.63913 0.56193 0.0
C742 C 0.84785 0.61997 0.54992 0.0
C743 C 0.84026 0.62114 0.53005 0.0
C744 C 0.80871 0.6421 0.51231 0.0
C745 C 0.81457 0.6609 0.52529 0.0
C746 C 0.80254 0.65996 0.54187 0.0
C747 C 0.7845 0.6401 0.54599 0.0
C748 C 0.77851 0.6213 0.5327 0.0
C749 C 0.79053 0.62232 0.51598 0.0
C750 C 0.8069 0.66207 0.37756 0.0
C751 C 0.93336 0.64434 0.50496 0.0
H752 H 0.28361 0.12554 0.36838 0.0
H753 H 0.38896 0.3255 0.52464 0.0
H754 H 0.3051 0.12879 0.48105 0.0
H755 H 0.29584 0.09277 0.46548 0.0
H756 H 0.36321 0.11453 0.46349 0.0
H757 H 0.37227 0.15046 0.47947 0.0
H758 H 0.30078 0.16127 0.45489 0.0
H759 H 0.28757 0.14532 0.41925 0.0
H760 H 0.35018 0.15535 0.40779 0.0
H761 H 0.36322 0.17147 0.44341 0.0
H762 H 0.31011 0.20311 0.48404 0.0
H763 H 0.29861 0.22354 0.46296 0.0
H764 H 0.34927 0.23722 0.42287 0.0
H765 H 0.3611 0.21703 0.44446 0.0
H766 H 0.32812 0.21719 0.52467 0.0
H767 H 0.33528 0.25372 0.53609 0.0
H768 H 0.39167 0.28206 0.50157 0.0
H769 H 0.38448 0.24538 0.49052 0.0
H770 H 0.3279 0.18127 0.54473 0.0
H771 H 0.33268 0.20048 0.57832 0.0
H772 H 0.39915 0.24496 0.56838 0.0
H773 H 0.39368 0.22604 0.53408 0.0
H774 H 0.31931 0.13929 0.52576 0.0
H775 H 0.32193 0.11849 0.55346 0.0
H776 H 0.39108 0.15559 0.55413 0.0
H777 H 0.38815 0.17692 0.52687 0.0
O778 O 0.2892 0.13203 0.38237 0.0
O779 O 0.32166 0.1375 0.3773 0.0
O780 O 0.35672 0.29545 0.53801 0.0
O781 O 0.38575 0.31084 0.52035 0.0
C782 C 0.34456 0.16461 0.48783 0.0
C783 C 0.34087 0.1769 0.47339 0.0
C784 C 0.344 0.1976 0.47985 0.0
C785 C 0.35192 0.2065 0.50043 0.0
C786 C 0.35549 0.19415 0.51487 0.0
C787 C 0.35165 0.17311 0.50862 0.0
C788 C 0.33932 0.14213 0.48127 0.0
C789 C 0.31782 0.1256 0.47756 0.0
C790 C 0.31259 0.10516 0.46852 0.0
C791 C 0.3288 0.10093 0.46301 0.0
C792 C 0.35038 0.11726 0.46767 0.0
C793 C 0.3556 0.13775 0.47677 0.0
C794 C 0.33297 0.16763 0.45165 0.0
C795 C 0.31164 0.16015 0.4446 0.0
C796 C 0.30413 0.15098 0.42426 0.0
C797 C 0.31782 0.14907 0.41066 0.0
C798 C 0.33922 0.1566 0.41784 0.0
C799 C 0.34671 0.16581 0.43817 0.0
C800 C 0.33664 0.20892 0.46596 0.0
C801 C 0.31877 0.21056 0.47074 0.0
C802 C 0.3122 0.22214 0.45869 0.0
C803 C 0.32317 0.23203 0.44143 0.0
C804 C 0.34054 0.22965 0.4361 0.0
C805 C 0.34733 0.21824 0.44839 0.0
C806 C 0.35594 0.22868 0.50699 0.0
C807 C 0.3421 0.23131 0.51974 0.0
C808 C 0.34618 0.2522 0.52616 0.0
C809 C 0.3641 0.27083 0.51979 0.0
C810 C 0.37777 0.26807 0.5068 0.0
C811 C 0.3737 0.24716 0.50044 0.0
C812 C 0.36042 0.20232 0.53702 0.0
C813 C 0.34366 0.19473 0.55011 0.0
C814 C 0.3465 0.20579 0.56939 0.0
C815 C 0.36629 0.22451 0.57609 0.0
C816 C 0.38357 0.23093 0.56356 0.0
C817 C 0.3806 0.22 0.54408 0.0
C818 C 0.35352 0.15947 0.52425 0.0
C819 C 0.335 0.14274 0.53177 0.0
C820 C 0.33657 0.13081 0.54755 0.0
C821 C 0.35674 0.13524 0.55604 0.0
C822 C 0.3753 0.15188 0.54818 0.0
C823 C 0.37369 0.16396 0.53249 0.0
C824 C 0.30977 0.13921 0.3891 0.0
C825 C 0.36856 0.29307 0.52664 0.0
H826 H 0.80768 0.15522 0.34793 0.0
H827 H 0.98077 0.28087 0.53989 0.0
H828 H 0.78907 0.15401 0.47432 0.0
H829 H 0.75739 0.12073 0.45851 0.0
H830 H 0.79806 0.09573 0.43935 0.0
H831 H 0.82916 0.12824 0.45626 0.0
H832 H 0.81658 0.1801 0.43677 0.0
H833 H 0.80815 0.17124 0.39933 0.0
H834 H 0.85675 0.15297 0.39699 0.0
H835 H 0.86484 0.16165 0.43448 0.0
H836 H 0.86664 0.22398 0.44287 0.0
H837 H 0.89495 0.24629 0.42057 0.0
H838 H 0.93125 0.21664 0.44129 0.0
H839 H 0.90281 0.19432 0.46341 0.0
H840 H 0.88595 0.24369 0.48723 0.0
H841 H 0.92076 0.2744 0.50095 0.0
H842 H 0.93726 0.22918 0.52659 0.0
H843 H 0.90249 0.19862 0.51257 0.0
H844 H 0.86227 0.22487 0.52678 0.0
H845 H 0.8755 0.23578 0.56319 0.0
H846 H 0.87115 0.17333 0.56934 0.0
H847 H 0.85939 0.16328 0.53256 0.0
H848 H 0.81223 0.18311 0.51906 0.0
H849 H 0.78763 0.16359 0.54532 0.0
H850 H 0.79652 0.10852 0.53251 0.0
H851 H 0.82136 0.12832 0.50651 0.0
O852 O 0.81126 0.15859 0.36273 0.0
O853 O 0.83647 0.14946 0.36234 0.0
O854 O 0.95771 0.29158 0.52064 0.0
O855 O 0.96694 0.26903 0.53421 0.0
C856 C 0.83092 0.16403 0.47478 0.0
C857 C 0.84627 0.17692 0.46108 0.0
C858 C 0.86615 0.1949 0.46902 0.0
C859 C 0.87052 0.20036 0.49061 0.0
C860 C 0.85488 0.18799 0.50428 0.0
C861 C 0.83496 0.16989 0.49636 0.0
C862 C 0.81139 0.14353 0.46639 0.0
C863 C 0.79099 0.14113 0.467 0.0
C864 C 0.77297 0.12221 0.45775 0.0
C865 C 0.77512 0.10552 0.44756 0.0
C866 C 0.79564 0.10798 0.44733 0.0
C867 C 0.81352 0.12668 0.45681 0.0
C868 C 0.84139 0.17164 0.4383 0.0
C869 C 0.82537 0.17417 0.42813 0.0
C870 C 0.8206 0.16911 0.40675 0.0
C871 C 0.83181 0.16144 0.39515 0.0
C872 C 0.84785 0.15889 0.40544 0.0
C873 C 0.85257 0.16392 0.42683 0.0
C874 C 0.88277 0.20765 0.45478 0.0
C875 C 0.88064 0.22221 0.44243 0.0
C876 C 0.89682 0.23495 0.42979 0.0
C877 C 0.91531 0.2332 0.42921 0.0
C878 C 0.9171 0.21816 0.44124 0.0
C879 C 0.90098 0.20555 0.45398 0.0
C880 C 0.89172 0.21896 0.49892 0.0
C881 C 0.89715 0.24047 0.49573 0.0
C882 C 0.91702 0.25797 0.50363 0.0
C883 C 0.9318 0.25425 0.51489 0.0
C884 C 0.92626 0.23263 0.51801 0.0
C885 C 0.90641 0.21515 0.51005 0.0
C886 C 0.85999 0.19335 0.527 0.0
C887 C 0.86407 0.21353 0.53607 0.0
C888 C 0.87144 0.21963 0.55695 0.0
C889 C 0.87454 0.20549 0.56924 0.0
C890 C 0.86937 0.18481 0.56027 0.0
C891 C 0.86236 0.17889 0.53932 0.0
C892 C 0.81856 0.15713 0.51086 0.0
C893 C 0.80867 0.16674 0.52179 0.0
C894 C 0.79457 0.15553 0.53671 0.0
C895 C 0.79019 0.13454 0.54105 0.0
C896 C 0.79976 0.12477 0.52969 0.0
C897 C 0.81379 0.13595 0.51471 0.0
C898 C 0.82672 0.15611 0.37243 0.0
C899 C 0.9529 0.27279 0.52338 0.0
H900 H 0.00355 0.52439 0.3637 0.0
H901 H 0.01546 0.37474 0.19807 0.0
H902 H 0.97214 0.51568 0.25675 0.0
H903 H 0.9766 0.55101 0.26934 0.0
H904 H 0.03377 0.58438 0.23673 0.0
H905 H 0.03001 0.54917 0.22513 0.0
H906 H 0.97516 0.47926 0.28057 0.0
H907 H 0.98135 0.49321 0.31702 0.0
H908 H 0.04324 0.54695 0.30472 0.0
H909 H 0.03695 0.53268 0.26838 0.0
H910 H 0.97302 0.43755 0.25808 0.0
H911 H 0.98113 0.41652 0.28198 0.0
H912 H 0.04734 0.4686 0.28953 0.0
H913 H 0.03894 0.48959 0.26597 0.0
H914 H 0.96394 0.43023 0.20754 0.0
H915 H 0.96334 0.39625 0.19746 0.0
H916 H 0.03121 0.42785 0.21557 0.0
H917 H 0.03161 0.46177 0.22534 0.0
H918 H 0.96185 0.46194 0.17844 0.0
H919 H 0.96132 0.44829 0.14259 0.0
H920 H 0.02901 0.4711 0.1521 0.0
H921 H 0.02935 0.48455 0.18759 0.0
H922 H 0.96486 0.51003 0.20325 0.0
H923 H 0.96535 0.53514 0.17826 0.0
H924 H 0.02705 0.54699 0.16086 0.0
H925 H 0.02679 0.52271 0.18632 0.0
O926 O 0.00147 0.51911 0.34924 0.0
O927 O 0.03308 0.5465 0.34207 0.0
O928 O 0.98039 0.3725 0.1927 0.0
O929 O 0.01523 0.38795 0.20192 0.0
C930 C 0.99922 0.50859 0.23408 0.0
C931 C 0.00166 0.49656 0.2497 0.0
C932 C 0.00111 0.47681 0.24421 0.0
C933 C 0.99805 0.469 0.22315 0.0
C934 C 0.99608 0.48121 0.20753 0.0
C935 C 0.99654 0.50096 0.21294 0.0
C936 C 0.00069 0.52983 0.23995 0.0
C937 C 0.98557 0.53061 0.25226 0.0
C938 C 0.98809 0.55069 0.25939 0.0
C939 C 0.00545 0.57022 0.25386 0.0
C940 C 0.02016 0.56945 0.24097 0.0
C941 C 0.01795 0.54939 0.23429 0.0
C942 C 0.00556 0.50501 0.27184 0.0
C943 C 0.99007 0.494 0.28581 0.0
C944 C 0.99363 0.50203 0.30661 0.0
C945 C 0.01278 0.52123 0.31378 0.0
C946 C 0.02831 0.53215 0.29971 0.0
C947 C 0.02474 0.52407 0.27894 0.0
C948 C 0.0054 0.46505 0.26032 0.0
C949 C 0.98918 0.44449 0.26517 0.0
C950 C 0.99389 0.43248 0.27871 0.0
C951 C 0.01492 0.44082 0.28756 0.0
C952 C 0.03094 0.46181 0.28321 0.0
C953 C 0.0262 0.4738 0.26971 0.0
C954 C 0.99777 0.44837 0.21728 0.0
C955 C 0.97864 0.42975 0.20931 0.0
C956 C 0.97836 0.41038 0.20358 0.0
C957 C 0.99724 0.40932 0.20576 0.0
C958 C 0.01639 0.42808 0.21374 0.0
C959 C 0.01666 0.44745 0.2194 0.0
C960 C 0.99565 0.47423 0.1855 0.0
C961 C 0.97655 0.46414 0.17261 0.0
C962 C 0.97626 0.4563 0.15226 0.0
C963 C 0.99515 0.45877 0.14455 0.0
C964 C 0.01428 0.46928 0.15748 0.0
C965 C 0.0145 0.47686 0.17777 0.0
C966 C 0.99572 0.51442 0.19649 0.0
C967 C 0.97837 0.51794 0.19388 0.0
C968 C 0.97865 0.53221 0.17957 0.0
C969 C 0.99631 0.54318 0.16769 0.0
C970 C 0.01336 0.53909 0.17001 0.0
C971 C 0.01311 0.52496 0.18433 0.0
C972 C 0.01647 0.52977 0.33585 0.0
C973 C 0.99702 0.38879 0.19971 0.0
H974 H 0.52558 0.52371 0.37143 0.0
H975 H 0.36027 0.35113 0.19203 0.0
H976 H 0.51143 0.5325 0.2435 0.0
H977 H 0.54342 0.56559 0.25907 0.0
H978 H 0.5705 0.52665 0.27855 0.0
H979 H 0.53839 0.49356 0.26286 0.0
H980 H 0.4951 0.51422 0.28434 0.0
H981 H 0.50777 0.52389 0.32103 0.0
H982 H 0.51017 0.46441 0.3234 0.0
H983 H 0.49776 0.45509 0.28658 0.0
H984 H 0.45182 0.47817 0.28143 0.0
H985 H 0.42642 0.46006 0.30718 0.0
H986 H 0.42207 0.39888 0.28693 0.0
H987 H 0.44907 0.41773 0.26256 0.0
H988 H 0.42238 0.45181 0.2377 0.0
H989 H 0.38661 0.42104 0.22669 0.0
H990 H 0.41511 0.38481 0.20182 0.0
H991 H 0.45077 0.4156 0.21312 0.0
H992 H 0.4428 0.47016 0.19801 0.0
H993 H 0.42918 0.45992 0.16167 0.0
H994 H 0.47655 0.44128 0.1508 0.0
H995 H 0.48959 0.4509 0.18756 0.0
H996 H 0.48727 0.50925 0.19781 0.0
H997 H 0.50969 0.53158 0.17168 0.0
H998 H 0.55782 0.51523 0.18985 0.0
H999 H 0.53446 0.49165 0.21503 0.0
O1000 O 0.5206 0.51957 0.35692 0.0
O1001 O 0.52138 0.4887 0.35737 0.0
O1002 O 0.36036 0.38276 0.20978 0.0
O1003 O 0.37422 0.3635 0.19664 0.0
C1004 C 0.502 0.49063 0.24528 0.0
C1005 C 0.48833 0.47831 0.26038 0.0
C1006 C 0.4676 0.4606 0.25422 0.0
C1007 C 0.46088 0.45462 0.2329 0.0
C1008 C 0.47467 0.46675 0.21778 0.0
C1009 C 0.49518 0.48493 0.22398 0.0
C1010 C 0.52265 0.51069 0.25207 0.0
C1011 C 0.52445 0.53118 0.25078 0.0
C1012 C 0.5426 0.54999 0.25983 0.0
C1013 C 0.5593 0.54861 0.27017 0.0
C1014 C 0.55789 0.52816 0.2706 0.0
C1015 C 0.53962 0.5093 0.26168 0.0
C1016 C 0.49571 0.48405 0.28277 0.0
C1017 C 0.49852 0.50338 0.29277 0.0
C1018 C 0.50568 0.50882 0.31376 0.0
C1019 C 0.51003 0.49495 0.32515 0.0
C1020 C 0.507 0.47548 0.31508 0.0
C1021 C 0.4999 0.4701 0.29407 0.0
C1022 C 0.45241 0.44932 0.27017 0.0
C1023 C 0.44571 0.46095 0.28288 0.0
C1024 C 0.43089 0.45044 0.2974 0.0
C1025 C 0.42193 0.42788 0.29914 0.0
C1026 C 0.4288 0.41631 0.28637 0.0
C1027 C 0.44407 0.42699 0.27221 0.0
C1028 C 0.43915 0.43588 0.2263 0.0
C1029 C 0.42085 0.43716 0.22998 0.0
C1030 C 0.40045 0.41959 0.22362 0.0
C1031 C 0.398 0.40045 0.21338 0.0
C1032 C 0.41641 0.39928 0.20967 0.0
C1033 C 0.4368 0.41685 0.21609 0.0
C1034 C 0.46705 0.46111 0.19545 0.0
C1035 C 0.45016 0.46377 0.1878 0.0
C1036 C 0.44256 0.45811 0.16698 0.0
C1037 C 0.45183 0.44984 0.1533 0.0
C1038 C 0.46892 0.44738 0.16098 0.0
C1039 C 0.47648 0.45299 0.1819 0.0
C1040 C 0.50913 0.49866 0.20821 0.0
C1041 C 0.50253 0.51025 0.19594 0.0
C1042 C 0.51554 0.52327 0.18119 0.0
C1043 C 0.53571 0.52539 0.17869 0.0
C1044 C 0.54231 0.51378 0.19111 0.0
C1045 C 0.52908 0.50046 0.20566 0.0
C1046 C 0.51767 0.5008 0.34744 0.0
C1047 C 0.37637 0.38176 0.20653 0.0
H1048 H 0.53225 -0.00011 0.36969 0.0
H1049 H 0.35346 0.97229 0.21389 0.0
H1050 H 0.53965 0.02667 0.26603 0.0
H1051 H 0.56894 0.02361 0.28282 0.0
H1052 H 0.54592 0.9615 0.24814 0.0
H1053 H 0.51603 0.96411 0.23201 0.0
H1054 H 0.50349 0.02066 0.29277 0.0
H1055 H 0.51602 0.01764 0.3275 0.0
H1056 H 0.50639 0.95419 0.30727 0.0
H1057 H 0.49356 0.95727 0.27273 0.0
H1058 H 0.46359 0.01987 0.27492 0.0
H1059 H 0.43966 0.01317 0.30268 0.0
H1060 H 0.42278 0.94534 0.29882 0.0
H1061 H 0.44738 0.95251 0.27165 0.0
H1062 H 0.46045 0.02642 0.22321 0.0
H1063 H 0.42687 0.02607 0.21545 0.0
H1064 H 0.3912 0.95785 0.22728 0.0
H1065 H 0.42487 0.95837 0.23478 0.0
H1066 H 0.4966 0.02818 0.19259 0.0
H1067 H 0.48495 0.02812 0.15642 0.0
H1068 H 0.43252 0.96201 0.15868 0.0
H1069 H 0.44462 0.96203 0.19447 0.0
H1070 H 0.5388 0.02691 0.21388 0.0
H1071 H 0.55939 0.02582 0.18522 0.0
H1072 H 0.50613 0.96247 0.16241 0.0
H1073 H 0.48646 0.96317 0.19162 0.0
O1074 O 0.52679 0.00055 0.356 0.0
O1075 O 0.52177 0.96811 0.34474 0.0
O1076 O 0.38604 0.00806 0.21126 0.0
O1077 O 0.36697 0.97292 0.21697 0.0
C1078 C 0.50499 0.99454 0.24276 0.0
C1079 C 0.49138 0.9917 0.25883 0.0
C1080 C 0.47165 0.99068 0.25449 0.0
C1081 C 0.46551 0.99275 0.23411 0.0
C1082 C 0.47872 0.9948 0.21787 0.0
C1083 C 0.49839 0.9954 0.22215 0.0
C1084 C 0.52566 0.99555 0.24791 0.0
C1085 C 0.54128 0.0127 0.26159 0.0
C1086 C 0.55788 0.01092 0.27122 0.0
C1087 C 0.55943 0.99228 0.26677 0.0
C1088 C 0.54498 0.97605 0.25166 0.0
C1089 C 0.52805 0.9776 0.24236 0.0
C1090 C 0.49765 0.9892 0.28026 0.0
C1091 C 0.50386 0.00602 0.29596 0.0
C1092 C 0.51112 0.00429 0.31574 0.0
C1093 C 0.5123 0.98571 0.32013 0.0
C1094 C 0.50572 0.96873 0.3044 0.0
C1095 C 0.49838 0.97045 0.28467 0.0
C1096 C 0.45708 0.98665 0.27125 0.0
C1097 C 0.45473 0.00361 0.28016 0.0
C1098 C 0.44099 -0.00031 0.29595 0.0
C1099 C 0.42917 0.97866 0.30297 0.0
C1100 C 0.43182 0.96178 0.29407 0.0
C1101 C 0.44571 0.96578 0.27841 0.0
C1102 C 0.44507 0.99247 0.22967 0.0
C1103 C 0.44535 0.01143 0.22412 0.0
C1104 C 0.42616 0.01118 0.21971 0.0
C1105 C 0.40634 0.99193 0.22078 0.0
C1106 C 0.40616 0.97295 0.22635 0.0
C1107 C 0.42537 0.97322 0.23073 0.0
C1108 C 0.47138 0.99515 0.19617 0.0
C1109 C 0.48261 0.01372 0.18521 0.0
C1110 C 0.47589 0.01368 0.16462 0.0
C1111 C 0.45786 0.99503 0.15465 0.0
C1112 C 0.44665 0.97652 0.16578 0.0
C1113 C 0.45338 0.97657 0.1863 0.0
C1114 C 0.5111 0.99514 0.20482 0.0
C1115 C 0.53173 0.01275 0.20274 0.0
C1116 C 0.54337 0.01218 0.18624 0.0
C1117 C 0.5345 0.99402 0.17148 0.0
C1118 C 0.51373 0.97654 0.17364 0.0
C1119 C 0.5023 0.977 0.19022 0.0
C1120 C 0.52054 0.98416 0.341 0.0
C1121 C 0.3859 0.99155 0.21605 0.0
H1122 H 0.49978 0.04321 0.68603 0.0
H1123 H 0.62984 0.99459 0.84147 0.0
H1124 H 0.49863 0.04803 0.79802 0.0
H1125 H 0.46933 0.05065 0.78087 0.0
H1126 H 0.42633 0.98195 0.78669 0.0
H1127 H 0.45586 0.9795 0.80392 0.0
H1128 H 0.53282 0.04854 0.77147 0.0
H1129 H 0.52404 0.05254 0.73564 0.0
H1130 H 0.4713 0.98581 0.73039 0.0
H1131 H 0.48043 0.98196 0.76616 0.0
H1132 H 0.57048 0.04745 0.79487 0.0
H1133 H 0.59611 0.05053 0.76984 0.0
H1134 H 0.55071 0.98548 0.74276 0.0
H1135 H 0.52533 0.98246 0.76803 0.0
H1136 H 0.57043 0.04217 0.84367 0.0
H1137 H 0.60367 0.04278 0.85401 0.0
H1138 H 0.57929 0.97985 0.82008 0.0
H1139 H 0.54605 0.97934 0.81006 0.0
H1140 H 0.52963 0.03756 0.86793 0.0
H1141 H 0.54084 0.03659 0.90369 0.0
H1142 H 0.53841 0.9756 0.88706 0.0
H1143 H 0.52541 0.97587 0.85173 0.0
H1144 H 0.4936 0.0398 0.84355 0.0
H1145 H 0.47341 0.03885 0.87314 0.0
H1146 H 0.4588 0.9729 0.8815 0.0
H1147 H 0.47842 0.97376 0.85139 0.0
O1148 O 0.50313 0.0412 0.70009 0.0
O1149 O 0.47618 0.00683 0.69822 0.0
O1150 O 0.62861 0.02705 0.85493 0.0
O1151 O 0.61686 0.99476 0.83764 0.0
C1152 C 0.49807 0.01135 0.80846 0.0
C1153 C 0.51219 0.01279 0.79335 0.0
C1154 C 0.53102 0.01245 0.79914 0.0
C1155 C 0.53564 0.01033 0.82002 0.0
C1156 C 0.52125 0.00826 0.83509 0.0
C1157 C 0.50232 0.00862 0.82927 0.0
C1158 C 0.47935 0.01357 0.80215 0.0
C1159 C 0.48276 0.03366 0.79599 0.0
C1160 C 0.46608 0.03508 0.78603 0.0
C1161 C 0.44563 0.01643 0.78215 0.0
C1162 C 0.44191 0.9966 0.78952 0.0
C1163 C 0.4587 0.99517 0.79942 0.0
C1164 C 0.50729 0.01495 0.77136 0.0
C1165 C 0.5195 0.03476 0.76248 0.0
C1166 C 0.51439 0.03702 0.74205 0.0
C1167 C 0.49694 0.0195 0.73015 0.0
C1168 C 0.48483 0.99962 0.73911 0.0
C1169 C 0.49 0.99738 0.75953 0.0
C1170 C 0.54613 0.01468 0.78334 0.0
C1171 C 0.56608 0.03392 0.78346 0.0
C1172 C 0.5806 0.03571 0.76906 0.0
C1173 C 0.57544 0.01823 0.75434 0.0
C1174 C 0.55523 0.99914 0.75403 0.0
C1175 C 0.5407 0.9974 0.76838 0.0
C1176 C 0.55585 0.0107 0.82615 0.0
C1177 C 0.57229 0.02851 0.83855 0.0
C1178 C 0.59126 0.02883 0.8444 0.0
C1179 C 0.59414 0.01135 0.83787 0.0
C1180 C 0.57761 0.99357 0.82537 0.0
C1181 C 0.55863 0.99325 0.81958 0.0
C1182 C 0.52671 0.00681 0.85717 0.0
C1183 C 0.53102 0.02373 0.87214 0.0
C1184 C 0.53775 0.02328 0.89255 0.0
C1185 C 0.54087 0.00616 0.89834 0.0
C1186 C 0.53597 0.98892 0.88336 0.0
C1187 C 0.52876 0.98916 0.86305 0.0
C1188 C 0.48748 0.00685 0.84526 0.0
C1189 C 0.48556 0.02495 0.85142 0.0
C1190 C 0.47425 0.02446 0.86852 0.0
C1191 C 0.46471 0.00589 0.87988 0.0
C1192 C 0.46581 0.9874 0.87305 0.0
C1193 C 0.47708 0.98788 0.85588 0.0
C1194 C 0.4914 0.02203 0.70853 0.0
C1195 C 0.61426 0.01161 0.84403 0.0
H1196 H 0.96015 0.45376 0.70812 0.0
H1197 H 0.00325 0.63397 0.87155 0.0
H1198 H 0.96569 0.45315 0.82351 0.0
H1199 H 0.96064 0.41857 0.80849 0.0
H1200 H 0.02931 0.44598 0.81225 0.0
H1201 H 0.0342 0.48069 0.82773 0.0
H1202 H 0.96038 0.48211 0.79448 0.0
H1203 H 0.9539 0.46823 0.758 0.0
H1204 H 0.02127 0.48992 0.75593 0.0
H1205 H 0.02754 0.50392 0.79238 0.0
H1206 H 0.95798 0.51673 0.81755 0.0
H1207 H 0.94782 0.53625 0.7936 0.0
H1208 H 0.01193 0.56872 0.77332 0.0
H1209 H 0.02193 0.54899 0.79731 0.0
H1210 H 0.96816 0.52702 0.86661 0.0
H1211 H 0.96376 0.55784 0.87783 0.0
H1212 H 0.02215 0.60179 0.85042 0.0
H1213 H 0.0265 0.57086 0.83956 0.0
H1214 H 0.97954 0.49395 0.88996 0.0
H1215 H 0.97814 0.50747 0.92485 0.0
H1216 H 0.0331 0.57024 0.9155 0.0
H1217 H 0.03529 0.55595 0.88128 0.0
H1218 H 0.98205 0.45721 0.86621 0.0
H1219 H 0.99104 0.43946 0.89311 0.0
H1220 H 0.05334 0.49741 0.90561 0.0
H1221 H 0.04454 0.51486 0.87814 0.0
O1222 O 0.9631 0.45953 0.72249 0.0
O1223 O 0.99788 0.47099 0.72224 0.0
O1224 O 0.97479 0.59823 0.88132 0.0
O1225 O 0.00461 0.62148 0.86732 0.0
C1226 C 0.00273 0.49075 0.83317 0.0
C1227 C 0.99829 0.50212 0.81825 0.0
C1228 C 0.99699 0.52063 0.82456 0.0
C1229 C 0.0004 0.52801 0.84575 0.0
C1230 C 0.0056 0.5171 0.86065 0.0
C1231 C 0.007 0.49853 0.85433 0.0
C1232 C 0.00029 0.46935 0.82657 0.0
C1233 C 0.97963 0.45157 0.82136 0.0
C1234 C 0.9768 0.43193 0.81267 0.0
C1235 C 0.9946 0.42972 0.8089 0.0
C1236 C 0.01533 0.44725 0.81503 0.0
C1237 C 0.01816 0.46702 0.82382 0.0
C1238 C 0.99445 0.49417 0.79598 0.0
C1239 C 0.97374 0.48403 0.78605 0.0
C1240 C 0.97007 0.47603 0.76524 0.0
C1241 C 0.98707 0.47798 0.75403 0.0
C1242 C 0.00783 0.48817 0.7641 0.0
C1243 C 0.01146 0.49619 0.78489 0.0
C1244 C 0.99068 0.53154 0.80915 0.0
C1245 C 0.96974 0.52791 0.80777 0.0
C1246 C 0.96395 0.53895 0.79404 0.0
C1247 C 0.9791 0.55399 0.78163 0.0
C1248 C -0.0 0.55731 0.78281 0.0
C1249 C 0.00571 0.54606 0.7964 0.0
C1250 C 0.99767 0.54674 0.85234 0.0
C1251 C 0.98 0.54334 0.86312 0.0
C1252 C 0.97752 0.56096 0.86947 0.0
C1253 C 0.99262 0.5823 0.86503 0.0
C1254 C 0.01023 0.58559 0.8541 0.0
C1255 C 0.01274 0.56796 0.84783 0.0
C1256 C 0.00741 0.52402 0.88301 0.0
C1257 C 0.99174 0.51036 0.89576 0.0
C1258 C 0.99078 0.51825 0.91559 0.0
C1259 C 0.00521 0.54012 0.92288 0.0
C1260 C 0.02179 0.55329 0.91055 0.0
C1261 C 0.02299 0.54522 0.89088 0.0
C1262 C 0.01274 0.48725 0.86997 0.0
C1263 C 0.99785 0.46588 0.87434 0.0
C1264 C 0.00298 0.45578 0.88974 0.0
C1265 C 0.02293 0.46704 0.90135 0.0
C1266 C 0.03785 0.48839 0.89689 0.0
C1267 C 0.03285 0.49834 0.88124 0.0
C1268 C 0.9831 0.46933 0.73197 0.0
C1269 C 0.99006 0.60108 0.87174 0.0
H1270 H 0.48542 0.50509 0.68958 0.0
H1271 H 0.65369 0.63687 0.86653 0.0
H1272 H 0.46419 0.51052 0.79924 0.0
H1273 H 0.43325 0.4774 0.78186 0.0
H1274 H 0.46002 0.43895 0.80353 0.0
H1275 H 0.4907 0.472 0.82102 0.0
H1276 H 0.50495 0.54524 0.77466 0.0
H1277 H 0.49603 0.53357 0.73761 0.0
H1278 H 0.50446 0.47846 0.74739 0.0
H1279 H 0.51359 0.49048 0.78434 0.0
H1280 H 0.54722 0.58409 0.79863 0.0
H1281 H 0.57602 0.60489 0.77637 0.0
H1282 H 0.58814 0.55124 0.77016 0.0
H1283 H 0.55886 0.53038 0.79193 0.0
H1284 H 0.54748 0.59001 0.84953 0.0
H1285 H 0.58208 0.6218 0.86213 0.0
H1286 H 0.61363 0.58571 0.84611 0.0
H1287 H 0.57892 0.55398 0.83382 0.0
H1288 H 0.50911 0.55709 0.87413 0.0
H1289 H 0.52048 0.56891 0.91103 0.0
H1290 H 0.56532 0.54575 0.90772 0.0
H1291 H 0.55355 0.53364 0.87115 0.0
H1292 H 0.46738 0.51841 0.84857 0.0
H1293 H 0.44284 0.49786 0.87456 0.0
H1294 H 0.48327 0.47146 0.89139 0.0
H1295 H 0.50785 0.49249 0.86583 0.0
O1296 O 0.48912 0.50949 0.70425 0.0
O1297 O 0.49354 0.48137 0.71013 0.0
O1298 O 0.6228 0.64236 0.86974 0.0
O1299 O 0.6398 0.62454 0.8617 0.0
C1300 C 0.4998 0.51369 0.81894 0.0
C1301 C 0.51484 0.52559 0.80463 0.0
C1302 C 0.53479 0.54393 0.81174 0.0
C1303 C 0.53969 0.55049 0.83316 0.0
C1304 C 0.52471 0.5385 0.84747 0.0
C1305 C 0.50473 0.5201 0.84036 0.0
C1306 C 0.47958 0.49357 0.81138 0.0
C1307 C 0.46306 0.49485 0.80062 0.0
C1308 C 0.44548 0.476 0.79073 0.0
C1309 C 0.44443 0.45574 0.79127 0.0
C1310 C 0.46059 0.45443 0.80278 0.0
C1311 C 0.47798 0.4732 0.81288 0.0
C1312 C 0.50979 0.51864 0.78214 0.0
C1313 C 0.50492 0.5307 0.76872 0.0
C1314 C 0.4998 0.52397 0.74759 0.0
C1315 C 0.49947 0.50504 0.73954 0.0
C1316 C 0.50451 0.49308 0.75308 0.0
C1317 C 0.50969 0.49987 0.77419 0.0
C1318 C 0.55102 0.55579 0.79688 0.0
C1319 C 0.55595 0.57678 0.79222 0.0
C1320 C 0.5725 0.58866 0.77963 0.0
C1321 C 0.58455 0.57982 0.77161 0.0
C1322 C 0.57907 0.55846 0.77585 0.0
C1323 C 0.56241 0.54655 0.78835 0.0
C1324 C 0.56074 0.56977 0.84069 0.0
C1325 C 0.5619 0.58902 0.8488 0.0
C1326 C 0.58167 0.60714 0.85595 0.0
C1327 C 0.60064 0.60631 0.85509 0.0
C1328 C 0.59936 0.58693 0.84697 0.0
C1329 C 0.57957 0.56881 0.83987 0.0
C1330 C 0.53058 0.54459 0.87002 0.0
C1331 C 0.52121 0.55439 0.88151 0.0
C1332 C 0.52781 0.56122 0.90249 0.0
C1333 C 0.54379 0.55825 0.91229 0.0
C1334 C 0.55276 0.54799 0.90074 0.0
C1335 C 0.54619 0.54121 0.87982 0.0
C1336 C 0.48941 0.507 0.85545 0.0
C1337 C 0.47084 0.50813 0.85789 0.0
C1338 C 0.45683 0.49632 0.87267 0.0
C1339 C 0.46115 0.48312 0.8852 0.0
C1340 C 0.47965 0.48181 0.88236 0.0
C1341 C 0.49365 0.49367 0.86767 0.0
C1342 C 0.49388 0.49785 0.71712 0.0
C1343 C 0.62169 0.62553 0.86263 0.0
H1344 H 0.65371 0.85134 0.69289 0.0
H1345 H 0.69589 0.72181 0.5269 0.0
H1346 H 0.62519 0.84194 0.58742 0.0
H1347 H 0.62908 0.87678 0.60102 0.0
H1348 H 0.6838 0.91169 0.56557 0.0
H1349 H 0.68077 0.87712 0.55303 0.0
H1350 H 0.63138 0.8056 0.61007 0.0
H1351 H 0.63544 0.81928 0.64637 0.0
H1352 H 0.69356 0.87822 0.6346 0.0
H1353 H 0.68947 0.86422 0.59843 0.0
H1354 H 0.63679 0.76556 0.58461 0.0
H1355 H 0.6498 0.74657 0.60552 0.0
H1356 H 0.70873 0.80772 0.62243 0.0
H1357 H 0.69637 0.82595 0.59942 0.0
H1358 H 0.62753 0.75772 0.53995 0.0
H1359 H 0.63399 0.72798 0.5299 0.0
H1360 H 0.70211 0.7719 0.54331 0.0
H1361 H 0.69541 0.80154 0.5531 0.0
H1362 H 0.61761 0.77964 0.51275 0.0
H1363 H 0.61769 0.76321 0.47869 0.0
H1364 H 0.6857 0.80918 0.47867 0.0
H1365 H 0.68563 0.82385 0.51337 0.0
H1366 H 0.61318 0.82831 0.5321 0.0
H1367 H 0.60584 0.84444 0.50218 0.0
H1368 H 0.67089 0.86974 0.486 0.0
H1369 H 0.67836 0.85449 0.51615 0.0
O1370 O 0.65252 0.84617 0.67853 0.0
O1371 O 0.6822 0.87624 0.67162 0.0
O1372 O 0.65772 0.71141 0.52396 0.0
O1373 O 0.69288 0.73328 0.53074 0.0
C1374 C 0.65278 0.83644 0.56371 0.0
C1375 C 0.65721 0.82575 0.57948 0.0
C1376 C 0.65941 0.80748 0.57413 0.0
C1377 C 0.65707 0.79984 0.55309 0.0
C1378 C 0.6524 0.81028 0.53744 0.0
C1379 C 0.65026 0.82858 0.5427 0.0
C1380 C 0.65266 0.85695 0.56917 0.0
C1381 C 0.63784 0.85709 0.58238 0.0
C1382 C 0.64004 0.87689 0.5901 0.0
C1383 C 0.65666 0.89672 0.58419 0.0
C1384 C 0.67073 0.89652 0.5701 0.0
C1385 C 0.6689 0.8768 0.56285 0.0
C1386 C 0.66005 0.83396 0.6016 0.0
C1387 C 0.64502 0.82141 0.6154 0.0
C1388 C 0.64736 0.82929 0.6361 0.0
C1389 C 0.66479 0.84988 0.64337 0.0
C1390 C 0.67993 0.86233 0.62951 0.0
C1391 C 0.67761 0.85439 0.60883 0.0
C1392 C 0.66568 0.79708 0.59026 0.0
C1393 C 0.65248 0.77484 0.59291 0.0
C1394 C 0.65993 0.76406 0.60517 0.0
C1395 C 0.68053 0.77547 0.61572 0.0
C1396 C 0.69307 0.79816 0.61416 0.0
C1397 C 0.68586 0.80877 0.60131 0.0
C1398 C 0.66101 0.78175 0.54717 0.0
C1399 C 0.64383 0.76088 0.5406 0.0
C1400 C 0.64757 0.74393 0.53493 0.0
C1401 C 0.66858 0.74757 0.53579 0.0
C1402 C 0.68574 0.76854 0.54245 0.0
C1403 C 0.68198 0.78548 0.54807 0.0
C1404 C 0.6516 0.80293 0.51544 0.0
C1405 C 0.63242 0.78623 0.50519 0.0
C1406 C 0.63252 0.77697 0.48565 0.0
C1407 C 0.65178 0.78459 0.47591 0.0
C1408 C 0.67068 0.80234 0.48585 0.0
C1409 C 0.67065 0.81107 0.50556 0.0
C1410 C 0.64617 0.83985 0.52597 0.0
C1411 C 0.62588 0.83759 0.52222 0.0
C1412 C 0.62171 0.84675 0.50523 0.0
C1413 C 0.63776 0.85797 0.49178 0.0
C1414 C 0.65823 0.86086 0.49605 0.0
C1415 C 0.66246 0.85209 0.51314 0.0
C1416 C 0.66711 0.85829 0.66533 0.0
C1417 C 0.67264 0.72962 0.52979 0.0
H1418 H 0.18225 0.85743 0.70023 0.0
H1419 H 0.02771 0.6822 0.51848 0.0
H1420 H 0.17674 0.85962 0.56879 0.0
H1421 H 0.20455 0.89458 0.58591 0.0
H1422 H 0.23349 0.86199 0.61658 0.0
H1423 H 0.20561 0.82688 0.59905 0.0
H1424 H 0.1585 0.84367 0.61103 0.0
H1425 H 0.16814 0.85498 0.64803 0.0
H1426 H 0.17256 0.79732 0.65656 0.0
H1427 H 0.16322 0.78637 0.61942 0.0
H1428 H 0.11609 0.80598 0.60824 0.0
H1429 H 0.09008 0.78727 0.63336 0.0
H1430 H 0.08869 0.72721 0.61452 0.0
H1431 H 0.11641 0.74677 0.59114 0.0
H1432 H 0.0924 0.78421 0.56006 0.0
H1433 H 0.05646 0.75483 0.54728 0.0
H1434 H 0.0821 0.71278 0.53282 0.0
H1435 H 0.1179 0.74223 0.54583 0.0
H1436 H 0.12562 0.81117 0.52287 0.0
H1437 H 0.114 0.80191 0.48612 0.0
H1438 H 0.13563 0.75507 0.48484 0.0
H1439 H 0.14899 0.76613 0.5213 0.0
H1440 H 0.16431 0.84157 0.52824 0.0
H1441 H 0.18955 0.86085 0.50267 0.0
H1442 H 0.22729 0.83215 0.52181 0.0
H1443 H 0.20109 0.81194 0.54674 0.0
O1444 O 0.17849 0.85266 0.68563 0.0
O1445 O 0.18037 0.82267 0.68923 0.0
O1446 O 0.02934 0.71634 0.53142 0.0
O1447 O 0.04173 0.69408 0.52367 0.0
C1448 C 0.1698 0.81955 0.57554 0.0
C1449 C 0.15489 0.80762 0.58998 0.0
C1450 C 0.13464 0.78951 0.58295 0.0
C1451 C 0.12947 0.78325 0.56148 0.0
C1452 C 0.14457 0.79486 0.54714 0.0
C1453 C 0.16483 0.81287 0.55417 0.0
C1454 C 0.18918 0.84074 0.58266 0.0
C1455 C 0.18945 0.86009 0.57868 0.0
C1456 C 0.20518 0.87998 0.58865 0.0
C1457 C 0.22094 0.88089 0.60278 0.0
C1458 C 0.22153 0.86171 0.60572 0.0
C1459 C 0.20568 0.84171 0.59574 0.0
C1460 C 0.16037 0.81431 0.61253 0.0
C1461 C 0.16171 0.83359 0.62089 0.0
C1462 C 0.16713 0.83996 0.64205 0.0
C1463 C 0.17116 0.82708 0.65525 0.0
C1464 C 0.1696 0.80765 0.64682 0.0
C1465 C 0.16424 0.80133 0.62563 0.0
C1466 C 0.11838 0.77783 0.59798 0.0
C1467 C 0.11047 0.78888 0.60988 0.0
C1468 C 0.09527 0.77799 0.62403 0.0
C1469 C 0.08707 0.75558 0.62613 0.0
C1470 C 0.09486 0.74454 0.61385 0.0
C1471 C 0.11053 0.75561 0.60017 0.0
C1472 C 0.10771 0.76533 0.5538 0.0
C1473 C 0.09018 0.76862 0.55416 0.0
C1474 C 0.0697 0.75183 0.54683 0.0
C1475 C 0.06641 0.73145 0.539 0.0
C1476 C 0.08407 0.72826 0.53871 0.0
C1477 C 0.10453 0.74506 0.54607 0.0
C1478 C 0.13825 0.78942 0.52463 0.0
C1479 C 0.12817 0.7992 0.51449 0.0
C1480 C 0.12125 0.7936 0.49351 0.0
C1481 C 0.12354 0.77745 0.48237 0.0
C1482 C 0.13384 0.76779 0.49269 0.0
C1483 C 0.14134 0.77392 0.51359 0.0
C1484 C 0.18068 0.8251 0.5391 0.0
C1485 C 0.17786 0.83923 0.52673 0.0
C1486 C 0.19253 0.85048 0.51231 0.0
C1487 C 0.21059 0.84817 0.51021 0.0
C1488 C 0.21346 0.83411 0.52283 0.0
C1489 C 0.19861 0.82268 0.53716 0.0
C1490 C 0.17695 0.83392 0.67772 0.0
C1491 C 0.04469 0.71357 0.53116 0.0
H1492 H 0.1894 0.33373 0.7153 0.0
H1493 H 0.02331 0.31433 0.54665 0.0
H1494 H 0.20598 0.36779 0.61156 0.0
H1495 H 0.23402 0.36488 0.63121 0.0
H1496 H 0.21168 0.30146 0.59951 0.0
H1497 H 0.18307 0.30402 0.58051 0.0
H1498 H 0.16822 0.35939 0.63733 0.0
H1499 H 0.17776 0.35437 0.67253 0.0
H1500 H 0.16649 0.2905 0.6514 0.0
H1501 H 0.1567 0.29563 0.61634 0.0
H1502 H 0.12984 0.35971 0.61882 0.0
H1503 H 0.1029 0.35123 0.64384 0.0
H1504 H 0.08303 0.28273 0.63445 0.0
H1505 H 0.11063 0.29162 0.6101 0.0
H1506 H 0.12899 0.37013 0.57105 0.0
H1507 H 0.0958 0.3698 0.56108 0.0
H1508 H 0.06065 0.29929 0.55992 0.0
H1509 H 0.094 0.29988 0.56972 0.0
H1510 H 0.16145 0.37685 0.54404 0.0
H1511 H 0.15143 0.38149 0.50879 0.0
H1512 H 0.11369 0.3113 0.49646 0.0
H1513 H 0.12417 0.30693 0.53156 0.0
H1514 H 0.19825 0.37464 0.55062 0.0
H1515 H 0.21553 0.37562 0.51866 0.0
H1516 H 0.18481 0.30516 0.51461 0.0
H1517 H 0.1669 0.3044 0.54584 0.0
O1518 O 0.18518 0.3352 0.70137 0.0
O1519 O 0.17934 0.30256 0.68968 0.0
O1520 O 0.05548 0.35119 0.5514 0.0
O1521 O 0.03666 0.31494 0.55061 0.0
C1522 C 0.17223 0.33528 0.58781 0.0
C1523 C 0.1573 0.33158 0.60276 0.0
C1524 C 0.13814 0.33135 0.59725 0.0
C1525 C 0.13401 0.33531 0.57692 0.0
C1526 C 0.14872 0.33875 0.56191 0.0
C1527 C 0.16767 0.33835 0.56723 0.0
C1528 C 0.1926 0.33623 0.59441 0.0
C1529 C 0.20758 0.35359 0.60833 0.0
C1530 C 0.2234 0.35182 0.6197 0.0
C1531 C 0.2248 0.33287 0.61695 0.0
C1532 C 0.21094 0.31627 0.60179 0.0
C1533 C 0.19479 0.31784 0.59073 0.0
C1534 C 0.1618 0.32788 0.62433 0.0
C1535 C 0.1676 0.34424 0.64041 0.0
C1536 C 0.17314 0.34137 0.66046 0.0
C1537 C 0.17297 0.32207 0.66476 0.0
C1538 C 0.16683 0.30558 0.64861 0.0
C1539 C 0.16122 0.30845 0.62859 0.0
C1540 C 0.12206 0.32626 0.61265 0.0
C1541 C 0.11971 0.34292 0.6223 0.0
C1542 C 0.10424 0.33798 0.6365 0.0
C1543 C 0.09066 0.31624 0.64111 0.0
C1544 C 0.09336 0.29966 0.63154 0.0
C1545 C 0.10898 0.30466 0.6175 0.0
C1546 C 0.11384 0.33504 0.5711 0.0
C1547 C 0.1141 0.35465 0.5686 0.0
C1548 C 0.09512 0.3544 0.56293 0.0
C1549 C 0.07555 0.3345 0.55971 0.0
C1550 C 0.07542 0.31489 0.56229 0.0
C1551 C 0.09441 0.31517 0.56791 0.0
C1552 C 0.14356 0.34156 0.54025 0.0
C1553 C 0.1512 0.36252 0.5336 0.0
C1554 C 0.14535 0.36512 0.51354 0.0
C1555 C 0.13175 0.34677 0.4998 0.0
C1556 C 0.12443 0.32578 0.50651 0.0
C1557 C 0.13028 0.32322 0.52657 0.0
C1558 C 0.18156 0.33947 0.55066 0.0
C1559 C 0.19568 0.3595 0.54302 0.0
C1560 C 0.20551 0.36 0.52475 0.0
C1561 C 0.20138 0.34044 0.5139 0.0
C1562 C 0.18803 0.3205 0.5223 0.0
C1563 C 0.17807 0.32003 0.54037 0.0
C1564 C 0.17931 0.31926 0.68598 0.0
C1565 C 0.05535 0.33414 0.55366 0.0
H1566 H 0.01661 0.42975 0.06032 0.0
H1567 H 0.96017 0.36882 0.07042 0.0
H1568 H 0.95381 0.38645 0.10053 0.0
H1569 H 0.96681 0.41827 0.12617 0.0
H1570 H 0.02362 0.47883 0.11581 0.0
H1571 H 0.02728 0.46228 0.08351 0.0
C1572 C 0.00276 0.42038 0.06896 0.0
C1573 C 0.98903 0.39798 0.06337 0.0
C1574 C 0.99938 0.43053 0.08628 0.0
C1575 C 0.971 0.38609 0.0745 0.0
C1576 C 0.96742 0.39614 0.09176 0.0
C1577 C 0.97969 0.42794 0.11658 0.0
C1578 C 0.99509 0.44965 0.12347 0.0
C1579 C 0.98185 0.41822 0.09811 0.0
C1580 C 0.01178 0.46198 0.11097 0.0
C1581 C 0.01387 0.45255 0.09251 0.0
H1582 H 0.58633 0.59448 0.11485 0.0
H1583 H 0.60938 0.55024 0.10103 0.0
H1584 H 0.58826 0.52708 0.12772 0.0
H1585 H 0.56213 0.51885 0.15399 0.0
H1586 H 0.54122 0.56481 0.16891 0.0
H1587 H 0.56242 0.58767 0.14253 0.0
C1588 C 0.58676 0.57977 0.1177 0.0
C1589 C 0.59921 0.57393 0.1059 0.0
C1590 C 0.57484 0.56677 0.13313 0.0
C1591 C 0.59987 0.55503 0.10993 0.0
C1592 C 0.58777 0.54179 0.12513 0.0
C1593 C 0.56243 0.53401 0.15171 0.0
C1594 C 0.54975 0.53984 0.1633 0.0
C1595 C 0.57506 0.54743 0.13674 0.0
C1596 C 0.55028 0.55952 0.15991 0.0
C1597 C 0.56257 0.57275 0.14492 0.0
H1598 H 0.41725 0.97613 0.06252 0.0
H1599 H 0.42768 0.04115 0.07464 0.0
H1600 H 0.44515 0.04421 0.10883 0.0
H1601 H 0.45492 0.02725 0.13627 0.0
H1602 H 0.44424 0.96214 0.12395 0.0
H1603 H 0.42928 0.96023 0.08891 0.0
C1604 C 0.42357 0.99107 0.07254 0.0
C1605 C 0.42108 0.00833 0.0661 0.0
C1606 C 0.43333 0.99261 0.09224 0.0
C1607 C 0.42938 0.02761 0.07925 0.0
C1608 C 0.4393 0.02934 0.09883 0.0
C1609 C 0.44964 0.01279 0.1258 0.0
C1610 C 0.45048 0.99477 0.13281 0.0
C1611 C 0.441 0.01178 0.10564 0.0
C1612 C 0.44339 0.97607 0.11909 0.0
C1613 C 0.43493 0.97501 0.09901 0.0
H1614 H 0.43651 0.02345 0.96625 0.0
H1615 H 0.38407 0.95775 0.95077 0.0
H1616 H 0.39958 0.95596 0.91838 0.0
H1617 H 0.42774 0.97356 0.89405 0.0
H1618 H 0.48002 0.03931 0.91016 0.0
H1619 H 0.46469 0.04065 0.94252 0.0
C1620 C 0.4285 0.00867 0.95586 0.0
C1621 C 0.40918 0.99074 0.96094 0.0
C1622 C 0.43738 0.00785 0.93724 0.0
C1623 C 0.39899 0.97176 0.94724 0.0
C1624 C 0.40783 0.97076 0.9287 0.0
C1625 C 0.43583 0.98813 0.9047 0.0
C1626 C 0.45492 0.00639 0.89951 0.0
C1627 C 0.42697 0.98877 0.92347 0.0
C1628 C 0.46509 0.02518 0.91348 0.0
C1629 C 0.45643 0.02592 0.93211 0.0
H1630 H 0.03633 0.43458 0.9864 0.0
H1631 H 0.01694 0.37585 0.94717 0.0
H1632 H 0.01647 0.39449 0.91655 0.0
H1633 H 0.01812 0.42649 0.9014 0.0
H1634 H 0.03775 0.48516 0.94079 0.0
H1635 H 0.04172 0.46763 0.97085 0.0
C1636 C 0.03236 0.42598 0.97111 0.0
C1637 C 0.02651 0.40383 0.96906 0.0
C1638 C 0.03195 0.43674 0.95363 0.0
C1639 C 0.02154 0.39292 0.94915 0.0
C1640 C 0.02111 0.40353 0.93165 0.0
C1641 C 0.02344 0.43544 0.91656 0.0
C1642 C 0.02748 0.457 0.91895 0.0
C1643 C 0.02571 0.42525 0.93378 0.0
C1644 C 0.03464 0.46857 0.93858 0.0
C1645 C 0.03681 0.45853 0.95578 0.0
H1646 H 0.58707 0.61029 0.99903 0.0
H1647 H 0.58802 0.55115 0.00897 0.0
H1648 H 0.56821 0.53465 0.97538 0.0
H1649 H 0.55284 0.53791 0.94221 0.0
H1650 H 0.55309 0.5975 0.93151 0.0
H1651 H 0.56977 0.61275 0.96649 0.0
C1652 C 0.58271 0.5937 0.99393 0.0
C1653 C 0.58912 0.58201 0.0064 0.0
C1654 C 0.57156 0.58441 0.97444 0.0
C1655 C 0.58336 0.56053 0.99961 0.0
C1656 C 0.57206 0.55109 0.98039 0.0
C1657 C 0.55653 0.55423 0.94755 0.0
C1658 C 0.55188 0.5666 0.93421 0.0
C1659 C 0.56648 0.56304 0.9675 0.0
C1660 C 0.55635 0.58755 0.9415 0.0
C1661 C 0.56605 0.59635 0.96145 0.0
H1662 H 0.97452 0.57813 0.99493 0.0
H1663 H 0.04279 0.61967 0.00844 0.0
H1664 H 0.0492 0.59934 0.98088 0.0
H1665 H 0.03532 0.57094 0.95183 0.0
H1666 H 0.96692 0.53147 0.937 0.0
H1667 H 0.96071 0.54939 0.96655 0.0
C1668 C 0.99081 0.58262 0.99196 0.0
C1669 C 0.00815 0.6004 0.00362 0.0
C1670 C 0.99436 0.57115 0.97591 0.0
C1671 C 0.02916 0.60608 0.99959 0.0
C1672 C 0.03284 0.59447 0.98384 0.0
C1673 C 0.01905 0.56626 0.95502 0.0
C1674 C 0.00166 0.54978 0.94214 0.0
C1675 C 0.01554 0.57718 0.97169 0.0
C1676 C 0.98067 0.54374 0.9468 0.0
C1677 C 0.97706 0.55417 0.96359 0.0
H1678 H 0.38816 0.42338 0.94196 0.0
H1679 H 0.44357 0.43802 0.98228 0.0
H1680 H 0.4672 0.46196 0.95763 0.0
H1681 H 0.47224 0.47735 0.92403 0.0
H1682 H 0.41715 0.46116 0.88245 0.0
H1683 H 0.39332 0.43959 0.90829 0.0
C1684 C 0.4054 0.43203 0.94541 0.0
C1685 C 0.41412 0.42893 0.96388 0.0
C1686 C 0.41896 0.44544 0.93092 0.0
C1687 C 0.43648 0.44008 0.96812 0.0
C1688 C 0.45001 0.45376 0.95403 0.0
C1689 C 0.45502 0.46898 0.92051 0.0
C1690 C 0.44655 0.47077 0.90122 0.0
C1691 C 0.44144 0.45626 0.93524 0.0
C1692 C 0.42416 0.46024 0.89721 0.0
C1693 C 0.4105 0.44777 0.91194 0.0
H1694 H 0.59363 0.02564 0.98475 0.0
H1695 H 0.55688 0.95539 0.9838 0.0
H1696 H 0.53758 0.95359 0.95102 0.0
H1697 H 0.53216 0.97207 0.92212 0.0
H1698 H 0.57161 0.04223 0.9222 0.0
H1699 H 0.58842 0.04394 0.95605 0.0
C1700 C 0.58125 0.00993 0.97748 0.0
C1701 C 0.57663 0.99068 0.98669 0.0
C1702 C 0.57065 0.00901 0.95849 0.0
C1703 C 0.56071 0.97044 0.97698 0.0
C1704 C 0.54971 0.96942 0.95825 0.0
C1705 C 0.54453 0.98774 0.92943 0.0
C1706 C 0.55041 0.00699 0.91949 0.0
C1707 C 0.55475 0.9886 0.94873 0.0
C1708 C 0.56629 0.02714 0.92952 0.0
C1709 C 0.57613 0.02816 0.94886 0.0
H1710 H 0.5743 0.97179 0.09593 0.0
H1711 H 0.60285 0.04091 0.09013 0.0
H1712 H 0.58577 0.04441 0.12087 0.0
H1713 H 0.56144 0.02723 0.14851 0.0
H1714 H 0.53531 0.95835 0.15503 0.0
H1715 H 0.55261 0.95536 0.12476 0.0
C1716 C 0.57679 0.98764 0.10138 0.0
C1717 C 0.58957 0.00602 0.09069 0.0
C1718 C 0.56726 0.98953 0.11912 0.0
C1719 C 0.59299 0.02652 0.09811 0.0
C1720 C 0.58321 0.0285 0.11565 0.0
C1721 C 0.55977 0.01163 0.14352 0.0
C1722 C 0.54668 0.99296 0.15391 0.0
C1723 C 0.57017 0.01005 0.1262 0.0
C1724 C 0.54471 0.97288 0.14706 0.0
C1725 C 0.55474 0.97115 0.1298 0.0
H1726 H 0.01852 0.61842 0.10865 0.0
H1727 H 0.95201 0.57646 0.08707 0.0
H1728 H 0.94807 0.55124 0.11332 0.0
H1729 H 0.96437 0.54011 0.14098 0.0
H1730 H 0.0309 0.58285 0.16239 0.0
H1731 H 0.03402 0.60868 0.13747 0.0
C1732 C 0.0031 0.60383 0.10977 0.0
C1733 C 0.98562 0.59922 0.09587 0.0
C1734 C 0.00103 0.58944 0.12472 0.0
C1735 C 0.96571 0.58035 0.09761 0.0
C1736 C 0.96349 0.5659 0.11255 0.0
C1737 C 0.97946 0.55521 0.14036 0.0
C1738 C 0.99746 0.55935 0.15333 0.0
C1739 C 0.98115 0.57012 0.126 0.0
C1740 C 0.01693 0.57898 0.15226 0.0
C1741 C 0.01871 0.59385 0.13811 0.0
H1742 H 0.40909 0.43341 0.06229 0.0
H1743 H 0.41505 0.37601 0.06305 0.0
H1744 H 0.43286 0.38802 0.09811 0.0
H1745 H 0.44502 0.41398 0.12918 0.0
H1746 H 0.43963 0.47173 0.12771 0.0
H1747 H 0.42316 0.46033 0.09232 0.0
C1748 C 0.41437 0.42357 0.07009 0.0
C1749 C 0.41064 0.40379 0.06018 0.0
C1750 C 0.42457 0.43057 0.09016 0.0
C1751 C 0.41772 0.3913 0.07039 0.0
C1752 C 0.42786 0.39813 0.09044 0.0
C1753 C 0.44055 0.42424 0.121 0.0
C1754 C 0.44337 0.44358 0.1312 0.0
C1755 C 0.43117 0.41764 0.10056 0.0
C1756 C 0.43727 0.45656 0.12041 0.0
C1757 C 0.42795 0.45012 0.10012 0.0
H1758 H 0.64103 0.73026 0.39096 0.0
H1759 H 0.70542 0.74736 0.41184 0.0
H1760 H 0.70402 0.76725 0.44285 0.0
H1761 H 0.68424 0.77842 0.46462 0.0
H1762 H 0.62102 0.76462 0.44298 0.0
H1763 H 0.62206 0.74434 0.41193 0.0
C1764 C 0.65475 0.73846 0.40228 0.0
C1765 C 0.67327 0.7373 0.39918 0.0
C1766 C 0.65399 0.75025 0.42001 0.0
C1767 C 0.69101 0.74809 0.41385 0.0
C1768 C 0.6902 0.7594 0.43163 0.0
C1769 C 0.67082 0.77154 0.45296 0.0
C1770 C 0.6526 0.77322 0.45629 0.0
C1771 C 0.67176 0.76049 0.4349 0.0
C1772 C 0.63517 0.7634 0.44111 0.0
C1773 C 0.6358 0.75191 0.42323 0.0
H1774 H 0.27229 0.88643 0.43767 0.0
H1775 H 0.26212 0.94021 0.45258 0.0
H1776 H 0.24156 0.92183 0.48136 0.0
H1777 H 0.22478 0.88989 0.50106 0.0
H1778 H 0.23179 0.83428 0.48499 0.0
H1779 H 0.25559 0.85405 0.45833 0.0
C1780 C 0.26575 0.89413 0.44743 0.0
C1781 C 0.26862 0.91457 0.44302 0.0
C1782 C 0.25332 0.88313 0.46371 0.0
C1783 C 0.25995 0.92438 0.4556 0.0
C1784 C 0.24821 0.91391 0.47207 0.0
C1785 C 0.23134 0.88196 0.49164 0.0
C1786 C 0.22624 0.86052 0.49491 0.0
C1787 C 0.24444 0.89312 0.476 0.0
C1788 C 0.23549 0.85082 0.48293 0.0
C1789 C 0.249 0.86207 0.46756 0.0
H1790 H 0.0921 0.36392 0.41889 0.0
H1791 H 0.09956 0.31101 0.39365 0.0
H1792 H 0.11689 0.31066 0.4267 0.0
H1793 H 0.12788 0.32376 0.46337 0.0
H1794 H 0.11911 0.37564 0.48915 0.0
H1795 H 0.10472 0.37825 0.45529 0.0
C1796 C 0.09778 0.35252 0.42056 0.0
C1797 C 0.09447 0.33747 0.40387 0.0
C1798 C 0.10743 0.35215 0.43975 0.0
C1799 C 0.10184 0.32273 0.40629 0.0
C1800 C 0.11171 0.32247 0.4252 0.0
C1801 C 0.12279 0.33562 0.46159 0.0
C1802 C 0.12447 0.34938 0.47884 0.0
C1803 C 0.1142 0.33681 0.44215 0.0
C1804 C 0.11819 0.36496 0.47613 0.0
C1805 C 0.10981 0.36637 0.45679 0.0
H1806 H 0.07718 0.29763 0.29459 0.0
H1807 H 0.10076 0.36696 0.29938 0.0
H1808 H 0.11849 0.37075 0.26749 0.0
H1809 H 0.12726 0.35463 0.23827 0.0
H1810 H 0.10688 0.28596 0.23472 0.0
H1811 H 0.08745 0.2816 0.26561 0.0
C1812 C 0.08623 0.31353 0.28862 0.0
C1813 C 0.08768 0.33198 0.29935 0.0
C1814 C 0.0968 0.31572 0.27036 0.0
C1815 C 0.09952 0.35252 0.2915 0.0
C1816 C 0.10961 0.35471 0.27321 0.0
C1817 C 0.11889 0.33872 0.24433 0.0
C1818 C 0.11869 0.32071 0.23399 0.0
C1819 C 0.10842 0.33645 0.26254 0.0
C1820 C 0.10712 0.30013 0.24198 0.0
C1821 C 0.09614 0.29763 0.25984 0.0
H1822 H 0.66565 0.71409 0.28149 0.0
H1823 H 0.72102 0.76579 0.31764 0.0
H1824 H 0.72646 0.79064 0.29055 0.0
H1825 H 0.71355 0.79822 0.25794 0.0
H1826 H 0.65958 0.74536 0.22087 0.0
H1827 H 0.6554 0.72048 0.24715 0.0
C1828 C 0.67903 0.73076 0.28333 0.0
C1829 C 0.69279 0.73824 0.30155 0.0
C1830 C 0.68214 0.74479 0.26767 0.0
C1831 C 0.71023 0.75972 0.30369 0.0
C1832 C 0.71327 0.77393 0.28827 0.0
C1833 C 0.70114 0.78118 0.25534 0.0
C1834 C 0.68662 0.7739 0.23755 0.0
C1835 C 0.69907 0.76673 0.27035 0.0
C1836 C 0.67058 0.7517 0.23465 0.0
C1837 C 0.66826 0.73735 0.24961 0.0
H1838 H 0.24084 0.93215 0.34019 0.0
H1839 H 0.27235 0.89436 0.33602 0.0
H1840 H 0.25514 0.87933 0.30127 0.0
H1841 H 0.2338 0.87936 0.27119 0.0
H1842 H 0.19999 0.91494 0.27574 0.0
H1843 H 0.21588 0.92876 0.3111 0.0
C1844 C 0.24369 0.92041 0.33175 0.0
C1845 C 0.25795 0.9145 0.34058 0.0
C1846 C 0.23365 0.91172 0.31175 0.0
C1847 C 0.26142 0.89917 0.32956 0.0
C1848 C 0.25168 0.89065 0.30964 0.0
C1849 C 0.22935 0.88966 0.27996 0.0
C1850 C 0.2158 0.8962 0.27053 0.0
C1851 C 0.23809 0.89712 0.30045 0.0
C1852 C 0.21077 0.91 0.28228 0.0
C1853 C 0.21971 0.91779 0.30261 0.0
H1854 H 0.69489 0.93366 0.33222 0.0
H1855 H 0.62871 0.90665 0.30971 0.0
H1856 H 0.63347 0.88682 0.28065 0.0
H1857 H 0.65637 0.87791 0.26121 0.0
H1858 H 0.72216 0.90297 0.28398 0.0
H1859 H 0.71768 0.92307 0.31325 0.0
C1860 C 0.68156 0.92343 0.32092 0.0
C1861 C 0.6615 0.92166 0.32305 0.0
C1862 C 0.68432 0.91177 0.30433 0.0
C1863 C 0.64429 0.90823 0.30843 0.0
C1864 C 0.64699 0.8969 0.2918 0.0
C1865 C 0.66965 0.88731 0.27279 0.0
C1866 C 0.68952 0.8887 0.27045 0.0
C1867 C 0.6669 0.89856 0.28961 0.0
C1868 C 0.7067 0.90166 0.28532 0.0
C1869 C 0.70414 0.91312 0.30209 0.0
H1870 H 0.09467 0.75741 0.29639 0.0
H1871 H 0.04041 0.76486 0.2801 0.0
H1872 H 0.0593 0.78725 0.25208 0.0
H1873 H 0.09108 0.8039 0.2316 0.0
H1874 H 0.14467 0.79535 0.24797 0.0
H1875 H 0.12615 0.7741 0.27649 0.0
C1876 C 0.08698 0.76401 0.28679 0.0
C1877 C 0.06619 0.75951 0.29034 0.0
C1878 C 0.09779 0.77657 0.27062 0.0
C1879 C 0.05643 0.76811 0.27769 0.0
C1880 C 0.06721 0.78088 0.26165 0.0
C1881 C 0.0987 0.79747 0.24151 0.0
C1882 C 0.11915 0.80104 0.23757 0.0
C1883 C 0.08787 0.78511 0.25789 0.0
C1884 C 0.12881 0.79252 0.25046 0.0
C1885 C 0.11828 0.78047 0.26684 0.0
H1886 H 0.24535 0.30537 0.31355 0.0
H1887 H 0.23356 0.35587 0.3373 0.0
H1888 H 0.21511 0.35392 0.30417 0.0
H1889 H 0.20507 0.34024 0.26767 0.0
H1890 H 0.21827 0.29111 0.24299 0.0
H1891 H 0.23298 0.28979 0.27729 0.0
C1892 C 0.23844 0.31568 0.31153 0.0
C1893 C 0.24095 0.33085 0.32779 0.0
C1894 C 0.2282 0.3148 0.29224 0.0
C1895 C 0.23198 0.34417 0.32497 0.0
C1896 C 0.22145 0.34309 0.30602 0.0
C1897 C 0.21112 0.3292 0.26981 0.0
C1898 C 0.21081 0.31599 0.25277 0.0
C1899 C 0.21995 0.32888 0.28941 0.0
C1900 C 0.21825 0.3014 0.25588 0.0
C1901 C 0.22681 0.30076 0.27545 0.0
H1902 H 0.22415 0.32539 0.42388 0.0
H1903 H 0.28437 0.38288 0.44508 0.0
H1904 H 0.27011 0.38497 0.47813 0.0
H1905 H 0.24108 0.36916 0.50169 0.0
H1906 H 0.18064 0.31218 0.47967 0.0
H1907 H 0.19458 0.31105 0.44642 0.0
C1908 C 0.23411 0.33849 0.43566 0.0
C1909 C 0.2553 0.35389 0.43207 0.0
C1910 C 0.22586 0.33952 0.45461 0.0
C1911 C 0.26798 0.37082 0.44746 0.0
C1912 C 0.25986 0.37197 0.4664 0.0
C1913 C 0.23087 0.35665 0.48955 0.0
C1914 C 0.20994 0.34056 0.49339 0.0
C1915 C 0.23891 0.35622 0.47025 0.0
C1916 C 0.197 0.32442 0.47743 0.0
C1917 C 0.20489 0.32385 0.4583 0.0
H1918 H 0.63524 0.89028 0.40413 0.0
H1919 H 0.6229 0.93507 0.43986 0.0
H1920 H 0.62021 0.91559 0.47081 0.0
H1921 H 0.62558 0.88828 0.48845 0.0
H1922 H 0.64047 0.84561 0.45258 0.0
H1923 H 0.63786 0.86168 0.42087 0.0
C1924 C 0.63162 0.8956 0.4186 0.0
C1925 C 0.62943 0.91417 0.41977 0.0
C1926 C 0.63076 0.88478 0.43634 0.0
C1927 C 0.62469 0.92082 0.43861 0.0
C1928 C 0.62327 0.90976 0.45631 0.0
C1929 C 0.62784 0.88233 0.47358 0.0
C1930 C 0.63328 0.86593 0.47268 0.0
C1931 C 0.6269 0.8921 0.45549 0.0
C1932 C 0.63638 0.85834 0.45349 0.0
C1933 C 0.63491 0.86751 0.43543 0.0
H1934 H 0.0943 0.7414 0.38806 0.0
H1935 H 0.04479 0.75606 0.40144 0.0
H1936 H 0.06073 0.76927 0.43687 0.0
H1937 H 0.08745 0.7749 0.46435 0.0
H1938 H 0.13909 0.76354 0.45059 0.0
H1939 H 0.1232 0.75023 0.41516 0.0
C1940 C 0.08713 0.74765 0.39873 0.0
C1941 C 0.06837 0.74769 0.39221 0.0
C1942 C 0.09656 0.75552 0.41905 0.0
C1943 C 0.05929 0.75594 0.40608 0.0
C1944 C 0.06833 0.7634 0.42637 0.0
C1945 C 0.09564 0.77005 0.45359 0.0
C1946 C 0.1145 0.77024 0.46038 0.0
C1947 C 0.08684 0.76309 0.43306 0.0
C1948 C 0.12435 0.76321 0.4461 0.0
C1949 C 0.11538 0.75576 0.42571 0.0
H1950 H 0.33959 0.09617 0.71673 0.0
H1951 H 0.29252 0.03245 0.73367 0.0
H1952 H 0.2842 0.04925 0.76286 0.0
H1953 H 0.29248 0.08183 0.7852 0.0
H1954 H 0.33945 0.14561 0.76828 0.0
H1955 H 0.34563 0.12898 0.73743 0.0
C1956 C 0.32736 0.08598 0.72669 0.0
C1957 C 0.31682 0.06311 0.72316 0.0
C1958 C 0.32274 0.09574 0.74351 0.0
C1959 C 0.30092 0.0501 0.73611 0.0
C1960 C 0.29618 0.05969 0.75283 0.0
C1961 C 0.30369 0.09214 0.77451 0.0
C1962 C 0.31556 0.11493 0.7791 0.0
C1963 C 0.30726 0.08247 0.75689 0.0
C1964 C 0.3303 0.12801 0.76524 0.0
C1965 C 0.33383 0.11852 0.74759 0.0
H1966 H 0.9418 0.23975 0.77766 0.0
H1967 H 0.88602 0.23727 0.74777 0.0
H1968 H 0.86427 0.21612 0.77472 0.0
H1969 H 0.86113 0.1996 0.80744 0.0
H1970 H 0.91628 0.20174 0.83812 0.0
H1971 H 0.93814 0.2215 0.81019 0.0
C1972 C 0.92485 0.23438 0.777 0.0
C1973 C 0.9156 0.2402 0.76079 0.0
C1974 C 0.91232 0.22226 0.79274 0.0
C1975 C 0.89361 0.23314 0.76012 0.0
C1976 C 0.88111 0.22105 0.77555 0.0
C1977 C 0.87797 0.2045 0.80806 0.0
C1978 C 0.88715 0.19949 0.8249 0.0
C1979 C 0.89035 0.2158 0.79206 0.0
C1980 C 0.90886 0.20544 0.82528 0.0
C1981 C 0.92137 0.21678 0.80936 0.0
H1982 H 0.74172 0.64034 0.74104 0.0
H1983 H 0.77745 0.70975 0.73529 0.0
H1984 H 0.79791 0.71525 0.7684 0.0
H1985 H 0.80498 0.70026 0.79927 0.0
H1986 H 0.76646 0.63103 0.80603 0.0
H1987 H 0.74817 0.62555 0.77204 0.0
C1988 C 0.75412 0.65666 0.74696 0.0
C1989 C 0.75818 0.6746 0.73574 0.0
C1990 C 0.76538 0.65972 0.76616 0.0
C1991 C 0.77406 0.69568 0.74369 0.0
C1992 C 0.78574 0.69882 0.7626 0.0
C1993 C 0.79247 0.68398 0.79344 0.0
C1994 C 0.78736 0.6661 0.8053 0.0
C1995 C 0.78139 0.68096 0.77407 0.0
C1996 C 0.77124 0.6451 0.79719 0.0
C1997 C 0.76055 0.64192 0.77777 0.0
H1998 H 0.72084 0.63075 0.61435 0.0
H1999 H 0.78098 0.6762 0.64859 0.0
H2000 H 0.80051 0.67424 0.61969 0.0
H2001 H 0.80069 0.6608 0.5844 0.0
H2002 H 0.74088 0.61702 0.54883 0.0
H2003 H 0.72113 0.61679 0.5786 0.0
C2004 C 0.73821 0.64004 0.61549 0.0
C2005 C 0.74943 0.65363 0.63357 0.0
C2006 C 0.74943 0.63917 0.59857 0.0
C2007 C 0.77195 0.6657 0.63481 0.0
C2008 C 0.78316 0.6646 0.61829 0.0
C2009 C 0.78331 0.65136 0.58302 0.0
C2010 C 0.77233 0.63913 0.56427 0.0
C2011 C 0.77207 0.65165 0.60001 0.0
C2012 C 0.74981 0.6265 0.56308 0.0
C2013 C 0.73848 0.62646 0.58007 0.0
H2014 H 0.37126 0.09718 0.63777 0.0
H2015 H 0.31451 0.03959 0.60987 0.0
H2016 H 0.31514 0.05871 0.57941 0.0
H2017 H 0.33089 0.09202 0.56125 0.0
H2018 H 0.38604 0.15067 0.58999 0.0
H2019 H 0.38726 0.13081 0.61923 0.0
C2020 C 0.35916 0.08882 0.62492 0.0
C2021 C 0.34285 0.06704 0.62607 0.0
C2022 C 0.35934 0.10008 0.60758 0.0
C2023 C 0.32718 0.0564 0.6094 0.0
C2024 C 0.32753 0.06731 0.59197 0.0
C2025 C 0.34309 0.10057 0.57396 0.0
C2026 C 0.35826 0.12288 0.57336 0.0
C2027 C 0.34335 0.08923 0.59101 0.0
C2028 C 0.37428 0.13345 0.58982 0.0
C2029 C 0.37489 0.12214 0.60668 0.0
H2030 H 0.92844 0.23371 0.65585 0.0
H2031 H 0.89504 0.2692 0.66417 0.0
H2032 H 0.87503 0.25339 0.63043 0.0
H2033 H 0.86802 0.23049 0.59812 0.0
H2034 H 0.90362 0.19729 0.589 0.0
H2035 H 0.92135 0.21077 0.6237 0.0
C2036 C 0.91666 0.23785 0.65034 0.0
C2037 C 0.91321 0.25258 0.66243 0.0
C2038 C 0.90554 0.22904 0.63082 0.0
C2039 C 0.898 0.25792 0.65508 0.0
C2040 C 0.88657 0.24889 0.63581 0.0
C2041 C 0.87973 0.22628 0.60365 0.0
C2042 C 0.88437 0.21281 0.59088 0.0
C2043 C 0.8904 0.23464 0.62344 0.0
C2044 C 0.89936 0.20726 0.59854 0.0
C2045 C 0.90971 0.21515 0.61835 0.0
H2046 H 0.37239 0.2959 0.64228 0.0
H2047 H 0.32743 0.23807 0.67042 0.0
H2048 H 0.33196 0.21513 0.64417 0.0
H2049 H 0.34705 0.21146 0.6122 0.0
H2050 H 0.38891 0.26922 0.58195 0.0
H2051 H 0.38793 0.29219 0.61046 0.0
C2052 C 0.36373 0.27829 0.64273 0.0
C2053 C 0.34954 0.26865 0.65814 0.0
C2054 C 0.36601 0.26519 0.62731 0.0
C2055 C 0.33833 0.24583 0.65856 0.0
C2056 C 0.34095 0.23272 0.6436 0.0
C2057 C 0.35593 0.22907 0.61176 0.0
C2058 C 0.36797 0.23847 0.59481 0.0
C2059 C 0.35447 0.24221 0.62771 0.0
C2060 C 0.37979 0.2614 0.59488 0.0
C2061 C 0.37901 0.27461 0.61108 0.0
H2062 H 0.72356 0.09229 0.60894 0.0
H2063 H 0.76971 0.07426 0.62939 0.0
H2064 H 0.79147 0.09205 0.60106 0.0
H2065 H 0.7977 0.11288 0.57059 0.0
H2066 H 0.75199 0.13125 0.54974 0.0
H2067 H 0.72991 0.11337 0.57812 0.0
C2068 C 0.73839 0.09229 0.60718 0.0
C2069 C 0.74497 0.08194 0.62128 0.0
C2070 C 0.75095 0.10263 0.59077 0.0
C2071 C 0.76424 0.0821 0.6188 0.0
C2072 C 0.77673 0.09226 0.60256 0.0
C2073 C 0.78277 0.11276 0.5721 0.0
C2074 C 0.77645 0.12327 0.55798 0.0
C2075 C 0.77023 0.10253 0.58844 0.0
C2076 C 0.75729 0.12337 0.56046 0.0
C2077 C 0.74463 0.1131 0.57665 0.0
H2078 H 0.90995 0.62914 0.64168 0.0
H2079 H 0.90376 0.6836 0.66468 0.0
H2080 H 0.88367 0.68105 0.63246 0.0
H2081 H 0.86961 0.66484 0.59706 0.0
H2082 H 0.8766 0.6112 0.5732 0.0
H2083 H 0.89424 0.61168 0.60649 0.0
C2084 C 0.904 0.64029 0.63968 0.0
C2085 C 0.90845 0.65661 0.6555 0.0
C2086 C 0.89263 0.63891 0.62094 0.0
C2087 C 0.90067 0.67097 0.6527 0.0
C2088 C 0.88918 0.66954 0.63427 0.0
C2089 C 0.875 0.65325 0.59915 0.0
C2090 C 0.87193 0.63812 0.58264 0.0
C2091 C 0.88539 0.65384 0.61817 0.0
C2092 C 0.87862 0.62292 0.58572 0.0
C2093 C 0.88885 0.62329 0.6047 0.0
H2094 H 0.94283 0.70093 0.7741 0.0
H2095 H 0.88655 0.64265 0.7464 0.0
H2096 H 0.86718 0.6415 0.77652 0.0
H2097 H 0.86632 0.65621 0.81104 0.0
H2098 H 0.92238 0.71392 0.8397 0.0
H2099 H 0.94161 0.7163 0.80884 0.0
C2100 C 0.92628 0.6881 0.77464 0.0
C2101 C 0.91619 0.67187 0.75805 0.0
C2102 C 0.9152 0.68738 0.79219 0.0
C2103 C 0.89475 0.6553 0.75897 0.0
C2104 C 0.88363 0.6546 0.7762 0.0
C2105 C 0.88282 0.66922 0.81064 0.0
C2106 C 0.89298 0.68471 0.82774 0.0
C2107 C 0.89376 0.67038 0.79298 0.0
C2108 C 0.91418 0.7018 0.82672 0.0
C2109 C 0.9252 0.70312 0.80911 0.0
H2110 H 0.30489 0.26664 0.76245 0.0
H2111 H 0.35855 0.26379 0.7394 0.0
H2112 H 0.35622 0.23946 0.76558 0.0
H2113 H 0.33939 0.21922 0.79494 0.0
H2114 H 0.28752 0.22367 0.82046 0.0
H2115 H 0.28837 0.24665 0.79315 0.0
C2116 C 0.316 0.26062 0.76321 0.0
C2117 C 0.3319 0.26705 0.74906 0.0
C2118 C 0.31486 0.24685 0.77867 0.0
C2119 C 0.34627 0.25923 0.75022 0.0
C2120 C 0.34493 0.24525 0.76515 0.0
C2121 C 0.32847 0.22547 0.79484 0.0
C2122 C 0.31357 0.21983 0.80993 0.0
C2123 C 0.32942 0.23909 0.77951 0.0
C2124 C 0.29908 0.22756 0.80898 0.0
C2125 C 0.29964 0.24085 0.79344 0.0
H2126 H 0.74205 0.04834 0.73563 0.0
H2127 H 0.76105 0.11172 0.71437 0.0
H2128 H 0.78241 0.12938 0.74714 0.0
H2129 H 0.79412 0.12675 0.78239 0.0
H2130 H 0.77239 0.0632 0.80478 0.0
H2131 H 0.75427 0.04576 0.77085 0.0
C2132 C 0.75105 0.06602 0.73812 0.0
C2133 C 0.74997 0.07872 0.72266 0.0
C2134 C 0.76287 0.07605 0.75719 0.0
C2135 C 0.76157 0.1016 0.7261 0.0
C2136 C 0.77378 0.1117 0.74482 0.0
C2137 C 0.78534 0.10908 0.77994 0.0
C2138 C 0.78463 0.0964 0.79627 0.0
C2139 C 0.77425 0.09907 0.7606 0.0
C2140 C 0.77356 0.07349 0.79252 0.0
C2141 C 0.76296 0.06344 0.77314 0.0
H2142 H 0.0777 0.3778 0.04845 0.0
H2143 H 0.0207 0.33163 0.07614 0.0
H2144 H 0.04224 0.32428 0.10079 0.0
H2145 H 0.07727 0.33099 0.11476 0.0
H2146 H 0.13444 0.37726 0.0875 0.0
H2147 H 0.11295 0.38468 0.06265 0.0
C2148 C 0.07004 0.3661 0.05986 0.0
C2149 C 0.04765 0.35527 0.06042 0.0
C2150 C 0.08256 0.36206 0.0742 0.0
C2151 C 0.03793 0.34022 0.07536 0.0
C2152 C 0.05022 0.33599 0.0895 0.0
C2153 C 0.08498 0.34267 0.10335 0.0
C2154 C 0.10738 0.35367 0.10308 0.0
C2155 C 0.07254 0.34683 0.0891 0.0
C2156 C 0.11722 0.36886 0.08827 0.0
C2157 C 0.10494 0.373 0.07396 0.0
H2158 H 0.63106 0.68036 0.0716 0.0
H2159 H 0.67429 0.67146 0.11245 0.0
H2160 H 0.68545 0.70642 0.13174 0.0
H2161 H 0.68231 0.73919 0.13743 0.0
H2162 H 0.63946 0.74814 0.09606 0.0
H2163 H 0.62864 0.71342 0.07669 0.0
C2164 C 0.64294 0.68609 0.08471 0.0
C2165 C 0.65179 0.67334 0.09062 0.0
C2166 C 0.64928 0.70617 0.09571 0.0
C2167 C 0.66722 0.68099 0.1076 0.0
C2168 C 0.6736 0.70097 0.11864 0.0
C2169 C 0.67077 0.73362 0.12406 0.0
C2170 C 0.66159 0.74616 0.11832 0.0
C2171 C 0.66468 0.71366 0.11288 0.0
C2172 C 0.64648 0.73862 0.10105 0.0
C2173 C 0.64037 0.71883 0.08987 0.0
H2174 H 0.32159 0.98349 0.05331 0.0
H2175 H 0.32504 0.92661 0.03329 0.0
H2176 H 0.29538 0.90411 0.05415 0.0
H2177 H 0.26942 0.90107 0.07924 0.0
H2178 H 0.26641 0.95831 0.09893 0.0
H2179 H 0.29487 0.9802 0.0769 0.0
C2180 C 0.31578 0.96613 0.0534 0.0
C2181 C 0.32556 0.95673 0.04187 0.0
C2182 C 0.29884 0.9534 0.06541 0.0
C2183 C 0.31776 0.93421 0.04203 0.0
C2184 C 0.30086 0.92138 0.05401 0.0
C2185 C 0.27505 0.91835 0.07869 0.0
C2186 C 0.26587 0.92808 0.09075 0.0
C2187 C 0.29146 0.93087 0.06597 0.0
C2188 C 0.27308 0.9504 0.08967 0.0
C2189 C 0.28942 0.96295 0.07716 0.0
H2190 H 0.33926 0.01572 0.96667 0.0
H2191 H 0.38639 0.069 0.00884 0.0
H2192 H 0.37634 0.09378 0.99371 0.0
H2193 H 0.35468 0.10039 0.96803 0.0
H2194 H 0.30856 0.04725 0.92504 0.0
H2195 H 0.31738 0.02222 0.94131 0.0
C2196 C 0.34731 0.03274 0.97259 0.0
C2197 C 0.36359 0.04054 0.98879 0.0
C2198 C 0.34153 0.04688 0.96377 0.0
C2199 C 0.37384 0.06263 0.99632 0.0
C2200 C 0.3681 0.07679 0.9877 0.0
C2201 C 0.34662 0.08336 0.96215 0.0
C2202 C 0.33098 0.07575 0.94532 0.0
C2203 C 0.35207 0.06912 0.97132 0.0
C2204 C 0.32043 0.05352 0.93816 0.0
C2205 C 0.3256 0.03921 0.94733 0.0
H2206 H 0.94497 0.32129 0.97332 0.0
H2207 H 0.97331 0.28875 0.00493 0.0
H2208 H 0.9473 0.25402 0.98607 0.0
H2209 H 0.91635 0.23286 0.96092 0.0
H2210 H 0.88913 0.2656 0.92773 0.0
H2211 H 0.91476 0.30024 0.94697 0.0
C2212 C 0.94533 0.30655 0.97612 0.0
C2213 C 0.9609 0.30751 0.99056 0.0
C2214 C 0.93059 0.2867 0.96492 0.0
C2215 C 0.96143 0.28839 0.99389 0.0
C2216 C 0.94659 0.26853 0.98311 0.0
C2217 C 0.91622 0.24761 0.95761 0.0
C2218 C 0.90077 0.24656 0.94291 0.0
C2219 C 0.93115 0.26751 0.96854 0.0
C2220 C 0.90064 0.26584 0.93916 0.0
C2221 C 0.91535 0.28569 0.9501 0.0
H2222 H 0.68668 0.65292 0.01415 0.0
H2223 H 0.69269 0.60314 0.04414 0.0
H2224 H 0.72381 0.61095 0.02481 0.0
H2225 H 0.74865 0.63137 0.99858 0.0
H2226 H 0.74177 0.68073 0.96864 0.0
H2227 H 0.71176 0.67378 0.98897 0.0
C2228 C 0.69482 0.6438 0.01654 0.0
C2229 C 0.68735 0.6274 0.03047 0.0
C2230 C 0.71256 0.64834 0.0054 0.0
C2231 C 0.69814 0.61583 0.03347 0.0
C2232 C 0.7159 0.62027 0.0224 0.0
C2233 C 0.74053 0.64056 0.99651 0.0
C2234 C 0.74747 0.65658 0.98214 0.0
C2235 C 0.72313 0.63636 0.00818 0.0
C2236 C 0.73697 0.66853 0.97979 0.0
C2237 C 0.7197 0.66447 0.99131 0.0
H2238 H 0.96727 0.65026 0.98377 0.0
H2239 H 0.93901 0.65566 0.03937 0.0
H2240 H 0.91557 0.66474 0.01913 0.0
H2241 H 0.90276 0.67054 0.98539 0.0
H2242 H 0.92962 0.66291 0.92974 0.0
H2243 H 0.95417 0.65544 0.95021 0.0
C2244 C 0.95601 0.65348 0.99147 0.0
C2245 C 0.95488 0.65236 0.01302 0.0
C2246 C 0.94245 0.65836 0.97972 0.0
C2247 C 0.94011 0.65638 0.02278 0.0
C2248 C 0.92678 0.66162 0.01123 0.0
C2249 C 0.9142 0.66747 0.97788 0.0
C2250 C 0.91472 0.6675 0.95623 0.0
C2251 C 0.9278 0.66264 0.98969 0.0
C2252 C 0.92917 0.66307 0.94644 0.0
C2253 C 0.94311 0.65877 0.95811 0.0
H2254 H 0.35508 0.30619 0.99102 0.0
H2255 H 0.36784 0.34196 0.9365 0.0
H2256 H 0.35708 0.30853 0.91451 0.0
H2257 H 0.34367 0.26898 0.91083 0.0
H2258 H 0.32854 0.23281 0.96514 0.0
H2259 H 0.34036 0.26644 0.98724 0.0
C2260 C 0.35565 0.30663 0.97434 0.0
C2261 C 0.36243 0.32644 0.96534 0.0
C2262 C 0.34881 0.28727 0.96179 0.0
C2263 C 0.36273 0.32684 0.94371 0.0
C2264 C 0.35655 0.30776 0.93115 0.0
C2265 C 0.34295 0.26856 0.92751 0.0
C2266 C 0.33528 0.2486 0.93643 0.0
C2267 C 0.34948 0.28787 0.94002 0.0
C2268 C 0.33423 0.24805 0.958 0.0
C2269 C 0.34109 0.26726 0.97061 0.0
H2270 H 0.67648 0.06328 0.01721 0.0
H2271 H 0.67474 0.00268 0.00142 0.0
H2272 H 0.70631 0.02175 0.982 0.0
H2273 H 0.73308 0.05519 0.96769 0.0
H2274 H 0.73391 0.11556 0.98167 0.0
H2275 H 0.70409 0.09714 0.00356 0.0
C2276 C 0.6832 0.05435 0.00969 0.0
C2277 C 0.67332 0.03165 0.0107 0.0
C2278 C 0.70109 0.06535 0.99811 0.0
C2279 C 0.68202 0.02018 0.00076 0.0
C2280 C 0.70007 0.03106 0.98966 0.0
C2281 C 0.7269 0.06433 0.97578 0.0
C2282 C 0.73562 0.08664 0.97313 0.0
C2283 C 0.70954 0.05357 0.98797 0.0
C2284 C 0.7273 0.0983 0.98341 0.0
C2285 C 0.7103 0.0878 0.99594 0.0
H2286 H 0.66306 0.97842 0.07595 0.0
H2287 H 0.60216 0.92331 0.05212 0.0
H2288 H 0.6114 0.89847 0.0685 0.0
H2289 H 0.63631 0.89268 0.0907 0.0
H2290 H 0.69731 0.94788 0.1141 0.0
H2291 H 0.68866 0.97247 0.09649 0.0
C2292 C 0.65183 0.96096 0.07431 0.0
C2293 C 0.63189 0.95268 0.06303 0.0
C2294 C 0.65731 0.94684 0.08361 0.0
C2295 C 0.61759 0.93004 0.06079 0.0
C2296 C 0.62286 0.91585 0.07016 0.0
C2297 C 0.64769 0.9101 0.09188 0.0
C2298 C 0.66736 0.91851 0.10373 0.0
C2299 C 0.64258 0.92411 0.08178 0.0
C2300 C 0.68214 0.94104 0.10492 0.0
C2301 C 0.67715 0.9551 0.09499 0.0
H2302 H 0.02594 0.70236 0.09493 0.0
H2303 H 0.06547 0.70436 0.04613 0.0
H2304 H 0.09476 0.73935 0.06163 0.0
H2305 H 0.10965 0.76849 0.08975 0.0
H2306 H 0.07081 0.76613 0.1393 0.0
H2307 H 0.04056 0.73233 0.12259 0.0
C2308 C 0.04092 0.71055 0.08762 0.0
C2309 C 0.0436 0.70076 0.06948 0.0
C2310 C 0.05779 0.73055 0.09674 0.0
C2311 C 0.06306 0.71153 0.06015 0.0
C2312 C 0.07982 0.73152 0.06901 0.0
C2313 C 0.09459 0.76051 0.09695 0.0
C2314 C 0.09253 0.76965 0.11584 0.0
C2315 C 0.07745 0.741 0.08744 0.0
C2316 C 0.07277 0.75945 0.12472 0.0
C2317 C 0.05552 0.74007 0.11524 0.0
H2318 H 0.32173 0.39558 0.03088 0.0
H2319 H 0.30562 0.3283 0.02181 0.0
H2320 H 0.27511 0.31718 0.04265 0.0
H2321 H 0.25517 0.32689 0.06618 0.0
H2322 H 0.27109 0.39408 0.07573 0.0
H2323 H 0.29959 0.40491 0.05221 0.0
C2324 C 0.31128 0.37846 0.03316 0.0
C2325 C 0.31599 0.36282 0.02491 0.0
C2326 C 0.29394 0.37218 0.04555 0.0
C2327 C 0.3024 0.34069 0.02808 0.0
C2328 C 0.28498 0.3343 0.04006 0.0
C2329 C 0.26457 0.34384 0.06282 0.0
C2330 C 0.2611 0.35965 0.0729 0.0
C2331 C 0.28092 0.34996 0.0493 0.0
C2332 C 0.27368 0.38161 0.06852 0.0
C2333 C 0.28991 0.38781 0.05496 0.0
H2334 H 0.70024 0.6778 0.41165 0.0
H2335 H 0.73016 0.67494 0.35637 0.0
H2336 H 0.75212 0.6637 0.37617 0.0
H2337 H 0.76326 0.65544 0.40942 0.0
H2338 H 0.7349 0.6606 0.46495 0.0
H2339 H 0.71174 0.67017 0.44484 0.0
C2340 C 0.71149 0.67459 0.40391 0.0
C2341 C 0.71353 0.67706 0.38258 0.0
C2342 C 0.72427 0.66856 0.41544 0.0
C2343 C 0.72833 0.67313 0.37279 0.0
C2344 C 0.74084 0.66669 0.38408 0.0
C2345 C 0.75181 0.65845 0.417 0.0
C2346 C 0.75047 0.65711 0.43851 0.0
C2347 C 0.73898 0.66442 0.40542 0.0
C2348 C 0.73602 0.66148 0.44837 0.0
C2349 C 0.72284 0.66695 0.43689 0.0
H2350 H 0.29395 0.01357 0.4059 0.0
H2351 H 0.34249 0.00984 0.44358 0.0
H2352 H 0.35231 0.04452 0.46269 0.0
H2353 H 0.34665 0.0756 0.46905 0.0
H2354 H 0.29836 0.07935 0.43092 0.0
H2355 H 0.28873 0.04482 0.41181 0.0
C2356 C 0.30672 0.02038 0.41826 0.0
C2357 C 0.31747 0.00919 0.42333 0.0
C2358 C 0.31222 0.04024 0.4292 0.0
C2359 C 0.33397 0.01817 0.43938 0.0
C2360 C 0.33958 0.03798 0.45033 0.0
C2361 C 0.33413 0.06891 0.45646 0.0
C2362 C 0.32314 0.07993 0.45153 0.0
C2363 C 0.32877 0.04912 0.44541 0.0
C2364 C 0.3068 0.07098 0.43529 0.0
C2365 C 0.30138 0.05132 0.42425 0.0
H2366 H 0.99279 0.30853 0.3883 0.0
H2367 H 0.9988 0.25449 0.36375 0.0
H2368 H 0.96697 0.22901 0.38072 0.0
H2369 H 0.93825 0.22247 0.40371 0.0
H2370 H 0.93272 0.277 0.42776 0.0
H2371 H 0.96348 0.30194 0.40962 0.0
C2372 C 0.98711 0.29116 0.38658 0.0
C2373 C 0.9982 0.28339 0.37494 0.0
C2374 C 0.96889 0.27673 0.39628 0.0
C2375 C 0.99052 0.26084 0.37266 0.0
C2376 C 0.97238 0.24631 0.3824 0.0
C2377 C 0.94381 0.23982 0.40493 0.0
C2378 C 0.93324 0.24789 0.41708 0.0
C2379 C 0.96158 0.25411 0.39445 0.0
C2380 C 0.94042 0.27036 0.41834 0.0
C2381 C 0.95809 0.28464 0.40808 0.0
H2382 H 0.05197 0.39634 0.34549 0.0
H2383 H 0.0104 0.3408 0.3025 0.0
H2384 H 0.99837 0.36257 0.2846 0.0
H2385 H 0.00088 0.39766 0.28002 0.0
H2386 H 0.04187 0.45337 0.32302 0.0
H2387 H 0.05303 0.43131 0.34192 0.0
C2388 C 0.04019 0.38901 0.33228 0.0
C2389 C 0.03217 0.36703 0.3253 0.0
C2390 C 0.03333 0.40165 0.32198 0.0
C2391 C 0.01688 0.35771 0.30818 0.0
C2392 C 0.00998 0.37014 0.29791 0.0
C2393 C 0.01193 0.40491 0.29377 0.0
C2394 C 0.0205 0.42714 0.30008 0.0
C2395 C 0.01823 0.39216 0.30455 0.0
C2396 C 0.03519 0.43634 0.31768 0.0
C2397 C 0.04153 0.42372 0.32854 0.0
H2398 H 0.6459 0.62912 0.3103 0.0
H2399 H 0.60142 0.64414 0.33848 0.0
H2400 H 0.57129 0.61101 0.32076 0.0
H2401 H 0.55763 0.57821 0.29672 0.0
H2402 H 0.60195 0.56287 0.2688 0.0
H2403 H 0.63218 0.59567 0.28707 0.0
C2404 C 0.62961 0.62508 0.31263 0.0
C2405 C 0.62588 0.63908 0.32562 0.0
C2406 C 0.61238 0.60602 0.30241 0.0
C2407 C 0.6047 0.63362 0.32856 0.0
C2408 C 0.58747 0.61471 0.3184 0.0
C2409 C 0.57393 0.58216 0.29454 0.0
C2410 C 0.57763 0.56832 0.28131 0.0
C2411 C 0.59114 0.60091 0.30516 0.0
C2412 C 0.59877 0.57331 0.27895 0.0
C2413 C 0.61601 0.59206 0.28934 0.0
H2414 H 0.36292 0.94674 0.37231 0.0
H2415 H 0.34675 0.99091 0.34396 0.0
H2416 H 0.37483 0.00045 0.32049 0.0
H2417 H 0.40258 0.99498 0.3066 0.0
H2418 H 0.42017 0.95188 0.33491 0.0
H2419 H 0.3928 0.943 0.35949 0.0
C2420 C 0.36571 0.95858 0.36111 0.0
C2421 C 0.35266 0.96799 0.35986 0.0
C2422 C 0.382 0.96405 0.34747 0.0
C2423 C 0.35647 0.98332 0.34526 0.0
C2424 C 0.37254 0.98881 0.33176 0.0
C2425 C 0.40079 0.98397 0.31838 0.0
C2426 C 0.41345 0.97412 0.31881 0.0
C2427 C 0.38522 0.9791 0.33255 0.0
C2428 C 0.41045 0.95949 0.33397 0.0
C2429 C 0.39487 0.95448 0.34814 0.0
H2430 H 0.6282 0.97444 0.30979 0.0
H2431 H 0.59186 0.96972 0.36229 0.0
H2432 H 0.56868 0.97843 0.34114 0.0
H2433 H 0.55848 0.98679 0.3075 0.0
H2434 H 0.59317 0.98888 0.2545 0.0
H2435 H 0.61744 0.98181 0.27604 0.0
C2436 C 0.61526 0.97543 0.31662 0.0
C2437 C 0.61177 0.9716 0.33757 0.0
C2438 C 0.60179 0.97995 0.30427 0.0
C2439 C 0.59481 0.97261 0.34618 0.0
C2440 C 0.5816 0.97761 0.33411 0.0
C2441 C 0.57149 0.98584 0.30081 0.0
C2442 C 0.57438 0.98857 0.27964 0.0
C2443 C 0.58492 0.98125 0.31315 0.0
C2444 C 0.5909 0.98693 0.27084 0.0
C2445 C 0.60468 0.98289 0.28313 0.0
H2446 H 0.02046 0.66429 0.27764 0.0
H2447 H 0.02814 0.64659 0.33887 0.0
H2448 H 0.02081 0.61091 0.32432 0.0
H2449 H 0.01227 0.58471 0.29417 0.0
H2450 H 0.00696 0.60309 0.23276 0.0
H2451 H 0.01327 0.63857 0.2473 0.0
C2452 C 0.02051 0.65259 0.28775 0.0
C2453 C 0.02473 0.65797 0.30927 0.0
C2454 C 0.01667 0.63226 0.27925 0.0
C2455 C 0.02499 0.6428 0.32223 0.0
C2456 C 0.02074 0.62239 0.31395 0.0
C2457 C 0.01239 0.59651 0.28406 0.0
C2458 C 0.00896 0.59143 0.26254 0.0
C2459 C 0.01654 0.61694 0.2925 0.0
C2460 C 0.0095 0.60681 0.24942 0.0
C2461 C 0.01311 0.62701 0.25772 0.0
H2462 H 0.35281 0.36616 0.35779 0.0
H2463 H 0.32958 0.41059 0.34841 0.0
H2464 H 0.35952 0.43206 0.32751 0.0
H2465 H 0.39055 0.4364 0.30991 0.0
H2466 H 0.4152 0.39335 0.32143 0.0
H2467 H 0.38607 0.37282 0.34316 0.0
C2468 C 0.35445 0.38068 0.35134 0.0
C2469 C 0.33899 0.38674 0.35446 0.0
C2470 C 0.37171 0.39295 0.33949 0.0
C2471 C 0.34134 0.40567 0.34622 0.0
C2472 C 0.35837 0.41785 0.33419 0.0
C2473 C 0.38994 0.42286 0.31749 0.0
C2474 C 0.40505 0.41637 0.3137 0.0
C2475 C 0.37345 0.41142 0.33045 0.0
C2476 C 0.40357 0.39845 0.32351 0.0
C2477 C 0.387 0.38679 0.33614 0.0
H2478 H 0.29432 0.28193 0.38163 0.0
H2479 H 0.30095 0.31782 0.43982 0.0
H2480 H 0.31119 0.29482 0.45808 0.0
H2481 H 0.31874 0.26496 0.45756 0.0
H2482 H 0.31423 0.22994 0.3996 0.0
H2483 H 0.30294 0.25228 0.38106 0.0
C2484 C 0.29788 0.28454 0.39831 0.0
C2485 C 0.29678 0.3014 0.40942 0.0
C2486 C 0.30429 0.27157 0.40867 0.0
C2487 C 0.30172 0.30492 0.43097 0.0
C2488 C 0.30758 0.29181 0.44142 0.0
C2489 C 0.31518 0.26219 0.44087 0.0
C2490 C 0.31708 0.2458 0.42991 0.0
C2491 C 0.30899 0.27517 0.43043 0.0
C2492 C 0.31286 0.24255 0.40828 0.0
C2493 C 0.30634 0.25523 0.39773 0.0
H2494 H 0.69245 0.03237 0.39409 0.0
H2495 H 0.71957 0.9932 0.4125 0.0
H2496 H 0.74905 0.02491 0.43264 0.0
H2497 H 0.76689 0.06353 0.44517 0.0
H2498 H 0.74097 0.10329 0.42513 0.0
H2499 H 0.71088 0.07137 0.40599 0.0
C2500 C 0.70486 0.0308 0.40247 0.0
C2501 C 0.70387 0.01051 0.4018 0.0
C2502 C 0.72181 0.04911 0.41392 0.0
C2503 C 0.72003 0.00869 0.41271 0.0
C2504 C 0.73684 0.02678 0.42428 0.0
C2505 C 0.75482 0.06533 0.43645 0.0
C2506 C 0.75628 0.08587 0.43664 0.0
C2507 C 0.73788 0.04706 0.42499 0.0
C2508 C 0.74014 0.08768 0.42559 0.0
C2509 C 0.72301 0.06946 0.41445 0.0
H2510 H 0.97463 0.66948 0.37258 0.0
H2511 H 0.96861 0.7207 0.34569 0.0
H2512 H 0.93672 0.71101 0.36444 0.0
H2513 H 0.91174 0.68911 0.38993 0.0
H2514 H 0.91972 0.63943 0.41797 0.0
H2515 H 0.94942 0.64719 0.39701 0.0
C2516 C 0.96625 0.67843 0.37064 0.0
C2517 C 0.97401 0.69583 0.3578 0.0
C2518 C 0.94827 0.67304 0.3817 0.0
C2519 C 0.96295 0.70723 0.35547 0.0
C2520 C 0.94477 0.70174 0.36625 0.0
C2521 C 0.92002 0.68002 0.39151 0.0
C2522 C 0.91338 0.66366 0.40554 0.0
C2523 C 0.9375 0.6849 0.37969 0.0
C2524 C 0.92414 0.65184 0.40709 0.0
C2525 C 0.94129 0.65639 0.39522 0.0
H2526 H 0.36428 0.01258 0.7375 0.0
H2527 H 0.41056 0.04909 0.69421 0.0
H2528 H 0.43851 0.04756 0.71543 0.0
H2529 H 0.4497 0.03573 0.74619 0.0
H2530 H 0.40341 0.99914 0.78941 0.0
H2531 H 0.37544 0.00064 0.76818 0.0
C2532 C 0.38049 0.02021 0.73271 0.0
C2533 C 0.38537 0.03097 0.71433 0.0
C2534 C 0.39643 0.01922 0.74494 0.0
C2535 C 0.40641 0.04072 0.70829 0.0
C2536 C 0.42239 0.03986 0.72042 0.0
C2537 C 0.43354 0.0283 0.75108 0.0
C2538 C 0.42865 0.01749 0.76944 0.0
C2539 C 0.41758 0.0292 0.73879 0.0
C2540 C 0.40754 0.00748 0.77531 0.0
C2541 C 0.39158 0.0084 0.76322 0.0
H2542 H 0.98749 0.34236 0.77135 0.0
H2543 H 0.94176 0.34537 0.72859 0.0
H2544 H 0.94915 0.37969 0.74661 0.0
H2545 H 0.96828 0.40858 0.7745 0.0
H2546 H 0.01379 0.40587 0.81771 0.0
H2547 H 0.0071 0.3718 0.79927 0.0
C2548 C 0.97915 0.35054 0.76601 0.0
C2549 C 0.96404 0.34132 0.74873 0.0
C2550 C 0.9835 0.37031 0.77643 0.0
C2551 C 0.95342 0.35212 0.74188 0.0
C2552 C 0.95764 0.37174 0.75216 0.0
C2553 C 0.9766 0.40042 0.78 0.0
C2554 C 0.99131 0.40954 0.79756 0.0
C2555 C 0.97256 0.3809 0.76947 0.0
C2556 C 0.00242 0.39915 0.80419 0.0
C2557 C 0.99852 0.37965 0.79373 0.0
H2558 H 0.66876 0.64907 0.73362 0.0
H2559 H 0.65378 0.5932 0.69189 0.0
H2560 H 0.62163 0.57059 0.70986 0.0
H2561 H 0.59781 0.56693 0.73749 0.0
H2562 H 0.61421 0.62305 0.77965 0.0
H2563 H 0.64559 0.6454 0.76116 0.0
C2564 C 0.65848 0.63194 0.72841 0.0
C2565 C 0.66363 0.62281 0.71144 0.0
C2566 C 0.64019 0.61912 0.7388 0.0
C2567 C 0.65016 0.60059 0.70493 0.0
C2568 C 0.63178 0.58768 0.71519 0.0
C2569 C 0.60832 0.58401 0.74271 0.0
C2570 C 0.60347 0.59329 0.75987 0.0
C2571 C 0.62665 0.59679 0.73217 0.0
C2572 C 0.6172 0.61553 0.76626 0.0
C2573 C 0.6353 0.62832 0.7558 0.0
H2574 H 0.73018 0.73125 0.65384 0.0
H2575 H 0.66564 0.68228 0.6644 0.0
H2576 H 0.65217 0.70523 0.65145 0.0
H2577 H 0.65857 0.7385 0.63622 0.0
H2578 H 0.72247 0.78507 0.62074 0.0
H2579 H 0.73639 0.76426 0.63724 0.0
C2580 C 0.71321 0.72575 0.65338 0.0
C2581 C 0.69889 0.70522 0.66003 0.0
C2582 C 0.70547 0.73868 0.64521 0.0
C2583 C 0.6769 0.69804 0.65921 0.0
C2584 C 0.66921 0.71115 0.65188 0.0
C2585 C 0.67551 0.74407 0.63611 0.0
C2586 C 0.68929 0.76348 0.6271 0.0
C2587 C 0.68332 0.73138 0.64459 0.0
C2588 C 0.71135 0.77054 0.62785 0.0
C2589 C 0.71938 0.75846 0.63709 0.0
H2590 H 0.26901 0.97025 0.65782 0.0
H2591 H 0.32411 0.96539 0.64324 0.0
H2592 H 0.30068 0.92987 0.62404 0.0
H2593 H 0.26439 0.90083 0.6102 0.0
H2594 H 0.20979 0.90682 0.62427 0.0
H2595 H 0.23315 0.94129 0.64479 0.0
C2596 C 0.2759 0.96136 0.65057 0.0
C2597 C 0.29823 0.9704 0.65194 0.0
C2598 C 0.26241 0.94122 0.63932 0.0
C2599 C 0.30693 0.95874 0.64239 0.0
C2600 C 0.29356 0.93847 0.63138 0.0
C2601 C 0.25769 0.90968 0.61789 0.0
C2602 C 0.23547 0.90147 0.61557 0.0
C2603 C 0.27127 0.92964 0.62956 0.0
C2604 C 0.2269 0.91305 0.62554 0.0
C2605 C 0.24022 0.93268 0.63736 0.0
H2606 H 0.01575 0.27971 0.70162 0.0
H2607 H 0.00615 0.32917 0.6754 0.0
H2608 H 0.03692 0.3399 0.65519 0.0
H2609 H 0.06532 0.33418 0.64348 0.0
H2610 H 0.07632 0.28576 0.66998 0.0
H2611 H 0.04611 0.27552 0.69126 0.0
C2612 C 0.02054 0.29294 0.69161 0.0
C2613 C 0.00859 0.30352 0.68997 0.0
C2614 C 0.03837 0.2991 0.6799 0.0
C2615 C 0.015 0.32067 0.67694 0.0
C2616 C 0.0326 0.32684 0.66532 0.0
C2617 C 0.06145 0.32168 0.65419 0.0
C2618 C 0.07312 0.31077 0.65505 0.0
C2619 C 0.04425 0.31603 0.6665 0.0
C2620 C 0.06744 0.29424 0.66874 0.0
C2621 C 0.05023 0.28844 0.68102 0.0
H2622 H 0.27917 0.32032 0.68832 0.0
H2623 H 0.309 0.31107 0.63564 0.0
H2624 H 0.28477 0.31602 0.61215 0.0
H2625 H 0.25527 0.32342 0.60646 0.0
H2626 H 0.22678 0.33496 0.65901 0.0
H2627 H 0.25024 0.32881 0.68264 0.0
C2628 C 0.28025 0.31931 0.67169 0.0
C2629 C 0.29576 0.31525 0.66371 0.0
C2630 C 0.26657 0.32271 0.65825 0.0
C2631 C 0.2972 0.31423 0.64216 0.0
C2632 C 0.28335 0.31704 0.6287 0.0
C2633 C 0.25427 0.32457 0.62309 0.0
C2634 C 0.23947 0.32967 0.63105 0.0
C2635 C 0.26803 0.32137 0.63655 0.0
C2636 C 0.23829 0.33126 0.65261 0.0
C2637 C 0.25161 0.32765 0.66609 0.0
H2638 H 0.67881 0.99238 0.61235 0.0
H2639 H 0.69294 0.9739 0.67082 0.0
H2640 H 0.68074 0.93711 0.65522 0.0
H2641 H 0.66736 0.91061 0.62459 0.0
H2642 H 0.65588 0.92983 0.56556 0.0
H2643 H 0.66555 0.96591 0.58167 0.0
C2644 C 0.67909 0.98024 0.62167 0.0
C2645 C 0.68673 0.98578 0.64268 0.0
C2646 C 0.67249 0.95929 0.61249 0.0
C2647 C 0.68721 0.97001 0.65458 0.0
C2648 C 0.68019 0.94898 0.64569 0.0
C2649 C 0.66672 0.92268 0.61541 0.0
C2650 C 0.66071 0.91771 0.59407 0.0
C2651 C 0.67295 0.94349 0.62464 0.0
C2652 C 0.66034 0.93344 0.58207 0.0
C2653 C 0.66591 0.954 0.59126 0.0
H2654 H 0.01893 0.69193 0.68457 0.0
H2655 H 0.99435 0.73544 0.67687 0.0
H2656 H 0.02393 0.75779 0.65583 0.0
H2657 H 0.05501 0.76305 0.63757 0.0
H2658 H 0.08137 0.72127 0.64829 0.0
H2659 H 0.0525 0.69986 0.66985 0.0
C2660 C 0.02021 0.70646 0.67846 0.0
C2661 C 0.00448 0.712 0.68206 0.0
C2662 C 0.03733 0.71929 0.66665 0.0
C2663 C 0.00637 0.73095 0.67431 0.0
C2664 C 0.02318 0.74361 0.66219 0.0
C2665 C 0.05485 0.7496 0.64492 0.0
C2666 C 0.07032 0.74367 0.64079 0.0
C2667 C 0.03855 0.73771 0.65798 0.0
C2668 C 0.0694 0.7259 0.65045 0.0
C2669 C 0.05299 0.71373 0.66304 0.0
H2670 H 0.94009 0.59731 0.72473 0.0
H2671 H 0.99756 0.65551 0.75054 0.0
H2672 H 0.00875 0.63339 0.76906 0.0
H2673 H 0.00155 0.5977 0.7792 0.0
H2674 H 0.94359 0.5394 0.75473 0.0
H2675 H 0.9332 0.5613 0.73446 0.0
C2676 C 0.95512 0.60509 0.7343 0.0
C2677 C 0.96796 0.62799 0.73628 0.0
C2678 C 0.96132 0.59227 0.74521 0.0
C2679 C 0.98734 0.6379 0.74882 0.0
C2680 C 0.99378 0.62528 0.75942 0.0
C2681 C 0.9868 0.58979 0.76919 0.0
C2682 C 0.97339 0.56701 0.76837 0.0
C2683 C 0.98081 0.60248 0.75788 0.0
C2684 C 0.95411 0.55696 0.75566 0.0
C2685 C 0.94819 0.56946 0.74406 0.0
H2686 H 0.36261 0.37422 0.74495 0.0
H2687 H 0.41173 0.36616 0.71755 0.0
H2688 H 0.43945 0.39916 0.73757 0.0
H2689 H 0.44979 0.42969 0.76359 0.0
H2690 H 0.40111 0.43867 0.79051 0.0
H2691 H 0.37309 0.40596 0.7699 0.0
C2692 C 0.37939 0.37979 0.74329 0.0
C2693 C 0.38512 0.36773 0.72987 0.0
C2694 C 0.39528 0.39884 0.75482 0.0
C2695 C 0.4069 0.37516 0.72777 0.0
C2696 C 0.42277 0.39399 0.73926 0.0
C2697 C 0.43302 0.42437 0.76498 0.0
C2698 C 0.42741 0.43628 0.77867 0.0
C2699 C 0.41714 0.4058 0.75298 0.0
C2700 C 0.40571 0.42963 0.78007 0.0
C2701 C 0.38974 0.41096 0.76833 0.0
H2702 H 0.64294 0.00976 0.7025 0.0
H2703 H 0.65982 0.07516 0.6892 0.0
H2704 H 0.63073 0.07256 0.70918 0.0
H2705 H 0.60163 0.05216 0.73198 0.0
H2706 H 0.58551 0.98688 0.74512 0.0
H2707 H 0.61308 0.98892 0.72351 0.0
C2708 C 0.64018 0.02342 0.70382 0.0
C2709 C 0.65359 0.04268 0.69449 0.0
C2710 C 0.62359 0.02183 0.71537 0.0
C2711 C 0.6497 0.06015 0.69623 0.0
C2712 C 0.63314 0.05869 0.70773 0.0
C2713 C 0.60418 0.0384 0.73007 0.0
C2714 C 0.59153 0.01939 0.74018 0.0
C2715 C 0.62019 0.03971 0.71764 0.0
C2716 C 0.59483 0.00159 0.73736 0.0
C2717 C 0.61068 0.00279 0.72509 0.0
loop_
_geom_bond_atom_site_label_1
_geom_bond_atom_site_label_2
_geom_bond_distance
_geom_bond_site_symmetry_2
_ccdc_geom_bond_type
In0 O1 2.266 1_455 S
In0 O2 2.328 . S
In0 O6 2.239 1_455 S
In0 O7 2.334 1_454 S
In0 O8 2.278 1_554 S
In0 O9 2.296 1_454 S
In0 O11 2.337 . S
In0 O12 2.348 . S
O1 In0 2.266 1_655 S
O1 C10 1.238 . S
O2 In0 2.328 . S
O2 C10 1.256 1_455 S
C3 O6 1.252 1_556 S
C3 O7 1.260 . S
C4 O11 1.240 . S
C4 O12 1.252 . S
C5 O8 1.252 . S
C5 O9 1.260 1_455 S
O6 In0 2.239 1_655 S
O6 C3 1.252 1_554 S
O7 In0 2.334 1_656 S
O7 C3 1.260 . S
O8 In0 2.278 1_556 S
O8 C5 1.252 . S
O9 In0 2.296 1_656 S
O9 C5 1.260 1_655 S
C10 O1 1.238 . S
C10 O2 1.256 1_655 S
O11 In0 2.337 . S
O11 C4 1.240 . S
O12 In0 2.348 . S
O12 C4 1.252 . S
In13 O14 2.294 . S
In13 O15 2.326 . S
In13 O19 2.266 . S
In13 O20 2.326 . S
In13 O21 2.266 . S
In13 O22 2.326 . S
In13 O24 2.294 . S
In13 O25 2.326 . S
O14 In13 2.294 . S
O14 C23 1.240 . S
O15 In13 2.326 . S
O15 C23 1.252 . S
C16 O19 1.252 . S
C16 O20 1.260 . S
C17 O24 1.240 . S
C17 O25 1.252 . S
C18 O21 1.252 . S
C18 O22 1.260 . S
O19 In13 2.266 . S
O19 C16 1.252 . S
O20 In13 2.326 . S
O20 C16 1.260 . S
O21 In13 2.266 . S
O21 C18 1.252 . S
O22 In13 2.326 . S
O22 C18 1.260 . S
C23 O14 1.240 . S
C23 O15 1.252 . S
O24 In13 2.294 . S
O24 C17 1.240 . S
O25 In13 2.326 . S
O25 C17 1.252 . S
In26 O27 2.307 . S
In26 O28 2.333 1_554 S
In26 O32 2.269 . S
In26 O33 2.316 1_545 S
In26 O34 2.258 1_545 S
In26 O35 2.328 1_545 S
In26 O37 2.286 1_544 S
In26 O38 2.327 1_554 S
O27 In26 2.307 . S
O27 C36 1.240 1_554 S
O28 In26 2.333 1_556 S
O28 C36 1.252 . S
C29 O32 1.252 . S
C29 O33 1.260 1_545 S
C30 O37 1.240 . S
C30 O38 1.252 1_565 S
C31 O34 1.252 . S
C31 O35 1.260 . S
O32 In26 2.269 . S
O32 C29 1.252 . S
O33 In26 2.316 1_565 S
O33 C29 1.260 1_565 S
O34 In26 2.258 1_565 S
O34 C31 1.252 . S
O35 In26 2.328 1_565 S
O35 C31 1.260 . S
C36 O27 1.240 1_556 S
C36 O28 1.252 . S
O37 In26 2.286 1_566 S
O37 C30 1.240 . S
O38 In26 2.327 1_556 S
O38 C30 1.252 1_545 S
In39 O40 2.292 . S
In39 O41 2.326 1_455 S
In39 O45 2.265 . S
In39 O46 2.326 . S
In39 O47 2.267 1_455 S
In39 O48 2.324 . S
In39 O50 2.296 1_455 S
In39 O51 2.327 1_455 S
O40 In39 2.292 . S
O40 C49 1.260 . S
O41 In39 2.326 1_655 S
O41 C49 1.215 1_655 S
C42 O45 1.252 . S
C42 O46 1.260 . S
C43 O50 1.240 . S
C43 O51 1.252 . S
C44 O47 1.252 . S
C44 O48 1.260 1_655 S
O45 In39 2.265 . S
O45 C42 1.252 . S
O46 In39 2.326 . S
O46 C42 1.260 . S
O47 In39 2.267 1_655 S
O47 C44 1.252 . S
O48 In39 2.324 . S
O48 C44 1.260 1_455 S
C49 O40 1.260 . S
C49 O41 1.215 1_455 S
O50 In39 2.296 1_655 S
O50 C43 1.240 . S
O51 In39 2.327 1_655 S
O51 C43 1.252 . S
In52 O53 2.294 1_554 S
In52 O54 2.326 1_554 S
In52 O58 2.266 . S
In52 O59 2.326 . S
In52 O60 2.266 . S
In52 O61 2.326 . S
In52 O63 2.294 1_554 S
In52 O64 2.326 1_554 S
O53 In52 2.294 1_556 S
O53 C62 1.240 . S
O54 In52 2.326 1_556 S
O54 C62 1.252 . S
C55 O58 1.252 . S
C55 O59 1.260 . S
C56 O63 1.240 . S
C56 O64 1.252 . S
C57 O60 1.252 . S
C57 O61 1.260 . S
O58 In52 2.266 . S
O58 C55 1.252 . S
O59 In52 2.326 . S
O59 C55 1.260 . S
O60 In52 2.266 . S
O60 C57 1.252 . S
O61 In52 2.326 . S
O61 C57 1.260 . S
C62 O53 1.240 . S
C62 O54 1.252 . S
O63 In52 2.294 1_556 S
O63 C56 1.240 . S
O64 In52 2.326 1_556 S
O64 C56 1.252 . S
In65 O66 2.293 . S
In65 O67 2.326 1_545 S
In65 O71 2.265 . S
In65 O72 2.326 . S
In65 O73 2.267 1_545 S
In65 O74 2.324 . S
In65 O76 2.296 1_545 S
In65 O77 2.327 1_545 S
O66 In65 2.293 . S
O66 C75 1.240 . S
O67 In65 2.326 1_565 S
O67 C75 1.252 1_565 S
C68 O71 1.252 . S
C68 O72 1.260 . S
C69 O76 1.240 . S
C69 O77 1.252 . S
C70 O73 1.252 . S
C70 O74 1.260 1_565 S
O71 In65 2.265 . S
O71 C68 1.252 . S
O72 In65 2.326 . S
O72 C68 1.260 . S
O73 In65 2.267 1_565 S
O73 C70 1.252 . S
O74 In65 2.324 . S
O74 C70 1.260 1_545 S
C75 O66 1.240 . S
C75 O67 1.252 1_545 S
O76 In65 2.296 1_565 S
O76 C69 1.240 . S
O77 In65 2.327 1_565 S
O77 C69 1.252 . S
In78 O79 2.294 . S
In78 O80 2.326 . S
In78 O84 2.266 . S
In78 O85 2.326 . S
In78 O86 2.266 . S
In78 O87 2.326 . S
In78 O89 2.294 . S
In78 O90 2.326 . S
O79 In78 2.294 . S
O79 C88 1.240 . S
O80 In78 2.326 . S
O80 C88 1.252 . S
C81 O84 1.252 . S
C81 O85 1.260 . S
C82 O89 1.240 . S
C82 O90 1.252 . S
C83 O86 1.252 . S
C83 O87 1.260 . S
O84 In78 2.266 . S
O84 C81 1.252 . S
O85 In78 2.326 . S
O85 C81 1.260 . S
O86 In78 2.266 . S
O86 C83 1.252 . S
O87 In78 2.326 . S
O87 C83 1.260 . S
C88 O79 1.240 . S
C88 O80 1.252 . S
O89 In78 2.294 . S
O89 C82 1.240 . S
O90 In78 2.326 . S
O90 C82 1.252 . S
In91 O92 2.294 . S
In91 O93 2.326 . S
In91 O97 2.266 . S
In91 O98 2.326 . S
In91 O99 2.266 . S
In91 O100 2.326 . S
In91 O102 2.294 . S
In91 O103 2.326 . S
O92 In91 2.294 . S
O92 C101 1.240 . S
O93 In91 2.326 . S
O93 C101 1.252 . S
C94 O97 1.252 . S
C94 O98 1.260 . S
C95 O102 1.240 . S
C95 O103 1.252 . S
C96 O99 1.252 . S
C96 O100 1.260 . S
O97 In91 2.266 . S
O97 C94 1.252 . S
O98 In91 2.326 . S
O98 C94 1.260 . S
O99 In91 2.266 . S
O99 C96 1.252 . S
O100 In91 2.326 . S
O100 C96 1.260 . S
C101 O92 1.240 . S
C101 O93 1.252 . S
O102 In91 2.294 . S
O102 C95 1.240 . S
O103 In91 2.326 . S
O103 C95 1.252 . S
In104 O105 2.294 . S
In104 O106 2.326 . S
In104 O110 2.266 . S
In104 O111 2.326 . S
In104 O112 2.266 . S
In104 O113 2.326 . S
In104 O115 2.294 . S
In104 O116 2.326 . S
O105 In104 2.294 . S
O105 C114 1.240 . S
O106 In104 2.326 . S
O106 C114 1.252 . S
C107 O110 1.252 . S
C107 O111 1.260 . S
C108 O115 1.240 . S
C108 O116 1.252 . S
C109 O112 1.252 . S
C109 O113 1.260 . S
O110 In104 2.266 . S
O110 C107 1.252 . S
O111 In104 2.326 . S
O111 C107 1.260 . S
O112 In104 2.266 . S
O112 C109 1.252 . S
O113 In104 2.326 . S
O113 C109 1.260 . S
C114 O105 1.240 . S
C114 O106 1.252 . S
O115 In104 2.294 . S
O115 C108 1.240 . S
O116 In104 2.326 . S
O116 C108 1.252 . S
In117 O118 2.294 . S
In117 O119 2.326 . S
In117 O123 2.266 . S
In117 O124 2.326 . S
In117 O125 2.266 . S
In117 O126 2.326 . S
In117 O128 2.294 . S
In117 O129 2.326 . S
O118 In117 2.294 . S
O118 C127 1.240 . S
O119 In117 2.326 . S
O119 C127 1.252 . S
C120 O123 1.252 . S
C120 O124 1.260 . S
C121 O128 1.240 . S
C121 O129 1.252 . S
C122 O125 1.252 . S
C122 O126 1.260 . S
O123 In117 2.266 . S
O123 C120 1.252 . S
O124 In117 2.326 . S
O124 C120 1.260 . S
O125 In117 2.266 . S
O125 C122 1.252 . S
O126 In117 2.326 . S
O126 C122 1.260 . S
C127 O118 1.240 . S
C127 O119 1.252 . S
O128 In117 2.294 . S
O128 C121 1.240 . S
O129 In117 2.326 . S
O129 C121 1.252 . S
In130 O131 2.294 . S
In130 O132 2.326 . S
In130 O136 2.266 . S
In130 O137 2.326 . S
In130 O138 2.266 . S
In130 O139 2.326 . S
In130 O141 2.294 . S
In130 O142 2.326 . S
O131 In130 2.294 . S
O131 C140 1.240 . S
O132 In130 2.326 . S
O132 C140 1.252 . S
C133 O136 1.252 . S
C133 O137 1.260 . S
C134 O141 1.240 . S
C134 O142 1.252 . S
C135 O138 1.252 . S
C135 O139 1.260 . S
O136 In130 2.266 . S
O136 C133 1.252 . S
O137 In130 2.326 . S
O137 C133 1.260 . S
O138 In130 2.266 . S
O138 C135 1.252 . S
O139 In130 2.326 . S
O139 C135 1.260 . S
C140 O131 1.240 . S
C140 O132 1.252 . S
O141 In130 2.294 . S
O141 C134 1.240 . S
O142 In130 2.326 . S
O142 C134 1.252 . S
In143 O144 2.294 . S
In143 O145 2.326 . S
In143 O149 2.266 . S
In143 O150 2.326 . S
In143 O151 2.266 . S
In143 O152 2.326 . S
In143 O154 2.294 . S
In143 O155 2.326 . S
O144 In143 2.294 . S
O144 C153 1.240 . S
O145 In143 2.326 . S
O145 C153 1.252 . S
C146 O149 1.252 . S
C146 O150 1.260 . S
C147 O154 1.240 . S
C147 O155 1.252 . S
C148 O151 1.252 . S
C148 O152 1.260 . S
O149 In143 2.266 . S
O149 C146 1.252 . S
O150 In143 2.326 . S
O150 C146 1.260 . S
O151 In143 2.266 . S
O151 C148 1.252 . S
O152 In143 2.326 . S
O152 C148 1.260 . S
C153 O144 1.240 . S
C153 O145 1.252 . S
O154 In143 2.294 . S
O154 C147 1.240 . S
O155 In143 2.326 . S
O155 C147 1.252 . S
In156 O157 2.294 . S
In156 O158 2.326 . S
In156 O162 2.266 . S
In156 O163 2.326 . S
In156 O164 2.266 . S
In156 O165 2.326 . S
In156 O167 2.294 . S
In156 O168 2.326 . S
O157 In156 2.294 . S
O157 C166 1.240 . S
O158 In156 2.326 . S
O158 C166 1.252 . S
C159 O162 1.252 . S
C159 O163 1.260 . S
C160 O167 1.240 . S
C160 O168 1.252 . S
C161 O164 1.252 . S
C161 O165 1.260 . S
O162 In156 2.266 . S
O162 C159 1.252 . S
O163 In156 2.326 . S
O163 C159 1.260 . S
O164 In156 2.266 . S
O164 C161 1.252 . S
O165 In156 2.326 . S
O165 C161 1.260 . S
C166 O157 1.240 . S
C166 O158 1.252 . S
O167 In156 2.294 . S
O167 C160 1.240 . S
O168 In156 2.326 . S
O168 C160 1.252 . S
In169 O170 2.294 . S
In169 O171 2.326 . S
In169 O175 2.266 . S
In169 O176 2.326 . S
In169 O177 2.266 . S
In169 O178 2.326 . S
In169 O180 2.294 . S
In169 O181 2.326 . S
O170 In169 2.294 . S
O170 C179 1.240 . S
O171 In169 2.326 . S
O171 C179 1.252 . S
C172 O175 1.252 . S
C172 O176 1.260 . S
C173 O180 1.240 . S
C173 O181 1.252 . S
C174 O177 1.252 . S
C174 O178 1.260 . S
O175 In169 2.266 . S
O175 C172 1.252 . S
O176 In169 2.326 . S
O176 C172 1.260 . S
O177 In169 2.266 . S
O177 C174 1.252 . S
O178 In169 2.326 . S
O178 C174 1.260 . S
C179 O170 1.240 . S
C179 O171 1.252 . S
O180 In169 2.294 . S
O180 C173 1.240 . S
O181 In169 2.326 . S
O181 C173 1.252 . S
In182 O183 2.294 . S
In182 O184 2.326 . S
In182 O188 2.266 . S
In182 O189 2.326 . S
In182 O190 2.266 . S
In182 O191 2.326 . S
In182 O193 2.294 . S
In182 O194 2.326 . S
O183 In182 2.294 . S
O183 C192 1.240 . S
O184 In182 2.326 . S
O184 C192 1.252 . S
C185 O188 1.252 . S
C185 O189 1.260 . S
C186 O193 1.240 . S
C186 O194 1.252 . S
C187 O190 1.252 . S
C187 O191 1.260 . S
O188 In182 2.266 . S
O188 C185 1.252 . S
O189 In182 2.326 . S
O189 C185 1.260 . S
O190 In182 2.266 . S
O190 C187 1.252 . S
O191 In182 2.326 . S
O191 C187 1.260 . S
C192 O183 1.240 . S
C192 O184 1.252 . S
O193 In182 2.294 . S
O193 C186 1.240 . S
O194 In182 2.326 . S
O194 C186 1.252 . S
In195 O196 2.294 . S
In195 O197 2.326 . S
In195 O201 2.266 . S
In195 O202 2.326 . S
In195 O203 2.266 . S
In195 O204 2.326 . S
In195 O206 2.294 . S
In195 O207 2.326 . S
O196 In195 2.294 . S
O196 C205 1.240 . S
O197 In195 2.326 . S
O197 C205 1.252 . S
C198 O201 1.252 . S
C198 O202 1.260 . S
C199 O206 1.240 . S
C199 O207 1.252 . S
C200 O203 1.252 . S
C200 O204 1.260 . S
O201 In195 2.266 . S
O201 C198 1.252 . S
O202 In195 2.326 . S
O202 C198 1.260 . S
O203 In195 2.266 . S
O203 C200 1.252 . S
O204 In195 2.326 . S
O204 C200 1.260 . S
C205 O196 1.240 . S
C205 O197 1.252 . S
O206 In195 2.294 . S
O206 C199 1.240 . S
O207 In195 2.326 . S
O207 C199 1.252 . S
In208 O209 2.294 . S
In208 O210 2.326 . S
In208 O214 2.266 . S
In208 O215 2.326 . S
In208 O216 2.266 . S
In208 O217 2.326 . S
In208 O219 2.294 . S
In208 O220 2.326 . S
O209 In208 2.294 . S
O209 C218 1.240 . S
O210 In208 2.326 . S
O210 C218 1.252 . S
C211 O214 1.252 . S
C211 O215 1.260 . S
C212 O219 1.240 . S
C212 O220 1.252 . S
C213 O216 1.252 . S
C213 O217 1.260 . S
O214 In208 2.266 . S
O214 C211 1.252 . S
O215 In208 2.326 . S
O215 C211 1.260 . S
O216 In208 2.266 . S
O216 C213 1.252 . S
O217 In208 2.326 . S
O217 C213 1.260 . S
C218 O209 1.240 . S
C218 O210 1.252 . S
O219 In208 2.294 . S
O219 C212 1.240 . S
O220 In208 2.326 . S
O220 C212 1.252 . S
In221 O222 2.294 . S
In221 O223 2.326 . S
In221 O227 2.266 . S
In221 O228 2.326 . S
In221 O229 2.266 . S
In221 O230 2.326 . S
In221 O232 2.294 . S
In221 O233 2.326 . S
O222 In221 2.294 . S
O222 C231 1.240 . S
O223 In221 2.326 . S
O223 C231 1.252 . S
C224 O227 1.252 . S
C224 O228 1.260 . S
C225 O232 1.240 . S
C225 O233 1.252 . S
C226 O229 1.252 . S
C226 O230 1.260 . S
O227 In221 2.266 . S
O227 C224 1.252 . S
O228 In221 2.326 . S
O228 C224 1.260 . S
O229 In221 2.266 . S
O229 C226 1.252 . S
O230 In221 2.326 . S
O230 C226 1.260 . S
C231 O222 1.240 . S
C231 O223 1.252 . S
O232 In221 2.294 . S
O232 C225 1.240 . S
O233 In221 2.326 . S
O233 C225 1.252 . S
H234 O260 0.856 . S
H235 O263 0.854 . S
H236 C271 0.930 . S
H237 C272 0.930 . S
H238 C274 0.930 . S
H239 C275 0.930 . S
H240 C277 0.931 . S
H241 C278 0.930 . S
H242 C280 0.930 . S
H243 C281 0.929 . S
H244 C283 0.930 . S
H245 C284 0.931 . S
H246 C286 0.930 . S
H247 C287 0.929 . S
H248 C289 0.931 . S
H249 C290 0.930 . S
H250 C292 0.930 . S
H251 C293 0.932 . S
H252 C295 0.930 . S
H253 C296 0.929 . S
H254 C298 0.931 . S
H255 C299 0.930 . S
H256 C301 0.929 . S
H257 C302 0.931 . S
H258 C304 0.930 . S
H259 C305 0.929 . S
O260 H234 0.856 . S
O260 C306 1.300 . S
O261 C306 1.209 . S
O262 C307 1.199 . S
O263 H235 0.854 . S
O263 C307 1.297 . S
C264 C265 1.404 . S
C264 C269 1.397 . S
C264 C270 1.492 . S
C265 C264 1.404 . S
C265 C266 1.396 . S
C265 C276 1.492 . S
C266 C265 1.396 . S
C266 C267 1.397 . S
C266 C282 1.509 . S
C267 C266 1.397 . S
C267 C268 1.412 . S
C267 C288 1.485 . S
C268 C267 1.412 . S
C268 C269 1.388 . S
C268 C294 1.490 . S
C269 C264 1.397 . S
C269 C268 1.388 . S
C269 C300 1.519 . S
C270 C264 1.492 . S
C270 C271 1.363 . S
C270 C275 1.390 . S
C271 H236 0.930 . S
C271 C270 1.363 . S
C271 C272 1.372 . S
C272 H237 0.930 . S
C272 C271 1.372 . S
C272 C273 1.383 . S
C273 C272 1.383 . S
C273 C274 1.395 . S
C274 H238 0.930 . S
C274 C273 1.395 . S
C274 C275 1.362 . S
C275 H239 0.930 . S
C275 C270 1.390 . S
C275 C274 1.362 . S
C276 C265 1.492 . S
C276 C277 1.377 . S
C276 C281 1.397 . S
C277 H240 0.931 . S
C277 C276 1.377 . S
C277 C278 1.376 . S
C278 H241 0.930 . S
C278 C277 1.376 . S
C278 C279 1.376 . S
C279 C278 1.376 . S
C279 C280 1.378 . S
C279 C306 1.486 . S
C280 H242 0.930 . S
C280 C279 1.378 . S
C280 C281 1.376 . S
C281 H243 0.929 . S
C281 C276 1.397 . S
C281 C280 1.376 . S
C282 C266 1.509 . S
C282 C283 1.391 . S
C282 C287 1.386 . S
C283 H244 0.930 . S
C283 C282 1.391 . S
C283 C284 1.375 . S
C284 H245 0.931 . S
C284 C283 1.375 . S
C284 C285 1.375 . S
C285 C284 1.375 . S
C285 C286 1.361 . S
C286 H246 0.930 . S
C286 C285 1.361 . S
C286 C287 1.399 . S
C287 H247 0.929 . S
C287 C282 1.386 . S
C287 C286 1.399 . S
C288 C267 1.485 . S
C288 C289 1.394 . S
C288 C293 1.360 . S
C289 H248 0.931 . S
C289 C288 1.394 . S
C289 C290 1.372 . S
C290 H249 0.930 . S
C290 C289 1.372 . S
C290 C291 1.397 . S
C291 C290 1.397 . S
C291 C292 1.390 . S
C291 C307 1.476 . S
C292 H250 0.930 . S
C292 C291 1.390 . S
C292 C293 1.366 . S
C293 H251 0.932 . S
C293 C288 1.360 . S
C293 C292 1.366 . S
C294 C268 1.490 . S
C294 C295 1.380 . S
C294 C299 1.386 . S
C295 H252 0.930 . S
C295 C294 1.380 . S
C295 C296 1.381 . S
C296 H253 0.929 . S
C296 C295 1.381 . S
C296 C297 1.371 . S
C297 C296 1.371 . S
C297 C298 1.380 . S
C298 H254 0.931 . S
C298 C297 1.380 . S
C298 C299 1.387 . S
C299 H255 0.930 . S
C299 C294 1.386 . S
C299 C298 1.387 . S
C300 C269 1.519 . S
C300 C301 1.377 . S
C300 C305 1.361 . S
C301 H256 0.929 . S
C301 C300 1.377 . S
C301 C302 1.386 . S
C302 H257 0.931 . S
C302 C301 1.386 . S
C302 C303 1.363 . S
C303 C302 1.363 . S
C303 C304 1.385 . S
C304 H258 0.930 . S
C304 C303 1.385 . S
C304 C305 1.396 . S
C305 H259 0.929 . S
C305 C300 1.361 . S
C305 C304 1.396 . S
C306 O260 1.300 . S
C306 O261 1.209 . S
C306 C279 1.486 . S
C307 O262 1.199 . S
C307 O263 1.297 . S
C307 C291 1.476 . S
H308 O334 0.856 . S
H309 O337 0.854 . S
H310 C345 0.930 . S
H311 C346 0.930 . S
H312 C348 0.930 . S
H313 C349 0.930 . S
H314 C351 0.931 . S
H315 C352 0.930 . S
H316 C354 0.930 . S
H317 C355 0.929 . S
H318 C357 0.930 . S
H319 C358 0.931 . S
H320 C360 0.930 . S
H321 C361 0.929 . S
H322 C363 0.931 . S
H323 C364 0.930 . S
H324 C366 0.930 . S
H325 C367 0.932 . S
H326 C369 0.930 . S
H327 C370 0.929 . S
H328 C372 0.931 . S
H329 C373 0.930 . S
H330 C375 0.929 . S
H331 C376 0.931 . S
H332 C378 0.930 . S
H333 C379 0.929 . S
O334 H308 0.856 . S
O334 C380 1.300 . S
O335 C380 1.209 . S
O336 C381 1.199 . S
O337 H309 0.854 . S
O337 C381 1.297 . S
C338 C339 1.404 . S
C338 C343 1.397 . S
C338 C344 1.492 . S
C339 C338 1.404 . S
C339 C340 1.396 . S
C339 C350 1.492 . S
C340 C339 1.396 . S
C340 C341 1.397 . S
C340 C356 1.509 . S
C341 C340 1.397 . S
C341 C342 1.412 . S
C341 C362 1.485 . S
C342 C341 1.412 . S
C342 C343 1.388 . S
C342 C368 1.490 . S
C343 C338 1.397 . S
C343 C342 1.388 . S
C343 C374 1.519 . S
C344 C338 1.492 . S
C344 C345 1.363 . S
C344 C349 1.390 . S
C345 H310 0.930 . S
C345 C344 1.363 . S
C345 C346 1.372 . S
C346 H311 0.930 . S
C346 C345 1.372 . S
C346 C347 1.383 . S
C347 C346 1.383 . S
C347 C348 1.395 . S
C348 H312 0.930 . S
C348 C347 1.395 . S
C348 C349 1.362 . S
C349 H313 0.930 . S
C349 C344 1.390 . S
C349 C348 1.362 . S
C350 C339 1.492 . S
C350 C351 1.377 . S
C350 C355 1.397 . S
C351 H314 0.931 . S
C351 C350 1.377 . S
C351 C352 1.376 . S
C352 H315 0.930 . S
C352 C351 1.376 . S
C352 C353 1.376 . S
C353 C352 1.376 . S
C353 C354 1.378 . S
C353 C380 1.486 . S
C354 H316 0.930 . S
C354 C353 1.378 . S
C354 C355 1.376 . S
C355 H317 0.929 . S
C355 C350 1.397 . S
C355 C354 1.376 . S
C356 C340 1.509 . S
C356 C357 1.391 . S
C356 C361 1.386 . S
C357 H318 0.930 . S
C357 C356 1.391 . S
C357 C358 1.375 . S
C358 H319 0.931 . S
C358 C357 1.375 . S
C358 C359 1.375 . S
C359 C358 1.375 . S
C359 C360 1.361 . S
C360 H320 0.930 . S
C360 C359 1.361 . S
C360 C361 1.399 . S
C361 H321 0.929 . S
C361 C356 1.386 . S
C361 C360 1.399 . S
C362 C341 1.485 . S
C362 C363 1.394 . S
C362 C367 1.360 . S
C363 H322 0.931 . S
C363 C362 1.394 . S
C363 C364 1.372 . S
C364 H323 0.930 . S
C364 C363 1.372 . S
C364 C365 1.397 . S
C365 C364 1.397 . S
C365 C366 1.390 . S
C365 C381 1.476 . S
C366 H324 0.930 . S
C366 C365 1.390 . S
C366 C367 1.366 . S
C367 H325 0.932 . S
C367 C362 1.360 . S
C367 C366 1.366 . S
C368 C342 1.490 . S
C368 C369 1.380 . S
C368 C373 1.386 . S
C369 H326 0.930 . S
C369 C368 1.380 . S
C369 C370 1.381 . S
C370 H327 0.929 . S
C370 C369 1.381 . S
C370 C371 1.371 . S
C371 C370 1.371 . S
C371 C372 1.380 . S
C372 H328 0.931 . S
C372 C371 1.380 . S
C372 C373 1.387 . S
C373 H329 0.930 . S
C373 C368 1.386 . S
C373 C372 1.387 . S
C374 C343 1.519 . S
C374 C375 1.377 . S
C374 C379 1.361 . S
C375 H330 0.929 . S
C375 C374 1.377 . S
C375 C376 1.386 . S
C376 H331 0.931 . S
C376 C375 1.386 . S
C376 C377 1.363 . S
C377 C376 1.363 . S
C377 C378 1.385 . S
C378 H332 0.930 . S
C378 C377 1.385 . S
C378 C379 1.396 . S
C379 H333 0.929 . S
C379 C374 1.361 . S
C379 C378 1.396 . S
C380 O334 1.300 . S
C380 O335 1.209 . S
C380 C353 1.486 . S
C381 O336 1.199 . S
C381 O337 1.297 . S
C381 C365 1.476 . S
H382 O408 0.856 . S
H383 O411 0.854 . S
H384 C419 0.930 . S
H385 C420 0.930 . S
H386 C422 0.930 . S
H387 C423 0.930 . S
H388 C425 0.931 . S
H389 C426 0.930 . S
H390 C428 0.930 . S
H391 C429 0.929 . S
H392 C431 0.930 . S
H393 C432 0.931 . S
H394 C434 0.930 . S
H395 C435 0.929 . S
H396 C437 0.931 . S
H397 C438 0.930 . S
H398 C440 0.930 . S
H399 C441 0.932 . S
H400 C443 0.930 . S
H401 C444 0.929 . S
H402 C446 0.931 . S
H403 C447 0.930 . S
H404 C449 0.929 . S
H405 C450 0.931 . S
H406 C452 0.930 . S
H407 C453 0.929 . S
O408 H382 0.856 . S
O408 C454 1.300 . S
O409 C454 1.209 . S
O410 C455 1.199 . S
O411 H383 0.854 . S
O411 C455 1.297 . S
C412 C413 1.404 . S
C412 C417 1.397 . S
C412 C418 1.492 . S
C413 C412 1.404 . S
C413 C414 1.396 . S
C413 C424 1.492 . S
C414 C413 1.396 . S
C414 C415 1.397 . S
C414 C430 1.509 . S
C415 C414 1.397 . S
C415 C416 1.412 . S
C415 C436 1.485 . S
C416 C415 1.412 . S
C416 C417 1.388 . S
C416 C442 1.490 . S
C417 C412 1.397 . S
C417 C416 1.388 . S
C417 C448 1.519 . S
C418 C412 1.492 . S
C418 C419 1.363 . S
C418 C423 1.390 . S
C419 H384 0.930 . S
C419 C418 1.363 . S
C419 C420 1.372 . S
C420 H385 0.930 . S
C420 C419 1.372 . S
C420 C421 1.383 . S
C421 C420 1.383 . S
C421 C422 1.395 . S
C422 H386 0.930 . S
C422 C421 1.395 . S
C422 C423 1.362 . S
C423 H387 0.930 . S
C423 C418 1.390 . S
C423 C422 1.362 . S
C424 C413 1.492 . S
C424 C425 1.377 . S
C424 C429 1.397 . S
C425 H388 0.931 . S
C425 C424 1.377 . S
C425 C426 1.376 . S
C426 H389 0.930 . S
C426 C425 1.376 . S
C426 C427 1.376 . S
C427 C426 1.376 . S
C427 C428 1.378 . S
C427 C454 1.486 . S
C428 H390 0.930 . S
C428 C427 1.378 . S
C428 C429 1.376 . S
C429 H391 0.929 . S
C429 C424 1.397 . S
C429 C428 1.376 . S
C430 C414 1.509 . S
C430 C431 1.391 . S
C430 C435 1.386 . S
C431 H392 0.930 . S
C431 C430 1.391 . S
C431 C432 1.375 . S
C432 H393 0.931 . S
C432 C431 1.375 . S
C432 C433 1.375 . S
C433 C432 1.375 . S
C433 C434 1.361 . S
C434 H394 0.930 . S
C434 C433 1.361 . S
C434 C435 1.399 . S
C435 H395 0.929 . S
C435 C430 1.386 . S
C435 C434 1.399 . S
C436 C415 1.485 . S
C436 C437 1.394 . S
C436 C441 1.360 . S
C437 H396 0.931 . S
C437 C436 1.394 . S
C437 C438 1.372 . S
C438 H397 0.930 . S
C438 C437 1.372 . S
C438 C439 1.397 . S
C439 C438 1.397 . S
C439 C440 1.390 . S
C439 C455 1.476 . S
C440 H398 0.930 . S
C440 C439 1.390 . S
C440 C441 1.366 . S
C441 H399 0.932 . S
C441 C436 1.360 . S
C441 C440 1.366 . S
C442 C416 1.490 . S
C442 C443 1.380 . S
C442 C447 1.386 . S
C443 H400 0.930 . S
C443 C442 1.380 . S
C443 C444 1.381 . S
C444 H401 0.929 . S
C444 C443 1.381 . S
C444 C445 1.371 . S
C445 C444 1.371 . S
C445 C446 1.380 . S
C446 H402 0.931 . S
C446 C445 1.380 . S
C446 C447 1.387 . S
C447 H403 0.930 . S
C447 C442 1.386 . S
C447 C446 1.387 . S
C448 C417 1.519 . S
C448 C449 1.377 . S
C448 C453 1.361 . S
C449 H404 0.929 . S
C449 C448 1.377 . S
C449 C450 1.386 . S
C450 H405 0.931 . S
C450 C449 1.386 . S
C450 C451 1.363 . S
C451 C450 1.363 . S
C451 C452 1.385 . S
C452 H406 0.930 . S
C452 C451 1.385 . S
C452 C453 1.396 . S
C453 H407 0.929 . S
C453 C448 1.361 . S
C453 C452 1.396 . S
C454 O408 1.300 . S
C454 O409 1.209 . S
C454 C427 1.486 . S
C455 O410 1.199 . S
C455 O411 1.297 . S
C455 C439 1.476 . S
H456 O482 0.856 . S
H457 O485 0.854 . S
H458 C493 0.930 . S
H459 C494 0.930 . S
H460 C496 0.930 . S
H461 C497 0.930 . S
H462 C499 0.931 . S
H463 C500 0.930 . S
H464 C502 0.930 . S
H465 C503 0.929 . S
H466 C505 0.930 . S
H467 C506 0.931 . S
H468 C508 0.930 . S
H469 C509 0.929 . S
H470 C511 0.931 . S
H471 C512 0.930 . S
H472 C514 0.930 . S
H473 C515 0.932 . S
H474 C517 0.930 . S
H475 C518 0.929 . S
H476 C520 0.931 . S
H477 C521 0.930 . S
H478 C523 0.929 . S
H479 C524 0.931 . S
H480 C526 0.930 . S
H481 C527 0.929 . S
O482 H456 0.856 . S
O482 C528 1.300 1_554 S
O483 C528 1.209 1_554 S
O484 C529 1.199 . S
O485 H457 0.854 . S
O485 C529 1.297 . S
C486 C487 1.404 . S
C486 C491 1.397 . S
C486 C492 1.492 . S
C487 C486 1.404 . S
C487 C488 1.396 . S
C487 C498 1.492 . S
C488 C487 1.396 . S
C488 C489 1.397 . S
C488 C504 1.509 . S
C489 C488 1.397 . S
C489 C490 1.412 . S
C489 C510 1.485 . S
C490 C489 1.412 . S
C490 C491 1.388 . S
C490 C516 1.490 . S
C491 C486 1.397 . S
C491 C490 1.388 . S
C491 C522 1.519 . S
C492 C486 1.492 . S
C492 C493 1.363 . S
C492 C497 1.390 . S
C493 H458 0.930 . S
C493 C492 1.363 . S
C493 C494 1.372 . S
C494 H459 0.930 . S
C494 C493 1.372 . S
C494 C495 1.383 . S
C495 C494 1.383 . S
C495 C496 1.395 . S
C496 H460 0.930 . S
C496 C495 1.395 . S
C496 C497 1.362 . S
C497 H461 0.930 . S
C497 C492 1.390 . S
C497 C496 1.362 . S
C498 C487 1.492 . S
C498 C499 1.377 . S
C498 C503 1.397 . S
C499 H462 0.931 . S
C499 C498 1.377 . S
C499 C500 1.376 . S
C500 H463 0.930 . S
C500 C499 1.376 . S
C500 C501 1.376 . S
C501 C500 1.376 . S
C501 C502 1.378 . S
C501 C528 1.486 . S
C502 H464 0.930 . S
C502 C501 1.378 . S
C502 C503 1.376 . S
C503 H465 0.929 . S
C503 C498 1.397 . S
C503 C502 1.376 . S
C504 C488 1.509 . S
C504 C505 1.391 . S
C504 C509 1.386 . S
C505 H466 0.930 . S
C505 C504 1.391 . S
C505 C506 1.375 . S
C506 H467 0.931 . S
C506 C505 1.375 . S
C506 C507 1.375 . S
C507 C506 1.375 . S
C507 C508 1.361 . S
C508 H468 0.930 . S
C508 C507 1.361 . S
C508 C509 1.399 . S
C509 H469 0.929 . S
C509 C504 1.386 . S
C509 C508 1.399 . S
C510 C489 1.485 . S
C510 C511 1.394 . S
C510 C515 1.360 . S
C511 H470 0.931 . S
C511 C510 1.394 . S
C511 C512 1.372 . S
C512 H471 0.930 . S
C512 C511 1.372 . S
C512 C513 1.397 . S
C513 C512 1.397 . S
C513 C514 1.390 . S
C513 C529 1.476 . S
C514 H472 0.930 . S
C514 C513 1.390 . S
C514 C515 1.366 . S
C515 H473 0.932 . S
C515 C510 1.360 . S
C515 C514 1.366 . S
C516 C490 1.490 . S
C516 C517 1.380 . S
C516 C521 1.386 . S
C517 H474 0.930 . S
C517 C516 1.380 . S
C517 C518 1.381 . S
C518 H475 0.929 . S
C518 C517 1.381 . S
C518 C519 1.371 . S
C519 C518 1.371 . S
C519 C520 1.380 . S
C520 H476 0.931 . S
C520 C519 1.380 . S
C520 C521 1.387 . S
C521 H477 0.930 . S
C521 C516 1.386 . S
C521 C520 1.387 . S
C522 C491 1.519 . S
C522 C523 1.377 . S
C522 C527 1.361 . S
C523 H478 0.929 . S
C523 C522 1.377 . S
C523 C524 1.386 . S
C524 H479 0.931 . S
C524 C523 1.386 . S
C524 C525 1.363 . S
C525 C524 1.363 . S
C525 C526 1.385 . S
C526 H480 0.930 . S
C526 C525 1.385 . S
C526 C527 1.396 . S
C527 H481 0.929 . S
C527 C522 1.361 . S
C527 C526 1.396 . S
C528 O482 1.300 1_556 S
C528 O483 1.209 1_556 S
C528 C501 1.486 . S
C529 O484 1.199 . S
C529 O485 1.297 . S
C529 C513 1.476 . S
H530 O556 0.856 . S
H531 O559 0.854 . S
H532 C567 0.930 . S
H533 C568 0.930 . S
H534 C570 0.930 . S
H535 C571 0.930 . S
H536 C573 0.931 . S
H537 C574 0.930 . S
H538 C576 0.930 . S
H539 C577 0.929 . S
H540 C579 0.930 . S
H541 C580 0.931 . S
H542 C582 0.930 . S
H543 C583 0.929 . S
H544 C585 0.931 . S
H545 C586 0.930 . S
H546 C588 0.930 . S
H547 C589 0.932 . S
H548 C591 0.930 . S
H549 C592 0.929 . S
H550 C594 0.931 . S
H551 C595 0.930 . S
H552 C597 0.929 . S
H553 C598 0.931 . S
H554 C600 0.930 . S
H555 C601 0.929 . S
O556 H530 0.856 . S
O556 C602 1.300 . S
O557 C602 1.209 . S
O558 C603 1.199 . S
O559 H531 0.854 . S
O559 C603 1.297 . S
C560 C561 1.404 . S
C560 C565 1.397 . S
C560 C566 1.492 . S
C561 C560 1.404 . S
C561 C562 1.396 . S
C561 C572 1.492 . S
C562 C561 1.396 . S
C562 C563 1.397 . S
C562 C578 1.509 . S
C563 C562 1.397 . S
C563 C564 1.412 . S
C563 C584 1.485 . S
C564 C563 1.412 . S
C564 C565 1.388 . S
C564 C590 1.490 . S
C565 C560 1.397 . S
C565 C564 1.388 . S
C565 C596 1.519 . S
C566 C560 1.492 . S
C566 C567 1.363 . S
C566 C571 1.390 . S
C567 H532 0.930 . S
C567 C566 1.363 . S
C567 C568 1.372 . S
C568 H533 0.930 . S
C568 C567 1.372 . S
C568 C569 1.383 . S
C569 C568 1.383 . S
C569 C570 1.395 . S
C570 H534 0.930 . S
C570 C569 1.395 . S
C570 C571 1.362 . S
C571 H535 0.930 . S
C571 C566 1.390 . S
C571 C570 1.362 . S
C572 C561 1.492 . S
C572 C573 1.377 . S
C572 C577 1.397 . S
C573 H536 0.931 . S
C573 C572 1.377 . S
C573 C574 1.376 . S
C574 H537 0.930 . S
C574 C573 1.376 . S
C574 C575 1.376 . S
C575 C574 1.376 . S
C575 C576 1.378 . S
C575 C602 1.486 1_556 S
C576 H538 0.930 . S
C576 C575 1.378 . S
C576 C577 1.376 . S
C577 H539 0.929 . S
C577 C572 1.397 . S
C577 C576 1.376 . S
C578 C562 1.509 . S
C578 C579 1.391 . S
C578 C583 1.386 . S
C579 H540 0.930 . S
C579 C578 1.391 . S
C579 C580 1.375 . S
C580 H541 0.931 . S
C580 C579 1.375 . S
C580 C581 1.375 . S
C581 C580 1.375 . S
C581 C582 1.361 . S
C582 H542 0.930 . S
C582 C581 1.361 . S
C582 C583 1.399 . S
C583 H543 0.929 . S
C583 C578 1.386 . S
C583 C582 1.399 . S
C584 C563 1.485 . S
C584 C585 1.394 . S
C584 C589 1.360 . S
C585 H544 0.931 . S
C585 C584 1.394 . S
C585 C586 1.372 . S
C586 H545 0.930 . S
C586 C585 1.372 . S
C586 C587 1.397 . S
C587 C586 1.397 . S
C587 C588 1.390 . S
C587 C603 1.476 . S
C588 H546 0.930 . S
C588 C587 1.390 . S
C588 C589 1.366 . S
C589 H547 0.932 . S
C589 C584 1.360 . S
C589 C588 1.366 . S
C590 C564 1.490 . S
C590 C591 1.380 . S
C590 C595 1.386 . S
C591 H548 0.930 . S
C591 C590 1.380 . S
C591 C592 1.381 . S
C592 H549 0.929 . S
C592 C591 1.381 . S
C592 C593 1.371 . S
C593 C592 1.371 . S
C593 C594 1.380 . S
C594 H550 0.931 . S
C594 C593 1.380 . S
C594 C595 1.387 . S
C595 H551 0.930 . S
C595 C590 1.386 . S
C595 C594 1.387 . S
C596 C565 1.519 . S
C596 C597 1.377 . S
C596 C601 1.361 . S
C597 H552 0.929 . S
C597 C596 1.377 . S
C597 C598 1.386 . S
C598 H553 0.931 . S
C598 C597 1.386 . S
C598 C599 1.363 . S
C599 C598 1.363 . S
C599 C600 1.385 . S
C600 H554 0.930 . S
C600 C599 1.385 . S
C600 C601 1.396 . S
C601 H555 0.929 . S
C601 C596 1.361 . S
C601 C600 1.396 . S
C602 O556 1.300 . S
C602 O557 1.209 . S
C602 C575 1.486 1_554 S
C603 O558 1.199 . S
C603 O559 1.297 . S
C603 C587 1.476 . S
H604 O630 0.856 . S
H605 O633 0.854 . S
H606 C641 0.930 . S
H607 C642 0.930 . S
H608 C644 0.930 . S
H609 C645 0.930 . S
H610 C647 0.931 . S
H611 C648 0.966 . S
H612 C650 0.930 . S
H613 C651 0.929 . S
H614 C653 0.930 . S
H615 C654 0.931 . S
H616 C656 0.930 . S
H617 C657 0.929 . S
H618 C659 0.931 . S
H619 C660 0.930 . S
H620 C662 0.930 . S
H621 C663 0.932 . S
H622 C665 0.930 . S
H623 C666 0.929 . S
H624 C668 0.931 . S
H625 C669 0.930 . S
H626 C671 0.929 . S
H627 C672 0.931 . S
H628 C674 0.930 . S
H629 C675 0.929 . S
O630 H604 0.856 . S
O630 C676 1.300 . S
O631 C676 1.209 . S
O632 C677 1.199 . S
O633 H605 0.854 . S
O633 C677 1.297 . S
C634 C635 1.404 . S
C634 C639 1.397 . S
C634 C640 1.492 . S
C635 C634 1.404 . S
C635 C636 1.396 . S
C635 C646 1.492 . S
C636 C635 1.396 . S
C636 C637 1.397 . S
C636 C652 1.509 . S
C637 C636 1.397 . S
C637 C638 1.412 . S
C637 C658 1.485 . S
C638 C637 1.412 . S
C638 C639 1.388 . S
C638 C664 1.490 . S
C639 C634 1.397 . S
C639 C638 1.388 . S
C639 C670 1.519 . S
C640 C634 1.492 . S
C640 C641 1.363 . S
C640 C645 1.390 . S
C641 H606 0.930 . S
C641 C640 1.363 . S
C641 C642 1.372 . S
C642 H607 0.930 . S
C642 C641 1.372 . S
C642 C643 1.383 . S
C643 C642 1.383 . S
C643 C644 1.395 . S
C644 H608 0.930 . S
C644 C643 1.395 . S
C644 C645 1.362 . S
C645 H609 0.930 . S
C645 C640 1.390 . S
C645 C644 1.362 . S
C646 C635 1.492 . S
C646 C647 1.377 . S
C646 C651 1.397 . S
C647 H610 0.931 . S
C647 C646 1.377 . S
C647 C648 1.376 . S
C648 H611 0.966 . S
C648 C647 1.376 . S
C648 C649 1.376 . S
C649 C648 1.376 . S
C649 C650 1.378 . S
C649 C676 1.486 1_556 S
C650 H612 0.930 . S
C650 C649 1.378 . S
C650 C651 1.376 . S
C651 H613 0.929 . S
C651 C646 1.397 . S
C651 C650 1.376 . S
C652 C636 1.509 . S
C652 C653 1.391 . S
C652 C657 1.386 . S
C653 H614 0.930 . S
C653 C652 1.391 . S
C653 C654 1.375 . S
C654 H615 0.931 . S
C654 C653 1.375 . S
C654 C655 1.375 . S
C655 C654 1.375 . S
C655 C656 1.361 . S
C656 H616 0.930 . S
C656 C655 1.361 . S
C656 C657 1.399 . S
C657 H617 0.929 . S
C657 C652 1.386 . S
C657 C656 1.399 . S
C658 C637 1.485 . S
C658 C659 1.394 . S
C658 C663 1.360 . S
C659 H618 0.931 . S
C659 C658 1.394 . S
C659 C660 1.372 . S
C660 H619 0.930 . S
C660 C659 1.372 . S
C660 C661 1.397 . S
C661 C660 1.397 . S
C661 C662 1.390 . S
C661 C677 1.476 . S
C662 H620 0.930 . S
C662 C661 1.390 . S
C662 C663 1.366 . S
C663 H621 0.932 . S
C663 C658 1.360 . S
C663 C662 1.366 . S
C664 C638 1.490 . S
C664 C665 1.380 . S
C664 C669 1.386 . S
C665 H622 0.930 . S
C665 C664 1.380 . S
C665 C666 1.381 . S
C666 H623 0.929 . S
C666 C665 1.381 . S
C666 C667 1.371 . S
C667 C666 1.371 . S
C667 C668 1.380 . S
C668 H624 0.931 . S
C668 C667 1.380 . S
C668 C669 1.387 . S
C669 H625 0.930 . S
C669 C664 1.386 . S
C669 C668 1.387 . S
C670 C639 1.519 . S
C670 C671 1.377 . S
C670 C675 1.361 . S
C671 H626 0.929 . S
C671 C670 1.377 . S
C671 C672 1.386 . S
C672 H627 0.931 . S
C672 C671 1.386 . S
C672 C673 1.363 . S
C673 C672 1.363 . S
C673 C674 1.385 . S
C674 H628 0.930 . S
C674 C673 1.385 . S
C674 C675 1.396 . S
C675 H629 0.929 . S
C675 C670 1.361 . S
C675 C674 1.396 . S
C676 O630 1.300 . S
C676 O631 1.209 . S
C676 C649 1.486 1_554 S
C677 O632 1.199 . S
C677 O633 1.297 . S
C677 C661 1.476 . S
H678 O704 0.856 . S
H679 O707 0.854 . S
H680 C715 0.930 . S
H681 C716 0.930 . S
H682 C718 0.930 . S
H683 C719 0.930 . S
H684 C721 0.931 . S
H685 C722 0.930 . S
H686 C724 0.930 . S
H687 C725 0.929 . S
H688 C727 0.930 . S
H689 C728 0.931 . S
H690 C730 0.930 . S
H691 C731 0.929 . S
H692 C733 0.931 . S
H693 C734 0.930 . S
H694 C736 0.930 . S
H695 C737 0.932 . S
H696 C739 0.930 . S
H697 C740 0.929 . S
H698 C742 0.931 . S
H699 C743 0.930 . S
H700 C745 0.929 . S
H701 C746 0.931 . S
H702 C748 0.930 . S
H703 C749 0.929 . S
O704 H678 0.856 . S
O704 C750 1.300 . S
O705 C750 1.209 . S
O706 C751 1.199 . S
O707 H679 0.854 . S
O707 C751 1.297 . S
C708 C709 1.404 . S
C708 C713 1.397 . S
C708 C714 1.492 . S
C709 C708 1.404 . S
C709 C710 1.396 . S
C709 C720 1.492 . S
C710 C709 1.396 . S
C710 C711 1.397 . S
C710 C726 1.509 . S
C711 C710 1.397 . S
C711 C712 1.412 . S
C711 C732 1.485 . S
C712 C711 1.412 . S
C712 C713 1.388 . S
C712 C738 1.490 . S
C713 C708 1.397 . S
C713 C712 1.388 . S
C713 C744 1.519 . S
C714 C708 1.492 . S
C714 C715 1.363 . S
C714 C719 1.390 . S
C715 H680 0.930 . S
C715 C714 1.363 . S
C715 C716 1.372 . S
C716 H681 0.930 . S
C716 C715 1.372 . S
C716 C717 1.383 . S
C717 C716 1.383 . S
C717 C718 1.395 . S
C718 H682 0.930 . S
C718 C717 1.395 . S
C718 C719 1.362 . S
C719 H683 0.930 . S
C719 C714 1.390 . S
C719 C718 1.362 . S
C720 C709 1.492 . S
C720 C721 1.377 . S
C720 C725 1.397 . S
C721 H684 0.931 . S
C721 C720 1.377 . S
C721 C722 1.376 . S
C722 H685 0.930 . S
C722 C721 1.376 . S
C722 C723 1.376 . S
C723 C722 1.376 . S
C723 C724 1.378 . S
C723 C750 1.486 . S
C724 H686 0.930 . S
C724 C723 1.378 . S
C724 C725 1.376 . S
C725 H687 0.929 . S
C725 C720 1.397 . S
C725 C724 1.376 . S
C726 C710 1.509 . S
C726 C727 1.391 . S
C726 C731 1.386 . S
C727 H688 0.930 . S
C727 C726 1.391 . S
C727 C728 1.375 . S
C728 H689 0.931 . S
C728 C727 1.375 . S
C728 C729 1.375 . S
C729 C728 1.375 . S
C729 C730 1.361 . S
C730 H690 0.930 . S
C730 C729 1.361 . S
C730 C731 1.399 . S
C731 H691 0.929 . S
C731 C726 1.386 . S
C731 C730 1.399 . S
C732 C711 1.485 . S
C732 C733 1.394 . S
C732 C737 1.360 . S
C733 H692 0.931 . S
C733 C732 1.394 . S
C733 C734 1.372 . S
C734 H693 0.930 . S
C734 C733 1.372 . S
C734 C735 1.397 . S
C735 C734 1.397 . S
C735 C736 1.390 . S
C735 C751 1.476 . S
C736 H694 0.930 . S
C736 C735 1.390 . S
C736 C737 1.366 . S
C737 H695 0.932 . S
C737 C732 1.360 . S
C737 C736 1.366 . S
C738 C712 1.490 . S
C738 C739 1.380 . S
C738 C743 1.386 . S
C739 H696 0.930 . S
C739 C738 1.380 . S
C739 C740 1.381 . S
C740 H697 0.929 . S
C740 C739 1.381 . S
C740 C741 1.371 . S
C741 C740 1.371 . S
C741 C742 1.380 . S
C742 H698 0.931 . S
C742 C741 1.380 . S
C742 C743 1.387 . S
C743 H699 0.930 . S
C743 C738 1.386 . S
C743 C742 1.387 . S
C744 C713 1.519 . S
C744 C745 1.377 . S
C744 C749 1.361 . S
C745 H700 0.929 . S
C745 C744 1.377 . S
C745 C746 1.386 . S
C746 H701 0.931 . S
C746 C745 1.386 . S
C746 C747 1.363 . S
C747 C746 1.363 . S
C747 C748 1.385 . S
C748 H702 0.930 . S
C748 C747 1.385 . S
C748 C749 1.396 . S
C749 H703 0.929 . S
C749 C744 1.361 . S
C749 C748 1.396 . S
C750 O704 1.300 . S
C750 O705 1.209 . S
C750 C723 1.486 . S
C751 O706 1.199 . S
C751 O707 1.297 . S
C751 C735 1.476 . S
H752 O778 0.856 . S
H753 O781 0.854 . S
H754 C789 0.930 . S
H755 C790 0.930 . S
H756 C792 0.930 . S
H757 C793 0.930 . S
H758 C795 0.931 . S
H759 C796 0.930 . S
H760 C798 0.930 . S
H761 C799 0.929 . S
H762 C801 0.930 . S
H763 C802 0.931 . S
H764 C804 0.930 . S
H765 C805 0.929 . S
H766 C807 0.931 . S
H767 C808 0.930 . S
H768 C810 0.930 . S
H769 C811 0.932 . S
H770 C813 0.930 . S
H771 C814 0.929 . S
H772 C816 0.931 . S
H773 C817 0.930 . S
H774 C819 0.929 . S
H775 C820 0.931 . S
H776 C822 0.930 . S
H777 C823 0.929 . S
O778 H752 0.856 . S
O778 C824 1.300 . S
O779 C824 1.209 . S
O780 C825 1.199 . S
O781 H753 0.854 . S
O781 C825 1.297 . S
C782 C783 1.404 . S
C782 C787 1.397 . S
C782 C788 1.492 . S
C783 C782 1.404 . S
C783 C784 1.396 . S
C783 C794 1.492 . S
C784 C783 1.396 . S
C784 C785 1.397 . S
C784 C800 1.509 . S
C785 C784 1.397 . S
C785 C786 1.412 . S
C785 C806 1.485 . S
C786 C785 1.412 . S
C786 C787 1.388 . S
C786 C812 1.490 . S
C787 C782 1.397 . S
C787 C786 1.388 . S
C787 C818 1.519 . S
C788 C782 1.492 . S
C788 C789 1.363 . S
C788 C793 1.390 . S
C789 H754 0.930 . S
C789 C788 1.363 . S
C789 C790 1.372 . S
C790 H755 0.930 . S
C790 C789 1.372 . S
C790 C791 1.383 . S
C791 C790 1.383 . S
C791 C792 1.395 . S
C792 H756 0.930 . S
C792 C791 1.395 . S
C792 C793 1.362 . S
C793 H757 0.930 . S
C793 C788 1.390 . S
C793 C792 1.362 . S
C794 C783 1.492 . S
C794 C795 1.377 . S
C794 C799 1.397 . S
C795 H758 0.931 . S
C795 C794 1.377 . S
C795 C796 1.376 . S
C796 H759 0.930 . S
C796 C795 1.376 . S
C796 C797 1.376 . S
C797 C796 1.376 . S
C797 C798 1.378 . S
C797 C824 1.486 . S
C798 H760 0.930 . S
C798 C797 1.378 . S
C798 C799 1.376 . S
C799 H761 0.929 . S
C799 C794 1.397 . S
C799 C798 1.376 . S
C800 C784 1.509 . S
C800 C801 1.391 . S
C800 C805 1.386 . S
C801 H762 0.930 . S
C801 C800 1.391 . S
C801 C802 1.375 . S
C802 H763 0.931 . S
C802 C801 1.375 . S
C802 C803 1.375 . S
C803 C802 1.375 . S
C803 C804 1.361 . S
C804 H764 0.930 . S
C804 C803 1.361 . S
C804 C805 1.399 . S
C805 H765 0.929 . S
C805 C800 1.386 . S
C805 C804 1.399 . S
C806 C785 1.485 . S
C806 C807 1.394 . S
C806 C811 1.360 . S
C807 H766 0.931 . S
C807 C806 1.394 . S
C807 C808 1.372 . S
C808 H767 0.930 . S
C808 C807 1.372 . S
C808 C809 1.397 . S
C809 C808 1.397 . S
C809 C810 1.390 . S
C809 C825 1.476 . S
C810 H768 0.930 . S
C810 C809 1.390 . S
C810 C811 1.366 . S
C811 H769 0.932 . S
C811 C806 1.360 . S
C811 C810 1.366 . S
C812 C786 1.490 . S
C812 C813 1.380 . S
C812 C817 1.386 . S
C813 H770 0.930 . S
C813 C812 1.380 . S
C813 C814 1.381 . S
C814 H771 0.929 . S
C814 C813 1.381 . S
C814 C815 1.371 . S
C815 C814 1.371 . S
C815 C816 1.380 . S
C816 H772 0.931 . S
C816 C815 1.380 . S
C816 C817 1.387 . S
C817 H773 0.930 . S
C817 C812 1.386 . S
C817 C816 1.387 . S
C818 C787 1.519 . S
C818 C819 1.377 . S
C818 C823 1.361 . S
C819 H774 0.929 . S
C819 C818 1.377 . S
C819 C820 1.386 . S
C820 H775 0.931 . S
C820 C819 1.386 . S
C820 C821 1.363 . S
C821 C820 1.363 . S
C821 C822 1.385 . S
C822 H776 0.930 . S
C822 C821 1.385 . S
C822 C823 1.396 . S
C823 H777 0.929 . S
C823 C818 1.361 . S
C823 C822 1.396 . S
C824 O778 1.300 . S
C824 O779 1.209 . S
C824 C797 1.486 . S
C825 O780 1.199 . S
C825 O781 1.297 . S
C825 C809 1.476 . S
H826 O852 0.856 . S
H827 O855 0.854 . S
H828 C863 0.930 . S
H829 C864 0.930 . S
H830 C866 0.930 . S
H831 C867 0.930 . S
H832 C869 0.931 . S
H833 C870 0.930 . S
H834 C872 0.930 . S
H835 C873 0.929 . S
H836 C875 0.930 . S
H837 C876 0.931 . S
H838 C878 0.930 . S
H839 C879 0.929 . S
H840 C881 0.931 . S
H841 C882 0.930 . S
H842 C884 0.930 . S
H843 C885 0.932 . S
H844 C887 0.930 . S
H845 C888 0.929 . S
H846 C890 0.931 . S
H847 C891 0.930 . S
H848 C893 0.929 . S
H849 C894 0.931 . S
H850 C896 0.930 . S
H851 C897 0.929 . S
O852 H826 0.856 . S
O852 C898 1.300 . S
O853 C898 1.209 . S
O854 C899 1.199 . S
O855 H827 0.854 . S
O855 C899 1.297 . S
C856 C857 1.404 . S
C856 C861 1.397 . S
C856 C862 1.492 . S
C857 C856 1.404 . S
C857 C858 1.396 . S
C857 C868 1.492 . S
C858 C857 1.396 . S
C858 C859 1.397 . S
C858 C874 1.509 . S
C859 C858 1.397 . S
C859 C860 1.412 . S
C859 C880 1.485 . S
C860 C859 1.412 . S
C860 C861 1.388 . S
C860 C886 1.490 . S
C861 C856 1.397 . S
C861 C860 1.388 . S
C861 C892 1.519 . S
C862 C856 1.492 . S
C862 C863 1.363 . S
C862 C867 1.390 . S
C863 H828 0.930 . S
C863 C862 1.363 . S
C863 C864 1.372 . S
C864 H829 0.930 . S
C864 C863 1.372 . S
C864 C865 1.383 . S
C865 C864 1.383 . S
C865 C866 1.395 . S
C866 H830 0.930 . S
C866 C865 1.395 . S
C866 C867 1.362 . S
C867 H831 0.930 . S
C867 C862 1.390 . S
C867 C866 1.362 . S
C868 C857 1.492 . S
C868 C869 1.377 . S
C868 C873 1.397 . S
C869 H832 0.931 . S
C869 C868 1.377 . S
C869 C870 1.376 . S
C870 H833 0.930 . S
C870 C869 1.376 . S
C870 C871 1.376 . S
C871 C870 1.376 . S
C871 C872 1.378 . S
C871 C898 1.486 . S
C872 H834 0.930 . S
C872 C871 1.378 . S
C872 C873 1.376 . S
C873 H835 0.929 . S
C873 C868 1.397 . S
C873 C872 1.376 . S
C874 C858 1.509 . S
C874 C875 1.391 . S
C874 C879 1.386 . S
C875 H836 0.930 . S
C875 C874 1.391 . S
C875 C876 1.375 . S
C876 H837 0.931 . S
C876 C875 1.375 . S
C876 C877 1.375 . S
C877 C876 1.375 . S
C877 C878 1.361 . S
C878 H838 0.930 . S
C878 C877 1.361 . S
C878 C879 1.399 . S
C879 H839 0.929 . S
C879 C874 1.386 . S
C879 C878 1.399 . S
C880 C859 1.485 . S
C880 C881 1.394 . S
C880 C885 1.360 . S
C881 H840 0.931 . S
C881 C880 1.394 . S
C881 C882 1.372 . S
C882 H841 0.930 . S
C882 C881 1.372 . S
C882 C883 1.397 . S
C883 C882 1.397 . S
C883 C884 1.390 . S
C883 C899 1.476 . S
C884 H842 0.930 . S
C884 C883 1.390 . S
C884 C885 1.366 . S
C885 H843 0.932 . S
C885 C880 1.360 . S
C885 C884 1.366 . S
C886 C860 1.490 . S
C886 C887 1.380 . S
C886 C891 1.386 . S
C887 H844 0.930 . S
C887 C886 1.380 . S
C887 C888 1.381 . S
C888 H845 0.929 . S
C888 C887 1.381 . S
C888 C889 1.371 . S
C889 C888 1.371 . S
C889 C890 1.380 . S
C890 H846 0.931 . S
C890 C889 1.380 . S
C890 C891 1.387 . S
C891 H847 0.930 . S
C891 C886 1.386 . S
C891 C890 1.387 . S
C892 C861 1.519 . S
C892 C893 1.377 . S
C892 C897 1.361 . S
C893 H848 0.929 . S
C893 C892 1.377 . S
C893 C894 1.386 . S
C894 H849 0.931 . S
C894 C893 1.386 . S
C894 C895 1.363 . S
C895 C894 1.363 . S
C895 C896 1.385 . S
C896 H850 0.930 . S
C896 C895 1.385 . S
C896 C897 1.396 . S
C897 H851 0.929 . S
C897 C892 1.361 . S
C897 C896 1.396 . S
C898 O852 1.300 . S
C898 O853 1.209 . S
C898 C871 1.486 . S
C899 O854 1.199 . S
C899 O855 1.297 . S
C899 C883 1.476 . S
H900 O926 0.856 . S
H901 O929 0.854 . S
H902 C937 0.930 . S
H903 C938 0.930 . S
H904 C940 0.930 . S
H905 C941 0.930 . S
H906 C943 0.931 . S
H907 C944 0.930 1_655 S
H908 C946 0.930 . S
H909 C947 0.929 . S
H910 C949 0.930 . S
H911 C950 0.911 1_655 S
H912 C952 0.930 . S
H913 C953 0.929 . S
H914 C955 0.931 . S
H915 C956 0.930 . S
H916 C958 0.930 . S
H917 C959 0.932 . S
H918 C961 0.930 . S
H919 C962 0.929 . S
H920 C964 0.931 . S
H921 C965 0.930 . S
H922 C967 0.929 . S
H923 C968 0.931 . S
H924 C970 0.930 . S
H925 C971 0.929 . S
O926 H900 0.856 . S
O926 C972 1.300 . S
O927 C972 1.209 . S
O928 C973 1.199 1_655 S
O929 H901 0.854 . S
O929 C973 1.297 . S
C930 C931 1.404 . S
C930 C935 1.394 . S
C930 C936 1.492 . S
C931 C930 1.404 . S
C931 C932 1.396 . S
C931 C942 1.492 . S
C932 C931 1.396 . S
C932 C933 1.397 . S
C932 C948 1.509 . S
C933 C932 1.397 . S
C933 C934 1.420 . S
C933 C954 1.485 . S
C934 C933 1.420 . S
C934 C935 1.407 . S
C934 C960 1.490 1_455 S
C935 C930 1.394 . S
C935 C934 1.407 . S
C935 C966 1.488 1_455 S
C936 C930 1.492 . S
C936 C937 1.363 1_455 S
C936 C941 1.390 . S
C937 H902 0.930 . S
C937 C936 1.363 1_655 S
C937 C938 1.372 . S
C938 H903 0.930 . S
C938 C937 1.372 . S
C938 C939 1.383 . S
C939 C938 1.383 . S
C939 C940 1.395 1_655 S
C940 H904 0.930 . S
C940 C939 1.395 1_455 S
C940 C941 1.362 . S
C941 H905 0.930 . S
C941 C936 1.390 . S
C941 C940 1.362 . S
C942 C931 1.492 . S
C942 C943 1.377 1_455 S
C942 C947 1.397 . S
C943 H906 0.931 . S
C943 C942 1.377 1_655 S
C943 C944 1.376 1_655 S
C944 H907 0.930 1_455 S
C944 C943 1.376 1_455 S
C944 C945 1.376 . S
C945 C944 1.376 . S
C945 C946 1.378 . S
C945 C972 1.486 . S
C946 H908 0.930 . S
C946 C945 1.378 . S
C946 C947 1.376 . S
C947 H909 0.929 . S
C947 C942 1.397 . S
C947 C946 1.376 . S
C948 C932 1.509 . S
C948 C949 1.391 1_455 S
C948 C953 1.386 . S
C949 H910 0.930 . S
C949 C948 1.391 1_655 S
C949 C950 1.347 1_655 S
C950 H911 0.911 1_455 S
C950 C949 1.347 1_455 S
C950 C951 1.425 . S
C951 C950 1.425 . S
C951 C952 1.361 . S
C952 H912 0.930 . S
C952 C951 1.361 . S
C952 C953 1.399 . S
C953 H913 0.929 . S
C953 C948 1.386 . S
C953 C952 1.399 . S
C954 C933 1.485 . S
C954 C955 1.394 1_455 S
C954 C959 1.360 . S
C955 H914 0.931 . S
C955 C954 1.394 1_655 S
C955 C956 1.372 . S
C956 H915 0.930 . S
C956 C955 1.372 . S
C956 C957 1.397 1_655 S
C957 C956 1.397 1_455 S
C957 C958 1.390 . S
C957 C973 1.476 . S
C958 H916 0.930 . S
C958 C957 1.390 . S
C958 C959 1.366 . S
C959 H917 0.932 . S
C959 C954 1.360 . S
C959 C958 1.366 . S
C960 C934 1.490 1_655 S
C960 C961 1.380 . S
C960 C965 1.386 1_655 S
C961 H918 0.930 . S
C961 C960 1.380 . S
C961 C962 1.381 . S
C962 H919 0.929 . S
C962 C961 1.381 . S
C962 C963 1.371 . S
C963 C962 1.371 . S
C963 C964 1.380 1_655 S
C964 H920 0.931 . S
C964 C963 1.380 1_455 S
C964 C965 1.387 . S
C965 H921 0.930 . S
C965 C960 1.386 1_455 S
C965 C964 1.387 . S
C966 C935 1.488 1_655 S
C966 C967 1.412 . S
C966 C971 1.338 1_655 S
C967 H922 0.929 . S
C967 C966 1.412 . S
C967 C968 1.386 . S
C968 H923 0.931 . S
C968 C967 1.386 . S
C968 C969 1.384 . S
C969 C968 1.384 . S
C969 C970 1.354 1_655 S
C970 H924 0.930 . S
C970 C969 1.354 1_455 S
C970 C971 1.396 . S
C971 H925 0.929 . S
C971 C966 1.338 1_455 S
C971 C970 1.396 . S
C972 O926 1.300 . S
C972 O927 1.209 . S
C972 C945 1.486 . S
C973 O928 1.199 1_455 S
C973 O929 1.297 . S
C973 C957 1.476 . S
H974 O1000 0.856 . S
H975 O1003 0.854 . S
H976 C1011 0.930 . S
H977 C1012 0.930 . S
H978 C1014 0.930 . S
H979 C1015 0.930 . S
H980 C1017 0.931 . S
H981 C1018 0.930 . S
H982 C1020 0.930 . S
H983 C1021 0.929 . S
H984 C1023 0.930 . S
H985 C1024 0.931 . S
H986 C1026 0.930 . S
H987 C1027 0.929 . S
H988 C1029 0.931 . S
H989 C1030 0.930 . S
H990 C1032 0.930 . S
H991 C1033 0.932 . S
H992 C1035 0.930 . S
H993 C1036 0.929 . S
H994 C1038 0.931 . S
H995 C1039 0.930 . S
H996 C1041 0.929 . S
H997 C1042 0.931 . S
H998 C1044 0.930 . S
H999 C1045 0.929 . S
O1000 H974 0.856 . S
O1000 C1046 1.300 . S
O1001 C1046 1.209 . S
O1002 C1047 1.199 . S
O1003 H975 0.854 . S
O1003 C1047 1.297 . S
C1004 C1005 1.404 . S
C1004 C1009 1.397 . S
C1004 C1010 1.492 . S
C1005 C1004 1.404 . S
C1005 C1006 1.396 . S
C1005 C1016 1.492 . S
C1006 C1005 1.396 . S
C1006 C1007 1.397 . S
C1006 C1022 1.509 . S
C1007 C1006 1.397 . S
C1007 C1008 1.412 . S
C1007 C1028 1.485 . S
C1008 C1007 1.412 . S
C1008 C1009 1.388 . S
C1008 C1034 1.490 . S
C1009 C1004 1.397 . S
C1009 C1008 1.388 . S
C1009 C1040 1.519 . S
C1010 C1004 1.492 . S
C1010 C1011 1.363 . S
C1010 C1015 1.390 . S
C1011 H976 0.930 . S
C1011 C1010 1.363 . S
C1011 C1012 1.372 . S
C1012 H977 0.930 . S
C1012 C1011 1.372 . S
C1012 C1013 1.383 . S
C1013 C1012 1.383 . S
C1013 C1014 1.395 . S
C1014 H978 0.930 . S
C1014 C1013 1.395 . S
C1014 C1015 1.362 . S
C1015 H979 0.930 . S
C1015 C1010 1.390 . S
C1015 C1014 1.362 . S
C1016 C1005 1.492 . S
C1016 C1017 1.377 . S
C1016 C1021 1.397 . S
C1017 H980 0.931 . S
C1017 C1016 1.377 . S
C1017 C1018 1.376 . S
C1018 H981 0.930 . S
C1018 C1017 1.376 . S
C1018 C1019 1.376 . S
C1019 C1018 1.376 . S
C1019 C1020 1.378 . S
C1019 C1046 1.486 . S
C1020 H982 0.930 . S
C1020 C1019 1.378 . S
C1020 C1021 1.376 . S
C1021 H983 0.929 . S
C1021 C1016 1.397 . S
C1021 C1020 1.376 . S
C1022 C1006 1.509 . S
C1022 C1023 1.391 . S
C1022 C1027 1.386 . S
C1023 H984 0.930 . S
C1023 C1022 1.391 . S
C1023 C1024 1.375 . S
C1024 H985 0.931 . S
C1024 C1023 1.375 . S
C1024 C1025 1.375 . S
C1025 C1024 1.375 . S
C1025 C1026 1.361 . S
C1026 H986 0.930 . S
C1026 C1025 1.361 . S
C1026 C1027 1.399 . S
C1027 H987 0.929 . S
C1027 C1022 1.386 . S
C1027 C1026 1.399 . S
C1028 C1007 1.485 . S
C1028 C1029 1.394 . S
C1028 C1033 1.360 . S
C1029 H988 0.931 . S
C1029 C1028 1.394 . S
C1029 C1030 1.372 . S
C1030 H989 0.930 . S
C1030 C1029 1.372 . S
C1030 C1031 1.397 . S
C1031 C1030 1.397 . S
C1031 C1032 1.390 . S
C1031 C1047 1.476 . S
C1032 H990 0.930 . S
C1032 C1031 1.390 . S
C1032 C1033 1.366 . S
C1033 H991 0.932 . S
C1033 C1028 1.360 . S
C1033 C1032 1.366 . S
C1034 C1008 1.490 . S
C1034 C1035 1.380 . S
C1034 C1039 1.386 . S
C1035 H992 0.930 . S
C1035 C1034 1.380 . S
C1035 C1036 1.381 . S
C1036 H993 0.929 . S
C1036 C1035 1.381 . S
C1036 C1037 1.371 . S
C1037 C1036 1.371 . S
C1037 C1038 1.380 . S
C1038 H994 0.931 . S
C1038 C1037 1.380 . S
C1038 C1039 1.387 . S
C1039 H995 0.930 . S
C1039 C1034 1.386 . S
C1039 C1038 1.387 . S
C1040 C1009 1.519 . S
C1040 C1041 1.377 . S
C1040 C1045 1.361 . S
C1041 H996 0.929 . S
C1041 C1040 1.377 . S
C1041 C1042 1.386 . S
C1042 H997 0.931 . S
C1042 C1041 1.386 . S
C1042 C1043 1.363 . S
C1043 C1042 1.363 . S
C1043 C1044 1.385 . S
C1044 H998 0.930 . S
C1044 C1043 1.385 . S
C1044 C1045 1.396 . S
C1045 H999 0.929 . S
C1045 C1040 1.361 . S
C1045 C1044 1.396 . S
C1046 O1000 1.300 . S
C1046 O1001 1.209 . S
C1046 C1019 1.486 . S
C1047 O1002 1.199 . S
C1047 O1003 1.297 . S
C1047 C1031 1.476 . S
H1048 O1074 0.856 . S
H1049 O1077 0.854 . S
H1050 C1085 0.930 . S
H1051 C1086 0.930 . S
H1052 C1088 0.930 . S
H1053 C1089 0.930 . S
H1054 C1091 0.931 . S
H1055 C1092 0.964 . S
H1056 C1094 0.930 . S
H1057 C1095 0.929 . S
H1058 C1097 0.930 . S
H1059 C1098 0.931 . S
H1060 C1100 0.930 . S
H1061 C1101 0.929 . S
H1062 C1103 0.931 . S
H1063 C1104 0.930 . S
H1064 C1106 0.930 . S
H1065 C1107 0.932 . S
H1066 C1109 0.930 . S
H1067 C1110 0.929 . S
H1068 C1112 0.931 . S
H1069 C1113 0.930 . S
H1070 C1115 0.929 . S
H1071 C1116 0.931 . S
H1072 C1118 0.930 . S
H1073 C1119 0.929 . S
O1074 H1048 0.856 . S
O1074 C1120 1.300 . S
O1075 C1120 1.209 . S
O1076 C1121 1.199 1_545 S
O1077 H1049 0.854 . S
O1077 C1121 1.297 . S
C1078 C1079 1.404 . S
C1078 C1083 1.413 . S
C1078 C1084 1.492 . S
C1079 C1078 1.404 . S
C1079 C1080 1.396 . S
C1079 C1090 1.492 . S
C1080 C1079 1.396 . S
C1080 C1081 1.397 . S
C1080 C1096 1.509 . S
C1081 C1080 1.397 . S
C1081 C1082 1.411 . S
C1081 C1102 1.485 . S
C1082 C1081 1.411 . S
C1082 C1083 1.368 . S
C1082 C1108 1.487 1_565 S
C1083 C1078 1.413 . S
C1083 C1082 1.368 . S
C1083 C1114 1.532 1_565 S
C1084 C1078 1.492 . S
C1084 C1085 1.363 1_565 S
C1084 C1089 1.390 . S
C1085 H1050 0.930 . S
C1085 C1084 1.363 1_545 S
C1085 C1086 1.372 . S
C1086 H1051 0.930 . S
C1086 C1085 1.372 . S
C1086 C1087 1.383 . S
C1087 C1086 1.383 . S
C1087 C1088 1.395 1_545 S
C1088 H1052 0.930 . S
C1088 C1087 1.395 1_565 S
C1088 C1089 1.362 . S
C1089 H1053 0.930 . S
C1089 C1084 1.390 . S
C1089 C1088 1.362 . S
C1090 C1079 1.492 . S
C1090 C1091 1.377 1_565 S
C1090 C1095 1.397 . S
C1091 H1054 0.931 . S
C1091 C1090 1.377 1_545 S
C1091 C1092 1.393 . S
C1092 H1055 0.964 . S
C1092 C1091 1.393 . S
C1092 C1093 1.326 1_545 S
C1093 C1092 1.326 1_565 S
C1093 C1094 1.378 . S
C1093 C1120 1.486 . S
C1094 H1056 0.930 . S
C1094 C1093 1.378 . S
C1094 C1095 1.376 . S
C1095 H1057 0.929 . S
C1095 C1090 1.397 . S
C1095 C1094 1.376 . S
C1096 C1080 1.509 . S
C1096 C1097 1.391 1_565 S
C1096 C1101 1.386 . S
C1097 H1058 0.930 . S
C1097 C1096 1.391 1_545 S
C1097 C1098 1.375 . S
C1098 H1059 0.931 . S
C1098 C1097 1.375 . S
C1098 C1099 1.375 1_545 S
C1099 C1098 1.375 1_565 S
C1099 C1100 1.361 . S
C1100 H1060 0.930 . S
C1100 C1099 1.361 . S
C1100 C1101 1.399 . S
C1101 H1061 0.929 . S
C1101 C1096 1.386 . S
C1101 C1100 1.399 . S
C1102 C1081 1.485 . S
C1102 C1103 1.394 1_565 S
C1102 C1107 1.360 . S
C1103 H1062 0.931 . S
C1103 C1102 1.394 1_545 S
C1103 C1104 1.372 . S
C1104 H1063 0.930 . S
C1104 C1103 1.372 . S
C1104 C1105 1.397 1_545 S
C1105 C1104 1.397 1_565 S
C1105 C1106 1.390 . S
C1105 C1121 1.476 . S
C1106 H1064 0.930 . S
C1106 C1105 1.390 . S
C1106 C1107 1.366 . S
C1107 H1065 0.932 . S
C1107 C1102 1.360 . S
C1107 C1106 1.366 . S
C1108 C1082 1.487 1_545 S
C1108 C1109 1.380 . S
C1108 C1113 1.386 1_545 S
C1109 H1066 0.930 . S
C1109 C1108 1.380 . S
C1109 C1110 1.381 . S
C1110 H1067 0.929 . S
C1110 C1109 1.381 . S
C1110 C1111 1.371 . S
C1111 C1110 1.371 . S
C1111 C1112 1.380 1_545 S
C1112 H1068 0.931 . S
C1112 C1111 1.380 1_565 S
C1112 C1113 1.387 . S
C1113 H1069 0.930 . S
C1113 C1108 1.386 1_565 S
C1113 C1112 1.387 . S
C1114 C1083 1.532 1_545 S
C1114 C1115 1.376 . S
C1114 C1119 1.363 1_545 S
C1115 H1070 0.929 . S
C1115 C1114 1.376 . S
C1115 C1116 1.386 . S
C1116 H1071 0.931 . S
C1116 C1115 1.386 . S
C1116 C1117 1.363 1_545 S
C1117 C1116 1.363 1_565 S
C1117 C1118 1.385 . S
C1118 H1072 0.930 . S
C1118 C1117 1.385 . S
C1118 C1119 1.396 . S
C1119 H1073 0.929 . S
C1119 C1114 1.363 1_565 S
C1119 C1118 1.396 . S
C1120 O1074 1.300 . S
C1120 O1075 1.209 . S
C1120 C1093 1.486 . S
C1121 O1076 1.199 1_565 S
C1121 O1077 1.297 . S
C1121 C1105 1.476 . S
H1122 O1148 0.856 . S
H1123 O1151 0.854 . S
H1124 C1159 0.930 . S
H1125 C1160 0.930 . S
H1126 C1162 0.930 . S
H1127 C1163 0.930 . S
H1128 C1165 0.931 . S
H1129 C1166 0.930 . S
H1130 C1168 0.930 . S
H1131 C1169 0.929 . S
H1132 C1171 0.930 . S
H1133 C1172 0.931 . S
H1134 C1174 0.930 . S
H1135 C1175 0.929 . S
H1136 C1177 0.931 . S
H1137 C1178 0.930 . S
H1138 C1180 0.930 . S
H1139 C1181 0.932 . S
H1140 C1183 0.930 . S
H1141 C1184 0.929 . S
H1142 C1186 0.931 . S
H1143 C1187 0.930 . S
H1144 C1189 0.929 . S
H1145 C1190 0.931 . S
H1146 C1192 0.930 . S
H1147 C1193 0.929 . S
O1148 H1122 0.856 . S
O1148 C1194 1.300 . S
O1149 C1194 1.209 1_565 S
O1150 C1195 1.199 1_545 S
O1151 H1123 0.854 . S
O1151 C1195 1.297 . S
C1152 C1153 1.404 . S
C1152 C1157 1.397 1_545 S
C1152 C1158 1.492 . S
C1153 C1152 1.404 . S
C1153 C1154 1.396 . S
C1153 C1164 1.492 . S
C1154 C1153 1.396 . S
C1154 C1155 1.395 1_545 S
C1154 C1170 1.509 . S
C1155 C1154 1.395 1_565 S
C1155 C1156 1.420 . S
C1155 C1176 1.490 . S
C1156 C1155 1.420 . S
C1156 C1157 1.371 . S
C1156 C1182 1.488 . S
C1157 C1152 1.397 1_565 S
C1157 C1156 1.371 . S
C1157 C1188 1.519 . S
C1158 C1152 1.492 . S
C1158 C1159 1.363 . S
C1158 C1163 1.390 1_545 S
C1159 H1124 0.930 . S
C1159 C1158 1.363 . S
C1159 C1160 1.372 . S
C1160 H1125 0.930 . S
C1160 C1159 1.372 . S
C1160 C1161 1.383 . S
C1161 C1160 1.383 . S
C1161 C1162 1.395 1_545 S
C1162 H1126 0.930 . S
C1162 C1161 1.395 1_565 S
C1162 C1163 1.362 . S
C1163 H1127 0.930 . S
C1163 C1158 1.390 1_565 S
C1163 C1162 1.362 . S
C1164 C1153 1.492 . S
C1164 C1165 1.377 . S
C1164 C1169 1.397 1_545 S
C1165 H1128 0.931 . S
C1165 C1164 1.377 . S
C1165 C1166 1.376 . S
C1166 H1129 0.930 . S
C1166 C1165 1.376 . S
C1166 C1167 1.376 . S
C1167 C1166 1.376 . S
C1167 C1168 1.378 1_545 S
C1167 C1194 1.486 . S
C1168 H1130 0.930 . S
C1168 C1167 1.378 1_565 S
C1168 C1169 1.376 . S
C1169 H1131 0.929 . S
C1169 C1164 1.397 1_565 S
C1169 C1168 1.376 . S
C1170 C1154 1.509 . S
C1170 C1171 1.391 . S
C1170 C1175 1.386 1_545 S
C1171 H1132 0.930 . S
C1171 C1170 1.391 . S
C1171 C1172 1.375 . S
C1172 H1133 0.931 . S
C1172 C1171 1.375 . S
C1172 C1173 1.375 . S
C1173 C1172 1.375 . S
C1173 C1174 1.361 1_545 S
C1174 H1134 0.930 . S
C1174 C1173 1.361 1_565 S
C1174 C1175 1.399 . S
C1175 H1135 0.929 . S
C1175 C1170 1.386 1_565 S
C1175 C1174 1.399 . S
C1176 C1155 1.490 . S
C1176 C1177 1.394 1_565 S
C1176 C1181 1.360 . S
C1177 H1136 0.931 . S
C1177 C1176 1.394 1_545 S
C1177 C1178 1.372 . S
C1178 H1137 0.930 . S
C1178 C1177 1.372 . S
C1178 C1179 1.397 1_545 S
C1179 C1178 1.397 1_565 S
C1179 C1180 1.390 . S
C1179 C1195 1.476 . S
C1180 H1138 0.930 . S
C1180 C1179 1.390 . S
C1180 C1181 1.366 . S
C1181 H1139 0.932 . S
C1181 C1176 1.360 . S
C1181 C1180 1.366 . S
C1182 C1156 1.488 . S
C1182 C1183 1.346 1_565 S
C1182 C1187 1.429 . S
C1183 H1140 0.930 . S
C1183 C1182 1.346 1_545 S
C1183 C1184 1.381 . S
C1184 H1141 0.929 . S
C1184 C1183 1.381 . S
C1184 C1185 1.391 . S
C1185 C1184 1.391 . S
C1185 C1186 1.364 1_545 S
C1186 H1142 0.931 . S
C1186 C1185 1.364 1_565 S
C1186 C1187 1.387 . S
C1187 H1143 0.930 . S
C1187 C1182 1.429 . S
C1187 C1186 1.387 . S
C1188 C1157 1.519 . S
C1188 C1189 1.377 1_565 S
C1188 C1193 1.361 . S
C1189 H1144 0.929 . S
C1189 C1188 1.377 1_545 S
C1189 C1190 1.386 . S
C1190 H1145 0.931 . S
C1190 C1189 1.386 . S
C1190 C1191 1.363 1_545 S
C1191 C1190 1.363 1_565 S
C1191 C1192 1.385 . S
C1192 H1146 0.930 . S
C1192 C1191 1.385 . S
C1192 C1193 1.396 . S
C1193 H1147 0.929 . S
C1193 C1188 1.361 . S
C1193 C1192 1.396 . S
C1194 O1148 1.300 . S
C1194 O1149 1.209 1_545 S
C1194 C1167 1.486 . S
C1195 O1150 1.199 1_565 S
C1195 O1151 1.297 . S
C1195 C1179 1.476 . S
H1196 O1222 0.856 . S
H1197 O1225 0.854 . S
H1198 C1233 0.930 . S
H1199 C1234 0.930 . S
H1200 C1236 0.930 . S
H1201 C1237 0.930 . S
H1202 C1239 0.931 . S
H1203 C1240 0.930 . S
H1204 C1242 0.930 . S
H1205 C1243 0.929 . S
H1206 C1245 0.930 . S
H1207 C1246 0.931 . S
H1208 C1248 0.930 . S
H1209 C1249 0.929 . S
H1210 C1251 0.931 . S
H1211 C1252 0.930 . S
H1212 C1254 0.930 . S
H1213 C1255 0.932 . S
H1214 C1257 0.930 . S
H1215 C1258 0.929 . S
H1216 C1260 0.931 . S
H1217 C1261 0.930 . S
H1218 C1263 0.929 . S
H1219 C1264 0.931 . S
H1220 C1266 0.930 . S
H1221 C1267 0.929 . S
O1222 H1196 0.856 . S
O1222 C1268 1.300 . S
O1223 C1268 1.209 1_455 S
O1224 C1269 1.199 1_655 S
O1225 H1197 0.854 . S
O1225 C1269 1.297 . S
C1226 C1227 1.404 . S
C1226 C1231 1.396 1_655 S
C1226 C1232 1.492 . S
C1227 C1226 1.404 . S
C1227 C1228 1.396 . S
C1227 C1238 1.492 . S
C1228 C1227 1.396 . S
C1228 C1229 1.397 . S
C1228 C1244 1.509 . S
C1229 C1228 1.397 . S
C1229 C1230 1.397 1_655 S
C1229 C1250 1.487 1_655 S
C1230 C1229 1.397 1_455 S
C1230 C1231 1.411 . S
C1230 C1256 1.485 . S
C1231 C1226 1.396 1_455 S
C1231 C1230 1.411 . S
C1231 C1262 1.516 . S
C1232 C1226 1.492 . S
C1232 C1233 1.363 . S
C1232 C1237 1.390 1_655 S
C1233 H1198 0.930 . S
C1233 C1232 1.363 . S
C1233 C1234 1.372 . S
C1234 H1199 0.930 . S
C1234 C1233 1.372 . S
C1234 C1235 1.383 . S
C1235 C1234 1.383 . S
C1235 C1236 1.395 1_655 S
C1236 H1200 0.930 . S
C1236 C1235 1.395 1_455 S
C1236 C1237 1.362 . S
C1237 H1201 0.930 . S
C1237 C1232 1.390 1_455 S
C1237 C1236 1.362 . S
C1238 C1227 1.492 . S
C1238 C1239 1.377 . S
C1238 C1243 1.397 1_655 S
C1239 H1202 0.931 . S
C1239 C1238 1.377 . S
C1239 C1240 1.376 . S
C1240 H1203 0.930 . S
C1240 C1239 1.376 . S
C1240 C1241 1.376 . S
C1241 C1240 1.376 . S
C1241 C1242 1.378 1_655 S
C1241 C1268 1.486 . S
C1242 H1204 0.930 . S
C1242 C1241 1.378 1_455 S
C1242 C1243 1.376 . S
C1243 H1205 0.929 . S
C1243 C1238 1.397 1_455 S
C1243 C1242 1.376 . S
C1244 C1228 1.509 . S
C1244 C1245 1.391 . S
C1244 C1249 1.386 1_655 S
C1245 H1206 0.930 . S
C1245 C1244 1.391 . S
C1245 C1246 1.375 . S
C1246 H1207 0.931 . S
C1246 C1245 1.375 . S
C1246 C1247 1.375 . S
C1247 C1246 1.375 . S
C1247 C1248 1.361 1_655 S
C1248 H1208 0.930 . S
C1248 C1247 1.361 1_455 S
C1248 C1249 1.399 . S
C1249 H1209 0.929 . S
C1249 C1244 1.386 1_455 S
C1249 C1248 1.399 . S
C1250 C1229 1.487 1_455 S
C1250 C1251 1.394 1_455 S
C1250 C1255 1.360 . S
C1251 H1210 0.931 . S
C1251 C1250 1.394 1_655 S
C1251 C1252 1.372 . S
C1252 H1211 0.930 . S
C1252 C1251 1.372 . S
C1252 C1253 1.397 1_655 S
C1253 C1252 1.397 1_455 S
C1253 C1254 1.390 . S
C1253 C1269 1.476 . S
C1254 H1212 0.930 . S
C1254 C1253 1.390 . S
C1254 C1255 1.366 . S
C1255 H1213 0.932 . S
C1255 C1250 1.360 . S
C1255 C1254 1.366 . S
C1256 C1230 1.485 . S
C1256 C1257 1.380 1_455 S
C1256 C1261 1.386 . S
C1257 H1214 0.930 . S
C1257 C1256 1.380 1_655 S
C1257 C1258 1.381 . S
C1258 H1215 0.929 . S
C1258 C1257 1.381 . S
C1258 C1259 1.371 1_655 S
C1259 C1258 1.371 1_455 S
C1259 C1260 1.380 . S
C1260 H1216 0.931 . S
C1260 C1259 1.380 . S
C1260 C1261 1.387 . S
C1261 H1217 0.930 . S
C1261 C1256 1.386 . S
C1261 C1260 1.387 . S
C1262 C1231 1.516 . S
C1262 C1263 1.377 1_455 S
C1262 C1267 1.361 . S
C1263 H1218 0.929 . S
C1263 C1262 1.377 1_655 S
C1263 C1264 1.386 . S
C1264 H1219 0.931 . S
C1264 C1263 1.386 . S
C1264 C1265 1.363 1_655 S
C1265 C1264 1.363 1_455 S
C1265 C1266 1.385 . S
C1266 H1220 0.930 . S
C1266 C1265 1.385 . S
C1266 C1267 1.396 . S
C1267 H1221 0.929 . S
C1267 C1262 1.361 . S
C1267 C1266 1.396 . S
C1268 O1222 1.300 . S
C1268 O1223 1.209 1_655 S
C1268 C1241 1.486 . S
C1269 O1224 1.199 1_455 S
C1269 O1225 1.297 . S
C1269 C1253 1.476 . S
H1270 O1296 0.856 . S
H1271 O1299 0.854 . S
H1272 C1307 0.930 . S
H1273 C1308 0.930 . S
H1274 C1310 0.930 . S
H1275 C1311 0.930 . S
H1276 C1313 0.931 . S
H1277 C1314 0.930 . S
H1278 C1316 0.930 . S
H1279 C1317 0.929 . S
H1280 C1319 0.930 . S
H1281 C1320 0.931 . S
H1282 C1322 0.930 . S
H1283 C1323 0.929 . S
H1284 C1325 0.931 . S
H1285 C1326 0.930 . S
H1286 C1328 0.930 . S
H1287 C1329 0.932 . S
H1288 C1331 0.930 . S
H1289 C1332 0.929 . S
H1290 C1334 0.931 . S
H1291 C1335 0.930 . S
H1292 C1337 0.929 . S
H1293 C1338 0.931 . S
H1294 C1340 0.930 . S
H1295 C1341 0.929 . S
O1296 H1270 0.856 . S
O1296 C1342 1.300 . S
O1297 C1342 1.209 . S
O1298 C1343 1.199 . S
O1299 H1271 0.854 . S
O1299 C1343 1.297 . S
C1300 C1301 1.404 . S
C1300 C1305 1.397 . S
C1300 C1306 1.492 . S
C1301 C1300 1.404 . S
C1301 C1302 1.396 . S
C1301 C1312 1.492 . S
C1302 C1301 1.396 . S
C1302 C1303 1.397 . S
C1302 C1318 1.509 . S
C1303 C1302 1.397 . S
C1303 C1304 1.412 . S
C1303 C1324 1.485 . S
C1304 C1303 1.412 . S
C1304 C1305 1.388 . S
C1304 C1330 1.490 . S
C1305 C1300 1.397 . S
C1305 C1304 1.388 . S
C1305 C1336 1.519 . S
C1306 C1300 1.492 . S
C1306 C1307 1.363 . S
C1306 C1311 1.390 . S
C1307 H1272 0.930 . S
C1307 C1306 1.363 . S
C1307 C1308 1.372 . S
C1308 H1273 0.930 . S
C1308 C1307 1.372 . S
C1308 C1309 1.383 . S
C1309 C1308 1.383 . S
C1309 C1310 1.395 . S
C1310 H1274 0.930 . S
C1310 C1309 1.395 . S
C1310 C1311 1.362 . S
C1311 H1275 0.930 . S
C1311 C1306 1.390 . S
C1311 C1310 1.362 . S
C1312 C1301 1.492 . S
C1312 C1313 1.377 . S
C1312 C1317 1.397 . S
C1313 H1276 0.931 . S
C1313 C1312 1.377 . S
C1313 C1314 1.376 . S
C1314 H1277 0.930 . S
C1314 C1313 1.376 . S
C1314 C1315 1.376 . S
C1315 C1314 1.376 . S
C1315 C1316 1.378 . S
C1315 C1342 1.486 . S
C1316 H1278 0.930 . S
C1316 C1315 1.378 . S
C1316 C1317 1.376 . S
C1317 H1279 0.929 . S
C1317 C1312 1.397 . S
C1317 C1316 1.376 . S
C1318 C1302 1.509 . S
C1318 C1319 1.391 . S
C1318 C1323 1.386 . S
C1319 H1280 0.930 . S
C1319 C1318 1.391 . S
C1319 C1320 1.375 . S
C1320 H1281 0.931 . S
C1320 C1319 1.375 . S
C1320 C1321 1.375 . S
C1321 C1320 1.375 . S
C1321 C1322 1.361 . S
C1322 H1282 0.930 . S
C1322 C1321 1.361 . S
C1322 C1323 1.399 . S
C1323 H1283 0.929 . S
C1323 C1318 1.386 . S
C1323 C1322 1.399 . S
C1324 C1303 1.485 . S
C1324 C1325 1.394 . S
C1324 C1329 1.360 . S
C1325 H1284 0.931 . S
C1325 C1324 1.394 . S
C1325 C1326 1.372 . S
C1326 H1285 0.930 . S
C1326 C1325 1.372 . S
C1326 C1327 1.397 . S
C1327 C1326 1.397 . S
C1327 C1328 1.390 . S
C1327 C1343 1.476 . S
C1328 H1286 0.930 . S
C1328 C1327 1.390 . S
C1328 C1329 1.366 . S
C1329 H1287 0.932 . S
C1329 C1324 1.360 . S
C1329 C1328 1.366 . S
C1330 C1304 1.490 . S
C1330 C1331 1.380 . S
C1330 C1335 1.386 . S
C1331 H1288 0.930 . S
C1331 C1330 1.380 . S
C1331 C1332 1.381 . S
C1332 H1289 0.929 . S
C1332 C1331 1.381 . S
C1332 C1333 1.371 . S
C1333 C1332 1.371 . S
C1333 C1334 1.380 . S
C1334 H1290 0.931 . S
C1334 C1333 1.380 . S
C1334 C1335 1.387 . S
C1335 H1291 0.930 . S
C1335 C1330 1.386 . S
C1335 C1334 1.387 . S
C1336 C1305 1.519 . S
C1336 C1337 1.377 . S
C1336 C1341 1.361 . S
C1337 H1292 0.929 . S
C1337 C1336 1.377 . S
C1337 C1338 1.386 . S
C1338 H1293 0.931 . S
C1338 C1337 1.386 . S
C1338 C1339 1.363 . S
C1339 C1338 1.363 . S
C1339 C1340 1.385 . S
C1340 H1294 0.930 . S
C1340 C1339 1.385 . S
C1340 C1341 1.396 . S
C1341 H1295 0.929 . S
C1341 C1336 1.361 . S
C1341 C1340 1.396 . S
C1342 O1296 1.300 . S
C1342 O1297 1.209 . S
C1342 C1315 1.486 . S
C1343 O1298 1.199 . S
C1343 O1299 1.297 . S
C1343 C1327 1.476 . S
H1344 O1370 0.856 . S
H1345 O1373 0.854 . S
H1346 C1381 0.930 . S
H1347 C1382 0.930 . S
H1348 C1384 0.930 . S
H1349 C1385 0.930 . S
H1350 C1387 0.931 . S
H1351 C1388 0.930 . S
H1352 C1390 0.930 . S
H1353 C1391 0.929 . S
H1354 C1393 0.930 . S
H1355 C1394 0.931 . S
H1356 C1396 0.930 . S
H1357 C1397 0.929 . S
H1358 C1399 0.931 . S
H1359 C1400 0.930 . S
H1360 C1402 0.930 . S
H1361 C1403 0.932 . S
H1362 C1405 0.930 . S
H1363 C1406 0.929 . S
H1364 C1408 0.931 . S
H1365 C1409 0.930 . S
H1366 C1411 0.929 . S
H1367 C1412 0.931 . S
H1368 C1414 0.930 . S
H1369 C1415 0.929 . S
O1370 H1344 0.856 . S
O1370 C1416 1.300 . S
O1371 C1416 1.209 . S
O1372 C1417 1.199 . S
O1373 H1345 0.854 . S
O1373 C1417 1.297 . S
C1374 C1375 1.404 . S
C1374 C1379 1.397 . S
C1374 C1380 1.492 . S
C1375 C1374 1.404 . S
C1375 C1376 1.396 . S
C1375 C1386 1.492 . S
C1376 C1375 1.396 . S
C1376 C1377 1.397 . S
C1376 C1392 1.509 . S
C1377 C1376 1.397 . S
C1377 C1378 1.412 . S
C1377 C1398 1.485 . S
C1378 C1377 1.412 . S
C1378 C1379 1.388 . S
C1378 C1404 1.490 . S
C1379 C1374 1.397 . S
C1379 C1378 1.388 . S
C1379 C1410 1.519 . S
C1380 C1374 1.492 . S
C1380 C1381 1.363 . S
C1380 C1385 1.390 . S
C1381 H1346 0.930 . S
C1381 C1380 1.363 . S
C1381 C1382 1.372 . S
C1382 H1347 0.930 . S
C1382 C1381 1.372 . S
C1382 C1383 1.383 . S
C1383 C1382 1.383 . S
C1383 C1384 1.395 . S
C1384 H1348 0.930 . S
C1384 C1383 1.395 . S
C1384 C1385 1.362 . S
C1385 H1349 0.930 . S
C1385 C1380 1.390 . S
C1385 C1384 1.362 . S
C1386 C1375 1.492 . S
C1386 C1387 1.377 . S
C1386 C1391 1.397 . S
C1387 H1350 0.931 . S
C1387 C1386 1.377 . S
C1387 C1388 1.376 . S
C1388 H1351 0.930 . S
C1388 C1387 1.376 . S
C1388 C1389 1.376 . S
C1389 C1388 1.376 . S
C1389 C1390 1.378 . S
C1389 C1416 1.486 . S
C1390 H1352 0.930 . S
C1390 C1389 1.378 . S
C1390 C1391 1.376 . S
C1391 H1353 0.929 . S
C1391 C1386 1.397 . S
C1391 C1390 1.376 . S
C1392 C1376 1.509 . S
C1392 C1393 1.391 . S
C1392 C1397 1.386 . S
C1393 H1354 0.930 . S
C1393 C1392 1.391 . S
C1393 C1394 1.375 . S
C1394 H1355 0.931 . S
C1394 C1393 1.375 . S
C1394 C1395 1.375 . S
C1395 C1394 1.375 . S
C1395 C1396 1.361 . S
C1396 H1356 0.930 . S
C1396 C1395 1.361 . S
C1396 C1397 1.399 . S
C1397 H1357 0.929 . S
C1397 C1392 1.386 . S
C1397 C1396 1.399 . S
C1398 C1377 1.485 . S
C1398 C1399 1.394 . S
C1398 C1403 1.360 . S
C1399 H1358 0.931 . S
C1399 C1398 1.394 . S
C1399 C1400 1.372 . S
C1400 H1359 0.930 . S
C1400 C1399 1.372 . S
C1400 C1401 1.397 . S
C1401 C1400 1.397 . S
C1401 C1402 1.390 . S
C1401 C1417 1.476 . S
C1402 H1360 0.930 . S
C1402 C1401 1.390 . S
C1402 C1403 1.366 . S
C1403 H1361 0.932 . S
C1403 C1398 1.360 . S
C1403 C1402 1.366 . S
C1404 C1378 1.490 . S
C1404 C1405 1.380 . S
C1404 C1409 1.386 . S
C1405 H1362 0.930 . S
C1405 C1404 1.380 . S
C1405 C1406 1.381 . S
C1406 H1363 0.929 . S
C1406 C1405 1.381 . S
C1406 C1407 1.371 . S
C1407 C1406 1.371 . S
C1407 C1408 1.380 . S
C1408 H1364 0.931 . S
C1408 C1407 1.380 . S
C1408 C1409 1.387 . S
C1409 H1365 0.930 . S
C1409 C1404 1.386 . S
C1409 C1408 1.387 . S
C1410 C1379 1.519 . S
C1410 C1411 1.377 . S
C1410 C1415 1.361 . S
C1411 H1366 0.929 . S
C1411 C1410 1.377 . S
C1411 C1412 1.386 . S
C1412 H1367 0.931 . S
C1412 C1411 1.386 . S
C1412 C1413 1.363 . S
C1413 C1412 1.363 . S
C1413 C1414 1.385 . S
C1414 H1368 0.930 . S
C1414 C1413 1.385 . S
C1414 C1415 1.396 . S
C1415 H1369 0.929 . S
C1415 C1410 1.361 . S
C1415 C1414 1.396 . S
C1416 O1370 1.300 . S
C1416 O1371 1.209 . S
C1416 C1389 1.486 . S
C1417 O1372 1.199 . S
C1417 O1373 1.297 . S
C1417 C1401 1.476 . S
H1418 O1444 0.856 . S
H1419 O1447 0.854 . S
H1420 C1455 0.930 . S
H1421 C1456 0.930 . S
H1422 C1458 0.930 . S
H1423 C1459 0.930 . S
H1424 C1461 0.931 . S
H1425 C1462 0.930 . S
H1426 C1464 0.930 . S
H1427 C1465 0.929 . S
H1428 C1467 0.930 . S
H1429 C1468 0.931 . S
H1430 C1470 0.930 . S
H1431 C1471 0.929 . S
H1432 C1473 0.931 . S
H1433 C1474 0.930 . S
H1434 C1476 0.930 . S
H1435 C1477 0.932 . S
H1436 C1479 0.930 . S
H1437 C1480 0.929 . S
H1438 C1482 0.931 . S
H1439 C1483 0.930 . S
H1440 C1485 0.929 . S
H1441 C1486 0.931 . S
H1442 C1488 0.930 . S
H1443 C1489 0.929 . S
O1444 H1418 0.856 . S
O1444 C1490 1.300 . S
O1445 C1490 1.209 . S
O1446 C1491 1.199 . S
O1447 H1419 0.854 . S
O1447 C1491 1.297 . S
C1448 C1449 1.404 . S
C1448 C1453 1.397 . S
C1448 C1454 1.492 . S
C1449 C1448 1.404 . S
C1449 C1450 1.396 . S
C1449 C1460 1.492 . S
C1450 C1449 1.396 . S
C1450 C1451 1.397 . S
C1450 C1466 1.509 . S
C1451 C1450 1.397 . S
C1451 C1452 1.412 . S
C1451 C1472 1.485 . S
C1452 C1451 1.412 . S
C1452 C1453 1.388 . S
C1452 C1478 1.490 . S
C1453 C1448 1.397 . S
C1453 C1452 1.388 . S
C1453 C1484 1.519 . S
C1454 C1448 1.492 . S
C1454 C1455 1.363 . S
C1454 C1459 1.390 . S
C1455 H1420 0.930 . S
C1455 C1454 1.363 . S
C1455 C1456 1.372 . S
C1456 H1421 0.930 . S
C1456 C1455 1.372 . S
C1456 C1457 1.383 . S
C1457 C1456 1.383 . S
C1457 C1458 1.395 . S
C1458 H1422 0.930 . S
C1458 C1457 1.395 . S
C1458 C1459 1.362 . S
C1459 H1423 0.930 . S
C1459 C1454 1.390 . S
C1459 C1458 1.362 . S
C1460 C1449 1.492 . S
C1460 C1461 1.377 . S
C1460 C1465 1.397 . S
C1461 H1424 0.931 . S
C1461 C1460 1.377 . S
C1461 C1462 1.376 . S
C1462 H1425 0.930 . S
C1462 C1461 1.376 . S
C1462 C1463 1.376 . S
C1463 C1462 1.376 . S
C1463 C1464 1.378 . S
C1463 C1490 1.486 . S
C1464 H1426 0.930 . S
C1464 C1463 1.378 . S
C1464 C1465 1.376 . S
C1465 H1427 0.929 . S
C1465 C1460 1.397 . S
C1465 C1464 1.376 . S
C1466 C1450 1.509 . S
C1466 C1467 1.391 . S
C1466 C1471 1.386 . S
C1467 H1428 0.930 . S
C1467 C1466 1.391 . S
C1467 C1468 1.375 . S
C1468 H1429 0.931 . S
C1468 C1467 1.375 . S
C1468 C1469 1.375 . S
C1469 C1468 1.375 . S
C1469 C1470 1.361 . S
C1470 H1430 0.930 . S
C1470 C1469 1.361 . S
C1470 C1471 1.399 . S
C1471 H1431 0.929 . S
C1471 C1466 1.386 . S
C1471 C1470 1.399 . S
C1472 C1451 1.485 . S
C1472 C1473 1.394 . S
C1472 C1477 1.360 . S
C1473 H1432 0.931 . S
C1473 C1472 1.394 . S
C1473 C1474 1.372 . S
C1474 H1433 0.930 . S
C1474 C1473 1.372 . S
C1474 C1475 1.397 . S
C1475 C1474 1.397 . S
C1475 C1476 1.390 . S
C1475 C1491 1.476 . S
C1476 H1434 0.930 . S
C1476 C1475 1.390 . S
C1476 C1477 1.366 . S
C1477 H1435 0.932 . S
C1477 C1472 1.360 . S
C1477 C1476 1.366 . S
C1478 C1452 1.490 . S
C1478 C1479 1.380 . S
C1478 C1483 1.386 . S
C1479 H1436 0.930 . S
C1479 C1478 1.380 . S
C1479 C1480 1.381 . S
C1480 H1437 0.929 . S
C1480 C1479 1.381 . S
C1480 C1481 1.371 . S
C1481 C1480 1.371 . S
C1481 C1482 1.380 . S
C1482 H1438 0.931 . S
C1482 C1481 1.380 . S
C1482 C1483 1.387 . S
C1483 H1439 0.930 . S
C1483 C1478 1.386 . S
C1483 C1482 1.387 . S
C1484 C1453 1.519 . S
C1484 C1485 1.377 . S
C1484 C1489 1.361 . S
C1485 H1440 0.929 . S
C1485 C1484 1.377 . S
C1485 C1486 1.386 . S
C1486 H1441 0.931 . S
C1486 C1485 1.386 . S
C1486 C1487 1.363 . S
C1487 C1486 1.363 . S
C1487 C1488 1.385 . S
C1488 H1442 0.930 . S
C1488 C1487 1.385 . S
C1488 C1489 1.396 . S
C1489 H1443 0.929 . S
C1489 C1484 1.361 . S
C1489 C1488 1.396 . S
C1490 O1444 1.300 . S
C1490 O1445 1.209 . S
C1490 C1463 1.486 . S
C1491 O1446 1.199 . S
C1491 O1447 1.297 . S
C1491 C1475 1.476 . S
H1492 O1518 0.856 . S
H1493 O1521 0.854 . S
H1494 C1529 0.930 . S
H1495 C1530 0.930 . S
H1496 C1532 0.930 . S
H1497 C1533 0.930 . S
H1498 C1535 0.931 . S
H1499 C1536 0.930 . S
H1500 C1538 0.930 . S
H1501 C1539 0.929 . S
H1502 C1541 0.930 . S
H1503 C1542 0.931 . S
H1504 C1544 0.930 . S
H1505 C1545 0.929 . S
H1506 C1547 0.931 . S
H1507 C1548 0.930 . S
H1508 C1550 0.930 . S
H1509 C1551 0.932 . S
H1510 C1553 0.930 . S
H1511 C1554 0.929 . S
H1512 C1556 0.931 . S
H1513 C1557 0.930 . S
H1514 C1559 0.929 . S
H1515 C1560 0.931 . S
H1516 C1562 0.930 . S
H1517 C1563 0.929 . S
O1518 H1492 0.856 . S
O1518 C1564 1.300 . S
O1519 C1564 1.209 . S
O1520 C1565 1.199 . S
O1521 H1493 0.854 . S
O1521 C1565 1.297 . S
C1522 C1523 1.404 . S
C1522 C1527 1.397 . S
C1522 C1528 1.492 . S
C1523 C1522 1.404 . S
C1523 C1524 1.396 . S
C1523 C1534 1.492 . S
C1524 C1523 1.396 . S
C1524 C1525 1.397 . S
C1524 C1540 1.509 . S
C1525 C1524 1.397 . S
C1525 C1526 1.412 . S
C1525 C1546 1.485 . S
C1526 C1525 1.412 . S
C1526 C1527 1.388 . S
C1526 C1552 1.490 . S
C1527 C1522 1.397 . S
C1527 C1526 1.388 . S
C1527 C1558 1.519 . S
C1528 C1522 1.492 . S
C1528 C1529 1.363 . S
C1528 C1533 1.390 . S
C1529 H1494 0.930 . S
C1529 C1528 1.363 . S
C1529 C1530 1.372 . S
C1530 H1495 0.930 . S
C1530 C1529 1.372 . S
C1530 C1531 1.383 . S
C1531 C1530 1.383 . S
C1531 C1532 1.395 . S
C1532 H1496 0.930 . S
C1532 C1531 1.395 . S
C1532 C1533 1.362 . S
C1533 H1497 0.930 . S
C1533 C1528 1.390 . S
C1533 C1532 1.362 . S
C1534 C1523 1.492 . S
C1534 C1535 1.377 . S
C1534 C1539 1.397 . S
C1535 H1498 0.931 . S
C1535 C1534 1.377 . S
C1535 C1536 1.376 . S
C1536 H1499 0.930 . S
C1536 C1535 1.376 . S
C1536 C1537 1.376 . S
C1537 C1536 1.376 . S
C1537 C1538 1.378 . S
C1537 C1564 1.486 . S
C1538 H1500 0.930 . S
C1538 C1537 1.378 . S
C1538 C1539 1.376 . S
C1539 H1501 0.929 . S
C1539 C1534 1.397 . S
C1539 C1538 1.376 . S
C1540 C1524 1.509 . S
C1540 C1541 1.391 . S
C1540 C1545 1.386 . S
C1541 H1502 0.930 . S
C1541 C1540 1.391 . S
C1541 C1542 1.375 . S
C1542 H1503 0.931 . S
C1542 C1541 1.375 . S
C1542 C1543 1.375 . S
C1543 C1542 1.375 . S
C1543 C1544 1.361 . S
C1544 H1504 0.930 . S
C1544 C1543 1.361 . S
C1544 C1545 1.399 . S
C1545 H1505 0.929 . S
C1545 C1540 1.386 . S
C1545 C1544 1.399 . S
C1546 C1525 1.485 . S
C1546 C1547 1.394 . S
C1546 C1551 1.360 . S
C1547 H1506 0.931 . S
C1547 C1546 1.394 . S
C1547 C1548 1.372 . S
C1548 H1507 0.930 . S
C1548 C1547 1.372 . S
C1548 C1549 1.397 . S
C1549 C1548 1.397 . S
C1549 C1550 1.390 . S
C1549 C1565 1.476 . S
C1550 H1508 0.930 . S
C1550 C1549 1.390 . S
C1550 C1551 1.366 . S
C1551 H1509 0.932 . S
C1551 C1546 1.360 . S
C1551 C1550 1.366 . S
C1552 C1526 1.490 . S
C1552 C1553 1.380 . S
C1552 C1557 1.386 . S
C1553 H1510 0.930 . S
C1553 C1552 1.380 . S
C1553 C1554 1.381 . S
C1554 H1511 0.929 . S
C1554 C1553 1.381 . S
C1554 C1555 1.371 . S
C1555 C1554 1.371 . S
C1555 C1556 1.380 . S
C1556 H1512 0.931 . S
C1556 C1555 1.380 . S
C1556 C1557 1.387 . S
C1557 H1513 0.930 . S
C1557 C1552 1.386 . S
C1557 C1556 1.387 . S
C1558 C1527 1.519 . S
C1558 C1559 1.377 . S
C1558 C1563 1.361 . S
C1559 H1514 0.929 . S
C1559 C1558 1.377 . S
C1559 C1560 1.386 . S
C1560 H1515 0.931 . S
C1560 C1559 1.386 . S
C1560 C1561 1.363 . S
C1561 C1560 1.363 . S
C1561 C1562 1.385 . S
C1562 H1516 0.930 . S
C1562 C1561 1.385 . S
C1562 C1563 1.396 . S
C1563 H1517 0.929 . S
C1563 C1558 1.361 . S
C1563 C1562 1.396 . S
C1564 O1518 1.300 . S
C1564 O1519 1.209 . S
C1564 C1537 1.486 . S
C1565 O1520 1.199 . S
C1565 O1521 1.297 . S
C1565 C1549 1.476 . S
H1566 C1572 0.930 . S
H1567 C1575 0.930 . S
H1568 C1576 0.930 . S
H1569 C1577 0.930 . S
H1570 C1580 0.930 . S
H1571 C1581 0.930 . S
C1572 H1566 0.930 . S
C1572 C1573 1.355 1_455 S
C1572 C1574 1.433 . S
C1573 C1572 1.355 1_655 S
C1573 C1575 1.419 . S
C1574 C1572 1.433 . S
C1574 C1579 1.399 1_455 S
C1574 C1581 1.416 . S
C1575 H1567 0.930 . S
C1575 C1573 1.419 . S
C1575 C1576 1.362 . S
C1576 H1568 0.930 . S
C1576 C1575 1.362 . S
C1576 C1579 1.409 . S
C1577 H1569 0.930 . S
C1577 C1578 1.355 . S
C1577 C1579 1.415 . S
C1578 C1577 1.355 . S
C1578 C1580 1.419 1_655 S
C1579 C1574 1.399 1_655 S
C1579 C1576 1.409 . S
C1579 C1577 1.415 . S
C1580 H1570 0.930 . S
C1580 C1578 1.419 1_455 S
C1580 C1581 1.362 . S
C1581 H1571 0.930 . S
C1581 C1574 1.416 . S
C1581 C1580 1.362 . S
H1582 C1588 0.930 . S
H1583 C1591 0.930 . S
H1584 C1592 0.930 . S
H1585 C1593 0.930 . S
H1586 C1596 0.930 . S
H1587 C1597 0.930 . S
C1588 H1582 0.930 . S
C1588 C1589 1.355 . S
C1588 C1590 1.415 . S
C1589 C1588 1.355 . S
C1589 C1591 1.419 . S
C1590 C1588 1.415 . S
C1590 C1595 1.425 . S
C1590 C1597 1.409 . S
C1591 H1583 0.930 . S
C1591 C1589 1.419 . S
C1591 C1592 1.362 . S
C1592 H1584 0.930 . S
C1592 C1591 1.362 . S
C1592 C1595 1.409 . S
C1593 H1585 0.930 . S
C1593 C1594 1.355 . S
C1593 C1595 1.415 . S
C1594 C1593 1.355 . S
C1594 C1596 1.419 . S
C1595 C1590 1.425 . S
C1595 C1592 1.409 . S
C1595 C1593 1.415 . S
C1596 H1586 0.930 . S
C1596 C1594 1.419 . S
C1596 C1597 1.362 . S
C1597 H1587 0.930 . S
C1597 C1590 1.409 . S
C1597 C1596 1.362 . S
H1598 C1604 0.930 . S
H1599 C1607 0.930 . S
H1600 C1608 0.930 . S
H1601 C1609 0.930 . S
H1602 C1612 0.930 . S
H1603 C1613 0.930 . S
C1604 H1598 0.930 . S
C1604 C1605 1.355 . S
C1604 C1606 1.415 . S
C1605 C1604 1.355 . S
C1605 C1607 1.419 . S
C1606 C1604 1.415 . S
C1606 C1611 1.425 . S
C1606 C1613 1.409 . S
C1607 H1599 0.930 . S
C1607 C1605 1.419 . S
C1607 C1608 1.362 . S
C1608 H1600 0.930 . S
C1608 C1607 1.362 . S
C1608 C1611 1.409 . S
C1609 H1601 0.930 . S
C1609 C1610 1.355 . S
C1609 C1611 1.415 . S
C1610 C1609 1.355 . S
C1610 C1612 1.419 . S
C1611 C1606 1.425 . S
C1611 C1608 1.409 . S
C1611 C1609 1.415 . S
C1612 H1602 0.930 . S
C1612 C1610 1.419 . S
C1612 C1613 1.362 . S
C1613 H1603 0.930 . S
C1613 C1606 1.409 . S
C1613 C1612 1.362 . S
H1614 C1620 0.930 . S
H1615 C1623 0.930 . S
H1616 C1624 0.930 . S
H1617 C1625 0.930 . S
H1618 C1628 0.930 . S
H1619 C1629 0.930 . S
C1620 H1614 0.930 . S
C1620 C1621 1.355 1_545 S
C1620 C1622 1.415 1_545 S
C1621 C1620 1.355 1_565 S
C1621 C1623 1.419 . S
C1622 C1620 1.415 1_565 S
C1622 C1627 1.425 . S
C1622 C1629 1.409 1_565 S
C1623 H1615 0.930 . S
C1623 C1621 1.419 . S
C1623 C1624 1.362 . S
C1624 H1616 0.930 . S
C1624 C1623 1.362 . S
C1624 C1627 1.409 . S
C1625 H1617 0.930 . S
C1625 C1626 1.355 . S
C1625 C1627 1.415 . S
C1626 C1625 1.355 . S
C1626 C1628 1.419 1_565 S
C1627 C1622 1.425 . S
C1627 C1624 1.409 . S
C1627 C1625 1.415 . S
C1628 H1618 0.930 . S
C1628 C1626 1.419 1_545 S
C1628 C1629 1.362 . S
C1629 H1619 0.930 . S
C1629 C1622 1.409 1_545 S
C1629 C1628 1.362 . S
H1630 C1636 0.930 . S
H1631 C1639 0.930 . S
H1632 C1640 0.930 . S
H1633 C1641 0.924 1_655 S
H1634 C1644 0.930 . S
H1635 C1645 0.930 . S
C1636 H1630 0.930 . S
C1636 C1637 1.355 . S
C1636 C1638 1.415 . S
C1637 C1636 1.355 . S
C1637 C1639 1.419 1_455 S
C1638 C1636 1.415 . S
C1638 C1643 1.425 . S
C1638 C1645 1.409 . S
C1639 H1631 0.930 . S
C1639 C1637 1.419 1_655 S
C1639 C1640 1.362 . S
C1640 H1632 0.930 . S
C1640 C1639 1.362 . S
C1640 C1643 1.409 1_655 S
C1641 H1633 0.924 1_455 S
C1641 C1642 1.355 . S
C1641 C1643 1.415 . S
C1642 C1641 1.355 . S
C1642 C1644 1.419 . S
C1643 C1638 1.425 . S
C1643 C1640 1.409 1_455 S
C1643 C1641 1.415 . S
C1644 H1634 0.930 . S
C1644 C1642 1.419 . S
C1644 C1645 1.362 . S
C1645 H1635 0.930 . S
C1645 C1638 1.409 . S
C1645 C1644 1.362 . S
H1646 C1652 0.930 . S
H1647 C1655 0.930 . S
H1648 C1656 0.930 . S
H1649 C1657 0.930 . S
H1650 C1660 0.930 . S
H1651 C1661 0.930 . S
C1652 H1646 0.930 . S
C1652 C1653 1.374 . S
C1652 C1654 1.415 . S
C1653 C1652 1.374 . S
C1653 C1655 1.433 . S
C1654 C1652 1.415 . S
C1654 C1659 1.425 . S
C1654 C1661 1.409 . S
C1655 H1647 0.930 . S
C1655 C1653 1.433 . S
C1655 C1656 1.362 . S
C1656 H1648 0.930 . S
C1656 C1655 1.362 . S
C1656 C1659 1.409 . S
C1657 H1649 0.930 . S
C1657 C1658 1.355 . S
C1657 C1659 1.415 . S
C1658 C1657 1.355 . S
C1658 C1660 1.419 . S
C1659 C1654 1.425 . S
C1659 C1656 1.409 . S
C1659 C1657 1.415 . S
C1660 H1650 0.930 . S
C1660 C1658 1.419 . S
C1660 C1661 1.362 . S
C1661 H1651 0.930 . S
C1661 C1654 1.409 . S
C1661 C1660 1.362 . S
H1662 C1668 0.930 . S
H1663 C1671 0.930 . S
H1664 C1672 0.930 . S
H1665 C1673 0.930 . S
H1666 C1676 0.930 . S
H1667 C1677 0.930 . S
C1668 H1662 0.930 . S
C1668 C1669 1.355 1_655 S
C1668 C1670 1.415 . S
C1669 C1668 1.355 1_455 S
C1669 C1671 1.419 . S
C1670 C1668 1.415 . S
C1670 C1675 1.425 1_655 S
C1670 C1677 1.409 . S
C1671 H1663 0.930 . S
C1671 C1669 1.419 . S
C1671 C1672 1.362 . S
C1672 H1664 0.930 . S
C1672 C1671 1.362 . S
C1672 C1675 1.409 . S
C1673 H1665 0.930 . S
C1673 C1674 1.343 1_455 S
C1673 C1675 1.415 . S
C1674 C1673 1.343 1_655 S
C1674 C1676 1.449 . S
C1675 C1670 1.425 1_455 S
C1675 C1672 1.409 . S
C1675 C1673 1.415 . S
C1676 H1666 0.930 . S
C1676 C1674 1.449 . S
C1676 C1677 1.362 . S
C1677 H1667 0.930 . S
C1677 C1670 1.409 . S
C1677 C1676 1.362 . S
H1678 C1684 0.930 . S
H1679 C1687 0.930 . S
H1680 C1688 0.930 . S
H1681 C1689 0.930 . S
H1682 C1692 0.930 . S
H1683 C1693 0.930 . S
C1684 H1678 0.930 . S
C1684 C1685 1.355 . S
C1684 C1686 1.415 . S
C1685 C1684 1.355 . S
C1685 C1687 1.419 . S
C1686 C1684 1.415 . S
C1686 C1691 1.425 . S
C1686 C1693 1.409 . S
C1687 H1679 0.930 . S
C1687 C1685 1.419 . S
C1687 C1688 1.362 . S
C1688 H1680 0.930 . S
C1688 C1687 1.362 . S
C1688 C1691 1.409 . S
C1689 H1681 0.930 . S
C1689 C1690 1.355 . S
C1689 C1691 1.415 . S
C1690 C1689 1.355 . S
C1690 C1692 1.419 . S
C1691 C1686 1.425 . S
C1691 C1688 1.409 . S
C1691 C1689 1.415 . S
C1692 H1682 0.930 . S
C1692 C1690 1.419 . S
C1692 C1693 1.362 . S
C1693 H1683 0.930 . S
C1693 C1686 1.409 . S
C1693 C1692 1.362 . S
H1694 C1700 0.931 1_545 S
H1695 C1703 0.930 1_554 S
H1696 C1704 0.930 . S
H1697 C1705 0.930 . S
H1698 C1708 0.930 . S
H1699 C1709 0.930 . S
C1700 H1694 0.931 1_565 S
C1700 C1701 1.355 . S
C1700 C1702 1.414 . S
C1701 C1700 1.355 . S
C1701 C1703 1.419 . S
C1702 C1700 1.414 . S
C1702 C1707 1.424 . S
C1702 C1709 1.409 1_565 S
C1703 H1695 0.930 1_556 S
C1703 C1701 1.419 . S
C1703 C1704 1.362 . S
C1704 H1696 0.930 . S
C1704 C1703 1.362 . S
C1704 C1707 1.409 . S
C1705 H1697 0.930 . S
C1705 C1706 1.354 1_565 S
C1705 C1707 1.415 . S
C1706 C1705 1.354 1_545 S
C1706 C1708 1.413 . S
C1707 C1702 1.424 . S
C1707 C1704 1.409 . S
C1707 C1705 1.415 . S
C1708 H1698 0.930 . S
C1708 C1706 1.413 . S
C1708 C1709 1.362 . S
C1709 H1699 0.930 . S
C1709 C1702 1.409 1_545 S
C1709 C1708 1.362 . S
H1710 C1716 0.930 . S
H1711 C1719 0.930 . S
H1712 C1720 0.930 . S
H1713 C1721 0.930 . S
H1714 C1724 0.930 . S
H1715 C1725 0.930 . S
C1716 H1710 0.930 . S
C1716 C1717 1.355 1_565 S
C1716 C1718 1.415 . S
C1717 C1716 1.355 1_545 S
C1717 C1719 1.419 . S
C1718 C1716 1.415 . S
C1718 C1723 1.425 1_565 S
C1718 C1725 1.409 . S
C1719 H1711 0.930 . S
C1719 C1717 1.419 . S
C1719 C1720 1.362 . S
C1720 H1712 0.930 . S
C1720 C1719 1.362 . S
C1720 C1723 1.409 . S
C1721 H1713 0.930 . S
C1721 C1722 1.355 1_545 S
C1721 C1723 1.415 . S
C1722 C1721 1.355 1_565 S
C1722 C1724 1.419 . S
C1723 C1718 1.425 1_545 S
C1723 C1720 1.409 . S
C1723 C1721 1.415 . S
C1724 H1714 0.930 . S
C1724 C1722 1.419 . S
C1724 C1725 1.362 . S
C1725 H1715 0.930 . S
C1725 C1718 1.409 . S
C1725 C1724 1.362 . S
H1726 C1732 0.930 . S
H1727 C1735 0.930 . S
H1728 C1736 0.930 . S
H1729 C1737 0.930 . S
H1730 C1740 0.930 . S
H1731 C1741 0.930 . S
C1732 H1726 0.930 . S
C1732 C1733 1.355 1_455 S
C1732 C1734 1.415 . S
C1733 C1732 1.355 1_655 S
C1733 C1735 1.419 . S
C1734 C1732 1.415 . S
C1734 C1739 1.425 1_455 S
C1734 C1741 1.409 . S
C1735 H1727 0.930 . S
C1735 C1733 1.419 . S
C1735 C1736 1.362 . S
C1736 H1728 0.930 . S
C1736 C1735 1.362 . S
C1736 C1739 1.409 . S
C1737 H1729 0.930 . S
C1737 C1738 1.355 1_655 S
C1737 C1739 1.415 . S
C1738 C1737 1.355 1_455 S
C1738 C1740 1.419 . S
C1739 C1734 1.425 1_655 S
C1739 C1736 1.409 . S
C1739 C1737 1.415 . S
C1740 H1730 0.930 . S
C1740 C1738 1.419 . S
C1740 C1741 1.362 . S
C1741 H1731 0.930 . S
C1741 C1734 1.409 . S
C1741 C1740 1.362 . S
H1742 C1748 0.930 . S
H1743 C1751 0.930 . S
H1744 C1752 0.930 . S
H1745 C1753 0.930 . S
H1746 C1756 0.930 . S
H1747 C1757 0.930 . S
C1748 H1742 0.930 . S
C1748 C1749 1.355 . S
C1748 C1750 1.415 . S
C1749 C1748 1.355 . S
C1749 C1751 1.419 . S
C1750 C1748 1.415 . S
C1750 C1755 1.425 . S
C1750 C1757 1.409 . S
C1751 H1743 0.930 . S
C1751 C1749 1.419 . S
C1751 C1752 1.362 . S
C1752 H1744 0.930 . S
C1752 C1751 1.362 . S
C1752 C1755 1.409 . S
C1753 H1745 0.930 . S
C1753 C1754 1.355 . S
C1753 C1755 1.415 . S
C1754 C1753 1.355 . S
C1754 C1756 1.419 . S
C1755 C1750 1.425 . S
C1755 C1752 1.409 . S
C1755 C1753 1.415 . S
C1756 H1746 0.930 . S
C1756 C1754 1.419 . S
C1756 C1757 1.362 . S
C1757 H1747 0.930 . S
C1757 C1750 1.409 . S
C1757 C1756 1.362 . S
H1758 C1764 0.930 . S
H1759 C1767 0.930 . S
H1760 C1768 0.930 . S
H1761 C1769 0.930 . S
H1762 C1772 0.930 . S
H1763 C1773 0.930 . S
C1764 H1758 0.930 . S
C1764 C1765 1.355 . S
C1764 C1766 1.415 . S
C1765 C1764 1.355 . S
C1765 C1767 1.419 . S
C1766 C1764 1.415 . S
C1766 C1771 1.425 . S
C1766 C1773 1.409 . S
C1767 H1759 0.930 . S
C1767 C1765 1.419 . S
C1767 C1768 1.362 . S
C1768 H1760 0.930 . S
C1768 C1767 1.362 . S
C1768 C1771 1.409 . S
C1769 H1761 0.930 . S
C1769 C1770 1.355 . S
C1769 C1771 1.415 . S
C1770 C1769 1.355 . S
C1770 C1772 1.419 . S
C1771 C1766 1.425 . S
C1771 C1768 1.409 . S
C1771 C1769 1.415 . S
C1772 H1762 0.930 . S
C1772 C1770 1.419 . S
C1772 C1773 1.362 . S
C1773 H1763 0.930 . S
C1773 C1766 1.409 . S
C1773 C1772 1.362 . S
H1774 C1780 0.930 . S
H1775 C1783 0.930 . S
H1776 C1784 0.930 . S
H1777 C1785 0.930 . S
H1778 C1788 0.930 . S
H1779 C1789 0.930 . S
C1780 H1774 0.930 . S
C1780 C1781 1.355 . S
C1780 C1782 1.415 . S
C1781 C1780 1.355 . S
C1781 C1783 1.419 . S
C1782 C1780 1.415 . S
C1782 C1787 1.425 . S
C1782 C1789 1.409 . S
C1783 H1775 0.930 . S
C1783 C1781 1.419 . S
C1783 C1784 1.362 . S
C1784 H1776 0.930 . S
C1784 C1783 1.362 . S
C1784 C1787 1.409 . S
C1785 H1777 0.930 . S
C1785 C1786 1.355 . S
C1785 C1787 1.415 . S
C1786 C1785 1.355 . S
C1786 C1788 1.419 . S
C1787 C1782 1.425 . S
C1787 C1784 1.409 . S
C1787 C1785 1.415 . S
C1788 H1778 0.930 . S
C1788 C1786 1.419 . S
C1788 C1789 1.362 . S
C1789 H1779 0.930 . S
C1789 C1782 1.409 . S
C1789 C1788 1.362 . S
H1790 C1796 0.930 . S
H1791 C1799 0.930 . S
H1792 C1800 0.930 . S
H1793 C1801 0.930 . S
H1794 C1804 0.930 . S
H1795 C1805 0.930 . S
C1796 H1790 0.930 . S
C1796 C1797 1.355 . S
C1796 C1798 1.415 . S
C1797 C1796 1.355 . S
C1797 C1799 1.419 . S
C1798 C1796 1.415 . S
C1798 C1803 1.425 . S
C1798 C1805 1.409 . S
C1799 H1791 0.930 . S
C1799 C1797 1.419 . S
C1799 C1800 1.362 . S
C1800 H1792 0.930 . S
C1800 C1799 1.362 . S
C1800 C1803 1.409 . S
C1801 H1793 0.930 . S
C1801 C1802 1.355 . S
C1801 C1803 1.415 . S
C1802 C1801 1.355 . S
C1802 C1804 1.419 . S
C1803 C1798 1.425 . S
C1803 C1800 1.409 . S
C1803 C1801 1.415 . S
C1804 H1794 0.930 . S
C1804 C1802 1.419 . S
C1804 C1805 1.362 . S
C1805 H1795 0.930 . S
C1805 C1798 1.409 . S
C1805 C1804 1.362 . S
H1806 C1812 0.930 . S
H1807 C1815 0.930 . S
H1808 C1816 0.930 . S
H1809 C1817 0.930 . S
H1810 C1820 0.930 . S
H1811 C1821 0.930 . S
C1812 H1806 0.930 . S
C1812 C1813 1.355 . S
C1812 C1814 1.415 . S
C1813 C1812 1.355 . S
C1813 C1815 1.419 . S
C1814 C1812 1.415 . S
C1814 C1819 1.425 . S
C1814 C1821 1.409 . S
C1815 H1807 0.930 . S
C1815 C1813 1.419 . S
C1815 C1816 1.362 . S
C1816 H1808 0.930 . S
C1816 C1815 1.362 . S
C1816 C1819 1.409 . S
C1817 H1809 0.930 . S
C1817 C1818 1.355 . S
C1817 C1819 1.415 . S
C1818 C1817 1.355 . S
C1818 C1820 1.419 . S
C1819 C1814 1.425 . S
C1819 C1816 1.409 . S
C1819 C1817 1.415 . S
C1820 H1810 0.930 . S
C1820 C1818 1.419 . S
C1820 C1821 1.362 . S
C1821 H1811 0.930 . S
C1821 C1814 1.409 . S
C1821 C1820 1.362 . S
H1822 C1828 0.930 . S
H1823 C1831 0.930 . S
H1824 C1832 0.930 . S
H1825 C1833 0.930 . S
H1826 C1836 0.930 . S
H1827 C1837 0.930 . S
C1828 H1822 0.930 . S
C1828 C1829 1.355 . S
C1828 C1830 1.415 . S
C1829 C1828 1.355 . S
C1829 C1831 1.419 . S
C1830 C1828 1.415 . S
C1830 C1835 1.425 . S
C1830 C1837 1.409 . S
C1831 H1823 0.930 . S
C1831 C1829 1.419 . S
C1831 C1832 1.362 . S
C1832 H1824 0.930 . S
C1832 C1831 1.362 . S
C1832 C1835 1.409 . S
C1833 H1825 0.930 . S
C1833 C1834 1.355 . S
C1833 C1835 1.415 . S
C1834 C1833 1.355 . S
C1834 C1836 1.419 . S
C1835 C1830 1.425 . S
C1835 C1832 1.409 . S
C1835 C1833 1.415 . S
C1836 H1826 0.930 . S
C1836 C1834 1.419 . S
C1836 C1837 1.362 . S
C1837 H1827 0.930 . S
C1837 C1830 1.409 . S
C1837 C1836 1.362 . S
H1838 C1844 0.930 . S
H1839 C1847 0.930 . S
H1840 C1848 0.930 . S
H1841 C1849 0.930 . S
H1842 C1852 0.930 . S
H1843 C1853 0.930 . S
C1844 H1838 0.930 . S
C1844 C1845 1.355 . S
C1844 C1846 1.415 . S
C1845 C1844 1.355 . S
C1845 C1847 1.419 . S
C1846 C1844 1.415 . S
C1846 C1851 1.425 . S
C1846 C1853 1.409 . S
C1847 H1839 0.930 . S
C1847 C1845 1.419 . S
C1847 C1848 1.362 . S
C1848 H1840 0.930 . S
C1848 C1847 1.362 . S
C1848 C1851 1.409 . S
C1849 H1841 0.930 . S
C1849 C1850 1.355 . S
C1849 C1851 1.415 . S
C1850 C1849 1.355 . S
C1850 C1852 1.419 . S
C1851 C1846 1.425 . S
C1851 C1848 1.409 . S
C1851 C1849 1.415 . S
C1852 H1842 0.930 . S
C1852 C1850 1.419 . S
C1852 C1853 1.362 . S
C1853 H1843 0.930 . S
C1853 C1846 1.409 . S
C1853 C1852 1.362 . S
H1854 C1860 0.930 . S
H1855 C1863 0.930 . S
H1856 C1864 0.930 . S
H1857 C1865 0.930 . S
H1858 C1868 0.930 . S
H1859 C1869 0.930 . S
C1860 H1854 0.930 . S
C1860 C1861 1.355 . S
C1860 C1862 1.415 . S
C1861 C1860 1.355 . S
C1861 C1863 1.419 . S
C1862 C1860 1.415 . S
C1862 C1867 1.425 . S
C1862 C1869 1.409 . S
C1863 H1855 0.930 . S
C1863 C1861 1.419 . S
C1863 C1864 1.362 . S
C1864 H1856 0.930 . S
C1864 C1863 1.362 . S
C1864 C1867 1.409 . S
C1865 H1857 0.930 . S
C1865 C1866 1.355 . S
C1865 C1867 1.415 . S
C1866 C1865 1.355 . S
C1866 C1868 1.419 . S
C1867 C1862 1.425 . S
C1867 C1864 1.409 . S
C1867 C1865 1.415 . S
C1868 H1858 0.930 . S
C1868 C1866 1.419 . S
C1868 C1869 1.362 . S
C1869 H1859 0.930 . S
C1869 C1862 1.409 . S
C1869 C1868 1.362 . S
H1870 C1876 0.930 . S
H1871 C1879 0.930 . S
H1872 C1880 0.930 . S
H1873 C1881 0.930 . S
H1874 C1884 0.930 . S
H1875 C1885 0.930 . S
C1876 H1870 0.930 . S
C1876 C1877 1.355 . S
C1876 C1878 1.415 . S
C1877 C1876 1.355 . S
C1877 C1879 1.419 . S
C1878 C1876 1.415 . S
C1878 C1883 1.425 . S
C1878 C1885 1.409 . S
C1879 H1871 0.930 . S
C1879 C1877 1.419 . S
C1879 C1880 1.362 . S
C1880 H1872 0.930 . S
C1880 C1879 1.362 . S
C1880 C1883 1.409 . S
C1881 H1873 0.930 . S
C1881 C1882 1.355 . S
C1881 C1883 1.415 . S
C1882 C1881 1.355 . S
C1882 C1884 1.419 . S
C1883 C1878 1.425 . S
C1883 C1880 1.409 . S
C1883 C1881 1.415 . S
C1884 H1874 0.930 . S
C1884 C1882 1.419 . S
C1884 C1885 1.362 . S
C1885 H1875 0.930 . S
C1885 C1878 1.409 . S
C1885 C1884 1.362 . S
H1886 C1892 0.930 . S
H1887 C1895 0.930 . S
H1888 C1896 0.930 . S
H1889 C1897 0.930 . S
H1890 C1900 0.930 . S
H1891 C1901 0.930 . S
C1892 H1886 0.930 . S
C1892 C1893 1.355 . S
C1892 C1894 1.415 . S
C1893 C1892 1.355 . S
C1893 C1895 1.419 . S
C1894 C1892 1.415 . S
C1894 C1899 1.425 . S
C1894 C1901 1.409 . S
C1895 H1887 0.930 . S
C1895 C1893 1.419 . S
C1895 C1896 1.362 . S
C1896 H1888 0.930 . S
C1896 C1895 1.362 . S
C1896 C1899 1.409 . S
C1897 H1889 0.930 . S
C1897 C1898 1.355 . S
C1897 C1899 1.415 . S
C1898 C1897 1.355 . S
C1898 C1900 1.419 . S
C1899 C1894 1.425 . S
C1899 C1896 1.409 . S
C1899 C1897 1.415 . S
C1900 H1890 0.930 . S
C1900 C1898 1.419 . S
C1900 C1901 1.362 . S
C1901 H1891 0.930 . S
C1901 C1894 1.409 . S
C1901 C1900 1.362 . S
H1902 C1908 0.930 . S
H1903 C1911 0.930 . S
H1904 C1912 0.930 . S
H1905 C1913 0.930 . S
H1906 C1916 0.930 . S
H1907 C1917 0.930 . S
C1908 H1902 0.930 . S
C1908 C1909 1.355 . S
C1908 C1910 1.415 . S
C1909 C1908 1.355 . S
C1909 C1911 1.419 . S
C1910 C1908 1.415 . S
C1910 C1915 1.425 . S
C1910 C1917 1.409 . S
C1911 H1903 0.930 . S
C1911 C1909 1.419 . S
C1911 C1912 1.362 . S
C1912 H1904 0.930 . S
C1912 C1911 1.362 . S
C1912 C1915 1.409 . S
C1913 H1905 0.930 . S
C1913 C1914 1.355 . S
C1913 C1915 1.415 . S
C1914 C1913 1.355 . S
C1914 C1916 1.419 . S
C1915 C1910 1.425 . S
C1915 C1912 1.409 . S
C1915 C1913 1.415 . S
C1916 H1906 0.930 . S
C1916 C1914 1.419 . S
C1916 C1917 1.362 . S
C1917 H1907 0.930 . S
C1917 C1910 1.409 . S
C1917 C1916 1.362 . S
H1918 C1924 0.930 . S
H1919 C1927 0.930 . S
H1920 C1928 0.930 . S
H1921 C1929 0.930 . S
H1922 C1932 0.930 . S
H1923 C1933 0.930 . S
C1924 H1918 0.930 . S
C1924 C1925 1.355 . S
C1924 C1926 1.415 . S
C1925 C1924 1.355 . S
C1925 C1927 1.419 . S
C1926 C1924 1.415 . S
C1926 C1931 1.425 . S
C1926 C1933 1.409 . S
C1927 H1919 0.930 . S
C1927 C1925 1.419 . S
C1927 C1928 1.362 . S
C1928 H1920 0.930 . S
C1928 C1927 1.362 . S
C1928 C1931 1.409 . S
C1929 H1921 0.930 . S
C1929 C1930 1.355 . S
C1929 C1931 1.415 . S
C1930 C1929 1.355 . S
C1930 C1932 1.419 . S
C1931 C1926 1.425 . S
C1931 C1928 1.409 . S
C1931 C1929 1.415 . S
C1932 H1922 0.930 . S
C1932 C1930 1.419 . S
C1932 C1933 1.362 . S
C1933 H1923 0.930 . S
C1933 C1926 1.409 . S
C1933 C1932 1.362 . S
H1934 C1940 0.930 . S
H1935 C1943 0.930 . S
H1936 C1944 0.930 . S
H1937 C1945 0.930 . S
H1938 C1948 0.930 . S
H1939 C1949 0.930 . S
C1940 H1934 0.930 . S
C1940 C1941 1.355 . S
C1940 C1942 1.415 . S
C1941 C1940 1.355 . S
C1941 C1943 1.419 . S
C1942 C1940 1.415 . S
C1942 C1947 1.425 . S
C1942 C1949 1.409 . S
C1943 H1935 0.930 . S
C1943 C1941 1.419 . S
C1943 C1944 1.362 . S
C1944 H1936 0.930 . S
C1944 C1943 1.362 . S
C1944 C1947 1.409 . S
C1945 H1937 0.930 . S
C1945 C1946 1.355 . S
C1945 C1947 1.415 . S
C1946 C1945 1.355 . S
C1946 C1948 1.419 . S
C1947 C1942 1.425 . S
C1947 C1944 1.409 . S
C1947 C1945 1.415 . S
C1948 H1938 0.930 . S
C1948 C1946 1.419 . S
C1948 C1949 1.362 . S
C1949 H1939 0.930 . S
C1949 C1942 1.409 . S
C1949 C1948 1.362 . S
H1950 C1956 0.930 . S
H1951 C1959 0.930 . S
H1952 C1960 0.930 . S
H1953 C1961 0.930 . S
H1954 C1964 0.930 . S
H1955 C1965 0.930 . S
C1956 H1950 0.930 . S
C1956 C1957 1.355 . S
C1956 C1958 1.415 . S
C1957 C1956 1.355 . S
C1957 C1959 1.419 . S
C1958 C1956 1.415 . S
C1958 C1963 1.425 . S
C1958 C1965 1.409 . S
C1959 H1951 0.930 . S
C1959 C1957 1.419 . S
C1959 C1960 1.362 . S
C1960 H1952 0.930 . S
C1960 C1959 1.362 . S
C1960 C1963 1.409 . S
C1961 H1953 0.930 . S
C1961 C1962 1.355 . S
C1961 C1963 1.415 . S
C1962 C1961 1.355 . S
C1962 C1964 1.419 . S
C1963 C1958 1.425 . S
C1963 C1960 1.409 . S
C1963 C1961 1.415 . S
C1964 H1954 0.930 . S
C1964 C1962 1.419 . S
C1964 C1965 1.362 . S
C1965 H1955 0.930 . S
C1965 C1958 1.409 . S
C1965 C1964 1.362 . S
H1966 C1972 0.930 . S
H1967 C1975 0.930 . S
H1968 C1976 0.930 . S
H1969 C1977 0.930 . S
H1970 C1980 0.930 . S
H1971 C1981 0.930 . S
C1972 H1966 0.930 . S
C1972 C1973 1.355 . S
C1972 C1974 1.415 . S
C1973 C1972 1.355 . S
C1973 C1975 1.419 . S
C1974 C1972 1.415 . S
C1974 C1979 1.425 . S
C1974 C1981 1.409 . S
C1975 H1967 0.930 . S
C1975 C1973 1.419 . S
C1975 C1976 1.362 . S
C1976 H1968 0.930 . S
C1976 C1975 1.362 . S
C1976 C1979 1.409 . S
C1977 H1969 0.930 . S
C1977 C1978 1.355 . S
C1977 C1979 1.415 . S
C1978 C1977 1.355 . S
C1978 C1980 1.419 . S
C1979 C1974 1.425 . S
C1979 C1976 1.409 . S
C1979 C1977 1.415 . S
C1980 H1970 0.930 . S
C1980 C1978 1.419 . S
C1980 C1981 1.362 . S
C1981 H1971 0.930 . S
C1981 C1974 1.409 . S
C1981 C1980 1.362 . S
H1982 C1988 0.930 . S
H1983 C1991 0.930 . S
H1984 C1992 0.930 . S
H1985 C1993 0.930 . S
H1986 C1996 0.930 . S
H1987 C1997 0.930 . S
C1988 H1982 0.930 . S
C1988 C1989 1.355 . S
C1988 C1990 1.415 . S
C1989 C1988 1.355 . S
C1989 C1991 1.419 . S
C1990 C1988 1.415 . S
C1990 C1995 1.425 . S
C1990 C1997 1.409 . S
C1991 H1983 0.930 . S
C1991 C1989 1.419 . S
C1991 C1992 1.362 . S
C1992 H1984 0.930 . S
C1992 C1991 1.362 . S
C1992 C1995 1.409 . S
C1993 H1985 0.930 . S
C1993 C1994 1.355 . S
C1993 C1995 1.415 . S
C1994 C1993 1.355 . S
C1994 C1996 1.419 . S
C1995 C1990 1.425 . S
C1995 C1992 1.409 . S
C1995 C1993 1.415 . S
C1996 H1986 0.930 . S
C1996 C1994 1.419 . S
C1996 C1997 1.362 . S
C1997 H1987 0.930 . S
C1997 C1990 1.409 . S
C1997 C1996 1.362 . S
H1998 C2004 0.930 . S
H1999 C2007 0.930 . S
H2000 C2008 0.930 . S
H2001 C2009 0.930 . S
H2002 C2012 0.930 . S
H2003 C2013 0.930 . S
C2004 H1998 0.930 . S
C2004 C2005 1.355 . S
C2004 C2006 1.415 . S
C2005 C2004 1.355 . S
C2005 C2007 1.419 . S
C2006 C2004 1.415 . S
C2006 C2011 1.425 . S
C2006 C2013 1.409 . S
C2007 H1999 0.930 . S
C2007 C2005 1.419 . S
C2007 C2008 1.362 . S
C2008 H2000 0.930 . S
C2008 C2007 1.362 . S
C2008 C2011 1.409 . S
C2009 H2001 0.930 . S
C2009 C2010 1.355 . S
C2009 C2011 1.415 . S
C2010 C2009 1.355 . S
C2010 C2012 1.419 . S
C2011 C2006 1.425 . S
C2011 C2008 1.409 . S
C2011 C2009 1.415 . S
C2012 H2002 0.930 . S
C2012 C2010 1.419 . S
C2012 C2013 1.362 . S
C2013 H2003 0.930 . S
C2013 C2006 1.409 . S
C2013 C2012 1.362 . S
H2014 C2020 0.930 . S
H2015 C2023 0.930 . S
H2016 C2024 0.930 . S
H2017 C2025 0.930 . S
H2018 C2028 0.930 . S
H2019 C2029 0.930 . S
C2020 H2014 0.930 . S
C2020 C2021 1.355 . S
C2020 C2022 1.415 . S
C2021 C2020 1.355 . S
C2021 C2023 1.419 . S
C2022 C2020 1.415 . S
C2022 C2027 1.425 . S
C2022 C2029 1.409 . S
C2023 H2015 0.930 . S
C2023 C2021 1.419 . S
C2023 C2024 1.362 . S
C2024 H2016 0.930 . S
C2024 C2023 1.362 . S
C2024 C2027 1.409 . S
C2025 H2017 0.930 . S
C2025 C2026 1.355 . S
C2025 C2027 1.415 . S
C2026 C2025 1.355 . S
C2026 C2028 1.419 . S
C2027 C2022 1.425 . S
C2027 C2024 1.409 . S
C2027 C2025 1.415 . S
C2028 H2018 0.930 . S
C2028 C2026 1.419 . S
C2028 C2029 1.362 . S
C2029 H2019 0.930 . S
C2029 C2022 1.409 . S
C2029 C2028 1.362 . S
H2030 C2036 0.930 . S
H2031 C2039 0.930 . S
H2032 C2040 0.930 . S
H2033 C2041 0.930 . S
H2034 C2044 0.930 . S
H2035 C2045 0.930 . S
C2036 H2030 0.930 . S
C2036 C2037 1.355 . S
C2036 C2038 1.415 . S
C2037 C2036 1.355 . S
C2037 C2039 1.419 . S
C2038 C2036 1.415 . S
C2038 C2043 1.425 . S
C2038 C2045 1.409 . S
C2039 H2031 0.930 . S
C2039 C2037 1.419 . S
C2039 C2040 1.362 . S
C2040 H2032 0.930 . S
C2040 C2039 1.362 . S
C2040 C2043 1.409 . S
C2041 H2033 0.930 . S
C2041 C2042 1.355 . S
C2041 C2043 1.415 . S
C2042 C2041 1.355 . S
C2042 C2044 1.419 . S
C2043 C2038 1.425 . S
C2043 C2040 1.409 . S
C2043 C2041 1.415 . S
C2044 H2034 0.930 . S
C2044 C2042 1.419 . S
C2044 C2045 1.362 . S
C2045 H2035 0.930 . S
C2045 C2038 1.409 . S
C2045 C2044 1.362 . S
H2046 C2052 0.930 . S
H2047 C2055 0.930 . S
H2048 C2056 0.930 . S
H2049 C2057 0.930 . S
H2050 C2060 0.930 . S
H2051 C2061 0.930 . S
C2052 H2046 0.930 . S
C2052 C2053 1.355 . S
C2052 C2054 1.415 . S
C2053 C2052 1.355 . S
C2053 C2055 1.419 . S
C2054 C2052 1.415 . S
C2054 C2059 1.425 . S
C2054 C2061 1.409 . S
C2055 H2047 0.930 . S
C2055 C2053 1.419 . S
C2055 C2056 1.362 . S
C2056 H2048 0.930 . S
C2056 C2055 1.362 . S
C2056 C2059 1.409 . S
C2057 H2049 0.930 . S
C2057 C2058 1.355 . S
C2057 C2059 1.415 . S
C2058 C2057 1.355 . S
C2058 C2060 1.419 . S
C2059 C2054 1.425 . S
C2059 C2056 1.409 . S
C2059 C2057 1.415 . S
C2060 H2050 0.930 . S
C2060 C2058 1.419 . S
C2060 C2061 1.362 . S
C2061 H2051 0.930 . S
C2061 C2054 1.409 . S
C2061 C2060 1.362 . S
H2062 C2068 0.930 . S
H2063 C2071 0.930 . S
H2064 C2072 0.930 . S
H2065 C2073 0.930 . S
H2066 C2076 0.930 . S
H2067 C2077 0.930 . S
C2068 H2062 0.930 . S
C2068 C2069 1.355 . S
C2068 C2070 1.415 . S
C2069 C2068 1.355 . S
C2069 C2071 1.419 . S
C2070 C2068 1.415 . S
C2070 C2075 1.425 . S
C2070 C2077 1.409 . S
C2071 H2063 0.930 . S
C2071 C2069 1.419 . S
C2071 C2072 1.362 . S
C2072 H2064 0.930 . S
C2072 C2071 1.362 . S
C2072 C2075 1.409 . S
C2073 H2065 0.930 . S
C2073 C2074 1.355 . S
C2073 C2075 1.415 . S
C2074 C2073 1.355 . S
C2074 C2076 1.419 . S
C2075 C2070 1.425 . S
C2075 C2072 1.409 . S
C2075 C2073 1.415 . S
C2076 H2066 0.930 . S
C2076 C2074 1.419 . S
C2076 C2077 1.362 . S
C2077 H2067 0.930 . S
C2077 C2070 1.409 . S
C2077 C2076 1.362 . S
H2078 C2084 0.930 . S
H2079 C2087 0.930 . S
H2080 C2088 0.930 . S
H2081 C2089 0.930 . S
H2082 C2092 0.930 . S
H2083 C2093 0.930 . S
C2084 H2078 0.930 . S
C2084 C2085 1.355 . S
C2084 C2086 1.415 . S
C2085 C2084 1.355 . S
C2085 C2087 1.419 . S
C2086 C2084 1.415 . S
C2086 C2091 1.425 . S
C2086 C2093 1.409 . S
C2087 H2079 0.930 . S
C2087 C2085 1.419 . S
C2087 C2088 1.362 . S
C2088 H2080 0.930 . S
C2088 C2087 1.362 . S
C2088 C2091 1.409 . S
C2089 H2081 0.930 . S
C2089 C2090 1.355 . S
C2089 C2091 1.415 . S
C2090 C2089 1.355 . S
C2090 C2092 1.419 . S
C2091 C2086 1.425 . S
C2091 C2088 1.409 . S
C2091 C2089 1.415 . S
C2092 H2082 0.930 . S
C2092 C2090 1.419 . S
C2092 C2093 1.362 . S
C2093 H2083 0.930 . S
C2093 C2086 1.409 . S
C2093 C2092 1.362 . S
H2094 C2100 0.930 . S
H2095 C2103 0.930 . S
H2096 C2104 0.930 . S
H2097 C2105 0.930 . S
H2098 C2108 0.930 . S
H2099 C2109 0.930 . S
C2100 H2094 0.930 . S
C2100 C2101 1.355 . S
C2100 C2102 1.415 . S
C2101 C2100 1.355 . S
C2101 C2103 1.419 . S
C2102 C2100 1.415 . S
C2102 C2107 1.425 . S
C2102 C2109 1.409 . S
C2103 H2095 0.930 . S
C2103 C2101 1.419 . S
C2103 C2104 1.362 . S
C2104 H2096 0.930 . S
C2104 C2103 1.362 . S
C2104 C2107 1.409 . S
C2105 H2097 0.930 . S
C2105 C2106 1.355 . S
C2105 C2107 1.415 . S
C2106 C2105 1.355 . S
C2106 C2108 1.419 . S
C2107 C2102 1.425 . S
C2107 C2104 1.409 . S
C2107 C2105 1.415 . S
C2108 H2098 0.930 . S
C2108 C2106 1.419 . S
C2108 C2109 1.362 . S
C2109 H2099 0.930 . S
C2109 C2102 1.409 . S
C2109 C2108 1.362 . S
H2110 C2116 0.930 . S
H2111 C2119 0.930 . S
H2112 C2120 0.930 . S
H2113 C2121 0.930 . S
H2114 C2124 0.930 . S
H2115 C2125 0.930 . S
C2116 H2110 0.930 . S
C2116 C2117 1.355 . S
C2116 C2118 1.415 . S
C2117 C2116 1.355 . S
C2117 C2119 1.419 . S
C2118 C2116 1.415 . S
C2118 C2123 1.425 . S
C2118 C2125 1.409 . S
C2119 H2111 0.930 . S
C2119 C2117 1.419 . S
C2119 C2120 1.362 . S
C2120 H2112 0.930 . S
C2120 C2119 1.362 . S
C2120 C2123 1.409 . S
C2121 H2113 0.930 . S
C2121 C2122 1.355 . S
C2121 C2123 1.415 . S
C2122 C2121 1.355 . S
C2122 C2124 1.419 . S
C2123 C2118 1.425 . S
C2123 C2120 1.409 . S
C2123 C2121 1.415 . S
C2124 H2114 0.930 . S
C2124 C2122 1.419 . S
C2124 C2125 1.362 . S
C2125 H2115 0.930 . S
C2125 C2118 1.409 . S
C2125 C2124 1.362 . S
H2126 C2132 0.930 . S
H2127 C2135 0.930 . S
H2128 C2136 0.930 . S
H2129 C2137 0.930 . S
H2130 C2140 0.930 . S
H2131 C2141 0.930 . S
C2132 H2126 0.930 . S
C2132 C2133 1.355 . S
C2132 C2134 1.415 . S
C2133 C2132 1.355 . S
C2133 C2135 1.419 . S
C2134 C2132 1.415 . S
C2134 C2139 1.425 . S
C2134 C2141 1.409 . S
C2135 H2127 0.930 . S
C2135 C2133 1.419 . S
C2135 C2136 1.362 . S
C2136 H2128 0.930 . S
C2136 C2135 1.362 . S
C2136 C2139 1.409 . S
C2137 H2129 0.930 . S
C2137 C2138 1.355 . S
C2137 C2139 1.415 . S
C2138 C2137 1.355 . S
C2138 C2140 1.419 . S
C2139 C2134 1.425 . S
C2139 C2136 1.409 . S
C2139 C2137 1.415 . S
C2140 H2130 0.930 . S
C2140 C2138 1.419 . S
C2140 C2141 1.362 . S
C2141 H2131 0.930 . S
C2141 C2134 1.409 . S
C2141 C2140 1.362 . S
H2142 C2148 0.930 . S
H2143 C2151 0.930 . S
H2144 C2152 0.930 . S
H2145 C2153 0.930 . S
H2146 C2156 0.930 . S
H2147 C2157 0.930 . S
C2148 H2142 0.930 . S
C2148 C2149 1.355 . S
C2148 C2150 1.415 . S
C2149 C2148 1.355 . S
C2149 C2151 1.419 . S
C2150 C2148 1.415 . S
C2150 C2155 1.425 . S
C2150 C2157 1.409 . S
C2151 H2143 0.930 . S
C2151 C2149 1.419 . S
C2151 C2152 1.362 . S
C2152 H2144 0.930 . S
C2152 C2151 1.362 . S
C2152 C2155 1.409 . S
C2153 H2145 0.930 . S
C2153 C2154 1.355 . S
C2153 C2155 1.415 . S
C2154 C2153 1.355 . S
C2154 C2156 1.419 . S
C2155 C2150 1.425 . S
C2155 C2152 1.409 . S
C2155 C2153 1.415 . S
C2156 H2146 0.930 . S
C2156 C2154 1.419 . S
C2156 C2157 1.362 . S
C2157 H2147 0.930 . S
C2157 C2150 1.409 . S
C2157 C2156 1.362 . S
H2158 C2164 0.930 . S
H2159 C2167 0.930 . S
H2160 C2168 0.930 . S
H2161 C2169 0.930 . S
H2162 C2172 0.930 . S
H2163 C2173 0.930 . S
C2164 H2158 0.930 . S
C2164 C2165 1.355 . S
C2164 C2166 1.415 . S
C2165 C2164 1.355 . S
C2165 C2167 1.419 . S
C2166 C2164 1.415 . S
C2166 C2171 1.425 . S
C2166 C2173 1.409 . S
C2167 H2159 0.930 . S
C2167 C2165 1.419 . S
C2167 C2168 1.362 . S
C2168 H2160 0.930 . S
C2168 C2167 1.362 . S
C2168 C2171 1.409 . S
C2169 H2161 0.930 . S
C2169 C2170 1.355 . S
C2169 C2171 1.415 . S
C2170 C2169 1.355 . S
C2170 C2172 1.419 . S
C2171 C2166 1.425 . S
C2171 C2168 1.409 . S
C2171 C2169 1.415 . S
C2172 H2162 0.930 . S
C2172 C2170 1.419 . S
C2172 C2173 1.362 . S
C2173 H2163 0.930 . S
C2173 C2166 1.409 . S
C2173 C2172 1.362 . S
H2174 C2180 0.930 . S
H2175 C2183 0.930 . S
H2176 C2184 0.930 . S
H2177 C2185 0.930 . S
H2178 C2188 0.930 . S
H2179 C2189 0.930 . S
C2180 H2174 0.930 . S
C2180 C2181 1.355 . S
C2180 C2182 1.415 . S
C2181 C2180 1.355 . S
C2181 C2183 1.419 . S
C2182 C2180 1.415 . S
C2182 C2187 1.425 . S
C2182 C2189 1.409 . S
C2183 H2175 0.930 . S
C2183 C2181 1.419 . S
C2183 C2184 1.362 . S
C2184 H2176 0.930 . S
C2184 C2183 1.362 . S
C2184 C2187 1.409 . S
C2185 H2177 0.930 . S
C2185 C2186 1.355 . S
C2185 C2187 1.415 . S
C2186 C2185 1.355 . S
C2186 C2188 1.419 . S
C2187 C2182 1.425 . S
C2187 C2184 1.409 . S
C2187 C2185 1.415 . S
C2188 H2178 0.930 . S
C2188 C2186 1.419 . S
C2188 C2189 1.362 . S
C2189 H2179 0.930 . S
C2189 C2182 1.409 . S
C2189 C2188 1.362 . S
H2190 C2196 0.930 . S
H2191 C2199 0.925 1_554 S
H2192 C2200 0.932 . S
H2193 C2201 0.930 . S
H2194 C2204 0.930 . S
H2195 C2205 0.930 . S
C2196 H2190 0.930 . S
C2196 C2197 1.355 . S
C2196 C2198 1.415 . S
C2197 C2196 1.355 . S
C2197 C2199 1.422 . S
C2198 C2196 1.415 . S
C2198 C2203 1.425 . S
C2198 C2205 1.409 . S
C2199 H2191 0.925 1_556 S
C2199 C2197 1.422 . S
C2199 C2200 1.365 . S
C2200 H2192 0.932 . S
C2200 C2199 1.365 . S
C2200 C2203 1.409 . S
C2201 H2193 0.930 . S
C2201 C2202 1.355 . S
C2201 C2203 1.415 . S
C2202 C2201 1.355 . S
C2202 C2204 1.419 . S
C2203 C2198 1.425 . S
C2203 C2200 1.409 . S
C2203 C2201 1.415 . S
C2204 H2194 0.930 . S
C2204 C2202 1.419 . S
C2204 C2205 1.362 . S
C2205 H2195 0.930 . S
C2205 C2198 1.409 . S
C2205 C2204 1.362 . S
H2206 C2212 0.930 . S
H2207 C2215 0.930 1_554 S
H2208 C2216 0.930 . S
H2209 C2217 0.930 . S
H2210 C2220 0.930 . S
H2211 C2221 0.930 . S
C2212 H2206 0.930 . S
C2212 C2213 1.355 . S
C2212 C2214 1.415 . S
C2213 C2212 1.355 . S
C2213 C2215 1.419 . S
C2214 C2212 1.415 . S
C2214 C2219 1.425 . S
C2214 C2221 1.409 . S
C2215 H2207 0.930 1_556 S
C2215 C2213 1.419 . S
C2215 C2216 1.362 . S
C2216 H2208 0.930 . S
C2216 C2215 1.362 . S
C2216 C2219 1.409 . S
C2217 H2209 0.930 . S
C2217 C2218 1.355 . S
C2217 C2219 1.415 . S
C2218 C2217 1.355 . S
C2218 C2220 1.419 . S
C2219 C2214 1.425 . S
C2219 C2216 1.409 . S
C2219 C2217 1.415 . S
C2220 H2210 0.930 . S
C2220 C2218 1.419 . S
C2220 C2221 1.362 . S
C2221 H2211 0.930 . S
C2221 C2214 1.409 . S
C2221 C2220 1.362 . S
H2222 C2228 0.930 1_556 S
H2223 C2231 0.930 . S
H2224 C2232 0.930 . S
H2225 C2233 0.930 . S
H2226 C2236 0.930 . S
H2227 C2237 0.930 . S
C2228 H2222 0.930 1_554 S
C2228 C2229 1.355 . S
C2228 C2230 1.415 1_554 S
C2229 C2228 1.355 . S
C2229 C2231 1.419 . S
C2230 C2228 1.415 1_556 S
C2230 C2235 1.425 1_556 S
C2230 C2237 1.409 . S
C2231 H2223 0.930 . S
C2231 C2229 1.419 . S
C2231 C2232 1.362 . S
C2232 H2224 0.930 . S
C2232 C2231 1.362 . S
C2232 C2235 1.409 . S
C2233 H2225 0.930 . S
C2233 C2234 1.355 1_554 S
C2233 C2235 1.415 . S
C2234 C2233 1.355 1_556 S
C2234 C2236 1.419 . S
C2235 C2230 1.425 1_554 S
C2235 C2232 1.409 . S
C2235 C2233 1.415 . S
C2236 H2226 0.930 . S
C2236 C2234 1.419 . S
C2236 C2237 1.362 . S
C2237 H2227 0.930 . S
C2237 C2230 1.409 . S
C2237 C2236 1.362 . S
H2238 C2244 0.930 . S
H2239 C2247 0.930 . S
H2240 C2248 0.918 1_554 S
H2241 C2249 0.930 . S
H2242 C2252 0.930 . S
H2243 C2253 0.930 . S
C2244 H2238 0.930 . S
C2244 C2245 1.355 . S
C2244 C2246 1.415 . S
C2245 C2244 1.355 . S
C2245 C2247 1.419 1_556 S
C2246 C2244 1.415 . S
C2246 C2251 1.425 . S
C2246 C2253 1.409 . S
C2247 H2239 0.930 . S
C2247 C2245 1.419 1_554 S
C2247 C2248 1.362 1_554 S
C2248 H2240 0.918 1_556 S
C2248 C2247 1.362 1_556 S
C2248 C2251 1.409 . S
C2249 H2241 0.930 . S
C2249 C2250 1.355 . S
C2249 C2251 1.415 . S
C2250 C2249 1.355 . S
C2250 C2252 1.419 . S
C2251 C2246 1.425 . S
C2251 C2248 1.409 . S
C2251 C2249 1.415 . S
C2252 H2242 0.930 . S
C2252 C2250 1.419 . S
C2252 C2253 1.362 . S
C2253 H2243 0.930 . S
C2253 C2246 1.409 . S
C2253 C2252 1.362 . S
H2254 C2260 0.930 . S
H2255 C2263 0.930 . S
H2256 C2264 0.930 . S
H2257 C2265 0.930 . S
H2258 C2268 0.930 . S
H2259 C2269 0.930 . S
C2260 H2254 0.930 . S
C2260 C2261 1.355 . S
C2260 C2262 1.415 . S
C2261 C2260 1.355 . S
C2261 C2263 1.419 . S
C2262 C2260 1.415 . S
C2262 C2267 1.425 . S
C2262 C2269 1.409 . S
C2263 H2255 0.930 . S
C2263 C2261 1.419 . S
C2263 C2264 1.362 . S
C2264 H2256 0.930 . S
C2264 C2263 1.362 . S
C2264 C2267 1.409 . S
C2265 H2257 0.930 . S
C2265 C2266 1.355 . S
C2265 C2267 1.415 . S
C2266 C2265 1.355 . S
C2266 C2268 1.419 . S
C2267 C2262 1.425 . S
C2267 C2264 1.409 . S
C2267 C2265 1.415 . S
C2268 H2258 0.930 . S
C2268 C2266 1.419 . S
C2268 C2269 1.362 . S
C2269 H2259 0.930 . S
C2269 C2262 1.409 . S
C2269 C2268 1.362 . S
H2270 C2276 0.930 . S
H2271 C2279 0.930 . S
H2272 C2280 0.930 . S
H2273 C2281 0.930 . S
H2274 C2284 0.930 . S
H2275 C2285 0.930 . S
C2276 H2270 0.930 . S
C2276 C2277 1.355 1_556 S
C2276 C2278 1.415 . S
C2277 C2276 1.355 1_554 S
C2277 C2279 1.419 . S
C2278 C2276 1.415 . S
C2278 C2283 1.425 . S
C2278 C2285 1.409 . S
C2279 H2271 0.930 . S
C2279 C2277 1.419 . S
C2279 C2280 1.362 . S
C2280 H2272 0.930 . S
C2280 C2279 1.362 . S
C2280 C2283 1.409 1_554 S
C2281 H2273 0.930 . S
C2281 C2282 1.355 . S
C2281 C2283 1.415 . S
C2282 C2281 1.355 . S
C2282 C2284 1.419 . S
C2283 C2278 1.425 . S
C2283 C2280 1.409 1_556 S
C2283 C2281 1.415 . S
C2284 H2274 0.930 . S
C2284 C2282 1.419 . S
C2284 C2285 1.362 . S
C2285 H2275 0.930 . S
C2285 C2278 1.409 . S
C2285 C2284 1.362 . S
H2286 C2292 0.930 . S
H2287 C2295 0.930 . S
H2288 C2296 0.930 . S
H2289 C2297 0.930 . S
H2290 C2300 0.930 . S
H2291 C2301 0.930 . S
C2292 H2286 0.930 . S
C2292 C2293 1.355 . S
C2292 C2294 1.415 . S
C2293 C2292 1.355 . S
C2293 C2295 1.419 . S
C2294 C2292 1.415 . S
C2294 C2299 1.425 . S
C2294 C2301 1.409 . S
C2295 H2287 0.930 . S
C2295 C2293 1.419 . S
C2295 C2296 1.362 . S
C2296 H2288 0.930 . S
C2296 C2295 1.362 . S
C2296 C2299 1.409 . S
C2297 H2289 0.930 . S
C2297 C2298 1.355 . S
C2297 C2299 1.415 . S
C2298 C2297 1.355 . S
C2298 C2300 1.419 . S
C2299 C2294 1.425 . S
C2299 C2296 1.409 . S
C2299 C2297 1.415 . S
C2300 H2290 0.930 . S
C2300 C2298 1.419 . S
C2300 C2301 1.362 . S
C2301 H2291 0.930 . S
C2301 C2294 1.409 . S
C2301 C2300 1.362 . S
H2302 C2308 0.930 . S
H2303 C2311 0.930 . S
H2304 C2312 0.930 . S
H2305 C2313 0.930 . S
H2306 C2316 0.930 . S
H2307 C2317 0.930 . S
C2308 H2302 0.930 . S
C2308 C2309 1.355 . S
C2308 C2310 1.415 . S
C2309 C2308 1.355 . S
C2309 C2311 1.419 . S
C2310 C2308 1.415 . S
C2310 C2315 1.425 . S
C2310 C2317 1.409 . S
C2311 H2303 0.930 . S
C2311 C2309 1.419 . S
C2311 C2312 1.362 . S
C2312 H2304 0.930 . S
C2312 C2311 1.362 . S
C2312 C2315 1.409 . S
C2313 H2305 0.930 . S
C2313 C2314 1.355 . S
C2313 C2315 1.415 . S
C2314 C2313 1.355 . S
C2314 C2316 1.419 . S
C2315 C2310 1.425 . S
C2315 C2312 1.409 . S
C2315 C2313 1.415 . S
C2316 H2306 0.930 . S
C2316 C2314 1.419 . S
C2316 C2317 1.362 . S
C2317 H2307 0.930 . S
C2317 C2310 1.409 . S
C2317 C2316 1.362 . S
H2318 C2324 0.930 . S
H2319 C2327 0.930 . S
H2320 C2328 0.930 . S
H2321 C2329 0.930 . S
H2322 C2332 0.930 . S
H2323 C2333 0.930 . S
C2324 H2318 0.930 . S
C2324 C2325 1.355 . S
C2324 C2326 1.415 . S
C2325 C2324 1.355 . S
C2325 C2327 1.419 . S
C2326 C2324 1.415 . S
C2326 C2331 1.425 . S
C2326 C2333 1.409 . S
C2327 H2319 0.930 . S
C2327 C2325 1.419 . S
C2327 C2328 1.362 . S
C2328 H2320 0.930 . S
C2328 C2327 1.362 . S
C2328 C2331 1.409 . S
C2329 H2321 0.930 . S
C2329 C2330 1.355 . S
C2329 C2331 1.415 . S
C2330 C2329 1.355 . S
C2330 C2332 1.419 . S
C2331 C2326 1.425 . S
C2331 C2328 1.409 . S
C2331 C2329 1.415 . S
C2332 H2322 0.930 . S
C2332 C2330 1.419 . S
C2332 C2333 1.362 . S
C2333 H2323 0.930 . S
C2333 C2326 1.409 . S
C2333 C2332 1.362 . S
H2334 C2340 0.930 . S
H2335 C2343 0.930 . S
H2336 C2344 0.930 . S
H2337 C2345 0.930 . S
H2338 C2348 0.930 . S
H2339 C2349 0.930 . S
C2340 H2334 0.930 . S
C2340 C2341 1.355 . S
C2340 C2342 1.415 . S
C2341 C2340 1.355 . S
C2341 C2343 1.419 . S
C2342 C2340 1.415 . S
C2342 C2347 1.425 . S
C2342 C2349 1.409 . S
C2343 H2335 0.930 . S
C2343 C2341 1.419 . S
C2343 C2344 1.362 . S
C2344 H2336 0.930 . S
C2344 C2343 1.362 . S
C2344 C2347 1.409 . S
C2345 H2337 0.930 . S
C2345 C2346 1.355 . S
C2345 C2347 1.415 . S
C2346 C2345 1.355 . S
C2346 C2348 1.419 . S
C2347 C2342 1.425 . S
C2347 C2344 1.409 . S
C2347 C2345 1.415 . S
C2348 H2338 0.930 . S
C2348 C2346 1.419 . S
C2348 C2349 1.362 . S
C2349 H2339 0.930 . S
C2349 C2342 1.409 . S
C2349 C2348 1.362 . S
H2350 C2356 0.930 . S
H2351 C2359 0.930 . S
H2352 C2360 0.930 . S
H2353 C2361 0.930 . S
H2354 C2364 0.930 . S
H2355 C2365 0.930 . S
C2356 H2350 0.930 . S
C2356 C2357 1.355 . S
C2356 C2358 1.415 . S
C2357 C2356 1.355 . S
C2357 C2359 1.419 . S
C2358 C2356 1.415 . S
C2358 C2363 1.425 . S
C2358 C2365 1.409 . S
C2359 H2351 0.930 . S
C2359 C2357 1.419 . S
C2359 C2360 1.362 . S
C2360 H2352 0.930 . S
C2360 C2359 1.362 . S
C2360 C2363 1.409 . S
C2361 H2353 0.930 . S
C2361 C2362 1.355 . S
C2361 C2363 1.415 . S
C2362 C2361 1.355 . S
C2362 C2364 1.419 . S
C2363 C2358 1.425 . S
C2363 C2360 1.409 . S
C2363 C2361 1.415 . S
C2364 H2354 0.930 . S
C2364 C2362 1.419 . S
C2364 C2365 1.362 . S
C2365 H2355 0.930 . S
C2365 C2358 1.409 . S
C2365 C2364 1.362 . S
H2366 C2372 0.930 1_455 S
H2367 C2375 0.930 . S
H2368 C2376 0.930 . S
H2369 C2377 0.930 . S
H2370 C2380 0.930 . S
H2371 C2381 0.930 . S
C2372 H2366 0.930 1_655 S
C2372 C2373 1.355 . S
C2372 C2374 1.415 . S
C2373 C2372 1.355 . S
C2373 C2375 1.419 . S
C2374 C2372 1.415 . S
C2374 C2379 1.425 . S
C2374 C2381 1.409 . S
C2375 H2367 0.930 . S
C2375 C2373 1.419 . S
C2375 C2376 1.362 . S
C2376 H2368 0.930 . S
C2376 C2375 1.362 . S
C2376 C2379 1.409 . S
C2377 H2369 0.930 . S
C2377 C2378 1.355 . S
C2377 C2379 1.415 . S
C2378 C2377 1.355 . S
C2378 C2380 1.419 . S
C2379 C2374 1.425 . S
C2379 C2376 1.409 . S
C2379 C2377 1.415 . S
C2380 H2370 0.930 . S
C2380 C2378 1.419 . S
C2380 C2381 1.362 . S
C2381 H2371 0.930 . S
C2381 C2374 1.409 . S
C2381 C2380 1.362 . S
H2382 C2388 0.930 . S
H2383 C2391 0.930 . S
H2384 C2392 0.930 1_655 S
H2385 C2393 0.930 1_655 S
H2386 C2396 0.930 . S
H2387 C2397 0.930 . S
C2388 H2382 0.930 . S
C2388 C2389 1.355 . S
C2388 C2390 1.415 . S
C2389 C2388 1.355 . S
C2389 C2391 1.419 . S
C2390 C2388 1.415 . S
C2390 C2395 1.425 . S
C2390 C2397 1.409 . S
C2391 H2383 0.930 . S
C2391 C2389 1.419 . S
C2391 C2392 1.362 . S
C2392 H2384 0.930 1_455 S
C2392 C2391 1.362 . S
C2392 C2395 1.409 . S
C2393 H2385 0.930 1_455 S
C2393 C2394 1.355 . S
C2393 C2395 1.415 . S
C2394 C2393 1.355 . S
C2394 C2396 1.419 . S
C2395 C2390 1.425 . S
C2395 C2392 1.409 . S
C2395 C2393 1.415 . S
C2396 H2386 0.930 . S
C2396 C2394 1.419 . S
C2396 C2397 1.362 . S
C2397 H2387 0.930 . S
C2397 C2390 1.409 . S
C2397 C2396 1.362 . S
H2398 C2404 0.930 . S
H2399 C2407 0.930 . S
H2400 C2408 0.930 . S
H2401 C2409 0.930 . S
H2402 C2412 0.930 . S
H2403 C2413 0.930 . S
C2404 H2398 0.930 . S
C2404 C2405 1.355 . S
C2404 C2406 1.415 . S
C2405 C2404 1.355 . S
C2405 C2407 1.419 . S
C2406 C2404 1.415 . S
C2406 C2411 1.425 . S
C2406 C2413 1.409 . S
C2407 H2399 0.930 . S
C2407 C2405 1.419 . S
C2407 C2408 1.362 . S
C2408 H2400 0.930 . S
C2408 C2407 1.362 . S
C2408 C2411 1.409 . S
C2409 H2401 0.930 . S
C2409 C2410 1.355 . S
C2409 C2411 1.415 . S
C2410 C2409 1.355 . S
C2410 C2412 1.419 . S
C2411 C2406 1.425 . S
C2411 C2408 1.409 . S
C2411 C2409 1.415 . S
C2412 H2402 0.930 . S
C2412 C2410 1.419 . S
C2412 C2413 1.362 . S
C2413 H2403 0.930 . S
C2413 C2406 1.409 . S
C2413 C2412 1.362 . S
H2414 C2420 0.930 . S
H2415 C2423 0.930 . S
H2416 C2424 0.930 1_545 S
H2417 C2425 0.929 . S
H2418 C2428 0.930 . S
H2419 C2429 0.930 . S
C2420 H2414 0.930 . S
C2420 C2421 1.355 . S
C2420 C2422 1.415 . S
C2421 C2420 1.355 . S
C2421 C2423 1.419 . S
C2422 C2420 1.415 . S
C2422 C2427 1.425 . S
C2422 C2429 1.409 . S
C2423 H2415 0.930 . S
C2423 C2421 1.419 . S
C2423 C2424 1.362 . S
C2424 H2416 0.930 1_565 S
C2424 C2423 1.362 . S
C2424 C2427 1.409 . S
C2425 H2417 0.929 . S
C2425 C2426 1.355 . S
C2425 C2427 1.415 . S
C2426 C2425 1.355 . S
C2426 C2428 1.419 . S
C2427 C2422 1.425 . S
C2427 C2424 1.409 . S
C2427 C2425 1.415 . S
C2428 H2418 0.930 . S
C2428 C2426 1.419 . S
C2428 C2429 1.362 . S
C2429 H2419 0.930 . S
C2429 C2422 1.409 . S
C2429 C2428 1.362 . S
H2430 C2436 0.930 . S
H2431 C2439 0.922 1_545 S
H2432 C2440 0.930 . S
H2433 C2441 0.930 . S
H2434 C2444 0.930 . S
H2435 C2445 0.930 . S
C2436 H2430 0.930 . S
C2436 C2437 1.355 . S
C2436 C2438 1.415 . S
C2437 C2436 1.355 . S
C2437 C2439 1.468 . S
C2438 C2436 1.415 . S
C2438 C2443 1.425 . S
C2438 C2445 1.409 . S
C2439 H2431 0.922 1_565 S
C2439 C2437 1.468 . S
C2439 C2440 1.323 1_565 S
C2440 H2432 0.930 . S
C2440 C2439 1.323 1_545 S
C2440 C2443 1.409 1_545 S
C2441 H2433 0.930 . S
C2441 C2442 1.355 1_545 S
C2441 C2443 1.415 1_545 S
C2442 C2441 1.355 1_565 S
C2442 C2444 1.419 . S
C2443 C2438 1.425 . S
C2443 C2440 1.409 1_565 S
C2443 C2441 1.415 1_565 S
C2444 H2434 0.930 . S
C2444 C2442 1.419 . S
C2444 C2445 1.362 . S
C2445 H2435 0.930 . S
C2445 C2438 1.409 . S
C2445 C2444 1.362 . S
H2446 C2452 0.930 . S
H2447 C2455 0.930 . S
H2448 C2456 0.930 . S
H2449 C2457 0.930 . S
H2450 C2460 0.933 . S
H2451 C2461 0.930 . S
C2452 H2446 0.930 . S
C2452 C2453 1.355 . S
C2452 C2454 1.415 . S
C2453 C2452 1.355 . S
C2453 C2455 1.419 . S
C2454 C2452 1.415 . S
C2454 C2459 1.425 . S
C2454 C2461 1.409 . S
C2455 H2447 0.930 . S
C2455 C2453 1.419 . S
C2455 C2456 1.362 . S
C2456 H2448 0.930 . S
C2456 C2455 1.362 . S
C2456 C2459 1.409 . S
C2457 H2449 0.930 . S
C2457 C2458 1.355 . S
C2457 C2459 1.415 . S
C2458 C2457 1.355 . S
C2458 C2460 1.419 . S
C2459 C2454 1.425 . S
C2459 C2456 1.409 . S
C2459 C2457 1.415 . S
C2460 H2450 0.933 . S
C2460 C2458 1.419 . S
C2460 C2461 1.362 . S
C2461 H2451 0.930 . S
C2461 C2454 1.409 . S
C2461 C2460 1.362 . S
H2462 C2468 0.930 . S
H2463 C2471 0.930 . S
H2464 C2472 0.930 . S
H2465 C2473 0.930 . S
H2466 C2476 0.930 . S
H2467 C2477 0.930 . S
C2468 H2462 0.930 . S
C2468 C2469 1.355 . S
C2468 C2470 1.415 . S
C2469 C2468 1.355 . S
C2469 C2471 1.419 . S
C2470 C2468 1.415 . S
C2470 C2475 1.425 . S
C2470 C2477 1.409 . S
C2471 H2463 0.930 . S
C2471 C2469 1.419 . S
C2471 C2472 1.362 . S
C2472 H2464 0.930 . S
C2472 C2471 1.362 . S
C2472 C2475 1.409 . S
C2473 H2465 0.930 . S
C2473 C2474 1.355 . S
C2473 C2475 1.415 . S
C2474 C2473 1.355 . S
C2474 C2476 1.419 . S
C2475 C2470 1.425 . S
C2475 C2472 1.409 . S
C2475 C2473 1.415 . S
C2476 H2466 0.930 . S
C2476 C2474 1.419 . S
C2476 C2477 1.362 . S
C2477 H2467 0.930 . S
C2477 C2470 1.409 . S
C2477 C2476 1.362 . S
H2478 C2484 0.930 . S
H2479 C2487 0.930 . S
H2480 C2488 0.930 . S
H2481 C2489 0.930 . S
H2482 C2492 0.930 . S
H2483 C2493 0.930 . S
C2484 H2478 0.930 . S
C2484 C2485 1.355 . S
C2484 C2486 1.415 . S
C2485 C2484 1.355 . S
C2485 C2487 1.419 . S
C2486 C2484 1.415 . S
C2486 C2491 1.425 . S
C2486 C2493 1.409 . S
C2487 H2479 0.930 . S
C2487 C2485 1.419 . S
C2487 C2488 1.362 . S
C2488 H2480 0.930 . S
C2488 C2487 1.362 . S
C2488 C2491 1.409 . S
C2489 H2481 0.930 . S
C2489 C2490 1.355 . S
C2489 C2491 1.415 . S
C2490 C2489 1.355 . S
C2490 C2492 1.419 . S
C2491 C2486 1.425 . S
C2491 C2488 1.409 . S
C2491 C2489 1.415 . S
C2492 H2482 0.930 . S
C2492 C2490 1.419 . S
C2492 C2493 1.362 . S
C2493 H2483 0.930 . S
C2493 C2486 1.409 . S
C2493 C2492 1.362 . S
H2494 C2500 0.930 . S
H2495 C2503 0.930 . S
H2496 C2504 0.930 . S
H2497 C2505 0.930 . S
H2498 C2508 0.930 . S
H2499 C2509 0.930 . S
C2500 H2494 0.930 . S
C2500 C2501 1.355 . S
C2500 C2502 1.415 . S
C2501 C2500 1.355 . S
C2501 C2503 1.419 . S
C2502 C2500 1.415 . S
C2502 C2507 1.425 . S
C2502 C2509 1.409 . S
C2503 H2495 0.930 . S
C2503 C2501 1.419 . S
C2503 C2504 1.362 . S
C2504 H2496 0.930 . S
C2504 C2503 1.362 . S
C2504 C2507 1.409 . S
C2505 H2497 0.930 . S
C2505 C2506 1.355 . S
C2505 C2507 1.415 . S
C2506 C2505 1.355 . S
C2506 C2508 1.419 . S
C2507 C2502 1.425 . S
C2507 C2504 1.409 . S
C2507 C2505 1.415 . S
C2508 H2498 0.930 . S
C2508 C2506 1.419 . S
C2508 C2509 1.362 . S
C2509 H2499 0.930 . S
C2509 C2502 1.409 . S
C2509 C2508 1.362 . S
H2510 C2516 0.930 . S
H2511 C2519 0.930 . S
H2512 C2520 0.930 . S
H2513 C2521 0.930 . S
H2514 C2524 0.930 . S
H2515 C2525 0.930 . S
C2516 H2510 0.930 . S
C2516 C2517 1.355 . S
C2516 C2518 1.415 . S
C2517 C2516 1.355 . S
C2517 C2519 1.419 . S
C2518 C2516 1.415 . S
C2518 C2523 1.425 . S
C2518 C2525 1.409 . S
C2519 H2511 0.930 . S
C2519 C2517 1.419 . S
C2519 C2520 1.362 . S
C2520 H2512 0.930 . S
C2520 C2519 1.362 . S
C2520 C2523 1.409 . S
C2521 H2513 0.930 . S
C2521 C2522 1.355 . S
C2521 C2523 1.415 . S
C2522 C2521 1.355 . S
C2522 C2524 1.419 . S
C2523 C2518 1.425 . S
C2523 C2520 1.409 . S
C2523 C2521 1.415 . S
C2524 H2514 0.930 . S
C2524 C2522 1.419 . S
C2524 C2525 1.362 . S
C2525 H2515 0.930 . S
C2525 C2518 1.409 . S
C2525 C2524 1.362 . S
H2526 C2532 0.930 1_565 S
H2527 C2535 0.930 . S
H2528 C2536 0.930 . S
H2529 C2537 0.930 . S
H2530 C2540 0.930 . S
H2531 C2541 0.930 . S
C2532 H2526 0.930 1_545 S
C2532 C2533 1.355 . S
C2532 C2534 1.415 . S
C2533 C2532 1.355 . S
C2533 C2535 1.419 . S
C2534 C2532 1.415 . S
C2534 C2539 1.425 . S
C2534 C2541 1.409 1_545 S
C2535 H2527 0.930 . S
C2535 C2533 1.419 . S
C2535 C2536 1.362 . S
C2536 H2528 0.930 . S
C2536 C2535 1.362 . S
C2536 C2539 1.409 . S
C2537 H2529 0.930 . S
C2537 C2538 1.355 . S
C2537 C2539 1.415 . S
C2538 C2537 1.355 . S
C2538 C2540 1.419 1_545 S
C2539 C2534 1.425 . S
C2539 C2536 1.409 . S
C2539 C2537 1.415 . S
C2540 H2530 0.930 . S
C2540 C2538 1.419 1_565 S
C2540 C2541 1.362 . S
C2541 H2531 0.930 . S
C2541 C2534 1.409 1_565 S
C2541 C2540 1.362 . S
H2542 C2548 0.930 . S
H2543 C2551 0.930 . S
H2544 C2552 0.930 . S
H2545 C2553 0.930 . S
H2546 C2556 0.930 . S
H2547 C2557 0.930 . S
C2548 H2542 0.930 . S
C2548 C2549 1.355 . S
C2548 C2550 1.415 . S
C2549 C2548 1.355 . S
C2549 C2551 1.419 . S
C2550 C2548 1.415 . S
C2550 C2555 1.425 . S
C2550 C2557 1.409 1_655 S
C2551 H2543 0.930 . S
C2551 C2549 1.419 . S
C2551 C2552 1.362 . S
C2552 H2544 0.930 . S
C2552 C2551 1.362 . S
C2552 C2555 1.409 . S
C2553 H2545 0.930 . S
C2553 C2554 1.355 . S
C2553 C2555 1.415 . S
C2554 C2553 1.355 . S
C2554 C2556 1.419 1_655 S
C2555 C2550 1.425 . S
C2555 C2552 1.409 . S
C2555 C2553 1.415 . S
C2556 H2546 0.930 . S
C2556 C2554 1.419 1_455 S
C2556 C2557 1.362 . S
C2557 H2547 0.930 . S
C2557 C2550 1.409 1_455 S
C2557 C2556 1.362 . S
H2558 C2564 0.930 . S
H2559 C2567 0.930 . S
H2560 C2568 0.930 . S
H2561 C2569 0.930 . S
H2562 C2572 0.930 . S
H2563 C2573 0.930 . S
C2564 H2558 0.930 . S
C2564 C2565 1.355 . S
C2564 C2566 1.415 . S
C2565 C2564 1.355 . S
C2565 C2567 1.419 . S
C2566 C2564 1.415 . S
C2566 C2571 1.425 . S
C2566 C2573 1.409 . S
C2567 H2559 0.930 . S
C2567 C2565 1.419 . S
C2567 C2568 1.362 . S
C2568 H2560 0.930 . S
C2568 C2567 1.362 . S
C2568 C2571 1.409 . S
C2569 H2561 0.930 . S
C2569 C2570 1.355 . S
C2569 C2571 1.415 . S
C2570 C2569 1.355 . S
C2570 C2572 1.419 . S
C2571 C2566 1.425 . S
C2571 C2568 1.409 . S
C2571 C2569 1.415 . S
C2572 H2562 0.930 . S
C2572 C2570 1.419 . S
C2572 C2573 1.362 . S
C2573 H2563 0.930 . S
C2573 C2566 1.409 . S
C2573 C2572 1.362 . S
H2574 C2580 0.930 . S
H2575 C2583 0.930 . S
H2576 C2584 0.930 . S
H2577 C2585 0.930 . S
H2578 C2588 0.930 . S
H2579 C2589 0.930 . S
C2580 H2574 0.930 . S
C2580 C2581 1.355 . S
C2580 C2582 1.415 . S
C2581 C2580 1.355 . S
C2581 C2583 1.419 . S
C2582 C2580 1.415 . S
C2582 C2587 1.425 . S
C2582 C2589 1.409 . S
C2583 H2575 0.930 . S
C2583 C2581 1.419 . S
C2583 C2584 1.362 . S
C2584 H2576 0.930 . S
C2584 C2583 1.362 . S
C2584 C2587 1.409 . S
C2585 H2577 0.930 . S
C2585 C2586 1.355 . S
C2585 C2587 1.415 . S
C2586 C2585 1.355 . S
C2586 C2588 1.419 . S
C2587 C2582 1.425 . S
C2587 C2584 1.409 . S
C2587 C2585 1.415 . S
C2588 H2578 0.930 . S
C2588 C2586 1.419 . S
C2588 C2589 1.362 . S
C2589 H2579 0.930 . S
C2589 C2582 1.409 . S
C2589 C2588 1.362 . S
H2590 C2596 0.930 . S
H2591 C2599 0.930 . S
H2592 C2600 0.930 . S
H2593 C2601 0.930 . S
H2594 C2604 0.930 . S
H2595 C2605 0.930 . S
C2596 H2590 0.930 . S
C2596 C2597 1.355 . S
C2596 C2598 1.415 . S
C2597 C2596 1.355 . S
C2597 C2599 1.419 . S
C2598 C2596 1.415 . S
C2598 C2603 1.425 . S
C2598 C2605 1.409 . S
C2599 H2591 0.930 . S
C2599 C2597 1.419 . S
C2599 C2600 1.362 . S
C2600 H2592 0.930 . S
C2600 C2599 1.362 . S
C2600 C2603 1.409 . S
C2601 H2593 0.930 . S
C2601 C2602 1.355 . S
C2601 C2603 1.415 . S
C2602 C2601 1.355 . S
C2602 C2604 1.419 . S
C2603 C2598 1.425 . S
C2603 C2600 1.409 . S
C2603 C2601 1.415 . S
C2604 H2594 0.930 . S
C2604 C2602 1.419 . S
C2604 C2605 1.362 . S
C2605 H2595 0.930 . S
C2605 C2598 1.409 . S
C2605 C2604 1.362 . S
H2606 C2612 0.930 . S
H2607 C2615 0.965 . S
H2608 C2616 0.930 . S
H2609 C2617 0.930 . S
H2610 C2620 0.930 . S
H2611 C2621 0.930 . S
C2612 H2606 0.930 . S
C2612 C2613 1.355 . S
C2612 C2614 1.415 . S
C2613 C2612 1.355 . S
C2613 C2615 1.419 . S
C2614 C2612 1.415 . S
C2614 C2619 1.425 . S
C2614 C2621 1.409 . S
C2615 H2607 0.965 . S
C2615 C2613 1.419 . S
C2615 C2616 1.362 . S
C2616 H2608 0.930 . S
C2616 C2615 1.362 . S
C2616 C2619 1.409 . S
C2617 H2609 0.930 . S
C2617 C2618 1.355 . S
C2617 C2619 1.415 . S
C2618 C2617 1.355 . S
C2618 C2620 1.419 . S
C2619 C2614 1.425 . S
C2619 C2616 1.409 . S
C2619 C2617 1.415 . S
C2620 H2610 0.930 . S
C2620 C2618 1.419 . S
C2620 C2621 1.362 . S
C2621 H2611 0.930 . S
C2621 C2614 1.409 . S
C2621 C2620 1.362 . S
H2622 C2628 0.930 . S
H2623 C2631 0.930 . S
H2624 C2632 0.930 . S
H2625 C2633 0.930 . S
H2626 C2636 0.930 . S
H2627 C2637 0.930 . S
C2628 H2622 0.930 . S
C2628 C2629 1.355 . S
C2628 C2630 1.415 . S
C2629 C2628 1.355 . S
C2629 C2631 1.419 . S
C2630 C2628 1.415 . S
C2630 C2635 1.425 . S
C2630 C2637 1.409 . S
C2631 H2623 0.930 . S
C2631 C2629 1.419 . S
C2631 C2632 1.362 . S
C2632 H2624 0.930 . S
C2632 C2631 1.362 . S
C2632 C2635 1.409 . S
C2633 H2625 0.930 . S
C2633 C2634 1.355 . S
C2633 C2635 1.415 . S
C2634 C2633 1.355 . S
C2634 C2636 1.419 . S
C2635 C2630 1.425 . S
C2635 C2632 1.409 . S
C2635 C2633 1.415 . S
C2636 H2626 0.930 . S
C2636 C2634 1.419 . S
C2636 C2637 1.362 . S
C2637 H2627 0.930 . S
C2637 C2630 1.409 . S
C2637 C2636 1.362 . S
H2638 C2644 0.930 . S
H2639 C2647 0.930 . S
H2640 C2648 0.930 . S
H2641 C2649 0.930 . S
H2642 C2652 0.930 . S
H2643 C2653 0.930 . S
C2644 H2638 0.930 . S
C2644 C2645 1.355 . S
C2644 C2646 1.415 . S
C2645 C2644 1.355 . S
C2645 C2647 1.419 . S
C2646 C2644 1.415 . S
C2646 C2651 1.425 . S
C2646 C2653 1.409 . S
C2647 H2639 0.930 . S
C2647 C2645 1.419 . S
C2647 C2648 1.362 . S
C2648 H2640 0.930 . S
C2648 C2647 1.362 . S
C2648 C2651 1.409 . S
C2649 H2641 0.930 . S
C2649 C2650 1.355 . S
C2649 C2651 1.415 . S
C2650 C2649 1.355 . S
C2650 C2652 1.419 . S
C2651 C2646 1.425 . S
C2651 C2648 1.409 . S
C2651 C2649 1.415 . S
C2652 H2642 0.930 . S
C2652 C2650 1.419 . S
C2652 C2653 1.362 . S
C2653 H2643 0.930 . S
C2653 C2646 1.409 . S
C2653 C2652 1.362 . S
H2654 C2660 0.930 . S
H2655 C2663 0.930 1_655 S
H2656 C2664 0.930 . S
H2657 C2665 0.930 . S
H2658 C2668 0.930 . S
H2659 C2669 0.930 . S
C2660 H2654 0.930 . S
C2660 C2661 1.355 . S
C2660 C2662 1.415 . S
C2661 C2660 1.355 . S
C2661 C2663 1.419 . S
C2662 C2660 1.415 . S
C2662 C2667 1.425 . S
C2662 C2669 1.409 . S
C2663 H2655 0.930 1_455 S
C2663 C2661 1.419 . S
C2663 C2664 1.362 . S
C2664 H2656 0.930 . S
C2664 C2663 1.362 . S
C2664 C2667 1.409 . S
C2665 H2657 0.930 . S
C2665 C2666 1.355 . S
C2665 C2667 1.415 . S
C2666 C2665 1.355 . S
C2666 C2668 1.419 . S
C2667 C2662 1.425 . S
C2667 C2664 1.409 . S
C2667 C2665 1.415 . S
C2668 H2658 0.930 . S
C2668 C2666 1.419 . S
C2668 C2669 1.362 . S
C2669 H2659 0.930 . S
C2669 C2662 1.409 . S
C2669 C2668 1.362 . S
H2670 C2676 0.930 . S
H2671 C2679 0.930 . S
H2672 C2680 0.906 1_455 S
H2673 C2681 0.978 . S
H2674 C2684 0.930 . S
H2675 C2685 0.930 . S
C2676 H2670 0.930 . S
C2676 C2677 1.355 . S
C2676 C2678 1.415 . S
C2677 C2676 1.355 . S
C2677 C2679 1.419 . S
C2678 C2676 1.415 . S
C2678 C2683 1.425 . S
C2678 C2685 1.409 . S
C2679 H2671 0.930 . S
C2679 C2677 1.419 . S
C2679 C2680 1.386 . S
C2680 H2672 0.906 1_655 S
C2680 C2679 1.386 . S
C2680 C2683 1.410 . S
C2681 H2673 0.978 . S
C2681 C2682 1.354 1_455 S
C2681 C2683 1.369 1_455 S
C2682 C2681 1.354 1_655 S
C2682 C2684 1.419 . S
C2683 C2678 1.425 . S
C2683 C2680 1.410 . S
C2683 C2681 1.369 1_655 S
C2684 H2674 0.930 . S
C2684 C2682 1.419 . S
C2684 C2685 1.362 . S
C2685 H2675 0.930 . S
C2685 C2678 1.409 . S
C2685 C2684 1.362 . S
H2686 C2692 0.930 . S
H2687 C2695 0.930 . S
H2688 C2696 0.930 . S
H2689 C2697 0.930 . S
H2690 C2700 0.930 . S
H2691 C2701 0.930 . S
C2692 H2686 0.930 . S
C2692 C2693 1.355 . S
C2692 C2694 1.415 . S
C2693 C2692 1.355 . S
C2693 C2695 1.419 . S
C2694 C2692 1.415 . S
C2694 C2699 1.425 . S
C2694 C2701 1.409 . S
C2695 H2687 0.930 . S
C2695 C2693 1.419 . S
C2695 C2696 1.362 . S
C2696 H2688 0.930 . S
C2696 C2695 1.362 . S
C2696 C2699 1.409 . S
C2697 H2689 0.930 . S
C2697 C2698 1.355 . S
C2697 C2699 1.415 . S
C2698 C2697 1.355 . S
C2698 C2700 1.419 . S
C2699 C2694 1.425 . S
C2699 C2696 1.409 . S
C2699 C2697 1.415 . S
C2700 H2690 0.930 . S
C2700 C2698 1.419 . S
C2700 C2701 1.362 . S
C2701 H2691 0.930 . S
C2701 C2694 1.409 . S
C2701 C2700 1.362 . S
H2702 C2708 0.930 . S
H2703 C2711 0.930 . S
H2704 C2712 0.930 . S
H2705 C2713 0.930 . S
H2706 C2716 0.930 . S
H2707 C2717 0.930 1_565 S
C2708 H2702 0.930 . S
C2708 C2709 1.355 . S
C2708 C2710 1.415 . S
C2709 C2708 1.355 . S
C2709 C2711 1.419 . S
C2710 C2708 1.415 . S
C2710 C2715 1.425 . S
C2710 C2717 1.409 . S
C2711 H2703 0.930 . S
C2711 C2709 1.419 . S
C2711 C2712 1.362 . S
C2712 H2704 0.930 . S
C2712 C2711 1.362 . S
C2712 C2715 1.409 . S
C2713 H2705 0.930 . S
C2713 C2714 1.355 . S
C2713 C2715 1.415 . S
C2714 C2713 1.355 . S
C2714 C2716 1.419 1_545 S
C2715 C2710 1.425 . S
C2715 C2712 1.409 . S
C2715 C2713 1.415 . S
C2716 H2706 0.930 . S
C2716 C2714 1.419 1_565 S
C2716 C2717 1.362 1_565 S
C2717 H2707 0.930 1_545 S
C2717 C2710 1.409 . S
C2717 C2716 1.362 1_545 S
C1573 C10 1.271 . S
C1578 C963 1.177 . S
C1589 C23 1.612 . S
C1594 C1043 1.549 . S
C1610 C1111 1.424 . S
C1605 C29 1.439 . S
C1621 C30 1.810 . S
C1626 C1191 1.755 . S
C1637 C5 1.612 . S
C1642 C1265 1.591 . S
C1653 C18 1.609 1_556 S
C1658 C1333 1.574 . S
C1669 C49 1.201 1_556 S
C1674 C1259 1.110 1_655 S
C1690 C1339 1.503 . S
C1685 C62 1.494 . S
C1706 C1185 1.321 . S
C1701 C70 1.359 1_556 S
C1717 C75 1.768 . S
C1722 C1117 1.748 . S
C1738 C969 1.540 1_455 S
C1733 C44 1.537 . S
C1749 C57 1.463 . S
C1754 C1037 1.444 . S
C1765 C88 1.445 . S
C1770 C1407 1.385 . S
C1781 C101 1.655 . S
C1786 C1487 1.612 . S
C1802 C1555 1.467 . S
C1797 C107 1.571 . S
C1813 C108 1.921 . S
C1818 C303 1.864 . S
C1829 C83 1.714 . S
C1834 C377 1.655 . S
C1845 C96 1.653 . S
C1850 C445 1.607 . S
C1861 C127 1.203 . S
C1866 C371 1.201 . S
C1877 C140 1.522 . S
C1882 C451 1.506 . S
C1898 C297 1.388 . S
C1893 C146 1.401 . S
C1914 C1561 1.808 . S
C1909 C147 1.833 . S
C1930 C1413 1.556 . S
C1925 C122 1.577 . S
C1946 C1481 1.492 . S
C1941 C135 1.500 . S
C1957 C160 1.390 . S
C1962 C519 1.337 . S
C1973 C173 1.656 . S
C1978 C599 1.629 . S
C1989 C185 1.569 . S
C1994 C667 1.463 . S
C2005 C186 1.981 . S
C2010 C747 1.934 . S
C2026 C821 1.678 . S
C2021 C159 1.727 . S
C2042 C889 1.563 . S
C2037 C172 1.670 . S
C2058 C815 1.172 . S
C2053 C205 1.235 . S
C2074 C895 1.522 . S
C2069 C218 1.517 . S
C2085 C224 1.400 . S
C2090 C741 1.364 . S
C2106 C673 1.805 . S
C2101 C225 1.812 . S
C2117 C200 1.581 . S
C2122 C525 1.587 . S
C2138 C593 1.438 . S
C2133 C213 1.475 . S
C2154 C273 1.857 . S
C2149 C4 1.913 . S
C2165 C17 1.462 . S
C2170 C347 1.424 . S
C2186 C433 1.458 . S
C2181 C31 1.478 . S
C2202 C507 1.243 . S
C2197 C36 1.274 . S
C2218 C569 1.590 . S
C2213 C3 1.596 . S
C2234 C655 1.515 . S
C2229 C16 1.539 . S
C2245 C43 2.048 1_556 S
C2250 C643 1.942 . S
C2261 C56 1.626 . S
C2266 C495 1.569 . S
C2277 C68 1.626 . S
C2282 C581 1.584 . S
C2293 C69 1.464 . S
C2298 C359 1.381 . S
C2314 C421 1.717 . S
C2309 C42 1.768 . S
C2325 C55 1.700 . S
C2330 C285 1.672 . S
C2346 C717 1.891 . S
C2341 C82 1.922 . S
C2357 C95 1.533 1_545 S
C2362 C791 1.499 . S
C2373 C109 1.503 1_655 S
C2378 C877 1.482 . S
C2394 C951 1.177 . S
C2389 C114 1.198 . S
C2405 C81 1.583 . S
C2410 C1013 1.575 . S
C2421 C94 1.487 . S
C2426 C1099 1.490 . S
C2437 C121 1.917 . S
C2442 C1087 1.828 1_565 S
C2453 C134 1.511 . S
C2458 C939 1.476 1_455 S
C2474 C1025 1.613 . S
C2469 C148 1.634 . S
C2485 C153 1.498 . S
C2490 C803 1.454 . S
C2501 C120 1.791 1_545 S
C2506 C865 1.734 . S
C2522 C729 1.706 . S
C2517 C133 1.762 1_655 S
C2538 C1161 1.805 . S
C2533 C166 1.844 . S
C2549 C179 1.416 . S
C2554 C1235 1.409 . S
C2565 C187 1.464 . S
C2570 C1321 1.456 . S
C2586 C1395 1.226 . S
C2581 C192 1.263 . S
C2602 C1457 1.594 . S
C2597 C161 1.623 1_565 S
C2613 C174 1.572 1_455 S
C2618 C1543 1.577 . S
C2629 C199 2.048 . S
C2634 C1531 1.962 . S
C2645 C212 1.673 1_565 S
C2650 C1383 1.593 . S
C2666 C1469 1.656 . S
C2661 C226 1.680 1_455 S
C2682 C1247 1.260 . S
C2677 C231 1.310 . S
C2698 C1309 1.691 . S
C2693 C198 1.736 . S
C2709 C211 1.585 . S
C2714 C1173 1.548 . S
