# Generated by pormake.
# Topology pyr, (3,6)-cn, num edge types: 1
# Building blocks:
#     Node 0, Type 0, BuildingBlock: KAKCAD_clean_linker_0, # of connection points: 3
#     Node 1, Type 0, BuildingBlock: KAKCAD_clean_linker_0, # of connection points: 3
#     Node 2, Type 0, BuildingBlock: KAKCAD_clean_linker_0, # of connection points: 3
#     Node 3, Type 0, BuildingBlock: KAKCAD_clean_linker_0, # of connection points: 3
#     Node 4, Type 0, BuildingBlock: KAKCAD_clean_linker_0, # of connection points: 3
#     Node 5, Type 0, BuildingBlock: KAKCAD_clean_linker_0, # of connection points: 3
#     Node 6, Type 0, BuildingBlock: KAKCAD_clean_linker_0, # of connection points: 3
#     Node 7, Type 0, BuildingBlock: KAKCAD_clean_linker_0, # of connection points: 3
#     Node 8, Type 1, BuildingBlock: BETDEL_clean_sbu_0, # of connection points: 6
#     Node 9, Type 1, BuildingBlock: BETDEL_clean_sbu_0, # of connection points: 6
#     Node 10, Type 1, BuildingBlock: BETDEL_clean_sbu_0, # of connection points: 6
#     Node 11, Type 1, BuildingBlock: BETDEL_clean_sbu_0, # of connection points: 6
#     Edge 12, Type (0, 1), BuildingBlock: KIFKEQ_clean_linker_1, # of connection points: 2
#     Edge 13, Type (0, 1), BuildingBlock: KIFKEQ_clean_linker_1, # of connection points: 2
#     Edge 14, Type (0, 1), BuildingBlock: KIFKEQ_clean_linker_1, # of connection points: 2
#     Edge 15, Type (0, 1), BuildingBlock: KIFKEQ_clean_linker_1, # of connection points: 2
#     Edge 16, Type (0, 1), BuildingBlock: KIFKEQ_clean_linker_1, # of connection points: 2
#     Edge 17, Type (0, 1), BuildingBlock: KIFKEQ_clean_linker_1, # of connection points: 2
#     Edge 18, Type (0, 1), BuildingBlock: KIFKEQ_clean_linker_1, # of connection points: 2
#     Edge 19, Type (0, 1), BuildingBlock: KIFKEQ_clean_linker_1, # of connection points: 2
#     Edge 20, Type (0, 1), BuildingBlock: KIFKEQ_clean_linker_1, # of connection points: 2
#     Edge 21, Type (0, 1), BuildingBlock: KIFKEQ_clean_linker_1, # of connection points: 2
#     Edge 22, Type (0, 1), BuildingBlock: KIFKEQ_clean_linker_1, # of connection points: 2
#     Edge 23, Type (0, 1), BuildingBlock: KIFKEQ_clean_linker_1, # of connection points: 2
#     Edge 24, Type (0, 1), BuildingBlock: KIFKEQ_clean_linker_1, # of connection points: 2
#     Edge 25, Type (0, 1), BuildingBlock: KIFKEQ_clean_linker_1, # of connection points: 2
#     Edge 26, Type (0, 1), BuildingBlock: KIFKEQ_clean_linker_1, # of connection points: 2
#     Edge 27, Type (0, 1), BuildingBlock: KIFKEQ_clean_linker_1, # of connection points: 2
#     Edge 28, Type (0, 1), BuildingBlock: KIFKEQ_clean_linker_1, # of connection points: 2
#     Edge 29, Type (0, 1), BuildingBlock: KIFKEQ_clean_linker_1, # of connection points: 2
#     Edge 30, Type (0, 1), BuildingBlock: KIFKEQ_clean_linker_1, # of connection points: 2
#     Edge 31, Type (0, 1), BuildingBlock: KIFKEQ_clean_linker_1, # of connection points: 2
#     Edge 32, Type (0, 1), BuildingBlock: KIFKEQ_clean_linker_1, # of connection points: 2
#     Edge 33, Type (0, 1), BuildingBlock: KIFKEQ_clean_linker_1, # of connection points: 2
#     Edge 34, Type (0, 1), BuildingBlock: KIFKEQ_clean_linker_1, # of connection points: 2
#     Edge 35, Type (0, 1), BuildingBlock: KIFKEQ_clean_linker_1, # of connection points: 2
# Relax obj value: 0.026
# Max RMSD: 0.089
# Mean RMSD: 0.037
data_MOF--net-pyr--node1-BETDEL_clean_sbu_0--node2-KAKCAD_clean_linker_0--edge1-KIFKEQ_clean_linker_1
_symmetry_space_group_name_H-M    P1
_symmetry_Int_Tables_number       1
_symmetry_cell_setting            triclinic
loop_
_symmetry_equiv_pos_as_xyz
'x, y, z'
_cell_length_a     45.946418
_cell_length_b     47.606836
_cell_length_c     43.879218
_cell_angle_alpha  91.874824
_cell_angle_beta   89.316209
_cell_angle_gamma 95.607287
loop_
_atom_site_label
_atom_site_type_symbol
_atom_site_fract_x
_atom_site_fract_y
_atom_site_fract_z
_atom_type_partial_charge
C0 C 0.12517 0.15905 0.23156 0.0
C1 C 0.13744 0.15168 0.25896 0.0
C2 C 0.14266 0.17269 0.20933 0.0
C3 C 0.17279 0.17936 0.21405 0.0
C4 C 0.18506 0.1722 0.24155 0.0
C5 C 0.16753 0.15849 0.26382 0.0
C6 C 0.19124 0.19321 0.18991 0.0
C7 C 0.1808 0.21475 0.17347 0.0
C8 C 0.1963 0.22596 0.14823 0.0
C9 C 0.22348 0.21653 0.14047 0.0
C10 C 0.23453 0.19509 0.15695 0.0
C11 C 0.2182 0.18358 0.18168 0.0
C12 C 0.26157 0.18271 0.14677 0.0
C13 C 0.26717 0.17809 0.11554 0.0
C14 C 0.28086 0.17353 0.16814 0.0
C15 C 0.30436 0.15885 0.15854 0.0
C16 C 0.30925 0.15328 0.12735 0.0
C17 C 0.18278 0.24607 0.1291 0.0
C18 C 0.15288 0.24121 0.12223 0.0
C19 C 0.19899 0.27042 0.11843 0.0
C20 C 0.18511 0.29023 0.10246 0.0
C21 C 0.15489 0.28592 0.0972 0.0
C22 C 0.13906 0.26101 0.10661 0.0
C23 C 0.29084 0.16373 0.10595 0.0
H24 H 0.10216 0.15362 0.22696 0.0
H25 H 0.13267 0.17744 0.1881 0.0
H26 H 0.20816 0.17732 0.24589 0.0
H27 H 0.1775 0.1533 0.2849 0.0
H28 H 0.16016 0.22254 0.18006 0.0
H29 H 0.22566 0.16602 0.19352 0.0
H30 H 0.23551 0.22522 0.121 0.0
H31 H 0.25265 0.18457 0.09842 0.0
H32 H 0.27742 0.17713 0.19235 0.0
H33 H 0.31802 0.151 0.17565 0.0
H34 H 0.14001 0.22223 0.12936 0.0
H35 H 0.22207 0.27463 0.12339 0.0
H36 H 0.29435 0.16033 0.08172 0.0
H37 H 0.11582 0.25708 0.10231 0.0
H38 H 0.19766 0.3094 0.09539 0.0
C39 C 0.3008 0.87334 0.76729 0.0
C40 C 0.33049 0.87299 0.77409 0.0
C41 C 0.28944 0.86014 0.74044 0.0
C42 C 0.30775 0.84687 0.71966 0.0
C43 C 0.33769 0.84731 0.72641 0.0
C44 C 0.34883 0.85993 0.7535 0.0
C45 C 0.29585 0.83245 0.69115 0.0
C46 C 0.2734 0.84325 0.67505 0.0
C47 C 0.26237 0.82983 0.64793 0.0
C48 C 0.27477 0.80568 0.63644 0.0
C49 C 0.29772 0.79501 0.6519 0.0
C50 C 0.30747 0.80806 0.67954 0.0
C51 C 0.31262 0.77096 0.63898 0.0
C52 C 0.29669 0.7464 0.62715 0.0
C53 C 0.3433 0.77234 0.63927 0.0
C54 C 0.35776 0.74951 0.62865 0.0
C55 C 0.34194 0.7247 0.61733 0.0
C56 C 0.23856 0.84178 0.63137 0.0
C57 C 0.21569 0.85321 0.64764 0.0
C58 C 0.23899 0.84285 0.59938 0.0
C59 C 0.21745 0.8556 0.58413 0.0
C60 C 0.19506 0.86777 0.6005 0.0
C61 C 0.19434 0.86616 0.63244 0.0
C62 C 0.31122 0.72341 0.61654 0.0
H63 H 0.28634 0.88334 0.78302 0.0
H64 H 0.26624 0.85995 0.73628 0.0
H65 H 0.35269 0.8381 0.71068 0.0
H66 H 0.37191 0.85982 0.75822 0.0
H67 H 0.26506 0.86268 0.68312 0.0
H68 H 0.32422 0.79897 0.6921 0.0
H69 H 0.2669 0.7954 0.61531 0.0
H70 H 0.27301 0.74474 0.62674 0.0
H71 H 0.35621 0.79113 0.64789 0.0
H72 H 0.3814 0.75112 0.62993 0.0
H73 H 0.21439 0.85238 0.67226 0.0
H74 H 0.25639 0.83448 0.58611 0.0
H75 H 0.29845 0.70465 0.60769 0.0
H76 H 0.17767 0.87554 0.64588 0.0
H77 H 0.21847 0.85605 0.55948 0.0
C78 C 0.74198 0.40274 0.87952 0.0
C79 C 0.76458 0.38665 0.88779 0.0
C80 C 0.71606 0.3897 0.86693 0.0
C81 C 0.712 0.3602 0.86233 0.0
C82 C 0.73456 0.34408 0.87062 0.0
C83 C 0.76055 0.35714 0.88313 0.0
C84 C 0.68425 0.34637 0.84905 0.0
C85 C 0.67107 0.35843 0.82456 0.0
C86 C 0.64434 0.34628 0.81236 0.0
C87 C 0.63116 0.32111 0.82482 0.0
C88 C 0.64432 0.30829 0.849 0.0
C89 C 0.67073 0.32131 0.86101 0.0
C90 C 0.63055 0.28149 0.8621 0.0
C91 C 0.6001 0.27692 0.86656 0.0
C92 C 0.64795 0.26044 0.87092 0.0
C93 C 0.63536 0.23575 0.88421 0.0
C94 C 0.60495 0.23128 0.889 0.0
C95 C 0.63056 0.36002 0.7866 0.0
C96 C 0.63335 0.38966 0.78457 0.0
C97 C 0.61513 0.34383 0.76345 0.0
C98 C 0.60325 0.35689 0.7389 0.0
C99 C 0.6069 0.38641 0.73662 0.0
C100 C 0.62196 0.40262 0.75979 0.0
C101 C 0.58749 0.25216 0.87981 0.0
H102 H 0.74444 0.42552 0.88248 0.0
H103 H 0.69903 0.40275 0.86111 0.0
H104 H 0.73228 0.32135 0.86715 0.0
H105 H 0.77736 0.34406 0.88948 0.0
H106 H 0.68212 0.37711 0.81458 0.0
H107 H 0.68045 0.31231 0.88036 0.0
H108 H 0.61065 0.31143 0.81572 0.0
H109 H 0.58599 0.2927 0.86034 0.0
H110 H 0.67143 0.26298 0.8675 0.0
H111 H 0.64961 0.22036 0.89121 0.0
H112 H 0.64429 0.40303 0.80221 0.0
H113 H 0.61278 0.321 0.76381 0.0
H114 H 0.56395 0.24936 0.8827 0.0
H115 H 0.62471 0.42545 0.75889 0.0
H116 H 0.59187 0.34385 0.72125 0.0
C117 C 0.85703 0.60631 0.23474 0.0
C118 C 0.88682 0.61201 0.22756 0.0
C119 C 0.84486 0.6195 0.26018 0.0
C120 C 0.86234 0.63823 0.27955 0.0
C121 C 0.89231 0.64368 0.27226 0.0
C122 C 0.90429 0.63097 0.2464 0.0
C123 C 0.84946 0.65185 0.30723 0.0
C124 C 0.82614 0.63758 0.32351 0.0
C125 C 0.81371 0.65024 0.34934 0.0
C126 C 0.82536 0.67733 0.35934 0.0
C127 C 0.84884 0.69193 0.34383 0.0
C128 C 0.86045 0.67915 0.31761 0.0
C129 C 0.86141 0.72034 0.3554 0.0
C130 C 0.84314 0.74018 0.36729 0.0
C131 C 0.89185 0.72749 0.35564 0.0
C132 C 0.90372 0.75358 0.3679 0.0
C133 C 0.88546 0.77316 0.38033 0.0
C134 C 0.78832 0.63543 0.36576 0.0
C135 C 0.76531 0.62028 0.34952 0.0
C136 C 0.78637 0.63715 0.39779 0.0
C137 C 0.76175 0.62475 0.4131 0.0
C138 C 0.73848 0.61014 0.39682 0.0
C139 C 0.74073 0.60774 0.36486 0.0
C140 C 0.85502 0.76621 0.37965 0.0
H141 H 0.84305 0.59192 0.22039 0.0
H142 H 0.82162 0.61514 0.26438 0.0
H143 H 0.90676 0.6574 0.28676 0.0
H144 H 0.92741 0.63549 0.24149 0.0
H145 H 0.81797 0.61626 0.31657 0.0
H146 H 0.87773 0.69086 0.30496 0.0
H147 H 0.81611 0.68713 0.37936 0.0
H148 H 0.81959 0.73566 0.36698 0.0
H149 H 0.90661 0.71261 0.34708 0.0
H150 H 0.92728 0.75811 0.36836 0.0
H151 H 0.76588 0.61879 0.32484 0.0
H152 H 0.8039 0.64812 0.41111 0.0
H153 H 0.8403 0.78099 0.38854 0.0
H154 H 0.72307 0.5969 0.3516 0.0
H155 H 0.76096 0.62656 0.43776 0.0
C156 C 0.86792 0.83468 0.75068 0.0
C157 C 0.87375 0.86422 0.75238 0.0
C158 C 0.84795 0.82096 0.77085 0.0
C159 C 0.83345 0.83657 0.793 0.0
C160 C 0.83959 0.86604 0.79491 0.0
C161 C 0.85955 0.87971 0.77486 0.0
C162 C 0.81253 0.82233 0.81477 0.0
C163 C 0.81965 0.79845 0.82973 0.0
C164 C 0.80121 0.78639 0.85252 0.0
C165 C 0.77545 0.79861 0.86043 0.0
C166 C 0.76783 0.82247 0.84541 0.0
C167 C 0.78629 0.83378 0.82218 0.0
C168 C 0.74167 0.83666 0.85506 0.0
C169 C 0.71585 0.82097 0.86474 0.0
C170 C 0.74269 0.86632 0.85546 0.0
C171 C 0.71861 0.87993 0.86527 0.0
C172 C 0.69316 0.86425 0.87546 0.0
C173 C 0.81015 0.76212 0.86913 0.0
C174 C 0.82231 0.74006 0.85306 0.0
C175 C 0.80876 0.76186 0.90114 0.0
C176 C 0.82062 0.74062 0.91679 0.0
C177 C 0.83406 0.71929 0.90071 0.0
C178 C 0.8342 0.71894 0.86865 0.0
C179 C 0.6919 0.83468 0.87512 0.0
H180 H 0.87832 0.82224 0.73337 0.0
H181 H 0.84352 0.79821 0.76885 0.0
H182 H 0.82926 0.87855 0.81222 0.0
H183 H 0.86401 0.90244 0.77712 0.0
H184 H 0.84033 0.79005 0.82465 0.0
H185 H 0.78045 0.85178 0.80993 0.0
H186 H 0.76171 0.78985 0.8787 0.0
H187 H 0.71412 0.79812 0.86434 0.0
H188 H 0.76238 0.8792 0.84896 0.0
H189 H 0.72023 0.9028 0.86586 0.0
H190 H 0.82337 0.73956 0.82837 0.0
H191 H 0.79965 0.77871 0.91413 0.0
H192 H 0.67238 0.82221 0.88286 0.0
H193 H 0.84469 0.70306 0.8555 0.0
H194 H 0.81987 0.74128 0.94148 0.0
C195 C 0.69005 0.1313 0.2682 0.0
C196 C 0.6851 0.14603 0.24182 0.0
C197 C 0.70415 0.14518 0.29321 0.0
C198 C 0.71355 0.17413 0.29241 0.0
C199 C 0.70913 0.18877 0.26581 0.0
C200 C 0.69513 0.17483 0.24069 0.0
C201 C 0.72684 0.18913 0.31974 0.0
C202 C 0.74744 0.17676 0.33691 0.0
C203 C 0.7588 0.19007 0.36382 0.0
C204 C 0.74949 0.21618 0.37354 0.0
C205 C 0.72863 0.22876 0.3567 0.0
C206 C 0.71767 0.21516 0.32971 0.0
C207 C 0.71632 0.25485 0.36815 0.0
C208 C 0.7076 0.25768 0.39882 0.0
C209 C 0.71069 0.27592 0.3479 0.0
C210 C 0.69546 0.2986 0.35773 0.0
C211 C 0.6855 0.30072 0.38805 0.0
C212 C 0.77963 0.17591 0.38208 0.0
C213 C 0.77309 0.1475 0.38948 0.0
C214 C 0.80648 0.19017 0.39116 0.0
C215 C 0.82681 0.17596 0.40663 0.0
C216 C 0.82036 0.14742 0.41371 0.0
C217 C 0.79317 0.13344 0.40529 0.0
C218 C 0.69233 0.28035 0.40865 0.0
H219 H 0.68284 0.10902 0.26959 0.0
H220 H 0.707 0.13339 0.31348 0.0
H221 H 0.71635 0.21105 0.26449 0.0
H222 H 0.69146 0.18674 0.22072 0.0
H223 H 0.75479 0.15673 0.32925 0.0
H224 H 0.70078 0.22414 0.31722 0.0
H225 H 0.75796 0.22633 0.39452 0.0
H226 H 0.71141 0.2417 0.41493 0.0
H227 H 0.71739 0.27446 0.3242 0.0
H228 H 0.69045 0.31382 0.34124 0.0
H229 H 0.75244 0.1361 0.38288 0.0
H230 H 0.81203 0.21206 0.3856 0.0
H231 H 0.68533 0.28162 0.43227 0.0
H232 H 0.78772 0.1114 0.41026 0.0
H233 H 0.84755 0.18724 0.41307 0.0
C234 C 0.24968 0.6313 0.14805 0.0
C235 C 0.24721 0.6291 0.11612 0.0
C236 C 0.27571 0.64298 0.16165 0.0
C237 C 0.29982 0.65298 0.14365 0.0
C238 C 0.29737 0.65073 0.11172 0.0
C239 C 0.27143 0.63884 0.09813 0.0
C240 C 0.32721 0.66622 0.15813 0.0
C241 C 0.33907 0.65403 0.18337 0.0
C242 C 0.36456 0.66675 0.19776 0.0
C243 C 0.37811 0.6922 0.18626 0.0
C244 C 0.36689 0.70441 0.1606 0.0
C245 C 0.34143 0.69126 0.14683 0.0
C246 C 0.38156 0.7309 0.14793 0.0
C247 C 0.39072 0.75426 0.16711 0.0
C248 C 0.38582 0.73321 0.11627 0.0
C249 C 0.39873 0.75826 0.10406 0.0
C250 C 0.40752 0.78178 0.12315 0.0
C251 C 0.37709 0.65312 0.22435 0.0
C252 C 0.35869 0.63801 0.24537 0.0
C253 C 0.40756 0.6545 0.22868 0.0
C254 C 0.4192 0.64112 0.25312 0.0
C255 C 0.40074 0.62562 0.27361 0.0
C256 C 0.37036 0.62426 0.26947 0.0
C257 C 0.40339 0.77947 0.15485 0.0
H258 H 0.23155 0.62374 0.16257 0.0
H259 H 0.2768 0.64461 0.1863 0.0
H260 H 0.3156 0.65803 0.09721 0.0
H261 H 0.2702 0.63767 0.07348 0.0
H262 H 0.32871 0.63412 0.19123 0.0
H263 H 0.33219 0.701 0.12766 0.0
H264 H 0.39753 0.70253 0.19709 0.0
H265 H 0.38757 0.75323 0.19156 0.0
H266 H 0.37921 0.71553 0.10089 0.0
H267 H 0.40139 0.75937 0.07955 0.0
H268 H 0.33514 0.63692 0.24343 0.0
H269 H 0.42258 0.6654 0.21284 0.0
H270 H 0.41016 0.79711 0.17021 0.0
H271 H 0.35556 0.61283 0.28516 0.0
H272 H 0.44272 0.64237 0.2556 0.0
C273 C 0.14891 0.24235 0.64286 0.0
C274 C 0.12174 0.24033 0.62821 0.0
C275 C 0.1613 0.26837 0.65478 0.0
C276 C 0.14638 0.29263 0.65294 0.0
C277 C 0.1189 0.2905 0.63894 0.0
C278 C 0.10684 0.26461 0.62633 0.0
C279 C 0.15999 0.32029 0.66467 0.0
C280 C 0.18651 0.33191 0.65205 0.0
C281 C 0.19966 0.35832 0.66255 0.0
C282 C 0.18635 0.37258 0.68675 0.0
C283 C 0.15991 0.36107 0.69987 0.0
C284 C 0.14658 0.33511 0.68827 0.0
C285 C 0.14652 0.37602 0.72596 0.0
C286 C 0.16354 0.386 0.7512 0.0
C287 C 0.11671 0.38042 0.72588 0.0
C288 C 0.10428 0.39481 0.75035 0.0
C289 C 0.12129 0.40467 0.77566 0.0
C290 C 0.22683 0.37123 0.64766 0.0
C291 C 0.24972 0.35477 0.6397 0.0
C292 C 0.22969 0.39993 0.64044 0.0
C293 C 0.25463 0.41179 0.62519 0.0
C294 C 0.27743 0.39527 0.61688 0.0
C295 C 0.27472 0.36665 0.62459 0.0
C296 C 0.15101 0.39997 0.77588 0.0
H297 H 0.16083 0.22391 0.64444 0.0
H298 H 0.18254 0.26958 0.66548 0.0
H299 H 0.10711 0.309 0.63716 0.0
H300 H 0.08583 0.26351 0.61518 0.0
H301 H 0.19639 0.32071 0.63332 0.0
H302 H 0.12624 0.32599 0.69822 0.0
H303 H 0.19653 0.39273 0.69536 0.0
H304 H 0.18652 0.38273 0.75197 0.0
H305 H 0.1031 0.37306 0.70669 0.0
H306 H 0.08128 0.398 0.74964 0.0
H307 H 0.24838 0.33269 0.64531 0.0
H308 H 0.21228 0.4131 0.64587 0.0
H309 H 0.16469 0.40748 0.79497 0.0
H310 H 0.29203 0.35339 0.61914 0.0
H311 H 0.25571 0.43377 0.61928 0.0
Dy312 Dy 0.01553 0.0148 0.47366 0.0
C313 C 0.98799 0.96857 0.59011 0.0
C314 C 0.0264 0.04198 0.42049 0.0
Dy315 Dy 0.99746 0.99581 0.53679 0.0
O316 O 0.03223 0.01647 0.42553 0.0
O317 O 0.01434 0.05272 0.44448 0.0
O318 O 0.04822 0.98266 0.47004 0.0
O319 O 0.03895 1.00069 0.51269 0.0
C320 C 0.05202 0.98186 0.49917 0.0
C321 C 0.96121 0.02915 0.51166 0.0
O322 O 0.03051 0.03211 0.54913 0.0
O323 O 0.02869 0.05372 0.50281 0.0
O324 O 0.98253 0.99429 0.58552 0.0
O325 O 0.99877 0.95759 0.56551 0.0
O326 O 0.96498 0.02807 0.5408 0.0
O327 O 0.97405 0.01022 0.49796 0.0
O328 O 0.98266 0.97873 0.46074 0.0
O329 O 0.98242 0.95736 0.50741 0.0
C330 C 0.03554 0.05461 0.53212 0.0
C331 C 0.97626 0.95649 0.47787 0.0
Dy332 Dy 0.52794 0.01757 0.03228 0.0
C333 C 0.4427 0.96937 0.94907 0.0
C334 C 0.56632 0.04466 0.07303 0.0
Dy335 Dy 0.48155 0.99917 0.98741 0.0
O336 O 0.55085 0.02087 0.07727 0.0
O337 O 0.56093 0.05387 0.04634 0.0
O338 O 0.52983 0.9725 0.04455 0.0
O339 O 0.48931 0.98625 0.0335 0.0
C340 C 0.50221 0.96511 0.04036 0.0
C341 C 0.50791 0.05116 0.97763 0.0
O342 O 0.45401 0.01287 0.02613 0.0
O343 O 0.49126 0.04285 0.04725 0.0
O344 O 0.44211 0.99579 0.95703 0.0
O345 O 0.46438 0.95921 0.96215 0.0
O346 O 0.48068 0.04341 0.97175 0.0
O347 O 0.52032 0.03016 0.98579 0.0
O348 O 0.55683 0.9993 0.99761 0.0
O349 O 0.51895 0.97629 0.96918 0.0
C350 C 0.46311 0.03448 0.0444 0.0
C351 C 0.54709 0.98106 0.97583 0.0
Dy352 Dy 0.51572 0.4821 0.48351 0.0
C353 C 0.46135 0.56572 0.55423 0.0
C354 C 0.5509 0.44681 0.45402 0.0
Dy355 Dy 0.49533 0.52929 0.52489 0.0
O356 O 0.52279 0.44164 0.45762 0.0
O357 O 0.55962 0.47138 0.46612 0.0
O358 O 0.46944 0.46204 0.47967 0.0
O359 O 0.48318 0.48421 0.51988 0.0
C360 C 0.4614 0.47185 0.50616 0.0
C361 C 0.54975 0.53914 0.50239 0.0
O362 O 0.50953 0.50167 0.56118 0.0
O363 O 0.53668 0.47467 0.52872 0.0
O364 O 0.48977 0.56848 0.55356 0.0
O365 O 0.45155 0.54281 0.53931 0.0
O366 O 0.54184 0.54872 0.52901 0.0
O367 O 0.52783 0.52718 0.48858 0.0
O368 O 0.49922 0.5081 0.44692 0.0
O369 O 0.47533 0.53784 0.47967 0.0
C370 C 0.52889 0.48298 0.55662 0.0
C371 C 0.48142 0.52819 0.45176 0.0
Dy372 Dy 0.01304 0.484 0.01039 0.0
C373 C 0.96939 0.58578 0.97674 0.0
C374 C 0.04129 0.43747 0.01942 0.0
Dy375 Dy 0.99743 0.53953 0.98838 0.0
O376 O 0.01551 0.44141 0.03019 0.0
O377 O 0.05159 0.45888 1.00374 0.0
O378 O 0.97917 0.48459 0.04773 0.0
O379 O 1.00109 0.52265 0.03351 0.0
C380 C 0.98071 0.51193 0.05017 0.0
C381 C 0.03041 0.5115 0.9493 0.0
O382 O 0.03767 0.55641 0.01375 0.0
O383 O 0.05419 0.51255 0.0206 0.0
O384 O 0.98585 0.57324 0.95749 0.0
O385 O 0.96866 0.57338 1.00268 0.0
O386 O 0.03248 0.53888 0.95226 0.0
O387 O 0.00959 0.50085 0.96549 0.0
O388 O 0.9749 0.46802 0.98152 0.0
O389 O 0.95562 0.511 0.98095 0.0
C390 C 0.05821 0.54057 0.0221 0.0
C391 C 0.95293 0.48319 0.97628 0.0
H392 H 0.15069 0.10644 0.29061 0.0
H393 H 0.08253 0.16145 0.27872 0.0
H394 H 0.12021 0.07995 0.3276 0.0
H395 H 0.05152 0.13426 0.31513 0.0
H396 H 0.0254 0.09823 0.41133 0.0
H397 H 0.05025 0.12516 0.37044 0.0
H398 H 0.07526 0.04769 0.32825 0.0
H399 H 0.05099 0.02098 0.36935 0.0
C400 C 0.12922 0.11292 0.296 0.0
C401 C 0.11901 0.13604 0.28186 0.0
C402 C 0.1116 0.09751 0.31684 0.0
C403 C 0.08337 0.10488 0.32399 0.0
C404 C 0.07321 0.12816 0.31007 0.0
C405 C 0.09085 0.14357 0.28912 0.0
C406 C 0.03577 0.08701 0.39298 0.0
C407 C 0.03665 0.05765 0.39354 0.0
C408 C 0.04993 0.10237 0.36958 0.0
C409 C 0.06509 0.08853 0.34647 0.0
C410 C 0.0643 0.05895 0.34615 0.0
C411 C 0.05025 0.04366 0.36952 0.0
H412 H 0.35473 0.84718 0.82021 0.0
H413 H 0.33395 0.9285 0.79138 0.0
H414 H 0.37832 0.86926 0.86567 0.0
H415 H 0.35912 0.95117 0.83572 0.0
H416 H 0.39123 0.98437 0.92765 0.0
H417 H 0.36042 0.95985 0.88826 0.0
H418 H 0.42125 0.8961 0.879 0.0
H419 H 0.45078 0.9198 0.91954 0.0
C420 C 0.35529 0.86986 0.82378 0.0
C421 C 0.34268 0.88626 0.80255 0.0
C422 C 0.36901 0.8826 0.84962 0.0
C423 C 0.37104 0.91212 0.85434 0.0
C424 C 0.35768 0.92838 0.83323 0.0
C425 C 0.3434 0.91551 0.80772 0.0
C426 C 0.39768 0.96491 0.91735 0.0
C427 C 0.42328 0.9539 0.92653 0.0
C428 C 0.38019 0.95095 0.8946 0.0
C429 C 0.3883 0.92598 0.88019 0.0
C430 C 0.41386 0.9149 0.88987 0.0
C431 C 0.43098 0.92858 0.91298 0.0
H432 H 0.63622 0.42554 0.70049 0.0
H433 H 0.5518 0.37883 0.71269 0.0
H434 H 0.61751 0.44899 0.65696 0.0
H435 H 0.53293 0.40264 0.66936 0.0
H436 H 0.50532 0.47846 0.61407 0.0
H437 H 0.524 0.4547 0.65737 0.0
H438 H 0.59792 0.43333 0.60285 0.0
H439 H 0.57905 0.45663 0.55935 0.0
C440 C 0.61363 0.42038 0.6939 0.0
C441 C 0.59546 0.40037 0.70999 0.0
C442 C 0.60298 0.43368 0.66891 0.0
C443 C 0.57375 0.42769 0.6598 0.0
C444 C 0.5555 0.4078 0.676 0.0
C445 C 0.56633 0.39406 0.70063 0.0
C446 C 0.52561 0.46879 0.61134 0.0
C447 C 0.54072 0.46948 0.58325 0.0
C448 C 0.53618 0.45503 0.63607 0.0
C449 C 0.56239 0.44214 0.63348 0.0
C450 C 0.57773 0.44319 0.60556 0.0
C451 C 0.56687 0.45646 0.58064 0.0
H452 H 0.88589 0.55557 0.21503 0.0
H453 H 0.91688 0.63662 0.17983 0.0
H454 H 0.90833 0.53201 0.172 0.0
H455 H 0.93774 0.61341 0.13546 0.0
H456 H 0.99743 0.5644 0.07469 0.0
H457 H 0.97481 0.58859 0.11718 0.0
H458 H 0.90641 0.51948 0.12135 0.0
H459 H 0.93046 0.49467 0.08032 0.0
C460 C 0.8972 0.5683 0.19771 0.0
C461 C 0.89974 0.59786 0.20072 0.0
C462 C 0.90992 0.55484 0.1728 0.0
C463 C 0.92494 0.57062 0.1498 0.0
C464 C 0.927 0.60034 0.1528 0.0
C465 C 0.91485 0.61376 0.17812 0.0
C466 C 0.97753 0.55448 0.08477 0.0
C467 C 0.9658 0.52758 0.07442 0.0
C468 C 0.96434 0.56844 0.10906 0.0
C469 C 0.93865 0.55612 0.12318 0.0
C470 C 0.92652 0.52949 0.11191 0.0
C471 C 0.94013 0.51529 0.08811 0.0
H472 H 0.30625 0.11307 0.08143 0.0
H473 H 0.36449 0.15256 0.15041 0.0
H474 H 0.34394 0.08398 0.06399 0.0
H475 H 0.40171 0.12194 0.1342 0.0
H476 H 0.47166 0.08723 0.07078 0.0
H477 H 0.43473 0.11534 0.09279 0.0
H478 H 0.36881 0.04512 0.07791 0.0
H479 H 0.40557 0.01745 0.05477 0.0
C480 C 0.32714 0.1156 0.09288 0.0
C481 C 0.33242 0.13538 0.11713 0.0
C482 C 0.3486 0.0985 0.08323 0.0
C483 C 0.37581 0.10045 0.09783 0.0
C484 C 0.38108 0.12007 0.12228 0.0
C485 C 0.35963 0.13741 0.13178 0.0
C486 C 0.44932 0.07771 0.07251 0.0
C487 C 0.44142 0.05026 0.06079 0.0
C488 C 0.42817 0.09378 0.08526 0.0
C489 C 0.39874 0.08259 0.08684 0.0
C490 C 0.39115 0.05462 0.07637 0.0
C491 C 0.41224 0.03869 0.06329 0.0
H492 H 0.13655 0.86862 0.61375 0.0
H493 H 0.20388 0.9016 0.55118 0.0
H494 H 0.10145 0.89573 0.58932 0.0
H495 H 0.16848 0.92791 0.52631 0.0
H496 H 0.08842 0.94718 0.47122 0.0
H497 H 0.12237 0.91837 0.49522 0.0
H498 H 0.09459 0.9477 0.58407 0.0
H499 H 0.06073 0.97669 0.56002 0.0
C500 C 0.14393 0.88165 0.59486 0.0
C501 C 0.17314 0.88294 0.58453 0.0
C502 C 0.12377 0.89711 0.58084 0.0
C503 C 0.13227 0.91393 0.55597 0.0
C504 C 0.16125 0.91484 0.54524 0.0
C505 C 0.18149 0.89964 0.55943 0.0
C506 C 0.08958 0.94744 0.49587 0.0
C507 C 0.07208 0.96419 0.5138 0.0
C508 C 0.10905 0.93105 0.50958 0.0
C509 C 0.11112 0.93084 0.54148 0.0
C510 C 0.09326 0.94729 0.55943 0.0
C511 C 0.07402 0.96396 0.54569 0.0
H512 H 0.82083 0.37471 0.87559 0.0
H513 H 0.77095 0.43026 0.93032 0.0
H514 H 0.86601 0.39785 0.8971 0.0
H515 H 0.81609 0.45332 0.95195 0.0
H516 H 0.90394 0.50741 0.95986 0.0
H517 H 0.85879 0.48411 0.93855 0.0
H518 H 0.89355 0.40331 0.9437 0.0
H519 H 0.93895 0.42665 0.96436 0.0
C520 C 0.81947 0.39168 0.89244 0.0
C521 C 0.79221 0.40061 0.90117 0.0
C522 C 0.8454 0.40496 0.90481 0.0
C523 C 0.84478 0.42751 0.92629 0.0
C524 C 0.81749 0.43637 0.9351 0.0
C525 C 0.79156 0.42311 0.9227 0.0
C526 C 0.90199 0.48467 0.95647 0.0
C527 C 0.92518 0.46895 0.9638 0.0
C528 C 0.87598 0.47127 0.9444 0.0
C529 C 0.87244 0.44179 0.93936 0.0
C530 C 0.89561 0.42607 0.94683 0.0
C531 C 0.92163 0.43947 0.95888 0.0
H532 H 0.70692 0.55873 0.38678 0.0
H533 H 0.70912 0.63472 0.44351 0.0
H534 H 0.66247 0.53976 0.41301 0.0
H535 H 0.66457 0.61608 0.46938 0.0
H536 H 0.59856 0.5662 0.52871 0.0
H537 H 0.64506 0.58154 0.50407 0.0
H538 H 0.61163 0.54604 0.41801 0.0
H539 H 0.56552 0.53004 0.44298 0.0
C540 C 0.69782 0.57145 0.40474 0.0
C541 C 0.71163 0.59821 0.41308 0.0
C542 C 0.67229 0.5606 0.41977 0.0
C543 C 0.65984 0.57633 0.44342 0.0
C544 C 0.67376 0.60308 0.45174 0.0
C545 C 0.69933 0.61383 0.43685 0.0
C546 C 0.60129 0.56153 0.50458 0.0
C547 C 0.57841 0.54705 0.48775 0.0
C548 C 0.62786 0.57048 0.49037 0.0
C549 C 0.63214 0.56528 0.45893 0.0
C550 C 0.60934 0.55019 0.44228 0.0
C551 C 0.58282 0.54113 0.45655 0.0
H552 H 0.16671 0.31286 0.0437 0.0
H553 H 0.10785 0.30863 0.12115 0.0
H554 H 0.13856 0.348 0.0212 0.0
H555 H 0.08049 0.34424 0.09963 0.0
H556 H 0.01994 0.38816 0.04422 0.0
H557 H 0.04765 0.3501 0.05995 0.0
H558 H 0.12742 0.39582 0.02749 0.0
H559 H 0.09929 0.43317 0.01043 0.0
C560 C 0.1479 0.3197 0.05594 0.0
C561 C 0.13916 0.308 0.0839 0.0
C562 C 0.13183 0.33979 0.04317 0.0
C563 C 0.10703 0.34867 0.05843 0.0
C564 C 0.0989 0.3373 0.0868 0.0
C565 C 0.11467 0.31707 0.09927 0.0
C566 C 0.04334 0.38981 0.04014 0.0
C567 C 0.0576 0.41355 0.0264 0.0
C568 C 0.05927 0.36817 0.04933 0.0
C569 C 0.08985 0.37013 0.04545 0.0
C570 C 0.1039 0.39351 0.03061 0.0
C571 C 0.08785 0.41497 0.021 0.0
H572 H 0.55938 0.22602 0.93021 0.0
H573 H 0.62023 0.17698 0.88136 0.0
H574 H 0.53712 0.18329 0.95357 0.0
H575 H 0.59813 0.13431 0.90506 0.0
H576 H 0.56704 0.06667 0.97404 0.0
H577 H 0.59142 0.1106 0.95427 0.0
H578 H 0.50719 0.1402 0.93818 0.0
H579 H 0.48306 0.09667 0.95811 0.0
C580 C 0.56793 0.20614 0.92425 0.0
C581 C 0.59158 0.20508 0.90369 0.0
C582 C 0.5552 0.1816 0.93777 0.0
C583 C 0.56579 0.15529 0.93121 0.0
C584 C 0.58967 0.15425 0.91099 0.0
C585 C 0.60235 0.17878 0.89737 0.0
C586 C 0.55382 0.0827 0.96646 0.0
C587 C 0.52315 0.0782 0.9675 0.0
C588 C 0.56775 0.10778 0.95496 0.0
C589 C 0.55128 0.12896 0.94454 0.0
C590 C 0.5206 0.12456 0.94628 0.0
C591 C 0.50674 0.0995 0.95756 0.0
H592 H 0.93115 0.809 0.35935 0.0
H593 H 0.8685 0.79919 0.43332 0.0
H594 H 0.95248 0.85326 0.38307 0.0
H595 H 0.88932 0.84381 0.45661 0.0
H596 H 0.95649 0.9075 0.5059 0.0
H597 H 0.93426 0.86363 0.48224 0.0
H598 H 0.94062 0.90173 0.39414 0.0
H599 H 0.96315 0.9455 0.41765 0.0
C600 C 0.92193 0.81628 0.38067 0.0
C601 C 0.89812 0.80051 0.39442 0.0
C602 C 0.93396 0.8418 0.39412 0.0
C603 C 0.9226 0.85213 0.42174 0.0
C604 C 0.89878 0.83637 0.43548 0.0
C605 C 0.88664 0.81092 0.42195 0.0
C606 C 0.95307 0.9066 0.48149 0.0
C607 C 0.96166 0.9301 0.46371 0.0
C608 C 0.94018 0.88145 0.46794 0.0
C609 C 0.93569 0.87912 0.43627 0.0
C610 C 0.94409 0.90268 0.41853 0.0
C611 C 0.95684 0.92786 0.43209 0.0
H612 H 0.39222 0.72542 0.58343 0.0
H613 H 0.32747 0.66865 0.62828 0.0
H614 H 0.42038 0.68599 0.57009 0.0
H615 H 0.35567 0.62902 0.61469 0.0
H616 H 0.40186 0.56349 0.55444 0.0
H617 H 0.37176 0.60126 0.56982 0.0
H618 H 0.44955 0.65409 0.59699 0.0
H619 H 0.47955 0.61649 0.58126 0.0
C620 C 0.38404 0.70451 0.59052 0.0
C621 C 0.35772 0.70022 0.60713 0.0
C622 C 0.40021 0.68193 0.58293 0.0
C623 C 0.39044 0.65445 0.59168 0.0
C624 C 0.36369 0.64995 0.60751 0.0
C625 C 0.3475 0.67262 0.6152 0.0
C626 C 0.41242 0.58309 0.56402 0.0
C627 C 0.443 0.58719 0.56656 0.0
C628 C 0.39521 0.60466 0.57288 0.0
C629 C 0.40832 0.63075 0.58431 0.0
C630 C 0.43886 0.6344 0.58775 0.0
C631 C 0.45602 0.61283 0.57899 0.0
H632 H 0.86575 0.91232 0.72321 0.0
H633 H 0.92692 0.84962 0.73142 0.0
H634 H 0.89837 0.93737 0.68717 0.0
H635 H 0.95981 0.87486 0.69494 0.0
H636 H 0.98504 0.91176 0.59795 0.0
H637 H 0.96063 0.88591 0.6399 0.0
H638 H 0.94596 0.96505 0.68585 0.0
H639 H 0.96958 0.99069 0.64367 0.0
C640 C 0.88639 0.9041 0.71761 0.0
C641 C 0.89388 0.87913 0.73032 0.0
C642 C 0.90513 0.91848 0.697 0.0
C643 C 0.93183 0.90827 0.68856 0.0
C644 C 0.93932 0.88316 0.70102 0.0
C645 C 0.9205 0.86871 0.72178 0.0
C646 C 0.97709 0.92352 0.61735 0.0
C647 C 0.9787 0.95312 0.61751 0.0
C648 C 0.96322 0.90878 0.64137 0.0
C649 C 0.95093 0.9235 0.66584 0.0
C650 C 0.95463 0.95316 0.66693 0.0
C651 C 0.96828 0.96783 0.64291 0.0
H652 H 0.63495 0.11076 0.24487 0.0
H653 H 0.6977 0.14892 0.18072 0.0
H654 H 0.60755 0.0866 0.20304 0.0
H655 H 0.6704 0.12433 0.13861 0.0
H656 H 0.59464 0.09785 0.07112 0.0
H657 H 0.6243 0.12288 0.11138 0.0
H658 H 0.61214 0.04884 0.16634 0.0
H659 H 0.58197 0.02438 0.12667 0.0
C660 C 0.64306 0.11371 0.22179 0.0
C661 C 0.66858 0.13154 0.21607 0.0
C662 C 0.62739 0.09984 0.1978 0.0
C663 C 0.63694 0.10332 0.16748 0.0
C664 C 0.66233 0.12141 0.16169 0.0
C665 C 0.67797 0.13544 0.18577 0.0
C666 C 0.59851 0.087 0.0918 0.0
C667 C 0.5859 0.05933 0.09598 0.0
C668 C 0.61557 0.10124 0.11476 0.0
C669 C 0.62034 0.08795 0.1422 0.0
C670 C 0.60837 0.05992 0.1458 0.0
C671 C 0.59125 0.04582 0.12299 0.0
H672 H 0.38703 0.57105 0.29046 0.0
H673 H 0.44224 0.6469 0.31462 0.0
H674 H 0.40683 0.54697 0.33299 0.0
H675 H 0.46181 0.62292 0.35732 0.0
H676 H 0.45932 0.57942 0.45103 0.0
H677 H 0.44049 0.60255 0.4076 0.0
H678 H 0.45696 0.53116 0.34903 0.0
H679 H 0.47631 0.50801 0.39249 0.0
C680 C 0.40335 0.58258 0.30491 0.0
C681 C 0.41306 0.61088 0.29923 0.0
C682 C 0.41481 0.56874 0.32911 0.0
C683 C 0.43584 0.58307 0.34851 0.0
C684 C 0.4455 0.61139 0.34286 0.0
C685 C 0.43444 0.62506 0.31833 0.0
C686 C 0.45891 0.56855 0.42893 0.0
C687 C 0.46934 0.5418 0.42528 0.0
C688 C 0.44827 0.58193 0.40401 0.0
C689 C 0.4473 0.56872 0.37489 0.0
C690 C 0.45733 0.54181 0.37124 0.0
C691 C 0.4685 0.52861 0.3961 0.0
H692 H 0.12586 0.39564 0.83659 0.0
H693 H 0.08719 0.44844 0.77331 0.0
H694 H 0.10462 0.42134 0.87935 0.0
H695 H 0.06612 0.47421 0.81602 0.0
H696 H 0.06365 0.53305 0.90208 0.0
H697 H 0.08586 0.50698 0.86036 0.0
H698 H 0.05288 0.42825 0.90007 0.0
H699 H 0.03023 0.45435 0.94158 0.0
C700 C 0.11289 0.41279 0.83186 0.0
C701 C 0.10817 0.42004 0.80162 0.0
C702 C 0.10061 0.42736 0.85629 0.0
C703 C 0.08378 0.44982 0.85101 0.0
C704 C 0.07918 0.45714 0.82078 0.0
C705 C 0.09104 0.44227 0.79635 0.0
C706 C 0.06124 0.51018 0.90195 0.0
C707 C 0.04517 0.49572 0.92503 0.0
C708 C 0.07382 0.49527 0.878 0.0
C709 C 0.07101 0.46559 0.8769 0.0
C710 C 0.05553 0.45112 0.90041 0.0
C711 C 0.04252 0.46604 0.9241 0.0
H712 H 0.66538 0.90487 0.84871 0.0
H713 H 0.66683 0.85741 0.93077 0.0
H714 H 0.62851 0.933 0.87196 0.0
H715 H 0.6303 0.88575 0.95413 0.0
H716 H 0.60123 0.97073 0.99428 0.0
H717 H 0.63472 0.94071 0.96863 0.0
H718 H 0.57396 0.92399 0.89447 0.0
H719 H 0.54005 0.95372 0.92031 0.0
C720 C 0.65753 0.90034 0.87158 0.0
C721 C 0.66879 0.87908 0.88804 0.0
C722 C 0.63649 0.91629 0.88478 0.0
C723 C 0.62687 0.91154 0.9148 0.0
C724 C 0.63761 0.88985 0.93099 0.0
C725 C 0.65825 0.87356 0.9176 0.0
C726 C 0.59508 0.96084 0.97241 0.0
C727 C 0.56806 0.96456 0.95926 0.0
C728 C 0.61412 0.94351 0.95791 0.0
C729 C 0.60669 0.93 0.92979 0.0
C730 C 0.58006 0.93425 0.91619 0.0
C731 C 0.56073 0.95118 0.93097 0.0
H732 H 0.87821 0.14592 0.39942 0.0
H733 H 0.81128 0.11352 0.46249 0.0
H734 H 0.91333 0.11805 0.4232 0.0
H735 H 0.84627 0.08564 0.48615 0.0
H736 H 0.95246 0.03525 0.45087 0.0
H737 H 0.91931 0.06547 0.42748 0.0
H738 H 0.89266 0.09431 0.51693 0.0
H739 H 0.92587 0.06436 0.54023 0.0
C740 C 0.87113 0.13306 0.41855 0.0
C741 C 0.84207 0.13186 0.42915 0.0
C742 C 0.89111 0.11694 0.43194 0.0
C743 C 0.88248 0.09966 0.45645 0.0
C744 C 0.85356 0.09892 0.46741 0.0
C745 C 0.83352 0.11473 0.45379 0.0
C746 C 0.93957 0.04815 0.46545 0.0
C747 C 0.94159 0.04744 0.49731 0.0
C748 C 0.92075 0.06551 0.45211 0.0
C749 C 0.90338 0.08216 0.47043 0.0
C750 C 0.90558 0.08149 0.50229 0.0
C751 C 0.92462 0.06442 0.51559 0.0
H752 H 0.19103 0.63855 0.13199 0.0
H753 H 0.24066 0.59164 0.0674 0.0
H754 H 0.14559 0.61772 0.10862 0.0
H755 H 0.19528 0.57125 0.04368 0.0
H756 H 0.10771 0.51567 0.03458 0.0
H757 H 0.15309 0.53752 0.05669 0.0
H758 H 0.11774 0.61834 0.06047 0.0
H759 H 0.07206 0.59644 0.03848 0.0
C760 C 0.19224 0.62376 0.11283 0.0
C761 C 0.21949 0.61671 0.10162 0.0
C762 C 0.16621 0.61205 0.09924 0.0
C763 C 0.16678 0.59282 0.07427 0.0
C764 C 0.19404 0.58581 0.06303 0.0
C765 C 0.22007 0.59769 0.07646 0.0
C766 C 0.10954 0.53812 0.04004 0.0
C767 C 0.08614 0.55427 0.03475 0.0
C768 C 0.13568 0.55068 0.05257 0.0
C769 C 0.13908 0.57969 0.06035 0.0
C770 C 0.11573 0.59589 0.055 0.0
C771 C 0.08961 0.58336 0.04221 0.0
H772 H 0.3077 0.37067 0.57059 0.0
H773 H 0.30681 0.44812 0.6246 0.0
H774 H 0.35122 0.39037 0.54375 0.0
H775 H 0.34949 0.46839 0.5966 0.0
H776 H 0.44567 0.48234 0.56525 0.0
H777 H 0.40079 0.46473 0.59142 0.0
H778 H 0.36818 0.42442 0.50721 0.0
H779 H 0.41357 0.44141 0.48134 0.0
C780 C 0.31676 0.39192 0.57678 0.0
C781 C 0.30373 0.40769 0.59995 0.0
C782 C 0.34153 0.4034 0.56102 0.0
C783 C 0.35393 0.43106 0.56787 0.0
C784 C 0.34078 0.44693 0.59088 0.0
C785 C 0.31604 0.4354 0.60673 0.0
C786 C 0.42882 0.46985 0.55231 0.0
C787 C 0.43319 0.46307 0.5213 0.0
C788 C 0.40298 0.45986 0.56727 0.0
C789 C 0.38082 0.44296 0.55153 0.0
C790 C 0.38496 0.4369 0.52023 0.0
C791 C 0.41087 0.4468 0.50531 0.0
H792 H 0.83591 0.66307 0.88681 0.0
H793 H 0.86877 0.72915 0.951 0.0
H794 H 0.8688 0.63158 0.90778 0.0
H795 H 0.90093 0.69713 0.97257 0.0
H796 H 0.93455 0.61491 0.01456 0.0
H797 H 0.89926 0.64733 0.9994 0.0
H798 H 0.9262 0.637 0.90544 0.0
H799 H 0.96154 0.60514 0.92047 0.0
C800 C 0.84988 0.67078 0.90559 0.0
C801 C 0.85004 0.69875 0.91691 0.0
C802 C 0.86861 0.65274 0.91761 0.0
C803 C 0.88756 0.66218 0.94144 0.0
C804 C 0.88642 0.68944 0.9542 0.0
C805 C 0.8679 0.70766 0.94193 0.0
C806 C 0.93313 0.61995 0.99076 0.0
C807 C 0.95063 0.60758 0.96862 0.0
C808 C 0.91299 0.63837 0.98214 0.0
C809 C 0.90985 0.64419 0.95126 0.0
C810 C 0.92796 0.63242 0.92934 0.0
C811 C 0.9483 0.61441 0.93796 0.0
H812 H 0.44925 0.78825 0.07817 0.0
H813 H 0.39588 0.83597 0.13813 0.0
H814 H 0.4709 0.83205 0.05624 0.0
H815 H 0.41786 0.87986 0.11646 0.0
H816 H 0.44346 0.95046 0.0485 0.0
H817 H 0.41984 0.90593 0.06754 0.0
H818 H 0.50419 0.87367 0.07306 0.0
H819 H 0.52765 0.918 0.05411 0.0
C820 C 0.44205 0.80809 0.08659 0.0
C821 C 0.42085 0.80859 0.10995 0.0
C822 C 0.45461 0.83321 0.07417 0.0
C823 C 0.44611 0.85948 0.08458 0.0
C824 C 0.4247 0.85998 0.10773 0.0
C825 C 0.41234 0.83485 0.12038 0.0
C826 C 0.45687 0.93375 0.05361 0.0
C827 C 0.4874 0.93772 0.04993 0.0
C828 C 0.44339 0.90834 0.06469 0.0
C829 C 0.46013 0.88626 0.07192 0.0
C830 C 0.49061 0.89011 0.06749 0.0
C831 C 0.50407 0.91556 0.05675 0.0
H832 H 0.10791 0.2289 0.56877 0.0
H833 H 0.10795 0.1905 0.65632 0.0
H834 H 0.08884 0.18393 0.5452 0.0
H835 H 0.08684 0.14578 0.63354 0.0
H836 H 0.07207 0.0621 0.58116 0.0
H837 H 0.09393 0.10654 0.60378 0.0
H838 H 0.04883 0.15228 0.53825 0.0
H839 H 0.02887 0.10784 0.51461 0.0
C840 C 0.10337 0.21078 0.58299 0.0
C841 C 0.10932 0.21307 0.61429 0.0
C842 C 0.0922 0.18496 0.56959 0.0
C843 C 0.08597 0.16087 0.58732 0.0
C844 C 0.0918 0.16345 0.61884 0.0
C845 C 0.10366 0.18916 0.63206 0.0
C846 C 0.06705 0.08173 0.57157 0.0
C847 C 0.04893 0.0815 0.54601 0.0
C848 C 0.07938 0.10732 0.58469 0.0
C849 C 0.0733 0.13338 0.57304 0.0
C850 C 0.0548 0.13291 0.54758 0.0
C851 C 0.04311 0.10734 0.53406 0.0
H852 H 0.69143 0.35661 0.37346 0.0
H853 H 0.63638 0.29523 0.42385 0.0
H854 H 0.65852 0.39246 0.38695 0.0
H855 H 0.60416 0.33122 0.43819 0.0
H856 H 0.53589 0.39333 0.43182 0.0
H857 H 0.56878 0.35856 0.41469 0.0
H858 H 0.64308 0.41985 0.43137 0.0
H859 H 0.6101 0.4547 0.44794 0.0
C860 C 0.67237 0.3508 0.38749 0.0
C861 C 0.66656 0.32307 0.39762 0.0
C862 C 0.65365 0.37138 0.39541 0.0
C863 C 0.62864 0.36465 0.41352 0.0
C864 C 0.623 0.337 0.42385 0.0
C865 C 0.64173 0.31647 0.416 0.0
C866 C 0.55923 0.3994 0.43149 0.0
C867 C 0.5705 0.42662 0.44124 0.0
C868 C 0.57808 0.37946 0.42193 0.0
C869 C 0.60857 0.38637 0.42193 0.0
C870 C 0.61972 0.41392 0.43087 0.0
C871 C 0.60086 0.43384 0.44046 0.0
loop_
_geom_bond_atom_site_label_1
_geom_bond_atom_site_label_2
_geom_bond_distance
_geom_bond_site_symmetry_2
_ccdc_geom_bond_type
C0 C1 1.386 . S
C0 C2 1.397 . S
C0 H24 0.931 . S
C1 C0 1.386 . S
C1 C5 1.397 . S
C2 C0 1.397 . S
C2 C3 1.384 . S
C2 H25 0.930 . S
C3 C2 1.384 . S
C3 C4 1.377 . S
C3 C6 1.481 . S
C4 C3 1.377 . S
C4 C5 1.389 . S
C4 H26 0.929 . S
C5 C1 1.397 . S
C5 C4 1.389 . S
C5 H27 0.931 . S
C6 C3 1.481 . S
C6 C7 1.387 . S
C6 C11 1.390 . S
C7 C6 1.387 . S
C7 C8 1.401 . S
C7 H28 0.930 . S
C8 C7 1.401 . S
C8 C9 1.376 . S
C8 C17 1.511 . S
C9 C8 1.376 . S
C9 C10 1.392 . S
C9 H30 0.931 . S
C10 C9 1.392 . S
C10 C11 1.361 . S
C10 C12 1.500 . S
C11 C6 1.390 . S
C11 C10 1.361 . S
C11 H29 0.931 . S
C12 C10 1.500 . S
C12 C13 1.371 . S
C12 C14 1.365 . S
C13 C12 1.371 . S
C13 C23 1.386 . S
C13 H31 0.931 . S
C14 C12 1.365 . S
C14 C15 1.409 . S
C14 H32 0.929 . S
C15 C14 1.409 . S
C15 C16 1.380 . S
C15 H33 0.930 . S
C16 C15 1.380 . S
C16 C23 1.357 . S
C17 C8 1.511 . S
C17 C18 1.341 . S
C17 C19 1.371 . S
C18 C17 1.341 . S
C18 C22 1.394 . S
C18 H34 0.930 . S
C19 C17 1.371 . S
C19 C20 1.392 . S
C19 H35 0.931 . S
C20 C19 1.392 . S
C20 C21 1.331 . S
C20 H38 0.932 . S
C21 C20 1.331 . S
C21 C22 1.336 . S
C22 C18 1.394 . S
C22 C21 1.336 . S
C22 H37 0.929 . S
C23 C13 1.386 . S
C23 C16 1.357 . S
C23 H36 0.928 . S
H24 C0 0.931 . S
H25 C2 0.930 . S
H26 C4 0.929 . S
H27 C5 0.931 . S
H28 C7 0.930 . S
H29 C11 0.931 . S
H30 C9 0.931 . S
H31 C13 0.931 . S
H32 C14 0.929 . S
H33 C15 0.930 . S
H34 C18 0.930 . S
H35 C19 0.931 . S
H36 C23 0.928 . S
H37 C22 0.929 . S
H38 C20 0.932 . S
C39 C40 1.386 . S
C39 C41 1.397 . S
C39 H63 0.931 . S
C40 C39 1.386 . S
C40 C44 1.397 . S
C41 C39 1.397 . S
C41 C42 1.384 . S
C41 H64 0.930 . S
C42 C41 1.384 . S
C42 C43 1.377 . S
C42 C45 1.481 . S
C43 C42 1.377 . S
C43 C44 1.389 . S
C43 H65 0.929 . S
C44 C40 1.397 . S
C44 C43 1.389 . S
C44 H66 0.931 . S
C45 C42 1.481 . S
C45 C46 1.387 . S
C45 C50 1.390 . S
C46 C45 1.387 . S
C46 C47 1.401 . S
C46 H67 0.930 . S
C47 C46 1.401 . S
C47 C48 1.376 . S
C47 C56 1.511 . S
C48 C47 1.376 . S
C48 C49 1.392 . S
C48 H69 0.931 . S
C49 C48 1.392 . S
C49 C50 1.361 . S
C49 C51 1.500 . S
C50 C45 1.390 . S
C50 C49 1.361 . S
C50 H68 0.931 . S
C51 C49 1.500 . S
C51 C52 1.371 . S
C51 C53 1.365 . S
C52 C51 1.371 . S
C52 C62 1.386 . S
C52 H70 0.931 . S
C53 C51 1.365 . S
C53 C54 1.409 . S
C53 H71 0.929 . S
C54 C53 1.409 . S
C54 C55 1.380 . S
C54 H72 0.930 . S
C55 C54 1.380 . S
C55 C62 1.357 . S
C56 C47 1.511 . S
C56 C57 1.341 . S
C56 C58 1.371 . S
C57 C56 1.341 . S
C57 C61 1.394 . S
C57 H73 0.930 . S
C58 C56 1.371 . S
C58 C59 1.392 . S
C58 H74 0.931 . S
C59 C58 1.392 . S
C59 C60 1.331 . S
C59 H77 0.932 . S
C60 C59 1.331 . S
C60 C61 1.336 . S
C61 C57 1.394 . S
C61 C60 1.336 . S
C61 H76 0.929 . S
C62 C52 1.386 . S
C62 C55 1.357 . S
C62 H75 0.928 . S
H63 C39 0.931 . S
H64 C41 0.930 . S
H65 C43 0.929 . S
H66 C44 0.931 . S
H67 C46 0.930 . S
H68 C50 0.931 . S
H69 C48 0.931 . S
H70 C52 0.931 . S
H71 C53 0.929 . S
H72 C54 0.930 . S
H73 C57 0.930 . S
H74 C58 0.931 . S
H75 C62 0.928 . S
H76 C61 0.929 . S
H77 C59 0.932 . S
C78 C79 1.386 . S
C78 C80 1.397 . S
C78 H102 0.931 . S
C79 C78 1.386 . S
C79 C83 1.397 . S
C80 C78 1.397 . S
C80 C81 1.384 . S
C80 H103 0.930 . S
C81 C80 1.384 . S
C81 C82 1.377 . S
C81 C84 1.481 . S
C82 C81 1.377 . S
C82 C83 1.389 . S
C82 H104 0.929 . S
C83 C79 1.397 . S
C83 C82 1.389 . S
C83 H105 0.931 . S
C84 C81 1.481 . S
C84 C85 1.387 . S
C84 C89 1.390 . S
C85 C84 1.387 . S
C85 C86 1.401 . S
C85 H106 0.930 . S
C86 C85 1.401 . S
C86 C87 1.376 . S
C86 C95 1.511 . S
C87 C86 1.376 . S
C87 C88 1.392 . S
C87 H108 0.931 . S
C88 C87 1.392 . S
C88 C89 1.361 . S
C88 C90 1.500 . S
C89 C84 1.390 . S
C89 C88 1.361 . S
C89 H107 0.931 . S
C90 C88 1.500 . S
C90 C91 1.371 . S
C90 C92 1.365 . S
C91 C90 1.371 . S
C91 C101 1.386 . S
C91 H109 0.931 . S
C92 C90 1.365 . S
C92 C93 1.409 . S
C92 H110 0.929 . S
C93 C92 1.409 . S
C93 C94 1.380 . S
C93 H111 0.930 . S
C94 C93 1.380 . S
C94 C101 1.357 . S
C95 C86 1.511 . S
C95 C96 1.341 . S
C95 C97 1.371 . S
C96 C95 1.341 . S
C96 C100 1.394 . S
C96 H112 0.930 . S
C97 C95 1.371 . S
C97 C98 1.392 . S
C97 H113 0.931 . S
C98 C97 1.392 . S
C98 C99 1.331 . S
C98 H116 0.932 . S
C99 C98 1.331 . S
C99 C100 1.336 . S
C100 C96 1.394 . S
C100 C99 1.336 . S
C100 H115 0.929 . S
C101 C91 1.386 . S
C101 C94 1.357 . S
C101 H114 0.928 . S
H102 C78 0.931 . S
H103 C80 0.930 . S
H104 C82 0.929 . S
H105 C83 0.931 . S
H106 C85 0.930 . S
H107 C89 0.931 . S
H108 C87 0.931 . S
H109 C91 0.931 . S
H110 C92 0.929 . S
H111 C93 0.930 . S
H112 C96 0.930 . S
H113 C97 0.931 . S
H114 C101 0.928 . S
H115 C100 0.929 . S
H116 C98 0.932 . S
C117 C118 1.386 . S
C117 C119 1.397 . S
C117 H141 0.931 . S
C118 C117 1.386 . S
C118 C122 1.397 . S
C119 C117 1.397 . S
C119 C120 1.384 . S
C119 H142 0.930 . S
C120 C119 1.384 . S
C120 C121 1.377 . S
C120 C123 1.481 . S
C121 C120 1.377 . S
C121 C122 1.389 . S
C121 H143 0.929 . S
C122 C118 1.397 . S
C122 C121 1.389 . S
C122 H144 0.931 . S
C123 C120 1.481 . S
C123 C124 1.387 . S
C123 C128 1.390 . S
C124 C123 1.387 . S
C124 C125 1.401 . S
C124 H145 0.930 . S
C125 C124 1.401 . S
C125 C126 1.376 . S
C125 C134 1.511 . S
C126 C125 1.376 . S
C126 C127 1.392 . S
C126 H147 0.931 . S
C127 C126 1.392 . S
C127 C128 1.361 . S
C127 C129 1.500 . S
C128 C123 1.390 . S
C128 C127 1.361 . S
C128 H146 0.931 . S
C129 C127 1.500 . S
C129 C130 1.371 . S
C129 C131 1.365 . S
C130 C129 1.371 . S
C130 C140 1.386 . S
C130 H148 0.931 . S
C131 C129 1.365 . S
C131 C132 1.409 . S
C131 H149 0.929 . S
C132 C131 1.409 . S
C132 C133 1.380 . S
C132 H150 0.930 . S
C133 C132 1.380 . S
C133 C140 1.357 . S
C134 C125 1.511 . S
C134 C135 1.341 . S
C134 C136 1.371 . S
C135 C134 1.341 . S
C135 C139 1.394 . S
C135 H151 0.930 . S
C136 C134 1.371 . S
C136 C137 1.392 . S
C136 H152 0.931 . S
C137 C136 1.392 . S
C137 C138 1.331 . S
C137 H155 0.932 . S
C138 C137 1.331 . S
C138 C139 1.336 . S
C139 C135 1.394 . S
C139 C138 1.336 . S
C139 H154 0.929 . S
C140 C130 1.386 . S
C140 C133 1.357 . S
C140 H153 0.928 . S
H141 C117 0.931 . S
H142 C119 0.930 . S
H143 C121 0.929 . S
H144 C122 0.931 . S
H145 C124 0.930 . S
H146 C128 0.931 . S
H147 C126 0.931 . S
H148 C130 0.931 . S
H149 C131 0.929 . S
H150 C132 0.930 . S
H151 C135 0.930 . S
H152 C136 0.931 . S
H153 C140 0.928 . S
H154 C139 0.929 . S
H155 C137 0.932 . S
C156 C157 1.386 . S
C156 C158 1.397 . S
C156 H180 0.931 . S
C157 C156 1.386 . S
C157 C161 1.397 . S
C158 C156 1.397 . S
C158 C159 1.384 . S
C158 H181 0.930 . S
C159 C158 1.384 . S
C159 C160 1.377 . S
C159 C162 1.481 . S
C160 C159 1.377 . S
C160 C161 1.389 . S
C160 H182 0.929 . S
C161 C157 1.397 . S
C161 C160 1.389 . S
C161 H183 0.931 . S
C162 C159 1.481 . S
C162 C163 1.387 . S
C162 C167 1.390 . S
C163 C162 1.387 . S
C163 C164 1.401 . S
C163 H184 0.930 . S
C164 C163 1.401 . S
C164 C165 1.376 . S
C164 C173 1.511 . S
C165 C164 1.376 . S
C165 C166 1.392 . S
C165 H186 0.931 . S
C166 C165 1.392 . S
C166 C167 1.361 . S
C166 C168 1.500 . S
C167 C162 1.390 . S
C167 C166 1.361 . S
C167 H185 0.931 . S
C168 C166 1.500 . S
C168 C169 1.371 . S
C168 C170 1.365 . S
C169 C168 1.371 . S
C169 C179 1.386 . S
C169 H187 0.931 . S
C170 C168 1.365 . S
C170 C171 1.409 . S
C170 H188 0.929 . S
C171 C170 1.409 . S
C171 C172 1.380 . S
C171 H189 0.930 . S
C172 C171 1.380 . S
C172 C179 1.357 . S
C173 C164 1.511 . S
C173 C174 1.341 . S
C173 C175 1.371 . S
C174 C173 1.341 . S
C174 C178 1.394 . S
C174 H190 0.930 . S
C175 C173 1.371 . S
C175 C176 1.392 . S
C175 H191 0.931 . S
C176 C175 1.392 . S
C176 C177 1.331 . S
C176 H194 0.932 . S
C177 C176 1.331 . S
C177 C178 1.336 . S
C178 C174 1.394 . S
C178 C177 1.336 . S
C178 H193 0.929 . S
C179 C169 1.386 . S
C179 C172 1.357 . S
C179 H192 0.928 . S
H180 C156 0.931 . S
H181 C158 0.930 . S
H182 C160 0.929 . S
H183 C161 0.931 . S
H184 C163 0.930 . S
H185 C167 0.931 . S
H186 C165 0.931 . S
H187 C169 0.931 . S
H188 C170 0.929 . S
H189 C171 0.930 . S
H190 C174 0.930 . S
H191 C175 0.931 . S
H192 C179 0.928 . S
H193 C178 0.929 . S
H194 C176 0.932 . S
C195 C196 1.386 . S
C195 C197 1.397 . S
C195 H219 0.931 . S
C196 C195 1.386 . S
C196 C200 1.397 . S
C197 C195 1.397 . S
C197 C198 1.384 . S
C197 H220 0.930 . S
C198 C197 1.384 . S
C198 C199 1.377 . S
C198 C201 1.481 . S
C199 C198 1.377 . S
C199 C200 1.389 . S
C199 H221 0.929 . S
C200 C196 1.397 . S
C200 C199 1.389 . S
C200 H222 0.931 . S
C201 C198 1.481 . S
C201 C202 1.387 . S
C201 C206 1.390 . S
C202 C201 1.387 . S
C202 C203 1.401 . S
C202 H223 0.930 . S
C203 C202 1.401 . S
C203 C204 1.376 . S
C203 C212 1.511 . S
C204 C203 1.376 . S
C204 C205 1.392 . S
C204 H225 0.931 . S
C205 C204 1.392 . S
C205 C206 1.361 . S
C205 C207 1.500 . S
C206 C201 1.390 . S
C206 C205 1.361 . S
C206 H224 0.931 . S
C207 C205 1.500 . S
C207 C208 1.371 . S
C207 C209 1.365 . S
C208 C207 1.371 . S
C208 C218 1.386 . S
C208 H226 0.931 . S
C209 C207 1.365 . S
C209 C210 1.409 . S
C209 H227 0.929 . S
C210 C209 1.409 . S
C210 C211 1.380 . S
C210 H228 0.930 . S
C211 C210 1.380 . S
C211 C218 1.357 . S
C212 C203 1.511 . S
C212 C213 1.341 . S
C212 C214 1.371 . S
C213 C212 1.341 . S
C213 C217 1.394 . S
C213 H229 0.930 . S
C214 C212 1.371 . S
C214 C215 1.392 . S
C214 H230 0.931 . S
C215 C214 1.392 . S
C215 C216 1.331 . S
C215 H233 0.932 . S
C216 C215 1.331 . S
C216 C217 1.336 . S
C217 C213 1.394 . S
C217 C216 1.336 . S
C217 H232 0.929 . S
C218 C208 1.386 . S
C218 C211 1.357 . S
C218 H231 0.928 . S
H219 C195 0.931 . S
H220 C197 0.930 . S
H221 C199 0.929 . S
H222 C200 0.931 . S
H223 C202 0.930 . S
H224 C206 0.931 . S
H225 C204 0.931 . S
H226 C208 0.931 . S
H227 C209 0.929 . S
H228 C210 0.930 . S
H229 C213 0.930 . S
H230 C214 0.931 . S
H231 C218 0.928 . S
H232 C217 0.929 . S
H233 C215 0.932 . S
C234 C235 1.386 . S
C234 C236 1.397 . S
C234 H258 0.931 . S
C235 C234 1.386 . S
C235 C239 1.397 . S
C236 C234 1.397 . S
C236 C237 1.384 . S
C236 H259 0.930 . S
C237 C236 1.384 . S
C237 C238 1.377 . S
C237 C240 1.481 . S
C238 C237 1.377 . S
C238 C239 1.389 . S
C238 H260 0.929 . S
C239 C235 1.397 . S
C239 C238 1.389 . S
C239 H261 0.931 . S
C240 C237 1.481 . S
C240 C241 1.387 . S
C240 C245 1.390 . S
C241 C240 1.387 . S
C241 C242 1.401 . S
C241 H262 0.930 . S
C242 C241 1.401 . S
C242 C243 1.376 . S
C242 C251 1.511 . S
C243 C242 1.376 . S
C243 C244 1.392 . S
C243 H264 0.931 . S
C244 C243 1.392 . S
C244 C245 1.361 . S
C244 C246 1.500 . S
C245 C240 1.390 . S
C245 C244 1.361 . S
C245 H263 0.931 . S
C246 C244 1.500 . S
C246 C247 1.371 . S
C246 C248 1.365 . S
C247 C246 1.371 . S
C247 C257 1.386 . S
C247 H265 0.931 . S
C248 C246 1.365 . S
C248 C249 1.409 . S
C248 H266 0.929 . S
C249 C248 1.409 . S
C249 C250 1.380 . S
C249 H267 0.930 . S
C250 C249 1.380 . S
C250 C257 1.357 . S
C251 C242 1.511 . S
C251 C252 1.341 . S
C251 C253 1.371 . S
C252 C251 1.341 . S
C252 C256 1.394 . S
C252 H268 0.930 . S
C253 C251 1.371 . S
C253 C254 1.392 . S
C253 H269 0.931 . S
C254 C253 1.392 . S
C254 C255 1.331 . S
C254 H272 0.932 . S
C255 C254 1.331 . S
C255 C256 1.336 . S
C256 C252 1.394 . S
C256 C255 1.336 . S
C256 H271 0.929 . S
C257 C247 1.386 . S
C257 C250 1.357 . S
C257 H270 0.928 . S
H258 C234 0.931 . S
H259 C236 0.930 . S
H260 C238 0.929 . S
H261 C239 0.931 . S
H262 C241 0.930 . S
H263 C245 0.931 . S
H264 C243 0.931 . S
H265 C247 0.931 . S
H266 C248 0.929 . S
H267 C249 0.930 . S
H268 C252 0.930 . S
H269 C253 0.931 . S
H270 C257 0.928 . S
H271 C256 0.929 . S
H272 C254 0.932 . S
C273 C274 1.386 . S
C273 C275 1.397 . S
C273 H297 0.931 . S
C274 C273 1.386 . S
C274 C278 1.397 . S
C275 C273 1.397 . S
C275 C276 1.384 . S
C275 H298 0.930 . S
C276 C275 1.384 . S
C276 C277 1.377 . S
C276 C279 1.481 . S
C277 C276 1.377 . S
C277 C278 1.389 . S
C277 H299 0.929 . S
C278 C274 1.397 . S
C278 C277 1.389 . S
C278 H300 0.931 . S
C279 C276 1.481 . S
C279 C280 1.387 . S
C279 C284 1.390 . S
C280 C279 1.387 . S
C280 C281 1.401 . S
C280 H301 0.930 . S
C281 C280 1.401 . S
C281 C282 1.376 . S
C281 C290 1.511 . S
C282 C281 1.376 . S
C282 C283 1.392 . S
C282 H303 0.931 . S
C283 C282 1.392 . S
C283 C284 1.361 . S
C283 C285 1.500 . S
C284 C279 1.390 . S
C284 C283 1.361 . S
C284 H302 0.931 . S
C285 C283 1.500 . S
C285 C286 1.371 . S
C285 C287 1.365 . S
C286 C285 1.371 . S
C286 C296 1.386 . S
C286 H304 0.931 . S
C287 C285 1.365 . S
C287 C288 1.409 . S
C287 H305 0.929 . S
C288 C287 1.409 . S
C288 C289 1.380 . S
C288 H306 0.930 . S
C289 C288 1.380 . S
C289 C296 1.357 . S
C290 C281 1.511 . S
C290 C291 1.341 . S
C290 C292 1.371 . S
C291 C290 1.341 . S
C291 C295 1.394 . S
C291 H307 0.930 . S
C292 C290 1.371 . S
C292 C293 1.392 . S
C292 H308 0.931 . S
C293 C292 1.392 . S
C293 C294 1.331 . S
C293 H311 0.932 . S
C294 C293 1.331 . S
C294 C295 1.336 . S
C295 C291 1.394 . S
C295 C294 1.336 . S
C295 H310 0.929 . S
C296 C286 1.386 . S
C296 C289 1.357 . S
C296 H309 0.928 . S
H297 C273 0.931 . S
H298 C275 0.930 . S
H299 C277 0.929 . S
H300 C278 0.931 . S
H301 C280 0.930 . S
H302 C284 0.931 . S
H303 C282 0.931 . S
H304 C286 0.931 . S
H305 C287 0.929 . S
H306 C288 0.930 . S
H307 C291 0.930 . S
H308 C292 0.931 . S
H309 C296 0.928 . S
H310 C295 0.929 . S
H311 C293 0.932 . S
Dy312 O316 2.398 . S
Dy312 O317 2.491 . S
Dy312 O318 2.403 1_545 S
Dy312 O319 2.664 1_545 S
Dy312 O323 2.326 . S
Dy312 O327 2.310 1_455 S
Dy312 O328 2.351 1_445 S
C313 O324 1.185 . S
C313 O325 1.355 . S
C314 O316 1.185 . S
C314 O317 1.355 . S
Dy315 O319 2.310 1_655 S
Dy315 O322 2.351 1_665 S
Dy315 O324 2.398 . S
Dy315 O325 2.491 . S
Dy315 O326 2.403 1_565 S
Dy315 O327 2.664 1_565 S
Dy315 O329 2.326 . S
O316 Dy312 2.398 . S
O316 C314 1.185 . S
O317 Dy312 2.491 . S
O317 C314 1.355 . S
O318 Dy312 2.403 1_565 S
O318 C320 1.254 . S
O319 Dy312 2.664 1_565 S
O319 Dy315 2.310 1_455 S
O319 C320 1.268 . S
C320 O318 1.254 . S
C320 O319 1.268 . S
C321 O326 1.254 . S
C321 O327 1.268 . S
O322 Dy315 2.351 1_445 S
O322 C330 1.249 . S
O323 Dy312 2.326 . S
O323 C330 1.267 . S
O324 C313 1.185 . S
O324 Dy315 2.398 . S
O325 C313 1.355 . S
O325 Dy315 2.491 . S
O326 Dy315 2.403 1_545 S
O326 C321 1.254 . S
O327 Dy312 2.310 1_655 S
O327 Dy315 2.664 1_545 S
O327 C321 1.268 . S
O328 Dy312 2.351 1_665 S
O328 C331 1.249 . S
O329 Dy315 2.326 . S
O329 C331 1.267 . S
C330 O322 1.249 . S
C330 O323 1.267 . S
C331 O328 1.249 . S
C331 O329 1.267 . S
Dy332 O336 2.398 . S
Dy332 O337 2.491 . S
Dy332 O338 2.403 1_545 S
Dy332 O339 2.664 1_545 S
Dy332 O343 2.326 . S
Dy332 O347 2.310 1_554 S
Dy332 O348 2.351 1_544 S
C333 O344 1.185 . S
C333 O345 1.355 . S
C334 O336 1.185 . S
C334 O337 1.355 . S
Dy335 O339 2.284 1_546 S
Dy335 O342 2.373 1_556 S
Dy335 O344 2.394 1_545 S
Dy335 O345 2.457 1_545 S
Dy335 O346 2.435 . S
Dy335 O347 2.683 . S
Dy335 O349 2.310 1_545 S
O336 Dy332 2.398 . S
O336 C334 1.185 . S
O337 Dy332 2.491 . S
O337 C334 1.355 . S
O338 Dy332 2.403 1_565 S
O338 C340 1.254 . S
O339 Dy332 2.664 1_565 S
O339 Dy335 2.284 1_564 S
O339 C340 1.268 . S
C340 O338 1.254 . S
C340 O339 1.268 . S
C341 O346 1.254 . S
C341 O347 1.268 . S
O342 Dy335 2.373 1_554 S
O342 C350 1.249 . S
O343 Dy332 2.326 . S
O343 C350 1.267 . S
O344 C333 1.185 . S
O344 Dy335 2.394 1_565 S
O345 C333 1.355 . S
O345 Dy335 2.457 1_565 S
O346 Dy335 2.435 . S
O346 C341 1.254 . S
O347 Dy332 2.310 1_556 S
O347 Dy335 2.683 . S
O347 C341 1.268 . S
O348 Dy332 2.351 1_566 S
O348 C351 1.249 . S
O349 Dy335 2.310 1_565 S
O349 C351 1.267 . S
C350 O342 1.249 . S
C350 O343 1.267 . S
C351 O348 1.249 . S
C351 O349 1.267 . S
Dy352 O356 2.398 . S
Dy352 O357 2.491 . S
Dy352 O358 2.403 . S
Dy352 O359 2.664 . S
Dy352 O363 2.326 . S
Dy352 O367 2.310 . S
Dy352 O368 2.351 . S
C353 O364 1.185 . S
C353 O365 1.355 . S
C354 O356 1.185 . S
C354 O357 1.355 . S
Dy355 O359 2.310 . S
Dy355 O362 2.351 . S
Dy355 O364 2.398 . S
Dy355 O365 2.491 . S
Dy355 O366 2.403 . S
Dy355 O367 2.664 . S
Dy355 O369 2.326 . S
O356 Dy352 2.398 . S
O356 C354 1.185 . S
O357 Dy352 2.491 . S
O357 C354 1.355 . S
O358 Dy352 2.403 . S
O358 C360 1.254 . S
O359 Dy352 2.664 . S
O359 Dy355 2.310 . S
O359 C360 1.268 . S
C360 O358 1.254 . S
C360 O359 1.268 . S
C361 O366 1.254 . S
C361 O367 1.268 . S
O362 Dy355 2.351 . S
O362 C370 1.249 . S
O363 Dy352 2.326 . S
O363 C370 1.267 . S
O364 C353 1.185 . S
O364 Dy355 2.398 . S
O365 C353 1.355 . S
O365 Dy355 2.491 . S
O366 Dy355 2.403 . S
O366 C361 1.254 . S
O367 Dy352 2.310 . S
O367 Dy355 2.664 . S
O367 C361 1.268 . S
O368 Dy352 2.351 . S
O368 C371 1.249 . S
O369 Dy355 2.326 . S
O369 C371 1.267 . S
C370 O362 1.249 . S
C370 O363 1.267 . S
C371 O368 1.249 . S
C371 O369 1.267 . S
Dy372 O376 2.398 . S
Dy372 O377 2.491 . S
Dy372 O378 2.403 1_455 S
Dy372 O379 2.664 1_455 S
Dy372 O383 2.326 . S
Dy372 O387 2.310 1_554 S
Dy372 O388 2.351 1_454 S
C373 O384 1.185 . S
C373 O385 1.355 . S
C374 O376 1.185 . S
C374 O377 1.355 . S
Dy375 O379 2.310 1_556 S
Dy375 O382 2.351 1_656 S
Dy375 O384 2.398 . S
Dy375 O385 2.491 . S
Dy375 O386 2.403 1_655 S
Dy375 O387 2.664 1_655 S
Dy375 O389 2.326 . S
O376 Dy372 2.398 . S
O376 C374 1.185 . S
O377 Dy372 2.491 . S
O377 C374 1.355 . S
O378 Dy372 2.403 1_655 S
O378 C380 1.254 . S
O379 Dy372 2.664 1_655 S
O379 Dy375 2.310 1_554 S
O379 C380 1.268 . S
C380 O378 1.254 . S
C380 O379 1.268 . S
C381 O386 1.254 . S
C381 O387 1.268 . S
O382 Dy375 2.351 1_454 S
O382 C390 1.249 . S
O383 Dy372 2.326 . S
O383 C390 1.267 . S
O384 C373 1.185 . S
O384 Dy375 2.398 . S
O385 C373 1.355 . S
O385 Dy375 2.491 . S
O386 Dy375 2.403 1_455 S
O386 C381 1.254 . S
O387 Dy372 2.310 1_556 S
O387 Dy375 2.664 1_455 S
O387 C381 1.268 . S
O388 Dy372 2.351 1_656 S
O388 C391 1.249 . S
O389 Dy375 2.326 . S
O389 C391 1.267 . S
C390 O382 1.249 . S
C390 O383 1.267 . S
C391 O388 1.249 . S
C391 O389 1.267 . S
H392 C400 0.950 . S
H393 C405 0.950 . S
H394 C402 0.950 . S
H395 C404 0.950 . S
H396 C406 0.950 . S
H397 C408 0.950 . S
H398 C410 0.950 . S
H399 C411 0.950 . S
C400 H392 0.950 . S
C400 C401 1.386 . S
C400 C402 1.391 . S
C401 C400 1.386 . S
C401 C405 1.393 . S
C402 H394 0.950 . S
C402 C400 1.391 . S
C402 C403 1.400 . S
C403 C402 1.400 . S
C403 C404 1.398 . S
C403 C409 1.491 . S
C404 H395 0.950 . S
C404 C403 1.398 . S
C404 C405 1.391 . S
C405 H393 0.950 . S
C405 C401 1.393 . S
C405 C404 1.391 . S
C406 H396 0.950 . S
C406 C407 1.386 . S
C406 C408 1.391 . S
C407 C406 1.386 . S
C407 C411 1.393 . S
C408 H397 0.950 . S
C408 C406 1.391 . S
C408 C409 1.400 . S
C409 C403 1.491 . S
C409 C408 1.400 . S
C409 C410 1.398 . S
C410 H398 0.950 . S
C410 C409 1.398 . S
C410 C411 1.391 . S
C411 H399 0.950 . S
C411 C407 1.393 . S
C411 C410 1.391 . S
H412 C420 0.950 . S
H413 C425 0.950 . S
H414 C422 0.950 . S
H415 C424 0.950 . S
H416 C426 0.950 . S
H417 C428 0.950 . S
H418 C430 0.950 . S
H419 C431 0.950 . S
C420 H412 0.950 . S
C420 C421 1.386 . S
C420 C422 1.391 . S
C421 C420 1.386 . S
C421 C425 1.393 . S
C422 H414 0.950 . S
C422 C420 1.391 . S
C422 C423 1.400 . S
C423 C422 1.400 . S
C423 C424 1.398 . S
C423 C429 1.491 . S
C424 H415 0.950 . S
C424 C423 1.398 . S
C424 C425 1.391 . S
C425 H413 0.950 . S
C425 C421 1.393 . S
C425 C424 1.391 . S
C426 H416 0.950 . S
C426 C427 1.386 . S
C426 C428 1.391 . S
C427 C426 1.386 . S
C427 C431 1.393 . S
C428 H417 0.950 . S
C428 C426 1.391 . S
C428 C429 1.400 . S
C429 C423 1.491 . S
C429 C428 1.400 . S
C429 C430 1.398 . S
C430 H418 0.950 . S
C430 C429 1.398 . S
C430 C431 1.391 . S
C431 H419 0.950 . S
C431 C427 1.393 . S
C431 C430 1.391 . S
H432 C440 0.950 . S
H433 C445 0.950 . S
H434 C442 0.950 . S
H435 C444 0.950 . S
H436 C446 0.950 . S
H437 C448 0.950 . S
H438 C450 0.950 . S
H439 C451 0.950 . S
C440 H432 0.950 . S
C440 C441 1.386 . S
C440 C442 1.391 . S
C441 C440 1.386 . S
C441 C445 1.393 . S
C442 H434 0.950 . S
C442 C440 1.391 . S
C442 C443 1.400 . S
C443 C442 1.400 . S
C443 C444 1.398 . S
C443 C449 1.491 . S
C444 H435 0.950 . S
C444 C443 1.398 . S
C444 C445 1.391 . S
C445 H433 0.950 . S
C445 C441 1.393 . S
C445 C444 1.391 . S
C446 H436 0.950 . S
C446 C447 1.386 . S
C446 C448 1.391 . S
C447 C446 1.386 . S
C447 C451 1.393 . S
C448 H437 0.950 . S
C448 C446 1.391 . S
C448 C449 1.400 . S
C449 C443 1.491 . S
C449 C448 1.400 . S
C449 C450 1.398 . S
C450 H438 0.950 . S
C450 C449 1.398 . S
C450 C451 1.391 . S
C451 H439 0.950 . S
C451 C447 1.393 . S
C451 C450 1.391 . S
H452 C460 0.950 . S
H453 C465 0.950 . S
H454 C462 0.950 . S
H455 C464 0.950 . S
H456 C466 0.950 . S
H457 C468 0.950 . S
H458 C470 0.950 . S
H459 C471 0.950 . S
C460 H452 0.950 . S
C460 C461 1.386 . S
C460 C462 1.391 . S
C461 C460 1.386 . S
C461 C465 1.393 . S
C462 H454 0.950 . S
C462 C460 1.391 . S
C462 C463 1.400 . S
C463 C462 1.400 . S
C463 C464 1.398 . S
C463 C469 1.491 . S
C464 H455 0.950 . S
C464 C463 1.398 . S
C464 C465 1.391 . S
C465 H453 0.950 . S
C465 C461 1.393 . S
C465 C464 1.391 . S
C466 H456 0.950 . S
C466 C467 1.386 . S
C466 C468 1.391 . S
C467 C466 1.386 . S
C467 C471 1.393 . S
C468 H457 0.950 . S
C468 C466 1.391 . S
C468 C469 1.400 . S
C469 C463 1.491 . S
C469 C468 1.400 . S
C469 C470 1.398 . S
C470 H458 0.950 . S
C470 C469 1.398 . S
C470 C471 1.391 . S
C471 H459 0.950 . S
C471 C467 1.393 . S
C471 C470 1.391 . S
H472 C480 0.950 . S
H473 C485 0.950 . S
H474 C482 0.950 . S
H475 C484 0.950 . S
H476 C486 0.950 . S
H477 C488 0.950 . S
H478 C490 0.950 . S
H479 C491 0.950 . S
C480 H472 0.950 . S
C480 C481 1.386 . S
C480 C482 1.391 . S
C481 C480 1.386 . S
C481 C485 1.393 . S
C482 H474 0.950 . S
C482 C480 1.391 . S
C482 C483 1.400 . S
C483 C482 1.400 . S
C483 C484 1.398 . S
C483 C489 1.491 . S
C484 H475 0.950 . S
C484 C483 1.398 . S
C484 C485 1.391 . S
C485 H473 0.950 . S
C485 C481 1.393 . S
C485 C484 1.391 . S
C486 H476 0.950 . S
C486 C487 1.386 . S
C486 C488 1.391 . S
C487 C486 1.386 . S
C487 C491 1.393 . S
C488 H477 0.950 . S
C488 C486 1.391 . S
C488 C489 1.400 . S
C489 C483 1.491 . S
C489 C488 1.400 . S
C489 C490 1.398 . S
C490 H478 0.950 . S
C490 C489 1.398 . S
C490 C491 1.391 . S
C491 H479 0.950 . S
C491 C487 1.393 . S
C491 C490 1.391 . S
H492 C500 0.950 . S
H493 C505 0.950 . S
H494 C502 0.950 . S
H495 C504 0.950 . S
H496 C506 0.950 . S
H497 C508 0.950 . S
H498 C510 0.950 . S
H499 C511 0.950 . S
C500 H492 0.950 . S
C500 C501 1.386 . S
C500 C502 1.391 . S
C501 C500 1.386 . S
C501 C505 1.393 . S
C502 H494 0.950 . S
C502 C500 1.391 . S
C502 C503 1.400 . S
C503 C502 1.400 . S
C503 C504 1.398 . S
C503 C509 1.491 . S
C504 H495 0.950 . S
C504 C503 1.398 . S
C504 C505 1.391 . S
C505 H493 0.950 . S
C505 C501 1.393 . S
C505 C504 1.391 . S
C506 H496 0.950 . S
C506 C507 1.386 . S
C506 C508 1.391 . S
C507 C506 1.386 . S
C507 C511 1.393 . S
C508 H497 0.950 . S
C508 C506 1.391 . S
C508 C509 1.400 . S
C509 C503 1.491 . S
C509 C508 1.400 . S
C509 C510 1.398 . S
C510 H498 0.950 . S
C510 C509 1.398 . S
C510 C511 1.391 . S
C511 H499 0.950 . S
C511 C507 1.393 . S
C511 C510 1.391 . S
H512 C520 0.950 . S
H513 C525 0.950 . S
H514 C522 0.950 . S
H515 C524 0.950 . S
H516 C526 0.950 . S
H517 C528 0.950 . S
H518 C530 0.950 . S
H519 C531 0.950 . S
C520 H512 0.950 . S
C520 C521 1.386 . S
C520 C522 1.391 . S
C521 C520 1.386 . S
C521 C525 1.393 . S
C522 H514 0.950 . S
C522 C520 1.391 . S
C522 C523 1.400 . S
C523 C522 1.400 . S
C523 C524 1.398 . S
C523 C529 1.491 . S
C524 H515 0.950 . S
C524 C523 1.398 . S
C524 C525 1.391 . S
C525 H513 0.950 . S
C525 C521 1.393 . S
C525 C524 1.391 . S
C526 H516 0.950 . S
C526 C527 1.386 . S
C526 C528 1.391 . S
C527 C526 1.386 . S
C527 C531 1.393 . S
C528 H517 0.950 . S
C528 C526 1.391 . S
C528 C529 1.400 . S
C529 C523 1.491 . S
C529 C528 1.400 . S
C529 C530 1.398 . S
C530 H518 0.950 . S
C530 C529 1.398 . S
C530 C531 1.391 . S
C531 H519 0.950 . S
C531 C527 1.393 . S
C531 C530 1.391 . S
H532 C540 0.950 . S
H533 C545 0.950 . S
H534 C542 0.950 . S
H535 C544 0.950 . S
H536 C546 0.950 . S
H537 C548 0.950 . S
H538 C550 0.950 . S
H539 C551 0.950 . S
C540 H532 0.950 . S
C540 C541 1.386 . S
C540 C542 1.391 . S
C541 C540 1.386 . S
C541 C545 1.393 . S
C542 H534 0.950 . S
C542 C540 1.391 . S
C542 C543 1.400 . S
C543 C542 1.400 . S
C543 C544 1.398 . S
C543 C549 1.491 . S
C544 H535 0.950 . S
C544 C543 1.398 . S
C544 C545 1.391 . S
C545 H533 0.950 . S
C545 C541 1.393 . S
C545 C544 1.391 . S
C546 H536 0.950 . S
C546 C547 1.386 . S
C546 C548 1.391 . S
C547 C546 1.386 . S
C547 C551 1.393 . S
C548 H537 0.950 . S
C548 C546 1.391 . S
C548 C549 1.400 . S
C549 C543 1.491 . S
C549 C548 1.400 . S
C549 C550 1.398 . S
C550 H538 0.950 . S
C550 C549 1.398 . S
C550 C551 1.391 . S
C551 H539 0.950 . S
C551 C547 1.393 . S
C551 C550 1.391 . S
H552 C560 0.950 . S
H553 C565 0.950 . S
H554 C562 0.950 . S
H555 C564 0.950 . S
H556 C566 0.950 . S
H557 C568 0.950 . S
H558 C570 0.950 . S
H559 C571 0.950 . S
C560 H552 0.950 . S
C560 C561 1.386 . S
C560 C562 1.391 . S
C561 C560 1.386 . S
C561 C565 1.393 . S
C562 H554 0.950 . S
C562 C560 1.391 . S
C562 C563 1.400 . S
C563 C562 1.400 . S
C563 C564 1.398 . S
C563 C569 1.491 . S
C564 H555 0.950 . S
C564 C563 1.398 . S
C564 C565 1.391 . S
C565 H553 0.950 . S
C565 C561 1.393 . S
C565 C564 1.391 . S
C566 H556 0.950 . S
C566 C567 1.386 . S
C566 C568 1.391 . S
C567 C566 1.386 . S
C567 C571 1.393 . S
C568 H557 0.950 . S
C568 C566 1.391 . S
C568 C569 1.400 . S
C569 C563 1.491 . S
C569 C568 1.400 . S
C569 C570 1.398 . S
C570 H558 0.950 . S
C570 C569 1.398 . S
C570 C571 1.391 . S
C571 H559 0.950 . S
C571 C567 1.393 . S
C571 C570 1.391 . S
H572 C580 0.950 . S
H573 C585 0.950 . S
H574 C582 0.950 . S
H575 C584 0.950 . S
H576 C586 0.950 . S
H577 C588 0.950 . S
H578 C590 0.950 . S
H579 C591 0.950 . S
C580 H572 0.950 . S
C580 C581 1.386 . S
C580 C582 1.391 . S
C581 C580 1.386 . S
C581 C585 1.393 . S
C582 H574 0.950 . S
C582 C580 1.391 . S
C582 C583 1.400 . S
C583 C582 1.400 . S
C583 C584 1.398 . S
C583 C589 1.491 . S
C584 H575 0.950 . S
C584 C583 1.398 . S
C584 C585 1.391 . S
C585 H573 0.950 . S
C585 C581 1.393 . S
C585 C584 1.391 . S
C586 H576 0.950 . S
C586 C587 1.386 . S
C586 C588 1.391 . S
C587 C586 1.386 . S
C587 C591 1.393 . S
C588 H577 0.950 . S
C588 C586 1.391 . S
C588 C589 1.400 . S
C589 C583 1.491 . S
C589 C588 1.400 . S
C589 C590 1.398 . S
C590 H578 0.950 . S
C590 C589 1.398 . S
C590 C591 1.391 . S
C591 H579 0.950 . S
C591 C587 1.393 . S
C591 C590 1.391 . S
H592 C600 0.950 . S
H593 C605 0.950 . S
H594 C602 0.950 . S
H595 C604 0.950 . S
H596 C606 0.950 . S
H597 C608 0.950 . S
H598 C610 0.950 . S
H599 C611 0.950 . S
C600 H592 0.950 . S
C600 C601 1.386 . S
C600 C602 1.391 . S
C601 C600 1.386 . S
C601 C605 1.393 . S
C602 H594 0.950 . S
C602 C600 1.391 . S
C602 C603 1.400 . S
C603 C602 1.400 . S
C603 C604 1.398 . S
C603 C609 1.491 . S
C604 H595 0.950 . S
C604 C603 1.398 . S
C604 C605 1.391 . S
C605 H593 0.950 . S
C605 C601 1.393 . S
C605 C604 1.391 . S
C606 H596 0.950 . S
C606 C607 1.386 . S
C606 C608 1.391 . S
C607 C606 1.386 . S
C607 C611 1.393 . S
C608 H597 0.950 . S
C608 C606 1.391 . S
C608 C609 1.400 . S
C609 C603 1.491 . S
C609 C608 1.400 . S
C609 C610 1.398 . S
C610 H598 0.950 . S
C610 C609 1.398 . S
C610 C611 1.391 . S
C611 H599 0.950 . S
C611 C607 1.393 . S
C611 C610 1.391 . S
H612 C620 0.950 . S
H613 C625 0.950 . S
H614 C622 0.950 . S
H615 C624 0.950 . S
H616 C626 0.950 . S
H617 C628 0.950 . S
H618 C630 0.950 . S
H619 C631 0.950 . S
C620 H612 0.950 . S
C620 C621 1.386 . S
C620 C622 1.391 . S
C621 C620 1.386 . S
C621 C625 1.393 . S
C622 H614 0.950 . S
C622 C620 1.391 . S
C622 C623 1.400 . S
C623 C622 1.400 . S
C623 C624 1.398 . S
C623 C629 1.491 . S
C624 H615 0.950 . S
C624 C623 1.398 . S
C624 C625 1.391 . S
C625 H613 0.950 . S
C625 C621 1.393 . S
C625 C624 1.391 . S
C626 H616 0.950 . S
C626 C627 1.386 . S
C626 C628 1.391 . S
C627 C626 1.386 . S
C627 C631 1.393 . S
C628 H617 0.950 . S
C628 C626 1.391 . S
C628 C629 1.400 . S
C629 C623 1.491 . S
C629 C628 1.400 . S
C629 C630 1.398 . S
C630 H618 0.950 . S
C630 C629 1.398 . S
C630 C631 1.391 . S
C631 H619 0.950 . S
C631 C627 1.393 . S
C631 C630 1.391 . S
H632 C640 0.950 . S
H633 C645 0.950 . S
H634 C642 0.950 . S
H635 C644 0.950 . S
H636 C646 0.950 . S
H637 C648 0.950 . S
H638 C650 0.950 . S
H639 C651 0.950 . S
C640 H632 0.950 . S
C640 C641 1.386 . S
C640 C642 1.391 . S
C641 C640 1.386 . S
C641 C645 1.393 . S
C642 H634 0.950 . S
C642 C640 1.391 . S
C642 C643 1.400 . S
C643 C642 1.400 . S
C643 C644 1.398 . S
C643 C649 1.491 . S
C644 H635 0.950 . S
C644 C643 1.398 . S
C644 C645 1.391 . S
C645 H633 0.950 . S
C645 C641 1.393 . S
C645 C644 1.391 . S
C646 H636 0.950 . S
C646 C647 1.386 . S
C646 C648 1.391 . S
C647 C646 1.386 . S
C647 C651 1.393 . S
C648 H637 0.950 . S
C648 C646 1.391 . S
C648 C649 1.400 . S
C649 C643 1.491 . S
C649 C648 1.400 . S
C649 C650 1.398 . S
C650 H638 0.950 . S
C650 C649 1.398 . S
C650 C651 1.391 . S
C651 H639 0.950 . S
C651 C647 1.393 . S
C651 C650 1.391 . S
H652 C660 0.950 . S
H653 C665 0.950 . S
H654 C662 0.950 . S
H655 C664 0.950 . S
H656 C666 0.950 . S
H657 C668 0.950 . S
H658 C670 0.950 . S
H659 C671 0.950 . S
C660 H652 0.950 . S
C660 C661 1.386 . S
C660 C662 1.391 . S
C661 C660 1.386 . S
C661 C665 1.393 . S
C662 H654 0.950 . S
C662 C660 1.391 . S
C662 C663 1.400 . S
C663 C662 1.400 . S
C663 C664 1.398 . S
C663 C669 1.491 . S
C664 H655 0.950 . S
C664 C663 1.398 . S
C664 C665 1.391 . S
C665 H653 0.950 . S
C665 C661 1.393 . S
C665 C664 1.391 . S
C666 H656 0.950 . S
C666 C667 1.386 . S
C666 C668 1.391 . S
C667 C666 1.386 . S
C667 C671 1.393 . S
C668 H657 0.950 . S
C668 C666 1.391 . S
C668 C669 1.400 . S
C669 C663 1.491 . S
C669 C668 1.400 . S
C669 C670 1.398 . S
C670 H658 0.950 . S
C670 C669 1.398 . S
C670 C671 1.391 . S
C671 H659 0.950 . S
C671 C667 1.393 . S
C671 C670 1.391 . S
H672 C680 0.950 . S
H673 C685 0.950 . S
H674 C682 0.950 . S
H675 C684 0.950 . S
H676 C686 0.950 . S
H677 C688 0.950 . S
H678 C690 0.950 . S
H679 C691 0.950 . S
C680 H672 0.950 . S
C680 C681 1.386 . S
C680 C682 1.391 . S
C681 C680 1.386 . S
C681 C685 1.393 . S
C682 H674 0.950 . S
C682 C680 1.391 . S
C682 C683 1.400 . S
C683 C682 1.400 . S
C683 C684 1.398 . S
C683 C689 1.491 . S
C684 H675 0.950 . S
C684 C683 1.398 . S
C684 C685 1.391 . S
C685 H673 0.950 . S
C685 C681 1.393 . S
C685 C684 1.391 . S
C686 H676 0.950 . S
C686 C687 1.386 . S
C686 C688 1.391 . S
C687 C686 1.386 . S
C687 C691 1.393 . S
C688 H677 0.950 . S
C688 C686 1.391 . S
C688 C689 1.400 . S
C689 C683 1.491 . S
C689 C688 1.400 . S
C689 C690 1.398 . S
C690 H678 0.950 . S
C690 C689 1.398 . S
C690 C691 1.391 . S
C691 H679 0.950 . S
C691 C687 1.393 . S
C691 C690 1.391 . S
H692 C700 0.950 . S
H693 C705 0.950 . S
H694 C702 0.950 . S
H695 C704 0.950 . S
H696 C706 0.950 . S
H697 C708 0.950 . S
H698 C710 0.950 . S
H699 C711 0.950 . S
C700 H692 0.950 . S
C700 C701 1.386 . S
C700 C702 1.391 . S
C701 C700 1.386 . S
C701 C705 1.393 . S
C702 H694 0.950 . S
C702 C700 1.391 . S
C702 C703 1.400 . S
C703 C702 1.400 . S
C703 C704 1.398 . S
C703 C709 1.491 . S
C704 H695 0.950 . S
C704 C703 1.398 . S
C704 C705 1.391 . S
C705 H693 0.950 . S
C705 C701 1.393 . S
C705 C704 1.391 . S
C706 H696 0.950 . S
C706 C707 1.386 . S
C706 C708 1.391 . S
C707 C706 1.386 . S
C707 C711 1.393 . S
C708 H697 0.950 . S
C708 C706 1.391 . S
C708 C709 1.400 . S
C709 C703 1.491 . S
C709 C708 1.400 . S
C709 C710 1.398 . S
C710 H698 0.950 . S
C710 C709 1.398 . S
C710 C711 1.391 . S
C711 H699 0.950 . S
C711 C707 1.393 . S
C711 C710 1.391 . S
H712 C720 0.950 . S
H713 C725 0.950 . S
H714 C722 0.950 . S
H715 C724 0.950 . S
H716 C726 0.950 . S
H717 C728 0.950 . S
H718 C730 0.950 . S
H719 C731 0.950 . S
C720 H712 0.950 . S
C720 C721 1.386 . S
C720 C722 1.391 . S
C721 C720 1.386 . S
C721 C725 1.393 . S
C722 H714 0.950 . S
C722 C720 1.391 . S
C722 C723 1.400 . S
C723 C722 1.400 . S
C723 C724 1.398 . S
C723 C729 1.491 . S
C724 H715 0.950 . S
C724 C723 1.398 . S
C724 C725 1.391 . S
C725 H713 0.950 . S
C725 C721 1.393 . S
C725 C724 1.391 . S
C726 H716 0.950 . S
C726 C727 1.386 . S
C726 C728 1.391 . S
C727 C726 1.386 . S
C727 C731 1.393 . S
C728 H717 0.950 . S
C728 C726 1.391 . S
C728 C729 1.400 . S
C729 C723 1.491 . S
C729 C728 1.400 . S
C729 C730 1.398 . S
C730 H718 0.950 . S
C730 C729 1.398 . S
C730 C731 1.391 . S
C731 H719 0.950 . S
C731 C727 1.393 . S
C731 C730 1.391 . S
H732 C740 0.950 . S
H733 C745 0.950 . S
H734 C742 0.950 . S
H735 C744 0.950 . S
H736 C746 0.974 . S
H737 C748 0.950 . S
H738 C750 0.950 . S
H739 C751 0.950 . S
C740 H732 0.950 . S
C740 C741 1.386 . S
C740 C742 1.391 . S
C741 C740 1.386 . S
C741 C745 1.393 . S
C742 H734 0.950 . S
C742 C740 1.391 . S
C742 C743 1.400 . S
C743 C742 1.400 . S
C743 C744 1.398 . S
C743 C749 1.491 . S
C744 H735 0.950 . S
C744 C743 1.398 . S
C744 C745 1.391 . S
C745 H733 0.950 . S
C745 C741 1.393 . S
C745 C744 1.391 . S
C746 H736 0.974 . S
C746 C747 1.386 . S
C746 C748 1.391 . S
C747 C746 1.386 . S
C747 C751 1.393 . S
C748 H737 0.950 . S
C748 C746 1.391 . S
C748 C749 1.400 . S
C749 C743 1.491 . S
C749 C748 1.400 . S
C749 C750 1.398 . S
C750 H738 0.950 . S
C750 C749 1.398 . S
C750 C751 1.391 . S
C751 H739 0.950 . S
C751 C747 1.393 . S
C751 C750 1.391 . S
H752 C760 0.950 . S
H753 C765 0.950 . S
H754 C762 0.950 . S
H755 C764 0.950 . S
H756 C766 0.950 . S
H757 C768 0.950 . S
H758 C770 0.950 . S
H759 C771 0.950 . S
C760 H752 0.950 . S
C760 C761 1.386 . S
C760 C762 1.391 . S
C761 C760 1.386 . S
C761 C765 1.393 . S
C762 H754 0.950 . S
C762 C760 1.391 . S
C762 C763 1.400 . S
C763 C762 1.400 . S
C763 C764 1.398 . S
C763 C769 1.491 . S
C764 H755 0.950 . S
C764 C763 1.398 . S
C764 C765 1.391 . S
C765 H753 0.950 . S
C765 C761 1.393 . S
C765 C764 1.391 . S
C766 H756 0.950 . S
C766 C767 1.386 . S
C766 C768 1.391 . S
C767 C766 1.386 . S
C767 C771 1.393 . S
C768 H757 0.950 . S
C768 C766 1.391 . S
C768 C769 1.400 . S
C769 C763 1.491 . S
C769 C768 1.400 . S
C769 C770 1.398 . S
C770 H758 0.950 . S
C770 C769 1.398 . S
C770 C771 1.391 . S
C771 H759 0.950 . S
C771 C767 1.393 . S
C771 C770 1.391 . S
H772 C780 0.950 . S
H773 C785 0.950 . S
H774 C782 0.950 . S
H775 C784 0.950 . S
H776 C786 0.950 . S
H777 C788 0.950 . S
H778 C790 0.950 . S
H779 C791 0.950 . S
C780 H772 0.950 . S
C780 C781 1.386 . S
C780 C782 1.391 . S
C781 C780 1.386 . S
C781 C785 1.393 . S
C782 H774 0.950 . S
C782 C780 1.391 . S
C782 C783 1.400 . S
C783 C782 1.400 . S
C783 C784 1.398 . S
C783 C789 1.491 . S
C784 H775 0.950 . S
C784 C783 1.398 . S
C784 C785 1.391 . S
C785 H773 0.950 . S
C785 C781 1.393 . S
C785 C784 1.391 . S
C786 H776 0.950 . S
C786 C787 1.386 . S
C786 C788 1.391 . S
C787 C786 1.386 . S
C787 C791 1.393 . S
C788 H777 0.950 . S
C788 C786 1.391 . S
C788 C789 1.400 . S
C789 C783 1.491 . S
C789 C788 1.400 . S
C789 C790 1.398 . S
C790 H778 0.950 . S
C790 C789 1.398 . S
C790 C791 1.391 . S
C791 H779 0.950 . S
C791 C787 1.393 . S
C791 C790 1.391 . S
H792 C800 0.950 . S
H793 C805 0.950 . S
H794 C802 0.950 . S
H795 C804 0.950 . S
H796 C806 0.950 . S
H797 C808 0.950 . S
H798 C810 0.950 . S
H799 C811 0.950 . S
C800 H792 0.950 . S
C800 C801 1.386 . S
C800 C802 1.391 . S
C801 C800 1.386 . S
C801 C805 1.393 . S
C802 H794 0.950 . S
C802 C800 1.391 . S
C802 C803 1.400 . S
C803 C802 1.400 . S
C803 C804 1.398 . S
C803 C809 1.491 . S
C804 H795 0.950 . S
C804 C803 1.398 . S
C804 C805 1.391 . S
C805 H793 0.950 . S
C805 C801 1.393 . S
C805 C804 1.391 . S
C806 H796 0.950 . S
C806 C807 1.386 . S
C806 C808 1.391 . S
C807 C806 1.386 . S
C807 C811 1.393 . S
C808 H797 0.950 . S
C808 C806 1.391 . S
C808 C809 1.400 . S
C809 C803 1.491 . S
C809 C808 1.400 . S
C809 C810 1.398 . S
C810 H798 0.950 . S
C810 C809 1.398 . S
C810 C811 1.391 . S
C811 H799 0.950 . S
C811 C807 1.393 . S
C811 C810 1.391 . S
H812 C820 0.950 . S
H813 C825 0.950 . S
H814 C822 0.950 . S
H815 C824 0.950 . S
H816 C826 0.950 . S
H817 C828 0.950 . S
H818 C830 0.950 . S
H819 C831 0.950 . S
C820 H812 0.950 . S
C820 C821 1.386 . S
C820 C822 1.391 . S
C821 C820 1.386 . S
C821 C825 1.393 . S
C822 H814 0.950 . S
C822 C820 1.391 . S
C822 C823 1.400 . S
C823 C822 1.400 . S
C823 C824 1.398 . S
C823 C829 1.491 . S
C824 H815 0.950 . S
C824 C823 1.398 . S
C824 C825 1.391 . S
C825 H813 0.950 . S
C825 C821 1.393 . S
C825 C824 1.391 . S
C826 H816 0.950 . S
C826 C827 1.386 . S
C826 C828 1.391 . S
C827 C826 1.386 . S
C827 C831 1.393 . S
C828 H817 0.950 . S
C828 C826 1.391 . S
C828 C829 1.400 . S
C829 C823 1.491 . S
C829 C828 1.400 . S
C829 C830 1.398 . S
C830 H818 0.950 . S
C830 C829 1.398 . S
C830 C831 1.391 . S
C831 H819 0.950 . S
C831 C827 1.393 . S
C831 C830 1.391 . S
H832 C840 0.950 . S
H833 C845 0.950 . S
H834 C842 0.950 . S
H835 C844 0.950 . S
H836 C846 0.950 . S
H837 C848 0.950 . S
H838 C850 0.950 . S
H839 C851 0.951 . S
C840 H832 0.950 . S
C840 C841 1.386 . S
C840 C842 1.391 . S
C841 C840 1.386 . S
C841 C845 1.393 . S
C842 H834 0.950 . S
C842 C840 1.391 . S
C842 C843 1.400 . S
C843 C842 1.400 . S
C843 C844 1.398 . S
C843 C849 1.491 . S
C844 H835 0.950 . S
C844 C843 1.398 . S
C844 C845 1.391 . S
C845 H833 0.950 . S
C845 C841 1.393 . S
C845 C844 1.391 . S
C846 H836 0.950 . S
C846 C847 1.386 . S
C846 C848 1.391 . S
C847 C846 1.386 . S
C847 C851 1.393 . S
C848 H837 0.950 . S
C848 C846 1.391 . S
C848 C849 1.400 . S
C849 C843 1.491 . S
C849 C848 1.400 . S
C849 C850 1.398 . S
C850 H838 0.950 . S
C850 C849 1.398 . S
C850 C851 1.391 . S
C851 H839 0.951 . S
C851 C847 1.393 . S
C851 C850 1.391 . S
H852 C860 0.950 . S
H853 C865 0.950 . S
H854 C862 0.950 . S
H855 C864 0.950 . S
H856 C866 0.950 . S
H857 C868 0.950 . S
H858 C870 0.950 . S
H859 C871 0.950 . S
C860 H852 0.950 . S
C860 C861 1.386 . S
C860 C862 1.391 . S
C861 C860 1.386 . S
C861 C865 1.393 . S
C862 H854 0.950 . S
C862 C860 1.391 . S
C862 C863 1.400 . S
C863 C862 1.400 . S
C863 C864 1.398 . S
C863 C869 1.491 . S
C864 H855 0.950 . S
C864 C863 1.398 . S
C864 C865 1.391 . S
C865 H853 0.950 . S
C865 C861 1.393 . S
C865 C864 1.391 . S
C866 H856 0.950 . S
C866 C867 1.386 . S
C866 C868 1.391 . S
C867 C866 1.386 . S
C867 C871 1.393 . S
C868 H857 0.950 . S
C868 C866 1.391 . S
C868 C869 1.400 . S
C869 C863 1.491 . S
C869 C868 1.400 . S
C869 C870 1.398 . S
C870 H858 0.950 . S
C870 C869 1.398 . S
C870 C871 1.391 . S
C871 H859 0.950 . S
C871 C867 1.393 . S
C871 C870 1.391 . S
C401 C1 1.543 . S
C407 C314 1.562 . S
C421 C40 1.374 . S
C427 C333 1.346 . S
C447 C370 1.738 . S
C441 C99 1.770 . S
C461 C118 1.697 . S
C467 C380 1.642 . S
C487 C350 2.018 . S
C481 C16 1.982 . S
C507 C320 1.434 . S
C501 C60 1.494 . S
C527 C391 1.514 . S
C521 C79 1.537 . S
C547 C361 1.378 . S
C541 C138 1.404 . S
C561 C21 1.735 . S
C567 C374 1.783 . S
C587 C341 1.721 . S
C581 C94 1.767 . S
C601 C133 1.722 . S
C607 C331 1.726 . S
C621 C55 1.231 . S
C627 C353 1.241 . S
C647 C313 1.559 . S
C641 C157 1.535 . S
C661 C196 1.371 . S
C667 C334 1.331 . S
C681 C255 1.768 . S
C687 C371 1.746 . S
C701 C289 1.698 . S
C707 C381 1.647 . S
C721 C172 1.976 . S
C727 C351 2.016 . S
C747 C321 1.441 . S
C741 C216 1.502 . S
C767 C390 1.511 . S
C761 C235 1.539 . S
C787 C360 1.367 . S
C781 C294 1.401 . S
C801 C177 1.753 . S
C807 C373 1.783 . S
C827 C340 1.704 . S
C821 C250 1.768 . S
C847 C330 1.726 . S
C841 C274 1.728 . S
C861 C211 1.227 . S
C867 C354 1.238 . S
