# Generated by pormake.
# Topology sit, (3,6)-cn, num edge types: 1
# Building blocks:
#     Node 0, Type 0, BuildingBlock: VETTIZ_charged_linker_0, # of connection points: 3
#     Node 1, Type 0, BuildingBlock: VETTIZ_charged_linker_0, # of connection points: 3
#     Node 2, Type 0, BuildingBlock: VETTIZ_charged_linker_0, # of connection points: 3
#     Node 3, Type 0, BuildingBlock: VETTIZ_charged_linker_0, # of connection points: 3
#     Node 4, Type 1, BuildingBlock: MIDCAF_clean_sbu_0, # of connection points: 6
#     Node 5, Type 1, BuildingBlock: MIDCAF_clean_sbu_0, # of connection points: 6
#     Edge 6, Type (0, 1), BuildingBlock: KIFKEQ_clean_linker_1, # of connection points: 2
#     Edge 7, Type (0, 1), BuildingBlock: KIFKEQ_clean_linker_1, # of connection points: 2
#     Edge 8, Type (0, 1), BuildingBlock: KIFKEQ_clean_linker_1, # of connection points: 2
#     Edge 9, Type (0, 1), BuildingBlock: KIFKEQ_clean_linker_1, # of connection points: 2
#     Edge 10, Type (0, 1), BuildingBlock: KIFKEQ_clean_linker_1, # of connection points: 2
#     Edge 11, Type (0, 1), BuildingBlock: KIFKEQ_clean_linker_1, # of connection points: 2
#     Edge 12, Type (0, 1), BuildingBlock: KIFKEQ_clean_linker_1, # of connection points: 2
#     Edge 13, Type (0, 1), BuildingBlock: KIFKEQ_clean_linker_1, # of connection points: 2
#     Edge 14, Type (0, 1), BuildingBlock: KIFKEQ_clean_linker_1, # of connection points: 2
#     Edge 15, Type (0, 1), BuildingBlock: KIFKEQ_clean_linker_1, # of connection points: 2
#     Edge 16, Type (0, 1), BuildingBlock: KIFKEQ_clean_linker_1, # of connection points: 2
#     Edge 17, Type (0, 1), BuildingBlock: KIFKEQ_clean_linker_1, # of connection points: 2
# Relax obj value: 0.113
# Max RMSD: 0.194
# Mean RMSD: 0.109
data_MOF--net-sit--node1-MIDCAF_clean_sbu_0--node2-VETTIZ_charged_linker_0--edge1-KIFKEQ_clean_linker_1
_symmetry_space_group_name_H-M    P1
_symmetry_Int_Tables_number       1
_symmetry_cell_setting            triclinic
loop_
_symmetry_equiv_pos_as_xyz
'x, y, z'
_cell_length_a     29.570977
_cell_length_b     37.445678
_cell_length_c     44.034149
_cell_angle_alpha  90.247326
_cell_angle_beta   89.098264
_cell_angle_gamma 83.953765
loop_
_atom_site_label
_atom_site_type_symbol
_atom_site_fract_x
_atom_site_fract_y
_atom_site_fract_z
_atom_type_partial_charge
C0 C 0.04829 0.27403 0.09566 0.0
C1 C 0.085 0.25053 0.1061 0.0
C2 C 0.12969 0.25874 0.0997 0.0
C3 C 0.1003 0.31351 0.07407 0.0
C4 C 0.05662 0.30529 0.0802 0.0
C5 C 0.02104 0.33361 0.06902 0.0
H6 H 0.96905 0.48972 -0.00531 0.0
C7 C 0.09693 0.34863 0.0584 0.0
C8 C 0.05046 0.36074 0.05591 0.0
H9 H 0.87763 0.4144 0.02634 0.0
H10 H 0.9398 0.37914 0.05016 0.0
H11 H 0.03736 0.48571 0.05525 0.0
H12 H 0.03384 0.43649 0.96762 0.0
H13 H 0.09186 0.4353 0.97488 0.0
H14 H 0.05772 0.47806 0.97279 0.0
H15 H 0.0474 0.50785 0.0201 0.0
H16 H 0.09312 0.48296 0.04018 0.0
C17 C -0.00774 0.3491 0.09667 0.0
C18 C -0.00659 0.31645 0.04421 0.0
C19 C 0.23731 0.39723 0.01254 0.0
C20 C 0.24204 0.42764 -0.00542 0.0
C21 C 0.2049 0.45397 -0.00851 0.0
C22 C 0.16275 0.4493 0.0047 0.0
C23 C 0.15734 0.41756 0.0206 0.0
C24 C 0.19444 0.39261 0.02523 0.0
C25 C 0.18156 0.3606 0.04287 0.0
C26 C 0.13029 0.36959 0.04624 0.0
C27 C 0.1166 0.40297 0.03302 0.0
C28 C 0.20544 0.36012 0.07392 0.0
C29 C 0.19414 0.32641 0.02336 0.0
C30 C 0.96219 0.46588 0.00706 0.0
C31 C 0.91819 0.45489 0.00833 0.0
C32 C 0.91096 0.42387 0.02511 0.0
C33 C 0.94734 0.40301 0.03858 0.0
C34 C -0.00836 0.41288 0.03495 0.0
C35 C -0.00172 0.44425 0.01989 0.0
C36 C 0.04776 0.44907 0.0158 0.0
C37 C 0.06977 0.41528 0.03074 0.0
C38 C 0.03685 0.39429 0.04209 0.0
C39 C 0.0572 0.48328 0.03351 0.0
C40 C 0.05865 0.45004 0.98112 0.0
H41 H 0.1722 0.29496 0.07984 0.0
H42 H 0.0135 0.26845 0.09963 0.0
H43 H 0.01491 0.29501 0.03152 0.0
H44 H -0.01911 0.33575 0.02657 0.0
H45 H 0.96418 0.3041 0.05432 0.0
H46 H 0.01421 0.35193 0.11665 0.0
H47 H 0.96616 0.33119 0.10327 0.0
H48 H 0.9753 0.37632 0.09268 0.0
H49 H 0.26561 0.37671 0.0152 0.0
H50 H 0.20821 0.47771 0.97798 0.0
H51 H 0.13556 0.46998 0.00093 0.0
H52 H 0.20904 0.38786 0.08199 0.0
H53 H 0.24006 0.34543 0.07235 0.0
H54 H 0.18575 0.34822 0.09209 0.0
H55 H 0.18352 0.33116 -0.00053 0.0
H56 H 0.17702 0.30324 0.0311 0.0
H57 H 0.23144 0.3186 0.0232 0.0
H58 H 0.15869 0.24148 0.10771 0.0
C59 C 0.1375 0.29005 0.08378 0.0
C60 C 0.20365 0.63035 0.01745 0.0
C61 C 0.20882 0.59923 -0.00078 0.0
C62 C 0.17026 0.58157 -0.00718 0.0
C63 C 0.12181 0.62988 0.01739 0.0
C64 C 0.16002 0.64538 0.02594 0.0
C65 C 0.1485 0.681 0.04158 0.0
H66 H -0.00936 0.81274 0.09125 0.0
C67 C 0.08162 0.65503 0.02584 0.0
C68 C 0.09699 0.68481 0.04032 0.0
H69 H 0.13738 0.80695 0.09673 0.0
H70 H 0.14465 0.75002 0.07133 0.0
H71 H -0.00521 0.78474 0.01988 0.0
H72 H -0.02153 0.72993 0.10474 0.0
H73 H 0.93941 0.71583 0.07857 0.0
H74 H 0.93518 0.76231 0.09015 0.0
H75 H 0.94346 0.79175 0.04239 0.0
H76 H 0.95285 0.7554 0.01531 0.0
C77 C 0.16935 0.71029 0.0226 0.0
C78 C 0.16557 0.67736 0.07461 0.0
C79 C 0.92745 0.63246 0.98619 0.0
C80 C 0.8845 0.65229 0.98751 0.0
C81 C 0.87803 0.6833 0.00601 0.0
C82 C 0.91457 0.69538 0.02169 0.0
C83 C 0.95799 0.67626 0.01878 0.0
C84 C 0.96347 0.6448 0.00193 0.0
C85 C 0.01173 0.62777 0.0013 0.0
C86 C 0.03474 0.65477 0.01971 0.0
C87 C 0.00327 0.68335 0.02973 0.0
C88 C 0.02857 0.62583 0.96772 0.0
C89 C 0.01322 0.59087 0.01731 0.0
C90 C 0.02438 0.79947 0.08669 0.0
C91 C 0.06342 0.81435 0.09688 0.0
C92 C 0.10656 0.79586 0.09024 0.0
C93 C 0.11083 0.76269 0.07522 0.0
C94 C 0.07167 0.7478 0.06597 0.0
C95 C 0.02936 0.76638 0.07114 0.0
C96 C -0.00812 0.74697 0.05798 0.0
C97 C 0.01871 0.71312 0.04525 0.0
C98 C 0.06539 0.71387 0.05017 0.0
C99 C 0.9691 0.77082 0.03267 0.0
C100 C 0.95913 0.73839 0.08405 0.0
H101 H 0.09848 0.58285 -0.00475 0.0
H102 H 0.23277 0.64423 0.02312 0.0
H103 H 0.16012 0.65058 0.08401 0.0
H104 H 0.14705 0.69691 0.09041 0.0
H105 H 0.20254 0.68019 0.07562 0.0
H106 H 0.17171 0.70297 -0.00194 0.0
H107 H 0.20419 0.71403 0.03018 0.0
H108 H 0.14828 0.73648 0.02324 0.0
H109 H 0.93316 0.60815 0.9726 0.0
H110 H 0.84507 0.69893 0.00745 0.0
H111 H 0.90785 0.71952 0.03496 0.0
H112 H 0.01564 0.65058 0.95533 0.0
H113 H 0.01642 0.60257 0.95575 0.0
H114 H 0.06585 0.62419 0.96513 0.0
H115 H -0.01356 0.5911 0.03537 0.0
H116 H 0.0455 0.58365 0.02926 0.0
H117 H 0.00761 0.56917 0.00095 0.0
H118 H 0.17333 0.55751 0.97886 0.0
C119 C 0.12674 0.59664 0.002 0.0
C120 C 0.52652 0.74964 0.58798 0.0
C121 C 0.56735 0.72998 0.59684 0.0
C122 C 0.60896 0.74207 0.58736 0.0
C123 C 0.56854 0.79295 0.56176 0.0
C124 C 0.52789 0.78095 0.57093 0.0
C125 C 0.48731 0.80546 0.56108 0.0
H126 H 0.40243 0.95102 0.48227 0.0
C127 C 0.55781 0.82689 0.54487 0.0
C128 C 0.51017 0.83448 0.54483 0.0
H129 H 0.32799 0.87334 0.52831 0.0
H130 H 0.39818 0.84361 0.54752 0.0
H131 H 0.47656 0.95952 0.53716 0.0
H132 H 0.47318 0.89837 0.45482 0.0
H133 H 0.52931 0.9087 0.45738 0.0
H134 H 0.48388 0.94462 0.45481 0.0
H135 H 0.48125 0.97875 0.50015 0.0
H136 H 0.53069 0.95924 0.52011 0.0
C137 C 0.46064 0.82017 0.58987 0.0
C138 C 0.45953 0.78415 0.53913 0.0
C139 C 0.68305 0.8886 0.49198 0.0
C140 C 0.68155 0.91899 0.47312 0.0
C141 C 0.63992 0.94029 0.46935 0.0
C142 C 0.60003 0.93083 0.48309 0.0
C143 C 0.60146 0.89945 0.50056 0.0
C144 C 0.64254 0.87923 0.50536 0.0
C145 C 0.63694 0.84675 0.52472 0.0
C146 C 0.5856 0.8503 0.52974 0.0
C147 C 0.56527 0.88125 0.51544 0.0
C148 C 0.6625 0.85076 0.55474 0.0
C149 C 0.65398 0.81271 0.50608 0.0
C150 C 0.40106 0.92829 0.49727 0.0
C151 C 0.35965 0.91452 0.50379 0.0
C152 C 0.35957 0.88428 0.52278 0.0
C153 C 0.40039 0.86699 0.53379 0.0
C154 C 0.44182 0.87986 0.52553 0.0
C155 C 0.4415 0.91049 0.50811 0.0
C156 C 0.48855 0.91941 0.5002 0.0
C157 C 0.51728 0.88889 0.5155 0.0
C158 C 0.48985 0.86579 0.53026 0.0
C159 C 0.49485 0.95624 0.51487 0.0
C160 C 0.49432 0.91804 0.46505 0.0
H161 H 0.64243 0.78133 0.56364 0.0
H162 H 0.49386 0.74104 0.59434 0.0
H163 H 0.48242 0.76533 0.52473 0.0
H164 H 0.43964 0.80144 0.52283 0.0
H165 H 0.43623 0.76798 0.55186 0.0
H166 H 0.48426 0.82463 0.60861 0.0
H167 H 0.43701 0.80104 0.59813 0.0
H168 H 0.44128 0.84665 0.58629 0.0
H169 H 0.71467 0.87176 0.49527 0.0
H170 H 0.63817 0.96413 0.45538 0.0
H171 H 0.56941 0.94793 0.47889 0.0
H172 H 0.66025 0.8794 0.56202 0.0
H173 H 0.69911 0.84087 0.55209 0.0
H174 H 0.64772 0.83674 0.57391 0.0
H175 H 0.64203 0.81527 0.48228 0.0
H176 H 0.64099 0.78816 0.51486 0.0
H177 H 0.69173 0.80851 0.50537 0.0
H178 H 0.641 0.72789 0.59411 0.0
C179 C 0.60975 0.77337 0.5699 0.0
C180 C 0.64811 0.14847 0.50093 0.0
C181 C 0.65131 0.11711 0.483 0.0
C182 C 0.61214 0.09944 0.47871 0.0
C183 C 0.56661 0.14724 0.50596 0.0
C184 C 0.60558 0.16313 0.51196 0.0
C185 C 0.59574 0.19814 0.52885 0.0
H186 H 0.44282 0.32774 0.58809 0.0
C187 C 0.52742 0.17158 0.51739 0.0
C188 C 0.54421 0.20129 0.53102 0.0
H189 H 0.58987 0.31901 0.59156 0.0
H190 H 0.59476 0.26446 0.56263 0.0
H191 H 0.43819 0.29928 0.51649 0.0
H192 H 0.43379 0.24508 0.60268 0.0
H193 H 0.3923 0.22984 0.57903 0.0
H194 H 0.3878 0.27647 0.5902 0.0
H195 H 0.39068 0.30707 0.54244 0.0
H196 H 0.39507 0.27037 0.5156 0.0
C197 C 0.61292 0.22826 0.50902 0.0
C198 C 0.61786 0.19385 0.56051 0.0
C199 C 0.3686 0.14449 0.49134 0.0
C200 C 0.32526 0.16321 0.49565 0.0
C201 C 0.32106 0.19518 0.51308 0.0
C202 C 0.35958 0.20881 0.52504 0.0
C203 C 0.40284 0.19038 0.51945 0.0
C204 C 0.40656 0.15842 0.50333 0.0
C205 C 0.45495 0.14262 0.4989 0.0
C206 C 0.4799 0.17051 0.51471 0.0
C207 C 0.44941 0.19863 0.52662 0.0
C208 C 0.46554 0.14068 0.46425 0.0
C209 C 0.46105 0.10592 0.51532 0.0
C210 C 0.47608 0.31417 0.58248 0.0
C211 C 0.51601 0.32822 0.59205 0.0
C212 C 0.55851 0.30958 0.58401 0.0
C213 C 0.56136 0.27742 0.56753 0.0
C214 C 0.52134 0.26335 0.55883 0.0
C215 C 0.47956 0.28171 0.56606 0.0
C216 C 0.44079 0.26205 0.55517 0.0
C217 C 0.46639 0.22854 0.54096 0.0
C218 C 0.51355 0.22973 0.54308 0.0
C219 C 0.41437 0.28581 0.53129 0.0
C220 C 0.41173 0.25296 0.58307 0.0
H221 H 0.54094 0.10029 0.48522 0.0
H222 H 0.67783 0.16232 0.50502 0.0
H223 H 0.61943 0.16559 0.56848 0.0
H224 H 0.59803 0.20964 0.5784 0.0
H225 H 0.65318 0.20144 0.55993 0.0
H226 H 0.60663 0.22349 0.48456 0.0
H227 H 0.65006 0.22933 0.51162 0.0
H228 H 0.59515 0.25509 0.51399 0.0
H229 H 0.37339 0.12022 0.47769 0.0
H230 H 0.28799 0.2099 0.51719 0.0
H231 H 0.35427 0.23344 0.53778 0.0
H232 H 0.44757 0.16408 0.45237 0.0
H233 H 0.45442 0.11595 0.45403 0.0
H234 H 0.50179 0.1419 0.45857 0.0
H235 H 0.43859 0.10608 0.53585 0.0
H236 H 0.49582 0.0993 0.52397 0.0
H237 H 0.45245 0.08385 0.50023 0.0
H238 H 0.61372 0.07529 0.46493 0.0
C239 C 0.5698 0.11427 0.49021 0.0
Zn240 Zn 0.00155 0.09927 0.32651 0.0
Zn241 Zn 0.0438 0.95947 0.32442 0.0
Zn242 Zn 0.02559 0.02959 0.32602 0.0
C243 C 0.0379 0.9819 0.26447 0.0
C244 C 0.96087 0.97214 0.35405 0.0
O245 O 0.07655 0.053 0.35394 0.0
O246 O 0.04889 0.11029 0.35561 0.0
C247 C 0.02455 0.08206 0.26685 0.0
O248 O 0.03383 1.013 0.27748 0.0
O249 O 0.04157 0.95359 0.28004 0.0
O250 O -0.00875 0.94649 0.34888 0.0
O251 O 0.96728 1.0044 0.34616 0.0
O252 O 0.01096 0.1089 0.28319 0.0
O253 O 0.03119 0.05042 0.27854 0.0
O254 O 0.95778 0.04213 0.34813 0.0
O255 O 0.93892 0.10049 0.34223 0.0
C256 C 0.92952 0.0705 0.35199 0.0
O257 O 0.08665 1.01503 0.35385 0.0
O258 O 0.10317 0.95695 0.34449 0.0
C259 C 0.07848 0.08539 0.36347 0.0
C260 C 0.11229 0.98536 0.3575 0.0
Zn261 Zn 0.54508 0.59247 0.82788 0.0
Zn262 Zn 0.60209 0.45408 0.83735 0.0
Zn263 Zn 0.57327 0.52247 0.8301 0.0
C264 C 0.5793 0.46531 0.77559 0.0
C265 C 0.52007 0.46583 0.86881 0.0
O266 O 0.6261 0.5524 0.85031 0.0
O267 O 0.59644 0.60925 0.85068 0.0
C268 C 0.55871 0.56699 0.76786 0.0
O269 O 0.57301 0.49859 0.78376 0.0
O270 O 0.59278 0.44151 0.79459 0.0
O271 O 0.55364 0.44214 0.86644 0.0
O272 O 0.52142 0.49676 0.85623 0.0
O273 O 0.54663 0.59498 0.78322 0.0
O274 O 0.56942 0.53663 0.78102 0.0
O275 O 0.50894 0.53447 0.85629 0.0
O276 O 0.48605 0.59202 0.8492 0.0
C277 C 0.48003 0.56223 0.86099 0.0
O278 O 0.63848 0.51514 0.85489 0.0
O279 O 0.66358 0.45731 0.85306 0.0
C280 C 0.6287 0.58571 0.85688 0.0
C281 C 0.66858 0.4889 0.86134 0.0
H282 H 0.1321 0.18267 0.10619 0.0
H283 H 0.01865 0.24666 0.1494 0.0
H284 H 0.11775 0.13177 0.13854 0.0
H285 H 0.00405 0.1962 0.18081 0.0
H286 H 0.10703 0.08092 0.23875 0.0
H287 H 0.12233 0.11638 0.19383 0.0
H288 H -0.02207 0.13659 0.17875 0.0
H289 H 0.96304 0.1022 0.2241 0.0
C290 C 0.10408 0.18591 0.12243 0.0
C291 C 0.07631 0.21881 0.12492 0.0
C292 C 0.09575 0.15668 0.14082 0.0
C293 C 0.05926 0.15966 0.16188 0.0
C294 C 0.03159 0.1925 0.16421 0.0
C295 C 0.04004 0.2216 0.14612 0.0
C296 C 0.07882 0.0915 0.22488 0.0
C297 C 0.03391 0.08885 0.23465 0.0
C298 C 0.0875 0.11201 0.19926 0.0
C299 C 0.05127 0.13009 0.18319 0.0
C300 C 0.00655 0.12371 0.19107 0.0
C301 C -0.00204 0.10359 0.21674 0.0
H302 H 0.00092 0.87459 0.09291 0.0
H303 H 0.11719 0.83023 0.14399 0.0
H304 H -0.00646 0.92758 0.12619 0.0
H305 H 0.11082 0.88321 0.17586 0.0
H306 H 0.10944 0.98206 0.22542 0.0
H307 H 0.11607 0.94953 0.17694 0.0
H308 H 0.97307 0.93547 0.18228 0.0
H309 H 0.96678 0.96814 0.23052 0.0
C310 C 0.02512 0.87614 0.11093 0.0
C311 C 0.05978 0.84795 0.11555 0.0
C312 C 0.02112 0.90667 0.12977 0.0
C313 C 0.05207 0.90987 0.1533 0.0
C314 C 0.08722 0.88214 0.15739 0.0
C315 C 0.09082 0.85158 0.13899 0.0
C316 C 0.07906 0.97373 0.21529 0.0
C317 C 0.03758 0.97767 0.23139 0.0
C318 C 0.08287 0.95475 0.18777 0.0
C319 C 0.04526 0.93934 0.17614 0.0
C320 C 0.0026 0.94711 0.19055 0.0
C321 C -0.0011 0.96595 0.21811 0.0
H322 H 0.62422 0.66645 0.59637 0.0
H323 H 0.50821 0.72173 0.64395 0.0
H324 H 0.62275 0.61582 0.63135 0.0
H325 H 0.50624 0.67138 0.67797 0.0
H326 H 0.4893 0.57607 0.72872 0.0
H327 H 0.49128 0.60843 0.68076 0.0
H328 H 0.63732 0.60535 0.68656 0.0
H329 H 0.63504 0.57209 0.73415 0.0
C330 C 0.59833 0.66782 0.61411 0.0
C331 C 0.56616 0.69823 0.61712 0.0
C332 C 0.59735 0.6387 0.63401 0.0
C333 C 0.56393 0.63924 0.65714 0.0
C334 C 0.53163 0.66948 0.65987 0.0
C335 C 0.53283 0.69853 0.64028 0.0
C336 C 0.52196 0.58064 0.71881 0.0
C337 C 0.56203 0.57143 0.73483 0.0
C338 C 0.52311 0.59963 0.69162 0.0
C339 C 0.56434 0.61031 0.68028 0.0
C340 C 0.60502 0.59754 0.69463 0.0
C341 C 0.60382 0.57828 0.72179 0.0
H342 H 0.57273 0.38206 0.59352 0.0
H343 H 0.45532 0.3456 0.63875 0.0
H344 H 0.58143 0.42311 0.63575 0.0
H345 H 0.4626 0.38796 0.67983 0.0
H346 H 0.54702 0.40234 0.76443 0.0
H347 H 0.52325 0.37856 0.71707 0.0
H348 H 0.55296 0.47523 0.67102 0.0
H349 H 0.57796 0.49931 0.71947 0.0
C350 C 0.5481 0.38339 0.61206 0.0
C351 C 0.51413 0.35965 0.61311 0.0
C352 C 0.55276 0.40734 0.63605 0.0
C353 C 0.52333 0.40817 0.66142 0.0
C354 C 0.48639 0.38738 0.66082 0.0
C355 C 0.48196 0.36326 0.63706 0.0
C356 C 0.54858 0.41878 0.74433 0.0
C357 C 0.56456 0.45278 0.74574 0.0
C358 C 0.53419 0.40528 0.71715 0.0
C359 C 0.53541 0.4252 0.69032 0.0
C360 C 0.5513 0.45938 0.69145 0.0
C361 C 0.56539 0.47325 0.7191 0.0
H362 H 0.24889 0.43068 0.93359 0.0
H363 H 0.32833 0.4315 0.01479 0.0
H364 H 0.31631 0.43708 0.90256 0.0
H365 H 0.39598 0.44006 0.98398 0.0
H366 H 0.51749 0.42464 0.91941 0.0
H367 H 0.45079 0.41292 0.94956 0.0
H368 H 0.36509 0.47877 0.88832 0.0
H369 H 0.43158 0.4882 0.85729 0.0
C370 C 0.28101 0.43251 0.94471 0.0
C371 C 0.28374 0.43065 0.97643 0.0
C372 C 0.31961 0.43648 0.92701 0.0
C373 C 0.36174 0.43939 0.94067 0.0
C374 C 0.36436 0.43731 0.97258 0.0
C375 C 0.32572 0.43264 -0.00971 0.0
C376 C 0.48423 0.43624 0.91235 0.0
C377 C 0.4796 0.45795 0.88645 0.0
C378 C 0.44604 0.42991 0.92979 0.0
C379 C 0.4024 0.44516 0.92167 0.0
C380 C 0.39792 0.4661 0.89517 0.0
C381 C 0.43606 0.47201 0.87756 0.0
H382 H 0.88966 0.63497 0.92744 0.0
H383 H 0.7962 0.64589 0.00398 0.0
H384 H 0.82889 0.61943 0.8948 0.0
H385 H 0.73546 0.62901 0.97168 0.0
H386 H 0.62588 0.63596 0.90137 0.0
H387 H 0.68819 0.65209 0.93227 0.0
H388 H 0.78105 0.57507 0.88267 0.0
H389 H 0.71864 0.56068 0.85057 0.0
C390 C 0.85613 0.63353 0.93734 0.0
C391 C 0.84753 0.6417 0.9682 0.0
C392 C 0.82131 0.62449 0.91867 0.0
C393 C 0.7771 0.62307 0.9305 0.0
C394 C 0.76881 0.63062 0.96159 0.0
C395 C 0.80357 0.64013 0.98018 0.0
C396 C 0.65976 0.6228 0.8969 0.0
C397 C 0.66744 0.59653 0.87407 0.0
C398 C 0.6954 0.63166 0.91488 0.0
C399 C 0.73962 0.61442 0.91044 0.0
C400 C 0.74754 0.58906 0.88671 0.0
C401 C 0.71179 0.58044 0.86854 0.0
H402 H 0.82624 0.46704 0.02062 0.0
H403 H 0.92751 0.48171 0.95113 0.0
H404 H 0.76635 0.48396 0.98437 0.0
H405 H 0.86784 0.50052 0.91573 0.0
H406 H 0.7565 0.46166 0.854 0.0
H407 H 0.8174 0.46318 0.89047 0.0
H408 H 0.72648 0.52893 0.95089 0.0
H409 H 0.6652 0.52671 0.91428 0.0
C410 C 0.83578 0.47459 -0.00212 0.0
C411 C 0.88178 0.47237 0.98876 0.0
C412 C 0.80143 0.48476 0.97721 0.0
C413 C 0.81243 0.49303 0.94704 0.0
C414 C 0.85832 0.49367 0.93867 0.0
C415 C 0.89259 0.48329 0.9592 0.0
C416 C 0.74994 0.47698 0.87482 0.0
C417 C 0.70661 0.49442 0.88128 0.0
C418 C 0.78479 0.47811 0.89565 0.0
C419 C 0.77681 0.49631 0.92356 0.0
C420 C 0.73357 0.51452 0.92968 0.0
C421 C 0.69869 0.51351 0.9087 0.0
H422 H 0.25414 0.53184 0.98859 0.0
H423 H 0.26045 0.64473 0.97087 0.0
H424 H 0.32119 0.51722 0.95513 0.0
H425 H 0.32664 0.63012 0.93825 0.0
H426 H 0.39396 0.58988 0.85028 0.0
H427 H 0.3291 0.59381 0.88562 0.0
H428 H 0.41188 0.53536 0.95259 0.0
H429 H 0.47739 0.53181 0.9171 0.0
C430 C 0.27012 0.55342 0.97794 0.0
C431 C 0.25223 0.58943 0.9825 0.0
C432 C 0.30837 0.54506 0.95899 0.0
C433 C 0.32846 0.57262 0.94407 0.0
C434 C 0.31139 0.60846 0.94938 0.0
C435 C 0.27381 0.61678 0.96837 0.0
C436 C 0.39806 0.57744 0.87238 0.0
C437 C 0.44026 0.56034 0.88102 0.0
C438 C 0.36111 0.57961 0.8925 0.0
C439 C 0.3658 0.56491 0.9217 0.0
C440 C 0.40756 0.54661 0.93007 0.0
C441 C 0.44481 0.54464 0.90989 0.0
H442 H 0.68786 0.93376 0.41296 0.0
H443 H 0.76704 0.92385 0.49454 0.0
H444 H 0.75465 0.94709 0.38394 0.0
H445 H 0.83388 0.93863 0.46582 0.0
H446 H 0.95509 0.92624 0.40086 0.0
H447 H 0.88751 0.91387 0.4295 0.0
H448 H 0.80556 0.9899 0.37412 0.0
H449 H 0.87329 1.00031 0.34426 0.0
C450 C 0.71958 0.93492 0.42473 0.0
C451 C 0.72239 0.92771 0.45596 0.0
C452 C 0.75785 0.94277 0.40813 0.0
C453 C 0.79984 0.94396 0.42244 0.0
C454 C 0.80239 0.93724 0.45388 0.0
C455 C 0.76414 0.9289 0.4704 0.0
C456 C 0.92251 0.94011 0.39475 0.0
C457 C 0.91937 0.9648 0.37082 0.0
C458 C 0.88381 0.93339 0.41141 0.0
C459 C 0.84098 0.95123 0.40451 0.0
C460 C 0.83783 0.97541 0.38 0.0
C461 C 0.87663 0.98182 0.36313 0.0
H462 H 0.25598 0.20405 0.46778 0.0
H463 H 0.3052 0.09383 0.48732 0.0
H464 H 0.19553 0.18346 0.43749 0.0
H465 H 0.24508 0.07335 0.45632 0.0
H466 H 0.16796 0.05755 0.36526 0.0
H467 H 0.22595 0.07455 0.40024 0.0
H468 H 0.1261 0.15174 0.44338 0.0
H469 H 0.06841 0.13429 0.409 0.0
C470 C 0.25346 0.17547 0.46612 0.0
C471 C 0.28558 0.15065 0.47998 0.0
C472 C 0.21894 0.16367 0.4486 0.0
C473 C 0.21586 0.12678 0.44438 0.0
C474 C 0.24716 0.10191 0.4588 0.0
C475 C 0.2815 0.11371 0.47656 0.0
C476 C 0.15843 0.07761 0.38263 0.0
C477 C 0.11371 0.09425 0.38475 0.0
C478 C 0.19151 0.08742 0.40256 0.0
C479 C 0.18049 0.11453 0.42449 0.0
C480 C 0.13568 0.13103 0.42654 0.0
C481 C 0.1027 0.12102 0.40688 0.0
H482 H 0.32692 0.9849 0.49386 0.0
H483 H 0.29999 0.87574 0.47547 0.0
H484 H 0.26633 1.00684 0.45899 0.0
H485 H 0.23973 0.89768 0.44112 0.0
H486 H 0.19221 0.94395 0.35077 0.0
H487 H 0.24973 0.92989 0.38919 0.0
H488 H 0.1756 1.00509 0.45118 0.0
H489 H 0.11688 1.0185 0.41275 0.0
C490 C 0.30755 0.96571 0.48282 0.0
C491 C 0.31824 0.92859 0.48733 0.0
C492 C 0.27292 0.97828 0.46302 0.0
C493 C 0.24899 0.95388 0.44717 0.0
C494 C 0.25815 0.91698 0.45285 0.0
C495 C 0.29228 0.90447 0.47279 0.0
C496 C 0.18856 0.95792 0.37241 0.0
C497 C 0.15047 0.98259 0.37872 0.0
C498 C 0.22128 0.94975 0.39441 0.0
C499 C 0.21664 0.9661 0.42318 0.0
C500 C 0.17983 0.9922 0.4291 0.0
C501 C 0.14657 1.00005 0.4071 0.0
H502 H 0.69442 0.04889 0.47374 0.0
H503 H 0.70255 0.16043 0.45162 0.0
H504 H 0.76123 0.03175 0.44075 0.0
H505 H 0.76869 0.14345 0.41941 0.0
H506 H 0.84652 0.10166 0.33716 0.0
H507 H 0.778 0.10806 0.36923 0.0
H508 H 0.84893 0.04448 0.43874 0.0
H509 H 0.91789 0.03816 0.40643 0.0
C510 C 0.71064 0.06966 0.46207 0.0
C511 C 0.69355 0.10601 0.46542 0.0
C512 C 0.74875 0.05988 0.44335 0.0
C513 C 0.76957 0.08632 0.4274 0.0
C514 C 0.75284 0.12254 0.43119 0.0
C515 C 0.71534 0.13228 0.44996 0.0
C516 C 0.84712 0.08854 0.35906 0.0
C517 C 0.88705 0.06928 0.36938 0.0
C518 C 0.80811 0.0922 0.37737 0.0
C519 C 0.8085 0.07698 0.40647 0.0
C520 C 0.84784 0.05628 0.41631 0.0
C521 C 0.8871 0.05271 0.39793 0.0
loop_
_geom_bond_atom_site_label_1
_geom_bond_atom_site_label_2
_geom_bond_distance
_geom_bond_site_symmetry_2
_ccdc_geom_bond_type
C0 C1 1.391 . S
C0 C4 1.391 . S
C0 H42 0.948 . S
C1 C0 1.391 . S
C1 C2 1.391 . S
C2 C1 1.391 . S
C2 H58 0.947 . S
C2 C59 1.392 . S
C3 C4 1.391 . S
C3 C7 1.397 . S
C3 C59 1.419 . S
C4 C0 1.391 . S
C4 C3 1.391 . S
C4 C5 1.399 . S
C5 C4 1.399 . S
C5 C8 1.396 . S
C5 C17 1.453 . S
C5 C18 1.684 . S
H6 C30 0.948 . S
C7 C3 1.397 . S
C7 C8 1.394 . S
C7 C26 1.723 . S
C8 C5 1.396 . S
C8 C7 1.394 . S
C8 C38 1.723 . S
H9 C32 0.947 1_554 S
H10 C33 0.948 . S
H11 C39 0.982 . S
H12 C40 0.979 . S
H13 C40 0.980 . S
H14 C40 0.983 . S
H15 C39 0.979 . S
H16 C39 0.977 . S
C17 C5 1.453 . S
C17 H46 0.982 . S
C17 H47 0.979 . S
C17 H48 0.977 . S
C18 C5 1.684 . S
C18 H43 0.979 . S
C18 H44 0.980 1_455 S
C18 H45 0.983 . S
C19 C20 1.391 . S
C19 C24 1.391 1_556 S
C19 H49 0.948 1_556 S
C20 C19 1.391 . S
C20 C21 1.391 . S
C21 C20 1.391 . S
C21 C22 1.392 . S
C21 H50 0.947 . S
C22 C21 1.392 . S
C22 C23 1.419 . S
C22 H51 0.948 . S
C23 C22 1.419 . S
C23 C24 1.391 1_556 S
C23 C27 1.397 1_556 S
C24 C19 1.391 1_554 S
C24 C23 1.391 1_554 S
C24 C25 1.399 . S
C25 C24 1.399 . S
C25 C26 1.396 . S
C25 C28 1.453 . S
C25 C29 1.684 . S
C26 C7 1.723 . S
C26 C25 1.396 . S
C26 C27 1.394 . S
C27 C23 1.397 1_554 S
C27 C26 1.394 . S
C27 C37 1.723 1_554 S
C28 C25 1.453 . S
C28 H52 0.982 . S
C28 H53 0.979 . S
C28 H54 0.977 . S
C29 C25 1.684 . S
C29 H55 0.979 . S
C29 H56 0.980 . S
C29 H57 0.983 . S
C30 H6 0.948 . S
C30 C31 1.391 . S
C30 C35 1.391 1_655 S
C31 C30 1.391 . S
C31 C32 1.391 . S
C32 H9 0.947 1_556 S
C32 C31 1.391 . S
C32 C33 1.392 1_556 S
C33 H10 0.948 . S
C33 C32 1.392 1_554 S
C33 C34 1.419 1_655 S
C34 C33 1.419 1_455 S
C34 C35 1.391 1_554 S
C34 C38 1.397 . S
C35 C30 1.391 1_455 S
C35 C34 1.391 1_556 S
C35 C36 1.399 . S
C36 C35 1.399 . S
C36 C37 1.396 . S
C36 C39 1.453 . S
C36 C40 1.684 . S
C37 C27 1.723 1_556 S
C37 C36 1.396 . S
C37 C38 1.394 1_556 S
C38 C8 1.723 . S
C38 C34 1.397 . S
C38 C37 1.394 1_554 S
C39 H11 0.982 . S
C39 H15 0.979 . S
C39 H16 0.977 . S
C39 C36 1.453 . S
C40 H12 0.979 . S
C40 H13 0.980 . S
C40 H14 0.983 . S
C40 C36 1.684 . S
H41 C59 0.948 . S
H42 C0 0.948 . S
H43 C18 0.979 . S
H44 C18 0.980 1_655 S
H45 C18 0.983 . S
H46 C17 0.982 . S
H47 C17 0.979 . S
H48 C17 0.977 . S
H49 C19 0.948 1_554 S
H50 C21 0.947 . S
H51 C22 0.948 . S
H52 C28 0.982 . S
H53 C28 0.979 . S
H54 C28 0.977 . S
H55 C29 0.979 . S
H56 C29 0.980 . S
H57 C29 0.983 . S
H58 C2 0.947 . S
C59 C2 1.392 . S
C59 C3 1.419 . S
C59 H41 0.948 . S
C60 C61 1.391 . S
C60 C64 1.391 1_556 S
C60 H102 0.948 1_556 S
C61 C60 1.391 . S
C61 C62 1.391 . S
C62 C61 1.391 . S
C62 H118 0.947 . S
C62 C119 1.392 . S
C63 C64 1.391 1_556 S
C63 C67 1.397 1_556 S
C63 C119 1.419 . S
C64 C60 1.391 1_554 S
C64 C63 1.391 1_554 S
C64 C65 1.399 . S
C65 C64 1.399 . S
C65 C68 1.396 . S
C65 C77 1.453 . S
C65 C78 1.684 . S
H66 C90 0.948 . S
C67 C63 1.397 1_554 S
C67 C68 1.394 . S
C67 C86 1.723 1_454 S
C68 C65 1.396 . S
C68 C67 1.394 . S
C68 C98 1.723 . S
H69 C92 0.947 . S
H70 C93 0.948 . S
H71 C99 0.982 . S
H72 C100 0.979 . S
H73 C100 0.980 . S
H74 C100 0.983 . S
H75 C99 0.979 . S
H76 C99 0.977 . S
C77 C65 1.453 . S
C77 H106 0.982 . S
C77 H107 0.979 . S
C77 H108 0.977 . S
C78 C65 1.684 . S
C78 H103 0.979 . S
C78 H104 0.980 . S
C78 H105 0.983 . S
C79 C80 1.391 . S
C79 C84 1.391 . S
C79 H109 0.948 . S
C80 C79 1.391 . S
C80 C81 1.391 1_556 S
C81 C80 1.391 1_554 S
C81 C82 1.392 . S
C81 H110 0.947 . S
C82 C81 1.392 . S
C82 C83 1.419 . S
C82 H111 0.948 . S
C83 C82 1.419 . S
C83 C84 1.391 1_554 S
C83 C87 1.397 . S
C84 C79 1.391 . S
C84 C83 1.391 1_556 S
C84 C85 1.399 . S
C85 C84 1.399 . S
C85 C86 1.396 . S
C85 C88 1.453 . S
C85 C89 1.684 . S
C86 C67 1.723 1_656 S
C86 C85 1.396 . S
C86 C87 1.394 1_556 S
C87 C83 1.397 . S
C87 C86 1.394 1_554 S
C87 C97 1.723 . S
C88 C85 1.453 . S
C88 H112 0.982 . S
C88 H113 0.979 . S
C88 H114 0.977 1_655 S
C89 C85 1.684 . S
C89 H115 0.979 . S
C89 H116 0.980 1_655 S
C89 H117 0.983 . S
C90 H66 0.948 . S
C90 C91 1.391 1_655 S
C90 C95 1.391 . S
C91 C90 1.391 1_455 S
C91 C92 1.391 . S
C92 H69 0.947 . S
C92 C91 1.391 . S
C92 C93 1.392 . S
C93 H70 0.948 . S
C93 C92 1.392 . S
C93 C94 1.419 . S
C94 C93 1.419 . S
C94 C95 1.391 1_455 S
C94 C98 1.397 . S
C95 C90 1.391 . S
C95 C94 1.391 1_655 S
C95 C96 1.399 . S
C96 C95 1.399 . S
C96 C97 1.396 . S
C96 C99 1.453 . S
C96 C100 1.684 . S
C97 C87 1.723 . S
C97 C96 1.396 . S
C97 C98 1.394 1_655 S
C98 C68 1.723 . S
C98 C94 1.397 . S
C98 C97 1.394 1_455 S
C99 H71 0.982 . S
C99 H75 0.979 . S
C99 H76 0.977 . S
C99 C96 1.453 . S
C100 H72 0.979 . S
C100 H73 0.980 . S
C100 H74 0.983 . S
C100 C96 1.684 . S
H101 C119 0.948 . S
H102 C60 0.948 1_554 S
H103 C78 0.979 . S
H104 C78 0.980 . S
H105 C78 0.983 . S
H106 C77 0.982 . S
H107 C77 0.979 . S
H108 C77 0.977 . S
H109 C79 0.948 . S
H110 C81 0.947 . S
H111 C82 0.948 . S
H112 C88 0.982 . S
H113 C88 0.979 . S
H114 C88 0.977 1_455 S
H115 C89 0.979 . S
H116 C89 0.980 1_455 S
H117 C89 0.983 . S
H118 C62 0.947 . S
C119 C62 1.392 . S
C119 C63 1.419 . S
C119 H101 0.948 . S
C120 C121 1.391 . S
C120 C124 1.391 . S
C120 H162 0.948 . S
C121 C120 1.391 . S
C121 C122 1.391 . S
C122 C121 1.391 . S
C122 H178 0.947 . S
C122 C179 1.392 . S
C123 C124 1.391 . S
C123 C127 1.397 . S
C123 C179 1.419 . S
C124 C120 1.391 . S
C124 C123 1.391 . S
C124 C125 1.399 . S
C125 C124 1.399 . S
C125 C128 1.396 . S
C125 C137 1.453 . S
C125 C138 1.684 . S
H126 C150 0.948 . S
C127 C123 1.397 . S
C127 C128 1.394 . S
C127 C146 1.723 . S
C128 C125 1.396 . S
C128 C127 1.394 . S
C128 C158 1.723 . S
H129 C152 0.947 . S
H130 C153 0.948 . S
H131 C159 0.982 . S
H132 C160 0.979 . S
H133 C160 0.980 . S
H134 C160 0.983 . S
H135 C159 0.979 . S
H136 C159 0.977 . S
C137 C125 1.453 . S
C137 H166 0.982 . S
C137 H167 0.979 . S
C137 H168 0.977 . S
C138 C125 1.684 . S
C138 H163 0.979 . S
C138 H164 0.980 . S
C138 H165 0.983 . S
C139 C140 1.391 . S
C139 C144 1.391 . S
C139 H169 0.948 . S
C140 C139 1.391 . S
C140 C141 1.391 . S
C141 C140 1.391 . S
C141 C142 1.392 . S
C141 H170 0.947 . S
C142 C141 1.392 . S
C142 C143 1.419 . S
C142 H171 0.948 . S
C143 C142 1.419 . S
C143 C144 1.391 . S
C143 C147 1.397 . S
C144 C139 1.391 . S
C144 C143 1.391 . S
C144 C145 1.399 . S
C145 C144 1.399 . S
C145 C146 1.396 . S
C145 C148 1.453 . S
C145 C149 1.684 . S
C146 C127 1.723 . S
C146 C145 1.396 . S
C146 C147 1.394 . S
C147 C143 1.397 . S
C147 C146 1.394 . S
C147 C157 1.723 . S
C148 C145 1.453 . S
C148 H172 0.982 . S
C148 H173 0.979 . S
C148 H174 0.977 . S
C149 C145 1.684 . S
C149 H175 0.979 . S
C149 H176 0.980 . S
C149 H177 0.983 . S
C150 H126 0.948 . S
C150 C151 1.391 . S
C150 C155 1.391 . S
C151 C150 1.391 . S
C151 C152 1.391 . S
C152 H129 0.947 . S
C152 C151 1.391 . S
C152 C153 1.392 . S
C153 H130 0.948 . S
C153 C152 1.392 . S
C153 C154 1.419 . S
C154 C153 1.419 . S
C154 C155 1.391 . S
C154 C158 1.397 . S
C155 C150 1.391 . S
C155 C154 1.391 . S
C155 C156 1.399 . S
C156 C155 1.399 . S
C156 C157 1.396 . S
C156 C159 1.453 . S
C156 C160 1.684 . S
C157 C147 1.723 . S
C157 C156 1.396 . S
C157 C158 1.394 . S
C158 C128 1.723 . S
C158 C154 1.397 . S
C158 C157 1.394 . S
C159 H131 0.982 . S
C159 H135 0.979 . S
C159 H136 0.977 . S
C159 C156 1.453 . S
C160 H132 0.979 . S
C160 H133 0.980 . S
C160 H134 0.983 . S
C160 C156 1.684 . S
H161 C179 0.948 . S
H162 C120 0.948 . S
H163 C138 0.979 . S
H164 C138 0.980 . S
H165 C138 0.983 . S
H166 C137 0.982 . S
H167 C137 0.979 . S
H168 C137 0.977 . S
H169 C139 0.948 . S
H170 C141 0.947 . S
H171 C142 0.948 . S
H172 C148 0.982 . S
H173 C148 0.979 . S
H174 C148 0.977 . S
H175 C149 0.979 . S
H176 C149 0.980 . S
H177 C149 0.983 . S
H178 C122 0.947 . S
C179 C122 1.392 . S
C179 C123 1.419 . S
C179 H161 0.948 . S
C180 C181 1.391 . S
C180 C184 1.391 . S
C180 H222 0.948 . S
C181 C180 1.391 . S
C181 C182 1.391 . S
C182 C181 1.391 . S
C182 H238 0.947 . S
C182 C239 1.392 . S
C183 C184 1.391 . S
C183 C187 1.397 . S
C183 C239 1.419 . S
C184 C180 1.391 . S
C184 C183 1.391 . S
C184 C185 1.399 . S
C185 C184 1.399 . S
C185 C188 1.396 . S
C185 C197 1.453 . S
C185 C198 1.684 . S
H186 C210 0.948 . S
C187 C183 1.397 . S
C187 C188 1.394 . S
C187 C206 1.723 . S
C188 C185 1.396 . S
C188 C187 1.394 . S
C188 C218 1.723 . S
H189 C212 0.947 . S
H190 C213 0.948 . S
H191 C219 0.982 . S
H192 C220 0.979 . S
H193 C220 0.980 . S
H194 C220 0.983 . S
H195 C219 0.979 . S
H196 C219 0.977 . S
C197 C185 1.453 . S
C197 H226 0.982 . S
C197 H227 0.979 . S
C197 H228 0.977 . S
C198 C185 1.684 . S
C198 H223 0.979 . S
C198 H224 0.980 . S
C198 H225 0.983 . S
C199 C200 1.391 . S
C199 C204 1.391 . S
C199 H229 0.948 . S
C200 C199 1.391 . S
C200 C201 1.391 . S
C201 C200 1.391 . S
C201 C202 1.392 . S
C201 H230 0.947 . S
C202 C201 1.392 . S
C202 C203 1.419 . S
C202 H231 0.948 . S
C203 C202 1.419 . S
C203 C204 1.391 . S
C203 C207 1.397 . S
C204 C199 1.391 . S
C204 C203 1.391 . S
C204 C205 1.399 . S
C205 C204 1.399 . S
C205 C206 1.396 . S
C205 C208 1.453 . S
C205 C209 1.684 . S
C206 C187 1.723 . S
C206 C205 1.396 . S
C206 C207 1.394 . S
C207 C203 1.397 . S
C207 C206 1.394 . S
C207 C217 1.723 . S
C208 C205 1.453 . S
C208 H232 0.982 . S
C208 H233 0.979 . S
C208 H234 0.977 . S
C209 C205 1.684 . S
C209 H235 0.979 . S
C209 H236 0.980 . S
C209 H237 0.983 . S
C210 H186 0.948 . S
C210 C211 1.391 . S
C210 C215 1.391 . S
C211 C210 1.391 . S
C211 C212 1.391 . S
C212 H189 0.947 . S
C212 C211 1.391 . S
C212 C213 1.392 . S
C213 H190 0.948 . S
C213 C212 1.392 . S
C213 C214 1.419 . S
C214 C213 1.419 . S
C214 C215 1.391 . S
C214 C218 1.397 . S
C215 C210 1.391 . S
C215 C214 1.391 . S
C215 C216 1.399 . S
C216 C215 1.399 . S
C216 C217 1.396 . S
C216 C219 1.453 . S
C216 C220 1.684 . S
C217 C207 1.723 . S
C217 C216 1.396 . S
C217 C218 1.394 . S
C218 C188 1.723 . S
C218 C214 1.397 . S
C218 C217 1.394 . S
C219 H191 0.982 . S
C219 H195 0.979 . S
C219 H196 0.977 . S
C219 C216 1.453 . S
C220 H192 0.979 . S
C220 H193 0.980 . S
C220 H194 0.983 . S
C220 C216 1.684 . S
H221 C239 0.948 . S
H222 C180 0.948 . S
H223 C198 0.979 . S
H224 C198 0.980 . S
H225 C198 0.983 . S
H226 C197 0.982 . S
H227 C197 0.979 . S
H228 C197 0.977 . S
H229 C199 0.948 . S
H230 C201 0.947 . S
H231 C202 0.948 . S
H232 C208 0.982 . S
H233 C208 0.979 . S
H234 C208 0.977 . S
H235 C209 0.979 . S
H236 C209 0.980 . S
H237 C209 0.983 . S
H238 C182 0.947 . S
C239 C182 1.392 . S
C239 C183 1.419 . S
C239 H221 0.948 . S
Zn240 O246 1.920 . S
Zn240 O252 1.898 . S
Zn240 O255 1.905 1_455 S
Zn241 O249 1.905 . S
Zn241 O250 1.898 . S
Zn241 O258 1.920 . S
Zn242 O245 2.080 . S
Zn242 O248 2.114 1_545 S
Zn242 O251 2.120 1_545 S
Zn242 O253 2.120 . S
Zn242 O254 2.114 . S
Zn242 O257 2.080 1_545 S
C243 O248 1.166 . S
C243 O249 1.182 . S
C244 O250 1.167 . S
C244 O251 1.299 . S
O245 Zn242 2.080 . S
O245 C259 1.305 . S
O246 Zn240 1.920 . S
O246 C259 1.234 . S
C247 O252 1.167 . S
C247 O253 1.299 . S
O248 Zn242 2.114 1_565 S
O248 C243 1.166 . S
O249 Zn241 1.905 . S
O249 C243 1.182 . S
O250 Zn241 1.898 . S
O250 C244 1.167 . S
O251 Zn242 2.120 1_565 S
O251 C244 1.299 . S
O252 Zn240 1.898 . S
O252 C247 1.167 . S
O253 Zn242 2.120 . S
O253 C247 1.299 . S
O254 Zn242 2.114 . S
O254 C256 1.166 1_455 S
O255 Zn240 1.905 1_655 S
O255 C256 1.182 . S
C256 O254 1.166 1_655 S
C256 O255 1.182 . S
O257 Zn242 2.080 1_565 S
O257 C260 1.305 . S
O258 Zn241 1.920 . S
O258 C260 1.234 . S
C259 O245 1.305 . S
C259 O246 1.234 . S
C260 O257 1.305 . S
C260 O258 1.234 . S
Zn261 O267 1.920 . S
Zn261 O273 1.898 . S
Zn261 O276 1.905 . S
Zn262 O270 1.905 . S
Zn262 O271 1.898 . S
Zn262 O279 1.920 . S
Zn263 O266 2.080 . S
Zn263 O269 2.114 . S
Zn263 O272 2.120 . S
Zn263 O274 2.120 . S
Zn263 O275 2.114 . S
Zn263 O278 2.080 . S
C264 O269 1.166 . S
C264 O270 1.182 . S
C265 O271 1.167 . S
C265 O272 1.299 . S
O266 Zn263 2.080 . S
O266 C280 1.305 . S
O267 Zn261 1.920 . S
O267 C280 1.234 . S
C268 O273 1.167 . S
C268 O274 1.299 . S
O269 Zn263 2.114 . S
O269 C264 1.166 . S
O270 Zn262 1.905 . S
O270 C264 1.182 . S
O271 Zn262 1.898 . S
O271 C265 1.167 . S
O272 Zn263 2.120 . S
O272 C265 1.299 . S
O273 Zn261 1.898 . S
O273 C268 1.167 . S
O274 Zn263 2.120 . S
O274 C268 1.299 . S
O275 Zn263 2.114 . S
O275 C277 1.166 . S
O276 Zn261 1.905 . S
O276 C277 1.182 . S
C277 O275 1.166 . S
C277 O276 1.182 . S
O278 Zn263 2.080 . S
O278 C281 1.305 . S
O279 Zn262 1.920 . S
O279 C281 1.234 . S
C280 O266 1.305 . S
C280 O267 1.234 . S
C281 O278 1.305 . S
C281 O279 1.234 . S
H282 C290 0.950 . S
H283 C295 0.950 . S
H284 C292 0.950 . S
H285 C294 0.950 . S
H286 C296 0.950 . S
H287 C298 0.950 . S
H288 C300 0.950 . S
H289 C301 0.950 . S
C290 H282 0.950 . S
C290 C291 1.386 . S
C290 C292 1.391 . S
C291 C290 1.386 . S
C291 C295 1.393 . S
C292 H284 0.950 . S
C292 C290 1.391 . S
C292 C293 1.400 . S
C293 C292 1.400 . S
C293 C294 1.398 . S
C293 C299 1.491 . S
C294 H285 0.950 . S
C294 C293 1.398 . S
C294 C295 1.391 . S
C295 H283 0.950 . S
C295 C291 1.393 . S
C295 C294 1.391 . S
C296 H286 0.950 . S
C296 C297 1.386 . S
C296 C298 1.391 . S
C297 C296 1.386 . S
C297 C301 1.393 . S
C298 H287 0.950 . S
C298 C296 1.391 . S
C298 C299 1.400 . S
C299 C293 1.491 . S
C299 C298 1.400 . S
C299 C300 1.398 . S
C300 H288 0.950 . S
C300 C299 1.398 . S
C300 C301 1.391 . S
C301 H289 0.950 . S
C301 C297 1.393 . S
C301 C300 1.391 . S
H302 C310 0.950 . S
H303 C315 0.950 . S
H304 C312 0.950 . S
H305 C314 0.950 . S
H306 C316 0.950 . S
H307 C318 0.950 . S
H308 C320 0.950 . S
H309 C321 0.950 1_655 S
C310 H302 0.950 . S
C310 C311 1.386 1_655 S
C310 C312 1.391 . S
C311 C310 1.386 1_455 S
C311 C315 1.393 . S
C312 H304 0.950 . S
C312 C310 1.391 . S
C312 C313 1.400 1_655 S
C313 C312 1.400 1_455 S
C313 C314 1.398 . S
C313 C319 1.491 . S
C314 H305 0.950 . S
C314 C313 1.398 . S
C314 C315 1.391 . S
C315 H303 0.950 . S
C315 C311 1.393 . S
C315 C314 1.391 . S
C316 H306 0.950 . S
C316 C317 1.386 . S
C316 C318 1.391 . S
C317 C316 1.386 . S
C317 C321 1.393 . S
C318 H307 0.950 . S
C318 C316 1.391 . S
C318 C319 1.400 . S
C319 C313 1.491 . S
C319 C318 1.400 . S
C319 C320 1.398 1_455 S
C320 H308 0.950 . S
C320 C319 1.398 1_655 S
C320 C321 1.391 1_655 S
C321 H309 0.950 1_455 S
C321 C317 1.393 . S
C321 C320 1.391 1_455 S
H322 C330 0.950 . S
H323 C335 0.950 . S
H324 C332 0.950 . S
H325 C334 0.950 . S
H326 C336 0.950 . S
H327 C338 0.950 . S
H328 C340 0.950 . S
H329 C341 0.950 . S
C330 H322 0.950 . S
C330 C331 1.386 . S
C330 C332 1.391 . S
C331 C330 1.386 . S
C331 C335 1.393 . S
C332 H324 0.950 . S
C332 C330 1.391 . S
C332 C333 1.400 . S
C333 C332 1.400 . S
C333 C334 1.398 . S
C333 C339 1.491 . S
C334 H325 0.950 . S
C334 C333 1.398 . S
C334 C335 1.391 . S
C335 H323 0.950 . S
C335 C331 1.393 . S
C335 C334 1.391 . S
C336 H326 0.950 . S
C336 C337 1.386 . S
C336 C338 1.391 . S
C337 C336 1.386 . S
C337 C341 1.393 . S
C338 H327 0.950 . S
C338 C336 1.391 . S
C338 C339 1.400 . S
C339 C333 1.491 . S
C339 C338 1.400 . S
C339 C340 1.398 . S
C340 H328 0.950 . S
C340 C339 1.398 . S
C340 C341 1.391 . S
C341 H329 0.950 . S
C341 C337 1.393 . S
C341 C340 1.391 . S
H342 C350 0.950 . S
H343 C355 0.950 . S
H344 C352 0.950 . S
H345 C354 0.950 . S
H346 C356 0.950 . S
H347 C358 0.950 . S
H348 C360 0.950 . S
H349 C361 0.950 . S
C350 H342 0.950 . S
C350 C351 1.386 . S
C350 C352 1.391 . S
C351 C350 1.386 . S
C351 C355 1.393 . S
C352 H344 0.950 . S
C352 C350 1.391 . S
C352 C353 1.400 . S
C353 C352 1.400 . S
C353 C354 1.398 . S
C353 C359 1.491 . S
C354 H345 0.950 . S
C354 C353 1.398 . S
C354 C355 1.391 . S
C355 H343 0.950 . S
C355 C351 1.393 . S
C355 C354 1.391 . S
C356 H346 0.950 . S
C356 C357 1.386 . S
C356 C358 1.391 . S
C357 C356 1.386 . S
C357 C361 1.393 . S
C358 H347 0.950 . S
C358 C356 1.391 . S
C358 C359 1.400 . S
C359 C353 1.491 . S
C359 C358 1.400 . S
C359 C360 1.398 . S
C360 H348 0.950 . S
C360 C359 1.398 . S
C360 C361 1.391 . S
C361 H349 0.950 . S
C361 C357 1.393 . S
C361 C360 1.391 . S
H362 C370 0.950 . S
H363 C375 0.950 1_554 S
H364 C372 0.950 . S
H365 C374 0.950 . S
H366 C376 0.950 . S
H367 C378 0.950 . S
H368 C380 0.950 . S
H369 C381 0.950 . S
C370 H362 0.950 . S
C370 C371 1.386 . S
C370 C372 1.391 . S
C371 C370 1.386 . S
C371 C375 1.393 . S
C372 H364 0.950 . S
C372 C370 1.391 . S
C372 C373 1.400 . S
C373 C372 1.400 . S
C373 C374 1.398 . S
C373 C379 1.491 . S
C374 H365 0.950 . S
C374 C373 1.398 . S
C374 C375 1.391 . S
C375 H363 0.950 1_556 S
C375 C371 1.393 . S
C375 C374 1.391 . S
C376 H366 0.950 . S
C376 C377 1.386 . S
C376 C378 1.391 . S
C377 C376 1.386 . S
C377 C381 1.393 . S
C378 H367 0.950 . S
C378 C376 1.391 . S
C378 C379 1.400 . S
C379 C373 1.491 . S
C379 C378 1.400 . S
C379 C380 1.398 . S
C380 H368 0.950 . S
C380 C379 1.398 . S
C380 C381 1.391 . S
C381 H369 0.950 . S
C381 C377 1.393 . S
C381 C380 1.391 . S
H382 C390 0.950 . S
H383 C395 0.950 1_554 S
H384 C392 0.950 . S
H385 C394 0.950 . S
H386 C396 0.950 . S
H387 C398 0.950 . S
H388 C400 0.950 . S
H389 C401 0.950 . S
C390 H382 0.950 . S
C390 C391 1.386 . S
C390 C392 1.391 . S
C391 C390 1.386 . S
C391 C395 1.393 . S
C392 H384 0.950 . S
C392 C390 1.391 . S
C392 C393 1.400 . S
C393 C392 1.400 . S
C393 C394 1.398 . S
C393 C399 1.491 . S
C394 H385 0.950 . S
C394 C393 1.398 . S
C394 C395 1.391 . S
C395 H383 0.950 1_556 S
C395 C391 1.393 . S
C395 C394 1.391 . S
C396 H386 0.950 . S
C396 C397 1.386 . S
C396 C398 1.391 . S
C397 C396 1.386 . S
C397 C401 1.393 . S
C398 H387 0.950 . S
C398 C396 1.391 . S
C398 C399 1.400 . S
C399 C393 1.491 . S
C399 C398 1.400 . S
C399 C400 1.398 . S
C400 H388 0.950 . S
C400 C399 1.398 . S
C400 C401 1.391 . S
C401 H389 0.950 . S
C401 C397 1.393 . S
C401 C400 1.391 . S
H402 C410 0.950 . S
H403 C415 0.950 . S
H404 C412 0.950 . S
H405 C414 0.950 . S
H406 C416 0.950 . S
H407 C418 0.950 . S
H408 C420 0.950 . S
H409 C421 0.950 . S
C410 H402 0.950 . S
C410 C411 1.386 . S
C410 C412 1.391 . S
C411 C410 1.386 . S
C411 C415 1.393 . S
C412 H404 0.950 . S
C412 C410 1.391 . S
C412 C413 1.400 . S
C413 C412 1.400 . S
C413 C414 1.398 . S
C413 C419 1.491 . S
C414 H405 0.950 . S
C414 C413 1.398 . S
C414 C415 1.391 . S
C415 H403 0.950 . S
C415 C411 1.393 . S
C415 C414 1.391 . S
C416 H406 0.950 . S
C416 C417 1.386 . S
C416 C418 1.391 . S
C417 C416 1.386 . S
C417 C421 1.393 . S
C418 H407 0.950 . S
C418 C416 1.391 . S
C418 C419 1.400 . S
C419 C413 1.491 . S
C419 C418 1.400 . S
C419 C420 1.398 . S
C420 H408 0.950 . S
C420 C419 1.398 . S
C420 C421 1.391 . S
C421 H409 0.950 . S
C421 C417 1.393 . S
C421 C420 1.391 . S
H422 C430 0.977 . S
H423 C435 0.950 . S
H424 C432 0.950 . S
H425 C434 0.950 . S
H426 C436 0.950 . S
H427 C438 0.950 . S
H428 C440 0.950 . S
H429 C441 0.950 . S
C430 H422 0.977 . S
C430 C431 1.386 . S
C430 C432 1.391 . S
C431 C430 1.386 . S
C431 C435 1.393 . S
C432 H424 0.950 . S
C432 C430 1.391 . S
C432 C433 1.400 . S
C433 C432 1.400 . S
C433 C434 1.398 . S
C433 C439 1.491 . S
C434 H425 0.950 . S
C434 C433 1.398 . S
C434 C435 1.391 . S
C435 H423 0.950 . S
C435 C431 1.393 . S
C435 C434 1.391 . S
C436 H426 0.950 . S
C436 C437 1.386 . S
C436 C438 1.391 . S
C437 C436 1.386 . S
C437 C441 1.393 . S
C438 H427 0.950 . S
C438 C436 1.391 . S
C438 C439 1.400 . S
C439 C433 1.491 . S
C439 C438 1.400 . S
C439 C440 1.398 . S
C440 H428 0.950 . S
C440 C439 1.398 . S
C440 C441 1.391 . S
C441 H429 0.950 . S
C441 C437 1.393 . S
C441 C440 1.391 . S
H442 C450 0.950 . S
H443 C455 0.950 . S
H444 C452 0.950 . S
H445 C454 0.950 . S
H446 C456 0.952 . S
H447 C458 0.950 . S
H448 C460 0.950 . S
H449 C461 0.950 . S
C450 H442 0.950 . S
C450 C451 1.386 . S
C450 C452 1.391 . S
C451 C450 1.386 . S
C451 C455 1.393 . S
C452 H444 0.950 . S
C452 C450 1.391 . S
C452 C453 1.400 . S
C453 C452 1.400 . S
C453 C454 1.398 . S
C453 C459 1.491 . S
C454 H445 0.950 . S
C454 C453 1.398 . S
C454 C455 1.391 . S
C455 H443 0.950 . S
C455 C451 1.393 . S
C455 C454 1.391 . S
C456 H446 0.952 . S
C456 C457 1.385 1_455 S
C456 C458 1.389 1_455 S
C457 C456 1.385 1_655 S
C457 C461 1.393 . S
C458 H447 0.950 . S
C458 C456 1.389 1_655 S
C458 C459 1.400 . S
C459 C453 1.491 . S
C459 C458 1.400 . S
C459 C460 1.398 . S
C460 H448 0.950 . S
C460 C459 1.398 . S
C460 C461 1.391 . S
C461 H449 0.950 . S
C461 C457 1.393 . S
C461 C460 1.391 . S
H462 C470 0.950 . S
H463 C475 0.950 . S
H464 C472 0.950 . S
H465 C474 0.950 . S
H466 C476 0.950 . S
H467 C478 0.950 . S
H468 C480 0.950 . S
H469 C481 0.950 . S
C470 H462 0.950 . S
C470 C471 1.386 . S
C470 C472 1.391 . S
C471 C470 1.386 . S
C471 C475 1.393 . S
C472 H464 0.950 . S
C472 C470 1.391 . S
C472 C473 1.400 . S
C473 C472 1.400 . S
C473 C474 1.398 . S
C473 C479 1.491 . S
C474 H465 0.950 . S
C474 C473 1.398 . S
C474 C475 1.391 . S
C475 H463 0.950 . S
C475 C471 1.393 . S
C475 C474 1.391 . S
C476 H466 0.950 . S
C476 C477 1.386 . S
C476 C478 1.391 . S
C477 C476 1.386 . S
C477 C481 1.393 . S
C478 H467 0.950 . S
C478 C476 1.391 . S
C478 C479 1.400 . S
C479 C473 1.491 . S
C479 C478 1.400 . S
C479 C480 1.398 . S
C480 H468 0.950 . S
C480 C479 1.398 . S
C480 C481 1.391 . S
C481 H469 0.950 . S
C481 C477 1.393 . S
C481 C480 1.391 . S
H482 C490 0.950 . S
H483 C495 0.950 . S
H484 C492 0.950 . S
H485 C494 0.950 . S
H486 C496 0.950 . S
H487 C498 0.950 . S
H488 C500 0.950 . S
H489 C501 0.950 . S
C490 H482 0.950 . S
C490 C491 1.386 . S
C490 C492 1.391 . S
C491 C490 1.386 . S
C491 C495 1.393 . S
C492 H484 0.950 . S
C492 C490 1.391 . S
C492 C493 1.400 . S
C493 C492 1.400 . S
C493 C494 1.398 . S
C493 C499 1.491 . S
C494 H485 0.950 . S
C494 C493 1.398 . S
C494 C495 1.391 . S
C495 H483 0.950 . S
C495 C491 1.393 . S
C495 C494 1.391 . S
C496 H486 0.950 . S
C496 C497 1.386 . S
C496 C498 1.391 . S
C497 C496 1.386 . S
C497 C501 1.393 . S
C498 H487 0.950 . S
C498 C496 1.391 . S
C498 C499 1.400 . S
C499 C493 1.491 . S
C499 C498 1.400 . S
C499 C500 1.398 . S
C500 H488 0.950 . S
C500 C499 1.398 . S
C500 C501 1.391 . S
C501 H489 0.950 . S
C501 C497 1.393 . S
C501 C500 1.391 . S
H502 C510 0.950 . S
H503 C515 0.950 . S
H504 C512 0.950 . S
H505 C514 0.950 . S
H506 C516 0.950 . S
H507 C518 0.950 . S
H508 C520 0.950 . S
H509 C521 0.950 . S
C510 H502 0.950 . S
C510 C511 1.386 . S
C510 C512 1.391 . S
C511 C510 1.386 . S
C511 C515 1.393 . S
C512 H504 0.950 . S
C512 C510 1.391 . S
C512 C513 1.400 . S
C513 C512 1.400 . S
C513 C514 1.398 . S
C513 C519 1.491 . S
C514 H505 0.950 . S
C514 C513 1.398 . S
C514 C515 1.391 . S
C515 H503 0.950 . S
C515 C511 1.393 . S
C515 C514 1.391 . S
C516 H506 0.950 . S
C516 C517 1.386 . S
C516 C518 1.391 . S
C517 C516 1.386 . S
C517 C521 1.393 . S
C518 H507 0.950 . S
C518 C516 1.391 . S
C518 C519 1.400 . S
C519 C513 1.491 . S
C519 C518 1.400 . S
C519 C520 1.398 . S
C520 H508 0.950 . S
C520 C519 1.398 . S
C520 C521 1.391 . S
C521 H509 0.950 . S
C521 C517 1.393 . S
C521 C520 1.391 . S
C297 C247 1.432 . S
C291 C1 1.530 . S
C317 C243 1.454 . S
C311 C91 1.460 . S
C337 C268 1.441 . S
C331 C121 1.530 . S
C351 C211 1.469 . S
C357 C264 1.447 . S
C371 C20 1.175 . S
C377 C265 1.050 . S
C397 C280 1.064 . S
C391 C80 1.206 . S
C411 C31 1.710 . S
C417 C281 1.547 . S
C437 C277 1.562 . S
C431 C61 1.640 . S
C457 C244 1.042 1_655 S
C451 C140 1.187 . S
C471 C200 1.224 . S
C477 C259 1.092 . S
C497 C260 1.554 . S
C491 C151 1.711 . S
C517 C256 1.572 . S
C511 C181 1.647 . S
