# Generated by pormake.
# Topology ctn, (3,4)-cn, num edge types: 1
# Building blocks:
#     Node 0, Type 0, BuildingBlock: VETTIZ_charged_linker_0, # of connection points: 3
#     Node 1, Type 0, BuildingBlock: VETTIZ_charged_linker_0, # of connection points: 3
#     Node 2, Type 0, BuildingBlock: VETTIZ_charged_linker_0, # of connection points: 3
#     Node 3, Type 0, BuildingBlock: VETTIZ_charged_linker_0, # of connection points: 3
#     Node 4, Type 0, BuildingBlock: VETTIZ_charged_linker_0, # of connection points: 3
#     Node 5, Type 0, BuildingBlock: VETTIZ_charged_linker_0, # of connection points: 3
#     Node 6, Type 0, BuildingBlock: VETTIZ_charged_linker_0, # of connection points: 3
#     Node 7, Type 0, BuildingBlock: VETTIZ_charged_linker_0, # of connection points: 3
#     Node 8, Type 0, BuildingBlock: VETTIZ_charged_linker_0, # of connection points: 3
#     Node 9, Type 0, BuildingBlock: VETTIZ_charged_linker_0, # of connection points: 3
#     Node 10, Type 0, BuildingBlock: VETTIZ_charged_linker_0, # of connection points: 3
#     Node 11, Type 0, BuildingBlock: VETTIZ_charged_linker_0, # of connection points: 3
#     Node 12, Type 0, BuildingBlock: VETTIZ_charged_linker_0, # of connection points: 3
#     Node 13, Type 0, BuildingBlock: VETTIZ_charged_linker_0, # of connection points: 3
#     Node 14, Type 0, BuildingBlock: VETTIZ_charged_linker_0, # of connection points: 3
#     Node 15, Type 0, BuildingBlock: VETTIZ_charged_linker_0, # of connection points: 3
#     Node 16, Type 1, BuildingBlock: QUQFOY_clean_sbu_1, # of connection points: 4
#     Node 17, Type 1, BuildingBlock: QUQFOY_clean_sbu_1, # of connection points: 4
#     Node 18, Type 1, BuildingBlock: QUQFOY_clean_sbu_1, # of connection points: 4
#     Node 19, Type 1, BuildingBlock: QUQFOY_clean_sbu_1, # of connection points: 4
#     Node 20, Type 1, BuildingBlock: QUQFOY_clean_sbu_1, # of connection points: 4
#     Node 21, Type 1, BuildingBlock: QUQFOY_clean_sbu_1, # of connection points: 4
#     Node 22, Type 1, BuildingBlock: QUQFOY_clean_sbu_1, # of connection points: 4
#     Node 23, Type 1, BuildingBlock: QUQFOY_clean_sbu_1, # of connection points: 4
#     Node 24, Type 1, BuildingBlock: QUQFOY_clean_sbu_1, # of connection points: 4
#     Node 25, Type 1, BuildingBlock: QUQFOY_clean_sbu_1, # of connection points: 4
#     Node 26, Type 1, BuildingBlock: QUQFOY_clean_sbu_1, # of connection points: 4
#     Node 27, Type 1, BuildingBlock: QUQFOY_clean_sbu_1, # of connection points: 4
#     Edge 28, Type (0, 1), BuildingBlock: KIFKEQ_clean_linker_1, # of connection points: 2
#     Edge 29, Type (0, 1), BuildingBlock: KIFKEQ_clean_linker_1, # of connection points: 2
#     Edge 30, Type (0, 1), BuildingBlock: KIFKEQ_clean_linker_1, # of connection points: 2
#     Edge 31, Type (0, 1), BuildingBlock: KIFKEQ_clean_linker_1, # of connection points: 2
#     Edge 32, Type (0, 1), BuildingBlock: KIFKEQ_clean_linker_1, # of connection points: 2
#     Edge 33, Type (0, 1), BuildingBlock: KIFKEQ_clean_linker_1, # of connection points: 2
#     Edge 34, Type (0, 1), BuildingBlock: KIFKEQ_clean_linker_1, # of connection points: 2
#     Edge 35, Type (0, 1), BuildingBlock: KIFKEQ_clean_linker_1, # of connection points: 2
#     Edge 36, Type (0, 1), BuildingBlock: KIFKEQ_clean_linker_1, # of connection points: 2
#     Edge 37, Type (0, 1), BuildingBlock: KIFKEQ_clean_linker_1, # of connection points: 2
#     Edge 38, Type (0, 1), BuildingBlock: KIFKEQ_clean_linker_1, # of connection points: 2
#     Edge 39, Type (0, 1), BuildingBlock: KIFKEQ_clean_linker_1, # of connection points: 2
#     Edge 40, Type (0, 1), BuildingBlock: KIFKEQ_clean_linker_1, # of connection points: 2
#     Edge 41, Type (0, 1), BuildingBlock: KIFKEQ_clean_linker_1, # of connection points: 2
#     Edge 42, Type (0, 1), BuildingBlock: KIFKEQ_clean_linker_1, # of connection points: 2
#     Edge 43, Type (0, 1), BuildingBlock: KIFKEQ_clean_linker_1, # of connection points: 2
#     Edge 44, Type (0, 1), BuildingBlock: KIFKEQ_clean_linker_1, # of connection points: 2
#     Edge 45, Type (0, 1), BuildingBlock: KIFKEQ_clean_linker_1, # of connection points: 2
#     Edge 46, Type (0, 1), BuildingBlock: KIFKEQ_clean_linker_1, # of connection points: 2
#     Edge 47, Type (0, 1), BuildingBlock: KIFKEQ_clean_linker_1, # of connection points: 2
#     Edge 48, Type (0, 1), BuildingBlock: KIFKEQ_clean_linker_1, # of connection points: 2
#     Edge 49, Type (0, 1), BuildingBlock: KIFKEQ_clean_linker_1, # of connection points: 2
#     Edge 50, Type (0, 1), BuildingBlock: KIFKEQ_clean_linker_1, # of connection points: 2
#     Edge 51, Type (0, 1), BuildingBlock: KIFKEQ_clean_linker_1, # of connection points: 2
#     Edge 52, Type (0, 1), BuildingBlock: KIFKEQ_clean_linker_1, # of connection points: 2
#     Edge 53, Type (0, 1), BuildingBlock: KIFKEQ_clean_linker_1, # of connection points: 2
#     Edge 54, Type (0, 1), BuildingBlock: KIFKEQ_clean_linker_1, # of connection points: 2
#     Edge 55, Type (0, 1), BuildingBlock: KIFKEQ_clean_linker_1, # of connection points: 2
#     Edge 56, Type (0, 1), BuildingBlock: KIFKEQ_clean_linker_1, # of connection points: 2
#     Edge 57, Type (0, 1), BuildingBlock: KIFKEQ_clean_linker_1, # of connection points: 2
#     Edge 58, Type (0, 1), BuildingBlock: KIFKEQ_clean_linker_1, # of connection points: 2
#     Edge 59, Type (0, 1), BuildingBlock: KIFKEQ_clean_linker_1, # of connection points: 2
#     Edge 60, Type (0, 1), BuildingBlock: KIFKEQ_clean_linker_1, # of connection points: 2
#     Edge 61, Type (0, 1), BuildingBlock: KIFKEQ_clean_linker_1, # of connection points: 2
#     Edge 62, Type (0, 1), BuildingBlock: KIFKEQ_clean_linker_1, # of connection points: 2
#     Edge 63, Type (0, 1), BuildingBlock: KIFKEQ_clean_linker_1, # of connection points: 2
#     Edge 64, Type (0, 1), BuildingBlock: KIFKEQ_clean_linker_1, # of connection points: 2
#     Edge 65, Type (0, 1), BuildingBlock: KIFKEQ_clean_linker_1, # of connection points: 2
#     Edge 66, Type (0, 1), BuildingBlock: KIFKEQ_clean_linker_1, # of connection points: 2
#     Edge 67, Type (0, 1), BuildingBlock: KIFKEQ_clean_linker_1, # of connection points: 2
#     Edge 68, Type (0, 1), BuildingBlock: KIFKEQ_clean_linker_1, # of connection points: 2
#     Edge 69, Type (0, 1), BuildingBlock: KIFKEQ_clean_linker_1, # of connection points: 2
#     Edge 70, Type (0, 1), BuildingBlock: KIFKEQ_clean_linker_1, # of connection points: 2
#     Edge 71, Type (0, 1), BuildingBlock: KIFKEQ_clean_linker_1, # of connection points: 2
#     Edge 72, Type (0, 1), BuildingBlock: KIFKEQ_clean_linker_1, # of connection points: 2
#     Edge 73, Type (0, 1), BuildingBlock: KIFKEQ_clean_linker_1, # of connection points: 2
#     Edge 74, Type (0, 1), BuildingBlock: KIFKEQ_clean_linker_1, # of connection points: 2
#     Edge 75, Type (0, 1), BuildingBlock: KIFKEQ_clean_linker_1, # of connection points: 2
# Relax obj value: 0.036
# Max RMSD: 0.142
# Mean RMSD: 0.065
data_MOF--net-ctn--node1-QUQFOY_clean_sbu_1--node2-VETTIZ_charged_linker_0--edge1-KIFKEQ_clean_linker_1
_symmetry_space_group_name_H-M    P1
_symmetry_Int_Tables_number       1
_symmetry_cell_setting            triclinic
loop_
_symmetry_equiv_pos_as_xyz
'x, y, z'
_cell_length_a     68.03852
_cell_length_b     67.989774
_cell_length_c     68.186403
_cell_angle_alpha  92.768478
_cell_angle_beta   90.049823
_cell_angle_gamma 94.414034
loop_
_atom_site_label
_atom_site_type_symbol
_atom_site_fract_x
_atom_site_fract_y
_atom_site_fract_z
_atom_type_partial_charge
C0 C 0.06012 0.1507 0.02756 0.0
C1 C 0.04434 0.16293 0.02742 0.0
C2 C 0.03031 0.16167 0.04264 0.0
C3 C 0.04719 0.13579 0.05703 0.0
C4 C 0.06122 0.13726 0.04243 0.0
C5 C 0.07646 0.12252 0.04428 0.0
H6 H 0.1031 0.04001 0.08499 0.0
C7 C 0.05196 0.11978 0.06967 0.0
C8 C 0.06922 0.11202 0.0624 0.0
H9 H 0.13219 0.07159 0.03818 0.0
H10 H 0.11005 0.09745 0.04263 0.0
H11 H 0.10129 0.07757 0.1135 0.0
H12 H 0.05857 0.04721 0.07415 0.0
H13 H 0.04748 0.05139 0.0972 0.0
H14 H 0.06841 0.03697 0.09555 0.0
H15 H 0.08554 0.05705 0.12117 0.0
H16 H 0.07828 0.08207 0.12373 0.0
C17 C 0.09684 0.13395 0.04776 0.0
C18 C 0.0752 0.10862 0.02555 0.0
C19 C 0.00419 0.09773 0.12314 0.0
C20 C 0.00444 0.08281 0.13674 0.0
C21 C 0.02139 0.07219 0.13797 0.0
C22 C 0.03722 0.07548 0.12517 0.0
C23 C 0.03622 0.08958 0.11093 0.0
C24 C 0.02027 0.10094 0.11053 0.0
C25 C 0.02237 0.11594 0.09499 0.0
C26 C 0.04199 0.11132 0.08589 0.0
C27 C 0.04976 0.09557 0.09504 0.0
C28 C 0.02339 0.13684 0.10529 0.0
C29 C 0.00501 0.11158 0.0803 0.0
C30 C 0.10499 0.05259 0.07586 0.0
C31 C 0.11918 0.05336 0.06085 0.0
C32 C 0.121 0.07018 0.04941 0.0
C33 C 0.10816 0.08526 0.05204 0.0
C34 C 0.09329 0.08358 0.06627 0.0
C35 C 0.09238 0.06782 0.07836 0.0
C36 C 0.07619 0.06888 0.09326 0.0
C37 C 0.06694 0.0874 0.08749 0.0
C38 C 0.07683 0.09579 0.07148 0.0
C39 C 0.08568 0.0714 0.11403 0.0
C40 C 0.06187 0.05014 0.09005 0.0
H41 H 0.02042 0.14794 0.0684 0.0
H42 H 0.07129 0.1514 0.01626 0.0
H43 H 0.05954 0.10454 0.02138 0.0
H44 H 0.08169 0.09449 0.02742 0.0
H45 H 0.0825 0.11593 0.01297 0.0
H46 H 0.09538 0.14817 0.05621 0.0
H47 H 0.10414 0.1374 0.03364 0.0
H48 H 0.10679 0.12588 0.05673 0.0
H49 H 0.99152 0.10629 0.12182 0.0
H50 H 0.02237 0.0611 0.14874 0.0
H51 H 0.04944 0.06661 0.12659 0.0
H52 H 0.03013 0.13685 0.12017 0.0
H53 H 0.00847 0.14223 0.10707 0.0
H54 H 0.0329 0.14777 0.09744 0.0
H55 H 0.00194 0.09539 0.07742 0.0
H56 H 0.00803 0.11751 0.06575 0.0
H57 H 0.99133 0.11752 0.08618 0.0
H58 H 0.0178 0.17061 0.04281 0.0
C59 C 0.03172 0.14831 0.05745 0.0
C60 C 0.23233 0.67061 0.22884 0.0
C61 C 0.21392 0.66793 0.21937 0.0
C62 C 0.20747 0.68324 0.20835 0.0
C63 C 0.2377 0.70335 0.21632 0.0
C64 C 0.24386 0.68833 0.2272 0.0
C65 C 0.26346 0.69361 0.23696 0.0
H66 H 0.34152 0.7595 0.25482 0.0
C67 C 0.2531 0.71993 0.21799 0.0
C68 C 0.26813 0.71433 0.23015 0.0
H69 H 0.33074 0.70094 0.27654 0.0
H70 H 0.29997 0.69654 0.2589 0.0
H71 H 0.29828 0.77243 0.2609 0.0
H72 H 0.3259 0.74724 0.20973 0.0
H73 H 0.31244 0.76668 0.20233 0.0
H74 H 0.33252 0.77185 0.2195 0.0
H75 H 0.31585 0.78662 0.24663 0.0
H76 H 0.28993 0.78423 0.24046 0.0
C77 C 0.26051 0.69341 0.25952 0.0
C78 C 0.27819 0.67906 0.22862 0.0
C79 C 0.24674 0.78085 0.17911 0.0
C80 C 0.25901 0.7982 0.17704 0.0
C81 C 0.27603 0.80166 0.18888 0.0
C82 C 0.28124 0.78757 0.20191 0.0
C83 C 0.26931 0.76984 0.2031 0.0
C84 C 0.25213 0.76694 0.19216 0.0
C85 C 0.2411 0.74738 0.19548 0.0
C86 C 0.25481 0.73874 0.20973 0.0
C87 C 0.27136 0.7519 0.21407 0.0
C88 C 0.221 0.75133 0.20496 0.0
C89 C 0.23953 0.73528 0.17562 0.0
C90 C 0.3326 0.74566 0.25556 0.0
C91 C 0.33853 0.73055 0.26711 0.0
C92 C 0.32638 0.71287 0.26793 0.0
C93 C 0.30853 0.71032 0.25761 0.0
C94 C 0.30268 0.72562 0.24632 0.0
C95 C 0.31464 0.7429 0.24537 0.0
C96 C 0.30585 0.75756 0.23272 0.0
C97 C 0.28659 0.74622 0.22638 0.0
C98 C 0.28492 0.72752 0.23435 0.0
C99 C 0.30236 0.77631 0.24568 0.0
C100 C 0.31986 0.76123 0.21516 0.0
H101 H 0.21364 0.71203 0.19809 0.0
H102 H 0.23751 0.65931 0.2378 0.0
H103 H 0.27523 0.67523 0.21278 0.0
H104 H 0.29365 0.68533 0.22916 0.0
H105 H 0.277 0.66509 0.23647 0.0
H106 H 0.2456 0.6978 0.26372 0.0
H107 H 0.262 0.67846 0.26496 0.0
H108 H 0.27079 0.70418 0.26775 0.0
H109 H 0.23343 0.77793 0.17038 0.0
H110 H 0.28575 0.8149 0.18746 0.0
H111 H 0.2946 0.79083 0.2102 0.0
H112 H 0.2221 0.76526 0.21429 0.0
H113 H 0.20955 0.75272 0.1936 0.0
H114 H 0.21575 0.7398 0.21502 0.0
H115 H 0.25358 0.73715 0.16732 0.0
H116 H 0.23694 0.71924 0.17731 0.0
H117 H 0.22761 0.74019 0.16631 0.0
H118 H 0.19332 0.68147 0.20092 0.0
C119 C 0.2193 0.70093 0.20673 0.0
C120 C 0.95683 0.41874 0.01634 0.0
C121 C 0.94719 0.41796 0.99808 0.0
C122 C 0.93253 0.43105 0.99496 0.0
C123 C 0.93832 0.44618 0.02762 0.0
C124 C 0.95215 0.43283 0.03082 0.0
C125 C 0.96129 0.43565 0.0509 0.0
H126 H 0.97351 0.48959 0.13623 0.0
C127 C 0.93778 0.45953 0.04537 0.0
C128 C 0.95111 0.45331 0.05907 0.0
H129 H 0.00068 0.43625 0.11805 0.0
H130 H 0.98197 0.43396 0.0879 0.0
H131 H 0.9283 0.47398 0.12024 0.0
H132 H 0.97709 0.50924 0.09655 0.0
H133 H 0.95559 0.51926 0.08873 0.0
H134 H 0.96102 0.51925 0.11466 0.0
H135 H 0.93653 0.4982 0.13008 0.0
H136 H 0.91913 0.49478 0.11004 0.0
C137 C 0.95571 0.41685 0.06234 0.0
C138 C 0.98377 0.44052 0.04839 0.0
C139 C 0.89618 0.51845 0.04583 0.0
C140 C 0.89464 0.53486 0.05903 0.0
C141 C 0.90512 0.53557 0.07697 0.0
C142 C 0.91703 0.52046 0.08151 0.0
C143 C 0.91877 0.5045 0.06791 0.0
C144 C 0.90845 0.50371 0.05041 0.0
C145 C 0.91294 0.48627 0.0372 0.0
C146 C 0.92755 0.47663 0.04974 0.0
C147 C 0.93079 0.48729 0.06777 0.0
C148 C 0.89366 0.47289 0.03379 0.0
C149 C 0.92248 0.49418 0.0182 0.0
C150 C 0.97517 0.47723 0.12589 0.0
C151 C 0.98862 0.46308 0.1295 0.0
C152 C 0.99059 0.44743 0.1155 0.0
C153 C 0.97966 0.44611 0.09803 0.0
C154 C 0.96669 0.46066 0.09439 0.0
C155 C 0.96441 0.47573 0.10831 0.0
C156 C 0.9501 0.48996 0.1018 0.0
C157 C 0.9441 0.48083 0.08172 0.0
C158 C 0.954 0.4638 0.07744 0.0
C159 C 0.93258 0.48941 0.11629 0.0
C160 C 0.96135 0.51058 0.10045 0.0
H161 H 0.91693 0.45491 0.00634 0.0
H162 H 0.96782 0.40855 0.01932 0.0
H163 H 0.98673 0.4504 0.03601 0.0
H164 H 0.99082 0.4486 0.06128 0.0
H165 H 0.99142 0.42689 0.04518 0.0
H166 H 0.94129 0.40951 0.05728 0.0
H167 H 0.96693 0.4059 0.0603 0.0
H168 H 0.95368 0.42015 0.07822 0.0
H169 H 0.88818 0.51709 0.03205 0.0
H170 H 0.90457 0.54808 0.08734 0.0
H171 H 0.92473 0.522 0.0953 0.0
H172 H 0.88465 0.47246 0.0474 0.0
H173 H 0.88454 0.47845 0.02204 0.0
H174 H 0.89634 0.45734 0.03007 0.0
H175 H 0.93202 0.50799 0.02149 0.0
H176 H 0.93237 0.48395 0.01101 0.0
H177 H 0.91106 0.49759 0.00749 0.0
H178 H 0.92485 0.43063 0.981 0.0
C179 C 0.92805 0.44517 0.00964 0.0
C180 C 0.66083 0.79715 0.29073 0.0
C181 C 0.64776 0.78014 0.28895 0.0
C182 C 0.65146 0.76512 0.27477 0.0
C183 C 0.68041 0.78457 0.26385 0.0
C184 C 0.67687 0.79914 0.27797 0.0
C185 C 0.69116 0.81702 0.27687 0.0
H186 H 0.7672 0.86517 0.23102 0.0
C187 C 0.69759 0.79178 0.25223 0.0
C188 C 0.70388 0.81082 0.25975 0.0
H189 H 0.73425 0.88573 0.28117 0.0
H190 H 0.71469 0.85464 0.28077 0.0
H191 H 0.7298 0.84488 0.20697 0.0
H192 H 0.77147 0.8219 0.24566 0.0
H193 H 0.76679 0.80405 0.22642 0.0
H194 H 0.77768 0.82824 0.22107 0.0
H195 H 0.75484 0.8417 0.20003 0.0
H196 H 0.73569 0.82198 0.19651 0.0
C197 C 0.67936 0.83489 0.27223 0.0
C198 C 0.70301 0.81952 0.29636 0.0
C199 C 0.72142 0.7495 0.19481 0.0
C200 C 0.73613 0.75286 0.18057 0.0
C201 C 0.74826 0.77068 0.18201 0.0
C202 C 0.74556 0.78498 0.19703 0.0
C203 C 0.73045 0.78162 0.21075 0.0
C204 C 0.71879 0.76405 0.20962 0.0
C205 C 0.7031 0.76331 0.22518 0.0
C206 C 0.70738 0.78329 0.23587 0.0
C207 C 0.72337 0.79395 0.2273 0.0
C208 C 0.68268 0.76152 0.21484 0.0
C209 C 0.70669 0.74611 0.23848 0.0
C210 C 0.75563 0.86304 0.24178 0.0
C211 C 0.75223 0.87796 0.2561 0.0
C212 C 0.73728 0.87442 0.27009 0.0
C213 C 0.72587 0.85637 0.26977 0.0
C214 C 0.72936 0.84165 0.25529 0.0
C215 C 0.74411 0.84507 0.24169 0.0
C216 C 0.74583 0.82766 0.2275 0.0
C217 C 0.72959 0.81328 0.23477 0.0
C218 C 0.71996 0.8216 0.25097 0.0
C219 C 0.74147 0.83427 0.20659 0.0
C220 C 0.76653 0.82003 0.23007 0.0
H221 H 0.66975 0.75531 0.25171 0.0
H222 H 0.65812 0.8091 0.30124 0.0
H223 H 0.70592 0.8049 0.30193 0.0
H224 H 0.71774 0.82727 0.29471 0.0
H225 H 0.69477 0.82749 0.30791 0.0
H226 H 0.66645 0.83019 0.26262 0.0
H227 H 0.67372 0.84203 0.28587 0.0
H228 H 0.68797 0.84613 0.26395 0.0
H229 H 0.71193 0.73595 0.19431 0.0
H230 H 0.75948 0.77391 0.17113 0.0
H231 H 0.75511 0.79829 0.1971 0.0
H232 H 0.6833 0.76913 0.20074 0.0
H233 H 0.67753 0.74582 0.21146 0.0
H234 H 0.67129 0.76873 0.22348 0.0
H235 H 0.72272 0.74548 0.24138 0.0
H236 H 0.69989 0.74775 0.2531 0.0
H237 H 0.70113 0.73169 0.2314 0.0
H238 H 0.64155 0.75188 0.2732 0.0
C239 C 0.6678 0.76718 0.2623 0.0
C240 C 0.05363 0.92249 0.49685 0.0
C241 C 0.03675 0.90915 0.49597 0.0
C242 C 0.02406 0.90913 0.47954 0.0
C243 C 0.04424 0.93629 0.46637 0.0
C244 C 0.05718 0.93563 0.48188 0.0
C245 C 0.07462 0.95044 0.48062 0.0
H246 H 0.11938 0.02918 0.43788 0.0
C247 C 0.05174 0.95243 0.45395 0.0
C248 C 0.06972 0.9605 0.46206 0.0
H249 H 0.13956 0.99842 0.48726 0.0
H250 H 0.11159 0.97458 0.48371 0.0
H251 H 0.07482 0.02719 0.44985 0.0
H252 H 0.1063 0.98941 0.41069 0.0
H253 H 0.08337 0.99207 0.39966 0.0
H254 H 0.1003 0.01357 0.40438 0.0
H255 H 0.08306 0.0345 0.4261 0.0
H256 H 0.05951 0.02106 0.42942 0.0
C257 C 0.07459 0.96473 0.49903 0.0
C258 C 0.09347 0.93905 0.47826 0.0
C259 C 0.0092 0.9742 0.39884 0.0
C260 C 0.01167 0.98972 0.38592 0.0
C261 C 0.02952 0.00174 0.3864 0.0
C262 C 0.04447 0.99864 0.39977 0.0
C263 C 0.04156 0.98344 0.41295 0.0
C264 C 0.02428 0.97135 0.41219 0.0
C265 C 0.02386 0.95589 0.42729 0.0
C266 C 0.04359 0.96098 0.43748 0.0
C267 C 0.05383 0.97718 0.42904 0.0
C268 C 0.00629 0.95914 0.44119 0.0
C269 C 0.02288 0.93525 0.41648 0.0
C270 C 0.11793 0.01711 0.44771 0.0
C271 C 0.1316 0.01577 0.46298 0.0
C272 C 0.12905 -5e-05 0.47559 0.0
C273 C 0.11283 0.98607 0.47346 0.0
C274 C 0.0989 0.98803 0.45861 0.0
C275 C 0.10174 0.00312 0.44582 0.0
C276 C 0.08532 0.00287 0.43099 0.0
C277 C 0.07219 0.98511 0.43703 0.0
C278 C 0.08016 0.97665 0.45332 0.0
C279 C 0.07512 0.02241 0.43402 0.0
C280 C 0.09415 -0.00055 0.41028 0.0
H281 H 0.01737 0.92204 0.45285 0.0
H282 H 0.06374 0.92316 0.50916 0.0
H283 H 0.09009 0.92403 0.47129 0.0
H284 H 0.10442 0.94627 0.4684 0.0
H285 H 0.1005 0.93723 0.4927 0.0
H286 H 0.05933 0.96855 0.50255 0.0
H287 H 0.08052 0.95791 0.51204 0.0
H288 H 0.08303 0.979 0.49707 0.0
H289 H 0.99581 0.96449 0.39862 0.0
H290 H 0.03175 0.0139 0.37676 0.0
H291 H 0.05758 0.00844 0.39954 0.0
H292 H 0.00572 0.97511 0.44535 0.0
H293 H 0.99208 0.95391 0.43393 0.0
H294 H 0.00726 0.95175 0.45514 0.0
H295 H 0.03024 0.9359 0.40194 0.0
H296 H 0.03081 0.92447 0.42446 0.0
H297 H 0.00738 0.9293 0.41392 0.0
H298 H 0.01126 0.89868 0.47801 0.0
C299 C 0.02768 0.92264 0.46481 0.0
C300 C 0.26435 0.6959 0.80091 0.0
C301 C 0.26773 0.68665 0.78245 0.0
C302 C 0.25629 0.69134 0.76626 0.0
C303 C 0.23853 0.71383 0.78711 0.0
C304 C 0.24994 0.70944 0.80285 0.0
C305 C 0.24501 0.72071 0.82144 0.0
H306 H 0.19162 0.7884 0.86792 0.0
C307 C 0.22481 0.72844 0.79424 0.0
C308 C 0.22873 0.73263 0.81432 0.0
H309 H 0.23688 0.7554 0.89242 0.0
H310 H 0.2411 0.73856 0.86096 0.0
H311 H 0.17004 0.75147 0.8444 0.0
H312 H 0.21274 0.79747 0.82802 0.0
H313 H 0.19607 0.7935 0.80829 0.0
H314 H 0.18727 0.80145 0.83212 0.0
H315 H 0.16344 0.77589 0.8399 0.0
H316 H 0.16371 0.75692 0.82047 0.0
C317 C 0.23741 0.70567 0.83661 0.0
C318 C 0.26355 0.73406 0.8281 0.0
C319 C 0.17106 0.74993 0.74956 0.0
C320 C 0.15572 0.7624 0.75307 0.0
C321 C 0.15525 0.77343 0.77106 0.0
C322 C 0.16914 0.77136 0.78574 0.0
C323 C 0.1837 0.75804 0.78253 0.0
C324 C 0.18486 0.74792 0.76454 0.0
C325 C 0.20154 0.73451 0.76397 0.0
C326 C 0.20954 0.73769 0.78484 0.0
C327 C 0.19892 0.75145 0.79556 0.0
C328 C 0.19279 0.71305 0.75968 0.0
C329 C 0.21674 0.74203 0.74862 0.0
C330 C 0.20226 0.77736 0.86663 0.0
C331 C 0.21397 0.77332 0.88273 0.0
C332 C 0.22785 0.75902 0.88021 0.0
C333 C 0.23024 0.7492 0.86192 0.0
C334 C 0.21863 0.75367 0.84591 0.0
C335 C 0.2048 0.76739 0.8485 0.0
C336 C 0.19347 0.76999 0.83001 0.0
C337 C 0.20304 0.75582 0.81577 0.0
C338 C 0.21777 0.74636 0.82512 0.0
C339 C 0.17149 0.7634 0.83376 0.0
C340 C 0.19737 0.79173 0.82425 0.0
H341 H 0.23349 0.70774 0.75567 0.0
H342 H 0.27252 0.6925 0.81379 0.0
H343 H 0.27179 0.73979 0.81522 0.0
H344 H 0.25999 0.7474 0.83686 0.0
H345 H 0.27376 0.72575 0.83666 0.0
H346 H 0.22896 0.69271 0.82923 0.0
H347 H 0.24983 0.70008 0.84472 0.0
H348 H 0.22699 0.71178 0.84725 0.0
H349 H 0.17178 0.74129 0.73584 0.0
H350 H 0.14379 0.78339 0.77393 0.0
H351 H 0.16769 0.77992 0.79921 0.0
H352 H 0.17921 0.71001 0.76845 0.0
H353 H 0.1888 0.71047 0.74392 0.0
H354 H 0.20283 0.7019 0.7637 0.0
H355 H 0.21735 0.75839 0.74806 0.0
H356 H 0.23195 0.73879 0.75223 0.0
H357 H 0.21284 0.73567 0.73368 0.0
H358 H 0.25868 0.68467 0.7518 0.0
C359 C 0.24173 0.70484 0.7685 0.0
C360 C 0.88643 0.53014 0.49069 0.0
C361 C 0.88172 0.51214 0.48015 0.0
C362 C 0.89447 0.50599 0.46516 0.0
C363 C 0.91678 0.535 0.47232 0.0
C364 C 0.90394 0.54124 0.48659 0.0
C365 C 0.91133 0.56037 0.49695 0.0
H366 H 0.98314 0.63397 0.51059 0.0
C367 C 0.93415 0.54944 0.47256 0.0
C368 C 0.93102 0.56431 0.48695 0.0
H369 H 0.92658 0.62709 0.53944 0.0
H370 H 0.91834 0.59699 0.52023 0.0
H371 H 0.9667 0.62001 0.46635 0.0
H372 H 0.993 0.58996 0.51267 0.0
H373 H 0.0014 0.57943 0.49053 0.0
H374 H 0.00762 0.6053 0.49668 0.0
H375 H 0.9919 0.62497 0.4741 0.0
H376 H 0.98482 0.60557 0.45601 0.0
C377 C 0.89682 0.57613 0.49255 0.0
C378 C 0.91379 0.55664 0.51905 0.0
C379 C 0.99123 0.53881 0.42639 0.0
C380 C 0.00981 0.54895 0.42428 0.0
C381 C 0.01532 0.56548 0.43685 0.0
C382 C 0.00222 0.57218 0.45106 0.0
C383 C 0.98351 0.5621 0.45281 0.0
C384 C 0.97844 0.5455 0.44083 0.0
C385 C 0.9584 0.53603 0.44552 0.0
C386 C 0.95206 0.55003 0.46189 0.0
C387 C 0.96673 0.56537 0.46594 0.0
C388 C 0.94515 0.53631 0.42707 0.0
C389 C 0.96103 0.51511 0.45276 0.0
C390 C 0.96903 0.62591 0.51282 0.0
C391 C 0.95547 0.63296 0.52651 0.0
C392 C 0.93717 0.62214 0.5288 0.0
C393 C 0.93245 0.60457 0.5177 0.0
C394 C 0.94619 0.59765 0.50418 0.0
C395 C 0.96408 0.6083 0.50185 0.0
C396 C 0.97678 0.59867 0.48672 0.0
C397 C 0.96346 0.58056 0.4803 0.0
C398 C 0.94564 0.58006 0.49063 0.0
C399 C 0.98044 0.61299 0.46989 0.0
C400 C 0.99579 0.59312 0.49701 0.0
H401 H 0.92122 0.51177 0.44979 0.0
H402 H 0.87675 0.53543 0.50205 0.0
H403 H 0.91937 0.54189 0.52099 0.0
H404 H 0.92473 0.56723 0.52659 0.0
H405 H 0.8995 0.55702 0.52687 0.0
H406 H 0.88975 0.57311 0.47788 0.0
H407 H 0.88486 0.57638 0.50362 0.0
H408 H 0.90421 0.59114 0.49183 0.0
H409 H 0.98682 0.52587 0.41705 0.0
H410 H 0.0296 0.57347 0.43535 0.0
H411 H 0.00712 0.585 0.46005 0.0
H412 H 0.94791 0.55048 0.41967 0.0
H413 H 0.94815 0.52415 0.41628 0.0
H414 H 0.92927 0.53527 0.43052 0.0
H415 H 0.97534 0.51468 0.46059 0.0
H416 H 0.9498 0.51036 0.4636 0.0
H417 H 0.96078 0.50397 0.44028 0.0
H418 H 0.89116 0.49213 0.45688 0.0
C419 C 0.91198 0.51733 0.46119 0.0
C420 C 0.79672 0.78591 0.86648 0.0
C421 C 0.78127 0.78717 0.88006 0.0
C422 C 0.76602 0.79941 0.87623 0.0
C423 C 0.78126 0.80804 0.84538 0.0
C424 C 0.79643 0.79643 0.84936 0.0
C425 C 0.81163 0.79648 0.83338 0.0
H426 H 0.84327 0.82741 0.74526 0.0
C427 C 0.78503 0.81632 0.82597 0.0
C428 C 0.80281 0.80964 0.8189 0.0
H429 H 0.87241 0.79146 0.78524 0.0
H430 H 0.84519 0.79282 0.80764 0.0
H431 H 0.82774 0.85854 0.77939 0.0
H432 H 0.80083 0.8061 0.74929 0.0
H433 H 0.78219 0.82232 0.75311 0.0
H434 H 0.80305 0.82941 0.73793 0.0
H435 H 0.8221 0.85692 0.7536 0.0
H436 H 0.80397 0.86329 0.77149 0.0
C437 C 0.83142 0.80587 0.84216 0.0
C438 C 0.81241 0.77504 0.82478 0.0
C439 C 0.73645 0.86041 0.7975 0.0
C440 C 0.73529 0.8695 0.77945 0.0
C441 C 0.74985 0.86623 0.76516 0.0
C442 C 0.76548 0.85464 0.76899 0.0
C443 C 0.76658 0.84607 0.78726 0.0
C444 C 0.75198 0.84869 0.80097 0.0
C445 C 0.75499 0.83772 0.81923 0.0
C446 C 0.77408 0.82845 0.81439 0.0
C447 C 0.78092 0.83356 0.79575 0.0
C448 C 0.75747 0.85295 0.83687 0.0
C449 C 0.73742 0.82198 0.82102 0.0
C450 C 0.84384 0.82 0.75894 0.0
C451 C 0.86003 0.80932 0.76348 0.0
C452 C 0.86003 0.79959 0.78128 0.0
C453 C 0.84425 0.80051 0.79435 0.0
C454 C 0.82823 0.81128 0.78965 0.0
C455 C 0.82816 0.82077 0.77219 0.0
C456 C 0.80982 0.83147 0.7697 0.0
C457 C 0.79912 0.82712 0.78873 0.0
C458 C 0.80998 0.81526 0.8003 0.0
C459 C 0.81608 0.85374 0.76835 0.0
C460 C 0.79834 0.82204 0.75152 0.0
H461 H 0.75388 0.81881 0.8569 0.0
H462 H 0.80858 0.77651 0.8688 0.0
H463 H 0.79736 0.76737 0.82386 0.0
H464 H 0.81807 0.77426 0.80962 0.0
H465 H 0.82154 0.76636 0.83415 0.0
H466 H 0.82891 0.81689 0.85432 0.0
H467 H 0.84029 0.79449 0.84818 0.0
H468 H 0.84038 0.81428 0.83143 0.0
H469 H 0.72578 0.86267 0.80899 0.0
H470 H 0.7492 0.87262 0.75096 0.0
H471 H 0.77615 0.85287 0.75759 0.0
H472 H 0.766 0.86668 0.83254 0.0
H473 H 0.74294 0.85712 0.8424 0.0
H474 H 0.76592 0.84768 0.84914 0.0
H475 H 0.73208 0.81612 0.80628 0.0
H476 H 0.74139 0.80883 0.82857 0.0
H477 H 0.72482 0.82833 0.82874 0.0
H478 H 0.75411 0.80094 0.88658 0.0
C479 C 0.76594 0.80983 0.85899 0.0
C480 C 0.29915 0.27877 0.35425 0.0
C481 C 0.28318 0.279 0.36733 0.0
C482 C 0.268 0.29143 0.36384 0.0
C483 C 0.28471 0.30288 0.33467 0.0
C484 C 0.29963 0.2908 0.33816 0.0
C485 C 0.31566 0.29244 0.32304 0.0
H486 H 0.35271 0.33369 0.24132 0.0
C487 C 0.2897 0.31342 0.31668 0.0
C488 C 0.30784 0.30741 0.30984 0.0
H489 H 0.37807 0.29061 0.27638 0.0
H490 H 0.35023 0.29058 0.29814 0.0
H491 H 0.33806 0.36048 0.2774 0.0
H492 H 0.30833 0.31329 0.24174 0.0
H493 H 0.29171 0.33162 0.24562 0.0
H494 H 0.31442 0.33736 0.23273 0.0
H495 H 0.33088 0.36347 0.25246 0.0
H496 H 0.31425 0.36737 0.27261 0.0
C497 C 0.33504 0.30049 0.33359 0.0
C498 C 0.31661 0.27194 0.31224 0.0
C499 C 0.24402 0.36261 0.29213 0.0
C500 C 0.24519 0.37532 0.27645 0.0
C501 C 0.26104 0.37442 0.26321 0.0
C502 C 0.27575 0.36144 0.26583 0.0
C503 C 0.27469 0.34926 0.28194 0.0
C504 C 0.25889 0.34982 0.29463 0.0
C505 C 0.26038 0.33613 0.31114 0.0
C506 C 0.27976 0.32737 0.30636 0.0
C507 C 0.28807 0.33513 0.28926 0.0
C508 C 0.26145 0.34868 0.33078 0.0
C509 C 0.24269 0.32036 0.30944 0.0
C510 C 0.3522 0.32416 0.25362 0.0
C511 C 0.36768 0.31221 0.25717 0.0
C512 C 0.36651 0.3002 0.27349 0.0
C513 C 0.35025 0.3001 0.28605 0.0
C514 C 0.33492 0.31215 0.28233 0.0
C515 C 0.33604 0.32389 0.26633 0.0
C516 C 0.31839 0.33577 0.26474 0.0
C517 C 0.30651 0.32919 0.28242 0.0
C518 C 0.3163 0.31538 0.29265 0.0
C519 C 0.32562 0.35796 0.26675 0.0
C520 C 0.30761 0.32939 0.24516 0.0
H521 H 0.25667 0.31244 0.34579 0.0
H522 H 0.31095 0.26924 0.3563 0.0
H523 H 0.30161 0.26434 0.31036 0.0
H524 H 0.32248 0.27287 0.29719 0.0
H525 H 0.32562 0.26226 0.32062 0.0
H526 H 0.33202 0.31094 0.3461 0.0
H527 H 0.34289 0.28833 0.33955 0.0
H528 H 0.34515 0.30916 0.32405 0.0
H529 H 0.2322 0.36315 0.30274 0.0
H530 H 0.26216 0.38395 0.25091 0.0
H531 H 0.28752 0.36161 0.25538 0.0
H532 H 0.26939 0.3634 0.32888 0.0
H533 H 0.24648 0.3512 0.33637 0.0
H534 H 0.26987 0.34206 0.34229 0.0
H535 H 0.23934 0.316 0.29379 0.0
H536 H 0.24558 0.30648 0.31628 0.0
H537 H 0.22922 0.32612 0.31603 0.0
H538 H 0.25567 0.29214 0.37381 0.0
C539 C 0.26866 0.30331 0.34759 0.0
C540 C 0.43688 0.90662 0.52489 0.0
C541 C 0.42569 0.90485 0.50748 0.0
C542 C 0.41225 0.91911 0.50404 0.0
C543 C 0.42211 0.93695 0.53458 0.0
C544 C 0.4349 0.92267 0.53812 0.0
C545 C 0.44648 0.92708 0.55677 0.0
H546 H 0.4721 0.98975 0.63382 0.0
C547 C 0.4246 0.95232 0.55067 0.0
C548 C 0.43885 0.94657 0.56369 0.0
H549 H 0.4935 0.93256 0.61943 0.0
H550 H 0.47165 0.92832 0.5914 0.0
H551 H 0.42512 0.97602 0.62451 0.0
H552 H 0.47248 0.00434 0.5919 0.0
H553 H 0.45101 0.01501 0.58502 0.0
H554 H 0.45924 0.01766 0.61026 0.0
H555 H 0.43558 0.00065 0.63041 0.0
H556 H 0.41587 0.99587 0.61275 0.0
C557 C 0.44081 0.91049 0.57102 0.0
C558 C 0.46868 0.92934 0.55145 0.0
C559 C 0.38668 0.01386 0.54943 0.0
C560 C 0.38763 0.03146 0.56119 0.0
C561 C 0.40044 0.03362 0.57749 0.0
C562 C 0.41215 0.01839 0.5821 0.0
C563 C 0.41125 0.00093 0.5701 0.0
C564 C 0.39875 0.99892 0.55401 0.0
C565 C 0.4007 0.97988 0.54222 0.0
C566 C 0.41613 0.97063 0.55411 0.0
C567 C 0.42214 0.98298 0.57047 0.0
C568 C 0.38058 0.96761 0.54231 0.0
C569 C 0.40824 0.985 0.52147 0.0
C570 C 0.47185 0.97616 0.62483 0.0
C571 C 0.48453 0.96144 0.62886 0.0
C572 C 0.48402 0.94418 0.61652 0.0
C573 C 0.47126 0.94173 0.6003 0.0
C574 C 0.45894 0.95674 0.59628 0.0
C575 C 0.45923 0.9735 0.60858 0.0
C576 C 0.44526 0.98798 0.60196 0.0
C577 C 0.43648 0.9771 0.58367 0.0
C578 C 0.44462 0.9589 0.58038 0.0
C579 C 0.42964 0.99047 0.61822 0.0
C580 C 0.45747 0.00735 0.59713 0.0
H581 H 0.39999 0.94555 0.51403 0.0
H582 H 0.44757 0.89612 0.52788 0.0
H583 H 0.47092 0.93668 0.5373 0.0
H584 H 0.47763 0.93882 0.56221 0.0
H585 H 0.47492 0.91473 0.54987 0.0
H586 H 0.42515 0.90474 0.56894 0.0
H587 H 0.45008 0.89785 0.56857 0.0
H588 H 0.44185 0.9157 0.58662 0.0
H589 H 0.3772 0.01203 0.53659 0.0
H590 H 0.40134 0.04711 0.58669 0.0
H591 H 0.4216 0.02091 0.59471 0.0
H592 H 0.37371 0.96865 0.55709 0.0
H593 H 0.3702 0.97307 0.53161 0.0
H594 H 0.38185 0.95169 0.53909 0.0
H595 H 0.41808 0.99887 0.52209 0.0
H596 H 0.41736 0.97375 0.51477 0.0
H597 H 0.3958 0.98713 0.51143 0.0
H598 H 0.40329 0.91796 0.49084 0.0
C599 C 0.41035 0.9351 0.51752 0.0
C600 C 0.17602 0.29458 0.78607 0.0
C601 C 0.16352 0.27717 0.78407 0.0
C602 C 0.1672 0.26295 0.76906 0.0
C603 C 0.19468 0.28415 0.75759 0.0
C604 C 0.19133 0.29782 0.77265 0.0
C605 C 0.20482 0.31632 0.77174 0.0
H606 H 0.27513 0.37034 0.7236 0.0
C607 C 0.21078 0.29272 0.74535 0.0
C608 C 0.21674 0.31158 0.75358 0.0
H609 H 0.24592 0.38625 0.77777 0.0
H610 H 0.22735 0.35456 0.77661 0.0
H611 H 0.23708 0.34969 0.7016 0.0
H612 H 0.28294 0.32678 0.73518 0.0
H613 H 0.2774 0.30954 0.7156 0.0
H614 H 0.28676 0.33435 0.71054 0.0
H615 H 0.26171 0.34813 0.69257 0.0
H616 H 0.24322 0.32778 0.68922 0.0
C617 C 0.19198 0.33387 0.76891 0.0
C618 C 0.21776 0.3183 0.79054 0.0
C619 C 0.23181 0.25532 0.68337 0.0
C620 C 0.24524 0.26037 0.66842 0.0
C621 C 0.25685 0.27844 0.67028 0.0
C622 C 0.25481 0.29152 0.68649 0.0
C623 C 0.24088 0.2866 0.701 0.0
C624 C 0.22982 0.26867 0.69944 0.0
C625 C 0.21538 0.26626 0.71603 0.0
C626 C 0.2197 0.28566 0.72781 0.0
C627 C 0.23459 0.29751 0.71886 0.0
C628 C 0.19425 0.26433 0.70723 0.0
C629 C 0.22066 0.24837 0.72764 0.0
C630 C 0.26486 0.36696 0.73531 0.0
C631 C 0.26196 0.3809 0.75075 0.0
C632 C 0.24823 0.37593 0.76554 0.0
C633 C 0.23755 0.35744 0.76492 0.0
C634 C 0.24055 0.34373 0.74932 0.0
C635 C 0.25411 0.34856 0.73494 0.0
C636 C 0.25551 0.33212 0.71958 0.0
C637 C 0.24051 0.31662 0.72709 0.0
C638 C 0.23172 0.32355 0.74443 0.0
C639 C 0.24921 0.3397 0.69961 0.0
C640 C 0.27674 0.32532 0.72002 0.0
H641 H 0.18469 0.25503 0.74462 0.0
H642 H 0.17333 0.30594 0.79722 0.0
H643 H 0.22141 0.30355 0.79521 0.0
H644 H 0.23219 0.32649 0.78835 0.0
H645 H 0.21002 0.32556 0.80292 0.0
H646 H 0.17892 0.32922 0.75949 0.0
H647 H 0.1865 0.33973 0.7832 0.0
H648 H 0.19976 0.34609 0.76124 0.0
H649 H 0.22252 0.24164 0.68221 0.0
H650 H 0.26743 0.28253 0.65903 0.0
H651 H 0.26394 0.30512 0.68691 0.0
H652 H 0.19341 0.27328 0.69405 0.0
H653 H 0.18965 0.24876 0.70266 0.0
H654 H 0.18316 0.27004 0.71737 0.0
H655 H 0.23693 0.24803 0.72899 0.0
H656 H 0.2152 0.24893 0.74288 0.0
H657 H 0.21486 0.23425 0.72012 0.0
H658 H 0.15777 0.24939 0.76731 0.0
C659 C 0.18279 0.26629 0.75589 0.0
C660 C 0.74578 0.17067 0.73855 0.0
C661 C 0.72687 0.16784 0.73015 0.0
C662 C 0.72026 0.18236 0.7182 0.0
C663 C 0.75114 0.20222 0.72349 0.0
C664 C 0.75759 0.18783 0.73502 0.0
C665 C 0.77802 0.19295 0.74292 0.0
H666 H 0.85808 0.25764 0.75285 0.0
C667 C 0.76711 0.2182 0.72286 0.0
C668 C 0.78289 0.21277 0.73414 0.0
H669 H 0.84715 0.20096 0.77863 0.0
H670 H 0.81606 0.19573 0.7617 0.0
H671 H 0.81372 0.27148 0.75838 0.0
H672 H 0.84234 0.24304 0.7096 0.0
H673 H 0.8264 0.25915 0.69974 0.0
H674 H 0.84662 0.26904 0.71536 0.0
H675 H 0.8336 0.28335 0.74494 0.0
H676 H 0.80846 0.28339 0.73681 0.0
C677 C 0.77678 0.19475 0.76566 0.0
C678 C 0.79148 0.1771 0.73473 0.0
C679 C 0.75761 0.27877 0.68429 0.0
C680 C 0.77026 0.29523 0.67956 0.0
C681 C 0.78953 0.29717 0.68756 0.0
C682 C 0.79605 0.28301 0.69982 0.0
C683 C 0.78331 0.26654 0.70406 0.0
C684 C 0.76449 0.26458 0.69622 0.0
C685 C 0.75341 0.2455 0.70123 0.0
C686 C 0.76862 0.23645 0.71352 0.0
C687 C 0.78604 0.24893 0.71533 0.0
C688 C 0.73511 0.25049 0.71344 0.0
C689 C 0.74858 0.23315 0.68186 0.0
C690 C 0.84904 0.24402 0.75462 0.0
C691 C 0.85495 0.22975 0.76722 0.0
C692 C 0.84275 0.21229 0.76925 0.0
C693 C 0.8247 0.20926 0.75937 0.0
C694 C 0.81866 0.22389 0.74734 0.0
C695 C 0.83081 0.24082 0.74491 0.0
C696 C 0.82176 0.2547 0.73155 0.0
C697 C 0.80202 0.24345 0.72679 0.0
C698 C 0.80038 0.22545 0.73609 0.0
C699 C 0.8193 0.27437 0.74337 0.0
C700 C 0.83493 0.2568 0.71312 0.0
H701 H 0.72639 0.21018 0.70578 0.0
H702 H 0.75139 0.15964 0.74757 0.0
H703 H 0.78689 0.17175 0.71961 0.0
H704 H 0.80702 0.18283 0.73325 0.0
H705 H 0.79079 0.1641 0.74403 0.0
H706 H 0.76253 0.20035 0.77051 0.0
H707 H 0.7779 0.18021 0.77216 0.0
H708 H 0.78812 0.20551 0.77237 0.0
H709 H 0.74268 0.27675 0.67865 0.0
H710 H 0.79986 0.30934 0.68392 0.0
H711 H 0.81088 0.28528 0.70528 0.0
H712 H 0.73892 0.26304 0.7242 0.0
H713 H 0.72314 0.25481 0.70382 0.0
H714 H 0.72927 0.23822 0.7223 0.0
H715 H 0.76008 0.23619 0.67057 0.0
H716 H 0.74837 0.21708 0.68367 0.0
H717 H 0.73424 0.23663 0.67562 0.0
H718 H 0.70567 0.18053 0.71167 0.0
C719 C 0.73228 0.19958 0.71487 0.0
C720 C 0.55525 0.64284 0.51795 0.0
C721 C 0.54193 0.65765 0.51856 0.0
C722 C 0.531 0.661 0.53578 0.0
C723 C 0.54563 0.63408 0.55088 0.0
C724 C 0.55704 0.63144 0.53434 0.0
C725 C 0.57065 0.61523 0.53635 0.0
H726 H 0.60088 0.54065 0.58824 0.0
C727 C 0.5503 0.61921 0.5649 0.0
C728 C 0.56526 0.60839 0.55668 0.0
H729 H 0.62104 0.5595 0.53144 0.0
H730 H 0.59997 0.58625 0.53357 0.0
H731 H 0.60019 0.58344 0.6093 0.0
H732 H 0.55466 0.54596 0.57926 0.0
H733 H 0.54485 0.55537 0.6013 0.0
H734 H 0.56526 0.54015 0.6022 0.0
H735 H 0.5881 0.56246 0.6205 0.0
H736 H 0.57819 0.58638 0.6222 0.0
C737 C 0.59218 0.62445 0.53554 0.0
C738 C 0.56521 0.59899 0.5201 0.0
C739 C 0.50677 0.6084 0.6244 0.0
C740 C 0.50689 0.59507 0.63949 0.0
C741 C 0.52274 0.58304 0.64089 0.0
C742 C 0.53771 0.58348 0.62678 0.0
C743 C 0.53681 0.59607 0.61111 0.0
C744 C 0.52192 0.60877 0.61051 0.0
C745 C 0.52389 0.62181 0.59331 0.0
C746 C 0.54178 0.61404 0.58311 0.0
C747 C 0.5491 0.59878 0.59346 0.0
C748 C 0.52794 0.64353 0.60123 0.0
C749 C 0.50499 0.61796 0.58059 0.0
C750 C 0.60072 0.5505 0.57623 0.0
C751 C 0.61278 0.54789 0.55969 0.0
C752 C 0.61222 0.56127 0.54453 0.0
C753 C 0.5998 0.57676 0.54569 0.0
C754 C 0.58755 0.57888 0.56207 0.0
C755 C 0.58824 0.56599 0.57707 0.0
C756 C 0.57383 0.57033 0.59315 0.0
C757 C 0.56449 0.588 0.58534 0.0
C758 C 0.57252 0.59283 0.56707 0.0
C759 C 0.58554 0.57582 0.61239 0.0
C760 C 0.55885 0.55205 0.59426 0.0
H761 H 0.52378 0.65228 0.56445 0.0
H762 H 0.56402 0.64017 0.50498 0.0
H763 H 0.54896 0.59698 0.51791 0.0
H764 H 0.56957 0.58429 0.52373 0.0
H765 H 0.57193 0.60296 0.50584 0.0
H766 H 0.5934 0.63989 0.54187 0.0
H767 H 0.59757 0.62482 0.52018 0.0
H768 H 0.60246 0.61666 0.5444 0.0
H769 H 0.49492 0.61806 0.62325 0.0
H770 H 0.52311 0.57267 0.65244 0.0
H771 H 0.54915 0.57364 0.62835 0.0
H772 H 0.53433 0.64443 0.61631 0.0
H773 H 0.51418 0.65133 0.60186 0.0
H774 H 0.53901 0.65191 0.59235 0.0
H775 H 0.50101 0.60182 0.57841 0.0
H776 H 0.50662 0.62359 0.56576 0.0
H777 H 0.49234 0.62474 0.58779 0.0
H778 H 0.52061 0.67231 0.53651 0.0
C779 C 0.53277 0.64929 0.55193 0.0
C780 C 0.55912 0.42478 0.99394 0.0
C781 C 0.54246 0.41113 0.99296 0.0
C782 C 0.52962 0.41116 0.97665 0.0
C783 C 0.54914 0.43894 0.96383 0.0
C784 C 0.56227 0.43827 0.9792 0.0
C785 C 0.57944 0.45343 0.97796 0.0
H786 H 0.62255 0.5329 0.93476 0.0
C787 C 0.5562 0.45536 0.95159 0.0
C788 C 0.57415 0.46366 0.9596 0.0
H789 H 0.64353 0.50322 0.9845 0.0
H790 H 0.61608 0.47868 0.9811 0.0
H791 H 0.5783 0.53069 0.94764 0.0
H792 H 0.6097 0.49336 0.90806 0.0
H793 H 0.58654 0.49553 0.89731 0.0
H794 H 0.60311 0.51733 0.90181 0.0
H795 H 0.58568 0.53791 0.92362 0.0
H796 H 0.56246 0.52412 0.92772 0.0
C797 C 0.57933 0.46747 0.99655 0.0
C798 C 0.5985 0.44248 0.97527 0.0
C799 C 0.51257 0.47713 0.89728 0.0
C800 C 0.51474 0.49277 0.88447 0.0
C801 C 0.53249 0.50494 0.88484 0.0
C802 C 0.54763 0.50187 0.89797 0.0
C803 C 0.54504 0.48655 0.91104 0.0
C804 C 0.52786 0.4743 0.91039 0.0
C805 C 0.52787 0.45866 0.92531 0.0
C806 C 0.54769 0.46392 0.9353 0.0
C807 C 0.55759 0.48032 0.92691 0.0
C808 C 0.51043 0.4615 0.93947 0.0
C809 C 0.52704 0.43815 0.91426 0.0
C810 C 0.62124 0.5211 0.94491 0.0
C811 C 0.6352 0.52006 0.95997 0.0
C812 C 0.6331 0.50427 0.97266 0.0
C813 C 0.61705 0.4901 0.97076 0.0
C814 C 0.60287 0.49175 0.95605 0.0
C815 C 0.60528 0.50687 0.94324 0.0
C816 C 0.58869 0.50639 0.92862 0.0
C817 C 0.57592 0.48847 0.93476 0.0
C818 C 0.58422 0.48007 0.95092 0.0
C819 C 0.57821 0.52577 0.93183 0.0
C820 C 0.59732 0.50313 0.9078 0.0
H821 H 0.52241 0.4244 0.9503 0.0
H822 H 0.56935 0.42537 0.00615 0.0
H823 H 0.5954 0.42774 0.96762 0.0
H824 H 0.60946 0.45031 0.96586 0.0
H825 H 0.60541 0.44012 0.98964 0.0
H826 H 0.56402 0.47096 0.00028 0.0
H827 H 0.58553 0.4606 0.0094 0.0
H828 H 0.5875 0.4819 0.99468 0.0
H829 H 0.49925 0.46732 0.89713 0.0
H830 H 0.53449 0.5172 0.87528 0.0
H831 H 0.56065 0.51179 0.89765 0.0
H832 H 0.50979 0.47739 0.94397 0.0
H833 H 0.49618 0.45633 0.93228 0.0
H834 H 0.51161 0.4538 0.95322 0.0
H835 H 0.53388 0.4391 0.89948 0.0
H836 H 0.53555 0.4275 0.92181 0.0
H837 H 0.51159 0.43184 0.91215 0.0
H838 H 0.51701 0.40049 0.97502 0.0
C839 C 0.53283 0.425 0.96217 0.0
C840 C 0.76951 0.19982 0.30194 0.0
C841 C 0.76995 0.18629 0.28569 0.0
C842 C 0.75656 0.18783 0.27008 0.0
C843 C 0.74209 0.21503 0.28764 0.0
C844 C 0.75537 0.21369 0.30276 0.0
C845 C 0.75176 0.22754 0.31999 0.0
H846 H 0.69626 0.29533 0.36336 0.0
C847 C 0.72869 0.23036 0.29364 0.0
C848 C 0.73424 0.23759 0.31266 0.0
H849 H 0.74626 0.26913 0.38767 0.0
H850 H 0.75026 0.25032 0.35722 0.0
H851 H 0.67663 0.25572 0.34252 0.0
H852 H 0.71533 0.30309 0.32176 0.0
H853 H 0.69922 0.29571 0.30221 0.0
H854 H 0.68944 0.30535 0.32504 0.0
H855 H 0.66879 0.27985 0.33867 0.0
H856 H 0.668 0.2609 0.31921 0.0
C857 C 0.74649 0.21502 0.33798 0.0
C858 C 0.7702 0.24222 0.32292 0.0
C859 C 0.67307 0.24656 0.2484 0.0
C860 C 0.65796 0.25948 0.2508 0.0
C861 C 0.6577 0.27196 0.26788 0.0
C862 C 0.67184 0.27121 0.28264 0.0
C863 C 0.68638 0.25771 0.28045 0.0
C864 C 0.68707 0.24587 0.26344 0.0
C865 C 0.70352 0.23226 0.26397 0.0
C866 C 0.7125 0.23794 0.28408 0.0
C867 C 0.70226 0.25275 0.29365 0.0
C868 C 0.69431 0.21066 0.26269 0.0
C869 C 0.71802 0.23743 0.2472 0.0
C870 C 0.70815 0.28563 0.36208 0.0
C871 C 0.7209 0.28363 0.37797 0.0
C872 C 0.73606 0.2707 0.37574 0.0
C873 C 0.73842 0.25987 0.358 0.0
C874 C 0.72541 0.26185 0.34232 0.0
C875 C 0.71065 0.27464 0.3445 0.0
C876 C 0.6981 0.27476 0.32637 0.0
C877 C 0.70764 0.25977 0.313 0.0
C878 C 0.72359 0.25227 0.32241 0.0
C879 C 0.6767 0.26758 0.33183 0.0
C880 C 0.70042 0.29579 0.31839 0.0
H881 H 0.73283 0.2024 0.25871 0.0
H882 H 0.77968 0.19943 0.31411 0.0
H883 H 0.77616 0.24681 0.30851 0.0
H884 H 0.76701 0.25608 0.33098 0.0
H885 H 0.78208 0.23539 0.33074 0.0
H886 H 0.73926 0.20028 0.33335 0.0
H887 H 0.75987 0.21251 0.34657 0.0
H888 H 0.73567 0.22167 0.34784 0.0
H889 H 0.67352 0.23669 0.23548 0.0
H890 H 0.64636 0.28221 0.2699 0.0
H891 H 0.67064 0.28094 0.29535 0.0
H892 H 0.67976 0.20944 0.27016 0.0
H893 H 0.69195 0.20524 0.24717 0.0
H894 H 0.70324 0.20041 0.27023 0.0
H895 H 0.72046 0.25372 0.24619 0.0
H896 H 0.73279 0.23225 0.24949 0.0
H897 H 0.71214 0.2312 0.23282 0.0
H898 H 0.75625 0.17752 0.25746 0.0
C899 C 0.74276 0.20218 0.27091 0.0
C900 C 0.38117 0.03099 0.97949 0.0
C901 C 0.37697 0.0132 0.96839 0.0
C902 C 0.39042 0.00742 0.95391 0.0
C903 C 0.41205 0.03663 0.96216 0.0
C904 C 0.39872 0.0424 0.97616 0.0
C905 C 0.40569 0.06138 0.98709 0.0
H906 H 0.47648 0.13589 0.00282 0.0
C907 C 0.42905 0.05148 0.96279 0.0
C908 C 0.42542 0.06605 0.97733 0.0
H909 H 0.42076 0.12655 0.03273 0.0
H910 H 0.4126 0.09714 0.01226 0.0
H911 H 0.45926 0.12499 0.95914 0.0
H912 H 0.48687 0.091 0.00156 0.0
H913 H 0.49658 0.08469 0.97844 0.0
H914 H 0.5003 0.1098 0.98828 0.0
H915 H 0.48521 0.12815 0.96431 0.0
H916 H 0.47512 0.10989 0.94619 0.0
C917 C 0.3909 0.07695 0.98304 0.0
C918 C 0.40805 0.0571 0.00907 0.0
C919 C 0.48664 0.0427 0.9169 0.0
C920 C 0.50431 0.05418 0.91366 0.0
C921 C 0.5086 0.07174 0.92525 0.0
C922 C 0.49539 0.07787 0.93964 0.0
C923 C 0.47767 0.06634 0.94249 0.0
C924 C 0.47357 0.04908 0.93122 0.0
C925 C 0.45394 0.03885 0.93602 0.0
C926 C 0.44688 0.05284 0.95202 0.0
C927 C 0.46085 0.06886 0.9558 0.0
C928 C 0.44071 0.03803 0.91742 0.0
C929 C 0.45757 0.0184 0.94385 0.0
C930 C 0.46242 0.12763 0.00478 0.0
C931 C 0.44924 0.13352 0.0194 0.0
C932 C 0.43123 0.12218 0.0217 0.0
C933 C 0.4265 0.10515 0.00975 0.0
C934 C 0.43993 0.0993 0.99538 0.0
C935 C 0.45751 0.11052 0.99303 0.0
C936 C 0.47008 0.10193 0.97717 0.0
C937 C 0.45718 0.08365 0.97046 0.0
C938 C 0.43956 0.08222 0.98115 0.0
C939 C 0.47277 0.11697 0.96083 0.0
C940 C 0.48958 0.09664 0.98667 0.0
H941 H 0.41758 0.01379 0.93955 0.0
H942 H 0.37128 0.03569 0.99093 0.0
H943 H 0.41297 0.04204 0.01074 0.0
H944 H 0.41949 0.06708 0.01668 0.0
H945 H 0.39388 0.05799 0.01702 0.0
H946 H 0.38526 0.07509 0.96768 0.0
H947 H 0.37801 0.07551 0.99299 0.0
H948 H 0.39762 0.09227 0.98438 0.0
H949 H 0.48298 0.02901 0.90845 0.0
H950 H 0.52198 0.081 0.92289 0.0
H951 H 0.49942 0.09143 0.94786 0.0
H952 H 0.44395 0.05133 0.90874 0.0
H953 H 0.44315 0.02487 0.9077 0.0
H954 H 0.42485 0.03806 0.92085 0.0
H955 H 0.47134 0.01924 0.95277 0.0
H956 H 0.44588 0.01282 0.95383 0.0
H957 H 0.45911 0.00727 0.93159 0.0
H958 H 0.3874 0.99388 0.94503 0.0
C959 C 0.40791 0.01904 0.95072 0.0
O960 O 0.22964 0.8712 0.00894 0.0
Cd961 Cd 0.23997 0.8927 0.02951 0.0
Cd962 Cd 0.21529 0.91369 0.00873 0.0
O963 O 0.20674 0.88686 0.99476 0.0
O964 O 0.2563 0.87708 0.04603 0.0
O965 O 0.23047 0.89155 0.05759 0.0
C966 C 0.24473 0.88052 0.06048 0.0
C967 C 0.19262 0.93436 0.02195 0.0
C968 C 0.21574 0.87136 0.99652 0.0
C969 C 0.25803 0.92677 0.00755 0.0
O970 O 0.24121 0.9281 -0.00012 0.0
O971 O 0.26028 0.91441 0.0206 0.0
O972 O 0.19448 0.93156 0.00323 0.0
O973 O 0.20311 0.92462 0.03334 0.0
O974 O 0.14588 0.53615 0.27533 0.0
Cd975 Cd 0.13462 0.5114 0.28866 0.0
Cd976 Cd 0.10136 0.51719 0.26669 0.0
O977 O 0.11944 0.54105 0.25809 0.0
O978 O 0.15792 0.49867 0.29788 0.0
O979 O 0.13712 0.48471 0.27537 0.0
C980 C 0.15296 0.48401 0.28571 0.0
C981 C 0.07986 0.50296 0.2424 0.0
C982 C 0.13713 0.5461 0.26321 0.0
C983 C 0.09803 0.51646 0.31117 0.0
O984 O 0.08972 0.51707 0.29456 0.0
O985 O 0.11644 0.51484 0.31245 0.0
O986 O 0.07733 0.51986 0.25091 0.0
O987 O 0.09488 0.49392 0.24761 0.0
O988 O 0.75897 0.68906 0.99829 0.0
Cd989 Cd 0.75155 0.66768 0.01794 0.0
Cd990 Cd 0.77978 0.64915 0.99888 0.0
O991 O 0.78436 0.67536 0.98493 0.0
O992 O 0.73496 0.68117 0.03752 0.0
O993 O 0.76345 0.66978 0.04509 0.0
C994 C 0.7482 0.67883 0.05054 0.0
C995 C 0.80543 0.63524 0.01422 0.0
C996 C 0.7733 0.68959 0.98636 0.0
C997 C 0.73916 0.62944 0.99591 0.0
O998 O 0.75669 0.62954 0.98948 0.0
O999 O 0.73434 0.64297 0.00807 0.0
O1000 O 0.8042 0.63521 0.99534 0.0
O1001 O 0.79235 0.64386 0.02453 0.0
O1002 O 0.90254 0.01589 0.27735 0.0
Cd1003 Cd 0.88324 0.02192 0.25552 0.0
Cd1004 Cd 0.86371 0.0368 0.28566 0.0
O1005 O 0.88858 0.03215 0.30166 0.0
O1006 O 0.89805 0.01833 0.23071 0.0
O1007 O 0.88882 0.04734 0.24182 0.0
C1008 C 0.89788 0.03707 0.22876 0.0
C1009 C 0.85045 0.06733 0.2866 0.0
C1010 C 0.90247 0.02217 0.29521 0.0
C1011 C 0.84416 0.00134 0.26384 0.0
O1012 O 0.84406 0.0128 0.2791 0.0
O1013 O 0.85809 0.00328 0.25154 0.0
O1014 O 0.84816 0.0557 0.30095 0.0
O1015 O 0.86104 0.06192 0.27186 0.0
O1016 O 0.25899 0.18416 0.48818 0.0
Cd1017 Cd 0.25164 0.16475 0.50977 0.0
Cd1018 Cd 0.27852 0.14416 0.49106 0.0
O1019 O 0.28391 0.16919 0.47544 0.0
O1020 O 0.23603 0.18043 0.52853 0.0
O1021 O 0.26431 0.16887 0.53651 0.0
C1022 C 0.24956 0.17889 0.54147 0.0
C1023 C 0.30322 0.13038 0.50794 0.0
C1024 C 0.2731 0.18363 0.47603 0.0
C1025 C 0.23745 0.12567 0.49045 0.0
O1026 O 0.25455 0.12507 0.4831 0.0
O1027 O 0.23358 0.13982 0.50233 0.0
O1028 O 0.3022 0.12885 0.48902 0.0
O1029 O 0.29057 0.14049 0.51731 0.0
O1030 O 0.40537 0.52222 0.77747 0.0
Cd1031 Cd 0.38654 0.52968 0.75588 0.0
Cd1032 Cd 0.36664 0.54284 0.78642 0.0
O1033 O 0.39182 0.53839 0.80208 0.0
O1034 O 0.40184 0.52756 0.73109 0.0
O1035 O 0.39271 0.55592 0.74399 0.0
C1036 C 0.40203 0.54649 0.7305 0.0
C1037 C 0.35391 0.57349 0.78513 0.0
C1038 C 0.40548 0.52822 0.79541 0.0
C1039 C 0.34754 0.50826 0.76345 0.0
O1040 O 0.34752 0.51849 0.77955 0.0
O1041 O 0.36113 0.51157 0.75099 0.0
O1042 O 0.35175 0.56324 0.80055 0.0
O1043 O 0.36394 0.56655 0.77065 0.0
O1044 O 0.7339 0.37029 0.51277 0.0
Cd1045 Cd 0.74278 0.3902 0.53545 0.0
Cd1046 Cd 0.71857 0.41319 0.51591 0.0
O1047 O 0.71133 0.38733 0.49969 0.0
O1048 O 0.7581 0.37468 0.55311 0.0
O1049 O 0.73051 0.38764 0.56226 0.0
C1050 C 0.74515 0.37757 0.56647 0.0
C1051 C 0.69429 0.43384 0.52598 0.0
C1052 C 0.72044 0.37172 0.50009 0.0
C1053 C 0.76162 0.42617 0.51733 0.0
O1054 O 0.745 0.42828 0.5096 0.0
O1055 O 0.7635 0.41259 0.52916 0.0
O1056 O 0.69931 0.43175 0.50783 0.0
O1057 O 0.70245 0.42333 0.53853 0.0
O1058 O 0.64827 0.03376 0.77386 0.0
Cd1059 Cd 0.63218 0.0092 0.78355 0.0
Cd1060 Cd 0.60429 0.0201 0.75899 0.0
O1061 O 0.6264 0.04077 0.75189 0.0
O1062 O 0.65094 0.9918 0.79471 0.0
O1063 O 0.63323 0.98359 0.76779 0.0
C1064 C 0.64619 0.97921 0.78042 0.0
C1065 C 0.5839 0.00647 0.73356 0.0
C1066 C 0.64308 0.04437 0.7602 0.0
C1067 C 0.59494 0.02036 0.8022 0.0
O1068 O 0.58982 0.02441 0.78506 0.0
O1069 O 0.61138 0.01328 0.80501 0.0
O1070 O 0.5833 0.02453 0.73994 0.0
O1071 O 0.59661 0.996 0.74135 0.0
O1072 O 0.98121 0.29155 0.90918 0.0
Cd1073 Cd 0.98883 0.26519 0.89623 0.0
Cd1074 Cd 0.00609 0.28969 0.87129 0.0
O1075 O -0.00021 0.31181 0.89146 0.0
O1076 O 0.98308 0.24628 0.91716 0.0
O1077 O 0.01307 0.25305 0.90558 0.0
C1078 C 0.00166 0.24384 0.91783 0.0
C1079 C 0.03766 0.28748 0.8589 0.0
C1080 C 0.98793 0.30896 0.9056 0.0
C1081 C 0.97206 0.2627 0.85596 0.0
O1082 O 0.9835 0.27796 0.85318 0.0
O1083 O 0.97273 0.25405 0.87202 0.0
O1084 O 0.02648 0.30061 0.85321 0.0
O1085 O 0.03113 0.27594 0.87235 0.0
O1086 O 0.46334 0.78227 0.41224 0.0
Cd1087 Cd 0.47301 0.7585 0.39603 0.0
Cd1088 Cd 0.48822 0.78678 0.3739 0.0
O1089 O 0.48012 0.80563 0.3965 0.0
O1090 O 0.47101 0.73578 0.41348 0.0
O1091 O 0.49941 0.74936 0.40287 0.0
C1092 C 0.49 0.73641 0.41331 0.0
C1093 C 0.52028 0.78729 0.36219 0.0
C1094 C 0.46872 0.80042 0.41041 0.0
C1095 C 0.45609 0.75934 0.35586 0.0
O1096 O 0.46646 0.77557 0.35462 0.0
O1097 O 0.45751 0.74915 0.37086 0.0
O1098 O 0.5087 0.80055 0.3576 0.0
O1099 O 0.51382 0.77412 0.37412 0.0
O1100 O 0.98411 0.78284 0.67124 0.0
Cd1101 Cd 0.00576 0.77302 0.65284 0.0
Cd1102 Cd 0.98749 0.79669 0.62719 0.0
O1103 O 0.97119 0.80332 0.65166 0.0
O1104 O 0.02136 0.75787 0.6706 0.0
O1105 O 0.03409 0.78417 0.656 0.0
C1106 C 0.03637 0.77003 0.66758 0.0
C1107 C -0.00017 0.82187 0.60779 0.0
C1108 C 0.9717 0.79539 0.66812 0.0
C1109 C 0.98721 0.75371 0.61577 0.0
O1110 O 0.9808 0.77018 0.61205 0.0
O1111 O 0.99784 0.75212 0.63084 0.0
O1112 O 0.98121 0.81688 0.60859 0.0
O1113 O 0.01161 0.81294 0.61859 0.0
O1114 O 0.48963 0.27982 0.1653 0.0
Cd1115 Cd 0.51056 0.26868 0.14693 0.0
Cd1116 Cd 0.49462 0.29428 0.1213 0.0
O1117 O 0.47892 0.30181 0.14598 0.0
O1118 O 0.52556 0.25303 0.16477 0.0
O1119 O 0.53918 0.27878 0.14988 0.0
C1120 C 0.54091 0.26474 0.16172 0.0
C1121 C 0.50697 0.31946 0.10173 0.0
C1122 C 0.47851 0.29355 0.16229 0.0
C1123 C 0.49106 0.2509 0.10983 0.0
O1124 O 0.48633 0.26805 0.10613 0.0
O1125 O 0.50124 0.24825 0.12497 0.0
O1126 O 0.48834 0.31475 0.10296 0.0
O1127 O 0.51883 0.3101 0.11201 0.0
H1128 H 0.18043 0.78469 0.90098 0.0
H1129 H 0.24382 0.7879 0.90739 0.0
H1130 H 0.17823 0.80603 0.93064 0.0
H1131 H 0.24156 0.80888 0.93705 0.0
H1132 H 0.23196 0.83586 0.99664 0.0
H1133 H 0.2294 0.80951 0.9711 0.0
H1134 H 0.18807 0.84135 0.93938 0.0
H1135 H 0.1904 0.86769 0.96505 0.0
C1136 C 0.19388 0.78986 0.90875 0.0
C1137 C 0.21232 0.78466 0.90175 0.0
C1138 C 0.19259 0.80202 0.92574 0.0
C1139 C 0.2097 0.80911 0.93617 0.0
C1140 C 0.22806 0.80338 0.92953 0.0
C1141 C 0.22936 0.79133 0.91251 0.0
C1142 C 0.22206 0.83713 0.9844 0.0
C1143 C 0.2116 0.85403 0.98275 0.0
C1144 C 0.22067 0.82205 0.96973 0.0
C1145 C 0.20876 0.82351 0.95312 0.0
C1146 C 0.19731 0.83978 0.95206 0.0
C1147 C 0.19871 0.85491 0.96674 0.0
H1148 H 0.04791 0.53968 0.42768 0.0
H1149 H 0.0015 0.54445 0.38546 0.0
H1150 H 0.06973 0.52927 0.40132 0.0
H1151 H 0.02338 0.53527 0.35897 0.0
H1152 H 0.0596 0.50386 0.3156 0.0
H1153 H 0.03874 0.50949 0.34392 0.0
H1154 H 0.08834 0.54051 0.3748 0.0
H1155 H 0.10943 0.53362 0.34679 0.0
C1156 C 0.0425 0.53861 0.41269 0.0
C1157 C 0.0231 0.54272 0.40849 0.0
C1158 C 0.05498 0.53277 0.39757 0.0
C1159 C 0.04837 0.53131 0.37793 0.0
C1160 C 0.02891 0.53566 0.37389 0.0
C1161 C 0.01637 0.54109 0.38902 0.0
C1162 C 0.06605 0.51167 0.32857 0.0
C1163 C 0.08605 0.51843 0.32902 0.0
C1164 C 0.05407 0.51507 0.34476 0.0
C1165 C 0.0617 0.52581 0.3616 0.0
C1166 C 0.08194 0.53202 0.36223 0.0
C1167 C 0.09404 0.52817 0.34615 0.0
H1168 H 0.81206 0.77942 0.90381 0.0
H1169 H 0.74914 0.76739 0.89608 0.0
H1170 H 0.81125 0.75756 0.93122 0.0
H1171 H 0.74835 0.74587 0.9236 0.0
H1172 H 0.75064 0.72083 0.98354 0.0
H1173 H 0.7534 0.74635 0.9596 0.0
H1174 H 0.80497 0.72136 0.93504 0.0
H1175 H 0.80238 0.69589 0.95911 0.0
C1176 C 0.79806 0.77216 0.90796 0.0
C1177 C 0.78067 0.77512 0.89769 0.0
C1178 C 0.79761 0.75968 0.92368 0.0
C1179 C 0.77974 0.75001 0.92955 0.0
C1180 C 0.7623 0.75336 0.91962 0.0
C1181 C 0.76276 0.76573 0.90385 0.0
C1182 C 0.76272 0.72088 0.9732 0.0
C1183 C 0.77621 0.70621 0.97314 0.0
C1184 C 0.76422 0.73546 0.95942 0.0
C1185 C 0.7793 0.73575 0.94536 0.0
C1186 C 0.79327 0.72159 0.9458 0.0
C1187 C 0.79172 0.70694 0.95953 0.0
H1188 H 0.01466 -0.00026 0.34758 0.0
H1189 H 0.9722 0.98913 0.3937 0.0
H1190 H 0.98836 0.00801 0.32588 0.0
H1191 H 0.94578 0.99665 0.37174 0.0
H1192 H 0.9074 0.03299 0.33426 0.0
H1193 H 0.93378 0.02497 0.35605 0.0
H1194 H 0.95994 0.9924 0.30813 0.0
H1195 H 0.93387 0.00071 0.28627 0.0
C1196 C -0.0003 -0.00087 0.35307 0.0
C1197 C 0.99553 0.99381 0.37238 0.0
C1198 C 0.9846 0.00368 0.34057 0.0
C1199 C 0.96497 0.00301 0.34709 0.0
C1200 C 0.96077 0.99753 0.36635 0.0
C1201 C 0.97588 0.99297 0.37884 0.0
C1202 C 0.9188 0.02416 0.32836 0.0
C1203 C 0.91852 0.01752 0.30851 0.0
C1204 C 0.93385 0.01945 0.34089 0.0
C1205 C 0.94895 0.00802 0.33383 0.0
C1206 C 0.94867 0.00144 0.31397 0.0
C1207 C 0.93365 0.00613 0.30147 0.0
H1208 H 0.24471 0.27149 0.63073 0.0
H1209 H 0.24801 0.22033 0.66539 0.0
H1210 H 0.24576 0.2506 0.60072 0.0
H1211 H 0.24902 0.19929 0.63515 0.0
H1212 H 0.2735 0.17621 0.57354 0.0
H1213 H 0.27245 0.19504 0.60507 0.0
H1214 H 0.22216 0.22352 0.58484 0.0
H1215 H 0.22306 0.20481 0.55356 0.0
C1216 C 0.24583 0.25578 0.63191 0.0
C1217 C 0.24634 0.24752 0.65036 0.0
C1218 C 0.24626 0.24382 0.61475 0.0
C1219 C 0.24739 0.22334 0.61565 0.0
C1220 C 0.24822 0.21505 0.63409 0.0
C1221 C 0.24752 0.22703 0.65133 0.0
C1222 C 0.26214 0.18639 0.57591 0.0
C1223 C 0.24843 0.18911 0.56103 0.0
C1224 C 0.26151 0.19707 0.59395 0.0
C1225 C 0.24732 0.21082 0.59727 0.0
C1226 C 0.23339 0.21319 0.58256 0.0
C1227 C 0.23388 0.20239 0.56468 0.0
H1228 H 0.46833 0.58859 0.62908 0.0
H1229 H 0.50705 0.59502 0.67955 0.0
H1230 H 0.44039 0.57983 0.65041 0.0
H1231 H 0.479 0.58657 0.70094 0.0
H1232 H 0.41936 0.58406 0.73363 0.0
H1233 H 0.44349 0.59932 0.71113 0.0
H1234 H 0.4358 0.54772 0.67166 0.0
H1235 H 0.41216 0.53227 0.69428 0.0
C1236 C 0.47074 0.58858 0.64479 0.0
C1237 C 0.48979 0.59242 0.65273 0.0
C1238 C 0.45481 0.58351 0.65693 0.0
C1239 C 0.45761 0.58258 0.67725 0.0
C1240 C 0.47648 0.58738 0.68531 0.0
C1241 C 0.49249 0.59208 0.67312 0.0
C1242 C 0.42256 0.57617 0.71996 0.0
C1243 C 0.41398 0.55698 0.71568 0.0
C1244 C 0.4364 0.58485 0.70719 0.0
C1245 C 0.44144 0.57465 0.68975 0.0
C1246 C 0.43203 0.55592 0.68498 0.0
C1247 C 0.41858 0.54708 0.69793 0.0
H1248 H 0.74566 0.28799 0.64759 0.0
H1249 H 0.78042 0.33526 0.67931 0.0
H1250 H 0.73718 0.31095 0.62326 0.0
H1251 H 0.77279 0.35781 0.65404 0.0
H1252 H 0.7791 0.37164 0.58519 0.0
H1253 H 0.78298 0.35426 0.61531 0.0
H1254 H 0.71975 0.34609 0.62096 0.0
H1255 H 0.71581 0.36413 0.59097 0.0
C1256 C 0.75121 0.3033 0.64968 0.0
C1257 C 0.76386 0.30965 0.6655 0.0
C1258 C 0.74636 0.31642 0.63564 0.0
C1259 C 0.75433 0.33607 0.63686 0.0
C1260 C 0.76652 0.34267 0.65283 0.0
C1261 C 0.77104 0.32965 0.66714 0.0
C1262 C 0.76603 0.36645 0.59306 0.0
C1263 C 0.74716 0.36912 0.58578 0.0
C1264 C 0.76826 0.35663 0.61032 0.0
C1265 C 0.75166 0.34891 0.62036 0.0
C1266 C 0.73274 0.352 0.61342 0.0
C1267 C 0.73051 0.36231 0.59637 0.0
H1268 H 0.4778 0.97664 0.6658 0.0
H1269 H 0.52335 0.95341 0.62932 0.0
H1270 H 0.50199 0.98553 0.69174 0.0
H1271 H 0.54754 0.9622 0.65542 0.0
H1272 H 0.58172 0.96949 0.7151 0.0
H1273 H 0.55726 0.95598 0.69056 0.0
H1274 H 0.53002 0.01135 0.69327 0.0
H1275 H 0.55411 0.02474 0.71757 0.0
C1276 C 0.49296 0.97334 0.66337 0.0
C1277 C 0.49873 0.96458 0.64543 0.0
C1278 C 0.50678 0.97839 0.67822 0.0
C1279 C 0.52667 0.97477 0.67547 0.0
C1280 C 0.53228 0.96505 0.65796 0.0
C1281 C 0.51843 0.96002 0.64304 0.0
C1282 C 0.57051 0.97873 0.71039 0.0
C1283 C 0.56982 0.99815 0.71828 0.0
C1284 C 0.55656 0.97102 0.69636 0.0
C1285 C 0.54163 0.98256 0.69022 0.0
C1286 C 0.54112 0.00199 0.69801 0.0
C1287 C 0.55505 0.0097 0.71183 0.0
H1288 H 0.89154 0.24382 0.75513 0.0
H1289 H 0.85951 0.22394 0.80605 0.0
H1290 H 0.92151 0.24986 0.77504 0.0
H1291 H 0.88913 0.2303 0.82598 0.0
H1292 H 0.94778 0.22867 0.85487 0.0
H1293 H 0.92088 0.21913 0.83192 0.0
H1294 H 0.93488 0.27225 0.80075 0.0
H1295 H 0.96215 0.28143 0.82324 0.0
C1296 C 0.89092 0.24082 0.77058 0.0
C1297 C 0.87325 0.23333 0.77903 0.0
C1298 C 0.90805 0.24427 0.78199 0.0
C1299 C 0.90776 0.24046 0.8021 0.0
C1300 C 0.89003 0.23296 0.81047 0.0
C1301 C 0.87301 0.22939 0.79906 0.0
C1302 C 0.94526 0.23819 0.84298 0.0
C1303 C 0.957 0.25589 0.84099 0.0
C1304 C 0.92977 0.23278 0.82989 0.0
C1305 C 0.92556 0.24505 0.81463 0.0
C1306 C 0.9378 0.26236 0.8122 0.0
C1307 C 0.95339 0.26768 0.82519 0.0
H1308 H 0.4308 0.86615 0.51376 0.0
H1309 H 0.42841 0.90732 0.46764 0.0
H1310 H 0.44042 0.84088 0.48993 0.0
H1311 H 0.43717 0.88174 0.44362 0.0
H1312 H 0.47867 0.84024 0.41241 0.0
H1313 H 0.46641 0.865 0.43532 0.0
H1314 H 0.42919 0.81959 0.46229 0.0
H1315 H 0.44181 0.79477 0.43973 0.0
C1316 C 0.43212 0.86973 0.49848 0.0
C1317 C 0.429 0.88879 0.49262 0.0
C1318 C 0.43744 0.85518 0.48478 0.0
C1319 C 0.4397 0.85933 0.46488 0.0
C1320 C 0.43585 0.87817 0.45889 0.0
C1321 C 0.43056 0.89274 0.47262 0.0
C1322 C 0.46788 0.83553 0.42323 0.0
C1323 C 0.4613 0.81551 0.42429 0.0
C1324 C 0.46072 0.84975 0.43626 0.0
C1325 C 0.44677 0.84428 0.4506 0.0
C1326 C 0.44011 0.82427 0.45157 0.0
C1327 C 0.44731 0.81005 0.43859 0.0
H1328 H 0.16056 0.28339 0.82391 0.0
H1329 H 0.12604 0.26653 0.77175 0.0
H1330 H 0.1302 0.28431 0.84319 0.0
H1331 H 0.09584 0.26749 0.79098 0.0
H1332 H 0.05084 0.30346 0.82517 0.0
H1333 H 0.08151 0.29835 0.80801 0.0
H1334 H 0.09881 0.26118 0.85355 0.0
H1335 H 0.06775 0.26604 0.8708 0.0
C1336 C 0.14651 0.27959 0.81666 0.0
C1337 C 0.14562 0.27493 0.79635 0.0
C1338 C 0.1292 0.28003 0.82769 0.0
C1339 C 0.11075 0.27613 0.81849 0.0
C1340 C 0.10991 0.27069 0.79836 0.0
C1341 C 0.12718 0.26999 0.78741 0.0
C1342 C 0.06117 0.29425 0.83162 0.0
C1343 C 0.05687 0.28513 0.84934 0.0
C1344 C 0.07865 0.29122 0.8217 0.0
C1345 C 0.09237 0.27923 0.82938 0.0
C1346 C 0.0884 0.27047 0.84735 0.0
C1347 C 0.07068 0.27324 0.85717 0.0
H1348 H 0.54249 0.69761 0.51626 0.0
H1349 H 0.5331 0.64288 0.48157 0.0
H1350 H 0.53284 0.71588 0.48813 0.0
H1351 H 0.52316 0.66112 0.45353 0.0
H1352 H 0.52766 0.74233 0.42748 0.0
H1353 H 0.54345 0.72265 0.45133 0.0
H1354 H 0.49183 0.68154 0.45076 0.0
H1355 H 0.4759 0.70133 0.42734 0.0
C1356 C 0.53861 0.68956 0.50252 0.0
C1357 C 0.53846 0.66888 0.50103 0.0
C1358 C 0.53323 0.69999 0.48644 0.0
C1359 C 0.52726 0.68985 0.46874 0.0
C1360 C 0.5277 0.66923 0.46706 0.0
C1361 C 0.53344 0.65884 0.48302 0.0
C1362 C 0.51984 0.72893 0.43224 0.0
C1363 C 0.50053 0.72338 0.42567 0.0
C1364 C 0.52883 0.71775 0.4459 0.0
C1365 C 0.51882 0.70063 0.45281 0.0
C1366 C 0.49991 0.6946 0.44551 0.0
C1367 C 0.49077 0.70597 0.43221 0.0
H1368 H 0.87843 0.83919 0.74317 0.0
H1369 H 0.87969 0.77698 0.75288 0.0
H1370 H 0.90651 0.83736 0.72103 0.0
H1371 H 0.90762 0.77513 0.73077 0.0
H1372 H 0.96858 0.78154 0.70507 0.0
H1373 H 0.94234 0.78613 0.72872 0.0
H1374 H 0.91454 0.82308 0.68884 0.0
H1375 H 0.94099 0.81887 0.66533 0.0
C1376 C 0.88461 0.8251 0.74046 0.0
C1377 C 0.87689 0.80824 0.7498 0.0
C1378 C 0.9007 0.82406 0.72781 0.0
C1379 C 0.90937 0.80613 0.72424 0.0
C1380 C 0.90156 0.78926 0.73353 0.0
C1381 C 0.88551 0.79031 0.74616 0.0
C1382 C 0.95699 0.79082 0.70141 0.0
C1383 C 0.95683 0.79973 0.68324 0.0
C1384 C 0.94188 0.79334 0.71492 0.0
C1385 C 0.92624 0.80479 0.71057 0.0
C1386 C 0.92644 0.81428 0.6927 0.0
C1387 C 0.94159 0.81179 0.67919 0.0
H1388 H 0.06256 0.89178 0.51974 0.0
H1389 H 0.00031 0.89643 0.50984 0.0
H1390 H 0.05493 0.8729 0.54836 0.0
H1391 H 0.99266 0.87573 0.53705 0.0
H1392 H 0.98204 0.85387 0.59667 0.0
H1393 H 0.99199 0.87566 0.57062 0.0
H1394 H 0.04335 0.84293 0.55982 0.0
H1395 H 0.03396 0.82219 0.58697 0.0
C1396 C 0.04722 0.88873 0.52355 0.0
C1397 C 0.03209 0.89592 0.51244 0.0
C1398 C 0.04282 0.87755 0.53986 0.0
C1399 C 0.02315 0.87281 0.54528 0.0
C1400 C 0.00802 0.87945 0.53377 0.0
C1401 C 0.01242 0.89102 0.51776 0.0
C1402 C 0.99564 0.85164 0.58891 0.0
C1403 C 0.00726 0.83642 0.59376 0.0
C1404 C 0.00125 0.86394 0.57377 0.0
C1405 C 0.0183 0.8609 0.56269 0.0
C1406 C 0.03025 0.84597 0.56806 0.0
C1407 C 0.02488 0.834 0.58361 0.0
H1408 H 0.15746 0.76688 0.71321 0.0
H1409 H 0.11674 0.75885 0.76122 0.0
H1410 H 0.1295 0.76813 0.69049 0.0
H1411 H 0.08913 0.76026 0.73882 0.0
H1412 H 0.04453 0.74138 0.69209 0.0
H1413 H 0.07445 0.73876 0.7109 0.0
H1414 H 0.10116 0.791 0.68507 0.0
H1415 H 0.07099 0.79366 0.66594 0.0
C1416 C 0.14257 0.76534 0.71885 0.0
C1417 C 0.13923 0.76288 0.73895 0.0
C1418 C 0.12664 0.76619 0.70593 0.0
C1419 C 0.10718 0.76422 0.71291 0.0
C1420 C 0.10395 0.76161 0.73298 0.0
C1421 C 0.11977 0.76098 0.74583 0.0
C1422 C 0.05678 0.75227 0.69025 0.0
C1423 C 0.05528 0.76788 0.67769 0.0
C1424 C 0.07392 0.75076 0.70107 0.0
C1425 C 0.09003 0.76479 0.6996 0.0
C1426 C 0.08895 0.77995 0.68642 0.0
C1427 C 0.07167 0.78153 0.67558 0.0
H1428 H 0.93164 0.66254 0.53601 0.0
H1429 H 0.99056 0.64477 0.54454 0.0
H1430 H 0.93934 0.69185 0.55746 0.0
H1431 H 0.99851 0.67449 0.56532 0.0
H1432 H 0.99728 0.71602 0.61995 0.0
H1433 H 0.98973 0.68729 0.59782 0.0
H1434 H 0.95942 0.72318 0.55882 0.0
H1435 H 0.9666 0.75192 0.58117 0.0
C1436 C 0.94625 0.66493 0.54243 0.0
C1437 C 0.96046 0.6513 0.53868 0.0
C1438 C 0.95072 0.68183 0.55453 0.0
C1439 C 0.96951 0.68544 0.56312 0.0
C1440 C 0.98382 0.67197 0.55911 0.0
C1441 C 0.97934 0.65508 0.54702 0.0
C1442 C 0.98899 0.71781 0.60667 0.0
C1443 C 0.98252 0.73626 0.60234 0.0
C1444 C 0.98478 0.70136 0.59392 0.0
C1445 C 0.97405 0.70299 0.57655 0.0
C1446 C 0.96754 0.72142 0.57221 0.0
C1447 C 0.97173 0.7379 0.58498 0.0
H1448 H 0.76367 0.90018 0.22511 0.0
H1449 H 0.7682 0.89884 0.28822 0.0
H1450 H 0.78426 0.93124 0.22594 0.0
H1451 H 0.78883 0.92976 0.28907 0.0
H1452 H 0.81169 0.99346 0.28657 0.0
H1453 H 0.78801 0.9647 0.28384 0.0
H1454 H 0.81839 0.94285 0.2326 0.0
H1455 H 0.84181 0.97181 0.23503 0.0
C1456 C 0.76914 0.90649 0.23914 0.0
C1457 C 0.76434 0.89707 0.2566 0.0
C1458 C 0.78091 0.92427 0.23962 0.0
C1459 C 0.78816 0.93299 0.25757 0.0
C1460 C 0.78319 0.92364 0.27503 0.0
C1461 C 0.7714 0.90589 0.27455 0.0
C1462 C 0.8132 0.98263 0.27459 0.0
C1463 C 0.82873 0.98487 0.2611 0.0
C1464 C 0.7997 0.96609 0.27311 0.0
C1465 C 0.80143 0.95139 0.25813 0.0
C1466 C 0.81654 0.95398 0.24422 0.0
C1467 C 0.83002 0.97055 0.24567 0.0
H1468 H 0.78163 0.16638 0.31718 0.0
H1469 H 0.78875 0.16881 0.25429 0.0
H1470 H 0.80304 0.13971 0.31755 0.0
H1471 H 0.80879 0.14065 0.25445 0.0
H1472 H 0.85709 0.09874 0.26299 0.0
H1473 H 0.83915 0.12855 0.26289 0.0
H1474 H 0.80186 0.10626 0.30948 0.0
H1475 H 0.82035 0.07729 0.31021 0.0
C1476 C 0.78783 0.16136 0.30338 0.0
C1477 C 0.78342 0.16996 0.2857 0.0
C1478 C 0.79987 0.14569 0.30355 0.0
C1479 C 0.8075 0.13773 0.286 0.0
C1480 C 0.80334 0.14644 0.2683 0.0
C1481 C 0.79154 0.16243 0.26817 0.0
C1482 C 0.84517 0.10039 0.27331 0.0
C1483 C 0.84023 0.08576 0.28671 0.0
C1484 C 0.83477 0.11739 0.27317 0.0
C1485 C 0.81905 0.11996 0.28624 0.0
C1486 C 0.81416 0.10517 0.29953 0.0
C1487 C 0.82471 0.08842 0.29988 0.0
H1488 H 0.33968 0.02424 0.97512 0.0
H1489 H 0.37382 0.97319 0.97108 0.0
H1490 H 0.31065 0.00326 0.98408 0.0
H1491 H 0.34468 0.95216 0.97942 0.0
H1492 H 0.29628 0.92651 0.01957 0.0
H1493 H 0.32462 0.94734 0.00905 0.0
H1494 H 0.28716 0.97649 0.97035 0.0
H1495 H 0.25864 0.95582 0.98106 0.0
C1496 C 0.34093 0.00853 0.97604 0.0
C1497 C 0.35902 0.00036 0.97247 0.0
C1498 C 0.32429 0.99651 0.98098 0.0
C1499 C 0.32544 0.97609 0.98252 0.0
C1500 C 0.34343 0.96788 0.97857 0.0
C1501 C 0.36004 0.97988 0.97357 0.0
C1502 C 0.29405 0.93736 0.00882 0.0
C1503 C 0.27519 0.9395 0.00116 0.0
C1504 C 0.31032 0.94919 0.0027 0.0
C1505 C 0.30811 0.96347 0.98881 0.0
C1506 C 0.28926 0.96571 0.98119 0.0
C1507 C 0.27296 0.95381 0.98727 0.0
H1508 H 0.20504 0.37072 0.2805 0.0
H1509 H 0.25288 0.41417 0.26913 0.0
H1510 H 0.18194 0.39665 0.28143 0.0
H1511 H 0.22981 0.43989 0.26973 0.0
H1512 H 0.18919 0.48144 0.30176 0.0
H1513 H 0.21072 0.45467 0.29748 0.0
H1514 H 0.16717 0.42192 0.26014 0.0
H1515 H 0.14539 0.44891 0.2644 0.0
C1516 C 0.21056 0.38576 0.278 0.0
C1517 C 0.23077 0.39044 0.27483 0.0
C1518 C 0.19734 0.40054 0.27838 0.0
C1519 C 0.20414 0.42027 0.27581 0.0
C1520 C 0.22421 0.42482 0.27197 0.0
C1521 C 0.23738 0.41006 0.27143 0.0
C1522 C 0.18412 0.46855 0.29265 0.0
C1523 C 0.16558 0.46731 0.28339 0.0
C1524 C 0.19654 0.45328 0.29009 0.0
C1525 C 0.19068 0.43632 0.27834 0.0
C1526 C 0.17201 0.43485 0.26931 0.0
C1527 C 0.1596 0.45029 0.27171 0.0
H1528 H 0.15579 0.03357 0.43585 0.0
H1529 H 0.14384 0.03333 0.49807 0.0
H1530 H 0.18151 0.06038 0.44185 0.0
H1531 H 0.16981 0.0596 0.50408 0.0
H1532 H 0.20002 0.1216 0.50482 0.0
H1533 H 0.17481 0.09492 0.4975 0.0
H1534 H 0.2146 0.06669 0.4578 0.0
H1535 H 0.2399 0.09357 0.46492 0.0
C1536 C 0.15871 0.0392 0.45078 0.0
C1537 C 0.14783 0.03135 0.46649 0.0
C1538 C 0.17352 0.0544 0.45423 0.0
C1539 C 0.17759 0.06212 0.47342 0.0
C1540 C 0.16684 0.05411 0.48911 0.0
C1541 C 0.15213 0.0389 0.48568 0.0
C1542 C 0.20342 0.10976 0.49448 0.0
C1543 C 0.22201 0.10968 0.48551 0.0
C1544 C 0.189 0.09441 0.49038 0.0
C1545 C 0.19279 0.07866 0.47718 0.0
C1546 C 0.21124 0.07872 0.46793 0.0
C1547 C 0.22573 0.09406 0.47209 0.0
H1548 H 0.70487 0.14386 0.70376 0.0
H1549 H 0.72043 0.15108 0.76525 0.0
H1550 H 0.68523 0.11322 0.71008 0.0
H1551 H 0.70067 0.12068 0.77165 0.0
H1552 H 0.68035 0.05593 0.77351 0.0
H1553 H 0.70082 0.08539 0.76538 0.0
H1554 H 0.65528 0.10155 0.72636 0.0
H1555 H 0.63505 0.07189 0.73405 0.0
C1556 C 0.7039 0.13899 0.71865 0.0
C1557 C 0.71421 0.14977 0.734 0.0
C1558 C 0.69269 0.12146 0.72227 0.0
C1559 C 0.69152 0.11444 0.74135 0.0
C1560 C 0.70162 0.12544 0.75672 0.0
C1561 C 0.71287 0.14288 0.75308 0.0
C1562 C 0.67477 0.06569 0.76309 0.0
C1563 C 0.65604 0.0616 0.7545 0.0
C1564 C 0.68644 0.08264 0.75853 0.0
C1565 C 0.6796 0.09589 0.74534 0.0
C1566 C 0.66106 0.09155 0.73642 0.0
C1567 C 0.64942 0.07458 0.74092 0.0
H1568 H 0.34787 0.03019 0.55621 0.0
H1569 H 0.40084 0.06927 0.55435 0.0
H1570 H 0.32841 0.05684 0.54593 0.0
H1571 H 0.38143 0.09579 0.54357 0.0
H1572 H 0.33837 0.11881 0.49447 0.0
H1573 H 0.35975 0.09666 0.50995 0.0
H1574 H 0.32106 0.094 0.56001 0.0
H1575 H 0.29988 0.11664 0.5448 0.0
C1576 C 0.35527 0.04453 0.5537 0.0
C1577 C 0.37578 0.04778 0.55604 0.0
C1578 C 0.34418 0.05975 0.54796 0.0
C1579 C 0.35349 0.0783 0.54406 0.0
C1580 C 0.37397 0.0816 0.54656 0.0
C1581 C 0.38502 0.06651 0.55273 0.0
C1582 C 0.33466 0.11382 0.50896 0.0
C1583 C 0.31749 0.1194 0.51845 0.0
C1584 C 0.3469 0.10122 0.5178 0.0
C1585 C 0.34194 0.09363 0.53608 0.0
C1586 C 0.32512 0.09967 0.54587 0.0
C1587 C 0.31311 0.11267 0.53723 0.0
H1588 H 0.64989 0.54756 0.54428 0.0
H1589 H 0.60419 0.50976 0.57054 0.0
H1590 H 0.66885 0.51909 0.53735 0.0
H1591 H 0.62367 0.48137 0.56415 0.0
H1592 H 0.67842 0.44104 0.5625 0.0
H1593 H 0.65863 0.46846 0.57272 0.0
H1594 H 0.66059 0.4885 0.51361 0.0
H1595 H 0.67996 0.46127 0.50334 0.0
C1596 C 0.6439 0.53322 0.54865 0.0
C1597 C 0.62535 0.53094 0.55768 0.0
C1598 C 0.65481 0.51695 0.54476 0.0
C1599 C 0.64758 0.49805 0.55004 0.0
C1600 C 0.62957 0.49582 0.56 0.0
C1601 C 0.61848 0.51211 0.5637 0.0
C1602 C 0.67441 0.45118 0.55168 0.0
C1603 C 0.68081 0.44902 0.53214 0.0
C1604 C 0.66311 0.46683 0.55753 0.0
C1605 C 0.65836 0.48068 0.54398 0.0
C1606 C 0.66433 0.47818 0.52439 0.0
C1607 C 0.67531 0.46249 0.51851 0.0
H1608 H 0.72268 0.27079 0.4153 0.0
H1609 H 0.71374 0.32248 0.38297 0.0
H1610 H 0.71957 0.29007 0.44615 0.0
H1611 H 0.71083 0.34177 0.41368 0.0
H1612 H 0.69274 0.36949 0.47076 0.0
H1613 H 0.69038 0.3465 0.44217 0.0
H1614 H 0.73845 0.31611 0.46475 0.0
H1615 H 0.74047 0.3387 0.49354 0.0
C1616 C 0.72012 0.28628 0.4148 0.0
C1617 C 0.71851 0.29515 0.39673 0.0
C1618 C 0.7183 0.29731 0.43245 0.0
C1619 C 0.7149 0.31745 0.43239 0.0
C1620 C 0.71304 0.32621 0.41428 0.0
C1621 C 0.71479 0.31518 0.39666 0.0
C1622 C 0.70258 0.35769 0.4698 0.0
C1623 C 0.71694 0.35608 0.48434 0.0
C1624 C 0.70132 0.3446 0.45334 0.0
C1625 C 0.71442 0.32965 0.45103 0.0
C1626 C 0.72804 0.32736 0.46611 0.0
C1627 C 0.72925 0.3404 0.48261 0.0
H1628 H 0.54472 0.0562 0.9144 0.0
H1629 H 0.49446 0.03864 0.877 0.0
H1630 H 0.56679 0.04748 0.88769 0.0
H1631 H 0.51642 0.02903 0.85077 0.0
H1632 H 0.5603 0.03787 0.80132 0.0
H1633 H 0.53887 0.04546 0.82862 0.0
H1634 H 0.57791 0.01937 0.86823 0.0
H1635 H 0.59979 0.01217 0.84085 0.0
C1636 C 0.53839 0.05043 0.90052 0.0
C1637 C 0.51784 0.04818 0.89781 0.0
C1638 C 0.55103 0.0452 0.88531 0.0
C1639 C 0.54335 0.03761 0.8671 0.0
C1640 C 0.52281 0.03507 0.86453 0.0
C1641 C 0.51021 0.04036 0.87967 0.0
C1642 C 0.56434 0.03368 0.81582 0.0
C1643 C 0.58176 0.02439 0.8189 0.0
C1644 C 0.55197 0.03794 0.83147 0.0
C1645 C 0.55663 0.03293 0.85058 0.0
C1646 C 0.57403 0.02359 0.8537 0.0
C1647 C 0.58649 0.01937 0.838 0.0
H1648 H 0.31345 0.27057 0.39136 0.0
H1649 H 0.2508 0.2582 0.38179 0.0
H1650 H 0.31196 0.24857 0.41866 0.0
H1651 H 0.24932 0.23657 0.40928 0.0
H1652 H 0.25043 0.21444 0.47093 0.0
H1653 H 0.25356 0.23856 0.44564 0.0
H1654 H 0.30533 0.21228 0.42323 0.0
H1655 H 0.30234 0.18814 0.44863 0.0
C1656 C 0.29938 0.26313 0.39502 0.0
C1657 C 0.28224 0.26614 0.38436 0.0
C1658 C 0.29854 0.25058 0.41069 0.0
C1659 C 0.28052 0.24091 0.41612 0.0
C1660 C 0.26336 0.24408 0.40562 0.0
C1661 C 0.26422 0.25651 0.38989 0.0
C1662 C 0.2626 0.21388 0.46074 0.0
C1663 C 0.27607 0.19927 0.46174 0.0
C1664 C 0.26431 0.22764 0.44619 0.0
C1665 C 0.27959 0.22719 0.43238 0.0
C1666 C 0.29347 0.21305 0.43376 0.0
C1667 C 0.2917 0.19918 0.44826 0.0
H1668 H 0.51732 0.50295 0.84619 0.0
H1669 H 0.47533 0.49207 0.89266 0.0
H1670 H 0.49089 0.51176 0.82496 0.0
H1671 H 0.44874 0.50016 0.87114 0.0
H1672 H 0.41073 0.53813 0.83464 0.0
H1673 H 0.43698 0.52904 0.85607 0.0
H1674 H 0.46217 0.4968 0.80735 0.0
H1675 H 0.43627 0.50616 0.78587 0.0
C1676 C 0.50243 0.50238 0.85185 0.0
C1677 C 0.49844 0.49687 0.87113 0.0
C1678 C 0.48725 0.50723 0.83962 0.0
C1679 C 0.46771 0.50669 0.84637 0.0
C1680 C 0.46367 0.50095 0.86558 0.0
C1681 C 0.47886 0.49607 0.87782 0.0
C1682 C 0.4219 0.52914 0.8285 0.0
C1683 C 0.42142 0.52293 0.80852 0.0
C1684 C 0.43686 0.52382 0.84081 0.0
C1685 C 0.45166 0.51219 0.83341 0.0
C1686 C 0.45115 0.50599 0.81345 0.0
C1687 C 0.43622 0.5113 0.80116 0.0
H1688 H 0.70658 0.73113 0.16017 0.0
H1689 H 0.76998 0.74233 0.16224 0.0
H1690 H 0.70935 0.7102 0.1306 0.0
H1691 H 0.77263 0.72242 0.13185 0.0
H1692 H 0.77238 0.67536 0.08226 0.0
H1693 H 0.76923 0.69031 0.11535 0.0
H1694 H 0.71645 0.71622 0.09731 0.0
H1695 H 0.71923 0.70088 0.06472 0.0
C1696 C 0.72115 0.72896 0.15449 0.0
C1697 C 0.73805 0.73859 0.16356 0.0
C1698 C 0.72271 0.71716 0.13732 0.0
C1699 C 0.74119 0.71485 0.12863 0.0
C1700 C 0.75817 0.72377 0.13815 0.0
C1701 C 0.75662 0.73544 0.15545 0.0
C1702 C 0.76002 0.6841 0.08547 0.0
C1703 C 0.74608 0.68695 0.07087 0.0
C1704 C 0.75826 0.69275 0.10439 0.0
C1705 C 0.74256 0.70445 0.10904 0.0
C1706 C 0.72851 0.707 0.09443 0.0
C1707 C 0.7302 0.69831 0.07564 0.0
H1708 H 0.99022 0.04601 0.14656 0.0
H1709 H 0.97861 0.10752 0.15436 0.0
H1710 H 0.96254 0.03697 0.16724 0.0
H1711 H 0.94972 0.09823 0.17409 0.0
H1712 H 0.91659 0.07408 0.22917 0.0
H1713 H 0.9408 0.08654 0.20545 0.0
H1714 H 0.92823 0.0336 0.16841 0.0
H1715 H 0.90503 0.02081 0.19267 0.0
C1716 C 0.98174 0.05766 0.15268 0.0
C1717 C 0.98688 0.07754 0.14896 0.0
C1718 C 0.96552 0.05241 0.16426 0.0
C1719 C 0.95367 0.06682 0.17223 0.0
C1720 C 0.95858 0.08673 0.16831 0.0
C1721 C 0.97504 0.09204 0.15683 0.0
C1722 C 0.9188 0.06534 0.21576 0.0
C1723 C 0.90921 0.04639 0.21283 0.0
C1724 C 0.93264 0.07247 0.20212 0.0
C1725 C 0.93684 0.06089 0.18518 0.0
C1726 C 0.92591 0.04264 0.18159 0.0
C1727 C 0.91245 0.03537 0.19538 0.0
H1728 H 0.25975 0.8387 0.17934 0.0
H1729 H 0.2499 0.78787 0.13906 0.0
H1730 H 0.25577 0.86055 0.15212 0.0
H1731 H 0.24601 0.80956 0.11214 0.0
H1732 H 0.2706 0.85343 0.06812 0.0
H1733 H 0.27298 0.83489 0.09749 0.0
H1734 H 0.2272 0.86701 0.12485 0.0
H1735 H 0.2245 0.88568 0.09509 0.0
C1736 C 0.25659 0.83225 0.16474 0.0
C1737 C 0.25511 0.81162 0.16128 0.0
C1738 C 0.2542 0.8447 0.14927 0.0
C1739 C 0.2507 0.83666 0.13012 0.0
C1740 C 0.24881 0.81607 0.12679 0.0
C1741 C 0.2509 0.80369 0.14221 0.0
C1742 C 0.26111 0.85675 0.0804 0.0
C1743 C 0.24723 0.87093 0.07921 0.0
C1744 C 0.26246 0.84606 0.09718 0.0
C1745 C 0.25014 0.84943 0.11326 0.0
C1746 C 0.23685 0.8642 0.11256 0.0
C1747 C 0.23529 0.8748 0.09557 0.0
H1748 H 0.97776 0.47266 0.16711 0.0
H1749 H 0.02805 0.45857 0.13199 0.0
H1750 H 0.99922 0.4795 0.19571 0.0
H1751 H 0.04953 0.46555 0.16051 0.0
H1752 H 0.08155 0.46868 0.2196 0.0
H1753 H 0.05858 0.45595 0.19347 0.0
H1754 H 0.024 0.50603 0.2044 0.0
H1755 H 0.04651 0.51845 0.23047 0.0
C1756 C 0.99339 0.47095 0.16554 0.0
C1757 C 0.00126 0.46526 0.14729 0.0
C1758 C 0.00567 0.47485 0.18189 0.0
C1759 C 0.0261 0.47324 0.18031 0.0
C1760 C 0.03384 0.46671 0.16226 0.0
C1761 C 0.02153 0.46275 0.14591 0.0
C1762 C 0.06894 0.47684 0.21648 0.0
C1763 C 0.06588 0.49459 0.22705 0.0
C1764 C 0.05585 0.4696 0.2015 0.0
C1765 C 0.03943 0.47995 0.19693 0.0
C1766 C 0.03628 0.49751 0.20776 0.0
C1767 C 0.04932 0.50473 0.22262 0.0
H1768 H 0.37478 0.74588 0.25548 0.0
H1769 H 0.3438 0.7216 0.30514 0.0
H1770 H 0.40497 0.75091 0.27514 0.0
H1771 H 0.37371 0.72687 0.32483 0.0
H1772 H 0.43305 0.72454 0.35226 0.0
H1773 H 0.40606 0.71596 0.32916 0.0
H1774 H 0.41794 0.77188 0.30224 0.0
H1775 H 0.44526 0.78019 0.32488 0.0
C1776 C 0.37444 0.74169 0.27061 0.0
C1777 C 0.35697 0.73333 0.27878 0.0
C1778 C 0.3917 0.74455 0.28186 0.0
C1779 C 0.39178 0.73923 0.30154 0.0
C1780 C 0.3743 0.73074 0.30962 0.0
C1781 C 0.35712 0.72779 0.29835 0.0
C1782 C 0.43007 0.73489 0.34124 0.0
C1783 C 0.44119 0.75312 0.34054 0.0
C1784 C 0.41452 0.73002 0.32808 0.0
C1785 C 0.40968 0.74334 0.314 0.0
C1786 C 0.42136 0.7612 0.31276 0.0
C1787 C 0.43698 0.76601 0.32584 0.0
H1788 H 0.98413 0.41041 0.98622 0.0
H1789 H 0.92264 0.39307 0.9748 0.0
H1790 H 0.99351 0.3849 0.9624 0.0
H1791 H 0.93203 0.36762 0.95071 0.0
H1792 H 0.95874 0.30844 0.933 0.0
H1793 H 0.94833 0.33599 0.95353 0.0
H1794 H 0.99196 0.37533 0.92641 0.0
H1795 H 0.00252 0.34769 0.90581 0.0
C1796 C 0.97263 0.4012 0.97849 0.0
C1797 C 0.95267 0.40357 0.98244 0.0
C1798 C 0.978 0.38673 0.96475 0.0
C1799 C 0.9635 0.37425 0.95477 0.0
C1800 C 0.9435 0.37695 0.95833 0.0
C1801 C 0.93813 0.39157 0.97198 0.0
C1802 C 0.96612 0.32295 0.93136 0.0
C1803 C 0.98154 0.32585 0.91783 0.0
C1804 C 0.96002 0.33876 0.94301 0.0
C1805 C 0.96929 0.3578 0.94151 0.0
C1806 C 0.98463 0.36077 0.92793 0.0
C1807 C 0.99064 0.34496 0.91612 0.0
H1808 H 0.64422 0.78662 0.32862 0.0
H1809 H 0.61027 0.77145 0.27578 0.0
H1810 H 0.61361 0.78784 0.34751 0.0
H1811 H 0.57978 0.77286 0.29459 0.0
H1812 H 0.53376 0.80636 0.33013 0.0
H1813 H 0.56497 0.80318 0.31315 0.0
H1814 H 0.58239 0.7634 0.35626 0.0
H1815 H 0.55089 0.76627 0.37323 0.0
C1816 C 0.63022 0.78337 0.32113 0.0
C1817 C 0.62954 0.77892 0.30078 0.0
C1818 C 0.61278 0.784 0.33191 0.0
C1819 C 0.59443 0.78057 0.32243 0.0
C1820 C 0.59378 0.77569 0.30218 0.0
C1821 C 0.61118 0.77473 0.29147 0.0
C1822 C 0.54427 0.79704 0.33611 0.0
C1823 C 0.53987 0.78653 0.353 0.0
C1824 C 0.56205 0.79513 0.3263 0.0
C1825 C 0.57593 0.78293 0.33335 0.0
C1826 C 0.57188 0.77289 0.35058 0.0
C1827 C 0.55389 0.77453 0.36023 0.0
H1828 H 0.05122 0.15585 0.9881 0.0
H1829 H 0.03144 0.20015 0.0296 0.0
H1830 H 0.04307 0.17612 0.96103 0.0
H1831 H 0.02271 0.21993 0.00249 0.0
H1832 H 0.98246 0.23015 0.94988 0.0
H1833 H 0.9954 0.21171 0.97606 0.0
H1834 H 0.05152 0.21148 0.94663 0.0
H1835 H 0.03862 0.23035 0.92027 0.0
C1836 C 0.0455 0.17004 0.9915 0.0
C1837 C 0.04173 0.17623 0.01106 0.0
C1838 C 0.04078 0.18159 0.97598 0.0
C1839 C 0.03204 0.19942 0.97971 0.0
C1840 C 0.02915 0.20606 -0.00077 0.0
C1841 C 0.03406 0.19467 0.01473 0.0
C1842 C 0.99755 0.22614 0.94888 0.0
C1843 C 0.00953 0.23172 0.933 0.0
C1844 C 0.00498 0.21571 0.96396 0.0
C1845 C 0.02449 0.21037 0.96342 0.0
C1846 C 0.03642 0.21548 0.94735 0.0
C1847 C 0.02905 0.22626 0.93233 0.0
H1848 H 0.36744 0.31174 0.21708 0.0
H1849 H 0.40666 0.31192 0.26697 0.0
H1850 H 0.39539 0.30953 0.19498 0.0
H1851 H 0.43465 0.3097 0.24484 0.0
H1852 H 0.47283 0.27836 0.19844 0.0
H1853 H 0.44683 0.28485 0.22182 0.0
H1854 H 0.42544 0.3277 0.18391 0.0
H1855 H 0.45125 0.32098 0.16029 0.0
C1856 C 0.38207 0.31161 0.22333 0.0
C1857 C 0.38483 0.31191 0.24377 0.0
C1858 C 0.3981 0.31037 0.21067 0.0
C1859 C 0.41723 0.3094 0.21817 0.0
C1860 C 0.42005 0.31012 0.23862 0.0
C1861 C 0.40402 0.31137 0.25128 0.0
C1862 C 0.46272 0.28932 0.19516 0.0
C1863 C 0.46404 0.29903 0.17741 0.0
C1864 C 0.44787 0.29311 0.20862 0.0
C1865 C 0.434 0.3067 0.20465 0.0
C1866 C 0.43573 0.31693 0.18723 0.0
C1867 C 0.4506 0.31315 0.17377 0.0
H1868 H 0.56873 0.39359 0.01612 0.0
H1869 H 0.5063 0.39762 0.00682 0.0
H1870 H 0.56149 0.37343 0.044 0.0
H1871 H 0.49908 0.37583 0.03324 0.0
H1872 H 0.489 0.3518 0.09195 0.0
H1873 H 0.49871 0.37469 0.0668 0.0
H1874 H 0.55014 0.3426 0.05419 0.0
H1875 H 0.54095 0.3206 0.08047 0.0
C1876 C 0.55345 0.39016 0.0199 0.0
C1877 C 0.53813 0.39746 0.00915 0.0
C1878 C 0.54928 0.37826 0.03578 0.0
C1879 C 0.52968 0.37301 0.04111 0.0
C1880 C 0.51439 0.37989 0.03001 0.0
C1881 C 0.51855 0.39211 0.01445 0.0
C1882 C 0.50255 0.34989 0.08397 0.0
C1883 C 0.51422 0.33446 0.08806 0.0
C1884 C 0.50803 0.36285 0.06935 0.0
C1885 C 0.52503 0.36034 0.05803 0.0
C1886 C 0.53706 0.3452 0.06264 0.0
C1887 C 0.5318 0.33252 0.07767 0.0
H1888 H 0.6605 0.26106 0.21071 0.0
H1889 H 0.61878 0.25734 0.25832 0.0
H1890 H 0.6331 0.2614 0.18721 0.0
H1891 H 0.59166 0.25776 0.23507 0.0
H1892 H 0.54764 0.23717 0.18799 0.0
H1893 H 0.57694 0.23488 0.20791 0.0
H1894 H 0.60574 0.28475 0.17975 0.0
H1895 H 0.57622 0.28711 0.15958 0.0
C1896 C 0.6455 0.26024 0.2161 0.0
C1897 C 0.64172 0.25926 0.2363 0.0
C1898 C 0.62989 0.26056 0.20271 0.0
C1899 C 0.61029 0.25954 0.20934 0.0
C1900 C 0.6066 0.25837 0.22953 0.0
C1901 C 0.62212 0.25829 0.24285 0.0
C1902 C 0.56024 0.24758 0.18586 0.0
C1903 C 0.55952 0.26247 0.17233 0.0
C1904 C 0.57701 0.24627 0.19733 0.0
C1905 C 0.59351 0.25975 0.19551 0.0
C1906 C 0.59322 0.27412 0.18138 0.0
C1907 C 0.57631 0.27552 0.16993 0.0
H1908 H 0.44478 0.13715 0.05913 0.0
H1909 H 0.46568 0.16953 0.00929 0.0
H1910 H 0.45426 0.16583 0.08093 0.0
H1911 H 0.47564 0.19806 0.03117 0.0
H1912 H 0.47144 0.25129 0.07482 0.0
H1913 H 0.46064 0.22309 0.05294 0.0
H1914 H 0.48542 0.18382 0.09258 0.0
H1915 H 0.49605 0.21192 0.11459 0.0
C1916 C 0.45128 0.15045 0.05283 0.0
C1917 C 0.45449 0.15112 0.03252 0.0
C1918 C 0.45689 0.16678 0.06533 0.0
C1919 C 0.46575 0.18414 0.05775 0.0
C1920 C 0.46871 0.18492 0.0374 0.0
C1921 C 0.46318 0.16855 0.02491 0.0
C1922 C 0.47457 0.23665 0.07889 0.0
C1923 C 0.4846 0.23386 0.09647 0.0
C1924 C 0.46847 0.22052 0.06631 0.0
C1925 C 0.47217 0.20127 0.07108 0.0
C1926 C 0.48215 0.19847 0.08864 0.0
C1927 C 0.48834 0.21459 0.10119 0.0
H1928 H 0.24893 0.41711 0.76119 0.0
H1929 H 0.3009 0.38886 0.74221 0.0
H1930 H 0.26803 0.44908 0.76293 0.0
H1931 H 0.31983 0.42075 0.74375 0.0
H1932 H 0.34448 0.48221 0.73159 0.0
H1933 H 0.32246 0.45233 0.72737 0.0
H1934 H 0.29522 0.46591 0.78308 0.0
H1935 H 0.31706 0.49598 0.78725 0.0
C1936 C 0.26443 0.4177 0.75747 0.0
C1937 C 0.27339 0.40043 0.75156 0.0
C1938 C 0.27533 0.43601 0.75842 0.0
C1939 C 0.29539 0.43743 0.75338 0.0
C1940 C 0.30431 0.42019 0.74736 0.0
C1941 C 0.29345 0.4019 0.74649 0.0
C1942 C 0.33365 0.47899 0.74284 0.0
C1943 C 0.33266 0.49141 0.75985 0.0
C1944 C 0.32111 0.46179 0.74046 0.0
C1945 C 0.30728 0.45666 0.75499 0.0
C1946 C 0.30567 0.46953 0.77158 0.0
C1947 C 0.31825 0.48672 0.77399 0.0
H1948 H 0.30363 0.68737 0.80097 0.0
H1949 H 0.26595 0.65226 0.75937 0.0
H1950 H 0.32632 0.6613 0.80072 0.0
H1951 H 0.28921 0.62663 0.75857 0.0
H1952 H 0.34518 0.59212 0.75195 0.0
H1953 H 0.326 0.62099 0.74961 0.0
H1954 H 0.32141 0.62548 0.81277 0.0
H1955 H 0.34024 0.59651 0.81515 0.0
C1956 C 0.30019 0.67417 0.79171 0.0
C1957 C 0.28274 0.67184 0.78042 0.0
C1958 C 0.31328 0.65932 0.79149 0.0
C1959 C 0.30944 0.64196 0.77971 0.0
C1960 C 0.29258 0.63997 0.76767 0.0
C1961 C 0.2793 0.6547 0.7681 0.0
C1962 C 0.34027 0.59943 0.76533 0.0
C1963 C 0.34416 0.59205 0.78374 0.0
C1964 C 0.32923 0.61585 0.76397 0.0
C1965 C 0.32224 0.6254 0.781 0.0
C1966 C 0.32676 0.61846 0.79942 0.0
C1967 C 0.33746 0.60185 0.80077 0.0
H1968 H 0.8691 0.50338 0.51678 0.0
H1969 H 0.85441 0.49246 0.45536 0.0
H1970 H 0.83974 0.48305 0.52574 0.0
H1971 H 0.82518 0.47162 0.46435 0.0
H1972 H 0.76385 0.45451 0.4901 0.0
H1973 H 0.79286 0.47534 0.4809 0.0
H1974 H 0.8278 0.4478 0.52316 0.0
H1975 H 0.79885 0.42713 0.53254 0.0
C1976 C 0.85953 0.49667 0.5052 0.0
C1977 C 0.86397 0.49956 0.48537 0.0
C1978 C 0.84285 0.48488 0.51032 0.0
C1979 C 0.83021 0.47575 0.49574 0.0
C1980 C 0.8346 0.47864 0.47589 0.0
C1981 C 0.85139 0.49038 0.47075 0.0
C1982 C 0.7777 0.45295 0.49748 0.0
C1983 C 0.77903 0.43918 0.51208 0.0
C1984 C 0.79433 0.46477 0.49211 0.0
C1985 C 0.81257 0.46316 0.5013 0.0
C1986 C 0.81388 0.4495 0.51597 0.0
C1987 C 0.7973 0.43761 0.52128 0.0
H1988 H 0.73782 0.90345 0.75895 0.0
H1989 H 0.69689 0.86647 0.79231 0.0
H1990 H 0.71319 0.92743 0.75662 0.0
H1991 H 0.67286 0.89122 0.7909 0.0
H1992 H 0.66012 0.95869 0.80983 0.0
H1993 H 0.67905 0.92958 0.80689 0.0
H1994 H 0.67406 0.92916 0.74378 0.0
H1995 H 0.65444 0.95806 0.74671 0.0
C1996 C 0.72351 0.90016 0.76546 0.0
C1997 C 0.71953 0.88303 0.77605 0.0
C1998 C 0.70945 0.91398 0.76415 0.0
C1999 C 0.69126 0.91112 0.77366 0.0
C2000 C 0.68688 0.89373 0.78355 0.0
C2001 C 0.70075 0.87971 0.78452 0.0
C2002 C 0.66279 0.95219 0.79534 0.0
C2003 C 0.65589 0.96058 0.77849 0.0
C2004 C 0.67351 0.93552 0.79368 0.0
C2005 C 0.67792 0.92723 0.77512 0.0
C2006 C 0.67075 0.93535 0.75823 0.0
C2007 C 0.65953 0.95177 0.75992 0.0
H2008 H 0.67397 0.51643 0.969 0.0
H2009 H 0.63238 0.55973 0.95848 0.0
H2010 H 0.69948 0.54299 0.97672 0.0
H2011 H 0.65797 0.58616 0.96554 0.0
H2012 H 0.74446 0.59671 0.97198 0.0
H2013 H 0.71972 0.57024 0.96174 0.0
H2014 H 0.67561 0.59945 0.99524 0.0
H2015 H 0.70011 0.62595 0.00524 0.0
C2016 C 0.67033 0.53161 0.96821 0.0
C2017 C 0.65116 0.53599 0.9632 0.0
C2018 C 0.68497 0.54679 0.97244 0.0
C2019 C 0.68068 0.56665 0.97182 0.0
C2020 C 0.66164 0.571 0.96636 0.0
C2021 C 0.64705 0.55585 0.9621 0.0
C2022 C 0.72946 0.59751 0.97709 0.0
C2023 C 0.72426 0.61346 0.98942 0.0
C2024 C 0.71534 0.58231 0.97131 0.0
C2025 C 0.69573 0.58281 0.97764 0.0
C2026 C 0.69054 0.59879 0.98988 0.0
C2027 C 0.70463 0.61392 0.99571 0.0
H2028 H 0.22506 0.63028 0.21664 0.0
H2029 H 0.17459 0.66394 0.22784 0.0
H2030 H 0.20574 0.60023 0.22515 0.0
H2031 H 0.15523 0.63383 0.23648 0.0
H2032 H 0.12291 0.57195 0.23803 0.0
H2033 H 0.1407 0.60082 0.22455 0.0
H2034 H 0.19294 0.58873 0.25649 0.0
H2035 H 0.1754 0.55988 0.2697 0.0
C2036 C 0.20977 0.6312 0.22079 0.0
C2037 C 0.20137 0.64945 0.22181 0.0
C2038 C 0.19874 0.61402 0.2257 0.0
C2039 C 0.17907 0.61473 0.23177 0.0
C2040 C 0.17033 0.63281 0.23176 0.0
C2041 C 0.18139 0.65003 0.2268 0.0
C2042 C 0.13821 0.57544 0.24212 0.0
C2043 C 0.14773 0.56361 0.25495 0.0
C2044 C 0.14836 0.59199 0.23444 0.0
C2045 C 0.16824 0.59696 0.23936 0.0
C2046 C 0.17773 0.58509 0.25214 0.0
C2047 C 0.16761 0.56863 0.25984 0.0
H2048 H 0.88927 0.54909 0.02261 0.0
H2049 H 0.87305 0.55841 0.08347 0.0
H2050 H 0.86877 0.57464 0.01361 0.0
H2051 H 0.85402 0.58552 0.07467 0.0
H2052 H 0.80235 0.61571 0.04816 0.0
H2053 H 0.82484 0.59272 0.06009 0.0
H2054 H 0.86548 0.6079 0.01341 0.0
H2055 H 0.84223 0.62968 0.00081 0.0
C2056 C 0.88138 0.5566 0.03415 0.0
C2057 C 0.88271 0.55137 0.05378 0.0
C2058 C 0.8699 0.57169 0.02901 0.0
C2059 C 0.85974 0.58242 0.04338 0.0
C2060 C 0.86138 0.5775 0.0631 0.0
C2061 C 0.87259 0.56208 0.06821 0.0
C2062 C 0.81624 0.61428 0.04067 0.0
C2063 C 0.82051 0.62427 0.02348 0.0
C2064 C 0.82922 0.60113 0.04753 0.0
C2065 C 0.84695 0.59807 0.03756 0.0
C2066 C 0.85172 0.60926 0.02112 0.0
C2067 C 0.83852 0.62196 0.014 0.0
H2068 H 0.13085 0.03932 0.02474 0.0
H2069 H 0.13404 0.02798 0.08649 0.0
H2070 H 0.14823 0.01027 0.01686 0.0
H2071 H 0.14999 0.99783 0.07839 0.0
H2072 H 0.19639 0.95552 0.05701 0.0
H2073 H 0.17909 0.98443 0.06722 0.0
H2074 H 0.14282 0.97597 0.0149 0.0
H2075 H 0.16086 0.94786 0.00432 0.0
C2076 C 0.13534 0.03073 0.0367 0.0
C2077 C 0.13096 0.03612 0.05629 0.0
C2078 C 0.14498 0.01373 0.03212 0.0
C2079 C 0.15022 0.00139 0.04693 0.0
C2080 C 0.14624 0.00696 0.06657 0.0
C2081 C 0.13684 0.02417 0.0712 0.0
C2082 C 0.18452 0.95973 0.04788 0.0
C2083 C 0.18005 0.94958 0.02981 0.0
C2084 C 0.17457 0.9763 0.05372 0.0
C2085 C 0.15976 0.98283 0.04173 0.0
C2086 C 0.15457 0.97183 0.02422 0.0
C2087 C 0.16474 0.95555 0.01824 0.0
loop_
_geom_bond_atom_site_label_1
_geom_bond_atom_site_label_2
_geom_bond_distance
_geom_bond_site_symmetry_2
_ccdc_geom_bond_type
C0 C1 1.391 . S
C0 C4 1.391 . S
C0 H42 0.948 . S
C1 C0 1.391 . S
C1 C2 1.391 . S
C2 C1 1.391 . S
C2 H58 0.947 . S
C2 C59 1.392 . S
C3 C4 1.391 . S
C3 C7 1.397 . S
C3 C59 1.419 . S
C4 C0 1.391 . S
C4 C3 1.391 . S
C4 C5 1.399 . S
C5 C4 1.399 . S
C5 C8 1.396 . S
C5 C17 1.453 . S
C5 C18 1.684 . S
H6 C30 0.948 . S
C7 C3 1.397 . S
C7 C8 1.394 . S
C7 C26 1.723 . S
C8 C5 1.396 . S
C8 C7 1.394 . S
C8 C38 1.723 . S
H9 C32 0.947 . S
H10 C33 0.948 . S
H11 C39 0.982 . S
H12 C40 0.979 . S
H13 C40 0.980 . S
H14 C40 0.983 . S
H15 C39 0.979 . S
H16 C39 0.977 . S
C17 C5 1.453 . S
C17 H46 0.982 . S
C17 H47 0.979 . S
C17 H48 0.977 . S
C18 C5 1.684 . S
C18 H43 0.979 . S
C18 H44 0.980 . S
C18 H45 0.983 . S
C19 C20 1.391 . S
C19 C24 1.391 . S
C19 H49 0.948 . S
C20 C19 1.391 . S
C20 C21 1.391 . S
C21 C20 1.391 . S
C21 C22 1.392 . S
C21 H50 0.947 . S
C22 C21 1.392 . S
C22 C23 1.419 . S
C22 H51 0.948 . S
C23 C22 1.419 . S
C23 C24 1.391 . S
C23 C27 1.397 . S
C24 C19 1.391 . S
C24 C23 1.391 . S
C24 C25 1.399 . S
C25 C24 1.399 . S
C25 C26 1.396 . S
C25 C28 1.453 . S
C25 C29 1.684 . S
C26 C7 1.723 . S
C26 C25 1.396 . S
C26 C27 1.394 . S
C27 C23 1.397 . S
C27 C26 1.394 . S
C27 C37 1.723 . S
C28 C25 1.453 . S
C28 H52 0.982 . S
C28 H53 0.979 . S
C28 H54 0.977 . S
C29 C25 1.684 . S
C29 H55 0.979 . S
C29 H56 0.980 . S
C29 H57 0.983 . S
C30 H6 0.948 . S
C30 C31 1.391 . S
C30 C35 1.391 . S
C31 C30 1.391 . S
C31 C32 1.391 . S
C32 H9 0.947 . S
C32 C31 1.391 . S
C32 C33 1.392 . S
C33 H10 0.948 . S
C33 C32 1.392 . S
C33 C34 1.419 . S
C34 C33 1.419 . S
C34 C35 1.391 . S
C34 C38 1.397 . S
C35 C30 1.391 . S
C35 C34 1.391 . S
C35 C36 1.399 . S
C36 C35 1.399 . S
C36 C37 1.396 . S
C36 C39 1.453 . S
C36 C40 1.684 . S
C37 C27 1.723 . S
C37 C36 1.396 . S
C37 C38 1.394 . S
C38 C8 1.723 . S
C38 C34 1.397 . S
C38 C37 1.394 . S
C39 H11 0.982 . S
C39 H15 0.979 . S
C39 H16 0.977 . S
C39 C36 1.453 . S
C40 H12 0.979 . S
C40 H13 0.980 . S
C40 H14 0.983 . S
C40 C36 1.684 . S
H41 C59 0.948 . S
H42 C0 0.948 . S
H43 C18 0.979 . S
H44 C18 0.980 . S
H45 C18 0.983 . S
H46 C17 0.982 . S
H47 C17 0.979 . S
H48 C17 0.977 . S
H49 C19 0.948 . S
H50 C21 0.947 . S
H51 C22 0.948 . S
H52 C28 0.982 . S
H53 C28 0.979 . S
H54 C28 0.977 . S
H55 C29 0.979 . S
H56 C29 0.980 . S
H57 C29 0.983 . S
H58 C2 0.947 . S
C59 C2 1.392 . S
C59 C3 1.419 . S
C59 H41 0.948 . S
C60 C61 1.391 . S
C60 C64 1.391 . S
C60 H102 0.948 . S
C61 C60 1.391 . S
C61 C62 1.391 . S
C62 C61 1.391 . S
C62 H118 0.947 . S
C62 C119 1.392 . S
C63 C64 1.391 . S
C63 C67 1.397 . S
C63 C119 1.419 . S
C64 C60 1.391 . S
C64 C63 1.391 . S
C64 C65 1.399 . S
C65 C64 1.399 . S
C65 C68 1.396 . S
C65 C77 1.453 . S
C65 C78 1.684 . S
H66 C90 0.948 . S
C67 C63 1.397 . S
C67 C68 1.394 . S
C67 C86 1.723 . S
C68 C65 1.396 . S
C68 C67 1.394 . S
C68 C98 1.723 . S
H69 C92 0.947 . S
H70 C93 0.948 . S
H71 C99 0.982 . S
H72 C100 0.979 . S
H73 C100 0.980 . S
H74 C100 0.983 . S
H75 C99 0.979 . S
H76 C99 0.977 . S
C77 C65 1.453 . S
C77 H106 0.982 . S
C77 H107 0.979 . S
C77 H108 0.977 . S
C78 C65 1.684 . S
C78 H103 0.979 . S
C78 H104 0.980 . S
C78 H105 0.983 . S
C79 C80 1.391 . S
C79 C84 1.391 . S
C79 H109 0.948 . S
C80 C79 1.391 . S
C80 C81 1.391 . S
C81 C80 1.391 . S
C81 C82 1.392 . S
C81 H110 0.947 . S
C82 C81 1.392 . S
C82 C83 1.419 . S
C82 H111 0.948 . S
C83 C82 1.419 . S
C83 C84 1.391 . S
C83 C87 1.397 . S
C84 C79 1.391 . S
C84 C83 1.391 . S
C84 C85 1.399 . S
C85 C84 1.399 . S
C85 C86 1.396 . S
C85 C88 1.453 . S
C85 C89 1.684 . S
C86 C67 1.723 . S
C86 C85 1.396 . S
C86 C87 1.394 . S
C87 C83 1.397 . S
C87 C86 1.394 . S
C87 C97 1.723 . S
C88 C85 1.453 . S
C88 H112 0.982 . S
C88 H113 0.979 . S
C88 H114 0.977 . S
C89 C85 1.684 . S
C89 H115 0.979 . S
C89 H116 0.980 . S
C89 H117 0.983 . S
C90 H66 0.948 . S
C90 C91 1.391 . S
C90 C95 1.391 . S
C91 C90 1.391 . S
C91 C92 1.391 . S
C92 H69 0.947 . S
C92 C91 1.391 . S
C92 C93 1.392 . S
C93 H70 0.948 . S
C93 C92 1.392 . S
C93 C94 1.419 . S
C94 C93 1.419 . S
C94 C95 1.391 . S
C94 C98 1.397 . S
C95 C90 1.391 . S
C95 C94 1.391 . S
C95 C96 1.399 . S
C96 C95 1.399 . S
C96 C97 1.396 . S
C96 C99 1.453 . S
C96 C100 1.684 . S
C97 C87 1.723 . S
C97 C96 1.396 . S
C97 C98 1.394 . S
C98 C68 1.723 . S
C98 C94 1.397 . S
C98 C97 1.394 . S
C99 H71 0.982 . S
C99 H75 0.979 . S
C99 H76 0.977 . S
C99 C96 1.453 . S
C100 H72 0.979 . S
C100 H73 0.980 . S
C100 H74 0.983 . S
C100 C96 1.684 . S
H101 C119 0.948 . S
H102 C60 0.948 . S
H103 C78 0.979 . S
H104 C78 0.980 . S
H105 C78 0.983 . S
H106 C77 0.982 . S
H107 C77 0.979 . S
H108 C77 0.977 . S
H109 C79 0.948 . S
H110 C81 0.947 . S
H111 C82 0.948 . S
H112 C88 0.982 . S
H113 C88 0.979 . S
H114 C88 0.977 . S
H115 C89 0.979 . S
H116 C89 0.980 . S
H117 C89 0.983 . S
H118 C62 0.947 . S
C119 C62 1.392 . S
C119 C63 1.419 . S
C119 H101 0.948 . S
C120 C121 1.391 . S
C120 C124 1.391 . S
C120 H162 0.948 . S
C121 C120 1.391 . S
C121 C122 1.391 . S
C122 C121 1.391 . S
C122 H178 0.947 . S
C122 C179 1.392 . S
C123 C124 1.391 . S
C123 C127 1.397 . S
C123 C179 1.419 . S
C124 C120 1.391 . S
C124 C123 1.391 . S
C124 C125 1.399 . S
C125 C124 1.399 . S
C125 C128 1.396 . S
C125 C137 1.453 . S
C125 C138 1.684 . S
H126 C150 0.948 . S
C127 C123 1.397 . S
C127 C128 1.394 . S
C127 C146 1.723 . S
C128 C125 1.396 . S
C128 C127 1.394 . S
C128 C158 1.723 . S
H129 C152 0.947 . S
H130 C153 0.948 . S
H131 C159 0.982 . S
H132 C160 0.979 . S
H133 C160 0.980 . S
H134 C160 0.983 . S
H135 C159 0.979 . S
H136 C159 0.977 . S
C137 C125 1.453 . S
C137 H166 0.982 . S
C137 H167 0.979 . S
C137 H168 0.977 . S
C138 C125 1.684 . S
C138 H163 0.979 . S
C138 H164 0.980 . S
C138 H165 0.983 . S
C139 C140 1.391 . S
C139 C144 1.391 . S
C139 H169 0.948 . S
C140 C139 1.391 . S
C140 C141 1.391 . S
C141 C140 1.391 . S
C141 C142 1.392 . S
C141 H170 0.947 . S
C142 C141 1.392 . S
C142 C143 1.419 . S
C142 H171 0.948 . S
C143 C142 1.419 . S
C143 C144 1.391 . S
C143 C147 1.397 . S
C144 C139 1.391 . S
C144 C143 1.391 . S
C144 C145 1.399 . S
C145 C144 1.399 . S
C145 C146 1.396 . S
C145 C148 1.453 . S
C145 C149 1.684 . S
C146 C127 1.723 . S
C146 C145 1.396 . S
C146 C147 1.394 . S
C147 C143 1.397 . S
C147 C146 1.394 . S
C147 C157 1.723 . S
C148 C145 1.453 . S
C148 H172 0.982 . S
C148 H173 0.979 . S
C148 H174 0.977 . S
C149 C145 1.684 . S
C149 H175 0.979 . S
C149 H176 0.980 . S
C149 H177 0.983 . S
C150 H126 0.948 . S
C150 C151 1.391 . S
C150 C155 1.391 . S
C151 C150 1.391 . S
C151 C152 1.391 . S
C152 H129 0.947 . S
C152 C151 1.391 . S
C152 C153 1.392 . S
C153 H130 0.948 . S
C153 C152 1.392 . S
C153 C154 1.419 . S
C154 C153 1.419 . S
C154 C155 1.391 . S
C154 C158 1.397 . S
C155 C150 1.391 . S
C155 C154 1.391 . S
C155 C156 1.399 . S
C156 C155 1.399 . S
C156 C157 1.396 . S
C156 C159 1.453 . S
C156 C160 1.684 . S
C157 C147 1.723 . S
C157 C156 1.396 . S
C157 C158 1.394 . S
C158 C128 1.723 . S
C158 C154 1.397 . S
C158 C157 1.394 . S
C159 H131 0.982 . S
C159 H135 0.979 . S
C159 H136 0.977 . S
C159 C156 1.453 . S
C160 H132 0.979 . S
C160 H133 0.980 . S
C160 H134 0.983 . S
C160 C156 1.684 . S
H161 C179 0.948 . S
H162 C120 0.948 . S
H163 C138 0.979 . S
H164 C138 0.980 . S
H165 C138 0.983 . S
H166 C137 0.982 . S
H167 C137 0.979 . S
H168 C137 0.977 . S
H169 C139 0.948 . S
H170 C141 0.947 . S
H171 C142 0.948 . S
H172 C148 0.982 . S
H173 C148 0.979 . S
H174 C148 0.977 . S
H175 C149 0.979 . S
H176 C149 0.980 . S
H177 C149 0.983 . S
H178 C122 0.947 . S
C179 C122 1.392 . S
C179 C123 1.419 . S
C179 H161 0.948 . S
C180 C181 1.391 . S
C180 C184 1.391 . S
C180 H222 0.948 . S
C181 C180 1.391 . S
C181 C182 1.391 . S
C182 C181 1.391 . S
C182 H238 0.947 . S
C182 C239 1.392 . S
C183 C184 1.391 . S
C183 C187 1.397 . S
C183 C239 1.419 . S
C184 C180 1.391 . S
C184 C183 1.391 . S
C184 C185 1.399 . S
C185 C184 1.399 . S
C185 C188 1.396 . S
C185 C197 1.453 . S
C185 C198 1.684 . S
H186 C210 0.948 . S
C187 C183 1.397 . S
C187 C188 1.394 . S
C187 C206 1.723 . S
C188 C185 1.396 . S
C188 C187 1.394 . S
C188 C218 1.723 . S
H189 C212 0.947 . S
H190 C213 0.948 . S
H191 C219 0.982 . S
H192 C220 0.979 . S
H193 C220 0.980 . S
H194 C220 0.983 . S
H195 C219 0.979 . S
H196 C219 0.977 . S
C197 C185 1.453 . S
C197 H226 0.982 . S
C197 H227 0.979 . S
C197 H228 0.977 . S
C198 C185 1.684 . S
C198 H223 0.979 . S
C198 H224 0.980 . S
C198 H225 0.983 . S
C199 C200 1.391 . S
C199 C204 1.391 . S
C199 H229 0.948 . S
C200 C199 1.391 . S
C200 C201 1.391 . S
C201 C200 1.391 . S
C201 C202 1.392 . S
C201 H230 0.947 . S
C202 C201 1.392 . S
C202 C203 1.419 . S
C202 H231 0.948 . S
C203 C202 1.419 . S
C203 C204 1.391 . S
C203 C207 1.397 . S
C204 C199 1.391 . S
C204 C203 1.391 . S
C204 C205 1.399 . S
C205 C204 1.399 . S
C205 C206 1.396 . S
C205 C208 1.453 . S
C205 C209 1.684 . S
C206 C187 1.723 . S
C206 C205 1.396 . S
C206 C207 1.394 . S
C207 C203 1.397 . S
C207 C206 1.394 . S
C207 C217 1.723 . S
C208 C205 1.453 . S
C208 H232 0.982 . S
C208 H233 0.979 . S
C208 H234 0.977 . S
C209 C205 1.684 . S
C209 H235 0.979 . S
C209 H236 0.980 . S
C209 H237 0.983 . S
C210 H186 0.948 . S
C210 C211 1.391 . S
C210 C215 1.391 . S
C211 C210 1.391 . S
C211 C212 1.391 . S
C212 H189 0.947 . S
C212 C211 1.391 . S
C212 C213 1.392 . S
C213 H190 0.948 . S
C213 C212 1.392 . S
C213 C214 1.419 . S
C214 C213 1.419 . S
C214 C215 1.391 . S
C214 C218 1.397 . S
C215 C210 1.391 . S
C215 C214 1.391 . S
C215 C216 1.399 . S
C216 C215 1.399 . S
C216 C217 1.396 . S
C216 C219 1.453 . S
C216 C220 1.684 . S
C217 C207 1.723 . S
C217 C216 1.396 . S
C217 C218 1.394 . S
C218 C188 1.723 . S
C218 C214 1.397 . S
C218 C217 1.394 . S
C219 H191 0.982 . S
C219 H195 0.979 . S
C219 H196 0.977 . S
C219 C216 1.453 . S
C220 H192 0.979 . S
C220 H193 0.980 . S
C220 H194 0.983 . S
C220 C216 1.684 . S
H221 C239 0.948 . S
H222 C180 0.948 . S
H223 C198 0.979 . S
H224 C198 0.980 . S
H225 C198 0.983 . S
H226 C197 0.982 . S
H227 C197 0.979 . S
H228 C197 0.977 . S
H229 C199 0.948 . S
H230 C201 0.947 . S
H231 C202 0.948 . S
H232 C208 0.982 . S
H233 C208 0.979 . S
H234 C208 0.977 . S
H235 C209 0.979 . S
H236 C209 0.980 . S
H237 C209 0.983 . S
H238 C182 0.947 . S
C239 C182 1.392 . S
C239 C183 1.419 . S
C239 H221 0.948 . S
C240 C241 1.391 . S
C240 C244 1.391 . S
C240 H282 0.948 . S
C241 C240 1.391 . S
C241 C242 1.391 . S
C242 C241 1.391 . S
C242 H298 0.947 . S
C242 C299 1.392 . S
C243 C244 1.391 . S
C243 C247 1.397 . S
C243 C299 1.419 . S
C244 C240 1.391 . S
C244 C243 1.391 . S
C244 C245 1.399 . S
C245 C244 1.399 . S
C245 C248 1.396 . S
C245 C257 1.453 . S
C245 C258 1.684 . S
H246 C270 0.948 . S
C247 C243 1.397 . S
C247 C248 1.394 . S
C247 C266 1.723 . S
C248 C245 1.396 . S
C248 C247 1.394 . S
C248 C278 1.723 . S
H249 C272 0.947 . S
H250 C273 0.948 . S
H251 C279 0.982 . S
H252 C280 0.979 . S
H253 C280 0.980 . S
H254 C280 0.983 1_545 S
H255 C279 0.979 . S
H256 C279 0.977 . S
C257 C245 1.453 . S
C257 H286 0.982 . S
C257 H287 0.979 . S
C257 H288 0.977 . S
C258 C245 1.684 . S
C258 H283 0.979 . S
C258 H284 0.980 . S
C258 H285 0.983 . S
C259 C260 1.391 . S
C259 C264 1.391 . S
C259 H289 0.948 . S
C260 C259 1.391 . S
C260 C261 1.391 . S
C261 C260 1.391 . S
C261 C262 1.392 . S
C261 H290 0.947 . S
C262 C261 1.392 . S
C262 C263 1.419 . S
C262 H291 0.948 . S
C263 C262 1.419 . S
C263 C264 1.391 . S
C263 C267 1.397 . S
C264 C259 1.391 . S
C264 C263 1.391 . S
C264 C265 1.399 . S
C265 C264 1.399 . S
C265 C266 1.396 . S
C265 C268 1.453 . S
C265 C269 1.684 . S
C266 C247 1.723 . S
C266 C265 1.396 . S
C266 C267 1.394 . S
C267 C263 1.397 . S
C267 C266 1.394 . S
C267 C277 1.723 . S
C268 C265 1.453 . S
C268 H292 0.982 . S
C268 H293 0.979 . S
C268 H294 0.977 . S
C269 C265 1.684 . S
C269 H295 0.979 . S
C269 H296 0.980 . S
C269 H297 0.983 . S
C270 H246 0.948 . S
C270 C271 1.391 1_545 S
C270 C275 1.391 1_545 S
C271 C270 1.391 1_565 S
C271 C272 1.391 . S
C272 H249 0.947 . S
C272 C271 1.391 . S
C272 C273 1.392 . S
C273 H250 0.948 . S
C273 C272 1.392 . S
C273 C274 1.419 . S
C274 C273 1.419 . S
C274 C275 1.391 . S
C274 C278 1.397 . S
C275 C270 1.391 1_565 S
C275 C274 1.391 . S
C275 C276 1.399 . S
C276 C275 1.399 . S
C276 C277 1.396 . S
C276 C279 1.453 1_565 S
C276 C280 1.684 . S
C277 C267 1.723 . S
C277 C276 1.396 . S
C277 C278 1.394 . S
C278 C248 1.723 . S
C278 C274 1.397 . S
C278 C277 1.394 . S
C279 H251 0.982 . S
C279 H255 0.979 . S
C279 H256 0.977 . S
C279 C276 1.453 1_545 S
C280 H252 0.979 . S
C280 H253 0.980 . S
C280 H254 0.983 1_565 S
C280 C276 1.684 . S
H281 C299 0.948 . S
H282 C240 0.948 . S
H283 C258 0.979 . S
H284 C258 0.980 . S
H285 C258 0.983 . S
H286 C257 0.982 . S
H287 C257 0.979 . S
H288 C257 0.977 . S
H289 C259 0.948 . S
H290 C261 0.947 . S
H291 C262 0.948 . S
H292 C268 0.982 . S
H293 C268 0.979 . S
H294 C268 0.977 . S
H295 C269 0.979 . S
H296 C269 0.980 . S
H297 C269 0.983 . S
H298 C242 0.947 . S
C299 C242 1.392 . S
C299 C243 1.419 . S
C299 H281 0.948 . S
C300 C301 1.391 . S
C300 C304 1.391 . S
C300 H342 0.948 . S
C301 C300 1.391 . S
C301 C302 1.391 . S
C302 C301 1.391 . S
C302 H358 0.947 . S
C302 C359 1.392 . S
C303 C304 1.391 . S
C303 C307 1.397 . S
C303 C359 1.419 . S
C304 C300 1.391 . S
C304 C303 1.391 . S
C304 C305 1.399 . S
C305 C304 1.399 . S
C305 C308 1.396 . S
C305 C317 1.453 . S
C305 C318 1.684 . S
H306 C330 0.948 . S
C307 C303 1.397 . S
C307 C308 1.394 . S
C307 C326 1.723 . S
C308 C305 1.396 . S
C308 C307 1.394 . S
C308 C338 1.723 . S
H309 C332 0.947 . S
H310 C333 0.948 . S
H311 C339 0.982 . S
H312 C340 0.979 . S
H313 C340 0.980 . S
H314 C340 0.983 . S
H315 C339 0.979 . S
H316 C339 0.977 . S
C317 C305 1.453 . S
C317 H346 0.982 . S
C317 H347 0.979 . S
C317 H348 0.977 . S
C318 C305 1.684 . S
C318 H343 0.979 . S
C318 H344 0.980 . S
C318 H345 0.983 . S
C319 C320 1.391 . S
C319 C324 1.391 . S
C319 H349 0.948 . S
C320 C319 1.391 . S
C320 C321 1.391 . S
C321 C320 1.391 . S
C321 C322 1.392 . S
C321 H350 0.947 . S
C322 C321 1.392 . S
C322 C323 1.419 . S
C322 H351 0.948 . S
C323 C322 1.419 . S
C323 C324 1.391 . S
C323 C327 1.397 . S
C324 C319 1.391 . S
C324 C323 1.391 . S
C324 C325 1.399 . S
C325 C324 1.399 . S
C325 C326 1.396 . S
C325 C328 1.453 . S
C325 C329 1.684 . S
C326 C307 1.723 . S
C326 C325 1.396 . S
C326 C327 1.394 . S
C327 C323 1.397 . S
C327 C326 1.394 . S
C327 C337 1.723 . S
C328 C325 1.453 . S
C328 H352 0.982 . S
C328 H353 0.979 . S
C328 H354 0.977 . S
C329 C325 1.684 . S
C329 H355 0.979 . S
C329 H356 0.980 . S
C329 H357 0.983 . S
C330 H306 0.948 . S
C330 C331 1.391 . S
C330 C335 1.391 . S
C331 C330 1.391 . S
C331 C332 1.391 . S
C332 H309 0.947 . S
C332 C331 1.391 . S
C332 C333 1.392 . S
C333 H310 0.948 . S
C333 C332 1.392 . S
C333 C334 1.419 . S
C334 C333 1.419 . S
C334 C335 1.391 . S
C334 C338 1.397 . S
C335 C330 1.391 . S
C335 C334 1.391 . S
C335 C336 1.399 . S
C336 C335 1.399 . S
C336 C337 1.396 . S
C336 C339 1.453 . S
C336 C340 1.684 . S
C337 C327 1.723 . S
C337 C336 1.396 . S
C337 C338 1.394 . S
C338 C308 1.723 . S
C338 C334 1.397 . S
C338 C337 1.394 . S
C339 H311 0.982 . S
C339 H315 0.979 . S
C339 H316 0.977 . S
C339 C336 1.453 . S
C340 H312 0.979 . S
C340 H313 0.980 . S
C340 H314 0.983 . S
C340 C336 1.684 . S
H341 C359 0.948 . S
H342 C300 0.948 . S
H343 C318 0.979 . S
H344 C318 0.980 . S
H345 C318 0.983 . S
H346 C317 0.982 . S
H347 C317 0.979 . S
H348 C317 0.977 . S
H349 C319 0.948 . S
H350 C321 0.947 . S
H351 C322 0.948 . S
H352 C328 0.982 . S
H353 C328 0.979 . S
H354 C328 0.977 . S
H355 C329 0.979 . S
H356 C329 0.980 . S
H357 C329 0.983 . S
H358 C302 0.947 . S
C359 C302 1.392 . S
C359 C303 1.419 . S
C359 H341 0.948 . S
C360 C361 1.391 . S
C360 C364 1.391 . S
C360 H402 0.948 . S
C361 C360 1.391 . S
C361 C362 1.391 . S
C362 C361 1.391 . S
C362 H418 0.947 . S
C362 C419 1.392 . S
C363 C364 1.391 . S
C363 C367 1.397 . S
C363 C419 1.419 . S
C364 C360 1.391 . S
C364 C363 1.391 . S
C364 C365 1.399 . S
C365 C364 1.399 . S
C365 C368 1.396 . S
C365 C377 1.453 . S
C365 C378 1.684 . S
H366 C390 0.948 . S
C367 C363 1.397 . S
C367 C368 1.394 . S
C367 C386 1.723 . S
C368 C365 1.396 . S
C368 C367 1.394 . S
C368 C398 1.723 . S
H369 C392 0.947 . S
H370 C393 0.948 . S
H371 C399 0.982 . S
H372 C400 0.979 . S
H373 C400 0.980 . S
H374 C400 0.983 . S
H375 C399 0.979 . S
H376 C399 0.977 . S
C377 C365 1.453 . S
C377 H406 0.982 . S
C377 H407 0.979 . S
C377 H408 0.977 . S
C378 C365 1.684 . S
C378 H403 0.979 . S
C378 H404 0.980 . S
C378 H405 0.983 . S
C379 C380 1.391 . S
C379 C384 1.391 . S
C379 H409 0.948 . S
C380 C379 1.391 . S
C380 C381 1.391 . S
C381 C380 1.391 . S
C381 C382 1.392 . S
C381 H410 0.947 . S
C382 C381 1.392 . S
C382 C383 1.419 . S
C382 H411 0.948 . S
C383 C382 1.419 . S
C383 C384 1.391 . S
C383 C387 1.397 . S
C384 C379 1.391 . S
C384 C383 1.391 . S
C384 C385 1.399 . S
C385 C384 1.399 . S
C385 C386 1.396 . S
C385 C388 1.453 . S
C385 C389 1.684 . S
C386 C367 1.723 . S
C386 C385 1.396 . S
C386 C387 1.394 . S
C387 C383 1.397 . S
C387 C386 1.394 . S
C387 C397 1.723 . S
C388 C385 1.453 . S
C388 H412 0.982 . S
C388 H413 0.979 . S
C388 H414 0.977 . S
C389 C385 1.684 . S
C389 H415 0.979 . S
C389 H416 0.980 . S
C389 H417 0.983 . S
C390 H366 0.948 . S
C390 C391 1.391 . S
C390 C395 1.391 . S
C391 C390 1.391 . S
C391 C392 1.391 . S
C392 H369 0.947 . S
C392 C391 1.391 . S
C392 C393 1.392 . S
C393 H370 0.948 . S
C393 C392 1.392 . S
C393 C394 1.419 . S
C394 C393 1.419 . S
C394 C395 1.391 . S
C394 C398 1.397 . S
C395 C390 1.391 . S
C395 C394 1.391 . S
C395 C396 1.399 . S
C396 C395 1.399 . S
C396 C397 1.396 . S
C396 C399 1.453 . S
C396 C400 1.684 . S
C397 C387 1.723 . S
C397 C396 1.396 . S
C397 C398 1.394 . S
C398 C368 1.723 . S
C398 C394 1.397 . S
C398 C397 1.394 . S
C399 H371 0.982 . S
C399 H375 0.979 . S
C399 H376 0.977 . S
C399 C396 1.453 . S
C400 H372 0.979 . S
C400 H373 0.980 . S
C400 H374 0.983 . S
C400 C396 1.684 . S
H401 C419 0.948 . S
H402 C360 0.948 . S
H403 C378 0.979 . S
H404 C378 0.980 . S
H405 C378 0.983 . S
H406 C377 0.982 . S
H407 C377 0.979 . S
H408 C377 0.977 . S
H409 C379 0.948 . S
H410 C381 0.947 . S
H411 C382 0.948 . S
H412 C388 0.982 . S
H413 C388 0.979 . S
H414 C388 0.977 . S
H415 C389 0.979 . S
H416 C389 0.980 . S
H417 C389 0.983 . S
H418 C362 0.947 . S
C419 C362 1.392 . S
C419 C363 1.419 . S
C419 H401 0.948 . S
C420 C421 1.391 . S
C420 C424 1.391 . S
C420 H462 0.948 . S
C421 C420 1.391 . S
C421 C422 1.391 . S
C422 C421 1.391 . S
C422 H478 0.947 . S
C422 C479 1.392 . S
C423 C424 1.391 . S
C423 C427 1.397 . S
C423 C479 1.419 . S
C424 C420 1.391 . S
C424 C423 1.391 . S
C424 C425 1.399 . S
C425 C424 1.399 . S
C425 C428 1.396 . S
C425 C437 1.453 . S
C425 C438 1.684 . S
H426 C450 0.948 . S
C427 C423 1.397 . S
C427 C428 1.394 . S
C427 C446 1.723 . S
C428 C425 1.396 . S
C428 C427 1.394 . S
C428 C458 1.723 . S
H429 C452 0.947 . S
H430 C453 0.948 . S
H431 C459 0.982 . S
H432 C460 0.979 . S
H433 C460 0.980 . S
H434 C460 0.983 . S
H435 C459 0.979 . S
H436 C459 0.977 . S
C437 C425 1.453 . S
C437 H466 0.982 . S
C437 H467 0.979 . S
C437 H468 0.977 . S
C438 C425 1.684 . S
C438 H463 0.979 . S
C438 H464 0.980 . S
C438 H465 0.983 . S
C439 C440 1.391 . S
C439 C444 1.391 . S
C439 H469 0.948 . S
C440 C439 1.391 . S
C440 C441 1.391 . S
C441 C440 1.391 . S
C441 C442 1.392 . S
C441 H470 0.947 . S
C442 C441 1.392 . S
C442 C443 1.419 . S
C442 H471 0.948 . S
C443 C442 1.419 . S
C443 C444 1.391 . S
C443 C447 1.397 . S
C444 C439 1.391 . S
C444 C443 1.391 . S
C444 C445 1.399 . S
C445 C444 1.399 . S
C445 C446 1.396 . S
C445 C448 1.453 . S
C445 C449 1.684 . S
C446 C427 1.723 . S
C446 C445 1.396 . S
C446 C447 1.394 . S
C447 C443 1.397 . S
C447 C446 1.394 . S
C447 C457 1.723 . S
C448 C445 1.453 . S
C448 H472 0.982 . S
C448 H473 0.979 . S
C448 H474 0.977 . S
C449 C445 1.684 . S
C449 H475 0.979 . S
C449 H476 0.980 . S
C449 H477 0.983 . S
C450 H426 0.948 . S
C450 C451 1.391 . S
C450 C455 1.391 . S
C451 C450 1.391 . S
C451 C452 1.391 . S
C452 H429 0.947 . S
C452 C451 1.391 . S
C452 C453 1.392 . S
C453 H430 0.948 . S
C453 C452 1.392 . S
C453 C454 1.419 . S
C454 C453 1.419 . S
C454 C455 1.391 . S
C454 C458 1.397 . S
C455 C450 1.391 . S
C455 C454 1.391 . S
C455 C456 1.399 . S
C456 C455 1.399 . S
C456 C457 1.396 . S
C456 C459 1.453 . S
C456 C460 1.684 . S
C457 C447 1.723 . S
C457 C456 1.396 . S
C457 C458 1.394 . S
C458 C428 1.723 . S
C458 C454 1.397 . S
C458 C457 1.394 . S
C459 H431 0.982 . S
C459 H435 0.979 . S
C459 H436 0.977 . S
C459 C456 1.453 . S
C460 H432 0.979 . S
C460 H433 0.980 . S
C460 H434 0.983 . S
C460 C456 1.684 . S
H461 C479 0.948 . S
H462 C420 0.948 . S
H463 C438 0.979 . S
H464 C438 0.980 . S
H465 C438 0.983 . S
H466 C437 0.982 . S
H467 C437 0.979 . S
H468 C437 0.977 . S
H469 C439 0.948 . S
H470 C441 0.947 . S
H471 C442 0.948 . S
H472 C448 0.982 . S
H473 C448 0.979 . S
H474 C448 0.977 . S
H475 C449 0.979 . S
H476 C449 0.980 . S
H477 C449 0.983 . S
H478 C422 0.947 . S
C479 C422 1.392 . S
C479 C423 1.419 . S
C479 H461 0.948 . S
C480 C481 1.391 . S
C480 C484 1.391 . S
C480 H522 0.948 . S
C481 C480 1.391 . S
C481 C482 1.391 . S
C482 C481 1.391 . S
C482 H538 0.947 . S
C482 C539 1.392 . S
C483 C484 1.391 . S
C483 C487 1.397 . S
C483 C539 1.419 . S
C484 C480 1.391 . S
C484 C483 1.391 . S
C484 C485 1.399 . S
C485 C484 1.399 . S
C485 C488 1.396 . S
C485 C497 1.453 . S
C485 C498 1.684 . S
H486 C510 0.948 . S
C487 C483 1.397 . S
C487 C488 1.394 . S
C487 C506 1.723 . S
C488 C485 1.396 . S
C488 C487 1.394 . S
C488 C518 1.723 . S
H489 C512 0.947 . S
H490 C513 0.948 . S
H491 C519 0.982 . S
H492 C520 0.979 . S
H493 C520 0.980 . S
H494 C520 0.983 . S
H495 C519 0.979 . S
H496 C519 0.977 . S
C497 C485 1.453 . S
C497 H526 0.982 . S
C497 H527 0.979 . S
C497 H528 0.977 . S
C498 C485 1.684 . S
C498 H523 0.979 . S
C498 H524 0.980 . S
C498 H525 0.983 . S
C499 C500 1.391 . S
C499 C504 1.391 . S
C499 H529 0.948 . S
C500 C499 1.391 . S
C500 C501 1.391 . S
C501 C500 1.391 . S
C501 C502 1.392 . S
C501 H530 0.947 . S
C502 C501 1.392 . S
C502 C503 1.419 . S
C502 H531 0.948 . S
C503 C502 1.419 . S
C503 C504 1.391 . S
C503 C507 1.397 . S
C504 C499 1.391 . S
C504 C503 1.391 . S
C504 C505 1.399 . S
C505 C504 1.399 . S
C505 C506 1.396 . S
C505 C508 1.453 . S
C505 C509 1.684 . S
C506 C487 1.723 . S
C506 C505 1.396 . S
C506 C507 1.394 . S
C507 C503 1.397 . S
C507 C506 1.394 . S
C507 C517 1.723 . S
C508 C505 1.453 . S
C508 H532 0.982 . S
C508 H533 0.979 . S
C508 H534 0.977 . S
C509 C505 1.684 . S
C509 H535 0.979 . S
C509 H536 0.980 . S
C509 H537 0.983 . S
C510 H486 0.948 . S
C510 C511 1.391 . S
C510 C515 1.391 . S
C511 C510 1.391 . S
C511 C512 1.391 . S
C512 H489 0.947 . S
C512 C511 1.391 . S
C512 C513 1.392 . S
C513 H490 0.948 . S
C513 C512 1.392 . S
C513 C514 1.419 . S
C514 C513 1.419 . S
C514 C515 1.391 . S
C514 C518 1.397 . S
C515 C510 1.391 . S
C515 C514 1.391 . S
C515 C516 1.399 . S
C516 C515 1.399 . S
C516 C517 1.396 . S
C516 C519 1.453 . S
C516 C520 1.684 . S
C517 C507 1.723 . S
C517 C516 1.396 . S
C517 C518 1.394 . S
C518 C488 1.723 . S
C518 C514 1.397 . S
C518 C517 1.394 . S
C519 H491 0.982 . S
C519 H495 0.979 . S
C519 H496 0.977 . S
C519 C516 1.453 . S
C520 H492 0.979 . S
C520 H493 0.980 . S
C520 H494 0.983 . S
C520 C516 1.684 . S
H521 C539 0.948 . S
H522 C480 0.948 . S
H523 C498 0.979 . S
H524 C498 0.980 . S
H525 C498 0.983 . S
H526 C497 0.982 . S
H527 C497 0.979 . S
H528 C497 0.977 . S
H529 C499 0.948 . S
H530 C501 0.947 . S
H531 C502 0.948 . S
H532 C508 0.982 . S
H533 C508 0.979 . S
H534 C508 0.977 . S
H535 C509 0.979 . S
H536 C509 0.980 . S
H537 C509 0.983 . S
H538 C482 0.947 . S
C539 C482 1.392 . S
C539 C483 1.419 . S
C539 H521 0.948 . S
C540 C541 1.391 . S
C540 C544 1.391 . S
C540 H582 0.948 . S
C541 C540 1.391 . S
C541 C542 1.391 . S
C542 C541 1.391 . S
C542 H598 0.947 . S
C542 C599 1.392 . S
C543 C544 1.391 . S
C543 C547 1.397 . S
C543 C599 1.419 . S
C544 C540 1.391 . S
C544 C543 1.391 . S
C544 C545 1.399 . S
C545 C544 1.399 . S
C545 C548 1.396 . S
C545 C557 1.453 . S
C545 C558 1.684 . S
H546 C570 0.948 . S
C547 C543 1.397 . S
C547 C548 1.394 . S
C547 C566 1.723 . S
C548 C545 1.396 . S
C548 C547 1.394 . S
C548 C578 1.723 . S
H549 C572 0.947 . S
H550 C573 0.948 . S
H551 C579 0.982 . S
H552 C580 0.979 . S
H553 C580 0.980 . S
H554 C580 0.983 . S
H555 C579 0.979 . S
H556 C579 0.977 . S
C557 C545 1.453 . S
C557 H586 0.982 . S
C557 H587 0.979 . S
C557 H588 0.977 . S
C558 C545 1.684 . S
C558 H583 0.979 . S
C558 H584 0.980 . S
C558 H585 0.983 . S
C559 C560 1.391 . S
C559 C564 1.391 . S
C559 H589 0.948 . S
C560 C559 1.391 . S
C560 C561 1.391 . S
C561 C560 1.391 . S
C561 C562 1.392 . S
C561 H590 0.947 . S
C562 C561 1.392 . S
C562 C563 1.419 . S
C562 H591 0.948 . S
C563 C562 1.419 . S
C563 C564 1.391 . S
C563 C567 1.397 . S
C564 C559 1.391 . S
C564 C563 1.391 . S
C564 C565 1.399 . S
C565 C564 1.399 . S
C565 C566 1.396 . S
C565 C568 1.453 . S
C565 C569 1.684 . S
C566 C547 1.723 . S
C566 C565 1.396 . S
C566 C567 1.394 . S
C567 C563 1.397 . S
C567 C566 1.394 . S
C567 C577 1.723 . S
C568 C565 1.453 . S
C568 H592 0.982 . S
C568 H593 0.979 . S
C568 H594 0.977 . S
C569 C565 1.684 . S
C569 H595 0.979 . S
C569 H596 0.980 . S
C569 H597 0.983 . S
C570 H546 0.948 . S
C570 C571 1.391 . S
C570 C575 1.391 . S
C571 C570 1.391 . S
C571 C572 1.391 . S
C572 H549 0.947 . S
C572 C571 1.391 . S
C572 C573 1.392 . S
C573 H550 0.948 . S
C573 C572 1.392 . S
C573 C574 1.419 . S
C574 C573 1.419 . S
C574 C575 1.391 . S
C574 C578 1.397 . S
C575 C570 1.391 . S
C575 C574 1.391 . S
C575 C576 1.399 . S
C576 C575 1.399 . S
C576 C577 1.396 . S
C576 C579 1.453 . S
C576 C580 1.684 . S
C577 C567 1.723 . S
C577 C576 1.396 . S
C577 C578 1.394 . S
C578 C548 1.723 . S
C578 C574 1.397 . S
C578 C577 1.394 . S
C579 H551 0.982 . S
C579 H555 0.979 . S
C579 H556 0.977 . S
C579 C576 1.453 . S
C580 H552 0.979 . S
C580 H553 0.980 . S
C580 H554 0.983 . S
C580 C576 1.684 . S
H581 C599 0.948 . S
H582 C540 0.948 . S
H583 C558 0.979 . S
H584 C558 0.980 . S
H585 C558 0.983 . S
H586 C557 0.982 . S
H587 C557 0.979 . S
H588 C557 0.977 . S
H589 C559 0.948 . S
H590 C561 0.947 . S
H591 C562 0.948 . S
H592 C568 0.982 . S
H593 C568 0.979 . S
H594 C568 0.977 . S
H595 C569 0.979 . S
H596 C569 0.980 . S
H597 C569 0.983 . S
H598 C542 0.947 . S
C599 C542 1.392 . S
C599 C543 1.419 . S
C599 H581 0.948 . S
C600 C601 1.391 . S
C600 C604 1.391 . S
C600 H642 0.948 . S
C601 C600 1.391 . S
C601 C602 1.391 . S
C602 C601 1.391 . S
C602 H658 0.947 . S
C602 C659 1.392 . S
C603 C604 1.391 . S
C603 C607 1.397 . S
C603 C659 1.419 . S
C604 C600 1.391 . S
C604 C603 1.391 . S
C604 C605 1.399 . S
C605 C604 1.399 . S
C605 C608 1.396 . S
C605 C617 1.453 . S
C605 C618 1.684 . S
H606 C630 0.948 . S
C607 C603 1.397 . S
C607 C608 1.394 . S
C607 C626 1.723 . S
C608 C605 1.396 . S
C608 C607 1.394 . S
C608 C638 1.723 . S
H609 C632 0.947 . S
H610 C633 0.948 . S
H611 C639 0.982 . S
H612 C640 0.979 . S
H613 C640 0.980 . S
H614 C640 0.983 . S
H615 C639 0.979 . S
H616 C639 0.977 . S
C617 C605 1.453 . S
C617 H646 0.982 . S
C617 H647 0.979 . S
C617 H648 0.977 . S
C618 C605 1.684 . S
C618 H643 0.979 . S
C618 H644 0.980 . S
C618 H645 0.983 . S
C619 C620 1.391 . S
C619 C624 1.391 . S
C619 H649 0.948 . S
C620 C619 1.391 . S
C620 C621 1.391 . S
C621 C620 1.391 . S
C621 C622 1.392 . S
C621 H650 0.947 . S
C622 C621 1.392 . S
C622 C623 1.419 . S
C622 H651 0.948 . S
C623 C622 1.419 . S
C623 C624 1.391 . S
C623 C627 1.397 . S
C624 C619 1.391 . S
C624 C623 1.391 . S
C624 C625 1.399 . S
C625 C624 1.399 . S
C625 C626 1.396 . S
C625 C628 1.453 . S
C625 C629 1.684 . S
C626 C607 1.723 . S
C626 C625 1.396 . S
C626 C627 1.394 . S
C627 C623 1.397 . S
C627 C626 1.394 . S
C627 C637 1.723 . S
C628 C625 1.453 . S
C628 H652 0.982 . S
C628 H653 0.979 . S
C628 H654 0.977 . S
C629 C625 1.684 . S
C629 H655 0.979 . S
C629 H656 0.980 . S
C629 H657 0.983 . S
C630 H606 0.948 . S
C630 C631 1.391 . S
C630 C635 1.391 . S
C631 C630 1.391 . S
C631 C632 1.391 . S
C632 H609 0.947 . S
C632 C631 1.391 . S
C632 C633 1.392 . S
C633 H610 0.948 . S
C633 C632 1.392 . S
C633 C634 1.419 . S
C634 C633 1.419 . S
C634 C635 1.391 . S
C634 C638 1.397 . S
C635 C630 1.391 . S
C635 C634 1.391 . S
C635 C636 1.399 . S
C636 C635 1.399 . S
C636 C637 1.396 . S
C636 C639 1.453 . S
C636 C640 1.684 . S
C637 C627 1.723 . S
C637 C636 1.396 . S
C637 C638 1.394 . S
C638 C608 1.723 . S
C638 C634 1.397 . S
C638 C637 1.394 . S
C639 H611 0.982 . S
C639 H615 0.979 . S
C639 H616 0.977 . S
C639 C636 1.453 . S
C640 H612 0.979 . S
C640 H613 0.980 . S
C640 H614 0.983 . S
C640 C636 1.684 . S
H641 C659 0.948 . S
H642 C600 0.948 . S
H643 C618 0.979 . S
H644 C618 0.980 . S
H645 C618 0.983 . S
H646 C617 0.982 . S
H647 C617 0.979 . S
H648 C617 0.977 . S
H649 C619 0.948 . S
H650 C621 0.947 . S
H651 C622 0.948 . S
H652 C628 0.982 . S
H653 C628 0.979 . S
H654 C628 0.977 . S
H655 C629 0.979 . S
H656 C629 0.980 . S
H657 C629 0.983 . S
H658 C602 0.947 . S
C659 C602 1.392 . S
C659 C603 1.419 . S
C659 H641 0.948 . S
C660 C661 1.391 . S
C660 C664 1.391 . S
C660 H702 0.948 . S
C661 C660 1.391 . S
C661 C662 1.391 . S
C662 C661 1.391 . S
C662 H718 0.947 . S
C662 C719 1.392 . S
C663 C664 1.391 . S
C663 C667 1.397 . S
C663 C719 1.419 . S
C664 C660 1.391 . S
C664 C663 1.391 . S
C664 C665 1.399 . S
C665 C664 1.399 . S
C665 C668 1.396 . S
C665 C677 1.453 . S
C665 C678 1.684 . S
H666 C690 0.948 . S
C667 C663 1.397 . S
C667 C668 1.394 . S
C667 C686 1.723 . S
C668 C665 1.396 . S
C668 C667 1.394 . S
C668 C698 1.723 . S
H669 C692 0.947 . S
H670 C693 0.948 . S
H671 C699 0.982 . S
H672 C700 0.979 . S
H673 C700 0.980 . S
H674 C700 0.983 . S
H675 C699 0.979 . S
H676 C699 0.977 . S
C677 C665 1.453 . S
C677 H706 0.982 . S
C677 H707 0.979 . S
C677 H708 0.977 . S
C678 C665 1.684 . S
C678 H703 0.979 . S
C678 H704 0.980 . S
C678 H705 0.983 . S
C679 C680 1.391 . S
C679 C684 1.391 . S
C679 H709 0.948 . S
C680 C679 1.391 . S
C680 C681 1.391 . S
C681 C680 1.391 . S
C681 C682 1.392 . S
C681 H710 0.947 . S
C682 C681 1.392 . S
C682 C683 1.419 . S
C682 H711 0.948 . S
C683 C682 1.419 . S
C683 C684 1.391 . S
C683 C687 1.397 . S
C684 C679 1.391 . S
C684 C683 1.391 . S
C684 C685 1.399 . S
C685 C684 1.399 . S
C685 C686 1.396 . S
C685 C688 1.453 . S
C685 C689 1.684 . S
C686 C667 1.723 . S
C686 C685 1.396 . S
C686 C687 1.394 . S
C687 C683 1.397 . S
C687 C686 1.394 . S
C687 C697 1.723 . S
C688 C685 1.453 . S
C688 H712 0.982 . S
C688 H713 0.979 . S
C688 H714 0.977 . S
C689 C685 1.684 . S
C689 H715 0.979 . S
C689 H716 0.980 . S
C689 H717 0.983 . S
C690 H666 0.948 . S
C690 C691 1.391 . S
C690 C695 1.391 . S
C691 C690 1.391 . S
C691 C692 1.391 . S
C692 H669 0.947 . S
C692 C691 1.391 . S
C692 C693 1.392 . S
C693 H670 0.948 . S
C693 C692 1.392 . S
C693 C694 1.419 . S
C694 C693 1.419 . S
C694 C695 1.391 . S
C694 C698 1.397 . S
C695 C690 1.391 . S
C695 C694 1.391 . S
C695 C696 1.399 . S
C696 C695 1.399 . S
C696 C697 1.396 . S
C696 C699 1.453 . S
C696 C700 1.684 . S
C697 C687 1.723 . S
C697 C696 1.396 . S
C697 C698 1.394 . S
C698 C668 1.723 . S
C698 C694 1.397 . S
C698 C697 1.394 . S
C699 H671 0.982 . S
C699 H675 0.979 . S
C699 H676 0.977 . S
C699 C696 1.453 . S
C700 H672 0.979 . S
C700 H673 0.980 . S
C700 H674 0.983 . S
C700 C696 1.684 . S
H701 C719 0.948 . S
H702 C660 0.948 . S
H703 C678 0.979 . S
H704 C678 0.980 . S
H705 C678 0.983 . S
H706 C677 0.982 . S
H707 C677 0.979 . S
H708 C677 0.977 . S
H709 C679 0.948 . S
H710 C681 0.947 . S
H711 C682 0.948 . S
H712 C688 0.982 . S
H713 C688 0.979 . S
H714 C688 0.977 . S
H715 C689 0.979 . S
H716 C689 0.980 . S
H717 C689 0.983 . S
H718 C662 0.947 . S
C719 C662 1.392 . S
C719 C663 1.419 . S
C719 H701 0.948 . S
C720 C721 1.391 . S
C720 C724 1.391 . S
C720 H762 0.948 . S
C721 C720 1.391 . S
C721 C722 1.391 . S
C722 C721 1.391 . S
C722 H778 0.947 . S
C722 C779 1.392 . S
C723 C724 1.391 . S
C723 C727 1.397 . S
C723 C779 1.419 . S
C724 C720 1.391 . S
C724 C723 1.391 . S
C724 C725 1.399 . S
C725 C724 1.399 . S
C725 C728 1.396 . S
C725 C737 1.453 . S
C725 C738 1.684 . S
H726 C750 0.948 . S
C727 C723 1.397 . S
C727 C728 1.394 . S
C727 C746 1.723 . S
C728 C725 1.396 . S
C728 C727 1.394 . S
C728 C758 1.723 . S
H729 C752 0.947 . S
H730 C753 0.948 . S
H731 C759 0.982 . S
H732 C760 0.979 . S
H733 C760 0.980 . S
H734 C760 0.983 . S
H735 C759 0.979 . S
H736 C759 0.977 . S
C737 C725 1.453 . S
C737 H766 0.982 . S
C737 H767 0.979 . S
C737 H768 0.977 . S
C738 C725 1.684 . S
C738 H763 0.979 . S
C738 H764 0.980 . S
C738 H765 0.983 . S
C739 C740 1.391 . S
C739 C744 1.391 . S
C739 H769 0.948 . S
C740 C739 1.391 . S
C740 C741 1.391 . S
C741 C740 1.391 . S
C741 C742 1.392 . S
C741 H770 0.947 . S
C742 C741 1.392 . S
C742 C743 1.419 . S
C742 H771 0.948 . S
C743 C742 1.419 . S
C743 C744 1.391 . S
C743 C747 1.397 . S
C744 C739 1.391 . S
C744 C743 1.391 . S
C744 C745 1.399 . S
C745 C744 1.399 . S
C745 C746 1.396 . S
C745 C748 1.453 . S
C745 C749 1.684 . S
C746 C727 1.723 . S
C746 C745 1.396 . S
C746 C747 1.394 . S
C747 C743 1.397 . S
C747 C746 1.394 . S
C747 C757 1.723 . S
C748 C745 1.453 . S
C748 H772 0.982 . S
C748 H773 0.979 . S
C748 H774 0.977 . S
C749 C745 1.684 . S
C749 H775 0.979 . S
C749 H776 0.980 . S
C749 H777 0.983 . S
C750 H726 0.948 . S
C750 C751 1.391 . S
C750 C755 1.391 . S
C751 C750 1.391 . S
C751 C752 1.391 . S
C752 H729 0.947 . S
C752 C751 1.391 . S
C752 C753 1.392 . S
C753 H730 0.948 . S
C753 C752 1.392 . S
C753 C754 1.419 . S
C754 C753 1.419 . S
C754 C755 1.391 . S
C754 C758 1.397 . S
C755 C750 1.391 . S
C755 C754 1.391 . S
C755 C756 1.399 . S
C756 C755 1.399 . S
C756 C757 1.396 . S
C756 C759 1.453 . S
C756 C760 1.684 . S
C757 C747 1.723 . S
C757 C756 1.396 . S
C757 C758 1.394 . S
C758 C728 1.723 . S
C758 C754 1.397 . S
C758 C757 1.394 . S
C759 H731 0.982 . S
C759 H735 0.979 . S
C759 H736 0.977 . S
C759 C756 1.453 . S
C760 H732 0.979 . S
C760 H733 0.980 . S
C760 H734 0.983 . S
C760 C756 1.684 . S
H761 C779 0.948 . S
H762 C720 0.948 . S
H763 C738 0.979 . S
H764 C738 0.980 . S
H765 C738 0.983 . S
H766 C737 0.982 . S
H767 C737 0.979 . S
H768 C737 0.977 . S
H769 C739 0.948 . S
H770 C741 0.947 . S
H771 C742 0.948 . S
H772 C748 0.982 . S
H773 C748 0.979 . S
H774 C748 0.977 . S
H775 C749 0.979 . S
H776 C749 0.980 . S
H777 C749 0.983 . S
H778 C722 0.947 . S
C779 C722 1.392 . S
C779 C723 1.419 . S
C779 H761 0.948 . S
C780 C781 1.391 . S
C780 C784 1.391 . S
C780 H822 0.948 . S
C781 C780 1.391 . S
C781 C782 1.391 . S
C782 C781 1.391 . S
C782 H838 0.947 . S
C782 C839 1.392 . S
C783 C784 1.391 . S
C783 C787 1.397 . S
C783 C839 1.419 . S
C784 C780 1.391 . S
C784 C783 1.391 . S
C784 C785 1.399 . S
C785 C784 1.399 . S
C785 C788 1.396 . S
C785 C797 1.453 . S
C785 C798 1.684 . S
H786 C810 0.948 . S
C787 C783 1.397 . S
C787 C788 1.394 . S
C787 C806 1.723 . S
C788 C785 1.396 . S
C788 C787 1.394 . S
C788 C818 1.723 . S
H789 C812 0.947 . S
H790 C813 0.948 . S
H791 C819 0.982 . S
H792 C820 0.979 . S
H793 C820 0.980 . S
H794 C820 0.983 . S
H795 C819 0.979 . S
H796 C819 0.977 . S
C797 C785 1.453 . S
C797 H826 0.982 . S
C797 H827 0.979 . S
C797 H828 0.977 . S
C798 C785 1.684 . S
C798 H823 0.979 . S
C798 H824 0.980 . S
C798 H825 0.983 . S
C799 C800 1.391 . S
C799 C804 1.391 . S
C799 H829 0.948 . S
C800 C799 1.391 . S
C800 C801 1.391 . S
C801 C800 1.391 . S
C801 C802 1.392 . S
C801 H830 0.947 . S
C802 C801 1.392 . S
C802 C803 1.419 . S
C802 H831 0.948 . S
C803 C802 1.419 . S
C803 C804 1.391 . S
C803 C807 1.397 . S
C804 C799 1.391 . S
C804 C803 1.391 . S
C804 C805 1.399 . S
C805 C804 1.399 . S
C805 C806 1.396 . S
C805 C808 1.453 . S
C805 C809 1.684 . S
C806 C787 1.723 . S
C806 C805 1.396 . S
C806 C807 1.394 . S
C807 C803 1.397 . S
C807 C806 1.394 . S
C807 C817 1.723 . S
C808 C805 1.453 . S
C808 H832 0.982 . S
C808 H833 0.979 . S
C808 H834 0.977 . S
C809 C805 1.684 . S
C809 H835 0.979 . S
C809 H836 0.980 . S
C809 H837 0.983 . S
C810 H786 0.948 . S
C810 C811 1.391 . S
C810 C815 1.391 . S
C811 C810 1.391 . S
C811 C812 1.391 . S
C812 H789 0.947 . S
C812 C811 1.391 . S
C812 C813 1.392 . S
C813 H790 0.948 . S
C813 C812 1.392 . S
C813 C814 1.419 . S
C814 C813 1.419 . S
C814 C815 1.391 . S
C814 C818 1.397 . S
C815 C810 1.391 . S
C815 C814 1.391 . S
C815 C816 1.399 . S
C816 C815 1.399 . S
C816 C817 1.396 . S
C816 C819 1.453 . S
C816 C820 1.684 . S
C817 C807 1.723 . S
C817 C816 1.396 . S
C817 C818 1.394 . S
C818 C788 1.723 . S
C818 C814 1.397 . S
C818 C817 1.394 . S
C819 H791 0.982 . S
C819 H795 0.979 . S
C819 H796 0.977 . S
C819 C816 1.453 . S
C820 H792 0.979 . S
C820 H793 0.980 . S
C820 H794 0.983 . S
C820 C816 1.684 . S
H821 C839 0.948 . S
H822 C780 0.948 . S
H823 C798 0.979 . S
H824 C798 0.980 . S
H825 C798 0.983 . S
H826 C797 0.982 . S
H827 C797 0.979 . S
H828 C797 0.977 . S
H829 C799 0.948 . S
H830 C801 0.947 . S
H831 C802 0.948 . S
H832 C808 0.982 . S
H833 C808 0.979 . S
H834 C808 0.977 . S
H835 C809 0.979 . S
H836 C809 0.980 . S
H837 C809 0.983 . S
H838 C782 0.947 . S
C839 C782 1.392 . S
C839 C783 1.419 . S
C839 H821 0.948 . S
C840 C841 1.391 . S
C840 C844 1.391 . S
C840 H882 0.948 . S
C841 C840 1.391 . S
C841 C842 1.391 . S
C842 C841 1.391 . S
C842 H898 0.947 . S
C842 C899 1.392 . S
C843 C844 1.391 . S
C843 C847 1.397 . S
C843 C899 1.419 . S
C844 C840 1.391 . S
C844 C843 1.391 . S
C844 C845 1.399 . S
C845 C844 1.399 . S
C845 C848 1.396 . S
C845 C857 1.453 . S
C845 C858 1.684 . S
H846 C870 0.948 . S
C847 C843 1.397 . S
C847 C848 1.394 . S
C847 C866 1.723 . S
C848 C845 1.396 . S
C848 C847 1.394 . S
C848 C878 1.723 . S
H849 C872 0.947 . S
H850 C873 0.948 . S
H851 C879 0.982 . S
H852 C880 0.979 . S
H853 C880 0.980 . S
H854 C880 0.983 . S
H855 C879 0.979 . S
H856 C879 0.977 . S
C857 C845 1.453 . S
C857 H886 0.982 . S
C857 H887 0.979 . S
C857 H888 0.977 . S
C858 C845 1.684 . S
C858 H883 0.979 . S
C858 H884 0.980 . S
C858 H885 0.983 . S
C859 C860 1.391 . S
C859 C864 1.391 . S
C859 H889 0.948 . S
C860 C859 1.391 . S
C860 C861 1.391 . S
C861 C860 1.391 . S
C861 C862 1.392 . S
C861 H890 0.947 . S
C862 C861 1.392 . S
C862 C863 1.419 . S
C862 H891 0.948 . S
C863 C862 1.419 . S
C863 C864 1.391 . S
C863 C867 1.397 . S
C864 C859 1.391 . S
C864 C863 1.391 . S
C864 C865 1.399 . S
C865 C864 1.399 . S
C865 C866 1.396 . S
C865 C868 1.453 . S
C865 C869 1.684 . S
C866 C847 1.723 . S
C866 C865 1.396 . S
C866 C867 1.394 . S
C867 C863 1.397 . S
C867 C866 1.394 . S
C867 C877 1.723 . S
C868 C865 1.453 . S
C868 H892 0.982 . S
C868 H893 0.979 . S
C868 H894 0.977 . S
C869 C865 1.684 . S
C869 H895 0.979 . S
C869 H896 0.980 . S
C869 H897 0.983 . S
C870 H846 0.948 . S
C870 C871 1.391 . S
C870 C875 1.391 . S
C871 C870 1.391 . S
C871 C872 1.391 . S
C872 H849 0.947 . S
C872 C871 1.391 . S
C872 C873 1.392 . S
C873 H850 0.948 . S
C873 C872 1.392 . S
C873 C874 1.419 . S
C874 C873 1.419 . S
C874 C875 1.391 . S
C874 C878 1.397 . S
C875 C870 1.391 . S
C875 C874 1.391 . S
C875 C876 1.399 . S
C876 C875 1.399 . S
C876 C877 1.396 . S
C876 C879 1.453 . S
C876 C880 1.684 . S
C877 C867 1.723 . S
C877 C876 1.396 . S
C877 C878 1.394 . S
C878 C848 1.723 . S
C878 C874 1.397 . S
C878 C877 1.394 . S
C879 H851 0.982 . S
C879 H855 0.979 . S
C879 H856 0.977 . S
C879 C876 1.453 . S
C880 H852 0.979 . S
C880 H853 0.980 . S
C880 H854 0.983 . S
C880 C876 1.684 . S
H881 C899 0.948 . S
H882 C840 0.948 . S
H883 C858 0.979 . S
H884 C858 0.980 . S
H885 C858 0.983 . S
H886 C857 0.982 . S
H887 C857 0.979 . S
H888 C857 0.977 . S
H889 C859 0.948 . S
H890 C861 0.947 . S
H891 C862 0.948 . S
H892 C868 0.982 . S
H893 C868 0.979 . S
H894 C868 0.977 . S
H895 C869 0.979 . S
H896 C869 0.980 . S
H897 C869 0.983 . S
H898 C842 0.947 . S
C899 C842 1.392 . S
C899 C843 1.419 . S
C899 H881 0.948 . S
C900 C901 1.391 . S
C900 C904 1.391 . S
C900 H942 0.948 . S
C901 C900 1.391 . S
C901 C902 1.391 . S
C902 C901 1.391 . S
C902 H958 0.947 . S
C902 C959 1.392 . S
C903 C904 1.391 . S
C903 C907 1.397 . S
C903 C959 1.419 . S
C904 C900 1.391 . S
C904 C903 1.391 . S
C904 C905 1.399 . S
C905 C904 1.399 . S
C905 C908 1.396 . S
C905 C917 1.453 . S
C905 C918 1.684 . S
H906 C930 0.948 . S
C907 C903 1.397 . S
C907 C908 1.394 . S
C907 C926 1.723 . S
C908 C905 1.396 . S
C908 C907 1.394 . S
C908 C938 1.723 . S
H909 C932 0.947 1_554 S
H910 C933 0.948 . S
H911 C939 0.982 . S
H912 C940 0.979 . S
H913 C940 0.980 . S
H914 C940 0.983 . S
H915 C939 0.979 . S
H916 C939 0.977 . S
C917 C905 1.453 . S
C917 H946 0.982 . S
C917 H947 0.979 . S
C917 H948 0.977 . S
C918 C905 1.684 . S
C918 H943 0.979 . S
C918 H944 0.980 . S
C918 H945 0.982 . S
C919 C920 1.391 . S
C919 C924 1.391 . S
C919 H949 0.948 . S
C920 C919 1.391 . S
C920 C921 1.391 . S
C921 C920 1.391 . S
C921 C922 1.392 . S
C921 H950 0.947 . S
C922 C921 1.392 . S
C922 C923 1.419 . S
C922 H951 0.948 . S
C923 C922 1.419 . S
C923 C924 1.391 . S
C923 C927 1.397 . S
C924 C919 1.391 . S
C924 C923 1.391 . S
C924 C925 1.399 . S
C925 C924 1.399 . S
C925 C926 1.396 . S
C925 C928 1.453 . S
C925 C929 1.684 . S
C926 C907 1.723 . S
C926 C925 1.396 . S
C926 C927 1.394 . S
C927 C923 1.397 . S
C927 C926 1.394 . S
C927 C937 1.723 . S
C928 C925 1.453 . S
C928 H952 0.982 . S
C928 H953 0.979 . S
C928 H954 0.977 . S
C929 C925 1.684 . S
C929 H955 0.979 . S
C929 H956 0.980 . S
C929 H957 0.983 . S
C930 H906 0.948 . S
C930 C931 1.391 . S
C930 C935 1.391 . S
C931 C930 1.391 . S
C931 C932 1.391 . S
C932 H909 0.947 1_556 S
C932 C931 1.391 . S
C932 C933 1.392 . S
C933 H910 0.948 . S
C933 C932 1.392 . S
C933 C934 1.419 . S
C934 C933 1.419 . S
C934 C935 1.391 . S
C934 C938 1.397 . S
C935 C930 1.391 . S
C935 C934 1.391 . S
C935 C936 1.399 . S
C936 C935 1.399 . S
C936 C937 1.396 . S
C936 C939 1.453 . S
C936 C940 1.684 . S
C937 C927 1.723 . S
C937 C936 1.396 . S
C937 C938 1.394 . S
C938 C908 1.723 . S
C938 C934 1.397 . S
C938 C937 1.394 . S
C939 H911 0.982 . S
C939 H915 0.979 . S
C939 H916 0.977 . S
C939 C936 1.453 . S
C940 H912 0.979 . S
C940 H913 0.980 . S
C940 H914 0.983 . S
C940 C936 1.684 . S
H941 C959 0.948 . S
H942 C900 0.948 . S
H943 C918 0.979 . S
H944 C918 0.980 . S
H945 C918 0.982 . S
H946 C917 0.982 . S
H947 C917 0.979 . S
H948 C917 0.977 . S
H949 C919 0.948 . S
H950 C921 0.947 . S
H951 C922 0.948 . S
H952 C928 0.982 . S
H953 C928 0.979 . S
H954 C928 0.977 . S
H955 C929 0.979 . S
H956 C929 0.980 . S
H957 C929 0.983 . S
H958 C902 0.947 . S
C959 C902 1.392 . S
C959 C903 1.419 . S
C959 H941 0.948 . S
O960 Cd961 2.223 . S
O960 C968 1.315 . S
Cd961 O960 2.223 . S
Cd961 O964 2.297 . S
Cd961 O965 2.439 . S
Cd961 O971 2.240 . S
Cd962 O963 2.240 . S
Cd962 O970 2.223 . S
Cd962 O972 2.297 . S
Cd962 O973 2.439 . S
O963 Cd962 2.240 . S
O963 C968 1.279 . S
O964 Cd961 2.297 . S
O964 C966 1.247 . S
O965 Cd961 2.439 . S
O965 C966 1.208 . S
C966 O964 1.247 . S
C966 O965 1.208 . S
C967 O972 1.247 . S
C967 O973 1.208 . S
C968 O960 1.315 . S
C968 O963 1.279 . S
C969 O970 1.315 . S
C969 O971 1.279 . S
O970 Cd962 2.223 . S
O970 C969 1.315 . S
O971 Cd961 2.240 . S
O971 C969 1.279 . S
O972 Cd962 2.297 . S
O972 C967 1.247 . S
O973 Cd962 2.439 . S
O973 C967 1.208 . S
O974 Cd975 2.223 . S
O974 C982 1.315 . S
Cd975 O974 2.223 . S
Cd975 O978 2.297 . S
Cd975 O979 2.439 . S
Cd975 O985 2.240 . S
Cd976 O977 2.240 . S
Cd976 O984 2.223 . S
Cd976 O986 2.297 . S
Cd976 O987 2.439 . S
O977 Cd976 2.240 . S
O977 C982 1.279 . S
O978 Cd975 2.297 . S
O978 C980 1.247 . S
O979 Cd975 2.439 . S
O979 C980 1.208 . S
C980 O978 1.247 . S
C980 O979 1.208 . S
C981 O986 1.247 . S
C981 O987 1.208 . S
C982 O974 1.315 . S
C982 O977 1.279 . S
C983 O984 1.315 . S
C983 O985 1.279 . S
O984 Cd976 2.223 . S
O984 C983 1.315 . S
O985 Cd975 2.240 . S
O985 C983 1.279 . S
O986 Cd976 2.297 . S
O986 C981 1.247 . S
O987 Cd976 2.439 . S
O987 C981 1.208 . S
O988 Cd989 2.223 1_556 S
O988 C996 1.315 . S
Cd989 O988 2.223 1_554 S
Cd989 O992 2.297 . S
Cd989 O993 2.439 . S
Cd989 O999 2.240 . S
Cd990 O991 2.240 . S
Cd990 O998 2.223 . S
Cd990 O1000 2.297 1_556 S
Cd990 O1001 2.439 1_556 S
O991 Cd990 2.240 . S
O991 C996 1.279 . S
O992 Cd989 2.297 . S
O992 C994 1.247 . S
O993 Cd989 2.439 . S
O993 C994 1.208 . S
C994 O992 1.247 . S
C994 O993 1.208 . S
C995 O1000 1.247 . S
C995 O1001 1.208 . S
C996 O988 1.315 . S
C996 O991 1.279 . S
C997 O998 1.315 . S
C997 O999 1.279 1_556 S
O998 Cd990 2.223 . S
O998 C997 1.315 . S
O999 Cd989 2.240 . S
O999 C997 1.279 1_554 S
O1000 Cd990 2.297 1_554 S
O1000 C995 1.247 . S
O1001 Cd990 2.439 1_554 S
O1001 C995 1.208 . S
O1002 Cd1003 2.223 . S
O1002 C1010 1.315 . S
Cd1003 O1002 2.223 . S
Cd1003 O1006 2.297 . S
Cd1003 O1007 2.439 . S
Cd1003 O1013 2.240 . S
Cd1004 O1005 2.240 . S
Cd1004 O1012 2.223 . S
Cd1004 O1014 2.297 . S
Cd1004 O1015 2.439 . S
O1005 Cd1004 2.240 . S
O1005 C1010 1.279 . S
O1006 Cd1003 2.297 . S
O1006 C1008 1.247 . S
O1007 Cd1003 2.439 . S
O1007 C1008 1.208 . S
C1008 O1006 1.247 . S
C1008 O1007 1.208 . S
C1009 O1014 1.247 . S
C1009 O1015 1.208 . S
C1010 O1002 1.315 . S
C1010 O1005 1.279 . S
C1011 O1012 1.315 . S
C1011 O1013 1.279 . S
O1012 Cd1004 2.223 . S
O1012 C1011 1.315 . S
O1013 Cd1003 2.240 . S
O1013 C1011 1.279 . S
O1014 Cd1004 2.297 . S
O1014 C1009 1.247 . S
O1015 Cd1004 2.439 . S
O1015 C1009 1.208 . S
O1016 Cd1017 2.223 . S
O1016 C1024 1.315 . S
Cd1017 O1016 2.223 . S
Cd1017 O1020 2.297 . S
Cd1017 O1021 2.439 . S
Cd1017 O1027 2.240 . S
Cd1018 O1019 2.240 . S
Cd1018 O1026 2.223 . S
Cd1018 O1028 2.297 . S
Cd1018 O1029 2.439 . S
O1019 Cd1018 2.240 . S
O1019 C1024 1.279 . S
O1020 Cd1017 2.297 . S
O1020 C1022 1.247 . S
O1021 Cd1017 2.439 . S
O1021 C1022 1.208 . S
C1022 O1020 1.247 . S
C1022 O1021 1.208 . S
C1023 O1028 1.247 . S
C1023 O1029 1.208 . S
C1024 O1016 1.315 . S
C1024 O1019 1.279 . S
C1025 O1026 1.315 . S
C1025 O1027 1.279 . S
O1026 Cd1018 2.223 . S
O1026 C1025 1.315 . S
O1027 Cd1017 2.240 . S
O1027 C1025 1.279 . S
O1028 Cd1018 2.297 . S
O1028 C1023 1.247 . S
O1029 Cd1018 2.439 . S
O1029 C1023 1.208 . S
O1030 Cd1031 2.223 . S
O1030 C1038 1.315 . S
Cd1031 O1030 2.223 . S
Cd1031 O1034 2.297 . S
Cd1031 O1035 2.439 . S
Cd1031 O1041 2.240 . S
Cd1032 O1033 2.240 . S
Cd1032 O1040 2.223 . S
Cd1032 O1042 2.297 . S
Cd1032 O1043 2.439 . S
O1033 Cd1032 2.240 . S
O1033 C1038 1.279 . S
O1034 Cd1031 2.297 . S
O1034 C1036 1.247 . S
O1035 Cd1031 2.439 . S
O1035 C1036 1.208 . S
C1036 O1034 1.247 . S
C1036 O1035 1.208 . S
C1037 O1042 1.247 . S
C1037 O1043 1.208 . S
C1038 O1030 1.315 . S
C1038 O1033 1.279 . S
C1039 O1040 1.315 . S
C1039 O1041 1.279 . S
O1040 Cd1032 2.223 . S
O1040 C1039 1.315 . S
O1041 Cd1031 2.240 . S
O1041 C1039 1.279 . S
O1042 Cd1032 2.297 . S
O1042 C1037 1.247 . S
O1043 Cd1032 2.439 . S
O1043 C1037 1.208 . S
O1044 Cd1045 2.223 . S
O1044 C1052 1.315 . S
Cd1045 O1044 2.223 . S
Cd1045 O1048 2.297 . S
Cd1045 O1049 2.439 . S
Cd1045 O1055 2.240 . S
Cd1046 O1047 2.240 . S
Cd1046 O1054 2.223 . S
Cd1046 O1056 2.297 . S
Cd1046 O1057 2.439 . S
O1047 Cd1046 2.240 . S
O1047 C1052 1.279 . S
O1048 Cd1045 2.297 . S
O1048 C1050 1.247 . S
O1049 Cd1045 2.439 . S
O1049 C1050 1.208 . S
C1050 O1048 1.247 . S
C1050 O1049 1.208 . S
C1051 O1056 1.247 . S
C1051 O1057 1.208 . S
C1052 O1044 1.315 . S
C1052 O1047 1.279 . S
C1053 O1054 1.315 . S
C1053 O1055 1.279 . S
O1054 Cd1046 2.223 . S
O1054 C1053 1.315 . S
O1055 Cd1045 2.240 . S
O1055 C1053 1.279 . S
O1056 Cd1046 2.297 . S
O1056 C1051 1.247 . S
O1057 Cd1046 2.439 . S
O1057 C1051 1.208 . S
O1058 Cd1059 2.223 1_545 S
O1058 C1066 1.315 . S
Cd1059 O1058 2.223 1_565 S
Cd1059 O1062 2.297 . S
Cd1059 O1063 2.439 . S
Cd1059 O1069 2.240 1_565 S
Cd1060 O1061 2.240 . S
Cd1060 O1068 2.223 . S
Cd1060 O1070 2.297 . S
Cd1060 O1071 2.439 1_545 S
O1061 Cd1060 2.240 . S
O1061 C1066 1.279 . S
O1062 Cd1059 2.297 . S
O1062 C1064 1.247 . S
O1063 Cd1059 2.439 . S
O1063 C1064 1.208 . S
C1064 O1062 1.247 . S
C1064 O1063 1.208 . S
C1065 O1070 1.247 1_565 S
C1065 O1071 1.208 . S
C1066 O1058 1.315 . S
C1066 O1061 1.279 . S
C1067 O1068 1.315 . S
C1067 O1069 1.279 . S
O1068 Cd1060 2.223 . S
O1068 C1067 1.315 . S
O1069 Cd1059 2.240 1_545 S
O1069 C1067 1.279 . S
O1070 Cd1060 2.297 . S
O1070 C1065 1.247 1_545 S
O1071 Cd1060 2.439 1_565 S
O1071 C1065 1.208 . S
O1072 Cd1073 2.223 . S
O1072 C1080 1.315 . S
Cd1073 O1072 2.223 . S
Cd1073 O1076 2.297 1_655 S
Cd1073 O1077 2.439 1_655 S
Cd1073 O1083 2.240 . S
Cd1074 O1075 2.240 . S
Cd1074 O1082 2.223 1_455 S
Cd1074 O1084 2.297 . S
Cd1074 O1085 2.439 . S
O1075 Cd1074 2.240 . S
O1075 C1080 1.279 1_455 S
O1076 Cd1073 2.297 1_455 S
O1076 C1078 1.247 . S
O1077 Cd1073 2.439 1_455 S
O1077 C1078 1.208 . S
C1078 O1076 1.247 . S
C1078 O1077 1.208 . S
C1079 O1084 1.247 . S
C1079 O1085 1.208 . S
C1080 O1072 1.315 . S
C1080 O1075 1.279 1_655 S
C1081 O1082 1.315 . S
C1081 O1083 1.279 . S
O1082 Cd1074 2.223 1_655 S
O1082 C1081 1.315 . S
O1083 Cd1073 2.240 . S
O1083 C1081 1.279 . S
O1084 Cd1074 2.297 . S
O1084 C1079 1.247 . S
O1085 Cd1074 2.439 . S
O1085 C1079 1.208 . S
O1086 Cd1087 2.223 . S
O1086 C1094 1.315 . S
Cd1087 O1086 2.223 . S
Cd1087 O1090 2.297 . S
Cd1087 O1091 2.439 . S
Cd1087 O1097 2.240 . S
Cd1088 O1089 2.240 . S
Cd1088 O1096 2.223 . S
Cd1088 O1098 2.297 . S
Cd1088 O1099 2.439 . S
O1089 Cd1088 2.240 . S
O1089 C1094 1.279 . S
O1090 Cd1087 2.297 . S
O1090 C1092 1.247 . S
O1091 Cd1087 2.439 . S
O1091 C1092 1.208 . S
C1092 O1090 1.247 . S
C1092 O1091 1.208 . S
C1093 O1098 1.247 . S
C1093 O1099 1.208 . S
C1094 O1086 1.315 . S
C1094 O1089 1.279 . S
C1095 O1096 1.315 . S
C1095 O1097 1.279 . S
O1096 Cd1088 2.223 . S
O1096 C1095 1.315 . S
O1097 Cd1087 2.240 . S
O1097 C1095 1.279 . S
O1098 Cd1088 2.297 . S
O1098 C1093 1.247 . S
O1099 Cd1088 2.439 . S
O1099 C1093 1.208 . S
O1100 Cd1101 2.223 1_655 S
O1100 C1108 1.315 . S
Cd1101 O1100 2.223 1_455 S
Cd1101 O1104 2.297 . S
Cd1101 O1105 2.439 . S
Cd1101 O1111 2.240 . S
Cd1102 O1103 2.240 . S
Cd1102 O1110 2.223 . S
Cd1102 O1112 2.297 1_655 S
Cd1102 O1113 2.439 1_655 S
O1103 Cd1102 2.240 . S
O1103 C1108 1.279 . S
O1104 Cd1101 2.297 . S
O1104 C1106 1.247 . S
O1105 Cd1101 2.439 . S
O1105 C1106 1.208 . S
C1106 O1104 1.247 . S
C1106 O1105 1.208 . S
C1107 O1112 1.247 . S
C1107 O1113 1.208 . S
C1108 O1100 1.315 . S
C1108 O1103 1.279 . S
C1109 O1110 1.315 . S
C1109 O1111 1.279 1_655 S
O1110 Cd1102 2.223 . S
O1110 C1109 1.315 . S
O1111 Cd1101 2.240 . S
O1111 C1109 1.279 1_455 S
O1112 Cd1102 2.297 1_455 S
O1112 C1107 1.247 . S
O1113 Cd1102 2.439 1_455 S
O1113 C1107 1.208 . S
O1114 Cd1115 2.223 . S
O1114 C1122 1.315 . S
Cd1115 O1114 2.223 . S
Cd1115 O1118 2.297 . S
Cd1115 O1119 2.439 . S
Cd1115 O1125 2.240 . S
Cd1116 O1117 2.240 . S
Cd1116 O1124 2.223 . S
Cd1116 O1126 2.297 . S
Cd1116 O1127 2.439 . S
O1117 Cd1116 2.240 . S
O1117 C1122 1.279 . S
O1118 Cd1115 2.297 . S
O1118 C1120 1.247 . S
O1119 Cd1115 2.439 . S
O1119 C1120 1.208 . S
C1120 O1118 1.247 . S
C1120 O1119 1.208 . S
C1121 O1126 1.247 . S
C1121 O1127 1.208 . S
C1122 O1114 1.315 . S
C1122 O1117 1.279 . S
C1123 O1124 1.315 . S
C1123 O1125 1.279 . S
O1124 Cd1116 2.223 . S
O1124 C1123 1.315 . S
O1125 Cd1115 2.240 . S
O1125 C1123 1.279 . S
O1126 Cd1116 2.297 . S
O1126 C1121 1.247 . S
O1127 Cd1116 2.439 . S
O1127 C1121 1.208 . S
H1128 C1136 0.950 . S
H1129 C1141 0.950 . S
H1130 C1138 0.950 . S
H1131 C1140 0.950 . S
H1132 C1142 0.950 . S
H1133 C1144 0.950 . S
H1134 C1146 0.950 . S
H1135 C1147 0.950 . S
C1136 H1128 0.950 . S
C1136 C1137 1.386 . S
C1136 C1138 1.391 . S
C1137 C1136 1.386 . S
C1137 C1141 1.393 . S
C1138 H1130 0.950 . S
C1138 C1136 1.391 . S
C1138 C1139 1.400 . S
C1139 C1138 1.400 . S
C1139 C1140 1.398 . S
C1139 C1145 1.491 . S
C1140 H1131 0.950 . S
C1140 C1139 1.398 . S
C1140 C1141 1.391 . S
C1141 H1129 0.950 . S
C1141 C1137 1.393 . S
C1141 C1140 1.391 . S
C1142 H1132 0.950 . S
C1142 C1143 1.386 . S
C1142 C1144 1.391 . S
C1143 C1142 1.386 . S
C1143 C1147 1.393 . S
C1144 H1133 0.950 . S
C1144 C1142 1.391 . S
C1144 C1145 1.400 . S
C1145 C1139 1.491 . S
C1145 C1144 1.400 . S
C1145 C1146 1.398 . S
C1146 H1134 0.950 . S
C1146 C1145 1.398 . S
C1146 C1147 1.391 . S
C1147 H1135 0.950 . S
C1147 C1143 1.393 . S
C1147 C1146 1.391 . S
H1148 C1156 0.950 . S
H1149 C1161 0.950 . S
H1150 C1158 0.950 . S
H1151 C1160 0.950 . S
H1152 C1162 0.950 . S
H1153 C1164 0.950 . S
H1154 C1166 0.950 . S
H1155 C1167 0.950 . S
C1156 H1148 0.950 . S
C1156 C1157 1.386 1_455 S
C1156 C1158 1.391 . S
C1157 C1156 1.386 1_655 S
C1157 C1161 1.393 . S
C1158 H1150 0.950 . S
C1158 C1156 1.391 . S
C1158 C1159 1.400 . S
C1159 C1158 1.400 . S
C1159 C1160 1.398 1_455 S
C1159 C1165 1.491 . S
C1160 H1151 0.950 . S
C1160 C1159 1.398 1_655 S
C1160 C1161 1.391 . S
C1161 H1149 0.950 . S
C1161 C1157 1.393 . S
C1161 C1160 1.391 . S
C1162 H1152 0.950 . S
C1162 C1163 1.386 . S
C1162 C1164 1.391 . S
C1163 C1162 1.386 . S
C1163 C1167 1.393 . S
C1164 H1153 0.950 . S
C1164 C1162 1.391 . S
C1164 C1165 1.400 . S
C1165 C1159 1.491 . S
C1165 C1164 1.400 . S
C1165 C1166 1.398 . S
C1166 H1154 0.950 . S
C1166 C1165 1.398 . S
C1166 C1167 1.391 . S
C1167 H1155 0.950 . S
C1167 C1163 1.393 . S
C1167 C1166 1.391 . S
H1168 C1176 0.950 . S
H1169 C1181 0.950 . S
H1170 C1178 0.950 . S
H1171 C1180 0.950 . S
H1172 C1182 0.950 . S
H1173 C1184 0.950 . S
H1174 C1186 0.950 . S
H1175 C1187 0.950 . S
C1176 H1168 0.950 . S
C1176 C1177 1.386 . S
C1176 C1178 1.391 . S
C1177 C1176 1.386 . S
C1177 C1181 1.393 . S
C1178 H1170 0.950 . S
C1178 C1176 1.391 . S
C1178 C1179 1.400 . S
C1179 C1178 1.400 . S
C1179 C1180 1.398 . S
C1179 C1185 1.491 . S
C1180 H1171 0.950 . S
C1180 C1179 1.398 . S
C1180 C1181 1.391 . S
C1181 H1169 0.950 . S
C1181 C1177 1.393 . S
C1181 C1180 1.391 . S
C1182 H1172 0.950 . S
C1182 C1183 1.386 . S
C1182 C1184 1.391 . S
C1183 C1182 1.386 . S
C1183 C1187 1.393 . S
C1184 H1173 0.950 . S
C1184 C1182 1.391 . S
C1184 C1185 1.400 . S
C1185 C1179 1.491 . S
C1185 C1184 1.400 . S
C1185 C1186 1.398 . S
C1186 H1174 0.950 . S
C1186 C1185 1.398 . S
C1186 C1187 1.391 . S
C1187 H1175 0.950 . S
C1187 C1183 1.393 . S
C1187 C1186 1.391 . S
H1188 C1196 0.950 . S
H1189 C1201 0.950 . S
H1190 C1198 0.933 1_545 S
H1191 C1200 0.950 . S
H1192 C1202 0.950 . S
H1193 C1204 0.940 1_565 S
H1194 C1206 0.950 . S
H1195 C1207 0.950 . S
C1196 H1188 0.950 . S
C1196 C1197 1.386 . S
C1196 C1198 1.391 1_455 S
C1197 C1196 1.386 . S
C1197 C1201 1.393 1_455 S
C1198 H1190 0.933 1_565 S
C1198 C1196 1.391 1_655 S
C1198 C1199 1.400 . S
C1199 C1198 1.400 . S
C1199 C1200 1.398 . S
C1199 C1205 1.491 1_565 S
C1200 H1191 0.950 . S
C1200 C1199 1.398 . S
C1200 C1201 1.391 . S
C1201 H1189 0.950 . S
C1201 C1197 1.393 1_655 S
C1201 C1200 1.391 . S
C1202 H1192 0.950 . S
C1202 C1203 1.386 . S
C1202 C1204 1.391 . S
C1203 C1202 1.386 . S
C1203 C1207 1.393 . S
C1204 H1193 0.940 1_545 S
C1204 C1202 1.391 . S
C1204 C1205 1.400 . S
C1205 C1199 1.491 1_545 S
C1205 C1204 1.400 . S
C1205 C1206 1.398 . S
C1206 H1194 0.950 . S
C1206 C1205 1.398 . S
C1206 C1207 1.391 . S
C1207 H1195 0.950 . S
C1207 C1203 1.393 . S
C1207 C1206 1.391 . S
H1208 C1216 0.950 . S
H1209 C1221 0.950 . S
H1210 C1218 0.950 . S
H1211 C1220 0.950 . S
H1212 C1222 0.950 . S
H1213 C1224 0.950 . S
H1214 C1226 0.950 . S
H1215 C1227 0.950 . S
C1216 H1208 0.950 . S
C1216 C1217 1.386 . S
C1216 C1218 1.391 . S
C1217 C1216 1.386 . S
C1217 C1221 1.393 . S
C1218 H1210 0.950 . S
C1218 C1216 1.391 . S
C1218 C1219 1.400 . S
C1219 C1218 1.400 . S
C1219 C1220 1.398 . S
C1219 C1225 1.491 . S
C1220 H1211 0.950 . S
C1220 C1219 1.398 . S
C1220 C1221 1.391 . S
C1221 H1209 0.950 . S
C1221 C1217 1.393 . S
C1221 C1220 1.391 . S
C1222 H1212 0.950 . S
C1222 C1223 1.386 . S
C1222 C1224 1.391 . S
C1223 C1222 1.386 . S
C1223 C1227 1.393 . S
C1224 H1213 0.950 . S
C1224 C1222 1.391 . S
C1224 C1225 1.400 . S
C1225 C1219 1.491 . S
C1225 C1224 1.400 . S
C1225 C1226 1.398 . S
C1226 H1214 0.950 . S
C1226 C1225 1.398 . S
C1226 C1227 1.391 . S
C1227 H1215 0.950 . S
C1227 C1223 1.393 . S
C1227 C1226 1.391 . S
H1228 C1236 0.950 . S
H1229 C1241 0.950 . S
H1230 C1238 0.950 . S
H1231 C1240 0.950 . S
H1232 C1242 0.950 . S
H1233 C1244 0.950 . S
H1234 C1246 0.950 . S
H1235 C1247 0.950 . S
C1236 H1228 0.950 . S
C1236 C1237 1.386 . S
C1236 C1238 1.391 . S
C1237 C1236 1.386 . S
C1237 C1241 1.393 . S
C1238 H1230 0.950 . S
C1238 C1236 1.391 . S
C1238 C1239 1.400 . S
C1239 C1238 1.400 . S
C1239 C1240 1.398 . S
C1239 C1245 1.491 . S
C1240 H1231 0.950 . S
C1240 C1239 1.398 . S
C1240 C1241 1.391 . S
C1241 H1229 0.950 . S
C1241 C1237 1.393 . S
C1241 C1240 1.391 . S
C1242 H1232 0.950 . S
C1242 C1243 1.386 . S
C1242 C1244 1.391 . S
C1243 C1242 1.386 . S
C1243 C1247 1.393 . S
C1244 H1233 0.950 . S
C1244 C1242 1.391 . S
C1244 C1245 1.400 . S
C1245 C1239 1.491 . S
C1245 C1244 1.400 . S
C1245 C1246 1.398 . S
C1246 H1234 0.950 . S
C1246 C1245 1.398 . S
C1246 C1247 1.391 . S
C1247 H1235 0.950 . S
C1247 C1243 1.393 . S
C1247 C1246 1.391 . S
H1248 C1256 0.950 . S
H1249 C1261 0.950 . S
H1250 C1258 0.950 . S
H1251 C1260 0.950 . S
H1252 C1262 0.950 . S
H1253 C1264 0.950 . S
H1254 C1266 0.950 . S
H1255 C1267 0.950 . S
C1256 H1248 0.950 . S
C1256 C1257 1.386 . S
C1256 C1258 1.391 . S
C1257 C1256 1.386 . S
C1257 C1261 1.393 . S
C1258 H1250 0.950 . S
C1258 C1256 1.391 . S
C1258 C1259 1.400 . S
C1259 C1258 1.400 . S
C1259 C1260 1.398 . S
C1259 C1265 1.491 . S
C1260 H1251 0.950 . S
C1260 C1259 1.398 . S
C1260 C1261 1.391 . S
C1261 H1249 0.950 . S
C1261 C1257 1.393 . S
C1261 C1260 1.391 . S
C1262 H1252 0.950 . S
C1262 C1263 1.386 . S
C1262 C1264 1.391 . S
C1263 C1262 1.386 . S
C1263 C1267 1.393 . S
C1264 H1253 0.950 . S
C1264 C1262 1.391 . S
C1264 C1265 1.400 . S
C1265 C1259 1.491 . S
C1265 C1264 1.400 . S
C1265 C1266 1.398 . S
C1266 H1254 0.950 . S
C1266 C1265 1.398 . S
C1266 C1267 1.391 . S
C1267 H1255 0.950 . S
C1267 C1263 1.393 . S
C1267 C1266 1.391 . S
H1268 C1276 0.950 . S
H1269 C1281 0.950 . S
H1270 C1278 0.950 . S
H1271 C1280 0.950 . S
H1272 C1282 0.950 . S
H1273 C1284 0.950 . S
H1274 C1286 0.950 . S
H1275 C1287 0.950 . S
C1276 H1268 0.950 . S
C1276 C1277 1.386 . S
C1276 C1278 1.391 . S
C1277 C1276 1.386 . S
C1277 C1281 1.393 . S
C1278 H1270 0.950 . S
C1278 C1276 1.391 . S
C1278 C1279 1.400 . S
C1279 C1278 1.400 . S
C1279 C1280 1.398 . S
C1279 C1285 1.491 . S
C1280 H1271 0.950 . S
C1280 C1279 1.398 . S
C1280 C1281 1.391 . S
C1281 H1269 0.950 . S
C1281 C1277 1.393 . S
C1281 C1280 1.391 . S
C1282 H1272 0.950 . S
C1282 C1283 1.386 . S
C1282 C1284 1.391 . S
C1283 C1282 1.386 . S
C1283 C1287 1.393 . S
C1284 H1273 0.950 . S
C1284 C1282 1.391 . S
C1284 C1285 1.400 . S
C1285 C1279 1.491 . S
C1285 C1284 1.400 . S
C1285 C1286 1.398 . S
C1286 H1274 0.950 . S
C1286 C1285 1.398 . S
C1286 C1287 1.391 . S
C1287 H1275 0.950 . S
C1287 C1283 1.393 . S
C1287 C1286 1.391 . S
H1288 C1296 0.950 . S
H1289 C1301 0.950 . S
H1290 C1298 0.950 . S
H1291 C1300 0.950 . S
H1292 C1302 0.950 . S
H1293 C1304 0.950 . S
H1294 C1306 0.950 . S
H1295 C1307 0.950 . S
C1296 H1288 0.950 . S
C1296 C1297 1.386 . S
C1296 C1298 1.391 . S
C1297 C1296 1.386 . S
C1297 C1301 1.393 . S
C1298 H1290 0.950 . S
C1298 C1296 1.391 . S
C1298 C1299 1.400 . S
C1299 C1298 1.400 . S
C1299 C1300 1.398 . S
C1299 C1305 1.491 . S
C1300 H1291 0.950 . S
C1300 C1299 1.398 . S
C1300 C1301 1.391 . S
C1301 H1289 0.950 . S
C1301 C1297 1.393 . S
C1301 C1300 1.391 . S
C1302 H1292 0.950 . S
C1302 C1303 1.386 . S
C1302 C1304 1.391 . S
C1303 C1302 1.386 . S
C1303 C1307 1.393 . S
C1304 H1293 0.950 . S
C1304 C1302 1.391 . S
C1304 C1305 1.400 . S
C1305 C1299 1.491 . S
C1305 C1304 1.400 . S
C1305 C1306 1.398 . S
C1306 H1294 0.950 . S
C1306 C1305 1.398 . S
C1306 C1307 1.391 . S
C1307 H1295 0.950 . S
C1307 C1303 1.393 . S
C1307 C1306 1.391 . S
H1308 C1316 0.950 . S
H1309 C1321 0.950 . S
H1310 C1318 0.950 . S
H1311 C1320 0.950 . S
H1312 C1322 0.950 . S
H1313 C1324 0.950 . S
H1314 C1326 0.950 . S
H1315 C1327 0.950 . S
C1316 H1308 0.950 . S
C1316 C1317 1.386 . S
C1316 C1318 1.391 . S
C1317 C1316 1.386 . S
C1317 C1321 1.393 . S
C1318 H1310 0.950 . S
C1318 C1316 1.391 . S
C1318 C1319 1.400 . S
C1319 C1318 1.400 . S
C1319 C1320 1.398 . S
C1319 C1325 1.491 . S
C1320 H1311 0.950 . S
C1320 C1319 1.398 . S
C1320 C1321 1.391 . S
C1321 H1309 0.950 . S
C1321 C1317 1.393 . S
C1321 C1320 1.391 . S
C1322 H1312 0.950 . S
C1322 C1323 1.386 . S
C1322 C1324 1.391 . S
C1323 C1322 1.386 . S
C1323 C1327 1.393 . S
C1324 H1313 0.950 . S
C1324 C1322 1.391 . S
C1324 C1325 1.400 . S
C1325 C1319 1.491 . S
C1325 C1324 1.400 . S
C1325 C1326 1.398 . S
C1326 H1314 0.950 . S
C1326 C1325 1.398 . S
C1326 C1327 1.391 . S
C1327 H1315 0.950 . S
C1327 C1323 1.393 . S
C1327 C1326 1.391 . S
H1328 C1336 0.950 . S
H1329 C1341 0.950 . S
H1330 C1338 0.950 . S
H1331 C1340 0.950 . S
H1332 C1342 0.950 . S
H1333 C1344 0.950 . S
H1334 C1346 0.950 . S
H1335 C1347 0.950 . S
C1336 H1328 0.950 . S
C1336 C1337 1.386 . S
C1336 C1338 1.391 . S
C1337 C1336 1.386 . S
C1337 C1341 1.393 . S
C1338 H1330 0.950 . S
C1338 C1336 1.391 . S
C1338 C1339 1.400 . S
C1339 C1338 1.400 . S
C1339 C1340 1.398 . S
C1339 C1345 1.491 . S
C1340 H1331 0.950 . S
C1340 C1339 1.398 . S
C1340 C1341 1.391 . S
C1341 H1329 0.950 . S
C1341 C1337 1.393 . S
C1341 C1340 1.391 . S
C1342 H1332 0.950 . S
C1342 C1343 1.386 . S
C1342 C1344 1.391 . S
C1343 C1342 1.386 . S
C1343 C1347 1.393 . S
C1344 H1333 0.950 . S
C1344 C1342 1.391 . S
C1344 C1345 1.400 . S
C1345 C1339 1.491 . S
C1345 C1344 1.400 . S
C1345 C1346 1.398 . S
C1346 H1334 0.950 . S
C1346 C1345 1.398 . S
C1346 C1347 1.391 . S
C1347 H1335 0.950 . S
C1347 C1343 1.393 . S
C1347 C1346 1.391 . S
H1348 C1356 0.950 . S
H1349 C1361 0.950 . S
H1350 C1358 0.950 . S
H1351 C1360 0.950 . S
H1352 C1362 0.950 . S
H1353 C1364 0.950 . S
H1354 C1366 0.950 . S
H1355 C1367 0.950 . S
C1356 H1348 0.950 . S
C1356 C1357 1.386 . S
C1356 C1358 1.391 . S
C1357 C1356 1.386 . S
C1357 C1361 1.393 . S
C1358 H1350 0.950 . S
C1358 C1356 1.391 . S
C1358 C1359 1.400 . S
C1359 C1358 1.400 . S
C1359 C1360 1.398 . S
C1359 C1365 1.491 . S
C1360 H1351 0.950 . S
C1360 C1359 1.398 . S
C1360 C1361 1.391 . S
C1361 H1349 0.950 . S
C1361 C1357 1.393 . S
C1361 C1360 1.391 . S
C1362 H1352 0.950 . S
C1362 C1363 1.386 . S
C1362 C1364 1.391 . S
C1363 C1362 1.386 . S
C1363 C1367 1.393 . S
C1364 H1353 0.950 . S
C1364 C1362 1.391 . S
C1364 C1365 1.400 . S
C1365 C1359 1.491 . S
C1365 C1364 1.400 . S
C1365 C1366 1.398 . S
C1366 H1354 0.950 . S
C1366 C1365 1.398 . S
C1366 C1367 1.391 . S
C1367 H1355 0.950 . S
C1367 C1363 1.393 . S
C1367 C1366 1.391 . S
H1368 C1376 0.950 . S
H1369 C1381 0.950 . S
H1370 C1378 0.950 . S
H1371 C1380 0.950 . S
H1372 C1382 0.950 . S
H1373 C1384 0.950 . S
H1374 C1386 0.950 . S
H1375 C1387 0.950 . S
C1376 H1368 0.950 . S
C1376 C1377 1.386 . S
C1376 C1378 1.391 . S
C1377 C1376 1.386 . S
C1377 C1381 1.393 . S
C1378 H1370 0.950 . S
C1378 C1376 1.391 . S
C1378 C1379 1.400 . S
C1379 C1378 1.400 . S
C1379 C1380 1.398 . S
C1379 C1385 1.491 . S
C1380 H1371 0.950 . S
C1380 C1379 1.398 . S
C1380 C1381 1.391 . S
C1381 H1369 0.950 . S
C1381 C1377 1.393 . S
C1381 C1380 1.391 . S
C1382 H1372 0.950 . S
C1382 C1383 1.386 . S
C1382 C1384 1.391 . S
C1383 C1382 1.386 . S
C1383 C1387 1.393 . S
C1384 H1373 0.950 . S
C1384 C1382 1.391 . S
C1384 C1385 1.400 . S
C1385 C1379 1.491 . S
C1385 C1384 1.400 . S
C1385 C1386 1.398 . S
C1386 H1374 0.950 . S
C1386 C1385 1.398 . S
C1386 C1387 1.391 . S
C1387 H1375 0.950 . S
C1387 C1383 1.393 . S
C1387 C1386 1.391 . S
H1388 C1396 0.950 . S
H1389 C1401 0.950 . S
H1390 C1398 0.950 . S
H1391 C1400 0.950 . S
H1392 C1402 0.950 . S
H1393 C1404 0.950 . S
H1394 C1406 0.950 . S
H1395 C1407 0.950 . S
C1396 H1388 0.950 . S
C1396 C1397 1.386 . S
C1396 C1398 1.391 . S
C1397 C1396 1.386 . S
C1397 C1401 1.393 . S
C1398 H1390 0.950 . S
C1398 C1396 1.391 . S
C1398 C1399 1.400 . S
C1399 C1398 1.400 . S
C1399 C1400 1.398 . S
C1399 C1405 1.491 . S
C1400 H1391 0.950 . S
C1400 C1399 1.398 . S
C1400 C1401 1.391 . S
C1401 H1389 0.950 . S
C1401 C1397 1.393 . S
C1401 C1400 1.391 . S
C1402 H1392 0.950 . S
C1402 C1403 1.386 . S
C1402 C1404 1.391 . S
C1403 C1402 1.386 . S
C1403 C1407 1.393 . S
C1404 H1393 0.950 . S
C1404 C1402 1.391 . S
C1404 C1405 1.400 . S
C1405 C1399 1.491 . S
C1405 C1404 1.400 . S
C1405 C1406 1.398 . S
C1406 H1394 0.950 . S
C1406 C1405 1.398 . S
C1406 C1407 1.391 . S
C1407 H1395 0.950 . S
C1407 C1403 1.393 . S
C1407 C1406 1.391 . S
H1408 C1416 0.950 . S
H1409 C1421 0.950 . S
H1410 C1418 0.950 . S
H1411 C1420 0.950 . S
H1412 C1422 0.950 . S
H1413 C1424 0.950 . S
H1414 C1426 0.950 . S
H1415 C1427 0.950 . S
C1416 H1408 0.950 . S
C1416 C1417 1.386 . S
C1416 C1418 1.391 . S
C1417 C1416 1.386 . S
C1417 C1421 1.393 . S
C1418 H1410 0.950 . S
C1418 C1416 1.391 . S
C1418 C1419 1.400 . S
C1419 C1418 1.400 . S
C1419 C1420 1.398 . S
C1419 C1425 1.491 . S
C1420 H1411 0.950 . S
C1420 C1419 1.398 . S
C1420 C1421 1.391 . S
C1421 H1409 0.950 . S
C1421 C1417 1.393 . S
C1421 C1420 1.391 . S
C1422 H1412 0.950 . S
C1422 C1423 1.386 . S
C1422 C1424 1.391 . S
C1423 C1422 1.386 . S
C1423 C1427 1.393 . S
C1424 H1413 0.950 . S
C1424 C1422 1.391 . S
C1424 C1425 1.400 . S
C1425 C1419 1.491 . S
C1425 C1424 1.400 . S
C1425 C1426 1.398 . S
C1426 H1414 0.950 . S
C1426 C1425 1.398 . S
C1426 C1427 1.391 . S
C1427 H1415 0.950 . S
C1427 C1423 1.393 . S
C1427 C1426 1.391 . S
H1428 C1436 0.950 . S
H1429 C1441 0.950 . S
H1430 C1438 0.950 . S
H1431 C1440 0.950 . S
H1432 C1442 0.950 . S
H1433 C1444 0.950 . S
H1434 C1446 0.950 . S
H1435 C1447 0.950 . S
C1436 H1428 0.950 . S
C1436 C1437 1.386 . S
C1436 C1438 1.391 . S
C1437 C1436 1.386 . S
C1437 C1441 1.393 . S
C1438 H1430 0.950 . S
C1438 C1436 1.391 . S
C1438 C1439 1.400 . S
C1439 C1438 1.400 . S
C1439 C1440 1.398 . S
C1439 C1445 1.491 . S
C1440 H1431 0.950 . S
C1440 C1439 1.398 . S
C1440 C1441 1.391 . S
C1441 H1429 0.950 . S
C1441 C1437 1.393 . S
C1441 C1440 1.391 . S
C1442 H1432 0.950 . S
C1442 C1443 1.386 . S
C1442 C1444 1.391 . S
C1443 C1442 1.386 . S
C1443 C1447 1.393 . S
C1444 H1433 0.950 . S
C1444 C1442 1.391 . S
C1444 C1445 1.400 . S
C1445 C1439 1.491 . S
C1445 C1444 1.400 . S
C1445 C1446 1.398 . S
C1446 H1434 0.950 . S
C1446 C1445 1.398 . S
C1446 C1447 1.391 . S
C1447 H1435 0.950 . S
C1447 C1443 1.393 . S
C1447 C1446 1.391 . S
H1448 C1456 0.950 . S
H1449 C1461 0.950 . S
H1450 C1458 0.950 . S
H1451 C1460 0.950 . S
H1452 C1462 0.950 . S
H1453 C1464 0.950 . S
H1454 C1466 0.950 . S
H1455 C1467 0.950 1_545 S
C1456 H1448 0.950 . S
C1456 C1457 1.386 . S
C1456 C1458 1.391 . S
C1457 C1456 1.386 . S
C1457 C1461 1.393 . S
C1458 H1450 0.950 . S
C1458 C1456 1.391 . S
C1458 C1459 1.400 . S
C1459 C1458 1.400 . S
C1459 C1460 1.398 . S
C1459 C1465 1.491 . S
C1460 H1451 0.950 . S
C1460 C1459 1.398 . S
C1460 C1461 1.391 . S
C1461 H1449 0.950 . S
C1461 C1457 1.393 . S
C1461 C1460 1.391 . S
C1462 H1452 0.950 . S
C1462 C1463 1.386 1_565 S
C1462 C1464 1.391 . S
C1463 C1462 1.386 1_545 S
C1463 C1467 1.393 1_545 S
C1464 H1453 0.950 . S
C1464 C1462 1.391 . S
C1464 C1465 1.400 . S
C1465 C1459 1.491 . S
C1465 C1464 1.400 . S
C1465 C1466 1.398 . S
C1466 H1454 0.950 . S
C1466 C1465 1.398 . S
C1466 C1467 1.391 . S
C1467 H1455 0.950 1_565 S
C1467 C1463 1.393 1_565 S
C1467 C1466 1.391 . S
H1468 C1476 0.950 . S
H1469 C1481 0.950 . S
H1470 C1478 0.950 . S
H1471 C1480 0.950 . S
H1472 C1482 0.950 . S
H1473 C1484 0.950 . S
H1474 C1486 0.950 . S
H1475 C1487 0.950 . S
C1476 H1468 0.950 . S
C1476 C1477 1.386 . S
C1476 C1478 1.391 . S
C1477 C1476 1.386 . S
C1477 C1481 1.393 . S
C1478 H1470 0.950 . S
C1478 C1476 1.391 . S
C1478 C1479 1.400 . S
C1479 C1478 1.400 . S
C1479 C1480 1.398 . S
C1479 C1485 1.491 . S
C1480 H1471 0.950 . S
C1480 C1479 1.398 . S
C1480 C1481 1.391 . S
C1481 H1469 0.950 . S
C1481 C1477 1.393 . S
C1481 C1480 1.391 . S
C1482 H1472 0.950 . S
C1482 C1483 1.386 . S
C1482 C1484 1.391 . S
C1483 C1482 1.386 . S
C1483 C1487 1.393 . S
C1484 H1473 0.950 . S
C1484 C1482 1.391 . S
C1484 C1485 1.400 . S
C1485 C1479 1.491 . S
C1485 C1484 1.400 . S
C1485 C1486 1.398 . S
C1486 H1474 0.950 . S
C1486 C1485 1.398 . S
C1486 C1487 1.391 . S
C1487 H1475 0.950 . S
C1487 C1483 1.393 . S
C1487 C1486 1.391 . S
H1488 C1496 0.950 . S
H1489 C1501 0.950 . S
H1490 C1498 0.950 . S
H1491 C1500 0.950 1_565 S
H1492 C1502 0.950 . S
H1493 C1504 0.950 . S
H1494 C1506 0.950 . S
H1495 C1507 0.950 . S
C1496 H1488 0.950 . S
C1496 C1497 1.386 . S
C1496 C1498 1.391 . S
C1497 C1496 1.386 . S
C1497 C1501 1.393 . S
C1498 H1490 0.950 . S
C1498 C1496 1.391 . S
C1498 C1499 1.413 . S
C1499 C1498 1.413 . S
C1499 C1500 1.398 . S
C1499 C1505 1.479 1_545 S
C1500 H1491 0.950 1_545 S
C1500 C1499 1.398 . S
C1500 C1501 1.391 . S
C1501 H1489 0.950 . S
C1501 C1497 1.393 . S
C1501 C1500 1.391 . S
C1502 H1492 0.950 . S
C1502 C1503 1.386 . S
C1502 C1504 1.391 . S
C1503 C1502 1.386 . S
C1503 C1507 1.393 . S
C1504 H1493 0.950 . S
C1504 C1502 1.391 . S
C1504 C1505 1.400 1_554 S
C1505 C1499 1.479 1_565 S
C1505 C1504 1.400 1_556 S
C1505 C1506 1.398 . S
C1506 H1494 0.950 . S
C1506 C1505 1.398 . S
C1506 C1507 1.391 1_556 S
C1507 H1495 0.950 . S
C1507 C1503 1.393 . S
C1507 C1506 1.391 1_554 S
H1508 C1516 0.950 . S
H1509 C1521 0.950 . S
H1510 C1518 0.950 . S
H1511 C1520 0.950 . S
H1512 C1522 0.950 . S
H1513 C1524 0.950 . S
H1514 C1526 0.950 . S
H1515 C1527 0.950 . S
C1516 H1508 0.950 . S
C1516 C1517 1.386 . S
C1516 C1518 1.391 . S
C1517 C1516 1.386 . S
C1517 C1521 1.393 . S
C1518 H1510 0.950 . S
C1518 C1516 1.391 . S
C1518 C1519 1.400 . S
C1519 C1518 1.400 . S
C1519 C1520 1.398 . S
C1519 C1525 1.491 . S
C1520 H1511 0.950 . S
C1520 C1519 1.398 . S
C1520 C1521 1.391 . S
C1521 H1509 0.950 . S
C1521 C1517 1.393 . S
C1521 C1520 1.391 . S
C1522 H1512 0.950 . S
C1522 C1523 1.386 . S
C1522 C1524 1.391 . S
C1523 C1522 1.386 . S
C1523 C1527 1.393 . S
C1524 H1513 0.950 . S
C1524 C1522 1.391 . S
C1524 C1525 1.400 . S
C1525 C1519 1.491 . S
C1525 C1524 1.400 . S
C1525 C1526 1.398 . S
C1526 H1514 0.950 . S
C1526 C1525 1.398 . S
C1526 C1527 1.391 . S
C1527 H1515 0.950 . S
C1527 C1523 1.393 . S
C1527 C1526 1.391 . S
H1528 C1536 0.950 . S
H1529 C1541 0.950 . S
H1530 C1538 0.950 . S
H1531 C1540 0.950 . S
H1532 C1542 0.950 . S
H1533 C1544 0.950 . S
H1534 C1546 0.950 . S
H1535 C1547 0.950 . S
C1536 H1528 0.950 . S
C1536 C1537 1.386 . S
C1536 C1538 1.391 . S
C1537 C1536 1.386 . S
C1537 C1541 1.393 . S
C1538 H1530 0.950 . S
C1538 C1536 1.391 . S
C1538 C1539 1.400 . S
C1539 C1538 1.400 . S
C1539 C1540 1.398 . S
C1539 C1545 1.491 . S
C1540 H1531 0.950 . S
C1540 C1539 1.398 . S
C1540 C1541 1.391 . S
C1541 H1529 0.950 . S
C1541 C1537 1.393 . S
C1541 C1540 1.391 . S
C1542 H1532 0.950 . S
C1542 C1543 1.386 . S
C1542 C1544 1.391 . S
C1543 C1542 1.386 . S
C1543 C1547 1.393 . S
C1544 H1533 0.950 . S
C1544 C1542 1.391 . S
C1544 C1545 1.400 . S
C1545 C1539 1.491 . S
C1545 C1544 1.400 . S
C1545 C1546 1.398 . S
C1546 H1534 0.950 . S
C1546 C1545 1.398 . S
C1546 C1547 1.391 . S
C1547 H1535 0.950 . S
C1547 C1543 1.393 . S
C1547 C1546 1.391 . S
H1548 C1556 0.950 . S
H1549 C1561 0.950 . S
H1550 C1558 0.950 . S
H1551 C1560 0.950 . S
H1552 C1562 0.950 . S
H1553 C1564 0.950 . S
H1554 C1566 0.950 . S
H1555 C1567 0.950 . S
C1556 H1548 0.950 . S
C1556 C1557 1.386 . S
C1556 C1558 1.391 . S
C1557 C1556 1.386 . S
C1557 C1561 1.393 . S
C1558 H1550 0.950 . S
C1558 C1556 1.391 . S
C1558 C1559 1.400 . S
C1559 C1558 1.400 . S
C1559 C1560 1.398 . S
C1559 C1565 1.491 . S
C1560 H1551 0.950 . S
C1560 C1559 1.398 . S
C1560 C1561 1.391 . S
C1561 H1549 0.950 . S
C1561 C1557 1.393 . S
C1561 C1560 1.391 . S
C1562 H1552 0.950 . S
C1562 C1563 1.386 . S
C1562 C1564 1.391 . S
C1563 C1562 1.386 . S
C1563 C1567 1.393 . S
C1564 H1553 0.950 . S
C1564 C1562 1.391 . S
C1564 C1565 1.400 . S
C1565 C1559 1.491 . S
C1565 C1564 1.400 . S
C1565 C1566 1.398 . S
C1566 H1554 0.950 . S
C1566 C1565 1.398 . S
C1566 C1567 1.391 . S
C1567 H1555 0.950 . S
C1567 C1563 1.393 . S
C1567 C1566 1.391 . S
H1568 C1576 0.950 . S
H1569 C1581 0.950 . S
H1570 C1578 0.950 . S
H1571 C1580 0.950 . S
H1572 C1582 0.950 . S
H1573 C1584 0.950 . S
H1574 C1586 0.950 . S
H1575 C1587 0.950 . S
C1576 H1568 0.950 . S
C1576 C1577 1.386 . S
C1576 C1578 1.391 1_565 S
C1577 C1576 1.386 . S
C1577 C1581 1.393 1_565 S
C1578 H1570 0.950 . S
C1578 C1576 1.391 1_545 S
C1578 C1579 1.400 . S
C1579 C1578 1.400 . S
C1579 C1580 1.398 . S
C1579 C1585 1.491 . S
C1580 H1571 0.950 . S
C1580 C1579 1.398 . S
C1580 C1581 1.391 . S
C1581 H1569 0.950 . S
C1581 C1577 1.393 1_545 S
C1581 C1580 1.391 . S
C1582 H1572 0.950 . S
C1582 C1583 1.386 . S
C1582 C1584 1.391 . S
C1583 C1582 1.386 . S
C1583 C1587 1.393 . S
C1584 H1573 0.950 . S
C1584 C1582 1.391 . S
C1584 C1585 1.400 . S
C1585 C1579 1.491 . S
C1585 C1584 1.400 . S
C1585 C1586 1.398 . S
C1586 H1574 0.950 . S
C1586 C1585 1.398 . S
C1586 C1587 1.391 . S
C1587 H1575 0.950 . S
C1587 C1583 1.393 . S
C1587 C1586 1.391 . S
H1588 C1596 0.950 . S
H1589 C1601 0.950 . S
H1590 C1598 0.950 . S
H1591 C1600 0.950 . S
H1592 C1602 0.950 . S
H1593 C1604 0.950 . S
H1594 C1606 0.950 . S
H1595 C1607 0.950 . S
C1596 H1588 0.950 . S
C1596 C1597 1.386 . S
C1596 C1598 1.391 . S
C1597 C1596 1.386 . S
C1597 C1601 1.393 . S
C1598 H1590 0.950 . S
C1598 C1596 1.391 . S
C1598 C1599 1.400 . S
C1599 C1598 1.400 . S
C1599 C1600 1.398 . S
C1599 C1605 1.491 . S
C1600 H1591 0.950 . S
C1600 C1599 1.398 . S
C1600 C1601 1.391 . S
C1601 H1589 0.950 . S
C1601 C1597 1.393 . S
C1601 C1600 1.391 . S
C1602 H1592 0.950 . S
C1602 C1603 1.386 . S
C1602 C1604 1.391 . S
C1603 C1602 1.386 . S
C1603 C1607 1.393 . S
C1604 H1593 0.950 . S
C1604 C1602 1.391 . S
C1604 C1605 1.400 . S
C1605 C1599 1.491 . S
C1605 C1604 1.400 . S
C1605 C1606 1.398 . S
C1606 H1594 0.950 . S
C1606 C1605 1.398 . S
C1606 C1607 1.391 . S
C1607 H1595 0.950 . S
C1607 C1603 1.393 . S
C1607 C1606 1.391 . S
H1608 C1616 0.950 . S
H1609 C1621 0.950 . S
H1610 C1618 0.950 . S
H1611 C1620 0.950 . S
H1612 C1622 0.950 . S
H1613 C1624 0.950 . S
H1614 C1626 0.950 . S
H1615 C1627 0.950 . S
C1616 H1608 0.950 . S
C1616 C1617 1.386 . S
C1616 C1618 1.391 . S
C1617 C1616 1.386 . S
C1617 C1621 1.393 . S
C1618 H1610 0.950 . S
C1618 C1616 1.391 . S
C1618 C1619 1.400 . S
C1619 C1618 1.400 . S
C1619 C1620 1.398 . S
C1619 C1625 1.491 . S
C1620 H1611 0.950 . S
C1620 C1619 1.398 . S
C1620 C1621 1.391 . S
C1621 H1609 0.950 . S
C1621 C1617 1.393 . S
C1621 C1620 1.391 . S
C1622 H1612 0.950 . S
C1622 C1623 1.386 . S
C1622 C1624 1.391 . S
C1623 C1622 1.386 . S
C1623 C1627 1.393 . S
C1624 H1613 0.950 . S
C1624 C1622 1.391 . S
C1624 C1625 1.400 . S
C1625 C1619 1.491 . S
C1625 C1624 1.400 . S
C1625 C1626 1.398 . S
C1626 H1614 0.950 . S
C1626 C1625 1.398 . S
C1626 C1627 1.391 . S
C1627 H1615 0.950 . S
C1627 C1623 1.393 . S
C1627 C1626 1.391 . S
H1628 C1636 0.950 . S
H1629 C1641 0.950 . S
H1630 C1638 0.950 . S
H1631 C1640 0.950 . S
H1632 C1642 0.950 . S
H1633 C1644 0.950 . S
H1634 C1646 0.950 . S
H1635 C1647 0.950 . S
C1636 H1628 0.950 . S
C1636 C1637 1.386 . S
C1636 C1638 1.391 . S
C1637 C1636 1.386 . S
C1637 C1641 1.393 . S
C1638 H1630 0.950 . S
C1638 C1636 1.391 . S
C1638 C1639 1.400 . S
C1639 C1638 1.400 . S
C1639 C1640 1.398 . S
C1639 C1645 1.491 . S
C1640 H1631 0.950 . S
C1640 C1639 1.398 . S
C1640 C1641 1.391 . S
C1641 H1629 0.950 . S
C1641 C1637 1.393 . S
C1641 C1640 1.391 . S
C1642 H1632 0.950 . S
C1642 C1643 1.386 . S
C1642 C1644 1.391 . S
C1643 C1642 1.386 . S
C1643 C1647 1.393 . S
C1644 H1633 0.950 . S
C1644 C1642 1.391 . S
C1644 C1645 1.400 . S
C1645 C1639 1.491 . S
C1645 C1644 1.400 . S
C1645 C1646 1.398 . S
C1646 H1634 0.950 . S
C1646 C1645 1.398 . S
C1646 C1647 1.391 . S
C1647 H1635 0.950 . S
C1647 C1643 1.393 . S
C1647 C1646 1.391 . S
H1648 C1656 0.950 . S
H1649 C1661 0.950 . S
H1650 C1658 0.950 . S
H1651 C1660 0.950 . S
H1652 C1662 0.950 . S
H1653 C1664 0.950 . S
H1654 C1666 0.950 . S
H1655 C1667 0.950 . S
C1656 H1648 0.950 . S
C1656 C1657 1.386 . S
C1656 C1658 1.391 . S
C1657 C1656 1.386 . S
C1657 C1661 1.393 . S
C1658 H1650 0.950 . S
C1658 C1656 1.391 . S
C1658 C1659 1.400 . S
C1659 C1658 1.400 . S
C1659 C1660 1.398 . S
C1659 C1665 1.491 . S
C1660 H1651 0.950 . S
C1660 C1659 1.398 . S
C1660 C1661 1.391 . S
C1661 H1649 0.950 . S
C1661 C1657 1.393 . S
C1661 C1660 1.391 . S
C1662 H1652 0.950 . S
C1662 C1663 1.386 . S
C1662 C1664 1.391 . S
C1663 C1662 1.386 . S
C1663 C1667 1.393 . S
C1664 H1653 0.950 . S
C1664 C1662 1.391 . S
C1664 C1665 1.400 . S
C1665 C1659 1.491 . S
C1665 C1664 1.400 . S
C1665 C1666 1.398 . S
C1666 H1654 0.950 . S
C1666 C1665 1.398 . S
C1666 C1667 1.391 . S
C1667 H1655 0.950 . S
C1667 C1663 1.393 . S
C1667 C1666 1.391 . S
H1668 C1676 0.950 . S
H1669 C1681 0.950 . S
H1670 C1678 0.950 . S
H1671 C1680 0.950 . S
H1672 C1682 0.950 . S
H1673 C1684 0.950 . S
H1674 C1686 0.950 . S
H1675 C1687 0.950 . S
C1676 H1668 0.950 . S
C1676 C1677 1.386 . S
C1676 C1678 1.391 . S
C1677 C1676 1.386 . S
C1677 C1681 1.393 . S
C1678 H1670 0.950 . S
C1678 C1676 1.391 . S
C1678 C1679 1.400 . S
C1679 C1678 1.400 . S
C1679 C1680 1.398 . S
C1679 C1685 1.491 . S
C1680 H1671 0.950 . S
C1680 C1679 1.398 . S
C1680 C1681 1.391 . S
C1681 H1669 0.950 . S
C1681 C1677 1.393 . S
C1681 C1680 1.391 . S
C1682 H1672 0.950 . S
C1682 C1683 1.386 . S
C1682 C1684 1.391 . S
C1683 C1682 1.386 . S
C1683 C1687 1.393 . S
C1684 H1673 0.950 . S
C1684 C1682 1.391 . S
C1684 C1685 1.400 . S
C1685 C1679 1.491 . S
C1685 C1684 1.400 . S
C1685 C1686 1.398 . S
C1686 H1674 0.950 . S
C1686 C1685 1.398 . S
C1686 C1687 1.391 . S
C1687 H1675 0.950 . S
C1687 C1683 1.393 . S
C1687 C1686 1.391 . S
H1688 C1696 0.950 . S
H1689 C1701 0.950 . S
H1690 C1698 0.950 . S
H1691 C1700 0.950 . S
H1692 C1702 0.950 . S
H1693 C1704 0.950 . S
H1694 C1706 0.950 . S
H1695 C1707 0.950 . S
C1696 H1688 0.950 . S
C1696 C1697 1.386 . S
C1696 C1698 1.391 . S
C1697 C1696 1.386 . S
C1697 C1701 1.393 . S
C1698 H1690 0.950 . S
C1698 C1696 1.391 . S
C1698 C1699 1.400 . S
C1699 C1698 1.400 . S
C1699 C1700 1.398 . S
C1699 C1705 1.491 . S
C1700 H1691 0.950 . S
C1700 C1699 1.398 . S
C1700 C1701 1.391 . S
C1701 H1689 0.950 . S
C1701 C1697 1.393 . S
C1701 C1700 1.391 . S
C1702 H1692 0.950 . S
C1702 C1703 1.386 . S
C1702 C1704 1.391 . S
C1703 C1702 1.386 . S
C1703 C1707 1.393 . S
C1704 H1693 0.950 . S
C1704 C1702 1.391 . S
C1704 C1705 1.400 . S
C1705 C1699 1.491 . S
C1705 C1704 1.400 . S
C1705 C1706 1.398 . S
C1706 H1694 0.950 . S
C1706 C1705 1.398 . S
C1706 C1707 1.391 . S
C1707 H1695 0.950 . S
C1707 C1703 1.393 . S
C1707 C1706 1.391 . S
H1708 C1716 0.950 . S
H1709 C1721 0.950 . S
H1710 C1718 0.950 . S
H1711 C1720 0.935 1_655 S
H1712 C1722 0.950 . S
H1713 C1724 0.950 . S
H1714 C1726 0.950 . S
H1715 C1727 0.950 . S
C1716 H1708 0.950 . S
C1716 C1717 1.386 . S
C1716 C1718 1.391 . S
C1717 C1716 1.386 . S
C1717 C1721 1.393 . S
C1718 H1710 0.950 . S
C1718 C1716 1.391 . S
C1718 C1719 1.400 1_455 S
C1719 C1718 1.400 1_655 S
C1719 C1720 1.397 1_655 S
C1719 C1725 1.491 . S
C1720 H1711 0.935 1_455 S
C1720 C1719 1.397 1_455 S
C1720 C1721 1.407 . S
C1721 H1709 0.950 . S
C1721 C1717 1.393 . S
C1721 C1720 1.407 . S
C1722 H1712 0.950 . S
C1722 C1723 1.386 . S
C1722 C1724 1.391 . S
C1723 C1722 1.386 . S
C1723 C1727 1.393 . S
C1724 H1713 0.950 . S
C1724 C1722 1.391 . S
C1724 C1725 1.400 . S
C1725 C1719 1.491 . S
C1725 C1724 1.400 . S
C1725 C1726 1.398 . S
C1726 H1714 0.950 . S
C1726 C1725 1.398 . S
C1726 C1727 1.391 . S
C1727 H1715 0.950 . S
C1727 C1723 1.393 . S
C1727 C1726 1.391 . S
H1728 C1736 0.950 . S
H1729 C1741 0.950 . S
H1730 C1738 0.950 . S
H1731 C1740 0.950 . S
H1732 C1742 0.950 . S
H1733 C1744 0.950 . S
H1734 C1746 0.950 . S
H1735 C1747 0.950 . S
C1736 H1728 0.950 . S
C1736 C1737 1.386 . S
C1736 C1738 1.391 . S
C1737 C1736 1.386 . S
C1737 C1741 1.393 . S
C1738 H1730 0.950 . S
C1738 C1736 1.391 . S
C1738 C1739 1.400 . S
C1739 C1738 1.400 . S
C1739 C1740 1.398 . S
C1739 C1745 1.491 . S
C1740 H1731 0.950 . S
C1740 C1739 1.398 . S
C1740 C1741 1.391 . S
C1741 H1729 0.950 . S
C1741 C1737 1.393 . S
C1741 C1740 1.391 . S
C1742 H1732 0.950 . S
C1742 C1743 1.386 . S
C1742 C1744 1.391 . S
C1743 C1742 1.386 . S
C1743 C1747 1.393 . S
C1744 H1733 0.950 . S
C1744 C1742 1.391 . S
C1744 C1745 1.400 . S
C1745 C1739 1.491 . S
C1745 C1744 1.400 . S
C1745 C1746 1.398 . S
C1746 H1734 0.950 . S
C1746 C1745 1.398 . S
C1746 C1747 1.391 . S
C1747 H1735 0.950 . S
C1747 C1743 1.393 . S
C1747 C1746 1.391 . S
H1748 C1756 0.950 . S
H1749 C1761 0.950 . S
H1750 C1758 0.950 . S
H1751 C1760 0.944 . S
H1752 C1762 0.950 . S
H1753 C1764 0.950 . S
H1754 C1766 0.950 . S
H1755 C1767 0.950 . S
C1756 H1748 0.950 . S
C1756 C1757 1.386 . S
C1756 C1758 1.391 . S
C1757 C1756 1.386 . S
C1757 C1761 1.393 . S
C1758 H1750 0.950 . S
C1758 C1756 1.391 . S
C1758 C1759 1.400 . S
C1759 C1758 1.400 . S
C1759 C1760 1.399 1_655 S
C1759 C1765 1.491 1_655 S
C1760 H1751 0.944 . S
C1760 C1759 1.399 1_455 S
C1760 C1761 1.396 1_455 S
C1761 H1749 0.950 . S
C1761 C1757 1.393 . S
C1761 C1760 1.396 1_655 S
C1762 H1752 0.950 . S
C1762 C1763 1.386 . S
C1762 C1764 1.391 . S
C1763 C1762 1.386 . S
C1763 C1767 1.393 . S
C1764 H1753 0.950 . S
C1764 C1762 1.391 . S
C1764 C1765 1.400 . S
C1765 C1759 1.491 1_455 S
C1765 C1764 1.400 . S
C1765 C1766 1.398 . S
C1766 H1754 0.950 . S
C1766 C1765 1.398 . S
C1766 C1767 1.391 . S
C1767 H1755 0.950 . S
C1767 C1763 1.393 . S
C1767 C1766 1.391 . S
H1768 C1776 0.950 . S
H1769 C1781 0.950 . S
H1770 C1778 0.950 . S
H1771 C1780 0.950 . S
H1772 C1782 0.950 . S
H1773 C1784 0.950 . S
H1774 C1786 0.950 . S
H1775 C1787 0.950 . S
C1776 H1768 0.950 . S
C1776 C1777 1.386 . S
C1776 C1778 1.391 . S
C1777 C1776 1.386 . S
C1777 C1781 1.393 . S
C1778 H1770 0.950 . S
C1778 C1776 1.391 . S
C1778 C1779 1.400 . S
C1779 C1778 1.400 . S
C1779 C1780 1.398 . S
C1779 C1785 1.491 . S
C1780 H1771 0.950 . S
C1780 C1779 1.398 . S
C1780 C1781 1.391 . S
C1781 H1769 0.950 . S
C1781 C1777 1.393 . S
C1781 C1780 1.391 . S
C1782 H1772 0.950 . S
C1782 C1783 1.386 . S
C1782 C1784 1.391 . S
C1783 C1782 1.386 . S
C1783 C1787 1.393 . S
C1784 H1773 0.950 . S
C1784 C1782 1.391 . S
C1784 C1785 1.400 . S
C1785 C1779 1.491 . S
C1785 C1784 1.400 . S
C1785 C1786 1.398 . S
C1786 H1774 0.950 . S
C1786 C1785 1.398 . S
C1786 C1787 1.391 . S
C1787 H1775 0.950 . S
C1787 C1783 1.393 . S
C1787 C1786 1.391 . S
H1788 C1796 0.950 . S
H1789 C1801 0.950 . S
H1790 C1798 0.950 . S
H1791 C1800 0.950 . S
H1792 C1802 0.950 . S
H1793 C1804 0.950 . S
H1794 C1806 0.950 . S
H1795 C1807 0.931 1_455 S
C1796 H1788 0.950 . S
C1796 C1797 1.386 . S
C1796 C1798 1.391 1_554 S
C1797 C1796 1.386 . S
C1797 C1801 1.393 . S
C1798 H1790 0.950 . S
C1798 C1796 1.391 1_556 S
C1798 C1799 1.400 . S
C1799 C1798 1.400 . S
C1799 C1800 1.398 . S
C1799 C1805 1.491 . S
C1800 H1791 0.950 . S
C1800 C1799 1.398 . S
C1800 C1801 1.391 1_556 S
C1801 H1789 0.950 . S
C1801 C1797 1.393 . S
C1801 C1800 1.391 1_554 S
C1802 H1792 0.950 . S
C1802 C1803 1.386 . S
C1802 C1804 1.391 . S
C1803 C1802 1.386 . S
C1803 C1807 1.393 . S
C1804 H1793 0.950 . S
C1804 C1802 1.391 . S
C1804 C1805 1.400 . S
C1805 C1799 1.491 . S
C1805 C1804 1.400 . S
C1805 C1806 1.398 . S
C1806 H1794 0.950 . S
C1806 C1805 1.398 . S
C1806 C1807 1.391 . S
C1807 H1795 0.931 1_655 S
C1807 C1803 1.393 . S
C1807 C1806 1.391 . S
H1808 C1816 0.950 . S
H1809 C1821 0.950 . S
H1810 C1818 0.950 . S
H1811 C1820 0.950 . S
H1812 C1822 0.950 . S
H1813 C1824 0.950 . S
H1814 C1826 0.950 . S
H1815 C1827 0.950 . S
C1816 H1808 0.950 . S
C1816 C1817 1.386 . S
C1816 C1818 1.391 . S
C1817 C1816 1.386 . S
C1817 C1821 1.393 . S
C1818 H1810 0.950 . S
C1818 C1816 1.391 . S
C1818 C1819 1.400 . S
C1819 C1818 1.400 . S
C1819 C1820 1.398 . S
C1819 C1825 1.491 . S
C1820 H1811 0.950 . S
C1820 C1819 1.398 . S
C1820 C1821 1.391 . S
C1821 H1809 0.950 . S
C1821 C1817 1.393 . S
C1821 C1820 1.391 . S
C1822 H1812 0.950 . S
C1822 C1823 1.386 . S
C1822 C1824 1.391 . S
C1823 C1822 1.386 . S
C1823 C1827 1.393 . S
C1824 H1813 0.950 . S
C1824 C1822 1.391 . S
C1824 C1825 1.400 . S
C1825 C1819 1.491 . S
C1825 C1824 1.400 . S
C1825 C1826 1.398 . S
C1826 H1814 0.950 . S
C1826 C1825 1.398 . S
C1826 C1827 1.391 . S
C1827 H1815 0.950 . S
C1827 C1823 1.393 . S
C1827 C1826 1.391 . S
H1828 C1836 0.950 . S
H1829 C1841 0.950 . S
H1830 C1838 0.950 1_556 S
H1831 C1840 0.950 . S
H1832 C1842 0.950 . S
H1833 C1844 0.950 1_554 S
H1834 C1846 0.950 . S
H1835 C1847 0.950 . S
C1836 H1828 0.950 . S
C1836 C1837 1.386 . S
C1836 C1838 1.391 . S
C1837 C1836 1.386 . S
C1837 C1841 1.393 . S
C1838 H1830 0.950 1_554 S
C1838 C1836 1.391 . S
C1838 C1839 1.400 . S
C1839 C1838 1.400 . S
C1839 C1840 1.398 . S
C1839 C1845 1.491 1_554 S
C1840 H1831 0.950 . S
C1840 C1839 1.398 . S
C1840 C1841 1.391 . S
C1841 H1829 0.950 . S
C1841 C1837 1.393 . S
C1841 C1840 1.391 . S
C1842 H1832 0.950 . S
C1842 C1843 1.386 . S
C1842 C1844 1.391 . S
C1843 C1842 1.386 . S
C1843 C1847 1.393 . S
C1844 H1833 0.950 1_556 S
C1844 C1842 1.391 . S
C1844 C1845 1.400 . S
C1845 C1839 1.491 1_556 S
C1845 C1844 1.400 . S
C1845 C1846 1.398 . S
C1846 H1834 0.950 . S
C1846 C1845 1.398 . S
C1846 C1847 1.391 . S
C1847 H1835 0.950 . S
C1847 C1843 1.393 . S
C1847 C1846 1.391 . S
H1848 C1856 0.950 . S
H1849 C1861 0.950 . S
H1850 C1858 0.950 . S
H1851 C1860 0.950 . S
H1852 C1862 0.950 . S
H1853 C1864 0.950 . S
H1854 C1866 0.950 . S
H1855 C1867 0.950 . S
C1856 H1848 0.950 . S
C1856 C1857 1.386 . S
C1856 C1858 1.391 . S
C1857 C1856 1.386 . S
C1857 C1861 1.393 . S
C1858 H1850 0.950 . S
C1858 C1856 1.391 . S
C1858 C1859 1.400 . S
C1859 C1858 1.400 . S
C1859 C1860 1.398 . S
C1859 C1865 1.491 . S
C1860 H1851 0.950 . S
C1860 C1859 1.398 . S
C1860 C1861 1.391 . S
C1861 H1849 0.950 . S
C1861 C1857 1.393 . S
C1861 C1860 1.391 . S
C1862 H1852 0.950 . S
C1862 C1863 1.386 . S
C1862 C1864 1.391 . S
C1863 C1862 1.386 . S
C1863 C1867 1.393 . S
C1864 H1853 0.950 . S
C1864 C1862 1.391 . S
C1864 C1865 1.400 . S
C1865 C1859 1.491 . S
C1865 C1864 1.400 . S
C1865 C1866 1.398 . S
C1866 H1854 0.950 . S
C1866 C1865 1.398 . S
C1866 C1867 1.391 . S
C1867 H1855 0.950 . S
C1867 C1863 1.393 . S
C1867 C1866 1.391 . S
H1868 C1876 0.950 . S
H1869 C1881 0.950 . S
H1870 C1878 0.950 . S
H1871 C1880 0.950 . S
H1872 C1882 0.950 . S
H1873 C1884 0.950 . S
H1874 C1886 0.950 . S
H1875 C1887 0.950 . S
C1876 H1868 0.950 . S
C1876 C1877 1.386 . S
C1876 C1878 1.391 1_556 S
C1877 C1876 1.386 . S
C1877 C1881 1.393 . S
C1878 H1870 0.950 . S
C1878 C1876 1.391 1_554 S
C1878 C1879 1.400 . S
C1879 C1878 1.400 . S
C1879 C1880 1.398 . S
C1879 C1885 1.491 . S
C1880 H1871 0.950 . S
C1880 C1879 1.398 . S
C1880 C1881 1.391 1_554 S
C1881 H1869 0.950 . S
C1881 C1877 1.393 . S
C1881 C1880 1.391 1_556 S
C1882 H1872 0.950 . S
C1882 C1883 1.386 . S
C1882 C1884 1.391 . S
C1883 C1882 1.386 . S
C1883 C1887 1.393 . S
C1884 H1873 0.950 . S
C1884 C1882 1.391 . S
C1884 C1885 1.400 . S
C1885 C1879 1.491 . S
C1885 C1884 1.400 . S
C1885 C1886 1.398 . S
C1886 H1874 0.950 . S
C1886 C1885 1.398 . S
C1886 C1887 1.391 . S
C1887 H1875 0.950 . S
C1887 C1883 1.393 . S
C1887 C1886 1.391 . S
H1888 C1896 0.950 . S
H1889 C1901 0.950 . S
H1890 C1898 0.950 . S
H1891 C1900 0.950 . S
H1892 C1902 0.950 . S
H1893 C1904 0.950 . S
H1894 C1906 0.950 . S
H1895 C1907 0.950 . S
C1896 H1888 0.950 . S
C1896 C1897 1.386 . S
C1896 C1898 1.391 . S
C1897 C1896 1.386 . S
C1897 C1901 1.393 . S
C1898 H1890 0.950 . S
C1898 C1896 1.391 . S
C1898 C1899 1.400 . S
C1899 C1898 1.400 . S
C1899 C1900 1.398 . S
C1899 C1905 1.491 . S
C1900 H1891 0.950 . S
C1900 C1899 1.398 . S
C1900 C1901 1.391 . S
C1901 H1889 0.950 . S
C1901 C1897 1.393 . S
C1901 C1900 1.391 . S
C1902 H1892 0.950 . S
C1902 C1903 1.386 . S
C1902 C1904 1.391 . S
C1903 C1902 1.386 . S
C1903 C1907 1.393 . S
C1904 H1893 0.950 . S
C1904 C1902 1.391 . S
C1904 C1905 1.400 . S
C1905 C1899 1.491 . S
C1905 C1904 1.400 . S
C1905 C1906 1.398 . S
C1906 H1894 0.950 . S
C1906 C1905 1.398 . S
C1906 C1907 1.391 . S
C1907 H1895 0.950 . S
C1907 C1903 1.393 . S
C1907 C1906 1.391 . S
H1908 C1916 0.950 1_556 S
H1909 C1921 0.950 . S
H1910 C1918 0.950 . S
H1911 C1920 0.950 . S
H1912 C1922 0.950 . S
H1913 C1924 0.950 . S
H1914 C1926 0.950 . S
H1915 C1927 0.950 . S
C1916 H1908 0.950 1_554 S
C1916 C1917 1.389 . S
C1916 C1918 1.391 . S
C1917 C1916 1.389 . S
C1917 C1921 1.433 . S
C1918 H1910 0.950 . S
C1918 C1916 1.391 . S
C1918 C1919 1.400 . S
C1919 C1918 1.400 . S
C1919 C1920 1.398 . S
C1919 C1925 1.491 . S
C1920 H1911 0.950 . S
C1920 C1919 1.398 . S
C1920 C1921 1.391 . S
C1921 H1909 0.950 . S
C1921 C1917 1.433 . S
C1921 C1920 1.391 . S
C1922 H1912 0.950 . S
C1922 C1923 1.386 . S
C1922 C1924 1.391 . S
C1923 C1922 1.386 . S
C1923 C1927 1.393 . S
C1924 H1913 0.950 . S
C1924 C1922 1.391 . S
C1924 C1925 1.400 . S
C1925 C1919 1.491 . S
C1925 C1924 1.400 . S
C1925 C1926 1.398 . S
C1926 H1914 0.950 . S
C1926 C1925 1.398 . S
C1926 C1927 1.391 . S
C1927 H1915 0.950 . S
C1927 C1923 1.393 . S
C1927 C1926 1.391 . S
H1928 C1936 0.950 . S
H1929 C1941 0.950 . S
H1930 C1938 0.950 . S
H1931 C1940 0.950 . S
H1932 C1942 0.950 . S
H1933 C1944 0.950 . S
H1934 C1946 0.950 . S
H1935 C1947 0.950 . S
C1936 H1928 0.950 . S
C1936 C1937 1.386 . S
C1936 C1938 1.391 . S
C1937 C1936 1.386 . S
C1937 C1941 1.393 . S
C1938 H1930 0.950 . S
C1938 C1936 1.391 . S
C1938 C1939 1.400 . S
C1939 C1938 1.400 . S
C1939 C1940 1.398 . S
C1939 C1945 1.491 . S
C1940 H1931 0.950 . S
C1940 C1939 1.398 . S
C1940 C1941 1.391 . S
C1941 H1929 0.950 . S
C1941 C1937 1.393 . S
C1941 C1940 1.391 . S
C1942 H1932 0.950 . S
C1942 C1943 1.386 . S
C1942 C1944 1.391 . S
C1943 C1942 1.386 . S
C1943 C1947 1.393 . S
C1944 H1933 0.950 . S
C1944 C1942 1.391 . S
C1944 C1945 1.400 . S
C1945 C1939 1.491 . S
C1945 C1944 1.400 . S
C1945 C1946 1.398 . S
C1946 H1934 0.950 . S
C1946 C1945 1.398 . S
C1946 C1947 1.391 . S
C1947 H1935 0.950 . S
C1947 C1943 1.393 . S
C1947 C1946 1.391 . S
H1948 C1956 0.950 . S
H1949 C1961 0.950 . S
H1950 C1958 0.950 . S
H1951 C1960 0.950 . S
H1952 C1962 0.950 . S
H1953 C1964 0.950 . S
H1954 C1966 0.950 . S
H1955 C1967 0.950 . S
C1956 H1948 0.950 . S
C1956 C1957 1.386 . S
C1956 C1958 1.391 . S
C1957 C1956 1.386 . S
C1957 C1961 1.393 . S
C1958 H1950 0.950 . S
C1958 C1956 1.391 . S
C1958 C1959 1.400 . S
C1959 C1958 1.400 . S
C1959 C1960 1.398 . S
C1959 C1965 1.491 . S
C1960 H1951 0.950 . S
C1960 C1959 1.398 . S
C1960 C1961 1.391 . S
C1961 H1949 0.950 . S
C1961 C1957 1.393 . S
C1961 C1960 1.391 . S
C1962 H1952 0.950 . S
C1962 C1963 1.386 . S
C1962 C1964 1.391 . S
C1963 C1962 1.386 . S
C1963 C1967 1.393 . S
C1964 H1953 0.950 . S
C1964 C1962 1.391 . S
C1964 C1965 1.400 . S
C1965 C1959 1.491 . S
C1965 C1964 1.400 . S
C1965 C1966 1.398 . S
C1966 H1954 0.950 . S
C1966 C1965 1.398 . S
C1966 C1967 1.391 . S
C1967 H1955 0.950 . S
C1967 C1963 1.393 . S
C1967 C1966 1.391 . S
H1968 C1976 0.950 . S
H1969 C1981 0.950 . S
H1970 C1978 0.950 . S
H1971 C1980 0.950 . S
H1972 C1982 0.950 . S
H1973 C1984 0.950 . S
H1974 C1986 0.950 . S
H1975 C1987 0.950 . S
C1976 H1968 0.950 . S
C1976 C1977 1.386 . S
C1976 C1978 1.391 . S
C1977 C1976 1.386 . S
C1977 C1981 1.393 . S
C1978 H1970 0.950 . S
C1978 C1976 1.391 . S
C1978 C1979 1.400 . S
C1979 C1978 1.400 . S
C1979 C1980 1.398 . S
C1979 C1985 1.491 . S
C1980 H1971 0.950 . S
C1980 C1979 1.398 . S
C1980 C1981 1.391 . S
C1981 H1969 0.950 . S
C1981 C1977 1.393 . S
C1981 C1980 1.391 . S
C1982 H1972 0.950 . S
C1982 C1983 1.386 . S
C1982 C1984 1.391 . S
C1983 C1982 1.386 . S
C1983 C1987 1.393 . S
C1984 H1973 0.950 . S
C1984 C1982 1.391 . S
C1984 C1985 1.400 . S
C1985 C1979 1.491 . S
C1985 C1984 1.400 . S
C1985 C1986 1.398 . S
C1986 H1974 0.950 . S
C1986 C1985 1.398 . S
C1986 C1987 1.391 . S
C1987 H1975 0.950 . S
C1987 C1983 1.393 . S
C1987 C1986 1.391 . S
H1988 C1996 0.950 . S
H1989 C2001 0.950 . S
H1990 C1998 0.950 . S
H1991 C2000 0.950 . S
H1992 C2002 0.950 . S
H1993 C2004 0.950 . S
H1994 C2006 0.950 . S
H1995 C2007 0.950 . S
C1996 H1988 0.950 . S
C1996 C1997 1.386 . S
C1996 C1998 1.391 . S
C1997 C1996 1.386 . S
C1997 C2001 1.393 . S
C1998 H1990 0.950 . S
C1998 C1996 1.391 . S
C1998 C1999 1.400 . S
C1999 C1998 1.400 . S
C1999 C2000 1.398 . S
C1999 C2005 1.491 . S
C2000 H1991 0.950 . S
C2000 C1999 1.398 . S
C2000 C2001 1.391 . S
C2001 H1989 0.950 . S
C2001 C1997 1.393 . S
C2001 C2000 1.391 . S
C2002 H1992 0.950 . S
C2002 C2003 1.386 . S
C2002 C2004 1.391 . S
C2003 C2002 1.386 . S
C2003 C2007 1.393 . S
C2004 H1993 0.950 . S
C2004 C2002 1.391 . S
C2004 C2005 1.400 . S
C2005 C1999 1.491 . S
C2005 C2004 1.400 . S
C2005 C2006 1.398 . S
C2006 H1994 0.950 . S
C2006 C2005 1.398 . S
C2006 C2007 1.391 . S
C2007 H1995 0.950 . S
C2007 C2003 1.393 . S
C2007 C2006 1.391 . S
H2008 C2016 0.950 . S
H2009 C2021 0.950 . S
H2010 C2018 0.950 . S
H2011 C2020 0.950 . S
H2012 C2022 0.950 . S
H2013 C2024 0.950 . S
H2014 C2026 0.950 . S
H2015 C2027 0.950 . S
C2016 H2008 0.950 . S
C2016 C2017 1.386 . S
C2016 C2018 1.391 . S
C2017 C2016 1.386 . S
C2017 C2021 1.393 . S
C2018 H2010 0.950 . S
C2018 C2016 1.391 . S
C2018 C2019 1.400 . S
C2019 C2018 1.400 . S
C2019 C2020 1.398 . S
C2019 C2025 1.491 . S
C2020 H2011 0.950 . S
C2020 C2019 1.398 . S
C2020 C2021 1.391 . S
C2021 H2009 0.950 . S
C2021 C2017 1.393 . S
C2021 C2020 1.391 . S
C2022 H2012 0.950 . S
C2022 C2023 1.386 . S
C2022 C2024 1.391 . S
C2023 C2022 1.386 . S
C2023 C2027 1.393 . S
C2024 H2013 0.950 . S
C2024 C2022 1.391 . S
C2024 C2025 1.400 . S
C2025 C2019 1.491 . S
C2025 C2024 1.400 . S
C2025 C2026 1.398 . S
C2026 H2014 0.950 . S
C2026 C2025 1.398 . S
C2026 C2027 1.391 . S
C2027 H2015 0.950 . S
C2027 C2023 1.393 . S
C2027 C2026 1.391 . S
H2028 C2036 0.950 . S
H2029 C2041 0.950 . S
H2030 C2038 0.950 . S
H2031 C2040 0.950 . S
H2032 C2042 0.950 . S
H2033 C2044 0.950 . S
H2034 C2046 0.950 . S
H2035 C2047 0.950 . S
C2036 H2028 0.950 . S
C2036 C2037 1.386 . S
C2036 C2038 1.391 . S
C2037 C2036 1.386 . S
C2037 C2041 1.393 . S
C2038 H2030 0.950 . S
C2038 C2036 1.391 . S
C2038 C2039 1.400 . S
C2039 C2038 1.400 . S
C2039 C2040 1.398 . S
C2039 C2045 1.491 . S
C2040 H2031 0.950 . S
C2040 C2039 1.398 . S
C2040 C2041 1.391 . S
C2041 H2029 0.950 . S
C2041 C2037 1.393 . S
C2041 C2040 1.391 . S
C2042 H2032 0.950 . S
C2042 C2043 1.386 . S
C2042 C2044 1.391 . S
C2043 C2042 1.386 . S
C2043 C2047 1.393 . S
C2044 H2033 0.950 . S
C2044 C2042 1.391 . S
C2044 C2045 1.400 . S
C2045 C2039 1.491 . S
C2045 C2044 1.400 . S
C2045 C2046 1.398 . S
C2046 H2034 0.950 . S
C2046 C2045 1.398 . S
C2046 C2047 1.391 . S
C2047 H2035 0.950 . S
C2047 C2043 1.393 . S
C2047 C2046 1.391 . S
H2048 C2056 0.950 . S
H2049 C2061 0.950 . S
H2050 C2058 0.950 . S
H2051 C2060 0.950 . S
H2052 C2062 0.950 . S
H2053 C2064 0.950 . S
H2054 C2066 0.950 . S
H2055 C2067 0.950 . S
C2056 H2048 0.950 . S
C2056 C2057 1.386 . S
C2056 C2058 1.391 . S
C2057 C2056 1.386 . S
C2057 C2061 1.393 . S
C2058 H2050 0.950 . S
C2058 C2056 1.391 . S
C2058 C2059 1.400 . S
C2059 C2058 1.400 . S
C2059 C2060 1.398 . S
C2059 C2065 1.491 . S
C2060 H2051 0.950 . S
C2060 C2059 1.398 . S
C2060 C2061 1.391 . S
C2061 H2049 0.950 . S
C2061 C2057 1.393 . S
C2061 C2060 1.391 . S
C2062 H2052 0.950 . S
C2062 C2063 1.386 . S
C2062 C2064 1.391 . S
C2063 C2062 1.386 . S
C2063 C2067 1.393 . S
C2064 H2053 0.950 . S
C2064 C2062 1.391 . S
C2064 C2065 1.400 . S
C2065 C2059 1.491 . S
C2065 C2064 1.400 . S
C2065 C2066 1.398 . S
C2066 H2054 0.950 . S
C2066 C2065 1.398 . S
C2066 C2067 1.391 . S
C2067 H2055 0.950 . S
C2067 C2063 1.393 . S
C2067 C2066 1.391 . S
H2068 C2076 0.950 . S
H2069 C2081 0.950 . S
H2070 C2078 0.950 . S
H2071 C2080 0.950 . S
H2072 C2082 0.950 . S
H2073 C2084 0.946 1_545 S
H2074 C2086 0.950 . S
H2075 C2087 0.950 . S
C2076 H2068 0.950 . S
C2076 C2077 1.386 . S
C2076 C2078 1.391 . S
C2077 C2076 1.386 . S
C2077 C2081 1.393 . S
C2078 H2070 0.950 . S
C2078 C2076 1.391 . S
C2078 C2079 1.400 . S
C2079 C2078 1.400 . S
C2079 C2080 1.398 . S
C2079 C2085 1.491 . S
C2080 H2071 0.950 . S
C2080 C2079 1.398 . S
C2080 C2081 1.391 . S
C2081 H2069 0.950 . S
C2081 C2077 1.393 . S
C2081 C2080 1.391 . S
C2082 H2072 0.950 . S
C2082 C2083 1.386 . S
C2082 C2084 1.402 . S
C2083 C2082 1.386 . S
C2083 C2087 1.393 . S
C2084 H2073 0.946 1_565 S
C2084 C2082 1.402 . S
C2084 C2085 1.393 1_565 S
C2085 C2079 1.491 . S
C2085 C2084 1.393 1_545 S
C2085 C2086 1.398 . S
C2086 H2074 0.950 . S
C2086 C2085 1.398 . S
C2086 C2087 1.391 1_545 S
C2087 H2075 0.950 . S
C2087 C2083 1.393 . S
C2087 C2086 1.391 1_565 S
C1143 C968 1.625 1_556 S
C1137 C331 1.591 . S
C1163 C983 1.728 . S
C1157 C380 1.699 . S
C1177 C421 1.687 . S
C1183 C996 1.706 . S
C1203 C1010 1.579 . S
C1197 C260 1.628 . S
C1223 C1022 1.637 . S
C1217 C620 1.664 . S
C1243 C1036 1.392 . S
C1237 C740 1.304 . S
C1257 C680 1.749 . S
C1263 C1050 1.734 . S
C1283 C1065 1.517 . S
C1277 C571 1.460 . S
C1297 C691 1.663 . S
C1303 C1081 1.677 . S
C1323 C1094 1.562 . S
C1317 C541 1.530 . S
C1337 C601 1.573 . S
C1343 C1079 1.565 . S
C1363 C1092 1.571 . S
C1357 C721 1.496 . S
C1377 C451 1.823 . S
C1383 C1108 1.843 . S
C1397 C241 1.637 . S
C1403 C1107 1.603 . S
C1417 C320 1.723 . S
C1423 C1106 1.700 . S
C1437 C391 1.576 . S
C1443 C1109 1.626 . S
C1457 C211 1.654 . S
C1463 C1011 1.698 . S
C1477 C841 1.479 . S
C1483 C1009 1.478 . S
C1503 C969 1.556 . S
C1497 C901 1.531 . S
C1523 C980 1.759 . S
C1517 C500 1.764 . S
C1537 C271 1.651 1_545 S
C1543 C1025 1.637 . S
C1563 C1066 1.891 . S
C1557 C661 1.864 . S
C1583 C1023 1.550 . S
C1577 C560 1.469 . S
C1603 C1051 1.545 . S
C1597 C751 1.509 . S
C1623 C1052 1.621 . S
C1617 C871 1.584 . S
C1637 C920 1.704 . S
C1643 C1067 1.732 . S
C1657 C481 1.684 . S
C1663 C1024 1.708 . S
C1683 C1038 1.572 . S
C1677 C800 1.627 . S
C1697 C200 1.668 . S
C1703 C994 1.642 . S
C1723 C1008 1.380 . S
C1717 C20 1.329 . S
C1743 C966 1.746 . S
C1737 C80 1.735 . S
C1763 C981 1.516 . S
C1757 C151 1.458 . S
C1777 C91 1.663 . S
C1783 C1095 1.677 . S
C1797 C121 1.534 . S
C1803 C1080 1.567 . S
C1817 C181 1.573 . S
C1823 C1093 1.565 . S
C1837 C1 1.464 . S
C1843 C1078 1.580 . S
C1863 C1122 1.839 . S
C1857 C511 1.828 . S
C1883 C1121 1.602 . S
C1877 C781 1.638 . S
C1903 C1120 1.700 . S
C1897 C860 1.723 . S
C1917 C931 1.571 1_554 S
C1923 C1123 1.642 . S
C1937 C631 1.644 . S
C1943 C1039 1.690 . S
C1963 C1037 1.488 . S
C1957 C301 1.489 . S
C1983 C1053 1.553 . S
C1977 C361 1.528 . S
C2003 C1064 1.753 . S
C1997 C440 1.762 . S
C2017 C811 1.650 . S
C2023 C997 1.637 . S
C2043 C982 1.889 . S
C2037 C61 1.873 . S
C2057 C140 1.486 . S
C2063 C995 1.569 . S
C2083 C967 1.556 . S
C2077 C31 1.503 . S
