# Generated by pormake.
# Topology apo, (3,6)-cn, num edge types: 1
# Building blocks:
#     Node 0, Type 0, BuildingBlock: PAMTOO_clean_linker_0, # of connection points: 3
#     Node 1, Type 0, BuildingBlock: PAMTOO_clean_linker_0, # of connection points: 3
#     Node 2, Type 0, BuildingBlock: PAMTOO_clean_linker_0, # of connection points: 3
#     Node 3, Type 0, BuildingBlock: PAMTOO_clean_linker_0, # of connection points: 3
#     Node 4, Type 0, BuildingBlock: PAMTOO_clean_linker_0, # of connection points: 3
#     Node 5, Type 0, BuildingBlock: PAMTOO_clean_linker_0, # of connection points: 3
#     Node 6, Type 0, BuildingBlock: PAMTOO_clean_linker_0, # of connection points: 3
#     Node 7, Type 0, BuildingBlock: PAMTOO_clean_linker_0, # of connection points: 3
#     Node 8, Type 1, BuildingBlock: MIDCAF_clean_sbu_0, # of connection points: 6
#     Node 9, Type 1, BuildingBlock: MIDCAF_clean_sbu_0, # of connection points: 6
#     Node 10, Type 1, BuildingBlock: MIDCAF_clean_sbu_0, # of connection points: 6
#     Node 11, Type 1, BuildingBlock: MIDCAF_clean_sbu_0, # of connection points: 6
#     Edge 12, Type (0, 1), BuildingBlock: OJICUG_clean_linker_0, # of connection points: 2
#     Edge 13, Type (0, 1), BuildingBlock: OJICUG_clean_linker_0, # of connection points: 2
#     Edge 14, Type (0, 1), BuildingBlock: OJICUG_clean_linker_0, # of connection points: 2
#     Edge 15, Type (0, 1), BuildingBlock: OJICUG_clean_linker_0, # of connection points: 2
#     Edge 16, Type (0, 1), BuildingBlock: OJICUG_clean_linker_0, # of connection points: 2
#     Edge 17, Type (0, 1), BuildingBlock: OJICUG_clean_linker_0, # of connection points: 2
#     Edge 18, Type (0, 1), BuildingBlock: OJICUG_clean_linker_0, # of connection points: 2
#     Edge 19, Type (0, 1), BuildingBlock: OJICUG_clean_linker_0, # of connection points: 2
#     Edge 20, Type (0, 1), BuildingBlock: OJICUG_clean_linker_0, # of connection points: 2
#     Edge 21, Type (0, 1), BuildingBlock: OJICUG_clean_linker_0, # of connection points: 2
#     Edge 22, Type (0, 1), BuildingBlock: OJICUG_clean_linker_0, # of connection points: 2
#     Edge 23, Type (0, 1), BuildingBlock: OJICUG_clean_linker_0, # of connection points: 2
#     Edge 24, Type (0, 1), BuildingBlock: OJICUG_clean_linker_0, # of connection points: 2
#     Edge 25, Type (0, 1), BuildingBlock: OJICUG_clean_linker_0, # of connection points: 2
#     Edge 26, Type (0, 1), BuildingBlock: OJICUG_clean_linker_0, # of connection points: 2
#     Edge 27, Type (0, 1), BuildingBlock: OJICUG_clean_linker_0, # of connection points: 2
#     Edge 28, Type (0, 1), BuildingBlock: OJICUG_clean_linker_0, # of connection points: 2
#     Edge 29, Type (0, 1), BuildingBlock: OJICUG_clean_linker_0, # of connection points: 2
#     Edge 30, Type (0, 1), BuildingBlock: OJICUG_clean_linker_0, # of connection points: 2
#     Edge 31, Type (0, 1), BuildingBlock: OJICUG_clean_linker_0, # of connection points: 2
#     Edge 32, Type (0, 1), BuildingBlock: OJICUG_clean_linker_0, # of connection points: 2
#     Edge 33, Type (0, 1), BuildingBlock: OJICUG_clean_linker_0, # of connection points: 2
#     Edge 34, Type (0, 1), BuildingBlock: OJICUG_clean_linker_0, # of connection points: 2
#     Edge 35, Type (0, 1), BuildingBlock: OJICUG_clean_linker_0, # of connection points: 2
# Relax obj value: 0.013
# Max RMSD: 0.059
# Mean RMSD: 0.051
data_MOF--net-apo--node1-MIDCAF_clean_sbu_0--node2-PAMTOO_clean_linker_0--edge1-OJICUG_clean_linker_0
_symmetry_space_group_name_H-M    P1
_symmetry_Int_Tables_number       1
_symmetry_cell_setting            triclinic
loop_
_symmetry_equiv_pos_as_xyz
'x, y, z'
_cell_length_a     26.097101
_cell_length_b     31.059265
_cell_length_c     24.048852
_cell_angle_alpha  89.395909
_cell_angle_beta   89.103261
_cell_angle_gamma 89.985367
loop_
_atom_site_label
_atom_site_type_symbol
_atom_site_fract_x
_atom_site_fract_y
_atom_site_fract_z
_atom_type_partial_charge
H0 H 0.45305 0.35709 0.46035 0.0
H1 H 0.3704 0.37404 0.30752 0.0
H2 H 0.32643 0.27452 0.4237 0.0
H3 H 0.35509 0.27078 0.27773 0.0
C4 C 0.31685 0.2868 0.27749 0.0
O5 O 0.30849 0.3101 0.32553 0.0
H6 H 0.31659 0.30918 0.24113 0.0
C7 C 0.42297 0.34799 0.43226 0.0
C8 C 0.38983 0.31442 0.44857 0.0
C9 C 0.41669 0.37046 0.38162 0.0
C10 C 0.37774 0.35685 0.34597 0.0
C11 C 0.3464 0.32162 0.36019 0.0
C12 C 0.35211 0.30055 0.4118 0.0
H13 H 0.06379 0.10858 0.95445 0.0
H14 H 0.17299 0.2106 0.92944 0.0
H15 H 0.153 0.11587 0.80242 0.0
H16 H 0.24801 0.14839 0.78599 0.0
C17 C 0.24818 0.17478 0.81688 0.0
O18 O 0.19818 0.18807 0.82651 0.0
H19 H 0.26505 0.1622 0.85606 0.0
C20 C 0.09261 0.12425 0.92836 0.0
C21 C 0.10667 0.10612 0.87704 0.0
C22 C 0.11685 0.16107 0.94844 0.0
C23 C 0.15395 0.182 0.91473 0.0
C24 C 0.16524 0.16648 0.86098 0.0
C25 C 0.14182 0.12855 0.84258 0.0
H26 H 0.94476 0.11729 0.58605 0.0
H27 H 0.8504 0.10033 0.73351 0.0
H28 H 0.82435 0.20724 0.62268 0.0
H29 H 0.84034 0.20907 0.76457 0.0
C30 C 0.80237 0.19261 0.76496 0.0
O31 O 0.79574 0.16923 0.71695 0.0
H32 H 0.80139 0.17027 0.80138 0.0
C33 C 0.91369 0.12751 0.61329 0.0
C34 C 0.88545 0.16405 0.59816 0.0
C35 C 0.90142 0.10348 0.66152 0.0
C36 C 0.8618 0.11849 0.69668 0.0
C37 C 0.83498 0.15639 0.68355 0.0
C38 C 0.84643 0.17899 0.63385 0.0
H39 H 0.61141 0.36864 0.06914 0.0
H40 H 0.71447 0.2641 0.10101 0.0
H41 H 0.69038 0.36088 0.22537 0.0
H42 H 0.79158 0.32568 0.23822 0.0
C43 C 0.78864 0.29992 0.20667 0.0
O44 O 0.73769 0.28848 0.20184 0.0
H45 H 0.80388 0.31338 0.16658 0.0
C46 C 0.6385 0.35321 0.09663 0.0
C47 C 0.64826 0.37087 0.14919 0.0
C48 C 0.66278 0.31549 0.07849 0.0
C49 C 0.69594 0.29356 0.11429 0.0
C50 C 0.70537 0.30978 0.1675 0.0
C51 C 0.6815 0.34823 0.18486 0.0
H52 H 0.59462 0.61164 0.57617 0.0
H53 H 0.71539 0.70026 0.61202 0.0
H54 H 0.6791 0.59863 0.72843 0.0
H55 H 0.72622 0.66812 0.79391 0.0
C56 C 0.72734 0.6899 0.75695 0.0
O57 O 0.73668 0.66573 0.70981 0.0
H58 H 0.68939 0.70627 0.75488 0.0
C59 C 0.62431 0.62204 0.60399 0.0
C60 C 0.63247 0.59979 0.65445 0.0
C61 C 0.65483 0.65726 0.58756 0.0
C62 C 0.69176 0.67294 0.62404 0.0
C63 C 0.6993 0.65221 0.67559 0.0
C64 C 0.67052 0.6154 0.69 0.0
H65 H 0.91289 0.90667 0.07108 0.0
H66 H 0.86354 0.88753 0.24145 0.0
H67 H 0.82726 0.79331 0.1192 0.0
H68 H 0.7477 0.84023 0.21503 0.0
C69 C 0.77034 0.82104 0.24537 0.0
O70 O 0.81949 0.81374 0.22498 0.0
H71 H 0.77299 0.83982 0.28431 0.0
C72 C 0.8919 0.88827 0.10246 0.0
C73 C 0.8693 0.8488 0.08784 0.0
C74 C 0.89076 0.90262 0.15789 0.0
C75 C 0.86544 0.8772 0.19858 0.0
C76 C 0.84195 0.83835 0.18457 0.0
C77 C 0.84417 0.82404 0.12938 0.0
H78 H 0.1081 0.86186 0.47027 0.0
H79 H 0.22009 0.76517 0.43109 0.0
H80 H 0.19566 0.87056 0.317 0.0
H81 H 0.23726 0.79836 0.25078 0.0
C82 C 0.23873 0.7762 0.28731 0.0
O83 O 0.24789 0.79993 0.33456 0.0
H84 H 0.20096 0.75955 0.29062 0.0
C85 C 0.13707 0.84944 0.44188 0.0
C86 C 0.14824 0.87151 0.39179 0.0
C87 C 0.16341 0.81191 0.45709 0.0
C88 C 0.19949 0.79419 0.41988 0.0
C89 C 0.21032 0.81509 0.36874 0.0
C90 C 0.18513 0.85382 0.35522 0.0
H91 H 0.43534 0.60206 0.9684 0.0
H92 H 0.36945 0.60939 0.80508 0.0
H93 H 0.33417 0.7058 0.92653 0.0
H94 H 0.25319 0.6517 0.84226 0.0
C95 C 0.27311 0.66864 0.80706 0.0
O96 O 0.32168 0.68146 0.82241 0.0
H97 H 0.27689 0.64588 0.77187 0.0
C98 C 0.41013 0.61706 0.93855 0.0
C99 C 0.38391 0.65447 0.95447 0.0
C100 C 0.40493 0.59942 0.88521 0.0
C101 C 0.37481 0.62187 0.84642 0.0
C102 C 0.34943 0.66007 0.86109 0.0
C103 C 0.35373 0.6763 0.91531 0.0
Zn104 Zn 0.0824 0.13247 0.37566 0.0
Zn105 Zn 0.93989 0.1255 0.12929 0.0
Zn106 Zn 0.03628 0.12973 0.29148 0.0
C107 C 0.04936 0.15753 0.17429 0.0
C108 C 0.9884 0.06222 0.22368 0.0
O109 O 0.98425 0.16306 0.35281 0.0
O110 O 0.03721 0.16806 0.42289 0.0
C111 C 0.14687 0.17121 0.29755 0.0
O112 O 0.07595 0.15911 0.21863 0.0
O113 O 1.00457 0.14099 0.17932 0.0
O114 O 0.97899 0.09791 0.19865 0.0
O115 O 0.01631 0.0644 0.26695 0.0
O116 O 0.1459 0.15875 0.34761 0.0
O117 O 0.10775 0.16476 0.26668 0.0
O118 O 0.05061 0.06026 0.31205 0.0
O119 O 0.0871 0.07034 0.39283 0.0
C120 C 0.07218 0.04488 0.35586 0.0
O121 O 0.96337 0.16503 0.29829 0.0
O122 O 0.95376 0.14219 0.21388 0.0
C123 C 0.99367 0.17527 0.40275 0.0
C124 C 0.93689 0.1655 0.2538 0.0
Zn125 Zn 0.56271 0.3436 0.67921 0.0
Zn126 Zn 0.47019 0.34008 0.85642 0.0
Zn127 Zn 0.51488 0.34533 0.76736 0.0
C128 C 0.48002 0.42733 0.83871 0.0
C129 C 0.40177 0.30322 0.78929 0.0
O130 O 0.59064 0.31139 0.77989 0.0
O131 O 0.62986 0.32213 0.69904 0.0
C132 C 0.54833 0.43003 0.69704 0.0
O133 O 0.49782 0.41346 0.79183 0.0
O134 O 0.46906 0.40073 0.87699 0.0
O135 O 0.40341 0.31818 0.83761 0.0
O136 O 0.44071 0.30817 0.75587 0.0
O137 O 0.56202 0.40482 0.65886 0.0
O138 O 0.52942 0.41443 0.74291 0.0
O139 O 0.46589 0.31331 0.70243 0.0
O140 O 0.52188 0.30528 0.63372 0.0
C141 C 0.47717 0.2999 0.65296 0.0
O142 O 0.5656 0.31478 0.83258 0.0
O143 O 0.51214 0.30203 0.90265 0.0
C144 C 0.63059 0.30732 0.7479 0.0
C145 C 0.55677 0.29985 0.88224 0.0
Zn146 Zn 0.05505 0.8424 0.8554 0.0
Zn147 Zn 0.96771 0.84478 0.67527 0.0
Zn148 Zn 1.01144 0.84668 0.76626 0.0
C149 C 0.979 0.93107 0.69499 0.0
C150 C 0.89841 0.80636 0.74568 0.0
O151 O 0.08507 0.80776 0.75677 0.0
O152 O 0.11956 0.81484 0.83937 0.0
C153 C 0.04893 0.92973 0.83214 0.0
O154 O 0.99851 0.91505 0.73965 0.0
O155 O 0.96477 0.90637 0.65696 0.0
O156 O 0.90228 0.81922 0.69599 0.0
O157 O 0.93556 0.81286 0.77949 0.0
O158 O 0.06157 0.90391 0.87029 0.0
O159 O 0.02903 0.91504 0.78741 0.0
O160 O 0.95684 0.82214 0.83357 0.0
O161 O 1.00763 0.81089 0.90467 0.0
C162 C 0.96328 0.81058 0.88482 0.0
O163 O 0.06266 0.81238 0.70354 0.0
O164 O 1.01328 0.80908 0.63003 0.0
C165 C 0.1222 0.80054 0.7907 0.0
C166 C 0.0554 0.80088 0.65267 0.0
Zn167 Zn 0.57536 0.63076 0.17959 0.0
Zn168 Zn 0.48063 0.62481 0.35666 0.0
Zn169 Zn 0.52776 0.6247 0.26847 0.0
C170 C 0.56334 0.67039 0.3844 0.0
C171 C 0.50024 0.53906 0.33839 0.0
O172 O 0.47522 0.654 0.20409 0.0
O173 O 0.5279 0.6629 0.13225 0.0
C174 C 0.63634 0.67522 0.24811 0.0
O175 O 0.575 0.65747 0.33478 0.0
O176 O 0.51871 0.66419 0.40341 0.0
O177 O 0.48536 0.56375 0.37662 0.0
O178 O 0.51749 0.55526 0.29212 0.0
O179 O 0.63715 0.66113 0.19925 0.0
O180 O 0.59829 0.66569 0.28107 0.0
O181 O 0.54918 0.55637 0.2435 0.0
O182 O 0.58584 0.5701 0.16214 0.0
C183 C 0.57228 0.54306 0.19893 0.0
O184 O 0.45019 0.65715 0.25704 0.0
O185 O 0.41224 0.64384 0.33796 0.0
C186 C 0.48368 0.66672 0.15337 0.0
C187 C 0.41046 0.65981 0.28975 0.0
C188 C 0.11524 0.94247 0.42582 0.0
C189 C 0.12434 0.91458 0.38104 0.0
H190 H 0.08981 0.00395 0.45301 0.0
C191 C 0.11166 0.92895 0.3271 0.0
H192 H 0.1255 0.9335 0.46781 0.0
C193 C 0.09176 0.9706 0.31837 0.0
C194 C 0.08401 -0.00154 0.36347 0.0
H195 H 0.11774 0.9083 0.29161 0.0
H196 H 0.08452 0.98154 0.27631 0.0
C197 C 0.09499 0.98337 0.41724 0.0
C198 C 0.43606 0.52623 0.91479 0.0
C199 C 0.42877 0.5567 0.87193 0.0
H200 H 0.46028 0.46346 0.93822 0.0
C201 C 0.44252 0.5449 0.81708 0.0
H202 H 0.42458 0.53261 0.95731 0.0
C203 C 0.46101 0.50334 0.80562 0.0
C204 C 0.46776 0.47325 0.84891 0.0
H205 H 0.43827 0.56732 0.78274 0.0
H206 H 0.4682 0.49437 0.76285 0.0
C207 C 0.45609 0.48575 0.90363 0.0
C208 C 0.59474 0.54409 0.72222 0.0
C209 C 0.60432 0.55859 0.66714 0.0
H210 H 0.56974 0.49176 0.77541 0.0
C211 C 0.58917 0.53191 0.62336 0.0
H212 H 0.60491 0.56375 0.75726 0.0
C213 C 0.56683 0.49192 0.63396 0.0
C214 C 0.56008 0.47639 0.68862 0.0
H215 H 0.59674 0.54058 0.58035 0.0
H216 H 0.55739 0.47203 0.59881 0.0
C217 C 0.57342 0.50317 0.73283 0.0
C218 C 0.91563 0.9801 0.13916 0.0
C219 C 0.91728 0.94327 0.1737 0.0
H220 H 0.93692 0.04625 0.12752 0.0
C221 C 0.94422 0.94569 0.22386 0.0
H222 H 0.89496 0.97962 0.10048 0.0
C223 C 0.96795 0.98402 0.23953 0.0
C224 C 0.9657 0.02093 0.20537 0.0
H225 H 0.9471 0.91787 0.25116 0.0
H226 H 0.98721 0.98488 0.27901 0.0
C227 C 0.93949 0.01845 0.15484 0.0
C228 C 0.94137 0.03526 0.62633 0.0
C229 C 0.92699 0.0611 0.67173 0.0
H230 H 0.97104 0.97519 0.59842 0.0
C231 C 0.93503 0.04492 0.72592 0.0
H232 H 0.93472 0.04555 0.58393 0.0
C233 C 0.95475 0.00331 0.73417 0.0
C234 C 0.96777 0.9775 0.68843 0.0
H235 H 0.92503 0.06392 0.76197 0.0
H236 H 0.95761 -0.0093 0.77615 0.0
C237 C 0.96192 -0.00558 0.6346 0.0
C238 C 0.61282 0.42536 0.21932 0.0
C239 C 0.62584 0.41394 0.16411 0.0
H240 H 0.58596 0.47524 0.2744 0.0
C241 C 0.61805 0.4448 0.12186 0.0
H242 H 0.61796 0.4026 0.25316 0.0
C243 C 0.59783 0.48515 0.13377 0.0
C244 C 0.5859 0.49716 0.18866 0.0
H245 H 0.62893 0.43856 0.07909 0.0
H246 H 0.59311 0.50764 0.09947 0.0
C247 C 0.5934 0.46672 0.23152 0.0
C248 C 0.45705 0.42453 0.31375 0.0
C249 C 0.44711 0.41041 0.36892 0.0
H250 H 0.48178 0.47669 0.26025 0.0
C251 C 0.46304 0.43684 0.41258 0.0
H252 H 0.44666 0.40484 0.27882 0.0
C253 C 0.48525 0.47682 0.40172 0.0
C254 C 0.49108 0.49242 0.34698 0.0
H255 H 0.45562 0.42826 0.45565 0.0
H256 H 0.4947 0.49686 0.43673 0.0
C257 C 0.47829 0.46538 0.30289 0.0
C258 C 0.08048 0.0485 0.80819 0.0
C259 C 0.08829 0.06194 0.8633 0.0
H260 H 0.06277 -0.00433 0.75445 0.0
C261 C 0.08067 0.03176 0.90666 0.0
H262 H 0.0859 0.0707 0.77361 0.0
C263 C 0.06536 -0.01002 0.89582 0.0
C264 C 0.0586 0.97611 0.84109 0.0
H265 H 0.08808 0.0397 0.9495 0.0
H266 H 0.06029 0.96803 0.9308 0.0
C267 C 0.06627 0.00575 0.79716 0.0
C268 C 0.05189 0.18162 1.02027 0.0
C269 C 0.10359 0.17446 1.00613 0.0
H270 H 0.99452 0.1825 0.08468 0.0
C271 C 0.13909 0.16937 0.04915 0.0
H272 H 0.0237 0.18543 0.98797 0.0
C273 C 0.12227 0.16749 0.10505 0.0
C274 C 0.06968 0.17021 0.11843 0.0
H275 H 0.17905 0.16315 0.03937 0.0
H276 H 0.14981 0.16046 0.13715 0.0
C277 C 0.03514 0.17943 0.07568 0.0
C278 C 0.37494 0.32019 0.55084 0.0
C279 C 0.39478 0.29665 0.50569 0.0
H280 H 0.38443 0.33786 0.63611 0.0
C281 C 0.43128 0.26456 0.51588 0.0
H282 H 0.34721 0.34555 0.54374 0.0
C283 C 0.45247 0.26005 0.56876 0.0
C284 C 0.43793 0.28794 0.61207 0.0
H285 H 0.44759 0.2464 0.48169 0.0
H286 H 0.48488 0.23861 0.57375 0.0
C287 C 0.39604 0.31557 0.60392 0.0
C288 C 0.61462 0.26664 1.01668 0.0
C289 C 0.65086 0.29954 0.02229 0.0
H290 H 0.55666 0.23977 0.96538 0.0
C291 C 0.66535 0.32405 0.97512 0.0
H292 H 0.60254 0.24764 0.05258 0.0
C293 C 0.63981 0.31901 0.92473 0.0
C294 C 0.59847 0.29025 0.92149 0.0
H295 H 0.69299 0.34985 0.97871 0.0
H296 H 0.64802 0.34143 0.89093 0.0
C297 C 0.58851 0.2621 0.96666 0.0
C298 C 0.93928 0.21157 0.53807 0.0
C299 C 0.89717 0.18377 0.54316 0.0
H300 H 1.00263 0.23215 0.48693 0.0
C301 C 0.87878 0.16372 0.49521 0.0
H302 H 0.95457 0.22685 0.57455 0.0
C303 C 0.9063 0.16673 0.44472 0.0
C304 C 0.95292 0.18927 0.44209 0.0
H305 H 0.84679 0.14156 0.49845 0.0
H306 H 0.89479 0.14678 0.4104 0.0
C307 C 0.96685 0.21443 0.48782 0.0
C308 C 0.86974 0.85818 0.98365 0.0
C309 C 0.87775 0.83181 0.03065 0.0
H310 H 0.88826 0.87006 0.89765 0.0
C311 C 0.90192 0.79179 0.02326 0.0
H312 H 0.85089 0.88907 0.98807 0.0
C313 C 0.92356 0.78104 0.97154 0.0
C314 C 0.92067 0.80973 0.92605 0.0
H315 H 0.90875 0.77081 0.05865 0.0
H316 H 0.94734 0.75251 0.96874 0.0
C317 C 0.89039 0.84692 0.93158 0.0
C318 C 0.60938 0.70581 0.52179 0.0
C319 C 0.64778 0.6751 0.53074 0.0
H320 H 0.55343 0.73016 0.46543 0.0
C321 C 0.66796 0.65259 0.48487 0.0
H322 H 0.59277 0.72312 0.55656 0.0
C323 C 0.64568 0.6568 0.43232 0.0
C324 C 0.60227 0.68294 0.42541 0.0
H325 H 0.69715 0.62826 0.49101 0.0
H326 H 0.65794 0.63527 0.39954 0.0
C327 C 0.58698 0.70987 0.46945 0.0
C328 C 0.42725 0.70361 1.01997 0.0
C329 C 0.39196 0.67036 1.01171 0.0
H330 H 0.4837 0.72955 0.07397 0.0
C331 C 0.37685 0.64449 0.05754 0.0
H332 H 0.44001 0.72358 0.98524 0.0
C333 C 0.40129 0.64833 0.10883 0.0
C334 C 0.44202 0.67739 0.11444 0.0
H335 H 0.35008 0.61828 0.05197 0.0
H336 H 0.39303 0.62475 0.14127 0.0
C337 C 0.45221 0.70701 0.0709 0.0
C338 C 0.11251 0.76347 0.51956 0.0
C339 C 0.15229 0.79348 0.51313 0.0
H340 H 0.05097 0.7407 0.57188 0.0
C341 C 0.16916 0.8156 0.56025 0.0
H342 H 0.09836 0.7465 0.48377 0.0
C343 C 0.14226 0.81205 0.61111 0.0
C344 C 0.09754 0.78701 0.61496 0.0
H345 H 0.19937 0.83939 0.55605 0.0
H346 H 0.15222 0.83345 0.64455 0.0
C347 C 0.08543 0.76017 0.57016 0.0
C348 C 0.22915 0.26316 0.24552 0.0
C349 C 0.27543 0.25352 0.27232 0.0
H350 H 0.1516 0.24329 0.23054 0.0
C351 C 0.28083 0.21374 0.29945 0.0
H352 H 0.22415 0.29392 0.22469 0.0
C353 C 0.2399 0.18501 0.30242 0.0
C354 C 0.1925 0.19558 0.27877 0.0
H355 H 0.31596 0.20577 0.32067 0.0
H356 H 0.24433 0.15552 0.32638 0.0
C357 C 0.18795 0.23413 0.24832 0.0
C358 C 0.32685 0.20236 0.76473 0.0
C359 C 0.28176 0.21134 0.79555 0.0
H360 H 0.40043 0.22555 0.73599 0.0
C361 C 0.2731 0.25365 0.81325 0.0
H362 H 0.33473 0.16985 0.75113 0.0
C363 C 0.3101 0.28544 0.8037 0.0
C364 C 0.3572 0.27557 0.77744 0.0
H365 H 0.23922 0.26165 0.8376 0.0
H366 H 0.3038 0.31695 0.82152 0.0
C367 C 0.36422 0.23431 0.75541 0.0
C368 C 0.71426 0.21632 0.79889 0.0
C369 C 0.76032 0.22558 0.7699 0.0
H370 H 0.63665 0.23603 0.81632 0.0
C371 C 0.765 0.26459 0.74061 0.0
H372 H 0.70975 0.18615 0.82143 0.0
C373 C 0.7237 0.29294 0.73797 0.0
C374 C 0.67657 0.28278 0.76418 0.0
H375 H 0.79996 0.27227 0.7177 0.0
H376 H 0.72778 0.32188 0.71272 0.0
C377 C 0.67269 0.24495 0.79644 0.0
C378 C 0.84553 0.25952 0.27434 0.0
C379 C 0.82112 0.26149 0.22263 0.0
H380 H 0.90089 0.22737 0.32514 0.0
C381 C 0.83097 0.22895 0.18387 0.0
H382 H 0.83847 0.28412 0.30512 0.0
C383 C 0.86666 0.19647 0.19526 0.0
C384 C 0.89336 0.19577 0.2457 0.0
H385 H 0.81252 0.22968 0.14383 0.0
H386 H 0.87456 0.17281 0.16358 0.0
C387 C 0.88125 0.22697 0.2858 0.0
C388 C 0.81327 0.71449 0.79375 0.0
C389 C 0.76897 0.72311 0.76277 0.0
H390 H 0.88926 0.73532 0.81456 0.0
C391 C 0.76549 0.76206 0.7333 0.0
H392 H 0.81684 0.68442 0.81658 0.0
C393 C 0.80631 0.791 0.73253 0.0
C394 C 0.85185 0.78153 0.76082 0.0
H395 H 0.73191 0.76932 0.70897 0.0
H396 H 0.80334 0.81986 0.70706 0.0
C397 C 0.85438 0.74372 0.79315 0.0
C398 C 0.69724 0.77953 0.29071 0.0
C399 C 0.74189 0.77937 0.25699 0.0
H400 H 0.62877 0.74565 0.31618 0.0
C401 C 0.75523 0.74147 0.22899 0.0
H402 H 0.6859 0.8085 0.31237 0.0
C403 C 0.7232 0.70557 0.23197 0.0
C404 C 0.67643 0.70687 0.26191 0.0
H405 H 0.789 0.74011 0.20233 0.0
H406 H 0.73324 0.67776 0.20723 0.0
C407 C 0.6648 0.74346 0.29341 0.0
C408 C 0.27665 0.70298 0.30508 0.0
C409 C 0.28085 0.7434 0.27909 0.0
H410 H 0.31389 0.64399 0.32632 0.0
C411 C 0.32611 0.75361 0.24906 0.0
H412 H 0.24234 0.69439 0.3286 0.0
C413 C 0.36735 0.72448 0.24726 0.0
C414 C 0.36403 0.68503 0.27619 0.0
H415 H 0.33027 0.78477 0.22886 0.0
H416 H 0.40288 0.73409 0.22679 0.0
C417 C 0.31757 0.67409 0.30339 0.0
C418 C 0.24886 0.74757 0.81183 0.0
C419 C 0.24026 0.70654 0.79001 0.0
H420 H 0.21887 0.81053 0.82578 0.0
C421 C 0.196 0.69975 0.75837 0.0
H422 H 0.28212 0.75396 0.83681 0.0
C423 C 0.15931 0.73246 0.75209 0.0
C424 C 0.16626 0.77225 0.77794 0.0
H425 H 0.18827 0.66824 0.74155 0.0
H426 H 0.12368 0.72531 0.73158 0.0
C427 C 0.21258 0.78012 0.80526 0.0
loop_
_geom_bond_atom_site_label_1
_geom_bond_atom_site_label_2
_geom_bond_distance
_geom_bond_site_symmetry_2
_ccdc_geom_bond_type
H0 C7 0.929 . S
H1 C10 0.930 . S
H2 C12 0.929 . S
H3 C4 0.969 . S
C4 H3 0.969 . S
C4 O5 1.550 . S
C4 H6 0.973 . S
O5 C4 1.550 . S
O5 C11 1.412 . S
H6 C4 0.973 . S
C7 H0 0.929 . S
C7 C8 1.400 . S
C7 C9 1.364 . S
C8 C7 1.400 . S
C8 C12 1.377 . S
C9 C7 1.364 . S
C9 C10 1.374 . S
C10 H1 0.930 . S
C10 C9 1.374 . S
C10 C11 1.383 . S
C11 O5 1.412 . S
C11 C10 1.383 . S
C11 C12 1.394 . S
C12 H2 0.929 . S
C12 C8 1.377 . S
C12 C11 1.394 . S
H13 C20 0.929 . S
H14 C23 0.930 . S
H15 C25 0.929 . S
H16 C17 0.969 . S
C17 H16 0.969 . S
C17 O18 1.550 . S
C17 H19 0.973 . S
O18 C17 1.550 . S
O18 C24 1.412 . S
H19 C17 0.973 . S
C20 H13 0.929 . S
C20 C21 1.400 . S
C20 C22 1.364 . S
C21 C20 1.400 . S
C21 C25 1.377 . S
C22 C20 1.364 . S
C22 C23 1.374 . S
C23 H14 0.930 . S
C23 C22 1.374 . S
C23 C24 1.383 . S
C24 O18 1.412 . S
C24 C23 1.383 . S
C24 C25 1.394 . S
C25 H15 0.929 . S
C25 C21 1.377 . S
C25 C24 1.394 . S
H26 C33 0.929 . S
H27 C36 0.930 . S
H28 C38 0.929 . S
H29 C30 0.969 . S
C30 H29 0.969 . S
C30 O31 1.550 . S
C30 H32 0.973 . S
O31 C30 1.550 . S
O31 C37 1.412 . S
H32 C30 0.973 . S
C33 H26 0.929 . S
C33 C34 1.400 . S
C33 C35 1.364 . S
C34 C33 1.400 . S
C34 C38 1.377 . S
C35 C33 1.364 . S
C35 C36 1.374 . S
C36 H27 0.930 . S
C36 C35 1.374 . S
C36 C37 1.383 . S
C37 O31 1.412 . S
C37 C36 1.383 . S
C37 C38 1.394 . S
C38 H28 0.929 . S
C38 C34 1.377 . S
C38 C37 1.394 . S
H39 C46 0.929 . S
H40 C49 0.930 . S
H41 C51 0.929 . S
H42 C43 0.969 . S
C43 H42 0.969 . S
C43 O44 1.550 . S
C43 H45 0.973 . S
O44 C43 1.550 . S
O44 C50 1.412 . S
H45 C43 0.973 . S
C46 H39 0.929 . S
C46 C47 1.400 . S
C46 C48 1.364 . S
C47 C46 1.400 . S
C47 C51 1.377 . S
C48 C46 1.364 . S
C48 C49 1.374 . S
C49 H40 0.930 . S
C49 C48 1.374 . S
C49 C50 1.383 . S
C50 O44 1.412 . S
C50 C49 1.383 . S
C50 C51 1.394 . S
C51 H41 0.929 . S
C51 C47 1.377 . S
C51 C50 1.394 . S
H52 C59 0.929 . S
H53 C62 0.930 . S
H54 C64 0.929 . S
H55 C56 0.969 . S
C56 H55 0.969 . S
C56 O57 1.550 . S
C56 H58 0.973 . S
O57 C56 1.550 . S
O57 C63 1.412 . S
H58 C56 0.973 . S
C59 H52 0.929 . S
C59 C60 1.400 . S
C59 C61 1.364 . S
C60 C59 1.400 . S
C60 C64 1.377 . S
C61 C59 1.364 . S
C61 C62 1.374 . S
C62 H53 0.930 . S
C62 C61 1.374 . S
C62 C63 1.383 . S
C63 O57 1.412 . S
C63 C62 1.383 . S
C63 C64 1.394 . S
C64 H54 0.929 . S
C64 C60 1.377 . S
C64 C63 1.394 . S
H65 C72 0.929 . S
H66 C75 0.930 . S
H67 C77 0.929 . S
H68 C69 0.969 . S
C69 H68 0.969 . S
C69 O70 1.550 . S
C69 H71 0.973 . S
O70 C69 1.550 . S
O70 C76 1.412 . S
H71 C69 0.973 . S
C72 H65 0.929 . S
C72 C73 1.400 . S
C72 C74 1.364 . S
C73 C72 1.400 . S
C73 C77 1.377 . S
C74 C72 1.364 . S
C74 C75 1.374 . S
C75 H66 0.930 . S
C75 C74 1.374 . S
C75 C76 1.383 . S
C76 O70 1.412 . S
C76 C75 1.383 . S
C76 C77 1.394 . S
C77 H67 0.929 . S
C77 C73 1.377 . S
C77 C76 1.394 . S
H78 C85 0.929 . S
H79 C88 0.930 . S
H80 C90 0.929 . S
H81 C82 0.969 . S
C82 H81 0.969 . S
C82 O83 1.550 . S
C82 H84 0.973 . S
O83 C82 1.550 . S
O83 C89 1.412 . S
H84 C82 0.973 . S
C85 H78 0.929 . S
C85 C86 1.400 . S
C85 C87 1.364 . S
C86 C85 1.400 . S
C86 C90 1.377 . S
C87 C85 1.364 . S
C87 C88 1.374 . S
C88 H79 0.930 . S
C88 C87 1.374 . S
C88 C89 1.383 . S
C89 O83 1.412 . S
C89 C88 1.383 . S
C89 C90 1.394 . S
C90 H80 0.929 . S
C90 C86 1.377 . S
C90 C89 1.394 . S
H91 C98 0.929 . S
H92 C101 0.930 . S
H93 C103 0.929 . S
H94 C95 0.969 . S
C95 H94 0.969 . S
C95 O96 1.550 . S
C95 H97 0.973 . S
O96 C95 1.550 . S
O96 C102 1.412 . S
H97 C95 0.973 . S
C98 H91 0.929 . S
C98 C99 1.400 . S
C98 C100 1.364 . S
C99 C98 1.400 . S
C99 C103 1.377 . S
C100 C98 1.364 . S
C100 C101 1.374 . S
C101 H92 0.930 . S
C101 C100 1.374 . S
C101 C102 1.383 . S
C102 O96 1.412 . S
C102 C101 1.383 . S
C102 C103 1.394 . S
C103 H93 0.929 . S
C103 C99 1.377 . S
C103 C102 1.394 . S
Zn104 O110 1.941 . S
Zn104 O116 1.898 . S
Zn104 O119 1.905 . S
Zn105 O113 1.905 1_655 S
Zn105 O114 1.898 . S
Zn105 O122 1.920 . S
Zn106 O109 2.080 1_455 S
Zn106 O112 2.114 . S
Zn106 O115 2.120 1_455 S
Zn106 O117 2.120 . S
Zn106 O118 2.114 . S
Zn106 O121 2.080 1_455 S
C107 O112 1.166 . S
C107 O113 1.182 . S
C108 O114 1.167 . S
C108 O115 1.299 . S
O109 Zn106 2.080 1_655 S
O109 C123 1.305 . S
O110 Zn104 1.941 . S
O110 C123 1.216 1_455 S
C111 O116 1.167 . S
C111 O117 1.299 . S
O112 Zn106 2.114 . S
O112 C107 1.166 . S
O113 Zn105 1.905 1_455 S
O113 C107 1.182 . S
O114 Zn105 1.898 . S
O114 C108 1.167 . S
O115 Zn106 2.120 1_655 S
O115 C108 1.299 . S
O116 Zn104 1.898 . S
O116 C111 1.167 . S
O117 Zn106 2.120 . S
O117 C111 1.299 . S
O118 Zn106 2.114 . S
O118 C120 1.166 . S
O119 Zn104 1.905 . S
O119 C120 1.182 . S
C120 O118 1.166 . S
C120 O119 1.182 . S
O121 Zn106 2.080 1_655 S
O121 C124 1.305 . S
O122 Zn105 1.920 . S
O122 C124 1.234 . S
C123 O109 1.305 . S
C123 O110 1.216 1_655 S
C124 O121 1.305 . S
C124 O122 1.234 . S
Zn125 O131 1.920 . S
Zn125 O137 1.898 . S
Zn125 O140 1.905 . S
Zn126 O134 1.905 . S
Zn126 O135 1.898 . S
Zn126 O143 1.920 . S
Zn127 O130 2.080 . S
Zn127 O133 2.114 . S
Zn127 O136 2.120 . S
Zn127 O138 2.120 . S
Zn127 O139 2.114 . S
Zn127 O142 2.080 . S
C128 O133 1.166 . S
C128 O134 1.182 . S
C129 O135 1.167 . S
C129 O136 1.299 . S
O130 Zn127 2.080 . S
O130 C144 1.305 . S
O131 Zn125 1.920 . S
O131 C144 1.234 . S
C132 O137 1.167 . S
C132 O138 1.299 . S
O133 Zn127 2.114 . S
O133 C128 1.166 . S
O134 Zn126 1.905 . S
O134 C128 1.182 . S
O135 Zn126 1.898 . S
O135 C129 1.167 . S
O136 Zn127 2.120 . S
O136 C129 1.299 . S
O137 Zn125 1.898 . S
O137 C132 1.167 . S
O138 Zn127 2.120 . S
O138 C132 1.299 . S
O139 Zn127 2.114 . S
O139 C141 1.166 . S
O140 Zn125 1.905 . S
O140 C141 1.182 . S
C141 O139 1.166 . S
C141 O140 1.182 . S
O142 Zn127 2.080 . S
O142 C145 1.305 . S
O143 Zn126 1.920 . S
O143 C145 1.234 . S
C144 O130 1.305 . S
C144 O131 1.234 . S
C145 O142 1.305 . S
C145 O143 1.234 . S
Zn146 O152 1.920 . S
Zn146 O158 1.898 . S
Zn146 O161 1.905 1_455 S
Zn147 O155 1.905 . S
Zn147 O156 1.898 . S
Zn147 O164 1.920 1_655 S
Zn148 O151 2.080 . S
Zn148 O154 2.114 1_455 S
Zn148 O157 2.120 1_455 S
Zn148 O159 2.120 . S
Zn148 O160 2.114 1_455 S
Zn148 O163 2.080 . S
C149 O154 1.166 . S
C149 O155 1.182 . S
C150 O156 1.167 . S
C150 O157 1.299 . S
O151 Zn148 2.080 . S
O151 C165 1.305 . S
O152 Zn146 1.920 . S
O152 C165 1.234 . S
C153 O158 1.167 . S
C153 O159 1.299 . S
O154 Zn148 2.114 1_655 S
O154 C149 1.166 . S
O155 Zn147 1.905 . S
O155 C149 1.182 . S
O156 Zn147 1.898 . S
O156 C150 1.167 . S
O157 Zn148 2.120 1_655 S
O157 C150 1.299 . S
O158 Zn146 1.898 . S
O158 C153 1.167 . S
O159 Zn148 2.120 . S
O159 C153 1.299 . S
O160 Zn148 2.114 1_655 S
O160 C162 1.166 . S
O161 Zn146 1.905 1_655 S
O161 C162 1.182 . S
C162 O160 1.166 . S
C162 O161 1.182 . S
O163 Zn148 2.080 . S
O163 C166 1.305 . S
O164 Zn147 1.920 1_455 S
O164 C166 1.234 . S
C165 O151 1.305 . S
C165 O152 1.234 . S
C166 O163 1.305 . S
C166 O164 1.234 . S
Zn167 O173 1.920 . S
Zn167 O179 1.898 . S
Zn167 O182 1.905 . S
Zn168 O176 1.905 . S
Zn168 O177 1.898 . S
Zn168 O185 1.920 . S
Zn169 O172 2.080 . S
Zn169 O175 2.114 . S
Zn169 O178 2.120 . S
Zn169 O180 2.120 . S
Zn169 O181 2.114 . S
Zn169 O184 2.080 . S
C170 O175 1.166 . S
C170 O176 1.182 . S
C171 O177 1.167 . S
C171 O178 1.299 . S
O172 Zn169 2.080 . S
O172 C186 1.305 . S
O173 Zn167 1.920 . S
O173 C186 1.234 . S
C174 O179 1.167 . S
C174 O180 1.299 . S
O175 Zn169 2.114 . S
O175 C170 1.166 . S
O176 Zn168 1.905 . S
O176 C170 1.182 . S
O177 Zn168 1.898 . S
O177 C171 1.167 . S
O178 Zn169 2.120 . S
O178 C171 1.299 . S
O179 Zn167 1.898 . S
O179 C174 1.167 . S
O180 Zn169 2.120 . S
O180 C174 1.299 . S
O181 Zn169 2.114 . S
O181 C183 1.166 . S
O182 Zn167 1.905 . S
O182 C183 1.182 . S
C183 O181 1.166 . S
C183 O182 1.182 . S
O184 Zn169 2.080 . S
O184 C187 1.305 . S
O185 Zn168 1.920 . S
O185 C187 1.234 . S
C186 O172 1.305 . S
C186 O173 1.234 . S
C187 O184 1.305 . S
C187 O185 1.234 . S
C188 C189 1.387 . S
C188 H192 0.950 . S
C188 C197 1.390 . S
C189 C188 1.387 . S
C189 C191 1.387 . S
H190 C197 0.950 1_545 S
C191 C189 1.387 . S
C191 C193 1.390 . S
C191 H195 0.950 . S
H192 C188 0.950 . S
C193 C191 1.390 . S
C193 C194 1.381 1_565 S
C193 H196 0.950 . S
C194 C193 1.381 1_545 S
C194 C197 1.384 1_545 S
H195 C191 0.950 . S
H196 C193 0.950 . S
C197 C188 1.390 . S
C197 H190 0.950 1_565 S
C197 C194 1.384 1_565 S
C198 C199 1.387 . S
C198 H202 0.950 . S
C198 C207 1.390 . S
C199 C198 1.387 . S
C199 C201 1.387 . S
H200 C207 0.950 . S
C201 C199 1.387 . S
C201 C203 1.390 . S
C201 H205 0.950 . S
H202 C198 0.950 . S
C203 C201 1.390 . S
C203 C204 1.387 . S
C203 H206 0.950 . S
C204 C203 1.387 . S
C204 C207 1.387 . S
H205 C201 0.950 . S
H206 C203 0.950 . S
C207 C198 1.390 . S
C207 H200 0.950 . S
C207 C204 1.387 . S
C208 C209 1.387 . S
C208 H212 0.950 . S
C208 C217 1.390 . S
C209 C208 1.387 . S
C209 C211 1.387 . S
H210 C217 0.950 . S
C211 C209 1.387 . S
C211 C213 1.390 . S
C211 H215 0.950 . S
H212 C208 0.950 . S
C213 C211 1.390 . S
C213 C214 1.387 . S
C213 H216 0.950 . S
C214 C213 1.387 . S
C214 C217 1.387 . S
H215 C211 0.950 . S
H216 C213 0.950 . S
C217 C208 1.390 . S
C217 H210 0.950 . S
C217 C214 1.387 . S
C218 C219 1.387 . S
C218 H222 0.950 . S
C218 C227 1.390 . S
C219 C218 1.387 . S
C219 C221 1.387 . S
H220 C227 0.950 1_545 S
C221 C219 1.387 . S
C221 C223 1.390 . S
C221 H225 0.950 . S
H222 C218 0.950 . S
C223 C221 1.390 . S
C223 C224 1.387 . S
C223 H226 0.950 . S
C224 C223 1.387 . S
C224 C227 1.387 . S
H225 C221 0.950 . S
H226 C223 0.950 . S
C227 C218 1.390 . S
C227 H220 0.950 1_565 S
C227 C224 1.387 . S
C228 C229 1.387 . S
C228 H232 0.950 . S
C228 C237 1.390 . S
C229 C228 1.387 . S
C229 C231 1.387 . S
H230 C237 0.950 1_565 S
C231 C229 1.387 . S
C231 C233 1.390 . S
C231 H235 0.950 . S
H232 C228 0.950 . S
C233 C231 1.390 . S
C233 C234 1.387 . S
C233 H236 0.950 . S
C234 C233 1.387 . S
C234 C237 1.387 . S
H235 C231 0.950 . S
H236 C233 0.950 . S
C237 C228 1.390 . S
C237 H230 0.950 1_545 S
C237 C234 1.387 . S
C238 C239 1.387 . S
C238 H242 0.950 . S
C238 C247 1.390 . S
C239 C238 1.387 . S
C239 C241 1.387 . S
H240 C247 0.950 . S
C241 C239 1.387 . S
C241 C243 1.390 . S
C241 H245 0.950 . S
H242 C238 0.950 . S
C243 C241 1.390 . S
C243 C244 1.387 . S
C243 H246 0.950 . S
C244 C243 1.387 . S
C244 C247 1.387 . S
H245 C241 0.950 . S
H246 C243 0.950 . S
C247 C238 1.390 . S
C247 H240 0.950 . S
C247 C244 1.387 . S
C248 C249 1.387 . S
C248 H252 0.950 . S
C248 C257 1.390 . S
C249 C248 1.387 . S
C249 C251 1.387 . S
H250 C257 0.950 . S
C251 C249 1.387 . S
C251 C253 1.390 . S
C251 H255 0.950 . S
H252 C248 0.950 . S
C253 C251 1.390 . S
C253 C254 1.387 . S
C253 H256 0.950 . S
C254 C253 1.387 . S
C254 C257 1.387 . S
H255 C251 0.950 . S
H256 C253 0.950 . S
C257 C248 1.390 . S
C257 H250 0.950 . S
C257 C254 1.387 . S
C258 C259 1.387 . S
C258 H262 0.950 . S
C258 C267 1.390 . S
C259 C258 1.387 . S
C259 C261 1.387 . S
H260 C267 0.950 . S
C261 C259 1.387 . S
C261 C263 1.390 . S
C261 H265 0.950 . S
H262 C258 0.950 . S
C263 C261 1.390 . S
C263 C264 1.387 . S
C263 H266 0.950 1_545 S
C264 C263 1.387 . S
C264 C267 1.387 . S
H265 C261 0.950 . S
H266 C263 0.950 1_565 S
C267 C258 1.390 . S
C267 H260 0.950 . S
C267 C264 1.387 . S
C268 C269 1.387 1_554 S
C268 H272 0.941 1_554 S
C268 C277 1.399 . S
C269 C268 1.387 1_556 S
C269 C271 1.387 1_556 S
H270 C277 0.950 . S
C271 C269 1.387 1_554 S
C271 C273 1.390 . S
C271 H275 0.950 . S
H272 C268 0.941 1_556 S
C273 C271 1.390 . S
C273 C274 1.387 . S
C273 H276 0.950 . S
C274 C273 1.387 . S
C274 C277 1.387 . S
H275 C271 0.950 . S
H276 C273 0.950 . S
C277 C268 1.399 . S
C277 H270 0.950 . S
C277 C274 1.387 . S
C278 C279 1.387 . S
C278 H282 0.950 . S
C278 C287 1.390 . S
C279 C278 1.387 . S
C279 C281 1.387 . S
H280 C287 0.950 . S
C281 C279 1.387 . S
C281 C283 1.390 . S
C281 H285 0.950 . S
H282 C278 0.950 . S
C283 C281 1.390 . S
C283 C284 1.387 . S
C283 H286 0.950 . S
C284 C283 1.387 . S
C284 C287 1.387 . S
H285 C281 0.950 . S
H286 C283 0.950 . S
C287 C278 1.390 . S
C287 H280 0.950 . S
C287 C284 1.387 . S
C288 C289 1.387 1_556 S
C288 H292 0.950 . S
C288 C297 1.390 . S
C289 C288 1.387 1_554 S
C289 C291 1.387 1_554 S
H290 C297 0.950 . S
C291 C289 1.387 1_556 S
C291 C293 1.390 . S
C291 H295 0.950 1_556 S
H292 C288 0.950 . S
C293 C291 1.390 . S
C293 C294 1.387 . S
C293 H296 0.950 . S
C294 C293 1.387 . S
C294 C297 1.387 . S
H295 C291 0.950 1_554 S
H296 C293 0.950 . S
C297 C288 1.390 . S
C297 H290 0.950 . S
C297 C294 1.387 . S
C298 C299 1.387 . S
C298 H302 0.950 . S
C298 C307 1.390 . S
C299 C298 1.387 . S
C299 C301 1.387 . S
H300 C307 0.950 . S
C301 C299 1.387 . S
C301 C303 1.390 . S
C301 H305 0.950 . S
H302 C298 0.950 . S
C303 C301 1.390 . S
C303 C304 1.387 . S
C303 H306 0.950 . S
C304 C303 1.387 . S
C304 C307 1.387 . S
H305 C301 0.950 . S
H306 C303 0.950 . S
C307 C298 1.390 . S
C307 H300 0.950 . S
C307 C304 1.387 . S
C308 C309 1.387 . S
C308 H312 0.950 . S
C308 C317 1.390 . S
C309 C308 1.387 . S
C309 C311 1.387 . S
H310 C317 0.950 . S
C311 C309 1.387 . S
C311 C313 1.390 . S
C311 H315 0.950 . S
H312 C308 0.950 . S
C313 C311 1.390 . S
C313 C314 1.387 . S
C313 H316 0.950 . S
C314 C313 1.387 . S
C314 C317 1.387 . S
H315 C311 0.950 . S
H316 C313 0.950 . S
C317 C308 1.390 . S
C317 H310 0.950 . S
C317 C314 1.387 . S
C318 C319 1.387 . S
C318 H322 0.950 . S
C318 C327 1.390 . S
C319 C318 1.387 . S
C319 C321 1.387 . S
H320 C327 0.950 . S
C321 C319 1.387 . S
C321 C323 1.390 . S
C321 H325 0.950 . S
H322 C318 0.950 . S
C323 C321 1.390 . S
C323 C324 1.387 . S
C323 H326 0.950 . S
C324 C323 1.387 . S
C324 C327 1.387 . S
H325 C321 0.950 . S
H326 C323 0.950 . S
C327 C318 1.390 . S
C327 H320 0.950 . S
C327 C324 1.387 . S
C328 C329 1.387 . S
C328 H332 0.950 . S
C328 C337 1.390 . S
C329 C328 1.387 . S
C329 C331 1.387 . S
H330 C337 0.950 . S
C331 C329 1.387 . S
C331 C333 1.390 . S
C331 H335 0.950 . S
H332 C328 0.950 . S
C333 C331 1.390 . S
C333 C334 1.387 . S
C333 H336 0.950 . S
C334 C333 1.387 . S
C334 C337 1.387 . S
H335 C331 0.950 . S
H336 C333 0.950 . S
C337 C328 1.390 . S
C337 H330 0.950 . S
C337 C334 1.387 . S
C338 C339 1.387 . S
C338 H342 0.950 . S
C338 C347 1.390 . S
C339 C338 1.387 . S
C339 C341 1.387 . S
H340 C347 0.950 . S
C341 C339 1.387 . S
C341 C343 1.390 . S
C341 H345 0.950 . S
H342 C338 0.950 . S
C343 C341 1.390 . S
C343 C344 1.387 . S
C343 H346 0.950 . S
C344 C343 1.387 . S
C344 C347 1.387 . S
H345 C341 0.950 . S
H346 C343 0.950 . S
C347 C338 1.390 . S
C347 H340 0.950 . S
C347 C344 1.387 . S
C348 C349 1.387 . S
C348 H352 0.950 . S
C348 C357 1.390 . S
C349 C348 1.387 . S
C349 C351 1.387 . S
H350 C357 0.950 . S
C351 C349 1.387 . S
C351 C353 1.390 . S
C351 H355 0.950 . S
H352 C348 0.950 . S
C353 C351 1.390 . S
C353 C354 1.387 . S
C353 H356 0.950 . S
C354 C353 1.387 . S
C354 C357 1.387 . S
H355 C351 0.950 . S
H356 C353 0.950 . S
C357 C348 1.390 . S
C357 H350 0.950 . S
C357 C354 1.387 . S
C358 C359 1.387 . S
C358 H362 0.950 . S
C358 C367 1.390 . S
C359 C358 1.387 . S
C359 C361 1.387 . S
H360 C367 0.950 . S
C361 C359 1.387 . S
C361 C363 1.390 . S
C361 H365 0.950 . S
H362 C358 0.950 . S
C363 C361 1.390 . S
C363 C364 1.387 . S
C363 H366 0.950 . S
C364 C363 1.387 . S
C364 C367 1.387 . S
H365 C361 0.950 . S
H366 C363 0.950 . S
C367 C358 1.390 . S
C367 H360 0.950 . S
C367 C364 1.387 . S
C368 C369 1.387 . S
C368 H372 0.950 . S
C368 C377 1.390 . S
C369 C368 1.387 . S
C369 C371 1.387 . S
H370 C377 0.950 . S
C371 C369 1.387 . S
C371 C373 1.390 . S
C371 H375 0.950 . S
H372 C368 0.950 . S
C373 C371 1.390 . S
C373 C374 1.387 . S
C373 H376 0.950 . S
C374 C373 1.387 . S
C374 C377 1.387 . S
H375 C371 0.950 . S
H376 C373 0.950 . S
C377 C368 1.390 . S
C377 H370 0.950 . S
C377 C374 1.387 . S
C378 C379 1.387 . S
C378 H382 0.950 . S
C378 C387 1.390 . S
C379 C378 1.387 . S
C379 C381 1.387 . S
H380 C387 0.950 . S
C381 C379 1.387 . S
C381 C383 1.390 . S
C381 H385 0.950 . S
H382 C378 0.950 . S
C383 C381 1.390 . S
C383 C384 1.387 . S
C383 H386 0.950 . S
C384 C383 1.387 . S
C384 C387 1.387 . S
H385 C381 0.950 . S
H386 C383 0.950 . S
C387 C378 1.390 . S
C387 H380 0.950 . S
C387 C384 1.387 . S
C388 C389 1.387 . S
C388 H392 0.950 . S
C388 C397 1.390 . S
C389 C388 1.387 . S
C389 C391 1.387 . S
H390 C397 0.950 . S
C391 C389 1.387 . S
C391 C393 1.390 . S
C391 H395 0.950 . S
H392 C388 0.950 . S
C393 C391 1.390 . S
C393 C394 1.387 . S
C393 H396 0.950 . S
C394 C393 1.387 . S
C394 C397 1.387 . S
H395 C391 0.950 . S
H396 C393 0.950 . S
C397 C388 1.390 . S
C397 H390 0.950 . S
C397 C394 1.387 . S
C398 C399 1.387 . S
C398 H402 0.950 . S
C398 C407 1.390 . S
C399 C398 1.387 . S
C399 C401 1.387 . S
H400 C407 0.950 . S
C401 C399 1.387 . S
C401 C403 1.390 . S
C401 H405 0.950 . S
H402 C398 0.950 . S
C403 C401 1.390 . S
C403 C404 1.387 . S
C403 H406 0.950 . S
C404 C403 1.387 . S
C404 C407 1.387 . S
H405 C401 0.950 . S
H406 C403 0.950 . S
C407 C398 1.390 . S
C407 H400 0.950 . S
C407 C404 1.387 . S
C408 C409 1.387 . S
C408 H412 0.950 . S
C408 C417 1.390 . S
C409 C408 1.387 . S
C409 C411 1.387 . S
H410 C417 0.950 . S
C411 C409 1.387 . S
C411 C413 1.390 . S
C411 H415 0.950 . S
H412 C408 0.950 . S
C413 C411 1.390 . S
C413 C414 1.387 . S
C413 H416 0.950 . S
C414 C413 1.387 . S
C414 C417 1.387 . S
H415 C411 0.950 . S
H416 C413 0.950 . S
C417 C408 1.390 . S
C417 H410 0.950 . S
C417 C414 1.387 . S
C418 C419 1.387 . S
C418 H422 0.950 . S
C418 C427 1.390 . S
C419 C418 1.387 . S
C419 C421 1.387 . S
H420 C427 0.950 . S
C421 C419 1.387 . S
C421 C423 1.390 . S
C421 H425 0.950 . S
H422 C418 0.950 . S
C423 C421 1.390 . S
C423 C424 1.387 . S
C423 H426 0.950 . S
C424 C423 1.387 . S
C424 C427 1.387 . S
H425 C421 0.950 . S
H426 C423 0.950 . S
C427 C418 1.390 . S
C427 H420 0.950 . S
C427 C424 1.387 . S
C189 C86 1.387 . S
C194 C120 1.321 . S
C204 C128 1.462 . S
C199 C100 1.493 . S
C214 C132 1.307 . S
C209 C60 1.388 . S
C219 C74 1.491 . S
C224 C108 1.452 1_565 S
C234 C149 1.464 1_545 S
C229 C35 1.495 . S
C244 C183 1.310 . S
C239 C47 1.385 . S
C249 C9 1.493 . S
C254 C171 1.452 . S
C259 C21 1.386 . S
C264 C153 1.304 1_545 S
C274 C107 1.367 . S
C269 C22 1.480 . S
C284 C141 1.322 . S
C279 C8 1.466 . S
C294 C145 1.363 . S
C289 C48 1.480 . S
C304 C123 1.315 . S
C299 C34 1.466 . S
C314 C162 1.318 . S
C309 C73 1.464 1_556 S
C319 C61 1.479 . S
C324 C170 1.369 . S
C334 C186 1.320 . S
C329 C99 1.463 1_554 S
C339 C87 1.481 . S
C344 C166 1.368 . S
C354 C111 1.397 . S
C349 C4 1.529 . S
C364 C129 1.313 . S
C359 C17 1.434 . S
C369 C30 1.527 . S
C374 C144 1.403 . S
C384 C124 1.318 . S
C379 C43 1.426 . S
C394 C150 1.314 . S
C389 C56 1.458 . S
C399 C69 1.509 . S
C404 C174 1.394 . S
C409 C82 1.449 . S
C414 C187 1.315 . S
C419 C95 1.510 . S
C424 C165 1.403 . S
