# Generated by pormake.
# Topology pyr, (3,6)-cn, num edge types: 1
# Building blocks:
#     Node 0, Type 0, BuildingBlock: ESEHIV_clean_linker_0, # of connection points: 3
#     Node 1, Type 0, BuildingBlock: ESEHIV_clean_linker_0, # of connection points: 3
#     Node 2, Type 0, BuildingBlock: ESEHIV_clean_linker_0, # of connection points: 3
#     Node 3, Type 0, BuildingBlock: ESEHIV_clean_linker_0, # of connection points: 3
#     Node 4, Type 0, BuildingBlock: ESEHIV_clean_linker_0, # of connection points: 3
#     Node 5, Type 0, BuildingBlock: ESEHIV_clean_linker_0, # of connection points: 3
#     Node 6, Type 0, BuildingBlock: ESEHIV_clean_linker_0, # of connection points: 3
#     Node 7, Type 0, BuildingBlock: ESEHIV_clean_linker_0, # of connection points: 3
#     Node 8, Type 1, BuildingBlock: MIDCAF_clean_sbu_0, # of connection points: 6
#     Node 9, Type 1, BuildingBlock: MIDCAF_clean_sbu_0, # of connection points: 6
#     Node 10, Type 1, BuildingBlock: MIDCAF_clean_sbu_0, # of connection points: 6
#     Node 11, Type 1, BuildingBlock: MIDCAF_clean_sbu_0, # of connection points: 6
#     Edge 12, Type (0, 1), BuildingBlock: CIFDUS_clean_linker_0, # of connection points: 2
#     Edge 13, Type (0, 1), BuildingBlock: CIFDUS_clean_linker_0, # of connection points: 2
#     Edge 14, Type (0, 1), BuildingBlock: CIFDUS_clean_linker_0, # of connection points: 2
#     Edge 15, Type (0, 1), BuildingBlock: CIFDUS_clean_linker_0, # of connection points: 2
#     Edge 16, Type (0, 1), BuildingBlock: CIFDUS_clean_linker_0, # of connection points: 2
#     Edge 17, Type (0, 1), BuildingBlock: CIFDUS_clean_linker_0, # of connection points: 2
#     Edge 18, Type (0, 1), BuildingBlock: CIFDUS_clean_linker_0, # of connection points: 2
#     Edge 19, Type (0, 1), BuildingBlock: CIFDUS_clean_linker_0, # of connection points: 2
#     Edge 20, Type (0, 1), BuildingBlock: CIFDUS_clean_linker_0, # of connection points: 2
#     Edge 21, Type (0, 1), BuildingBlock: CIFDUS_clean_linker_0, # of connection points: 2
#     Edge 22, Type (0, 1), BuildingBlock: CIFDUS_clean_linker_0, # of connection points: 2
#     Edge 23, Type (0, 1), BuildingBlock: CIFDUS_clean_linker_0, # of connection points: 2
#     Edge 24, Type (0, 1), BuildingBlock: CIFDUS_clean_linker_0, # of connection points: 2
#     Edge 25, Type (0, 1), BuildingBlock: CIFDUS_clean_linker_0, # of connection points: 2
#     Edge 26, Type (0, 1), BuildingBlock: CIFDUS_clean_linker_0, # of connection points: 2
#     Edge 27, Type (0, 1), BuildingBlock: CIFDUS_clean_linker_0, # of connection points: 2
#     Edge 28, Type (0, 1), BuildingBlock: CIFDUS_clean_linker_0, # of connection points: 2
#     Edge 29, Type (0, 1), BuildingBlock: CIFDUS_clean_linker_0, # of connection points: 2
#     Edge 30, Type (0, 1), BuildingBlock: CIFDUS_clean_linker_0, # of connection points: 2
#     Edge 31, Type (0, 1), BuildingBlock: CIFDUS_clean_linker_0, # of connection points: 2
#     Edge 32, Type (0, 1), BuildingBlock: CIFDUS_clean_linker_0, # of connection points: 2
#     Edge 33, Type (0, 1), BuildingBlock: CIFDUS_clean_linker_0, # of connection points: 2
#     Edge 34, Type (0, 1), BuildingBlock: CIFDUS_clean_linker_0, # of connection points: 2
#     Edge 35, Type (0, 1), BuildingBlock: CIFDUS_clean_linker_0, # of connection points: 2
# Relax obj value: 0.019
# Max RMSD: 0.063
# Mean RMSD: 0.024
data_MOF--net-pyr--node1-MIDCAF_clean_sbu_0--node2-ESEHIV_clean_linker_0--edge1-CIFDUS_clean_linker_0
_symmetry_space_group_name_H-M    P1
_symmetry_Int_Tables_number       1
_symmetry_cell_setting            triclinic
loop_
_symmetry_equiv_pos_as_xyz
'x, y, z'
_cell_length_a     29.106323
_cell_length_b     29.169537
_cell_length_c     29.239807
_cell_angle_alpha  90.11512
_cell_angle_beta   90.223993
_cell_angle_gamma 90.480575
loop_
_atom_site_label
_atom_site_type_symbol
_atom_site_fract_x
_atom_site_fract_y
_atom_site_fract_z
_atom_type_partial_charge
H0 H 0.16026 0.28824 0.28122 0.0
H1 H 0.24649 0.17041 0.26441 0.0
H2 H 0.25921 0.28309 0.17209 0.0
C3 C 0.18794 0.27127 0.26368 0.0
C4 C 0.20736 0.29166 0.22437 0.0
C5 C 0.20217 0.22788 0.27935 0.0
C6 C 0.23704 0.20505 0.25521 0.0
C7 C 0.25711 0.22492 0.21647 0.0
C8 C 0.24309 0.26844 0.20205 0.0
H9 H 0.24825 0.84865 0.77987 0.0
H10 H 0.36043 0.75524 0.77968 0.0
H11 H 0.25768 0.74488 0.67453 0.0
C12 C 0.26439 0.81888 0.765 0.0
C13 C 0.24543 0.79728 0.72583 0.0
C14 C 0.30627 0.80422 0.78356 0.0
C15 C 0.32793 0.76591 0.76508 0.0
C16 C 0.31068 0.7442 0.72565 0.0
C17 C 0.26928 0.75984 0.70649 0.0
H18 H 0.74327 0.25712 0.87358 0.0
H19 H 0.75155 0.36939 0.77913 0.0
H20 H 0.66946 0.25122 0.74634 0.0
C21 C 0.73412 0.27214 0.84119 0.0
C22 C 0.70096 0.25015 0.81337 0.0
C23 C 0.75437 0.31441 0.82841 0.0
C24 C 0.73989 0.33505 0.7873 0.0
C25 C 0.70807 0.31294 0.75816 0.0
C26 C 0.69165 0.26926 0.77019 0.0
H27 H 0.76692 0.78285 0.347 0.0
H28 H 0.8629 0.79301 0.23513 0.0
H29 H 0.76296 0.68451 0.23804 0.0
C30 C 0.78008 0.77083 0.31464 0.0
C31 C 0.76101 0.73069 0.29522 0.0
C32 C 0.81713 0.79413 0.2935 0.0
C33 C 0.8337 0.7769 0.25146 0.0
C34 C 0.81399 0.73784 0.23076 0.0
C35 C 0.77752 0.71542 0.25292 0.0
H36 H 0.87711 1.00005 0.89208 0.0
H37 H 0.98821 0.90371 0.89417 0.0
H38 H 0.88361 0.89724 0.99727 0.0
C39 C 0.89445 0.97137 0.90786 0.0
C40 C 0.87579 0.95118 0.94732 0.0
C41 C 0.9352 0.95445 0.88856 0.0
C42 C 0.95705 0.91709 0.90916 0.0
C43 C 0.9387 0.89629 0.94837 0.0
C44 C 0.89811 0.91351 0.96724 0.0
H45 H 0.55842 0.17765 0.38929 0.0
H46 H 0.65618 0.06875 0.37887 0.0
H47 H 0.65412 0.15464 0.49903 0.0
C48 C 0.58579 0.15766 0.40441 0.0
C49 C 0.60348 0.16964 0.44763 0.0
C50 C 0.6054 0.12193 0.37933 0.0
C51 C 0.64158 0.0967 0.39832 0.0
C52 C 0.65899 0.10748 0.44194 0.0
C53 C 0.64004 0.14461 0.4661 0.0
H54 H 0.3669 0.63283 0.05847 0.0
H55 H 0.38521 0.53623 0.16785 0.0
H56 H 0.48726 0.64102 0.14408 0.0
C57 C 0.38743 0.61953 0.0864 0.0
C58 C 0.42915 0.6411 0.09795 0.0
C59 C 0.37162 0.58145 0.11137 0.0
C60 C 0.39784 0.56508 0.14809 0.0
C61 C 0.43984 0.58627 0.15985 0.0
C62 C 0.45525 0.62416 0.13461 0.0
H63 H 0.05705 0.38842 0.62725 0.0
H64 H 0.18557 0.37823 0.55524 0.0
H65 H 0.16695 0.48317 0.65685 0.0
C66 C 0.09143 0.40109 0.62022 0.0
C67 C 0.10851 0.43858 0.64521 0.0
C68 C 0.1186 0.37951 0.58689 0.0
C69 C 0.16394 0.39501 0.58018 0.0
C70 C 0.18139 0.4326 0.60518 0.0
C71 C 0.15323 0.45477 0.63691 0.0
Zn72 Zn 0.96776 0.08166 0.57183 0.0
Zn73 Zn 0.06486 0.96448 0.47838 0.0
Zn74 Zn 0.01471 0.02456 0.52807 0.0
C75 C 0.09952 0.05312 0.46135 0.0
C76 C 0.97302 0.95527 0.45009 0.0
O77 O 0.01932 0.00662 0.60222 0.0
O78 O 0.98497 0.06545 0.63451 0.0
C79 C 0.02799 0.13569 0.52574 0.0
O80 O 0.06607 0.06386 0.488 0.0
O81 O 0.10794 0.01158 0.45272 0.0
O82 O 0.01265 0.94136 0.4398 0.0
O83 O 0.96771 0.98526 0.48208 0.0
O84 O 0.99134 0.14005 0.54807 0.0
O85 O 0.04278 0.09527 0.51597 0.0
O86 O 0.94167 0.01858 0.50471 0.0
O87 O 0.90557 0.06358 0.55328 0.0
C88 C 0.90415 0.03586 0.5202 0.0
O89 O 0.05005 0.97862 0.57684 0.0
O90 O 0.08513 0.92808 0.53268 0.0
C91 C 0.00574 0.0279 0.6384 0.0
C92 C 0.0755 0.94295 0.5721 0.0
Zn93 Zn 0.46175 0.05243 0.98317 0.0
Zn94 Zn 0.55896 0.95467 0.08851 0.0
Zn95 Zn 0.50974 0.00507 0.03668 0.0
C96 C 0.62058 0.99139 0.02783 0.0
C97 C 0.49806 0.89461 0.0491 0.0
O98 O 0.47142 0.05509 0.0806 0.0
O99 O 0.42399 0.08357 0.02912 0.0
C100 C 0.55033 0.07489 0.96006 0.0
O101 O 0.58296 0.00899 0.01244 0.0
O102 O 0.61987 0.96675 0.06317 0.0
O103 O 0.5325 0.89434 0.07531 0.0
O104 O 0.48382 0.93263 0.03171 0.0
O105 O 0.50987 0.08827 0.95287 0.0
O106 O 0.5576 0.04217 0.98883 0.0
O107 O 0.45981 0.95872 0.99938 0.0
O108 O 0.43173 0.00458 0.94625 0.0
C109 C 0.43444 0.96523 0.96367 0.0
O110 O 0.50421 0.0321 0.10797 0.0
O111 O 0.54586 0.98291 0.14772 0.0
C112 C 0.43697 0.08076 0.07022 0.0
C113 C 0.52114 0.01811 0.1463 0.0
Zn114 Zn 0.59162 0.58057 0.55973 0.0
Zn115 Zn 0.48079 0.48102 0.47451 0.0
Zn116 Zn 0.53205 0.53025 0.51781 0.0
C117 C 0.534 0.41913 0.51645 0.0
C118 C 0.52153 0.52859 0.40748 0.0
O119 O 0.49099 0.56918 0.56911 0.0
O120 O 0.54759 0.60667 0.60341 0.0
C121 C 0.62122 0.49345 0.57538 0.0
O122 O 0.55523 0.45724 0.5251 0.0
O123 O 0.49471 0.42008 0.4983 0.0
O124 O 0.49995 0.49125 0.41149 0.0
O125 O 0.53473 0.55041 0.44374 0.0
O126 O 0.63524 0.53398 0.58181 0.0
O127 O 0.58366 0.4859 0.55282 0.0
O128 O 0.56434 0.57952 0.46827 0.0
O129 O 0.61124 0.62218 0.51066 0.0
C130 C 0.5934 0.61299 0.47238 0.0
O131 O 0.46083 0.53695 0.54613 0.0
O132 O 0.42036 0.50449 0.49071 0.0
C133 C 0.50514 0.59818 0.59953 0.0
C134 C 0.42172 0.52552 0.52829 0.0
Zn135 Zn 0.07526 0.58255 0.94247 0.0
Zn136 Zn 0.97388 0.48887 0.0546 0.0
Zn137 Zn 0.02576 0.53232 0.99337 0.0
C138 C 0.06477 0.46697 0.07493 0.0
C139 C 0.9474 0.45892 0.96508 0.0
O140 O 0.00809 0.6068 1.00007 0.0
O141 O 0.05983 0.64535 0.96026 0.0
C142 C 0.13706 0.53273 0.99254 0.0
O143 O 0.07125 0.49248 0.0395 0.0
O144 O 0.02469 0.46008 0.08995 0.0
O145 O 0.93968 0.45344 0.00725 0.0
O146 O 0.97971 0.48653 0.95215 0.0
O147 O 0.13626 0.56001 0.95919 0.0
O148 O 0.09919 0.5194 0.01121 0.0
O149 O 0.01396 0.50711 0.92225 0.0
O150 O 0.05172 0.56035 0.88366 0.0
C151 C 0.02777 0.52413 0.88392 0.0
O152 O 0.98446 0.58212 0.03358 0.0
O153 O 0.94202 0.54174 0.08193 0.0
C154 C 0.02501 0.64523 0.98571 0.0
C155 C 0.95443 0.57994 0.06586 0.0
H156 H 0.2376 0.16893 0.34317 0.0
H157 H 0.11041 0.23268 0.3022 0.0
H158 H 0.06936 0.19019 0.36071 0.0
H159 H 0.06727 0.12802 0.41754 0.0
H160 H 0.19196 0.05652 0.45045 0.0
H161 H 0.23592 0.10825 0.40104 0.0
C162 C 0.20087 0.17352 0.34671 0.0
C163 C 0.1776 0.20434 0.31783 0.0
C164 C 0.17673 0.14712 0.37904 0.0
C165 C 0.12997 0.21021 0.32413 0.0
C166 C 0.10609 0.18539 0.35742 0.0
C167 C 0.10421 0.12453 0.41453 0.0
C168 C 0.12652 0.08885 0.43765 0.0
C169 C 0.12887 0.15297 0.38434 0.0
C170 C 0.17421 0.08392 0.43294 0.0
C171 C 0.19926 0.11334 0.40458 0.0
H172 H 0.29964 0.81772 0.8765 0.0
H173 H 0.37502 0.85851 0.75648 0.0
H174 H 0.42422 0.90868 0.80258 0.0
H175 H 0.44429 0.94297 0.87607 0.0
H176 H 0.36852 0.90644 0.99673 0.0
H177 H 0.32191 0.85151 0.95221 0.0
C178 C 0.3268 0.83781 0.86079 0.0
C179 C 0.3337 0.83501 0.8133 0.0
C180 C 0.35533 0.86653 0.88775 0.0
C181 C 0.36914 0.86063 0.793 0.0
C182 C 0.39733 0.88908 0.81931 0.0
C183 C 0.41806 0.92229 0.89268 0.0
C184 C 0.41074 0.92732 0.93975 0.0
C185 C 0.39065 0.89242 0.86656 0.0
C186 C 0.37615 0.90129 0.96095 0.0
C187 C 0.34891 0.87071 0.93523 0.0
H188 H 0.74954 0.37267 0.69819 0.0
H189 H 0.61853 0.30952 0.72921 0.0
H190 H 0.58182 0.35415 0.6697 0.0
H191 H 0.58438 0.4181 0.61547 0.0
H192 H 0.71328 0.4866 0.58911 0.0
H193 H 0.75299 0.43341 0.63999 0.0
C194 C 0.713 0.36855 0.69191 0.0
C195 C 0.68719 0.33749 0.71843 0.0
C196 C 0.69143 0.39568 0.65849 0.0
C197 C 0.63984 0.33233 0.70906 0.0
C198 C 0.61848 0.35828 0.67519 0.0
C199 C 0.62134 0.42052 0.61995 0.0
C200 C 0.64593 0.45598 0.5985 0.0
C201 C 0.64365 0.39086 0.65048 0.0
C202 C 0.69368 0.45943 0.60529 0.0
C203 C 0.71634 0.42919 0.63454 0.0
H204 H 0.90471 0.7325 0.20562 0.0
H205 H 0.76775 0.69657 0.15971 0.0
H206 H 0.79963 0.64738 0.10068 0.0
H207 H 0.86605 0.60585 0.06993 0.0
H208 H 0.00283 0.64586 0.11091 0.0
H209 H 0.97141 0.70353 0.1631 0.0
C210 C 0.88166 0.71524 0.18189 0.0
C211 C 0.83372 0.71713 0.18843 0.0
C212 C 0.90023 0.68753 0.14724 0.0
C213 C 0.80475 0.69438 0.15687 0.0
C214 C 0.82292 0.6664 0.12282 0.0
C215 C 0.88883 0.62818 0.08943 0.0
C216 C 0.93643 0.62164 0.0873 0.0
C217 C 0.87053 0.66123 0.11899 0.0
C218 C 0.96597 0.65061 0.11225 0.0
C219 C 0.948 0.68325 0.14226 0.0
H220 H 0.34384 0.19188 0.23227 0.0
H221 H 0.2346 0.19569 0.13236 0.0
H222 H 0.27998 0.14983 0.07962 0.0
H223 H 0.35015 0.10989 0.06135 0.0
H224 H 0.46364 0.1107 0.15622 0.0
H225 H 0.41717 0.15257 0.21208 0.0
C226 C 0.33027 0.18246 0.19893 0.0
C227 C 0.28613 0.19706 0.18591 0.0
C228 C 0.35708 0.15666 0.16826 0.0
C229 C 0.26864 0.18497 0.14274 0.0
C230 C 0.29449 0.15873 0.1127 0.0
C231 C 0.36498 0.11917 0.09422 0.0
C232 C 0.41009 0.10597 0.10512 0.0
C233 C 0.33872 0.14464 0.12499 0.0
C234 C 0.4285 0.11859 0.14782 0.0
C235 C 0.40208 0.14325 0.17939 0.0
H236 H 0.21632 0.88732 0.72303 0.0
H237 H 0.18019 0.75165 0.67391 0.0
H238 H 0.12213 0.78449 0.62409 0.0
H239 H 0.0871 0.85246 0.58853 0.0
H240 H 0.11696 0.98659 0.64357 0.0
H241 H 0.17052 0.9531 0.69877 0.0
C242 C 0.19506 0.86431 0.70282 0.0
C243 C 0.20429 0.81679 0.7017 0.0
C244 C 0.16031 0.88321 0.67524 0.0
C245 C 0.17578 0.78845 0.67442 0.0
C246 C 0.14201 0.80715 0.6461 0.0
C247 C 0.10459 0.87413 0.61339 0.0
C248 C 0.09861 0.92188 0.6118 0.0
C249 C 0.13496 0.85459 0.64522 0.0
C250 C 0.12102 0.94971 0.64429 0.0
C251 C 0.15192 0.93059 0.67555 0.0
H252 H 0.82643 0.37198 0.8054 0.0
H253 H 0.75782 0.3129 0.92269 0.0
H254 H 0.81395 0.34812 0.97309 0.0
H255 H 0.88101 0.3967 0.98507 0.0
H256 H 0.9411 0.46858 0.8712 0.0
H257 H 0.88988 0.42752 0.81846 0.0
C258 C 0.82317 0.36712 0.84197 0.0
C259 C 0.78807 0.33836 0.85951 0.0
C260 C 0.85445 0.3896 0.87156 0.0
C261 C 0.78516 0.33283 0.90731 0.0
C262 C 0.81706 0.35361 0.93657 0.0
C263 C 0.88334 0.40344 0.94869 0.0
C264 C 0.91677 0.43435 0.93201 0.0
C265 C 0.85181 0.38194 0.91909 0.0
C266 C 0.9179 0.44317 0.88482 0.0
C267 C 0.88781 0.42027 0.85473 0.0
H268 H 0.68781 0.75885 0.34698 0.0
H269 H 0.75804 0.63722 0.3015 0.0
H270 H 0.70553 0.58939 0.34508 0.0
H271 H 0.64538 0.58199 0.40331 0.0
H272 H 0.58102 0.70326 0.45604 0.0
H273 H 0.62462 0.75105 0.40242 0.0
C274 C 0.69161 0.72191 0.34656 0.0
C275 C 0.72689 0.70196 0.32062 0.0
C276 C 0.66201 0.69432 0.37301 0.0
C277 C 0.7308 0.65381 0.32025 0.0
C278 C 0.70091 0.62622 0.34551 0.0
C279 C 0.63999 0.61873 0.40185 0.0
C280 C 0.60971 0.63923 0.43273 0.0
C281 C 0.66696 0.64608 0.3727 0.0
C282 C 0.60375 0.68691 0.43183 0.0
C283 C 0.62904 0.71421 0.40159 0.0
H284 H 0.20415 0.31737 0.13356 0.0
H285 H 0.16399 0.36346 0.26832 0.0
H286 H 0.11836 0.42376 0.23392 0.0
H287 H 0.0832 0.4582 0.16522 0.0
H288 H 0.131 0.41847 0.03175 0.0
H289 H 0.18245 0.36223 0.06649 0.0
C290 C 0.18703 0.34123 0.15604 0.0
C291 C 0.18682 0.33414 0.2039 0.0
C292 C 0.16221 0.37727 0.13618 0.0
C293 C 0.16346 0.36606 0.23143 0.0
C294 C 0.13762 0.40116 0.2118 0.0
C295 C 0.10575 0.4379 0.14393 0.0
C296 C 0.10304 0.44179 0.09609 0.0
C297 C 0.13558 0.40613 0.16417 0.0
C298 C 0.13261 0.41591 0.06869 0.0
C299 C 0.1617 0.38354 0.08854 0.0
H300 H 0.71997 0.18606 0.88189 0.0
H301 H 0.61253 0.22722 0.78759 0.0
H302 H 0.5614 0.17142 0.81985 0.0
H303 H 0.54245 0.1176 0.87954 0.0
H304 H 0.64156 0.08686 0.98464 0.0
H305 H 0.69994 0.13207 0.94398 0.0
C306 C 0.6854 0.18349 0.86834 0.0
C307 C 0.67142 0.21155 0.83135 0.0
C308 C 0.65404 0.1531 0.88944 0.0
C309 C 0.62618 0.20582 0.81442 0.0
C310 C 0.596 0.17413 0.83354 0.0
C311 C 0.57694 0.12043 0.89356 0.0
C312 C 0.58787 0.09803 0.93463 0.0
C313 C 0.60911 0.14858 0.87166 0.0
C314 C 0.63267 0.1023 0.95225 0.0
C315 C 0.66581 0.12883 0.92932 0.0
H316 H 0.82498 0.8133 0.38605 0.0
H317 H 0.86317 0.86701 0.25352 0.0
H318 H 0.91306 0.9232 0.29023 0.0
H319 H 0.95205 0.95229 0.35984 0.0
H320 H 0.90605 0.90624 0.49188 0.0
H321 H 0.85127 0.85328 0.45532 0.0
C322 C 0.84279 0.83791 0.36473 0.0
C323 C 0.84108 0.83398 0.31652 0.0
C324 C 0.87007 0.8719 0.38609 0.0
C325 C 0.86518 0.86694 0.29047 0.0
C326 C 0.89347 0.89979 0.31147 0.0
C327 C 0.9291 0.93145 0.38045 0.0
C328 C 0.93308 0.93267 0.42831 0.0
C329 C 0.89724 0.90169 0.35919 0.0
C330 C 0.90327 0.90583 0.45491 0.0
C331 C 0.87229 0.87532 0.434 0.0
H332 H 0.40249 0.74845 0.7132 0.0
H333 H 0.28412 0.66412 0.68157 0.0
H334 H 0.33347 0.61001 0.64054 0.0
H335 H 0.41147 0.58737 0.61365 0.0
H336 H 0.52767 0.67343 0.64911 0.0
H337 H 0.47814 0.72485 0.6903 0.0
C338 C 0.3873 0.71775 0.69834 0.0
C339 C 0.33967 0.71012 0.70121 0.0
C340 C 0.41569 0.68683 0.67556 0.0
C341 C 0.32071 0.67093 0.67992 0.0
C342 C 0.34896 0.6399 0.6566 0.0
C343 C 0.42572 0.61739 0.63008 0.0
C344 C 0.47328 0.62635 0.62741 0.0
C345 C 0.39666 0.64758 0.65406 0.0
C346 C 0.49134 0.66516 0.65023 0.0
C347 C 0.46298 0.69501 0.6738 0.0
H348 H 0.96804 0.91014 0.81343 0.0
H349 H 0.94629 0.04524 0.86938 0.0
H350 H 0.97421 0.07977 0.79863 0.0
H351 H 0.9979 0.07156 0.71922 0.0
H352 H 0.01444 0.93686 0.66069 0.0
H353 H 0.99803 0.90211 0.73499 0.0
C354 C 0.97012 0.94714 0.81037 0.0
C355 C 0.95464 0.97514 0.84643 0.0
C356 C 0.98587 0.96675 0.76941 0.0
C357 C 0.95715 0.023 0.84182 0.0
C358 C 0.97344 0.04273 0.80154 0.0
C359 C 0.99875 0.03456 0.72282 0.0
C360 C 0.00743 0.00685 0.68439 0.0
C361 C 0.98692 0.01493 0.76485 0.0
C362 C 0.00867 0.95904 0.68976 0.0
C363 C 0.99848 0.93914 0.73212 0.0
H364 H 0.52309 0.08902 0.34826 0.0
H365 H 0.65673 0.13531 0.3042 0.0
H366 H 0.63792 0.11492 0.22518 0.0
H367 H 0.58755 0.07549 0.17075 0.0
H368 H 0.45716 0.02115 0.2146 0.0
H369 H 0.46955 0.05393 0.29133 0.0
C370 C 0.54758 0.09513 0.32103 0.0
C371 C 0.59126 0.11327 0.33159 0.0
C372 C 0.53693 0.08202 0.27583 0.0
C373 C 0.62308 0.12102 0.29652 0.0
C374 C 0.61231 0.10946 0.25148 0.0
C375 C 0.5613 0.0722 0.19685 0.0
C376 C 0.52124 0.04697 0.18733 0.0
C377 C 0.56988 0.08889 0.24099 0.0
C378 C 0.48784 0.04138 0.22133 0.0
C379 C 0.49523 0.05963 0.26517 0.0
H380 H 0.4748 0.63699 0.23026 0.0
H381 H 0.46423 0.49863 0.17864 0.0
H382 H 0.49914 0.46955 0.24878 0.0
H383 H 0.52173 0.48238 0.32803 0.0
H384 H 0.52542 0.61952 0.38328 0.0
H385 H 0.50657 0.65056 0.30782 0.0
C386 C 0.4811 0.6006 0.23411 0.0
C387 C 0.46645 0.56982 0.19974 0.0
C388 C 0.50019 0.58405 0.27505 0.0
C389 C 0.47453 0.52277 0.20505 0.0
C390 C 0.49463 0.5062 0.245 0.0
C391 C 0.51947 0.51919 0.32333 0.0
C392 C 0.52457 0.5486 0.36121 0.0
C393 C 0.50602 0.53636 0.28075 0.0
C394 C 0.52212 0.59619 0.35461 0.0
C395 C 0.51053 0.61385 0.31159 0.0
H396 H 0.07286 0.39608 0.71958 0.0
H397 H 0.08392 0.52764 0.65351 0.0
H398 H 0.04869 0.5646 0.71968 0.0
H399 H 0.0262 0.56091 0.7998 0.0
H400 H 0.0243 0.43112 0.87006 0.0
H401 H 0.04245 0.39157 0.79843 0.0
C402 C 0.06649 0.43267 0.71948 0.0
C403 C 0.08102 0.45934 0.68211 0.0
C404 C 0.0478 0.45382 0.75836 0.0
C405 C 0.0732 0.50671 0.68219 0.0
C406 C 0.05309 0.52774 0.71993 0.0
C407 C 0.02858 0.5238 0.79917 0.0
C408 C 0.02398 0.49896 0.84011 0.0
C409 C 0.04184 0.50186 0.75875 0.0
C410 C 0.02717 0.45095 0.83889 0.0
C411 C 0.03823 0.42844 0.79807 0.0
H412 H 0.79515 0.9714 0.90374 0.0
H413 H 0.8597 0.96955 0.03683 0.0
H414 H 0.78675 0.98836 0.07274 0.0
H415 H 0.70371 0.99685 0.06723 0.0
H416 H 0.63694 0.9956 0.93545 0.0
H417 H 0.71181 0.98802 0.89781 0.0
C418 C 0.79331 0.97602 0.94049 0.0
C419 C 0.8326 0.96843 0.96771 0.0
C420 C 0.75092 0.98627 0.96105 0.0
C421 C 0.82975 0.97436 0.01529 0.0
C422 C 0.78812 0.98526 0.03582 0.0
C423 C 0.70563 0.99569 0.03018 0.0
C424 C 0.66502 0.99662 0.00409 0.0
C425 C 0.74833 0.98997 0.00917 0.0
C426 C 0.66786 0.99528 0.95618 0.0
C427 C 0.71059 0.99051 0.93476 0.0
H428 H 0.73534 0.07589 0.39774 0.0
H429 H 0.6708 0.08044 0.53044 0.0
H430 H 0.73969 0.04892 0.56548 0.0
H431 H 0.82142 0.0317 0.55999 0.0
H432 H 0.88727 0.0283 0.42833 0.0
H433 H 0.81386 0.04521 0.39086 0.0
C434 C 0.73582 0.06888 0.43413 0.0
C435 C 0.69827 0.08168 0.46159 0.0
C436 C 0.77569 0.05068 0.45416 0.0
C437 C 0.69969 0.07232 0.50872 0.0
C438 C 0.73894 0.05394 0.52876 0.0
C439 C 0.81933 0.03328 0.52296 0.0
C440 C 0.85957 0.02943 0.49691 0.0
C441 C 0.77764 0.0447 0.50206 0.0
C442 C 0.85662 0.031 0.44902 0.0
C443 C 0.8148 0.0414 0.42771 0.0
H444 H 0.34564 0.54547 0.03025 0.0
H445 H 0.29745 0.57031 0.16703 0.0
H446 H 0.21942 0.54702 0.14436 0.0
H447 H 0.16326 0.53254 0.08198 0.0
H448 H 0.21265 0.51031 0.945 0.0
H449 H 0.29188 0.51796 0.97145 0.0
C450 C 0.31809 0.54495 0.05515 0.0
C451 C 0.32673 0.56024 0.09986 0.0
C452 C 0.27357 0.53187 0.04179 0.0
C453 C 0.29124 0.55887 0.13226 0.0
C454 C 0.2467 0.54569 0.11928 0.0
C455 C 0.19151 0.52757 0.05844 0.0
C456 C 0.18239 0.52129 0.01163 0.0
C457 C 0.23711 0.53377 0.07366 0.0
C458 C 0.2191 0.51537 0.9812 0.0
C459 C 0.26435 0.5202 0.9962 0.0
H460 H 0.21457 0.51665 0.58095 0.0
H461 H 0.25646 0.38044 0.61874 0.0
H462 H 0.33707 0.40188 0.60801 0.0
H463 H 0.39444 0.45618 0.57958 0.0
H464 H 0.35293 0.58884 0.53144 0.0
H465 H 0.2736 0.5731 0.55583 0.0
C466 C 0.24157 0.492 0.58718 0.0
C467 C 0.22993 0.44696 0.60016 0.0
C468 C 0.28778 0.50425 0.57958 0.0
C469 C 0.26485 0.41507 0.60811 0.0
C470 C 0.31083 0.4274 0.60225 0.0
C471 C 0.36821 0.48221 0.5761 0.0
C472 C 0.37932 0.52401 0.55512 0.0
C473 C 0.32258 0.47152 0.5871 0.0
C474 C 0.34507 0.55694 0.54875 0.0
C475 C 0.29973 0.54758 0.56202 0.0
H476 H 0.89777 0.81624 0.97425 0.0
H477 H 0.02983 0.88388 0.96535 0.0
H478 H 0.06827 0.81219 0.98385 0.0
H479 H 0.06463 0.72879 0.99152 0.0
H480 H 0.93309 0.66 0.99642 0.0
H481 H 0.89403 0.73379 0.99259 0.0
C482 C 0.93488 0.8155 0.97756 0.0
C483 C 0.96101 0.85505 0.96766 0.0
C484 C 0.9568 0.77395 0.98753 0.0
C485 C 0.00908 0.8536 0.97188 0.0
C486 C 0.03105 0.81269 0.98256 0.0
C487 C 0.0274 0.73009 0.99274 0.0
C488 C 1.00174 0.68913 0.99427 0.0
C489 C 0.00533 0.77237 0.98871 0.0
C490 C 0.9536 0.69113 0.99605 0.0
C491 C 0.93126 0.7333 0.99316 0.0
H492 H 0.38066 0.71886 0.08333 0.0
H493 H 0.51271 0.65733 0.06 0.0
H494 H 0.54334 0.73069 0.0331 0.0
H495 H 0.5359 0.814 0.02833 0.0
H496 H 0.40681 0.87732 0.05972 0.0
H497 H 0.37084 0.80173 0.06948 0.0
C498 C 0.41575 0.7214 0.07116 0.0
C499 C 0.44464 0.68307 0.07397 0.0
C500 C 0.43346 0.76405 0.05706 0.0
C501 C 0.49014 0.68665 0.05857 0.0
C502 C 0.5076 0.72851 0.04321 0.0
C503 C 0.4995 0.81101 0.03582 0.0
C504 C 0.47356 0.85085 0.04219 0.0
C505 C 0.48009 0.76772 0.04404 0.0
C506 C 0.42675 0.84698 0.05273 0.0
C507 C 0.40657 0.80378 0.05935 0.0
H508 H 0.16038 0.29819 0.56647 0.0
H509 H 0.03383 0.37214 0.54797 0.0
H510 H 0.99683 0.30344 0.51718 0.0
H511 H 0.99674 0.22024 0.50825 0.0
H512 H 0.12166 0.1447 0.52884 0.0
H513 H 0.16365 0.21638 0.54381 0.0
C514 C 0.12508 0.29955 0.55459 0.0
C515 C 0.09951 0.33993 0.56068 0.0
C516 C 0.10377 0.25961 0.5372 0.0
C517 C 0.05384 0.34114 0.54493 0.0
C518 C 0.03272 0.30195 0.52707 0.0
C519 C 0.0335 0.21965 0.51461 0.0
C520 C 0.05598 0.17739 0.51815 0.0
C521 C 0.05677 0.26062 0.52492 0.0
C522 C 0.10363 0.1769 0.52587 0.0
C523 C 0.12746 0.21785 0.53512 0.0
H524 H 0.65108 0.24455 0.47741 0.0
H525 H 0.51503 0.18522 0.47136 0.0
H526 H 0.48269 0.25582 0.50234 0.0
H527 H 0.49187 0.33681 0.52073 0.0
H528 H 0.62636 0.39989 0.51776 0.0
H529 H 0.66096 0.32513 0.50296 0.0
C530 C 0.6145 0.24697 0.48384 0.0
C531 C 0.58527 0.21007 0.47198 0.0
C532 C 0.59603 0.28826 0.50021 0.0
C533 C 0.53794 0.21345 0.47994 0.0
C534 C 0.51953 0.25371 0.49767 0.0
C535 C 0.52891 0.33412 0.5178 0.0
C536 C 0.55648 0.37393 0.52028 0.0
C537 C 0.54806 0.29174 0.50644 0.0
C538 C 0.60439 0.36979 0.51671 0.0
C539 C 0.62409 0.3271 0.50745 0.0
loop_
_geom_bond_atom_site_label_1
_geom_bond_atom_site_label_2
_geom_bond_distance
_geom_bond_site_symmetry_2
_ccdc_geom_bond_type
H0 C3 0.931 . S
H1 C6 0.928 . S
H2 C8 0.930 . S
C3 H0 0.931 . S
C3 C4 1.413 . S
C3 C5 1.360 . S
C4 C3 1.413 . S
C4 C8 1.429 . S
C5 C3 1.360 . S
C5 C6 1.372 . S
C6 H1 0.928 . S
C6 C5 1.372 . S
C6 C7 1.404 . S
C7 C6 1.404 . S
C7 C8 1.391 . S
C8 H2 0.930 . S
C8 C4 1.429 . S
C8 C7 1.391 . S
H9 C12 0.931 . S
H10 C15 0.928 . S
H11 C17 0.930 . S
C12 H9 0.931 . S
C12 C13 1.413 . S
C12 C14 1.360 . S
C13 C12 1.413 . S
C13 C17 1.429 . S
C14 C12 1.360 . S
C14 C15 1.372 . S
C15 H10 0.928 . S
C15 C14 1.372 . S
C15 C16 1.404 . S
C16 C15 1.404 . S
C16 C17 1.391 . S
C17 H11 0.930 . S
C17 C13 1.429 . S
C17 C16 1.391 . S
H18 C21 0.931 . S
H19 C24 0.928 . S
H20 C26 0.930 . S
C21 H18 0.931 . S
C21 C22 1.413 . S
C21 C23 1.360 . S
C22 C21 1.413 . S
C22 C26 1.429 . S
C23 C21 1.360 . S
C23 C24 1.372 . S
C24 H19 0.928 . S
C24 C23 1.372 . S
C24 C25 1.404 . S
C25 C24 1.404 . S
C25 C26 1.391 . S
C26 H20 0.930 . S
C26 C22 1.429 . S
C26 C25 1.391 . S
H27 C30 0.931 . S
H28 C33 0.928 . S
H29 C35 0.930 . S
C30 H27 0.931 . S
C30 C31 1.413 . S
C30 C32 1.360 . S
C31 C30 1.413 . S
C31 C35 1.429 . S
C32 C30 1.360 . S
C32 C33 1.372 . S
C33 H28 0.928 . S
C33 C32 1.372 . S
C33 C34 1.404 . S
C34 C33 1.404 . S
C34 C35 1.391 . S
C35 H29 0.930 . S
C35 C31 1.429 . S
C35 C34 1.391 . S
H36 C39 0.931 . S
H37 C42 0.928 . S
H38 C44 0.930 . S
C39 H36 0.931 . S
C39 C40 1.413 . S
C39 C41 1.360 . S
C40 C39 1.413 . S
C40 C44 1.429 . S
C41 C39 1.360 . S
C41 C42 1.372 . S
C42 H37 0.928 . S
C42 C41 1.372 . S
C42 C43 1.404 . S
C43 C42 1.404 . S
C43 C44 1.391 . S
C44 H38 0.930 . S
C44 C40 1.429 . S
C44 C43 1.391 . S
H45 C48 0.931 . S
H46 C51 0.928 . S
H47 C53 0.930 . S
C48 H45 0.931 . S
C48 C49 1.413 . S
C48 C50 1.360 . S
C49 C48 1.413 . S
C49 C53 1.429 . S
C50 C48 1.360 . S
C50 C51 1.372 . S
C51 H46 0.928 . S
C51 C50 1.372 . S
C51 C52 1.404 . S
C52 C51 1.404 . S
C52 C53 1.391 . S
C53 H47 0.930 . S
C53 C49 1.429 . S
C53 C52 1.391 . S
H54 C57 0.931 . S
H55 C60 0.928 . S
H56 C62 0.930 . S
C57 H54 0.931 . S
C57 C58 1.413 . S
C57 C59 1.360 . S
C58 C57 1.413 . S
C58 C62 1.429 . S
C59 C57 1.360 . S
C59 C60 1.372 . S
C60 H55 0.928 . S
C60 C59 1.372 . S
C60 C61 1.404 . S
C61 C60 1.404 . S
C61 C62 1.391 . S
C62 H56 0.930 . S
C62 C58 1.429 . S
C62 C61 1.391 . S
H63 C66 0.931 . S
H64 C69 0.928 . S
H65 C71 0.930 . S
C66 H63 0.931 . S
C66 C67 1.413 . S
C66 C68 1.360 . S
C67 C66 1.413 . S
C67 C71 1.429 . S
C68 C66 1.360 . S
C68 C69 1.372 . S
C69 H64 0.928 . S
C69 C68 1.372 . S
C69 C70 1.404 . S
C70 C69 1.404 . S
C70 C71 1.391 . S
C71 H65 0.930 . S
C71 C67 1.429 . S
C71 C70 1.391 . S
Zn72 O78 1.920 . S
Zn72 O84 1.898 . S
Zn72 O87 1.905 . S
Zn73 O81 1.905 1_565 S
Zn73 O82 1.898 . S
Zn73 O90 1.920 . S
Zn74 O77 2.080 1_455 S
Zn74 O80 2.114 . S
Zn74 O83 2.120 1_445 S
Zn74 O85 2.120 . S
Zn74 O86 2.114 1_455 S
Zn74 O89 2.080 . S
C75 O80 1.166 . S
C75 O81 1.182 . S
C76 O82 1.167 1_655 S
C76 O83 1.299 . S
O77 Zn74 2.080 1_655 S
O77 C91 1.305 . S
O78 Zn72 1.920 . S
O78 C91 1.234 . S
C79 O84 1.167 1_455 S
C79 O85 1.299 . S
O80 Zn74 2.114 . S
O80 C75 1.166 . S
O81 Zn73 1.905 1_545 S
O81 C75 1.182 . S
O82 Zn73 1.898 . S
O82 C76 1.167 1_455 S
O83 Zn74 2.120 1_665 S
O83 C76 1.299 . S
O84 Zn72 1.898 . S
O84 C79 1.167 1_655 S
O85 Zn74 2.120 . S
O85 C79 1.299 . S
O86 Zn74 2.114 1_655 S
O86 C88 1.166 . S
O87 Zn72 1.905 . S
O87 C88 1.182 . S
C88 O86 1.166 . S
C88 O87 1.182 . S
O89 Zn74 2.080 . S
O89 C92 1.305 1_545 S
O90 Zn73 1.920 . S
O90 C92 1.234 . S
C91 O77 1.305 . S
C91 O78 1.234 . S
C92 O89 1.305 1_565 S
C92 O90 1.234 . S
Zn93 O99 1.920 1_556 S
Zn93 O105 1.898 . S
Zn93 O108 1.905 . S
Zn94 O102 1.905 . S
Zn94 O103 1.898 . S
Zn94 O111 1.920 . S
Zn95 O98 2.080 . S
Zn95 O101 2.114 1_545 S
Zn95 O104 2.120 1_545 S
Zn95 O106 2.120 . S
Zn95 O107 2.114 1_544 S
Zn95 O110 2.080 . S
C96 O101 1.166 . S
C96 O102 1.182 . S
C97 O103 1.167 . S
C97 O104 1.299 . S
O98 Zn95 2.080 . S
O98 C112 1.305 . S
O99 Zn93 1.920 1_554 S
O99 C112 1.234 . S
C100 O105 1.167 . S
C100 O106 1.299 1_556 S
O101 Zn95 2.114 1_565 S
O101 C96 1.166 . S
O102 Zn94 1.905 . S
O102 C96 1.182 . S
O103 Zn94 1.898 . S
O103 C97 1.167 . S
O104 Zn95 2.120 1_565 S
O104 C97 1.299 . S
O105 Zn93 1.898 . S
O105 C100 1.167 . S
O106 Zn95 2.120 . S
O106 C100 1.299 1_554 S
O107 Zn95 2.114 1_566 S
O107 C109 1.166 . S
O108 Zn93 1.905 . S
O108 C109 1.182 1_545 S
C109 O107 1.166 . S
C109 O108 1.182 1_565 S
O110 Zn95 2.080 . S
O110 C113 1.305 . S
O111 Zn94 1.920 . S
O111 C113 1.234 1_565 S
C112 O98 1.305 . S
C112 O99 1.234 . S
C113 O110 1.305 . S
C113 O111 1.234 1_545 S
Zn114 O120 1.920 . S
Zn114 O126 1.898 . S
Zn114 O129 1.905 . S
Zn115 O123 1.905 . S
Zn115 O124 1.898 . S
Zn115 O132 1.920 . S
Zn116 O119 2.080 . S
Zn116 O122 2.114 . S
Zn116 O125 2.120 . S
Zn116 O127 2.120 . S
Zn116 O128 2.114 . S
Zn116 O131 2.080 . S
C117 O122 1.166 . S
C117 O123 1.182 . S
C118 O124 1.167 . S
C118 O125 1.299 . S
O119 Zn116 2.080 . S
O119 C133 1.305 . S
O120 Zn114 1.920 . S
O120 C133 1.234 . S
C121 O126 1.167 . S
C121 O127 1.299 . S
O122 Zn116 2.114 . S
O122 C117 1.166 . S
O123 Zn115 1.905 . S
O123 C117 1.182 . S
O124 Zn115 1.898 . S
O124 C118 1.167 . S
O125 Zn116 2.120 . S
O125 C118 1.299 . S
O126 Zn114 1.898 . S
O126 C121 1.167 . S
O127 Zn116 2.120 . S
O127 C121 1.299 . S
O128 Zn116 2.114 . S
O128 C130 1.166 . S
O129 Zn114 1.905 . S
O129 C130 1.182 . S
C130 O128 1.166 . S
C130 O129 1.182 . S
O131 Zn116 2.080 . S
O131 C134 1.305 . S
O132 Zn115 1.920 . S
O132 C134 1.234 . S
C133 O119 1.305 . S
C133 O120 1.234 . S
C134 O131 1.305 . S
C134 O132 1.234 . S
Zn135 O141 1.920 . S
Zn135 O147 1.898 . S
Zn135 O150 1.905 . S
Zn136 O144 1.905 1_655 S
Zn136 O145 1.898 . S
Zn136 O153 1.920 . S
Zn137 O140 2.080 1_554 S
Zn137 O143 2.114 . S
Zn137 O146 2.120 1_454 S
Zn137 O148 2.120 . S
Zn137 O149 2.114 1_554 S
Zn137 O152 2.080 . S
C138 O143 1.166 . S
C138 O144 1.182 . S
C139 O145 1.167 1_556 S
C139 O146 1.299 . S
O140 Zn137 2.080 1_556 S
O140 C154 1.305 . S
O141 Zn135 1.920 . S
O141 C154 1.234 . S
C142 O147 1.167 1_554 S
C142 O148 1.299 . S
O143 Zn137 2.114 . S
O143 C138 1.166 . S
O144 Zn136 1.905 1_455 S
O144 C138 1.182 . S
O145 Zn136 1.898 . S
O145 C139 1.167 1_554 S
O146 Zn137 2.120 1_656 S
O146 C139 1.299 . S
O147 Zn135 1.898 . S
O147 C142 1.167 1_556 S
O148 Zn137 2.120 . S
O148 C142 1.299 . S
O149 Zn137 2.114 1_556 S
O149 C151 1.166 . S
O150 Zn135 1.905 . S
O150 C151 1.182 . S
C151 O149 1.166 . S
C151 O150 1.182 . S
O152 Zn137 2.080 . S
O152 C155 1.305 1_455 S
O153 Zn136 1.920 . S
O153 C155 1.234 . S
C154 O140 1.305 . S
C154 O141 1.234 . S
C155 O152 1.305 1_655 S
C155 O153 1.234 . S
H156 C162 0.930 . S
H157 C165 0.930 . S
H158 C166 0.930 . S
H159 C167 0.930 . S
H160 C170 0.930 . S
H161 C171 0.930 . S
C162 H156 0.930 . S
C162 C163 1.355 . S
C162 C164 1.415 . S
C163 C162 1.355 . S
C163 C165 1.419 . S
C164 C162 1.415 . S
C164 C169 1.425 . S
C164 C171 1.409 . S
C165 H157 0.930 . S
C165 C163 1.419 . S
C165 C166 1.362 . S
C166 H158 0.930 . S
C166 C165 1.362 . S
C166 C169 1.409 . S
C167 H159 0.930 . S
C167 C168 1.355 . S
C167 C169 1.415 . S
C168 C167 1.355 . S
C168 C170 1.419 . S
C169 C164 1.425 . S
C169 C166 1.409 . S
C169 C167 1.415 . S
C170 H160 0.930 . S
C170 C168 1.419 . S
C170 C171 1.362 . S
C171 H161 0.930 . S
C171 C164 1.409 . S
C171 C170 1.362 . S
H172 C178 0.930 . S
H173 C181 0.930 . S
H174 C182 0.930 . S
H175 C183 0.930 . S
H176 C186 0.930 . S
H177 C187 0.930 . S
C178 H172 0.930 . S
C178 C179 1.355 . S
C178 C180 1.415 . S
C179 C178 1.355 . S
C179 C181 1.419 . S
C180 C178 1.415 . S
C180 C185 1.425 . S
C180 C187 1.409 . S
C181 H173 0.930 . S
C181 C179 1.419 . S
C181 C182 1.362 . S
C182 H174 0.930 . S
C182 C181 1.362 . S
C182 C185 1.409 . S
C183 H175 0.930 . S
C183 C184 1.355 . S
C183 C185 1.415 . S
C184 C183 1.355 . S
C184 C186 1.419 . S
C185 C180 1.425 . S
C185 C182 1.409 . S
C185 C183 1.415 . S
C186 H176 0.930 . S
C186 C184 1.419 . S
C186 C187 1.362 . S
C187 H177 0.930 . S
C187 C180 1.409 . S
C187 C186 1.362 . S
H188 C194 0.930 . S
H189 C197 0.930 . S
H190 C198 0.930 . S
H191 C199 0.930 . S
H192 C202 0.930 . S
H193 C203 0.930 . S
C194 H188 0.930 . S
C194 C195 1.355 . S
C194 C196 1.415 . S
C195 C194 1.355 . S
C195 C197 1.419 . S
C196 C194 1.415 . S
C196 C201 1.425 . S
C196 C203 1.409 . S
C197 H189 0.930 . S
C197 C195 1.419 . S
C197 C198 1.362 . S
C198 H190 0.930 . S
C198 C197 1.362 . S
C198 C201 1.409 . S
C199 H191 0.930 . S
C199 C200 1.355 . S
C199 C201 1.415 . S
C200 C199 1.355 . S
C200 C202 1.419 . S
C201 C196 1.425 . S
C201 C198 1.409 . S
C201 C199 1.415 . S
C202 H192 0.930 . S
C202 C200 1.419 . S
C202 C203 1.362 . S
C203 H193 0.930 . S
C203 C196 1.409 . S
C203 C202 1.362 . S
H204 C210 0.930 . S
H205 C213 0.930 . S
H206 C214 0.930 . S
H207 C215 0.930 . S
H208 C218 0.930 1_455 S
H209 C219 0.930 1_455 S
C210 H204 0.930 . S
C210 C211 1.355 . S
C210 C212 1.415 . S
C211 C210 1.355 . S
C211 C213 1.419 . S
C212 C210 1.415 . S
C212 C217 1.425 . S
C212 C219 1.409 . S
C213 H205 0.930 . S
C213 C211 1.419 . S
C213 C214 1.362 . S
C214 H206 0.930 . S
C214 C213 1.362 . S
C214 C217 1.409 . S
C215 H207 0.930 . S
C215 C216 1.355 . S
C215 C217 1.415 . S
C216 C215 1.355 . S
C216 C218 1.419 . S
C217 C212 1.425 . S
C217 C214 1.409 . S
C217 C215 1.415 . S
C218 H208 0.930 1_655 S
C218 C216 1.419 . S
C218 C219 1.362 . S
C219 H209 0.930 1_655 S
C219 C212 1.409 . S
C219 C218 1.362 . S
H220 C226 0.930 . S
H221 C229 0.930 . S
H222 C230 0.930 . S
H223 C231 0.930 . S
H224 C234 0.930 . S
H225 C235 0.930 . S
C226 H220 0.930 . S
C226 C227 1.355 . S
C226 C228 1.415 . S
C227 C226 1.355 . S
C227 C229 1.419 . S
C228 C226 1.415 . S
C228 C233 1.425 . S
C228 C235 1.409 . S
C229 H221 0.930 . S
C229 C227 1.419 . S
C229 C230 1.362 . S
C230 H222 0.930 . S
C230 C229 1.362 . S
C230 C233 1.409 . S
C231 H223 0.930 . S
C231 C232 1.355 . S
C231 C233 1.415 . S
C232 C231 1.355 . S
C232 C234 1.419 . S
C233 C228 1.425 . S
C233 C230 1.409 . S
C233 C231 1.415 . S
C234 H224 0.930 . S
C234 C232 1.419 . S
C234 C235 1.362 . S
C235 H225 0.930 . S
C235 C228 1.409 . S
C235 C234 1.362 . S
H236 C242 0.930 . S
H237 C245 0.930 . S
H238 C246 0.930 . S
H239 C247 0.930 . S
H240 C250 0.930 1_545 S
H241 C251 0.930 1_545 S
C242 H236 0.930 . S
C242 C243 1.355 . S
C242 C244 1.415 . S
C243 C242 1.355 . S
C243 C245 1.419 . S
C244 C242 1.415 . S
C244 C249 1.425 . S
C244 C251 1.409 . S
C245 H237 0.930 . S
C245 C243 1.419 . S
C245 C246 1.362 . S
C246 H238 0.930 . S
C246 C245 1.362 . S
C246 C249 1.409 . S
C247 H239 0.930 . S
C247 C248 1.355 . S
C247 C249 1.415 . S
C248 C247 1.355 . S
C248 C250 1.419 . S
C249 C244 1.425 . S
C249 C246 1.409 . S
C249 C247 1.415 . S
C250 H240 0.930 1_565 S
C250 C248 1.419 . S
C250 C251 1.362 . S
C251 H241 0.930 1_565 S
C251 C244 1.409 . S
C251 C250 1.362 . S
H252 C258 0.930 . S
H253 C261 0.930 . S
H254 C262 0.930 . S
H255 C263 0.930 . S
H256 C266 0.930 . S
H257 C267 0.930 . S
C258 H252 0.930 . S
C258 C259 1.355 . S
C258 C260 1.415 . S
C259 C258 1.355 . S
C259 C261 1.419 . S
C260 C258 1.415 . S
C260 C265 1.425 . S
C260 C267 1.409 . S
C261 H253 0.930 . S
C261 C259 1.419 . S
C261 C262 1.362 . S
C262 H254 0.930 . S
C262 C261 1.362 . S
C262 C265 1.409 . S
C263 H255 0.930 . S
C263 C264 1.355 . S
C263 C265 1.415 . S
C264 C263 1.355 . S
C264 C266 1.419 . S
C265 C260 1.425 . S
C265 C262 1.409 . S
C265 C263 1.415 . S
C266 H256 0.930 . S
C266 C264 1.419 . S
C266 C267 1.362 . S
C267 H257 0.930 . S
C267 C260 1.409 . S
C267 C266 1.362 . S
H268 C274 0.930 . S
H269 C277 0.930 . S
H270 C278 0.930 . S
H271 C279 0.930 . S
H272 C282 0.930 . S
H273 C283 0.930 . S
C274 H268 0.930 . S
C274 C275 1.355 . S
C274 C276 1.415 . S
C275 C274 1.355 . S
C275 C277 1.419 . S
C276 C274 1.415 . S
C276 C281 1.425 . S
C276 C283 1.409 . S
C277 H269 0.930 . S
C277 C275 1.419 . S
C277 C278 1.362 . S
C278 H270 0.930 . S
C278 C277 1.362 . S
C278 C281 1.409 . S
C279 H271 0.930 . S
C279 C280 1.355 . S
C279 C281 1.415 . S
C280 C279 1.355 . S
C280 C282 1.419 . S
C281 C276 1.425 . S
C281 C278 1.409 . S
C281 C279 1.415 . S
C282 H272 0.930 . S
C282 C280 1.419 . S
C282 C283 1.362 . S
C283 H273 0.930 . S
C283 C276 1.409 . S
C283 C282 1.362 . S
H284 C290 0.930 . S
H285 C293 0.930 . S
H286 C294 0.930 . S
H287 C295 0.930 . S
H288 C298 0.930 . S
H289 C299 0.930 . S
C290 H284 0.930 . S
C290 C291 1.355 . S
C290 C292 1.415 . S
C291 C290 1.355 . S
C291 C293 1.419 . S
C292 C290 1.415 . S
C292 C297 1.425 . S
C292 C299 1.409 . S
C293 H285 0.930 . S
C293 C291 1.419 . S
C293 C294 1.362 . S
C294 H286 0.930 . S
C294 C293 1.362 . S
C294 C297 1.409 . S
C295 H287 0.930 . S
C295 C296 1.355 . S
C295 C297 1.415 . S
C296 C295 1.355 . S
C296 C298 1.419 . S
C297 C292 1.425 . S
C297 C294 1.409 . S
C297 C295 1.415 . S
C298 H288 0.930 . S
C298 C296 1.419 . S
C298 C299 1.362 . S
C299 H289 0.930 . S
C299 C292 1.409 . S
C299 C298 1.362 . S
H300 C306 0.930 . S
H301 C309 0.930 . S
H302 C310 0.930 . S
H303 C311 0.930 . S
H304 C314 0.930 . S
H305 C315 0.930 . S
C306 H300 0.930 . S
C306 C307 1.355 . S
C306 C308 1.415 . S
C307 C306 1.355 . S
C307 C309 1.419 . S
C308 C306 1.415 . S
C308 C313 1.425 . S
C308 C315 1.409 . S
C309 H301 0.930 . S
C309 C307 1.419 . S
C309 C310 1.362 . S
C310 H302 0.930 . S
C310 C309 1.362 . S
C310 C313 1.409 . S
C311 H303 0.930 . S
C311 C312 1.355 . S
C311 C313 1.415 . S
C312 C311 1.355 . S
C312 C314 1.419 . S
C313 C308 1.425 . S
C313 C310 1.409 . S
C313 C311 1.415 . S
C314 H304 0.930 . S
C314 C312 1.419 . S
C314 C315 1.362 . S
C315 H305 0.930 . S
C315 C308 1.409 . S
C315 C314 1.362 . S
H316 C322 0.930 . S
H317 C325 0.930 . S
H318 C326 0.930 . S
H319 C327 0.930 . S
H320 C330 0.930 1_455 S
H321 C331 0.930 . S
C322 H316 0.930 . S
C322 C323 1.355 . S
C322 C324 1.415 . S
C323 C322 1.355 . S
C323 C325 1.419 . S
C324 C322 1.415 . S
C324 C329 1.425 . S
C324 C331 1.409 . S
C325 H317 0.930 . S
C325 C323 1.419 . S
C325 C326 1.362 . S
C326 H318 0.930 . S
C326 C325 1.362 . S
C326 C329 1.409 . S
C327 H319 0.930 . S
C327 C328 1.355 . S
C327 C329 1.415 . S
C328 C327 1.355 . S
C328 C330 1.419 . S
C329 C324 1.425 . S
C329 C326 1.409 . S
C329 C327 1.415 . S
C330 H320 0.930 1_655 S
C330 C328 1.419 . S
C330 C331 1.362 . S
C331 H321 0.930 . S
C331 C324 1.409 . S
C331 C330 1.362 . S
H332 C338 0.930 . S
H333 C341 0.930 . S
H334 C342 0.930 . S
H335 C343 0.930 . S
H336 C346 0.930 . S
H337 C347 0.930 . S
C338 H332 0.930 . S
C338 C339 1.355 . S
C338 C340 1.415 . S
C339 C338 1.355 . S
C339 C341 1.419 . S
C340 C338 1.415 . S
C340 C345 1.425 . S
C340 C347 1.409 . S
C341 H333 0.930 . S
C341 C339 1.419 . S
C341 C342 1.362 . S
C342 H334 0.930 . S
C342 C341 1.362 . S
C342 C345 1.409 . S
C343 H335 0.930 . S
C343 C344 1.355 . S
C343 C345 1.415 . S
C344 C343 1.355 . S
C344 C346 1.419 . S
C345 C340 1.425 . S
C345 C342 1.409 . S
C345 C343 1.415 . S
C346 H336 0.930 . S
C346 C344 1.419 . S
C346 C347 1.362 . S
C347 H337 0.930 . S
C347 C340 1.409 . S
C347 C346 1.362 . S
H348 C354 0.930 1_545 S
H349 C357 0.944 . S
H350 C358 0.930 . S
H351 C359 0.930 . S
H352 C362 0.930 . S
H353 C363 0.930 . S
C354 H348 0.930 1_565 S
C354 C355 1.355 . S
C354 C356 1.415 . S
C355 C354 1.355 . S
C355 C357 1.399 1_655 S
C356 C354 1.415 . S
C356 C361 1.425 . S
C356 C363 1.409 1_565 S
C357 H349 0.944 . S
C357 C355 1.399 1_455 S
C357 C358 1.369 . S
C358 H350 0.930 . S
C358 C357 1.369 . S
C358 C361 1.409 1_455 S
C359 H351 0.930 . S
C359 C360 1.355 1_465 S
C359 C361 1.415 1_455 S
C360 C359 1.355 1_645 S
C360 C362 1.419 . S
C361 C356 1.425 . S
C361 C358 1.409 1_655 S
C361 C359 1.415 1_655 S
C362 H352 0.930 . S
C362 C360 1.419 . S
C362 C363 1.362 . S
C363 H353 0.930 . S
C363 C356 1.409 1_545 S
C363 C362 1.362 . S
H364 C370 0.930 . S
H365 C373 0.930 . S
H366 C374 0.930 . S
H367 C375 0.930 . S
H368 C378 0.930 . S
H369 C379 0.930 . S
C370 H364 0.930 . S
C370 C371 1.355 . S
C370 C372 1.415 . S
C371 C370 1.355 . S
C371 C373 1.419 . S
C372 C370 1.415 . S
C372 C377 1.425 . S
C372 C379 1.409 . S
C373 H365 0.930 . S
C373 C371 1.419 . S
C373 C374 1.362 . S
C374 H366 0.930 . S
C374 C373 1.362 . S
C374 C377 1.409 . S
C375 H367 0.930 . S
C375 C376 1.355 . S
C375 C377 1.415 . S
C376 C375 1.355 . S
C376 C378 1.419 . S
C377 C372 1.425 . S
C377 C374 1.409 . S
C377 C375 1.415 . S
C378 H368 0.930 . S
C378 C376 1.419 . S
C378 C379 1.362 . S
C379 H369 0.930 . S
C379 C372 1.409 . S
C379 C378 1.362 . S
H380 C386 0.930 . S
H381 C389 0.930 . S
H382 C390 0.930 . S
H383 C391 0.930 . S
H384 C394 0.930 . S
H385 C395 0.930 . S
C386 H380 0.930 . S
C386 C387 1.355 . S
C386 C388 1.415 . S
C387 C386 1.355 . S
C387 C389 1.419 . S
C388 C386 1.415 . S
C388 C393 1.425 . S
C388 C395 1.409 . S
C389 H381 0.930 . S
C389 C387 1.419 . S
C389 C390 1.362 . S
C390 H382 0.930 . S
C390 C389 1.362 . S
C390 C393 1.409 . S
C391 H383 0.930 . S
C391 C392 1.355 . S
C391 C393 1.415 . S
C392 C391 1.355 . S
C392 C394 1.419 . S
C393 C388 1.425 . S
C393 C390 1.409 . S
C393 C391 1.415 . S
C394 H384 0.930 . S
C394 C392 1.419 . S
C394 C395 1.362 . S
C395 H385 0.930 . S
C395 C388 1.409 . S
C395 C394 1.362 . S
H396 C402 0.930 . S
H397 C405 0.930 . S
H398 C406 0.930 1_655 S
H399 C407 0.930 . S
H400 C410 0.930 . S
H401 C411 0.930 . S
C402 H396 0.930 . S
C402 C403 1.355 . S
C402 C404 1.415 . S
C403 C402 1.355 . S
C403 C405 1.419 . S
C404 C402 1.415 . S
C404 C409 1.425 . S
C404 C411 1.409 . S
C405 H397 0.930 . S
C405 C403 1.419 . S
C405 C406 1.362 . S
C406 H398 0.930 1_455 S
C406 C405 1.362 . S
C406 C409 1.409 . S
C407 H399 0.930 . S
C407 C408 1.355 . S
C407 C409 1.415 . S
C408 C407 1.355 . S
C408 C410 1.419 . S
C409 C404 1.425 . S
C409 C406 1.409 . S
C409 C407 1.415 . S
C410 H400 0.930 . S
C410 C408 1.419 . S
C410 C411 1.362 . S
C411 H401 0.930 . S
C411 C404 1.409 . S
C411 C410 1.362 . S
H412 C418 0.930 1_545 S
H413 C421 0.930 . S
H414 C422 0.930 . S
H415 C423 0.930 . S
H416 C426 0.930 . S
H417 C427 0.930 . S
C418 H412 0.930 1_565 S
C418 C419 1.355 . S
C418 C420 1.415 . S
C419 C418 1.355 . S
C419 C421 1.419 1_556 S
C420 C418 1.415 . S
C420 C425 1.425 1_556 S
C420 C427 1.409 1_565 S
C421 H413 0.930 . S
C421 C419 1.419 1_554 S
C421 C422 1.362 . S
C422 H414 0.930 . S
C422 C421 1.362 . S
C422 C425 1.409 . S
C423 H415 0.930 . S
C423 C424 1.355 1_554 S
C423 C425 1.415 . S
C424 C423 1.355 1_556 S
C424 C426 1.419 1_565 S
C425 C420 1.425 1_554 S
C425 C422 1.409 . S
C425 C423 1.415 . S
C426 H416 0.930 . S
C426 C424 1.419 1_545 S
C426 C427 1.362 . S
C427 H417 0.930 . S
C427 C420 1.409 1_545 S
C427 C426 1.362 . S
H428 C434 0.930 . S
H429 C437 0.930 . S
H430 C438 0.930 . S
H431 C439 0.930 . S
H432 C442 0.930 . S
H433 C443 0.930 . S
C434 H428 0.930 . S
C434 C435 1.355 . S
C434 C436 1.415 . S
C435 C434 1.355 . S
C435 C437 1.419 . S
C436 C434 1.415 . S
C436 C441 1.425 . S
C436 C443 1.409 . S
C437 H429 0.930 . S
C437 C435 1.419 . S
C437 C438 1.362 . S
C438 H430 0.930 . S
C438 C437 1.362 . S
C438 C441 1.409 . S
C439 H431 0.930 . S
C439 C440 1.355 . S
C439 C441 1.415 . S
C440 C439 1.355 . S
C440 C442 1.419 . S
C441 C436 1.425 . S
C441 C438 1.409 . S
C441 C439 1.415 . S
C442 H432 0.930 . S
C442 C440 1.419 . S
C442 C443 1.362 . S
C443 H433 0.930 . S
C443 C436 1.409 . S
C443 C442 1.362 . S
H444 C450 0.930 . S
H445 C453 0.930 . S
H446 C454 0.930 . S
H447 C455 0.930 . S
H448 C458 0.917 1_556 S
H449 C459 0.930 1_556 S
C450 H444 0.930 . S
C450 C451 1.355 . S
C450 C452 1.415 . S
C451 C450 1.355 . S
C451 C453 1.419 . S
C452 C450 1.415 . S
C452 C457 1.425 . S
C452 C459 1.409 . S
C453 H445 0.930 . S
C453 C451 1.419 . S
C453 C454 1.362 . S
C454 H446 0.930 . S
C454 C453 1.362 . S
C454 C457 1.409 . S
C455 H447 0.930 . S
C455 C456 1.355 . S
C455 C457 1.415 . S
C456 C455 1.355 . S
C456 C458 1.431 . S
C457 C452 1.425 . S
C457 C454 1.409 . S
C457 C455 1.415 . S
C458 H448 0.917 1_554 S
C458 C456 1.431 . S
C458 C459 1.363 . S
C459 H449 0.930 1_554 S
C459 C452 1.409 . S
C459 C458 1.363 . S
H460 C466 0.930 . S
H461 C469 0.930 . S
H462 C470 0.930 . S
H463 C471 0.930 . S
H464 C474 0.930 . S
H465 C475 0.930 . S
C466 H460 0.930 . S
C466 C467 1.355 . S
C466 C468 1.415 . S
C467 C466 1.355 . S
C467 C469 1.419 . S
C468 C466 1.415 . S
C468 C473 1.425 . S
C468 C475 1.409 . S
C469 H461 0.930 . S
C469 C467 1.419 . S
C469 C470 1.362 . S
C470 H462 0.930 . S
C470 C469 1.362 . S
C470 C473 1.409 . S
C471 H463 0.930 . S
C471 C472 1.355 . S
C471 C473 1.415 . S
C472 C471 1.355 . S
C472 C474 1.419 . S
C473 C468 1.425 . S
C473 C470 1.409 . S
C473 C471 1.415 . S
C474 H464 0.930 . S
C474 C472 1.419 . S
C474 C475 1.362 . S
C475 H465 0.930 . S
C475 C468 1.409 . S
C475 C474 1.362 . S
H476 C482 0.930 1_455 S
H477 C485 0.930 . S
H478 C486 0.930 . S
H479 C487 0.930 . S
H480 C490 0.930 . S
H481 C491 0.930 . S
C482 H476 0.930 1_655 S
C482 C483 1.355 . S
C482 C484 1.415 . S
C483 C482 1.355 . S
C483 C485 1.419 1_556 S
C484 C482 1.415 . S
C484 C489 1.425 . S
C484 C491 1.409 1_655 S
C485 H477 0.930 . S
C485 C483 1.419 1_554 S
C485 C486 1.362 . S
C486 H478 0.930 . S
C486 C485 1.362 . S
C486 C489 1.409 1_554 S
C487 H479 0.930 . S
C487 C488 1.355 1_654 S
C487 C489 1.415 1_554 S
C488 C487 1.355 1_456 S
C488 C490 1.419 . S
C489 C484 1.425 . S
C489 C486 1.409 1_556 S
C489 C487 1.415 1_556 S
C490 H480 0.930 . S
C490 C488 1.419 . S
C490 C491 1.362 . S
C491 H481 0.930 . S
C491 C484 1.409 1_455 S
C491 C490 1.362 . S
H492 C498 0.930 . S
H493 C501 0.930 . S
H494 C502 0.930 . S
H495 C503 0.930 . S
H496 C506 0.930 . S
H497 C507 0.930 . S
C498 H492 0.930 . S
C498 C499 1.355 . S
C498 C500 1.415 . S
C499 C498 1.355 . S
C499 C501 1.419 . S
C500 C498 1.415 . S
C500 C505 1.425 . S
C500 C507 1.409 . S
C501 H493 0.930 . S
C501 C499 1.419 . S
C501 C502 1.362 . S
C502 H494 0.930 . S
C502 C501 1.362 . S
C502 C505 1.409 . S
C503 H495 0.930 . S
C503 C504 1.355 . S
C503 C505 1.415 . S
C504 C503 1.355 . S
C504 C506 1.419 . S
C505 C500 1.425 . S
C505 C502 1.409 . S
C505 C503 1.415 . S
C506 H496 0.930 . S
C506 C504 1.419 . S
C506 C507 1.362 . S
C507 H497 0.930 . S
C507 C500 1.409 . S
C507 C506 1.362 . S
H508 C514 0.930 . S
H509 C517 0.930 . S
H510 C518 0.930 1_655 S
H511 C519 0.930 1_655 S
H512 C522 0.930 . S
H513 C523 0.930 . S
C514 H508 0.930 . S
C514 C515 1.355 . S
C514 C516 1.415 . S
C515 C514 1.355 . S
C515 C517 1.419 . S
C516 C514 1.415 . S
C516 C521 1.425 . S
C516 C523 1.409 . S
C517 H509 0.930 . S
C517 C515 1.419 . S
C517 C518 1.362 . S
C518 H510 0.930 1_455 S
C518 C517 1.362 . S
C518 C521 1.409 . S
C519 H511 0.930 1_455 S
C519 C520 1.355 . S
C519 C521 1.415 . S
C520 C519 1.355 . S
C520 C522 1.419 . S
C521 C516 1.425 . S
C521 C518 1.409 . S
C521 C519 1.415 . S
C522 H512 0.930 . S
C522 C520 1.419 . S
C522 C523 1.362 . S
C523 H513 0.930 . S
C523 C516 1.409 . S
C523 C522 1.362 . S
H524 C530 0.930 . S
H525 C533 0.930 . S
H526 C534 0.930 . S
H527 C535 0.930 . S
H528 C538 0.930 . S
H529 C539 0.930 . S
C530 H524 0.930 . S
C530 C531 1.355 . S
C530 C532 1.415 . S
C531 C530 1.355 . S
C531 C533 1.419 . S
C532 C530 1.415 . S
C532 C537 1.425 . S
C532 C539 1.409 . S
C533 H525 0.930 . S
C533 C531 1.419 . S
C533 C534 1.362 . S
C534 H526 0.930 . S
C534 C533 1.362 . S
C534 C537 1.409 . S
C535 H527 0.930 . S
C535 C536 1.355 . S
C535 C537 1.415 . S
C536 C535 1.355 . S
C536 C538 1.419 . S
C537 C532 1.425 . S
C537 C534 1.409 . S
C537 C535 1.415 . S
C538 H528 0.930 . S
C538 C536 1.419 . S
C538 C539 1.362 . S
C539 H529 0.930 . S
C539 C532 1.409 . S
C539 C538 1.362 . S
C163 C5 1.540 . S
C168 C75 1.457 . S
C179 C14 1.506 . S
C184 C109 1.411 . S
C200 C121 1.366 . S
C195 C25 1.491 . S
C211 C34 1.494 . S
C216 C155 1.407 . S
C232 C112 1.388 . S
C227 C7 1.515 . S
C248 C92 1.393 . S
C243 C13 1.517 . S
C264 C139 1.433 . S
C259 C23 1.483 . S
C280 C130 1.435 . S
C275 C31 1.503 . S
C291 C4 1.524 . S
C296 C138 1.413 . S
C312 C100 1.437 . S
C307 C22 1.489 . S
C323 C32 1.509 . S
C328 C76 1.347 . S
C339 C16 1.507 . S
C344 C133 1.355 . S
C360 C91 1.400 . S
C355 C41 1.535 . S
C371 C50 1.529 . S
C376 C113 1.477 . S
C387 C61 1.556 . S
C392 C118 1.415 . S
C403 C67 1.580 . S
C408 C151 1.454 . S
C419 C40 1.567 . S
C424 C96 1.516 1_556 S
C440 C88 1.514 . S
C435 C52 1.566 . S
C456 C142 1.461 . S
C451 C59 1.520 . S
C472 C134 1.418 . S
C467 C70 1.503 . S
C483 C43 1.528 . S
C488 C154 1.397 . S
C504 C97 1.501 . S
C499 C58 1.563 . S
C520 C79 1.483 . S
C515 C68 1.543 . S
C531 C49 1.563 . S
C536 C117 1.426 . S
