# Generated by pormake.
# Topology anh, (6,3)-cn, num edge types: 1
# Building blocks:
#     Node 0, Type 0, BuildingBlock: BETFAJ_clean_sbu_0, # of connection points: 6
#     Node 1, Type 0, BuildingBlock: BETFAJ_clean_sbu_0, # of connection points: 6
#     Node 2, Type 0, BuildingBlock: BETFAJ_clean_sbu_0, # of connection points: 6
#     Node 3, Type 1, BuildingBlock: CUQRIR_clean_linker_1, # of connection points: 3
#     Node 4, Type 1, BuildingBlock: CUQRIR_clean_linker_1, # of connection points: 3
#     Node 5, Type 1, BuildingBlock: CUQRIR_clean_linker_1, # of connection points: 3
#     Node 6, Type 1, BuildingBlock: CUQRIR_clean_linker_1, # of connection points: 3
#     Node 7, Type 1, BuildingBlock: CUQRIR_clean_linker_1, # of connection points: 3
#     Node 8, Type 1, BuildingBlock: CUQRIR_clean_linker_1, # of connection points: 3
#     Edge 9, Type (0, 1), BuildingBlock: TEMPAE_clean_linker_10, # of connection points: 2
#     Edge 10, Type (0, 1), BuildingBlock: TEMPAE_clean_linker_10, # of connection points: 2
#     Edge 11, Type (0, 1), BuildingBlock: TEMPAE_clean_linker_10, # of connection points: 2
#     Edge 12, Type (0, 1), BuildingBlock: TEMPAE_clean_linker_10, # of connection points: 2
#     Edge 13, Type (0, 1), BuildingBlock: TEMPAE_clean_linker_10, # of connection points: 2
#     Edge 14, Type (0, 1), BuildingBlock: TEMPAE_clean_linker_10, # of connection points: 2
#     Edge 15, Type (0, 1), BuildingBlock: TEMPAE_clean_linker_10, # of connection points: 2
#     Edge 16, Type (0, 1), BuildingBlock: TEMPAE_clean_linker_10, # of connection points: 2
#     Edge 17, Type (0, 1), BuildingBlock: TEMPAE_clean_linker_10, # of connection points: 2
#     Edge 18, Type (0, 1), BuildingBlock: TEMPAE_clean_linker_10, # of connection points: 2
#     Edge 19, Type (0, 1), BuildingBlock: TEMPAE_clean_linker_10, # of connection points: 2
#     Edge 20, Type (0, 1), BuildingBlock: TEMPAE_clean_linker_10, # of connection points: 2
#     Edge 21, Type (0, 1), BuildingBlock: TEMPAE_clean_linker_10, # of connection points: 2
#     Edge 22, Type (0, 1), BuildingBlock: TEMPAE_clean_linker_10, # of connection points: 2
#     Edge 23, Type (0, 1), BuildingBlock: TEMPAE_clean_linker_10, # of connection points: 2
#     Edge 24, Type (0, 1), BuildingBlock: TEMPAE_clean_linker_10, # of connection points: 2
#     Edge 25, Type (0, 1), BuildingBlock: TEMPAE_clean_linker_10, # of connection points: 2
#     Edge 26, Type (0, 1), BuildingBlock: TEMPAE_clean_linker_10, # of connection points: 2
# Relax obj value: 0.202
# Max RMSD: 0.217
# Mean RMSD: 0.164
data_MOF--net-anh--node1-BETFAJ_clean_sbu_0--node2-CUQRIR_clean_linker_1--edge1-TEMPAE_clean_linker_10
_symmetry_space_group_name_H-M    P1
_symmetry_Int_Tables_number       1
_symmetry_cell_setting            triclinic
loop_
_symmetry_equiv_pos_as_xyz
'x, y, z'
_cell_length_a     28.631748
_cell_length_b     35.856046
_cell_length_c     47.142979
_cell_angle_alpha  86.944195
_cell_angle_beta   90.611795
_cell_angle_gamma 130.39098
loop_
_atom_site_label
_atom_site_type_symbol
_atom_site_fract_x
_atom_site_fract_y
_atom_site_fract_z
_atom_type_partial_charge
Sm0 Sm 0.20722 0.5158 0.15718 0.0
Sm1 Sm 0.13453 0.54393 0.16777 0.0
C2 C 0.27478 0.49495 0.13972 0.0
C3 C 0.2581 0.44906 0.13053 0.0
C4 C 0.22199 0.42629 0.10665 0.0
C5 C 0.20533 0.38216 0.09874 0.0
C6 C 0.22378 0.35975 0.11473 0.0
C7 C 0.25852 0.38186 0.13896 0.0
C8 C 0.27575 0.42623 0.1467 0.0
C9 C 0.18075 0.51054 0.21395 0.0
C10 C 0.27802 0.63162 0.16469 0.0
C11 C 1.05298 0.55248 0.18155 0.0
C12 C 0.99713 0.53473 0.16666 0.0
C13 C 0.94131 0.50878 0.1819 0.0
C14 C 0.88643 0.48415 0.16747 0.0
C15 C 0.88678 0.48525 0.13759 0.0
C16 C 0.94303 0.51316 0.1224 0.0
C17 C 0.99766 0.53745 0.13678 0.0
C18 C 0.15647 0.54602 0.11053 0.0
C19 C 1.06385 0.42686 0.16458 0.0
O20 O 0.26391 0.49482 0.16657 0.0
O21 O 0.26041 0.51631 0.12304 0.0
O22 O 0.19891 0.54561 0.19646 0.0
O23 O 0.17546 0.47641 0.20189 0.0
O24 O 0.27887 0.60109 0.15065 0.0
O25 O 0.22798 0.61512 0.17892 0.0
O26 O 1.05219 0.51807 0.19303 0.0
O27 O 0.10492 0.58777 0.16816 0.0
O28 O 0.14156 0.5126 0.12864 0.0
O29 O 0.1564 0.57782 0.12204 0.0
O30 O 1.06382 0.4593 0.17654 0.0
O31 O 0.11316 0.4412 0.15069 0.0
H32 H 0.20686 0.44259 0.09395 0.0
H33 H 0.17883 0.3659 0.07988 0.0
H34 H 0.27442 0.36583 0.15129 0.0
H35 H 0.30322 0.44289 0.16527 0.0
H36 H 0.93992 0.50583 0.20493 0.0
H37 H 0.8436 0.46318 0.17966 0.0
H38 H 0.94459 0.51415 0.09939 0.0
H39 H 1.03999 0.55649 0.12445 0.0
Sm40 Sm 0.76929 0.08158 0.48165 0.0
Sm41 Sm 0.68306 0.1004 0.47545 0.0
C42 C 0.82315 0.046 0.49778 0.0
C43 C 0.80291 0.99759 0.50782 0.0
C44 C 0.76905 0.97369 0.53353 0.0
C45 C 0.74968 0.92757 0.54235 0.0
C46 C 0.76327 0.90432 0.52553 0.0
C47 C 0.79713 0.92827 0.49987 0.0
C48 C 0.81697 0.97451 0.49119 0.0
C49 C 0.75956 0.10417 0.42657 0.0
C50 C 0.62111 0.98856 0.47535 0.0
C51 C 0.6285 0.13614 0.46167 0.0
C52 C 0.63707 0.17964 0.46926 0.0
C53 C 0.65197 0.21504 0.44799 0.0
C54 C 0.66275 0.25741 0.45505 0.0
C55 C 0.65851 0.26502 0.48354 0.0
C56 C 0.64286 0.22916 0.50473 0.0
C57 C 0.63256 0.1871 0.49771 0.0
C58 C 0.69404 0.07858 0.53063 0.0
C59 C 0.83286 0.19505 0.47969 0.0
O60 O 0.81276 0.06772 0.51485 0.0
O61 O 0.81309 0.05052 0.47121 0.0
O62 O 0.71509 0.0756 0.4441 0.0
O63 O 0.81115 0.12066 0.43762 0.0
O64 O 0.67325 1.00341 0.486 0.0
O65 O 0.61531 0.02013 0.46505 0.0
O66 O 0.67225 0.14469 0.44592 0.0
O67 O 0.60772 0.10182 0.48185 0.0
O68 O 0.738 0.10735 0.51298 0.0
O69 O 0.64244 0.06195 0.51973 0.0
O70 O 0.77719 0.17942 0.47526 0.0
O71 O 0.84311 0.16442 0.48453 0.0
H72 H 0.75721 0.99039 0.54681 0.0
H73 H 0.72337 0.9098 0.56214 0.0
H74 H 0.80901 0.91151 0.48667 0.0
H75 H 0.84323 0.99222 0.47137 0.0
H76 H 0.65596 0.21019 0.42591 0.0
H77 H 0.67522 0.28448 0.43824 0.0
H78 H 0.63796 0.2333 0.52683 0.0
H79 H 0.62129 0.1606 0.51466 0.0
Sm80 Sm 0.64926 0.63108 0.85019 0.0
Sm81 Sm 0.55647 0.52099 0.85237 0.0
C82 C 0.71321 0.72582 0.83697 0.0
C83 C 0.70131 0.75889 0.82709 0.0
C84 C 0.70062 0.76872 0.79787 0.0
C85 C 0.69049 0.80054 0.78847 0.0
C86 C 0.68112 0.8235 0.80806 0.0
C87 C 0.68195 0.81376 0.83728 0.0
C88 C 0.6921 0.78195 0.84669 0.0
C89 C 0.62361 0.58536 0.9034 0.0
C90 C 0.49904 0.57418 0.85493 0.0
C91 C 0.49396 0.42565 0.86188 0.0
C92 C 0.50373 0.39213 0.85356 0.0
C93 C 0.49079 0.3555 0.87315 0.0
C94 C 0.50564 0.32664 0.86649 0.0
C95 C 0.53288 0.33342 0.83987 0.0
C96 C 0.54403 0.36937 0.82002 0.0
C97 C 0.53028 0.39876 0.82691 0.0
C98 C 0.58716 0.56584 0.7984 0.0
C99 C 0.70769 0.57759 0.85118 0.0
O100 O 0.70327 0.69498 0.81894 0.0
O101 O 0.69591 0.70652 0.86307 0.0
O102 O 0.58528 0.57459 0.88485 0.0
O103 O 0.67864 0.62387 0.89466 0.0
O104 O 0.5543 0.61333 0.8446 0.0
O105 O 0.48994 0.53428 0.8641 0.0
O106 O 0.53346 0.45817 0.87953 0.0
O107 O 0.48149 0.44405 0.84155 0.0
O108 O 0.62391 0.57721 0.81786 0.0
O109 O 0.53166 0.5283 0.8068 0.0
O110 O 0.65014 0.53661 0.85677 0.0
O111 O 0.71981 0.61966 0.84498 0.0
H112 H 0.70806 0.75193 0.78216 0.0
H113 H 0.68966 0.80695 0.76583 0.0
H114 H 0.67593 0.8315 0.85293 0.0
H115 H 0.69315 0.77573 0.86934 0.0
H116 H 0.47067 0.35008 0.89391 0.0
H117 H 0.49705 0.29987 0.8825 0.0
H118 H 0.56349 0.37498 0.79907 0.0
H119 H 0.54113 0.42708 0.81148 0.0
C120 C 0.6737 0.02898 0.17814 0.0
N121 N 0.70662 0.06433 0.19715 0.0
N122 N 0.6311 0.98427 0.19178 0.0
C123 C 0.68614 0.03728 0.14657 0.0
C124 C 0.63881 0.99369 0.2196 0.0
N125 N 0.68494 0.04195 0.22291 0.0
C126 C 0.59855 0.95603 0.24352 0.0
H127 H 0.65921 0.04662 0.13678 0.0
H128 H 0.672 1.00368 0.13721 0.0
H129 H 0.7355 0.06813 0.1415 0.0
H130 H 0.61871 0.93958 0.25136 0.0
H131 H 0.55174 0.92626 0.23616 0.0
H132 H 0.59525 0.9731 0.26146 0.0
C133 C 0.68886 0.5696 0.55016 0.0
N134 N 0.68317 0.59134 0.57086 0.0
N135 N 0.68054 0.52996 0.56116 0.0
C136 C 0.69826 0.58503 0.51903 0.0
C137 C 0.66989 0.5285 0.58928 0.0
N138 N 0.67058 0.56545 0.59517 0.0
C139 C 0.66533 0.49408 0.61124 0.0
H140 H 0.67606 0.55297 0.50587 0.0
H141 H 0.74816 0.61124 0.51366 0.0
H142 H 0.67949 0.60353 0.51375 0.0
H143 H 0.69132 0.48299 0.60401 0.0
H144 H 0.61653 0.46054 0.61464 0.0
H145 H 0.68336 0.51147 0.63181 0.0
C146 C 0.106 0.57815 0.8606 0.0
N147 N 0.14097 0.57359 0.87815 0.0
N148 N 1.06047 0.57241 0.87556 0.0
C149 C 0.11846 0.59116 0.82929 0.0
C150 C 1.06863 0.5632 0.90261 0.0
N151 N 0.11681 0.56438 0.90418 0.0
C152 C 1.02839 0.55177 0.92785 0.0
H153 H 0.16807 0.61361 0.82403 0.0
H154 H 0.10288 0.61133 0.82191 0.0
H155 H 1.09271 0.55686 0.81791 0.0
H156 H 1.02496 0.5261 0.94375 0.0
H157 H 0.98147 0.53529 0.92132 0.0
H158 H 1.04898 0.58622 0.9383 0.0
C159 C 0.21497 0.59561 0.45981 0.0
N160 N 0.18141 0.55708 0.44285 0.0
N161 N 0.26256 0.6371 0.4448 0.0
C162 C 0.19854 0.59375 0.49032 0.0
C163 C 0.25708 0.6222 0.41825 0.0
N164 N 0.20787 0.57413 0.41704 0.0
C165 C 0.30103 0.65408 0.39351 0.0
H166 H 0.21281 0.62954 0.49572 0.0
H167 H 0.22296 0.58574 0.50421 0.0
H168 H 0.14847 0.56447 0.49461 0.0
H169 H 0.34771 0.68404 0.40089 0.0
H170 H 0.2842 0.6704 0.38127 0.0
H171 H 0.3039 0.63233 0.37892 0.0
C172 C 0.63104 0.097 0.77913 0.0
N173 N 0.64398 0.07896 0.75902 0.0
N174 N 0.63245 0.13314 0.76759 0.0
C175 C 0.61189 0.07649 0.80943 0.0
C176 C 0.64696 0.13654 0.73979 0.0
N177 N 0.65308 0.10312 0.73444 0.0
C178 C 0.66081 0.17563 0.71847 0.0
H179 H 0.57893 0.08001 0.81782 0.0
H180 H 0.65305 0.09737 0.8227 0.0
H181 H 0.59061 0.03731 0.81124 0.0
H182 H 0.67869 0.20933 0.72912 0.0
H183 H 0.61811 0.16206 0.70772 0.0
H184 H 0.69501 0.18494 0.70209 0.0
C185 C 0.43517 0.23287 0.05365 0.0
N186 N 0.48743 0.27052 0.03924 0.0
N187 N 0.38573 0.22565 0.04313 0.0
C188 C 0.43378 0.20922 0.08134 0.0
C189 C 0.40996 0.25784 0.02002 0.0
N190 N 0.47164 0.28602 0.01814 0.0
C191 C 0.37556 0.26995 0.00344 0.0
H192 H 0.38709 0.17364 0.08619 0.0
H193 H 0.44681 0.23361 0.09882 0.0
H194 H 0.46745 0.20351 0.08028 0.0
H195 H 0.37593 0.29622 0.01507 0.0
H196 H 0.32723 0.23641 0.00095 0.0
H197 H 0.39759 0.28716 0.98212 0.0
C198 C 0.23539 0.32118 0.07656 0.0
C199 C 0.2148 0.31747 0.10417 0.0
C200 C 0.24384 0.28898 0.06831 0.0
C201 C 0.23025 0.25166 0.0881 0.0
C202 C 0.20124 0.24357 0.11457 0.0
C203 C 0.19492 0.27731 0.12258 0.0
C204 C 0.2756 0.29966 0.03994 0.0
C205 C 0.1827 0.20251 0.13558 0.0
C206 C 0.27842 0.1877 0.05426 0.0
C207 C 0.34033 0.21891 0.06125 0.0
C208 C 0.2384 0.19342 0.06584 0.0
C209 C 0.26189 0.23198 0.08403 0.0
C210 C 0.32256 0.25956 0.09359 0.0
C211 C 0.36074 0.25247 0.08213 0.0
C212 C 0.17302 0.16144 0.05644 0.0
C213 C 0.35006 0.3011 0.11304 0.0
H214 H 0.25072 0.35222 0.06231 0.0
H215 H 0.17771 0.27385 0.14379 0.0
H216 H 0.27371 0.32408 0.02543 0.0
H217 H 0.32455 0.31816 0.04338 0.0
H218 H 0.25486 0.26538 0.02932 0.0
H219 H 0.14375 0.19078 0.14959 0.0
H220 H 0.16951 0.17037 0.12464 0.0
H221 H 0.22182 0.21543 0.14927 0.0
H222 H 0.2627 0.16166 0.03816 0.0
H223 H 0.40878 0.27709 0.08722 0.0
H224 H 0.17016 0.17932 0.03737 0.0
H225 H 0.14192 0.15586 0.07331 0.0
H226 H 0.15672 0.12514 0.05065 0.0
H227 H 0.35393 0.33109 0.10186 0.0
H228 H 0.39646 0.31648 0.11991 0.0
H229 H 0.32024 0.28845 0.13226 0.0
C230 C 0.93895 0.26707 0.46247 0.0
C231 C 0.88528 0.24844 0.47764 0.0
C232 C 0.9871 0.31791 0.45795 0.0
C233 C 0.98247 0.35092 0.4699 0.0
C234 C 0.92917 0.33208 0.48622 0.0
C235 C 0.8806 0.28106 0.48934 0.0
C236 C 1.04186 0.3363 0.43947 0.0
C237 C 0.92321 0.36578 0.50021 0.0
C238 C 0.13339 0.48199 0.47402 0.0
C239 C 0.12971 0.50633 0.451 0.0
C240 C 1.0848 0.43191 0.48119 0.0
C241 C 1.03227 0.40501 0.46421 0.0
C242 C 1.02819 0.42961 0.4411 0.0
C243 C 1.07613 0.48015 0.43535 0.0
C244 C 1.09007 0.40765 0.50668 0.0
C245 C 0.97397 0.40236 0.42192 0.0
H246 H 0.94216 0.24182 0.45307 0.0
H247 H 0.83908 0.2666 0.50114 0.0
H248 H 1.04642 0.35905 0.42096 0.0
H249 H 1.08453 0.36 0.45153 0.0
H250 H 1.03815 0.30588 0.43151 0.0
H251 H 0.88168 0.34529 0.51441 0.0
H252 H 0.96427 0.39201 0.51282 0.0
H253 H 0.92066 0.38765 0.48377 0.0
H254 H 0.17477 0.50204 0.48615 0.0
H255 H 1.07169 0.49911 0.41846 0.0
H256 H 1.09374 0.3806 0.49963 0.0
H257 H 1.04825 0.38734 0.52063 0.0
H258 H 0.13076 0.43461 0.51932 0.0
H259 H 0.96811 0.37158 0.41298 0.0
H260 H 0.97926 0.42646 0.40405 0.0
H261 H 0.93133 0.38629 0.43426 0.0
C262 C 0.62805 0.85776 0.81172 0.0
C263 C 0.67187 0.85834 0.79812 0.0
C264 C 0.62112 0.89213 0.80359 0.0
C265 C 0.65886 0.92796 0.78129 0.0
C266 C 0.70192 0.92787 0.76689 0.0
C267 C 0.70797 0.89311 0.7755 0.0
C268 C 0.57452 0.89093 0.8194 0.0
C269 C 0.74301 0.96551 0.74301 0.0
C270 C 0.6122 0.99868 0.7488 0.0
C271 C 0.64879 0.04157 0.76356 0.0
C272 C 0.61564 0.96154 0.75392 0.0
C273 C 0.65628 0.96758 0.77445 0.0
C274 C 0.69382 0.01128 0.78911 0.0
C275 C 0.68966 0.04778 0.7834 0.0
C276 C 0.57525 0.91565 0.73773 0.0
C277 C 0.73783 0.01927 0.8111 0.0
H278 H 0.59927 0.83048 0.82888 0.0
H279 H 0.74235 0.89413 0.76505 0.0
H280 H 0.59833 0.92511 0.83074 0.0
H281 H 0.54344 0.88931 0.80423 0.0
H282 H 0.54641 0.8591 0.83516 0.0
H283 H 0.77048 0.95802 0.73247 0.0
H284 H 0.71533 0.96644 0.72681 0.0
H285 H 0.77493 1.00252 0.75145 0.0
H286 H 0.58039 0.99405 0.73359 0.0
H287 H 0.71818 0.08134 0.79452 0.0
H288 H 0.54298 0.88344 0.75272 0.0
H289 H 0.60356 0.90931 0.72688 0.0
H290 H 0.54828 0.91766 0.72158 0.0
H291 H 0.71214 0.99044 0.82866 0.0
H292 H 0.76453 0.05572 0.8202 0.0
H293 H 0.77039 0.01623 0.80152 0.0
C294 C 0.82065 0.47346 0.09774 0.0
C295 C 0.82867 0.45447 0.12226 0.0
C296 C 0.76661 0.44389 0.08249 0.0
C297 C 0.71992 0.39418 0.09196 0.0
C298 C 0.72808 0.37471 0.11652 0.0
C299 C 0.78234 0.40517 0.13144 0.0
C300 C 0.75899 0.46597 0.05658 0.0
C301 C 0.67926 0.3218 0.12718 0.0
C302 C 0.55548 0.32988 0.07415 0.0
C303 C 0.54626 0.30152 0.052 0.0
C304 C 0.61228 0.36108 0.08686 0.0
C305 C 0.66073 0.36327 0.07738 0.0
C306 C 0.65176 0.33484 0.05477 0.0
C307 C 0.59434 0.30443 0.04209 0.0
C308 C 0.62019 0.39133 0.11057 0.0
C309 C 0.70241 0.3361 0.04432 0.0
H310 H 0.85644 0.51164 0.09068 0.0
H311 H 0.78899 0.39017 0.15006 0.0
H312 H 0.74866 0.4444 0.03791 0.0
H313 H 0.71957 0.46451 0.06014 0.0
H314 H 0.8006 0.50473 0.05142 0.0
H315 H 0.69407 0.31179 0.14579 0.0
H316 H 0.63693 0.315 0.13338 0.0
H317 H 0.66727 0.29716 0.11001 0.0
H318 H 0.51793 0.32764 0.08138 0.0
H319 H 0.58655 0.28249 0.02475 0.0
H320 H 0.65939 0.43076 0.10539 0.0
H321 H 0.63079 0.38056 0.1305 0.0
H322 H 0.5785 0.38677 0.11451 0.0
H323 H 0.74336 0.37424 0.03755 0.0
H324 H 0.6883 0.3125 0.02622 0.0
H325 H 0.71636 0.32356 0.06186 0.0
C326 C 0.57363 0.90431 0.46219 0.0
C327 C 0.56812 0.93564 0.47502 0.0
C328 C 0.52213 0.85458 0.45967 0.0
C329 C 0.46444 0.83543 0.47139 0.0
C330 C 0.45969 0.86664 0.48574 0.0
C331 C 0.51132 0.91667 0.48678 0.0
C332 C 0.52889 0.82314 0.44335 0.0
C333 C 0.3999 0.84738 0.49961 0.0
C334 C 0.3213 0.72607 0.43742 0.0
C335 C 0.308 0.68637 0.45395 0.0
C336 C 0.37187 0.77461 0.44292 0.0
C337 C 0.40834 0.78397 0.46655 0.0
C338 C 0.39231 0.74408 0.48466 0.0
C339 C 0.34294 0.69565 0.47783 0.0
C340 C 0.38786 0.8157 0.4226 0.0
C341 C 0.42825 0.75247 0.51078 0.0
H342 H 0.61767 0.91923 0.45302 0.0
H343 H 0.50745 0.941 0.49699 0.0
H344 H 0.5137 0.79052 0.45683 0.0
H345 H 0.49906 0.80963 0.42467 0.0
H346 H 0.57693 0.84345 0.43578 0.0
H347 H 0.40576 0.87468 0.51297 0.0
H348 H 0.36641 0.83773 0.48308 0.0
H349 H 0.37987 0.81345 0.51305 0.0
H350 H 0.29328 0.71892 0.4194 0.0
H351 H 0.33284 0.66505 0.49062 0.0
H352 H 0.43489 0.83651 0.41344 0.0
H353 H 0.38759 0.84177 0.43404 0.0
H354 H 0.35548 0.80207 0.4049 0.0
H355 H 0.47426 0.76589 0.50438 0.0
H356 H 0.40491 0.71839 0.52467 0.0
H357 H 0.43518 0.78103 0.52325 0.0
C358 C 0.60253 0.32425 0.81574 0.0
C359 C 0.54987 0.30344 0.83271 0.0
C360 C 0.6169 0.29584 0.80705 0.0
C361 C 0.57869 0.24558 0.81617 0.0
C362 C 0.52724 0.2248 0.83443 0.0
C363 C 0.513 0.25378 0.8422 0.0
C364 C 0.67179 0.31925 0.78727 0.0
C365 C 0.48617 0.17157 0.8451 0.0
C366 C 0.57466 0.16202 0.76824 0.0
C367 C 0.61678 0.15915 0.78088 0.0
C368 C 0.56159 0.18976 0.77965 0.0
C369 C 0.5901 0.21411 0.80483 0.0
C370 C 0.63094 0.20976 0.81835 0.0
C371 C 0.64435 0.1827 0.80599 0.0
C372 C 0.51844 0.19397 0.76432 0.0
C373 C 0.66114 0.23429 0.84556 0.0
H374 H 0.63245 0.36284 0.80893 0.0
H375 H 0.47195 0.23704 0.8551 0.0
H376 H 0.70309 0.31399 0.79648 0.0
H377 H 0.65638 0.30123 0.76679 0.0
H378 H 0.698 0.35917 0.78287 0.0
H379 H 0.45225 0.16248 0.86161 0.0
H380 H 0.46088 0.14781 0.82715 0.0
H381 H 0.514 0.16256 0.8541 0.0
H382 H 0.55243 0.14286 0.74916 0.0
H383 H 0.67712 0.18056 0.81564 0.0
H384 H 0.54268 0.23303 0.75803 0.0
H385 H 0.47928 0.18063 0.77866 0.0
H386 H 0.50016 0.17273 0.74496 0.0
H387 H 0.69264 0.27471 0.84157 0.0
H388 H 0.68774 0.22405 0.85458 0.0
H389 H 0.626 0.22419 0.86162 0.0
C390 C 0.75299 0.84632 0.56252 0.0
C391 C 0.7432 0.85552 0.53475 0.0
C392 C 0.73899 0.80173 0.57071 0.0
C393 C 0.71426 0.76549 0.55068 0.0
C394 C 0.70173 0.77378 0.52302 0.0
C395 C 0.71661 0.81878 0.51535 0.0
C396 C 0.7533 0.79431 0.60035 0.0
C397 C 0.67474 0.73582 0.50116 0.0
C398 C 0.74704 0.67863 0.55627 0.0
C399 C 0.69125 0.63529 0.56731 0.0
C400 C 0.75551 0.72155 0.55141 0.0
C401 C 0.70669 0.72088 0.55768 0.0
C402 C 0.65047 0.67725 0.56945 0.0
C403 C 0.64344 0.63479 0.57417 0.0
C404 C 0.81633 0.76735 0.53907 0.0
C405 C 0.59743 0.67513 0.57636 0.0
H406 H 0.77384 0.87476 0.57752 0.0
H407 H 0.70808 0.82552 0.49401 0.0
H408 H 0.71303 0.75851 0.61041 0.0
H409 H 0.79142 0.79362 0.59926 0.0
H410 H 0.76683 0.82389 0.61416 0.0
H411 H 0.66302 0.74623 0.48145 0.0
H412 H 0.70808 0.73109 0.49548 0.0
H413 H 0.63272 0.69977 0.51003 0.0
H414 H 0.7839 0.67861 0.55133 0.0
H415 H 0.60035 0.60092 0.58266 0.0
H416 H 0.83563 0.79816 0.55294 0.0
H417 H 0.80962 0.7782 0.51795 0.0
H418 H 0.85034 0.7622 0.53655 0.0
H419 H 0.61228 0.70465 0.59048 0.0
H420 H 0.55813 0.63924 0.58686 0.0
H421 H 0.58154 0.6814 0.55654 0.0
C422 C 0.75515 0.54041 0.869 0.0
C423 C 0.75978 0.57635 0.85209 0.0
C424 C 0.80456 0.54014 0.87095 0.0
C425 C 0.86038 0.57579 0.85499 0.0
C426 C 0.86452 0.61128 0.83725 0.0
C427 C 0.8151 0.61159 0.83638 0.0
C428 C 0.79745 0.50221 0.89079 0.0
C429 C 0.92157 0.64931 0.81915 0.0
C430 C 1.0104 0.60821 0.88192 0.0
C431 C 1.01591 0.57825 0.86686 0.0
C432 C 0.96077 0.60769 0.87826 0.0
C433 C 0.91531 0.57774 0.85813 0.0
C434 C 0.92251 0.54947 0.84159 0.0
C435 C 0.97196 0.54962 0.84633 0.0
C436 C 0.95581 0.63799 0.89691 0.0
C437 C 0.87698 0.518 0.81926 0.0
H438 H 0.71322 0.51307 0.88146 0.0
H439 H 0.81966 0.63941 0.82302 0.0
H440 H 0.80378 0.47994 0.87876 0.0
H441 H 0.83345 0.52069 0.90693 0.0
H442 H 0.75179 0.47723 0.90193 0.0
H443 H 0.96088 0.67421 0.83293 0.0
H444 H 0.93328 0.63126 0.80619 0.0
H445 H 0.91615 0.67171 0.8047 0.0
H446 H 1.04417 0.63095 0.89759 0.0
H447 H 0.97504 0.52605 0.83463 0.0
H448 H 0.91199 0.61369 0.90955 0.0
H449 H 0.95524 0.66416 0.88364 0.0
H450 H 0.99428 0.65901 0.91175 0.0
H451 H 0.83191 0.48731 0.82961 0.0
H452 H 0.89198 0.50241 0.80612 0.0
H453 H 0.87014 0.53975 0.80511 0.0
C454 C 0.33761 0.71311 0.18576 0.0
C455 C 0.33333 0.68437 0.16508 0.0
C456 C 0.38912 0.7631 0.18664 0.0
C457 C 0.43745 0.78539 0.16606 0.0
C458 C 0.43308 0.7568 0.14483 0.0
C459 C 0.3813 0.7065 0.14474 0.0
C460 C 0.39222 0.79191 0.20995 0.0
C461 C 0.48317 0.77934 0.1223 0.0
C462 C 0.54355 0.92494 0.16211 0.0
C463 C 0.5895 0.93648 0.18045 0.0
C464 C 0.49558 0.87601 0.15557 0.0
C465 C 0.49352 0.83798 0.16796 0.0
C466 C 0.54224 0.85018 0.18499 0.0
C467 C 0.5898 0.89931 0.19082 0.0
C468 C 0.44519 0.86473 0.1369 0.0
C469 C 0.54198 0.81108 0.19881 0.0
H470 H 0.30093 0.69635 0.20163 0.0
H471 H 0.37808 0.68465 0.12853 0.0
H472 H 0.43298 0.80691 0.22293 0.0
H473 H 0.39745 0.82353 0.20058 0.0
H474 H 0.35068 0.76923 0.22423 0.0
H475 H 0.47155 0.7528 0.10646 0.0
H476 H 0.49178 0.81135 0.11104 0.0
H477 H 0.52656 0.79301 0.13233 0.0
H478 H 0.54341 0.9538 0.1542 0.0
H479 H 0.62587 0.9086 0.20479 0.0
H480 H 0.40306 0.84725 0.15012 0.0
H481 H 0.43392 0.83846 0.12098 0.0
H482 H 0.45796 0.89835 0.1256 0.0
H483 H 0.50434 0.78907 0.2152 0.0
H484 H 0.58595 0.8269 0.20914 0.0
H485 H 0.53329 0.78564 0.18292 0.0
C486 C 0.6464 0.32807 0.47482 0.0
C487 C 0.66933 0.30966 0.49136 0.0
C488 C 0.65193 0.36766 0.48338 0.0
C489 C 0.68037 0.38889 0.50924 0.0
C490 C 0.70572 0.37177 0.52544 0.0
C491 C 0.7003 0.33264 0.51619 0.0
C492 C 0.6251 0.38541 0.46536 0.0
C493 C 0.73623 0.39333 0.5532 0.0
C494 C 0.72835 0.51086 0.52852 0.0
C495 C 0.6792 0.49517 0.54644 0.0
C496 C 0.72863 0.47674 0.5154 0.0
C497 C 0.67892 0.42592 0.52075 0.0
C498 C 0.62861 0.41011 0.53839 0.0
C499 C 0.62921 0.44501 0.55081 0.0
C500 C 0.78263 0.49494 0.4964 0.0
C501 C 0.5749 0.35629 0.5448 0.0
H502 H 0.6221 0.31041 0.4557 0.0
H503 H 0.71949 0.31945 0.52873 0.0
H504 H 0.5843 0.37566 0.47658 0.0
H505 H 0.65882 0.42595 0.46189 0.0
H506 H 0.61097 0.369 0.44437 0.0
H507 H 0.75673 0.37781 0.5624 0.0
H508 H 0.77278 0.43372 0.55012 0.0
H509 H 0.702 0.386 0.56881 0.0
H510 H 0.76706 0.54975 0.52535 0.0
H511 H 0.59089 0.43321 0.56434 0.0
H512 H 0.76655 0.47792 0.47566 0.0
H513 H 0.80785 0.48404 0.50628 0.0
H514 H 0.81501 0.53548 0.49255 0.0
H515 H 0.55408 0.33781 0.52476 0.0
H516 H 0.53886 0.35023 0.55844 0.0
H517 H 0.59096 0.33841 0.55578 0.0
C518 C 0.44859 0.61072 0.84091 0.0
C519 C 0.44663 0.57508 0.85656 0.0
C520 C 0.39951 0.61147 0.84223 0.0
C521 C 0.34676 0.57646 0.86017 0.0
C522 C 0.34484 0.54066 0.87616 0.0
C523 C 0.39385 0.54006 0.87392 0.0
C524 C 0.40414 0.64986 0.82423 0.0
C525 C 0.29118 0.50323 0.89618 0.0
C526 C 0.24869 0.6079 0.88657 0.0
C527 C 0.19439 0.57778 0.8713 0.0
C528 C 0.29777 0.60774 0.88322 0.0
C529 C 0.29486 0.5782 0.8631 0.0
C530 C 0.24142 0.54956 0.84647 0.0
C531 C 0.19198 0.54926 0.85095 0.0
C532 C 0.35236 0.63851 0.90192 0.0
C533 C 0.23593 0.51841 0.82417 0.0
H534 H 0.48844 0.63797 0.82726 0.0
H535 H 0.39116 0.51236 0.88633 0.0
H536 H 0.36324 0.63203 0.8109 0.0
H537 H 0.4049 0.67431 0.83806 0.0
H538 H 0.446 0.67269 0.81016 0.0
H539 H 0.29631 0.47808 0.9074 0.0
H540 H 0.28632 0.52214 0.91225 0.0
H541 H 0.24809 0.48107 0.88428 0.0
H542 H 0.25288 0.63172 0.90144 0.0
H543 H 0.1507 0.52574 0.83895 0.0
H544 H 0.3947 0.66564 0.88867 0.0
H545 H 0.35858 0.6148 0.91421 0.0
H546 H 0.34732 0.65847 0.91709 0.0
H547 H 0.2772 0.54085 0.80976 0.0
H548 H 0.19457 0.50168 0.81129 0.0
H549 H 0.23344 0.48861 0.83449 0.0
C550 C 0.96251 0.35629 0.18815 0.0
C551 C 1.00914 0.37373 0.16786 0.0
C552 C 0.91225 0.30581 0.19258 0.0
C553 C 0.90791 0.27187 0.17603 0.0
C554 C 0.95415 0.28937 0.15507 0.0
C555 C 1.00434 0.33995 0.15139 0.0
C556 C 0.86446 0.2887 0.21541 0.0
C557 C 0.95094 0.25456 0.13671 0.0
C558 C 0.81298 0.13918 0.20508 0.0
C559 C 0.75753 0.11606 0.19124 0.0
C560 C 0.86193 0.18985 0.20057 0.0
C561 C 0.85592 0.218 0.18116 0.0
C562 C 0.8003 0.19458 0.16671 0.0
C563 C 0.75161 0.14398 0.17213 0.0
C564 C 0.91995 0.2133 0.21675 0.0
C565 C 0.79215 0.22301 0.14561 0.0
H566 H 0.96592 0.38202 0.2011 0.0
H567 H 1.03997 0.35302 0.13558 0.0
H568 H 0.81847 0.26734 0.20608 0.0
H569 H 0.86243 0.26394 0.23154 0.0
H570 H 0.87413 0.31971 0.22628 0.0
H571 H 0.98917 0.27411 0.12058 0.0
H572 H 0.95255 0.22912 0.15018 0.0
H573 H 0.9068 0.2319 0.12561 0.0
H574 H 0.81798 0.11748 0.21948 0.0
H575 H 0.70851 0.12618 0.16166 0.0
H576 H 0.93007 0.24321 0.22907 0.0
H577 H 0.9593 0.23003 0.20168 0.0
H578 H 0.91665 0.18655 0.23165 0.0
H579 H 0.79657 0.25189 0.15638 0.0
H580 H 0.74683 0.19913 0.13551 0.0
H581 H 0.82873 0.24173 0.12872 0.0
C582 C 0.1094 0.54054 0.06486 0.0
C583 C 0.15199 0.54061 0.0797 0.0
C584 C 0.10742 0.53963 0.03516 0.0
C585 C 0.15066 0.54063 0.01989 0.0
C586 C 0.19293 0.53953 0.03493 0.0
C587 C 0.1925 0.53885 0.06481 0.0
C588 C 1.06035 0.53934 0.02009 0.0
C589 C 0.24065 0.5418 0.01946 0.0
C590 C 0.11205 0.5128 0.94246 0.0
C591 C 0.13912 0.5595 0.93035 0.0
C592 C 0.11873 0.50604 0.97142 0.0
C593 C 0.15435 0.54725 0.98829 0.0
C594 C 0.18618 0.59491 0.97533 0.0
C595 C 0.17678 0.60026 0.94671 0.0
C596 C 1.08286 0.45455 0.98444 0.0
C597 C 0.22602 0.64002 0.99222 0.0
H598 H 1.07786 0.54159 0.07653 0.0
H599 H 0.22573 0.53934 0.07642 0.0
H600 H 1.08358 0.57497 0.00796 0.0
H601 H 1.03586 0.51026 0.00464 0.0
H602 H 1.02602 0.53318 0.03513 0.0
H603 H 0.26537 0.53498 0.03413 0.0
H604 H 0.21933 0.51462 0.00293 0.0
H605 H 0.27461 0.57866 0.0085 0.0
H606 H 1.08152 0.48133 0.92983 0.0
H607 H 0.19607 0.6361 0.93738 0.0
H608 H 1.04242 0.44395 0.99656 0.0
H609 H 0.11097 0.45228 -0.00043 0.0
H610 H 1.06634 0.42764 0.96802 0.0
H611 H 0.19653 0.64222 0.00579 0.0
H612 H 0.25562 0.67418 0.97822 0.0
H613 H 0.25564 0.6381 0.00643 0.0
C614 C 0.80414 0.14004 0.37761 0.0
C615 C 0.75241 0.10747 0.39572 0.0
C616 C 0.79878 0.13909 0.34796 0.0
C617 C 0.74046 0.10417 0.33628 0.0
C618 C 0.68766 0.07336 0.35453 0.0
C619 C 0.69425 0.07565 0.38408 0.0
C620 C 0.85593 0.17336 0.3292 0.0
C621 C 0.62463 0.03549 0.34295 0.0
C622 C 0.7071 0.10038 0.25764 0.0
C623 C 0.70818 0.06389 0.24972 0.0
C624 C 0.72104 0.1163 0.28548 0.0
C625 C 0.73533 0.09446 0.30564 0.0
C626 C 0.73978 0.05959 0.29704 0.0
C627 C 0.72667 0.04514 0.2691 0.0
C628 C 0.7174 0.15448 0.29361 0.0
C629 C 0.75493 0.03537 0.31773 0.0
H630 H 0.84912 0.16523 0.3866 0.0
H631 H 0.6541 0.05072 0.39803 0.0
H632 H 0.86816 0.15255 0.32029 0.0
H633 H 0.84795 0.18946 0.31105 0.0
H634 H 0.89556 0.20358 0.34111 0.0
H635 H 0.58782 0.01752 0.35972 0.0
H636 H 0.61554 0.05258 0.32602 0.0
H637 H 0.6223 1.00679 0.33326 0.0
H638 H 0.69291 0.11483 0.24243 0.0
H639 H 0.72825 0.01745 0.26254 0.0
H640 H 0.75639 0.18161 0.30696 0.0
H641 H 0.67452 0.13645 0.30633 0.0
H642 H 0.71738 0.17422 0.27463 0.0
H643 H 0.75942 0.01077 0.30724 0.0
H644 H 0.71825 0.01339 0.33456 0.0
H645 H 0.79845 0.06351 0.32829 0.0
C646 C 0.65268 0.5791 0.75829 0.0
C647 C 0.60611 0.5783 0.76817 0.0
C648 C 0.66544 0.58356 0.72909 0.0
C649 C 0.63249 0.58943 0.70946 0.0
C650 C 0.58883 0.59263 0.71958 0.0
C651 C 0.57493 0.58567 0.74888 0.0
C652 C 0.71107 0.57854 0.71925 0.0
C653 C 0.55526 0.60157 0.69942 0.0
C654 C 0.69676 0.62005 0.63368 0.0
C655 C 0.65749 0.5737 0.6225 0.0
C656 C 0.68662 0.62675 0.66137 0.0
C657 C 0.63809 0.58558 0.67863 0.0
C658 C 0.59734 0.53907 0.66701 0.0
C659 C 0.60659 0.53414 0.63884 0.0
C660 C 0.72922 0.67746 0.67237 0.0
C661 C 0.54593 0.49383 0.68474 0.0
H662 H 0.67655 0.57317 0.77333 0.0
H663 H 0.53935 0.58555 0.7567 0.0
H664 H 0.68731 0.54538 0.7069 0.0
H665 H 0.74681 0.61059 0.70499 0.0
H666 H 0.73391 0.57541 0.73727 0.0
H667 H 0.53199 0.61226 0.71071 0.0
H668 H 0.58749 0.63086 0.68291 0.0
H669 H 0.52005 0.56773 0.6884 0.0
H670 H 0.73631 0.65073 0.62114 0.0
H671 H 0.57527 0.49869 0.62983 0.0
H672 H 0.76453 0.68144 0.68541 0.0
H673 H 0.70386 0.68378 0.68604 0.0
H674 H 0.75308 0.7063 0.6547 0.0
H675 H 0.5651 0.48783 0.70326 0.0
H676 H 0.51889 0.46034 0.67249 0.0
H677 H 0.51438 0.4988 0.69314 0.0
C678 C 0.66158 0.03399 0.57803 0.0
C679 C 0.701 0.07813 0.56151 0.0
C680 C 0.66011 0.03376 0.6078 0.0
C681 C 0.69661 0.07891 0.62105 0.0
C682 C 0.73908 0.12339 0.60441 0.0
C683 C 0.7415 0.12233 0.57477 0.0
C684 C 0.61656 0.98543 0.62487 0.0
C685 C 0.77783 0.17239 0.61758 0.0
C686 C 0.62425 0.08634 0.68472 0.0
C687 C 0.66134 0.09247 0.70678 0.0
C688 C 0.63517 0.0816 0.65685 0.0
C689 C 0.68263 0.08043 0.65108 0.0
C690 C 0.71758 0.08305 0.67367 0.0
C691 C 0.70738 0.09017 0.70126 0.0
C692 C 0.5972 0.07963 0.63347 0.0
C693 C 0.76663 0.07964 0.66869 0.0
H694 H 0.63071 0.99984 0.56762 0.0
H695 H 0.7717 0.15644 0.56182 0.0
H696 H 0.63831 0.98529 0.64447 0.0
H697 H 0.57519 0.97978 0.63144 0.0
H698 H 0.60163 0.95409 0.61238 0.0
H699 H 0.81209 0.20311 0.60214 0.0
H700 H 0.74771 0.17914 0.62562 0.0
H701 H 0.80234 0.17245 0.63596 0.0
H702 H 0.58751 0.08667 0.68926 0.0
H703 H 0.73607 0.09486 0.71836 0.0
H704 H 0.57177 0.04466 0.62286 0.0
H705 H 0.62764 0.10992 0.61711 0.0
H706 H 0.56357 0.08273 0.64152 0.0
H707 H 0.75154 0.05145 0.65342 0.0
H708 H 0.77883 0.07054 0.6888 0.0
H709 H 0.80855 0.11538 0.65949 0.0
C710 C 0.54978 0.50707 0.93212 0.0
C711 C 0.6107 0.54902 0.92572 0.0
C712 C 0.53577 0.46748 0.94902 0.0
C713 C 0.58393 0.47069 0.9608 0.0
C714 C 0.64557 0.51431 0.95594 0.0
C715 C 0.65832 0.5529 0.93814 0.0
C716 C 0.46947 0.42111 0.95289 0.0
C717 C 0.69823 0.51966 0.96845 0.0
C718 C 0.52014 0.3725 0.01986 0.0
C719 C 0.51134 0.3353 0.00551 0.0
C720 C 0.5494 0.41876 0.0063 0.0
C721 C 0.56848 0.42734 0.97742 0.0
C722 C 0.56327 0.39077 0.96341 0.0
C723 C 0.53465 0.34495 0.97775 0.0
C724 C 0.55619 0.45729 0.02233 0.0
C725 C 0.58554 0.3993 0.93299 0.0
H726 H 0.51289 0.50405 0.92257 0.0
H727 H 0.70557 0.58528 0.93318 0.0
H728 H 0.46344 0.39015 0.9441 0.0
H729 H 0.45622 0.41155 0.97581 0.0
H730 H 0.43761 0.42457 0.94214 0.0
H731 H 0.74015 0.55884 0.96917 0.0
H732 H 0.68635 0.50199 0.99025 0.0
H733 H 0.70913 0.50155 0.95502 0.0
H734 H 0.50111 0.36438 0.04125 0.0
H735 H 0.52765 0.31583 0.96692 0.0
H736 H 0.52195 0.46054 0.01498 0.0
H737 H 0.60244 0.49362 0.01814 0.0
H738 H 0.54901 0.44806 0.04562 0.0
H739 H 0.56894 0.41461 0.91945 0.0
H740 H 0.57057 0.36513 0.92404 0.0
H741 H 0.63638 0.42657 0.93194 0.0
C742 C 0.21717 0.55763 0.25728 0.0
C743 C 0.17775 0.51248 0.24488 0.0
C744 C 0.21654 0.56027 0.28679 0.0
C745 C 0.17363 0.51686 0.30416 0.0
C746 C 0.13284 0.47118 0.29162 0.0
C747 C 0.13625 0.46942 0.26206 0.0
C748 C 0.26198 0.60958 0.29938 0.0
C749 C 1.08493 0.42453 0.30932 0.0
C750 C 0.21427 0.52969 0.3818 0.0
C751 C 0.18692 0.54786 0.39161 0.0
C752 C 0.20741 0.51639 0.35362 0.0
C753 C 0.17096 0.52027 0.33529 0.0
C754 C 0.13905 0.53462 0.34603 0.0
C755 C 0.149 0.54971 0.37384 0.0
C756 C 0.24381 0.50283 0.34281 0.0
C757 C 0.09809 0.53767 0.32757 0.0
H758 H 0.24957 0.59085 0.24391 0.0
H759 H 0.1055 0.43457 0.25228 0.0
H760 H 0.23731 0.61997 0.30943 0.0
H761 H 0.28782 0.60761 0.31622 0.0
H762 H 0.29529 0.63905 0.28315 0.0
H763 H 1.05656 0.39203 0.29628 0.0
H764 H 0.1071 0.41797 0.32586 0.0
H765 H 1.05425 0.42817 0.32049 0.0
H766 H 0.24491 0.52976 0.39555 0.0
H767 H 0.1294 0.56511 0.38142 0.0
H768 H 0.2823 0.53364 0.32878 0.0
H769 H 0.21499 0.47023 0.32996 0.0
H770 H 0.26314 0.49515 0.36041 0.0
H771 H 0.1267 0.57067 0.3127 0.0
H772 H 1.06802 0.54022 0.3404 0.0
H773 H 1.0689 0.50515 0.31464 0.0
loop_
_geom_bond_atom_site_label_1
_geom_bond_atom_site_label_2
_geom_bond_distance
_geom_bond_site_symmetry_2
_ccdc_geom_bond_type
Sm0 C2 2.846 . S
Sm0 O20 2.543 . S
Sm0 O21 2.450 . S
Sm0 O22 2.681 1_455 S
Sm0 O23 2.464 . S
Sm0 O24 2.396 . S
Sm0 O28 2.386 . S
Sm0 O31 2.408 1_455 S
Sm1 C11 2.846 . S
Sm1 O22 2.386 . S
Sm1 O25 2.408 1_655 S
Sm1 O26 2.543 . S
Sm1 O27 2.450 . S
Sm1 O28 2.681 1_655 S
Sm1 O29 2.464 . S
Sm1 O30 2.396 . S
C2 Sm0 2.846 . S
C2 C3 1.506 . S
C2 O20 1.261 . S
C2 O21 1.242 . S
C3 C2 1.506 . S
C3 C4 1.358 . S
C3 C8 1.382 . S
C4 C3 1.358 . S
C4 C5 1.385 . S
C4 H32 0.930 . S
C5 C4 1.385 . S
C5 C6 1.395 . S
C5 H33 0.929 . S
C6 C5 1.395 . S
C6 C7 1.335 . S
C7 C6 1.335 . S
C7 C8 1.398 . S
C7 H34 0.930 . S
C8 C3 1.382 . S
C8 C7 1.398 . S
C8 H35 0.929 . S
C9 O22 1.271 1_455 S
C9 O23 1.251 . S
C10 O24 1.252 . S
C10 O25 1.272 . S
C11 Sm1 2.846 . S
C11 C12 1.506 . S
C11 O26 1.261 . S
C11 O27 1.242 . S
C12 C11 1.506 . S
C12 C13 1.358 . S
C12 C17 1.382 . S
C13 C12 1.358 . S
C13 C14 1.385 . S
C13 H36 0.930 . S
C14 C13 1.385 . S
C14 C15 1.395 . S
C14 H37 0.929 . S
C15 C14 1.395 . S
C15 C16 1.335 . S
C16 C15 1.335 . S
C16 C17 1.398 . S
C16 H38 0.930 . S
C17 C12 1.382 . S
C17 C16 1.398 . S
C17 H39 0.929 . S
C18 O28 1.271 . S
C18 O29 1.251 1_455 S
C19 O30 1.252 . S
C19 O31 1.272 . S
O20 Sm0 2.543 . S
O20 C2 1.261 . S
O21 Sm0 2.450 . S
O21 C2 1.242 . S
O22 Sm0 2.681 1_655 S
O22 Sm1 2.386 . S
O22 C9 1.271 1_655 S
O23 Sm0 2.464 . S
O23 C9 1.251 . S
O24 Sm0 2.396 . S
O24 C10 1.252 . S
O25 Sm1 2.408 1_455 S
O25 C10 1.272 . S
O26 Sm1 2.543 . S
O26 C11 1.261 . S
O27 Sm1 2.450 . S
O27 C11 1.242 . S
O28 Sm0 2.386 . S
O28 Sm1 2.681 1_455 S
O28 C18 1.271 . S
O29 Sm1 2.464 . S
O29 C18 1.251 1_655 S
O30 Sm1 2.396 . S
O30 C19 1.252 . S
O31 Sm0 2.408 1_655 S
O31 C19 1.272 . S
H32 C4 0.930 . S
H33 C5 0.929 . S
H34 C7 0.930 . S
H35 C8 0.929 . S
H36 C13 0.930 . S
H37 C14 0.929 . S
H38 C16 0.930 . S
H39 C17 0.929 . S
Sm40 C42 2.846 1_545 S
Sm40 O60 2.543 1_545 S
Sm40 O61 2.450 1_545 S
Sm40 O62 2.681 . S
Sm40 O63 2.464 . S
Sm40 O64 2.396 1_545 S
Sm40 O68 2.386 . S
Sm40 O71 2.408 . S
Sm41 C51 2.846 . S
Sm41 O62 2.386 . S
Sm41 O65 2.408 1_545 S
Sm41 O66 2.543 . S
Sm41 O67 2.450 . S
Sm41 O68 2.681 . S
Sm41 O69 2.464 . S
Sm41 O70 2.396 . S
C42 Sm40 2.846 1_565 S
C42 C43 1.506 . S
C42 O60 1.261 . S
C42 O61 1.242 . S
C43 C42 1.506 . S
C43 C44 1.358 . S
C43 C48 1.382 . S
C44 C43 1.358 . S
C44 C45 1.385 . S
C44 H72 0.930 . S
C45 C44 1.385 . S
C45 C46 1.395 . S
C45 H73 0.929 . S
C46 C45 1.395 . S
C46 C47 1.335 . S
C47 C46 1.335 . S
C47 C48 1.398 . S
C47 H74 0.930 . S
C48 C43 1.382 . S
C48 C47 1.398 . S
C48 H75 0.929 . S
C49 O62 1.271 . S
C49 O63 1.251 . S
C50 O64 1.252 . S
C50 O65 1.272 . S
C51 Sm41 2.846 . S
C51 C52 1.506 . S
C51 O66 1.261 . S
C51 O67 1.242 . S
C52 C51 1.506 . S
C52 C53 1.358 . S
C52 C57 1.382 . S
C53 C52 1.358 . S
C53 C54 1.385 . S
C53 H76 0.930 . S
C54 C53 1.385 . S
C54 C55 1.395 . S
C54 H77 0.929 . S
C55 C54 1.395 . S
C55 C56 1.335 . S
C56 C55 1.335 . S
C56 C57 1.398 . S
C56 H78 0.930 . S
C57 C52 1.382 . S
C57 C56 1.398 . S
C57 H79 0.929 . S
C58 O68 1.271 . S
C58 O69 1.251 . S
C59 O70 1.252 . S
C59 O71 1.272 . S
O60 Sm40 2.543 1_565 S
O60 C42 1.261 . S
O61 Sm40 2.450 1_565 S
O61 C42 1.242 . S
O62 Sm40 2.681 . S
O62 Sm41 2.386 . S
O62 C49 1.271 . S
O63 Sm40 2.464 . S
O63 C49 1.251 . S
O64 Sm40 2.396 1_565 S
O64 C50 1.252 . S
O65 Sm41 2.408 1_565 S
O65 C50 1.272 . S
O66 Sm41 2.543 . S
O66 C51 1.261 . S
O67 Sm41 2.450 . S
O67 C51 1.242 . S
O68 Sm40 2.386 . S
O68 Sm41 2.681 . S
O68 C58 1.271 . S
O69 Sm41 2.464 . S
O69 C58 1.251 . S
O70 Sm41 2.396 . S
O70 C59 1.252 . S
O71 Sm40 2.408 . S
O71 C59 1.272 . S
H72 C44 0.930 . S
H73 C45 0.929 . S
H74 C47 0.930 . S
H75 C48 0.929 . S
H76 C53 0.930 . S
H77 C54 0.929 . S
H78 C56 0.930 . S
H79 C57 0.929 . S
Sm80 C82 2.846 . S
Sm80 O100 2.543 . S
Sm80 O101 2.450 . S
Sm80 O102 2.681 . S
Sm80 O103 2.464 . S
Sm80 O104 2.396 . S
Sm80 O108 2.386 . S
Sm80 O111 2.408 . S
Sm81 C91 2.846 . S
Sm81 O102 2.386 . S
Sm81 O105 2.408 . S
Sm81 O106 2.543 . S
Sm81 O107 2.450 . S
Sm81 O108 2.681 . S
Sm81 O109 2.464 . S
Sm81 O110 2.396 . S
C82 Sm80 2.846 . S
C82 C83 1.506 . S
C82 O100 1.261 . S
C82 O101 1.242 . S
C83 C82 1.506 . S
C83 C84 1.358 . S
C83 C88 1.382 . S
C84 C83 1.358 . S
C84 C85 1.385 . S
C84 H112 0.930 . S
C85 C84 1.385 . S
C85 C86 1.395 . S
C85 H113 0.929 . S
C86 C85 1.395 . S
C86 C87 1.335 . S
C87 C86 1.335 . S
C87 C88 1.398 . S
C87 H114 0.930 . S
C88 C83 1.382 . S
C88 C87 1.398 . S
C88 H115 0.929 . S
C89 O102 1.271 . S
C89 O103 1.251 . S
C90 O104 1.252 . S
C90 O105 1.272 . S
C91 Sm81 2.846 . S
C91 C92 1.506 . S
C91 O106 1.261 . S
C91 O107 1.242 . S
C92 C91 1.506 . S
C92 C93 1.358 . S
C92 C97 1.382 . S
C93 C92 1.358 . S
C93 C94 1.385 . S
C93 H116 0.930 . S
C94 C93 1.385 . S
C94 C95 1.395 . S
C94 H117 0.929 . S
C95 C94 1.395 . S
C95 C96 1.335 . S
C96 C95 1.335 . S
C96 C97 1.398 . S
C96 H118 0.930 . S
C97 C92 1.382 . S
C97 C96 1.398 . S
C97 H119 0.929 . S
C98 O108 1.271 . S
C98 O109 1.251 . S
C99 O110 1.252 . S
C99 O111 1.272 . S
O100 Sm80 2.543 . S
O100 C82 1.261 . S
O101 Sm80 2.450 . S
O101 C82 1.242 . S
O102 Sm80 2.681 . S
O102 Sm81 2.386 . S
O102 C89 1.271 . S
O103 Sm80 2.464 . S
O103 C89 1.251 . S
O104 Sm80 2.396 . S
O104 C90 1.252 . S
O105 Sm81 2.408 . S
O105 C90 1.272 . S
O106 Sm81 2.543 . S
O106 C91 1.261 . S
O107 Sm81 2.450 . S
O107 C91 1.242 . S
O108 Sm80 2.386 . S
O108 Sm81 2.681 . S
O108 C98 1.271 . S
O109 Sm81 2.464 . S
O109 C98 1.251 . S
O110 Sm81 2.396 . S
O110 C99 1.252 . S
O111 Sm80 2.408 . S
O111 C99 1.272 . S
H112 C84 0.930 . S
H113 C85 0.929 . S
H114 C87 0.930 . S
H115 C88 0.929 . S
H116 C93 0.930 . S
H117 C94 0.929 . S
H118 C96 0.930 . S
H119 C97 0.929 . S
C120 N121 1.317 1_565 S
C120 N122 1.348 . S
C120 C123 1.485 1_565 S
N121 C120 1.317 1_545 S
N121 N125 1.370 . S
N122 C120 1.348 . S
N122 C124 1.346 . S
C123 C120 1.485 1_545 S
C123 H127 0.960 . S
C123 H128 0.961 1_545 S
C123 H129 0.960 . S
C124 N122 1.346 . S
C124 N125 1.307 1_565 S
C124 C126 1.486 . S
N125 N121 1.370 . S
N125 C124 1.307 1_545 S
C126 C124 1.486 . S
C126 H130 0.960 . S
C126 H131 0.960 . S
C126 H132 0.959 . S
H127 C123 0.960 . S
H128 C123 0.961 1_565 S
H129 C123 0.960 . S
H130 C126 0.960 . S
H131 C126 0.960 . S
H132 C126 0.959 . S
C133 N134 1.317 . S
C133 N135 1.348 . S
C133 C136 1.485 . S
N134 C133 1.317 . S
N134 N138 1.370 . S
N135 C133 1.348 . S
N135 C137 1.346 . S
C136 C133 1.485 . S
C136 H140 0.960 . S
C136 H141 0.961 . S
C136 H142 0.960 . S
C137 N135 1.346 . S
C137 N138 1.307 . S
C137 C139 1.486 . S
N138 N134 1.370 . S
N138 C137 1.307 . S
C139 C137 1.486 . S
C139 H143 0.960 . S
C139 H144 0.960 . S
C139 H145 0.959 . S
H140 C136 0.960 . S
H141 C136 0.961 . S
H142 C136 0.960 . S
H143 C139 0.960 . S
H144 C139 0.960 . S
H145 C139 0.959 . S
C146 N147 1.317 . S
C146 N148 1.348 . S
C146 C149 1.485 . S
N147 C146 1.317 . S
N147 N151 1.370 . S
N148 C146 1.348 . S
N148 C150 1.346 . S
C149 C146 1.485 . S
C149 H153 0.960 . S
C149 H154 0.961 . S
C149 H155 0.960 . S
C150 N148 1.346 . S
C150 N151 1.307 . S
C150 C152 1.486 1_455 S
N151 N147 1.370 . S
N151 C150 1.307 . S
C152 C150 1.486 1_655 S
C152 H156 0.960 . S
C152 H157 0.960 . S
C152 H158 0.959 . S
H153 C149 0.960 . S
H154 C149 0.961 . S
H155 C149 0.960 . S
H156 C152 0.960 . S
H157 C152 0.960 . S
H158 C152 0.959 . S
C159 N160 1.317 . S
C159 N161 1.348 . S
C159 C162 1.485 . S
N160 C159 1.317 . S
N160 N164 1.370 . S
N161 C159 1.348 . S
N161 C163 1.346 . S
C162 C159 1.485 . S
C162 H166 0.960 . S
C162 H167 0.961 . S
C162 H168 0.960 . S
C163 N161 1.346 . S
C163 N164 1.307 . S
C163 C165 1.486 . S
N164 N160 1.370 . S
N164 C163 1.307 . S
C165 C163 1.486 . S
C165 H169 0.960 . S
C165 H170 0.960 . S
C165 H171 0.959 . S
H166 C162 0.960 . S
H167 C162 0.961 . S
H168 C162 0.960 . S
H169 C165 0.960 . S
H170 C165 0.960 . S
H171 C165 0.959 . S
C172 N173 1.317 . S
C172 N174 1.348 . S
C172 C175 1.485 . S
N173 C172 1.317 . S
N173 N177 1.370 . S
N174 C172 1.348 . S
N174 C176 1.346 . S
C175 C172 1.485 . S
C175 H179 0.960 . S
C175 H180 0.961 . S
C175 H181 0.960 . S
C176 N174 1.346 . S
C176 N177 1.307 . S
C176 C178 1.486 . S
N177 N173 1.370 . S
N177 C176 1.307 . S
C178 C176 1.486 . S
C178 H182 0.960 . S
C178 H183 0.960 . S
C178 H184 0.959 . S
H179 C175 0.960 . S
H180 C175 0.961 . S
H181 C175 0.960 . S
H182 C178 0.960 . S
H183 C178 0.960 . S
H184 C178 0.959 . S
C185 N186 1.317 . S
C185 N187 1.348 . S
C185 C188 1.485 . S
N186 C185 1.317 . S
N186 N190 1.370 . S
N187 C185 1.348 . S
N187 C189 1.346 . S
C188 C185 1.485 . S
C188 H192 0.960 . S
C188 H193 0.961 . S
C188 H194 0.960 . S
C189 N187 1.346 . S
C189 N190 1.307 . S
C189 C191 1.486 . S
N190 N186 1.370 . S
N190 C189 1.307 . S
C191 C189 1.486 . S
C191 H195 0.960 . S
C191 H196 0.960 . S
C191 H197 0.959 . S
H192 C188 0.960 . S
H193 C188 0.961 . S
H194 C188 0.960 . S
H195 C191 0.960 . S
H196 C191 0.960 . S
H197 C191 0.959 . S
C198 C199 1.391 . S
C198 C200 1.394 . S
C198 H214 0.931 . S
C199 C198 1.391 . S
C199 C203 1.376 . S
C200 C198 1.394 . S
C200 C201 1.369 . S
C200 C204 1.531 . S
C201 C200 1.369 . S
C201 C202 1.410 . S
C201 C209 1.503 . S
C202 C201 1.410 . S
C202 C203 1.392 . S
C202 C205 1.511 . S
C203 C199 1.376 . S
C203 C202 1.392 . S
C203 H215 0.929 . S
C204 C200 1.531 . S
C204 H216 0.960 . S
C204 H217 0.962 . S
C204 H218 0.960 . S
C205 C202 1.511 . S
C205 H219 0.961 . S
C205 H220 0.961 . S
C205 H221 0.961 . S
C206 C207 1.370 . S
C206 C208 1.363 . S
C206 H222 0.931 . S
C207 C206 1.370 . S
C207 C211 1.408 . S
C208 C206 1.363 . S
C208 C209 1.370 . S
C208 C212 1.524 . S
C209 C201 1.503 . S
C209 C208 1.370 . S
C209 C210 1.403 . S
C210 C209 1.403 . S
C210 C211 1.404 . S
C210 C213 1.539 . S
C211 C207 1.408 . S
C211 C210 1.404 . S
C211 H223 0.930 . S
C212 C208 1.524 . S
C212 H224 0.956 . S
C212 H225 0.961 . S
C212 H226 0.961 . S
C213 C210 1.539 . S
C213 H227 0.958 . S
C213 H228 0.961 . S
C213 H229 0.960 . S
H214 C198 0.931 . S
H215 C203 0.929 . S
H216 C204 0.960 . S
H217 C204 0.962 . S
H218 C204 0.960 . S
H219 C205 0.961 . S
H220 C205 0.961 . S
H221 C205 0.961 . S
H222 C206 0.931 . S
H223 C211 0.930 . S
H224 C212 0.956 . S
H225 C212 0.961 . S
H226 C212 0.961 . S
H227 C213 0.958 . S
H228 C213 0.961 . S
H229 C213 0.960 . S
C230 C231 1.391 . S
C230 C232 1.394 . S
C230 H246 0.931 . S
C231 C230 1.391 . S
C231 C235 1.376 . S
C232 C230 1.394 . S
C232 C233 1.369 . S
C232 C236 1.531 . S
C233 C232 1.369 . S
C233 C234 1.410 . S
C233 C241 1.503 . S
C234 C233 1.410 . S
C234 C235 1.392 . S
C234 C237 1.511 . S
C235 C231 1.376 . S
C235 C234 1.392 . S
C235 H247 0.929 . S
C236 C232 1.531 . S
C236 H248 0.960 . S
C236 H249 0.962 . S
C236 H250 0.960 . S
C237 C234 1.511 . S
C237 H251 0.961 . S
C237 H252 0.961 . S
C237 H253 0.961 . S
C238 C239 1.370 . S
C238 C240 1.363 . S
C238 H254 0.931 . S
C239 C238 1.370 . S
C239 C243 1.408 . S
C240 C238 1.363 . S
C240 C241 1.370 . S
C240 C244 1.524 . S
C241 C233 1.503 . S
C241 C240 1.370 . S
C241 C242 1.403 . S
C242 C241 1.403 . S
C242 C243 1.404 . S
C242 C245 1.539 . S
C243 C239 1.408 . S
C243 C242 1.404 . S
C243 H255 0.930 . S
C244 C240 1.524 . S
C244 H256 0.956 . S
C244 H257 0.961 . S
C244 H258 0.961 . S
C245 C242 1.539 . S
C245 H259 0.958 . S
C245 H260 0.961 . S
C245 H261 0.960 . S
H246 C230 0.931 . S
H247 C235 0.929 . S
H248 C236 0.960 . S
H249 C236 0.962 . S
H250 C236 0.960 . S
H251 C237 0.961 . S
H252 C237 0.961 . S
H253 C237 0.961 . S
H254 C238 0.931 . S
H255 C243 0.930 . S
H256 C244 0.956 . S
H257 C244 0.961 . S
H258 C244 0.961 . S
H259 C245 0.958 . S
H260 C245 0.961 . S
H261 C245 0.960 . S
C262 C263 1.391 . S
C262 C264 1.394 . S
C262 H278 0.931 . S
C263 C262 1.391 . S
C263 C267 1.376 . S
C264 C262 1.394 . S
C264 C265 1.369 . S
C264 C268 1.531 . S
C265 C264 1.369 . S
C265 C266 1.410 . S
C265 C273 1.503 . S
C266 C265 1.410 . S
C266 C267 1.392 . S
C266 C269 1.511 . S
C267 C263 1.376 . S
C267 C266 1.392 . S
C267 H279 0.929 . S
C268 C264 1.531 . S
C268 H280 0.960 . S
C268 H281 0.962 . S
C268 H282 0.960 . S
C269 C266 1.511 . S
C269 H283 0.961 . S
C269 H284 0.961 . S
C269 H285 0.961 . S
C270 C271 1.370 . S
C270 C272 1.363 . S
C270 H286 0.931 . S
C271 C270 1.370 . S
C271 C275 1.408 1_565 S
C272 C270 1.363 . S
C272 C273 1.370 . S
C272 C276 1.524 . S
C273 C265 1.503 . S
C273 C272 1.370 . S
C273 C274 1.403 . S
C274 C273 1.403 . S
C274 C275 1.404 1_565 S
C274 C277 1.539 1_565 S
C275 C271 1.408 1_545 S
C275 C274 1.404 1_545 S
C275 H287 0.930 . S
C276 C272 1.524 . S
C276 H288 0.956 . S
C276 H289 0.961 . S
C276 H290 0.961 . S
C277 C274 1.539 1_545 S
C277 H291 0.958 . S
C277 H292 0.961 . S
C277 H293 0.960 . S
H278 C262 0.931 . S
H279 C267 0.929 . S
H280 C268 0.960 . S
H281 C268 0.962 . S
H282 C268 0.960 . S
H283 C269 0.961 . S
H284 C269 0.961 . S
H285 C269 0.961 . S
H286 C270 0.931 . S
H287 C275 0.930 . S
H288 C276 0.956 . S
H289 C276 0.961 . S
H290 C276 0.961 . S
H291 C277 0.958 . S
H292 C277 0.961 . S
H293 C277 0.960 . S
C294 C295 1.391 . S
C294 C296 1.394 . S
C294 H310 0.931 . S
C295 C294 1.391 . S
C295 C299 1.376 . S
C296 C294 1.394 . S
C296 C297 1.369 . S
C296 C300 1.531 . S
C297 C296 1.369 . S
C297 C298 1.410 . S
C297 C305 1.503 . S
C298 C297 1.410 . S
C298 C299 1.392 . S
C298 C301 1.511 . S
C299 C295 1.376 . S
C299 C298 1.392 . S
C299 H311 0.929 . S
C300 C296 1.531 . S
C300 H312 0.960 . S
C300 H313 0.962 . S
C300 H314 0.960 . S
C301 C298 1.511 . S
C301 H315 0.961 . S
C301 H316 0.961 . S
C301 H317 0.961 . S
C302 C303 1.370 . S
C302 C304 1.363 . S
C302 H318 0.931 . S
C303 C302 1.370 . S
C303 C307 1.408 . S
C304 C302 1.363 . S
C304 C305 1.370 . S
C304 C308 1.524 . S
C305 C297 1.503 . S
C305 C304 1.370 . S
C305 C306 1.403 . S
C306 C305 1.403 . S
C306 C307 1.404 . S
C306 C309 1.539 . S
C307 C303 1.408 . S
C307 C306 1.404 . S
C307 H319 0.930 . S
C308 C304 1.524 . S
C308 H320 0.956 . S
C308 H321 0.961 . S
C308 H322 0.961 . S
C309 C306 1.539 . S
C309 H323 0.958 . S
C309 H324 0.961 . S
C309 H325 0.960 . S
H310 C294 0.931 . S
H311 C299 0.929 . S
H312 C300 0.960 . S
H313 C300 0.962 . S
H314 C300 0.960 . S
H315 C301 0.961 . S
H316 C301 0.961 . S
H317 C301 0.961 . S
H318 C302 0.931 . S
H319 C307 0.930 . S
H320 C308 0.956 . S
H321 C308 0.961 . S
H322 C308 0.961 . S
H323 C309 0.958 . S
H324 C309 0.961 . S
H325 C309 0.960 . S
C326 C327 1.391 . S
C326 C328 1.394 . S
C326 H342 0.931 . S
C327 C326 1.391 . S
C327 C331 1.376 . S
C328 C326 1.394 . S
C328 C329 1.369 . S
C328 C332 1.531 . S
C329 C328 1.369 . S
C329 C330 1.410 . S
C329 C337 1.503 . S
C330 C329 1.410 . S
C330 C331 1.392 . S
C330 C333 1.511 . S
C331 C327 1.376 . S
C331 C330 1.392 . S
C331 H343 0.929 . S
C332 C328 1.531 . S
C332 H344 0.960 . S
C332 H345 0.962 . S
C332 H346 0.960 . S
C333 C330 1.511 . S
C333 H347 0.961 . S
C333 H348 0.961 . S
C333 H349 0.961 . S
C334 C335 1.370 . S
C334 C336 1.363 . S
C334 H350 0.931 . S
C335 C334 1.370 . S
C335 C339 1.408 . S
C336 C334 1.363 . S
C336 C337 1.370 . S
C336 C340 1.524 . S
C337 C329 1.503 . S
C337 C336 1.370 . S
C337 C338 1.403 . S
C338 C337 1.403 . S
C338 C339 1.404 . S
C338 C341 1.539 . S
C339 C335 1.408 . S
C339 C338 1.404 . S
C339 H351 0.930 . S
C340 C336 1.524 . S
C340 H352 0.956 . S
C340 H353 0.961 . S
C340 H354 0.961 . S
C341 C338 1.539 . S
C341 H355 0.958 . S
C341 H356 0.961 . S
C341 H357 0.960 . S
H342 C326 0.931 . S
H343 C331 0.929 . S
H344 C332 0.960 . S
H345 C332 0.962 . S
H346 C332 0.960 . S
H347 C333 0.961 . S
H348 C333 0.961 . S
H349 C333 0.961 . S
H350 C334 0.931 . S
H351 C339 0.930 . S
H352 C340 0.956 . S
H353 C340 0.961 . S
H354 C340 0.961 . S
H355 C341 0.958 . S
H356 C341 0.961 . S
H357 C341 0.960 . S
C358 C359 1.391 . S
C358 C360 1.394 . S
C358 H374 0.931 . S
C359 C358 1.391 . S
C359 C363 1.376 . S
C360 C358 1.394 . S
C360 C361 1.369 . S
C360 C364 1.531 . S
C361 C360 1.369 . S
C361 C362 1.410 . S
C361 C369 1.503 . S
C362 C361 1.410 . S
C362 C363 1.392 . S
C362 C365 1.511 . S
C363 C359 1.376 . S
C363 C362 1.392 . S
C363 H375 0.929 . S
C364 C360 1.531 . S
C364 H376 0.960 . S
C364 H377 0.962 . S
C364 H378 0.960 . S
C365 C362 1.511 . S
C365 H379 0.961 . S
C365 H380 0.961 . S
C365 H381 0.961 . S
C366 C367 1.370 . S
C366 C368 1.363 . S
C366 H382 0.931 . S
C367 C366 1.370 . S
C367 C371 1.408 . S
C368 C366 1.363 . S
C368 C369 1.370 . S
C368 C372 1.524 . S
C369 C361 1.503 . S
C369 C368 1.370 . S
C369 C370 1.403 . S
C370 C369 1.403 . S
C370 C371 1.404 . S
C370 C373 1.539 . S
C371 C367 1.408 . S
C371 C370 1.404 . S
C371 H383 0.930 . S
C372 C368 1.524 . S
C372 H384 0.956 . S
C372 H385 0.961 . S
C372 H386 0.961 . S
C373 C370 1.539 . S
C373 H387 0.958 . S
C373 H388 0.961 . S
C373 H389 0.960 . S
H374 C358 0.931 . S
H375 C363 0.929 . S
H376 C364 0.960 . S
H377 C364 0.962 . S
H378 C364 0.960 . S
H379 C365 0.961 . S
H380 C365 0.961 . S
H381 C365 0.961 . S
H382 C366 0.931 . S
H383 C371 0.930 . S
H384 C372 0.956 . S
H385 C372 0.961 . S
H386 C372 0.961 . S
H387 C373 0.958 . S
H388 C373 0.961 . S
H389 C373 0.960 . S
C390 C391 1.391 . S
C390 C392 1.394 . S
C390 H406 0.931 . S
C391 C390 1.391 . S
C391 C395 1.376 . S
C392 C390 1.394 . S
C392 C393 1.369 . S
C392 C396 1.531 . S
C393 C392 1.369 . S
C393 C394 1.410 . S
C393 C401 1.503 . S
C394 C393 1.410 . S
C394 C395 1.392 . S
C394 C397 1.511 . S
C395 C391 1.376 . S
C395 C394 1.392 . S
C395 H407 0.929 . S
C396 C392 1.531 . S
C396 H408 0.960 . S
C396 H409 0.962 . S
C396 H410 0.960 . S
C397 C394 1.511 . S
C397 H411 0.961 . S
C397 H412 0.961 . S
C397 H413 0.961 . S
C398 C399 1.370 . S
C398 C400 1.363 . S
C398 H414 0.931 . S
C399 C398 1.370 . S
C399 C403 1.408 . S
C400 C398 1.363 . S
C400 C401 1.370 . S
C400 C404 1.524 . S
C401 C393 1.503 . S
C401 C400 1.370 . S
C401 C402 1.403 . S
C402 C401 1.403 . S
C402 C403 1.404 . S
C402 C405 1.539 . S
C403 C399 1.408 . S
C403 C402 1.404 . S
C403 H415 0.930 . S
C404 C400 1.524 . S
C404 H416 0.956 . S
C404 H417 0.961 . S
C404 H418 0.961 . S
C405 C402 1.539 . S
C405 H419 0.958 . S
C405 H420 0.961 . S
C405 H421 0.960 . S
H406 C390 0.931 . S
H407 C395 0.929 . S
H408 C396 0.960 . S
H409 C396 0.962 . S
H410 C396 0.960 . S
H411 C397 0.961 . S
H412 C397 0.961 . S
H413 C397 0.961 . S
H414 C398 0.931 . S
H415 C403 0.930 . S
H416 C404 0.956 . S
H417 C404 0.961 . S
H418 C404 0.961 . S
H419 C405 0.958 . S
H420 C405 0.961 . S
H421 C405 0.960 . S
C422 C423 1.391 . S
C422 C424 1.394 . S
C422 H438 0.931 . S
C423 C422 1.391 . S
C423 C427 1.376 . S
C424 C422 1.394 . S
C424 C425 1.369 . S
C424 C428 1.531 . S
C425 C424 1.369 . S
C425 C426 1.410 . S
C425 C433 1.503 . S
C426 C425 1.410 . S
C426 C427 1.392 . S
C426 C429 1.511 . S
C427 C423 1.376 . S
C427 C426 1.392 . S
C427 H439 0.929 . S
C428 C424 1.531 . S
C428 H440 0.960 . S
C428 H441 0.962 . S
C428 H442 0.960 . S
C429 C426 1.511 . S
C429 H443 0.961 . S
C429 H444 0.961 . S
C429 H445 0.961 . S
C430 C431 1.370 . S
C430 C432 1.363 . S
C430 H446 0.931 . S
C431 C430 1.370 . S
C431 C435 1.408 . S
C432 C430 1.363 . S
C432 C433 1.370 . S
C432 C436 1.524 . S
C433 C425 1.503 . S
C433 C432 1.370 . S
C433 C434 1.403 . S
C434 C433 1.403 . S
C434 C435 1.404 . S
C434 C437 1.539 . S
C435 C431 1.408 . S
C435 C434 1.404 . S
C435 H447 0.930 . S
C436 C432 1.524 . S
C436 H448 0.956 . S
C436 H449 0.961 . S
C436 H450 0.961 . S
C437 C434 1.539 . S
C437 H451 0.958 . S
C437 H452 0.961 . S
C437 H453 0.960 . S
H438 C422 0.931 . S
H439 C427 0.929 . S
H440 C428 0.960 . S
H441 C428 0.962 . S
H442 C428 0.960 . S
H443 C429 0.961 . S
H444 C429 0.961 . S
H445 C429 0.961 . S
H446 C430 0.931 . S
H447 C435 0.930 . S
H448 C436 0.956 . S
H449 C436 0.961 . S
H450 C436 0.961 . S
H451 C437 0.958 . S
H452 C437 0.961 . S
H453 C437 0.960 . S
C454 C455 1.391 . S
C454 C456 1.394 . S
C454 H470 0.931 . S
C455 C454 1.391 . S
C455 C459 1.376 . S
C456 C454 1.394 . S
C456 C457 1.369 . S
C456 C460 1.531 . S
C457 C456 1.369 . S
C457 C458 1.410 . S
C457 C465 1.503 . S
C458 C457 1.410 . S
C458 C459 1.392 . S
C458 C461 1.511 . S
C459 C455 1.376 . S
C459 C458 1.392 . S
C459 H471 0.929 . S
C460 C456 1.531 . S
C460 H472 0.960 . S
C460 H473 0.962 . S
C460 H474 0.960 . S
C461 C458 1.511 . S
C461 H475 0.961 . S
C461 H476 0.961 . S
C461 H477 0.961 . S
C462 C463 1.370 . S
C462 C464 1.363 . S
C462 H478 0.931 . S
C463 C462 1.370 . S
C463 C467 1.408 . S
C464 C462 1.363 . S
C464 C465 1.370 . S
C464 C468 1.524 . S
C465 C457 1.503 . S
C465 C464 1.370 . S
C465 C466 1.403 . S
C466 C465 1.403 . S
C466 C467 1.404 . S
C466 C469 1.539 . S
C467 C463 1.408 . S
C467 C466 1.404 . S
C467 H479 0.930 . S
C468 C464 1.524 . S
C468 H480 0.956 . S
C468 H481 0.961 . S
C468 H482 0.961 . S
C469 C466 1.539 . S
C469 H483 0.958 . S
C469 H484 0.961 . S
C469 H485 0.960 . S
H470 C454 0.931 . S
H471 C459 0.929 . S
H472 C460 0.960 . S
H473 C460 0.962 . S
H474 C460 0.960 . S
H475 C461 0.961 . S
H476 C461 0.961 . S
H477 C461 0.961 . S
H478 C462 0.931 . S
H479 C467 0.930 . S
H480 C468 0.956 . S
H481 C468 0.961 . S
H482 C468 0.961 . S
H483 C469 0.958 . S
H484 C469 0.961 . S
H485 C469 0.960 . S
C486 C487 1.391 . S
C486 C488 1.394 . S
C486 H502 0.931 . S
C487 C486 1.391 . S
C487 C491 1.376 . S
C488 C486 1.394 . S
C488 C489 1.369 . S
C488 C492 1.531 . S
C489 C488 1.369 . S
C489 C490 1.410 . S
C489 C497 1.503 . S
C490 C489 1.410 . S
C490 C491 1.392 . S
C490 C493 1.511 . S
C491 C487 1.376 . S
C491 C490 1.392 . S
C491 H503 0.929 . S
C492 C488 1.531 . S
C492 H504 0.960 . S
C492 H505 0.962 . S
C492 H506 0.960 . S
C493 C490 1.511 . S
C493 H507 0.961 . S
C493 H508 0.961 . S
C493 H509 0.961 . S
C494 C495 1.370 . S
C494 C496 1.363 . S
C494 H510 0.931 . S
C495 C494 1.370 . S
C495 C499 1.408 . S
C496 C494 1.363 . S
C496 C497 1.370 . S
C496 C500 1.524 . S
C497 C489 1.503 . S
C497 C496 1.370 . S
C497 C498 1.403 . S
C498 C497 1.403 . S
C498 C499 1.404 . S
C498 C501 1.539 . S
C499 C495 1.408 . S
C499 C498 1.404 . S
C499 H511 0.930 . S
C500 C496 1.524 . S
C500 H512 0.956 . S
C500 H513 0.961 . S
C500 H514 0.961 . S
C501 C498 1.539 . S
C501 H515 0.958 . S
C501 H516 0.961 . S
C501 H517 0.960 . S
H502 C486 0.931 . S
H503 C491 0.929 . S
H504 C492 0.960 . S
H505 C492 0.962 . S
H506 C492 0.960 . S
H507 C493 0.961 . S
H508 C493 0.961 . S
H509 C493 0.961 . S
H510 C494 0.931 . S
H511 C499 0.930 . S
H512 C500 0.956 . S
H513 C500 0.961 . S
H514 C500 0.961 . S
H515 C501 0.958 . S
H516 C501 0.961 . S
H517 C501 0.960 . S
C518 C519 1.391 . S
C518 C520 1.394 . S
C518 H534 0.931 . S
C519 C518 1.391 . S
C519 C523 1.376 . S
C520 C518 1.394 . S
C520 C521 1.369 . S
C520 C524 1.531 . S
C521 C520 1.369 . S
C521 C522 1.410 . S
C521 C529 1.503 . S
C522 C521 1.410 . S
C522 C523 1.392 . S
C522 C525 1.511 . S
C523 C519 1.376 . S
C523 C522 1.392 . S
C523 H535 0.929 . S
C524 C520 1.531 . S
C524 H536 0.960 . S
C524 H537 0.962 . S
C524 H538 0.960 . S
C525 C522 1.511 . S
C525 H539 0.961 . S
C525 H540 0.961 . S
C525 H541 0.961 . S
C526 C527 1.370 . S
C526 C528 1.363 . S
C526 H542 0.931 . S
C527 C526 1.370 . S
C527 C531 1.408 . S
C528 C526 1.363 . S
C528 C529 1.370 . S
C528 C532 1.524 . S
C529 C521 1.503 . S
C529 C528 1.370 . S
C529 C530 1.403 . S
C530 C529 1.403 . S
C530 C531 1.404 . S
C530 C533 1.539 . S
C531 C527 1.408 . S
C531 C530 1.404 . S
C531 H543 0.930 . S
C532 C528 1.524 . S
C532 H544 0.956 . S
C532 H545 0.961 . S
C532 H546 0.961 . S
C533 C530 1.539 . S
C533 H547 0.958 . S
C533 H548 0.961 . S
C533 H549 0.960 . S
H534 C518 0.931 . S
H535 C523 0.929 . S
H536 C524 0.960 . S
H537 C524 0.962 . S
H538 C524 0.960 . S
H539 C525 0.961 . S
H540 C525 0.961 . S
H541 C525 0.961 . S
H542 C526 0.931 . S
H543 C531 0.930 . S
H544 C532 0.956 . S
H545 C532 0.961 . S
H546 C532 0.961 . S
H547 C533 0.958 . S
H548 C533 0.961 . S
H549 C533 0.960 . S
C550 C551 1.391 . S
C550 C552 1.394 . S
C550 H566 0.931 . S
C551 C550 1.391 . S
C551 C555 1.376 . S
C552 C550 1.394 . S
C552 C553 1.369 . S
C552 C556 1.531 . S
C553 C552 1.369 . S
C553 C554 1.410 . S
C553 C561 1.503 . S
C554 C553 1.410 . S
C554 C555 1.392 . S
C554 C557 1.511 . S
C555 C551 1.376 . S
C555 C554 1.392 . S
C555 H567 0.929 . S
C556 C552 1.531 . S
C556 H568 0.960 . S
C556 H569 0.962 . S
C556 H570 0.960 . S
C557 C554 1.511 . S
C557 H571 0.961 . S
C557 H572 0.961 . S
C557 H573 0.961 . S
C558 C559 1.370 . S
C558 C560 1.363 . S
C558 H574 0.931 . S
C559 C558 1.370 . S
C559 C563 1.408 . S
C560 C558 1.363 . S
C560 C561 1.370 . S
C560 C564 1.524 . S
C561 C553 1.503 . S
C561 C560 1.370 . S
C561 C562 1.403 . S
C562 C561 1.403 . S
C562 C563 1.404 . S
C562 C565 1.539 . S
C563 C559 1.408 . S
C563 C562 1.404 . S
C563 H575 0.930 . S
C564 C560 1.524 . S
C564 H576 0.956 . S
C564 H577 0.961 . S
C564 H578 0.961 . S
C565 C562 1.539 . S
C565 H579 0.958 . S
C565 H580 0.961 . S
C565 H581 0.960 . S
H566 C550 0.931 . S
H567 C555 0.929 . S
H568 C556 0.960 . S
H569 C556 0.962 . S
H570 C556 0.960 . S
H571 C557 0.961 . S
H572 C557 0.961 . S
H573 C557 0.961 . S
H574 C558 0.931 . S
H575 C563 0.930 . S
H576 C564 0.956 . S
H577 C564 0.961 . S
H578 C564 0.961 . S
H579 C565 0.958 . S
H580 C565 0.961 . S
H581 C565 0.960 . S
C582 C583 1.391 . S
C582 C584 1.394 . S
C582 H598 0.931 . S
C583 C582 1.391 . S
C583 C587 1.376 . S
C584 C582 1.394 . S
C584 C585 1.369 . S
C584 C588 1.531 . S
C585 C584 1.369 . S
C585 C586 1.410 . S
C585 C593 1.503 1_554 S
C586 C585 1.410 . S
C586 C587 1.392 . S
C586 C589 1.511 . S
C587 C583 1.376 . S
C587 C586 1.392 . S
C587 H599 0.929 . S
C588 C584 1.531 . S
C588 H600 0.960 . S
C588 H601 0.962 . S
C588 H602 0.960 . S
C589 C586 1.511 . S
C589 H603 0.961 . S
C589 H604 0.961 1_554 S
C589 H605 0.961 . S
C590 C591 1.370 . S
C590 C592 1.363 . S
C590 H606 0.931 1_455 S
C591 C590 1.370 . S
C591 C595 1.408 . S
C592 C590 1.363 . S
C592 C593 1.370 . S
C592 C596 1.524 1_455 S
C593 C585 1.503 1_556 S
C593 C592 1.370 . S
C593 C594 1.403 . S
C594 C593 1.403 . S
C594 C595 1.404 . S
C594 C597 1.539 . S
C595 C591 1.408 . S
C595 C594 1.404 . S
C595 H607 0.930 . S
C596 C592 1.524 1_655 S
C596 H608 0.956 . S
C596 H609 0.961 . S
C596 H610 0.961 . S
C597 C594 1.539 . S
C597 H611 0.958 . S
C597 H612 0.961 . S
C597 H613 0.960 1_556 S
H598 C582 0.931 . S
H599 C587 0.929 . S
H600 C588 0.960 . S
H601 C588 0.962 . S
H602 C588 0.960 . S
H603 C589 0.961 . S
H604 C589 0.961 1_556 S
H605 C589 0.961 . S
H606 C590 0.931 1_655 S
H607 C595 0.930 . S
H608 C596 0.956 . S
H609 C596 0.961 . S
H610 C596 0.961 . S
H611 C597 0.958 . S
H612 C597 0.961 . S
H613 C597 0.960 1_554 S
C614 C615 1.391 . S
C614 C616 1.394 . S
C614 H630 0.931 . S
C615 C614 1.391 . S
C615 C619 1.376 . S
C616 C614 1.394 . S
C616 C617 1.369 . S
C616 C620 1.531 . S
C617 C616 1.369 . S
C617 C618 1.410 . S
C617 C625 1.503 . S
C618 C617 1.410 . S
C618 C619 1.392 . S
C618 C621 1.511 . S
C619 C615 1.376 . S
C619 C618 1.392 . S
C619 H631 0.929 . S
C620 C616 1.531 . S
C620 H632 0.960 . S
C620 H633 0.962 . S
C620 H634 0.960 . S
C621 C618 1.511 . S
C621 H635 0.961 1_545 S
C621 H636 0.961 1_545 S
C621 H637 0.961 . S
C622 C623 1.370 1_565 S
C622 C624 1.363 . S
C622 H638 0.931 . S
C623 C622 1.370 1_545 S
C623 C627 1.408 . S
C624 C622 1.363 . S
C624 C625 1.370 1_565 S
C624 C628 1.524 . S
C625 C617 1.503 . S
C625 C624 1.370 1_545 S
C625 C626 1.403 . S
C626 C625 1.403 . S
C626 C627 1.404 . S
C626 C629 1.539 . S
C627 C623 1.408 . S
C627 C626 1.404 . S
C627 H639 0.930 . S
C628 C624 1.524 . S
C628 H640 0.956 . S
C628 H641 0.961 . S
C628 H642 0.961 . S
C629 C626 1.539 . S
C629 H643 0.958 . S
C629 H644 0.961 . S
C629 H645 0.960 . S
H630 C614 0.931 . S
H631 C619 0.929 . S
H632 C620 0.960 . S
H633 C620 0.962 . S
H634 C620 0.960 . S
H635 C621 0.961 1_565 S
H636 C621 0.961 1_565 S
H637 C621 0.961 . S
H638 C622 0.931 . S
H639 C627 0.930 . S
H640 C628 0.956 . S
H641 C628 0.961 . S
H642 C628 0.961 . S
H643 C629 0.958 . S
H644 C629 0.961 . S
H645 C629 0.960 . S
C646 C647 1.391 . S
C646 C648 1.394 . S
C646 H662 0.931 . S
C647 C646 1.391 . S
C647 C651 1.376 . S
C648 C646 1.394 . S
C648 C649 1.369 . S
C648 C652 1.531 . S
C649 C648 1.369 . S
C649 C650 1.410 . S
C649 C657 1.503 . S
C650 C649 1.410 . S
C650 C651 1.392 . S
C650 C653 1.511 . S
C651 C647 1.376 . S
C651 C650 1.392 . S
C651 H663 0.929 . S
C652 C648 1.531 . S
C652 H664 0.960 . S
C652 H665 0.962 . S
C652 H666 0.960 . S
C653 C650 1.511 . S
C653 H667 0.961 . S
C653 H668 0.961 . S
C653 H669 0.961 . S
C654 C655 1.370 . S
C654 C656 1.363 . S
C654 H670 0.931 . S
C655 C654 1.370 . S
C655 C659 1.408 . S
C656 C654 1.363 . S
C656 C657 1.370 . S
C656 C660 1.524 . S
C657 C649 1.503 . S
C657 C656 1.370 . S
C657 C658 1.403 . S
C658 C657 1.403 . S
C658 C659 1.404 . S
C658 C661 1.539 . S
C659 C655 1.408 . S
C659 C658 1.404 . S
C659 H671 0.930 . S
C660 C656 1.524 . S
C660 H672 0.956 . S
C660 H673 0.961 . S
C660 H674 0.961 . S
C661 C658 1.539 . S
C661 H675 0.958 . S
C661 H676 0.961 . S
C661 H677 0.960 . S
H662 C646 0.931 . S
H663 C651 0.929 . S
H664 C652 0.960 . S
H665 C652 0.962 . S
H666 C652 0.960 . S
H667 C653 0.961 . S
H668 C653 0.961 . S
H669 C653 0.961 . S
H670 C654 0.931 . S
H671 C659 0.930 . S
H672 C660 0.956 . S
H673 C660 0.961 . S
H674 C660 0.961 . S
H675 C661 0.958 . S
H676 C661 0.961 . S
H677 C661 0.960 . S
C678 C679 1.391 1_565 S
C678 C680 1.394 . S
C678 H694 0.931 . S
C679 C678 1.391 1_545 S
C679 C683 1.376 . S
C680 C678 1.394 . S
C680 C681 1.369 1_565 S
C680 C684 1.531 . S
C681 C680 1.369 1_545 S
C681 C682 1.410 . S
C681 C689 1.503 . S
C682 C681 1.410 . S
C682 C683 1.392 . S
C682 C685 1.511 . S
C683 C679 1.376 . S
C683 C682 1.392 . S
C683 H695 0.929 . S
C684 C680 1.531 . S
C684 H696 0.960 . S
C684 H697 0.962 . S
C684 H698 0.960 . S
C685 C682 1.511 . S
C685 H699 0.961 . S
C685 H700 0.961 . S
C685 H701 0.961 . S
C686 C687 1.370 . S
C686 C688 1.363 . S
C686 H702 0.931 . S
C687 C686 1.370 . S
C687 C691 1.408 . S
C688 C686 1.363 . S
C688 C689 1.370 . S
C688 C692 1.524 . S
C689 C681 1.503 . S
C689 C688 1.370 . S
C689 C690 1.403 . S
C690 C689 1.403 . S
C690 C691 1.404 . S
C690 C693 1.539 1_545 S
C691 C687 1.408 . S
C691 C690 1.404 . S
C691 H703 0.930 1_545 S
C692 C688 1.524 . S
C692 H704 0.956 . S
C692 H705 0.961 . S
C692 H706 0.961 . S
C693 C690 1.539 1_565 S
C693 H707 0.958 . S
C693 H708 0.961 . S
C693 H709 0.960 . S
H694 C678 0.931 . S
H695 C683 0.929 . S
H696 C684 0.960 . S
H697 C684 0.962 . S
H698 C684 0.960 . S
H699 C685 0.961 . S
H700 C685 0.961 . S
H701 C685 0.961 . S
H702 C686 0.931 . S
H703 C691 0.930 1_565 S
H704 C692 0.956 . S
H705 C692 0.961 . S
H706 C692 0.961 . S
H707 C693 0.958 . S
H708 C693 0.961 . S
H709 C693 0.960 . S
C710 C711 1.391 . S
C710 C712 1.394 . S
C710 H726 0.931 . S
C711 C710 1.391 . S
C711 C715 1.376 . S
C712 C710 1.394 . S
C712 C713 1.369 . S
C712 C716 1.531 . S
C713 C712 1.369 . S
C713 C714 1.410 . S
C713 C721 1.503 . S
C714 C713 1.410 . S
C714 C715 1.392 . S
C714 C717 1.511 . S
C715 C711 1.376 . S
C715 C714 1.392 . S
C715 H727 0.929 . S
C716 C712 1.531 . S
C716 H728 0.960 . S
C716 H729 0.962 . S
C716 H730 0.960 . S
C717 C714 1.511 . S
C717 H731 0.961 . S
C717 H732 0.961 . S
C717 H733 0.961 . S
C718 C719 1.370 . S
C718 C720 1.363 . S
C718 H734 0.931 . S
C719 C718 1.370 . S
C719 C723 1.408 . S
C720 C718 1.363 . S
C720 C721 1.370 1_554 S
C720 C724 1.524 1_554 S
C721 C713 1.503 . S
C721 C720 1.370 1_556 S
C721 C722 1.403 1_556 S
C722 C721 1.403 1_554 S
C722 C723 1.404 . S
C722 C725 1.539 . S
C723 C719 1.408 . S
C723 C722 1.404 . S
C723 H735 0.930 . S
C724 C720 1.524 1_556 S
C724 H736 0.956 . S
C724 H737 0.961 . S
C724 H738 0.961 1_556 S
C725 C722 1.539 . S
C725 H739 0.958 1_554 S
C725 H740 0.961 . S
C725 H741 0.960 1_554 S
H726 C710 0.931 . S
H727 C715 0.929 . S
H728 C716 0.960 . S
H729 C716 0.962 . S
H730 C716 0.960 . S
H731 C717 0.961 . S
H732 C717 0.961 . S
H733 C717 0.961 . S
H734 C718 0.931 . S
H735 C723 0.930 . S
H736 C724 0.956 . S
H737 C724 0.961 . S
H738 C724 0.961 1_554 S
H739 C725 0.958 1_556 S
H740 C725 0.961 . S
H741 C725 0.960 1_556 S
C742 C743 1.379 1_455 S
C742 C744 1.394 . S
C742 H758 0.931 . S
C743 C742 1.379 1_655 S
C743 C747 1.388 . S
C744 C742 1.394 . S
C744 C745 1.369 . S
C744 C748 1.531 . S
C745 C744 1.369 . S
C745 C746 1.410 1_455 S
C745 C753 1.503 . S
C746 C745 1.410 1_655 S
C746 C747 1.392 . S
C746 C749 1.511 . S
C747 C743 1.388 . S
C747 C746 1.392 . S
C747 H759 0.929 . S
C748 C744 1.531 . S
C748 H760 0.960 . S
C748 H761 0.962 . S
C748 H762 0.960 . S
C749 C746 1.511 . S
C749 H763 0.961 . S
C749 H764 0.961 . S
C749 H765 0.961 . S
C750 C751 1.370 . S
C750 C752 1.363 1_455 S
C750 H766 0.931 1_455 S
C751 C750 1.370 . S
C751 C755 1.408 . S
C752 C750 1.363 1_655 S
C752 C753 1.370 1_655 S
C752 C756 1.524 . S
C753 C745 1.503 . S
C753 C752 1.370 1_455 S
C753 C754 1.403 . S
C754 C753 1.403 . S
C754 C755 1.404 . S
C754 C757 1.539 . S
C755 C751 1.408 . S
C755 C754 1.404 . S
C755 H767 0.930 . S
C756 C752 1.524 . S
C756 H768 0.956 . S
C756 H769 0.961 . S
C756 H770 0.961 . S
C757 C754 1.539 . S
C757 H771 0.958 . S
C757 H772 0.961 . S
C757 H773 0.960 . S
H758 C742 0.931 . S
H759 C747 0.929 . S
H760 C748 0.960 . S
H761 C748 0.962 . S
H762 C748 0.960 . S
H763 C749 0.961 . S
H764 C749 0.961 . S
H765 C749 0.961 . S
H766 C750 0.931 1_655 S
H767 C755 0.930 . S
H768 C756 0.956 . S
H769 C756 0.961 . S
H770 C756 0.961 . S
H771 C757 0.958 . S
H772 C757 0.961 . S
H773 C757 0.960 . S
C199 C6 0.450 . S
C207 N187 0.341 . S
C231 C59 1.807 . S
C239 N160 1.809 1_655 S
C263 C86 1.182 . S
C271 N173 1.152 1_565 S
C295 C15 0.725 . S
C303 N186 0.739 . S
C335 N161 1.987 . S
C327 C50 1.988 . S
C367 N174 1.361 . S
C359 C95 1.343 . S
C391 C46 1.074 . S
C399 N134 1.091 . S
C423 C99 2.819 . S
C431 N148 2.790 1_655 S
C455 C10 1.977 . S
C463 N122 2.001 . S
C495 N135 1.414 . S
C487 C55 1.345 . S
C527 N147 3.286 . S
C519 C90 3.234 . S
C551 C19 1.809 . S
C559 N121 1.824 . S
C591 N151 1.746 . S
C583 C18 1.727 . S
C615 C49 1.461 . S
C623 N125 1.482 . S
C647 C98 1.447 . S
C655 N138 1.575 . S
C687 N177 1.543 . S
C679 C58 1.500 . S
C719 N190 1.260 . S
C711 C89 1.261 . S
C743 C9 1.432 1_655 S
C751 N164 1.452 . S
