# Generated by pormake.
# Topology csq, (4,8)-cn, num edge types: 1
# Building blocks:
#     Node 0, Type 0, BuildingBlock: NAHDIM_clean_linker_0, # of connection points: 4
#     Node 1, Type 0, BuildingBlock: NAHDIM_clean_linker_0, # of connection points: 4
#     Node 2, Type 0, BuildingBlock: NAHDIM_clean_linker_0, # of connection points: 4
#     Node 3, Type 0, BuildingBlock: NAHDIM_clean_linker_0, # of connection points: 4
#     Node 4, Type 0, BuildingBlock: NAHDIM_clean_linker_0, # of connection points: 4
#     Node 5, Type 0, BuildingBlock: NAHDIM_clean_linker_0, # of connection points: 4
#     Node 6, Type 1, BuildingBlock: TAGTUT_clean_sbu_3, # of connection points: 8
#     Node 7, Type 1, BuildingBlock: TAGTUT_clean_sbu_3, # of connection points: 8
#     Node 8, Type 1, BuildingBlock: TAGTUT_clean_sbu_3, # of connection points: 8
#     Edge 9, Type (0, 1), BuildingBlock: XUDNAN_clean_linker_2, # of connection points: 2
#     Edge 10, Type (0, 1), BuildingBlock: XUDNAN_clean_linker_2, # of connection points: 2
#     Edge 11, Type (0, 1), BuildingBlock: XUDNAN_clean_linker_2, # of connection points: 2
#     Edge 12, Type (0, 1), BuildingBlock: XUDNAN_clean_linker_2, # of connection points: 2
#     Edge 13, Type (0, 1), BuildingBlock: XUDNAN_clean_linker_2, # of connection points: 2
#     Edge 14, Type (0, 1), BuildingBlock: XUDNAN_clean_linker_2, # of connection points: 2
#     Edge 15, Type (0, 1), BuildingBlock: XUDNAN_clean_linker_2, # of connection points: 2
#     Edge 16, Type (0, 1), BuildingBlock: XUDNAN_clean_linker_2, # of connection points: 2
#     Edge 17, Type (0, 1), BuildingBlock: XUDNAN_clean_linker_2, # of connection points: 2
#     Edge 18, Type (0, 1), BuildingBlock: XUDNAN_clean_linker_2, # of connection points: 2
#     Edge 19, Type (0, 1), BuildingBlock: XUDNAN_clean_linker_2, # of connection points: 2
#     Edge 20, Type (0, 1), BuildingBlock: XUDNAN_clean_linker_2, # of connection points: 2
#     Edge 21, Type (0, 1), BuildingBlock: XUDNAN_clean_linker_2, # of connection points: 2
#     Edge 22, Type (0, 1), BuildingBlock: XUDNAN_clean_linker_2, # of connection points: 2
#     Edge 23, Type (0, 1), BuildingBlock: XUDNAN_clean_linker_2, # of connection points: 2
#     Edge 24, Type (0, 1), BuildingBlock: XUDNAN_clean_linker_2, # of connection points: 2
#     Edge 25, Type (0, 1), BuildingBlock: XUDNAN_clean_linker_2, # of connection points: 2
#     Edge 26, Type (0, 1), BuildingBlock: XUDNAN_clean_linker_2, # of connection points: 2
#     Edge 27, Type (0, 1), BuildingBlock: XUDNAN_clean_linker_2, # of connection points: 2
#     Edge 28, Type (0, 1), BuildingBlock: XUDNAN_clean_linker_2, # of connection points: 2
#     Edge 29, Type (0, 1), BuildingBlock: XUDNAN_clean_linker_2, # of connection points: 2
#     Edge 30, Type (0, 1), BuildingBlock: XUDNAN_clean_linker_2, # of connection points: 2
#     Edge 31, Type (0, 1), BuildingBlock: XUDNAN_clean_linker_2, # of connection points: 2
#     Edge 32, Type (0, 1), BuildingBlock: XUDNAN_clean_linker_2, # of connection points: 2
# Relax obj value: 0.052
# Max RMSD: 0.123
# Mean RMSD: 0.093
data_MOF--net-csq--node1-TAGTUT_clean_sbu_3--node2-NAHDIM_clean_linker_0--edge1-XUDNAN_clean_linker_2
_symmetry_space_group_name_H-M    P1
_symmetry_Int_Tables_number       1
_symmetry_cell_setting            triclinic
loop_
_symmetry_equiv_pos_as_xyz
'x, y, z'
_cell_length_a     68.256937
_cell_length_b     67.454185
_cell_length_c     26.369974
_cell_angle_alpha  92.32019
_cell_angle_beta   92.232827
_cell_angle_gamma 119.92653
loop_
_atom_site_label
_atom_site_type_symbol
_atom_site_fract_x
_atom_site_fract_y
_atom_site_fract_z
_atom_type_partial_charge
C0 C 0.31788 0.50112 0.5029 0.0
C1 C 0.31794 0.49062 0.45046 0.0
C2 C 0.2988 0.49328 0.37234 0.0
C3 C 0.29 0.47058 0.35226 0.0
C4 C 0.27306 0.4614 0.31224 0.0
C5 C 0.26529 0.47539 0.29112 0.0
C6 C 0.27518 0.49864 0.30919 0.0
C7 C 0.29182 0.50725 0.34964 0.0
C8 C 0.26304 0.43659 0.29343 0.0
C9 C 0.2676 0.51421 0.28714 0.0
C10 C 0.14086 0.44465 0.44732 0.0
C11 C 0.14202 0.45663 0.39851 0.0
C12 C 0.14958 0.44198 0.32136 0.0
C13 C 0.16267 0.46232 0.29771 0.0
C14 C 0.17978 0.46455 0.26675 0.0
C15 C 0.18389 0.44606 0.25981 0.0
C16 C 0.16951 0.42491 0.28046 0.0
C17 C 0.15227 0.42306 0.31073 0.0
C18 C 0.19428 0.4871 0.24385 0.0
C19 C 0.1732 0.40476 0.27293 0.0
C20 C 0.14951 0.40806 0.9371 0.0
C21 C 0.16104 0.43177 0.94954 0.0
C22 C 0.18257 0.4427 0.97541 0.0
C23 C 0.19251 0.4295 0.98977 0.0
C24 C 0.18153 0.40586 0.97419 0.0
C25 C 0.16023 0.3955 0.94733 0.0
C26 C 0.19419 0.4681 0.98962 0.0
C27 C 0.19174 0.39132 0.98825 0.0
C28 C 0.37358 0.5055 0.06056 0.0
C29 C 0.35863 0.4854 0.02184 0.0
C30 C 0.32155 0.48105 0.99996 0.0
C31 C 0.31213 0.49525 0.99808 0.0
C32 C 0.28946 0.48707 0.00866 0.0
C33 C 0.27589 0.46399 0.02055 0.0
C34 C 0.28484 0.44907 0.0185 0.0
C35 C 0.3076 0.45774 0.00803 0.0
C36 C 0.28034 0.50335 0.00977 0.0
C37 C 0.27064 0.42423 0.02966 0.0
C38 C 0.24562 0.46533 0.25313 0.0
C39 C 0.22442 0.45887 0.27097 0.0
C40 C 0.2051 0.45008 0.2377 0.0
C41 C 0.20671 0.44692 0.18511 0.0
C42 C 0.18749 0.43744 0.15086 0.0
C43 C 0.18934 0.43469 0.09903 0.0
C44 C 0.21058 0.4418 0.07932 0.0
C45 C 0.21271 0.43966 0.02646 0.0
C46 C 0.2341 0.44697 0.00818 0.0
C47 C 0.25352 0.45634 0.04155 0.0
C48 C 0.25168 0.45851 0.09451 0.0
C49 C 0.27088 0.46786 0.12912 0.0
C50 C 0.26895 0.47003 0.18108 0.0
C51 C 0.24776 0.46299 0.20048 0.0
C52 C 0.22818 0.45361 0.16637 0.0
C53 C 0.23014 0.45127 0.11335 0.0
C54 C 0.09095 0.37837 0.94657 0.0
C55 C 0.11081 0.40078 0.93105 0.0
O56 O 0.31386 0.50239 0.41354 0.0
O57 O 0.34409 0.49037 0.99419 0.0
O58 O 0.12789 0.39678 0.91633 0.0
O59 O 0.13537 0.44083 0.35701 0.0
H60 H 0.30413 0.4724 0.449 0.0
H61 H 0.30109 0.49961 0.50763 0.0
H62 H 0.33108 0.51957 0.50739 0.0
H63 H 0.32106 0.49194 0.53332 0.0
H64 H 0.29611 0.4599 0.36779 0.0
H65 H 0.29901 0.52485 0.36481 0.0
H66 H 0.24447 0.42727 0.29743 0.0
H67 H 0.27064 0.42785 0.31449 0.0
H68 H 0.26571 0.43547 0.2524 0.0
H69 H 0.27954 0.53254 0.29898 0.0
H70 H 0.25072 0.50959 0.30051 0.0
H71 H 0.26592 0.512 0.24494 0.0
H72 H 0.16007 0.47037 0.39709 0.0
H73 H 0.14583 0.45696 0.48114 0.0
H74 H 0.15274 0.4379 0.44665 0.0
H75 H 0.12351 0.43007 0.45099 0.0
H76 H 0.16 0.4767 0.30505 0.0
H77 H 0.14178 0.40732 0.32874 0.0
H78 H 0.19589 0.48413 0.20288 0.0
H79 H 0.21155 0.49573 0.26311 0.0
H80 H 0.18726 0.49877 0.24781 0.0
H81 H 0.15929 0.38891 0.28722 0.0
H82 H 0.18941 0.40877 0.29342 0.0
H83 H 0.17455 0.40154 0.23195 0.0
H84 H 0.11669 0.41304 0.96536 0.0
H85 H 0.15304 0.44165 0.93981 0.0
H86 H 0.15131 0.37726 0.93661 0.0
H87 H 0.19297 0.47093 0.03087 0.0
H88 H 0.18635 0.47652 0.96817 0.0
H89 H 0.21244 0.47645 0.98238 0.0
H90 H 0.18117 0.37323 0.97277 0.0
H91 H 0.19379 0.3916 0.03031 0.0
H92 H 0.20885 0.39854 0.97359 0.0
H93 H 0.34913 0.47043 0.04494 0.0
H94 H 0.38657 0.50265 0.08022 0.0
H95 H 0.36293 0.50695 0.08963 0.0
H96 H 0.38211 0.52198 0.04206 0.0
H97 H 0.32291 0.51309 0.99062 0.0
H98 H 0.31451 0.44636 0.00678 0.0
H99 H 0.27683 0.50615 0.04939 0.0
H100 H 0.26409 0.49576 0.98619 0.0
H101 H 0.2924 0.52022 0.99567 0.0
H102 H 0.27933 0.41433 0.02174 0.0
H103 H 0.25424 0.41615 0.00651 0.0
H104 H 0.2668 0.42313 0.07032 0.0
H105 H 0.22302 0.46125 0.31136 0.0
H106 H 0.17079 0.43193 0.16384 0.0
H107 H 0.17388 0.42708 0.07465 0.0
H108 H 0.23563 0.44534 0.96764 0.0
H109 H 0.28768 0.47364 0.11652 0.0
H110 H 0.2843 0.47739 0.20586 0.0
H111 H 0.07705 0.38118 0.95862 0.0
H112 H 0.09662 0.37205 0.97907 0.0
H113 H 0.08434 0.36499 0.91451 0.0
C114 C 0.89668 0.33658 0.42643 0.0
C115 C 0.88269 0.3148 0.39505 0.0
C116 C 0.85686 0.30008 0.31919 0.0
C117 C 0.86109 0.28255 0.30333 0.0
C118 C 0.84623 0.265 0.26733 0.0
C119 C 0.8263 0.26455 0.24829 0.0
C120 C 0.82203 0.28226 0.26437 0.0
C121 C 0.83778 0.30017 0.29851 0.0
C122 C 0.85172 0.24678 0.25032 0.0
C123 C 0.8006 0.28207 0.24677 0.0
C124 C 0.73208 0.10259 0.38356 0.0
C125 C 0.72725 0.11967 0.35738 0.0
C126 C 0.74522 0.14195 0.28534 0.0
C127 C 0.73938 0.15903 0.29296 0.0
C128 C 0.75023 0.17939 0.26783 0.0
C129 C 0.76754 0.18286 0.23531 0.0
C130 C 0.77348 0.16567 0.22785 0.0
C131 C 0.76184 0.1452 0.25217 0.0
C132 C 0.74316 0.19714 0.27589 0.0
C133 C 0.79226 0.16895 0.19461 0.0
C134 C 0.70494 0.14653 0.93896 0.0
C135 C 0.70193 0.16495 0.95426 0.0
C136 C 0.72063 0.18642 0.97028 0.0
C137 C 0.74272 0.18952 0.97019 0.0
C138 C 0.74586 0.17166 0.94977 0.0
C139 C 0.72684 0.15034 0.93417 0.0
C140 C 0.71671 0.20534 0.99028 0.0
C141 C 0.7692 0.17457 0.94799 0.0
C142 C 0.8526 0.3655 0.97683 0.0
C143 C 0.8586 0.3528 0.93642 0.0
C144 C 0.82777 0.31353 0.93513 0.0
C145 C 0.80546 0.30522 0.94767 0.0
C146 C 0.79357 0.28431 0.97029 0.0
C147 C 0.80407 0.27104 0.97869 0.0
C148 C 0.82633 0.27891 0.9635 0.0
C149 C 0.83808 0.30029 0.9425 0.0
C150 C 0.76985 0.27656 0.9855 0.0
C151 C 0.83775 0.26484 0.96972 0.0
C152 C 0.80916 0.24464 0.21493 0.0
C153 C 0.79636 0.22396 0.23749 0.0
C154 C 0.77955 0.20449 0.20927 0.0
C155 C 0.7749 0.20568 0.15718 0.0
C156 C 0.75744 0.18667 0.1283 0.0
C157 C 0.75314 0.18785 0.07698 0.0
C158 C 0.7661 0.20813 0.05239 0.0
C159 C 0.76168 0.20943 0.00016 0.0
C160 C 0.77466 0.22988 0.97689 0.0
C161 C 0.79195 0.24935 0.00474 0.0
C162 C 0.79663 0.24831 0.05713 0.0
C163 C 0.81377 0.2675 0.08653 0.0
C164 C 0.81822 0.26624 0.13794 0.0
C165 C 0.80529 0.24596 0.16236 0.0
C166 C 0.78797 0.22642 0.1335 0.0
C167 C 0.78365 0.2276 0.08089 0.0
C168 C 0.66863 0.09713 0.98967 0.0
C169 C 0.66779 0.11468 0.95593 0.0
O170 O 0.87079 0.31716 0.3542 0.0
O171 O 0.83884 0.33411 0.91466 0.0
O172 O 0.68721 0.12489 0.92922 0.0
O173 O 0.73512 0.12212 0.30911 0.0
H174 H 0.8722 0.29942 0.41643 0.0
H175 H 0.88907 0.33334 0.4645 0.0
H176 H 0.89029 0.34851 0.41592 0.0
H177 H 0.93069 0.34434 0.41711 0.0
H178 H 0.87607 0.28259 0.31854 0.0
H179 H 0.83479 0.3139 0.3109 0.0
H180 H 0.84088 0.23083 0.26925 0.0
H181 H 0.86972 0.25209 0.26022 0.0
H182 H 0.84818 0.24276 0.20858 0.0
H183 H 0.79787 0.2944 0.2703 0.0
H184 H 0.78561 0.26467 0.24814 0.0
H185 H 0.8017 0.28686 0.20682 0.0
H186 H 0.73679 0.13633 0.38058 0.0
H187 H 0.72668 0.10078 0.42314 0.0
H188 H 0.75055 0.10879 0.38517 0.0
H189 H 0.72297 0.0855 0.36226 0.0
H190 H 0.72616 0.15635 0.3179 0.0
H191 H 0.76612 0.13184 0.24648 0.0
H192 H 0.75716 0.21265 0.29705 0.0
H193 H 0.72779 0.19079 0.29773 0.0
H194 H 0.73976 0.20237 0.23866 0.0
H195 H 0.79694 0.15548 0.19871 0.0
H196 H 0.80756 0.18599 0.20415 0.0
H197 H 0.78673 0.16834 0.15417 0.0
H198 H 0.66674 0.12736 0.98227 0.0
H199 H 0.68502 0.16251 0.95485 0.0
H200 H 0.729 0.13618 0.92084 0.0
H201 H 0.72167 0.20899 0.03167 0.0
H202 H 0.69872 0.20083 0.98419 0.0
H203 H 0.7275 0.22127 0.97128 0.0
H204 H 0.76909 0.16052 0.92426 0.0
H205 H 0.77582 0.17467 0.98719 0.0
H206 H 0.78099 0.19124 0.93271 0.0
H207 H 0.86956 0.34695 0.95513 0.0
H208 H 0.86819 0.38033 0.99557 0.0
H209 H 0.84323 0.35379 0.00659 0.0
H210 H 0.84177 0.37173 0.95936 0.0
H211 H 0.79761 0.31552 0.94094 0.0
H212 H 0.85518 0.30658 0.93124 0.0
H213 H 0.7679 0.27099 0.02495 0.0
H214 H 0.75762 0.26165 0.95981 0.0
H215 H 0.76542 0.29027 0.98307 0.0
H216 H 0.85328 0.27142 0.94839 0.0
H217 H 0.82595 0.24665 0.95643 0.0
H218 H 0.84259 0.26528 0.01058 0.0
H219 H 0.79959 0.22298 0.27768 0.0
H220 H 0.74682 0.17063 0.14507 0.0
H221 H 0.73944 0.17257 0.05696 0.0
H222 H 0.77097 0.23078 0.93694 0.0
H223 H 0.82403 0.28371 0.07015 0.0
H224 H 0.83183 0.28145 0.15842 0.0
H225 H 0.67096 0.08431 0.96698 0.0
H226 H 0.65277 0.0881 0.00971 0.0
H227 H 0.6831 0.10606 0.0187 0.0
C228 C 0.51418 0.81471 0.37074 0.0
C229 C 0.52684 0.83553 0.33937 0.0
C230 C 0.52761 0.81958 0.25482 0.0
C231 C 0.55088 0.82789 0.2518 0.0
C232 C 0.55863 0.81741 0.21717 0.0
C233 C 0.54278 0.79818 0.18515 0.0
C234 C 0.51935 0.79026 0.18705 0.0
C235 C 0.5121 0.80134 0.22138 0.0
C236 C 0.58377 0.82664 0.21538 0.0
C237 C 0.50195 0.76972 0.15382 0.0
C238 C 0.58586 0.66391 0.24203 0.0
C239 C 0.56682 0.66956 0.24529 0.0
C240 C 0.57255 0.70778 0.22989 0.0
C241 C 0.55191 0.70087 0.20217 0.0
C242 C 0.54856 0.71672 0.17574 0.0
C243 C 0.56611 0.73991 0.17748 0.0
C244 C 0.58669 0.74698 0.20634 0.0
C245 C 0.58955 0.73081 0.23247 0.0
C246 C 0.52623 0.70875 0.14613 0.0
C247 C 0.60565 0.7716 0.20947 0.0
C248 C 0.60681 0.73594 0.85553 0.0
C249 C 0.58423 0.72392 0.86833 0.0
C250 C 0.57478 0.73518 0.89514 0.0
C251 C 0.58857 0.75873 0.91125 0.0
C252 C 0.61133 0.77088 0.89774 0.0
C253 C 0.61999 0.75937 0.86904 0.0
C254 C 0.55011 0.72184 0.90622 0.0
C255 C 0.62665 0.79594 0.91408 0.0
C256 C 0.5456 0.88413 0.89158 0.0
C257 C 0.55709 0.88214 0.84421 0.0
C258 C 0.55446 0.84518 0.85906 0.0
C259 C 0.53912 0.82164 0.85328 0.0
C260 C 0.54234 0.8062 0.88162 0.0
C261 C 0.56182 0.81452 0.9155 0.0
C262 C 0.57782 0.83828 0.92037 0.0
C263 C 0.57382 0.85341 0.89267 0.0
C264 C 0.5249 0.78099 0.87531 0.0
C265 C 0.59929 0.8477 0.95443 0.0
C266 C 0.55065 0.78525 0.1531 0.0
C267 C 0.55462 0.76927 0.17662 0.0
C268 C 0.56274 0.75685 0.14995 0.0
C269 C 0.56733 0.76056 0.0983 0.0
C270 C 0.57642 0.74906 0.07097 0.0
C271 C 0.58071 0.75267 0.02004 0.0
C272 C 0.5756 0.76752 0.9941 0.0
C273 C 0.57924 0.77074 0.94184 0.0
C274 C 0.57432 0.78595 0.91763 0.0
C275 C 0.56596 0.79824 0.94402 0.0
C276 C 0.56202 0.79511 0.99619 0.0
C277 C 0.55346 0.80704 0.02399 0.0
C278 C 0.54997 0.80407 0.07551 0.0
C279 C 0.5544 0.78865 0.10093 0.0
C280 C 0.56282 0.77627 0.0735 0.0
C281 C 0.56679 0.77962 0.0212 0.0
C282 C 0.63888 0.70809 0.84452 0.0
C283 C 0.61519 0.7052 0.84446 0.0
O284 O 0.51956 0.82914 0.28836 0.0
O285 O 0.54992 0.85925 0.83158 0.0
O286 O 0.61628 0.72526 0.83032 0.0
O287 O 0.57664 0.69304 0.25558 0.0
H288 H 0.54528 0.84186 0.34534 0.0
H289 H 0.5177 0.80097 0.35795 0.0
H290 H 0.49561 0.80791 0.36605 0.0
H291 H 0.51986 0.81944 0.4117 0.0
H292 H 0.56305 0.8427 0.27588 0.0
H293 H 0.49419 0.79534 0.22343 0.0
H294 H 0.58808 0.81409 0.23064 0.0
H295 H 0.59395 0.84326 0.23807 0.0
H296 H 0.58864 0.82896 0.17543 0.0
H297 H 0.48434 0.76547 0.16047 0.0
H298 H 0.50374 0.75458 0.16122 0.0
H299 H 0.50489 0.77307 0.11317 0.0
H300 H 0.55705 0.66397 0.20767 0.0
H301 H 0.57886 0.64534 0.23187 0.0
H302 H 0.59608 0.66862 0.27895 0.0
H303 H 0.5972 0.67369 0.21217 0.0
H304 H 0.53827 0.68327 0.20169 0.0
H305 H 0.60527 0.73602 0.25463 0.0
H306 H 0.52913 0.71184 0.10535 0.0
H307 H 0.51845 0.71882 0.16007 0.0
H308 H 0.5141 0.69024 0.14933 0.0
H309 H 0.62102 0.77412 0.23152 0.0
H310 H 0.59987 0.78271 0.22786 0.0
H311 H 0.61022 0.77731 0.1706 0.0
H312 H 0.60993 0.70202 0.88424 0.0
H313 H 0.57395 0.70583 0.85676 0.0
H314 H 0.63738 0.76847 0.85849 0.0
H315 H 0.54875 0.71778 0.94672 0.0
H316 H 0.54078 0.70544 0.88236 0.0
H317 H 0.54175 0.73212 0.8996 0.0
H318 H 0.64463 0.80194 0.90697 0.0
H319 H 0.6255 0.79916 0.9552 0.0
H320 H 0.62113 0.80634 0.89264 0.0
H321 H 0.57578 0.89195 0.85201 0.0
H322 H 0.55124 0.90235 0.90263 0.0
H323 H 0.55009 0.87698 0.92431 0.0
H324 H 0.52688 0.87454 0.88417 0.0
H325 H 0.52431 0.81543 0.82708 0.0
H326 H 0.58609 0.87152 0.89698 0.0
H327 H 0.52003 0.77401 0.9131 0.0
H328 H 0.53229 0.77157 0.85598 0.0
H329 H 0.50942 0.77765 0.85242 0.0
H330 H 0.61125 0.86608 0.94932 0.0
H331 H 0.60797 0.83779 0.94664 0.0
H332 H 0.59504 0.84595 0.99479 0.0
H333 H 0.55141 0.76649 0.21644 0.0
H334 H 0.58042 0.73721 0.08874 0.0
H335 H 0.58794 0.74351 0.00117 0.0
H336 H 0.57723 0.78841 0.87761 0.0
H337 H 0.54947 0.81891 0.00624 0.0
H338 H 0.54356 0.81385 0.09511 0.0
H339 H 0.63849 0.69228 0.85639 0.0
H340 H 0.65066 0.72259 0.87182 0.0
H341 H 0.64547 0.71176 0.8061 0.0
C342 C 0.87074 0.59032 0.41738 0.0
C343 C 0.86735 0.57999 0.36275 0.0
C344 C 0.85864 0.59487 0.28748 0.0
C345 C 0.84348 0.57356 0.26193 0.0
C346 C 0.82814 0.57181 0.22269 0.0
C347 C 0.82848 0.59188 0.20774 0.0
C348 C 0.84487 0.61354 0.23081 0.0
C349 C 0.85982 0.61474 0.27044 0.0
C350 C 0.81101 0.54841 0.19863 0.0
C351 C 0.84599 0.63529 0.21494 0.0
C352 C 0.67192 0.57469 0.32409 0.0
C353 C 0.69569 0.58416 0.31056 0.0
C354 C 0.71577 0.57453 0.24736 0.0
C355 C 0.73403 0.59684 0.24432 0.0
C356 C 0.75222 0.60081 0.21491 0.0
C357 C 0.7524 0.58202 0.18934 0.0
C358 C 0.73406 0.5595 0.19295 0.0
C359 C 0.71578 0.55619 0.221 0.0
C360 C 0.7714 0.62505 0.21184 0.0
C361 C 0.73389 0.53877 0.16845 0.0
C362 C 0.71032 0.55293 0.85737 0.0
C363 C 0.72836 0.57541 0.86509 0.0
C364 C 0.74819 0.58053 0.89407 0.0
C365 C 0.74988 0.56264 0.91611 0.0
C366 C 0.73187 0.53973 0.90753 0.0
C367 C 0.71228 0.53507 0.87802 0.0
C368 C 0.76714 0.60511 0.90205 0.0
C369 C 0.73321 0.52024 0.93034 0.0
C370 C 0.9045 0.56527 0.96184 0.0
C371 C 0.88776 0.5482 0.91983 0.0
C372 C 0.85987 0.56045 0.90592 0.0
C373 C 0.86019 0.58101 0.8986 0.0
C374 C 0.84265 0.58446 0.91453 0.0
C375 C 0.82421 0.56667 0.93742 0.0
C376 C 0.82313 0.54532 0.94207 0.0
C377 C 0.84097 0.54242 0.92619 0.0
C378 C 0.84418 0.60732 0.90859 0.0
C379 C 0.80336 0.52574 0.96495 0.0
C380 C 0.8102 0.58993 0.17203 0.0
C381 C 0.79153 0.58934 0.19327 0.0
C382 C 0.7726 0.58553 0.1629 0.0
C383 C 0.77239 0.58263 0.10941 0.0
C384 C 0.75384 0.5792 0.07748 0.0
C385 C 0.75312 0.57473 0.02523 0.0
C386 C 0.77101 0.57367 0.00291 0.0
C387 C 0.76998 0.56802 0.95022 0.0
C388 C 0.78783 0.56656 0.92954 0.0
C389 C 0.80689 0.57078 0.96016 0.0
C390 C 0.80847 0.57702 0.01264 0.0
C391 C 0.82764 0.58184 0.04428 0.0
C392 C 0.82851 0.58668 0.09635 0.0
C393 C 0.81016 0.58662 0.11881 0.0
C394 C 0.79106 0.58271 0.08743 0.0
C395 C 0.79028 0.57804 0.0342 0.0
C396 C 0.65195 0.53211 0.80556 0.0
C397 C 0.67122 0.52876 0.82062 0.0
O398 O 0.87193 0.59686 0.32927 0.0
O399 O 0.87788 0.55851 0.89246 0.0
O400 O 0.69132 0.54939 0.83053 0.0
O401 O 0.69774 0.56975 0.27487 0.0
H402 H 0.84921 0.56626 0.35809 0.0
H403 H 0.8583 0.59611 0.42333 0.0
H404 H 0.88802 0.60535 0.42527 0.0
H405 H 0.86799 0.57727 0.44493 0.0
H406 H 0.84325 0.55819 0.27311 0.0
H407 H 0.87191 0.63115 0.28968 0.0
H408 H 0.79359 0.54537 0.20228 0.0
H409 H 0.81237 0.53441 0.21622 0.0
H410 H 0.8135 0.54756 0.15744 0.0
H411 H 0.86148 0.65087 0.2317 0.0
H412 H 0.83093 0.63586 0.22748 0.0
H413 H 0.84562 0.63558 0.17283 0.0
H414 H 0.70878 0.59059 0.34302 0.0
H415 H 0.6723 0.5714 0.36559 0.0
H416 H 0.66249 0.5559 0.31104 0.0
H417 H 0.66247 0.59837 0.29658 0.0
H418 H 0.73417 0.61119 0.26459 0.0
H419 H 0.70157 0.53905 0.22367 0.0
H420 H 0.77631 0.62823 0.17203 0.0
H421 H 0.7864 0.62757 0.23543 0.0
H422 H 0.76688 0.63791 0.22582 0.0
H423 H 0.72062 0.52252 0.1828 0.0
H424 H 0.75059 0.53992 0.17549 0.0
H425 H 0.7305 0.53795 0.12672 0.0
H426 H 0.67302 0.51591 0.79641 0.0
H427 H 0.72671 0.58905 0.84878 0.0
H428 H 0.69851 0.51754 0.87173 0.0
H429 H 0.76935 0.61085 0.94297 0.0
H430 H 0.76383 0.61684 0.87958 0.0
H431 H 0.78331 0.60646 0.89123 0.0
H432 H 0.71766 0.50341 0.92066 0.0
H433 H 0.73586 0.52331 0.97238 0.0
H434 H 0.74798 0.51948 0.91641 0.0
H435 H 0.87478 0.53312 0.93833 0.0
H436 H 0.91282 0.55735 0.98345 0.0
H437 H 0.89537 0.5703 0.98877 0.0
H438 H 0.91771 0.58097 0.94548 0.0
H439 H 0.87465 0.59466 0.88194 0.0
H440 H 0.83992 0.52599 0.92941 0.0
H441 H 0.84496 0.61543 0.94668 0.0
H442 H 0.82873 0.60478 0.88691 0.0
H443 H 0.8593 0.61919 0.88868 0.0
H444 H 0.80403 0.50962 0.96164 0.0
H445 H 0.78717 0.52261 0.94593 0.0
H446 H 0.80334 0.53032 0.00585 0.0
H447 H 0.79135 0.59097 0.23437 0.0
H448 H 0.73953 0.57961 0.0927 0.0
H449 H 0.7382 0.5718 0.00268 0.0
H450 H 0.78665 0.56162 0.88938 0.0
H451 H 0.84212 0.58173 0.02923 0.0
H452 H 0.84359 0.59006 0.11895 0.0
H453 H 0.6594 0.55035 0.79448 0.0
H454 H 0.62985 0.51917 0.86612 0.0
H455 H 0.64675 0.52452 0.76514 0.0
C456 C 0.28426 0.84677 0.76925 0.0
C457 C 0.29119 0.86683 0.80865 0.0
C458 C 0.28184 0.8494 0.88944 0.0
C459 C 0.26611 0.8554 0.90599 0.0
C460 C 0.24999 0.84204 0.93975 0.0
C461 C 0.24961 0.82226 0.957 0.0
C462 C 0.266 0.81665 0.94166 0.0
C463 C 0.28218 0.83057 0.90859 0.0
C464 C 0.2331 0.84882 0.95633 0.0
C465 C 0.26603 0.79563 0.95912 0.0
C466 C 0.1399 0.7332 0.75321 0.0
C467 C 0.13407 0.71512 0.79219 0.0
C468 C 0.13971 0.7319 0.87818 0.0
C469 C 0.1536 0.72439 0.90068 0.0
C470 C 0.16966 0.73765 0.94058 0.0
C471 C 0.1716 0.75865 0.9585 0.0
C472 C 0.15611 0.76509 0.93912 0.0
C473 C 0.14018 0.75147 0.89922 0.0
C474 C 0.18556 0.72999 0.96122 0.0
C475 C 0.15742 0.78712 0.95819 0.0
C476 C 0.14705 0.7356 0.29372 0.0
C477 C 0.15992 0.72701 0.2716 0.0
C478 C 0.17819 0.74087 0.24283 0.0
C479 C 0.18352 0.76369 0.23591 0.0
C480 C 0.17089 0.77252 0.2593 0.0
C481 C 0.15296 0.75839 0.28851 0.0
C482 C 0.19178 0.73116 0.21983 0.0
C483 C 0.1762 0.79681 0.25307 0.0
C484 C 0.34626 0.89283 0.19911 0.0
C485 C 0.34277 0.89427 0.25595 0.0
C486 C 0.30883 0.85703 0.263 0.0
C487 C 0.30229 0.83385 0.25621 0.0
C488 C 0.27995 0.81738 0.23966 0.0
C489 C 0.26378 0.82435 0.23081 0.0
C490 C 0.26981 0.84745 0.24218 0.0
C491 C 0.29233 0.86361 0.25795 0.0
C492 C 0.27392 0.79278 0.22884 0.0
C493 C 0.25271 0.85525 0.23506 0.0
C494 C 0.23119 0.80672 0.98837 0.0
C495 C 0.21054 0.79085 0.96306 0.0
C496 C 0.19225 0.77563 0.9896 0.0
C497 C 0.1944 0.77633 0.04325 0.0
C498 C 0.17619 0.76169 0.07132 0.0
C499 C 0.17866 0.76247 0.12422 0.0
C500 C 0.19953 0.7777 0.15089 0.0
C501 C 0.2024 0.77842 0.20457 0.0
C502 C 0.22347 0.79366 0.22968 0.0
C503 C 0.2418 0.80844 0.20263 0.0
C504 C 0.2392 0.80819 0.14912 0.0
C505 C 0.25729 0.82313 0.12092 0.0
C506 C 0.25462 0.82289 0.0684 0.0
C507 C 0.23391 0.8074 0.04186 0.0
C508 C 0.21543 0.79216 0.06942 0.0
C509 C 0.21805 0.79268 0.12319 0.0
C510 C 0.09013 0.69841 0.2957 0.0
C511 C 0.11286 0.6998 0.30836 0.0
O512 O 0.29691 0.86153 0.85519 0.0
O513 O 0.33118 0.87247 0.27345 0.0
O514 O 0.12912 0.7225 0.32107 0.0
O515 O 0.1265 0.72114 0.83498 0.0
H516 H 0.2766 0.86975 0.81155 0.0
H517 H 0.26927 0.83116 0.78127 0.0
H518 H 0.29833 0.84311 0.76532 0.0
H519 H 0.27968 0.85075 0.73164 0.0
H520 H 0.26646 0.87054 0.8927 0.0
H521 H 0.29467 0.82634 0.89603 0.0
H522 H 0.21594 0.83597 0.93971 0.0
H523 H 0.23719 0.86596 0.94411 0.0
H524 H 0.23257 0.84898 0.99838 0.0
H525 H 0.27938 0.79318 0.94214 0.0
H526 H 0.24928 0.78015 0.94876 0.0
H527 H 0.26885 0.7971 0.00116 0.0
H528 H 0.15014 0.71513 0.8014 0.0
H529 H 0.14402 0.7276 0.71692 0.0
H530 H 0.15495 0.7496 0.76822 0.0
H531 H 0.12573 0.73655 0.74573 0.0
H532 H 0.15241 0.70859 0.88585 0.0
H533 H 0.12898 0.75681 0.88225 0.0
H534 H 0.18598 0.73061 0.0034 0.0
H535 H 0.203 0.74188 0.95043 0.0
H536 H 0.18057 0.71232 0.94648 0.0
H537 H 0.14215 0.78792 0.94528 0.0
H538 H 0.17253 0.80184 0.94382 0.0
H539 H 0.15938 0.78902 0.00041 0.0
H540 H 0.11702 0.69306 0.27365 0.0
H541 H 0.15591 0.7096 0.27735 0.0
H542 H 0.1431 0.76491 0.30645 0.0
H543 H 0.18968 0.73035 0.17771 0.0
H544 H 0.18651 0.71367 0.23173 0.0
H545 H 0.21008 0.74258 0.23107 0.0
H546 H 0.16382 0.80058 0.27087 0.0
H547 H 0.17626 0.79994 0.21203 0.0
H548 H 0.19339 0.80895 0.27077 0.0
H549 H 0.33295 0.90321 0.26068 0.0
H550 H 0.35657 0.91031 0.18571 0.0
H551 H 0.32961 0.88424 0.17691 0.0
H552 H 0.35487 0.88284 0.19146 0.0
H553 H 0.31504 0.82887 0.26135 0.0
H554 H 0.29685 0.88129 0.26571 0.0
H555 H 0.2697 0.78805 0.18742 0.0
H556 H 0.25869 0.78125 0.24882 0.0
H557 H 0.28799 0.78982 0.24087 0.0
H558 H 0.25909 0.87285 0.25244 0.0
H559 H 0.2367 0.84329 0.25205 0.0
H560 H 0.24872 0.85509 0.19377 0.0
H561 H 0.20873 0.79019 0.92183 0.0
H562 H 0.15983 0.74954 0.05262 0.0
H563 H 0.16404 0.75087 0.14391 0.0
H564 H 0.22559 0.7941 0.27078 0.0
H565 H 0.27377 0.83526 0.13905 0.0
H566 H 0.26908 0.83488 0.04879 0.0
H567 H 0.07679 0.6804 0.28477 0.0
H568 H 0.09161 0.70895 0.26322 0.0
H569 H 0.08492 0.70494 0.32888 0.0
C570 C 0.38298 0.28557 0.49057 0.0
C571 C 0.40295 0.29427 0.45673 0.0
C572 C 0.40649 0.27784 0.37507 0.0
C573 C 0.43025 0.2887 0.37784 0.0
C574 C 0.44136 0.28147 0.34443 0.0
C575 C 0.42844 0.26286 0.30804 0.0
C576 C 0.40454 0.25266 0.30371 0.0
C577 C 0.39395 0.26059 0.33683 0.0
C578 C 0.46687 0.2931 0.34943 0.0
C579 C 0.39006 0.23251 0.26612 0.0
C580 C 0.46201 0.13874 0.47304 0.0
C581 C 0.45344 0.15245 0.44783 0.0
C582 C 0.46361 0.18005 0.38281 0.0
C583 C 0.44143 0.17465 0.36763 0.0
C584 C 0.43753 0.18842 0.33501 0.0
C585 C 0.45617 0.20848 0.31871 0.0
C586 C 0.47853 0.21418 0.33474 0.0
C587 C 0.48191 0.19952 0.36553 0.0
C588 C 0.41343 0.1815 0.31814 0.0
C589 C 0.49887 0.23585 0.31997 0.0
C590 C 0.48637 0.18305 0.00556 0.0
C591 C 0.46344 0.17461 0.0147 0.0
C592 C 0.45617 0.18919 0.03515 0.0
C593 C 0.4722 0.21252 0.04827 0.0
C594 C 0.49517 0.22118 0.0382 0.0
C595 C 0.50187 0.20634 0.01642 0.0
C596 C 0.43138 0.17951 0.04383 0.0
C597 C 0.51272 0.24597 0.05155 0.0
C598 C 0.43475 0.3448 0.96922 0.0
C599 C 0.45228 0.33929 0.94841 0.0
C600 C 0.44602 0.30208 0.97295 0.0
C601 C 0.42775 0.28033 0.97966 0.0
C602 C 0.43004 0.26554 0.01225 0.0
C603 C 0.45127 0.27267 0.03829 0.0
C604 C 0.46996 0.2945 0.0309 0.0
C605 C 0.4672 0.3089 0.99797 0.0
C606 C 0.40987 0.24223 0.0186 0.0
C607 C 0.49295 0.30244 0.05724 0.0
C608 C 0.43936 0.25154 0.28106 0.0
C609 C 0.44419 0.23718 0.3091 0.0
C610 C 0.45217 0.22379 0.28627 0.0
C611 C 0.45547 0.22465 0.23365 0.0
C612 C 0.4626 0.21072 0.20902 0.0
C613 C 0.46604 0.21182 0.15741 0.0
C614 C 0.46207 0.22659 0.12809 0.0
C615 C 0.46515 0.22746 0.07535 0.0
C616 C 0.46132 0.24251 0.04742 0.0
C617 C 0.45435 0.25677 0.07064 0.0
C618 C 0.4508 0.25587 0.12329 0.0
C619 C 0.44344 0.26965 0.1479 0.0
C620 C 0.43973 0.26836 0.19964 0.0
C621 C 0.44342 0.25336 0.22874 0.0
C622 C 0.45132 0.23968 0.2049 0.0
C623 C 0.45475 0.24073 0.15206 0.0
C624 C 0.48325 0.13661 0.03453 0.0
C625 C 0.48315 0.14569 0.98203 0.0
O626 O 0.39498 0.28324 0.40863 0.0
O627 O 0.44276 0.31571 0.94113 0.0
O628 O 0.49439 0.16948 0.98711 0.0
O629 O 0.46801 0.16694 0.41378 0.0
H630 H 0.4152 0.28968 0.47396 0.0
H631 H 0.37483 0.26667 0.49186 0.0
H632 H 0.37015 0.28977 0.47542 0.0
H633 H 0.38883 0.29341 0.53004 0.0
H634 H 0.44018 0.30259 0.40635 0.0
H635 H 0.37564 0.25257 0.33457 0.0
H636 H 0.47196 0.28194 0.36897 0.0
H637 H 0.47457 0.30988 0.37184 0.0
H638 H 0.47379 0.29582 0.31129 0.0
H639 H 0.37167 0.22596 0.26904 0.0
H640 H 0.39353 0.21835 0.27255 0.0
H641 H 0.39435 0.23763 0.22682 0.0
H642 H 0.44676 0.16096 0.4734 0.0
H643 H 0.43813 0.10418 0.44657 0.0
H644 H 0.4649 0.14489 0.51448 0.0
H645 H 0.48065 0.14707 0.46663 0.0
H646 H 0.42709 0.15956 0.38051 0.0
H647 H 0.49895 0.20354 0.37748 0.0
H648 H 0.41183 0.18309 0.27663 0.0
H649 H 0.40866 0.19312 0.33812 0.0
H650 H 0.40123 0.16362 0.32673 0.0
H651 H 0.51455 0.23982 0.3429 0.0
H652 H 0.49604 0.25065 0.32479 0.0
H653 H 0.50157 0.23385 0.27931 0.0
H654 H 0.46531 0.1387 0.96728 0.0
H655 H 0.45104 0.15671 0.00647 0.0
H656 H 0.51947 0.21277 0.00899 0.0
H657 H 0.42901 0.17813 0.08519 0.0
H658 H 0.42063 0.16221 0.02421 0.0
H659 H 0.42543 0.1911 0.03023 0.0
H660 H 0.5301 0.24973 0.04394 0.0
H661 H 0.51244 0.25048 0.09239 0.0
H662 H 0.50863 0.25713 0.02897 0.0
H663 H 0.46658 0.34673 0.97806 0.0
H664 H 0.44139 0.3636 0.9713 0.0
H665 H 0.43105 0.33884 0.0082 0.0
H666 H 0.41857 0.33598 0.94524 0.0
H667 H 0.41156 0.27505 0.95958 0.0
H668 H 0.48177 0.3252 0.99105 0.0
H669 H 0.40636 0.24031 0.05942 0.0
H670 H 0.41371 0.2287 0.00601 0.0
H671 H 0.3944 0.23941 0.99647 0.0
H672 H 0.50549 0.32037 0.0497 0.0
H673 H 0.49939 0.29105 0.04407 0.0
H674 H 0.49152 0.30127 0.09894 0.0
H675 H 0.44117 0.23597 0.34927 0.0
H676 H 0.46565 0.1988 0.22938 0.0
H677 H 0.47178 0.20084 0.14078 0.0
H678 H 0.46382 0.24315 0.00699 0.0
H679 H 0.44032 0.28148 0.12731 0.0
H680 H 0.43398 0.27926 0.2167 0.0
H681 H 0.50068 0.14094 0.04774 0.0
H682 H 0.47171 0.11776 0.03318 0.0
H683 H 0.477 0.14438 0.06291 0.0
C684 C 0.03475 0.49072 0.53215 0.0
C685 C 0.039 0.46559 0.71631 0.0
C686 C 0.97366 0.46108 0.72359 0.0
Mg687 Mg 0.00851 0.51545 0.48566 0.0
Mg688 Mg 0.99782 0.54846 0.56016 0.0
O689 O 0.99342 0.51903 0.54679 0.0
Mg690 Mg 0.00669 0.50788 0.59947 0.0
O691 O 0.02016 0.49508 0.64812 0.0
Mg692 Mg 0.00237 0.46208 0.62095 0.0
Mg693 Mg 0.02249 0.50094 0.71923 0.0
C694 C 0.97706 0.52591 0.66247 0.0
O695 O 0.03196 0.5436 0.63622 0.0
O696 O 0.98494 0.5248 0.43832 0.0
O697 O 0.03788 0.53837 0.71855 0.0
O698 O 0.03671 0.55385 0.48958 0.0
O699 O 0.97973 0.54847 0.49199 0.0
O700 O 0.03256 0.57354 0.55382 0.0
O701 O 0.98169 0.47184 0.56766 0.0
O702 O 0.98137 0.4773 0.48469 0.0
C703 C 0.97495 0.46396 0.5214 0.0
C704 C 0.97667 0.53788 0.44837 0.0
O705 O 0.98244 0.51027 0.65528 0.0
O706 O 0.02583 0.45576 0.67597 0.0
O707 O 0.9828 0.54243 0.6331 0.0
O708 O 0.97642 0.45279 0.68184 0.0
O709 O 0.04114 0.48386 0.73882 0.0
O710 O 0.98891 0.48033 0.74486 0.0
O711 O 0.03007 0.50673 0.54081 0.0
O712 O 0.02736 0.47331 0.55916 0.0
C713 C 0.04376 0.57243 0.51743 0.0
C714 C 0.04032 0.55135 0.682 0.0
C715 C 0.5053 0.05255 0.52805 0.0
C716 C 0.5739 0.04453 0.45817 0.0
C717 C 0.53009 0.9733 0.48922 0.0
Mg718 Mg 0.47125 0.02279 0.6122 0.0
Mg719 Mg 0.48736 0.00034 0.70203 0.0
O720 O 0.48306 0.00194 0.6317 0.0
Mg721 Mg 0.50992 0.01401 0.58967 0.0
O722 O 0.53565 0.02657 0.54462 0.0
Mg723 Mg 0.51808 0.01601 0.47645 0.0
Mg724 Mg 0.55747 0.0177 0.55603 0.0
C725 C 0.51397 0.97647 0.65793 0.0
O726 O 0.53604 0.03411 0.65667 0.0
O727 O 0.44006 0.9995 0.65779 0.0
O728 O 0.56507 0.02879 0.63696 0.0
O729 O 0.48827 0.04754 0.6832 0.0
O730 O 0.4519 0.98317 0.71516 0.0
O731 O 0.50284 0.0341 0.74008 0.0
O732 O 0.4859 0.99501 0.52037 0.0
O733 O 0.45639 0.999 0.5397 0.0
C734 C 0.46591 0.99152 0.50953 0.0
C735 C 0.43626 0.98582 0.6936 0.0
O736 O 0.51458 0.9839 0.61351 0.0
O737 O 0.55332 0.03767 0.44174 0.0
O738 O 0.50633 0.98228 0.69615 0.0
O739 O 0.52149 0.984 0.46741 0.0
O740 O 0.57901 0.03911 0.50073 0.0
O741 O 0.54367 0.98215 0.52885 0.0
O742 O 0.50365 0.04281 0.56965 0.0
O743 O 0.51247 0.04695 0.48871 0.0
C744 C 0.49943 0.04993 0.72515 0.0
C745 C 0.5554 0.03592 0.66784 0.0
C746 C 0.52162 0.55086 0.67972 0.0
C747 C 0.45529 0.47811 0.76361 0.0
C748 C 0.48311 0.44209 0.68829 0.0
Mg749 Mg 0.54452 0.55144 0.57304 0.0
Mg750 Mg 0.51391 0.51359 0.47974 0.0
O751 O 0.52595 0.51826 0.54703 0.0
Mg752 Mg 0.50394 0.50586 0.6011 0.0
O753 O 0.48365 0.49505 0.65867 0.0
Mg754 Mg 0.50639 0.49951 0.71508 0.0
Mg755 Mg 0.45796 0.46552 0.65006 0.0
C756 C 0.48535 0.46277 0.51476 0.0
O757 O 0.47369 0.50361 0.55362 0.0
O758 O 0.56846 0.55545 0.50731 0.0
O759 O 0.44438 0.4711 0.57925 0.0
O760 O 0.526 0.56373 0.51935 0.0
O761 O 0.54585 0.5279 0.44688 0.0
O762 O 0.50122 0.53624 0.46334 0.0
O763 O 0.5321 0.50711 0.65333 0.0
O764 O 0.56184 0.53913 0.62943 0.0
C765 C 0.55322 0.52226 0.65801 0.0
C766 C 0.56523 0.54468 0.46344 0.0
O767 O 0.49058 0.46932 0.56243 0.0
O768 O 0.47703 0.49065 0.7692 0.0
O769 O 0.49114 0.47694 0.47961 0.0
O770 O 0.49683 0.4616 0.71097 0.0
O771 O 0.44463 0.46721 0.72147 0.0
O772 O 0.4671 0.43939 0.657 0.0
O773 O 0.51801 0.5428 0.63328 0.0
O774 O 0.51682 0.53757 0.71636 0.0
C775 C 0.51073 0.55676 0.48288 0.0
C776 C 0.45266 0.48779 0.54983 0.0
H777 H 0.09557 0.43479 0.3962 0.0
H778 H 0.15524 0.50245 0.40705 0.0
H779 H 0.13143 0.51976 0.42341 0.0
H780 H 0.05354 0.45193 0.34405 0.0
H781 H 0.032 0.43211 0.38263 0.0
H782 H 0.05258 0.42554 0.35819 0.0
H783 H 0.06377 0.42035 0.44973 0.0
H784 H 0.04327 0.42676 0.47419 0.0
H785 H 0.0725 0.44334 0.49821 0.0
H786 H 0.10258 0.52909 0.45438 0.0
H787 H 0.07223 0.52901 0.50312 0.0
H788 H 0.03172 0.4553 0.47427 0.0
C789 C 0.10344 0.45329 0.40016 0.0
C790 C 0.12714 0.46731 0.39988 0.0
C791 C 0.13704 0.49143 0.40657 0.0
C792 C 0.12363 0.50141 0.41559 0.0
C793 C 0.10033 0.48704 0.41755 0.0
C794 C 0.09031 0.46345 0.40977 0.0
C795 C 0.06572 0.45155 0.42205 0.0
C796 C 0.05004 0.43958 0.37384 0.0
C797 C 0.06107 0.43453 0.46351 0.0
C798 C 0.0639 0.47196 0.44125 0.0
C799 C 0.08374 0.49239 0.43673 0.0
C800 C 0.08677 0.51327 0.45702 0.0
C801 C 0.06946 0.51312 0.4845 0.0
C802 C 0.04976 0.49215 0.49218 0.0
C803 C 0.04661 0.47157 0.4684 0.0
H804 H 0.70398 0.12517 0.43271 0.0
H805 H 0.69384 0.09385 0.28013 0.0
H806 H 0.6524 0.07649 0.28412 0.0
H807 H 0.66187 0.07812 0.48184 0.0
H808 H 0.65312 0.09325 0.52482 0.0
H809 H 0.68165 0.10718 0.50562 0.0
H810 H 0.67689 0.1404 0.47313 0.0
H811 H 0.64821 0.12651 0.49232 0.0
H812 H 0.65381 0.1341 0.42758 0.0
H813 H 0.61186 0.05874 0.30906 0.0
H814 H 0.5768 0.03958 0.35543 0.0
H815 H 0.61409 0.08093 0.49278 0.0
C816 C 0.69302 0.11532 0.39951 0.0
C817 C 0.70212 0.11141 0.35567 0.0
C818 C 0.68727 0.09759 0.31365 0.0
C819 C 0.6637 0.0877 0.31556 0.0
C820 C 0.65525 0.09163 0.35984 0.0
C821 C 0.66954 0.10511 0.40112 0.0
C822 C 0.65645 0.10414 0.44678 0.0
C823 C 0.6637 0.09512 0.49241 0.0
C824 C 0.65899 0.12769 0.46075 0.0
C825 C 0.63264 0.08717 0.42562 0.0
C826 C 0.63211 0.08065 0.37497 0.0
C827 C 0.61204 0.06399 0.34848 0.0
C828 C 0.59221 0.05326 0.37493 0.0
C829 C 0.59288 0.05892 0.42742 0.0
C830 C 0.61318 0.07648 0.45248 0.0
H831 H 0.53538 0.624 0.24079 0.0
H832 H 0.56512 0.68505 0.34388 0.0
H833 H 0.54444 0.66172 0.4134 0.0
H834 H 0.47957 0.59013 0.30351 0.0
H835 H 0.4803 0.56394 0.29309 0.0
H836 H 0.4921 0.58582 0.24826 0.0
H837 H 0.53048 0.58674 0.25895 0.0
H838 H 0.51877 0.56486 0.30321 0.0
H839 H 0.54416 0.59168 0.32177 0.0
H840 H 0.52736 0.63184 0.47469 0.0
H841 H 0.5184 0.59815 0.52302 0.0
H842 H 0.49996 0.5558 0.38189 0.0
C843 C 0.53674 0.6325 0.27757 0.0
C844 C 0.55142 0.65639 0.2864 0.0
C845 C 0.5536 0.66688 0.33558 0.0
C846 C 0.54181 0.65374 0.37542 0.0
C847 C 0.52798 0.6301 0.36575 0.0
C848 C 0.5254 0.61955 0.31793 0.0
C849 C 0.51299 0.59368 0.31939 0.0
C850 C 0.48986 0.58275 0.28928 0.0
C851 C 0.52747 0.58368 0.29972 0.0
C852 C 0.51021 0.59135 0.37595 0.0
C853 C 0.51834 0.61253 0.40182 0.0
C854 C 0.5204 0.61511 0.45482 0.0
C855 C 0.51523 0.59585 0.48202 0.0
C856 C 0.50825 0.57432 0.4562 0.0
C857 C 0.50456 0.57187 0.40266 0.0
H858 H 0.91388 0.60223 0.37179 0.0
H859 H 0.85487 0.5351 0.33638 0.0
H860 H 0.87948 0.51796 0.33344 0.0
H861 H 0.95628 0.59219 0.3022 0.0
H862 H 0.97792 0.60806 0.35262 0.0
H863 H 0.95677 0.61589 0.33757 0.0
H864 H 0.94592 0.61185 0.4313 0.0
H865 H 0.96705 0.60425 0.44651 0.0
H866 H 0.93802 0.58528 0.45998 0.0
H867 H 0.90925 0.50727 0.34944 0.0
H868 H 0.94015 0.50362 0.39215 0.0
H869 H 0.97908 0.57726 0.42279 0.0
C870 C 0.90625 0.58401 0.36211 0.0
C871 C 0.88253 0.56995 0.35446 0.0
C872 C 0.87305 0.54616 0.34229 0.0
C873 C 0.88692 0.53633 0.34013 0.0
C874 C 0.91024 0.55054 0.35008 0.0
C875 C 0.91981 0.57392 0.36091 0.0
C876 C 0.94452 0.58486 0.37911 0.0
C877 C 0.95977 0.60122 0.34056 0.0
C878 C 0.94912 0.59726 0.43237 0.0
C879 C 0.94695 0.56379 0.38029 0.0
C880 C 0.92732 0.54426 0.36132 0.0
C881 C 0.92487 0.52248 0.36329 0.0
C882 C 0.9425 0.52053 0.38737 0.0
C883 C 0.96189 0.54021 0.41011 0.0
C884 C 0.96449 0.56207 0.40473 0.0
H885 H 0.35819 0.93447 0.31454 0.0
H886 H 0.37743 0.88451 0.26782 0.0
H887 H 0.41353 0.90655 0.3207 0.0
H888 H 0.41502 0.98545 0.32242 0.0
H889 H 0.4096 0.99781 0.37822 0.0
H890 H 0.38666 0.97955 0.33219 0.0
H891 H 0.36455 0.95331 0.40308 0.0
H892 H 0.38733 0.9715 0.44923 0.0
H893 H 0.37786 0.94131 0.4418 0.0
H894 H 0.44651 0.93303 0.38313 0.0
H895 H 0.47186 0.95982 0.4543 0.0
H896 H 0.42991 0.99129 0.46088 0.0
C897 C 0.37016 0.92836 0.31478 0.0
C898 C 0.36522 0.908 0.28653 0.0
C899 C 0.3811 0.90029 0.28863 0.0
C900 C 0.40162 0.91269 0.31844 0.0
C901 C 0.40591 0.9327 0.34598 0.0
C902 C 0.39054 0.94039 0.34453 0.0
C903 C 0.3982 0.96125 0.3807 0.0
C904 C 0.40264 0.98226 0.35163 0.0
C905 C 0.38096 0.95655 0.42109 0.0
C906 C 0.42001 0.9638 0.40376 0.0
C907 C 0.42445 0.94747 0.38269 0.0
C908 C 0.44329 0.94601 0.39956 0.0
C909 C 0.45765 0.96134 0.43977 0.0
C910 C 0.45283 0.97758 0.46293 0.0
C911 C 0.43402 0.97904 0.44389 0.0
H912 H 0.43249 0.32717 0.52902 0.0
H913 H 0.39753 0.31945 0.38211 0.0
H914 H 0.41503 0.36141 0.38194 0.0
H915 H 0.42513 0.37329 0.57915 0.0
H916 H 0.45234 0.38845 0.6141 0.0
H917 H 0.43825 0.35773 0.60324 0.0
H918 H 0.47307 0.36066 0.56116 0.0
H919 H 0.48764 0.39134 0.57335 0.0
H920 H 0.48453 0.37901 0.50953 0.0
H921 H 0.43634 0.40371 0.39661 0.0
H922 H 0.45934 0.44436 0.42636 0.0
H923 H 0.47948 0.4254 0.56627 0.0
C924 C 0.42875 0.3344 0.49664 0.0
C925 C 0.41414 0.32007 0.45501 0.0
C926 C 0.40908 0.33004 0.41388 0.0
C927 C 0.41886 0.35387 0.41353 0.0
C928 C 0.43327 0.36746 0.45501 0.0
C929 C 0.4381 0.35815 0.49602 0.0
C930 C 0.45351 0.37668 0.53654 0.0
C931 C 0.44157 0.37384 0.5862 0.0
C932 C 0.47603 0.37693 0.54565 0.0
C933 C 0.45691 0.39789 0.5114 0.0
C934 C 0.44505 0.39207 0.46439 0.0
C935 C 0.44568 0.40851 0.43337 0.0
C936 C 0.45889 0.43158 0.45063 0.0
C937 C 0.47127 0.4381 0.49866 0.0
C938 C 0.47009 0.42095 0.5296 0.0
H939 H 0.57312 0.9276 0.83385 0.0
H940 H 0.52738 0.86085 0.75752 0.0
H941 H 0.51654 0.87929 0.69186 0.0
H942 H 0.53651 0.94836 0.82263 0.0
H943 H 0.55782 0.97751 0.81342 0.0
H944 H 0.56531 0.95953 0.84773 0.0
H945 H 0.59652 0.96788 0.78594 0.0
H946 H 0.5885 0.9849 0.74877 0.0
H947 H 0.5891 0.96082 0.71867 0.0
H948 H 0.5081 0.90486 0.63841 0.0
H949 H 0.499 0.93422 0.61032 0.0
H950 H 0.54741 0.98318 0.72668 0.0
C951 C 0.56124 0.91693 0.80258 0.0
C952 C 0.55151 0.89286 0.80044 0.0
C953 C 0.53549 0.87937 0.75969 0.0
C954 C 0.52925 0.88971 0.72201 0.0
C955 C 0.53895 0.91349 0.72583 0.0
C956 C 0.55447 0.92689 0.76546 0.0
C957 C 0.56014 0.95162 0.76506 0.0
C958 C 0.55459 0.95971 0.81516 0.0
C959 C 0.58505 0.96722 0.75399 0.0
C960 C 0.54445 0.94982 0.72081 0.0
C961 C 0.53304 0.92793 0.69725 0.0
C962 C 0.51705 0.92207 0.65639 0.0
C963 C 0.51203 0.93879 0.64058 0.0
C964 C 0.52254 0.96073 0.66661 0.0
C965 C 0.53929 0.96645 0.70623 0.0
H966 H 0.63283 0.47974 0.8172 0.0
H967 H 0.67239 0.56036 0.91122 0.0
H968 H 0.637 0.56687 0.86492 0.0
H969 H 0.61546 0.49788 0.6998 0.0
H970 H 0.58774 0.47314 0.68623 0.0
H971 H 0.60856 0.47105 0.72605 0.0
H972 H 0.57972 0.45607 0.79643 0.0
H973 H 0.55953 0.45899 0.75605 0.0
H974 H 0.56788 0.47322 0.81888 0.0
H975 H 0.60433 0.56279 0.79506 0.0
H976 H 0.57705 0.55844 0.72536 0.0
H977 H 0.56141 0.4887 0.68922 0.0
C978 C 0.6327 0.49507 0.83037 0.0
C979 C 0.65838 0.52049 0.8629 0.0
C980 C 0.65805 0.54652 0.88907 0.0
C981 C 0.63655 0.55071 0.85854 0.0
C982 C 0.6152 0.52876 0.81551 0.0
C983 C 0.61255 0.50195 0.80312 0.0
C984 C 0.5934 0.4893 0.76325 0.0
C985 C 0.6018 0.48245 0.71607 0.0
C986 C 0.57399 0.46815 0.78497 0.0
C987 C 0.58636 0.50728 0.75186 0.0
C988 C 0.59816 0.52835 0.78127 0.0
C989 C 0.59473 0.54661 0.77269 0.0
C990 C 0.57933 0.54403 0.73303 0.0
C991 C 0.56731 0.52324 0.70264 0.0
C992 C 0.57038 0.50458 0.71289 0.0
H993 H 0.13416 0.67493 0.80344 0.0
H994 H 0.09326 0.70123 0.73676 0.0
H995 H 0.0654 0.66235 0.70091 0.0
H996 H 0.1243 0.63313 0.70317 0.0
H997 H 0.12243 0.61187 0.74505 0.0
H998 H 0.13942 0.64189 0.76494 0.0
H999 H 0.11702 0.63533 0.84565 0.0
H1000 H 0.1 0.60527 0.82611 0.0
H1001 H 0.08659 0.62198 0.83906 0.0
H1002 H 0.04303 0.62117 0.66892 0.0
H1003 H 0.0255 0.57946 0.64972 0.0
H1004 H 0.07944 0.57914 0.74145 0.0
C1005 C 0.1194 0.67251 0.78101 0.0
C1006 C 0.11639 0.69129 0.77113 0.0
C1007 C 0.09643 0.68732 0.74323 0.0
C1008 C 0.08042 0.66525 0.72294 0.0
C1009 C 0.0843 0.64727 0.73212 0.0
C1010 C 0.10309 0.65055 0.76117 0.0
C1011 C 0.10283 0.62815 0.7667 0.0
C1012 C 0.12347 0.62881 0.74357 0.0
C1013 C 0.10153 0.62234 0.82271 0.0
C1014 C 0.08107 0.61178 0.73563 0.0
C1015 C 0.07078 0.62324 0.71573 0.0
C1016 C 0.05087 0.61199 0.68447 0.0
C1017 C 0.04116 0.58837 0.67339 0.0
C1018 C 0.05128 0.57626 0.69372 0.0
C1019 C 0.07138 0.58807 0.7256 0.0
H1020 H 0.49205 0.10889 0.97964 0.0
H1021 H 0.49623 0.16347 0.89032 0.0
H1022 H 0.50802 0.14848 0.81818 0.0
H1023 H 0.5398 0.10482 0.92289 0.0
H1024 H 0.5247 0.07406 0.9249 0.0
H1025 H 0.52101 0.09159 0.97271 0.0
H1026 H 0.4776 0.06867 0.95112 0.0
H1027 H 0.48115 0.05118 0.90341 0.0
H1028 H 0.46671 0.06646 0.88646 0.0
H1029 H 0.5128 0.12426 0.75207 0.0
H1030 H 0.50949 0.0922 0.69679 0.0
H1031 H 0.50311 0.0538 0.8291 0.0
C1032 C 0.49618 0.11837 0.94589 0.0
C1033 C 0.49382 0.13799 0.94171 0.0
C1034 C 0.49859 0.14892 0.89529 0.0
C1035 C 0.50531 0.14052 0.85402 0.0
C1036 C 0.50725 0.12111 0.85947 0.0
C1037 C 0.50298 0.11025 0.90437 0.0
C1038 C 0.50366 0.08816 0.89852 0.0
C1039 C 0.52348 0.08976 0.93173 0.0
C1040 C 0.48093 0.06741 0.91056 0.0
C1041 C 0.50772 0.08764 0.84257 0.0
C1042 C 0.51017 0.10704 0.82097 0.0
C1043 C 0.51149 0.10928 0.76874 0.0
C1044 C 0.50954 0.09096 0.73763 0.0
C1045 C 0.50631 0.07067 0.75883 0.0
C1046 C 0.50621 0.06937 0.8121 0.0
H1047 H 0.39427 0.51531 0.96603 0.0
H1048 H 0.35325 0.44334 0.994 0.0
H1049 H 0.37495 0.43392 0.93442 0.0
H1050 H 0.3997 0.50765 0.83465 0.0
H1051 H 0.42866 0.53066 0.83553 0.0
H1052 H 0.41011 0.53173 0.88088 0.0
H1053 H 0.43859 0.5364 0.95477 0.0
H1054 H 0.45721 0.53528 0.90959 0.0
H1055 H 0.4476 0.51551 0.95912 0.0
H1056 H 0.39951 0.43209 0.86866 0.0
H1057 H 0.42592 0.43809 0.80155 0.0
H1058 H 0.45301 0.51148 0.82119 0.0
C1059 C 0.3901 0.49762 0.96046 0.0
C1060 C 0.37242 0.48009 0.98582 0.0
C1061 C 0.367 0.45706 0.97579 0.0
C1062 C 0.37923 0.45156 0.94206 0.0
C1063 C 0.39688 0.4693 0.91875 0.0
C1064 C 0.40238 0.49187 0.92761 0.0
C1065 C 0.42193 0.50765 0.89704 0.0
C1066 C 0.41465 0.52015 0.85982 0.0
C1067 C 0.44255 0.52472 0.93225 0.0
C1068 C 0.42638 0.49037 0.86913 0.0
C1069 C 0.41164 0.46833 0.88208 0.0
C1070 C 0.41138 0.44928 0.85883 0.0
C1071 C 0.42639 0.45283 0.82091 0.0
C1072 C 0.44165 0.47523 0.80732 0.0
C1073 C 0.44188 0.49426 0.83213 0.0
H1074 H 0.90296 0.38709 0.94534 0.0
H1075 H 0.84402 0.35548 0.83771 0.0
H1076 H 0.86646 0.38184 0.77379 0.0
H1077 H 0.92406 0.44574 0.90728 0.0
H1078 H 0.95334 0.45332 0.91656 0.0
H1079 H 0.93246 0.43232 0.95447 0.0
H1080 H 0.94439 0.40288 0.92555 0.0
H1081 H 0.96534 0.42382 0.88787 0.0
H1082 H 0.94423 0.3963 0.85853 0.0
H1083 H 0.89626 0.40909 0.71902 0.0
H1084 H 0.93092 0.43659 0.67898 0.0
H1085 H 0.9695 0.45301 0.82415 0.0
C1086 C 0.89479 0.3858 0.90833 0.0
C1087 C 0.87188 0.3689 0.89634 0.0
C1088 C 0.86164 0.36793 0.84771 0.0
C1089 C 0.87422 0.38296 0.81118 0.0
C1090 C 0.89682 0.39924 0.82419 0.0
C1091 C 0.90694 0.40095 0.87179 0.0
C1092 C 0.93155 0.41981 0.87598 0.0
C1093 C 0.93558 0.43893 0.91595 0.0
C1094 C 0.9473 0.41012 0.88765 0.0
C1095 C 0.93389 0.42801 0.82277 0.0
C1096 C 0.91364 0.41591 0.79346 0.0
C1097 C 0.91207 0.41901 0.74183 0.0
C1098 C 0.93179 0.4346 0.71943 0.0
C1099 C 0.95264 0.44711 0.74882 0.0
C1100 C 0.95358 0.44411 0.80129 0.0
H1101 H 0.91605 0.5719 0.84541 0.0
H1102 H 0.88722 0.50711 0.91603 0.0
H1103 H 0.90754 0.49441 0.85942 0.0
H1104 H 0.913 0.54937 0.71811 0.0
H1105 H 0.93947 0.57344 0.70275 0.0
H1106 H 0.92285 0.57733 0.74926 0.0
H1107 H 0.95734 0.59442 0.81541 0.0
H1108 H 0.97404 0.59051 0.7691 0.0
H1109 H 0.971 0.57811 0.82961 0.0
H1110 H 0.93052 0.48861 0.79347 0.0
H1111 H 0.95426 0.4903 0.72351 0.0
H1112 H 0.96839 0.55924 0.69804 0.0
C1113 C 0.91395 0.555 0.84872 0.0
C1114 C 0.89982 0.54032 0.88448 0.0
C1115 C 0.89775 0.51847 0.88836 0.0
C1116 C 0.90925 0.51116 0.85653 0.0
C1117 C 0.9229 0.52599 0.82137 0.0
C1118 C 0.92531 0.54747 0.81737 0.0
C1119 C 0.94089 0.5601 0.77637 0.0
C1120 C 0.92829 0.56536 0.73413 0.0
C1121 C 0.96207 0.58208 0.799 0.0
C1122 C 0.94675 0.54233 0.75767 0.0
C1123 C 0.93629 0.52279 0.7841 0.0
C1124 C 0.93893 0.50391 0.77277 0.0
C1125 C 0.95256 0.50506 0.73318 0.0
C1126 C 0.96337 0.52492 0.70553 0.0
C1127 C 0.96041 0.54377 0.71835 0.0
H1128 H 0.33691 0.88147 0.82303 0.0
H1129 H 0.29005 0.8996 0.75253 0.0
H1130 H 0.32216 0.9333 0.7184 0.0
H1131 H 0.3825 0.94026 0.85828 0.0
H1132 H 0.40441 0.93366 0.84503 0.0
H1133 H 0.37782 0.91181 0.86598 0.0
H1134 H 0.37263 0.88548 0.78618 0.0
H1135 H 0.39913 0.90724 0.76491 0.0
H1136 H 0.37359 0.89588 0.72388 0.0
H1137 H 0.35931 0.96369 0.68803 0.0
H1138 H 0.39859 0.98866 0.66467 0.0
H1139 H 0.42081 0.95079 0.75731 0.0
C1140 C 0.33346 0.89281 0.80134 0.0
C1141 C 0.31106 0.88829 0.79139 0.0
C1142 C 0.30716 0.9031 0.7614 0.0
C1143 C 0.32525 0.9222 0.74185 0.0
C1144 C 0.34713 0.92624 0.75265 0.0
C1145 C 0.3513 0.91202 0.78192 0.0
C1146 C 0.37627 0.91968 0.78662 0.0
C1147 C 0.38581 0.92677 0.84228 0.0
C1148 C 0.38065 0.90096 0.76403 0.0
C1149 C 0.38546 0.94018 0.75465 0.0
C1150 C 0.36845 0.94376 0.73547 0.0
C1151 C 0.37281 0.96119 0.70324 0.0
C1152 C 0.39517 0.97526 0.69013 0.0
C1153 C 0.41285 0.9718 0.7093 0.0
C1154 C 0.4078 0.9541 0.74232 0.0
H1155 H 0.42809 0.34045 0.86184 0.0
H1156 H 0.49642 0.36317 0.92342 0.0
H1157 H 0.51172 0.38561 0.84872 0.0
H1158 H 0.43965 0.34119 0.72192 0.0
H1159 H 0.42105 0.35219 0.7068 0.0
H1160 H 0.41515 0.33333 0.75775 0.0
H1161 H 0.41452 0.36367 0.82039 0.0
H1162 H 0.42009 0.38232 0.76962 0.0
H1163 H 0.43861 0.39234 0.82686 0.0
H1164 H 0.51981 0.41125 0.7781 0.0
H1165 H 0.5199 0.43923 0.72048 0.0
H1166 H 0.44659 0.40097 0.70508 0.0
C1167 C 0.44625 0.34979 0.85921 0.0
C1168 C 0.4611 0.35045 0.8991 0.0
C1169 C 0.48474 0.36266 0.89367 0.0
C1170 C 0.49358 0.37531 0.85113 0.0
C1171 C 0.47855 0.37532 0.81382 0.0
C1172 C 0.45535 0.36278 0.81728 0.0
C1173 C 0.44301 0.36837 0.77628 0.0
C1174 C 0.42888 0.34752 0.73845 0.0
C1175 C 0.42821 0.37721 0.7997 0.0
C1176 C 0.46292 0.38711 0.75143 0.0
C1177 C 0.48327 0.39033 0.77254 0.0
C1178 C 0.50401 0.40847 0.76026 0.0
C1179 C 0.50393 0.42428 0.72747 0.0
C1180 C 0.48328 0.42196 0.70763 0.0
C1181 C 0.46261 0.40262 0.71813 0.0
H1182 H 0.10176 0.43617 0.93666 0.0
H1183 H 0.10136 0.38538 0.8298 0.0
H1184 H 0.08512 0.39813 0.76158 0.0
H1185 H 0.04965 0.42962 0.89268 0.0
H1186 H 0.05821 0.45956 0.90158 0.0
H1187 H 0.07164 0.44787 0.94065 0.0
H1188 H 0.11096 0.47828 0.91313 0.0
H1189 H 0.09764 0.49016 0.87409 0.0
H1190 H 0.11579 0.48099 0.8464 0.0
H1191 H 0.06607 0.4142 0.70733 0.0
H1192 H 0.04648 0.43311 0.66992 0.0
H1193 H 0.05996 0.47397 0.8121 0.0
C1194 C 0.09869 0.42809 0.89861 0.0
C1195 C 0.10312 0.41005 0.88816 0.0
C1196 C 0.0984 0.39948 0.83825 0.0
C1197 C 0.08917 0.40658 0.7994 0.0
C1198 C 0.08482 0.4243 0.81111 0.0
C1199 C 0.08958 0.43503 0.85941 0.0
C1200 C 0.08234 0.4529 0.86261 0.0
C1201 C 0.06439 0.44713 0.90168 0.0
C1202 C 0.10291 0.47701 0.87476 0.0
C1203 C 0.07232 0.45021 0.80884 0.0
C1204 C 0.07399 0.43369 0.77969 0.0
C1205 C 0.0649 0.42736 0.72958 0.0
C1206 C 0.05372 0.43815 0.70875 0.0
C1207 C 0.05176 0.45511 0.73797 0.0
C1208 C 0.06142 0.4613 0.78852 0.0
H1209 H 0.65649 0.08048 0.88062 0.0
H1210 H 0.63316 0.12435 0.94641 0.0
H1211 H 0.6001 0.10702 0.88354 0.0
H1212 H 0.6423 0.08263 0.75325 0.0
H1213 H 0.63304 0.05302 0.73544 0.0
H1214 H 0.65384 0.0678 0.78772 0.0
H1215 H 0.62851 0.03656 0.84733 0.0
H1216 H 0.6078 0.0217 0.79482 0.0
H1217 H 0.59959 0.02979 0.85265 0.0
H1218 H 0.57088 0.08638 0.81012 0.0
H1219 H 0.54843 0.06481 0.73101 0.0
H1220 H 0.59045 0.03364 0.71567 0.0
C1221 C 0.64421 0.08615 0.88234 0.0
C1222 C 0.64719 0.10353 0.91874 0.0
C1223 C 0.63104 0.11088 0.9191 0.0
C1224 C 0.61222 0.10111 0.88368 0.0
C1225 C 0.60975 0.08391 0.84846 0.0
C1226 C 0.62526 0.07643 0.84772 0.0
C1227 C 0.61918 0.05827 0.80502 0.0
C1228 C 0.63822 0.0659 0.76818 0.0
C1229 C 0.61343 0.03522 0.82626 0.0
C1230 C 0.59832 0.05734 0.7805 0.0
C1231 C 0.59292 0.07199 0.80651 0.0
C1232 C 0.57479 0.07464 0.78982 0.0
C1233 C 0.56205 0.06222 0.74499 0.0
C1234 C 0.56758 0.04744 0.71731 0.0
C1235 C 0.58578 0.04481 0.7359 0.0
H1236 H 0.58481 0.66198 0.86958 0.0
H1237 H 0.60991 0.70253 0.73927 0.0
H1238 H 0.58612 0.66786 0.68158 0.0
H1239 H 0.58574 0.61404 0.81993 0.0
H1240 H 0.56036 0.59338 0.84759 0.0
H1241 H 0.57722 0.62176 0.87788 0.0
H1242 H 0.54215 0.62718 0.87444 0.0
H1243 H 0.52513 0.59871 0.84432 0.0
H1244 H 0.52659 0.62292 0.81434 0.0
H1245 H 0.56175 0.62762 0.63855 0.0
H1246 H 0.53946 0.58594 0.61467 0.0
H1247 H 0.53094 0.57266 0.77435 0.0
C1248 C 0.58484 0.66366 0.82891 0.0
C1249 C 0.59881 0.68495 0.8088 0.0
C1250 C 0.59895 0.6864 0.75534 0.0
C1251 C 0.58554 0.66682 0.72238 0.0
C1252 C 0.57211 0.64598 0.74357 0.0
C1253 C 0.57161 0.64437 0.79568 0.0
C1254 C 0.557 0.61987 0.80916 0.0
C1255 C 0.57092 0.6118 0.84046 0.0
C1256 C 0.5365 0.61701 0.83722 0.0
C1257 C 0.54979 0.6078 0.75659 0.0
C1258 C 0.55843 0.62306 0.71909 0.0
C1259 C 0.55473 0.61556 0.66766 0.0
C1260 C 0.54206 0.59184 0.65443 0.0
C1261 C 0.53344 0.57595 0.69253 0.0
C1262 C 0.53719 0.58424 0.74412 0.0
H1263 H 0.46097 0.12688 0.3541 0.0
H1264 H 0.41194 0.12162 0.50314 0.0
H1265 H 0.43321 0.10005 0.55825 0.0
H1266 H 0.45703 0.06861 0.38227 0.0
H1267 H 0.48518 0.07623 0.36568 0.0
H1268 H 0.47163 0.09098 0.33972 0.0
H1269 H 0.50598 0.12977 0.37564 0.0
H1270 H 0.51926 0.11481 0.40219 0.0
H1271 H 0.5144 0.13389 0.44265 0.0
H1272 H 0.46228 0.08412 0.5854 0.0
H1273 H 0.48285 0.06332 0.59824 0.0
H1274 H 0.50562 0.07611 0.44565 0.0
C1275 C 0.45551 0.12172 0.39168 0.0
C1276 C 0.43747 0.13073 0.42614 0.0
C1277 C 0.42392 0.11786 0.48579 0.0
C1278 C 0.43828 0.10596 0.52091 0.0
C1279 C 0.46042 0.1032 0.49343 0.0
C1280 C 0.46819 0.10975 0.43146 0.0
C1281 C 0.4839 0.10102 0.41982 0.0
C1282 C 0.47384 0.08315 0.3742 0.0
C1283 C 0.50726 0.12106 0.40946 0.0
C1284 C 0.48494 0.09009 0.46943 0.0
C1285 C 0.47249 0.09183 0.50901 0.0
C1286 C 0.4719 0.08255 0.55538 0.0
C1287 C 0.48364 0.07069 0.56228 0.0
C1288 C 0.49553 0.06774 0.52265 0.0
C1289 C 0.4965 0.078 0.47643 0.0
H1290 H 0.32913 0.4575 0.46615 0.0
H1291 H 0.35787 0.52778 0.42554 0.0
H1292 H 0.396 0.53207 0.42968 0.0
H1293 H 0.36869 0.46715 0.55787 0.0
H1294 H 0.36981 0.44125 0.54577 0.0
H1295 H 0.34454 0.44184 0.52746 0.0
H1296 H 0.34625 0.42898 0.43459 0.0
H1297 H 0.37166 0.42831 0.45272 0.0
H1298 H 0.37158 0.44524 0.40164 0.0
H1299 H 0.43108 0.53108 0.45376 0.0
H1300 H 0.46001 0.5253 0.49858 0.0
H1301 H 0.40866 0.45543 0.52271 0.0
C1302 C 0.34337 0.47345 0.45611 0.0
C1303 C 0.34054 0.49212 0.44434 0.0
C1304 C 0.35964 0.5131 0.43341 0.0
C1305 C 0.38134 0.51566 0.43556 0.0
C1306 C 0.38365 0.49706 0.44844 0.0
C1307 C 0.36513 0.47626 0.45811 0.0
C1308 C 0.37241 0.46001 0.47791 0.0
C1309 C 0.36334 0.45213 0.53035 0.0
C1310 C 0.36504 0.43942 0.43941 0.0
C1311 C 0.39788 0.47549 0.48148 0.0
C1312 C 0.40408 0.49655 0.46289 0.0
C1313 C 0.4265 0.51446 0.46723 0.0
C1314 C 0.44287 0.51101 0.49271 0.0
C1315 C 0.43665 0.48989 0.51403 0.0
C1316 C 0.41401 0.47172 0.50651 0.0
H1317 H 0.91243 0.34751 0.31431 0.0
H1318 H 0.90796 0.29972 0.46642 0.0
H1319 H 0.9298 0.34231 0.53026 0.0
H1320 H 0.97099 0.40211 0.37262 0.0
H1321 H 0.96413 0.42299 0.35058 0.0
H1322 H 0.9515 0.39501 0.31771 0.0
H1323 H 0.9115 0.38949 0.33006 0.0
H1324 H 0.92436 0.41747 0.36307 0.0
H1325 H 0.90388 0.39272 0.39333 0.0
H1326 H 0.94594 0.38818 0.56391 0.0
H1327 H 0.96358 0.4296 0.5866 0.0
H1328 H 0.95787 0.44171 0.42792 0.0
C1329 C 0.91646 0.34641 0.35381 0.0
C1330 C 0.90416 0.31858 0.38461 0.0
C1331 C 0.91383 0.31609 0.4503 0.0
C1332 C 0.92615 0.34238 0.49002 0.0
C1333 C 0.93219 0.36859 0.46299 0.0
C1334 C 0.9285 0.37092 0.39816 0.0
C1335 C 0.93726 0.39564 0.3904 0.0
C1336 C 0.95714 0.40445 0.3558 0.0
C1337 C 0.91812 0.39902 0.36789 0.0
C1338 C 0.94513 0.40672 0.44508 0.0
C1339 C 0.94219 0.39187 0.48382 0.0
C1340 C 0.94851 0.39987 0.5346 0.0
C1341 C 0.95849 0.42345 0.54713 0.0
C1342 C 0.96233 0.43888 0.50891 0.0
C1343 C 0.95524 0.43025 0.45781 0.0
H1344 H 0.54912 0.86789 0.41908 0.0
H1345 H 0.49408 0.84523 0.30282 0.0
H1346 H 0.48767 0.87649 0.33272 0.0
H1347 H 0.52152 0.88419 0.51719 0.0
H1348 H 0.5478 0.90843 0.54309 0.0
H1349 H 0.54757 0.88361 0.51426 0.0
H1350 H 0.57736 0.90927 0.45291 0.0
H1351 H 0.57774 0.93413 0.48163 0.0
H1352 H 0.57166 0.92742 0.41396 0.0
H1353 H 0.48884 0.91136 0.37054 0.0
H1354 H 0.49695 0.94758 0.41495 0.0
H1355 H 0.55031 0.94745 0.51014 0.0
C1356 C 0.53574 0.86957 0.40001 0.0
C1357 C 0.52255 0.85453 0.35769 0.0
C1358 C 0.5048 0.85686 0.33442 0.0
C1359 C 0.5009 0.87446 0.3514 0.0
C1360 C 0.51449 0.88924 0.3925 0.0
C1361 C 0.5314 0.88688 0.41693 0.0
C1362 C 0.54372 0.90533 0.45985 0.0
C1363 C 0.53993 0.89476 0.51166 0.0
C1364 C 0.56912 0.9199 0.45155 0.0
C1365 C 0.53174 0.91902 0.45418 0.0
C1366 C 0.51475 0.90919 0.41548 0.0
C1367 C 0.50191 0.91907 0.40133 0.0
C1368 C 0.50671 0.93973 0.42688 0.0
C1369 C 0.52425 0.95041 0.4663 0.0
C1370 C 0.53667 0.93964 0.48058 0.0
H1371 H 0.70032 0.62434 0.37737 0.0
H1372 H 0.67076 0.5768 0.20454 0.0
H1373 H 0.62597 0.55458 0.24259 0.0
H1374 H 0.65867 0.57543 0.45546 0.0
H1375 H 0.65204 0.59223 0.49884 0.0
H1376 H 0.67806 0.60579 0.46712 0.0
H1377 H 0.6669 0.63451 0.43211 0.0
H1378 H 0.64087 0.62066 0.46375 0.0
H1379 H 0.64008 0.62363 0.39622 0.0
H1380 H 0.59226 0.53881 0.30762 0.0
H1381 H 0.56265 0.52655 0.36773 0.0
H1382 H 0.60992 0.57947 0.48028 0.0
C1383 C 0.6865 0.61274 0.35051 0.0
C1384 C 0.69119 0.60042 0.29019 0.0
C1385 C 0.66772 0.58225 0.24109 0.0
C1386 C 0.64026 0.56785 0.26591 0.0
C1387 C 0.63661 0.57493 0.32943 0.0
C1388 C 0.65806 0.59673 0.36948 0.0
C1389 C 0.64774 0.59715 0.41848 0.0
C1390 C 0.65985 0.59237 0.46256 0.0
C1391 C 0.64897 0.62036 0.4282 0.0
C1392 C 0.62293 0.57745 0.40807 0.0
C1393 C 0.61741 0.56582 0.35952 0.0
C1394 C 0.59601 0.54759 0.34505 0.0
C1395 C 0.57932 0.54074 0.37976 0.0
C1396 C 0.58394 0.55209 0.42886 0.0
C1397 C 0.60599 0.57056 0.44297 0.0
H1398 H 0.10178 0.65483 0.30207 0.0
H1399 H 0.11699 0.71095 0.41198 0.0
H1400 H 0.10782 0.68481 0.48143 0.0
H1401 H 0.05425 0.61541 0.35405 0.0
H1402 H 0.05799 0.59113 0.34081 0.0
H1403 H 0.07035 0.61506 0.30176 0.0
H1404 H 0.10992 0.61938 0.3207 0.0
H1405 H 0.09762 0.5954 0.36013 0.0
H1406 H 0.12083 0.62261 0.38572 0.0
H1407 H 0.09117 0.65163 0.53655 0.0
H1408 H 0.06676 0.61428 0.57145 0.0
H1409 H 0.06253 0.57968 0.42563 0.0
C1410 C 0.10404 0.66175 0.341 0.0
C1411 C 0.11077 0.68503 0.35182 0.0
C1412 C 0.11251 0.69332 0.40299 0.0
C1413 C 0.10735 0.67859 0.44267 0.0
C1414 C 0.10046 0.65561 0.43059 0.0
C1415 C 0.09887 0.64726 0.38091 0.0
C1416 C 0.08816 0.62143 0.37705 0.0
C1417 C 0.06641 0.61011 0.34135 0.0
C1418 C 0.10515 0.61429 0.35989 0.0
C1419 C 0.08298 0.6164 0.43188 0.0
C1420 C 0.0906 0.63636 0.46242 0.0
C1421 C 0.08556 0.63592 0.51326 0.0
C1422 C 0.07165 0.6146 0.53277 0.0
C1423 C 0.06281 0.59402 0.50137 0.0
C1424 C 0.06939 0.59502 0.45097 0.0
loop_
_geom_bond_atom_site_label_1
_geom_bond_atom_site_label_2
_geom_bond_distance
_geom_bond_site_symmetry_2
_ccdc_geom_bond_type
C0 C1 1.560 . S
C0 H61 0.959 . S
C0 H62 0.959 . S
C0 H63 0.960 . S
C1 C0 1.560 . S
C1 O56 1.426 . S
C1 H60 0.980 . S
C2 C3 1.407 . S
C2 C7 1.418 . S
C2 O56 1.334 . S
C3 C2 1.407 . S
C3 C4 1.360 . S
C3 H64 0.929 . S
C4 C3 1.360 . S
C4 C5 1.401 . S
C4 C8 1.527 . S
C5 C4 1.401 . S
C5 C6 1.405 . S
C5 C38 1.587 . S
C6 C5 1.405 . S
C6 C7 1.332 . S
C6 C9 1.496 . S
C7 C2 1.418 . S
C7 C6 1.332 . S
C7 H65 0.929 . S
C8 C4 1.527 . S
C8 H66 0.959 . S
C8 H67 0.961 . S
C8 H68 0.961 . S
C9 C6 1.496 . S
C9 H69 0.960 . S
C9 H70 0.960 . S
C9 H71 0.961 . S
C10 C11 1.517 . S
C10 H73 0.961 . S
C10 H74 0.960 . S
C10 H75 0.959 . S
C11 C10 1.517 . S
C11 O59 1.468 . S
C11 H72 0.980 . S
C12 C13 1.349 . S
C12 C17 1.367 . S
C12 O59 1.408 . S
C13 C12 1.349 . S
C13 C14 1.407 . S
C13 H76 0.930 . S
C14 C13 1.407 . S
C14 C15 1.449 . S
C14 C18 1.535 . S
C15 C14 1.449 . S
C15 C16 1.384 . S
C15 C40 1.553 . S
C16 C15 1.384 . S
C16 C17 1.364 . S
C16 C19 1.450 . S
C17 C12 1.367 . S
C17 C16 1.364 . S
C17 H77 0.931 . S
C18 C14 1.535 . S
C18 H78 0.959 . S
C18 H79 0.961 . S
C18 H80 0.959 . S
C19 C16 1.450 . S
C19 H81 0.960 . S
C19 H82 0.960 . S
C19 H83 0.960 . S
C20 C21 1.309 . S
C20 C25 1.304 . S
C20 O58 1.435 1_554 S
C21 C20 1.309 . S
C21 C22 1.476 . S
C21 H85 0.930 . S
C22 C21 1.476 . S
C22 C23 1.400 . S
C22 C26 1.567 . S
C23 C22 1.400 . S
C23 C24 1.373 . S
C23 C45 1.432 . S
C24 C23 1.373 . S
C24 C25 1.339 . S
C24 C27 1.530 . S
C25 C20 1.304 . S
C25 C24 1.339 . S
C25 H86 0.930 1_554 S
C26 C22 1.567 . S
C26 H87 0.961 . S
C26 H88 0.960 . S
C26 H89 0.958 . S
C27 C24 1.530 . S
C27 H90 0.961 . S
C27 H91 0.960 . S
C27 H92 0.960 . S
C28 C29 1.530 . S
C28 H94 0.961 . S
C28 H95 0.961 . S
C28 H96 0.959 . S
C29 C28 1.530 . S
C29 O57 1.412 . S
C29 H93 0.980 . S
C30 C31 1.288 . S
C30 C35 1.377 . S
C30 O57 1.393 1_554 S
C31 C30 1.288 . S
C31 C32 1.369 . S
C31 H97 0.932 . S
C32 C31 1.369 . S
C32 C33 1.398 . S
C32 C36 1.527 . S
C33 C32 1.398 . S
C33 C34 1.380 . S
C33 C47 1.497 . S
C34 C33 1.380 . S
C34 C35 1.383 . S
C34 C37 1.603 . S
C35 C30 1.377 . S
C35 C34 1.383 . S
C35 H98 0.929 . S
C36 C32 1.527 . S
C36 H99 0.961 . S
C36 H100 0.959 . S
C36 H101 0.959 . S
C37 C34 1.603 . S
C37 H102 0.960 . S
C37 H103 0.962 . S
C37 H104 0.961 . S
C38 C5 1.587 . S
C38 C39 1.360 . S
C38 C51 1.412 . S
C39 C38 1.360 . S
C39 C40 1.365 . S
C39 H105 0.929 . S
C40 C15 1.553 . S
C40 C39 1.365 . S
C40 C41 1.404 . S
C41 C40 1.404 . S
C41 C42 1.395 . S
C41 C52 1.451 . S
C42 C41 1.395 . S
C42 C43 1.322 . S
C42 H106 0.930 . S
C43 C42 1.322 . S
C43 C44 1.459 . S
C43 H107 0.929 . S
C44 C43 1.459 . S
C44 C45 1.445 . S
C44 C53 1.395 . S
C45 C23 1.432 . S
C45 C44 1.445 . S
C45 C46 1.370 . S
C46 C45 1.370 . S
C46 C47 1.438 . S
C46 H108 0.930 . S
C47 C33 1.497 . S
C47 C46 1.438 . S
C47 C48 1.360 . S
C48 C47 1.360 . S
C48 C49 1.401 . S
C48 C53 1.446 . S
C49 C48 1.401 . S
C49 C50 1.347 . S
C49 H109 0.929 . S
C50 C49 1.347 . S
C50 C51 1.455 . S
C50 H110 0.930 . S
C51 C38 1.412 . S
C51 C50 1.455 . S
C51 C52 1.331 . S
C52 C41 1.451 . S
C52 C51 1.331 . S
C52 C53 1.497 . S
C53 C44 1.395 . S
C53 C48 1.446 . S
C53 C52 1.497 . S
C54 C55 1.582 . S
C54 H111 0.962 . S
C54 H112 0.959 . S
C54 H113 0.958 . S
C55 C54 1.582 . S
C55 O58 1.458 . S
C55 H84 0.980 1_556 S
O56 C1 1.426 . S
O56 C2 1.334 . S
O57 C29 1.412 . S
O57 C30 1.393 1_556 S
O58 C20 1.435 1_556 S
O58 C55 1.458 . S
O59 C11 1.468 . S
O59 C12 1.408 . S
H60 C1 0.980 . S
H61 C0 0.959 . S
H62 C0 0.959 . S
H63 C0 0.960 . S
H64 C3 0.929 . S
H65 C7 0.929 . S
H66 C8 0.959 . S
H67 C8 0.961 . S
H68 C8 0.961 . S
H69 C9 0.960 . S
H70 C9 0.960 . S
H71 C9 0.961 . S
H72 C11 0.980 . S
H73 C10 0.961 . S
H74 C10 0.960 . S
H75 C10 0.959 . S
H76 C13 0.930 . S
H77 C17 0.931 . S
H78 C18 0.959 . S
H79 C18 0.961 . S
H80 C18 0.959 . S
H81 C19 0.960 . S
H82 C19 0.960 . S
H83 C19 0.960 . S
H84 C55 0.980 1_554 S
H85 C21 0.930 . S
H86 C25 0.930 1_556 S
H87 C26 0.961 . S
H88 C26 0.960 . S
H89 C26 0.958 . S
H90 C27 0.961 . S
H91 C27 0.960 . S
H92 C27 0.960 . S
H93 C29 0.980 . S
H94 C28 0.961 . S
H95 C28 0.961 . S
H96 C28 0.959 . S
H97 C31 0.932 . S
H98 C35 0.929 . S
H99 C36 0.961 . S
H100 C36 0.959 . S
H101 C36 0.959 . S
H102 C37 0.960 . S
H103 C37 0.962 . S
H104 C37 0.961 . S
H105 C39 0.929 . S
H106 C42 0.930 . S
H107 C43 0.929 . S
H108 C46 0.930 . S
H109 C49 0.929 . S
H110 C50 0.930 . S
H111 C54 0.962 . S
H112 C54 0.959 . S
H113 C54 0.958 . S
C114 C115 1.560 . S
C114 H175 0.959 . S
C114 H176 0.959 . S
C114 H177 0.960 . S
C115 C114 1.560 . S
C115 O170 1.426 . S
C115 H174 0.980 . S
C116 C117 1.407 . S
C116 C121 1.418 . S
C116 O170 1.334 . S
C117 C116 1.407 . S
C117 C118 1.360 . S
C117 H178 0.929 . S
C118 C117 1.360 . S
C118 C119 1.401 . S
C118 C122 1.527 . S
C119 C118 1.401 . S
C119 C120 1.405 . S
C119 C152 1.587 . S
C120 C119 1.405 . S
C120 C121 1.332 . S
C120 C123 1.496 . S
C121 C116 1.418 . S
C121 C120 1.332 . S
C121 H179 0.929 . S
C122 C118 1.527 . S
C122 H180 0.959 . S
C122 H181 0.961 . S
C122 H182 0.961 . S
C123 C120 1.496 . S
C123 H183 0.960 . S
C123 H184 0.960 . S
C123 H185 0.961 . S
C124 C125 1.517 . S
C124 H187 0.961 . S
C124 H188 0.960 . S
C124 H189 0.959 . S
C125 C124 1.517 . S
C125 O173 1.468 . S
C125 H186 0.980 . S
C126 C127 1.349 . S
C126 C131 1.367 . S
C126 O173 1.408 . S
C127 C126 1.349 . S
C127 C128 1.407 . S
C127 H190 0.930 . S
C128 C127 1.407 . S
C128 C129 1.449 . S
C128 C132 1.535 . S
C129 C128 1.449 . S
C129 C130 1.384 . S
C129 C154 1.553 . S
C130 C129 1.384 . S
C130 C131 1.364 . S
C130 C133 1.450 . S
C131 C126 1.367 . S
C131 C130 1.364 . S
C131 H191 0.931 . S
C132 C128 1.535 . S
C132 H192 0.959 . S
C132 H193 0.961 . S
C132 H194 0.959 . S
C133 C130 1.450 . S
C133 H195 0.960 . S
C133 H196 0.960 . S
C133 H197 0.960 . S
C134 C135 1.309 . S
C134 C139 1.304 . S
C134 O172 1.435 . S
C135 C134 1.309 . S
C135 C136 1.476 . S
C135 H199 0.930 . S
C136 C135 1.476 . S
C136 C137 1.400 . S
C136 C140 1.567 . S
C137 C136 1.400 . S
C137 C138 1.373 . S
C137 C159 1.432 1_556 S
C138 C137 1.373 . S
C138 C139 1.339 . S
C138 C141 1.530 . S
C139 C134 1.304 . S
C139 C138 1.339 . S
C139 H200 0.930 . S
C140 C136 1.567 . S
C140 H201 0.961 1_556 S
C140 H202 0.960 . S
C140 H203 0.958 . S
C141 C138 1.530 . S
C141 H204 0.961 . S
C141 H205 0.960 1_556 S
C141 H206 0.960 . S
C142 C143 1.530 . S
C142 H208 0.961 . S
C142 H209 0.961 . S
C142 H210 0.959 . S
C143 C142 1.530 . S
C143 O171 1.412 . S
C143 H207 0.980 . S
C144 C145 1.288 . S
C144 C149 1.377 . S
C144 O171 1.393 . S
C145 C144 1.288 . S
C145 C146 1.369 . S
C145 H211 0.932 . S
C146 C145 1.369 . S
C146 C147 1.398 . S
C146 C150 1.527 . S
C147 C146 1.398 . S
C147 C148 1.380 . S
C147 C161 1.497 1_556 S
C148 C147 1.380 . S
C148 C149 1.383 . S
C148 C151 1.603 . S
C149 C144 1.377 . S
C149 C148 1.383 . S
C149 H212 0.929 . S
C150 C146 1.527 . S
C150 H213 0.961 1_556 S
C150 H214 0.959 . S
C150 H215 0.959 . S
C151 C148 1.603 . S
C151 H216 0.960 . S
C151 H217 0.962 . S
C151 H218 0.961 1_556 S
C152 C119 1.587 . S
C152 C153 1.360 . S
C152 C165 1.412 . S
C153 C152 1.360 . S
C153 C154 1.365 . S
C153 H219 0.929 . S
C154 C129 1.553 . S
C154 C153 1.365 . S
C154 C155 1.404 . S
C155 C154 1.404 . S
C155 C156 1.395 . S
C155 C166 1.451 . S
C156 C155 1.395 . S
C156 C157 1.322 . S
C156 H220 0.930 . S
C157 C156 1.322 . S
C157 C158 1.459 . S
C157 H221 0.929 . S
C158 C157 1.459 . S
C158 C159 1.445 . S
C158 C167 1.395 . S
C159 C137 1.432 1_554 S
C159 C158 1.445 . S
C159 C160 1.370 1_554 S
C160 C159 1.370 1_556 S
C160 C161 1.438 1_556 S
C160 H222 0.930 . S
C161 C147 1.497 1_554 S
C161 C160 1.438 1_554 S
C161 C162 1.360 . S
C162 C161 1.360 . S
C162 C163 1.401 . S
C162 C167 1.446 . S
C163 C162 1.401 . S
C163 C164 1.347 . S
C163 H223 0.929 . S
C164 C163 1.347 . S
C164 C165 1.455 . S
C164 H224 0.930 . S
C165 C152 1.412 . S
C165 C164 1.455 . S
C165 C166 1.331 . S
C166 C155 1.451 . S
C166 C165 1.331 . S
C166 C167 1.497 . S
C167 C158 1.395 . S
C167 C162 1.446 . S
C167 C166 1.497 . S
C168 C169 1.582 . S
C168 H225 0.962 . S
C168 H226 0.959 . S
C168 H227 0.958 . S
C169 C168 1.582 . S
C169 O172 1.458 . S
C169 H198 0.980 . S
O170 C115 1.426 . S
O170 C116 1.334 . S
O171 C143 1.412 . S
O171 C144 1.393 . S
O172 C134 1.435 . S
O172 C169 1.458 . S
O173 C125 1.468 . S
O173 C126 1.408 . S
H174 C115 0.980 . S
H175 C114 0.959 . S
H176 C114 0.959 . S
H177 C114 0.960 . S
H178 C117 0.929 . S
H179 C121 0.929 . S
H180 C122 0.959 . S
H181 C122 0.961 . S
H182 C122 0.961 . S
H183 C123 0.960 . S
H184 C123 0.960 . S
H185 C123 0.961 . S
H186 C125 0.980 . S
H187 C124 0.961 . S
H188 C124 0.960 . S
H189 C124 0.959 . S
H190 C127 0.930 . S
H191 C131 0.931 . S
H192 C132 0.959 . S
H193 C132 0.961 . S
H194 C132 0.959 . S
H195 C133 0.960 . S
H196 C133 0.960 . S
H197 C133 0.960 . S
H198 C169 0.980 . S
H199 C135 0.930 . S
H200 C139 0.930 . S
H201 C140 0.961 1_554 S
H202 C140 0.960 . S
H203 C140 0.958 . S
H204 C141 0.961 . S
H205 C141 0.960 1_554 S
H206 C141 0.960 . S
H207 C143 0.980 . S
H208 C142 0.961 . S
H209 C142 0.961 . S
H210 C142 0.959 . S
H211 C145 0.932 . S
H212 C149 0.929 . S
H213 C150 0.961 1_554 S
H214 C150 0.959 . S
H215 C150 0.959 . S
H216 C151 0.960 . S
H217 C151 0.962 . S
H218 C151 0.961 1_554 S
H219 C153 0.929 . S
H220 C156 0.930 . S
H221 C157 0.929 . S
H222 C160 0.930 . S
H223 C163 0.929 . S
H224 C164 0.930 . S
H225 C168 0.962 . S
H226 C168 0.959 . S
H227 C168 0.958 . S
C228 C229 1.560 . S
C228 H289 0.959 . S
C228 H290 0.959 . S
C228 H291 0.960 . S
C229 C228 1.560 . S
C229 O284 1.426 . S
C229 H288 0.980 . S
C230 C231 1.407 . S
C230 C235 1.418 . S
C230 O284 1.334 . S
C231 C230 1.407 . S
C231 C232 1.360 . S
C231 H292 0.929 . S
C232 C231 1.360 . S
C232 C233 1.401 . S
C232 C236 1.527 . S
C233 C232 1.401 . S
C233 C234 1.405 . S
C233 C266 1.587 . S
C234 C233 1.405 . S
C234 C235 1.332 . S
C234 C237 1.496 . S
C235 C230 1.418 . S
C235 C234 1.332 . S
C235 H293 0.929 . S
C236 C232 1.527 . S
C236 H294 0.959 . S
C236 H295 0.961 . S
C236 H296 0.961 . S
C237 C234 1.496 . S
C237 H297 0.960 . S
C237 H298 0.960 . S
C237 H299 0.961 . S
C238 C239 1.517 . S
C238 H301 0.961 . S
C238 H302 0.960 . S
C238 H303 0.959 . S
C239 C238 1.517 . S
C239 O287 1.468 . S
C239 H300 0.980 . S
C240 C241 1.349 . S
C240 C245 1.367 . S
C240 O287 1.408 . S
C241 C240 1.349 . S
C241 C242 1.407 . S
C241 H304 0.930 . S
C242 C241 1.407 . S
C242 C243 1.449 . S
C242 C246 1.535 . S
C243 C242 1.449 . S
C243 C244 1.384 . S
C243 C268 1.553 . S
C244 C243 1.384 . S
C244 C245 1.364 . S
C244 C247 1.450 . S
C245 C240 1.367 . S
C245 C244 1.364 . S
C245 H305 0.931 . S
C246 C242 1.535 . S
C246 H306 0.959 . S
C246 H307 0.961 . S
C246 H308 0.959 . S
C247 C244 1.450 . S
C247 H309 0.960 . S
C247 H310 0.960 . S
C247 H311 0.960 . S
C248 C249 1.309 . S
C248 C253 1.304 . S
C248 O286 1.435 . S
C249 C248 1.309 . S
C249 C250 1.476 . S
C249 H313 0.930 . S
C250 C249 1.476 . S
C250 C251 1.400 . S
C250 C254 1.567 . S
C251 C250 1.400 . S
C251 C252 1.373 . S
C251 C273 1.432 . S
C252 C251 1.373 . S
C252 C253 1.339 . S
C252 C255 1.530 . S
C253 C248 1.304 . S
C253 C252 1.339 . S
C253 H314 0.930 . S
C254 C250 1.567 . S
C254 H315 0.961 . S
C254 H316 0.960 . S
C254 H317 0.958 . S
C255 C252 1.530 . S
C255 H318 0.961 . S
C255 H319 0.960 . S
C255 H320 0.960 . S
C256 C257 1.530 . S
C256 H322 0.961 . S
C256 H323 0.961 . S
C256 H324 0.959 . S
C257 C256 1.530 . S
C257 O285 1.412 . S
C257 H321 0.980 . S
C258 C259 1.288 . S
C258 C263 1.377 . S
C258 O285 1.393 . S
C259 C258 1.288 . S
C259 C260 1.369 . S
C259 H325 0.932 . S
C260 C259 1.369 . S
C260 C261 1.398 . S
C260 C264 1.527 . S
C261 C260 1.398 . S
C261 C262 1.380 . S
C261 C275 1.497 . S
C262 C261 1.380 . S
C262 C263 1.383 . S
C262 C265 1.603 . S
C263 C258 1.377 . S
C263 C262 1.383 . S
C263 H326 0.929 . S
C264 C260 1.527 . S
C264 H327 0.961 . S
C264 H328 0.959 . S
C264 H329 0.959 . S
C265 C262 1.603 . S
C265 H330 0.960 . S
C265 H331 0.962 . S
C265 H332 0.961 . S
C266 C233 1.587 . S
C266 C267 1.360 . S
C266 C279 1.412 . S
C267 C266 1.360 . S
C267 C268 1.365 . S
C267 H333 0.929 . S
C268 C243 1.553 . S
C268 C267 1.365 . S
C268 C269 1.404 . S
C269 C268 1.404 . S
C269 C270 1.395 . S
C269 C280 1.451 . S
C270 C269 1.395 . S
C270 C271 1.322 . S
C270 H334 0.930 . S
C271 C270 1.322 . S
C271 C272 1.459 . S
C271 H335 0.929 . S
C272 C271 1.459 . S
C272 C273 1.445 1_554 S
C272 C281 1.395 . S
C273 C251 1.432 . S
C273 C272 1.445 1_556 S
C273 C274 1.370 . S
C274 C273 1.370 . S
C274 C275 1.438 . S
C274 H336 0.930 . S
C275 C261 1.497 . S
C275 C274 1.438 . S
C275 C276 1.362 . S
C276 C275 1.362 . S
C276 C277 1.400 1_556 S
C276 C281 1.444 1_556 S
C277 C276 1.400 1_554 S
C277 C278 1.347 . S
C277 H337 0.929 . S
C278 C277 1.347 . S
C278 C279 1.455 . S
C278 H338 0.930 . S
C279 C266 1.412 . S
C279 C278 1.455 . S
C279 C280 1.331 . S
C280 C269 1.451 . S
C280 C279 1.331 . S
C280 C281 1.497 . S
C281 C272 1.395 . S
C281 C276 1.444 1_554 S
C281 C280 1.497 . S
C282 C283 1.582 . S
C282 H339 0.962 . S
C282 H340 0.959 . S
C282 H341 0.958 . S
C283 C282 1.582 . S
C283 O286 1.458 . S
C283 H312 0.980 . S
O284 C229 1.426 . S
O284 C230 1.334 . S
O285 C257 1.412 . S
O285 C258 1.393 . S
O286 C248 1.435 . S
O286 C283 1.458 . S
O287 C239 1.468 . S
O287 C240 1.408 . S
H288 C229 0.980 . S
H289 C228 0.959 . S
H290 C228 0.959 . S
H291 C228 0.960 . S
H292 C231 0.929 . S
H293 C235 0.929 . S
H294 C236 0.959 . S
H295 C236 0.961 . S
H296 C236 0.961 . S
H297 C237 0.960 . S
H298 C237 0.960 . S
H299 C237 0.961 . S
H300 C239 0.980 . S
H301 C238 0.961 . S
H302 C238 0.960 . S
H303 C238 0.959 . S
H304 C241 0.930 . S
H305 C245 0.931 . S
H306 C246 0.959 . S
H307 C246 0.961 . S
H308 C246 0.959 . S
H309 C247 0.960 . S
H310 C247 0.960 . S
H311 C247 0.960 . S
H312 C283 0.980 . S
H313 C249 0.930 . S
H314 C253 0.930 . S
H315 C254 0.961 . S
H316 C254 0.960 . S
H317 C254 0.958 . S
H318 C255 0.961 . S
H319 C255 0.960 . S
H320 C255 0.960 . S
H321 C257 0.980 . S
H322 C256 0.961 . S
H323 C256 0.961 . S
H324 C256 0.959 . S
H325 C259 0.932 . S
H326 C263 0.929 . S
H327 C264 0.961 . S
H328 C264 0.959 . S
H329 C264 0.959 . S
H330 C265 0.960 . S
H331 C265 0.962 . S
H332 C265 0.961 . S
H333 C267 0.929 . S
H334 C270 0.930 . S
H335 C271 0.929 . S
H336 C274 0.930 . S
H337 C277 0.929 . S
H338 C278 0.930 . S
H339 C282 0.962 . S
H340 C282 0.959 . S
H341 C282 0.958 . S
C342 C343 1.560 . S
C342 H403 0.959 . S
C342 H404 0.959 . S
C342 H405 0.960 . S
C343 C342 1.560 . S
C343 O398 1.426 . S
C343 H402 0.980 . S
C344 C345 1.407 . S
C344 C349 1.418 . S
C344 O398 1.334 . S
C345 C344 1.407 . S
C345 C346 1.360 . S
C345 H406 0.929 . S
C346 C345 1.360 . S
C346 C347 1.401 . S
C346 C350 1.527 . S
C347 C346 1.401 . S
C347 C348 1.405 . S
C347 C380 1.587 . S
C348 C347 1.405 . S
C348 C349 1.332 . S
C348 C351 1.496 . S
C349 C344 1.418 . S
C349 C348 1.332 . S
C349 H407 0.929 . S
C350 C346 1.527 . S
C350 H408 0.959 . S
C350 H409 0.961 . S
C350 H410 0.961 . S
C351 C348 1.496 . S
C351 H411 0.960 . S
C351 H412 0.960 . S
C351 H413 0.961 . S
C352 C353 1.517 . S
C352 H415 0.961 . S
C352 H416 0.960 . S
C352 H417 0.959 . S
C353 C352 1.517 . S
C353 O401 1.468 . S
C353 H414 0.980 . S
C354 C355 1.349 . S
C354 C359 1.367 . S
C354 O401 1.408 . S
C355 C354 1.349 . S
C355 C356 1.407 . S
C355 H418 0.930 . S
C356 C355 1.407 . S
C356 C357 1.449 . S
C356 C360 1.535 . S
C357 C356 1.449 . S
C357 C358 1.384 . S
C357 C382 1.553 . S
C358 C357 1.384 . S
C358 C359 1.364 . S
C358 C361 1.450 . S
C359 C354 1.367 . S
C359 C358 1.364 . S
C359 H419 0.931 . S
C360 C356 1.535 . S
C360 H420 0.959 . S
C360 H421 0.961 . S
C360 H422 0.959 . S
C361 C358 1.450 . S
C361 H423 0.960 . S
C361 H424 0.960 . S
C361 H425 0.960 . S
C362 C363 1.309 . S
C362 C367 1.304 . S
C362 O400 1.435 . S
C363 C362 1.309 . S
C363 C364 1.476 . S
C363 H427 0.930 . S
C364 C363 1.476 . S
C364 C365 1.400 . S
C364 C368 1.567 . S
C365 C364 1.400 . S
C365 C366 1.373 . S
C365 C387 1.432 . S
C366 C365 1.373 . S
C366 C367 1.339 . S
C366 C369 1.530 . S
C367 C362 1.304 . S
C367 C366 1.339 . S
C367 H428 0.930 . S
C368 C364 1.567 . S
C368 H429 0.961 . S
C368 H430 0.960 . S
C368 H431 0.958 . S
C369 C366 1.530 . S
C369 H432 0.961 . S
C369 H433 0.960 . S
C369 H434 0.960 . S
C370 C371 1.530 . S
C370 H436 0.961 . S
C370 H437 0.961 . S
C370 H438 0.959 . S
C371 C370 1.530 . S
C371 O399 1.412 . S
C371 H435 0.980 . S
C372 C373 1.288 . S
C372 C377 1.377 . S
C372 O399 1.393 . S
C373 C372 1.288 . S
C373 C374 1.369 . S
C373 H439 0.932 . S
C374 C373 1.369 . S
C374 C375 1.398 . S
C374 C378 1.527 . S
C375 C374 1.398 . S
C375 C376 1.380 . S
C375 C389 1.497 . S
C376 C375 1.380 . S
C376 C377 1.383 . S
C376 C379 1.603 . S
C377 C372 1.377 . S
C377 C376 1.383 . S
C377 H440 0.929 . S
C378 C374 1.527 . S
C378 H441 0.961 . S
C378 H442 0.959 . S
C378 H443 0.959 . S
C379 C376 1.603 . S
C379 H444 0.960 . S
C379 H445 0.962 . S
C379 H446 0.961 . S
C380 C347 1.587 . S
C380 C381 1.360 . S
C380 C393 1.412 . S
C381 C380 1.360 . S
C381 C382 1.365 . S
C381 H447 0.929 . S
C382 C357 1.553 . S
C382 C381 1.365 . S
C382 C383 1.404 . S
C383 C382 1.404 . S
C383 C384 1.395 . S
C383 C394 1.451 . S
C384 C383 1.395 . S
C384 C385 1.322 . S
C384 H448 0.930 . S
C385 C384 1.322 . S
C385 C386 1.459 1_554 S
C385 H449 0.931 . S
C386 C385 1.459 1_556 S
C386 C387 1.445 . S
C386 C395 1.395 1_556 S
C387 C365 1.432 . S
C387 C386 1.445 . S
C387 C388 1.370 . S
C388 C387 1.370 . S
C388 C389 1.438 . S
C388 H450 0.930 . S
C389 C375 1.497 . S
C389 C388 1.438 . S
C389 C390 1.360 . S
C390 C389 1.360 . S
C390 C391 1.401 1_556 S
C390 C395 1.446 1_556 S
C391 C390 1.401 1_554 S
C391 C392 1.347 . S
C391 H451 0.929 . S
C392 C391 1.347 . S
C392 C393 1.455 . S
C392 H452 0.930 . S
C393 C380 1.412 . S
C393 C392 1.455 . S
C393 C394 1.331 . S
C394 C383 1.451 . S
C394 C393 1.331 . S
C394 C395 1.497 . S
C395 C386 1.395 1_554 S
C395 C390 1.446 1_554 S
C395 C394 1.497 . S
C396 C397 1.582 . S
C396 H453 0.962 . S
C396 H454 0.959 . S
C396 H455 0.958 . S
C397 C396 1.582 . S
C397 O400 1.458 . S
C397 H426 0.980 . S
O398 C343 1.426 . S
O398 C344 1.334 . S
O399 C371 1.412 . S
O399 C372 1.393 . S
O400 C362 1.435 . S
O400 C397 1.458 . S
O401 C353 1.468 . S
O401 C354 1.408 . S
H402 C343 0.980 . S
H403 C342 0.959 . S
H404 C342 0.959 . S
H405 C342 0.960 . S
H406 C345 0.929 . S
H407 C349 0.929 . S
H408 C350 0.959 . S
H409 C350 0.961 . S
H410 C350 0.961 . S
H411 C351 0.960 . S
H412 C351 0.960 . S
H413 C351 0.961 . S
H414 C353 0.980 . S
H415 C352 0.961 . S
H416 C352 0.960 . S
H417 C352 0.959 . S
H418 C355 0.930 . S
H419 C359 0.931 . S
H420 C360 0.959 . S
H421 C360 0.961 . S
H422 C360 0.959 . S
H423 C361 0.960 . S
H424 C361 0.960 . S
H425 C361 0.960 . S
H426 C397 0.980 . S
H427 C363 0.930 . S
H428 C367 0.930 . S
H429 C368 0.961 . S
H430 C368 0.960 . S
H431 C368 0.958 . S
H432 C369 0.961 . S
H433 C369 0.960 . S
H434 C369 0.960 . S
H435 C371 0.980 . S
H436 C370 0.961 . S
H437 C370 0.961 . S
H438 C370 0.959 . S
H439 C373 0.932 . S
H440 C377 0.929 . S
H441 C378 0.961 . S
H442 C378 0.959 . S
H443 C378 0.959 . S
H444 C379 0.960 . S
H445 C379 0.962 . S
H446 C379 0.961 . S
H447 C381 0.929 . S
H448 C384 0.930 . S
H449 C385 0.931 . S
H450 C388 0.930 . S
H451 C391 0.929 . S
H452 C392 0.930 . S
H453 C396 0.962 . S
H454 C396 0.959 . S
H455 C396 0.958 . S
C456 C457 1.560 . S
C456 H517 0.959 . S
C456 H518 0.959 . S
C456 H519 0.960 . S
C457 C456 1.560 . S
C457 O512 1.426 . S
C457 H516 0.980 . S
C458 C459 1.407 . S
C458 C463 1.418 . S
C458 O512 1.334 . S
C459 C458 1.407 . S
C459 C460 1.360 . S
C459 H520 0.929 . S
C460 C459 1.360 . S
C460 C461 1.401 . S
C460 C464 1.527 . S
C461 C460 1.401 . S
C461 C462 1.405 . S
C461 C494 1.593 . S
C462 C461 1.405 . S
C462 C463 1.332 . S
C462 C465 1.496 . S
C463 C458 1.418 . S
C463 C462 1.332 . S
C463 H521 0.929 . S
C464 C460 1.527 . S
C464 H522 0.959 . S
C464 H523 0.961 . S
C464 H524 0.961 . S
C465 C462 1.496 . S
C465 H525 0.960 . S
C465 H526 0.960 . S
C465 H527 0.961 1_556 S
C466 C467 1.517 . S
C466 H529 0.961 . S
C466 H530 0.960 . S
C466 H531 0.959 . S
C467 C466 1.517 . S
C467 O515 1.468 . S
C467 H528 0.980 . S
C468 C469 1.349 . S
C468 C473 1.367 . S
C468 O515 1.408 . S
C469 C468 1.349 . S
C469 C470 1.407 . S
C469 H532 0.930 . S
C470 C469 1.407 . S
C470 C471 1.449 . S
C470 C474 1.535 . S
C471 C470 1.449 . S
C471 C472 1.384 . S
C471 C496 1.553 . S
C472 C471 1.384 . S
C472 C473 1.364 . S
C472 C475 1.450 . S
C473 C468 1.367 . S
C473 C472 1.364 . S
C473 H533 0.931 . S
C474 C470 1.535 . S
C474 H534 0.959 . S
C474 H535 0.961 . S
C474 H536 0.959 . S
C475 C472 1.450 . S
C475 H537 0.960 . S
C475 H538 0.960 . S
C475 H539 0.960 1_556 S
C476 C477 1.309 . S
C476 C481 1.304 . S
C476 O514 1.435 . S
C477 C476 1.309 . S
C477 C478 1.476 . S
C477 H541 0.930 . S
C478 C477 1.476 . S
C478 C479 1.400 . S
C478 C482 1.567 . S
C479 C478 1.400 . S
C479 C480 1.373 . S
C479 C501 1.432 . S
C480 C479 1.373 . S
C480 C481 1.339 . S
C480 C483 1.530 . S
C481 C476 1.304 . S
C481 C480 1.339 . S
C481 H542 0.930 . S
C482 C478 1.567 . S
C482 H543 0.961 . S
C482 H544 0.960 . S
C482 H545 0.958 . S
C483 C480 1.530 . S
C483 H546 0.961 . S
C483 H547 0.960 . S
C483 H548 0.960 . S
C484 C485 1.530 . S
C484 H550 0.961 . S
C484 H551 0.961 . S
C484 H552 0.959 . S
C485 C484 1.530 . S
C485 O513 1.412 . S
C485 H549 0.980 . S
C486 C487 1.288 . S
C486 C491 1.377 . S
C486 O513 1.393 . S
C487 C486 1.288 . S
C487 C488 1.369 . S
C487 H553 0.932 . S
C488 C487 1.369 . S
C488 C489 1.398 . S
C488 C492 1.527 . S
C489 C488 1.398 . S
C489 C490 1.380 . S
C489 C503 1.497 . S
C490 C489 1.380 . S
C490 C491 1.383 . S
C490 C493 1.603 . S
C491 C486 1.377 . S
C491 C490 1.383 . S
C491 H554 0.929 . S
C492 C488 1.527 . S
C492 H555 0.961 . S
C492 H556 0.959 . S
C492 H557 0.959 . S
C493 C490 1.603 . S
C493 H558 0.960 . S
C493 H559 0.962 . S
C493 H560 0.961 . S
C494 C461 1.593 . S
C494 C495 1.366 . S
C494 C507 1.399 1_556 S
C495 C494 1.366 . S
C495 C496 1.365 . S
C495 H561 0.929 . S
C496 C471 1.553 . S
C496 C495 1.365 . S
C496 C497 1.404 1_556 S
C497 C496 1.404 1_554 S
C497 C498 1.395 . S
C497 C508 1.451 . S
C498 C497 1.395 . S
C498 C499 1.322 . S
C498 H562 0.930 . S
C499 C498 1.322 . S
C499 C500 1.459 . S
C499 H563 0.929 . S
C500 C499 1.459 . S
C500 C501 1.445 . S
C500 C509 1.395 . S
C501 C479 1.432 . S
C501 C500 1.445 . S
C501 C502 1.370 . S
C502 C501 1.370 . S
C502 C503 1.438 . S
C502 H564 0.930 . S
C503 C489 1.497 . S
C503 C502 1.438 . S
C503 C504 1.360 . S
C504 C503 1.360 . S
C504 C505 1.401 . S
C504 C509 1.446 . S
C505 C504 1.401 . S
C505 C506 1.347 . S
C505 H565 0.929 . S
C506 C505 1.347 . S
C506 C507 1.455 . S
C506 H566 0.930 . S
C507 C494 1.399 1_554 S
C507 C506 1.455 . S
C507 C508 1.331 . S
C508 C497 1.451 . S
C508 C507 1.331 . S
C508 C509 1.497 . S
C509 C500 1.395 . S
C509 C504 1.446 . S
C509 C508 1.497 . S
C510 C511 1.582 . S
C510 H567 0.962 . S
C510 H568 0.959 . S
C510 H569 0.958 . S
C511 C510 1.582 . S
C511 O514 1.458 . S
C511 H540 0.980 . S
O512 C457 1.426 . S
O512 C458 1.334 . S
O513 C485 1.412 . S
O513 C486 1.393 . S
O514 C476 1.435 . S
O514 C511 1.458 . S
O515 C467 1.468 . S
O515 C468 1.408 . S
H516 C457 0.980 . S
H517 C456 0.959 . S
H518 C456 0.959 . S
H519 C456 0.960 . S
H520 C459 0.929 . S
H521 C463 0.929 . S
H522 C464 0.959 . S
H523 C464 0.961 . S
H524 C464 0.961 . S
H525 C465 0.960 . S
H526 C465 0.960 . S
H527 C465 0.961 1_554 S
H528 C467 0.980 . S
H529 C466 0.961 . S
H530 C466 0.960 . S
H531 C466 0.959 . S
H532 C469 0.930 . S
H533 C473 0.931 . S
H534 C474 0.959 . S
H535 C474 0.961 . S
H536 C474 0.959 . S
H537 C475 0.960 . S
H538 C475 0.960 . S
H539 C475 0.960 1_554 S
H540 C511 0.980 . S
H541 C477 0.930 . S
H542 C481 0.930 . S
H543 C482 0.961 . S
H544 C482 0.960 . S
H545 C482 0.958 . S
H546 C483 0.961 . S
H547 C483 0.960 . S
H548 C483 0.960 . S
H549 C485 0.980 . S
H550 C484 0.961 . S
H551 C484 0.961 . S
H552 C484 0.959 . S
H553 C487 0.932 . S
H554 C491 0.929 . S
H555 C492 0.961 . S
H556 C492 0.959 . S
H557 C492 0.959 . S
H558 C493 0.960 . S
H559 C493 0.962 . S
H560 C493 0.961 . S
H561 C495 0.929 . S
H562 C498 0.930 . S
H563 C499 0.929 . S
H564 C502 0.930 . S
H565 C505 0.929 . S
H566 C506 0.930 . S
H567 C510 0.962 . S
H568 C510 0.959 . S
H569 C510 0.958 . S
C570 C571 1.560 . S
C570 H631 0.959 . S
C570 H632 0.959 . S
C570 H633 0.960 . S
C571 C570 1.560 . S
C571 O626 1.426 . S
C571 H630 0.980 . S
C572 C573 1.407 . S
C572 C577 1.418 . S
C572 O626 1.334 . S
C573 C572 1.407 . S
C573 C574 1.360 . S
C573 H634 0.929 . S
C574 C573 1.360 . S
C574 C575 1.401 . S
C574 C578 1.527 . S
C575 C574 1.401 . S
C575 C576 1.405 . S
C575 C608 1.587 . S
C576 C575 1.405 . S
C576 C577 1.332 . S
C576 C579 1.496 . S
C577 C572 1.418 . S
C577 C576 1.332 . S
C577 H635 0.929 . S
C578 C574 1.527 . S
C578 H636 0.959 . S
C578 H637 0.961 . S
C578 H638 0.961 . S
C579 C576 1.496 . S
C579 H639 0.960 . S
C579 H640 0.960 . S
C579 H641 0.961 . S
C580 C581 1.517 . S
C580 H643 0.961 . S
C580 H644 0.960 . S
C580 H645 0.959 . S
C581 C580 1.517 . S
C581 O629 1.468 . S
C581 H642 0.980 . S
C582 C583 1.349 . S
C582 C587 1.367 . S
C582 O629 1.408 . S
C583 C582 1.349 . S
C583 C584 1.407 . S
C583 H646 0.930 . S
C584 C583 1.407 . S
C584 C585 1.449 . S
C584 C588 1.535 . S
C585 C584 1.449 . S
C585 C586 1.384 . S
C585 C610 1.553 . S
C586 C585 1.384 . S
C586 C587 1.364 . S
C586 C589 1.450 . S
C587 C582 1.367 . S
C587 C586 1.364 . S
C587 H647 0.931 . S
C588 C584 1.535 . S
C588 H648 0.959 . S
C588 H649 0.961 . S
C588 H650 0.959 . S
C589 C586 1.450 . S
C589 H651 0.960 . S
C589 H652 0.960 . S
C589 H653 0.960 . S
C590 C591 1.309 1_556 S
C590 C595 1.304 1_556 S
C590 O628 1.435 . S
C591 C590 1.309 1_554 S
C591 C592 1.476 . S
C591 H655 0.930 1_554 S
C592 C591 1.476 . S
C592 C593 1.400 . S
C592 C596 1.567 . S
C593 C592 1.400 . S
C593 C594 1.373 . S
C593 C615 1.432 . S
C594 C593 1.373 . S
C594 C595 1.339 . S
C594 C597 1.530 . S
C595 C590 1.304 1_554 S
C595 C594 1.339 . S
C595 H656 0.930 1_554 S
C596 C592 1.567 . S
C596 H657 0.961 . S
C596 H658 0.960 . S
C596 H659 0.958 . S
C597 C594 1.530 . S
C597 H660 0.961 . S
C597 H661 0.960 . S
C597 H662 0.960 . S
C598 C599 1.530 . S
C598 H664 0.961 . S
C598 H665 0.961 . S
C598 H666 0.959 . S
C599 C598 1.530 . S
C599 O627 1.412 . S
C599 H663 0.980 . S
C600 C601 1.288 . S
C600 C605 1.374 1_556 S
C600 O627 1.393 . S
C601 C600 1.288 . S
C601 C602 1.369 1_556 S
C601 H667 0.932 . S
C602 C601 1.369 1_554 S
C602 C603 1.398 . S
C602 C606 1.527 . S
C603 C602 1.398 . S
C603 C604 1.380 . S
C603 C617 1.497 . S
C604 C603 1.380 . S
C604 C605 1.391 . S
C604 C607 1.603 . S
C605 C600 1.374 1_554 S
C605 C604 1.391 . S
C605 H668 0.925 1_554 S
C606 C602 1.527 . S
C606 H669 0.961 . S
C606 H670 0.959 . S
C606 H671 0.959 . S
C607 C604 1.603 . S
C607 H672 0.960 . S
C607 H673 0.962 . S
C607 H674 0.961 . S
C608 C575 1.587 . S
C608 C609 1.360 . S
C608 C621 1.412 . S
C609 C608 1.360 . S
C609 C610 1.365 . S
C609 H675 0.929 . S
C610 C585 1.553 . S
C610 C609 1.365 . S
C610 C611 1.404 . S
C611 C610 1.404 . S
C611 C612 1.395 . S
C611 C622 1.451 . S
C612 C611 1.395 . S
C612 C613 1.322 . S
C612 H676 0.930 . S
C613 C612 1.322 . S
C613 C614 1.459 . S
C613 H677 0.929 . S
C614 C613 1.459 . S
C614 C615 1.445 . S
C614 C623 1.395 . S
C615 C593 1.432 . S
C615 C614 1.445 . S
C615 C616 1.370 . S
C616 C615 1.370 . S
C616 C617 1.438 . S
C616 H678 0.930 . S
C617 C603 1.497 . S
C617 C616 1.438 . S
C617 C618 1.360 . S
C618 C617 1.360 . S
C618 C619 1.401 . S
C618 C623 1.446 . S
C619 C618 1.401 . S
C619 C620 1.347 . S
C619 H679 0.929 . S
C620 C619 1.347 . S
C620 C621 1.455 . S
C620 H680 0.930 . S
C621 C608 1.412 . S
C621 C620 1.455 . S
C621 C622 1.331 . S
C622 C611 1.451 . S
C622 C621 1.331 . S
C622 C623 1.497 . S
C623 C614 1.395 . S
C623 C618 1.446 . S
C623 C622 1.497 . S
C624 C625 1.582 . S
C624 H681 0.962 . S
C624 H682 0.959 . S
C624 H683 0.958 . S
C625 C624 1.582 . S
C625 O628 1.458 . S
C625 H654 0.980 . S
O626 C571 1.426 . S
O626 C572 1.334 . S
O627 C599 1.412 . S
O627 C600 1.393 . S
O628 C590 1.435 . S
O628 C625 1.458 . S
O629 C581 1.468 . S
O629 C582 1.408 . S
H630 C571 0.980 . S
H631 C570 0.959 . S
H632 C570 0.959 . S
H633 C570 0.960 . S
H634 C573 0.929 . S
H635 C577 0.929 . S
H636 C578 0.959 . S
H637 C578 0.961 . S
H638 C578 0.961 . S
H639 C579 0.960 . S
H640 C579 0.960 . S
H641 C579 0.961 . S
H642 C581 0.980 . S
H643 C580 0.961 . S
H644 C580 0.960 . S
H645 C580 0.959 . S
H646 C583 0.930 . S
H647 C587 0.931 . S
H648 C588 0.959 . S
H649 C588 0.961 . S
H650 C588 0.959 . S
H651 C589 0.960 . S
H652 C589 0.960 . S
H653 C589 0.960 . S
H654 C625 0.980 . S
H655 C591 0.930 1_556 S
H656 C595 0.930 1_556 S
H657 C596 0.961 . S
H658 C596 0.960 . S
H659 C596 0.958 . S
H660 C597 0.961 . S
H661 C597 0.960 . S
H662 C597 0.960 . S
H663 C599 0.980 . S
H664 C598 0.961 . S
H665 C598 0.961 . S
H666 C598 0.959 . S
H667 C601 0.932 . S
H668 C605 0.925 1_556 S
H669 C606 0.961 . S
H670 C606 0.959 . S
H671 C606 0.959 . S
H672 C607 0.960 . S
H673 C607 0.962 . S
H674 C607 0.961 . S
H675 C609 0.929 . S
H676 C612 0.930 . S
H677 C613 0.929 . S
H678 C616 0.930 . S
H679 C619 0.929 . S
H680 C620 0.930 . S
H681 C624 0.962 . S
H682 C624 0.959 . S
H683 C624 0.958 . S
C684 O711 1.312 . S
C684 O712 1.208 . S
C685 O706 1.331 . S
C685 O709 1.244 . S
C686 O708 1.264 . S
C686 O710 1.273 . S
Mg687 O689 1.936 1_455 S
Mg687 O696 2.081 1_455 S
Mg687 O698 2.023 . S
Mg687 O702 2.031 1_455 S
Mg687 O711 2.291 . S
Mg688 O689 1.963 . S
Mg688 O699 1.942 . S
Mg688 O700 1.955 1_655 S
Mg688 O707 1.986 . S
O689 Mg687 1.936 1_655 S
O689 Mg688 1.963 . S
O689 Mg690 1.915 1_655 S
Mg690 O689 1.915 1_455 S
Mg690 O691 1.915 . S
Mg690 O695 2.013 . S
Mg690 O701 2.114 1_455 S
Mg690 O705 2.013 1_455 S
Mg690 O711 2.114 . S
O691 Mg690 1.915 . S
O691 Mg692 1.936 . S
O691 Mg693 1.963 . S
Mg692 O691 1.936 . S
Mg692 O701 2.291 1_455 S
Mg692 O706 2.081 . S
Mg692 O708 2.023 1_455 S
Mg692 O712 2.031 . S
Mg693 O691 1.963 . S
Mg693 O697 1.986 . S
Mg693 O709 1.942 . S
Mg693 O710 1.955 1_455 S
C694 O705 1.191 . S
C694 O707 1.307 . S
O695 Mg690 2.013 . S
O695 C714 1.191 . S
O696 Mg687 2.081 1_655 S
O696 C704 1.331 . S
O697 Mg693 1.986 . S
O697 C714 1.307 . S
O698 Mg687 2.023 . S
O698 C713 1.264 . S
O699 Mg688 1.942 . S
O699 C704 1.244 . S
O700 Mg688 1.955 1_455 S
O700 C713 1.273 . S
O701 Mg690 2.114 1_655 S
O701 Mg692 2.291 1_655 S
O701 C703 1.312 . S
O702 Mg687 2.031 1_655 S
O702 C703 1.208 . S
C703 O701 1.312 . S
C703 O702 1.208 . S
C704 O696 1.331 . S
C704 O699 1.244 . S
O705 Mg690 2.013 1_655 S
O705 C694 1.191 . S
O706 C685 1.331 . S
O706 Mg692 2.081 . S
O707 Mg688 1.986 . S
O707 C694 1.307 . S
O708 C686 1.264 . S
O708 Mg692 2.023 1_655 S
O709 C685 1.244 . S
O709 Mg693 1.942 . S
O710 C686 1.273 . S
O710 Mg693 1.955 1_655 S
O711 C684 1.312 . S
O711 Mg687 2.291 . S
O711 Mg690 2.114 . S
O712 C684 1.208 . S
O712 Mg692 2.031 . S
C713 O698 1.264 . S
C713 O700 1.273 . S
C714 O695 1.191 . S
C714 O697 1.307 . S
C715 O742 1.312 . S
C715 O743 1.208 . S
C716 O737 1.331 . S
C716 O740 1.244 . S
C717 O739 1.264 . S
C717 O741 1.273 . S
Mg718 O720 1.966 . S
Mg718 O727 2.081 1_545 S
Mg718 O729 2.023 . S
Mg718 O733 2.031 1_545 S
Mg718 O742 2.291 . S
Mg719 O720 1.957 . S
Mg719 O730 1.942 1_545 S
Mg719 O731 1.955 . S
Mg719 O738 1.986 1_545 S
O720 Mg718 1.966 . S
O720 Mg719 1.957 . S
O720 Mg721 1.912 . S
Mg721 O720 1.912 . S
Mg721 O722 1.915 . S
Mg721 O726 2.013 . S
Mg721 O732 2.114 1_545 S
Mg721 O736 2.013 1_545 S
Mg721 O742 2.114 . S
O722 Mg721 1.915 . S
O722 Mg723 1.936 . S
O722 Mg724 1.963 . S
Mg723 O722 1.936 . S
Mg723 O732 2.291 1_545 S
Mg723 O737 2.081 . S
Mg723 O739 2.023 1_545 S
Mg723 O743 2.031 . S
Mg724 O722 1.963 . S
Mg724 O728 1.986 . S
Mg724 O740 1.942 . S
Mg724 O741 1.955 1_545 S
C725 O736 1.191 . S
C725 O738 1.307 . S
O726 Mg721 2.013 . S
O726 C745 1.191 . S
O727 Mg718 2.081 1_565 S
O727 C735 1.331 . S
O728 Mg724 1.986 . S
O728 C745 1.307 . S
O729 Mg718 2.023 . S
O729 C744 1.264 . S
O730 Mg719 1.942 1_565 S
O730 C735 1.244 . S
O731 Mg719 1.955 . S
O731 C744 1.273 . S
O732 Mg721 2.114 1_565 S
O732 Mg723 2.291 1_565 S
O732 C734 1.312 . S
O733 Mg718 2.031 1_565 S
O733 C734 1.208 . S
C734 O732 1.312 . S
C734 O733 1.208 . S
C735 O727 1.331 . S
C735 O730 1.244 . S
O736 Mg721 2.013 1_565 S
O736 C725 1.191 . S
O737 C716 1.331 . S
O737 Mg723 2.081 . S
O738 Mg719 1.986 1_565 S
O738 C725 1.307 . S
O739 C717 1.264 . S
O739 Mg723 2.023 1_565 S
O740 C716 1.244 . S
O740 Mg724 1.942 . S
O741 C717 1.273 . S
O741 Mg724 1.955 1_565 S
O742 C715 1.312 . S
O742 Mg718 2.291 . S
O742 Mg721 2.114 . S
O743 C715 1.208 . S
O743 Mg723 2.031 . S
C744 O729 1.264 . S
C744 O731 1.273 . S
C745 O726 1.191 . S
C745 O728 1.307 . S
C746 O773 1.312 . S
C746 O774 1.208 . S
C747 O768 1.331 . S
C747 O771 1.244 . S
C748 O770 1.264 . S
C748 O772 1.273 . S
Mg749 O751 1.936 . S
Mg749 O758 2.081 . S
Mg749 O760 2.023 . S
Mg749 O764 2.031 . S
Mg749 O773 2.291 . S
Mg750 O751 1.963 . S
Mg750 O761 1.942 . S
Mg750 O762 1.955 . S
Mg750 O769 1.986 . S
O751 Mg749 1.936 . S
O751 Mg750 1.963 . S
O751 Mg752 1.915 . S
Mg752 O751 1.915 . S
Mg752 O753 1.915 . S
Mg752 O757 2.013 . S
Mg752 O763 2.114 . S
Mg752 O767 2.013 . S
Mg752 O773 2.114 . S
O753 Mg752 1.915 . S
O753 Mg754 1.936 . S
O753 Mg755 1.963 . S
Mg754 O753 1.936 . S
Mg754 O763 2.291 . S
Mg754 O768 2.081 . S
Mg754 O770 2.023 . S
Mg754 O774 2.031 . S
Mg755 O753 1.963 . S
Mg755 O759 1.986 . S
Mg755 O771 1.942 . S
Mg755 O772 1.955 . S
C756 O767 1.191 . S
C756 O769 1.307 . S
O757 Mg752 2.013 . S
O757 C776 1.191 . S
O758 Mg749 2.081 . S
O758 C766 1.331 . S
O759 Mg755 1.986 . S
O759 C776 1.307 . S
O760 Mg749 2.023 . S
O760 C775 1.264 . S
O761 Mg750 1.942 . S
O761 C766 1.244 . S
O762 Mg750 1.955 . S
O762 C775 1.273 . S
O763 Mg752 2.114 . S
O763 Mg754 2.291 . S
O763 C765 1.312 . S
O764 Mg749 2.031 . S
O764 C765 1.208 . S
C765 O763 1.312 . S
C765 O764 1.208 . S
C766 O758 1.331 . S
C766 O761 1.244 . S
O767 Mg752 2.013 . S
O767 C756 1.191 . S
O768 C747 1.331 . S
O768 Mg754 2.081 . S
O769 Mg750 1.986 . S
O769 C756 1.307 . S
O770 C748 1.264 . S
O770 Mg754 2.023 . S
O771 C747 1.244 . S
O771 Mg755 1.942 . S
O772 C748 1.273 . S
O772 Mg755 1.955 . S
O773 C746 1.312 . S
O773 Mg749 2.291 . S
O773 Mg752 2.114 . S
O774 C746 1.208 . S
O774 Mg754 2.031 . S
C775 O760 1.264 . S
C775 O762 1.273 . S
C776 O757 1.191 . S
C776 O759 1.307 . S
H777 C789 0.930 . S
H778 C791 0.930 . S
H779 C792 0.930 . S
H780 C796 0.959 . S
H781 C796 0.959 . S
H782 C796 0.961 . S
H783 C797 0.960 . S
H784 C797 0.961 . S
H785 C797 0.959 . S
H786 C800 0.929 . S
H787 C801 0.931 . S
H788 C803 0.930 . S
C789 H777 0.930 . S
C789 C790 1.399 . S
C789 C794 1.399 . S
C790 C789 1.399 . S
C790 C791 1.376 . S
C791 H778 0.930 . S
C791 C790 1.376 . S
C791 C792 1.388 . S
C792 H779 0.930 . S
C792 C791 1.388 . S
C792 C793 1.390 . S
C793 C792 1.390 . S
C793 C794 1.394 . S
C793 C799 1.465 . S
C794 C789 1.399 . S
C794 C793 1.394 . S
C794 C795 1.516 . S
C795 C794 1.516 . S
C795 C796 1.502 . S
C795 C797 1.561 . S
C795 C798 1.526 . S
C796 H780 0.959 . S
C796 H781 0.959 . S
C796 H782 0.961 . S
C796 C795 1.502 . S
C797 H783 0.960 . S
C797 H784 0.961 . S
C797 H785 0.959 . S
C797 C795 1.561 . S
C798 C795 1.526 . S
C798 C799 1.396 . S
C798 C803 1.390 . S
C799 C793 1.465 . S
C799 C798 1.396 . S
C799 C800 1.399 . S
C800 H786 0.929 . S
C800 C799 1.399 . S
C800 C801 1.385 . S
C801 H787 0.931 . S
C801 C800 1.385 . S
C801 C802 1.389 . S
C802 C801 1.389 . S
C802 C803 1.387 . S
C803 H788 0.930 . S
C803 C798 1.390 . S
C803 C802 1.387 . S
H804 C816 0.930 . S
H805 C818 0.930 . S
H806 C819 0.930 . S
H807 C823 0.959 . S
H808 C823 0.959 . S
H809 C823 0.961 . S
H810 C824 0.960 . S
H811 C824 0.961 . S
H812 C824 0.959 . S
H813 C827 0.929 . S
H814 C828 0.931 . S
H815 C830 0.930 . S
C816 H804 0.930 . S
C816 C817 1.399 . S
C816 C821 1.399 . S
C817 C816 1.399 . S
C817 C818 1.376 . S
C818 H805 0.930 . S
C818 C817 1.376 . S
C818 C819 1.388 . S
C819 H806 0.930 . S
C819 C818 1.388 . S
C819 C820 1.390 . S
C820 C819 1.390 . S
C820 C821 1.394 . S
C820 C826 1.465 . S
C821 C816 1.399 . S
C821 C820 1.394 . S
C821 C822 1.516 . S
C822 C821 1.516 . S
C822 C823 1.502 . S
C822 C824 1.561 . S
C822 C825 1.526 . S
C823 H807 0.959 . S
C823 H808 0.959 . S
C823 H809 0.961 . S
C823 C822 1.502 . S
C824 H810 0.960 . S
C824 H811 0.961 . S
C824 H812 0.959 . S
C824 C822 1.561 . S
C825 C822 1.526 . S
C825 C826 1.396 . S
C825 C830 1.390 . S
C826 C820 1.465 . S
C826 C825 1.396 . S
C826 C827 1.399 . S
C827 H813 0.929 . S
C827 C826 1.399 . S
C827 C828 1.385 . S
C828 H814 0.931 . S
C828 C827 1.385 . S
C828 C829 1.389 . S
C829 C828 1.389 . S
C829 C830 1.387 . S
C830 H815 0.930 . S
C830 C825 1.390 . S
C830 C829 1.387 . S
H831 C843 0.930 . S
H832 C845 0.930 . S
H833 C846 0.930 . S
H834 C850 0.959 . S
H835 C850 0.959 . S
H836 C850 0.961 . S
H837 C851 0.960 . S
H838 C851 0.961 . S
H839 C851 0.959 . S
H840 C854 0.929 . S
H841 C855 0.931 . S
H842 C857 0.930 . S
C843 H831 0.930 . S
C843 C844 1.399 . S
C843 C848 1.399 . S
C844 C843 1.399 . S
C844 C845 1.376 . S
C845 H832 0.930 . S
C845 C844 1.376 . S
C845 C846 1.388 . S
C846 H833 0.930 . S
C846 C845 1.388 . S
C846 C847 1.390 . S
C847 C846 1.390 . S
C847 C848 1.394 . S
C847 C853 1.465 . S
C848 C843 1.399 . S
C848 C847 1.394 . S
C848 C849 1.516 . S
C849 C848 1.516 . S
C849 C850 1.502 . S
C849 C851 1.561 . S
C849 C852 1.526 . S
C850 H834 0.959 . S
C850 H835 0.959 . S
C850 H836 0.961 . S
C850 C849 1.502 . S
C851 H837 0.960 . S
C851 H838 0.961 . S
C851 H839 0.959 . S
C851 C849 1.561 . S
C852 C849 1.526 . S
C852 C853 1.396 . S
C852 C857 1.390 . S
C853 C847 1.465 . S
C853 C852 1.396 . S
C853 C854 1.399 . S
C854 H840 0.929 . S
C854 C853 1.399 . S
C854 C855 1.385 . S
C855 H841 0.931 . S
C855 C854 1.385 . S
C855 C856 1.389 . S
C856 C855 1.389 . S
C856 C857 1.387 . S
C857 H842 0.930 . S
C857 C852 1.390 . S
C857 C856 1.387 . S
H858 C870 0.930 . S
H859 C872 0.930 . S
H860 C873 0.930 . S
H861 C877 0.959 . S
H862 C877 0.959 . S
H863 C877 0.961 . S
H864 C878 0.960 . S
H865 C878 0.961 . S
H866 C878 0.959 . S
H867 C881 0.929 . S
H868 C882 0.931 . S
H869 C884 0.930 . S
C870 H858 0.930 . S
C870 C871 1.399 . S
C870 C875 1.399 . S
C871 C870 1.399 . S
C871 C872 1.376 . S
C872 H859 0.930 . S
C872 C871 1.376 . S
C872 C873 1.388 . S
C873 H860 0.930 . S
C873 C872 1.388 . S
C873 C874 1.390 . S
C874 C873 1.390 . S
C874 C875 1.394 . S
C874 C880 1.465 . S
C875 C870 1.399 . S
C875 C874 1.394 . S
C875 C876 1.516 . S
C876 C875 1.516 . S
C876 C877 1.502 . S
C876 C878 1.561 . S
C876 C879 1.526 . S
C877 H861 0.959 . S
C877 H862 0.959 . S
C877 H863 0.961 . S
C877 C876 1.502 . S
C878 H864 0.960 . S
C878 H865 0.961 . S
C878 H866 0.959 . S
C878 C876 1.561 . S
C879 C876 1.526 . S
C879 C880 1.396 . S
C879 C884 1.390 . S
C880 C874 1.465 . S
C880 C879 1.396 . S
C880 C881 1.399 . S
C881 H867 0.929 . S
C881 C880 1.399 . S
C881 C882 1.385 . S
C882 H868 0.931 . S
C882 C881 1.385 . S
C882 C883 1.389 . S
C883 C882 1.389 . S
C883 C884 1.387 . S
C884 H869 0.930 . S
C884 C879 1.390 . S
C884 C883 1.387 . S
H885 C897 0.930 . S
H886 C899 0.930 . S
H887 C900 0.930 . S
H888 C904 0.959 . S
H889 C904 0.959 . S
H890 C904 0.961 . S
H891 C905 0.960 . S
H892 C905 0.961 . S
H893 C905 0.959 . S
H894 C908 0.929 . S
H895 C909 0.931 . S
H896 C911 0.930 . S
C897 H885 0.930 . S
C897 C898 1.399 . S
C897 C902 1.399 . S
C898 C897 1.399 . S
C898 C899 1.376 . S
C899 H886 0.930 . S
C899 C898 1.376 . S
C899 C900 1.388 . S
C900 H887 0.930 . S
C900 C899 1.388 . S
C900 C901 1.390 . S
C901 C900 1.390 . S
C901 C902 1.394 . S
C901 C907 1.465 . S
C902 C897 1.399 . S
C902 C901 1.394 . S
C902 C903 1.516 . S
C903 C902 1.516 . S
C903 C904 1.502 . S
C903 C905 1.561 . S
C903 C906 1.526 . S
C904 H888 0.959 . S
C904 H889 0.959 . S
C904 H890 0.961 . S
C904 C903 1.502 . S
C905 H891 0.960 . S
C905 H892 0.961 . S
C905 H893 0.959 . S
C905 C903 1.561 . S
C906 C903 1.526 . S
C906 C907 1.396 . S
C906 C911 1.390 . S
C907 C901 1.465 . S
C907 C906 1.396 . S
C907 C908 1.399 . S
C908 H894 0.929 . S
C908 C907 1.399 . S
C908 C909 1.385 . S
C909 H895 0.931 . S
C909 C908 1.385 . S
C909 C910 1.389 . S
C910 C909 1.389 . S
C910 C911 1.387 . S
C911 H896 0.930 . S
C911 C906 1.390 . S
C911 C910 1.387 . S
H912 C924 0.930 . S
H913 C926 0.930 . S
H914 C927 0.930 . S
H915 C931 0.959 . S
H916 C931 0.959 . S
H917 C931 0.961 . S
H918 C932 0.960 . S
H919 C932 0.961 . S
H920 C932 0.959 . S
H921 C935 0.929 . S
H922 C936 0.931 . S
H923 C938 0.930 . S
C924 H912 0.930 . S
C924 C925 1.399 . S
C924 C929 1.399 . S
C925 C924 1.399 . S
C925 C926 1.376 . S
C926 H913 0.930 . S
C926 C925 1.376 . S
C926 C927 1.388 . S
C927 H914 0.930 . S
C927 C926 1.388 . S
C927 C928 1.390 . S
C928 C927 1.390 . S
C928 C929 1.394 . S
C928 C934 1.465 . S
C929 C924 1.399 . S
C929 C928 1.394 . S
C929 C930 1.516 . S
C930 C929 1.516 . S
C930 C931 1.502 . S
C930 C932 1.561 . S
C930 C933 1.526 . S
C931 H915 0.959 . S
C931 H916 0.959 . S
C931 H917 0.961 . S
C931 C930 1.502 . S
C932 H918 0.960 . S
C932 H919 0.961 . S
C932 H920 0.959 . S
C932 C930 1.561 . S
C933 C930 1.526 . S
C933 C934 1.396 . S
C933 C938 1.390 . S
C934 C928 1.465 . S
C934 C933 1.396 . S
C934 C935 1.399 . S
C935 H921 0.929 . S
C935 C934 1.399 . S
C935 C936 1.385 . S
C936 H922 0.931 . S
C936 C935 1.385 . S
C936 C937 1.389 . S
C937 C936 1.389 . S
C937 C938 1.387 . S
C938 H923 0.930 . S
C938 C933 1.390 . S
C938 C937 1.387 . S
H939 C951 0.930 . S
H940 C953 0.930 . S
H941 C954 0.930 . S
H942 C958 0.959 . S
H943 C958 0.959 . S
H944 C958 0.961 . S
H945 C959 0.960 . S
H946 C959 0.961 . S
H947 C959 0.959 . S
H948 C962 0.929 . S
H949 C963 0.931 . S
H950 C965 0.930 . S
C951 H939 0.930 . S
C951 C952 1.399 . S
C951 C956 1.399 . S
C952 C951 1.399 . S
C952 C953 1.376 . S
C953 H940 0.930 . S
C953 C952 1.376 . S
C953 C954 1.388 . S
C954 H941 0.930 . S
C954 C953 1.388 . S
C954 C955 1.390 . S
C955 C954 1.390 . S
C955 C956 1.394 . S
C955 C961 1.465 . S
C956 C951 1.399 . S
C956 C955 1.394 . S
C956 C957 1.516 . S
C957 C956 1.516 . S
C957 C958 1.502 . S
C957 C959 1.561 . S
C957 C960 1.526 . S
C958 H942 0.959 . S
C958 H943 0.959 . S
C958 H944 0.961 . S
C958 C957 1.502 . S
C959 H945 0.960 . S
C959 H946 0.961 . S
C959 H947 0.959 . S
C959 C957 1.561 . S
C960 C957 1.526 . S
C960 C961 1.396 . S
C960 C965 1.390 . S
C961 C955 1.465 . S
C961 C960 1.396 . S
C961 C962 1.399 . S
C962 H948 0.929 . S
C962 C961 1.399 . S
C962 C963 1.385 . S
C963 H949 0.931 . S
C963 C962 1.385 . S
C963 C964 1.389 . S
C964 C963 1.389 . S
C964 C965 1.387 . S
C965 H950 0.930 . S
C965 C960 1.390 . S
C965 C964 1.387 . S
H966 C978 0.930 . S
H967 C980 0.930 . S
H968 C981 0.930 . S
H969 C985 0.959 . S
H970 C985 0.959 . S
H971 C985 0.961 . S
H972 C986 0.960 . S
H973 C986 0.961 . S
H974 C986 0.959 . S
H975 C989 0.929 . S
H976 C990 0.931 . S
H977 C992 0.930 . S
C978 H966 0.930 . S
C978 C979 1.399 . S
C978 C983 1.399 . S
C979 C978 1.399 . S
C979 C980 1.376 . S
C980 H967 0.930 . S
C980 C979 1.376 . S
C980 C981 1.388 . S
C981 H968 0.930 . S
C981 C980 1.388 . S
C981 C982 1.390 . S
C982 C981 1.390 . S
C982 C983 1.394 . S
C982 C988 1.465 . S
C983 C978 1.399 . S
C983 C982 1.394 . S
C983 C984 1.516 . S
C984 C983 1.516 . S
C984 C985 1.502 . S
C984 C986 1.561 . S
C984 C987 1.526 . S
C985 H969 0.959 . S
C985 H970 0.959 . S
C985 H971 0.961 . S
C985 C984 1.502 . S
C986 H972 0.960 . S
C986 H973 0.961 . S
C986 H974 0.959 . S
C986 C984 1.561 . S
C987 C984 1.526 . S
C987 C988 1.396 . S
C987 C992 1.390 . S
C988 C982 1.465 . S
C988 C987 1.396 . S
C988 C989 1.399 . S
C989 H975 0.929 . S
C989 C988 1.399 . S
C989 C990 1.385 . S
C990 H976 0.931 . S
C990 C989 1.385 . S
C990 C991 1.389 . S
C991 C990 1.389 . S
C991 C992 1.387 . S
C992 H977 0.930 . S
C992 C987 1.390 . S
C992 C991 1.387 . S
H993 C1005 0.930 . S
H994 C1007 0.930 . S
H995 C1008 0.930 . S
H996 C1012 0.959 . S
H997 C1012 0.959 . S
H998 C1012 0.961 . S
H999 C1013 0.960 . S
H1000 C1013 0.961 . S
H1001 C1013 0.959 . S
H1002 C1016 0.929 . S
H1003 C1017 0.931 . S
H1004 C1019 0.930 . S
C1005 H993 0.930 . S
C1005 C1006 1.399 . S
C1005 C1010 1.399 . S
C1006 C1005 1.399 . S
C1006 C1007 1.376 . S
C1007 H994 0.930 . S
C1007 C1006 1.376 . S
C1007 C1008 1.388 . S
C1008 H995 0.930 . S
C1008 C1007 1.388 . S
C1008 C1009 1.390 . S
C1009 C1008 1.390 . S
C1009 C1010 1.394 . S
C1009 C1015 1.465 . S
C1010 C1005 1.399 . S
C1010 C1009 1.394 . S
C1010 C1011 1.516 . S
C1011 C1010 1.516 . S
C1011 C1012 1.502 . S
C1011 C1013 1.561 . S
C1011 C1014 1.526 . S
C1012 H996 0.959 . S
C1012 H997 0.959 . S
C1012 H998 0.961 . S
C1012 C1011 1.502 . S
C1013 H999 0.960 . S
C1013 H1000 0.961 . S
C1013 H1001 0.959 . S
C1013 C1011 1.561 . S
C1014 C1011 1.526 . S
C1014 C1015 1.396 . S
C1014 C1019 1.390 . S
C1015 C1009 1.465 . S
C1015 C1014 1.396 . S
C1015 C1016 1.399 . S
C1016 H1002 0.929 . S
C1016 C1015 1.399 . S
C1016 C1017 1.385 . S
C1017 H1003 0.931 . S
C1017 C1016 1.385 . S
C1017 C1018 1.389 . S
C1018 C1017 1.389 . S
C1018 C1019 1.387 . S
C1019 H1004 0.930 . S
C1019 C1014 1.390 . S
C1019 C1018 1.387 . S
H1020 C1032 0.930 . S
H1021 C1034 0.930 . S
H1022 C1035 0.930 . S
H1023 C1039 0.959 . S
H1024 C1039 0.959 . S
H1025 C1039 0.961 . S
H1026 C1040 0.960 . S
H1027 C1040 0.961 . S
H1028 C1040 0.959 . S
H1029 C1043 0.929 . S
H1030 C1044 0.931 . S
H1031 C1046 0.930 . S
C1032 H1020 0.930 . S
C1032 C1033 1.399 . S
C1032 C1037 1.399 . S
C1033 C1032 1.399 . S
C1033 C1034 1.376 . S
C1034 H1021 0.930 . S
C1034 C1033 1.376 . S
C1034 C1035 1.388 . S
C1035 H1022 0.930 . S
C1035 C1034 1.388 . S
C1035 C1036 1.390 . S
C1036 C1035 1.390 . S
C1036 C1037 1.394 . S
C1036 C1042 1.465 . S
C1037 C1032 1.399 . S
C1037 C1036 1.394 . S
C1037 C1038 1.516 . S
C1038 C1037 1.516 . S
C1038 C1039 1.502 . S
C1038 C1040 1.561 . S
C1038 C1041 1.526 . S
C1039 H1023 0.959 . S
C1039 H1024 0.959 . S
C1039 H1025 0.961 . S
C1039 C1038 1.502 . S
C1040 H1026 0.960 . S
C1040 H1027 0.961 . S
C1040 H1028 0.959 . S
C1040 C1038 1.561 . S
C1041 C1038 1.526 . S
C1041 C1042 1.396 . S
C1041 C1046 1.390 . S
C1042 C1036 1.465 . S
C1042 C1041 1.396 . S
C1042 C1043 1.399 . S
C1043 H1029 0.929 . S
C1043 C1042 1.399 . S
C1043 C1044 1.385 . S
C1044 H1030 0.931 . S
C1044 C1043 1.385 . S
C1044 C1045 1.389 . S
C1045 C1044 1.389 . S
C1045 C1046 1.387 . S
C1046 H1031 0.930 . S
C1046 C1041 1.390 . S
C1046 C1045 1.387 . S
H1047 C1059 0.930 . S
H1048 C1061 0.930 . S
H1049 C1062 0.930 . S
H1050 C1066 0.959 . S
H1051 C1066 0.959 . S
H1052 C1066 0.961 . S
H1053 C1067 0.960 . S
H1054 C1067 0.961 . S
H1055 C1067 0.959 . S
H1056 C1070 0.929 . S
H1057 C1071 0.931 . S
H1058 C1073 0.930 . S
C1059 H1047 0.930 . S
C1059 C1060 1.399 . S
C1059 C1064 1.399 . S
C1060 C1059 1.399 . S
C1060 C1061 1.376 . S
C1061 H1048 0.930 . S
C1061 C1060 1.376 . S
C1061 C1062 1.388 . S
C1062 H1049 0.930 . S
C1062 C1061 1.388 . S
C1062 C1063 1.390 . S
C1063 C1062 1.390 . S
C1063 C1064 1.394 . S
C1063 C1069 1.465 . S
C1064 C1059 1.399 . S
C1064 C1063 1.394 . S
C1064 C1065 1.516 . S
C1065 C1064 1.516 . S
C1065 C1066 1.502 . S
C1065 C1067 1.561 . S
C1065 C1068 1.526 . S
C1066 H1050 0.959 . S
C1066 H1051 0.959 . S
C1066 H1052 0.961 . S
C1066 C1065 1.502 . S
C1067 H1053 0.960 . S
C1067 H1054 0.961 . S
C1067 H1055 0.959 . S
C1067 C1065 1.561 . S
C1068 C1065 1.526 . S
C1068 C1069 1.396 . S
C1068 C1073 1.390 . S
C1069 C1063 1.465 . S
C1069 C1068 1.396 . S
C1069 C1070 1.399 . S
C1070 H1056 0.929 . S
C1070 C1069 1.399 . S
C1070 C1071 1.385 . S
C1071 H1057 0.931 . S
C1071 C1070 1.385 . S
C1071 C1072 1.389 . S
C1072 C1071 1.389 . S
C1072 C1073 1.387 . S
C1073 H1058 0.930 . S
C1073 C1068 1.390 . S
C1073 C1072 1.387 . S
H1074 C1086 0.930 . S
H1075 C1088 0.930 . S
H1076 C1089 0.930 . S
H1077 C1093 0.959 . S
H1078 C1093 0.959 . S
H1079 C1093 0.961 . S
H1080 C1094 0.960 . S
H1081 C1094 0.961 . S
H1082 C1094 0.959 . S
H1083 C1097 0.929 . S
H1084 C1098 0.931 . S
H1085 C1100 0.930 . S
C1086 H1074 0.930 . S
C1086 C1087 1.399 . S
C1086 C1091 1.399 . S
C1087 C1086 1.399 . S
C1087 C1088 1.376 . S
C1088 H1075 0.930 . S
C1088 C1087 1.376 . S
C1088 C1089 1.388 . S
C1089 H1076 0.930 . S
C1089 C1088 1.388 . S
C1089 C1090 1.390 . S
C1090 C1089 1.390 . S
C1090 C1091 1.394 . S
C1090 C1096 1.465 . S
C1091 C1086 1.399 . S
C1091 C1090 1.394 . S
C1091 C1092 1.516 . S
C1092 C1091 1.516 . S
C1092 C1093 1.502 . S
C1092 C1094 1.561 . S
C1092 C1095 1.526 . S
C1093 H1077 0.959 . S
C1093 H1078 0.959 . S
C1093 H1079 0.961 . S
C1093 C1092 1.502 . S
C1094 H1080 0.960 . S
C1094 H1081 0.961 . S
C1094 H1082 0.959 . S
C1094 C1092 1.561 . S
C1095 C1092 1.526 . S
C1095 C1096 1.396 . S
C1095 C1100 1.390 . S
C1096 C1090 1.465 . S
C1096 C1095 1.396 . S
C1096 C1097 1.399 . S
C1097 H1083 0.929 . S
C1097 C1096 1.399 . S
C1097 C1098 1.385 . S
C1098 H1084 0.931 . S
C1098 C1097 1.385 . S
C1098 C1099 1.389 . S
C1099 C1098 1.389 . S
C1099 C1100 1.387 . S
C1100 H1085 0.930 . S
C1100 C1095 1.390 . S
C1100 C1099 1.387 . S
H1101 C1113 0.930 . S
H1102 C1115 0.930 . S
H1103 C1116 0.930 . S
H1104 C1120 0.959 . S
H1105 C1120 0.959 . S
H1106 C1120 0.961 . S
H1107 C1121 0.960 . S
H1108 C1121 0.961 . S
H1109 C1121 0.959 . S
H1110 C1124 0.929 . S
H1111 C1125 0.931 . S
H1112 C1127 0.930 . S
C1113 H1101 0.930 . S
C1113 C1114 1.399 . S
C1113 C1118 1.399 . S
C1114 C1113 1.399 . S
C1114 C1115 1.376 . S
C1115 H1102 0.930 . S
C1115 C1114 1.376 . S
C1115 C1116 1.388 . S
C1116 H1103 0.930 . S
C1116 C1115 1.388 . S
C1116 C1117 1.390 . S
C1117 C1116 1.390 . S
C1117 C1118 1.394 . S
C1117 C1123 1.465 . S
C1118 C1113 1.399 . S
C1118 C1117 1.394 . S
C1118 C1119 1.516 . S
C1119 C1118 1.516 . S
C1119 C1120 1.502 . S
C1119 C1121 1.561 . S
C1119 C1122 1.526 . S
C1120 H1104 0.959 . S
C1120 H1105 0.959 . S
C1120 H1106 0.961 . S
C1120 C1119 1.502 . S
C1121 H1107 0.960 . S
C1121 H1108 0.961 . S
C1121 H1109 0.959 . S
C1121 C1119 1.561 . S
C1122 C1119 1.526 . S
C1122 C1123 1.396 . S
C1122 C1127 1.390 . S
C1123 C1117 1.465 . S
C1123 C1122 1.396 . S
C1123 C1124 1.399 . S
C1124 H1110 0.929 . S
C1124 C1123 1.399 . S
C1124 C1125 1.385 . S
C1125 H1111 0.931 . S
C1125 C1124 1.385 . S
C1125 C1126 1.389 . S
C1126 C1125 1.389 . S
C1126 C1127 1.387 . S
C1127 H1112 0.930 . S
C1127 C1122 1.390 . S
C1127 C1126 1.387 . S
H1128 C1140 0.930 . S
H1129 C1142 0.930 . S
H1130 C1143 0.930 . S
H1131 C1147 0.959 . S
H1132 C1147 0.959 . S
H1133 C1147 0.961 . S
H1134 C1148 0.960 . S
H1135 C1148 0.961 . S
H1136 C1148 0.959 . S
H1137 C1151 0.929 . S
H1138 C1152 0.931 . S
H1139 C1154 0.930 . S
C1140 H1128 0.930 . S
C1140 C1141 1.399 . S
C1140 C1145 1.399 . S
C1141 C1140 1.399 . S
C1141 C1142 1.376 . S
C1142 H1129 0.930 . S
C1142 C1141 1.376 . S
C1142 C1143 1.388 . S
C1143 H1130 0.930 . S
C1143 C1142 1.388 . S
C1143 C1144 1.390 . S
C1144 C1143 1.390 . S
C1144 C1145 1.394 . S
C1144 C1150 1.465 . S
C1145 C1140 1.399 . S
C1145 C1144 1.394 . S
C1145 C1146 1.516 . S
C1146 C1145 1.516 . S
C1146 C1147 1.502 . S
C1146 C1148 1.561 . S
C1146 C1149 1.526 . S
C1147 H1131 0.959 . S
C1147 H1132 0.959 . S
C1147 H1133 0.961 . S
C1147 C1146 1.502 . S
C1148 H1134 0.960 . S
C1148 H1135 0.961 . S
C1148 H1136 0.959 . S
C1148 C1146 1.561 . S
C1149 C1146 1.526 . S
C1149 C1150 1.396 . S
C1149 C1154 1.390 . S
C1150 C1144 1.465 . S
C1150 C1149 1.396 . S
C1150 C1151 1.399 . S
C1151 H1137 0.929 . S
C1151 C1150 1.399 . S
C1151 C1152 1.385 . S
C1152 H1138 0.931 . S
C1152 C1151 1.385 . S
C1152 C1153 1.389 . S
C1153 C1152 1.389 . S
C1153 C1154 1.387 . S
C1154 H1139 0.930 . S
C1154 C1149 1.390 . S
C1154 C1153 1.387 . S
H1155 C1167 0.930 . S
H1156 C1169 0.930 . S
H1157 C1170 0.930 . S
H1158 C1174 0.959 . S
H1159 C1174 0.959 . S
H1160 C1174 0.961 . S
H1161 C1175 0.960 . S
H1162 C1175 0.961 . S
H1163 C1175 0.959 . S
H1164 C1178 0.929 . S
H1165 C1179 0.931 . S
H1166 C1181 0.930 . S
C1167 H1155 0.930 . S
C1167 C1168 1.399 . S
C1167 C1172 1.399 . S
C1168 C1167 1.399 . S
C1168 C1169 1.376 . S
C1169 H1156 0.930 . S
C1169 C1168 1.376 . S
C1169 C1170 1.388 . S
C1170 H1157 0.930 . S
C1170 C1169 1.388 . S
C1170 C1171 1.390 . S
C1171 C1170 1.390 . S
C1171 C1172 1.394 . S
C1171 C1177 1.465 . S
C1172 C1167 1.399 . S
C1172 C1171 1.394 . S
C1172 C1173 1.516 . S
C1173 C1172 1.516 . S
C1173 C1174 1.502 . S
C1173 C1175 1.561 . S
C1173 C1176 1.526 . S
C1174 H1158 0.959 . S
C1174 H1159 0.959 . S
C1174 H1160 0.961 . S
C1174 C1173 1.502 . S
C1175 H1161 0.960 . S
C1175 H1162 0.961 . S
C1175 H1163 0.959 . S
C1175 C1173 1.561 . S
C1176 C1173 1.526 . S
C1176 C1177 1.396 . S
C1176 C1181 1.390 . S
C1177 C1171 1.465 . S
C1177 C1176 1.396 . S
C1177 C1178 1.399 . S
C1178 H1164 0.929 . S
C1178 C1177 1.399 . S
C1178 C1179 1.385 . S
C1179 H1165 0.931 . S
C1179 C1178 1.385 . S
C1179 C1180 1.389 . S
C1180 C1179 1.389 . S
C1180 C1181 1.387 . S
C1181 H1166 0.930 . S
C1181 C1176 1.390 . S
C1181 C1180 1.387 . S
H1182 C1194 0.930 . S
H1183 C1196 0.930 . S
H1184 C1197 0.930 . S
H1185 C1201 0.959 . S
H1186 C1201 0.959 . S
H1187 C1201 0.961 . S
H1188 C1202 0.960 . S
H1189 C1202 0.961 . S
H1190 C1202 0.959 . S
H1191 C1205 0.929 . S
H1192 C1206 0.931 . S
H1193 C1208 0.930 . S
C1194 H1182 0.930 . S
C1194 C1195 1.399 . S
C1194 C1199 1.399 . S
C1195 C1194 1.399 . S
C1195 C1196 1.376 . S
C1196 H1183 0.930 . S
C1196 C1195 1.376 . S
C1196 C1197 1.388 . S
C1197 H1184 0.930 . S
C1197 C1196 1.388 . S
C1197 C1198 1.390 . S
C1198 C1197 1.390 . S
C1198 C1199 1.394 . S
C1198 C1204 1.465 . S
C1199 C1194 1.399 . S
C1199 C1198 1.394 . S
C1199 C1200 1.516 . S
C1200 C1199 1.516 . S
C1200 C1201 1.502 . S
C1200 C1202 1.561 . S
C1200 C1203 1.526 . S
C1201 H1185 0.959 . S
C1201 H1186 0.959 . S
C1201 H1187 0.961 . S
C1201 C1200 1.502 . S
C1202 H1188 0.960 . S
C1202 H1189 0.961 . S
C1202 H1190 0.959 . S
C1202 C1200 1.561 . S
C1203 C1200 1.526 . S
C1203 C1204 1.396 . S
C1203 C1208 1.390 . S
C1204 C1198 1.465 . S
C1204 C1203 1.396 . S
C1204 C1205 1.399 . S
C1205 H1191 0.929 . S
C1205 C1204 1.399 . S
C1205 C1206 1.385 . S
C1206 H1192 0.931 . S
C1206 C1205 1.385 . S
C1206 C1207 1.389 . S
C1207 C1206 1.389 . S
C1207 C1208 1.387 . S
C1208 H1193 0.930 . S
C1208 C1203 1.390 . S
C1208 C1207 1.387 . S
H1209 C1221 0.930 . S
H1210 C1223 0.930 . S
H1211 C1224 0.930 . S
H1212 C1228 0.959 . S
H1213 C1228 0.959 . S
H1214 C1228 0.961 . S
H1215 C1229 0.960 . S
H1216 C1229 0.961 . S
H1217 C1229 0.959 . S
H1218 C1232 0.929 . S
H1219 C1233 0.931 . S
H1220 C1235 0.930 . S
C1221 H1209 0.930 . S
C1221 C1222 1.399 . S
C1221 C1226 1.399 . S
C1222 C1221 1.399 . S
C1222 C1223 1.376 . S
C1223 H1210 0.930 . S
C1223 C1222 1.376 . S
C1223 C1224 1.388 . S
C1224 H1211 0.930 . S
C1224 C1223 1.388 . S
C1224 C1225 1.390 . S
C1225 C1224 1.390 . S
C1225 C1226 1.394 . S
C1225 C1231 1.465 . S
C1226 C1221 1.399 . S
C1226 C1225 1.394 . S
C1226 C1227 1.516 . S
C1227 C1226 1.516 . S
C1227 C1228 1.502 . S
C1227 C1229 1.561 . S
C1227 C1230 1.526 . S
C1228 H1212 0.959 . S
C1228 H1213 0.959 . S
C1228 H1214 0.961 . S
C1228 C1227 1.502 . S
C1229 H1215 0.960 . S
C1229 H1216 0.961 . S
C1229 H1217 0.959 . S
C1229 C1227 1.561 . S
C1230 C1227 1.526 . S
C1230 C1231 1.396 . S
C1230 C1235 1.390 . S
C1231 C1225 1.465 . S
C1231 C1230 1.396 . S
C1231 C1232 1.399 . S
C1232 H1218 0.929 . S
C1232 C1231 1.399 . S
C1232 C1233 1.385 . S
C1233 H1219 0.931 . S
C1233 C1232 1.385 . S
C1233 C1234 1.389 . S
C1234 C1233 1.389 . S
C1234 C1235 1.387 . S
C1235 H1220 0.930 . S
C1235 C1230 1.390 . S
C1235 C1234 1.387 . S
H1236 C1248 0.930 . S
H1237 C1250 0.930 . S
H1238 C1251 0.930 . S
H1239 C1255 0.959 . S
H1240 C1255 0.959 . S
H1241 C1255 0.961 . S
H1242 C1256 0.960 . S
H1243 C1256 0.961 . S
H1244 C1256 0.959 . S
H1245 C1259 0.929 . S
H1246 C1260 0.931 . S
H1247 C1262 0.930 . S
C1248 H1236 0.930 . S
C1248 C1249 1.399 . S
C1248 C1253 1.399 . S
C1249 C1248 1.399 . S
C1249 C1250 1.376 . S
C1250 H1237 0.930 . S
C1250 C1249 1.376 . S
C1250 C1251 1.388 . S
C1251 H1238 0.930 . S
C1251 C1250 1.388 . S
C1251 C1252 1.390 . S
C1252 C1251 1.390 . S
C1252 C1253 1.394 . S
C1252 C1258 1.465 . S
C1253 C1248 1.399 . S
C1253 C1252 1.394 . S
C1253 C1254 1.516 . S
C1254 C1253 1.516 . S
C1254 C1255 1.502 . S
C1254 C1256 1.561 . S
C1254 C1257 1.526 . S
C1255 H1239 0.959 . S
C1255 H1240 0.959 . S
C1255 H1241 0.961 . S
C1255 C1254 1.502 . S
C1256 H1242 0.960 . S
C1256 H1243 0.961 . S
C1256 H1244 0.959 . S
C1256 C1254 1.561 . S
C1257 C1254 1.526 . S
C1257 C1258 1.396 . S
C1257 C1262 1.390 . S
C1258 C1252 1.465 . S
C1258 C1257 1.396 . S
C1258 C1259 1.399 . S
C1259 H1245 0.929 . S
C1259 C1258 1.399 . S
C1259 C1260 1.385 . S
C1260 H1246 0.931 . S
C1260 C1259 1.385 . S
C1260 C1261 1.389 . S
C1261 C1260 1.389 . S
C1261 C1262 1.387 . S
C1262 H1247 0.930 . S
C1262 C1257 1.390 . S
C1262 C1261 1.387 . S
H1263 C1275 0.930 . S
H1264 C1277 0.930 . S
H1265 C1278 0.930 . S
H1266 C1282 0.959 . S
H1267 C1282 0.959 . S
H1268 C1282 0.961 . S
H1269 C1283 0.960 . S
H1270 C1283 0.961 . S
H1271 C1283 0.959 . S
H1272 C1286 0.929 . S
H1273 C1287 0.931 . S
H1274 C1289 0.930 . S
C1275 H1263 0.930 . S
C1275 C1276 1.399 . S
C1275 C1280 1.399 . S
C1276 C1275 1.399 . S
C1276 C1277 1.376 . S
C1277 H1264 0.930 . S
C1277 C1276 1.376 . S
C1277 C1278 1.388 . S
C1278 H1265 0.930 . S
C1278 C1277 1.388 . S
C1278 C1279 1.390 . S
C1279 C1278 1.390 . S
C1279 C1280 1.394 . S
C1279 C1285 1.465 . S
C1280 C1275 1.399 . S
C1280 C1279 1.394 . S
C1280 C1281 1.516 . S
C1281 C1280 1.516 . S
C1281 C1282 1.502 . S
C1281 C1283 1.561 . S
C1281 C1284 1.526 . S
C1282 H1266 0.959 . S
C1282 H1267 0.959 . S
C1282 H1268 0.961 . S
C1282 C1281 1.502 . S
C1283 H1269 0.960 . S
C1283 H1270 0.961 . S
C1283 H1271 0.959 . S
C1283 C1281 1.561 . S
C1284 C1281 1.526 . S
C1284 C1285 1.396 . S
C1284 C1289 1.390 . S
C1285 C1279 1.465 . S
C1285 C1284 1.396 . S
C1285 C1286 1.399 . S
C1286 H1272 0.929 . S
C1286 C1285 1.399 . S
C1286 C1287 1.385 . S
C1287 H1273 0.931 . S
C1287 C1286 1.385 . S
C1287 C1288 1.389 . S
C1288 C1287 1.389 . S
C1288 C1289 1.387 . S
C1289 H1274 0.930 . S
C1289 C1284 1.390 . S
C1289 C1288 1.387 . S
H1290 C1302 0.930 . S
H1291 C1304 0.930 . S
H1292 C1305 0.930 . S
H1293 C1309 0.959 . S
H1294 C1309 0.959 . S
H1295 C1309 0.961 . S
H1296 C1310 0.960 . S
H1297 C1310 0.961 . S
H1298 C1310 0.959 . S
H1299 C1313 0.929 . S
H1300 C1314 0.931 . S
H1301 C1316 0.930 . S
C1302 H1290 0.930 . S
C1302 C1303 1.399 . S
C1302 C1307 1.399 . S
C1303 C1302 1.399 . S
C1303 C1304 1.376 . S
C1304 H1291 0.930 . S
C1304 C1303 1.376 . S
C1304 C1305 1.388 . S
C1305 H1292 0.930 . S
C1305 C1304 1.388 . S
C1305 C1306 1.390 . S
C1306 C1305 1.390 . S
C1306 C1307 1.394 . S
C1306 C1312 1.465 . S
C1307 C1302 1.399 . S
C1307 C1306 1.394 . S
C1307 C1308 1.516 . S
C1308 C1307 1.516 . S
C1308 C1309 1.502 . S
C1308 C1310 1.561 . S
C1308 C1311 1.526 . S
C1309 H1293 0.959 . S
C1309 H1294 0.959 . S
C1309 H1295 0.961 . S
C1309 C1308 1.502 . S
C1310 H1296 0.960 . S
C1310 H1297 0.961 . S
C1310 H1298 0.959 . S
C1310 C1308 1.561 . S
C1311 C1308 1.526 . S
C1311 C1312 1.396 . S
C1311 C1316 1.390 . S
C1312 C1306 1.465 . S
C1312 C1311 1.396 . S
C1312 C1313 1.399 . S
C1313 H1299 0.929 . S
C1313 C1312 1.399 . S
C1313 C1314 1.385 . S
C1314 H1300 0.931 . S
C1314 C1313 1.385 . S
C1314 C1315 1.389 . S
C1315 C1314 1.389 . S
C1315 C1316 1.387 . S
C1316 H1301 0.930 . S
C1316 C1311 1.390 . S
C1316 C1315 1.387 . S
H1317 C1329 0.930 . S
H1318 C1331 0.930 . S
H1319 C1332 0.930 . S
H1320 C1336 0.959 . S
H1321 C1336 0.959 . S
H1322 C1336 0.961 . S
H1323 C1337 0.960 . S
H1324 C1337 0.961 . S
H1325 C1337 0.959 . S
H1326 C1340 0.929 . S
H1327 C1341 0.931 . S
H1328 C1343 0.930 . S
C1329 H1317 0.930 . S
C1329 C1330 1.399 . S
C1329 C1334 1.399 . S
C1330 C1329 1.399 . S
C1330 C1331 1.376 . S
C1331 H1318 0.930 . S
C1331 C1330 1.376 . S
C1331 C1332 1.388 . S
C1332 H1319 0.930 . S
C1332 C1331 1.388 . S
C1332 C1333 1.390 . S
C1333 C1332 1.390 . S
C1333 C1334 1.394 . S
C1333 C1339 1.465 . S
C1334 C1329 1.399 . S
C1334 C1333 1.394 . S
C1334 C1335 1.516 . S
C1335 C1334 1.516 . S
C1335 C1336 1.502 . S
C1335 C1337 1.561 . S
C1335 C1338 1.526 . S
C1336 H1320 0.959 . S
C1336 H1321 0.959 . S
C1336 H1322 0.961 . S
C1336 C1335 1.502 . S
C1337 H1323 0.960 . S
C1337 H1324 0.961 . S
C1337 H1325 0.959 . S
C1337 C1335 1.561 . S
C1338 C1335 1.526 . S
C1338 C1339 1.396 . S
C1338 C1343 1.390 . S
C1339 C1333 1.465 . S
C1339 C1338 1.396 . S
C1339 C1340 1.399 . S
C1340 H1326 0.929 . S
C1340 C1339 1.399 . S
C1340 C1341 1.385 . S
C1341 H1327 0.931 . S
C1341 C1340 1.385 . S
C1341 C1342 1.389 . S
C1342 C1341 1.389 . S
C1342 C1343 1.387 . S
C1343 H1328 0.930 . S
C1343 C1338 1.390 . S
C1343 C1342 1.387 . S
H1344 C1356 0.930 . S
H1345 C1358 0.930 . S
H1346 C1359 0.930 . S
H1347 C1363 0.959 . S
H1348 C1363 0.959 . S
H1349 C1363 0.961 . S
H1350 C1364 0.960 . S
H1351 C1364 0.961 . S
H1352 C1364 0.959 . S
H1353 C1367 0.929 . S
H1354 C1368 0.931 . S
H1355 C1370 0.930 . S
C1356 H1344 0.930 . S
C1356 C1357 1.399 . S
C1356 C1361 1.399 . S
C1357 C1356 1.399 . S
C1357 C1358 1.376 . S
C1358 H1345 0.930 . S
C1358 C1357 1.376 . S
C1358 C1359 1.388 . S
C1359 H1346 0.930 . S
C1359 C1358 1.388 . S
C1359 C1360 1.390 . S
C1360 C1359 1.390 . S
C1360 C1361 1.394 . S
C1360 C1366 1.465 . S
C1361 C1356 1.399 . S
C1361 C1360 1.394 . S
C1361 C1362 1.516 . S
C1362 C1361 1.516 . S
C1362 C1363 1.502 . S
C1362 C1364 1.561 . S
C1362 C1365 1.526 . S
C1363 H1347 0.959 . S
C1363 H1348 0.959 . S
C1363 H1349 0.961 . S
C1363 C1362 1.502 . S
C1364 H1350 0.960 . S
C1364 H1351 0.961 . S
C1364 H1352 0.959 . S
C1364 C1362 1.561 . S
C1365 C1362 1.526 . S
C1365 C1366 1.396 . S
C1365 C1370 1.390 . S
C1366 C1360 1.465 . S
C1366 C1365 1.396 . S
C1366 C1367 1.399 . S
C1367 H1353 0.929 . S
C1367 C1366 1.399 . S
C1367 C1368 1.385 . S
C1368 H1354 0.931 . S
C1368 C1367 1.385 . S
C1368 C1369 1.389 . S
C1369 C1368 1.389 . S
C1369 C1370 1.387 . S
C1370 H1355 0.930 . S
C1370 C1365 1.390 . S
C1370 C1369 1.387 . S
H1371 C1383 0.930 . S
H1372 C1385 0.930 . S
H1373 C1386 0.930 . S
H1374 C1390 0.959 . S
H1375 C1390 0.959 . S
H1376 C1390 0.961 . S
H1377 C1391 0.960 . S
H1378 C1391 0.961 . S
H1379 C1391 0.959 . S
H1380 C1394 0.929 . S
H1381 C1395 0.931 . S
H1382 C1397 0.930 . S
C1383 H1371 0.930 . S
C1383 C1384 1.399 . S
C1383 C1388 1.399 . S
C1384 C1383 1.399 . S
C1384 C1385 1.376 . S
C1385 H1372 0.930 . S
C1385 C1384 1.376 . S
C1385 C1386 1.388 . S
C1386 H1373 0.930 . S
C1386 C1385 1.388 . S
C1386 C1387 1.390 . S
C1387 C1386 1.390 . S
C1387 C1388 1.394 . S
C1387 C1393 1.465 . S
C1388 C1383 1.399 . S
C1388 C1387 1.394 . S
C1388 C1389 1.516 . S
C1389 C1388 1.516 . S
C1389 C1390 1.502 . S
C1389 C1391 1.561 . S
C1389 C1392 1.526 . S
C1390 H1374 0.959 . S
C1390 H1375 0.959 . S
C1390 H1376 0.961 . S
C1390 C1389 1.502 . S
C1391 H1377 0.960 . S
C1391 H1378 0.961 . S
C1391 H1379 0.959 . S
C1391 C1389 1.561 . S
C1392 C1389 1.526 . S
C1392 C1393 1.396 . S
C1392 C1397 1.390 . S
C1393 C1387 1.465 . S
C1393 C1392 1.396 . S
C1393 C1394 1.399 . S
C1394 H1380 0.929 . S
C1394 C1393 1.399 . S
C1394 C1395 1.385 . S
C1395 H1381 0.931 . S
C1395 C1394 1.385 . S
C1395 C1396 1.389 . S
C1396 C1395 1.389 . S
C1396 C1397 1.387 . S
C1397 H1382 0.930 . S
C1397 C1392 1.390 . S
C1397 C1396 1.387 . S
H1398 C1410 0.930 . S
H1399 C1412 0.930 . S
H1400 C1413 0.930 . S
H1401 C1417 0.959 . S
H1402 C1417 0.959 . S
H1403 C1417 0.961 . S
H1404 C1418 0.960 . S
H1405 C1418 0.961 . S
H1406 C1418 0.959 . S
H1407 C1421 0.929 . S
H1408 C1422 0.931 . S
H1409 C1424 0.930 . S
C1410 H1398 0.930 . S
C1410 C1411 1.399 . S
C1410 C1415 1.399 . S
C1411 C1410 1.399 . S
C1411 C1412 1.376 . S
C1412 H1399 0.930 . S
C1412 C1411 1.376 . S
C1412 C1413 1.388 . S
C1413 H1400 0.930 . S
C1413 C1412 1.388 . S
C1413 C1414 1.390 . S
C1414 C1413 1.390 . S
C1414 C1415 1.394 . S
C1414 C1420 1.465 . S
C1415 C1410 1.399 . S
C1415 C1414 1.394 . S
C1415 C1416 1.516 . S
C1416 C1415 1.516 . S
C1416 C1417 1.502 . S
C1416 C1418 1.561 . S
C1416 C1419 1.526 . S
C1417 H1401 0.959 . S
C1417 H1402 0.959 . S
C1417 H1403 0.961 . S
C1417 C1416 1.502 . S
C1418 H1404 0.960 . S
C1418 H1405 0.961 . S
C1418 H1406 0.959 . S
C1418 C1416 1.561 . S
C1419 C1416 1.526 . S
C1419 C1420 1.396 . S
C1419 C1424 1.390 . S
C1420 C1414 1.465 . S
C1420 C1419 1.396 . S
C1420 C1421 1.399 . S
C1421 H1407 0.929 . S
C1421 C1420 1.399 . S
C1421 C1422 1.385 . S
C1422 H1408 0.931 . S
C1422 C1421 1.385 . S
C1422 C1423 1.389 . S
C1423 C1422 1.389 . S
C1423 C1424 1.387 . S
C1424 H1409 0.930 . S
C1424 C1419 1.390 . S
C1424 C1423 1.387 . S
C790 C11 1.451 . S
C802 C684 1.728 . S
C817 C125 1.280 . S
C829 C716 1.592 . S
C856 C775 2.057 . S
C844 C239 1.452 . S
C883 C704 1.404 . S
C871 C343 1.225 . S
C898 C485 1.316 . S
C910 C734 1.702 . S
C937 C756 1.194 . S
C925 C571 1.107 . S
C964 C725 1.827 . S
C952 C257 1.330 . S
C979 C397 0.872 . S
C991 C765 1.278 . S
C1018 C714 1.739 . S
C1006 C467 1.351 . S
C1033 C625 1.191 . S
C1045 C744 1.602 . S
C1060 C29 1.518 . S
C1072 C747 1.912 . S
C1099 C686 1.688 . S
C1087 C143 1.289 . S
C1126 C694 1.664 . S
C1114 C371 1.407 . S
C1153 C735 1.408 . S
C1141 C457 0.980 . S
C1180 C748 1.915 . S
C1168 C599 1.660 . S
C1207 C685 1.508 . S
C1195 C55 1.247 . S
C1234 C745 1.628 . S
C1222 C169 1.445 . S
C1249 C283 0.958 . S
C1261 C746 1.178 . S
C1288 C715 1.639 . S
C1276 C581 0.909 . S
C1315 C776 1.073 . S
C1303 C1 0.786 . S
C1342 C703 1.468 . S
C1330 C115 0.993 . S
C1369 C717 1.332 . S
C1357 C229 1.142 . S
C1384 C353 1.148 . S
C1396 C766 1.918 . S
C1411 C511 1.402 . S
C1423 C713 1.659 . S
