# Generated by pormake.
# Topology zzz, (3,6)-cn, num edge types: 1
# Building blocks:
#     Node 0, Type 0, BuildingBlock: VETTIZ_charged_linker_0, # of connection points: 3
#     Node 1, Type 0, BuildingBlock: VETTIZ_charged_linker_0, # of connection points: 3
#     Node 2, Type 0, BuildingBlock: VETTIZ_charged_linker_0, # of connection points: 3
#     Node 3, Type 0, BuildingBlock: VETTIZ_charged_linker_0, # of connection points: 3
#     Node 4, Type 0, BuildingBlock: VETTIZ_charged_linker_0, # of connection points: 3
#     Node 5, Type 0, BuildingBlock: VETTIZ_charged_linker_0, # of connection points: 3
#     Node 6, Type 0, BuildingBlock: VETTIZ_charged_linker_0, # of connection points: 3
#     Node 7, Type 0, BuildingBlock: VETTIZ_charged_linker_0, # of connection points: 3
#     Node 8, Type 1, BuildingBlock: KUMBUR_clean_sbu_0, # of connection points: 6
#     Node 9, Type 1, BuildingBlock: KUMBUR_clean_sbu_0, # of connection points: 6
#     Node 10, Type 1, BuildingBlock: KUMBUR_clean_sbu_0, # of connection points: 6
#     Node 11, Type 1, BuildingBlock: KUMBUR_clean_sbu_0, # of connection points: 6
#     Edge 12, Type (0, 1), BuildingBlock: XIVTED_clean_linker_0, # of connection points: 2
#     Edge 13, Type (0, 1), BuildingBlock: XIVTED_clean_linker_0, # of connection points: 2
#     Edge 14, Type (0, 1), BuildingBlock: XIVTED_clean_linker_0, # of connection points: 2
#     Edge 15, Type (0, 1), BuildingBlock: XIVTED_clean_linker_0, # of connection points: 2
#     Edge 16, Type (0, 1), BuildingBlock: XIVTED_clean_linker_0, # of connection points: 2
#     Edge 17, Type (0, 1), BuildingBlock: XIVTED_clean_linker_0, # of connection points: 2
#     Edge 18, Type (0, 1), BuildingBlock: XIVTED_clean_linker_0, # of connection points: 2
#     Edge 19, Type (0, 1), BuildingBlock: XIVTED_clean_linker_0, # of connection points: 2
#     Edge 20, Type (0, 1), BuildingBlock: XIVTED_clean_linker_0, # of connection points: 2
#     Edge 21, Type (0, 1), BuildingBlock: XIVTED_clean_linker_0, # of connection points: 2
#     Edge 22, Type (0, 1), BuildingBlock: XIVTED_clean_linker_0, # of connection points: 2
#     Edge 23, Type (0, 1), BuildingBlock: XIVTED_clean_linker_0, # of connection points: 2
#     Edge 24, Type (0, 1), BuildingBlock: XIVTED_clean_linker_0, # of connection points: 2
#     Edge 25, Type (0, 1), BuildingBlock: XIVTED_clean_linker_0, # of connection points: 2
#     Edge 26, Type (0, 1), BuildingBlock: XIVTED_clean_linker_0, # of connection points: 2
#     Edge 27, Type (0, 1), BuildingBlock: XIVTED_clean_linker_0, # of connection points: 2
#     Edge 28, Type (0, 1), BuildingBlock: XIVTED_clean_linker_0, # of connection points: 2
#     Edge 29, Type (0, 1), BuildingBlock: XIVTED_clean_linker_0, # of connection points: 2
#     Edge 30, Type (0, 1), BuildingBlock: XIVTED_clean_linker_0, # of connection points: 2
#     Edge 31, Type (0, 1), BuildingBlock: XIVTED_clean_linker_0, # of connection points: 2
#     Edge 32, Type (0, 1), BuildingBlock: XIVTED_clean_linker_0, # of connection points: 2
#     Edge 33, Type (0, 1), BuildingBlock: XIVTED_clean_linker_0, # of connection points: 2
#     Edge 34, Type (0, 1), BuildingBlock: XIVTED_clean_linker_0, # of connection points: 2
#     Edge 35, Type (0, 1), BuildingBlock: XIVTED_clean_linker_0, # of connection points: 2
# Relax obj value: 0.304
# Max RMSD: 0.229
# Mean RMSD: 0.215
data_MOF--net-zzz--node1-KUMBUR_clean_sbu_0--node2-VETTIZ_charged_linker_0--edge1-XIVTED_clean_linker_0
_symmetry_space_group_name_H-M    P1
_symmetry_Int_Tables_number       1
_symmetry_cell_setting            triclinic
loop_
_symmetry_equiv_pos_as_xyz
'x, y, z'
_cell_length_a     56.711989
_cell_length_b     56.624332
_cell_length_c     19.903367
_cell_angle_alpha  90.864804
_cell_angle_beta   89.99682
_cell_angle_gamma 89.945846
loop_
_atom_site_label
_atom_site_type_symbol
_atom_site_fract_x
_atom_site_fract_y
_atom_site_fract_z
_atom_type_partial_charge
C0 C 0.80594 0.53867 0.26488 0.0
C1 C 0.8239 0.55038 0.30287 0.0
C2 C 0.82618 0.57501 0.29737 0.0
C3 C 0.79789 0.57514 0.20692 0.0
C4 C 0.79239 0.5519 0.21835 0.0
C5 C 0.77052 0.54494 0.17747 0.0
H6 H 0.69479 0.57925 0.92292 0.0
C7 C 0.78409 0.58367 0.15009 0.0
C8 C 0.76668 0.56687 0.13373 0.0
H9 H 0.68732 0.51645 0.04185 0.0
H10 H 0.7229 0.52709 0.10439 0.0
H11 H 0.71202 0.61683 0.03504 0.0
H12 H 0.74415 0.57039 0.89203 0.0
H13 H 0.7672 0.59001 0.91078 0.0
H14 H 0.74031 0.60085 0.87348 0.0
H15 H 0.71124 0.61919 0.94511 0.0
H16 H 0.73473 0.63234 0.99353 0.0
C17 C 0.74999 0.54134 0.22697 0.0
C18 C 0.77584 0.52273 0.13464 0.0
C19 C 0.82652 0.63866 0.99513 0.0
C20 C 0.82196 0.64479 0.92811 0.0
C21 C 0.79858 0.64318 0.90432 0.0
C22 C 0.78095 0.63276 0.94355 0.0
C23 C 0.78693 0.62326 1.00622 0.0
C24 C 0.80903 0.62749 0.03265 0.0
C25 C 0.81251 0.61609 0.0997 0.0
C26 C 0.78948 0.60222 0.1056 0.0
C27 C 0.77486 0.60622 0.05025 0.0
C28 C 0.81516 0.63591 0.15392 0.0
C29 C 0.83432 0.59958 0.09561 0.0
C30 C 0.7005 0.56753 0.96216 0.0
C31 C 0.68773 0.54696 0.9767 0.0
C32 C 0.69629 0.53268 0.02955 0.0
C33 C 0.71695 0.53887 0.06621 0.0
C34 C 0.72934 0.55961 0.05037 0.0
C35 C 0.72101 0.57323 0.99819 0.0
C36 C 0.73709 0.59333 0.98228 0.0
C37 C 0.75524 0.59123 0.03775 0.0
C38 C 0.75107 0.57132 0.07815 0.0
C39 C 0.7231 0.61675 0.98889 0.0
C40 C 0.74772 0.58861 0.91113 0.0
H41 H 0.8147 0.60621 0.24935 0.0
H42 H 0.80272 0.52 0.27112 0.0
H43 H 0.79182 0.52552 0.10337 0.0
H44 H 0.76113 0.51835 0.10027 0.0
H45 H 0.77904 0.50727 0.16715 0.0
H46 H 0.74867 0.55658 0.2627 0.0
H47 H 0.75277 0.5251 0.25665 0.0
H48 H 0.7328 0.53999 0.20144 0.0
H49 H 0.84413 0.64003 0.01566 0.0
H50 H 0.79432 0.64843 0.85365 0.0
H51 H 0.76367 0.63131 0.92213 0.0
H52 H 0.81735 0.6537 0.13182 0.0
H53 H 0.83108 0.63322 0.18539 0.0
H54 H 0.79939 0.63699 0.18696 0.0
H55 H 0.8323 0.58646 0.05386 0.0
H56 H 0.83721 0.58974 0.14225 0.0
H57 H 0.85072 0.60978 0.08711 0.0
H58 H 0.83887 0.58459 0.32799 0.0
C59 C 0.81292 0.58744 0.25059 0.0
C60 C 0.89257 0.81569 0.95333 0.0
C61 C 0.88098 0.83619 0.97811 0.0
C62 C 0.87524 0.83732 0.04723 0.0
C63 C 0.90056 0.80392 0.0669 0.0
C64 C 0.9018 0.79949 0.99896 0.0
C65 C 0.91603 0.77759 0.98366 0.0
H66 H 1.00413 0.70631 0.0327 0.0
C67 C 0.91799 0.78896 0.10052 0.0
C68 C 0.9247 0.77141 0.05439 0.0
H69 H 0.93701 0.68704 0.94298 0.0
H70 H 0.91873 0.72056 0.99999 0.0
H71 H 0.99923 0.76998 0.02862 0.0
H72 H 0.97443 0.72419 0.18759 0.0
H73 H 0.99423 0.74743 0.21159 0.0
H74 H 1.00482 0.72302 0.16141 0.0
H75 H 0.01939 0.74995 0.06839 0.0
H76 H 0.00973 0.77629 0.11164 0.0
C77 C 0.93686 0.78345 0.9368 0.0
C78 C 0.89959 0.75905 0.95093 0.0
C79 C 0.96181 0.83316 0.28379 0.0
C80 C 0.98495 0.83335 0.30853 0.0
C81 C 1.00054 0.81557 0.2836 0.0
C82 C 0.99287 0.79811 0.2359 0.0
C83 C 0.96953 0.79865 0.21131 0.0
C84 C 0.95476 0.81646 0.23505 0.0
C85 C 0.93129 0.8166 0.20094 0.0
C86 C 0.93388 0.79569 0.15275 0.0
C87 C 0.95619 0.78448 0.15901 0.0
C88 C 0.92812 0.84067 0.1649 0.0
C89 C 0.91206 0.81188 0.25413 0.0
C90 C 0.98575 0.7099 0.02234 0.0
C91 C 0.97259 0.69482 0.97753 0.0
C92 C 0.94817 0.69919 0.97102 0.0
C93 C 0.93763 0.71893 1.00107 0.0
C94 C 0.95156 0.73533 0.03537 0.0
C95 C 0.97446 0.73012 0.05221 0.0
C96 C 0.98311 0.74808 0.10582 0.0
C97 C 0.96128 0.76419 0.11618 0.0
C98 C 0.94411 0.75692 0.06964 0.0
C99 C 1.0041 0.76188 0.07725 0.0
C100 C 0.98958 0.735 0.17038 0.0
H101 H 0.88111 0.82296 0.1445 0.0
H102 H 0.89648 0.81335 0.9005 0.0
H103 H 0.8876 0.76733 0.91388 0.0
H104 H 0.8885 0.75033 0.98933 0.0
H105 H 0.9097 0.74565 0.92172 0.0
H106 H 0.94794 0.79775 0.95906 0.0
H107 H 0.93047 0.78923 0.88691 0.0
H108 H 0.94818 0.76768 0.92835 0.0
H109 H 0.9494 0.84669 0.29961 0.0
H110 H 0.01859 0.81509 0.30124 0.0
H111 H 1.0053 0.78498 0.21886 0.0
H112 H 0.94032 0.85459 0.18378 0.0
H113 H 0.9103 0.8482 0.17301 0.0
H114 H 0.93168 0.83905 0.11014 0.0
H115 H 0.91759 0.79752 0.28831 0.0
H116 H 0.89531 0.80595 0.2311 0.0
H117 H 0.90861 0.82799 0.2852 0.0
H118 H 0.86486 0.8518 0.06757 0.0
C119 C 0.88497 0.82107 0.09187 0.0
C120 C 0.82142 0.97903 0.05434 0.0
C121 C 0.83659 0.96545 1.01126 0.0
C122 C 0.832 0.9411 1.00321 0.0
C123 C 0.79472 0.94575 0.05933 0.0
C124 C 0.8005 0.96831 0.07959 0.0
C125 C 0.7819 0.97747 0.12965 0.0
H126 H 0.67017 0.9562 0.2614 0.0
C127 C 0.77074 0.94029 0.08047 0.0
C128 C 0.76296 0.95789 0.12602 0.0
H129 H 0.7168 0.01185 0.32828 0.0
H130 H 0.74631 0.99894 0.2448 0.0
H131 H 0.67524 0.96683 0.12197 0.0
H132 H 0.70655 0.91343 0.23957 0.0
H133 H 0.69757 0.90026 0.16262 0.0
H134 H 0.6762 0.91552 0.21429 0.0
H135 H 0.66384 0.93756 0.1184 0.0
H136 H 0.68569 0.94752 0.05906 0.0
C137 C 0.77217 1.00138 0.10661 0.0
C138 C 0.79341 0.97906 0.19962 0.0
C139 C 0.72159 0.8969 0.90862 0.0
C140 C 0.69687 0.89676 0.90135 0.0
C141 C 0.68304 0.89807 0.96038 0.0
C142 C 0.69337 0.90378 0.02241 0.0
C143 C 0.71746 0.9093 0.02498 0.0
C144 C 0.73148 0.90435 0.96994 0.0
C145 C 0.75666 0.91188 0.98099 0.0
C146 C 0.75459 0.92442 0.04965 0.0
C147 C 0.7315 0.92325 0.07394 0.0
C148 C 0.76384 0.92911 0.92474 0.0
C149 C 0.77235 0.88944 0.98191 0.0
C150 C 0.68696 0.96529 0.26011 0.0
C151 C 0.69126 0.98453 0.30347 0.0
C152 C 0.71303 0.99664 0.29646 0.0
C153 C 0.73025 0.98901 0.24865 0.0
C154 C 0.72563 0.96923 0.20675 0.0
C155 C 0.70393 0.9582 0.2127 0.0
C156 C 0.70013 0.93942 0.16036 0.0
C157 C 0.72409 0.93869 0.12679 0.0
C158 C 0.73935 0.95635 0.15276 0.0
C159 C 0.68023 0.94805 0.11252 0.0
C160 C 0.69467 0.91586 0.19572 0.0
H161 H 0.80889 0.91248 0.02362 0.0
H162 H 0.82527 0.99737 0.0657 0.0
H163 H 0.80207 0.96204 0.21208 0.0
H164 H 0.78045 0.98281 0.23963 0.0
H165 H 0.80705 0.99314 0.20105 0.0
H166 H 0.76527 0.99984 0.05444 0.0
H167 H 0.78622 0.01504 0.10765 0.0
H168 H 0.75758 1.00757 0.13929 0.0
H169 H 0.73289 0.89408 0.86549 0.0
H170 H 0.66401 0.89719 0.95837 0.0
H171 H 0.68189 0.90547 0.06493 0.0
H172 H 0.7516 0.94446 0.92351 0.0
H173 H 0.76356 0.92019 0.8747 0.0
H174 H 0.78189 0.93599 0.93125 0.0
H175 H 0.76329 0.87372 0.9599 0.0
H176 H 0.77746 0.88483 0.034 0.0
H177 H 0.7885 0.89161 0.95111 0.0
H178 H 0.8441 0.92984 0.97527 0.0
C179 C 0.81145 0.93115 0.02857 0.0
C180 C 0.54504 0.72396 0.29508 0.0
C181 C 0.55573 0.70497 0.32985 0.0
C182 C 0.57972 0.70007 0.31853 0.0
C183 C 0.58057 0.7281 0.22863 0.0
C184 C 0.55836 0.73596 0.24573 0.0
C185 C 0.55247 0.75825 0.20684 0.0
H186 H 0.5808 0.82516 0.9315 0.0
C187 C 0.58872 0.74066 0.16916 0.0
C188 C 0.57309 0.7594 0.15677 0.0
H189 H 0.52935 0.84387 0.0836 0.0
H190 H 0.53802 0.80733 0.142 0.0
H191 H 0.62184 0.80907 0.03231 0.0
H192 H 0.56808 0.77483 0.91675 0.0
H193 H 0.58922 0.75256 0.92659 0.0
H194 H 0.5969 0.77914 0.88273 0.0
H195 H 0.62126 0.80649 0.94226 0.0
H196 H 0.63462 0.78403 0.99294 0.0
C197 C 0.55281 0.77926 0.25707 0.0
C198 C 0.52857 0.75524 0.17109 0.0
C199 C 0.63848 0.69303 1.00655 0.0
C200 C 0.64323 0.69595 0.93774 0.0
C201 C 0.64141 0.71885 0.91118 0.0
C202 C 0.63189 0.7375 0.94978 0.0
C203 C 0.62391 0.73318 0.01541 0.0
C204 C 0.62841 0.71159 0.04389 0.0
C205 C 0.61841 0.70977 0.11361 0.0
C206 C 0.60543 0.73337 0.12001 0.0
C207 C 0.60849 0.74675 0.06209 0.0
C208 C 0.6392 0.70755 0.16393 0.0
C209 C 0.60125 0.68846 0.11493 0.0
C210 C 0.57175 0.82213 0.97844 0.0
C211 C 0.55477 0.83817 1.00308 0.0
C212 C 0.54267 0.83216 0.06289 0.0
C213 C 0.54797 0.8111 0.0976 0.0
C214 C 0.56578 0.7959 0.07311 0.0
C215 C 0.57717 0.80171 0.01412 0.0
C216 C 0.59538 0.78387 0.99347 0.0
C217 C 0.59447 0.76717 0.05205 0.0
C218 C 0.57678 0.77373 0.09873 0.0
C219 C 0.61961 0.79641 0.98948 0.0
C220 C 0.58719 0.772 0.92641 0.0
H221 H 0.61044 0.7075 0.26214 0.0
H222 H 0.52699 0.72903 0.30561 0.0
H223 H 0.52862 0.73894 0.13923 0.0
H224 H 0.52462 0.77026 0.13814 0.0
H225 H 0.51404 0.75383 0.20824 0.0
H226 H 0.56842 0.77819 0.29075 0.0
H227 H 0.53674 0.77929 0.28902 0.0
H228 H 0.55418 0.79642 0.23208 0.0
H229 H 0.64001 0.67591 0.02943 0.0
H230 H 0.64572 0.72197 0.85906 0.0
H231 H 0.62981 0.75418 0.92569 0.0
H232 H 0.65669 0.707 0.13864 0.0
H233 H 0.63797 0.69103 0.19313 0.0
H234 H 0.63986 0.72286 0.19948 0.0
H235 H 0.58765 0.69007 0.07499 0.0
H236 H 0.59193 0.68676 0.16308 0.0
H237 H 0.61081 0.67154 0.10683 0.0
H238 H 0.58855 0.6863 0.34621 0.0
C239 C 0.59224 0.71182 0.26891 0.0
C240 C 0.32474 0.4848 0.23972 0.0
C241 C 0.332 0.47931 0.30633 0.0
C242 C 0.3152 0.46922 0.3496 0.0
C243 C 0.28682 0.4661 0.25952 0.0
C244 C 0.30172 0.4783 0.21758 0.0
C245 C 0.2901 0.48173 0.14898 0.0
H246 H 0.19599 0.44922 0.94684 0.0
C247 C 0.26625 0.4579 0.22096 0.0
C248 C 0.26668 0.46828 0.15732 0.0
H249 H 0.2203 0.52117 0.96704 0.0
H250 H 0.24725 0.5091 0.05677 0.0
H251 H 0.24799 0.41855 0.98927 0.0
H252 H 0.18227 0.43935 0.05135 0.0
H253 H 0.19244 0.43496 0.13392 0.0
H254 H 0.19 0.41064 0.07429 0.0
H255 H 0.21838 0.40848 0.97337 0.0
H256 H 0.23524 0.39728 0.0427 0.0
C257 C 0.30526 0.47022 0.09332 0.0
C258 C 0.28676 0.50829 0.13664 0.0
C259 C 0.20705 0.40043 0.31439 0.0
C260 C 0.19 0.3861 0.28161 0.0
C261 C 0.19437 0.37912 0.21418 0.0
C262 C 0.21188 0.39038 0.17675 0.0
C263 C 0.2249 0.40853 0.20732 0.0
C264 C 0.22462 0.4112 0.27605 0.0
C265 C 0.24327 0.42831 0.29998 0.0
C266 C 0.25148 0.43822 0.23308 0.0
C267 C 0.23965 0.42726 0.17938 0.0
C268 C 0.26284 0.41411 0.33636 0.0
C269 C 0.23177 0.44775 0.34459 0.0
C270 C 0.20796 0.46237 0.96723 0.0
C271 C 0.20627 0.48603 0.94733 0.0
C272 C 0.22143 0.50266 0.97943 0.0
C273 C 0.23762 0.49566 0.02987 0.0
C274 C 0.23897 0.47182 0.04837 0.0
C275 C 0.22311 0.456 0.01973 0.0
C276 C 0.2214 0.43346 0.05842 0.0
C277 C 0.23791 0.43893 0.11699 0.0
C278 C 0.24992 0.4604 0.10781 0.0
C279 C 0.23119 0.41324 0.01361 0.0
C280 C 0.19536 0.42933 0.08088 0.0
H281 H 0.28103 0.455 0.3621 0.0
H282 H 0.33683 0.49317 0.20543 0.0
H283 H 0.27159 0.51541 0.16594 0.0
H284 H 0.28416 0.51175 0.08252 0.0
H285 H 0.30278 0.51835 0.15168 0.0
H286 H 0.30846 0.45126 0.10397 0.0
H287 H 0.32258 0.47925 0.08938 0.0
H288 H 0.29621 0.47135 0.04395 0.0
H289 H 0.20546 0.40531 0.36687 0.0
H290 H 0.183 0.36654 0.18867 0.0
H291 H 0.21413 0.38548 0.12488 0.0
H292 H 0.25961 0.39473 0.33464 0.0
H293 H 0.26407 0.41917 0.39038 0.0
H294 H 0.28037 0.41659 0.31274 0.0
H295 H 0.21549 0.45459 0.32044 0.0
H296 H 0.24352 0.46311 0.35261 0.0
H297 H 0.2269 0.44076 0.39455 0.0
H298 H 0.31938 0.4661 0.40182 0.0
C299 C 0.2929 0.46259 0.32663 0.0
C300 C 0.12451 0.21492 0.34466 0.0
C301 C 0.13801 0.19565 0.32019 0.0
C302 C 0.14236 0.19405 0.25036 0.0
C303 C 0.11343 0.22462 0.23116 0.0
C304 C 0.11249 0.2292 0.29918 0.0
C305 C 0.09544 0.24878 0.3162 0.0
H306 H 0.0277 0.33718 0.20267 0.0
C307 C 0.09431 0.23803 0.19893 0.0
C308 C 0.08431 0.25294 0.24771 0.0
H309 H 0.05653 0.32581 0.40132 0.0
H310 H 0.06864 0.28715 0.36848 0.0
H311 H 0.06902 0.30657 0.10354 0.0
H312 H 1.00758 0.26894 0.17662 0.0
H313 H 0.00913 0.28024 0.09199 0.0
H314 H 1.00291 0.29973 0.15988 0.0
H315 H 0.04033 0.31913 0.088 0.0
H316 H 0.04869 0.29162 0.04796 0.0
C317 C 0.10988 0.27035 0.34259 0.0
C318 C 0.07696 0.23944 0.36673 0.0
C319 C 0.06202 0.2017 0.98605 0.0
C320 C 0.03906 0.20017 0.95993 0.0
C321 C 0.02219 0.21664 0.98538 0.0
C322 C 0.02828 0.23387 0.03544 0.0
C323 C 0.05146 0.23492 0.06074 0.0
C324 C 0.06741 0.218 0.0378 0.0
C325 C 0.08869 0.21634 0.08212 0.0
C326 C 0.08261 0.23433 0.13675 0.0
C327 C 0.06175 0.24687 0.12203 0.0
C328 C 0.11033 0.22442 0.04114 0.0
C329 C 0.09086 0.19063 0.10911 0.0
C330 C 0.03674 0.32631 0.23877 0.0
C331 C 0.04244 0.33563 0.30412 0.0
C332 C 0.05321 0.32022 0.34989 0.0
C333 C 0.06037 0.29757 0.3308 0.0
C334 C 0.05671 0.28944 0.26495 0.0
C335 C 0.04382 0.30275 0.22052 0.0
C336 C 0.04001 0.28865 0.15465 0.0
C337 C 0.05447 0.2659 0.16681 0.0
C338 C 0.06512 0.26779 0.23058 0.0
C339 C 0.05011 0.30233 0.09503 0.0
C340 C 0.01347 0.28392 0.14532 0.0
H341 H 0.13307 0.20582 0.15296 0.0
H342 H 0.12115 0.21743 0.39777 0.0
H343 H 0.07141 0.2212 0.35255 0.0
H344 H 0.06059 0.25005 0.36768 0.0
H345 H 0.08431 0.23899 0.41843 0.0
H346 H 0.12922 0.26787 0.33616 0.0
H347 H 0.10683 0.27367 0.39704 0.0
H348 H 0.10568 0.28667 0.31486 0.0
H349 H 0.07521 0.18876 0.97154 0.0
H350 H 1.00413 0.21581 0.96797 0.0
H351 H 0.01455 0.24471 0.05657 0.0
H352 H 0.10602 0.24033 1.01137 0.0
H353 H 0.11613 0.21028 1.0055 0.0
H354 H 0.12534 0.2296 0.07356 0.0
H355 H 0.07656 0.17872 0.09117 0.0
H356 H 0.08941 0.18996 0.16456 0.0
H357 H 0.10765 0.18213 0.09325 0.0
H358 H 0.15374 0.18037 0.22986 0.0
C359 C 0.1301 0.2085 0.20567 0.0
C360 C 0.31608 0.04537 0.98511 0.0
C361 C 0.33531 0.05717 0.95333 0.0
C362 C 0.33927 0.08112 0.97019 0.0
C363 C 0.30977 0.07971 0.05699 0.0
C364 C 0.30285 0.05757 0.03591 0.0
C365 C 0.27969 0.05103 0.07116 0.0
H366 H 0.20103 0.08453 0.3242 0.0
C367 C 0.29505 0.08771 0.11286 0.0
C368 C 0.27598 0.07213 0.12025 0.0
H369 H 0.1929 0.02348 0.19415 0.0
H370 H 0.22933 0.03413 0.1345 0.0
H371 H 0.24508 0.07812 0.36421 0.0
H372 H 0.21932 0.12202 0.21375 0.0
H373 H 0.24177 0.13772 0.25678 0.0
H374 H 0.21758 0.12545 0.30355 0.0
H375 H 0.24715 0.10904 0.37715 0.0
H376 H 0.27178 0.09211 0.34447 0.0
C377 C 0.28294 0.0277 0.10863 0.0
C378 C 0.26001 0.04958 0.01803 0.0
C379 C 0.33558 0.13138 0.30151 0.0
C380 C 0.32739 0.13879 0.36534 0.0
C381 C 0.30299 0.14276 0.37376 0.0
C382 C 0.287 0.13588 0.32343 0.0
C383 C 0.2955 0.12456 0.26504 0.0
C384 C 0.31934 0.12435 0.25216 0.0
C385 C 0.32494 0.11372 0.18425 0.0
C386 C 0.30045 0.10481 0.16304 0.0
C387 C 0.28374 0.11009 0.21263 0.0
C388 C 0.3427 0.09318 0.19189 0.0
C389 C 0.33487 0.13358 0.13967 0.0
C390 C 0.20681 0.07329 0.28284 0.0
C391 C 0.19397 0.05304 0.26484 0.0
C392 C 0.20231 0.03929 0.20947 0.0
C393 C 0.22342 0.04546 0.17488 0.0
C394 C 0.23629 0.06565 0.19543 0.0
C395 C 0.22765 0.07896 0.24906 0.0
C396 C 0.24353 0.09886 0.26914 0.0
C397 C 0.26283 0.09639 0.21687 0.0
C398 C 0.25891 0.07693 0.17262 0.0
C399 C 0.25238 0.0945 0.34221 0.0
C400 C 0.22988 0.12234 0.26088 0.0
H401 H 0.32822 0.11115 0.0275 0.0
H402 H 0.31138 0.02753 0.97017 0.0
H403 H 0.25962 0.06594 0.98782 0.0
H404 H 0.24242 0.04769 0.04094 0.0
H405 H 0.26298 0.03434 0.98321 0.0
H406 H 0.29815 0.029 0.14373 0.0
H407 H 0.28633 0.01291 0.07261 0.0
H408 H 0.26716 0.02329 0.13852 0.0
H409 H 0.35418 0.12881 0.29205 0.0
H410 H 0.29615 0.14957 0.42102 0.0
H411 H 0.26859 0.13856 0.33293 0.0
H412 H 0.3357 0.07969 0.22668 0.0
H413 H 0.35986 0.09963 0.21167 0.0
H414 H 0.34645 0.08438 0.14301 0.0
H415 H 0.3433 0.14791 0.16998 0.0
H416 H 0.3207 0.14184 0.1094 0.0
H417 H 0.34911 0.12698 0.1061 0.0
H418 H 0.35281 0.09114 0.94498 0.0
C419 C 0.32615 0.09249 0.02027 0.0
C420 C 0.4805 0.30173 0.95057 0.0
C421 C 0.46932 0.32057 0.91642 0.0
C422 C 0.44518 0.32476 0.92772 0.0
C423 C 0.44506 0.29629 0.01648 0.0
C424 C 0.46747 0.28912 0.99923 0.0
C425 C 0.47403 0.2669 0.0375 0.0
H426 H 0.44225 0.19212 0.29381 0.0
C427 C 0.43711 0.28306 0.07483 0.0
C428 C 0.45313 0.2646 0.08624 0.0
H429 H 0.50089 0.18215 0.15847 0.0
H430 H 0.49111 0.21914 0.10275 0.0
H431 H 0.4549 0.24119 0.32559 0.0
H432 H 0.40223 0.21353 0.19356 0.0
H433 H 0.38987 0.23665 0.24333 0.0
H434 H 0.40286 0.21157 0.28363 0.0
H435 H 0.42501 0.23904 0.35275 0.0
H436 H 0.43621 0.26554 0.31471 0.0
C437 C 0.49748 0.27094 0.07491 0.0
C438 C 0.47505 0.24613 0.98655 0.0
C439 C 0.38821 0.32848 0.24341 0.0
C440 C 0.38396 0.32453 0.31195 0.0
C441 C 0.38539 0.30119 0.33548 0.0
C442 C 0.39385 0.28289 0.29359 0.0
C443 C 0.40158 0.28812 0.22833 0.0
C444 C 0.39756 0.31032 0.20308 0.0
C445 C 0.40744 0.31313 0.13351 0.0
C446 C 0.4201 0.28947 0.12402 0.0
C447 C 0.41677 0.2751 0.17987 0.0
C448 C 0.42486 0.33423 0.13415 0.0
C449 C 0.38659 0.31645 0.08397 0.0
C450 C 0.45261 0.1975 0.25094 0.0
C451 C 0.47182 0.18381 0.22914 0.0
C452 C 0.48568 0.19217 0.17539 0.0
C453 C 0.47986 0.21346 0.14271 0.0
C454 C 0.46018 0.22671 0.16458 0.0
C455 C 0.44736 0.21877 0.21905 0.0
C456 C 0.429 0.23615 0.24197 0.0
C457 C 0.43078 0.25451 0.1876 0.0
C458 C 0.44921 0.24926 0.14198 0.0
C459 C 0.43646 0.24598 0.31231 0.0
C460 C 0.40462 0.22389 0.24101 0.0
H461 H 0.41456 0.31592 0.98322 0.0
H462 H 0.49869 0.29721 0.94006 0.0
H463 H 0.45939 0.24637 0.95288 0.0
H464 H 0.47486 0.2288 1.01089 0.0
H465 H 0.49108 0.24731 0.95469 0.0
H466 H 0.49662 0.28747 0.10572 0.0
H467 H 0.51231 0.27256 0.0388 0.0
H468 H 0.50158 0.25641 0.10938 0.0
H469 H 0.38698 0.34607 0.22326 0.0
H470 H 0.38157 0.29745 0.38757 0.0
H471 H 0.39529 0.26565 0.31472 0.0
H472 H 0.43869 0.33178 0.17306 0.0
H473 H 0.41559 0.35113 0.14489 0.0
H474 H 0.43384 0.33655 0.08564 0.0
H475 H 0.36932 0.31835 0.11002 0.0
H476 H 0.38479 0.30106 0.04903 0.0
H477 H 0.38869 0.33273 0.05411 0.0
H478 H 0.43598 0.33837 0.90034 0.0
C479 C 0.43294 0.31241 0.97676 0.0
Tb480 Tb 0.03421 1.00734 0.70074 0.0
C481 C 0.94602 0.99695 0.52598 0.0
C482 C 0.95677 0.97089 0.43383 0.0
C483 C 0.9163 0.97177 0.4738 0.0
C484 C 0.96292 0.98783 0.48351 0.0
C485 C 0.92236 0.98948 0.52085 0.0
C486 C 0.9335 0.96247 0.43031 0.0
C487 C 0.91221 0.01898 0.60478 0.0
N488 N 0.95262 0.01406 0.57028 0.0
C489 C 0.93589 0.0258 0.60779 0.0
C490 C 0.90545 1.0005 0.56179 0.0
Tb491 Tb 0.9921 0.02329 0.57477 0.0
N492 N 0.98512 0.99656 0.48853 0.0
C493 C 1.00157 0.99037 0.44104 0.0
C494 C 0.974 0.96346 0.38796 0.0
C495 C 0.99639 0.97357 0.39092 0.0
H496 H 0.9409 0.0399 0.64196 0.0
H497 H 0.00975 0.96832 0.35485 0.0
H498 H 0.9285 0.94927 0.39301 0.0
H499 H 0.89922 0.02791 0.63588 0.0
H500 H 0.01904 0.99763 0.44211 0.0
H501 H 0.01596 0.06311 0.91874 0.0
H502 H 0.97005 0.95043 0.34917 0.0
H503 H 0.08568 0.98912 0.63908 0.0
H504 H 1.00688 0.03358 0.83202 0.0
H505 H 0.12754 1.00011 0.64812 0.0
H506 H 0.89827 0.9656 0.46948 0.0
H507 H 0.05584 0.08055 0.92597 0.0
H508 H 0.09773 0.08086 0.8847 0.0
H509 H 0.88709 0.99526 0.55945 0.0
H510 H 0.1283 0.06352 0.81113 0.0
N511 N 0.04108 0.03415 0.78703 0.0
C512 C 0.02443 0.04066 0.83361 0.0
C513 C 0.05197 0.06745 0.88731 0.0
C514 C 0.0694 0.05961 0.84268 0.0
C515 C 0.02949 0.05759 0.88349 0.0
C516 C 0.06335 0.04258 0.79311 0.0
H517 H 0.13968 0.03298 0.72374 0.0
N518 N 0.07384 0.01566 0.7085 0.0
C519 C 0.11446 0.00957 0.67761 0.0
C520 C 0.08041 0.03293 0.75227 0.0
C521 C 0.09065 1.00332 0.67292 0.0
C522 C 0.12123 0.02818 0.7201 0.0
C523 C 0.10418 0.03989 0.75897 0.0
O524 O 0.05113 0.9757 0.72633 0.0
O525 O 0.01138 0.995 0.61996 0.0
O526 O 0.97386 1.00137 0.64887 0.0
O527 O 0.99762 1.00872 0.74178 0.0
O528 O 0.04366 0.97969 0.62631 0.0
O529 O 0.0225 0.98929 0.7863 0.0
O530 O 0.97395 0.05434 0.55041 0.0
O531 O 0.01534 0.03586 0.65458 0.0
O532 O 0.05333 0.02791 0.62513 0.0
O533 O 0.02859 0.02244 0.53283 0.0
O534 O 0.98297 0.05102 0.64918 0.0
O535 O 1.0022 0.0413 0.48764 0.0
C536 C 0.02425 0.9791 0.59344 0.0
C537 C 0.02203 0.94842 0.75763 0.0
C538 C 0.98475 0.92665 0.75303 0.0
C539 C 0.99792 0.94652 0.7737 0.0
C540 C 0.99618 0.90846 0.71659 0.0
C541 C 0.03304 0.92978 0.72222 0.0
C542 C 0.02014 0.91003 0.70165 0.0
C543 C 0.9771 1.00226 0.71483 0.0
C544 C 0.03504 0.97071 0.77043 0.0
C545 C 0.11019 0.05773 0.80567 0.0
C546 C 0.0928 0.0676 0.8475 0.0
C547 C 1.00256 0.05183 0.68114 0.0
C548 C 1.00054 0.08255 0.51135 0.0
C549 C 0.02525 0.0846 0.50879 0.0
C550 C 0.03641 0.10624 0.52338 0.0
C551 C 0.02236 0.12592 0.54082 0.0
C552 C 0.98695 0.10249 0.52823 0.0
C553 C 0.99784 0.124 0.54311 0.0
C554 C 0.04958 0.02764 0.55927 0.0
C555 C 0.98888 0.05938 0.50321 0.0
H556 H 0.98929 0.9607 0.80118 0.0
H557 H 0.9868 0.89264 0.70116 0.0
H558 H 0.05153 0.93073 0.70889 0.0
H559 H 0.02874 0.89588 0.67387 0.0
H560 H 0.03585 0.06935 0.49599 0.0
H561 H 0.03019 0.14305 0.55075 0.0
H562 H 0.96791 0.10131 0.53111 0.0
H563 H 0.98724 0.13929 0.55624 0.0
Tb564 Tb 0.52044 0.03687 0.69242 0.0
C565 C 0.53204 0.9467 0.52527 0.0
C566 C 0.55569 0.95724 0.42929 0.0
C567 C 0.55817 0.91758 0.47363 0.0
C568 C 0.53919 0.96332 0.47982 0.0
C569 C 0.54106 0.92348 0.52207 0.0
C570 C 0.56548 0.93445 0.4273 0.0
C571 C 0.51434 0.91324 0.61146 0.0
N572 N 0.51556 0.95309 0.57127 0.0
C573 C 0.50586 0.93644 0.61235 0.0
C574 C 0.53224 0.90679 0.56667 0.0
Tb575 Tb 0.50366 0.99193 0.57187 0.0
N576 N 0.52942 0.98521 0.4838 0.0
C577 C 0.53429 1.00131 0.43492 0.0
C578 C 0.56156 0.97411 0.38163 0.0
C579 C 0.55057 0.99612 0.38399 0.0
H580 H 0.4922 0.94134 0.64777 0.0
H581 H 0.55471 1.0092 0.34671 0.0
H582 H 0.57836 0.92956 0.38934 0.0
H583 H 0.50711 0.90038 0.64544 0.0
H584 H 0.52635 0.01855 0.43491 0.0
H585 H 0.47746 0.01367 0.92767 0.0
H586 H 0.57422 0.97019 0.34222 0.0
H587 H 0.53133 0.09225 0.64731 0.0
H588 H 0.50819 0.01093 0.84245 0.0
H589 H 0.51086 0.13082 0.65174 0.0
H590 H 0.56549 0.89991 0.47073 0.0
H591 H 0.44863 0.04643 0.92615 0.0
H592 H 0.43628 0.08518 0.87663 0.0
H593 H 0.53876 0.88879 0.56594 0.0
H594 H 0.4455 0.11771 0.8001 0.0
N595 N 0.49547 0.04001 0.78482 0.0
C596 C 0.49515 0.02458 0.83733 0.0
C597 C 0.46179 0.04495 0.88686 0.0
C598 C 0.46393 0.06223 0.83797 0.0
C599 C 0.47798 0.02642 0.88771 0.0
C600 C 0.48137 0.05933 0.78787 0.0
H601 H 0.47392 0.13527 0.71712 0.0
N602 N 0.50527 0.07458 0.70473 0.0
C603 C 0.50354 0.11585 0.6777 0.0
C604 C 0.48639 0.07737 0.7454 0.0
C605 C 0.51504 0.09398 0.6751 0.0
C606 C 0.48267 0.11826 0.71436 0.0
C607 C 0.47432 0.0991 0.75094 0.0
O608 O 0.54649 0.06024 0.7294 0.0
O609 O 0.53199 0.01302 0.61278 0.0
O610 O 0.52775 0.97648 0.64521 0.0
O611 O 0.51915 1.0009 0.73602 0.0
O612 O 0.54589 0.04614 0.61342 0.0
O613 O 0.54745 0.02381 0.75444 0.0
O614 O 0.47438 0.97009 0.55445 0.0
O615 O 0.49152 0.01746 0.64765 0.0
O616 O 0.50485 0.0554 0.60638 0.0
O617 O 0.50093 0.02642 0.52215 0.0
O618 O 0.47735 0.98442 0.65008 0.0
O619 O 0.48293 0.99809 0.48619 0.0
C620 C 0.54686 0.02593 0.58328 0.0
C621 C 0.5834 0.04095 0.72065 0.0
C622 C 0.61509 0.01505 0.67953 0.0
C623 C 0.59492 0.01895 0.71956 0.0
C624 C 0.62394 0.03387 0.64163 0.0
C625 C 0.59318 0.05967 0.68435 0.0
C626 C 0.61325 0.05607 0.645 0.0
C627 C 0.5262 0.98026 0.71065 0.0
C628 C 0.55958 0.04317 0.75094 0.0
C629 C 0.45535 0.10135 0.79601 0.0
C630 C 0.45014 0.08286 0.83963 0.0
C631 C 0.47628 1.00505 0.67727 0.0
C632 C 0.44264 0.9911 0.51139 0.0
C633 C 0.43755 0.01487 0.52713 0.0
C634 C 0.41414 0.02231 0.53752 0.0
C635 C 0.39596 1.00542 0.53394 0.0
C636 C 0.42424 0.97464 0.50767 0.0
C637 C 0.40103 0.98178 0.51928 0.0
C638 C 0.50058 0.04874 0.54335 0.0
C639 C 0.46709 0.98275 0.50467 0.0
H640 H 0.58786 1.00478 0.74943 0.0
H641 H 0.63902 0.03151 0.60889 0.0
H642 H 0.58476 0.07685 0.68401 0.0
H643 H 0.62026 0.07041 0.61575 0.0
H644 H 0.45176 0.02754 0.53165 0.0
H645 H 0.37769 0.01055 0.54028 0.0
H646 H 0.42788 0.95619 0.49671 0.0
H647 H 0.3869 0.96898 0.51629 0.0
Tb648 Tb 0.53401 0.50089 0.56766 0.0
C649 C 0.43809 0.51012 0.66538 0.0
C650 C 0.42039 0.53509 0.582 0.0
C651 C 0.3974 0.50354 0.63051 0.0
C652 C 0.44002 0.52835 0.62119 0.0
C653 C 0.41647 0.49798 0.67236 0.0
C654 C 0.39934 0.52214 0.58543 0.0
C655 C 0.4328 0.47846 0.76827 0.0
N656 N 0.4568 0.50557 0.70538 0.0
C657 C 0.45364 0.49122 0.75988 0.0
C658 C 0.41429 0.48141 0.72323 0.0
Tb659 Tb 0.4917 0.52554 0.68289 0.0
N660 N 0.46083 0.54013 0.61859 0.0
C661 C 0.46199 0.56058 0.58253 0.0
C662 C 0.42231 0.55491 0.54161 0.0
C663 C 0.44307 0.56796 0.54294 0.0
H664 H 0.4674 0.48924 0.79703 0.0
H665 H 0.4445 0.5839 0.51385 0.0
H666 H 0.38429 0.52677 0.55477 0.0
H667 H 0.43095 0.46657 0.81002 0.0
H668 H 0.47702 0.57198 0.5842 0.0
H669 H 0.5814 0.44452 0.7414 0.0
H670 H 0.40769 0.56065 0.51083 0.0
H671 H 0.55758 0.5366 0.45098 0.0
H672 H 0.54852 0.45605 0.67181 0.0
H673 H 0.59416 0.55874 0.43434 0.0
H674 H 0.38082 0.49417 0.63438 0.0
H675 H 0.61858 0.46714 0.73956 0.0
H676 H 0.64215 0.50003 0.69067 0.0
H677 H 0.39803 0.47172 0.73021 0.0
H678 H 0.64541 0.53177 0.60819 0.0
N679 N 0.56506 0.4869 0.63219 0.0
C680 C 0.56382 0.46706 0.67083 0.0
C681 C 0.60385 0.47265 0.70884 0.0
C682 C 0.60579 0.49184 0.66608 0.0
C683 C 0.58289 0.45994 0.71021 0.0
C684 C 0.58599 0.49834 0.62722 0.0
H685 H 0.6277 0.55367 0.51209 0.0
N686 N 0.5688 0.52064 0.54255 0.0
C687 C 0.59254 0.54712 0.47677 0.0
C688 C 0.58779 0.51614 0.58156 0.0
C689 C 0.57163 0.53466 0.48723 0.0
C690 C 0.6114 0.5442 0.52064 0.0
C691 C 0.60946 0.528 0.57254 0.0
O692 O 0.54472 0.49278 0.46877 0.0
O693 O 0.49657 0.50609 0.58893 0.0
O694 O 0.49585 0.4884 0.70928 0.0
O695 O 0.51607 0.47148 0.61893 0.0
O696 O 0.5082 0.51204 0.49293 0.0
O697 O 0.53433 0.46533 0.53556 0.0
O698 O 0.4802 0.53326 0.78136 0.0
O699 O 0.52923 0.52036 0.66188 0.0
O700 O 0.52991 0.538 0.54103 0.0
O701 O 0.5095 0.55492 0.63104 0.0
O702 O 0.51727 0.51397 0.75744 0.0
O703 O 0.49232 0.56083 0.71744 0.0
C704 C 0.4897 0.51141 0.53026 0.0
C705 C 0.52211 0.46214 0.42203 0.0
C706 C 0.48347 0.44659 0.38962 0.0
C707 C 0.4996 0.45375 0.43957 0.0
C708 C 0.49004 0.44842 0.32166 0.0
C709 C 0.52829 0.46365 0.35405 0.0
C710 C 0.51227 0.45694 0.3042 0.0
C711 C 0.50425 0.46991 0.67617 0.0
C712 C 0.53876 0.47079 0.4736 0.0
C713 C 0.62878 0.52259 0.61366 0.0
C714 C 0.62695 0.50448 0.66035 0.0
C715 C 0.53589 0.51489 0.7207 0.0
C716 C 0.50388 0.56237 0.83171 0.0
C717 C 0.52694 0.5696 0.81579 0.0
C718 C 0.54319 0.57535 0.86684 0.0
C719 C 0.53616 0.57324 0.93433 0.0
C720 C 0.49725 0.56057 0.89928 0.0
C721 C 0.51337 0.56587 0.95023 0.0
C722 C 0.52128 0.55647 0.57373 0.0
C723 C 0.48717 0.55501 0.77866 0.0
H724 H 0.49455 0.45292 0.49199 0.0
H725 H 0.47832 0.44261 0.28181 0.0
H726 H 0.54544 0.47028 0.33954 0.0
H727 H 0.51716 0.45813 0.25179 0.0
H728 H 0.53232 0.57058 0.76367 0.0
H729 H 0.54799 0.57798 0.97502 0.0
H730 H 0.47967 0.55478 0.91257 0.0
H731 H 0.50813 0.56445 1.00231 0.0
Tb732 Tb 0.025 0.54072 0.57119 0.0
C733 C 0.02513 0.4473 0.7099 0.0
C734 C 1.00732 0.41975 0.63114 0.0
C735 C 0.03795 0.40629 0.70679 0.0
C736 C 0.00949 0.44285 0.65828 0.0
C737 C 0.03914 0.42898 0.73599 0.0
C738 C 0.02206 0.40169 0.6544 0.0
C739 C 0.05287 0.45627 0.8217 0.0
N740 N 0.02572 0.46936 0.73699 0.0
C741 C 0.03861 0.47381 0.79427 0.0
C742 C 0.05343 0.43383 0.79181 0.0
Tb743 Tb 1.00333 0.49758 0.68455 0.0
N744 N 0.99557 0.46084 0.63706 0.0
C745 C 0.97754 0.45601 0.59291 0.0
C746 C 0.99002 0.41532 0.58272 0.0
C747 C 0.97479 0.43343 0.56454 0.0
H748 H 0.03854 0.49124 0.8172 0.0
H749 H 0.9609 0.43004 0.52837 0.0
H750 H 0.02086 0.38395 0.63346 0.0
H751 H 0.06351 0.46011 0.86565 0.0
H752 H 0.96518 0.46922 0.57736 0.0
H753 H 0.06345 0.6102 0.72919 0.0
H754 H 0.98784 0.39788 0.56049 0.0
H755 H 0.99779 0.54829 0.42425 0.0
H756 H 0.06217 0.57132 0.67617 0.0
H757 H 0.97258 0.57845 0.37184 0.0
H758 H 0.04876 0.39205 0.72555 0.0
H759 H 0.03424 0.64064 0.69909 0.0
H760 H 1.00112 0.65307 0.62397 0.0
H761 H 0.06446 0.42024 0.8132 0.0
H762 H 0.97609 0.64439 0.52571 0.0
N763 N 0.03062 0.5777 0.61987 0.0
C764 C 0.04853 0.58356 0.66335 0.0
C765 C 0.03323 0.6232 0.67606 0.0
C766 C 0.01653 0.61803 0.62645 0.0
C767 C 0.0497 0.60607 0.6932 0.0
C768 C 0.01592 0.59499 0.59828 0.0
H769 H 0.96578 0.61677 0.43009 0.0
N770 N 1.00384 0.56864 0.5136 0.0
C771 C 0.98048 0.58192 0.42049 0.0
C772 C 1.00188 0.5902 0.54333 0.0
C773 C 0.99473 0.56487 0.45038 0.0
C774 C 0.97662 0.60347 0.45363 0.0
C775 C 0.98799 0.60814 0.51477 0.0
O776 O 0.04216 0.55586 0.48811 0.0
O777 O 0.01989 0.50335 0.58873 0.0
O778 O 0.04209 0.49539 0.67823 0.0
O779 O 0.05153 0.53373 0.65067 0.0
O780 O 0.01435 0.5145 0.49354 0.0
O781 O 0.05936 0.52967 0.5464 0.0
O782 O 0.99204 0.48859 0.78131 0.0
O783 O 1.00713 0.5354 0.66631 0.0
O784 O 0.98658 0.539 0.5553 0.0
O785 O 0.97434 0.50595 0.61463 0.0
O786 O 0.0144 0.52397 0.76057 0.0
O787 O 0.96718 0.50054 0.70796 0.0
C788 C 0.01455 0.496 0.5302 0.0
C789 C 0.06395 0.52682 0.42866 0.0
C790 C 0.07291 0.48888 0.3737 0.0
C791 C 0.06937 0.5026 0.4323 0.0
C792 C 0.07054 0.49976 0.31088 0.0
C793 C 0.06186 0.53726 0.36545 0.0
C794 C 0.06501 0.52373 0.30698 0.0
C795 C 0.057 0.51332 0.67874 0.0
C796 C 0.05949 0.54098 0.49034 0.0
C797 C 0.98697 0.6305 0.54614 0.0
C798 C 1.00124 0.63544 0.60201 0.0
C799 C 0.01263 0.54257 0.72498 0.0
C800 C 0.96279 0.51445 0.82078 0.0
C801 C 0.95372 0.53643 0.8007 0.0
C802 C 0.94779 0.55391 0.84891 0.0
C803 C 0.95137 0.54918 0.9174 0.0
C804 C 0.96586 0.51012 0.88947 0.0
C805 C 0.96031 0.52745 0.93734 0.0
C806 C 0.97043 0.52328 0.57196 0.0
C807 C 0.97089 0.4965 0.77134 0.0
H808 H 0.07074 0.49434 0.48086 0.0
H809 H 0.07368 0.48998 0.26458 0.0
H810 H 0.05763 0.55584 0.36128 0.0
H811 H 0.0634 0.53191 0.25839 0.0
H812 H 0.95151 0.54006 0.74777 0.0
H813 H 0.94654 0.56199 0.95595 0.0
H814 H 0.97293 0.4934 0.90606 0.0
H815 H 0.9628 0.52396 0.99019 0.0
H816 H 0.19001 0.05446 0.40202 0.0
H817 H 0.05252 0.02074 0.42126 0.0
H818 H 0.14934 0.03729 0.22499 0.0
H819 H 0.09359 0.04557 0.59023 0.0
H820 H 0.08705 0.0256 0.34863 0.0
H821 H 0.15497 0.04922 0.47085 0.0
C822 C 0.17368 0.04953 0.37734 0.0
C823 C 0.1728 0.04664 0.30693 0.0
C824 C 0.08855 0.02987 0.40166 0.0
C825 C 0.13199 0.04036 0.38697 0.0
C826 C 0.06875 0.02711 0.44347 0.0
C827 C 0.07007 0.0321 0.51298 0.0
C828 C 0.11004 0.03776 0.42911 0.0
C829 C 0.09169 0.04074 0.53774 0.0
C830 C 0.15356 0.04652 0.41703 0.0
C831 C 0.15104 0.03969 0.27881 0.0
N832 N 0.11069 0.04313 0.49622 0.0
N833 N 0.13153 0.03692 0.31874 0.0
H834 H 0.44273 0.14623 0.25245 0.0
H835 H 0.52291 0.09142 0.53636 0.0
H836 H 0.51327 0.17118 0.29074 0.0
H837 H 0.47224 0.04834 0.43049 0.0
H838 H 0.51691 0.12277 0.4553 0.0
H839 H 0.45047 0.11204 0.32391 0.0
C840 C 0.45997 0.14433 0.27522 0.0
C841 C 0.47745 0.16153 0.26522 0.0
C842 C 0.50692 0.10655 0.44999 0.0
C843 C 0.4862 0.12272 0.34857 0.0
C844 C 0.51001 0.08877 0.49722 0.0
C845 C 0.4972 0.06759 0.49254 0.0
C846 C 0.49069 0.10339 0.39743 0.0
C847 C 0.48193 0.06465 0.4374 0.0
C848 C 0.46435 0.12481 0.31596 0.0
C849 C 0.49939 0.15825 0.29643 0.0
N850 N 0.47877 0.08247 0.39269 0.0
N851 N 0.50302 0.13946 0.33739 0.0
H852 H 0.35758 0.45063 0.38936 0.0
H853 H 0.4701 0.5355 0.4278 0.0
H854 H 0.36324 0.5166 0.28486 0.0
H855 H 0.45683 0.4766 0.55661 0.0
H856 H 0.43276 0.5276 0.36926 0.0
H857 H 0.39497 0.45872 0.44481 0.0
C858 C 0.36663 0.46691 0.37784 0.0
C859 C 0.35666 0.4832 0.33295 0.0
C860 C 0.43784 0.5165 0.41064 0.0
C861 C 0.40063 0.49216 0.39564 0.0
C862 C 0.45913 0.52104 0.44425 0.0
C863 C 0.46614 0.50729 0.49893 0.0
C864 C 0.42357 0.49758 0.43048 0.0
C865 C 0.45168 0.48823 0.51649 0.0
C866 C 0.3882 0.47141 0.40953 0.0
C867 C 0.36999 0.50349 0.31889 0.0
N868 N 0.4311 0.48402 0.48261 0.0
N869 N 0.39118 0.50741 0.35021 0.0
H870 H 1.00384 0.36581 0.28283 0.0
H871 H 0.04702 0.46136 0.56213 0.0
H872 H 0.07154 0.36374 0.38132 0.0
H873 H 0.99046 0.4762 0.42488 0.0
H874 H 0.05369 0.42344 0.50309 0.0
H875 H 0.99647 0.40466 0.33743 0.0
C876 C 0.01724 0.37346 0.31518 0.0
C877 C 0.0382 0.36092 0.32793 0.0
C878 C 0.03964 0.43485 0.48611 0.0
C879 C 0.02955 0.40532 0.39243 0.0
C880 C 0.0357 0.45644 0.52039 0.0
C881 C 0.0177 0.47176 0.49976 0.0
C882 C 0.0255 0.4283 0.43049 0.0
C883 C 1.00423 0.46475 0.44338 0.0
C884 C 0.01293 0.39562 0.34694 0.0
C885 C 0.05477 0.37208 0.37098 0.0
N886 N 1.00821 0.44357 0.41127 0.0
N887 N 0.04997 0.39317 0.40199 0.0
H888 H 0.87679 0.9904 0.05169 0.0
H889 H 0.93579 0.97918 0.68325 0.0
H890 H 0.84198 0.96178 0.87625 0.0
H891 H 0.97149 0.01253 0.8506 0.0
H892 H 0.90165 0.97247 0.75526 0.0
H893 H 0.91144 0.99957 0.98116 0.0
C894 C 0.87621 0.98651 0.99828 0.0
C895 C 0.85632 0.9754 0.96995 0.0
C896 C 0.91687 0.98139 0.77643 0.0
C897 C 0.89611 0.98529 0.88907 0.0
C898 C 0.93646 0.98529 0.73502 0.0
C899 C 0.95659 0.9969 0.76005 0.0
C900 C 0.91715 0.98902 0.84413 0.0
C901 C 0.95642 1.00373 0.8285 0.0
C902 C 0.8961 0.99149 0.95808 0.0
C903 C 0.85685 0.97036 0.90044 0.0
N904 N 0.93707 0.99979 0.86789 0.0
N905 N 0.87628 0.97518 0.8629 0.0
H906 H 0.5131 0.86405 0.9915 0.0
H907 H 0.55912 0.94518 0.696 0.0
H908 H 0.58605 0.86464 0.92883 0.0
H909 H 0.50343 0.96903 0.82781 0.0
H910 H 0.56614 0.91168 0.7704 0.0
H911 H 0.50627 0.89934 0.92377 0.0
C912 C 0.52774 0.87149 0.96414 0.0
C913 C 0.55015 0.86073 0.96563 0.0
C914 C 0.55251 0.92436 0.78335 0.0
C915 C 0.54213 0.90096 0.88621 0.0
C916 C 0.54853 0.94349 0.74094 0.0
C917 C 0.53106 0.96028 0.75653 0.0
C918 C 0.53846 0.9215 0.84093 0.0
C919 C 0.51752 0.9569 0.81484 0.0
C920 C 0.52374 0.89163 0.92509 0.0
C921 C 0.56824 0.87146 0.92803 0.0
N922 N 0.52135 0.93782 0.85457 0.0
N923 N 0.56376 0.89063 0.88956 0.0
H924 H 0.67813 0.55628 0.84273 0.0
H925 H 0.55274 0.49217 0.82875 0.0
H926 H 0.64706 0.52325 0.01574 0.0
H927 H 0.5713 0.54729 0.69188 0.0
H928 H 0.58948 0.49925 0.8905 0.0
H929 H 0.64185 0.54901 0.78014 0.0
C930 C 0.66374 0.54767 0.86827 0.0
C931 C 0.66594 0.54081 0.93598 0.0
C932 C 0.58572 0.50966 0.84659 0.0
C933 C 0.6241 0.53167 0.86216 0.0
C934 C 0.56478 0.50556 0.81105 0.0
C935 C 0.55936 0.51846 0.75331 0.0
C936 C 0.60156 0.52694 0.82473 0.0
C937 C 0.57523 0.5362 0.73427 0.0
C938 C 0.64298 0.54339 0.83182 0.0
C939 C 0.64661 0.52884 0.96403 0.0
N940 N 0.59573 0.53971 0.76932 0.0
N941 N 0.62665 0.52467 0.92716 0.0
H942 H 0.96337 0.6831 0.84621 0.0
H943 H 0.03502 0.5605 0.83515 0.0
H944 H 1.00442 0.65926 0.01439 0.0
H945 H 0.9808 0.57816 0.6932 0.0
H946 H 0.02774 0.59799 0.89544 0.0
H947 H 0.97383 0.6472 0.78387 0.0
C948 C 0.97477 0.67039 0.87019 0.0
C949 C 0.98271 0.67438 0.93665 0.0
C950 C 0.0176 0.59387 0.85071 0.0
C951 C 0.99504 0.63261 0.86382 0.0
C952 C 0.02178 0.57246 0.81601 0.0
C953 C 0.0091 0.56644 0.75741 0.0
C954 C 1.00039 0.6096 0.82727 0.0
C955 C 0.99168 0.58238 0.73642 0.0
C956 C 0.98072 0.64976 0.8342 0.0
C957 C 0.99784 0.6572 0.96361 0.0
N958 N 0.988 0.60319 0.77085 0.0
N959 N 1.00337 0.6371 0.9274 0.0
H960 H 0.14638 0.19407 0.4578 0.0
H961 H 0.06536 0.08471 0.42961 0.0
H962 H 0.13765 0.14856 0.28346 0.0
H963 H 0.06721 0.13355 0.59834 0.0
H964 H 0.10485 0.09697 0.3989 0.0
H965 H 0.13216 0.16217 0.52815 0.0
C966 C 0.14216 0.17724 0.43425 0.0
C967 C 0.1416 0.17472 0.36384 0.0
C968 C 0.09684 0.1047 0.4435 0.0
C969 C 0.12564 0.1381 0.4442 0.0
C970 C 0.07419 0.09761 0.4614 0.0
C971 C 0.06236 0.10895 0.51491 0.0
C972 C 0.10746 0.12372 0.47808 0.0
C973 C 0.07511 0.12526 0.55444 0.0
C974 C 0.13412 0.15896 0.47466 0.0
C975 C 0.13748 0.15196 0.33705 0.0
N976 N 0.09669 0.13269 0.53407 0.0
N977 N 0.12889 0.13479 0.37699 0.0
H978 H 0.31611 0.12295 0.49096 0.0
H979 H 0.43412 0.05955 0.47286 0.0
H980 H 0.37519 0.1485 0.37612 0.0
H981 H 0.38056 0.0434 0.61882 0.0
H982 H 0.41833 0.09917 0.464 0.0
H983 H 0.34322 0.1033 0.56541 0.0
C984 C 0.33481 0.12528 0.4825 0.0
C985 C 0.34325 0.13644 0.42461 0.0
C986 C 0.41031 0.08725 0.49938 0.0
C987 C 0.37446 0.11287 0.50877 0.0
C988 C 0.41951 0.06454 0.50483 0.0
C989 C 0.40828 0.04782 0.54509 0.0
C990 C 0.38927 0.0931 0.53297 0.0
C991 C 0.3892 0.05541 0.58491 0.0
C992 C 0.35039 0.11372 0.52509 0.0
C993 C 0.36778 0.13898 0.41787 0.0
N994 N 0.37989 0.07728 0.57647 0.0
N995 N 0.38252 0.12651 0.45783 0.0
H996 H 0.36331 0.36853 0.29898 0.0
H997 H 0.47461 0.41611 0.49264 0.0
H998 H 0.40719 0.32812 0.43216 0.0
H999 H 0.44021 0.45124 0.32838 0.0
H1000 H 0.44002 0.3911 0.50531 0.0
H1001 H 0.3804 0.40483 0.34581 0.0
C1002 C 0.37589 0.36726 0.33972 0.0
C1003 C 0.38467 0.34516 0.3592 0.0
C1004 C 0.43983 0.40463 0.46741 0.0
C1005 C 0.40426 0.38653 0.41271 0.0
C1006 C 0.45958 0.41903 0.46023 0.0
C1007 C 0.46071 0.43528 0.40769 0.0
C1008 C 0.42117 0.40628 0.42132 0.0
C1009 C 0.44055 0.43824 0.36768 0.0
C1010 C 0.38569 0.38802 0.36626 0.0
C1011 C 0.40026 0.34466 0.41403 0.0
N1012 N 0.42184 0.42349 0.37426 0.0
N1013 N 0.41011 0.36502 0.43741 0.0
H1014 H 0.17576 0.38555 0.41578 0.0
H1015 H 0.06188 0.45114 0.2903 0.0
H1016 H 0.14759 0.38272 0.21393 0.0
H1017 H 0.10244 0.46929 0.46737 0.0
H1018 H 0.0828 0.41344 0.28315 0.0
H1019 H 0.13824 0.40181 0.45486 0.0
C1020 C 0.16167 0.38774 0.37971 0.0
C1021 C 0.1657 0.38431 0.31045 0.0
C1022 C 0.08667 0.4255 0.32446 0.0
C1023 C 0.12254 0.40229 0.35545 0.0
C1024 C 0.07493 0.44714 0.32819 0.0
C1025 C 0.08106 0.46393 0.37784 0.0
C1026 C 0.10457 0.42053 0.37092 0.0
C1027 C 0.09727 0.45719 0.42749 0.0
C1028 C 0.14016 0.3969 0.40233 0.0
C1029 C 0.14604 0.38589 0.26741 0.0
N1030 N 0.10878 0.43622 0.42196 0.0
N1031 N 0.12558 0.39546 0.29027 0.0
H1032 H 0.88508 0.88255 0.02069 0.0
H1033 H 0.9481 0.90717 0.68023 0.0
H1034 H 0.87584 0.84038 0.83977 0.0
H1035 H 0.96376 0.94015 0.87205 0.0
H1036 H 0.91041 0.89375 0.72537 0.0
H1037 H 0.8998 0.91455 0.95363 0.0
C1038 C 0.88532 0.88006 0.9667 0.0
C1039 C 0.88034 0.85795 0.93655 0.0
C1040 C 0.92186 0.90444 0.75698 0.0
C1041 C 0.89837 0.89464 0.85965 0.0
C1042 C 0.9435 0.91191 0.7315 0.0
C1043 C 0.95965 0.92388 0.77332 0.0
C1044 C 0.91638 0.90893 0.82476 0.0
C1045 C 0.95221 0.93052 0.83819 0.0
C1046 C 0.89408 0.89847 0.92833 0.0
C1047 C 0.88081 0.8565 0.86595 0.0
N1048 N 0.93136 0.92251 0.86235 0.0
N1049 N 0.89053 0.87426 0.83006 0.0
H1050 H 0.65146 0.88726 0.85392 0.0
H1051 H 0.66251 1.00593 0.66636 0.0
H1052 H 0.71711 0.91977 0.79462 0.0
H1053 H 0.59576 0.97045 0.69213 0.0
H1054 H 0.68266 0.96909 0.6864 0.0
H1055 H 0.63105 0.91096 0.7706 0.0
C1056 C 0.66177 0.89887 0.82279 0.0
C1057 C 0.686 0.90232 0.83487 0.0
C1058 C 0.66357 0.96918 0.68683 0.0
C1059 C 0.6627 0.9292 0.7384 0.0
C1060 C 0.65194 0.99036 0.67492 0.0
C1061 C 0.62729 0.99171 0.67985 0.0
C1062 C 0.65059 0.94923 0.70575 0.0
C1063 C 0.61482 0.97064 0.69118 0.0
C1064 C 0.65004 0.91233 0.77475 0.0
C1065 C 0.6984 0.91665 0.78963 0.0
N1066 N 0.62661 0.95041 0.70557 0.0
N1067 N 0.68654 0.92997 0.74491 0.0
H1068 H 0.62415 0.69088 0.8114 0.0
H1069 H 0.5859 0.56807 0.92952 0.0
H1070 H 0.66237 0.65154 0.96045 0.0
H1071 H 0.55418 0.60584 0.76574 0.0
H1072 H 0.62151 0.59183 0.9172 0.0
H1073 H 0.60866 0.6543 0.76597 0.0
C1074 C 0.63009 0.67457 0.83346 0.0
C1075 C 0.64353 0.67458 0.89282 0.0
C1076 C 0.60696 0.59457 0.88295 0.0
C1077 C 0.62465 0.63243 0.84245 0.0
C1078 C 0.5865 0.58116 0.89043 0.0
C1079 C 0.56663 0.58554 0.85031 0.0
C1080 C 0.60737 0.61283 0.8359 0.0
C1081 C 0.56884 0.602 0.79863 0.0
C1082 C 0.62088 0.6535 0.80769 0.0
C1083 C 0.65084 0.65256 0.91726 0.0
N1084 N 0.58858 0.61541 0.79402 0.0
N1085 N 0.64051 0.6324 0.89385 0.0
H1086 H 0.82559 0.62579 0.80117 0.0
H1087 H 0.95431 0.59875 0.90084 0.0
H1088 H 0.8652 0.66658 0.94708 0.0
H1089 H 0.91399 0.55997 0.75216 0.0
H1090 H 0.92765 0.63225 0.88841 0.0
H1091 H 0.86224 0.61249 0.75072 0.0
C1092 C 0.84194 0.63281 0.8212 0.0
C1093 C 0.84225 0.64641 0.88085 0.0
C1094 C 0.92493 0.61663 0.85727 0.0
C1095 C 0.88446 0.63025 0.82473 0.0
C1096 C 0.9401 0.59742 0.86466 0.0
C1097 C 0.9359 0.57618 0.82927 0.0
C1098 C 0.90512 0.6144 0.81527 0.0
C1099 C 0.91773 0.5758 0.78141 0.0
C1100 C 0.86302 0.62489 0.79264 0.0
C1101 C 0.86414 0.65512 0.90317 0.0
N1102 N 0.90265 0.59437 0.77712 0.0
N1103 N 0.88442 0.64617 0.87676 0.0
H1104 H 0.06633 0.17965 0.85894 0.0
H1105 H 0.97443 0.07554 0.76865 0.0
H1106 H 0.99802 0.17324 0.9521 0.0
H1107 H 0.04477 0.07737 0.68765 0.0
H1108 H 0.98255 0.11186 0.83274 0.0
H1109 H 0.05845 0.14369 0.79294 0.0
C1110 C 0.04959 0.17082 0.86568 0.0
C1111 C 0.03293 0.1798 0.91235 0.0
C1112 C 0.99636 0.10435 0.80149 0.0
C1113 C 0.02369 0.13805 0.83517 0.0
C1114 C 0.99174 0.08349 0.76489 0.0
C1115 C 0.00911 0.07289 0.72395 0.0
C1116 C 0.01848 0.11537 0.79661 0.0
C1117 C 0.03104 0.08443 0.72 0.0
C1118 C 0.04512 0.15016 0.82757 0.0
C1119 C 0.01143 0.16745 0.91686 0.0
N1120 N 0.03508 0.10495 0.75578 0.0
N1121 N 1.00754 0.14734 0.87932 0.0
H1122 H 0.34867 0.07365 0.83001 0.0
H1123 H 0.45545 0.98141 0.77884 0.0
H1124 H 0.36113 0.01582 0.9636 0.0
H1125 H 0.44841 0.04501 0.66483 0.0
H1126 H 0.41927 0.99164 0.84049 0.0
H1127 H 0.38237 0.06088 0.76172 0.0
C1128 C 0.35821 0.05793 0.84436 0.0
C1129 C 0.35187 0.04584 0.90309 0.0
C1130 C 0.42562 1.00347 0.80233 0.0
C1131 C 0.39114 0.03119 0.82475 0.0
C1132 C 0.44638 0.9977 0.7673 0.0
C1133 C 0.45548 0.01278 0.71823 0.0
C1134 C 0.41329 0.02428 0.78724 0.0
C1135 C 0.44252 0.03326 0.70381 0.0
C1136 C 0.37765 0.05076 0.80545 0.0
C1137 C 0.36506 0.02559 0.91865 0.0
N1138 N 0.42219 0.03841 0.73816 0.0
N1139 N 0.3841 0.01906 0.88023 0.0
H1140 H 0.46553 0.32631 0.7803 0.0
H1141 H 0.50278 0.46055 0.80992 0.0
H1142 H 0.49946 0.35538 0.95632 0.0
H1143 H 0.5005 0.42559 0.6161 0.0
H1144 H 0.49905 0.42228 0.86394 0.0
H1145 H 0.47683 0.3617 0.71762 0.0
C1146 C 0.47613 0.33977 0.80498 0.0
C1147 C 0.48204 0.33765 0.87324 0.0
C1148 C 0.49943 0.42289 0.8096 0.0
C1149 C 0.4939 0.37878 0.80294 0.0
C1150 C 0.50131 0.44481 0.7786 0.0
C1151 C 0.5017 0.44638 0.70823 0.0
C1152 C 0.49745 0.40218 0.77028 0.0
C1153 C 0.5002 0.42523 0.67047 0.0
C1154 C 0.48235 0.36007 0.76943 0.0
C1155 C 0.49503 0.35602 0.90345 0.0
N1156 N 0.49783 0.40404 0.7019 0.0
N1157 N 0.50016 0.37593 0.86856 0.0
H1158 H 0.17855 0.52663 0.9472 0.0
H1159 H 0.08306 0.47278 0.69138 0.0
H1160 H 0.18881 0.46107 0.83768 0.0
H1161 H 0.08421 0.54677 0.74502 0.0
H1162 H 0.1205 0.4676 0.75103 0.0
H1163 H 0.14354 0.53436 0.87822 0.0
C1164 C 0.17379 0.514 0.90818 0.0
C1165 C 0.18683 0.49297 0.89938 0.0
C1166 C 0.11271 0.48505 0.74931 0.0
C1167 C 0.14602 0.50152 0.82098 0.0
C1168 C 0.09125 0.48801 0.71532 0.0
C1169 C 0.08045 0.51032 0.71233 0.0
C1170 C 0.1235 0.50445 0.78192 0.0
C1171 C 0.09198 0.52934 0.74471 0.0
C1172 C 0.15359 0.51836 0.86907 0.0
C1173 C 0.17924 0.47725 0.84806 0.0
N1174 N 0.11269 0.52596 0.7785 0.0
N1175 N 0.15937 0.4817 0.81175 0.0
H1176 H 0.95937 0.85272 0.41392 0.0
H1177 H 0.05221 0.95589 0.5041 0.0
H1178 H 0.02658 0.85944 0.31481 0.0
H1179 H 0.9823 0.95343 0.5879 0.0
H1180 H 0.0438 0.91985 0.43863 0.0
H1181 H 0.96826 0.88792 0.48183 0.0
C1182 C 0.97611 0.86149 0.40636 0.0
C1183 C 0.9921 0.85291 0.35733 0.0
C1184 C 0.03017 0.92719 0.47082 0.0
C1185 C 1.00252 0.89378 0.43667 0.0
C1186 C 0.03494 0.94787 0.50816 0.0
C1187 C 0.01772 0.95822 0.55012 0.0
C1188 C 1.00808 0.91615 0.47613 0.0
C1189 C 0.99587 0.9466 0.55463 0.0
C1190 C 0.98115 0.88171 0.44551 0.0
C1191 C 0.01367 0.86506 0.35176 0.0
N1192 N 0.99169 0.92629 0.51815 0.0
N1193 N 0.01814 0.88481 0.39041 0.0
H1194 H 0.67372 0.02919 0.33399 0.0
H1195 H 0.57121 0.98331 0.58191 0.0
H1196 H 0.66492 0.95606 0.38539 0.0
H1197 H 0.57216 0.05288 0.49772 0.0
H1198 H 0.60748 0.97368 0.51917 0.0
H1199 H 0.63923 0.03916 0.40407 0.0
C1200 C 0.66483 0.01527 0.36076 0.0
C1201 C 0.67234 0.99171 0.35315 0.0
C1202 C 0.59967 0.991 0.51392 0.0
C1203 C 0.63245 1.00298 0.43345 0.0
C1204 C 0.57879 0.99641 0.54928 0.0
C1205 C 0.56808 0.01866 0.54319 0.0
C1206 C 0.61032 1.00813 0.47306 0.0
C1207 C 0.57946 0.03531 0.50269 0.0
C1208 C 0.64494 0.02093 0.40036 0.0
C1209 C 0.65975 0.97445 0.38888 0.0
N1210 N 0.59977 0.02973 0.4692 0.0
N1211 N 0.64055 0.98038 0.42702 0.0
H1212 H 0.5588 0.70013 0.46646 0.0
H1213 H 0.5227 0.56552 0.43978 0.0
H1214 H 0.52563 0.67009 0.29058 0.0
H1215 H 0.52457 0.60101 0.63285 0.0
H1216 H 0.5261 0.60366 0.38492 0.0
H1217 H 0.54751 0.66495 0.5301 0.0
C1218 C 0.54832 0.68653 0.442 0.0
C1219 C 0.54264 0.6883 0.37349 0.0
C1220 C 0.5257 0.6032 0.43929 0.0
C1221 C 0.53085 0.64738 0.44491 0.0
C1222 C 0.52402 0.58135 0.47078 0.0
C1223 C 0.52363 0.57995 0.54119 0.0
C1224 C 0.52747 0.62404 0.47813 0.0
C1225 C 0.52489 0.60123 0.57847 0.0
C1226 C 0.54213 0.66632 0.4781 0.0
C1227 C 0.52985 0.66972 0.34361 0.0
N1228 N 0.52707 0.62236 0.54656 0.0
N1229 N 0.52476 0.64993 0.37904 0.0
H1230 H 0.86198 0.52449 0.26183 0.0
H1231 H 0.92534 0.52315 0.6243 0.0
H1232 H 0.82782 0.55119 0.44048 0.0
H1233 H 0.96298 0.5241 0.43654 0.0
H1234 H 0.88782 0.5254 0.56158 0.0
H1235 H 0.89711 0.51527 0.32899 0.0
C1236 C 0.86152 0.52753 0.31569 0.0
C1237 C 0.84168 0.53813 0.34572 0.0
C1238 C 0.90431 0.52509 0.53416 0.0
C1239 C 0.88223 0.52827 0.42305 0.0
C1240 C 0.9257 0.52377 0.56993 0.0
C1241 C 0.94737 0.52393 0.53567 0.0
C1242 C 0.90452 0.52591 0.46342 0.0
C1243 C 0.94677 0.5246 0.46512 0.0
C1244 C 0.88174 0.52264 0.3539 0.0
C1245 C 0.8425 0.54254 0.41551 0.0
N1246 N 0.92582 0.52548 0.43151 0.0
N1247 N 0.86238 0.53767 0.45167 0.0
loop_
_geom_bond_atom_site_label_1
_geom_bond_atom_site_label_2
_geom_bond_distance
_geom_bond_site_symmetry_2
_ccdc_geom_bond_type
C0 C1 1.391 . S
C0 C4 1.391 . S
C0 H42 0.948 . S
C1 C0 1.391 . S
C1 C2 1.391 . S
C2 C1 1.391 . S
C2 H58 0.947 . S
C2 C59 1.392 . S
C3 C4 1.391 . S
C3 C7 1.397 . S
C3 C59 1.419 . S
C4 C0 1.391 . S
C4 C3 1.391 . S
C4 C5 1.399 . S
C5 C4 1.399 . S
C5 C8 1.396 . S
C5 C17 1.453 . S
C5 C18 1.684 . S
H6 C30 0.948 . S
C7 C3 1.397 . S
C7 C8 1.394 . S
C7 C26 1.723 . S
C8 C5 1.396 . S
C8 C7 1.394 . S
C8 C38 1.723 . S
H9 C32 0.947 . S
H10 C33 0.948 . S
H11 C39 0.982 . S
H12 C40 0.979 . S
H13 C40 0.980 . S
H14 C40 0.983 . S
H15 C39 0.979 . S
H16 C39 0.977 . S
C17 C5 1.453 . S
C17 H46 0.982 . S
C17 H47 0.979 . S
C17 H48 0.977 . S
C18 C5 1.684 . S
C18 H43 0.979 . S
C18 H44 0.980 . S
C18 H45 0.983 . S
C19 C20 1.391 . S
C19 C24 1.391 . S
C19 H49 0.948 . S
C20 C19 1.391 . S
C20 C21 1.391 1_554 S
C21 C20 1.391 1_556 S
C21 C22 1.392 1_556 S
C21 H50 0.947 . S
C22 C21 1.392 1_554 S
C22 C23 1.419 . S
C22 H51 0.948 . S
C23 C22 1.419 . S
C23 C24 1.391 . S
C23 C27 1.397 . S
C24 C19 1.391 . S
C24 C23 1.391 . S
C24 C25 1.399 . S
C25 C24 1.399 . S
C25 C26 1.396 . S
C25 C28 1.453 . S
C25 C29 1.684 . S
C26 C7 1.723 . S
C26 C25 1.396 . S
C26 C27 1.394 . S
C27 C23 1.397 . S
C27 C26 1.394 . S
C27 C37 1.723 . S
C28 C25 1.453 . S
C28 H52 0.982 . S
C28 H53 0.979 . S
C28 H54 0.977 . S
C29 C25 1.684 . S
C29 H55 0.979 . S
C29 H56 0.980 . S
C29 H57 0.983 . S
C30 H6 0.948 . S
C30 C31 1.391 . S
C30 C35 1.391 . S
C31 C30 1.391 . S
C31 C32 1.391 . S
C32 H9 0.947 . S
C32 C31 1.391 . S
C32 C33 1.392 . S
C33 H10 0.948 . S
C33 C32 1.392 . S
C33 C34 1.419 . S
C34 C33 1.419 . S
C34 C35 1.391 . S
C34 C38 1.397 . S
C35 C30 1.391 . S
C35 C34 1.391 . S
C35 C36 1.399 . S
C36 C35 1.399 . S
C36 C37 1.396 . S
C36 C39 1.453 . S
C36 C40 1.684 . S
C37 C27 1.723 . S
C37 C36 1.396 . S
C37 C38 1.394 . S
C38 C8 1.723 . S
C38 C34 1.397 . S
C38 C37 1.394 . S
C39 H11 0.982 . S
C39 H15 0.979 . S
C39 H16 0.977 . S
C39 C36 1.453 . S
C40 H12 0.979 . S
C40 H13 0.980 . S
C40 H14 0.983 . S
C40 C36 1.684 . S
H41 C59 0.948 . S
H42 C0 0.948 . S
H43 C18 0.979 . S
H44 C18 0.980 . S
H45 C18 0.983 . S
H46 C17 0.982 . S
H47 C17 0.979 . S
H48 C17 0.977 . S
H49 C19 0.948 . S
H50 C21 0.947 . S
H51 C22 0.948 . S
H52 C28 0.982 . S
H53 C28 0.979 . S
H54 C28 0.977 . S
H55 C29 0.979 . S
H56 C29 0.980 . S
H57 C29 0.983 . S
H58 C2 0.947 . S
C59 C2 1.392 . S
C59 C3 1.419 . S
C59 H41 0.948 . S
C60 C61 1.391 . S
C60 C64 1.391 . S
C60 H102 0.948 1_554 S
C61 C60 1.391 . S
C61 C62 1.391 . S
C62 C61 1.391 . S
C62 H118 0.947 . S
C62 C119 1.392 . S
C63 C64 1.391 . S
C63 C67 1.397 . S
C63 C119 1.419 . S
C64 C60 1.391 . S
C64 C63 1.391 . S
C64 C65 1.399 . S
C65 C64 1.399 . S
C65 C68 1.396 . S
C65 C77 1.453 . S
C65 C78 1.684 . S
H66 C90 0.948 . S
C67 C63 1.397 . S
C67 C68 1.394 . S
C67 C86 1.723 . S
C68 C65 1.396 . S
C68 C67 1.394 . S
C68 C98 1.723 . S
H69 C92 0.947 . S
H70 C93 0.948 . S
H71 C99 0.982 . S
H72 C100 0.979 . S
H73 C100 0.980 . S
H74 C100 0.983 . S
H75 C99 0.979 . S
H76 C99 0.977 . S
C77 C65 1.453 . S
C77 H106 0.982 . S
C77 H107 0.979 1_554 S
C77 H108 0.977 . S
C78 C65 1.684 . S
C78 H103 0.979 . S
C78 H104 0.980 . S
C78 H105 0.983 1_554 S
C79 C80 1.391 . S
C79 C84 1.391 . S
C79 H109 0.948 . S
C80 C79 1.391 . S
C80 C81 1.391 . S
C81 C80 1.391 . S
C81 C82 1.392 . S
C81 H110 0.947 . S
C82 C81 1.392 . S
C82 C83 1.419 . S
C82 H111 0.948 . S
C83 C82 1.419 . S
C83 C84 1.391 . S
C83 C87 1.397 . S
C84 C79 1.391 . S
C84 C83 1.391 . S
C84 C85 1.399 . S
C85 C84 1.399 . S
C85 C86 1.396 . S
C85 C88 1.453 . S
C85 C89 1.684 . S
C86 C67 1.723 . S
C86 C85 1.396 . S
C86 C87 1.394 . S
C87 C83 1.397 . S
C87 C86 1.394 . S
C87 C97 1.723 . S
C88 C85 1.453 . S
C88 H112 0.982 . S
C88 H113 0.979 . S
C88 H114 0.977 . S
C89 C85 1.684 . S
C89 H115 0.979 . S
C89 H116 0.980 . S
C89 H117 0.983 . S
C90 H66 0.948 . S
C90 C91 1.391 . S
C90 C95 1.391 . S
C91 C90 1.391 . S
C91 C92 1.391 . S
C92 H69 0.947 . S
C92 C91 1.391 . S
C92 C93 1.392 . S
C93 H70 0.948 . S
C93 C92 1.392 . S
C93 C94 1.419 . S
C94 C93 1.419 . S
C94 C95 1.391 . S
C94 C98 1.397 . S
C95 C90 1.391 . S
C95 C94 1.391 . S
C95 C96 1.399 . S
C96 C95 1.399 . S
C96 C97 1.396 . S
C96 C99 1.453 . S
C96 C100 1.684 . S
C97 C87 1.723 . S
C97 C96 1.396 . S
C97 C98 1.394 . S
C98 C68 1.723 . S
C98 C94 1.397 . S
C98 C97 1.394 . S
C99 H71 0.982 . S
C99 H75 0.979 . S
C99 H76 0.977 . S
C99 C96 1.453 . S
C100 H72 0.979 . S
C100 H73 0.980 . S
C100 H74 0.983 . S
C100 C96 1.684 . S
H101 C119 0.948 . S
H102 C60 0.948 1_556 S
H103 C78 0.979 . S
H104 C78 0.980 . S
H105 C78 0.983 1_556 S
H106 C77 0.982 . S
H107 C77 0.979 1_556 S
H108 C77 0.977 . S
H109 C79 0.948 . S
H110 C81 0.947 . S
H111 C82 0.948 . S
H112 C88 0.982 . S
H113 C88 0.979 . S
H114 C88 0.977 . S
H115 C89 0.979 . S
H116 C89 0.980 . S
H117 C89 0.983 . S
H118 C62 0.947 . S
C119 C62 1.392 . S
C119 C63 1.419 . S
C119 H101 0.948 . S
C120 C121 1.391 . S
C120 C124 1.391 . S
C120 H162 0.948 . S
C121 C120 1.391 . S
C121 C122 1.391 . S
C122 C121 1.391 . S
C122 H178 0.947 . S
C122 C179 1.392 . S
C123 C124 1.391 . S
C123 C127 1.397 . S
C123 C179 1.419 . S
C124 C120 1.391 . S
C124 C123 1.391 . S
C124 C125 1.399 . S
C125 C124 1.399 . S
C125 C128 1.396 . S
C125 C137 1.453 . S
C125 C138 1.684 . S
H126 C150 0.948 . S
C127 C123 1.397 . S
C127 C128 1.394 . S
C127 C146 1.723 . S
C128 C125 1.396 . S
C128 C127 1.394 . S
C128 C158 1.723 . S
H129 C152 0.947 . S
H130 C153 0.948 . S
H131 C159 0.982 . S
H132 C160 0.979 . S
H133 C160 0.980 . S
H134 C160 0.983 . S
H135 C159 0.979 . S
H136 C159 0.977 . S
C137 C125 1.453 . S
C137 H166 0.982 . S
C137 H167 0.979 . S
C137 H168 0.977 . S
C138 C125 1.684 . S
C138 H163 0.979 . S
C138 H164 0.980 . S
C138 H165 0.983 . S
C139 C140 1.391 . S
C139 C144 1.391 . S
C139 H169 0.948 1_554 S
C140 C139 1.391 . S
C140 C141 1.391 . S
C141 C140 1.391 . S
C141 C142 1.392 . S
C141 H170 0.947 . S
C142 C141 1.392 . S
C142 C143 1.419 . S
C142 H171 0.948 . S
C143 C142 1.419 . S
C143 C144 1.391 . S
C143 C147 1.397 . S
C144 C139 1.391 . S
C144 C143 1.391 . S
C144 C145 1.399 . S
C145 C144 1.399 . S
C145 C146 1.396 . S
C145 C148 1.453 . S
C145 C149 1.684 . S
C146 C127 1.723 . S
C146 C145 1.396 . S
C146 C147 1.394 . S
C147 C143 1.397 . S
C147 C146 1.394 . S
C147 C157 1.723 . S
C148 C145 1.453 . S
C148 H172 0.982 . S
C148 H173 0.979 1_554 S
C148 H174 0.977 . S
C149 C145 1.684 . S
C149 H175 0.979 . S
C149 H176 0.980 . S
C149 H177 0.983 1_554 S
C150 H126 0.948 . S
C150 C151 1.391 . S
C150 C155 1.391 . S
C151 C150 1.391 . S
C151 C152 1.391 . S
C152 H129 0.947 . S
C152 C151 1.391 . S
C152 C153 1.392 . S
C153 H130 0.948 . S
C153 C152 1.392 . S
C153 C154 1.419 . S
C154 C153 1.419 . S
C154 C155 1.391 . S
C154 C158 1.397 . S
C155 C150 1.391 . S
C155 C154 1.391 . S
C155 C156 1.399 . S
C156 C155 1.399 . S
C156 C157 1.396 . S
C156 C159 1.453 . S
C156 C160 1.684 . S
C157 C147 1.723 . S
C157 C156 1.396 . S
C157 C158 1.394 . S
C158 C128 1.723 . S
C158 C154 1.397 . S
C158 C157 1.394 . S
C159 H131 0.982 . S
C159 H135 0.979 . S
C159 H136 0.977 . S
C159 C156 1.453 . S
C160 H132 0.979 . S
C160 H133 0.980 . S
C160 H134 0.983 . S
C160 C156 1.684 . S
H161 C179 0.948 . S
H162 C120 0.948 . S
H163 C138 0.979 . S
H164 C138 0.980 . S
H165 C138 0.983 . S
H166 C137 0.982 . S
H167 C137 0.979 . S
H168 C137 0.977 . S
H169 C139 0.948 1_556 S
H170 C141 0.947 . S
H171 C142 0.948 . S
H172 C148 0.982 . S
H173 C148 0.979 1_556 S
H174 C148 0.977 . S
H175 C149 0.979 . S
H176 C149 0.980 . S
H177 C149 0.983 1_556 S
H178 C122 0.947 . S
C179 C122 1.392 . S
C179 C123 1.419 . S
C179 H161 0.948 . S
C180 C181 1.391 . S
C180 C184 1.391 . S
C180 H222 0.948 . S
C181 C180 1.391 . S
C181 C182 1.391 . S
C182 C181 1.391 . S
C182 H238 0.947 . S
C182 C239 1.392 . S
C183 C184 1.391 . S
C183 C187 1.397 . S
C183 C239 1.419 . S
C184 C180 1.391 . S
C184 C183 1.391 . S
C184 C185 1.399 . S
C185 C184 1.399 . S
C185 C188 1.396 . S
C185 C197 1.453 . S
C185 C198 1.684 . S
H186 C210 0.948 . S
C187 C183 1.397 . S
C187 C188 1.394 . S
C187 C206 1.723 . S
C188 C185 1.396 . S
C188 C187 1.394 . S
C188 C218 1.723 . S
H189 C212 0.947 . S
H190 C213 0.948 . S
H191 C219 0.982 . S
H192 C220 0.979 . S
H193 C220 0.980 . S
H194 C220 0.983 . S
H195 C219 0.979 . S
H196 C219 0.977 . S
C197 C185 1.453 . S
C197 H226 0.982 . S
C197 H227 0.979 . S
C197 H228 0.977 . S
C198 C185 1.684 . S
C198 H223 0.979 . S
C198 H224 0.980 . S
C198 H225 0.983 . S
C199 C200 1.391 . S
C199 C204 1.391 . S
C199 H229 0.948 . S
C200 C199 1.391 . S
C200 C201 1.391 1_554 S
C201 C200 1.391 1_556 S
C201 C202 1.392 1_556 S
C201 H230 0.947 . S
C202 C201 1.392 1_554 S
C202 C203 1.419 . S
C202 H231 0.948 . S
C203 C202 1.419 . S
C203 C204 1.391 . S
C203 C207 1.397 . S
C204 C199 1.391 . S
C204 C203 1.391 . S
C204 C205 1.399 . S
C205 C204 1.399 . S
C205 C206 1.396 . S
C205 C208 1.453 . S
C205 C209 1.684 . S
C206 C187 1.723 . S
C206 C205 1.396 . S
C206 C207 1.394 . S
C207 C203 1.397 . S
C207 C206 1.394 . S
C207 C217 1.723 . S
C208 C205 1.453 . S
C208 H232 0.982 . S
C208 H233 0.979 . S
C208 H234 0.977 . S
C209 C205 1.684 . S
C209 H235 0.979 . S
C209 H236 0.980 . S
C209 H237 0.983 . S
C210 H186 0.948 . S
C210 C211 1.391 . S
C210 C215 1.391 . S
C211 C210 1.391 . S
C211 C212 1.391 . S
C212 H189 0.947 . S
C212 C211 1.391 . S
C212 C213 1.392 . S
C213 H190 0.948 . S
C213 C212 1.392 . S
C213 C214 1.419 . S
C214 C213 1.419 . S
C214 C215 1.391 . S
C214 C218 1.397 . S
C215 C210 1.391 . S
C215 C214 1.391 . S
C215 C216 1.399 . S
C216 C215 1.399 . S
C216 C217 1.396 . S
C216 C219 1.453 . S
C216 C220 1.684 . S
C217 C207 1.723 . S
C217 C216 1.396 . S
C217 C218 1.394 . S
C218 C188 1.723 . S
C218 C214 1.397 . S
C218 C217 1.394 . S
C219 H191 0.982 . S
C219 H195 0.979 . S
C219 H196 0.977 . S
C219 C216 1.453 . S
C220 H192 0.979 . S
C220 H193 0.980 . S
C220 H194 0.983 . S
C220 C216 1.684 . S
H221 C239 0.948 . S
H222 C180 0.948 . S
H223 C198 0.979 . S
H224 C198 0.980 . S
H225 C198 0.983 . S
H226 C197 0.982 . S
H227 C197 0.979 . S
H228 C197 0.977 . S
H229 C199 0.948 . S
H230 C201 0.947 . S
H231 C202 0.948 . S
H232 C208 0.982 . S
H233 C208 0.979 . S
H234 C208 0.977 . S
H235 C209 0.979 . S
H236 C209 0.980 . S
H237 C209 0.983 . S
H238 C182 0.947 . S
C239 C182 1.392 . S
C239 C183 1.419 . S
C239 H221 0.948 . S
C240 C241 1.391 . S
C240 C244 1.391 . S
C240 H282 0.948 1_554 S
C241 C240 1.391 . S
C241 C242 1.391 . S
C242 C241 1.391 . S
C242 H298 0.947 . S
C242 C299 1.392 . S
C243 C244 1.391 . S
C243 C247 1.397 . S
C243 C299 1.419 . S
C244 C240 1.391 . S
C244 C243 1.391 . S
C244 C245 1.399 1_554 S
C245 C244 1.399 1_556 S
C245 C248 1.396 . S
C245 C257 1.453 . S
C245 C258 1.684 . S
H246 C270 0.948 . S
C247 C243 1.397 . S
C247 C248 1.394 1_554 S
C247 C266 1.723 . S
C248 C245 1.396 . S
C248 C247 1.394 1_556 S
C248 C278 1.723 . S
H249 C272 0.947 . S
H250 C273 0.948 . S
H251 C279 0.982 . S
H252 C280 0.979 . S
H253 C280 0.980 . S
H254 C280 0.983 . S
H255 C279 0.979 . S
H256 C279 0.977 . S
C257 C245 1.453 . S
C257 H286 0.982 . S
C257 H287 0.979 . S
C257 H288 0.977 . S
C258 C245 1.684 . S
C258 H283 0.979 . S
C258 H284 0.980 . S
C258 H285 0.983 . S
C259 C260 1.391 . S
C259 C264 1.391 . S
C259 H289 0.948 . S
C260 C259 1.391 . S
C260 C261 1.391 . S
C261 C260 1.391 . S
C261 C262 1.392 . S
C261 H290 0.947 . S
C262 C261 1.392 . S
C262 C263 1.419 . S
C262 H291 0.948 . S
C263 C262 1.419 . S
C263 C264 1.391 . S
C263 C267 1.397 . S
C264 C259 1.391 . S
C264 C263 1.391 . S
C264 C265 1.399 . S
C265 C264 1.399 . S
C265 C266 1.396 . S
C265 C268 1.453 . S
C265 C269 1.684 . S
C266 C247 1.723 . S
C266 C265 1.396 . S
C266 C267 1.394 . S
C267 C263 1.397 . S
C267 C266 1.394 . S
C267 C277 1.723 1_554 S
C268 C265 1.453 . S
C268 H292 0.982 . S
C268 H293 0.979 . S
C268 H294 0.977 . S
C269 C265 1.684 . S
C269 H295 0.979 . S
C269 H296 0.980 . S
C269 H297 0.983 . S
C270 H246 0.948 . S
C270 C271 1.391 . S
C270 C275 1.391 . S
C271 C270 1.391 . S
C271 C272 1.391 . S
C272 H249 0.947 . S
C272 C271 1.391 . S
C272 C273 1.392 . S
C273 H250 0.948 . S
C273 C272 1.392 . S
C273 C274 1.419 . S
C274 C273 1.419 . S
C274 C275 1.391 . S
C274 C278 1.397 . S
C275 C270 1.391 . S
C275 C274 1.391 . S
C275 C276 1.399 . S
C276 C275 1.399 . S
C276 C277 1.396 . S
C276 C279 1.453 . S
C276 C280 1.684 . S
C277 C267 1.723 1_556 S
C277 C276 1.396 . S
C277 C278 1.394 . S
C278 C248 1.723 . S
C278 C274 1.397 . S
C278 C277 1.394 . S
C279 H251 0.982 . S
C279 H255 0.979 . S
C279 H256 0.977 . S
C279 C276 1.453 . S
C280 H252 0.979 . S
C280 H253 0.980 . S
C280 H254 0.983 . S
C280 C276 1.684 . S
H281 C299 0.948 . S
H282 C240 0.948 1_556 S
H283 C258 0.979 . S
H284 C258 0.980 . S
H285 C258 0.983 . S
H286 C257 0.982 . S
H287 C257 0.979 . S
H288 C257 0.977 . S
H289 C259 0.948 . S
H290 C261 0.947 . S
H291 C262 0.948 . S
H292 C268 0.982 . S
H293 C268 0.979 . S
H294 C268 0.977 . S
H295 C269 0.979 . S
H296 C269 0.980 . S
H297 C269 0.983 . S
H298 C242 0.947 . S
C299 C242 1.392 . S
C299 C243 1.419 . S
C299 H281 0.948 . S
C300 C301 1.391 . S
C300 C304 1.391 . S
C300 H342 0.948 . S
C301 C300 1.391 . S
C301 C302 1.391 . S
C302 C301 1.391 . S
C302 H358 0.947 . S
C302 C359 1.392 . S
C303 C304 1.391 . S
C303 C307 1.397 . S
C303 C359 1.419 . S
C304 C300 1.391 . S
C304 C303 1.391 . S
C304 C305 1.399 . S
C305 C304 1.399 . S
C305 C308 1.396 . S
C305 C317 1.453 . S
C305 C318 1.684 . S
H306 C330 0.948 1_556 S
C307 C303 1.397 . S
C307 C308 1.394 . S
C307 C326 1.723 1_554 S
C308 C305 1.396 . S
C308 C307 1.394 . S
C308 C338 1.723 . S
H309 C332 0.947 . S
H310 C333 0.948 . S
H311 C339 0.982 . S
H312 C340 0.979 . S
H313 C340 0.980 . S
H314 C340 0.983 . S
H315 C339 0.979 . S
H316 C339 0.977 . S
C317 C305 1.453 . S
C317 H346 0.982 . S
C317 H347 0.979 . S
C317 H348 0.977 . S
C318 C305 1.684 . S
C318 H343 0.979 . S
C318 H344 0.980 . S
C318 H345 0.983 . S
C319 C320 1.391 . S
C319 C324 1.391 . S
C319 H349 0.948 . S
C320 C319 1.391 . S
C320 C321 1.391 . S
C321 C320 1.391 . S
C321 C322 1.392 . S
C321 H350 0.947 . S
C322 C321 1.392 . S
C322 C323 1.419 . S
C322 H351 0.948 . S
C323 C322 1.419 . S
C323 C324 1.391 . S
C323 C327 1.397 . S
C324 C319 1.391 . S
C324 C323 1.391 . S
C324 C325 1.399 . S
C325 C324 1.399 . S
C325 C326 1.396 . S
C325 C328 1.453 . S
C325 C329 1.684 . S
C326 C307 1.723 1_556 S
C326 C325 1.396 . S
C326 C327 1.394 . S
C327 C323 1.397 . S
C327 C326 1.394 . S
C327 C337 1.723 . S
C328 C325 1.453 . S
C328 H352 0.982 . S
C328 H353 0.979 . S
C328 H354 0.977 . S
C329 C325 1.684 . S
C329 H355 0.979 . S
C329 H356 0.980 . S
C329 H357 0.983 . S
C330 H306 0.948 1_554 S
C330 C331 1.391 . S
C330 C335 1.391 . S
C331 C330 1.391 . S
C331 C332 1.391 . S
C332 H309 0.947 . S
C332 C331 1.391 . S
C332 C333 1.392 . S
C333 H310 0.948 . S
C333 C332 1.392 . S
C333 C334 1.419 . S
C334 C333 1.419 . S
C334 C335 1.391 . S
C334 C338 1.397 . S
C335 C330 1.391 . S
C335 C334 1.391 . S
C335 C336 1.399 1_554 S
C336 C335 1.399 1_556 S
C336 C337 1.396 . S
C336 C339 1.453 . S
C336 C340 1.684 . S
C337 C327 1.723 . S
C337 C336 1.396 . S
C337 C338 1.394 1_556 S
C338 C308 1.723 . S
C338 C334 1.397 . S
C338 C337 1.394 1_554 S
C339 H311 0.982 . S
C339 H315 0.979 . S
C339 H316 0.977 . S
C339 C336 1.453 . S
C340 H312 0.979 . S
C340 H313 0.980 . S
C340 H314 0.983 . S
C340 C336 1.684 . S
H341 C359 0.948 . S
H342 C300 0.948 . S
H343 C318 0.979 . S
H344 C318 0.980 . S
H345 C318 0.983 . S
H346 C317 0.982 . S
H347 C317 0.979 . S
H348 C317 0.977 . S
H349 C319 0.948 . S
H350 C321 0.947 . S
H351 C322 0.948 . S
H352 C328 0.982 . S
H353 C328 0.979 . S
H354 C328 0.977 . S
H355 C329 0.979 . S
H356 C329 0.980 . S
H357 C329 0.983 . S
H358 C302 0.947 . S
C359 C302 1.392 . S
C359 C303 1.419 . S
C359 H341 0.948 . S
C360 C361 1.391 . S
C360 C364 1.391 . S
C360 H402 0.948 . S
C361 C360 1.391 . S
C361 C362 1.391 . S
C362 C361 1.391 . S
C362 H418 0.947 . S
C362 C419 1.392 . S
C363 C364 1.391 . S
C363 C367 1.397 . S
C363 C419 1.419 . S
C364 C360 1.391 . S
C364 C363 1.391 . S
C364 C365 1.399 . S
C365 C364 1.399 . S
C365 C368 1.396 . S
C365 C377 1.453 . S
C365 C378 1.684 . S
H366 C390 0.948 . S
C367 C363 1.397 . S
C367 C368 1.394 . S
C367 C386 1.723 1_556 S
C368 C365 1.396 . S
C368 C367 1.394 . S
C368 C398 1.723 1_556 S
H369 C392 0.940 1_556 S
H370 C393 0.948 . S
H371 C399 0.982 . S
H372 C400 0.979 . S
H373 C400 0.980 . S
H374 C400 0.983 . S
H375 C399 0.979 . S
H376 C399 0.977 . S
C377 C365 1.453 . S
C377 H406 0.982 . S
C377 H407 0.979 . S
C377 H408 0.977 . S
C378 C365 1.684 . S
C378 H403 0.979 . S
C378 H404 0.980 . S
C378 H405 0.983 . S
C379 C380 1.391 . S
C379 C384 1.391 . S
C379 H409 0.948 . S
C380 C379 1.391 . S
C380 C381 1.391 . S
C381 C380 1.391 . S
C381 C382 1.392 . S
C381 H410 0.947 . S
C382 C381 1.392 . S
C382 C383 1.419 . S
C382 H411 0.948 . S
C383 C382 1.419 . S
C383 C384 1.391 . S
C383 C387 1.397 . S
C384 C379 1.391 . S
C384 C383 1.391 . S
C384 C385 1.399 . S
C385 C384 1.399 . S
C385 C386 1.396 . S
C385 C388 1.453 . S
C385 C389 1.684 . S
C386 C367 1.723 1_554 S
C386 C385 1.396 . S
C386 C387 1.394 . S
C387 C383 1.397 . S
C387 C386 1.394 . S
C387 C397 1.723 . S
C388 C385 1.453 . S
C388 H412 0.982 . S
C388 H413 0.979 . S
C388 H414 0.977 1_554 S
C389 C385 1.684 . S
C389 H415 0.979 . S
C389 H416 0.980 1_554 S
C389 H417 0.983 . S
C390 H366 0.948 . S
C390 C391 1.391 . S
C390 C395 1.391 . S
C391 C390 1.391 . S
C391 C392 1.401 . S
C392 H369 0.940 1_554 S
C392 C391 1.401 . S
C392 C393 1.389 1_554 S
C393 H370 0.948 . S
C393 C392 1.389 1_556 S
C393 C394 1.419 1_556 S
C394 C393 1.419 1_554 S
C394 C395 1.391 . S
C394 C398 1.397 . S
C395 C390 1.391 . S
C395 C394 1.391 . S
C395 C396 1.399 . S
C396 C395 1.399 . S
C396 C397 1.396 . S
C396 C399 1.453 . S
C396 C400 1.684 . S
C397 C387 1.723 . S
C397 C396 1.396 . S
C397 C398 1.394 . S
C398 C368 1.723 1_554 S
C398 C394 1.397 . S
C398 C397 1.394 . S
C399 H371 0.982 . S
C399 H375 0.979 . S
C399 H376 0.977 . S
C399 C396 1.453 . S
C400 H372 0.979 . S
C400 H373 0.980 . S
C400 H374 0.983 . S
C400 C396 1.684 . S
H401 C419 0.948 . S
H402 C360 0.948 . S
H403 C378 0.979 . S
H404 C378 0.980 . S
H405 C378 0.983 . S
H406 C377 0.982 . S
H407 C377 0.979 . S
H408 C377 0.977 . S
H409 C379 0.948 . S
H410 C381 0.947 . S
H411 C382 0.948 . S
H412 C388 0.982 . S
H413 C388 0.979 . S
H414 C388 0.977 1_556 S
H415 C389 0.979 . S
H416 C389 0.980 1_556 S
H417 C389 0.983 . S
H418 C362 0.947 . S
C419 C362 1.392 . S
C419 C363 1.419 . S
C419 H401 0.948 . S
C420 C421 1.391 . S
C420 C424 1.391 . S
C420 H462 0.948 . S
C421 C420 1.391 . S
C421 C422 1.391 . S
C422 C421 1.391 . S
C422 H478 0.947 . S
C422 C479 1.392 . S
C423 C424 1.391 . S
C423 C427 1.397 . S
C423 C479 1.419 . S
C424 C420 1.391 . S
C424 C423 1.391 . S
C424 C425 1.399 . S
C425 C424 1.399 . S
C425 C428 1.396 . S
C425 C437 1.453 . S
C425 C438 1.684 . S
H426 C450 0.948 . S
C427 C423 1.397 . S
C427 C428 1.394 . S
C427 C446 1.723 1_556 S
C428 C425 1.396 . S
C428 C427 1.394 . S
C428 C458 1.723 1_556 S
H429 C452 0.947 1_556 S
H430 C453 0.948 . S
H431 C459 0.982 . S
H432 C460 0.979 . S
H433 C460 0.980 . S
H434 C460 0.983 . S
H435 C459 0.979 . S
H436 C459 0.977 . S
C437 C425 1.453 . S
C437 H466 0.982 . S
C437 H467 0.979 . S
C437 H468 0.977 . S
C438 C425 1.684 . S
C438 H463 0.979 . S
C438 H464 0.980 . S
C438 H465 0.983 . S
C439 C440 1.391 . S
C439 C444 1.391 . S
C439 H469 0.948 . S
C440 C439 1.391 . S
C440 C441 1.391 . S
C441 C440 1.391 . S
C441 C442 1.392 . S
C441 H470 0.947 . S
C442 C441 1.392 . S
C442 C443 1.419 . S
C442 H471 0.948 . S
C443 C442 1.419 . S
C443 C444 1.391 . S
C443 C447 1.397 . S
C444 C439 1.391 . S
C444 C443 1.391 . S
C444 C445 1.399 . S
C445 C444 1.399 . S
C445 C446 1.396 . S
C445 C448 1.453 . S
C445 C449 1.684 . S
C446 C427 1.723 1_554 S
C446 C445 1.396 . S
C446 C447 1.394 . S
C447 C443 1.397 . S
C447 C446 1.394 . S
C447 C457 1.723 . S
C448 C445 1.453 . S
C448 H472 0.982 . S
C448 H473 0.979 . S
C448 H474 0.977 1_554 S
C449 C445 1.684 . S
C449 H475 0.979 . S
C449 H476 0.980 1_554 S
C449 H477 0.983 . S
C450 H426 0.948 . S
C450 C451 1.391 . S
C450 C455 1.391 . S
C451 C450 1.391 . S
C451 C452 1.391 . S
C452 H429 0.947 1_554 S
C452 C451 1.391 . S
C452 C453 1.392 1_554 S
C453 H430 0.948 . S
C453 C452 1.392 1_556 S
C453 C454 1.419 1_556 S
C454 C453 1.419 1_554 S
C454 C455 1.391 . S
C454 C458 1.397 . S
C455 C450 1.391 . S
C455 C454 1.391 . S
C455 C456 1.399 . S
C456 C455 1.399 . S
C456 C457 1.396 . S
C456 C459 1.453 . S
C456 C460 1.684 . S
C457 C447 1.723 . S
C457 C456 1.396 . S
C457 C458 1.394 . S
C458 C428 1.723 1_554 S
C458 C454 1.397 . S
C458 C457 1.394 . S
C459 H431 0.982 . S
C459 H435 0.979 . S
C459 H436 0.977 . S
C459 C456 1.453 . S
C460 H432 0.979 . S
C460 H433 0.980 . S
C460 H434 0.983 . S
C460 C456 1.684 . S
H461 C479 0.948 . S
H462 C420 0.948 . S
H463 C438 0.979 . S
H464 C438 0.980 . S
H465 C438 0.983 . S
H466 C437 0.982 . S
H467 C437 0.979 . S
H468 C437 0.977 . S
H469 C439 0.948 . S
H470 C441 0.947 . S
H471 C442 0.948 . S
H472 C448 0.982 . S
H473 C448 0.979 . S
H474 C448 0.977 1_556 S
H475 C449 0.979 . S
H476 C449 0.980 1_556 S
H477 C449 0.983 . S
H478 C422 0.947 . S
C479 C422 1.392 . S
C479 C423 1.419 . S
C479 H461 0.948 . S
Tb480 N511 2.660 1_565 S
Tb480 N518 2.600 . S
Tb480 O524 2.546 . S
Tb480 O525 2.610 1_455 S
Tb480 O527 2.320 1_455 S
Tb480 O528 2.552 . S
Tb480 O529 2.413 . S
Tb480 O531 2.362 1_565 S
Tb480 O532 2.421 . S
Tb480 C544 2.833 . S
C481 C484 1.432 1_545 S
C481 C485 1.414 . S
C481 N488 1.359 . S
C482 C484 1.417 . S
C482 C486 1.432 . S
C482 C494 1.410 . S
C483 C485 1.444 1_565 S
C483 C486 1.317 . S
C483 H506 0.929 . S
C484 C481 1.432 1_565 S
C484 C482 1.417 . S
C484 N492 1.362 . S
C485 C481 1.414 . S
C485 C483 1.444 1_545 S
C485 C490 1.385 . S
C486 C482 1.432 . S
C486 C483 1.317 . S
C486 H498 0.930 . S
C487 C489 1.392 . S
C487 C490 1.370 . S
C487 H499 0.931 . S
N488 C481 1.359 . S
N488 C489 1.327 . S
N488 Tb491 2.600 . S
C489 C487 1.392 . S
C489 N488 1.327 . S
C489 H496 0.930 . S
C490 C485 1.385 . S
C490 C487 1.370 . S
C490 H509 0.930 . S
Tb491 N488 2.600 . S
Tb491 N492 2.654 1_545 S
Tb491 O525 2.362 1_545 S
Tb491 O526 2.421 . S
Tb491 O530 2.546 . S
Tb491 O531 2.610 1_655 S
Tb491 O533 2.320 1_655 S
Tb491 O534 2.552 1_655 S
Tb491 O535 2.413 . S
Tb491 C555 2.833 . S
N492 C484 1.362 . S
N492 Tb491 2.654 1_565 S
N492 C493 1.274 1_655 S
C493 N492 1.274 1_455 S
C493 C495 1.406 1_455 S
C493 H500 0.970 . S
C494 C482 1.410 . S
C494 C495 1.358 . S
C494 H502 0.930 . S
C495 C493 1.406 1_655 S
C495 C494 1.358 . S
C495 H497 0.917 1_655 S
H496 C489 0.930 . S
H497 C495 0.917 1_455 S
H498 C486 0.930 . S
H499 C487 0.931 . S
H500 C493 0.970 . S
H501 C515 0.930 1_655 S
H502 C494 0.930 . S
H503 C521 0.930 . S
H504 C512 0.930 1_655 S
H505 C519 0.931 . S
H506 C483 0.929 . S
H507 C513 0.930 . S
H508 C546 0.930 . S
H509 C490 0.930 . S
H510 C545 0.929 . S
N511 Tb480 2.660 1_545 S
N511 C512 1.305 . S
N511 C516 1.360 . S
C512 H504 0.930 1_455 S
C512 N511 1.305 . S
C512 C515 1.407 . S
C513 H507 0.930 . S
C513 C514 1.410 . S
C513 C515 1.345 . S
C514 C513 1.410 . S
C514 C516 1.417 . S
C514 C546 1.432 . S
C515 H501 0.930 1_455 S
C515 C512 1.407 . S
C515 C513 1.345 . S
C516 N511 1.360 . S
C516 C514 1.417 . S
C516 C520 1.432 . S
H517 C522 0.927 1_545 S
N518 Tb480 2.600 . S
N518 C520 1.359 1_565 S
N518 C521 1.327 . S
C519 H505 0.931 . S
C519 C521 1.392 . S
C519 C522 1.387 . S
C520 C516 1.432 . S
C520 N518 1.359 1_545 S
C520 C523 1.414 . S
C521 H503 0.930 . S
C521 N518 1.327 . S
C521 C519 1.392 . S
C522 H517 0.927 1_565 S
C522 C519 1.387 . S
C522 C523 1.371 1_565 S
C523 C520 1.414 . S
C523 C522 1.371 1_545 S
C523 C545 1.444 . S
O524 Tb480 2.546 . S
O524 C544 1.251 . S
O525 Tb480 2.610 1_655 S
O525 Tb491 2.362 1_565 S
O525 C536 1.283 . S
O526 Tb491 2.421 . S
O526 C543 1.262 . S
O527 Tb480 2.320 1_655 S
O527 C543 1.260 1_565 S
O528 Tb480 2.552 . S
O528 C536 1.243 1_455 S
O529 Tb480 2.413 . S
O529 C544 1.256 . S
O530 Tb491 2.546 . S
O530 C555 1.251 . S
O531 Tb480 2.362 1_545 S
O531 Tb491 2.610 1_455 S
O531 C547 1.283 . S
O532 Tb480 2.421 . S
O532 C554 1.262 1_565 S
O533 Tb491 2.320 1_455 S
O533 C554 1.260 . S
O534 Tb491 2.552 1_455 S
O534 C547 1.243 . S
O535 Tb491 2.413 . S
O535 C555 1.256 . S
C536 O525 1.283 . S
C536 O528 1.243 1_655 S
C537 C539 1.382 . S
C537 C541 1.393 . S
C537 C544 1.500 . S
C538 C539 1.400 . S
C538 C540 1.384 . S
C539 C537 1.382 . S
C539 C538 1.400 . S
C539 H556 0.929 1_455 S
C540 C538 1.384 . S
C540 C542 1.392 . S
C540 H557 0.931 . S
C541 C537 1.393 . S
C541 C542 1.401 . S
C541 H558 0.930 . S
C542 C540 1.392 . S
C542 C541 1.401 . S
C542 H559 0.930 . S
C543 O526 1.262 . S
C543 O527 1.260 1_545 S
C544 Tb480 2.833 . S
C544 O524 1.251 . S
C544 O529 1.256 . S
C544 C537 1.500 . S
C545 H510 0.929 . S
C545 C523 1.444 . S
C545 C546 1.317 . S
C546 H508 0.930 . S
C546 C514 1.432 . S
C546 C545 1.317 . S
C547 O531 1.283 . S
C547 O534 1.243 . S
C548 C549 1.382 . S
C548 C552 1.393 . S
C548 C555 1.500 . S
C549 C548 1.382 . S
C549 C550 1.400 . S
C549 H560 0.930 1_655 S
C550 C549 1.400 . S
C550 C551 1.384 . S
C551 C550 1.384 . S
C551 C553 1.392 . S
C551 H561 0.931 . S
C552 C548 1.393 . S
C552 C553 1.401 . S
C552 H562 0.930 . S
C553 C551 1.392 . S
C553 C552 1.401 . S
C553 H563 0.930 . S
C554 O532 1.262 1_545 S
C554 O533 1.260 . S
C555 Tb491 2.833 . S
C555 O530 1.251 . S
C555 O535 1.256 . S
C555 C548 1.500 . S
H556 C539 0.929 1_655 S
H557 C540 0.931 . S
H558 C541 0.930 . S
H559 C542 0.930 . S
H560 C549 0.930 1_455 S
H561 C551 0.931 . S
H562 C552 0.930 . S
H563 C553 0.930 . S
Tb564 N595 2.660 . S
Tb564 N602 2.600 . S
Tb564 O608 2.546 . S
Tb564 O609 2.610 1_545 S
Tb564 O611 2.320 1_545 S
Tb564 O612 2.552 . S
Tb564 O613 2.413 . S
Tb564 O615 2.362 . S
Tb564 O616 2.421 . S
Tb564 C628 2.833 . S
C565 C568 1.432 . S
C565 C569 1.414 . S
C565 N572 1.359 . S
C566 C568 1.417 . S
C566 C570 1.432 . S
C566 C578 1.410 . S
C567 C569 1.444 . S
C567 C570 1.317 . S
C567 H590 0.929 . S
C568 C565 1.432 . S
C568 C566 1.417 . S
C568 N576 1.360 . S
C569 C565 1.414 . S
C569 C567 1.444 . S
C569 C574 1.385 . S
C570 C566 1.432 . S
C570 C567 1.317 . S
C570 H582 0.930 . S
C571 C573 1.392 . S
C571 C574 1.370 . S
C571 H583 0.931 . S
N572 C565 1.359 . S
N572 C573 1.327 . S
N572 Tb575 2.600 . S
C573 C571 1.392 . S
C573 N572 1.327 . S
C573 H580 0.930 . S
C574 C569 1.385 . S
C574 C571 1.370 . S
C574 H593 0.930 . S
Tb575 N572 2.600 . S
Tb575 N576 2.660 . S
Tb575 O609 2.362 . S
Tb575 O610 2.421 . S
Tb575 O614 2.546 . S
Tb575 O615 2.610 1_565 S
Tb575 O617 2.320 1_565 S
Tb575 O618 2.552 1_565 S
Tb575 O619 2.413 . S
Tb575 C639 2.833 . S
N576 C568 1.360 . S
N576 Tb575 2.660 . S
N576 C577 1.305 1_565 S
C577 N576 1.305 1_545 S
C577 C579 1.407 . S
C577 H584 0.930 . S
C578 C566 1.410 . S
C578 C579 1.345 1_565 S
C578 H586 0.930 . S
C579 C577 1.407 . S
C579 C578 1.345 1_545 S
C579 H581 0.930 . S
H580 C573 0.930 . S
H581 C579 0.930 . S
H582 C570 0.930 . S
H583 C571 0.931 . S
H584 C577 0.930 . S
H585 C599 0.930 1_565 S
H586 C578 0.930 . S
H587 C605 0.930 . S
H588 C596 0.930 1_565 S
H589 C603 0.931 . S
H590 C567 0.929 . S
H591 C597 0.930 . S
H592 C630 0.930 . S
H593 C574 0.930 . S
H594 C629 0.929 . S
N595 Tb564 2.660 . S
N595 C596 1.305 . S
N595 C600 1.360 . S
C596 H588 0.930 1_545 S
C596 N595 1.305 . S
C596 C599 1.407 . S
C597 H591 0.930 . S
C597 C598 1.410 . S
C597 C599 1.345 . S
C598 C597 1.410 . S
C598 C600 1.417 . S
C598 C630 1.432 . S
C599 H585 0.930 1_545 S
C599 C596 1.407 . S
C599 C597 1.345 . S
C600 N595 1.360 . S
C600 C598 1.417 . S
C600 C604 1.432 . S
H601 C606 0.930 . S
N602 Tb564 2.600 . S
N602 C604 1.359 . S
N602 C605 1.327 . S
C603 H589 0.931 . S
C603 C605 1.392 . S
C603 C606 1.370 . S
C604 C600 1.432 . S
C604 N602 1.359 . S
C604 C607 1.414 . S
C605 H587 0.930 . S
C605 N602 1.327 . S
C605 C603 1.392 . S
C606 H601 0.930 . S
C606 C603 1.370 . S
C606 C607 1.385 . S
C607 C604 1.414 . S
C607 C606 1.385 . S
C607 C629 1.444 . S
O608 Tb564 2.546 . S
O608 C628 1.251 . S
O609 Tb564 2.610 1_565 S
O609 Tb575 2.362 . S
O609 C620 1.283 . S
O610 Tb575 2.421 . S
O610 C627 1.262 . S
O611 Tb564 2.320 1_565 S
O611 C627 1.260 . S
O612 Tb564 2.552 . S
O612 C620 1.243 1_545 S
O613 Tb564 2.413 . S
O613 C628 1.256 . S
O614 Tb575 2.546 . S
O614 C639 1.251 . S
O615 Tb564 2.362 . S
O615 Tb575 2.610 1_545 S
O615 C631 1.283 . S
O616 Tb564 2.421 . S
O616 C638 1.262 . S
O617 Tb575 2.320 1_545 S
O617 C638 1.260 . S
O618 Tb575 2.552 1_545 S
O618 C631 1.243 . S
O619 Tb575 2.413 . S
O619 C639 1.256 . S
C620 O609 1.283 . S
C620 O612 1.243 1_565 S
C621 C623 1.382 . S
C621 C625 1.393 . S
C621 C628 1.500 . S
C622 C623 1.400 . S
C622 C624 1.384 . S
C623 C621 1.382 . S
C623 C622 1.400 . S
C623 H640 0.930 . S
C624 C622 1.384 . S
C624 C626 1.392 . S
C624 H641 0.931 . S
C625 C621 1.393 . S
C625 C626 1.401 . S
C625 H642 0.930 . S
C626 C624 1.392 . S
C626 C625 1.401 . S
C626 H643 0.930 . S
C627 O610 1.262 . S
C627 O611 1.260 . S
C628 Tb564 2.833 . S
C628 O608 1.251 . S
C628 O613 1.256 . S
C628 C621 1.500 . S
C629 H594 0.929 . S
C629 C607 1.444 . S
C629 C630 1.317 . S
C630 H592 0.930 . S
C630 C598 1.432 . S
C630 C629 1.317 . S
C631 O615 1.283 . S
C631 O618 1.243 . S
C632 C633 1.382 . S
C632 C636 1.393 . S
C632 C639 1.500 . S
C633 C632 1.382 . S
C633 C634 1.400 . S
C633 H644 0.930 1_565 S
C634 C633 1.400 . S
C634 C635 1.384 . S
C635 C634 1.384 . S
C635 C637 1.392 . S
C635 H645 0.931 . S
C636 C632 1.393 . S
C636 C637 1.401 . S
C636 H646 0.930 . S
C637 C635 1.392 . S
C637 C636 1.401 . S
C637 H647 0.930 . S
C638 O616 1.262 . S
C638 O617 1.260 . S
C639 Tb575 2.833 . S
C639 O614 1.251 . S
C639 O619 1.256 . S
C639 C632 1.500 . S
H640 C623 0.930 . S
H641 C624 0.931 . S
H642 C625 0.930 . S
H643 C626 0.930 . S
H644 C633 0.930 1_545 S
H645 C635 0.931 . S
H646 C636 0.930 . S
H647 C637 0.930 . S
Tb648 N679 2.660 . S
Tb648 N686 2.600 . S
Tb648 O692 2.546 . S
Tb648 O693 2.610 . S
Tb648 O695 2.320 . S
Tb648 O696 2.552 . S
Tb648 O697 2.413 . S
Tb648 O699 2.362 . S
Tb648 O700 2.421 . S
Tb648 C712 2.833 . S
C649 C652 1.432 . S
C649 C653 1.414 . S
C649 N656 1.359 . S
C650 C652 1.417 . S
C650 C654 1.432 . S
C650 C662 1.410 . S
C651 C653 1.444 . S
C651 C654 1.317 . S
C651 H674 0.929 . S
C652 C649 1.432 . S
C652 C650 1.417 . S
C652 N660 1.360 . S
C653 C649 1.414 . S
C653 C651 1.444 . S
C653 C658 1.385 . S
C654 C650 1.432 . S
C654 C651 1.317 . S
C654 H666 0.930 . S
C655 C657 1.392 . S
C655 C658 1.370 . S
C655 H667 0.931 . S
N656 C649 1.359 . S
N656 C657 1.327 . S
N656 Tb659 2.600 . S
C657 C655 1.392 . S
C657 N656 1.327 . S
C657 H664 0.930 . S
C658 C653 1.385 . S
C658 C655 1.370 . S
C658 H677 0.930 . S
Tb659 N656 2.600 . S
Tb659 N660 2.660 . S
Tb659 O693 2.362 . S
Tb659 O694 2.421 . S
Tb659 O698 2.546 . S
Tb659 O699 2.610 . S
Tb659 O701 2.320 . S
Tb659 O702 2.552 . S
Tb659 O703 2.413 . S
Tb659 C723 2.833 . S
N660 C652 1.360 . S
N660 Tb659 2.660 . S
N660 C661 1.305 . S
C661 N660 1.305 . S
C661 C663 1.407 . S
C661 H668 0.930 . S
C662 C650 1.410 . S
C662 C663 1.345 . S
C662 H670 0.930 . S
C663 C661 1.407 . S
C663 C662 1.345 . S
C663 H665 0.930 . S
H664 C657 0.930 . S
H665 C663 0.930 . S
H666 C654 0.930 . S
H667 C655 0.931 . S
H668 C661 0.930 . S
H669 C683 0.930 . S
H670 C662 0.930 . S
H671 C689 0.930 . S
H672 C680 0.930 . S
H673 C687 0.931 . S
H674 C651 0.929 . S
H675 C681 0.930 . S
H676 C714 0.930 . S
H677 C658 0.930 . S
H678 C713 0.929 . S
N679 Tb648 2.660 . S
N679 C680 1.305 . S
N679 C684 1.360 . S
C680 H672 0.930 . S
C680 N679 1.305 . S
C680 C683 1.407 . S
C681 H675 0.930 . S
C681 C682 1.410 . S
C681 C683 1.345 . S
C682 C681 1.410 . S
C682 C684 1.417 . S
C682 C714 1.432 . S
C683 H669 0.930 . S
C683 C680 1.407 . S
C683 C681 1.345 . S
C684 N679 1.360 . S
C684 C682 1.417 . S
C684 C688 1.432 . S
H685 C690 0.930 . S
N686 Tb648 2.600 . S
N686 C688 1.359 . S
N686 C689 1.327 . S
C687 H673 0.931 . S
C687 C689 1.392 . S
C687 C690 1.370 . S
C688 C684 1.432 . S
C688 N686 1.359 . S
C688 C691 1.414 . S
C689 H671 0.930 . S
C689 N686 1.327 . S
C689 C687 1.392 . S
C690 H685 0.930 . S
C690 C687 1.370 . S
C690 C691 1.385 . S
C691 C688 1.414 . S
C691 C690 1.385 . S
C691 C713 1.444 . S
O692 Tb648 2.546 . S
O692 C712 1.251 . S
O693 Tb648 2.610 . S
O693 Tb659 2.362 . S
O693 C704 1.283 . S
O694 Tb659 2.421 . S
O694 C711 1.262 . S
O695 Tb648 2.320 . S
O695 C711 1.260 . S
O696 Tb648 2.552 . S
O696 C704 1.243 . S
O697 Tb648 2.413 . S
O697 C712 1.256 . S
O698 Tb659 2.546 . S
O698 C723 1.251 . S
O699 Tb648 2.362 . S
O699 Tb659 2.610 . S
O699 C715 1.283 . S
O700 Tb648 2.421 . S
O700 C722 1.262 . S
O701 Tb659 2.320 . S
O701 C722 1.260 . S
O702 Tb659 2.552 . S
O702 C715 1.243 . S
O703 Tb659 2.413 . S
O703 C723 1.256 . S
C704 O693 1.283 . S
C704 O696 1.243 . S
C705 C707 1.382 . S
C705 C709 1.393 . S
C705 C712 1.500 . S
C706 C707 1.400 . S
C706 C708 1.384 . S
C707 C705 1.382 . S
C707 C706 1.400 . S
C707 H724 0.930 . S
C708 C706 1.384 . S
C708 C710 1.392 . S
C708 H725 0.931 . S
C709 C705 1.393 . S
C709 C710 1.401 . S
C709 H726 0.930 . S
C710 C708 1.392 . S
C710 C709 1.401 . S
C710 H727 0.930 . S
C711 O694 1.262 . S
C711 O695 1.260 . S
C712 Tb648 2.833 . S
C712 O692 1.251 . S
C712 O697 1.256 . S
C712 C705 1.500 . S
C713 H678 0.929 . S
C713 C691 1.444 . S
C713 C714 1.317 . S
C714 H676 0.930 . S
C714 C682 1.432 . S
C714 C713 1.317 . S
C715 O699 1.283 . S
C715 O702 1.243 . S
C716 C717 1.382 . S
C716 C720 1.393 . S
C716 C723 1.500 . S
C717 C716 1.382 . S
C717 C718 1.400 . S
C717 H728 0.930 . S
C718 C717 1.400 . S
C718 C719 1.384 . S
C719 C718 1.384 . S
C719 C721 1.392 . S
C719 H729 0.931 . S
C720 C716 1.393 . S
C720 C721 1.401 . S
C720 H730 0.930 . S
C721 C719 1.392 . S
C721 C720 1.401 . S
C721 H731 0.930 . S
C722 O700 1.262 . S
C722 O701 1.260 . S
C723 Tb659 2.833 . S
C723 O698 1.251 . S
C723 O703 1.256 . S
C723 C716 1.500 . S
H724 C707 0.930 . S
H725 C708 0.931 . S
H726 C709 0.930 . S
H727 C710 0.930 . S
H728 C717 0.930 . S
H729 C719 0.931 . S
H730 C720 0.930 . S
H731 C721 0.930 . S
Tb732 N763 2.660 . S
Tb732 N770 2.600 . S
Tb732 O776 2.546 . S
Tb732 O777 2.610 . S
Tb732 O779 2.320 . S
Tb732 O780 2.552 . S
Tb732 O781 2.413 . S
Tb732 O783 2.372 . S
Tb732 O784 2.421 1_455 S
Tb732 C796 2.833 . S
C733 C736 1.432 . S
C733 C737 1.414 . S
C733 N740 1.359 . S
C734 C736 1.417 . S
C734 C738 1.432 . S
C734 C746 1.410 . S
C735 C737 1.444 . S
C735 C738 1.317 . S
C735 H758 0.929 . S
C736 C733 1.432 . S
C736 C734 1.417 . S
C736 N744 1.360 . S
C737 C733 1.414 . S
C737 C735 1.444 . S
C737 C742 1.385 . S
C738 C734 1.432 . S
C738 C735 1.317 . S
C738 H750 0.930 . S
C739 C741 1.392 . S
C739 C742 1.370 1_455 S
C739 H751 0.931 . S
N740 C733 1.359 . S
N740 C741 1.327 1_655 S
N740 Tb743 2.600 . S
C741 C739 1.392 . S
C741 N740 1.327 1_455 S
C741 H748 0.930 . S
C742 C737 1.385 . S
C742 C739 1.370 1_655 S
C742 H761 0.936 . S
Tb743 N740 2.600 . S
Tb743 N744 2.660 . S
Tb743 O777 2.362 1_655 S
Tb743 O778 2.421 1_655 S
Tb743 O782 2.546 . S
Tb743 O783 2.604 1_655 S
Tb743 O785 2.320 . S
Tb743 O786 2.552 . S
Tb743 O787 2.413 . S
Tb743 C807 2.833 . S
N744 C736 1.360 . S
N744 Tb743 2.660 . S
N744 C745 1.305 . S
C745 N744 1.305 . S
C745 C747 1.407 . S
C745 H752 0.930 . S
C746 C734 1.410 . S
C746 C747 1.345 . S
C746 H754 0.930 . S
C747 C745 1.407 . S
C747 C746 1.345 . S
C747 H749 0.930 . S
H748 C741 0.930 . S
H749 C747 0.930 . S
H750 C738 0.930 . S
H751 C739 0.931 . S
H752 C745 0.930 . S
H753 C767 0.930 . S
H754 C746 0.930 . S
H755 C773 0.930 1_655 S
H756 C764 0.930 . S
H757 C771 0.926 1_655 S
H758 C735 0.929 . S
H759 C765 0.930 . S
H760 C798 0.930 . S
H761 C742 0.936 . S
H762 C797 0.929 . S
N763 Tb732 2.660 . S
N763 C764 1.305 . S
N763 C768 1.360 . S
C764 H756 0.930 . S
C764 N763 1.305 . S
C764 C767 1.407 . S
C765 H759 0.930 . S
C765 C766 1.410 . S
C765 C767 1.345 . S
C766 C765 1.410 . S
C766 C768 1.417 . S
C766 C798 1.432 . S
C767 H753 0.930 . S
C767 C764 1.407 . S
C767 C765 1.345 . S
C768 N763 1.360 . S
C768 C766 1.417 . S
C768 C772 1.432 . S
H769 C774 0.930 . S
N770 Tb732 2.600 . S
N770 C772 1.359 . S
N770 C773 1.327 . S
C771 H757 0.926 1_455 S
C771 C773 1.393 . S
C771 C774 1.373 . S
C772 C768 1.432 . S
C772 N770 1.359 . S
C772 C775 1.414 . S
C773 H755 0.930 1_455 S
C773 N770 1.327 . S
C773 C771 1.393 . S
C774 H769 0.930 . S
C774 C771 1.373 . S
C774 C775 1.385 . S
C775 C772 1.414 . S
C775 C774 1.385 . S
C775 C797 1.444 . S
O776 Tb732 2.546 . S
O776 C796 1.251 . S
O777 Tb732 2.610 . S
O777 Tb743 2.362 1_455 S
O777 C788 1.283 . S
O778 Tb743 2.421 1_455 S
O778 C795 1.262 . S
O779 Tb732 2.320 . S
O779 C795 1.260 . S
O780 Tb732 2.552 . S
O780 C788 1.243 . S
O781 Tb732 2.413 . S
O781 C796 1.256 . S
O782 Tb743 2.546 . S
O782 C807 1.251 . S
O783 Tb732 2.372 . S
O783 Tb743 2.604 1_455 S
O783 C799 1.276 1_455 S
O784 Tb732 2.421 1_655 S
O784 C806 1.262 . S
O785 Tb743 2.320 . S
O785 C806 1.260 . S
O786 Tb743 2.552 . S
O786 C799 1.243 . S
O787 Tb743 2.413 . S
O787 C807 1.256 . S
C788 O777 1.283 . S
C788 O780 1.243 . S
C789 C791 1.382 . S
C789 C793 1.393 . S
C789 C796 1.500 . S
C790 C791 1.400 . S
C790 C792 1.384 . S
C791 C789 1.382 . S
C791 C790 1.400 . S
C791 H808 0.930 . S
C792 C790 1.384 . S
C792 C794 1.392 . S
C792 H809 0.931 . S
C793 C789 1.393 . S
C793 C794 1.401 . S
C793 H810 0.930 . S
C794 C792 1.392 . S
C794 C793 1.401 . S
C794 H811 0.930 . S
C795 O778 1.262 . S
C795 O779 1.260 . S
C796 Tb732 2.833 . S
C796 O776 1.251 . S
C796 O781 1.256 . S
C796 C789 1.500 . S
C797 H762 0.929 . S
C797 C775 1.444 . S
C797 C798 1.317 . S
C798 H760 0.930 . S
C798 C766 1.432 . S
C798 C797 1.317 . S
C799 O783 1.276 1_655 S
C799 O786 1.243 . S
C800 C801 1.382 . S
C800 C804 1.393 . S
C800 C807 1.500 . S
C801 C800 1.382 . S
C801 C802 1.400 . S
C801 H812 0.930 . S
C802 C801 1.400 . S
C802 C803 1.384 . S
C803 C802 1.384 . S
C803 C805 1.392 . S
C803 H813 0.931 . S
C804 C800 1.393 . S
C804 C805 1.401 . S
C804 H814 0.930 . S
C805 C803 1.392 . S
C805 C804 1.401 . S
C805 H815 0.930 . S
C806 O784 1.262 . S
C806 O785 1.260 . S
C807 Tb743 2.833 . S
C807 O782 1.251 . S
C807 O787 1.256 . S
C807 C800 1.500 . S
H808 C791 0.930 . S
H809 C792 0.931 . S
H810 C793 0.930 . S
H811 C794 0.930 . S
H812 C801 0.930 . S
H813 C803 0.931 . S
H814 C804 0.930 . S
H815 C805 0.930 . S
H816 C822 0.930 . S
H817 C826 0.930 . S
H818 C831 0.929 . S
H819 C829 0.929 1_565 S
H820 C824 0.929 . S
H821 C830 0.929 . S
C822 H816 0.930 . S
C822 C823 1.367 . S
C822 C830 1.378 . S
C823 C822 1.367 . S
C823 C831 1.433 . S
C824 H820 0.929 . S
C824 C826 1.378 . S
C824 C828 1.350 . S
C825 C828 1.463 . S
C825 C830 1.350 . S
C825 N833 1.427 . S
C826 H817 0.930 . S
C826 C824 1.378 . S
C826 C827 1.367 . S
C827 C826 1.367 . S
C827 C829 1.433 . S
C828 C824 1.350 . S
C828 C825 1.463 . S
C828 N832 1.427 . S
C829 H819 0.929 1_545 S
C829 C827 1.433 . S
C829 N832 1.384 . S
C830 H821 0.929 . S
C830 C822 1.378 . S
C830 C825 1.350 . S
C831 H818 0.929 . S
C831 C823 1.433 . S
C831 N833 1.384 . S
N832 C828 1.427 . S
N832 C829 1.384 . S
N833 C825 1.427 . S
N833 C831 1.384 . S
H834 C840 0.930 . S
H835 C844 0.930 . S
H836 C849 0.929 . S
H837 C847 0.929 . S
H838 C842 0.929 . S
H839 C848 0.929 . S
C840 H834 0.930 . S
C840 C841 1.367 . S
C840 C848 1.378 . S
C841 C840 1.367 . S
C841 C849 1.433 . S
C842 H838 0.929 . S
C842 C844 1.378 . S
C842 C846 1.350 . S
C843 C846 1.463 . S
C843 C848 1.350 . S
C843 N851 1.427 . S
C844 H835 0.930 . S
C844 C842 1.378 . S
C844 C845 1.367 . S
C845 C844 1.367 . S
C845 C847 1.433 . S
C846 C842 1.350 . S
C846 C843 1.463 . S
C846 N850 1.427 . S
C847 H837 0.929 . S
C847 C845 1.433 . S
C847 N850 1.384 . S
C848 H839 0.929 . S
C848 C840 1.378 . S
C848 C843 1.350 . S
C849 H836 0.929 . S
C849 C841 1.433 . S
C849 N851 1.384 . S
N850 C846 1.427 . S
N850 C847 1.384 . S
N851 C843 1.427 . S
N851 C849 1.384 . S
H852 C858 0.930 . S
H853 C862 0.930 . S
H854 C867 0.929 . S
H855 C865 0.929 . S
H856 C860 0.929 . S
H857 C866 0.929 . S
C858 H852 0.930 . S
C858 C859 1.367 . S
C858 C866 1.378 . S
C859 C858 1.367 . S
C859 C867 1.433 . S
C860 H856 0.929 . S
C860 C862 1.378 . S
C860 C864 1.350 . S
C861 C864 1.463 . S
C861 C866 1.350 . S
C861 N869 1.427 . S
C862 H853 0.930 . S
C862 C860 1.378 . S
C862 C863 1.367 . S
C863 C862 1.367 . S
C863 C865 1.433 . S
C864 C860 1.350 . S
C864 C861 1.463 . S
C864 N868 1.427 . S
C865 H855 0.929 . S
C865 C863 1.433 . S
C865 N868 1.384 . S
C866 H857 0.929 . S
C866 C858 1.378 . S
C866 C861 1.350 . S
C867 H854 0.929 . S
C867 C859 1.433 . S
C867 N869 1.384 . S
N868 C864 1.427 . S
N868 C865 1.384 . S
N869 C861 1.427 . S
N869 C867 1.384 . S
H870 C876 0.930 . S
H871 C880 0.930 . S
H872 C885 0.929 . S
H873 C883 0.929 1_655 S
H874 C878 0.929 . S
H875 C884 0.929 . S
C876 H870 0.930 . S
C876 C877 1.367 . S
C876 C884 1.378 . S
C877 C876 1.367 . S
C877 C885 1.433 . S
C878 H874 0.929 . S
C878 C880 1.378 . S
C878 C882 1.350 . S
C879 C882 1.463 . S
C879 C884 1.350 . S
C879 N887 1.427 . S
C880 H871 0.930 . S
C880 C878 1.378 . S
C880 C881 1.367 . S
C881 C880 1.367 . S
C881 C883 1.433 . S
C882 C878 1.350 . S
C882 C879 1.463 . S
C882 N886 1.427 . S
C883 H873 0.929 1_455 S
C883 C881 1.433 . S
C883 N886 1.384 . S
C884 H875 0.929 . S
C884 C876 1.378 . S
C884 C879 1.350 . S
C885 H872 0.929 . S
C885 C877 1.433 . S
C885 N887 1.384 . S
N886 C882 1.427 . S
N886 C883 1.384 . S
N887 C879 1.427 . S
N887 C885 1.384 . S
H888 C894 0.930 . S
H889 C898 0.930 . S
H890 C903 0.929 . S
H891 C901 0.929 . S
H892 C896 0.929 1_545 S
H893 C902 0.929 . S
C894 H888 0.930 . S
C894 C895 1.367 . S
C894 C902 1.378 1_554 S
C895 C894 1.367 . S
C895 C903 1.433 . S
C896 H892 0.929 1_565 S
C896 C898 1.378 1_565 S
C896 C900 1.350 . S
C897 C900 1.463 . S
C897 C902 1.350 . S
C897 N905 1.427 1_556 S
C898 H889 0.930 . S
C898 C896 1.378 1_545 S
C898 C899 1.367 1_545 S
C899 C898 1.367 1_565 S
C899 C901 1.433 . S
C900 C896 1.350 . S
C900 C897 1.463 . S
C900 N904 1.427 . S
C901 H891 0.929 . S
C901 C899 1.433 . S
C901 N904 1.384 . S
C902 H893 0.929 . S
C902 C894 1.378 1_556 S
C902 C897 1.350 . S
C903 H890 0.929 . S
C903 C895 1.433 . S
C903 N905 1.384 . S
N904 C900 1.427 . S
N904 C901 1.384 . S
N905 C897 1.427 1_554 S
N905 C903 1.384 . S
H906 C912 0.930 . S
H907 C916 0.930 . S
H908 C921 0.929 . S
H909 C919 0.929 . S
H910 C914 0.929 . S
H911 C920 0.929 1_556 S
C912 H906 0.930 . S
C912 C913 1.367 . S
C912 C920 1.378 . S
C913 C912 1.367 . S
C913 C921 1.433 . S
C914 H910 0.929 . S
C914 C916 1.378 . S
C914 C918 1.350 . S
C915 C918 1.463 . S
C915 C920 1.350 1_556 S
C915 N923 1.427 . S
C916 H907 0.930 . S
C916 C914 1.378 . S
C916 C917 1.367 . S
C917 C916 1.367 . S
C917 C919 1.433 . S
C918 C914 1.350 . S
C918 C915 1.463 . S
C918 N922 1.427 . S
C919 H909 0.929 . S
C919 C917 1.433 . S
C919 N922 1.384 . S
C920 H911 0.929 1_554 S
C920 C912 1.378 . S
C920 C915 1.350 1_554 S
C921 H908 0.929 . S
C921 C913 1.433 . S
C921 N923 1.384 1_554 S
N922 C918 1.427 . S
N922 C919 1.384 . S
N923 C915 1.427 . S
N923 C921 1.384 1_556 S
H924 C930 0.930 . S
H925 C934 0.930 . S
H926 C939 0.929 . S
H927 C937 0.929 . S
H928 C932 0.929 . S
H929 C938 0.929 . S
C930 H924 0.930 . S
C930 C931 1.367 . S
C930 C938 1.378 1_554 S
C931 C930 1.367 . S
C931 C939 1.433 . S
C932 H928 0.929 . S
C932 C934 1.378 . S
C932 C936 1.350 . S
C933 C936 1.463 . S
C933 C938 1.350 . S
C933 N941 1.419 1_556 S
C934 H925 0.930 . S
C934 C932 1.378 . S
C934 C935 1.367 . S
C935 C934 1.367 . S
C935 C937 1.433 . S
C936 C932 1.350 . S
C936 C933 1.463 . S
C936 N940 1.427 . S
C937 H927 0.929 . S
C937 C935 1.433 . S
C937 N940 1.384 . S
C938 H929 0.929 . S
C938 C930 1.378 1_556 S
C938 C933 1.350 . S
C939 H926 0.929 . S
C939 C931 1.433 . S
C939 N941 1.393 . S
N940 C936 1.427 . S
N940 C937 1.384 . S
N941 C933 1.419 1_554 S
N941 C939 1.393 . S
H942 C948 0.930 . S
H943 C952 0.930 . S
H944 C957 0.929 . S
H945 C955 0.929 . S
H946 C950 0.929 . S
H947 C956 0.929 . S
C948 H942 0.930 . S
C948 C949 1.367 . S
C948 C956 1.378 1_554 S
C949 C948 1.367 . S
C949 C957 1.433 . S
C950 H946 0.929 . S
C950 C952 1.378 . S
C950 C954 1.350 . S
C951 C954 1.463 . S
C951 C956 1.350 . S
C951 N959 1.427 1_556 S
C952 H943 0.930 . S
C952 C950 1.378 . S
C952 C953 1.367 . S
C953 C952 1.367 . S
C953 C955 1.433 . S
C954 C950 1.350 . S
C954 C951 1.463 . S
C954 N958 1.427 . S
C955 H945 0.929 . S
C955 C953 1.433 . S
C955 N958 1.384 . S
C956 H947 0.929 . S
C956 C948 1.378 1_556 S
C956 C951 1.350 . S
C957 H944 0.929 . S
C957 C949 1.433 . S
C957 N959 1.384 . S
N958 C954 1.427 . S
N958 C955 1.384 . S
N959 C951 1.427 1_554 S
N959 C957 1.384 . S
H960 C966 0.930 . S
H961 C970 0.930 1_655 S
H962 C975 0.929 . S
H963 C973 0.929 . S
H964 C968 0.929 . S
H965 C974 0.929 . S
C966 H960 0.930 . S
C966 C967 1.367 . S
C966 C974 1.378 . S
C967 C966 1.367 . S
C967 C975 1.433 . S
C968 H964 0.929 . S
C968 C970 1.378 . S
C968 C972 1.350 . S
C969 C972 1.463 . S
C969 C974 1.350 . S
C969 N977 1.427 . S
C970 H961 0.930 1_455 S
C970 C968 1.378 . S
C970 C971 1.367 . S
C971 C970 1.367 . S
C971 C973 1.433 . S
C972 C968 1.350 . S
C972 C969 1.463 . S
C972 N976 1.427 . S
C973 H963 0.929 . S
C973 C971 1.433 . S
C973 N976 1.384 . S
C974 H965 0.929 . S
C974 C966 1.378 . S
C974 C969 1.350 . S
C975 H962 0.929 . S
C975 C967 1.433 . S
C975 N977 1.384 . S
N976 C972 1.427 . S
N976 C973 1.384 . S
N977 C969 1.427 . S
N977 C975 1.384 . S
H978 C984 0.930 . S
H979 C988 0.930 1_565 S
H980 C993 0.929 . S
H981 C991 0.929 . S
H982 C986 0.929 . S
H983 C992 0.929 . S
C984 H978 0.930 . S
C984 C985 1.367 . S
C984 C992 1.378 . S
C985 C984 1.367 . S
C985 C993 1.433 . S
C986 H982 0.929 . S
C986 C988 1.378 . S
C986 C990 1.350 . S
C987 C990 1.463 . S
C987 C992 1.350 . S
C987 N995 1.427 . S
C988 H979 0.930 1_545 S
C988 C986 1.378 . S
C988 C989 1.367 . S
C989 C988 1.367 . S
C989 C991 1.436 . S
C990 C986 1.350 . S
C990 C987 1.463 . S
C990 N994 1.427 . S
C991 H981 0.929 . S
C991 C989 1.436 . S
C991 N994 1.384 . S
C992 H983 0.929 . S
C992 C984 1.378 . S
C992 C987 1.350 . S
C993 H980 0.929 . S
C993 C985 1.433 . S
C993 N995 1.384 . S
N994 C990 1.427 . S
N994 C991 1.384 . S
N995 C987 1.427 . S
N995 C993 1.384 . S
H996 C1002 0.930 . S
H997 C1006 0.930 . S
H998 C1011 0.929 . S
H999 C1009 0.929 . S
H1000 C1004 0.929 . S
H1001 C1010 0.929 . S
C1002 H996 0.930 . S
C1002 C1003 1.367 . S
C1002 C1010 1.378 . S
C1003 C1002 1.367 . S
C1003 C1011 1.433 . S
C1004 H1000 0.929 . S
C1004 C1006 1.378 . S
C1004 C1008 1.350 . S
C1005 C1008 1.463 . S
C1005 C1010 1.350 . S
C1005 N1013 1.427 . S
C1006 H997 0.930 . S
C1006 C1004 1.378 . S
C1006 C1007 1.367 . S
C1007 C1006 1.367 . S
C1007 C1009 1.433 . S
C1008 C1004 1.350 . S
C1008 C1005 1.463 . S
C1008 N1012 1.427 . S
C1009 H999 0.929 . S
C1009 C1007 1.433 . S
C1009 N1012 1.384 . S
C1010 H1001 0.929 . S
C1010 C1002 1.378 . S
C1010 C1005 1.350 . S
C1011 H998 0.929 . S
C1011 C1003 1.433 . S
C1011 N1013 1.384 . S
N1012 C1008 1.427 . S
N1012 C1009 1.384 . S
N1013 C1005 1.427 . S
N1013 C1011 1.384 . S
H1014 C1020 0.930 . S
H1015 C1024 0.930 . S
H1016 C1029 0.929 . S
H1017 C1027 0.929 . S
H1018 C1022 0.929 . S
H1019 C1028 0.929 . S
C1020 H1014 0.930 . S
C1020 C1021 1.367 . S
C1020 C1028 1.378 . S
C1021 C1020 1.367 . S
C1021 C1029 1.433 . S
C1022 H1018 0.929 . S
C1022 C1024 1.378 . S
C1022 C1026 1.350 . S
C1023 C1026 1.463 . S
C1023 C1028 1.350 . S
C1023 N1031 1.427 . S
C1024 H1015 0.930 . S
C1024 C1022 1.378 . S
C1024 C1025 1.367 . S
C1025 C1024 1.367 . S
C1025 C1027 1.433 . S
C1026 C1022 1.350 . S
C1026 C1023 1.463 . S
C1026 N1030 1.427 . S
C1027 H1017 0.929 . S
C1027 C1025 1.433 . S
C1027 N1030 1.384 . S
C1028 H1019 0.929 . S
C1028 C1020 1.378 . S
C1028 C1023 1.350 . S
C1029 H1016 0.929 . S
C1029 C1021 1.433 . S
C1029 N1031 1.384 . S
N1030 C1026 1.427 . S
N1030 C1027 1.384 . S
N1031 C1023 1.427 . S
N1031 C1029 1.384 . S
H1032 C1038 0.930 . S
H1033 C1042 0.930 . S
H1034 C1047 0.929 . S
H1035 C1045 0.929 . S
H1036 C1040 0.929 . S
H1037 C1046 0.929 . S
C1038 H1032 0.930 . S
C1038 C1039 1.367 1_554 S
C1038 C1046 1.378 . S
C1039 C1038 1.367 1_556 S
C1039 C1047 1.433 . S
C1040 H1036 0.929 . S
C1040 C1042 1.378 . S
C1040 C1044 1.350 . S
C1041 C1044 1.463 . S
C1041 C1046 1.350 1_556 S
C1041 N1049 1.427 . S
C1042 H1033 0.930 . S
C1042 C1040 1.378 . S
C1042 C1043 1.367 1_655 S
C1043 C1042 1.367 1_455 S
C1043 C1045 1.433 . S
C1044 C1040 1.350 . S
C1044 C1041 1.463 . S
C1044 N1048 1.427 . S
C1045 H1035 0.929 . S
C1045 C1043 1.433 . S
C1045 N1048 1.384 1_455 S
C1046 H1037 0.929 . S
C1046 C1038 1.378 . S
C1046 C1041 1.350 1_554 S
C1047 H1034 0.929 . S
C1047 C1039 1.433 . S
C1047 N1049 1.384 . S
N1048 C1044 1.427 . S
N1048 C1045 1.384 1_655 S
N1049 C1041 1.427 . S
N1049 C1047 1.384 . S
H1050 C1056 0.930 . S
H1051 C1060 0.930 . S
H1052 C1065 0.929 . S
H1053 C1063 0.929 . S
H1054 C1058 0.929 . S
H1055 C1064 0.929 . S
C1056 H1050 0.930 . S
C1056 C1057 1.367 . S
C1056 C1064 1.378 . S
C1057 C1056 1.367 . S
C1057 C1065 1.433 1_556 S
C1058 H1054 0.929 . S
C1058 C1060 1.378 . S
C1058 C1062 1.350 1_545 S
C1059 C1062 1.463 . S
C1059 C1064 1.350 . S
C1059 N1067 1.427 . S
C1060 H1051 0.930 . S
C1060 C1058 1.378 . S
C1060 C1061 1.367 . S
C1061 C1060 1.367 . S
C1061 C1063 1.433 1_545 S
C1062 C1058 1.350 1_565 S
C1062 C1059 1.463 . S
C1062 N1066 1.427 . S
C1063 H1053 0.929 . S
C1063 C1061 1.433 1_565 S
C1063 N1066 1.384 . S
C1064 H1055 0.929 . S
C1064 C1056 1.378 . S
C1064 C1059 1.350 . S
C1065 H1052 0.929 . S
C1065 C1057 1.433 1_554 S
C1065 N1067 1.384 1_554 S
N1066 C1062 1.427 . S
N1066 C1063 1.384 . S
N1067 C1059 1.427 . S
N1067 C1065 1.384 1_556 S
H1068 C1074 0.930 . S
H1069 C1078 0.930 . S
H1070 C1083 0.929 . S
H1071 C1081 0.929 . S
H1072 C1076 0.929 . S
H1073 C1082 0.929 . S
C1074 H1068 0.930 . S
C1074 C1075 1.367 . S
C1074 C1082 1.378 . S
C1075 C1074 1.367 . S
C1075 C1083 1.433 1_556 S
C1076 H1072 0.929 . S
C1076 C1078 1.378 . S
C1076 C1080 1.350 . S
C1077 C1080 1.463 . S
C1077 C1082 1.350 . S
C1077 N1085 1.427 1_556 S
C1078 H1069 0.930 . S
C1078 C1076 1.378 . S
C1078 C1079 1.367 . S
C1079 C1078 1.367 . S
C1079 C1081 1.433 . S
C1080 C1076 1.350 . S
C1080 C1077 1.463 . S
C1080 N1084 1.427 . S
C1081 H1071 0.929 . S
C1081 C1079 1.433 . S
C1081 N1084 1.384 . S
C1082 H1073 0.929 . S
C1082 C1074 1.378 . S
C1082 C1077 1.350 . S
C1083 H1070 0.929 . S
C1083 C1075 1.433 1_554 S
C1083 N1085 1.384 . S
N1084 C1080 1.427 . S
N1084 C1081 1.384 . S
N1085 C1077 1.427 1_554 S
N1085 C1083 1.384 . S
H1086 C1092 0.930 . S
H1087 C1096 0.930 . S
H1088 C1101 0.929 . S
H1089 C1099 0.929 . S
H1090 C1094 0.929 1_554 S
H1091 C1100 0.929 . S
C1092 H1086 0.930 . S
C1092 C1093 1.367 . S
C1092 C1100 1.378 . S
C1093 C1092 1.367 . S
C1093 C1101 1.433 1_556 S
C1094 H1090 0.929 1_556 S
C1094 C1096 1.378 . S
C1094 C1098 1.350 . S
C1095 C1098 1.463 . S
C1095 C1100 1.350 . S
C1095 N1103 1.427 1_556 S
C1096 H1087 0.930 . S
C1096 C1094 1.378 . S
C1096 C1097 1.367 . S
C1097 C1096 1.367 . S
C1097 C1099 1.433 . S
C1098 C1094 1.350 . S
C1098 C1095 1.463 . S
C1098 N1102 1.427 . S
C1099 H1089 0.929 . S
C1099 C1097 1.433 . S
C1099 N1102 1.384 . S
C1100 H1091 0.929 . S
C1100 C1092 1.378 . S
C1100 C1095 1.350 . S
C1101 H1088 0.929 . S
C1101 C1093 1.433 1_554 S
C1101 N1103 1.384 . S
N1102 C1098 1.427 . S
N1102 C1099 1.384 . S
N1103 C1095 1.427 1_554 S
N1103 C1101 1.384 . S
H1104 C1110 0.930 . S
H1105 C1114 0.930 . S
H1106 C1119 0.929 . S
H1107 C1117 0.929 . S
H1108 C1112 0.929 . S
H1109 C1118 0.929 . S
C1110 H1104 0.930 . S
C1110 C1111 1.367 . S
C1110 C1118 1.378 . S
C1111 C1110 1.367 . S
C1111 C1119 1.433 . S
C1112 H1108 0.929 . S
C1112 C1114 1.378 . S
C1112 C1116 1.350 . S
C1113 C1116 1.463 . S
C1113 C1118 1.350 . S
C1113 N1121 1.427 . S
C1114 H1105 0.930 . S
C1114 C1112 1.378 . S
C1114 C1115 1.367 . S
C1115 C1114 1.367 . S
C1115 C1117 1.433 . S
C1116 C1112 1.350 . S
C1116 C1113 1.463 . S
C1116 N1120 1.427 . S
C1117 H1107 0.929 . S
C1117 C1115 1.433 . S
C1117 N1120 1.384 . S
C1118 H1109 0.929 . S
C1118 C1110 1.378 . S
C1118 C1113 1.350 . S
C1119 H1106 0.929 . S
C1119 C1111 1.433 . S
C1119 N1121 1.384 . S
N1120 C1116 1.427 . S
N1120 C1117 1.384 . S
N1121 C1113 1.427 . S
N1121 C1119 1.384 . S
H1122 C1128 0.930 . S
H1123 C1132 0.930 . S
H1124 C1137 0.929 . S
H1125 C1135 0.929 . S
H1126 C1130 0.929 . S
H1127 C1136 0.929 . S
C1128 H1122 0.930 . S
C1128 C1129 1.367 . S
C1128 C1136 1.378 . S
C1129 C1128 1.367 . S
C1129 C1137 1.433 . S
C1130 H1126 0.929 . S
C1130 C1132 1.378 . S
C1130 C1134 1.350 . S
C1131 C1134 1.463 . S
C1131 C1136 1.350 . S
C1131 N1139 1.427 . S
C1132 H1123 0.930 . S
C1132 C1130 1.378 . S
C1132 C1133 1.367 . S
C1133 C1132 1.367 . S
C1133 C1135 1.433 . S
C1134 C1130 1.350 . S
C1134 C1131 1.463 . S
C1134 N1138 1.427 . S
C1135 H1125 0.929 . S
C1135 C1133 1.433 . S
C1135 N1138 1.384 . S
C1136 H1127 0.929 . S
C1136 C1128 1.378 . S
C1136 C1131 1.350 . S
C1137 H1124 0.929 . S
C1137 C1129 1.433 . S
C1137 N1139 1.384 . S
N1138 C1134 1.427 . S
N1138 C1135 1.384 . S
N1139 C1131 1.427 . S
N1139 C1137 1.384 . S
H1140 C1146 0.930 . S
H1141 C1150 0.930 . S
H1142 C1155 0.929 . S
H1143 C1153 0.929 . S
H1144 C1148 0.929 . S
H1145 C1154 0.929 . S
C1146 H1140 0.930 . S
C1146 C1147 1.367 . S
C1146 C1154 1.378 . S
C1147 C1146 1.367 . S
C1147 C1155 1.433 . S
C1148 H1144 0.929 . S
C1148 C1150 1.378 . S
C1148 C1152 1.350 . S
C1149 C1152 1.463 . S
C1149 C1154 1.350 . S
C1149 N1157 1.427 . S
C1150 H1141 0.930 . S
C1150 C1148 1.378 . S
C1150 C1151 1.367 . S
C1151 C1150 1.367 . S
C1151 C1153 1.433 . S
C1152 C1148 1.350 . S
C1152 C1149 1.463 . S
C1152 N1156 1.427 . S
C1153 H1143 0.929 . S
C1153 C1151 1.433 . S
C1153 N1156 1.384 . S
C1154 H1145 0.929 . S
C1154 C1146 1.378 . S
C1154 C1149 1.350 . S
C1155 H1142 0.929 . S
C1155 C1147 1.433 . S
C1155 N1157 1.384 . S
N1156 C1152 1.427 . S
N1156 C1153 1.384 . S
N1157 C1149 1.427 . S
N1157 C1155 1.384 . S
H1158 C1164 0.930 . S
H1159 C1168 0.930 . S
H1160 C1173 0.929 . S
H1161 C1171 0.929 . S
H1162 C1166 0.929 . S
H1163 C1172 0.929 . S
C1164 H1158 0.930 . S
C1164 C1165 1.367 . S
C1164 C1172 1.378 . S
C1165 C1164 1.367 . S
C1165 C1173 1.433 . S
C1166 H1162 0.929 . S
C1166 C1168 1.378 . S
C1166 C1170 1.350 . S
C1167 C1170 1.463 . S
C1167 C1172 1.350 . S
C1167 N1175 1.427 . S
C1168 H1159 0.930 . S
C1168 C1166 1.378 . S
C1168 C1169 1.367 . S
C1169 C1168 1.367 . S
C1169 C1171 1.433 . S
C1170 C1166 1.350 . S
C1170 C1167 1.463 . S
C1170 N1174 1.427 . S
C1171 H1161 0.929 . S
C1171 C1169 1.433 . S
C1171 N1174 1.384 . S
C1172 H1163 0.929 . S
C1172 C1164 1.378 . S
C1172 C1167 1.350 . S
C1173 H1160 0.929 . S
C1173 C1165 1.433 . S
C1173 N1175 1.384 . S
N1174 C1170 1.427 . S
N1174 C1171 1.384 . S
N1175 C1167 1.427 . S
N1175 C1173 1.384 . S
H1176 C1182 0.930 . S
H1177 C1186 0.930 1_455 S
H1178 C1191 0.929 . S
H1179 C1189 0.929 . S
H1180 C1184 0.929 . S
H1181 C1190 0.929 . S
C1182 H1176 0.930 . S
C1182 C1183 1.367 . S
C1182 C1190 1.378 . S
C1183 C1182 1.367 . S
C1183 C1191 1.433 . S
C1184 H1180 0.929 . S
C1184 C1186 1.378 . S
C1184 C1188 1.350 . S
C1185 C1188 1.463 . S
C1185 C1190 1.350 . S
C1185 N1193 1.427 . S
C1186 H1177 0.930 1_655 S
C1186 C1184 1.378 . S
C1186 C1187 1.367 . S
C1187 C1186 1.367 . S
C1187 C1189 1.433 . S
C1188 C1184 1.350 . S
C1188 C1185 1.463 . S
C1188 N1192 1.427 . S
C1189 H1179 0.929 . S
C1189 C1187 1.433 . S
C1189 N1192 1.384 . S
C1190 H1181 0.929 . S
C1190 C1182 1.378 . S
C1190 C1185 1.350 . S
C1191 H1178 0.929 . S
C1191 C1183 1.433 . S
C1191 N1193 1.384 . S
N1192 C1188 1.427 . S
N1192 C1189 1.384 . S
N1193 C1185 1.427 . S
N1193 C1191 1.384 . S
H1194 C1200 0.930 . S
H1195 C1204 0.930 . S
H1196 C1209 0.929 . S
H1197 C1207 0.929 . S
H1198 C1202 0.929 . S
H1199 C1208 0.929 . S
C1200 H1194 0.930 . S
C1200 C1201 1.367 . S
C1200 C1208 1.378 . S
C1201 C1200 1.367 . S
C1201 C1209 1.433 . S
C1202 H1198 0.929 . S
C1202 C1204 1.378 . S
C1202 C1206 1.350 . S
C1203 C1206 1.463 . S
C1203 C1208 1.350 . S
C1203 N1211 1.427 . S
C1204 H1195 0.930 . S
C1204 C1202 1.378 . S
C1204 C1205 1.367 . S
C1205 C1204 1.367 . S
C1205 C1207 1.433 . S
C1206 C1202 1.350 . S
C1206 C1203 1.463 . S
C1206 N1210 1.427 . S
C1207 H1197 0.929 . S
C1207 C1205 1.433 . S
C1207 N1210 1.384 . S
C1208 H1199 0.929 . S
C1208 C1200 1.378 . S
C1208 C1203 1.350 . S
C1209 H1196 0.929 . S
C1209 C1201 1.433 . S
C1209 N1211 1.384 . S
N1210 C1206 1.427 . S
N1210 C1207 1.384 . S
N1211 C1203 1.427 . S
N1211 C1209 1.384 . S
H1212 C1218 0.930 . S
H1213 C1222 0.930 . S
H1214 C1227 0.929 . S
H1215 C1225 0.929 . S
H1216 C1220 0.929 . S
H1217 C1226 0.929 . S
C1218 H1212 0.930 . S
C1218 C1219 1.367 . S
C1218 C1226 1.378 . S
C1219 C1218 1.367 . S
C1219 C1227 1.433 . S
C1220 H1216 0.929 . S
C1220 C1222 1.378 . S
C1220 C1224 1.350 . S
C1221 C1224 1.463 . S
C1221 C1226 1.350 . S
C1221 N1229 1.427 . S
C1222 H1213 0.930 . S
C1222 C1220 1.378 . S
C1222 C1223 1.367 . S
C1223 C1222 1.367 . S
C1223 C1225 1.433 . S
C1224 C1220 1.350 . S
C1224 C1221 1.463 . S
C1224 N1228 1.427 . S
C1225 H1215 0.929 . S
C1225 C1223 1.433 . S
C1225 N1228 1.384 . S
C1226 H1217 0.929 . S
C1226 C1218 1.378 . S
C1226 C1221 1.350 . S
C1227 H1214 0.929 . S
C1227 C1219 1.433 . S
C1227 N1229 1.384 . S
N1228 C1224 1.427 . S
N1228 C1225 1.384 . S
N1229 C1221 1.427 . S
N1229 C1227 1.384 . S
H1230 C1236 0.930 . S
H1231 C1240 0.930 . S
H1232 C1245 0.929 . S
H1233 C1243 0.929 . S
H1234 C1238 0.929 . S
H1235 C1244 0.929 . S
C1236 H1230 0.930 . S
C1236 C1237 1.367 . S
C1236 C1244 1.378 . S
C1237 C1236 1.367 . S
C1237 C1245 1.433 . S
C1238 H1234 0.929 . S
C1238 C1240 1.378 . S
C1238 C1242 1.350 . S
C1239 C1242 1.463 . S
C1239 C1244 1.350 . S
C1239 N1247 1.427 . S
C1240 H1231 0.930 . S
C1240 C1238 1.378 . S
C1240 C1241 1.367 . S
C1241 C1240 1.367 . S
C1241 C1243 1.433 . S
C1242 C1238 1.350 . S
C1242 C1239 1.463 . S
C1242 N1246 1.427 . S
C1243 H1233 0.929 . S
C1243 C1241 1.433 . S
C1243 N1246 1.384 . S
C1244 H1235 0.929 . S
C1244 C1236 1.378 . S
C1244 C1239 1.350 . S
C1245 H1232 0.929 . S
C1245 C1237 1.433 . S
C1245 N1247 1.384 . S
N1246 C1242 1.427 . S
N1246 C1243 1.384 . S
N1247 C1239 1.427 . S
N1247 C1245 1.384 . S
C823 C391 2.396 . S
C827 C554 2.351 . S
C845 C638 2.366 . S
C841 C451 2.412 . S
C863 C704 2.275 . S
C859 C241 2.191 . S
C881 C788 2.260 . S
C877 C331 2.174 . S
C899 C543 2.345 1_565 S
C895 C121 2.128 . S
C913 C211 2.347 . S
C917 C627 2.374 . S
C931 C31 2.451 . S
C935 C715 2.267 . S
C949 C91 2.241 . S
C953 C799 2.255 . S
C971 C550 0.646 1_455 S
C967 C301 0.723 . S
C989 C634 0.580 1_545 S
C985 C380 0.602 . S
C1007 C706 0.588 . S
C1003 C440 0.574 . S
C1021 C260 0.714 . S
C1025 C790 0.607 . S
C1039 C61 0.654 1_556 S
C1043 C538 0.655 . S
C1061 C622 0.578 . S
C1057 C140 0.643 1_556 S
C1079 C718 0.557 . S
C1075 C200 0.627 1_556 S
C1093 C20 0.668 1_556 S
C1097 C802 0.607 . S
C1111 C320 2.888 . S
C1115 C547 2.921 . S
C1129 C361 2.536 . S
C1133 C631 2.875 . S
C1151 C711 2.949 . S
C1147 C421 2.442 . S
C1169 C795 2.985 . S
C1165 C271 2.755 . S
C1183 C80 2.937 . S
C1187 C536 2.916 . S
C1205 C620 2.876 . S
C1201 C151 2.891 . S
C1223 C722 2.948 . S
C1219 C181 2.380 . S
C1237 C1 2.394 . S
C1241 C806 2.981 . S
