# Generated by pormake.
# Topology pth, (4,4)-cn, num edge types: 1
# Building blocks:
#     Node 0, Type 0, BuildingBlock: CEKHIL_clean_sbu_0, # of connection points: 4
#     Node 1, Type 0, BuildingBlock: CEKHIL_clean_sbu_0, # of connection points: 4
#     Node 2, Type 0, BuildingBlock: CEKHIL_clean_sbu_0, # of connection points: 4
#     Node 3, Type 1, BuildingBlock: AZAVOO_clean_linker_0, # of connection points: 4
#     Node 4, Type 1, BuildingBlock: AZAVOO_clean_linker_0, # of connection points: 4
#     Node 5, Type 1, BuildingBlock: AZAVOO_clean_linker_0, # of connection points: 4
#     Edge 6, Type (0, 1), BuildingBlock: KIFKEQ_clean_linker_1, # of connection points: 2
#     Edge 7, Type (0, 1), BuildingBlock: KIFKEQ_clean_linker_1, # of connection points: 2
#     Edge 8, Type (0, 1), BuildingBlock: KIFKEQ_clean_linker_1, # of connection points: 2
#     Edge 9, Type (0, 1), BuildingBlock: KIFKEQ_clean_linker_1, # of connection points: 2
#     Edge 10, Type (0, 1), BuildingBlock: KIFKEQ_clean_linker_1, # of connection points: 2
#     Edge 11, Type (0, 1), BuildingBlock: KIFKEQ_clean_linker_1, # of connection points: 2
#     Edge 12, Type (0, 1), BuildingBlock: KIFKEQ_clean_linker_1, # of connection points: 2
#     Edge 13, Type (0, 1), BuildingBlock: KIFKEQ_clean_linker_1, # of connection points: 2
#     Edge 14, Type (0, 1), BuildingBlock: KIFKEQ_clean_linker_1, # of connection points: 2
#     Edge 15, Type (0, 1), BuildingBlock: KIFKEQ_clean_linker_1, # of connection points: 2
#     Edge 16, Type (0, 1), BuildingBlock: KIFKEQ_clean_linker_1, # of connection points: 2
#     Edge 17, Type (0, 1), BuildingBlock: KIFKEQ_clean_linker_1, # of connection points: 2
# Relax obj value: 0.106
# Max RMSD: 0.224
# Mean RMSD: 0.144
data_MOF--net-pth--node1-CEKHIL_clean_sbu_0--node2-AZAVOO_clean_linker_0--edge1-KIFKEQ_clean_linker_1
_symmetry_space_group_name_H-M    P1
_symmetry_Int_Tables_number       1
_symmetry_cell_setting            triclinic
loop_
_symmetry_equiv_pos_as_xyz
'x, y, z'
_cell_length_a     26.232937
_cell_length_b     26.667422
_cell_length_c     72.627268
_cell_angle_alpha  93.035084
_cell_angle_beta   89.02904
_cell_angle_gamma 120.29435
loop_
_atom_site_label
_atom_site_type_symbol
_atom_site_fract_x
_atom_site_fract_y
_atom_site_fract_z
_atom_type_partial_charge
Co0 Co 0.08134 0.06969 0.0969 0.0
O1 O 0.03747 -0.00022 0.1099 0.0
O2 O 0.1201 0.02409 0.09478 0.0
C3 C 0.0791 0.12857 0.11997 0.0
O4 O 0.13974 0.13904 0.08239 0.0
Co5 Co 0.02596 0.14383 0.08744 0.0
O6 O 0.10756 0.20244 0.08105 0.0
C7 C 0.99885 0.03906 0.06391 0.0
C8 C 0.07812 0.98772 0.10518 0.0
C9 C 0.14683 0.18838 0.07806 0.0
O10 O 0.03318 0.02977 0.07382 0.0
O11 O 0.98842 0.08057 0.06746 0.0
O12 O 0.11867 0.113 0.11987 0.0
O13 O 0.03993 0.10528 0.10689 0.0
Co14 Co 0.05181 0.0872 0.41322 0.0
O15 O 0.00681 0.10639 0.39735 0.0
O16 O 0.0873 0.17085 0.41288 0.0
C17 C 0.05557 0.02099 0.39347 0.0
O18 O 0.11108 0.08405 0.43028 0.0
Co19 Co 0.00062 0.96196 0.4267 0.0
O20 O 0.08417 0.9904 0.43317 0.0
C21 C 0.96957 0.04342 0.44607 0.0
C22 C 0.04566 0.16055 0.40119 0.0
C23 C 0.12121 0.04454 0.43562 0.0
O24 O 0.00144 0.08374 0.43504 0.0
O25 O 0.96233 0.99216 0.44466 0.0
O26 O 0.0922 0.07613 0.39197 0.0
O27 O 0.01468 0.00803 0.40557 0.0
Co28 Co 0.0622 0.08427 0.75068 0.0
O29 O 0.12028 0.12003 0.73188 0.0
O30 O 0.11357 0.05169 0.74949 0.0
C31 C 0.98513 0.06992 0.73331 0.0
O32 O 0.00672 0.03473 0.77078 0.0
Co33 Co 0.99093 0.13919 0.76673 0.0
O34 O 0.93769 0.06012 0.77536 0.0
C35 C 0.11525 0.18888 0.77812 0.0
C36 C 0.14018 0.08639 0.73622 0.0
C37 C 0.95709 0.02559 0.77745 0.0
O38 O 0.11661 0.14656 0.76926 0.0
O39 O 0.07016 0.19549 0.77823 0.0
O40 O 0.00422 0.0334 0.73196 0.0
O41 O 0.01539 0.11561 0.74409 0.0
H42 H 0.0013 0.4215 0.14037 0.0
H43 H 0.18839 0.96286 0.27474 0.0
H44 H 0.97448 0.43877 0.23944 0.0
H45 H 0.9657 0.35454 0.22148 0.0
H46 H 0.14961 0.41501 0.23245 0.0
H47 H 0.15794 0.4992 0.25043 0.0
H48 H 0.98848 0.52669 0.21177 0.0
H49 H 0.97769 0.48101 0.18084 0.0
H50 H 0.15483 0.50972 0.18503 0.0
H51 H 0.16523 0.55597 0.21584 0.0
H52 H 0.00493 0.64448 0.2271 0.0
H53 H 0.00609 0.69748 0.20043 0.0
H54 H 0.18243 0.73311 0.18763 0.0
H55 H 0.18095 0.68027 0.2145 0.0
H56 H 0.01397 0.67422 0.27016 0.0
H57 H 0.02815 0.77076 0.27815 0.0
H58 H 0.20782 0.84903 0.2588 0.0
H59 H 0.19326 0.7521 0.25115 0.0
H60 H 0.00438 0.58703 0.29662 0.0
H61 H 0.0065 0.65066 0.32258 0.0
H62 H 0.19314 0.7652 0.31453 0.0
H63 H 0.19077 0.70118 0.28874 0.0
H64 H 0.98445 0.45853 0.27865 0.0
H65 H 0.97544 0.39589 0.3034 0.0
H66 H 0.15847 0.51263 0.31843 0.0
H67 H 0.16702 0.57517 0.29358 0.0
O68 O 0.00701 0.441 0.15242 0.0
O69 O 0.09823 0.45663 0.1553 0.0
O70 O 0.08889 0.8817 0.28145 0.0
O71 O 0.18127 0.92421 0.27141 0.0
C72 C 0.07729 0.53456 0.25023 0.0
C73 C 0.08247 0.56864 0.23523 0.0
C74 C 0.09088 0.6248 0.23849 0.0
C75 C 0.09529 0.64752 0.25672 0.0
C76 C 0.09213 0.61425 0.27177 0.0
C77 C 0.08231 0.55729 0.26856 0.0
C78 C 0.06693 0.47514 0.24609 0.0
C79 C 0.01208 0.43232 0.2387 0.0
C80 C 0.00735 0.3847 0.22828 0.0
C81 C 0.05731 0.37908 0.22526 0.0
C82 C 0.11041 0.4183 0.23456 0.0
C83 C 0.11519 0.46622 0.24493 0.0
C84 C 0.07759 0.54455 0.216 0.0
C85 C 0.0251 0.52364 0.20587 0.0
C86 C 0.01899 0.49735 0.18825 0.0
C87 C 0.06534 0.49154 0.18048 0.0
C88 C 0.11826 0.51345 0.19061 0.0
C89 C 0.12436 0.5399 0.20819 0.0
C90 C 0.09291 0.65884 0.22272 0.0
C91 C 0.04386 0.664 0.21857 0.0
C92 C 0.04443 0.69376 0.20325 0.0
C93 C 0.09423 0.7191 0.19187 0.0
C94 C 0.1436 0.7143 0.1962 0.0
C95 C 0.14282 0.68416 0.21148 0.0
C96 C 0.10266 0.70626 0.26015 0.0
C97 C 0.05627 0.71231 0.2676 0.0
C98 C 0.0645 0.76748 0.27215 0.0
C99 C 0.11922 0.81764 0.26917 0.0
C100 C 0.16519 0.81134 0.26131 0.0
C101 C 0.15694 0.75608 0.25684 0.0
C102 C 0.09731 0.63985 0.29074 0.0
C103 C 0.04621 0.62436 0.30104 0.0
C104 C 0.04745 0.6609 0.31578 0.0
C105 C 0.09978 0.71334 0.32028 0.0
C106 C 0.1521 0.72542 0.31115 0.0
C107 C 0.15094 0.68868 0.29656 0.0
C108 C 0.07648 0.52118 0.28422 0.0
C109 C 0.02258 0.47058 0.2873 0.0
C110 C 0.01757 0.43481 0.30142 0.0
C111 C 0.06636 0.44908 0.31282 0.0
C112 C 0.11996 0.50068 0.31 0.0
C113 C 0.12499 0.53634 0.29579 0.0
C114 C 0.05813 0.46216 0.16198 0.0
C115 C 0.12861 0.87631 0.27438 0.0
H116 H 0.69234 0.11609 0.4736 0.0
H117 H 0.26447 0.13524 0.63489 0.0
H118 H 0.63009 0.01888 0.57654 0.0
H119 H 0.70192 0.01223 0.55656 0.0
H120 H 0.80724 0.20017 0.55799 0.0
H121 H 0.7325 0.20579 0.57706 0.0
H122 H 0.58035 0.03914 0.5449 0.0
H123 H 0.62023 0.05397 0.5137 0.0
H124 H 0.68283 0.23797 0.52161 0.0
H125 H 0.64326 0.2225 0.55291 0.0
H126 H 0.47078 0.02933 0.5509 0.0
H127 H 0.4061 0.02456 0.5263 0.0
H128 H 0.44655 0.1995 0.54212 0.0
H129 H 0.5127 0.20423 0.56663 0.0
H130 H 0.40473 0.02187 0.5868 0.0
H131 H 0.31226 0.01414 0.59764 0.0
H132 H 0.41064 0.18722 0.62344 0.0
H133 H 0.50261 0.19465 0.61227 0.0
H134 H 0.46256 0.00253 0.61914 0.0
H135 H 0.40055 0.99035 0.64596 0.0
H136 H 0.51939 0.1688 0.66429 0.0
H137 H 0.58141 0.18071 0.63729 0.0
H138 H 0.57162 0.01154 0.62279 0.0
H139 H 0.63058 -0.00049 0.64615 0.0
H140 H 0.77587 0.17154 0.6369 0.0
H141 H 0.71588 0.18462 0.61424 0.0
O142 O 0.67597 0.11106 0.48586 0.0
O143 O 0.7055 0.205 0.49037 0.0
O144 O 0.25108 0.0509 0.6152 0.0
O145 O 0.3001 0.13801 0.62981 0.0
C146 C 0.62323 0.11543 0.5842 0.0
C147 C 0.58906 0.12143 0.57056 0.0
C148 C 0.53546 0.11862 0.57524 0.0
C149 C 0.51655 0.11136 0.59366 0.0
C150 C 0.55021 0.10457 0.60734 0.0
C151 C 0.6038 0.10665 0.60266 0.0
C152 C 0.67609 0.11274 0.5782 0.0
C153 C 0.66982 0.05853 0.5731 0.0
C154 C 0.71112 0.05496 0.56157 0.0
C155 C 0.76013 0.10573 0.55523 0.0
C156 C 0.76923 0.16012 0.56206 0.0
C157 C 0.72724 0.16356 0.57331 0.0
C158 C 0.6093 0.12982 0.55115 0.0
C159 C 0.60256 0.08256 0.53983 0.0
C160 C 0.6254 0.09118 0.52203 0.0
C161 C 0.65499 0.14721 0.51518 0.0
C162 C 0.66044 0.19429 0.52647 0.0
C163 C 0.63772 0.18559 0.54431 0.0
C164 C 0.49636 0.11711 0.56048 0.0
C165 C 0.46586 0.0667 0.549 0.0
C166 C 0.42864 0.06396 0.53505 0.0
C167 C 0.42093 0.11155 0.53235 0.0
C168 C 0.45198 0.16234 0.5438 0.0
C169 C 0.48937 0.16502 0.55784 0.0
C170 C 0.46023 0.10889 0.5987 0.0
C171 C 0.40606 0.0584 0.59452 0.0
C172 C 0.35339 0.05399 0.60083 0.0
C173 C 0.35409 0.10001 0.61148 0.0
C174 C 0.4085 0.15096 0.61531 0.0
C175 C 0.46107 0.15541 0.6089 0.0
C176 C 0.52625 0.09256 0.62626 0.0
C177 C 0.47661 0.03823 0.62936 0.0
C178 C 0.441 0.0315 0.64458 0.0
C179 C 0.45476 0.07892 0.65699 0.0
C180 C 0.50797 0.13153 0.65495 0.0
C181 C 0.54353 0.13835 0.6396 0.0
C182 C 0.63921 0.09916 0.61687 0.0
C183 C 0.61576 0.04705 0.62603 0.0
C184 C 0.64946 0.04009 0.63928 0.0
C185 C 0.70763 0.08459 0.64324 0.0
C186 C 0.73121 0.13649 0.63397 0.0
C187 C 0.69708 0.14393 0.62104 0.0
C188 C 0.68034 0.15639 0.4964 0.0
C189 C 0.29854 0.09467 0.61886 0.0
H190 H 0.66922 0.68099 0.04282 0.0
H191 H 0.27098 0.21016 0.89848 0.0
H192 H 0.62739 0.70461 0.94469 0.0
H193 H 0.70331 0.78784 0.96243 0.0
H194 H 0.83171 0.73928 0.94482 0.0
H195 H 0.75361 0.65368 0.92771 0.0
H196 H 0.55427 0.61353 0.9702 0.0
H197 H 0.58886 0.64452 0.0021 0.0
H198 H 0.73058 0.60891 0.99145 0.0
H199 H 0.69497 0.57731 0.95964 0.0
H200 H 0.45047 0.51832 0.95129 0.0
H201 H 0.38813 0.46163 0.97625 0.0
H202 H 0.50189 0.39016 0.98364 0.0
H203 H 0.56554 0.44949 0.95903 0.0
H204 H 0.43067 0.49981 0.90741 0.0
H205 H 0.33798 0.41135 0.8987 0.0
H206 H 0.4133 0.30747 0.91384 0.0
H207 H 0.50611 0.39637 0.92221 0.0
H208 H 0.5262 0.59561 0.88282 0.0
H209 H 0.4664 0.55018 0.85494 0.0
H210 H 0.49418 0.40421 0.85889 0.0
H211 H 0.55774 0.45252 0.88558 0.0
H212 H 0.63514 0.70759 0.90617 0.0
H213 H 0.69387 0.77606 0.88311 0.0
H214 H 0.73173 0.64841 0.85741 0.0
H215 H 0.67674 0.58201 0.88162 0.0
O216 O 0.65578 0.66773 0.03023 0.0
O217 O 0.72806 0.64908 0.024 0.0
O218 O 0.27066 0.30126 0.89412 0.0
O219 O 0.30703 0.24582 0.90191 0.0
C220 C 0.63525 0.61496 0.92917 0.0
C221 C 0.60247 0.57652 0.94309 0.0
C222 C 0.55037 0.52396 0.9385 0.0
C223 C 0.53211 0.50843 0.91992 0.0
C224 C 0.56668 0.54516 0.90578 0.0
C225 C 0.61793 0.59927 0.91041 0.0
C226 C 0.68502 0.67315 0.93498 0.0
C227 C 0.67233 0.713 0.9442 0.0
C228 C 0.71609 0.76078 0.95433 0.0
C229 C 0.77385 0.77024 0.95528 0.0
C230 C 0.78749 0.73272 0.94471 0.0
C231 C 0.74325 0.68432 0.93468 0.0
C232 C 0.62186 0.59276 0.96269 0.0
C233 C 0.5923 0.61176 0.97487 0.0
C234 C 0.61238 0.62975 0.99305 0.0
C235 C 0.66252 0.62922 0.99933 0.0
C236 C 0.69181 0.60982 0.98707 0.0
C237 C 0.67155 0.59167 0.96891 0.0
C238 C 0.51217 0.48766 0.95334 0.0
C239 C 0.46173 0.49026 0.95829 0.0
C240 C 0.426 0.45749 0.9725 0.0
C241 C 0.43956 0.42075 0.98191 0.0
C242 C 0.4904 0.41836 0.97686 0.0
C243 C 0.52657 0.45179 0.96272 0.0
C244 C 0.47512 0.45445 0.91536 0.0
C245 C 0.42704 0.45789 0.90881 0.0
C246 C 0.37415 0.40731 0.90387 0.0
C247 C 0.36826 0.3523 0.90554 0.0
C248 C 0.41636 0.34909 0.91236 0.0
C249 C 0.46934 0.39975 0.91722 0.0
C250 C 0.54575 0.52704 0.88636 0.0
C251 C 0.52149 0.55511 0.87712 0.0
C252 C 0.48621 0.52832 0.86137 0.0
C253 C 0.47351 0.47237 0.85485 0.0
C254 C 0.5027 0.4472 0.86325 0.0
C255 C 0.53912 0.47473 0.87865 0.0
C256 C 0.65225 0.63999 0.89581 0.0
C257 C 0.65696 0.69475 0.89575 0.0
C258 C 0.68988 0.73358 0.88229 0.0
C259 C 0.71769 0.71806 0.8682 0.0
C260 C 0.71202 0.66259 0.86816 0.0
C261 C 0.67999 0.62418 0.88189 0.0
C262 C 0.68425 0.64918 0.01857 0.0
C263 C 0.31231 0.29843 0.90017 0.0
H264 H 0.98994 0.15098 0.12703 0.0
H265 H 0.16151 0.19137 0.14684 0.0
H266 H 0.98207 0.20824 0.15299 0.0
H267 H 0.15489 0.25066 0.17244 0.0
H268 H 0.1007 0.30478 0.22627 0.0
H269 H 0.10508 0.24352 0.20073 0.0
H270 H 0.02031 0.30485 0.1649 0.0
H271 H 0.01419 0.36392 0.19049 0.0
C272 C 0.02632 0.17277 0.13682 0.0
C273 C 0.0763 0.1667 0.13494 0.0
C274 C 0.02195 0.20578 0.15169 0.0
C275 C 0.06777 0.234 0.16489 0.0
C276 C 0.11824 0.22863 0.16277 0.0
C277 C 0.12233 0.19512 0.148 0.0
C278 C 0.08254 0.30449 0.21295 0.0
C279 C 0.0565 0.33847 0.2104 0.0
C280 C 0.08543 0.26986 0.19828 0.0
C281 C 0.06311 0.26923 0.18071 0.0
C282 C 0.03686 0.3032 0.17828 0.0
C283 C 0.03334 0.33713 0.19296 0.0
H284 H 0.97122 0.01579 0.48111 0.0
H285 H 0.90982 0.10314 0.44727 0.0
H286 H 0.92817 0.03688 0.50809 0.0
H287 H 0.86177 0.12035 0.47399 0.0
H288 H 0.81257 0.17896 0.52689 0.0
H289 H 0.86859 0.1694 0.50151 0.0
H290 H 0.84189 0.00928 0.52269 0.0
H291 H 0.79207 0.02261 0.54912 0.0
C292 C 0.94756 0.03889 0.47947 0.0
C293 C 0.94327 0.05745 0.46216 0.0
C294 C 0.92232 0.05064 0.49493 0.0
C295 C 0.89033 0.07963 0.49338 0.0
C296 C 0.88666 0.09872 0.47594 0.0
C297 C 0.91368 0.08849 0.46053 0.0
C298 C 0.82032 0.14271 0.52651 0.0
C299 C 0.79779 0.10174 0.54026 0.0
C300 C 0.85146 0.13645 0.51162 0.0
C301 C 0.85982 0.0883 0.50977 0.0
C302 C 0.83766 0.04764 0.52363 0.0
C303 C 0.80789 0.05471 0.53875 0.0
H304 H 0.83779 0.96287 0.78026 0.0
H305 H 0.99738 0.97445 0.80035 0.0
H306 H 0.77942 0.88418 0.80042 0.0
H307 H 0.93956 0.89812 0.82157 0.0
H308 H 0.81804 0.73342 0.8504 0.0
H309 H 0.87361 0.80127 0.82686 0.0
H310 H 0.75423 0.86861 0.83077 0.0
H311 H 0.69574 0.79733 0.85281 0.0
C312 C 0.86037 0.94862 0.78911 0.0
C313 C 0.92211 0.97498 0.78883 0.0
C314 C 0.82695 0.90377 0.80084 0.0
C315 C 0.85448 0.88505 0.81301 0.0
C316 C 0.91641 0.91059 0.81233 0.0
C317 C 0.94976 0.95464 0.80022 0.0
C318 C 0.80281 0.76179 0.84596 0.0
C319 C 0.75214 0.75958 0.85368 0.0
C320 C 0.83544 0.80159 0.83261 0.0
C321 C 0.81886 0.84093 0.82678 0.0
C322 C 0.76816 0.83858 0.83452 0.0
C323 C 0.73501 0.79817 0.84756 0.0
H324 H 0.98943 0.89965 0.12321 0.0
H325 H 0.16928 0.96519 0.10564 0.0
H326 H 0.99524 0.82876 0.14127 0.0
H327 H 0.17487 0.89283 0.12358 0.0
H328 H 0.1827 0.82442 0.18114 0.0
H329 H 0.17936 0.88166 0.15657 0.0
H330 H 0.00357 0.74311 0.14145 0.0
H331 H 0.00675 0.68633 0.16619 0.0
C332 C 0.02988 0.89803 0.12288 0.0
C333 C 0.07908 0.93834 0.11314 0.0
C334 C 0.0331 0.85703 0.13317 0.0
C335 C 0.08567 0.85529 0.13399 0.0
C336 C 0.13398 0.89358 0.12342 0.0
C337 C 0.13065 0.93465 0.11303 0.0
C338 C 0.1438 0.80582 0.17235 0.0
C339 C 0.09468 0.75125 0.17574 0.0
C340 C 0.14194 0.8385 0.15821 0.0
C341 C 0.091 0.81716 0.14711 0.0
C342 C 0.04306 0.76127 0.14995 0.0
C343 C 0.04482 0.72878 0.16413 0.0
H344 H 0.1939 0.14949 0.45397 0.0
H345 H 0.16885 0.97756 0.44291 0.0
H346 H 0.27059 0.17019 0.47678 0.0
H347 H 0.24557 -0.00143 0.46536 0.0
H348 H 0.31137 0.02012 0.52415 0.0
H349 H 0.24552 0.00906 0.49916 0.0
H350 H 0.37045 0.18188 0.48252 0.0
H351 H 0.43706 0.19297 0.5077 0.0
C352 C 0.20561 0.11663 0.45609 0.0
C353 C 0.17459 0.06153 0.44686 0.0
C354 C 0.24952 0.12852 0.46915 0.0
C355 C 0.26314 0.08553 0.47313 0.0
C356 C 0.23494 0.03202 0.46294 0.0
C357 C 0.19115 0.02011 0.45 0.0
C358 C 0.32509 0.05566 0.5151 0.0
C359 C 0.37974 0.10711 0.51775 0.0
C360 C 0.2874 0.04929 0.50075 0.0
C361 C 0.30328 0.09422 0.48867 0.0
C362 C 0.35709 0.14653 0.49162 0.0
C363 C 0.39507 0.15291 0.50604 0.0
H364 H 0.22971 0.22646 0.76917 0.0
H365 H 0.12149 0.24995 0.81013 0.0
H366 H 0.31833 0.30043 0.7855 0.0
H367 H 0.20957 0.32065 0.82734 0.0
H368 H 0.37169 0.47556 0.84947 0.0
H369 H 0.28893 0.41262 0.82941 0.0
H370 H 0.37876 0.32129 0.81041 0.0
H371 H 0.46446 0.3888 0.82883 0.0
C372 C 0.22502 0.24701 0.78185 0.0
C373 C 0.16882 0.23255 0.78841 0.0
C374 C 0.27588 0.28928 0.79132 0.0
C375 C 0.27177 0.31705 0.80787 0.0
C376 C 0.21511 0.30175 0.81445 0.0
C377 C 0.16434 0.26066 0.8047 0.0
C378 C 0.37499 0.44351 0.84057 0.0
C379 C 0.42531 0.43756 0.84098 0.0
C380 C 0.32647 0.40614 0.8293 0.0
C381 C 0.32597 0.36056 0.81846 0.0
C382 C 0.37708 0.35583 0.81839 0.0
C383 C 0.42625 0.39422 0.82929 0.0
H384 H 0.92143 0.12475 0.73804 0.0
H385 H 0.94082 0.00199 0.70171 0.0
H386 H 0.84903 0.12244 0.71663 0.0
H387 H 0.8694 0.00075 0.68017 0.0
H388 H 0.81624 0.09708 0.63811 0.0
H389 H 0.87795 0.08657 0.66075 0.0
H390 H 0.74334 0.04546 0.70177 0.0
H391 H 0.68097 0.05483 0.67895 0.0
C392 C 0.90973 0.09685 0.72559 0.0
C393 C 0.93683 0.0637 0.72149 0.0
C394 C 0.86825 0.09541 0.7134 0.0
C395 C 0.85405 0.06167 0.69675 0.0
C396 C 0.87995 0.02734 0.69289 0.0
C397 C 0.92051 0.02787 0.70525 0.0
C398 C 0.79985 0.08554 0.65195 0.0
C399 C 0.74406 0.07682 0.65685 0.0
C400 C 0.83487 0.07918 0.66483 0.0
C401 C 0.8152 0.06511 0.68295 0.0
C402 C 0.7594 0.05639 0.68788 0.0
C403 C 0.72379 0.06155 0.67486 0.0
H404 H 0.97812 0.07126 0.03137 0.0
H405 H 0.95971 0.923 0.0585 0.0
H406 H 0.93403 0.01092 0.00345 0.0
H407 H 0.91131 0.86103 0.03102 0.0
H408 H 0.85634 0.76428 0.9764 0.0
H409 H 0.91794 0.83207 0.00103 0.0
H410 H 0.84552 0.94234 0.9908 0.0
H411 H 0.7889 0.87778 0.96505 0.0
C412 C 0.96378 0.02538 0.03139 0.0
C413 C 0.97176 0.0016 0.04711 0.0
C414 C 0.93814 0.99056 0.01539 0.0
C415 C 0.91824 0.93061 0.01486 0.0
C416 C 0.92687 0.90705 0.03066 0.0
C417 C 0.95407 0.94236 0.04652 0.0
C418 C 0.85504 0.80398 0.97898 0.0
C419 C 0.81714 0.81517 0.96873 0.0
C420 C 0.88957 0.84242 0.99344 0.0
C421 C 0.88632 0.89255 0.99827 0.0
C422 C 0.85007 0.90474 0.98752 0.0
C423 C 0.81661 0.86701 0.97284 0.0
H424 H 0.97865 0.90409 0.39072 0.0
H425 H 0.15159 0.03639 0.3739 0.0
H426 H 0.99171 0.8299 0.37389 0.0
H427 H 0.16598 0.96219 0.35774 0.0
H428 H 0.14315 0.82618 0.31289 0.0
H429 H 0.13354 0.90005 0.33104 0.0
H430 H 0.04247 0.77733 0.37319 0.0
H431 H 0.05041 0.70257 0.35448 0.0
C432 C 0.01966 0.9172 0.38353 0.0
C433 C 0.06388 0.97602 0.38348 0.0
C434 C 0.02743 0.87462 0.37401 0.0
C435 C 0.07991 0.88989 0.3644 0.0
C436 C 0.12452 0.94883 0.36467 0.0
C437 C 0.11642 0.99143 0.374 0.0
C438 C 0.12192 0.81531 0.32618 0.0
C439 C 0.09803 0.75886 0.33239 0.0
C440 C 0.11643 0.8577 0.33662 0.0
C441 C 0.0874 0.84492 0.35366 0.0
C442 C 0.06435 0.78854 0.36002 0.0
C443 C 0.06921 0.74581 0.34941 0.0
H444 H 0.20613 0.03765 0.74549 0.0
H445 H 0.18513 0.13541 0.70366 0.0
H446 H 0.28489 0.03526 0.72736 0.0
H447 H 0.26264 0.13213 0.68561 0.0
H448 H 0.3405 0.04213 0.64908 0.0
H449 H 0.26648 0.04428 0.66931 0.0
H450 H 0.39233 0.11283 0.71444 0.0
H451 H 0.46739 0.11141 0.69396 0.0
C452 C 0.21843 0.05871 0.7325 0.0
C453 C 0.18935 0.08651 0.72595 0.0
C454 C 0.26355 0.05755 0.72221 0.0
C455 C 0.2794 0.08322 0.70508 0.0
C456 C 0.25085 0.11161 0.6987 0.0
C457 C 0.20664 0.11362 0.70908 0.0
C458 C 0.3522 0.05688 0.66338 0.0
C459 C 0.4095 0.0762 0.67002 0.0
C460 C 0.30999 0.05851 0.6749 0.0
C461 C 0.32386 0.07882 0.69339 0.0
C462 C 0.38063 0.09673 0.70024 0.0
C463 C 0.42343 0.09609 0.68857 0.0
H464 H 0.17192 0.29186 0.06449 0.0
H465 H 0.2393 0.17381 0.06642 0.0
H466 H 0.24686 0.34798 0.04224 0.0
H467 H 0.31518 0.23124 0.04412 0.0
H468 H 0.47109 0.39456 0.01451 0.0
H469 H 0.40596 0.33979 0.0395 0.0
H470 H 0.25515 0.31378 0.00839 0.0
H471 H 0.31908 0.36588 0.98318 0.0
C472 C 0.20323 0.27828 0.06044 0.0
C473 C 0.19889 0.22766 0.0671 0.0
C474 C 0.24604 0.31046 0.04762 0.0
C475 C 0.28606 0.29334 0.0413 0.0
C476 C 0.28463 0.24517 0.04879 0.0
C477 C 0.24118 0.21237 0.06154 0.0
C478 C 0.42396 0.37633 0.01285 0.0
C479 C 0.40049 0.38533 0.99687 0.0
C480 C 0.38685 0.34527 0.0272 0.0
C481 C 0.32582 0.32343 0.02593 0.0
C482 C 0.30227 0.33123 0.00985 0.0
C483 C 0.33903 0.36137 0.99545 0.0
H484 H 0.95621 0.15237 0.3804 0.0
H485 H 0.13425 0.27394 0.39912 0.0
H486 H 0.95907 0.22454 0.36062 0.0
H487 H 0.13796 0.3459 0.37882 0.0
H488 H 0.1097 0.47671 0.34836 0.0
H489 H 0.10207 0.41014 0.37159 0.0
H490 H 0.0062 0.26472 0.33246 0.0
H491 H 0.0132 0.33089 0.3095 0.0
C492 C 0.99588 0.19475 0.38039 0.0
C493 C 0.04516 0.20731 0.39122 0.0
C494 C 0.99772 0.23603 0.36892 0.0
C495 C 0.04913 0.29078 0.36784 0.0
C496 C 0.09752 0.30434 0.37936 0.0
C497 C 0.09547 0.26305 0.39098 0.0
C498 C 0.0871 0.43049 0.34476 0.0
C499 C 0.06171 0.40906 0.32712 0.0
C500 C 0.08275 0.39234 0.35806 0.0
C501 C 0.0531 0.33193 0.35399 0.0
C502 C 0.02808 0.31076 0.33628 0.0
C503 C 0.0322 0.34876 0.32307 0.0
loop_
_geom_bond_atom_site_label_1
_geom_bond_atom_site_label_2
_geom_bond_distance
_geom_bond_site_symmetry_2
_ccdc_geom_bond_type
Co0 O1 2.216 . S
Co0 O2 2.091 . S
Co0 O4 2.004 . S
Co0 O10 2.021 . S
Co0 O12 2.137 . S
Co0 O13 2.244 . S
O1 Co0 2.216 . S
O1 C8 1.247 . S
O2 Co0 2.091 . S
O2 C8 1.261 . S
C3 O12 1.247 . S
C3 O13 1.272 . S
O4 Co0 2.004 . S
O4 C9 1.259 . S
Co5 O6 2.061 . S
Co5 O11 2.052 1_455 S
Co5 O13 2.135 . S
O6 Co5 2.061 . S
O6 C9 1.235 . S
C7 O10 1.238 . S
C7 O11 1.241 1_455 S
C8 O1 1.247 . S
C8 O2 1.261 . S
C9 O4 1.259 . S
C9 O6 1.235 . S
O10 Co0 2.021 . S
O10 C7 1.238 . S
O11 Co5 2.052 1_655 S
O11 C7 1.241 1_655 S
O12 Co0 2.137 . S
O12 C3 1.247 . S
O13 Co0 2.244 . S
O13 C3 1.272 . S
O13 Co5 2.135 . S
Co14 O15 2.216 . S
Co14 O16 2.091 . S
Co14 O18 2.004 . S
Co14 O24 2.021 . S
Co14 O26 2.137 . S
Co14 O27 2.244 1_545 S
O15 Co14 2.216 . S
O15 C22 1.247 . S
O16 Co14 2.091 . S
O16 C22 1.261 . S
C17 O26 1.247 1_565 S
C17 O27 1.272 . S
O18 Co14 2.004 . S
O18 C23 1.259 . S
Co19 O20 2.061 1_565 S
Co19 O25 2.052 1_465 S
Co19 O27 2.135 . S
O20 Co19 2.061 1_545 S
O20 C23 1.235 . S
C21 O24 1.238 1_655 S
C21 O25 1.241 . S
C22 O15 1.247 . S
C22 O16 1.261 . S
C23 O18 1.259 . S
C23 O20 1.235 . S
O24 Co14 2.021 . S
O24 C21 1.238 1_455 S
O25 Co19 2.052 1_645 S
O25 C21 1.241 . S
O26 Co14 2.137 . S
O26 C17 1.247 1_545 S
O27 Co14 2.244 1_565 S
O27 C17 1.272 . S
O27 Co19 2.135 . S
Co28 O29 2.216 . S
Co28 O30 2.091 . S
Co28 O32 2.004 . S
Co28 O38 2.021 . S
Co28 O40 2.137 . S
Co28 O41 2.244 . S
O29 Co28 2.216 . S
O29 C36 1.247 . S
O30 Co28 2.091 . S
O30 C36 1.261 . S
C31 O40 1.247 . S
C31 O41 1.272 . S
O32 Co28 2.004 . S
O32 C37 1.259 . S
Co33 O34 2.061 . S
Co33 O39 2.052 . S
Co33 O41 2.135 . S
O34 Co33 2.061 . S
O34 C37 1.235 . S
C35 O38 1.238 . S
C35 O39 1.241 . S
C36 O29 1.247 . S
C36 O30 1.261 . S
C37 O32 1.259 . S
C37 O34 1.235 . S
O38 Co28 2.021 . S
O38 C35 1.238 . S
O39 Co33 2.052 . S
O39 C35 1.241 . S
O40 Co28 2.137 . S
O40 C31 1.247 . S
O41 Co28 2.244 . S
O41 C31 1.272 . S
O41 Co33 2.135 . S
H42 O68 0.856 . S
H43 O71 0.854 . S
H44 C79 0.930 . S
H45 C80 0.930 . S
H46 C82 0.930 . S
H47 C83 0.930 . S
H48 C85 0.931 1_655 S
H49 C86 0.930 1_655 S
H50 C88 0.930 . S
H51 C89 0.929 . S
H52 C91 0.930 1_655 S
H53 C92 0.931 1_655 S
H54 C94 0.930 . S
H55 C95 0.929 . S
H56 C97 0.931 1_655 S
H57 C98 0.930 1_655 S
H58 C100 0.930 . S
H59 C101 0.932 . S
H60 C103 0.930 . S
H61 C104 0.929 . S
H62 C106 0.931 . S
H63 C107 0.930 . S
H64 C109 0.929 1_655 S
H65 C110 0.931 1_655 S
H66 C112 0.930 . S
H67 C113 0.929 . S
O68 H42 0.856 . S
O68 C114 1.300 . S
O69 C114 1.209 . S
O70 C115 1.199 . S
O71 H43 0.854 . S
O71 C115 1.297 . S
C72 C73 1.404 . S
C72 C77 1.397 . S
C72 C78 1.492 . S
C73 C72 1.404 . S
C73 C74 1.396 . S
C73 C84 1.492 . S
C74 C73 1.396 . S
C74 C75 1.397 . S
C74 C90 1.509 . S
C75 C74 1.397 . S
C75 C76 1.412 . S
C75 C96 1.485 . S
C76 C75 1.412 . S
C76 C77 1.388 . S
C76 C102 1.490 . S
C77 C72 1.397 . S
C77 C76 1.388 . S
C77 C108 1.519 . S
C78 C72 1.492 . S
C78 C79 1.363 1_455 S
C78 C83 1.390 . S
C79 H44 0.930 . S
C79 C78 1.363 1_655 S
C79 C80 1.372 . S
C80 H45 0.930 . S
C80 C79 1.372 . S
C80 C81 1.383 1_655 S
C81 C80 1.383 1_455 S
C81 C82 1.395 . S
C82 H46 0.930 . S
C82 C81 1.395 . S
C82 C83 1.362 . S
C83 H47 0.930 . S
C83 C78 1.390 . S
C83 C82 1.362 . S
C84 C73 1.492 . S
C84 C85 1.377 . S
C84 C89 1.397 . S
C85 H48 0.931 1_455 S
C85 C84 1.377 . S
C85 C86 1.376 . S
C86 H49 0.930 1_455 S
C86 C85 1.376 . S
C86 C87 1.376 . S
C87 C86 1.376 . S
C87 C88 1.378 . S
C87 C114 1.486 . S
C88 H50 0.930 . S
C88 C87 1.378 . S
C88 C89 1.376 . S
C89 H51 0.929 . S
C89 C84 1.397 . S
C89 C88 1.376 . S
C90 C74 1.509 . S
C90 C91 1.391 . S
C90 C95 1.386 . S
C91 H52 0.930 1_455 S
C91 C90 1.391 . S
C91 C92 1.375 . S
C92 H53 0.931 1_455 S
C92 C91 1.375 . S
C92 C93 1.375 . S
C93 C92 1.375 . S
C93 C94 1.361 . S
C94 H54 0.930 . S
C94 C93 1.361 . S
C94 C95 1.399 . S
C95 H55 0.929 . S
C95 C90 1.386 . S
C95 C94 1.399 . S
C96 C75 1.485 . S
C96 C97 1.394 . S
C96 C101 1.360 . S
C97 H56 0.931 1_455 S
C97 C96 1.394 . S
C97 C98 1.372 . S
C98 H57 0.930 1_455 S
C98 C97 1.372 . S
C98 C99 1.397 . S
C99 C98 1.397 . S
C99 C100 1.390 . S
C99 C115 1.476 . S
C100 H58 0.930 . S
C100 C99 1.390 . S
C100 C101 1.366 . S
C101 H59 0.932 . S
C101 C96 1.360 . S
C101 C100 1.366 . S
C102 C76 1.490 . S
C102 C103 1.380 1_455 S
C102 C107 1.386 . S
C103 H60 0.930 . S
C103 C102 1.380 1_655 S
C103 C104 1.381 . S
C104 H61 0.929 . S
C104 C103 1.381 . S
C104 C105 1.371 1_655 S
C105 C104 1.371 1_455 S
C105 C106 1.380 . S
C106 H62 0.931 . S
C106 C105 1.380 . S
C106 C107 1.387 . S
C107 H63 0.930 . S
C107 C102 1.386 . S
C107 C106 1.387 . S
C108 C77 1.519 . S
C108 C109 1.377 . S
C108 C113 1.361 . S
C109 H64 0.929 1_455 S
C109 C108 1.377 . S
C109 C110 1.386 . S
C110 H65 0.931 1_455 S
C110 C109 1.386 . S
C110 C111 1.363 . S
C111 C110 1.363 . S
C111 C112 1.385 . S
C112 H66 0.930 . S
C112 C111 1.385 . S
C112 C113 1.396 . S
C113 H67 0.929 . S
C113 C108 1.361 . S
C113 C112 1.396 . S
C114 O68 1.300 . S
C114 O69 1.209 . S
C114 C87 1.486 . S
C115 O70 1.199 . S
C115 O71 1.297 . S
C115 C99 1.476 . S
H116 O142 0.856 . S
H117 O145 0.854 . S
H118 C153 0.924 1_565 S
H119 C154 0.930 1_565 S
H120 C156 0.930 . S
H121 C157 0.930 . S
H122 C159 0.931 . S
H123 C160 0.930 . S
H124 C162 0.930 . S
H125 C163 0.929 . S
H126 C165 0.930 . S
H127 C166 0.931 . S
H128 C168 0.930 . S
H129 C169 0.929 . S
H130 C171 0.931 . S
H131 C172 0.930 . S
H132 C174 0.930 . S
H133 C175 0.932 . S
H134 C177 0.930 . S
H135 C178 0.929 1_565 S
H136 C180 0.931 . S
H137 C181 0.930 . S
H138 C183 0.929 . S
H139 C184 0.931 . S
H140 C186 0.930 . S
H141 C187 0.929 . S
O142 H116 0.856 . S
O142 C188 1.300 . S
O143 C188 1.209 . S
O144 C189 1.199 . S
O145 H117 0.854 . S
O145 C189 1.297 . S
C146 C147 1.404 . S
C146 C151 1.397 . S
C146 C152 1.492 . S
C147 C146 1.404 . S
C147 C148 1.396 . S
C147 C158 1.492 . S
C148 C147 1.396 . S
C148 C149 1.397 . S
C148 C164 1.509 . S
C149 C148 1.397 . S
C149 C150 1.412 . S
C149 C170 1.485 . S
C150 C149 1.412 . S
C150 C151 1.388 . S
C150 C176 1.490 . S
C151 C146 1.397 . S
C151 C150 1.388 . S
C151 C182 1.519 . S
C152 C146 1.492 . S
C152 C153 1.363 . S
C152 C157 1.390 . S
C153 H118 0.924 1_545 S
C153 C152 1.363 . S
C153 C154 1.372 . S
C154 H119 0.930 1_545 S
C154 C153 1.372 . S
C154 C155 1.383 . S
C155 C154 1.383 . S
C155 C156 1.395 . S
C156 H120 0.930 . S
C156 C155 1.395 . S
C156 C157 1.362 . S
C157 H121 0.930 . S
C157 C152 1.390 . S
C157 C156 1.362 . S
C158 C147 1.492 . S
C158 C159 1.377 . S
C158 C163 1.397 . S
C159 H122 0.931 . S
C159 C158 1.377 . S
C159 C160 1.376 . S
C160 H123 0.930 . S
C160 C159 1.376 . S
C160 C161 1.376 . S
C161 C160 1.376 . S
C161 C162 1.378 . S
C161 C188 1.486 . S
C162 H124 0.930 . S
C162 C161 1.378 . S
C162 C163 1.376 . S
C163 H125 0.929 . S
C163 C158 1.397 . S
C163 C162 1.376 . S
C164 C148 1.509 . S
C164 C165 1.391 . S
C164 C169 1.386 . S
C165 H126 0.930 . S
C165 C164 1.391 . S
C165 C166 1.375 . S
C166 H127 0.931 . S
C166 C165 1.375 . S
C166 C167 1.375 . S
C167 C166 1.375 . S
C167 C168 1.361 . S
C168 H128 0.930 . S
C168 C167 1.361 . S
C168 C169 1.399 . S
C169 H129 0.929 . S
C169 C164 1.386 . S
C169 C168 1.399 . S
C170 C149 1.485 . S
C170 C171 1.394 . S
C170 C175 1.360 . S
C171 H130 0.931 . S
C171 C170 1.394 . S
C171 C172 1.372 . S
C172 H131 0.930 . S
C172 C171 1.372 . S
C172 C173 1.397 . S
C173 C172 1.397 . S
C173 C174 1.390 . S
C173 C189 1.476 . S
C174 H132 0.930 . S
C174 C173 1.390 . S
C174 C175 1.366 . S
C175 H133 0.932 . S
C175 C170 1.360 . S
C175 C174 1.366 . S
C176 C150 1.490 . S
C176 C177 1.380 . S
C176 C181 1.386 . S
C177 H134 0.930 . S
C177 C176 1.380 . S
C177 C178 1.381 . S
C178 H135 0.929 1_545 S
C178 C177 1.381 . S
C178 C179 1.371 . S
C179 C178 1.371 . S
C179 C180 1.380 . S
C180 H136 0.931 . S
C180 C179 1.380 . S
C180 C181 1.387 . S
C181 H137 0.930 . S
C181 C176 1.386 . S
C181 C180 1.387 . S
C182 C151 1.519 . S
C182 C183 1.377 . S
C182 C187 1.361 . S
C183 H138 0.929 . S
C183 C182 1.377 . S
C183 C184 1.386 . S
C184 H139 0.931 . S
C184 C183 1.386 . S
C184 C185 1.363 . S
C185 C184 1.363 . S
C185 C186 1.385 . S
C186 H140 0.930 . S
C186 C185 1.385 . S
C186 C187 1.396 . S
C187 H141 0.929 . S
C187 C182 1.361 . S
C187 C186 1.396 . S
C188 O142 1.300 . S
C188 O143 1.209 . S
C188 C161 1.486 . S
C189 O144 1.199 . S
C189 O145 1.297 . S
C189 C173 1.476 . S
H190 O216 0.856 . S
H191 O219 0.854 . S
H192 C227 0.930 . S
H193 C228 0.930 . S
H194 C230 0.930 . S
H195 C231 0.930 . S
H196 C233 0.931 . S
H197 C234 0.930 . S
H198 C236 0.925 1_554 S
H199 C237 0.929 . S
H200 C239 0.930 . S
H201 C240 0.931 . S
H202 C242 0.930 . S
H203 C243 0.929 . S
H204 C245 0.931 . S
H205 C246 0.930 . S
H206 C248 0.930 . S
H207 C249 0.932 . S
H208 C251 0.930 . S
H209 C252 0.929 . S
H210 C254 0.931 . S
H211 C255 0.930 . S
H212 C257 0.929 . S
H213 C258 0.931 . S
H214 C260 0.930 . S
H215 C261 0.929 . S
O216 H190 0.856 . S
O216 C262 1.300 . S
O217 C262 1.209 . S
O218 C263 1.199 . S
O219 H191 0.854 . S
O219 C263 1.297 . S
C220 C221 1.404 . S
C220 C225 1.397 . S
C220 C226 1.492 . S
C221 C220 1.404 . S
C221 C222 1.396 . S
C221 C232 1.492 . S
C222 C221 1.396 . S
C222 C223 1.397 . S
C222 C238 1.509 . S
C223 C222 1.397 . S
C223 C224 1.412 . S
C223 C244 1.485 . S
C224 C223 1.412 . S
C224 C225 1.388 . S
C224 C250 1.490 . S
C225 C220 1.397 . S
C225 C224 1.388 . S
C225 C256 1.519 . S
C226 C220 1.492 . S
C226 C227 1.363 . S
C226 C231 1.390 . S
C227 H192 0.930 . S
C227 C226 1.363 . S
C227 C228 1.372 . S
C228 H193 0.930 . S
C228 C227 1.372 . S
C228 C229 1.383 . S
C229 C228 1.383 . S
C229 C230 1.395 . S
C230 H194 0.930 . S
C230 C229 1.395 . S
C230 C231 1.362 . S
C231 H195 0.930 . S
C231 C226 1.390 . S
C231 C230 1.362 . S
C232 C221 1.492 . S
C232 C233 1.377 . S
C232 C237 1.397 . S
C233 H196 0.931 . S
C233 C232 1.377 . S
C233 C234 1.376 1_556 S
C234 H197 0.930 . S
C234 C233 1.376 1_554 S
C234 C235 1.376 . S
C235 C234 1.376 . S
C235 C236 1.368 1_554 S
C235 C262 1.486 . S
C236 H198 0.925 1_556 S
C236 C235 1.368 1_556 S
C236 C237 1.391 . S
C237 H199 0.929 . S
C237 C232 1.397 . S
C237 C236 1.391 . S
C238 C222 1.509 . S
C238 C239 1.391 . S
C238 C243 1.386 . S
C239 H200 0.930 . S
C239 C238 1.391 . S
C239 C240 1.375 . S
C240 H201 0.931 . S
C240 C239 1.375 . S
C240 C241 1.375 . S
C241 C240 1.375 . S
C241 C242 1.361 . S
C242 H202 0.930 . S
C242 C241 1.361 . S
C242 C243 1.399 . S
C243 H203 0.929 . S
C243 C238 1.386 . S
C243 C242 1.399 . S
C244 C223 1.485 . S
C244 C245 1.394 . S
C244 C249 1.360 . S
C245 H204 0.931 . S
C245 C244 1.394 . S
C245 C246 1.372 . S
C246 H205 0.930 . S
C246 C245 1.372 . S
C246 C247 1.397 . S
C247 C246 1.397 . S
C247 C248 1.390 . S
C247 C263 1.476 . S
C248 H206 0.930 . S
C248 C247 1.390 . S
C248 C249 1.366 . S
C249 H207 0.932 . S
C249 C244 1.360 . S
C249 C248 1.366 . S
C250 C224 1.490 . S
C250 C251 1.380 . S
C250 C255 1.386 . S
C251 H208 0.930 . S
C251 C250 1.380 . S
C251 C252 1.381 . S
C252 H209 0.929 . S
C252 C251 1.381 . S
C252 C253 1.371 . S
C253 C252 1.371 . S
C253 C254 1.380 . S
C254 H210 0.931 . S
C254 C253 1.380 . S
C254 C255 1.387 . S
C255 H211 0.930 . S
C255 C250 1.386 . S
C255 C254 1.387 . S
C256 C225 1.519 . S
C256 C257 1.377 . S
C256 C261 1.361 . S
C257 H212 0.929 . S
C257 C256 1.377 . S
C257 C258 1.386 . S
C258 H213 0.931 . S
C258 C257 1.386 . S
C258 C259 1.363 . S
C259 C258 1.363 . S
C259 C260 1.385 . S
C260 H214 0.930 . S
C260 C259 1.385 . S
C260 C261 1.396 . S
C261 H215 0.929 . S
C261 C256 1.361 . S
C261 C260 1.396 . S
C262 O216 1.300 . S
C262 O217 1.209 . S
C262 C235 1.486 . S
C263 O218 1.199 . S
C263 O219 1.297 . S
C263 C247 1.476 . S
H264 C272 0.950 . S
H265 C277 0.950 . S
H266 C274 0.950 1_655 S
H267 C276 0.950 . S
H268 C278 0.950 . S
H269 C280 0.950 . S
H270 C282 0.950 1_655 S
H271 C283 0.950 . S
C272 H264 0.950 . S
C272 C273 1.386 . S
C272 C274 1.391 . S
C273 C272 1.386 . S
C273 C277 1.393 . S
C274 H266 0.950 1_455 S
C274 C272 1.391 . S
C274 C275 1.400 . S
C275 C274 1.400 . S
C275 C276 1.398 . S
C275 C281 1.491 . S
C276 H267 0.950 . S
C276 C275 1.398 . S
C276 C277 1.391 . S
C277 H265 0.950 . S
C277 C273 1.393 . S
C277 C276 1.391 . S
C278 H268 0.950 . S
C278 C279 1.386 . S
C278 C280 1.391 . S
C279 C278 1.386 . S
C279 C283 1.393 1_455 S
C280 H269 0.950 . S
C280 C278 1.391 . S
C280 C281 1.400 . S
C281 C275 1.491 . S
C281 C280 1.400 . S
C281 C282 1.398 . S
C282 H270 0.950 1_455 S
C282 C281 1.398 . S
C282 C283 1.391 1_455 S
C283 H271 0.950 . S
C283 C279 1.393 1_655 S
C283 C282 1.391 1_655 S
H284 C292 0.950 1_565 S
H285 C297 0.950 . S
H286 C294 0.950 1_565 S
H287 C296 0.950 . S
H288 C298 0.950 . S
H289 C300 0.950 . S
H290 C302 0.950 1_565 S
H291 C303 0.950 1_565 S
C292 H284 0.950 1_545 S
C292 C293 1.386 . S
C292 C294 1.391 . S
C293 C292 1.386 . S
C293 C297 1.393 . S
C294 H286 0.950 1_545 S
C294 C292 1.391 . S
C294 C295 1.400 . S
C295 C294 1.400 . S
C295 C296 1.398 . S
C295 C301 1.491 . S
C296 H287 0.950 . S
C296 C295 1.398 . S
C296 C297 1.391 . S
C297 H285 0.950 . S
C297 C293 1.393 . S
C297 C296 1.391 . S
C298 H288 0.950 . S
C298 C299 1.386 . S
C298 C300 1.391 . S
C299 C298 1.386 . S
C299 C303 1.393 . S
C300 H289 0.950 . S
C300 C298 1.391 . S
C300 C301 1.400 . S
C301 C295 1.491 . S
C301 C300 1.400 . S
C301 C302 1.398 . S
C302 H290 0.950 1_545 S
C302 C301 1.398 . S
C302 C303 1.391 . S
C303 H291 0.950 1_545 S
C303 C299 1.393 . S
C303 C302 1.391 . S
H304 C312 0.950 . S
H305 C317 0.950 1_455 S
H306 C314 0.950 . S
H307 C316 0.950 . S
H308 C318 0.950 . S
H309 C320 0.950 . S
H310 C322 0.950 . S
H311 C323 0.950 . S
C312 H304 0.950 . S
C312 C313 1.386 . S
C312 C314 1.391 . S
C313 C312 1.386 . S
C313 C317 1.393 . S
C314 H306 0.950 . S
C314 C312 1.391 . S
C314 C315 1.400 . S
C315 C314 1.400 . S
C315 C316 1.398 . S
C315 C321 1.491 . S
C316 H307 0.950 . S
C316 C315 1.398 . S
C316 C317 1.391 . S
C317 H305 0.950 1_655 S
C317 C313 1.393 . S
C317 C316 1.391 . S
C318 H308 0.950 . S
C318 C319 1.386 . S
C318 C320 1.391 . S
C319 C318 1.386 . S
C319 C323 1.393 . S
C320 H309 0.950 . S
C320 C318 1.391 . S
C320 C321 1.400 . S
C321 C315 1.491 . S
C321 C320 1.400 . S
C321 C322 1.398 . S
C322 H310 0.950 . S
C322 C321 1.398 . S
C322 C323 1.391 . S
C323 H311 0.950 . S
C323 C319 1.393 . S
C323 C322 1.391 . S
H324 C332 0.950 . S
H325 C337 0.950 1_545 S
H326 C334 0.953 . S
H327 C336 0.950 . S
H328 C338 0.950 . S
H329 C340 0.950 . S
H330 C342 0.950 1_655 S
H331 C343 0.950 1_655 S
C332 H324 0.950 . S
C332 C333 1.386 . S
C332 C334 1.391 . S
C333 C332 1.386 . S
C333 C337 1.393 . S
C334 H326 0.953 . S
C334 C332 1.391 . S
C334 C335 1.400 . S
C335 C334 1.400 . S
C335 C336 1.398 . S
C335 C341 1.491 . S
C336 H327 0.950 . S
C336 C335 1.398 . S
C336 C337 1.391 . S
C337 H325 0.950 1_565 S
C337 C333 1.393 . S
C337 C336 1.391 . S
C338 H328 0.950 . S
C338 C339 1.386 . S
C338 C340 1.391 . S
C339 C338 1.386 . S
C339 C343 1.393 . S
C340 H329 0.950 . S
C340 C338 1.391 . S
C340 C341 1.400 . S
C341 C335 1.491 . S
C341 C340 1.400 . S
C341 C342 1.398 . S
C342 H330 0.950 1_455 S
C342 C341 1.398 . S
C342 C343 1.391 . S
C343 H331 0.950 1_455 S
C343 C339 1.393 . S
C343 C342 1.391 . S
H344 C352 0.950 . S
H345 C357 0.953 . S
H346 C354 0.950 . S
H347 C356 0.950 . S
H348 C358 0.950 . S
H349 C360 0.950 . S
H350 C362 0.950 . S
H351 C363 0.950 . S
C352 H344 0.950 . S
C352 C353 1.386 . S
C352 C354 1.391 . S
C353 C352 1.386 . S
C353 C357 1.393 . S
C354 H346 0.950 . S
C354 C352 1.391 . S
C354 C355 1.400 . S
C355 C354 1.400 . S
C355 C356 1.398 . S
C355 C361 1.491 . S
C356 H347 0.950 . S
C356 C355 1.398 . S
C356 C357 1.391 . S
C357 H345 0.953 . S
C357 C353 1.393 . S
C357 C356 1.391 . S
C358 H348 0.950 . S
C358 C359 1.386 . S
C358 C360 1.391 . S
C359 C358 1.386 . S
C359 C363 1.393 . S
C360 H349 0.950 . S
C360 C358 1.391 . S
C360 C361 1.400 . S
C361 C355 1.491 . S
C361 C360 1.400 . S
C361 C362 1.398 . S
C362 H350 0.950 . S
C362 C361 1.398 . S
C362 C363 1.391 . S
C363 H351 0.950 . S
C363 C359 1.393 . S
C363 C362 1.391 . S
H364 C372 0.950 . S
H365 C377 0.950 . S
H366 C374 0.950 . S
H367 C376 0.950 . S
H368 C378 0.950 . S
H369 C380 0.950 . S
H370 C382 0.950 . S
H371 C383 0.950 . S
C372 H364 0.950 . S
C372 C373 1.386 . S
C372 C374 1.391 . S
C373 C372 1.386 . S
C373 C377 1.393 . S
C374 H366 0.950 . S
C374 C372 1.391 . S
C374 C375 1.400 . S
C375 C374 1.400 . S
C375 C376 1.398 . S
C375 C381 1.491 . S
C376 H367 0.950 . S
C376 C375 1.398 . S
C376 C377 1.391 . S
C377 H365 0.950 . S
C377 C373 1.393 . S
C377 C376 1.391 . S
C378 H368 0.950 . S
C378 C379 1.386 . S
C378 C380 1.391 . S
C379 C378 1.386 . S
C379 C383 1.393 . S
C380 H369 0.950 . S
C380 C378 1.391 . S
C380 C381 1.400 . S
C381 C375 1.491 . S
C381 C380 1.400 . S
C381 C382 1.398 . S
C382 H370 0.950 . S
C382 C381 1.398 . S
C382 C383 1.391 . S
C383 H371 0.950 . S
C383 C379 1.393 . S
C383 C382 1.391 . S
H384 C392 0.950 . S
H385 C397 0.950 . S
H386 C394 0.950 . S
H387 C396 0.950 . S
H388 C398 0.950 . S
H389 C400 0.950 . S
H390 C402 0.950 . S
H391 C403 0.950 . S
C392 H384 0.950 . S
C392 C393 1.386 . S
C392 C394 1.391 . S
C393 C392 1.386 . S
C393 C397 1.393 1_655 S
C394 H386 0.950 . S
C394 C392 1.391 . S
C394 C395 1.400 . S
C395 C394 1.400 . S
C395 C396 1.398 . S
C395 C401 1.491 . S
C396 H387 0.950 . S
C396 C395 1.398 . S
C396 C397 1.391 1_655 S
C397 H385 0.950 . S
C397 C393 1.393 1_455 S
C397 C396 1.391 1_455 S
C398 H388 0.950 . S
C398 C399 1.386 . S
C398 C400 1.391 . S
C399 C398 1.386 . S
C399 C403 1.393 . S
C400 H389 0.950 . S
C400 C398 1.391 . S
C400 C401 1.400 . S
C401 C395 1.491 . S
C401 C400 1.400 . S
C401 C402 1.398 . S
C402 H390 0.950 . S
C402 C401 1.398 . S
C402 C403 1.391 . S
C403 H391 0.950 . S
C403 C399 1.393 . S
C403 C402 1.391 . S
H404 C412 0.950 1_455 S
H405 C417 0.950 . S
H406 C414 0.950 1_545 S
H407 C416 0.950 . S
H408 C418 0.950 . S
H409 C420 0.950 . S
H410 C422 0.950 . S
H411 C423 0.950 . S
C412 H404 0.950 1_655 S
C412 C413 1.386 1_545 S
C412 C414 1.391 1_545 S
C413 C412 1.386 1_565 S
C413 C417 1.393 . S
C414 H406 0.950 1_565 S
C414 C412 1.391 1_565 S
C414 C415 1.400 . S
C415 C414 1.400 . S
C415 C416 1.398 . S
C415 C421 1.491 . S
C416 H407 0.950 . S
C416 C415 1.398 . S
C416 C417 1.391 . S
C417 H405 0.950 . S
C417 C413 1.393 . S
C417 C416 1.391 . S
C418 H408 0.950 . S
C418 C419 1.386 . S
C418 C420 1.391 1_556 S
C419 C418 1.386 . S
C419 C423 1.393 . S
C420 H409 0.950 . S
C420 C418 1.391 1_554 S
C420 C421 1.400 . S
C421 C415 1.491 . S
C421 C420 1.400 . S
C421 C422 1.398 1_554 S
C422 H410 0.950 . S
C422 C421 1.398 1_556 S
C422 C423 1.391 . S
C423 H411 0.950 . S
C423 C419 1.393 . S
C423 C422 1.391 . S
H424 C432 0.950 1_655 S
H425 C437 0.950 . S
H426 C434 0.950 1_655 S
H427 C436 0.950 . S
H428 C438 0.950 . S
H429 C440 0.950 . S
H430 C442 0.950 . S
H431 C443 0.950 . S
C432 H424 0.950 1_455 S
C432 C433 1.386 . S
C432 C434 1.391 . S
C433 C432 1.386 . S
C433 C437 1.393 . S
C434 H426 0.950 1_455 S
C434 C432 1.391 . S
C434 C435 1.400 . S
C435 C434 1.400 . S
C435 C436 1.398 . S
C435 C441 1.491 . S
C436 H427 0.950 . S
C436 C435 1.398 . S
C436 C437 1.391 . S
C437 H425 0.950 . S
C437 C433 1.393 . S
C437 C436 1.391 . S
C438 H428 0.950 . S
C438 C439 1.386 . S
C438 C440 1.391 . S
C439 C438 1.386 . S
C439 C443 1.393 1_455 S
C440 H429 0.950 . S
C440 C438 1.391 . S
C440 C441 1.400 . S
C441 C435 1.491 . S
C441 C440 1.400 . S
C441 C442 1.398 1_455 S
C442 H430 0.950 . S
C442 C441 1.398 1_655 S
C442 C443 1.391 . S
C443 H431 0.950 . S
C443 C439 1.393 1_655 S
C443 C442 1.391 . S
H444 C452 0.950 . S
H445 C457 0.950 . S
H446 C454 0.950 . S
H447 C456 0.950 . S
H448 C458 0.950 . S
H449 C460 0.950 . S
H450 C462 0.950 . S
H451 C463 0.950 . S
C452 H444 0.950 . S
C452 C453 1.386 . S
C452 C454 1.391 . S
C453 C452 1.386 . S
C453 C457 1.393 . S
C454 H446 0.950 . S
C454 C452 1.391 . S
C454 C455 1.400 . S
C455 C454 1.400 . S
C455 C456 1.398 . S
C455 C461 1.491 . S
C456 H447 0.950 . S
C456 C455 1.398 . S
C456 C457 1.391 . S
C457 H445 0.950 . S
C457 C453 1.393 . S
C457 C456 1.391 . S
C458 H448 0.950 . S
C458 C459 1.386 . S
C458 C460 1.391 . S
C459 C458 1.386 . S
C459 C463 1.393 . S
C460 H449 0.950 . S
C460 C458 1.391 . S
C460 C461 1.400 . S
C461 C455 1.491 . S
C461 C460 1.400 . S
C461 C462 1.398 . S
C462 H450 0.950 . S
C462 C461 1.398 . S
C462 C463 1.391 . S
C463 H451 0.950 . S
C463 C459 1.393 . S
C463 C462 1.391 . S
H464 C472 0.950 . S
H465 C477 0.950 . S
H466 C474 0.950 . S
H467 C476 0.950 . S
H468 C478 0.950 . S
H469 C480 0.950 . S
H470 C482 0.950 . S
H471 C483 0.950 . S
C472 H464 0.950 . S
C472 C473 1.386 . S
C472 C474 1.391 . S
C473 C472 1.386 . S
C473 C477 1.393 . S
C474 H466 0.950 . S
C474 C472 1.391 . S
C474 C475 1.400 . S
C475 C474 1.400 . S
C475 C476 1.398 . S
C475 C481 1.491 . S
C476 H467 0.950 . S
C476 C475 1.398 . S
C476 C477 1.391 . S
C477 H465 0.950 . S
C477 C473 1.393 . S
C477 C476 1.391 . S
C478 H468 0.950 . S
C478 C479 1.386 1_554 S
C478 C480 1.391 . S
C479 C478 1.386 1_556 S
C479 C483 1.393 . S
C480 H469 0.950 . S
C480 C478 1.391 . S
C480 C481 1.400 . S
C481 C475 1.491 . S
C481 C480 1.400 . S
C481 C482 1.398 . S
C482 H470 0.950 . S
C482 C481 1.398 . S
C482 C483 1.391 1_554 S
C483 H471 0.950 . S
C483 C479 1.393 . S
C483 C482 1.391 1_556 S
H484 C492 0.950 . S
H485 C497 0.950 . S
H486 C494 0.950 . S
H487 C496 0.950 . S
H488 C498 0.950 . S
H489 C500 0.950 . S
H490 C502 0.950 . S
H491 C503 0.950 . S
C492 H484 0.950 . S
C492 C493 1.386 . S
C492 C494 1.391 . S
C493 C492 1.386 . S
C493 C497 1.393 . S
C494 H486 0.950 . S
C494 C492 1.391 . S
C494 C495 1.400 . S
C495 C494 1.400 . S
C495 C496 1.398 . S
C495 C501 1.491 . S
C496 H487 0.950 . S
C496 C495 1.398 . S
C496 C497 1.391 . S
C497 H485 0.950 . S
C497 C493 1.393 . S
C497 C496 1.391 . S
C498 H488 0.950 . S
C498 C499 1.386 . S
C498 C500 1.391 . S
C499 C498 1.386 . S
C499 C503 1.393 . S
C500 H489 0.950 . S
C500 C498 1.391 . S
C500 C501 1.400 . S
C501 C495 1.491 . S
C501 C500 1.400 . S
C501 C502 1.398 . S
C502 H490 0.950 . S
C502 C501 1.398 . S
C502 C503 1.391 . S
C503 H491 0.950 . S
C503 C499 1.393 . S
C503 C502 1.391 . S
C279 C81 1.437 . S
C273 C3 1.533 . S
C293 C21 1.459 . S
C299 C155 1.413 . S
C313 C37 2.107 1_665 S
C319 C259 2.127 . S
C333 C8 0.847 1_565 S
C339 C93 0.838 . S
C359 C167 0.818 . S
C353 C23 0.817 . S
C373 C35 1.555 . S
C379 C253 1.460 . S
C399 C185 2.124 . S
C393 C31 2.130 1_655 S
C413 C7 1.507 1_665 S
C419 C229 1.463 . S
C439 C105 1.500 . S
C433 C17 1.613 . S
C459 C179 1.388 . S
C453 C36 1.493 . S
C479 C241 0.836 . S
C473 C9 0.832 . S
C493 C22 2.161 . S
C499 C111 2.160 . S
