# Generated by pormake.
# Topology tbo, (3,4)-cn, num edge types: 1
# Building blocks:
#     Node 0, Type 0, BuildingBlock: VETTIZ_charged_linker_0, # of connection points: 3
#     Node 1, Type 0, BuildingBlock: VETTIZ_charged_linker_0, # of connection points: 3
#     Node 2, Type 0, BuildingBlock: VETTIZ_charged_linker_0, # of connection points: 3
#     Node 3, Type 0, BuildingBlock: VETTIZ_charged_linker_0, # of connection points: 3
#     Node 4, Type 0, BuildingBlock: VETTIZ_charged_linker_0, # of connection points: 3
#     Node 5, Type 0, BuildingBlock: VETTIZ_charged_linker_0, # of connection points: 3
#     Node 6, Type 0, BuildingBlock: VETTIZ_charged_linker_0, # of connection points: 3
#     Node 7, Type 0, BuildingBlock: VETTIZ_charged_linker_0, # of connection points: 3
#     Node 8, Type 0, BuildingBlock: VETTIZ_charged_linker_0, # of connection points: 3
#     Node 9, Type 0, BuildingBlock: VETTIZ_charged_linker_0, # of connection points: 3
#     Node 10, Type 0, BuildingBlock: VETTIZ_charged_linker_0, # of connection points: 3
#     Node 11, Type 0, BuildingBlock: VETTIZ_charged_linker_0, # of connection points: 3
#     Node 12, Type 0, BuildingBlock: VETTIZ_charged_linker_0, # of connection points: 3
#     Node 13, Type 0, BuildingBlock: VETTIZ_charged_linker_0, # of connection points: 3
#     Node 14, Type 0, BuildingBlock: VETTIZ_charged_linker_0, # of connection points: 3
#     Node 15, Type 0, BuildingBlock: VETTIZ_charged_linker_0, # of connection points: 3
#     Node 16, Type 0, BuildingBlock: VETTIZ_charged_linker_0, # of connection points: 3
#     Node 17, Type 0, BuildingBlock: VETTIZ_charged_linker_0, # of connection points: 3
#     Node 18, Type 0, BuildingBlock: VETTIZ_charged_linker_0, # of connection points: 3
#     Node 19, Type 0, BuildingBlock: VETTIZ_charged_linker_0, # of connection points: 3
#     Node 20, Type 0, BuildingBlock: VETTIZ_charged_linker_0, # of connection points: 3
#     Node 21, Type 0, BuildingBlock: VETTIZ_charged_linker_0, # of connection points: 3
#     Node 22, Type 0, BuildingBlock: VETTIZ_charged_linker_0, # of connection points: 3
#     Node 23, Type 0, BuildingBlock: VETTIZ_charged_linker_0, # of connection points: 3
#     Node 24, Type 0, BuildingBlock: VETTIZ_charged_linker_0, # of connection points: 3
#     Node 25, Type 0, BuildingBlock: VETTIZ_charged_linker_0, # of connection points: 3
#     Node 26, Type 0, BuildingBlock: VETTIZ_charged_linker_0, # of connection points: 3
#     Node 27, Type 0, BuildingBlock: VETTIZ_charged_linker_0, # of connection points: 3
#     Node 28, Type 0, BuildingBlock: VETTIZ_charged_linker_0, # of connection points: 3
#     Node 29, Type 0, BuildingBlock: VETTIZ_charged_linker_0, # of connection points: 3
#     Node 30, Type 0, BuildingBlock: VETTIZ_charged_linker_0, # of connection points: 3
#     Node 31, Type 0, BuildingBlock: VETTIZ_charged_linker_0, # of connection points: 3
#     Node 32, Type 1, BuildingBlock: ESEHIV_clean_sbu_0, # of connection points: 4
#     Node 33, Type 1, BuildingBlock: ESEHIV_clean_sbu_0, # of connection points: 4
#     Node 34, Type 1, BuildingBlock: ESEHIV_clean_sbu_0, # of connection points: 4
#     Node 35, Type 1, BuildingBlock: ESEHIV_clean_sbu_0, # of connection points: 4
#     Node 36, Type 1, BuildingBlock: ESEHIV_clean_sbu_0, # of connection points: 4
#     Node 37, Type 1, BuildingBlock: ESEHIV_clean_sbu_0, # of connection points: 4
#     Node 38, Type 1, BuildingBlock: ESEHIV_clean_sbu_0, # of connection points: 4
#     Node 39, Type 1, BuildingBlock: ESEHIV_clean_sbu_0, # of connection points: 4
#     Node 40, Type 1, BuildingBlock: ESEHIV_clean_sbu_0, # of connection points: 4
#     Node 41, Type 1, BuildingBlock: ESEHIV_clean_sbu_0, # of connection points: 4
#     Node 42, Type 1, BuildingBlock: ESEHIV_clean_sbu_0, # of connection points: 4
#     Node 43, Type 1, BuildingBlock: ESEHIV_clean_sbu_0, # of connection points: 4
#     Node 44, Type 1, BuildingBlock: ESEHIV_clean_sbu_0, # of connection points: 4
#     Node 45, Type 1, BuildingBlock: ESEHIV_clean_sbu_0, # of connection points: 4
#     Node 46, Type 1, BuildingBlock: ESEHIV_clean_sbu_0, # of connection points: 4
#     Node 47, Type 1, BuildingBlock: ESEHIV_clean_sbu_0, # of connection points: 4
#     Node 48, Type 1, BuildingBlock: ESEHIV_clean_sbu_0, # of connection points: 4
#     Node 49, Type 1, BuildingBlock: ESEHIV_clean_sbu_0, # of connection points: 4
#     Node 50, Type 1, BuildingBlock: ESEHIV_clean_sbu_0, # of connection points: 4
#     Node 51, Type 1, BuildingBlock: ESEHIV_clean_sbu_0, # of connection points: 4
#     Node 52, Type 1, BuildingBlock: ESEHIV_clean_sbu_0, # of connection points: 4
#     Node 53, Type 1, BuildingBlock: ESEHIV_clean_sbu_0, # of connection points: 4
#     Node 54, Type 1, BuildingBlock: ESEHIV_clean_sbu_0, # of connection points: 4
#     Node 55, Type 1, BuildingBlock: ESEHIV_clean_sbu_0, # of connection points: 4
#     Edge 56, Type (0, 1), BuildingBlock: EZIPEK_clean_linker_0, # of connection points: 2
#     Edge 57, Type (0, 1), BuildingBlock: EZIPEK_clean_linker_0, # of connection points: 2
#     Edge 58, Type (0, 1), BuildingBlock: EZIPEK_clean_linker_0, # of connection points: 2
#     Edge 59, Type (0, 1), BuildingBlock: EZIPEK_clean_linker_0, # of connection points: 2
#     Edge 60, Type (0, 1), BuildingBlock: EZIPEK_clean_linker_0, # of connection points: 2
#     Edge 61, Type (0, 1), BuildingBlock: EZIPEK_clean_linker_0, # of connection points: 2
#     Edge 62, Type (0, 1), BuildingBlock: EZIPEK_clean_linker_0, # of connection points: 2
#     Edge 63, Type (0, 1), BuildingBlock: EZIPEK_clean_linker_0, # of connection points: 2
#     Edge 64, Type (0, 1), BuildingBlock: EZIPEK_clean_linker_0, # of connection points: 2
#     Edge 65, Type (0, 1), BuildingBlock: EZIPEK_clean_linker_0, # of connection points: 2
#     Edge 66, Type (0, 1), BuildingBlock: EZIPEK_clean_linker_0, # of connection points: 2
#     Edge 67, Type (0, 1), BuildingBlock: EZIPEK_clean_linker_0, # of connection points: 2
#     Edge 68, Type (0, 1), BuildingBlock: EZIPEK_clean_linker_0, # of connection points: 2
#     Edge 69, Type (0, 1), BuildingBlock: EZIPEK_clean_linker_0, # of connection points: 2
#     Edge 70, Type (0, 1), BuildingBlock: EZIPEK_clean_linker_0, # of connection points: 2
#     Edge 71, Type (0, 1), BuildingBlock: EZIPEK_clean_linker_0, # of connection points: 2
#     Edge 72, Type (0, 1), BuildingBlock: EZIPEK_clean_linker_0, # of connection points: 2
#     Edge 73, Type (0, 1), BuildingBlock: EZIPEK_clean_linker_0, # of connection points: 2
#     Edge 74, Type (0, 1), BuildingBlock: EZIPEK_clean_linker_0, # of connection points: 2
#     Edge 75, Type (0, 1), BuildingBlock: EZIPEK_clean_linker_0, # of connection points: 2
#     Edge 76, Type (0, 1), BuildingBlock: EZIPEK_clean_linker_0, # of connection points: 2
#     Edge 77, Type (0, 1), BuildingBlock: EZIPEK_clean_linker_0, # of connection points: 2
#     Edge 78, Type (0, 1), BuildingBlock: EZIPEK_clean_linker_0, # of connection points: 2
#     Edge 79, Type (0, 1), BuildingBlock: EZIPEK_clean_linker_0, # of connection points: 2
#     Edge 80, Type (0, 1), BuildingBlock: EZIPEK_clean_linker_0, # of connection points: 2
#     Edge 81, Type (0, 1), BuildingBlock: EZIPEK_clean_linker_0, # of connection points: 2
#     Edge 82, Type (0, 1), BuildingBlock: EZIPEK_clean_linker_0, # of connection points: 2
#     Edge 83, Type (0, 1), BuildingBlock: EZIPEK_clean_linker_0, # of connection points: 2
#     Edge 84, Type (0, 1), BuildingBlock: EZIPEK_clean_linker_0, # of connection points: 2
#     Edge 85, Type (0, 1), BuildingBlock: EZIPEK_clean_linker_0, # of connection points: 2
#     Edge 86, Type (0, 1), BuildingBlock: EZIPEK_clean_linker_0, # of connection points: 2
#     Edge 87, Type (0, 1), BuildingBlock: EZIPEK_clean_linker_0, # of connection points: 2
#     Edge 88, Type (0, 1), BuildingBlock: EZIPEK_clean_linker_0, # of connection points: 2
#     Edge 89, Type (0, 1), BuildingBlock: EZIPEK_clean_linker_0, # of connection points: 2
#     Edge 90, Type (0, 1), BuildingBlock: EZIPEK_clean_linker_0, # of connection points: 2
#     Edge 91, Type (0, 1), BuildingBlock: EZIPEK_clean_linker_0, # of connection points: 2
#     Edge 92, Type (0, 1), BuildingBlock: EZIPEK_clean_linker_0, # of connection points: 2
#     Edge 93, Type (0, 1), BuildingBlock: EZIPEK_clean_linker_0, # of connection points: 2
#     Edge 94, Type (0, 1), BuildingBlock: EZIPEK_clean_linker_0, # of connection points: 2
#     Edge 95, Type (0, 1), BuildingBlock: EZIPEK_clean_linker_0, # of connection points: 2
#     Edge 96, Type (0, 1), BuildingBlock: EZIPEK_clean_linker_0, # of connection points: 2
#     Edge 97, Type (0, 1), BuildingBlock: EZIPEK_clean_linker_0, # of connection points: 2
#     Edge 98, Type (0, 1), BuildingBlock: EZIPEK_clean_linker_0, # of connection points: 2
#     Edge 99, Type (0, 1), BuildingBlock: EZIPEK_clean_linker_0, # of connection points: 2
#     Edge 100, Type (0, 1), BuildingBlock: EZIPEK_clean_linker_0, # of connection points: 2
#     Edge 101, Type (0, 1), BuildingBlock: EZIPEK_clean_linker_0, # of connection points: 2
#     Edge 102, Type (0, 1), BuildingBlock: EZIPEK_clean_linker_0, # of connection points: 2
#     Edge 103, Type (0, 1), BuildingBlock: EZIPEK_clean_linker_0, # of connection points: 2
#     Edge 104, Type (0, 1), BuildingBlock: EZIPEK_clean_linker_0, # of connection points: 2
#     Edge 105, Type (0, 1), BuildingBlock: EZIPEK_clean_linker_0, # of connection points: 2
#     Edge 106, Type (0, 1), BuildingBlock: EZIPEK_clean_linker_0, # of connection points: 2
#     Edge 107, Type (0, 1), BuildingBlock: EZIPEK_clean_linker_0, # of connection points: 2
#     Edge 108, Type (0, 1), BuildingBlock: EZIPEK_clean_linker_0, # of connection points: 2
#     Edge 109, Type (0, 1), BuildingBlock: EZIPEK_clean_linker_0, # of connection points: 2
#     Edge 110, Type (0, 1), BuildingBlock: EZIPEK_clean_linker_0, # of connection points: 2
#     Edge 111, Type (0, 1), BuildingBlock: EZIPEK_clean_linker_0, # of connection points: 2
#     Edge 112, Type (0, 1), BuildingBlock: EZIPEK_clean_linker_0, # of connection points: 2
#     Edge 113, Type (0, 1), BuildingBlock: EZIPEK_clean_linker_0, # of connection points: 2
#     Edge 114, Type (0, 1), BuildingBlock: EZIPEK_clean_linker_0, # of connection points: 2
#     Edge 115, Type (0, 1), BuildingBlock: EZIPEK_clean_linker_0, # of connection points: 2
#     Edge 116, Type (0, 1), BuildingBlock: EZIPEK_clean_linker_0, # of connection points: 2
#     Edge 117, Type (0, 1), BuildingBlock: EZIPEK_clean_linker_0, # of connection points: 2
#     Edge 118, Type (0, 1), BuildingBlock: EZIPEK_clean_linker_0, # of connection points: 2
#     Edge 119, Type (0, 1), BuildingBlock: EZIPEK_clean_linker_0, # of connection points: 2
#     Edge 120, Type (0, 1), BuildingBlock: EZIPEK_clean_linker_0, # of connection points: 2
#     Edge 121, Type (0, 1), BuildingBlock: EZIPEK_clean_linker_0, # of connection points: 2
#     Edge 122, Type (0, 1), BuildingBlock: EZIPEK_clean_linker_0, # of connection points: 2
#     Edge 123, Type (0, 1), BuildingBlock: EZIPEK_clean_linker_0, # of connection points: 2
#     Edge 124, Type (0, 1), BuildingBlock: EZIPEK_clean_linker_0, # of connection points: 2
#     Edge 125, Type (0, 1), BuildingBlock: EZIPEK_clean_linker_0, # of connection points: 2
#     Edge 126, Type (0, 1), BuildingBlock: EZIPEK_clean_linker_0, # of connection points: 2
#     Edge 127, Type (0, 1), BuildingBlock: EZIPEK_clean_linker_0, # of connection points: 2
#     Edge 128, Type (0, 1), BuildingBlock: EZIPEK_clean_linker_0, # of connection points: 2
#     Edge 129, Type (0, 1), BuildingBlock: EZIPEK_clean_linker_0, # of connection points: 2
#     Edge 130, Type (0, 1), BuildingBlock: EZIPEK_clean_linker_0, # of connection points: 2
#     Edge 131, Type (0, 1), BuildingBlock: EZIPEK_clean_linker_0, # of connection points: 2
#     Edge 132, Type (0, 1), BuildingBlock: EZIPEK_clean_linker_0, # of connection points: 2
#     Edge 133, Type (0, 1), BuildingBlock: EZIPEK_clean_linker_0, # of connection points: 2
#     Edge 134, Type (0, 1), BuildingBlock: EZIPEK_clean_linker_0, # of connection points: 2
#     Edge 135, Type (0, 1), BuildingBlock: EZIPEK_clean_linker_0, # of connection points: 2
#     Edge 136, Type (0, 1), BuildingBlock: EZIPEK_clean_linker_0, # of connection points: 2
#     Edge 137, Type (0, 1), BuildingBlock: EZIPEK_clean_linker_0, # of connection points: 2
#     Edge 138, Type (0, 1), BuildingBlock: EZIPEK_clean_linker_0, # of connection points: 2
#     Edge 139, Type (0, 1), BuildingBlock: EZIPEK_clean_linker_0, # of connection points: 2
#     Edge 140, Type (0, 1), BuildingBlock: EZIPEK_clean_linker_0, # of connection points: 2
#     Edge 141, Type (0, 1), BuildingBlock: EZIPEK_clean_linker_0, # of connection points: 2
#     Edge 142, Type (0, 1), BuildingBlock: EZIPEK_clean_linker_0, # of connection points: 2
#     Edge 143, Type (0, 1), BuildingBlock: EZIPEK_clean_linker_0, # of connection points: 2
#     Edge 144, Type (0, 1), BuildingBlock: EZIPEK_clean_linker_0, # of connection points: 2
#     Edge 145, Type (0, 1), BuildingBlock: EZIPEK_clean_linker_0, # of connection points: 2
#     Edge 146, Type (0, 1), BuildingBlock: EZIPEK_clean_linker_0, # of connection points: 2
#     Edge 147, Type (0, 1), BuildingBlock: EZIPEK_clean_linker_0, # of connection points: 2
#     Edge 148, Type (0, 1), BuildingBlock: EZIPEK_clean_linker_0, # of connection points: 2
#     Edge 149, Type (0, 1), BuildingBlock: EZIPEK_clean_linker_0, # of connection points: 2
#     Edge 150, Type (0, 1), BuildingBlock: EZIPEK_clean_linker_0, # of connection points: 2
#     Edge 151, Type (0, 1), BuildingBlock: EZIPEK_clean_linker_0, # of connection points: 2
# Relax obj value: 0.003
# Max RMSD: 0.122
# Mean RMSD: 0.049
data_MOF--net-tbo--node1-ESEHIV_clean_sbu_0--node2-VETTIZ_charged_linker_0--edge1-EZIPEK_clean_linker_0
_symmetry_space_group_name_H-M    P1
_symmetry_Int_Tables_number       1
_symmetry_cell_setting            triclinic
loop_
_symmetry_equiv_pos_as_xyz
'x, y, z'
_cell_length_a     70.194164
_cell_length_b     70.16054
_cell_length_c     70.072371
_cell_angle_alpha  90.032812
_cell_angle_beta   92.580798
_cell_angle_gamma 90.834562
loop_
_atom_site_label
_atom_site_type_symbol
_atom_site_fract_x
_atom_site_fract_y
_atom_site_fract_z
_atom_type_partial_charge
C0 C 0.22506 0.20824 0.12575 0.0
C1 C 0.24166 0.19931 0.11986 0.0
C2 C 0.24785 0.18257 0.12902 0.0
C3 C 0.22109 0.18357 0.14964 0.0
C4 C 0.21504 0.20016 0.14078 0.0
C5 C 0.19727 0.20771 0.14938 0.0
H6 H 0.13151 0.19928 0.21785 0.0
C7 C 0.20776 0.1788 0.16469 0.0
C8 C 0.19378 0.19294 0.16483 0.0
H9 H 0.13411 0.24245 0.17421 0.0
H10 H 0.16191 0.22745 0.16154 0.0
H11 H 0.13807 0.16499 0.19005 0.0
H12 H 0.17698 0.19651 0.2278 0.0
H13 H 0.18211 0.17215 0.23045 0.0
H14 H 0.15891 0.18059 0.23614 0.0
H15 H 0.13921 0.16105 0.21536 0.0
H16 H 0.15438 0.14848 0.19963 0.0
C17 C 0.18103 0.20762 0.13371 0.0
C18 C 0.20203 0.22763 0.15791 0.0
C19 C 0.21794 0.11818 0.20313 0.0
C20 C 0.20832 0.10994 0.21824 0.0
C21 C 0.19251 0.11922 0.22544 0.0
C22 C 0.1863 0.13657 0.21761 0.0
C23 C 0.19603 0.14471 0.20242 0.0
C24 C 0.21162 0.13554 0.19552 0.0
C25 C 0.22041 0.14637 0.17958 0.0
C26 C 0.20728 0.16334 0.17772 0.0
C27 C 0.19306 0.16233 0.19111 0.0
C28 C 0.21907 0.13359 0.1615 0.0
C29 C 0.24101 0.15236 0.18632 0.0
C30 C 0.13818 0.20551 0.20563 0.0
C31 C 0.13088 0.22213 0.19712 0.0
C32 C 0.13968 0.22972 0.18104 0.0
C33 C 0.15577 0.221 0.17376 0.0
C34 C 0.16304 0.20442 0.18255 0.0
C35 C 0.15405 0.19687 0.19809 0.0
C36 C 0.163 0.17873 0.20515 0.0
C37 C 0.1791 0.17675 0.19161 0.0
C38 C 0.17927 0.19191 0.17844 0.0
C39 C 0.14797 0.16239 0.2026 0.0
C40 C 0.17059 0.18197 0.22602 0.0
H41 H 0.24315 0.16183 0.15015 0.0
H42 H 0.22012 0.2212 0.11888 0.0
H43 H 0.21621 0.22764 0.16568 0.0
H44 H 0.19184 0.23215 0.16848 0.0
H45 H 0.20252 0.23858 0.14648 0.0
H46 H 0.18177 0.19475 0.1245 0.0
H47 H 0.18204 0.22035 0.12437 0.0
H48 H 0.16672 0.20697 0.13961 0.0
H49 H 0.23017 0.11127 0.19744 0.0
H50 H 0.18499 0.11299 0.23713 0.0
H51 H 0.17417 0.14296 0.22369 0.0
H52 H 0.20527 0.12556 0.16054 0.0
H53 H 0.2307 0.12301 0.16178 0.0
H54 H 0.2194 0.14176 0.14806 0.0
H55 H 0.24243 0.15385 0.20214 0.0
H56 H 0.24524 0.16653 0.18087 0.0
H57 H 0.25153 0.14166 0.18207 0.0
H58 H 0.26061 0.17559 0.12462 0.0
C59 C 0.23767 0.17465 0.14383 0.0
C60 C 0.84894 0.1142 0.24139 0.0
C61 C 0.83131 0.1065 0.2346 0.0
C62 C 0.82143 0.11543 0.2192 0.0
C63 C 0.84655 0.13953 0.21768 0.0
C64 C 0.85626 0.13068 0.23276 0.0
C65 C 0.87482 0.14077 0.23819 0.0
H66 H 0.93632 0.21493 0.22591 0.0
C67 C 0.8579 0.15652 0.21215 0.0
C68 C 0.87447 0.15735 0.2242 0.0
H69 H 0.94326 0.16721 0.26432 0.0
H70 H 0.91261 0.15419 0.2531 0.0
H71 H 0.89113 0.22155 0.23134 0.0
H72 H 0.92105 0.18928 0.19009 0.0
H73 H 0.90243 0.20125 0.17781 0.0
H74 H 0.9211 0.21486 0.19026 0.0
H75 H 0.90433 0.23277 0.21297 0.0
H76 H 0.87979 0.22527 0.2088 0.0
C77 C 0.87394 0.14766 0.25912 0.0
C78 C 0.89134 0.12697 0.23466 0.0
C79 C 0.83407 0.1986 0.15692 0.0
C80 C 0.84109 0.21561 0.14905 0.0
C81 C 0.85787 0.22403 0.15721 0.0
C82 C 0.86774 0.21551 0.17279 0.0
C83 C 0.86073 0.19836 0.18042 0.0
C84 C 0.84401 0.19033 0.17263 0.0
C85 C 0.83835 0.17247 0.18303 0.0
C86 C 0.85466 0.17081 0.19798 0.0
C87 C 0.86781 0.18598 0.19632 0.0
C88 C 0.81905 0.17604 0.19222 0.0
C89 C 0.83796 0.15568 0.16867 0.0
C90 C 0.9311 0.20175 0.23195 0.0
C91 C 0.94207 0.19215 0.24615 0.0
C92 C 0.93497 0.17489 0.25349 0.0
C93 C 0.91721 0.16735 0.2469 0.0
C94 C 0.90645 0.17702 0.2326 0.0
C95 C 0.91353 0.19386 0.22527 0.0
C96 C 0.90062 0.20166 0.20946 0.0
C97 C 0.88454 0.18685 0.20861 0.0
C98 C 0.88795 0.17252 0.22233 0.0
C99 C 0.89362 0.22142 0.21577 0.0
C100 C 0.91178 0.20196 0.19088 0.0
H101 H 0.82072 0.13799 0.19904 0.0
H102 H 0.85681 0.10755 0.25319 0.0
H103 H 0.8876 0.11711 0.22257 0.0
H104 H 0.90445 0.13445 0.23041 0.0
H105 H 0.8947 0.1181 0.24747 0.0
H106 H 0.85968 0.15362 0.26173 0.0
H107 H 0.8764 0.13569 0.26927 0.0
H108 H 0.88425 0.15925 0.26277 0.0
H109 H 0.82112 0.19192 0.15095 0.0
H110 H 0.86346 0.23714 0.15133 0.0
H111 H 0.8805 0.22258 0.17826 0.0
H112 H 0.81786 0.19121 0.19662 0.0
H113 H 0.80686 0.17272 0.18205 0.0
H114 H 0.81735 0.16784 0.2055 0.0
H115 H 0.85017 0.15683 0.15912 0.0
H116 H 0.83945 0.14166 0.17566 0.0
H117 H 0.82462 0.1556 0.15952 0.0
H118 H 0.80784 0.10965 0.2138 0.0
C119 C 0.82894 0.13187 0.21071 0.0
C120 C 0.90251 0.83814 0.20053 0.0
C121 C 0.91662 0.82744 0.19187 0.0
C122 C 0.91416 0.82345 0.17211 0.0
C123 C 0.88389 0.83999 0.1704 0.0
C124 C 0.88684 0.84487 0.18944 0.0
C125 C 0.87258 0.85914 0.19572 0.0
H126 H 0.79495 0.91332 0.17564 0.0
C127 C 0.86621 0.84942 0.16298 0.0
C128 C 0.85991 0.86113 0.17767 0.0
H129 H 0.83155 0.91362 0.2268 0.0
H130 H 0.85067 0.88875 0.21379 0.0
H131 H 0.79265 0.86859 0.17141 0.0
H132 H 0.82873 0.91019 0.14541 0.0
H133 H 0.82051 0.89404 0.12753 0.0
H134 H 0.80356 0.90788 0.13998 0.0
H135 H 0.7845 0.88217 0.15105 0.0
H136 H 0.79659 0.85982 0.14851 0.0
C137 C 0.86155 0.85031 0.21225 0.0
C138 C 0.88346 0.87799 0.20102 0.0
C139 C 0.83466 0.83068 0.09812 0.0
C140 C 0.81755 0.83634 0.08854 0.0
C141 C 0.80654 0.85046 0.09684 0.0
C142 C 0.81221 0.85871 0.11444 0.0
C143 C 0.82915 0.85283 0.12402 0.0
C144 C 0.84018 0.83911 0.11585 0.0
C145 C 0.85795 0.83505 0.12813 0.0
C146 C 0.85513 0.84777 0.14542 0.0
C147 C 0.8383 0.85831 0.14274 0.0
C148 C 0.85782 0.8137 0.13346 0.0
C149 C 0.87556 0.8414 0.11706 0.0
C150 C 0.8072 0.90807 0.18387 0.0
C151 C 0.81199 0.91552 0.20213 0.0
C152 C 0.82781 0.90818 0.21263 0.0
C153 C 0.8389 0.8938 0.20502 0.0
C154 C 0.83421 0.88668 0.18662 0.0
C155 C 0.81855 0.89375 0.17639 0.0
C156 C 0.81565 0.88426 0.15717 0.0
C157 C 0.83257 0.87092 0.15726 0.0
C158 C 0.8433 0.8723 0.17461 0.0
C159 C 0.79633 0.87321 0.15682 0.0
C160 C 0.81703 0.89981 0.14159 0.0
H161 H 0.89661 0.82554 0.14662 0.0
H162 H 0.90406 0.8419 0.21552 0.0
H163 H 0.8973 0.8791 0.19392 0.0
H164 H 0.87559 0.89077 0.19611 0.0
H165 H 0.88662 0.87906 0.21666 0.0
H166 H 0.85722 0.83533 0.20883 0.0
H167 H 0.87056 0.85018 0.2257 0.0
H168 H 0.84823 0.85784 0.2149 0.0
H169 H 0.84343 0.81992 0.09196 0.0
H170 H 0.79338 0.85502 0.08967 0.0
H171 H 0.80311 0.86934 0.11994 0.0
H172 H 0.84395 0.80954 0.13943 0.0
H173 H 0.85988 0.80471 0.12067 0.0
H174 H 0.869 0.8101 0.14435 0.0
H175 H 0.87209 0.85345 0.10726 0.0
H176 H 0.88734 0.84688 0.12663 0.0
H177 H 0.88082 0.82955 0.10829 0.0
H178 H 0.92495 0.81566 0.1649 0.0
C179 C 0.89776 0.82929 0.16147 0.0
C180 C 0.18743 0.89759 0.21097 0.0
C181 C 0.17705 0.90369 0.22647 0.0
C182 C 0.16097 0.89306 0.23172 0.0
C183 C 0.16541 0.8708 0.20579 0.0
C184 C 0.18139 0.88113 0.20085 0.0
C185 C 0.19087 0.87246 0.1841 0.0
H186 H 0.18423 0.81396 0.10744 0.0
C187 C 0.16258 0.85485 0.19203 0.0
C188 C 0.17735 0.85582 0.17919 0.0
H189 H 0.2327 0.84861 0.12694 0.0
H190 H 0.21615 0.85768 0.15498 0.0
H191 H 0.1836 0.79454 0.14777 0.0
H192 H 0.14766 0.8384 0.12355 0.0
H193 H 0.13363 0.82001 0.13345 0.0
H194 H 0.1488 0.81458 0.11425 0.0
H195 H 0.16327 0.78882 0.13232 0.0
H196 H 0.16128 0.79167 0.15778 0.0
C197 C 0.21098 0.86564 0.19093 0.0
C198 C 0.1911 0.8874 0.16789 0.0
C199 C 0.10684 0.80861 0.1984 0.0
C200 C 0.10017 0.79279 0.18766 0.0
C201 C 0.10903 0.78819 0.17066 0.0
C202 C 0.12465 0.79909 0.16462 0.0
C203 C 0.1315 0.81464 0.17579 0.0
C204 C 0.12246 0.81925 0.19228 0.0
C205 C 0.1315 0.83628 0.20234 0.0
C206 C 0.14803 0.84062 0.18971 0.0
C207 C 0.14792 0.82802 0.17409 0.0
C208 C 0.13851 0.83007 0.22264 0.0
C209 C 0.11674 0.85253 0.20194 0.0
C210 C 0.19123 0.8236 0.1177 0.0
C211 C 0.20958 0.83113 0.11455 0.0
C212 C 0.21841 0.84305 0.12869 0.0
C213 C 0.20882 0.84825 0.14499 0.0
C214 C 0.19044 0.84089 0.1477 0.0
C215 C 0.18232 0.82804 0.13467 0.0
C216 C 0.16443 0.81889 0.14189 0.0
C217 C 0.16249 0.82947 0.16065 0.0
C218 C 0.17748 0.8428 0.16363 0.0
C219 C 0.16815 0.79735 0.14503 0.0
C220 C 0.14766 0.82305 0.12753 0.0
H221 H 0.14267 0.86922 0.22611 0.0
H222 H 0.2 0.90546 0.20689 0.0
H223 H 0.1766 0.89327 0.16511 0.0
H224 H 0.19553 0.88148 0.15425 0.0
H225 H 0.20094 0.89946 0.17183 0.0
H226 H 0.21226 0.8639 0.20672 0.0
H227 H 0.22226 0.87595 0.1869 0.0
H228 H 0.21421 0.85139 0.18516 0.0
H229 H 0.10014 0.81245 0.21147 0.0
H230 H 0.10394 0.77608 0.16218 0.0
H231 H 0.13084 0.79497 0.15154 0.0
H232 H 0.14489 0.81565 0.22228 0.0
H233 H 0.12653 0.82945 0.23247 0.0
H234 H 0.14987 0.83948 0.22893 0.0
H235 H 0.10692 0.85152 0.18905 0.0
H236 H 0.12343 0.86683 0.20101 0.0
H237 H 0.10787 0.85194 0.21466 0.0
H238 H 0.15291 0.89756 0.24371 0.0
C239 C 0.15507 0.87668 0.22145 0.0
C240 C 0.22062 0.82818 0.90897 0.0
C241 C 0.2107 0.8116 0.91424 0.0
C242 C 0.19407 0.80607 0.90352 0.0
C243 C 0.19737 0.83367 0.88274 0.0
C244 C 0.21378 0.83892 0.89325 0.0
C245 C 0.22292 0.85671 0.8856 0.0
H246 H 0.22239 0.92937 0.82165 0.0
C247 C 0.1942 0.848 0.86729 0.0
C248 C 0.20921 0.86152 0.86895 0.0
H249 H 0.26471 0.91777 0.86654 0.0
H250 H 0.24672 0.88986 0.87599 0.0
H251 H 0.18546 0.91948 0.84599 0.0
H252 H 0.21731 0.88563 0.80763 0.0
H253 H 0.19297 0.88075 0.80269 0.0
H254 H 0.20213 0.90461 0.79946 0.0
H255 H 0.18402 0.92298 0.82059 0.0
H256 H 0.16895 0.90578 0.83204 0.0
C257 C 0.22309 0.87216 0.90141 0.0
C258 C 0.24293 0.85155 0.87884 0.0
C259 C 0.13644 0.8421 0.82042 0.0
C260 C 0.12971 0.85344 0.80505 0.0
C261 C 0.13985 0.87018 0.80059 0.0
C262 C 0.15662 0.87547 0.81112 0.0
C263 C 0.16332 0.86395 0.82639 0.0
C264 C 0.15319 0.84763 0.8309 0.0
C265 C 0.16229 0.83733 0.8478 0.0
C266 C 0.17963 0.85003 0.85259 0.0
C267 C 0.18018 0.86559 0.83993 0.0
C268 C 0.14806 0.83718 0.86404 0.0
C269 C 0.16807 0.81728 0.84114 0.0
C270 C 0.22765 0.92078 0.83354 0.0
C271 C 0.24488 0.9257 0.84348 0.0
C272 C 0.25144 0.91419 0.85878 0.0
C273 C 0.24097 0.89801 0.86419 0.0
C274 C 0.22376 0.89316 0.85412 0.0
C275 C 0.21741 0.90445 0.83903 0.0
C276 C 0.19906 0.89688 0.82971 0.0
C277 C 0.19543 0.8792 0.84166 0.0
C278 C 0.20989 0.87713 0.85601 0.0
C279 C 0.18349 0.91202 0.832 0.0
C280 C 0.20287 0.89177 0.80872 0.0
H281 H 0.17457 0.81209 0.88027 0.0
H282 H 0.23355 0.83261 0.91687 0.0
H283 H 0.24307 0.83669 0.8733 0.0
H284 H 0.24742 0.86044 0.86679 0.0
H285 H 0.25389 0.85268 0.89074 0.0
H286 H 0.20955 0.87166 0.90909 0.0
H287 H 0.235 0.86995 0.91212 0.0
H288 H 0.22409 0.8868 0.89577 0.0
H289 H 0.12878 0.82923 0.82419 0.0
H290 H 0.13481 0.87911 0.78887 0.0
H291 H 0.16372 0.88834 0.80695 0.0
H292 H 0.14046 0.85096 0.8646 0.0
H293 H 0.13715 0.82567 0.86182 0.0
H294 H 0.15508 0.83555 0.87834 0.0
H295 H 0.17367 0.8179 0.82655 0.0
H296 H 0.17969 0.81113 0.8502 0.0
H297 H 0.15565 0.80727 0.84069 0.0
H298 H 0.18633 0.79325 0.9073 0.0
C299 C 0.18732 0.81702 0.88785 0.0
C300 C 0.14327 0.20627 0.8199 0.0
C301 C 0.135 0.22336 0.82546 0.0
C302 C 0.14265 0.23318 0.84163 0.0
C303 C 0.16663 0.20884 0.84652 0.0
C304 C 0.159 0.19929 0.83062 0.0
C305 C 0.16946 0.18127 0.8267 0.0
H306 H 0.24268 0.12194 0.84703 0.0
C307 C 0.18285 0.19762 0.85452 0.0
C308 C 0.18449 0.18141 0.84299 0.0
H309 H 0.19934 0.11772 0.80145 0.0
H310 H 0.18405 0.14566 0.81323 0.0
H311 H 0.24823 0.16936 0.84707 0.0
H312 H 0.21273 0.13193 0.87975 0.0
H313 H 0.2212 0.15062 0.89467 0.0
H314 H 0.23792 0.13425 0.885 0.0
H315 H 0.25769 0.15161 0.86323 0.0
H316 H 0.25102 0.17459 0.87175 0.0
C317 C 0.17841 0.18342 0.80696 0.0
C318 C 0.15526 0.16424 0.8282 0.0
C319 C 0.22173 0.22261 0.91256 0.0
C320 C 0.23685 0.21513 0.92392 0.0
C321 C 0.24354 0.1968 0.91956 0.0
C322 C 0.23583 0.18647 0.90374 0.0
C323 C 0.221 0.19433 0.89225 0.0
C324 C 0.21387 0.2119 0.89709 0.0
C325 C 0.19718 0.21746 0.88417 0.0
C326 C 0.19576 0.20064 0.87049 0.0
C327 C 0.20995 0.18719 0.87502 0.0
C328 C 0.20252 0.23618 0.87386 0.0
C329 C 0.17939 0.21885 0.89641 0.0
C330 C 0.22989 0.12717 0.83969 0.0
C331 C 0.22228 0.11787 0.82312 0.0
C332 C 0.20548 0.12479 0.81408 0.0
C333 C 0.19668 0.14104 0.82095 0.0
C334 C 0.20464 0.15054 0.83717 0.0
C335 C 0.22079 0.14343 0.84651 0.0
C336 C 0.22663 0.15514 0.86401 0.0
C337 C 0.2118 0.17085 0.8631 0.0
C338 C 0.19905 0.168 0.84726 0.0
C339 C 0.24701 0.1631 0.86155 0.0
C340 C 0.2247 0.1424 0.88187 0.0
H341 H 0.16366 0.23416 0.86434 0.0
H342 H 0.13755 0.1985 0.80751 0.0
H343 H 0.14446 0.16711 0.83896 0.0
H344 H 0.16224 0.15102 0.83321 0.0
H345 H 0.14746 0.16144 0.81432 0.0
H346 H 0.18329 0.19837 0.80463 0.0
H347 H 0.1679 0.17967 0.79518 0.0
H348 H 0.1913 0.17481 0.80556 0.0
H349 H 0.21616 0.23654 0.91565 0.0
H350 H 0.2551 0.1907 0.92818 0.0
H351 H 0.2418 0.1728 0.90096 0.0
H352 H 0.21755 0.23586 0.86946 0.0
H353 H 0.20111 0.2487 0.88338 0.0
H354 H 0.19389 0.23853 0.86055 0.0
H355 H 0.18023 0.20873 0.90863 0.0
H356 H 0.16601 0.21482 0.88839 0.0
H357 H 0.17801 0.23341 0.90238 0.0
H358 H 0.13636 0.24639 0.84605 0.0
C359 C 0.15844 0.22603 0.85219 0.0
C360 C 0.84968 0.16271 0.84823 0.0
C361 C 0.8551 0.15531 0.83074 0.0
C362 C 0.87026 0.16408 0.82137 0.0
C363 C 0.87426 0.18747 0.84697 0.0
C364 C 0.85941 0.17865 0.85606 0.0
C365 C 0.85541 0.18802 0.87468 0.0
H366 H 0.87394 0.25723 0.94036 0.0
C367 C 0.88123 0.20377 0.8591 0.0
C368 C 0.8702 0.20403 0.87535 0.0
H369 H 0.83209 0.21157 0.94122 0.0
H370 H 0.84223 0.1999 0.91104 0.0
H371 H 0.86752 0.26713 0.89504 0.0
H372 H 0.90805 0.23127 0.92522 0.0
H373 H 0.92021 0.24362 0.90755 0.0
H374 H 0.9096 0.25681 0.92637 0.0
H375 H 0.88671 0.27662 0.91014 0.0
H376 H 0.88993 0.27102 0.88539 0.0
C377 C 0.83479 0.19571 0.87311 0.0
C378 C 0.85911 0.17329 0.89089 0.0
C379 C 0.93523 0.24729 0.8379 0.0
C380 C 0.9443 0.26352 0.84615 0.0
C381 C 0.9386 0.27005 0.86398 0.0
C382 C 0.92398 0.26065 0.87346 0.0
C383 C 0.91488 0.24453 0.86502 0.0
C384 C 0.92061 0.23803 0.84756 0.0
C385 C 0.90931 0.22067 0.84079 0.0
C386 C 0.89581 0.21787 0.85698 0.0
C387 C 0.89914 0.23194 0.87115 0.0
C388 C 0.89849 0.22568 0.82177 0.0
C389 C 0.9232 0.20386 0.83931 0.0
C390 C 0.86709 0.24472 0.93392 0.0
C391 C 0.85225 0.23519 0.94306 0.0
C392 C 0.84356 0.21902 0.93437 0.0
C393 C 0.84949 0.21229 0.91685 0.0
C394 C 0.86434 0.22183 0.9078 0.0
C395 C 0.87295 0.23772 0.91633 0.0
C396 C 0.88862 0.24578 0.90453 0.0
C397 C 0.8879 0.23212 0.88758 0.0
C398 C 0.87359 0.2182 0.88963 0.0
C399 C 0.88311 0.26627 0.89848 0.0
C400 C 0.90767 0.24449 0.91646 0.0
H401 H 0.89127 0.18626 0.8216 0.0
H402 H 0.83811 0.15613 0.8557 0.0
H403 H 0.87056 0.16326 0.88728 0.0
H404 H 0.86434 0.17994 0.90448 0.0
H405 H 0.84609 0.16465 0.89343 0.0
H406 H 0.8312 0.20092 0.8584 0.0
H407 H 0.82421 0.1844 0.87642 0.0
H408 H 0.83269 0.20815 0.8824 0.0
H409 H 0.93937 0.24205 0.82417 0.0
H410 H 0.94541 0.28256 0.87049 0.0
H411 H 0.92025 0.26638 0.88696 0.0
H412 H 0.89278 0.24038 0.82231 0.0
H413 H 0.90808 0.22502 0.8096 0.0
H414 H 0.88595 0.21636 0.81863 0.0
H415 H 0.93421 0.20432 0.85124 0.0
H416 H 0.91608 0.18982 0.84051 0.0
H417 H 0.93071 0.20444 0.8257 0.0
H418 H 0.8746 0.15848 0.80786 0.0
C419 C 0.87986 0.18015 0.82938 0.0
C420 C 0.83731 0.8394 0.87992 0.0
C421 C 0.82112 0.84621 0.88837 0.0
C422 C 0.81361 0.8639 0.88246 0.0
C423 C 0.83925 0.86796 0.8604 0.0
C424 C 0.84619 0.85046 0.86625 0.0
C425 C 0.86421 0.84535 0.85699 0.0
H426 H 0.9426 0.87374 0.81478 0.0
C427 C 0.85272 0.87611 0.84663 0.0
C428 C 0.86738 0.8629 0.84482 0.0
H429 H 0.92747 0.81772 0.83533 0.0
H430 H 0.89587 0.82764 0.83893 0.0
H431 H 0.91744 0.90255 0.8422 0.0
H432 H 0.90427 0.8737 0.78874 0.0
H433 H 0.89063 0.89448 0.78887 0.0
H434 H 0.91636 0.89639 0.78955 0.0
H435 H 0.92996 0.90646 0.82067 0.0
H436 H 0.90803 0.91838 0.82446 0.0
C437 C 0.8799 0.84309 0.87311 0.0
C438 C 0.8603 0.82713 0.84471 0.0
C439 C 0.84071 0.9406 0.81497 0.0
C440 C 0.85087 0.95147 0.80183 0.0
C441 C 0.86863 0.94492 0.79613 0.0
C442 C 0.8762 0.92779 0.80342 0.0
C443 C 0.86583 0.91699 0.81643 0.0
C444 C 0.84835 0.92341 0.82196 0.0
C445 C 0.83922 0.90985 0.83567 0.0
C446 C 0.85354 0.89379 0.83662 0.0
C447 C 0.86935 0.89823 0.82561 0.0
C448 C 0.83803 0.92012 0.85513 0.0
C449 C 0.81968 0.90316 0.82681 0.0
C450 C 0.93324 0.86401 0.82185 0.0
C451 C 0.93937 0.84591 0.82889 0.0
C452 C 0.92469 0.83268 0.83313 0.0
C453 C 0.90591 0.8383 0.8348 0.0
C454 C 0.90113 0.85728 0.83154 0.0
C455 C 0.91409 0.86943 0.82359 0.0
C456 C 0.90463 0.88777 0.81706 0.0
C457 C 0.88473 0.88521 0.82484 0.0
C458 C 0.88316 0.86738 0.83365 0.0
C459 C 0.91558 0.9048 0.82651 0.0
C460 C 0.90399 0.88829 0.79493 0.0
H461 H 0.81633 0.8882 0.86445 0.0
H462 H 0.84322 0.8258 0.88425 0.0
H463 H 0.84479 0.82401 0.84228 0.0
H464 H 0.86577 0.82864 0.83017 0.0
H465 H 0.86671 0.81437 0.85168 0.0
H466 H 0.88011 0.85558 0.88291 0.0
H467 H 0.87725 0.8301 0.8817 0.0
H468 H 0.89441 0.8421 0.86796 0.0
H469 H 0.82702 0.94534 0.81953 0.0
H470 H 0.87664 0.95312 0.78604 0.0
H471 H 0.88985 0.92359 0.79871 0.0
H472 H 0.85072 0.92954 0.85802 0.0
H473 H 0.82516 0.92913 0.85536 0.0
H474 H 0.83801 0.91016 0.86731 0.0
H475 H 0.82089 0.89957 0.81145 0.0
H476 H 0.81418 0.89014 0.83359 0.0
H477 H 0.80891 0.91452 0.82781 0.0
H478 H 0.80101 0.8693 0.88886 0.0
C479 C 0.82258 0.87481 0.86841 0.0
C480 C 0.22624 0.65597 0.71402 0.0
C481 C 0.23872 0.64315 0.70611 0.0
C482 C 0.24521 0.64663 0.68764 0.0
C483 C 0.22584 0.67515 0.68508 0.0
C484 C 0.21995 0.67166 0.70336 0.0
C485 C 0.20609 0.68601 0.70987 0.0
H486 H 0.13792 0.74778 0.68689 0.0
C487 C 0.21553 0.69221 0.67768 0.0
C488 C 0.20389 0.69841 0.69221 0.0
H489 H 0.15498 0.72654 0.74287 0.0
H490 H 0.18306 0.71289 0.73019 0.0
H491 H 0.15094 0.71352 0.65898 0.0
H492 H 0.17988 0.76377 0.6808 0.0
H493 H 0.19173 0.75777 0.6601 0.0
H494 H 0.16684 0.764 0.65826 0.0
H495 H 0.14444 0.73767 0.65352 0.0
H496 H 0.16218 0.72584 0.64034 0.0
C497 C 0.18737 0.67519 0.71427 0.0
C498 C 0.21545 0.69706 0.72717 0.0
C499 C 0.2265 0.71977 0.61141 0.0
C500 C 0.21802 0.73494 0.6011 0.0
C501 C 0.20232 0.74415 0.60863 0.0
C502 C 0.19558 0.73889 0.62645 0.0
C503 C 0.20453 0.72415 0.63689 0.0
C504 C 0.21952 0.7146 0.62925 0.0
C505 C 0.22677 0.69889 0.64232 0.0
C506 C 0.21479 0.70173 0.65965 0.0
C507 C 0.20161 0.71643 0.6562 0.0
C508 C 0.22225 0.67958 0.63231 0.0
C509 C 0.24822 0.7024 0.64717 0.0
C510 C 0.14779 0.74016 0.69632 0.0
C511 C 0.14388 0.73736 0.71571 0.0
C512 C 0.15746 0.7283 0.72781 0.0
C513 C 0.17367 0.72031 0.72042 0.0
C514 C 0.17649 0.72161 0.70076 0.0
C515 C 0.16452 0.73257 0.68929 0.0
C516 C 0.17198 0.73496 0.66953 0.0
C517 C 0.18918 0.72189 0.67067 0.0
C518 C 0.19116 0.71365 0.68883 0.0
C519 C 0.15659 0.7277 0.65469 0.0
C520 C 0.17785 0.75619 0.66689 0.0
H521 H 0.24421 0.66464 0.6631 0.0
H522 H 0.22128 0.65365 0.72827 0.0
H523 H 0.23119 0.69523 0.72838 0.0
H524 H 0.21352 0.71267 0.72584 0.0
H525 H 0.20967 0.69213 0.74085 0.0
H526 H 0.18298 0.66544 0.70229 0.0
H527 H 0.1893 0.66647 0.72743 0.0
H528 H 0.17519 0.68456 0.71624 0.0
H529 H 0.23843 0.7123 0.60579 0.0
H530 H 0.1955 0.75568 0.60079 0.0
H531 H 0.18366 0.7465 0.63148 0.0
H532 H 0.20823 0.67997 0.62425 0.0
H533 H 0.23327 0.67612 0.62201 0.0
H534 H 0.22093 0.66769 0.64248 0.0
H535 H 0.25097 0.71761 0.65101 0.0
H536 H 0.25353 0.69398 0.65954 0.0
H537 H 0.25687 0.69898 0.63476 0.0
H538 H 0.25504 0.63691 0.68141 0.0
C539 C 0.23884 0.66263 0.67707 0.0
C540 C 0.85713 0.6467 0.72674 0.0
C541 C 0.84552 0.63165 0.71927 0.0
C542 C 0.83724 0.63348 0.70064 0.0
C543 C 0.85186 0.66482 0.69737 0.0
C544 C 0.8605 0.66284 0.71538 0.0
C545 C 0.87428 0.67903 0.72011 0.0
H546 H 0.92184 0.75815 0.69088 0.0
C547 C 0.85855 0.68307 0.68914 0.0
C548 C 0.87203 0.6913 0.70225 0.0
H549 H 0.92958 0.72791 0.74422 0.0
H550 H 0.90295 0.70694 0.73552 0.0
H551 H 0.87654 0.75958 0.69275 0.0
H552 H 0.91306 0.72207 0.66325 0.0
H553 H 0.89428 0.72908 0.64729 0.0
H554 H 0.91019 0.7469 0.65777 0.0
H555 H 0.8852 0.76566 0.66984 0.0
H556 H 0.86326 0.75224 0.67217 0.0
C557 C 0.86748 0.68947 0.73798 0.0
C558 C 0.89454 0.67063 0.7226 0.0
C559 C 0.82834 0.70753 0.62634 0.0
C560 C 0.83119 0.72437 0.61589 0.0
C561 C 0.84566 0.73733 0.6221 0.0
C562 C 0.85701 0.73379 0.63864 0.0
C563 C 0.85383 0.71712 0.64923 0.0
C564 C 0.83977 0.70424 0.643 0.0
C565 C 0.83853 0.68733 0.6562 0.0
C566 C 0.85351 0.69268 0.67177 0.0
C567 C 0.86255 0.71006 0.66747 0.0
C568 C 0.81824 0.68648 0.66392 0.0
C569 C 0.84402 0.66924 0.6451 0.0
C570 C 0.91758 0.74714 0.70071 0.0
C571 C 0.92781 0.74457 0.71821 0.0
C572 C 0.92186 0.73011 0.73068 0.0
C573 C 0.90652 0.71785 0.72552 0.0
C574 C 0.89693 0.72 0.70764 0.0
C575 C 0.9021 0.73483 0.69582 0.0
C576 C 0.88957 0.73547 0.67782 0.0
C577 C 0.87688 0.71793 0.68027 0.0
C578 C 0.88136 0.7088 0.69771 0.0
C579 C 0.87809 0.7542 0.67796 0.0
C580 C 0.90234 0.73339 0.66052 0.0
H581 H 0.83331 0.65053 0.67581 0.0
H582 H 0.86391 0.64564 0.74088 0.0
H583 H 0.89632 0.65856 0.71255 0.0
H584 H 0.90595 0.6809 0.71925 0.0
H585 H 0.89726 0.66514 0.73733 0.0
H586 H 0.85166 0.69052 0.7374 0.0
H587 H 0.8718 0.68171 0.75126 0.0
H588 H 0.87283 0.70432 0.73908 0.0
H589 H 0.81727 0.69738 0.62179 0.0
H590 H 0.84801 0.75035 0.61418 0.0
H591 H 0.86775 0.74424 0.64261 0.0
H592 H 0.81402 0.70082 0.66889 0.0
H593 H 0.80763 0.68173 0.65261 0.0
H594 H 0.81708 0.6769 0.67629 0.0
H595 H 0.85323 0.6728 0.63304 0.0
H596 H 0.85259 0.65928 0.65409 0.0
H597 H 0.83117 0.6616 0.63901 0.0
H598 H 0.82842 0.62205 0.69448 0.0
C599 C 0.84015 0.65 0.68979 0.0
C600 C 0.91558 0.35557 0.70666 0.0
C601 C 0.92645 0.3403 0.70034 0.0
C602 C 0.9202 0.33013 0.68389 0.0
C603 C 0.89246 0.35025 0.6802 0.0
C604 C 0.89862 0.36026 0.69638 0.0
C605 C 0.88504 0.37586 0.70109 0.0
H606 H 0.80226 0.42271 0.68194 0.0
C607 C 0.87425 0.35854 0.67292 0.0
C608 C 0.86977 0.37356 0.68507 0.0
H609 H 0.84453 0.43273 0.72765 0.0
H610 H 0.86384 0.40755 0.71584 0.0
H611 H 0.8041 0.37524 0.68259 0.0
H612 H 0.8339 0.41643 0.64842 0.0
H613 H 0.82519 0.39743 0.63392 0.0
H614 H 0.80859 0.41251 0.64544 0.0
H615 H 0.7918 0.39024 0.66544 0.0
H616 H 0.80272 0.36848 0.65828 0.0
C617 C 0.87713 0.37144 0.72093 0.0
C618 C 0.89587 0.39521 0.69989 0.0
C619 C 0.84164 0.33003 0.61331 0.0
C620 C 0.82499 0.33426 0.60248 0.0
C621 C 0.81355 0.34937 0.60834 0.0
C622 C 0.8187 0.36008 0.62488 0.0
C623 C 0.83554 0.35569 0.63561 0.0
C624 C 0.84665 0.34086 0.62962 0.0
C625 C 0.86416 0.33818 0.64231 0.0
C626 C 0.86191 0.35379 0.65697 0.0
C627 C 0.84509 0.36408 0.65318 0.0
C628 C 0.86295 0.31803 0.65134 0.0
C629 C 0.88184 0.34173 0.6302 0.0
C630 C 0.81571 0.41938 0.68927 0.0
C631 C 0.82197 0.42966 0.70576 0.0
C632 C 0.83952 0.42501 0.71495 0.0
C633 C 0.85068 0.41035 0.70807 0.0
C634 C 0.84432 0.40007 0.69172 0.0
C635 C 0.82718 0.40469 0.68245 0.0
C636 C 0.82311 0.39228 0.66502 0.0
C637 C 0.84041 0.37933 0.66562 0.0
C638 C 0.85275 0.38403 0.6814 0.0
C639 C 0.80438 0.38097 0.6678 0.0
C640 C 0.82251 0.40524 0.64717 0.0
H641 H 0.89937 0.32666 0.66137 0.0
H642 H 0.92013 0.36353 0.71934 0.0
H643 H 0.90636 0.39493 0.68845 0.0
H644 H 0.88639 0.40716 0.69599 0.0
H645 H 0.90383 0.3986 0.71355 0.0
H646 H 0.87498 0.35582 0.72283 0.0
H647 H 0.88714 0.37652 0.73262 0.0
H648 H 0.86296 0.37759 0.72287 0.0
H649 H 0.85069 0.31854 0.60904 0.0
H650 H 0.80064 0.35284 0.6001 0.0
H651 H 0.80943 0.37137 0.62868 0.0
H652 H 0.8479 0.31386 0.65381 0.0
H653 H 0.86885 0.30709 0.64188 0.0
H654 H 0.87027 0.31721 0.6656 0.0
H655 H 0.87893 0.35282 0.61914 0.0
H656 H 0.89434 0.34731 0.63869 0.0
H657 H 0.88589 0.32854 0.62271 0.0
H658 H 0.92843 0.31832 0.6789 0.0
C659 C 0.90332 0.33502 0.67378 0.0
C660 C 0.23434 0.43764 0.71735 0.0
C661 C 0.23157 0.45048 0.73233 0.0
C662 C 0.21647 0.44697 0.74456 0.0
C663 C 0.20703 0.41842 0.72661 0.0
C664 C 0.22211 0.42171 0.7149 0.0
C665 C 0.22353 0.40643 0.7 0.0
H666 H 0.19003 0.32434 0.65905 0.0
C667 C 0.19696 0.40063 0.72005 0.0
C668 C 0.20681 0.39349 0.70456 0.0
H669 H 0.2385 0.35845 0.64341 0.0
H670 H 0.23283 0.38085 0.6688 0.0
H671 H 0.19794 0.32677 0.70396 0.0
H672 H 0.16258 0.35962 0.66514 0.0
H673 H 0.14959 0.35631 0.6857 0.0
H674 H 0.1564 0.33582 0.67216 0.0
H675 H 0.17546 0.31794 0.69416 0.0
H676 H 0.17717 0.33166 0.716 0.0
C677 C 0.24291 0.39638 0.70345 0.0
C678 C 0.22074 0.41582 0.68008 0.0
C679 C 0.13518 0.37778 0.74991 0.0
C680 C 0.12318 0.36176 0.74616 0.0
C681 C 0.12838 0.34834 0.73249 0.0
C682 C 0.14493 0.35086 0.72235 0.0
C683 C 0.15659 0.36705 0.7258 0.0
C684 C 0.1519 0.38007 0.73961 0.0
C685 C 0.16658 0.39605 0.74155 0.0
C686 C 0.18032 0.39081 0.72616 0.0
C687 C 0.17424 0.3738 0.71699 0.0
C688 C 0.17621 0.39508 0.76183 0.0
C689 C 0.15651 0.41509 0.7371 0.0
C690 C 0.19938 0.33665 0.66123 0.0
C691 C 0.21472 0.33977 0.6494 0.0
C692 C 0.22662 0.3559 0.65246 0.0
C693 C 0.22328 0.36882 0.6672 0.0
C694 C 0.20783 0.3656 0.67898 0.0
C695 C 0.19618 0.34974 0.67585 0.0
C696 C 0.18028 0.34876 0.68952 0.0
C697 C 0.18438 0.36654 0.70151 0.0
C698 C 0.20052 0.37635 0.69529 0.0
C699 C 0.18262 0.3303 0.70151 0.0
C700 C 0.16114 0.35005 0.67766 0.0
H701 H 0.19282 0.42935 0.75139 0.0
H702 H 0.24582 0.43996 0.70775 0.0
H703 H 0.21002 0.42734 0.68037 0.0
H704 H 0.21509 0.4058 0.66899 0.0
H705 H 0.23429 0.42227 0.67538 0.0
H706 H 0.24689 0.39558 0.71898 0.0
H707 H 0.25453 0.40423 0.69643 0.0
H708 H 0.24259 0.38142 0.69854 0.0
H709 H 0.1315 0.38829 0.76039 0.0
H710 H 0.11934 0.33595 0.72944 0.0
H711 H 0.14787 0.34015 0.71203 0.0
H712 H 0.17768 0.38003 0.76662 0.0
H713 H 0.16767 0.40261 0.77238 0.0
H714 H 0.19089 0.40097 0.76246 0.0
H715 H 0.1469 0.41364 0.7241 0.0
H716 H 0.16654 0.42683 0.73411 0.0
H717 H 0.14771 0.41942 0.74912 0.0
H718 H 0.21408 0.45671 0.75619 0.0
C719 C 0.20416 0.43111 0.74174 0.0
C720 C 0.23314 0.33298 0.43402 0.0
C721 C 0.23007 0.31774 0.44665 0.0
C722 C 0.21462 0.30511 0.44269 0.0
C723 C 0.20574 0.32262 0.41374 0.0
C724 C 0.22088 0.33511 0.41768 0.0
C725 C 0.22242 0.35017 0.40244 0.0
H726 H 0.18886 0.38812 0.31818 0.0
C727 C 0.19596 0.32854 0.39543 0.0
C728 C 0.20576 0.34474 0.38876 0.0
H729 H 0.23747 0.40748 0.3531 0.0
H730 H 0.23165 0.38249 0.37627 0.0
H731 H 0.16109 0.38052 0.35271 0.0
H732 H 0.19771 0.34489 0.32126 0.0
H733 H 0.17764 0.33071 0.32571 0.0
H734 H 0.17482 0.35219 0.31175 0.0
H735 H 0.15526 0.37275 0.32874 0.0
H736 H 0.1487 0.35883 0.34914 0.0
C737 C 0.21964 0.36986 0.41178 0.0
C738 C 0.24183 0.34797 0.39309 0.0
C739 C 0.13709 0.29183 0.36788 0.0
C740 C 0.12542 0.29453 0.35119 0.0
C741 C 0.12984 0.30944 0.33868 0.0
C742 C 0.14545 0.32164 0.34263 0.0
C743 C 0.15692 0.31905 0.35937 0.0
C744 C 0.1528 0.30428 0.37166 0.0
C745 C 0.16683 0.30392 0.3887 0.0
C746 C 0.17981 0.32096 0.38464 0.0
C747 C 0.17381 0.32971 0.36741 0.0
C748 C 0.15565 0.30693 0.40696 0.0
C749 C 0.17766 0.28488 0.38827 0.0
C750 C 0.19811 0.38701 0.33092 0.0
C751 C 0.21353 0.39973 0.33398 0.0
C752 C 0.22544 0.39781 0.35059 0.0
C753 C 0.22205 0.38328 0.36394 0.0
C754 C 0.20663 0.37044 0.3606 0.0
C755 C 0.19498 0.37255 0.34428 0.0
C756 C 0.17948 0.35759 0.34273 0.0
C757 C 0.18365 0.34607 0.36074 0.0
C758 C 0.19953 0.3536 0.37128 0.0
C759 C 0.16005 0.3678 0.3432 0.0
C760 C 0.18234 0.34573 0.32439 0.0
H761 H 0.19097 0.29732 0.42419 0.0
H762 H 0.24502 0.3428 0.43666 0.0
H763 H 0.24543 0.33265 0.39167 0.0
H764 H 0.24182 0.35367 0.37842 0.0
H765 H 0.25351 0.35501 0.40184 0.0
H766 H 0.20817 0.3691 0.42222 0.0
H767 H 0.23293 0.37483 0.41956 0.0
H768 H 0.21507 0.38087 0.40139 0.0
H769 H 0.1339 0.2805 0.37778 0.0
H770 H 0.12098 0.31176 0.32585 0.0
H771 H 0.14786 0.33275 0.33249 0.0
H772 H 0.1445 0.31789 0.4045 0.0
H773 H 0.14841 0.29352 0.41126 0.0
H774 H 0.16471 0.3123 0.41913 0.0
H775 H 0.18069 0.28089 0.37335 0.0
H776 H 0.19175 0.28565 0.3959 0.0
H777 H 0.16912 0.2731 0.39437 0.0
H778 H 0.21208 0.29326 0.4522 0.0
C779 C 0.20244 0.30748 0.42639 0.0
C780 C 0.22144 0.60439 0.32553 0.0
C781 C 0.21182 0.59243 0.31215 0.0
C782 C 0.19282 0.59681 0.3063 0.0
C783 C 0.19424 0.62562 0.32578 0.0
C784 C 0.21233 0.62047 0.33239 0.0
C785 C 0.2203 0.63343 0.34782 0.0
H786 H 0.21085 0.70905 0.40569 0.0
C787 C 0.18953 0.6439 0.33525 0.0
C788 C 0.20479 0.64818 0.34837 0.0
H789 H 0.25528 0.66712 0.4074 0.0
H790 H 0.24088 0.65167 0.37943 0.0
H791 H 0.17264 0.68137 0.39195 0.0
H792 H 0.213 0.71685 0.36411 0.0
H793 H 0.19435 0.71338 0.34672 0.0
H794 H 0.18986 0.72545 0.36883 0.0
H795 H 0.17694 0.70652 0.39537 0.0
H796 H 0.16136 0.69813 0.37623 0.0
C797 C 0.22218 0.62172 0.36664 0.0
C798 C 0.23928 0.64224 0.34125 0.0
C799 C 0.12916 0.68211 0.31707 0.0
C800 C 0.12424 0.70125 0.32085 0.0
C801 C 0.13746 0.71268 0.33167 0.0
C802 C 0.15419 0.70505 0.33987 0.0
C803 C 0.15846 0.6859 0.33669 0.0
C804 C 0.14673 0.675 0.32453 0.0
C805 C 0.15578 0.65603 0.32027 0.0
C806 C 0.1743 0.65719 0.33265 0.0
C807 C 0.17518 0.67453 0.3428 0.0
C808 C 0.14251 0.63979 0.32674 0.0
C809 C 0.15957 0.65545 0.29874 0.0
C810 C 0.21718 0.69634 0.40011 0.0
C811 C 0.2339 0.68892 0.40892 0.0
C812 C 0.24222 0.67279 0.40099 0.0
C813 C 0.2338 0.66387 0.38478 0.0
C814 C 0.21694 0.67123 0.37625 0.0
C815 C 0.20909 0.68741 0.38368 0.0
C816 C 0.19213 0.69409 0.37167 0.0
C817 C 0.18994 0.67804 0.357 0.0
C818 C 0.2046 0.66487 0.35974 0.0
C819 C 0.17477 0.69514 0.38443 0.0
C820 C 0.19748 0.71345 0.36239 0.0
H821 H 0.16969 0.61611 0.30784 0.0
H822 H 0.23582 0.6012 0.33068 0.0
H823 H 0.23799 0.64625 0.32589 0.0
H824 H 0.24343 0.65552 0.34892 0.0
H825 H 0.25111 0.63195 0.34303 0.0
H826 H 0.21276 0.60881 0.36619 0.0
H827 H 0.23701 0.61682 0.36944 0.0
H828 H 0.21764 0.6298 0.37919 0.0
H829 H 0.11966 0.67301 0.30839 0.0
H830 H 0.13448 0.72754 0.33432 0.0
H831 H 0.16321 0.71438 0.34844 0.0
H832 H 0.1373 0.64289 0.34116 0.0
H833 H 0.12989 0.63814 0.31669 0.0
H834 H 0.14982 0.62601 0.32793 0.0
H835 H 0.16648 0.66899 0.29424 0.0
H836 H 0.16927 0.64398 0.29498 0.0
H837 H 0.146 0.6536 0.29011 0.0
H838 H 0.18495 0.58758 0.29626 0.0
C839 C 0.18406 0.61343 0.31289 0.0
C840 C 0.81189 0.6395 0.34829 0.0
C841 C 0.81448 0.62795 0.33227 0.0
C842 C 0.8297 0.63186 0.32044 0.0
C843 C 0.8394 0.6589 0.34025 0.0
C844 C 0.82448 0.65496 0.35194 0.0
C845 C 0.82363 0.66916 0.36798 0.0
H846 H 0.85658 0.75039 0.41123 0.0
C847 C 0.84961 0.67612 0.3477 0.0
C848 C 0.84045 0.68225 0.36393 0.0
H849 H 0.81031 0.71342 0.42731 0.0
H850 H 0.81644 0.69203 0.40137 0.0
H851 H 0.84849 0.74745 0.36461 0.0
H852 H 0.8858 0.71534 0.40288 0.0
H853 H 0.89788 0.7206 0.38203 0.0
H854 H 0.8907 0.73981 0.39713 0.0
H855 H 0.86888 0.75806 0.37713 0.0
H856 H 0.87112 0.74568 0.35486 0.0
C857 C 0.80435 0.67959 0.36568 0.0
C858 C 0.82672 0.65835 0.38713 0.0
C859 C 0.90658 0.70151 0.31292 0.0
C860 C 0.91896 0.71718 0.31597 0.0
C861 C 0.91634 0.72936 0.33161 0.0
C862 C 0.90146 0.72601 0.34403 0.0
C863 C 0.88907 0.71027 0.3408 0.0
C864 C 0.89186 0.69832 0.32546 0.0
C865 C 0.87747 0.68229 0.32411 0.0
C866 C 0.86562 0.68642 0.34119 0.0
C867 C 0.87235 0.70288 0.35095 0.0
C868 C 0.86573 0.68432 0.30494 0.0
C869 C 0.88831 0.66327 0.32646 0.0
C870 C 0.84787 0.73764 0.40904 0.0
C871 C 0.83289 0.73349 0.42117 0.0
C872 C 0.82187 0.71679 0.41808 0.0
C873 C 0.82545 0.70445 0.403 0.0
C874 C 0.84026 0.70879 0.39079 0.0
C875 C 0.85139 0.72501 0.39402 0.0
C876 C 0.8669 0.72681 0.37983 0.0
C877 C 0.86292 0.70928 0.36736 0.0
C878 C 0.84719 0.69889 0.37385 0.0
C879 C 0.86388 0.74552 0.3685 0.0
C880 C 0.88642 0.72573 0.39092 0.0
H881 H 0.85346 0.64946 0.31472 0.0
H882 H 0.80024 0.6367 0.35756 0.0
H883 H 0.83635 0.64605 0.38553 0.0
H884 H 0.83385 0.66723 0.39844 0.0
H885 H 0.81302 0.6527 0.39229 0.0
H886 H 0.8005 0.68219 0.35033 0.0
H887 H 0.79264 0.67097 0.37166 0.0
H888 H 0.80467 0.69385 0.37234 0.0
H889 H 0.90832 0.69199 0.30096 0.0
H890 H 0.92578 0.74155 0.33409 0.0
H891 H 0.90011 0.73583 0.35563 0.0
H892 H 0.86425 0.69956 0.30081 0.0
H893 H 0.8727 0.67692 0.29315 0.0
H894 H 0.85091 0.67896 0.30569 0.0
H895 H 0.90069 0.66487 0.33686 0.0
H896 H 0.87952 0.65167 0.33232 0.0
H897 H 0.89387 0.65855 0.31267 0.0
H898 H 0.83185 0.62299 0.30807 0.0
C899 C 0.84219 0.64722 0.32434 0.0
C900 C 0.83884 0.32658 0.3999 0.0
C901 C 0.82193 0.33397 0.40682 0.0
C902 C 0.81474 0.3511 0.39923 0.0
C903 C 0.84089 0.35312 0.37776 0.0
C904 C 0.84808 0.33638 0.38539 0.0
C905 C 0.86615 0.33057 0.37617 0.0
H906 H 0.93104 0.34901 0.30952 0.0
C907 C 0.85325 0.35928 0.3623 0.0
C908 C 0.86799 0.346 0.36108 0.0
H909 H 0.93338 0.30494 0.3524 0.0
H910 H 0.90272 0.31403 0.36254 0.0
H911 H 0.91506 0.3835 0.33793 0.0
H912 H 0.89125 0.34374 0.29633 0.0
H913 H 0.87508 0.36266 0.29654 0.0
H914 H 0.89918 0.367 0.28938 0.0
H915 H 0.92129 0.38195 0.31338 0.0
H916 H 0.90127 0.39534 0.31992 0.0
C917 C 0.88264 0.33158 0.39155 0.0
C918 C 0.86294 0.31062 0.36711 0.0
C919 C 0.84202 0.4225 0.32797 0.0
C920 C 0.85102 0.43153 0.31253 0.0
C921 C 0.8621 0.4196 0.30114 0.0
C922 C 0.86753 0.40142 0.30726 0.0
C923 C 0.86118 0.39438 0.32453 0.0
C924 C 0.8475 0.40415 0.33383 0.0
C925 C 0.83959 0.39253 0.34985 0.0
C926 C 0.85222 0.37504 0.34958 0.0
C927 C 0.8651 0.37653 0.33494 0.0
C928 C 0.84269 0.40397 0.36865 0.0
C929 C 0.8184 0.38754 0.34458 0.0
C930 C 0.9262 0.34225 0.32227 0.0
C931 C 0.93724 0.32865 0.33254 0.0
C932 C 0.92735 0.31766 0.34613 0.0
C933 C 0.90904 0.32263 0.35178 0.0
C934 C 0.89989 0.33837 0.34331 0.0
C935 C 0.90835 0.34752 0.32843 0.0
C936 C 0.89676 0.36379 0.3206 0.0
C937 C 0.88019 0.3634 0.33381 0.0
C938 C 0.88185 0.34832 0.34695 0.0
C939 C 0.90914 0.38219 0.32299 0.0
C940 C 0.89027 0.35921 0.29961 0.0
H941 H 0.81795 0.37368 0.37948 0.0
H942 H 0.84461 0.31342 0.4056 0.0
H943 H 0.84854 0.30951 0.35985 0.0
H944 H 0.87311 0.30754 0.35599 0.0
H945 H 0.86396 0.29928 0.37816 0.0
H946 H 0.8812 0.34424 0.40093 0.0
H947 H 0.88265 0.3187 0.40077 0.0
H948 H 0.89677 0.33327 0.38546 0.0
H949 H 0.83086 0.42937 0.33543 0.0
H950 H 0.86654 0.42368 0.28721 0.0
H951 H 0.87655 0.3935 0.29831 0.0
H952 H 0.85754 0.40973 0.37002 0.0
H953 H 0.83283 0.41619 0.36896 0.0
H954 H 0.84067 0.39521 0.38149 0.0
H955 H 0.8152 0.38841 0.32891 0.0
H956 H 0.81461 0.37269 0.34838 0.0
H957 H 0.80864 0.39743 0.35158 0.0
H958 H 0.80175 0.35694 0.40445 0.0
C959 C 0.82411 0.36071 0.38472 0.0
C960 C 0.71065 0.23345 0.60387 0.0
C961 C 0.72518 0.22686 0.59261 0.0
C962 C 0.73616 0.21128 0.59904 0.0
C963 C 0.71841 0.20944 0.628 0.0
C964 C 0.70758 0.22463 0.62143 0.0
C965 C 0.69298 0.2303 0.63525 0.0
H966 H 0.65094 0.21913 0.71939 0.0
C967 C 0.71164 0.20384 0.64703 0.0
C968 C 0.69675 0.21609 0.65125 0.0
H969 H 0.63877 0.26017 0.67477 0.0
H970 H 0.6632 0.247 0.65592 0.0
H971 H 0.65663 0.18258 0.6906 0.0
H972 H 0.69724 0.22209 0.71741 0.0
H973 H 0.70669 0.19905 0.7191 0.0
H974 H 0.68498 0.20426 0.73077 0.0
H975 H 0.66208 0.18259 0.71589 0.0
H976 H 0.67639 0.16973 0.69963 0.0
C977 C 0.67296 0.22725 0.62532 0.0
C978 C 0.69758 0.25109 0.64175 0.0
C979 C 0.74287 0.14913 0.68439 0.0
C980 C 0.73976 0.14116 0.70244 0.0
C981 C 0.72525 0.14857 0.7134 0.0
C982 C 0.71399 0.16373 0.70659 0.0
C983 C 0.71726 0.1717 0.68859 0.0
C984 C 0.73151 0.16437 0.67779 0.0
C985 C 0.73304 0.17479 0.65909 0.0
C986 C 0.71742 0.18949 0.66041 0.0
C987 C 0.70818 0.18763 0.67777 0.0
C988 C 0.72867 0.16041 0.64266 0.0
C989 C 0.75309 0.18425 0.65882 0.0
C990 C 0.65366 0.22512 0.70552 0.0
C991 C 0.64302 0.24067 0.69841 0.0
C992 C 0.64684 0.24822 0.6804 0.0
C993 C 0.66105 0.24051 0.66951 0.0
C994 C 0.6717 0.22505 0.67667 0.0
C995 C 0.66797 0.21754 0.69438 0.0
C996 C 0.68098 0.20115 0.69951 0.0
C997 C 0.69304 0.20014 0.68197 0.0
C998 C 0.68744 0.21423 0.66872 0.0
C999 C 0.66849 0.183 0.70168 0.0
C1000 C 0.69309 0.20673 0.71772 0.0
H1001 H 0.74175 0.19078 0.62085 0.0
H1002 H 0.70202 0.24539 0.59919 0.0
H1003 H 0.71319 0.25413 0.64199 0.0
H1004 H 0.6935 0.254 0.65651 0.0
H1005 H 0.69056 0.26154 0.63194 0.0
H1006 H 0.67282 0.21486 0.6154 0.0
H1007 H 0.6686 0.23996 0.61683 0.0
H1008 H 0.66181 0.22378 0.63545 0.0
H1009 H 0.75398 0.14371 0.67573 0.0
H1010 H 0.72268 0.1426 0.72732 0.0
H1011 H 0.70319 0.16872 0.71565 0.0
H1012 H 0.71683 0.15053 0.64627 0.0
H1013 H 0.74134 0.15166 0.63998 0.0
H1014 H 0.72382 0.16733 0.62921 0.0
H1015 H 0.75756 0.18989 0.6732 0.0
H1016 H 0.75361 0.19667 0.6492 0.0
H1017 H 0.76393 0.17383 0.65465 0.0
H1018 H 0.74741 0.20601 0.59045 0.0
C1019 C 0.73286 0.20252 0.61667 0.0
C1020 C 0.36258 0.15443 0.73812 0.0
C1021 C 0.34616 0.14447 0.73131 0.0
C1022 C 0.33574 0.15161 0.71525 0.0
C1023 C 0.35855 0.17782 0.7126 0.0
C1024 C 0.36864 0.17076 0.72842 0.0
C1025 C 0.38674 0.18188 0.73285 0.0
H1026 H 0.44676 0.25515 0.71456 0.0
C1027 C 0.36915 0.19475 0.70556 0.0
C1028 C 0.38573 0.19703 0.71737 0.0
H1029 H 0.45365 0.21059 0.75669 0.0
H1030 H 0.42338 0.19668 0.74633 0.0
H1031 H 0.40027 0.26135 0.71876 0.0
H1032 H 0.4315 0.22655 0.68046 0.0
H1033 H 0.4127 0.23745 0.66733 0.0
H1034 H 0.43129 0.25208 0.67865 0.0
H1035 H 0.41471 0.27143 0.70069 0.0
H1036 H 0.39041 0.26388 0.69535 0.0
C1037 C 0.38546 0.19063 0.75306 0.0
C1038 C 0.40381 0.16833 0.7306 0.0
C1039 C 0.3422 0.23313 0.64884 0.0
C1040 C 0.3486 0.24956 0.63939 0.0
C1041 C 0.36607 0.25812 0.64563 0.0
C1042 C 0.37696 0.25053 0.66112 0.0
C1043 C 0.37036 0.23414 0.67055 0.0
C1044 C 0.35326 0.22568 0.66429 0.0
C1045 C 0.34849 0.20832 0.67593 0.0
C1046 C 0.36538 0.20782 0.6903 0.0
C1047 C 0.37823 0.223 0.68711 0.0
C1048 C 0.32955 0.21197 0.68571 0.0
C1049 C 0.34789 0.19074 0.66253 0.0
C1050 C 0.44159 0.24243 0.72151 0.0
C1051 C 0.4525 0.23399 0.7366 0.0
C1052 C 0.44546 0.21735 0.74517 0.0
C1053 C 0.42788 0.20927 0.73906 0.0
C1054 C 0.41718 0.21769 0.72393 0.0
C1055 C 0.42409 0.23391 0.71528 0.0
C1056 C 0.411 0.24023 0.69882 0.0
C1057 C 0.3951 0.2252 0.69915 0.0
C1058 C 0.39881 0.21218 0.71406 0.0
C1059 C 0.40373 0.26034 0.70345 0.0
C1060 C 0.42211 0.2392 0.68027 0.0
H1061 H 0.33329 0.1729 0.69373 0.0
H1062 H 0.37093 0.14916 0.75033 0.0
H1063 H 0.40006 0.15639 0.7206 0.0
H1064 H 0.41615 0.17552 0.72425 0.0
H1065 H 0.40848 0.16195 0.7445 0.0
H1066 H 0.37088 0.19606 0.75515 0.0
H1067 H 0.38859 0.17982 0.7643 0.0
H1068 H 0.39507 0.20305 0.75555 0.0
H1069 H 0.32879 0.22632 0.64436 0.0
H1070 H 0.37118 0.27083 0.63861 0.0
H1071 H 0.39007 0.25777 0.66523 0.0
H1072 H 0.32926 0.22682 0.69128 0.0
H1073 H 0.31713 0.21001 0.67547 0.0
H1074 H 0.32752 0.20273 0.69821 0.0
H1075 H 0.35875 0.19215 0.6515 0.0
H1076 H 0.35142 0.17737 0.6701 0.0
H1077 H 0.33371 0.18908 0.65498 0.0
H1078 H 0.32304 0.14412 0.70977 0.0
C1079 C 0.34177 0.16826 0.70593 0.0
C1080 C 0.40329 0.83906 0.72801 0.0
C1081 C 0.4117 0.82228 0.72142 0.0
C1082 C 0.40154 0.81063 0.70811 0.0
C1083 C 0.37613 0.83352 0.7059 0.0
C1084 C 0.38535 0.84438 0.72005 0.0
C1085 C 0.37401 0.86187 0.72464 0.0
H1086 H 0.3003 0.92063 0.69941 0.0
C1087 C 0.35926 0.84394 0.69859 0.0
C1088 C 0.35767 0.86055 0.70953 0.0
H1089 H 0.33864 0.92492 0.74914 0.0
H1090 H 0.35447 0.89602 0.73986 0.0
H1091 H 0.29351 0.87241 0.69914 0.0
H1092 H 0.3311 0.91174 0.67168 0.0
H1093 H 0.32883 0.89171 0.65665 0.0
H1094 H 0.30807 0.90568 0.66118 0.0
H1095 H 0.28607 0.89119 0.68314 0.0
H1096 H 0.29308 0.86859 0.67405 0.0
C1097 C 0.36686 0.85965 0.74511 0.0
C1098 C 0.38669 0.87977 0.7219 0.0
C1099 C 0.32731 0.8213 0.63643 0.0
C1100 C 0.3166 0.83086 0.62214 0.0
C1101 C 0.30921 0.84894 0.62624 0.0
C1102 C 0.31287 0.85748 0.64422 0.0
C1103 C 0.32465 0.84819 0.65795 0.0
C1104 C 0.33185 0.83051 0.65375 0.0
C1105 C 0.34688 0.82426 0.66819 0.0
C1106 C 0.34721 0.84087 0.68207 0.0
C1107 C 0.33377 0.85457 0.67639 0.0
C1108 C 0.33971 0.80569 0.67762 0.0
C1109 C 0.366 0.82233 0.65792 0.0
C1110 C 0.31186 0.91505 0.70841 0.0
C1111 C 0.31816 0.92478 0.72511 0.0
C1112 C 0.33353 0.91747 0.73632 0.0
C1113 C 0.34268 0.90076 0.7309 0.0
C1114 C 0.33646 0.8913 0.71401 0.0
C1115 C 0.32122 0.89842 0.70311 0.0
C1116 C 0.31709 0.88692 0.68522 0.0
C1117 C 0.33137 0.87097 0.68791 0.0
C1118 C 0.34301 0.87378 0.7046 0.0
C1119 C 0.2963 0.87936 0.68526 0.0
C1120 C 0.32134 0.89959 0.66771 0.0
H1121 H 0.37692 0.80669 0.69012 0.0
H1122 H 0.41075 0.84798 0.73861 0.0
H1123 H 0.3938 0.879 0.70805 0.0
H1124 H 0.37854 0.89309 0.72155 0.0
H1125 H 0.39798 0.88096 0.73348 0.0
H1126 H 0.36458 0.84438 0.74877 0.0
H1127 H 0.37733 0.86575 0.75589 0.0
H1128 H 0.35284 0.86627 0.74678 0.0
H1129 H 0.33349 0.80759 0.63352 0.0
H1130 H 0.30103 0.85663 0.61535 0.0
H1131 H 0.30699 0.87127 0.64652 0.0
H1132 H 0.32422 0.80649 0.68021 0.0
H1133 H 0.34182 0.79316 0.6683 0.0
H1134 H 0.3467 0.8031 0.69182 0.0
H1135 H 0.36584 0.8301 0.64409 0.0
H1136 H 0.37829 0.82877 0.66611 0.0
H1137 H 0.3691 0.80719 0.65481 0.0
H1138 H 0.40768 0.79751 0.7032 0.0
C1139 C 0.38376 0.81606 0.70045 0.0
C1140 C 0.71601 0.93872 0.71118 0.0
C1141 C 0.70995 0.94776 0.72772 0.0
C1142 C 0.69423 0.94022 0.73709 0.0
C1143 C 0.69075 0.91485 0.71358 0.0
C1144 C 0.70625 0.92226 0.70443 0.0
C1145 C 0.71096 0.91051 0.6873 0.0
H1146 H 0.69184 0.83388 0.62983 0.0
C1147 C 0.68391 0.89757 0.70308 0.0
C1148 C 0.69572 0.89488 0.68768 0.0
H1149 H 0.73704 0.87587 0.62583 0.0
H1150 H 0.72587 0.89248 0.65334 0.0
H1151 H 0.69624 0.8291 0.67503 0.0
H1152 H 0.65799 0.86425 0.64096 0.0
H1153 H 0.645 0.85254 0.65853 0.0
H1154 H 0.65645 0.83867 0.64084 0.0
H1155 H 0.67611 0.81918 0.66156 0.0
H1156 H 0.67392 0.82839 0.6854 0.0
C1157 C 0.73128 0.90254 0.69083 0.0
C1158 C 0.70852 0.92322 0.66931 0.0
C1159 C 0.62609 0.86115 0.72589 0.0
C1160 C 0.61669 0.84429 0.71974 0.0
C1161 C 0.62347 0.83438 0.70395 0.0
C1162 C 0.63929 0.84127 0.69432 0.0
C1163 C 0.64856 0.8582 0.7006 0.0
C1164 C 0.642 0.86771 0.71627 0.0
C1165 C 0.65395 0.88507 0.7214 0.0
C1166 C 0.6686 0.88462 0.7061 0.0
C1167 C 0.66535 0.86894 0.69383 0.0
C1168 C 0.66318 0.88208 0.7417 0.0
C1169 C 0.64105 0.90275 0.7194 0.0
C1170 C 0.69916 0.84674 0.63489 0.0
C1171 C 0.7153 0.85367 0.62572 0.0
C1172 C 0.72458 0.87036 0.6327 0.0
C1173 C 0.71809 0.87992 0.6487 0.0
C1174 C 0.70214 0.87271 0.65795 0.0
C1175 C 0.69292 0.8564 0.65101 0.0
C1176 C 0.67648 0.85062 0.663 0.0
C1177 C 0.6773 0.86618 0.67817 0.0
C1178 C 0.69237 0.8791 0.67511 0.0
C1179 C 0.6807 0.83073 0.67167 0.0
C1180 C 0.65793 0.8514 0.65026 0.0
H1181 H 0.67268 0.91885 0.73788 0.0
H1182 H 0.72813 0.94428 0.70382 0.0
H1183 H 0.69606 0.93272 0.67042 0.0
H1184 H 0.70554 0.91495 0.65608 0.0
H1185 H 0.72133 0.93241 0.66753 0.0
H1186 H 0.7341 0.89918 0.70621 0.0
H1187 H 0.74232 0.91304 0.68661 0.0
H1188 H 0.7334 0.88895 0.68332 0.0
H1189 H 0.62119 0.86898 0.73802 0.0
H1190 H 0.61638 0.82135 0.69903 0.0
H1191 H 0.6437 0.83314 0.68236 0.0
H1192 H 0.66566 0.86671 0.74464 0.0
H1193 H 0.6539 0.88749 0.75287 0.0
H1194 H 0.67746 0.88886 0.74356 0.0
H1195 H 0.63099 0.90132 0.70673 0.0
H1196 H 0.6491 0.9161 0.71702 0.0
H1197 H 0.63243 0.90449 0.73218 0.0
H1198 H 0.68943 0.94707 0.74984 0.0
C1199 C 0.68458 0.92386 0.7301 0.0
C1200 C 0.69894 0.81214 0.42118 0.0
C1201 C 0.69278 0.79634 0.43164 0.0
C1202 C 0.67676 0.78569 0.42471 0.0
C1203 C 0.6734 0.80659 0.39705 0.0
C1204 C 0.68906 0.81702 0.40408 0.0
C1205 C 0.69365 0.83366 0.39151 0.0
H1206 H 0.67463 0.88703 0.31263 0.0
C1207 C 0.66642 0.81564 0.3789 0.0
C1208 C 0.67824 0.83156 0.3757 0.0
H1209 H 0.71957 0.89485 0.35616 0.0
H1210 H 0.70845 0.86718 0.37297 0.0
H1211 H 0.64095 0.87532 0.34196 0.0
H1212 H 0.67853 0.84069 0.30987 0.0
H1213 H 0.65547 0.83052 0.30801 0.0
H1214 H 0.65955 0.85404 0.29853 0.0
H1215 H 0.63881 0.8735 0.31638 0.0
H1216 H 0.62765 0.85626 0.33151 0.0
C1217 C 0.69141 0.85219 0.40325 0.0
C1218 C 0.71386 0.83075 0.38401 0.0
C1219 C 0.60895 0.78728 0.341 0.0
C1220 C 0.59904 0.79276 0.32403 0.0
C1221 C 0.60545 0.80895 0.31416 0.0
C1222 C 0.62142 0.81962 0.32108 0.0
C1223 C 0.63112 0.81415 0.33817 0.0
C1224 C 0.62486 0.79816 0.3478 0.0
C1225 C 0.6367 0.79467 0.36591 0.0
C1226 C 0.65112 0.81106 0.36554 0.0
C1227 C 0.6478 0.8225 0.34923 0.0
C1228 C 0.62359 0.79625 0.38302 0.0
C1229 C 0.64634 0.77509 0.36413 0.0
C1230 C 0.68193 0.88269 0.32582 0.0
C1231 C 0.69801 0.89307 0.33316 0.0
C1232 C 0.7072 0.88706 0.35031 0.0
C1233 C 0.70071 0.87095 0.36002 0.0
C1234 C 0.68477 0.86057 0.35255 0.0
C1235 C 0.67563 0.86644 0.33572 0.0
C1236 C 0.65904 0.85335 0.32997 0.0
C1237 C 0.65976 0.83877 0.34614 0.0
C1238 C 0.67488 0.84319 0.35931 0.0
C1239 C 0.64057 0.86512 0.32977 0.0
C1240 C 0.66316 0.84418 0.31052 0.0
H1241 H 0.65499 0.78202 0.40287 0.0
H1242 H 0.71115 0.8206 0.42631 0.0
H1243 H 0.71657 0.81536 0.3816 0.0
H1244 H 0.71581 0.83751 0.37 0.0
H1245 H 0.72506 0.83618 0.3944 0.0
H1246 H 0.67983 0.85057 0.4135 0.0
H1247 H 0.70476 0.85585 0.41165 0.0
H1248 H 0.68715 0.86452 0.39433 0.0
H1249 H 0.60417 0.77502 0.34896 0.0
H1250 H 0.59791 0.81345 0.30114 0.0
H1251 H 0.62549 0.83184 0.31293 0.0
H1252 H 0.61271 0.80745 0.38039 0.0
H1253 H 0.61589 0.78258 0.38545 0.0
H1254 H 0.63137 0.80064 0.39638 0.0
H1255 H 0.6514 0.77304 0.34946 0.0
H1256 H 0.65914 0.77364 0.3737 0.0
H1257 H 0.63618 0.76326 0.36703 0.0
H1258 H 0.67181 0.7735 0.43268 0.0
C1259 C 0.66706 0.79069 0.40744 0.0
C1260 C 0.70274 0.10421 0.3102 0.0
C1261 C 0.69267 0.09387 0.29574 0.0
C1262 C 0.67516 0.10086 0.28829 0.0
C1263 C 0.67758 0.1277 0.31034 0.0
C1264 C 0.69501 0.12102 0.31723 0.0
C1265 C 0.70409 0.13382 0.33242 0.0
H1266 H 0.69504 0.20333 0.39754 0.0
C1267 C 0.67337 0.14527 0.32116 0.0
C1268 C 0.68887 0.14889 0.33412 0.0
H1269 H 0.74499 0.17119 0.38537 0.0
H1270 H 0.72874 0.15708 0.35863 0.0
H1271 H 0.65984 0.17185 0.38525 0.0
H1272 H 0.69025 0.21463 0.3539 0.0
H1273 H 0.66678 0.21335 0.34415 0.0
H1274 H 0.67106 0.22081 0.36868 0.0
H1275 H 0.65961 0.19691 0.39062 0.0
H1276 H 0.6438 0.18688 0.37232 0.0
C1277 C 0.70687 0.12199 0.35095 0.0
C1278 C 0.7229 0.14227 0.32492 0.0
C1279 C 0.60999 0.17867 0.30873 0.0
C1280 C 0.60199 0.19512 0.31639 0.0
C1281 C 0.61238 0.20515 0.33101 0.0
C1282 C 0.63031 0.19884 0.338 0.0
C1283 C 0.63812 0.18238 0.3302 0.0
C1284 C 0.62806 0.17274 0.31564 0.0
C1285 C 0.63889 0.15598 0.30854 0.0
C1286 C 0.65716 0.15726 0.32101 0.0
C1287 C 0.65656 0.1726 0.33395 0.0
C1288 C 0.6272 0.13764 0.31257 0.0
C1289 C 0.64267 0.15928 0.28717 0.0
C1290 C 0.70211 0.19207 0.39023 0.0
C1291 C 0.72028 0.18532 0.39691 0.0
C1292 C 0.72997 0.17399 0.38371 0.0
C1293 C 0.72066 0.16618 0.36738 0.0
C1294 C 0.70161 0.17057 0.36299 0.0
C1295 C 0.69301 0.18433 0.37351 0.0
C1296 C 0.67394 0.18982 0.36429 0.0
C1297 C 0.67206 0.17587 0.34752 0.0
C1298 C 0.68829 0.16443 0.34715 0.0
C1299 C 0.65837 0.18629 0.37884 0.0
C1300 C 0.6754 0.21077 0.35747 0.0
H1301 H 0.65406 0.12217 0.28941 0.0
H1302 H 0.7164 0.09926 0.31589 0.0
H1303 H 0.72352 0.14092 0.30914 0.0
H1304 H 0.72436 0.1578 0.32773 0.0
H1305 H 0.73557 0.13496 0.33135 0.0
H1306 H 0.69331 0.11462 0.35439 0.0
H1307 H 0.71787 0.11096 0.34928 0.0
H1308 H 0.71123 0.13069 0.36352 0.0
H1309 H 0.60235 0.1707 0.29749 0.0
H1310 H 0.60649 0.21784 0.33713 0.0
H1311 H 0.63739 0.20698 0.34925 0.0
H1312 H 0.62052 0.13862 0.32663 0.0
H1313 H 0.61559 0.13538 0.30146 0.0
H1314 H 0.636 0.12475 0.31353 0.0
H1315 H 0.6453 0.17466 0.28427 0.0
H1316 H 0.65559 0.15207 0.28261 0.0
H1317 H 0.63026 0.15454 0.27787 0.0
H1318 H 0.66731 0.09313 0.27702 0.0
C1319 C 0.66753 0.11767 0.29555 0.0
C1320 C 0.29998 0.12367 0.35258 0.0
C1321 C 0.30852 0.11171 0.33946 0.0
C1322 C 0.32695 0.11647 0.33353 0.0
C1323 C 0.32811 0.14435 0.35417 0.0
C1324 C 0.31021 0.13939 0.36018 0.0
C1325 C 0.30443 0.15135 0.37666 0.0
H1326 H 0.32605 0.21909 0.44297 0.0
C1327 C 0.33516 0.16098 0.36567 0.0
C1328 C 0.32149 0.16478 0.37915 0.0
H1329 H 0.27645 0.18202 0.4383 0.0
H1330 H 0.28748 0.16855 0.40912 0.0
H1331 H 0.32511 0.23002 0.39863 0.0
H1332 H 0.35744 0.18813 0.43047 0.0
H1333 H 0.37286 0.20074 0.41561 0.0
H1334 H 0.36066 0.2134 0.43364 0.0
H1335 H 0.34644 0.23637 0.41234 0.0
H1336 H 0.34711 0.22848 0.38783 0.0
C1337 C 0.28611 0.16212 0.37034 0.0
C1338 C 0.30226 0.13808 0.39422 0.0
C1339 C 0.3964 0.19625 0.34931 0.0
C1340 C 0.40573 0.21254 0.35712 0.0
C1341 C 0.39834 0.22142 0.37315 0.0
C1342 C 0.38178 0.21431 0.38127 0.0
C1343 C 0.37244 0.19813 0.37327 0.0
C1344 C 0.37977 0.18932 0.35757 0.0
C1345 C 0.36792 0.17219 0.35113 0.0
C1346 C 0.35182 0.17276 0.36496 0.0
C1347 C 0.35471 0.18785 0.37805 0.0
C1348 C 0.36062 0.17545 0.33026 0.0
C1349 C 0.3802 0.15415 0.35396 0.0
C1350 C 0.31771 0.20804 0.43556 0.0
C1351 C 0.30052 0.20133 0.44285 0.0
C1352 C 0.28978 0.18718 0.43287 0.0
C1353 C 0.29627 0.17937 0.41601 0.0
C1354 C 0.31376 0.18572 0.4091 0.0
C1355 C 0.32403 0.20005 0.41863 0.0
C1356 C 0.342 0.2053 0.40871 0.0
C1357 C 0.34127 0.19105 0.39229 0.0
C1358 C 0.32469 0.17968 0.39266 0.0
C1359 C 0.34027 0.22614 0.40157 0.0
C1360 C 0.35924 0.20186 0.42278 0.0
H1361 H 0.35063 0.13575 0.33558 0.0
H1362 H 0.286 0.12018 0.35767 0.0
H1363 H 0.31088 0.12497 0.39311 0.0
H1364 H 0.30761 0.14476 0.40776 0.0
H1365 H 0.28718 0.13346 0.39562 0.0
H1366 H 0.28704 0.16744 0.35544 0.0
H1367 H 0.27334 0.15262 0.37076 0.0
H1368 H 0.28378 0.17491 0.37908 0.0
H1369 H 0.4019 0.18918 0.33701 0.0
H1370 H 0.4054 0.23396 0.37932 0.0
H1371 H 0.37686 0.22171 0.39346 0.0
H1372 H 0.35444 0.1899 0.32863 0.0
H1373 H 0.37246 0.17435 0.32032 0.0
H1374 H 0.34926 0.16526 0.32554 0.0
H1375 H 0.39116 0.1561 0.3658 0.0
H1376 H 0.37169 0.14157 0.35819 0.0
H1377 H 0.38778 0.15072 0.34084 0.0
H1378 H 0.3339 0.10735 0.32357 0.0
C1379 C 0.33667 0.13286 0.34061 0.0
C1380 C 0.32796 0.82298 0.39563 0.0
C1381 C 0.31044 0.82808 0.40311 0.0
C1382 C 0.29923 0.84187 0.39354 0.0
C1383 C 0.32274 0.84507 0.36928 0.0
C1384 C 0.33374 0.83149 0.37865 0.0
C1385 C 0.35152 0.82713 0.36819 0.0
H1386 H 0.40037 0.83647 0.2869 0.0
C1387 C 0.33229 0.85055 0.35163 0.0
C1388 C 0.34903 0.83985 0.3507 0.0
H1389 H 0.41847 0.80647 0.33817 0.0
H1390 H 0.38963 0.81592 0.35341 0.0
H1391 H 0.39299 0.87209 0.30893 0.0
H1392 H 0.35396 0.8291 0.28675 0.0
H1393 H 0.34433 0.85159 0.28107 0.0
H1394 H 0.36718 0.84535 0.27239 0.0
H1395 H 0.38317 0.87323 0.28493 0.0
H1396 H 0.37155 0.88412 0.30459 0.0
C1397 C 0.36909 0.83323 0.38102 0.0
C1398 C 0.35105 0.80575 0.36283 0.0
C1399 C 0.30469 0.90284 0.30885 0.0
C1400 C 0.31058 0.91083 0.29167 0.0
C1401 C 0.32607 0.90304 0.28253 0.0
C1402 C 0.33593 0.88761 0.29065 0.0
C1403 C 0.33033 0.88008 0.30818 0.0
C1404 C 0.31479 0.88752 0.31688 0.0
C1405 C 0.31084 0.87753 0.33534 0.0
C1406 C 0.32719 0.86355 0.33677 0.0
C1407 C 0.33842 0.86508 0.32077 0.0
C1408 C 0.31225 0.89243 0.35167 0.0
C1409 C 0.29116 0.86724 0.33296 0.0
C1410 C 0.39799 0.83172 0.30132 0.0
C1411 C 0.41148 0.8204 0.31119 0.0
C1412 C 0.40813 0.81498 0.33018 0.0
C1413 C 0.39146 0.82055 0.33901 0.0
C1414 C 0.37826 0.83216 0.32897 0.0
C1415 C 0.38199 0.83792 0.31062 0.0
C1416 C 0.3682 0.85251 0.30307 0.0
C1417 C 0.35489 0.8538 0.31944 0.0
C1418 C 0.36051 0.84159 0.33449 0.0
C1419 C 0.37943 0.87146 0.30007 0.0
C1420 C 0.35787 0.84438 0.28477 0.0
H1421 H 0.29617 0.86088 0.37013 0.0
H1422 H 0.33673 0.81227 0.40267 0.0
H1423 H 0.33683 0.80161 0.35634 0.0
H1424 H 0.36154 0.80208 0.35224 0.0
H1425 H 0.35375 0.79675 0.37569 0.0
H1426 H 0.36591 0.84592 0.3898 0.0
H1427 H 0.3735 0.82161 0.39095 0.0
H1428 H 0.38137 0.83768 0.37267 0.0
H1429 H 0.29271 0.90866 0.31601 0.0
H1430 H 0.33064 0.90907 0.26923 0.0
H1431 H 0.34764 0.88229 0.28304 0.0
H1432 H 0.32495 0.9019 0.35018 0.0
H1433 H 0.29943 0.90155 0.35137 0.0
H1434 H 0.31401 0.88595 0.36596 0.0
H1435 H 0.28744 0.86385 0.31772 0.0
H1436 H 0.29092 0.85327 0.34027 0.0
H1437 H 0.2796 0.8762 0.33828 0.0
H1438 H 0.28565 0.84583 0.399 0.0
C1439 C 0.30534 0.85047 0.37675 0.0
C1440 C 0.69904 0.63661 0.19747 0.0
C1441 C 0.71537 0.62648 0.19291 0.0
C1442 C 0.72489 0.63112 0.17629 0.0
C1443 C 0.70192 0.65574 0.1688 0.0
C1444 C 0.69261 0.65125 0.18522 0.0
C1445 C 0.67564 0.66378 0.18778 0.0
H1446 H 0.62004 0.73668 0.15565 0.0
C1447 C 0.6917 0.67153 0.15913 0.0
C1448 C 0.67629 0.67641 0.17014 0.0
H1449 H 0.61407 0.70276 0.20644 0.0
H1450 H 0.64163 0.68436 0.19882 0.0
H1451 H 0.62926 0.70116 0.12804 0.0
H1452 H 0.66668 0.74078 0.1591 0.0
H1453 H 0.67487 0.73805 0.13589 0.0
H1454 H 0.65164 0.74786 0.13902 0.0
H1455 H 0.63164 0.72566 0.12103 0.0
H1456 H 0.64778 0.70779 0.11322 0.0
C1457 C 0.6575 0.65093 0.18742 0.0
C1458 C 0.67924 0.67534 0.20647 0.0
C1459 C 0.71591 0.69669 0.09677 0.0
C1460 C 0.70981 0.71116 0.08426 0.0
C1461 C 0.69359 0.72173 0.08836 0.0
C1462 C 0.68359 0.71797 0.10493 0.0
C1463 C 0.68993 0.70348 0.11747 0.0
C1464 C 0.70581 0.69312 0.11319 0.0
C1465 C 0.71061 0.67831 0.12798 0.0
C1466 C 0.695 0.68137 0.14189 0.0
C1467 C 0.6829 0.69614 0.13576 0.0
C1468 C 0.70885 0.65847 0.11822 0.0
C1469 C 0.73068 0.68319 0.13705 0.0
C1470 C 0.6248 0.72529 0.16506 0.0
C1471 C 0.61506 0.72106 0.18166 0.0
C1472 C 0.62147 0.70615 0.19361 0.0
C1473 C 0.63745 0.69553 0.18914 0.0
C1474 C 0.64713 0.69984 0.1725 0.0
C1475 C 0.64074 0.71447 0.16073 0.0
C1476 C 0.65267 0.71678 0.14351 0.0
C1477 C 0.66734 0.70128 0.14697 0.0
C1478 C 0.66404 0.69143 0.16403 0.0
C1479 C 0.63976 0.7128 0.1254 0.0
C1480 C 0.66193 0.73694 0.14421 0.0
H1481 H 0.72617 0.64846 0.15176 0.0
H1482 H 0.69156 0.63323 0.21025 0.0
H1483 H 0.69455 0.67957 0.20841 0.0
H1484 H 0.67144 0.68888 0.20651 0.0
H1485 H 0.67544 0.66679 0.21912 0.0
H1486 H 0.65864 0.63904 0.17704 0.0
H1487 H 0.65534 0.64454 0.20168 0.0
H1488 H 0.64449 0.65853 0.18265 0.0
H1489 H 0.72838 0.68844 0.09386 0.0
H1490 H 0.68878 0.73297 0.0788 0.0
H1491 H 0.67139 0.72653 0.10737 0.0
H1492 H 0.6971 0.6582 0.10701 0.0
H1493 H 0.72222 0.65478 0.11125 0.0
H1494 H 0.70512 0.64692 0.12816 0.0
H1495 H 0.73339 0.69886 0.13727 0.0
H1496 H 0.73234 0.67886 0.15219 0.0
H1497 H 0.74208 0.67659 0.12889 0.0
H1498 H 0.73749 0.6234 0.17267 0.0
C1499 C 0.71827 0.64567 0.16421 0.0
C1500 C 0.32955 0.60826 0.19616 0.0
C1501 C 0.31279 0.60007 0.18765 0.0
C1502 C 0.30419 0.60876 0.17144 0.0
C1503 C 0.32844 0.63384 0.17268 0.0
C1504 C 0.33707 0.62518 0.18848 0.0
C1505 C 0.35438 0.63635 0.19602 0.0
H1506 H 0.41167 0.71538 0.19167 0.0
C1507 C 0.33936 0.65152 0.16859 0.0
C1508 C 0.35464 0.65312 0.1822 0.0
H1509 H 0.41645 0.66867 0.23152 0.0
H1510 H 0.38924 0.65273 0.21565 0.0
H1511 H 0.36508 0.71784 0.19038 0.0
H1512 H 0.40323 0.68866 0.15401 0.0
H1513 H 0.38502 0.69879 0.13946 0.0
H1514 H 0.40096 0.71411 0.15362 0.0
H1515 H 0.38095 0.73029 0.17513 0.0
H1516 H 0.35784 0.72186 0.16635 0.0
C1517 C 0.3507 0.64279 0.21665 0.0
C1518 C 0.37209 0.62367 0.19435 0.0
C1519 C 0.31628 0.69388 0.11352 0.0
C1520 C 0.32298 0.71121 0.10613 0.0
C1521 C 0.33962 0.71971 0.1146 0.0
C1522 C 0.34938 0.71117 0.13028 0.0
C1523 C 0.34245 0.69389 0.13766 0.0
C1524 C 0.32624 0.68548 0.12914 0.0
C1525 C 0.32094 0.66712 0.13873 0.0
C1526 C 0.33656 0.66584 0.15441 0.0
C1527 C 0.34913 0.6816 0.15387 0.0
C1528 C 0.30098 0.66952 0.14698 0.0
C1529 C 0.32215 0.6508 0.12393 0.0
C1530 C 0.40681 0.7017 0.19686 0.0
C1531 C 0.41612 0.69322 0.21287 0.0
C1532 C 0.40948 0.67539 0.21923 0.0
C1533 C 0.39365 0.66622 0.21001 0.0
C1534 C 0.38429 0.67492 0.19416 0.0
C1535 C 0.39103 0.69229 0.18771 0.0
C1536 C 0.37949 0.69922 0.17045 0.0
C1537 C 0.36459 0.68333 0.16775 0.0
C1538 C 0.3674 0.66913 0.18177 0.0
C1539 C 0.37039 0.71838 0.17566 0.0
C1540 C 0.39277 0.70044 0.15343 0.0
H1541 H 0.30456 0.63146 0.15159 0.0
H1542 H 0.33634 0.60187 0.20873 0.0
H1543 H 0.37087 0.61487 0.18113 0.0
H1544 H 0.38544 0.63203 0.19316 0.0
H1545 H 0.37367 0.6138 0.2067 0.0
H1546 H 0.33564 0.64724 0.2178 0.0
H1547 H 0.35336 0.63102 0.22698 0.0
H1548 H 0.35939 0.65534 0.22125 0.0
H1549 H 0.30346 0.68712 0.10736 0.0
H1550 H 0.34493 0.73314 0.10917 0.0
H1551 H 0.36187 0.71844 0.13615 0.0
H1552 H 0.29902 0.68438 0.15201 0.0
H1553 H 0.28945 0.66631 0.13602 0.0
H1554 H 0.29881 0.6606 0.1597 0.0
H1555 H 0.33391 0.65355 0.1141 0.0
H1556 H 0.32554 0.6369 0.13055 0.0
H1557 H 0.30869 0.64937 0.11505 0.0
H1558 H 0.29127 0.60266 0.16477 0.0
C1559 C 0.31193 0.62551 0.16388 0.0
C1560 C 0.41323 0.32081 0.21884 0.0
C1561 C 0.42215 0.30538 0.21017 0.0
C1562 C 0.41506 0.29906 0.19208 0.0
C1563 C 0.39069 0.3234 0.19155 0.0
C1564 C 0.39776 0.32971 0.20922 0.0
C1565 C 0.3873 0.34689 0.21599 0.0
H1566 H 0.31917 0.41356 0.19982 0.0
C1567 C 0.37476 0.336 0.18524 0.0
C1568 C 0.3729 0.34997 0.19943 0.0
H1569 H 0.35538 0.40621 0.25062 0.0
H1570 H 0.37083 0.37964 0.23589 0.0
H1571 H 0.30892 0.37026 0.19623 0.0
H1572 H 0.35091 0.40356 0.16745 0.0
H1573 H 0.33866 0.38884 0.15047 0.0
H1574 H 0.3257 0.40644 0.16318 0.0
H1575 H 0.30242 0.38629 0.17718 0.0
H1576 H 0.30888 0.36197 0.17262 0.0
C1577 C 0.37745 0.34144 0.23461 0.0
C1578 C 0.40176 0.36369 0.21822 0.0
C1579 C 0.33601 0.3215 0.1234 0.0
C1580 C 0.32046 0.3305 0.11399 0.0
C1581 C 0.31373 0.34761 0.12153 0.0
C1582 C 0.32209 0.35547 0.13842 0.0
C1583 C 0.33736 0.34611 0.14798 0.0
C1584 C 0.34424 0.32954 0.14027 0.0
C1585 C 0.36082 0.32178 0.15215 0.0
C1586 C 0.36229 0.33596 0.16861 0.0
C1587 C 0.3485 0.3502 0.16611 0.0
C1588 C 0.35529 0.30154 0.15896 0.0
C1589 C 0.37873 0.32251 0.14 0.0
C1590 C 0.33069 0.40642 0.20758 0.0
C1591 C 0.33627 0.41214 0.22631 0.0
C1592 C 0.351 0.40221 0.23613 0.0
C1593 C 0.35983 0.38669 0.22758 0.0
C1594 C 0.35367 0.38075 0.20908 0.0
C1595 C 0.33927 0.39056 0.19944 0.0
C1596 C 0.3334 0.38132 0.18062 0.0
C1597 C 0.34692 0.36459 0.1803 0.0
C1598 C 0.35891 0.3644 0.19694 0.0
C1599 C 0.31229 0.37468 0.1815 0.0
C1600 C 0.3372 0.39574 0.16448 0.0
H1601 H 0.39463 0.30235 0.16909 0.0
H1602 H 0.41849 0.32607 0.23266 0.0
H1603 H 0.4116 0.36387 0.2062 0.0
H1604 H 0.39493 0.37775 0.21783 0.0
H1605 H 0.41057 0.36247 0.23172 0.0
H1606 H 0.37271 0.32623 0.23431 0.0
H1607 H 0.38732 0.34345 0.24731 0.0
H1608 H 0.36432 0.34954 0.23663 0.0
H1609 H 0.34147 0.30836 0.11782 0.0
H1610 H 0.30176 0.35471 0.11447 0.0
H1611 H 0.3162 0.36845 0.14352 0.0
H1612 H 0.34045 0.30129 0.16393 0.0
H1613 H 0.35601 0.29102 0.14718 0.0
H1614 H 0.36431 0.29659 0.1712 0.0
H1615 H 0.37798 0.33443 0.12953 0.0
H1616 H 0.39201 0.32535 0.1487 0.0
H1617 H 0.38023 0.30909 0.13182 0.0
H1618 H 0.42179 0.28731 0.1851 0.0
C1619 C 0.39935 0.30788 0.1828 0.0
C1620 C 0.71233 0.42233 0.23237 0.0
C1621 C 0.70499 0.43272 0.24742 0.0
C1622 C 0.68853 0.42605 0.25613 0.0
C1623 C 0.68682 0.39881 0.2347 0.0
C1624 C 0.70306 0.40544 0.22627 0.0
C1625 C 0.70897 0.39259 0.21045 0.0
H1626 H 0.69289 0.31359 0.156 0.0
C1627 C 0.68063 0.38093 0.2249 0.0
C1628 C 0.69355 0.37719 0.2107 0.0
H1629 H 0.73886 0.35486 0.15313 0.0
H1630 H 0.72639 0.37251 0.17936 0.0
H1631 H 0.69361 0.31125 0.20275 0.0
H1632 H 0.65944 0.34424 0.16248 0.0
H1633 H 0.64452 0.33505 0.17987 0.0
H1634 H 0.65657 0.31887 0.16466 0.0
H1635 H 0.67559 0.30053 0.18704 0.0
H1636 H 0.66984 0.31059 0.20971 0.0
C1637 C 0.72895 0.3847 0.21608 0.0
C1638 C 0.70801 0.40413 0.19158 0.0
C1639 C 0.62116 0.34622 0.24582 0.0
C1640 C 0.61165 0.3295 0.23957 0.0
C1641 C 0.6188 0.31907 0.22435 0.0
C1642 C 0.63536 0.32523 0.21547 0.0
C1643 C 0.64484 0.34202 0.2219 0.0
C1644 C 0.63764 0.35219 0.23682 0.0
C1645 C 0.64941 0.36969 0.24179 0.0
C1646 C 0.66492 0.36837 0.22748 0.0
C1647 C 0.66225 0.35215 0.21582 0.0
C1648 C 0.65748 0.36761 0.26264 0.0
C1649 C 0.63673 0.38735 0.23819 0.0
C1650 C 0.7002 0.32642 0.16116 0.0
C1651 C 0.71682 0.33297 0.15262 0.0
C1652 C 0.72605 0.34967 0.15958 0.0
C1653 C 0.71875 0.35986 0.17477 0.0
C1654 C 0.70203 0.35328 0.18314 0.0
C1655 C 0.69307 0.33677 0.17639 0.0
C1656 C 0.67549 0.33196 0.18715 0.0
C1657 C 0.67538 0.34831 0.20141 0.0
C1658 C 0.69096 0.36076 0.19893 0.0
C1659 C 0.67859 0.31252 0.19714 0.0
C1660 C 0.65801 0.33239 0.17289 0.0
H1661 H 0.66687 0.40476 0.25703 0.0
H1662 H 0.72501 0.42728 0.2255 0.0
H1663 H 0.69567 0.41393 0.19117 0.0
H1664 H 0.70574 0.39507 0.17878 0.0
H1665 H 0.72114 0.41294 0.1901 0.0
H1666 H 0.73068 0.3826 0.2318 0.0
H1667 H 0.74044 0.39467 0.21181 0.0
H1668 H 0.73139 0.37049 0.20993 0.0
H1669 H 0.61587 0.35445 0.2575 0.0
H1670 H 0.61155 0.30613 0.2194 0.0
H1671 H 0.64015 0.3167 0.20396 0.0
H1672 H 0.66077 0.35247 0.26599 0.0
H1673 H 0.64705 0.37249 0.273 0.0
H1674 H 0.67113 0.37537 0.26535 0.0
H1675 H 0.62666 0.38504 0.22566 0.0
H1676 H 0.64498 0.40029 0.23462 0.0
H1677 H 0.62812 0.39038 0.25073 0.0
H1678 H 0.68275 0.43399 0.26775 0.0
C1679 C 0.67939 0.40912 0.24985 0.0
C1680 C 0.74166 0.33793 0.9425 0.0
C1681 C 0.73396 0.32212 0.952 0.0
C1682 C 0.71725 0.31322 0.9442 0.0
C1683 C 0.71616 0.33577 0.91784 0.0
C1684 C 0.73264 0.34439 0.92544 0.0
C1685 C 0.73931 0.36059 0.91317 0.0
H1686 H 0.72737 0.41506 0.83344 0.0
C1687 C 0.71052 0.34579 0.89984 0.0
C1688 C 0.72415 0.36027 0.89696 0.0
H1689 H 0.77198 0.41943 0.8777 0.0
H1690 H 0.75804 0.39295 0.89458 0.0
H1691 H 0.69258 0.40773 0.86258 0.0
H1692 H 0.72652 0.36934 0.8307 0.0
H1693 H 0.70295 0.36051 0.82952 0.0
H1694 H 0.7082 0.38353 0.81936 0.0
H1695 H 0.6907 0.40606 0.83699 0.0
H1696 H 0.67732 0.39032 0.85184 0.0
C1697 C 0.73882 0.3792 0.92504 0.0
C1698 C 0.75925 0.35562 0.90614 0.0
C1699 C 0.6493 0.32607 0.86251 0.0
C1700 C 0.64067 0.33228 0.84514 0.0
C1701 C 0.64983 0.34667 0.83475 0.0
C1702 C 0.66711 0.355 0.84164 0.0
C1703 C 0.67549 0.34884 0.85914 0.0
C1704 C 0.66672 0.3344 0.86912 0.0
C1705 C 0.67811 0.32916 0.88704 0.0
C1706 C 0.69484 0.34316 0.88645 0.0
C1707 C 0.69319 0.35477 0.87012 0.0
C1708 C 0.6657 0.33288 0.90433 0.0
C1709 C 0.68452 0.30821 0.88511 0.0
C1710 C 0.73404 0.41022 0.84677 0.0
C1711 C 0.75078 0.41922 0.85432 0.0
C1712 C 0.75911 0.41264 0.87169 0.0
C1713 C 0.75097 0.39728 0.88143 0.0
C1714 C 0.73424 0.38833 0.87378 0.0
C1715 C 0.72602 0.39486 0.85673 0.0
C1716 C 0.70819 0.38369 0.85087 0.0
C1717 C 0.70707 0.36939 0.86713 0.0
C1718 C 0.72241 0.37217 0.88051 0.0
C1719 C 0.69122 0.39757 0.85038 0.0
C1720 C 0.71143 0.3738 0.83154 0.0
H1721 H 0.69557 0.31262 0.9221 0.0
H1722 H 0.75456 0.34495 0.94815 0.0
H1723 H 0.76021 0.34009 0.90315 0.0
H1724 H 0.76246 0.36264 0.89253 0.0
H1725 H 0.77065 0.35937 0.91706 0.0
H1726 H 0.72639 0.37909 0.93435 0.0
H1727 H 0.75192 0.38091 0.9344 0.0
H1728 H 0.73702 0.39205 0.9161 0.0
H1729 H 0.6426 0.31498 0.87074 0.0
H1730 H 0.64342 0.35163 0.82133 0.0
H1731 H 0.67324 0.36597 0.8331 0.0
H1732 H 0.65801 0.34657 0.90252 0.0
H1733 H 0.65485 0.32135 0.90581 0.0
H1734 H 0.67412 0.33431 0.91794 0.0
H1735 H 0.68643 0.30438 0.86991 0.0
H1736 H 0.69856 0.30561 0.89233 0.0
H1737 H 0.6738 0.29813 0.89075 0.0
H1738 H 0.71116 0.30099 0.95128 0.0
C1739 C 0.70828 0.31999 0.92725 0.0
C1740 C 0.64456 0.69113 0.80762 0.0
C1741 C 0.63322 0.70678 0.8117 0.0
C1742 C 0.63837 0.71858 0.82738 0.0
C1743 C 0.66616 0.69925 0.83463 0.0
C1744 C 0.66091 0.68764 0.81927 0.0
C1745 C 0.67454 0.67156 0.81704 0.0
H1746 H 0.75511 0.62549 0.8446 0.0
C1747 C 0.68406 0.69178 0.84363 0.0
C1748 C 0.68902 0.67557 0.8334 0.0
H1749 H 0.71361 0.61129 0.79925 0.0
H1750 H 0.69497 0.63837 0.8072 0.0
H1751 H 0.75446 0.67284 0.83754 0.0
H1752 H 0.72273 0.6383 0.87683 0.0
H1753 H 0.73394 0.65815 0.88845 0.0
H1754 H 0.74834 0.63998 0.8785 0.0
H1755 H 0.76622 0.66018 0.8569 0.0
H1756 H 0.75544 0.68292 0.86067 0.0
C1757 C 0.68348 0.67378 0.7973 0.0
C1758 C 0.66345 0.65253 0.81985 0.0
C1759 C 0.71457 0.7268 0.90068 0.0
C1760 C 0.73149 0.72467 0.91181 0.0
C1761 C 0.74367 0.70953 0.90762 0.0
C1762 C 0.73884 0.6966 0.89261 0.0
C1763 C 0.72176 0.69897 0.88153 0.0
C1764 C 0.71007 0.71402 0.88571 0.0
C1765 C 0.6929 0.71515 0.87228 0.0
C1766 C 0.69587 0.69822 0.85939 0.0
C1767 C 0.71275 0.68854 0.86476 0.0
C1768 C 0.69399 0.73433 0.86132 0.0
C1769 C 0.67488 0.71252 0.88408 0.0
C1770 C 0.74196 0.62835 0.83653 0.0
C1771 C 0.73573 0.61631 0.82122 0.0
C1772 C 0.7186 0.62038 0.81101 0.0
C1773 C 0.70781 0.63615 0.81569 0.0
C1774 C 0.7141 0.64815 0.83083 0.0
C1775 C 0.73084 0.64422 0.84113 0.0
C1776 C 0.73488 0.65878 0.85688 0.0
C1777 C 0.71777 0.67192 0.85429 0.0
C1778 C 0.70582 0.66552 0.83884 0.0
C1779 C 0.75381 0.66925 0.85296 0.0
C1780 C 0.73511 0.64835 0.87627 0.0
H1781 H 0.65796 0.72445 0.85059 0.0
H1782 H 0.64076 0.68184 0.79566 0.0
H1783 H 0.65135 0.65443 0.82937 0.0
H1784 H 0.6723 0.64151 0.82704 0.0
H1785 H 0.65746 0.64683 0.80603 0.0
H1786 H 0.68593 0.68908 0.79388 0.0
H1787 H 0.67394 0.66763 0.78573 0.0
H1788 H 0.69767 0.66728 0.79671 0.0
H1789 H 0.7051 0.73846 0.90341 0.0
H1790 H 0.75691 0.70776 0.91594 0.0
H1791 H 0.74861 0.68534 0.8901 0.0
H1792 H 0.70905 0.73866 0.85916 0.0
H1793 H 0.68731 0.74597 0.86929 0.0
H1794 H 0.68734 0.73353 0.84674 0.0
H1795 H 0.67743 0.70204 0.8958 0.0
H1796 H 0.66251 0.70667 0.87559 0.0
H1797 H 0.67081 0.72618 0.89069 0.0
H1798 H 0.62967 0.73067 0.83068 0.0
C1799 C 0.65478 0.71491 0.83887 0.0
C1800 C 0.35273 0.64083 0.82585 0.0
C1801 C 0.3612 0.63226 0.81021 0.0
C1802 C 0.37857 0.63973 0.804 0.0
C1803 C 0.3787 0.6642 0.82858 0.0
C1804 C 0.36175 0.65669 0.83486 0.0
C1805 C 0.35489 0.66752 0.85181 0.0
H1806 H 0.36802 0.74143 0.91448 0.0
C1807 C 0.38435 0.68071 0.84091 0.0
C1808 C 0.37052 0.68266 0.8547 0.0
H1809 H 0.32178 0.70026 0.91214 0.0
H1810 H 0.33579 0.68421 0.88546 0.0
H1811 H 0.37078 0.74697 0.86832 0.0
H1812 H 0.40008 0.71261 0.91064 0.0
H1813 H 0.41693 0.7175 0.89349 0.0
H1814 H 0.40707 0.7369 0.90667 0.0
H1815 H 0.38648 0.75634 0.8871 0.0
H1816 H 0.39539 0.74882 0.8647 0.0
C1817 C 0.33542 0.67636 0.84602 0.0
C1818 C 0.35428 0.65369 0.86897 0.0
C1819 C 0.44385 0.72019 0.82723 0.0
C1820 C 0.45333 0.73534 0.83707 0.0
C1821 C 0.44596 0.74206 0.85413 0.0
C1822 C 0.42912 0.73425 0.861 0.0
C1823 C 0.41965 0.71928 0.85092 0.0
C1824 C 0.42725 0.7122 0.83456 0.0
C1825 C 0.41607 0.69519 0.82671 0.0
C1826 C 0.40014 0.69368 0.8407 0.0
C1827 C 0.4022 0.70804 0.85462 0.0
C1828 C 0.40834 0.70014 0.80631 0.0
C1829 C 0.42922 0.6776 0.82774 0.0
C1830 C 0.36094 0.72899 0.90811 0.0
C1831 C 0.34381 0.72211 0.91516 0.0
C1832 C 0.335 0.70577 0.90677 0.0
C1833 C 0.34316 0.69654 0.89133 0.0
C1834 C 0.36035 0.70367 0.8843 0.0
C1835 C 0.36895 0.71959 0.89284 0.0
C1836 C 0.38731 0.72507 0.88401 0.0
C1837 C 0.38824 0.71009 0.86848 0.0
C1838 C 0.37244 0.69754 0.86858 0.0
C1839 C 0.38507 0.7454 0.87564 0.0
C1840 C 0.40376 0.72309 0.89942 0.0
H1841 H 0.40046 0.66075 0.80752 0.0
H1842 H 0.33937 0.63531 0.83087 0.0
H1843 H 0.36668 0.64397 0.8692 0.0
H1844 H 0.35529 0.6611 0.88288 0.0
H1845 H 0.34109 0.64473 0.86815 0.0
H1846 H 0.33552 0.68211 0.83122 0.0
H1847 H 0.32375 0.66552 0.84644 0.0
H1848 H 0.33188 0.68855 0.85507 0.0
H1849 H 0.44945 0.7145 0.81428 0.0
H1850 H 0.45321 0.75351 0.86204 0.0
H1851 H 0.42414 0.74019 0.87392 0.0
H1852 H 0.4025 0.7148 0.80592 0.0
H1853 H 0.41984 0.69955 0.79596 0.0
H1854 H 0.39648 0.6907 0.80121 0.0
H1855 H 0.44028 0.67903 0.83956 0.0
H1856 H 0.42141 0.66427 0.83095 0.0
H1857 H 0.43673 0.67577 0.81426 0.0
H1858 H 0.38522 0.63333 0.79195 0.0
C1859 C 0.38733 0.65565 0.81305 0.0
C1860 C 0.37828 0.33096 0.91621 0.0
C1861 C 0.3629 0.33311 0.92815 0.0
C1862 C 0.35128 0.34921 0.92605 0.0
C1863 C 0.36987 0.36042 0.89981 0.0
C1864 C 0.38154 0.3448 0.90223 0.0
C1865 C 0.39722 0.34477 0.88827 0.0
H1866 H 0.44028 0.38564 0.81339 0.0
C1867 C 0.37674 0.37177 0.88361 0.0
C1868 C 0.39286 0.36275 0.87687 0.0
H1869 H 0.4569 0.33519 0.84476 0.0
H1870 H 0.43032 0.33873 0.86521 0.0
H1871 H 0.43023 0.41073 0.85026 0.0
H1872 H 0.39472 0.37609 0.81185 0.0
H1873 H 0.38235 0.39709 0.81638 0.0
H1874 H 0.40475 0.39855 0.80479 0.0
H1875 H 0.42444 0.41775 0.82608 0.0
H1876 H 0.409 0.42309 0.84521 0.0
C1877 C 0.41658 0.34637 0.89976 0.0
C1878 C 0.39478 0.3266 0.87578 0.0
C1879 C 0.34029 0.43047 0.86114 0.0
C1880 C 0.34292 0.44351 0.84626 0.0
C1881 C 0.35852 0.44142 0.83454 0.0
C1882 C 0.37133 0.42642 0.83748 0.0
C1883 C 0.36851 0.41333 0.85233 0.0
C1884 C 0.35321 0.41552 0.86389 0.0
C1885 C 0.35246 0.40027 0.87894 0.0
C1886 C 0.36975 0.38854 0.87449 0.0
C1887 C 0.37911 0.39623 0.85886 0.0
C1888 C 0.35477 0.40997 0.89881 0.0
C1889 C 0.33358 0.38881 0.87553 0.0
C1890 C 0.43806 0.37543 0.82469 0.0
C1891 C 0.45054 0.3601 0.82757 0.0
C1892 C 0.44738 0.34705 0.84238 0.0
C1893 C 0.43196 0.34917 0.85421 0.0
C1894 C 0.41952 0.36452 0.85122 0.0
C1895 C 0.42267 0.37736 0.83667 0.0
C1896 C 0.40796 0.3928 0.83572 0.0
C1897 C 0.39559 0.38721 0.85216 0.0
C1898 C 0.40242 0.37059 0.86114 0.0
C1899 C 0.41832 0.41219 0.83936 0.0
C1900 C 0.39686 0.39127 0.81616 0.0
H1901 H 0.34517 0.37471 0.91093 0.0
H1902 H 0.38738 0.31865 0.91761 0.0
H1903 H 0.37942 0.32353 0.87228 0.0
H1904 H 0.40135 0.32798 0.86183 0.0
H1905 H 0.40078 0.31398 0.88335 0.0
H1906 H 0.41526 0.35502 0.91294 0.0
H1907 H 0.4218 0.3321 0.90418 0.0
H1908 H 0.42771 0.35383 0.89182 0.0
H1909 H 0.3284 0.43187 0.87035 0.0
H1910 H 0.36073 0.45142 0.82305 0.0
H1911 H 0.3829 0.42557 0.82804 0.0
H1912 H 0.36418 0.42285 0.89828 0.0
H1913 H 0.34079 0.41455 0.90389 0.0
H1914 H 0.36178 0.40076 0.90972 0.0
H1915 H 0.3303 0.38672 0.85997 0.0
H1916 H 0.33413 0.3743 0.88156 0.0
H1917 H 0.32142 0.39642 0.8815 0.0
H1918 H 0.33934 0.35098 0.93514 0.0
C1919 C 0.35466 0.36287 0.91195 0.0
Cu1920 Cu 0.29835 0.26326 0.01878 0.0
N1921 N 0.32014 0.26517 1.00428 0.0
N1922 N 0.34002 0.27791 0.98359 0.0
C1923 C 0.32537 0.28105 0.99491 0.0
C1924 C 0.34449 0.25943 0.98608 0.0
C1925 C 0.33212 0.25156 0.99884 0.0
O1926 O 0.27626 0.25721 1.00128 0.0
C1927 C 0.28698 0.29089 0.04712 0.0
O1928 O 0.26953 0.28389 0.04551 0.0
H1929 H 0.31783 0.29438 0.99547 0.0
H1930 H 0.33122 0.23673 1.0029 0.0
N1931 N 0.29915 0.24303 0.03607 0.0
N1932 N 0.28903 0.22497 0.05989 0.0
C1933 C 0.28457 0.23877 0.04723 0.0
C1934 C 0.31339 0.23141 0.04187 0.0
C1935 C 0.30709 0.22008 0.05655 0.0
C1936 C 0.27545 0.26158 0.98359 0.0
O1937 O 0.28739 0.27445 0.97733 0.0
H1938 H 0.27107 0.24603 0.04646 0.0
H1939 H 0.32755 0.23164 0.03643 0.0
O1940 O 0.29921 0.28582 0.0353 0.0
H1941 H 0.35509 0.25194 0.97834 0.0
H1942 H 0.31532 0.20969 0.06467 0.0
Cu1943 Cu 0.7784 0.26378 0.05195 0.0
N1944 N 0.75853 0.2757 0.06644 0.0
N1945 N 0.74274 0.29123 0.0884 0.0
C1946 C 0.76007 0.28745 0.08171 0.0
C1947 C 0.72997 0.28166 0.07697 0.0
C1948 C 0.73976 0.27204 0.06348 0.0
O1949 O 0.78935 0.25127 0.07653 0.0
C1950 C 0.7712 0.29248 0.02164 0.0
O1951 O 0.78336 0.30304 0.03193 0.0
H1952 H 0.77347 0.29282 0.08798 0.0
H1953 H 0.73367 0.26275 0.05241 0.0
N1954 N 0.79726 0.25068 0.03711 0.0
N1955 N 0.81665 0.244 0.01374 0.0
C1956 C 0.80869 0.25795 0.02388 0.0
C1957 C 0.79834 0.23163 0.03548 0.0
C1958 C 0.81035 0.22746 0.0211 0.0
C1959 C 0.80651 0.25405 0.08278 0.0
O1960 O 0.81773 0.26558 0.07351 0.0
H1961 H 0.8103 0.27298 0.02104 0.0
H1962 H 0.79008 0.22151 0.04346 0.0
O1963 O 0.76697 0.27571 0.02725 0.0
H1964 H 0.71469 0.28145 0.07852 0.0
H1965 H 0.81335 0.21342 0.01566 0.0
Cu1966 Cu 0.76825 0.77804 0.99063 0.0
N1967 N 0.78509 0.78019 0.97093 0.0
N1968 N 0.79961 0.79405 0.9468 0.0
C1969 C 0.78559 0.79532 0.95917 0.0
C1970 C 0.80852 0.77756 0.95097 0.0
C1971 C 0.79949 0.76899 0.96596 0.0
O1972 O 0.74454 0.78994 0.98194 0.0
C1973 C 0.7851 0.80741 0.01588 0.0
O1974 O 0.78278 0.81939 1.00159 0.0
H1975 H 0.77616 0.80733 0.96 0.0
H1976 H 0.80337 0.75578 0.97294 0.0
N1977 N 0.76236 0.75337 0.99832 0.0
N1978 N 0.75047 0.73169 0.01797 0.0
C1979 C 0.75192 0.75031 0.01366 0.0
C1980 C 0.76782 0.73601 0.99264 0.0
C1981 C 0.76052 0.72251 1.0049 0.0
C1982 C 0.73352 0.7855 0.96752 0.0
O1983 O 0.71827 0.79576 0.96396 0.0
H1984 H 0.74595 0.76164 0.02191 0.0
H1985 H 0.77679 0.73338 0.98081 0.0
O1986 O 0.77975 0.79009 0.01373 0.0
H1987 H 0.82069 0.77223 0.94378 0.0
H1988 H 0.76272 0.70728 1.00453 0.0
Cu1989 Cu 0.27194 0.77373 1.01278 0.0
N1990 N 0.26648 0.79644 0.0255 0.0
N1991 N 0.25061 0.81325 0.04681 0.0
C1992 C 0.25999 0.797 0.04332 0.0
C1993 C 0.2513 0.82338 0.03049 0.0
C1994 C 0.26116 0.81309 0.01747 0.0
O1995 O 0.27542 0.75398 0.03261 0.0
C1996 C 0.25282 0.78155 0.97824 0.0
O1997 O 0.26814 0.79231 0.97691 0.0
H1998 H 0.26023 0.78487 0.05278 0.0
H1999 H 0.26272 0.81683 1.00267 0.0
N2000 N 0.29443 0.7739 0.99942 0.0
N2001 N 0.31437 0.76432 0.97757 0.0
C2002 C 0.29816 0.76046 0.98643 0.0
C2003 C 0.30887 0.78672 0.99881 0.0
C2004 C 0.32128 0.78079 0.98525 0.0
C2005 C 0.29037 0.75607 0.04364 0.0
O2006 O 0.30181 0.7707 0.04093 0.0
H2007 H 0.28881 0.7484 0.98308 0.0
H2008 H 0.30999 0.79967 1.0072 0.0
O2009 O 0.2512 0.77087 0.99294 0.0
H2010 H 0.24422 0.83678 0.0278 0.0
H2011 H 0.33403 0.78819 0.98098 0.0
Cu2012 Cu 0.03691 0.25906 0.28135 0.0
N2013 N 0.04722 0.25975 0.2572 0.0
N2014 N 0.0666 0.25382 0.23358 0.0
C2015 C 0.06398 0.25232 0.25247 0.0
C2016 C 0.05098 0.26247 0.22606 0.0
C2017 C 0.03901 0.26613 0.24072 0.0
O2018 O 0.0583 0.25674 0.30004 0.0
C2019 C 0.0161 0.22485 0.27099 0.0
O2020 O 0.03207 0.21904 0.26399 0.0
H2021 H 0.0738 0.24546 0.26254 0.0
H2022 H 0.02509 0.27253 0.23941 0.0
N2023 N 0.02572 0.28224 0.28686 0.0
N2024 N 1.00584 0.30251 0.29999 0.0
C2025 C 1.008 0.28475 0.29306 0.0
C2026 C 0.03495 0.29899 0.28979 0.0
C2027 C 0.02273 0.31152 0.29793 0.0
C2028 C 0.05698 0.25902 0.31797 0.0
O2029 O 0.04009 0.25818 0.32531 0.0
H2030 H 0.99737 0.27346 0.29373 0.0
H2031 H 0.0499 0.30147 0.28739 0.0
O2032 O 0.01618 0.24016 0.28077 0.0
H2033 H 0.04829 0.2655 0.21105 0.0
H2034 H 0.02618 0.32587 0.30277 0.0
Cu2035 Cu 0.75762 0.99826 0.26805 0.0
N2036 N 0.77864 0.01474 0.27301 0.0
N2037 N 0.79829 0.03958 0.26863 0.0
C2038 C 0.78477 0.02791 0.26056 0.0
C2039 C 0.80082 0.03364 0.28684 0.0
C2040 C 0.78863 0.01831 0.28953 0.0
O2041 O 0.7359 0.0153 0.26539 0.0
C2042 C 0.77921 0.97504 0.24588 0.0
O2043 O 0.79133 0.9783 0.26037 0.0
H2044 H 0.7788 0.02949 0.24615 0.0
H2045 H 0.78653 1.01099 0.30285 0.0
N2046 N 0.75328 0.9806 0.28769 0.0
N2047 N 0.73956 0.95649 0.30326 0.0
C2048 C 0.73704 0.97039 0.29006 0.0
C2049 C 0.76641 0.97277 0.29979 0.0
C2050 C 0.75798 0.95796 0.30943 0.0
C2051 C 0.7336 0.02584 0.27995 0.0
O2052 O 0.74433 0.02311 0.29551 0.0
H2053 H 0.72396 0.97241 0.28157 0.0
H2054 H 0.78135 0.97676 0.30072 0.0
O2055 O 0.76291 0.98292 0.24562 0.0
H2056 H 0.81021 0.04041 0.29757 0.0
H2057 H 0.76499 0.94848 0.31961 0.0
Cu2058 Cu 0.01406 0.75762 0.2577 0.0
N2059 N 1.003 0.78185 0.2533 0.0
N2060 N 0.98289 0.80171 0.23744 0.0
C2061 C 0.98562 0.78396 0.24447 0.0
C2062 C 0.99926 0.81128 0.24218 0.0
C2063 C 1.01149 0.79913 0.25209 0.0
O2064 O 0.99267 0.73976 0.26154 0.0
C2065 C 0.04338 0.76449 0.23387 0.0
O2066 O 0.04764 0.77648 0.24783 0.0
H2067 H 0.97569 0.77225 0.2419 0.0
H2068 H 0.02598 0.80247 0.2569 0.0
N2069 N 0.03069 0.75442 0.27963 0.0
N2070 N 0.05408 0.73978 0.29705 0.0
C2071 C 0.04868 0.74749 0.27993 0.0
C2072 C 0.0248 0.75122 0.29739 0.0
C2073 C 0.03893 0.74209 0.30796 0.0
C2074 C 0.98032 0.74521 0.27319 0.0
O2075 O 0.98201 0.76227 0.28081 0.0
H2076 H 0.05714 0.74668 0.26747 0.0
H2077 H 1.01059 0.75373 0.30198 0.0
O2078 O 0.0289 0.75338 0.23507 0.0
H2079 H 1.00246 0.82581 0.23807 0.0
H2080 H 0.03783 0.73676 0.32237 0.0
Cu2081 Cu 0.24554 1.00885 0.27355 0.0
N2082 N 0.25429 0.01992 0.29683 0.0
N2083 N 0.26998 0.04189 0.31496 0.0
C2084 C 0.25744 0.03872 0.30005 0.0
C2085 C 0.27456 0.02448 0.32167 0.0
C2086 C 0.26486 1.01103 0.31057 0.0
O2087 O 0.24236 0.02889 0.25467 0.0
C2088 C 0.26409 0.97462 0.27629 0.0
O2089 O 0.25095 0.97176 0.28875 0.0
H2090 H 0.25212 0.04983 0.29065 0.0
H2091 H 0.2669 0.99584 0.31146 0.0
N2092 N 0.22246 0.99528 0.27445 0.0
N2093 N 0.20181 0.97177 0.26671 0.0
C2094 C 0.21721 0.98179 0.26152 0.0
C2095 C 0.20975 0.99393 0.28824 0.0
C2096 C 0.19689 0.97935 0.28345 0.0
C2097 C 0.22898 0.04055 0.25718 0.0
O2098 O 0.21794 0.03805 0.27165 0.0
H2099 H 0.22526 0.97857 0.24914 0.0
H2100 H 0.21044 1.00218 0.30131 0.0
O2101 O 0.26447 0.99024 0.26701 0.0
H2102 H 0.28513 0.0217 0.33302 0.0
H2103 H 0.18554 0.97402 0.29205 0.0
Cu2104 Cu 0.03266 0.79399 0.76244 0.0
N2105 N 0.04684 0.7725 0.75605 0.0
N2106 N 0.07123 0.75637 0.74476 0.0
C2107 C 0.06596 0.77013 0.75689 0.0
C2108 C 0.05507 0.74983 0.73596 0.0
C2109 C 0.04024 0.75996 0.74265 0.0
O2110 O 0.05011 0.81629 0.7606 0.0
C2111 C 0.99653 0.7791 0.75189 0.0
O2112 O 0.99932 0.77131 0.76879 0.0
H2113 H 0.07601 0.77952 0.76446 0.0
H2114 H 0.02619 0.76019 0.73588 0.0
N2115 N 0.02381 0.79548 0.78724 0.0
N2116 N 1.00638 0.80791 0.80995 0.0
C2117 C 1.00921 0.80687 0.79112 0.0
C2118 C 0.03037 0.78879 0.80428 0.0
C2119 C 0.01979 0.79672 0.81839 0.0
C2120 C 0.06306 0.81712 0.77411 0.0
O2121 O 0.06355 0.80375 0.78715 0.0
H2122 H 1.00107 0.81469 0.7803 0.0
H2123 H 0.04238 0.77942 0.80637 0.0
O2124 O 1.00898 0.79113 0.74601 0.0
H2125 H 0.05435 0.73996 0.72405 0.0
H2126 H 0.02183 0.79455 0.83363 0.0
Cu2127 Cu 0.28508 0.02867 0.77463 0.0
N2128 N 0.30368 0.04496 0.76442 0.0
N2129 N 0.31949 0.07124 0.75536 0.0
C2130 C 0.31137 0.06202 0.77005 0.0
C2131 C 0.3169 0.05965 0.74017 0.0
C2132 C 0.30703 0.04377 0.74569 0.0
O2133 O 0.2629 0.04439 0.77916 0.0
C2134 C 0.29709 0.99673 0.75645 0.0
O2135 O 0.31218 1.00179 0.76712 0.0
H2136 H 0.30976 0.06824 0.78401 0.0
H2137 H 0.30083 0.03308 0.73615 0.0
N2138 N 0.29049 0.01594 0.79765 0.0
N2139 N 0.28551 0.99239 0.81835 0.0
C2140 C 0.27837 1.00225 0.80331 0.0
C2141 C 0.30597 0.01482 0.80966 0.0
C2142 C 0.30289 1.00019 0.82257 0.0
C2143 C 0.26514 0.0556 0.79351 0.0
O2144 O 0.28113 0.05506 0.80394 0.0
H2145 H 0.26493 0.99885 0.7958 0.0
H2146 H 0.31889 0.02324 0.80848 0.0
O2147 O 0.28224 1.00715 0.7566 0.0
H2148 H 0.32068 0.06312 0.72575 0.0
H2149 H 0.31292 0.99507 0.83351 0.0
Cu2150 Cu 0.03352 0.29759 0.77763 0.0
N2151 N 0.01919 0.30155 0.75479 0.0
N2152 N 0.99604 0.31124 0.73432 0.0
C2153 C 1.00345 0.31224 0.75236 0.0
C2154 C 1.00757 0.29974 0.72486 0.0
C2155 C 0.02192 0.29382 0.73753 0.0
O2156 O 0.01605 0.29245 0.79811 0.0
C2157 C 0.0517 0.33461 0.7746 0.0
O2158 O 0.03471 0.34154 0.77053 0.0
H2159 H 0.99742 0.3205 0.76352 0.0
H2160 H 0.03337 0.28431 0.73446 0.0
N2161 N 0.04754 0.27531 0.77618 0.0
N2162 N 0.07001 0.25425 0.78406 0.0
C2163 C 0.06413 0.27229 0.78603 0.0
C2164 C 0.04274 0.25854 0.76776 0.0
C2165 C 0.05669 0.24546 0.7726 0.0
C2166 C 1.00318 0.30293 0.80462 0.0
O2167 O 1.00218 0.32092 0.7996 0.0
H2168 H 0.07135 0.28287 0.79512 0.0
H2169 H 0.02968 0.25583 0.75935 0.0
O2170 O 0.05318 0.31754 0.78056 0.0
H2171 H 1.00552 0.29566 0.71 0.0
H2172 H 0.05674 0.23055 0.76861 0.0
Cu2173 Cu 0.79122 0.05107 0.76593 0.0
N2174 N 0.79715 0.06645 0.78732 0.0
N2175 N 0.8111 0.08973 0.8049 0.0
C2176 C 0.80941 0.08144 0.78754 0.0
C2177 C 0.79963 0.07958 0.81614 0.0
C2178 C 0.79104 0.06516 0.80524 0.0
O2179 O 0.78788 0.06842 0.74404 0.0
C2180 C 0.81079 0.01964 0.77931 0.0
O2181 O 0.79841 0.02193 0.79259 0.0
H2182 H 0.81702 0.08612 0.77526 0.0
H2183 H 0.78119 0.05442 0.8101 0.0
N2184 N 0.76819 0.03754 0.76737 0.0
N2185 N 0.74646 0.01476 0.76058 0.0
C2186 C 0.76361 0.02213 0.75656 0.0
C2187 C 0.75327 0.04011 0.77849 0.0
C2188 C 0.73979 0.02596 0.77433 0.0
C2189 C 0.77512 0.08105 0.74595 0.0
O2190 O 0.76595 0.08154 0.76186 0.0
H2191 H 0.77273 0.01635 0.74601 0.0
H2192 H 0.75224 0.05141 0.78887 0.0
O2193 O 0.81091 0.0314 0.76535 0.0
H2194 H 0.79769 0.0824 0.83111 0.0
H2195 H 0.72623 0.02396 0.7809 0.0
Cu2196 Cu 0.27895 0.77142 0.50547 0.0
N2197 N 0.29925 0.78093 0.52147 0.0
N2198 N 0.31136 0.79634 0.54739 0.0
C2199 C 0.29859 0.78315 0.54058 0.0
C2200 C 0.32066 0.8025 0.53216 0.0
C2201 C 0.31318 0.7931 0.51627 0.0
O2202 O 0.25658 0.7696 0.52138 0.0
C2203 C 0.29169 0.78649 0.47151 0.0
O2204 O 0.30587 0.77531 0.47652 0.0
H2205 H 0.28771 0.77685 0.5491 0.0
H2206 H 0.3164 0.79674 0.50184 0.0
N2207 N 0.28155 0.74695 0.49554 0.0
N2208 N 0.27272 0.72496 0.47377 0.0
C2209 C 0.26687 0.73868 0.48548 0.0
C2210 C 0.29719 0.73751 0.49072 0.0
C2211 C 0.29175 0.72395 0.47713 0.0
C2212 C 0.25716 0.75602 0.5336 0.0
O2213 O 0.27174 0.74449 0.53395 0.0
H2214 H 0.25255 0.74425 0.48495 0.0
H2215 H 0.31166 0.74157 0.4951 0.0
O2216 O 0.27756 0.78762 0.48243 0.0
H2217 H 0.33101 0.8141 0.53233 0.0
H2218 H 0.30117 0.71514 0.46921 0.0
Cu2219 Cu 0.76991 0.77956 0.52613 0.0
N2220 N 0.7894 0.78325 0.50895 0.0
N2221 N 0.80774 0.77709 0.48451 0.0
C2222 C 0.7946 0.77012 0.4962 0.0
C2223 C 0.81106 0.79528 0.49004 0.0
C2224 C 0.79963 0.79908 0.50511 0.0
O2225 O 0.74688 0.77522 0.50988 0.0
C2226 C 0.79435 0.75786 0.5497 0.0
O2227 O 0.80686 0.77017 0.54346 0.0
H2228 H 0.78843 0.75591 0.49511 0.0
H2229 H 0.79838 0.81264 0.51224 0.0
N2230 N 0.76659 0.8007 0.5421 0.0
N2231 N 0.75426 0.81886 0.56465 0.0
C2232 C 0.7507 0.80519 0.55129 0.0
C2233 C 0.78054 0.8119 0.55003 0.0
C2234 C 0.77297 0.82314 0.56386 0.0
C2235 C 0.74206 0.78899 0.49888 0.0
O2236 O 0.75157 0.80522 0.50039 0.0
H2237 H 0.73715 0.79775 0.54912 0.0
H2238 H 0.79544 0.81107 0.54688 0.0
O2239 O 0.77704 0.75855 0.5433 0.0
H2240 H 0.82051 0.80522 0.4832 0.0
H2241 H 0.78075 0.83304 0.57328 0.0
Cu2242 Cu 0.77366 0.26808 0.49395 0.0
N2243 N 0.77337 0.24468 0.48074 0.0
N2244 N 0.76192 0.22203 0.46051 0.0
C2245 C 0.76245 0.24084 0.46477 0.0
C2246 C 0.77314 0.21378 0.47422 0.0
C2247 C 0.78026 0.22775 0.48657 0.0
O2248 O 0.77468 0.28812 0.47475 0.0
C2249 C 0.75446 0.25467 0.52389 0.0
O2250 O 0.76992 0.24437 0.52447 0.0
H2251 H 0.75414 0.25145 0.45706 0.0
H2252 H 0.78905 0.22553 0.49942 0.0
N2253 N 0.79454 0.27293 0.51104 0.0
N2254 N 0.80995 0.28686 0.53606 0.0
C2255 C 0.79435 0.28696 0.52418 0.0
C2256 C 0.81099 0.26368 0.51465 0.0
C2257 C 0.82057 0.2723 0.53017 0.0
C2258 C 0.7897 0.28751 0.46515 0.0
O2259 O 0.80203 0.27392 0.46868 0.0
H2260 H 0.78269 0.29675 0.52536 0.0
H2261 H 0.81544 0.25127 0.50694 0.0
O2262 O 0.75206 0.26702 0.51062 0.0
H2263 H 0.77555 0.19862 0.4755 0.0
H2264 H 0.83397 0.26792 0.53693 0.0
Cu2265 Cu 0.26884 0.27259 0.5493 0.0
N2266 N 0.24867 0.27602 0.56562 0.0
N2267 N 0.23154 0.28894 0.58827 0.0
C2268 C 0.24805 0.28956 0.57923 0.0
C2269 C 0.22106 0.27475 0.57994 0.0
C2270 C 0.23164 0.26687 0.56583 0.0
O2271 O 0.29261 0.2705 0.56537 0.0
C2272 C 0.2753 0.29632 0.51499 0.0
O2273 O 0.2937 0.29319 0.5166 0.0
H2274 H 0.2592 0.30001 0.58221 0.0
H2275 H 0.22698 0.25559 0.55615 0.0
N2276 N 0.26697 0.24921 0.53656 0.0
N2277 N 0.27228 0.22845 0.51339 0.0
C2278 C 0.27632 0.24584 0.52062 0.0
C2279 C 0.25699 0.23306 0.53984 0.0
C2280 C 0.26015 0.2202 0.52536 0.0
C2281 C 0.30008 0.28196 0.57782 0.0
O2282 O 0.2942 0.29962 0.57852 0.0
H2283 H 0.28594 0.25593 0.51441 0.0
H2284 H 0.24807 0.23073 0.55181 0.0
O2285 O 0.26465 0.29111 0.52838 0.0
H2286 H 0.20679 0.27059 0.58366 0.0
H2287 H 0.25397 0.20604 0.52366 0.0
Cu2288 Cu 0.79377 0.52113 0.77626 0.0
N2289 N 0.81599 0.53509 0.77047 0.0
N2290 N 0.83145 0.55968 0.75719 0.0
C2291 C 0.81716 0.55425 0.76843 0.0
C2292 C 0.83998 0.54336 0.75245 0.0
C2293 C 0.83052 0.52832 0.76067 0.0
O2294 O 0.77407 0.53989 0.78129 0.0
C2295 C 0.79878 0.48857 0.75416 0.0
O2296 O 0.81094 0.48521 0.76848 0.0
H2297 H 0.80663 0.56393 0.77337 0.0
H2298 H 0.83294 0.51341 0.75799 0.0
N2299 N 0.79609 0.50563 0.79809 0.0
N2300 N 0.78876 0.48233 0.81838 0.0
C2301 C 0.7828 0.4927 0.80311 0.0
C2302 C 0.81094 0.50339 0.81069 0.0
C2303 C 0.80644 0.48896 0.82326 0.0
C2304 C 0.77732 0.55051 0.79596 0.0
O2305 O 0.79283 0.54773 0.80673 0.0
H2306 H 0.76927 0.4905 0.79534 0.0
H2307 H 0.82428 0.51129 0.81041 0.0
O2308 O 0.78865 0.50361 0.75448 0.0
H2309 H 0.85136 0.54231 0.74259 0.0
H2310 H 0.81554 0.48347 0.83481 0.0
Cu2311 Cu 0.28977 0.54116 0.77901 0.0
N2312 N 0.28756 0.52829 0.80207 0.0
N2313 N 0.2958 0.50627 0.82373 0.0
C2314 C 0.29721 0.51217 0.80561 0.0
C2315 C 0.28475 0.51912 0.83211 0.0
C2316 C 0.27969 0.53284 0.81863 0.0
O2317 O 0.28894 0.5198 0.76095 0.0
C2318 C 0.32108 0.56845 0.77229 0.0
O2319 O 0.31804 0.56657 0.75374 0.0
H2320 H 0.30591 0.50533 0.79529 0.0
H2321 H 0.27162 0.54557 0.82097 0.0
N2322 N 0.26959 0.55745 0.77269 0.0
N2323 N 0.25403 0.58054 0.75697 0.0
C2324 C 0.27013 0.57046 0.75861 0.0
C2325 C 0.2524 0.55937 0.78025 0.0
C2326 C 0.24271 0.57372 0.77051 0.0
C2327 C 0.27844 0.51918 0.74563 0.0
O2328 O 0.27455 0.53508 0.73648 0.0
H2329 H 0.282 0.57237 0.74949 0.0
H2330 H 0.2473 0.551 0.79197 0.0
O2331 O 0.31231 0.55762 0.78364 0.0
H2332 H 0.28127 0.51899 0.84701 0.0
H2333 H 0.22863 0.57886 0.77323 0.0
Cu2334 Cu 0.26404 0.49876 0.26047 0.0
N2335 N 0.24493 0.47982 0.2624 0.0
N2336 N 0.22903 0.45612 0.27644 0.0
C2337 C 0.24114 0.47108 0.27901 0.0
C2338 C 0.22456 0.45561 0.25751 0.0
C2339 C 0.23431 0.47036 0.24888 0.0
O2340 O 0.28875 0.48559 0.25932 0.0
C2341 C 0.25979 0.53464 0.28017 0.0
O2342 O 0.27068 0.54214 0.26736 0.0
H2343 H 0.24816 0.47482 0.2926 0.0
H2344 H 0.2346 0.47317 0.23372 0.0
N2345 N 0.26288 0.51275 0.23752 0.0
N2346 N 0.27206 0.53493 0.21668 0.0
C2347 C 0.27722 0.52425 0.23199 0.0
C2348 C 0.24826 0.5159 0.22485 0.0
C2349 C 0.25389 0.52965 0.21198 0.0
C2350 C 0.29186 0.46874 0.26547 0.0
O2351 O 0.28055 0.4613 0.27795 0.0
H2352 H 0.29078 0.52575 0.23988 0.0
H2353 H 0.23417 0.50958 0.22562 0.0
O2354 O 0.2582 0.51652 0.28129 0.0
H2355 H 0.21576 0.44475 0.25036 0.0
H2356 H 0.24499 0.53613 0.20083 0.0
Cu2357 Cu 0.77027 0.53174 0.27564 0.0
N2358 N 0.7942 0.52041 0.27635 0.0
N2359 N 0.81763 0.50043 0.28448 0.0
C2360 C 0.79864 0.50322 0.28372 0.0
C2361 C 0.82544 0.51638 0.27725 0.0
C2362 C 0.81095 0.52863 0.27213 0.0
O2363 O 0.7509 0.51191 0.27737 0.0
C2364 C 0.78065 0.56543 0.29355 0.0
O2365 O 0.78889 0.56776 0.27726 0.0
H2366 H 0.7883 0.4933 0.2892 0.0
H2367 H 0.81259 0.54277 0.26627 0.0
N2368 N 0.76554 0.5445 0.25263 0.0
N2369 N 0.75319 0.56526 0.2317 0.0
C2370 C 0.75255 0.5582 0.24952 0.0
C2371 C 0.77458 0.54278 0.23618 0.0
C2372 C 0.76694 0.55565 0.22317 0.0
C2373 C 0.75094 0.49925 0.26435 0.0
O2374 O 0.7636 0.50047 0.25115 0.0
H2375 H 0.74312 0.5632 0.2602 0.0
H2376 H 0.7861 0.53307 0.23394 0.0
O2377 O 0.7706 0.55046 0.29617 0.0
H2378 H 0.84058 0.51905 0.27612 0.0
H2379 H 0.77131 0.55803 0.20874 0.0
Cu2380 Cu 0.54923 0.29667 0.77428 0.0
N2381 N 0.53697 0.32005 0.77563 0.0
N2382 N 0.51532 0.3407 0.78488 0.0
C2383 C 0.5207 0.32238 0.78478 0.0
C2384 C 0.52862 0.35042 0.77536 0.0
C2385 C 0.54205 0.33757 0.76965 0.0
O2386 O 0.52813 0.27818 0.77406 0.0
C2387 C 0.56833 0.3045 0.81069 0.0
O2388 O 0.55175 0.3102 0.81632 0.0
H2389 H 0.5132 0.31091 0.79172 0.0
H2390 H 0.5548 0.34081 0.76209 0.0
N2391 N 0.56203 0.2937 0.7517 0.0
N2392 N 0.58282 0.28181 0.73184 0.0
C2393 C 0.57765 0.28297 0.75007 0.0
C2394 C 0.55717 0.29954 0.73386 0.0
C2395 C 0.57004 0.29219 0.72152 0.0
C2396 C 0.52722 0.26302 0.76402 0.0
O2397 O 0.54289 0.25617 0.7573 0.0
H2398 H 0.58472 0.27562 0.76192 0.0
H2399 H 0.54482 0.30801 0.73005 0.0
O2400 O 0.56923 0.29615 0.79462 0.0
H2401 H 0.52879 0.36568 0.77311 0.0
H2402 H 0.56981 0.29391 0.70616 0.0
Cu2403 Cu 0.5323 0.77722 0.76616 0.0
N2404 N 0.54393 0.75359 0.76447 0.0
N2405 N 0.56561 0.73131 0.77089 0.0
C2406 C 0.56088 0.74965 0.77317 0.0
C2407 C 0.55124 0.7233 0.76009 0.0
C2408 C 0.53776 0.73715 0.75619 0.0
O2409 O 0.55271 0.79599 0.76361 0.0
C2410 C 0.52117 0.76727 0.80384 0.0
O2411 O 0.53844 0.76082 0.80736 0.0
H2412 H 0.56939 0.75993 0.78149 0.0
H2413 H 0.52428 0.73529 0.74826 0.0
N2414 N 0.51368 0.78107 0.74686 0.0
N2415 N 0.48618 0.79129 0.73375 0.0
C2416 C 0.49748 0.79048 0.74972 0.0
C2417 C 0.51265 0.77579 0.72836 0.0
C2418 C 0.49557 0.78212 0.72018 0.0
C2419 C 0.5505 0.81236 0.75609 0.0
O2420 O 0.53324 0.81914 0.7534 0.0
H2421 H 0.49398 0.79658 0.76329 0.0
H2422 H 0.52349 0.7679 0.72138 0.0
O2423 O 0.51767 0.77727 0.78902 0.0
H2424 H 0.5504 0.70848 0.75579 0.0
H2425 H 0.4904 0.78013 0.70552 0.0
Cu2426 Cu 0.51202 0.76043 0.24998 0.0
N2427 N 0.50026 0.78299 0.25684 0.0
N2428 N 0.47918 0.80047 0.27194 0.0
C2429 C 0.48183 0.78493 0.26101 0.0
C2430 C 0.49652 0.80892 0.27421 0.0
C2431 C 0.50945 0.79817 0.2648 0.0
O2432 O 0.49219 0.7411 0.24297 0.0
C2433 C 0.53015 0.75891 0.28799 0.0
O2434 O 0.51311 0.75828 0.29497 0.0
H2435 H 0.47093 0.77431 0.25762 0.0
H2436 H 0.52477 0.80018 0.26545 0.0
N2437 N 0.52618 0.76384 0.22831 0.0
N2438 N 0.54911 0.75879 0.20795 0.0
C2439 C 0.54196 0.75397 0.22481 0.0
C2440 C 0.52325 0.77534 0.2131 0.0
C2441 C 0.53747 0.77222 0.20042 0.0
C2442 C 0.4799 0.733 0.25325 0.0
O2443 O 0.48112 0.73529 0.27187 0.0
H2444 H 0.54798 0.74327 0.23434 0.0
H2445 H 0.51154 0.78512 0.21129 0.0
O2446 O 0.53182 0.75616 0.27016 0.0
H2447 H 0.49983 0.82119 0.2832 0.0
H2448 H 0.53907 0.7791 0.18676 0.0
Cu2449 Cu 0.50758 0.26006 0.28406 0.0
N2450 N 0.49502 0.25667 0.30681 0.0
N2451 N 0.4731 0.24672 0.32682 0.0
C2452 C 0.47812 0.24757 0.30849 0.0
C2453 C 0.48729 0.25559 0.33712 0.0
C2454 C 0.50085 0.26173 0.3247 0.0
O2455 O 0.4874 0.26216 0.2639 0.0
C2456 C 0.52747 0.22502 0.29185 0.0
O2457 O 0.51161 0.21858 0.29892 0.0
H2458 H 0.46979 0.24148 0.29656 0.0
H2459 H 0.51412 0.26913 0.32844 0.0
N2460 N 0.52153 0.28289 0.28418 0.0
N2461 N 0.54445 0.30334 0.27625 0.0
C2462 C 0.53824 0.28512 0.27567 0.0
C2463 C 0.51705 0.30034 0.29044 0.0
C2464 C 0.53127 0.31308 0.28553 0.0
C2465 C 0.48926 0.27155 0.2485 0.0
O2466 O 0.50642 0.27658 0.24349 0.0
H2467 H 0.54538 0.27372 0.26857 0.0
H2468 H 0.50411 0.30366 0.2975 0.0
O2469 O 0.52729 0.24065 0.28257 0.0
H2470 H 0.48783 0.25733 0.35248 0.0
H2471 H 0.53169 0.32829 0.2881 0.0
C2472 C 0.26795 0.22037 0.10826 0.0
C2473 C 0.25288 0.20711 0.10404 0.0
C2474 C 0.26153 0.20607 0.07046 0.0
C2475 C 0.27726 0.21839 0.07495 0.0
N2476 N 0.29667 0.2363 0.0979 0.0
N2477 N 0.23571 0.18623 0.08179 0.0
C2478 C 0.28081 0.22526 0.09383 0.0
C2479 C 0.24971 0.19971 0.08527 0.0
N2480 N 0.26966 0.22856 0.12599 0.0
N2481 N 0.25795 0.2006 0.05191 0.0
H2482 H 0.22626 0.1819 0.09207 0.0
H2483 H 0.23386 0.17865 0.06907 0.0
H2484 H 0.26707 0.20412 0.04107 0.0
H2485 H 0.24566 0.19333 0.04702 0.0
H2486 H 0.27904 0.23974 0.12956 0.0
H2487 H 0.26069 0.22505 0.13697 0.0
H2488 H 0.30148 0.24007 0.11166 0.0
H2489 H 0.30563 0.24115 0.08742 0.0
C2490 C 0.83843 0.22148 0.11354 0.0
C2491 C 0.83128 0.22447 0.13193 0.0
C2492 C 0.80766 0.2468 0.11816 0.0
C2493 C 0.81437 0.24328 0.09966 0.0
N2494 N 0.83368 0.22477 0.07916 0.0
N2495 N 0.80747 0.23767 0.15162 0.0
C2496 C 0.82911 0.22993 0.0972 0.0
C2497 C 0.81533 0.23638 0.13417 0.0
N2498 N 0.85438 0.21077 0.11172 0.0
N2499 N 0.79464 0.26081 0.12056 0.0
H2500 H 0.81318 0.23094 0.16381 0.0
H2501 H 0.79458 0.24429 0.15383 0.0
H2502 H 0.78873 0.26868 0.10923 0.0
H2503 H 0.79068 0.26565 0.13382 0.0
H2504 H 0.86181 0.21002 0.09922 0.0
H2505 H 0.86096 0.20343 0.12309 0.0
H2506 H 0.84273 0.21363 0.07624 0.0
H2507 H 0.82716 0.23057 0.06687 0.0
C2508 C 0.81923 0.83206 0.05272 0.0
C2509 C 0.81053 0.8274 0.07006 0.0
C2510 C 0.78466 0.81052 0.05186 0.0
C2511 C 0.79403 0.81401 0.0346 0.0
N2512 N 0.82257 0.82428 0.01933 0.0
N2513 N 0.78739 0.80861 0.08644 0.0
C2514 C 0.81199 0.82371 0.03523 0.0
C2515 C 0.794 0.81548 0.0697 0.0
N2516 N 0.83399 0.84498 0.05282 0.0
N2517 N 0.76638 0.80345 0.05126 0.0
H2518 H 0.79394 0.81183 0.09974 0.0
H2519 H 0.77662 0.79828 0.08703 0.0
H2520 H 0.75867 0.8003 0.03856 0.0
H2521 H 0.75816 0.8025 0.06324 0.0
H2522 H 0.83944 0.85061 0.04041 0.0
H2523 H 0.83983 0.85124 0.0653 0.0
H2524 H 0.83657 0.82943 0.01944 0.0
H2525 H 0.81813 0.81782 1.00644 0.0
C2526 C 0.22847 0.84122 0.08605 0.0
C2527 C 0.21977 0.82648 0.09673 0.0
C2528 C 0.22825 0.80378 0.07201 0.0
C2529 C 0.23997 0.81777 0.0635 0.0
N2530 N 0.25476 0.84901 0.06626 0.0
N2531 N 0.21659 0.79243 0.10185 0.0
C2532 C 0.24111 0.83631 0.07162 0.0
C2533 C 0.22117 0.80733 0.09032 0.0
N2534 N 0.22415 0.85987 0.08901 0.0
N2535 N 0.22291 0.78757 0.06231 0.0
H2536 H 0.21287 0.79422 0.11596 0.0
H2537 H 0.2188 0.77828 0.09805 0.0
H2538 H 0.22596 0.78541 0.04806 0.0
H2539 H 0.2133 0.77764 0.06761 0.0
H2540 H 0.22914 0.87087 0.08046 0.0
H2541 H 0.21383 0.86407 0.09834 0.0
H2542 H 0.25695 0.8622 0.07294 0.0
H2543 H 0.26528 0.84546 0.0569 0.0
C2544 C 0.23299 0.78671 0.92799 0.0
C2545 C 0.21821 0.79993 0.93073 0.0
C2546 C 0.22221 0.79585 0.96557 0.0
C2547 C 0.23768 0.7835 0.96283 0.0
N2548 N 0.25487 0.76345 0.94211 0.0
N2549 N 0.19572 0.81379 0.95146 0.0
C2550 C 0.24199 0.77765 0.94417 0.0
C2551 C 0.21175 0.8033 0.94935 0.0
N2552 N 0.23889 0.78344 0.90996 0.0
N2553 N 0.21836 0.80142 0.98368 0.0
H2554 H 0.18809 0.81985 0.93993 0.0
H2555 H 0.18914 0.81535 0.96437 0.0
H2556 H 0.22518 0.79556 0.99579 0.0
H2557 H 0.20903 0.81227 0.98676 0.0
H2558 H 0.25096 0.77574 0.90701 0.0
H2559 H 0.23208 0.7892 0.89779 0.0
H2560 H 0.25792 0.75735 0.92908 0.0
H2561 H 0.26143 0.75662 0.95385 0.0
C2562 C 0.23604 0.23317 0.95551 0.0
C2563 C 0.24639 0.22678 0.93972 0.0
C2564 C 0.27575 0.23968 0.95528 0.0
C2565 C 0.26514 0.24873 0.96938 0.0
N2566 N 0.23459 0.25552 0.98194 0.0
N2567 N 0.27566 0.22823 0.92282 0.0
C2568 C 0.24508 0.24584 0.96928 0.0
C2569 C 0.26613 0.23127 0.9391 0.0
N2570 N 0.21787 0.2266 0.95777 0.0
N2571 N 0.29506 0.23813 0.95781 0.0
H2572 H 0.26903 0.22296 0.91024 0.0
H2573 H 0.28965 0.23296 0.92121 0.0
H2574 H 0.30247 0.24272 0.97024 0.0
H2575 H 0.30326 0.23021 0.94873 0.0
H2576 H 0.2103 0.22929 0.96991 0.0
H2577 H 0.21102 0.21693 0.94836 0.0
H2578 H 0.21974 0.25557 0.98127 0.0
H2579 H 0.24078 0.2647 0.99225 0.0
C2580 C 0.85507 0.23708 0.97904 0.0
C2581 C 0.84518 0.24185 0.96161 0.0
C2582 C 0.81704 0.25046 0.97903 0.0
C2583 C 0.8269 0.24575 0.99645 0.0
N2584 N 0.8561 0.23858 0.01378 0.0
N2585 N 0.81902 0.25776 0.94533 0.0
C2586 C 0.84627 0.24044 0.99664 0.0
C2587 C 0.82691 0.25019 0.96176 0.0
N2588 N 0.87238 0.22845 0.97872 0.0
N2589 N 0.79793 0.25388 0.97881 0.0
H2590 H 0.826 0.25775 0.93248 0.0
H2591 H 0.80653 0.26561 0.94485 0.0
H2592 H 0.79014 0.25384 0.99112 0.0
H2593 H 0.78948 0.25537 0.96631 0.0
H2594 H 0.87934 0.22266 0.99075 0.0
H2595 H 0.8794 0.22611 0.96614 0.0
H2596 H 0.87072 0.23633 0.01513 0.0
H2597 H 0.84975 0.24091 0.02675 0.0
C2598 C 0.81898 0.83812 0.92317 0.0
C2599 C 0.81287 0.83463 0.90386 0.0
C2600 C 0.7984 0.8041 0.91301 0.0
C2601 C 0.80411 0.80776 0.93231 0.0
N2602 N 0.81777 0.82873 0.9565 0.0
N2603 N 0.79415 0.81627 0.88065 0.0
C2604 C 0.81367 0.82502 0.93761 0.0
C2605 C 0.80174 0.81819 0.89888 0.0
N2606 N 0.83063 0.85346 0.92751 0.0
N2607 N 0.79016 0.78691 0.90821 0.0
H2608 H 0.79634 0.82643 0.87006 0.0
H2609 H 0.78448 0.80556 0.87637 0.0
H2610 H 0.78674 0.77672 0.91838 0.0
H2611 H 0.78763 0.78227 0.89421 0.0
H2612 H 0.83745 0.8557 0.94083 0.0
H2613 H 0.8343 0.86364 0.91743 0.0
H2614 H 0.82277 0.84185 0.96172 0.0
H2615 H 0.81525 0.81883 0.96723 0.0
C2616 C 0.11579 0.24897 0.21493 0.0
C2617 C 0.11385 0.23125 0.2051 0.0
C2618 C 0.0806 0.2284 0.21449 0.0
C2619 C 0.08231 0.24647 0.2234 0.0
N2620 N 0.09993 0.2755 0.22954 0.0
N2621 N 0.09348 0.20588 0.19233 0.0
C2622 C 0.09946 0.25724 0.22278 0.0
C2623 C 0.09594 0.22148 0.20394 0.0
N2624 N 0.13338 0.25742 0.21758 0.0
N2625 N 0.06446 0.21765 0.21664 0.0
H2626 H 0.10429 0.20062 0.18415 0.0
H2627 H 0.08033 0.19918 0.18947 0.0
H2628 H 0.05295 0.22254 0.22409 0.0
H2629 H 0.06302 0.20348 0.21233 0.0
H2630 H 0.13606 0.26926 0.2263 0.0
H2631 H 0.14572 0.25175 0.21224 0.0
H2632 H 0.11129 0.28495 0.22778 0.0
H2633 H 0.08821 0.28167 0.23565 0.0
C2634 C 0.83015 0.07084 0.2395 0.0
C2635 C 0.823 0.08917 0.24364 0.0
C2636 C 0.79862 0.07441 0.26326 0.0
C2637 C 0.80662 0.05632 0.26018 0.0
N2638 N 0.83093 0.03707 0.24742 0.0
N2639 N 0.80221 0.10883 0.2615 0.0
C2640 C 0.82268 0.05449 0.24885 0.0
C2641 C 0.80768 0.09107 0.25608 0.0
N2642 N 0.84363 0.06903 0.22615 0.0
N2643 N 0.78205 0.07551 0.27268 0.0
H2644 H 0.8085 0.12133 0.25653 0.0
H2645 H 0.7925 0.11123 0.27201 0.0
H2646 H 0.77536 0.06354 0.27835 0.0
H2647 H 0.77418 0.08791 0.27366 0.0
H2648 H 0.84808 0.05599 0.22101 0.0
H2649 H 0.84951 0.08068 0.21913 0.0
H2650 H 0.84383 0.03488 0.24104 0.0
H2651 H 0.82542 0.02489 0.25384 0.0
C2652 C 0.94028 0.80173 0.2023 0.0
C2653 C 0.93408 0.82092 0.20335 0.0
C2654 C 0.95875 0.82657 0.22888 0.0
C2655 C 0.96667 0.80839 0.22568 0.0
N2656 N 0.96788 0.78159 0.2041 0.0
N2657 N 0.94214 0.853 0.21405 0.0
C2658 C 0.95829 0.79678 0.21085 0.0
C2659 C 0.94471 0.8338 0.21558 0.0
N2660 N 0.92878 0.78795 0.19394 0.0
N2661 N 0.96385 0.83665 0.24501 0.0
H2662 H 0.93322 0.85906 0.2035 0.0
H2663 H 0.95066 0.86288 0.22176 0.0
H2664 H 0.97282 0.8312 0.25587 0.0
H2665 H 0.95728 0.84932 0.24856 0.0
H2666 H 0.93231 0.77356 0.19424 0.0
H2667 H 0.91488 0.79053 0.18884 0.0
H2668 H 0.96277 0.77356 0.19238 0.0
H2669 H 0.98193 0.7787 0.20848 0.0
C2670 C 0.17419 0.93886 0.23273 0.0
C2671 C 0.183 0.92122 0.23732 0.0
C2672 C 0.20245 0.93679 0.26304 0.0
C2673 C 0.19453 0.95455 0.25763 0.0
N2674 N 0.17437 0.97333 0.23683 0.0
N2675 N 0.20651 0.9033 0.25557 0.0
C2676 C 0.18073 0.95578 0.24236 0.0
C2677 C 0.1974 0.92015 0.25217 0.0
N2678 N 0.15946 0.93934 0.21929 0.0
N2679 N 0.21465 0.93594 0.27875 0.0
H2680 H 0.20269 0.89068 0.2484 0.0
H2681 H 0.21853 0.90191 0.26467 0.0
H2682 H 0.21892 0.94799 0.28662 0.0
H2683 H 0.21969 0.92332 0.28475 0.0
H2684 H 0.15109 0.95123 0.21659 0.0
H2685 H 0.15483 0.9274 0.2114 0.0
H2686 H 0.16582 0.97577 0.22459 0.0
H2687 H 0.17855 0.98579 0.24412 0.0
C2688 C 0.11314 0.83674 0.77684 0.0
C2689 C 0.11192 0.84781 0.79374 0.0
C2690 C 0.07691 0.84577 0.79053 0.0
C2691 C 0.0783 0.83208 0.77587 0.0
N2692 N 0.0969 0.81587 0.75333 0.0
N2693 N 0.09287 0.86405 0.81624 0.0
C2694 C 0.09621 0.82831 0.76825 0.0
C2695 C 0.09381 0.85294 0.80028 0.0
N2696 N 0.13051 0.83417 0.76922 0.0
N2697 N 0.05922 0.85167 0.79508 0.0
H2698 H 0.10493 0.87003 0.82328 0.0
H2699 H 0.08031 0.86679 0.82301 0.0
H2700 H 0.04694 0.84673 0.78757 0.0
H2701 H 0.05674 0.86244 0.80482 0.0
H2702 H 0.13241 0.82754 0.75618 0.0
H2703 H 0.14318 0.83971 0.77548 0.0
H2704 H 0.10939 0.81042 0.74822 0.0
H2705 H 0.08448 0.81084 0.74619 0.0
C2706 C 0.23183 0.08325 0.82441 0.0
C2707 C 0.23188 0.10107 0.81481 0.0
C2708 C 0.24796 0.08636 0.78811 0.0
C2709 C 0.25051 0.06951 0.79899 0.0
N2710 N 0.24528 0.05164 0.82767 0.0
N2711 N 0.24216 0.12032 0.78853 0.0
C2712 C 0.24246 0.06786 0.81718 0.0
C2713 C 0.24037 0.10278 0.79682 0.0
N2714 N 0.22116 0.08087 0.8401 0.0
N2715 N 0.25283 0.08673 0.76947 0.0
H2716 H 0.23724 0.13278 0.79463 0.0
H2717 H 0.25008 0.12282 0.77655 0.0
H2718 H 0.25852 0.07501 0.7627 0.0
H2719 H 0.24959 0.09796 0.76023 0.0
H2720 H 0.21894 0.06774 0.84662 0.0
H2721 H 0.21317 0.09177 0.84573 0.0
H2722 H 0.24201 0.05039 0.84197 0.0
H2723 H 0.25169 0.03959 0.82223 0.0
C2724 C 0.95414 0.28575 0.82004 0.0
C2725 C 0.95938 0.27409 0.8359 0.0
C2726 C 0.99294 0.28387 0.83303 0.0
C2727 C 0.98794 0.29389 0.81596 0.0
N2728 N 0.96403 0.30113 0.79118 0.0
N2729 N 0.98399 0.25986 0.85605 0.0
C2730 C 0.96858 0.29406 0.80895 0.0
C2731 C 0.97886 0.27257 0.84203 0.0
N2732 N 0.93531 0.28923 0.81578 0.0
N2733 N 1.01102 0.28564 0.84099 0.0
H2734 H 0.97409 0.25144 0.86301 0.0
H2735 H 0.99808 0.25652 0.85971 0.0
H2736 H 0.02159 0.294 0.83497 0.0
H2737 H 0.01507 0.28031 0.85441 0.0
H2738 H 0.9307 0.29932 0.80577 0.0
H2739 H 0.92429 0.2833 0.82344 0.0
H2740 H 0.95056 0.29958 0.78446 0.0
H2741 H 0.97408 0.30692 0.7823 0.0
C2742 C 0.82882 0.96895 0.77851 0.0
C2743 C 0.84274 0.96961 0.79391 0.0
C2744 C 0.83859 1.00429 0.79666 0.0
C2745 C 0.82437 1.00355 0.78158 0.0
N2746 N 0.80847 0.98634 0.75569 0.0
N2747 N 0.86339 0.98805 0.81548 0.0
C2748 C 0.82039 0.98621 0.77166 0.0
C2749 C 0.84848 0.98739 0.80223 0.0
N2750 N 0.82328 0.9517 0.77086 0.0
N2751 N 0.8421 0.02114 0.8061 0.0
H2752 H 0.87042 0.97591 0.82045 0.0
H2753 H 0.86967 1.00063 0.82072 0.0
H2754 H 0.83603 0.03396 0.80157 0.0
H2755 H 0.8504 0.02244 0.81872 0.0
H2756 H 0.81174 0.94976 0.76119 0.0
H2757 H 0.82973 0.93893 0.77491 0.0
H2758 H 0.80593 0.97464 0.74676 0.0
H2759 H 0.80223 0.99877 0.75041 0.0
C2760 C 0.20358 0.07475 0.22296 0.0
C2761 C 0.21474 0.09151 0.22653 0.0
C2762 C 0.23813 0.07302 0.24551 0.0
C2763 C 0.22556 0.057 0.24432 0.0
N2764 N 0.19613 0.04232 0.23238 0.0
N2765 N 0.24161 0.10731 0.24276 0.0
C2766 C 0.20824 0.05777 0.2331 0.0
C2767 C 0.23186 0.09082 0.23808 0.0
N2768 N 0.18886 0.07499 0.20951 0.0
N2769 N 0.25604 0.07123 0.25372 0.0
H2770 H 0.23743 0.12067 0.23771 0.0
H2771 H 0.25291 0.10803 0.25288 0.0
H2772 H 0.26115 0.0584 0.25919 0.0
H2773 H 0.26648 0.08191 0.25344 0.0
H2774 H 0.18136 0.06282 0.20484 0.0
H2775 H 0.18512 0.08716 0.20175 0.0
H2776 H 0.18224 0.04271 0.22654 0.0
H2777 H 0.1997 0.02919 0.23845 0.0
C2778 C 0.2545 0.96034 0.84755 0.0
C2779 C 0.25626 0.94276 0.83771 0.0
C2780 C 0.27978 0.95757 0.81707 0.0
C2781 C 0.27699 0.97536 0.82605 0.0
N2782 N 0.26098 0.99454 0.84842 0.0
N2783 N 0.26963 0.92451 0.81254 0.0
C2784 C 0.26423 0.97693 0.84101 0.0
C2785 C 0.26872 0.94133 0.82233 0.0
N2786 N 0.2436 0.9611 0.86322 0.0
N2787 N 0.29318 0.95637 0.80358 0.0
H2788 H 0.26233 0.91217 0.81646 0.0
H2789 H 0.27684 0.92284 0.80002 0.0
H2790 H 0.30111 0.96817 0.79926 0.0
H2791 H 0.29731 0.9437 0.79737 0.0
H2792 H 0.24319 0.97284 0.87225 0.0
H2793 H 0.23565 0.94948 0.86792 0.0
H2794 H 0.25039 0.99735 0.85791 0.0
H2795 H 0.26838 1.00673 0.84419 0.0
C2796 C 0.09956 0.22723 0.82089 0.0
C2797 C 0.11815 0.23091 0.81445 0.0
C2798 C 0.10453 0.24823 0.78674 0.0
C2799 C 0.08617 0.24578 0.79398 0.0
N2800 N 0.06598 0.23526 0.81875 0.0
N2801 N 0.13884 0.24634 0.79246 0.0
C2802 C 0.08362 0.23585 0.81127 0.0
C2803 C 0.12079 0.24177 0.79764 0.0
N2804 N 0.09716 0.21514 0.83593 0.0
N2805 N 0.10622 0.25645 0.76922 0.0
H2806 H 0.15105 0.24159 0.79994 0.0
H2807 H 0.14183 0.25579 0.78152 0.0
H2808 H 0.09447 0.26147 0.76118 0.0
H2809 H 0.11888 0.25714 0.76207 0.0
H2810 H 0.0839 0.21027 0.84008 0.0
H2811 H 0.10853 0.20881 0.84348 0.0
H2812 H 0.06338 0.23007 0.83232 0.0
H2813 H 0.05404 0.24126 0.81185 0.0
C2814 C 0.82784 0.14081 0.81091 0.0
C2815 C 0.84476 0.1383 0.82248 0.0
C2816 C 0.84047 0.10352 0.82031 0.0
C2817 C 0.82273 0.10612 0.81032 0.0
N2818 N 0.79845 0.12665 0.79725 0.0
N2819 N 0.86675 0.11759 0.83948 0.0
C2820 C 0.81618 0.12464 0.80581 0.0
C2821 C 0.85102 0.11971 0.82746 0.0
N2822 N 0.82309 0.15866 0.80467 0.0
N2823 N 0.84732 0.0855 0.82253 0.0
H2824 H 0.87518 0.12909 0.84444 0.0
H2825 H 0.8709 0.10462 0.8454 0.0
H2826 H 0.83972 0.07347 0.81751 0.0
H2827 H 0.86096 0.08248 0.82801 0.0
H2828 H 0.81201 0.16135 0.79471 0.0
H2829 H 0.83114 0.17081 0.80843 0.0
H2830 H 0.79182 0.13969 0.79515 0.0
H2831 H 0.78975 0.11499 0.79329 0.0
C2832 C 0.97537 0.84954 0.82216 0.0
C2833 C 0.96007 0.83937 0.83016 0.0
C2834 C 0.97889 0.81037 0.83086 0.0
C2835 C 0.99209 0.81913 0.81881 0.0
N2836 N 1.00513 0.84809 0.80587 0.0
N2837 N 0.95695 0.81648 0.85552 0.0
C2838 C 0.99104 0.83911 0.81536 0.0
C2839 C 0.96473 0.82165 0.83877 0.0
N2840 N 0.97663 0.86883 0.8243 0.0
N2841 N 0.97886 0.79115 0.8338 0.0
H2842 H 0.94811 0.82566 0.86269 0.0
H2843 H 0.96112 0.80436 0.86314 0.0
H2844 H 0.98808 0.782 0.8272 0.0
H2845 H 0.96829 0.78422 0.84131 0.0
H2846 H 0.98803 0.87712 0.81987 0.0
H2847 H 0.96778 0.87599 0.8334 0.0
H2848 H 1.00405 0.86197 0.80072 0.0
H2849 H 0.01777 0.84135 0.80286 0.0
C2850 C 0.80217 0.94995 0.20504 0.0
C2851 C 0.80034 0.93061 0.21082 0.0
C2852 C 0.78191 0.94038 0.23799 0.0
C2853 C 0.78365 0.9597 0.23222 0.0
N2854 N 0.7918 0.9827 0.20842 0.0
N2855 N 0.78444 0.907 0.22956 0.0
C2856 C 0.7925 0.9644 0.21503 0.0
C2857 C 0.78885 0.92571 0.22626 0.0
N2858 N 0.81397 0.95462 0.19071 0.0
N2859 N 0.77441 0.93612 0.25517 0.0
H2860 H 0.78925 0.89593 0.22114 0.0
H2861 H 0.77464 0.90256 0.23942 0.0
H2862 H 0.76878 0.94644 0.26392 0.0
H2863 H 0.77487 0.92262 0.26132 0.0
H2864 H 0.81766 0.96857 0.18723 0.0
H2865 H 0.82112 0.94446 0.18298 0.0
H2866 H 0.79644 0.98684 0.19513 0.0
H2867 H 0.78503 0.99352 0.21565 0.0
C2868 C 0.06512 0.78726 0.19137 0.0
C2869 C 0.08411 0.78106 0.19479 0.0
C2870 C 0.07287 0.75702 0.21731 0.0
C2871 C 0.05485 0.76579 0.21668 0.0
N2872 N 0.03276 0.78802 0.20243 0.0
N2873 N 0.10634 0.75936 0.20997 0.0
C2874 C 0.05053 0.78026 0.20313 0.0
C2875 C 0.08801 0.76542 0.20716 0.0
N2876 N 0.06121 0.80002 0.17704 0.0
N2877 N 0.07541 0.74087 0.22793 0.0
H2878 H 0.1176 0.76484 0.20233 0.0
H2879 H 0.1106 0.74949 0.22032 0.0
H2880 H 0.06426 0.73456 0.23515 0.0
H2881 H 0.08777 0.73284 0.22825 0.0
H2882 H 0.0475 0.80413 0.17273 0.0
H2883 H 0.07173 0.8054 0.16837 0.0
H2884 H 0.02911 0.80016 0.19465 0.0
H2885 H 0.02167 0.78246 0.21027 0.0
C2886 C 0.97603 0.2016 0.23973 0.0
C2887 C 0.96128 0.19982 0.25284 0.0
C2888 C 0.9836 0.21141 0.27852 0.0
C2889 C 0.99747 0.21555 0.2649 0.0
N2890 N 1.00441 0.219 0.23149 0.0
N2891 N 0.95008 0.20639 0.28421 0.0
C2892 C 0.99307 0.2118 0.2452 0.0
C2893 C 0.9648 0.20563 0.27214 0.0
N2894 N 0.97403 0.19318 0.22215 0.0
N2895 N 0.98849 0.2124 0.2976 0.0
H2896 H 0.93607 0.20272 0.28 0.0
H2897 H 0.95144 0.21238 0.29782 0.0
H2898 H 1.00221 0.21603 0.30282 0.0
H2899 H 0.97951 0.20774 0.30814 0.0
H2900 H 0.98515 0.19246 0.21281 0.0
H2901 H 0.96198 0.1852 0.21771 0.0
H2902 H 1.00073 0.21818 0.21694 0.0
H2903 H 0.01627 0.22776 0.23453 0.0
C2904 C 0.22342 0.72998 0.56601 0.0
C2905 C 0.22576 0.74154 0.58262 0.0
C2906 C 0.24207 0.76597 0.56385 0.0
C2907 C 0.24266 0.75308 0.54832 0.0
N2908 N 0.23364 0.72283 0.53414 0.0
N2909 N 0.2391 0.76985 0.59795 0.0
C2910 C 0.2331 0.73512 0.54924 0.0
C2911 C 0.23536 0.75948 0.58164 0.0
N2912 N 0.2116 0.71432 0.56616 0.0
N2913 N 0.24793 0.78443 0.56164 0.0
H2914 H 0.23477 0.76551 0.61133 0.0
H2915 H 0.24794 0.78191 0.59854 0.0
H2916 H 0.25269 0.78967 0.54877 0.0
H2917 H 0.24607 0.79498 0.57182 0.0
H2918 H 0.20778 0.70631 0.55405 0.0
H2919 H 0.20429 0.71021 0.57816 0.0
H2920 H 0.22921 0.70862 0.53469 0.0
H2921 H 0.23927 0.72674 0.52115 0.0
C2922 C 0.80336 0.74187 0.60122 0.0
C2923 C 0.81869 0.72929 0.59889 0.0
C2924 C 0.81334 0.73101 0.56401 0.0
C2925 C 0.80013 0.74585 0.5664 0.0
N2926 N 0.78373 0.76676 0.58725 0.0
N2927 N 0.83862 0.71164 0.57834 0.0
C2928 C 0.79517 0.75142 0.585 0.0
C2929 C 0.82361 0.72356 0.58033 0.0
N2930 N 0.79671 0.74477 0.61902 0.0
N2931 N 0.81595 0.72409 0.5461 0.0
H2932 H 0.84594 0.70544 0.58999 0.0
H2933 H 0.84444 0.70858 0.56531 0.0
H2934 H 0.80856 0.72935 0.534 0.0
H2935 H 0.82411 0.71222 0.54335 0.0
H2936 H 0.78437 0.75227 0.62147 0.0
H2937 H 0.80258 0.73815 0.63121 0.0
H2938 H 0.7816 0.77309 0.60042 0.0
H2939 H 0.77746 0.77412 0.57575 0.0
C2940 C 0.82827 0.32757 0.56739 0.0
C2941 C 0.81991 0.32282 0.58492 0.0
C2942 C 0.80562 0.2938 0.57019 0.0
C2943 C 0.81348 0.2989 0.5526 0.0
N2944 N 0.82989 0.3214 0.5333 0.0
N2945 N 0.79883 0.30286 0.60268 0.0
C2946 C 0.82414 0.31604 0.5509 0.0
C2947 C 0.808 0.30634 0.5862 0.0
N2948 N 0.8405 0.34288 0.56669 0.0
N2949 N 0.79628 0.27667 0.57156 0.0
H2950 H 0.80062 0.31149 0.61477 0.0
H2951 H 0.78852 0.29221 0.6041 0.0
H2952 H 0.79405 0.26749 0.55993 0.0
H2953 H 0.79169 0.27096 0.58429 0.0
H2954 H 0.84874 0.34597 0.55508 0.0
H2955 H 0.8432 0.3521 0.57821 0.0
H2956 H 0.83604 0.33461 0.5304 0.0
H2957 H 0.82735 0.31295 0.52117 0.0
C2958 C 0.21072 0.32976 0.61498 0.0
C2959 C 0.21838 0.32618 0.63373 0.0
C2960 C 0.23277 0.29673 0.6226 0.0
C2961 C 0.22639 0.30111 0.60369 0.0
N2962 N 0.21112 0.32225 0.58111 0.0
N2963 N 0.23807 0.30743 0.6554 0.0
C2964 C 0.21578 0.31774 0.59968 0.0
C2965 C 0.22975 0.30993 0.63757 0.0
N2966 N 0.19833 0.34442 0.61193 0.0
N2967 N 0.24141 0.27969 0.62614 0.0
H2968 H 0.23579 0.31656 0.66681 0.0
H2969 H 0.24814 0.29707 0.6587 0.0
H2970 H 0.24398 0.26997 0.6153 0.0
H2971 H 0.24488 0.27457 0.63976 0.0
H2972 H 0.19072 0.34667 0.59906 0.0
H2973 H 0.1946 0.35371 0.62274 0.0
H2974 H 0.20516 0.33513 0.57682 0.0
H2975 H 0.2144 0.31345 0.56973 0.0
C2976 C 0.25894 0.30189 0.46194 0.0
C2977 C 0.24338 0.31433 0.46364 0.0
C2978 C 0.25233 0.31867 0.49781 0.0
C2979 C 0.26611 0.30405 0.49678 0.0
N2980 N 0.28114 0.28028 0.4775 0.0
N2981 N 0.22433 0.33387 0.48335 0.0
C2982 C 0.26925 0.29545 0.4787 0.0
C2983 C 0.23988 0.32261 0.48162 0.0
N2984 N 0.26398 0.29627 0.44419 0.0
N2985 N 0.25161 0.32926 0.51413 0.0
H2986 H 0.21535 0.33762 0.47172 0.0
H2987 H 0.2196 0.33849 0.49642 0.0
H2988 H 0.26093 0.32722 0.52595 0.0
H2989 H 0.24319 0.34127 0.5153 0.0
H2990 H 0.27652 0.28909 0.44172 0.0
H2991 H 0.2565 0.30025 0.43166 0.0
H2992 H 0.28187 0.27185 0.46533 0.0
H2993 H 0.2894 0.27505 0.48891 0.0
C2994 C 0.24508 0.68853 0.44369 0.0
C2995 C 0.2432 0.69842 0.426 0.0
C2996 C 0.25736 0.72697 0.44124 0.0
C2997 C 0.26177 0.71632 0.45805 0.0
N2998 N 0.26103 0.68671 0.47513 0.0
N2999 N 0.2513 0.72588 0.40705 0.0
C3000 C 0.25602 0.69696 0.45918 0.0
C3001 C 0.25033 0.71735 0.42453 0.0
N3002 N 0.23578 0.67147 0.44591 0.0
N3003 N 0.25945 0.74632 0.44126 0.0
H3004 H 0.24695 0.71913 0.3943 0.0
H3005 H 0.25828 0.73889 0.40504 0.0
H3006 H 0.26429 0.75407 0.4532 0.0
H3007 H 0.25458 0.75487 0.42995 0.0
H3008 H 0.23515 0.66445 0.45896 0.0
H3009 H 0.22719 0.66515 0.43508 0.0
H3010 H 0.25913 0.672 0.47611 0.0
H3011 H 0.26817 0.69287 0.48703 0.0
C3012 C 0.81223 0.75898 0.43423 0.0
C3013 C 0.82803 0.74665 0.43692 0.0
C3014 C 0.83093 0.75532 0.47095 0.0
C3015 C 0.81515 0.76751 0.46826 0.0
N3016 N 0.79162 0.78263 0.44779 0.0
N3017 N 0.85401 0.73461 0.45684 0.0
C3018 C 0.8061 0.76988 0.44996 0.0
C3019 C 0.83793 0.74535 0.45501 0.0
N3020 N 0.80286 0.75983 0.41671 0.0
N3021 N 0.83878 0.75295 0.48899 0.0
H3022 H 0.85919 0.72677 0.44558 0.0
H3023 H 0.86292 0.73421 0.46908 0.0
H3024 H 0.8342 0.76056 0.50069 0.0
H3025 H 0.84912 0.74298 0.49266 0.0
H3026 H 0.79013 0.76692 0.41397 0.0
H3027 H 0.8076 0.75285 0.40469 0.0
H3028 H 0.78517 0.78645 0.43474 0.0
H3029 H 0.78642 0.79015 0.45925 0.0
C3030 C 0.79894 0.30823 0.4163 0.0
C3031 C 0.81148 0.32353 0.42174 0.0
C3032 C 0.80448 0.31843 0.45545 0.0
C3033 C 0.794 0.30167 0.45018 0.0
N3034 N 0.7815 0.27996 0.42598 0.0
N3035 N 0.827 0.34306 0.44628 0.0
C3036 C 0.79113 0.2965 0.43067 0.0
C3037 C 0.8143 0.32876 0.44127 0.0
N3038 N 0.79434 0.30509 0.39738 0.0
N3039 N 0.80507 0.32435 0.47407 0.0
H3040 H 0.83418 0.3511 0.43627 0.0
H3041 H 0.83137 0.34629 0.46031 0.0
H3042 H 0.79816 0.31692 0.48472 0.0
H3043 H 0.81101 0.33729 0.47876 0.0
H3044 H 0.78381 0.29546 0.39246 0.0
H3045 H 0.80005 0.31319 0.38648 0.0
H3046 H 0.78094 0.27398 0.41236 0.0
H3047 H 0.7747 0.27164 0.43604 0.0
C3048 C 0.11357 0.7283 0.73154 0.0
C3049 C 0.1252 0.74264 0.72333 0.0
C3050 C 0.10019 0.76589 0.72797 0.0
C3051 C 0.09004 0.75229 0.73864 0.0
N3052 N 0.08832 0.72137 0.75309 0.0
N3053 N 0.131 0.77613 0.7174 0.0
C3054 C 0.09721 0.73375 0.74126 0.0
C3055 C 0.11895 0.76179 0.72263 0.0
N3056 N 0.11749 0.70945 0.72913 0.0
N3057 N 0.09147 0.78216 0.72184 0.0
H3058 H 0.14507 0.77379 0.71395 0.0
H3059 H 0.12755 0.79049 0.71837 0.0
H3060 H 0.07731 0.78504 0.72451 0.0
H3061 H 0.09767 0.79173 0.71249 0.0
H3062 H 0.10847 0.69847 0.73336 0.0
H3063 H 0.12861 0.70474 0.72103 0.0
H3064 H 0.0939 0.70818 0.75699 0.0
H3065 H 0.07626 0.72512 0.76036 0.0
C3066 C 0.82302 0.60741 0.73322 0.0
C3067 C 0.84202 0.61383 0.73059 0.0
C3068 C 0.85353 0.58624 0.7492 0.0
C3069 C 0.83481 0.57833 0.74888 0.0
N3070 N 0.80252 0.57969 0.73548 0.0
N3071 N 0.87567 0.6066 0.73295 0.0
C3072 C 0.81969 0.58847 0.73957 0.0
C3073 C 0.85743 0.60254 0.73779 0.0
N3074 N 0.80811 0.61945 0.73001 0.0
N3075 N 0.86754 0.57844 0.76071 0.0
H3076 H 0.87914 0.61764 0.72373 0.0
H3077 H 0.88708 0.59772 0.73644 0.0
H3078 H 0.86493 0.567 0.76977 0.0
H3079 H 0.88106 0.58463 0.76275 0.0
H3080 H 0.79417 0.61583 0.73331 0.0
H3081 H 0.80999 0.63369 0.72616 0.0
H3082 H 0.7916 0.58613 0.72736 0.0
H3083 H 0.80003 0.56526 0.73802 0.0
C3084 C 0.94356 0.31926 0.72423 0.0
C3085 C 0.94429 0.33445 0.7109 0.0
C3086 C 0.97919 0.33597 0.71537 0.0
C3087 C 0.97852 0.31952 0.72701 0.0
N3088 N 0.96073 0.29427 0.74137 0.0
N3089 N 0.96254 0.35682 0.69276 0.0
C3090 C 0.96085 0.31091 0.73126 0.0
C3091 C 0.96206 0.34279 0.70627 0.0
N3092 N 0.92631 0.31298 0.73027 0.0
N3093 N 0.99627 0.34518 0.71341 0.0
H3094 H 0.95024 0.36258 0.6863 0.0
H3095 H 0.97505 0.36207 0.68716 0.0
H3096 H 1.00895 0.34028 0.71988 0.0
H3097 H 0.99772 0.35828 0.70664 0.0
H3098 H 0.9248 0.30327 0.74134 0.0
H3099 H 0.91338 0.31865 0.72521 0.0
H3100 H 0.94851 0.28608 0.74339 0.0
H3101 H 0.9732 0.28787 0.74668 0.0
C3102 C 0.23574 0.48623 0.73287 0.0
C3103 C 0.24398 0.46797 0.73485 0.0
C3104 C 0.27548 0.48339 0.74069 0.0
C3105 C 0.26676 0.50153 0.74123 0.0
N3106 N 0.23733 0.51898 0.74324 0.0
N3107 N 0.27143 0.44915 0.74395 0.0
C3108 C 0.24654 0.50266 0.73872 0.0
C3109 C 0.26382 0.46652 0.73964 0.0
N3110 N 0.21767 0.48802 0.72503 0.0
N3111 N 0.29489 0.48224 0.74067 0.0
H3112 H 0.26334 0.43656 0.74372 0.0
H3113 H 0.28533 0.44747 0.74946 0.0
H3114 H 0.30384 0.49425 0.74103 0.0
H3115 H 0.30198 0.46954 0.73842 0.0
H3116 H 0.21175 0.50118 0.72156 0.0
H3117 H 0.2094 0.4764 0.72013 0.0
H3118 H 0.22252 0.5198 0.74332 0.0
H3119 H 0.24423 0.53091 0.74926 0.0
C3120 C 0.08989 0.29087 0.34995 0.0
C3121 C 0.10783 0.2828 0.34673 0.0
C3122 C 0.0916 0.25638 0.32916 0.0
C3123 C 0.07404 0.2662 0.3296 0.0
N3124 N 0.05734 0.29479 0.33819 0.0
N3125 N 0.1262 0.25822 0.33264 0.0
C3126 C 0.0733 0.28384 0.33966 0.0
C3127 C 0.1088 0.26551 0.33632 0.0
N3128 N 0.08876 0.30548 0.36274 0.0
N3129 N 0.09175 0.23819 0.32221 0.0
H3130 H 0.13896 0.26415 0.33827 0.0
H3131 H 0.12804 0.24699 0.32322 0.0
H3132 H 0.07938 0.23103 0.3172 0.0
H3133 H 0.10372 0.22959 0.32306 0.0
H3134 H 0.07588 0.31072 0.36718 0.0
H3135 H 0.10071 0.31102 0.37037 0.0
H3136 H 0.05692 0.3087 0.34336 0.0
H3137 H 0.04504 0.29097 0.33019 0.0
C3138 C 0.23081 0.56197 0.31636 0.0
C3139 C 0.22212 0.57584 0.30403 0.0
C3140 C 0.23354 0.55837 0.27665 0.0
C3141 C 0.24542 0.54713 0.28892 0.0
N3142 N 0.25601 0.53875 0.32092 0.0
N3143 N 0.21887 0.58894 0.27209 0.0
C3144 C 0.24415 0.54895 0.30896 0.0
C3145 C 0.22438 0.57447 0.28405 0.0
N3146 N 0.22592 0.56087 0.33498 0.0
N3147 N 0.23034 0.55324 0.258 0.0
H3148 H 0.21317 0.60163 0.27684 0.0
H3149 H 0.22197 0.58916 0.25768 0.0
H3150 H 0.23581 0.54078 0.25245 0.0
H3151 H 0.22051 0.56008 0.24884 0.0
H3152 H 0.23051 0.55006 0.3442 0.0
H3153 H 0.21569 0.56963 0.34063 0.0
H3154 H 0.25718 0.54099 0.33563 0.0
H3155 H 0.26566 0.52894 0.31594 0.0
C3156 C 0.95298 0.71386 0.30656 0.0
C3157 C 0.93444 0.72111 0.30257 0.0
C3158 C 0.9458 0.73703 0.27394 0.0
C3159 C 0.96477 0.73262 0.27982 0.0
N3160 N 0.98685 0.71595 0.30075 0.0
N3161 N 0.91274 0.73932 0.28241 0.0
C3162 C 0.96845 0.72044 0.29566 0.0
C3163 C 0.93065 0.73241 0.28606 0.0
N3164 N 0.95571 0.70067 0.32074 0.0
N3165 N 0.94242 0.74551 0.25661 0.0
H3166 H 0.9012 0.7358 0.29066 0.0
H3167 H 0.90946 0.74935 0.27188 0.0
H3168 H 0.95337 0.74825 0.24736 0.0
H3169 H 0.92886 0.748 0.25058 0.0
H3170 H 0.96842 0.69346 0.32333 0.0
H3171 H 0.94474 0.69587 0.32917 0.0
H3172 H 0.991 0.70928 0.31349 0.0
H3173 H 0.99819 0.71942 0.29222 0.0
C3174 C 0.85197 0.46018 0.2896 0.0
C3175 C 0.84712 0.4523 0.3074 0.0
C3176 C 0.82728 0.48033 0.31235 0.0
C3177 C 0.82781 0.48443 0.29252 0.0
N3178 N 0.84033 0.47729 0.26185 0.0
N3179 N 0.84187 0.46329 0.33922 0.0
C3180 C 0.84008 0.47408 0.28102 0.0
C3181 C 0.83793 0.46471 0.32002 0.0
N3182 N 0.86962 0.45748 0.28283 0.0
N3183 N 0.81684 0.49146 0.32383 0.0
H3184 H 0.8522 0.45402 0.34479 0.0
H3185 H 0.83697 0.47276 0.34927 0.0
H3186 H 0.81062 0.50412 0.31916 0.0
H3187 H 0.81385 0.4878 0.3378 0.0
H3188 H 0.87423 0.46424 0.27057 0.0
H3189 H 0.88044 0.45118 0.29126 0.0
H3190 H 0.84833 0.46899 0.2529 0.0
H3191 H 0.83126 0.48692 0.25483 0.0
C3192 C 0.23566 0.60817 0.71398 0.0
C3193 C 0.24459 0.6262 0.71764 0.0
C3194 C 0.25855 0.6142 0.74797 0.0
C3195 C 0.25042 0.59601 0.74386 0.0
N3196 N 0.23402 0.57447 0.72198 0.0
N3197 N 0.26733 0.64547 0.73614 0.0
C3198 C 0.23981 0.59264 0.72652 0.0
C3199 C 0.25693 0.62891 0.73406 0.0
N3200 N 0.22259 0.60611 0.69903 0.0
N3201 N 0.26728 0.61748 0.7655 0.0
H3202 H 0.26655 0.65643 0.72609 0.0
H3203 H 0.27791 0.64766 0.74684 0.0
H3204 H 0.26874 0.60686 0.77586 0.0
H3205 H 0.2718 0.63091 0.77029 0.0
H3206 H 0.21402 0.594 0.69687 0.0
H3207 H 0.21941 0.61703 0.68936 0.0
H3208 H 0.22794 0.57055 0.7087 0.0
H3209 H 0.2366 0.56299 0.73115 0.0
C3210 C 0.23064 0.41033 0.3049 0.0
C3211 C 0.21765 0.41445 0.31926 0.0
C3212 C 0.21092 0.44545 0.30411 0.0
C3213 C 0.22479 0.44182 0.29057 0.0
N3214 N 0.24989 0.42234 0.27953 0.0
N3215 N 0.19674 0.43649 0.33394 0.0
C3216 C 0.23517 0.42463 0.29135 0.0
C3217 C 0.20813 0.4322 0.31925 0.0
N3218 N 0.23828 0.39255 0.30394 0.0
N3219 N 0.20017 0.46145 0.30213 0.0
H3220 H 0.19418 0.42699 0.34502 0.0
H3221 H 0.19081 0.44981 0.33589 0.0
H3222 H 0.20216 0.47134 0.29124 0.0
H3223 H 0.18853 0.46434 0.31029 0.0
H3224 H 0.24609 0.3879 0.2926 0.0
H3225 H 0.23569 0.38185 0.31387 0.0
H3226 H 0.25953 0.41121 0.28066 0.0
H3227 H 0.25335 0.4325 0.26941 0.0
C3228 C 0.09824 0.70895 0.29505 0.0
C3229 C 0.10534 0.70974 0.3144 0.0
C3230 C 0.08042 0.73275 0.32093 0.0
C3231 C 0.0716 0.7298 0.30252 0.0
N3232 N 0.06973 0.70975 0.27436 0.0
N3233 N 0.09825 0.71782 0.34689 0.0
C3234 C 0.0798 0.71636 0.29016 0.0
C3235 C 0.09487 0.7202 0.32771 0.0
N3236 N 0.10919 0.70197 0.28112 0.0
N3237 N 0.07578 0.74807 0.33168 0.0
H3238 H 0.10769 0.70772 0.35253 0.0
H3239 H 0.08996 0.72424 0.35701 0.0
H3240 H 0.06667 0.75867 0.32649 0.0
H3241 H 0.08291 0.75143 0.34465 0.0
H3242 H 0.10506 0.70266 0.26665 0.0
H3243 H 0.12316 0.69755 0.28376 0.0
H3244 H 0.07472 0.69896 0.26574 0.0
H3245 H 0.0555 0.71313 0.27139 0.0
C3246 C 0.78555 0.61475 0.31448 0.0
C3247 C 0.80139 0.61169 0.3273 0.0
C3248 C 0.79711 0.57708 0.32377 0.0
C3249 C 0.78379 0.58033 0.30835 0.0
N3250 N 0.76358 0.60149 0.28996 0.0
N3251 N 0.8215 0.59052 0.34584 0.0
C3252 C 0.7772 0.59897 0.30427 0.0
C3253 C 0.80667 0.59296 0.33278 0.0
N3254 N 0.77878 0.63279 0.31195 0.0
N3255 N 0.80093 0.55881 0.32935 0.0
H3256 H 0.82813 0.60191 0.35322 0.0
H3257 H 0.82765 0.57745 0.34906 0.0
H3258 H 0.79431 0.54697 0.32278 0.0
H3259 H 0.80948 0.55529 0.34129 0.0
H3260 H 0.76644 0.636 0.30389 0.0
H3261 H 0.78482 0.64457 0.31915 0.0
H3262 H 0.7596 0.61469 0.28448 0.0
H3263 H 0.75646 0.59004 0.28314 0.0
C3264 C 0.96937 0.311 0.33722 0.0
C3265 C 0.95795 0.32497 0.3277 0.0
C3266 C 0.9808 0.3266 0.30239 0.0
C3267 C 0.98976 0.31 0.30957 0.0
N3268 N 0.99417 0.28743 0.3353 0.0
N3269 N 0.96494 0.35478 0.31216 0.0
C3270 C 0.98448 0.30243 0.32744 0.0
C3271 C 0.96695 0.33551 0.31324 0.0
N3272 N 0.96823 0.30868 0.35647 0.0
N3273 N 0.98524 0.33378 0.28505 0.0
H3274 H 0.95784 0.36231 0.3225 0.0
H3275 H 0.97256 0.36329 0.30288 0.0
H3276 H 0.99493 0.32728 0.27635 0.0
H3277 H 0.97789 0.34514 0.27873 0.0
H3278 H 0.9772 0.29991 0.36466 0.0
H3279 H 0.9603 0.3179 0.36459 0.0
H3280 H 0.98945 0.27981 0.34699 0.0
H3281 H 1.00653 0.28215 0.32969 0.0
C3282 C 0.79908 0.44076 0.73 0.0
C3283 C 0.81043 0.44506 0.71424 0.0
C3284 C 0.80823 0.47934 0.72119 0.0
C3285 C 0.79821 0.47491 0.73782 0.0
N3286 N 0.77973 0.45253 0.75539 0.0
N3287 N 0.82173 0.46809 0.69186 0.0
C3288 C 0.7921 0.45592 0.74122 0.0
C3289 C 0.8135 0.4643 0.70878 0.0
N3290 N 0.79578 0.42213 0.73471 0.0
N3291 N 0.81375 0.49777 0.71797 0.0
H3292 H 0.8259 0.45732 0.68273 0.0
H3293 H 0.82305 0.48169 0.68612 0.0
H3294 H 0.80936 0.5091 0.72628 0.0
H3295 H 0.82311 0.50186 0.70758 0.0
H3296 H 0.78958 0.41779 0.74722 0.0
H3297 H 0.79992 0.41082 0.72623 0.0
H3298 H 0.77351 0.4393 0.75803 0.0
H3299 H 0.77442 0.46353 0.76358 0.0
C3300 C 0.08752 0.36058 0.7437 0.0
C3301 C 0.10447 0.35902 0.75531 0.0
C3302 C 0.08554 0.34647 0.78134 0.0
C3303 C 0.06928 0.34487 0.76854 0.0
N3304 N 0.05626 0.34724 0.73597 0.0
N3305 N 0.12005 0.34935 0.785 0.0
C3306 C 0.07052 0.35134 0.74935 0.0
C3307 C 0.10359 0.35186 0.77419 0.0
N3308 N 0.08775 0.37074 0.72708 0.0
N3309 N 0.08365 0.34312 0.80037 0.0
H3310 H 0.13341 0.35349 0.78039 0.0
H3311 H 0.12058 0.3421 0.79797 0.0
H3312 H 0.0706 0.33947 0.80605 0.0
H3313 H 0.09452 0.34571 0.81068 0.0
H3314 H 0.07543 0.3739 0.71891 0.0
H3315 H 0.1 0.37769 0.72258 0.0
H3316 H 0.05747 0.3499 0.72145 0.0
H3317 H 0.04409 0.33927 0.7388 0.0
C3318 C 0.94652 0.77465 0.72829 0.0
C3319 C 0.94611 0.75512 0.72287 0.0
C3320 C 0.97914 0.75186 0.73479 0.0
C3321 C 0.98013 0.77164 0.73956 0.0
N3322 N 0.96569 0.80259 0.7377 0.0
N3323 N 0.96389 0.7274 0.71486 0.0
C3324 C 0.96417 0.78334 0.73503 0.0
C3325 C 0.9631 0.74456 0.72403 0.0
N3326 N 0.92992 0.78459 0.72803 0.0
N3327 N 0.99283 0.73957 0.74146 0.0
H3328 H 0.95241 0.72173 0.70663 0.0
H3329 H 0.97652 0.71994 0.71369 0.0
H3330 H 1.00455 0.74362 0.75015 0.0
H3331 H 0.99146 0.72482 0.74003 0.0
H3332 H 0.92882 0.79818 0.73379 0.0
H3333 H 0.91688 0.7787 0.72312 0.0
H3334 H 0.95519 0.81208 0.73305 0.0
H3335 H 0.9781 0.80926 0.74327 0.0
C3336 C 0.73932 0.25401 0.57408 0.0
C3337 C 0.72908 0.23638 0.57415 0.0
C3338 C 0.73009 0.23447 0.53924 0.0
C3339 C 0.74102 0.25161 0.53931 0.0
N3340 N 0.75149 0.28034 0.55535 0.0
N3341 N 0.71047 0.21239 0.55683 0.0
C3342 C 0.74396 0.26233 0.55631 0.0
C3343 C 0.72303 0.22746 0.55668 0.0
N3344 N 0.74551 0.26224 0.59098 0.0
N3345 N 0.72729 0.22449 0.52257 0.0
H3346 H 0.70513 0.20693 0.5694 0.0
H3347 H 0.70417 0.20628 0.54452 0.0
H3348 H 0.73142 0.2299 0.50948 0.0
H3349 H 0.72157 0.21073 0.52176 0.0
H3350 H 0.75477 0.27396 0.59195 0.0
H3351 H 0.74238 0.25661 0.60427 0.0
H3352 H 0.75284 0.28963 0.56694 0.0
H3353 H 0.75469 0.28662 0.54238 0.0
C3354 C 0.32037 0.26902 0.62791 0.0
C3355 C 0.3366 0.25832 0.62352 0.0
C3356 C 0.33031 0.26519 0.58928 0.0
C3357 C 0.31304 0.27431 0.59357 0.0
N3358 N 0.28976 0.28121 0.61693 0.0
N3359 N 0.35581 0.24404 0.5999 0.0
C3360 C 0.30761 0.27531 0.61289 0.0
C3361 C 0.34125 0.25583 0.60414 0.0
N3362 N 0.3173 0.27353 0.6465 0.0
N3363 N 0.33659 0.26604 0.57112 0.0
H3364 H 0.36422 0.23718 0.61037 0.0
H3365 H 0.35863 0.2399 0.58605 0.0
H3366 H 0.32906 0.27287 0.55999 0.0
H3367 H 0.34997 0.26145 0.56741 0.0
H3368 H 0.30701 0.28314 0.65046 0.0
H3369 H 0.32615 0.26903 0.65793 0.0
H3370 H 0.28425 0.28021 0.63045 0.0
H3371 H 0.27965 0.28531 0.60648 0.0
C3372 C 0.3318 0.81748 0.59321 0.0
C3373 C 0.31499 0.82264 0.60247 0.0
C3374 C 0.29613 0.81334 0.57368 0.0
C3375 C 0.31244 0.80499 0.56609 0.0
N3376 N 0.34536 0.79623 0.57044 0.0
N3377 N 0.28051 0.82173 0.60245 0.0
C3378 C 0.33017 0.80619 0.57643 0.0
C3379 C 0.29691 0.81949 0.59299 0.0
N3380 N 0.34926 0.82413 0.59983 0.0
N3381 N 0.28032 0.81654 0.56219 0.0
H3382 H 0.28044 0.82545 0.61686 0.0
H3383 H 0.26712 0.81797 0.59644 0.0
H3384 H 0.27978 0.81359 0.54759 0.0
H3385 H 0.26872 0.82418 0.56672 0.0
H3386 H 0.36172 0.82195 0.59262 0.0
H3387 H 0.35096 0.83372 0.61117 0.0
H3388 H 0.35819 0.79533 0.57845 0.0
H3389 H 0.3444 0.78733 0.5585 0.0
C3390 C 0.72212 0.85171 0.5907 0.0
C3391 C 0.72309 0.84332 0.60918 0.0
C3392 C 0.74035 0.81627 0.59638 0.0
C3393 C 0.74172 0.82595 0.57876 0.0
N3394 N 0.73479 0.85302 0.55896 0.0
N3395 N 0.73498 0.81851 0.63023 0.0
C3396 C 0.73272 0.84368 0.57584 0.0
C3397 C 0.73253 0.82571 0.61216 0.0
N3398 N 0.71074 0.8671 0.58731 0.0
N3399 N 0.74647 0.79796 0.59791 0.0
H3400 H 0.72967 0.82502 0.64222 0.0
H3401 H 0.74358 0.80692 0.6336 0.0
H3402 H 0.75198 0.79078 0.58645 0.0
H3403 H 0.74434 0.78935 0.60975 0.0
H3404 H 0.70804 0.87288 0.5738 0.0
H3405 H 0.70266 0.87314 0.59783 0.0
H3406 H 0.73048 0.86698 0.5565 0.0
H3407 H 0.74182 0.847 0.54766 0.0
C3408 C 0.69883 0.80085 0.4671 0.0
C3409 C 0.70317 0.79132 0.44997 0.0
C3410 C 0.73126 0.77703 0.46621 0.0
C3411 C 0.72712 0.78686 0.48323 0.0
N3412 N 0.70512 0.80457 0.50135 0.0
N3413 N 0.72089 0.7674 0.43402 0.0
C3414 C 0.71025 0.79763 0.48411 0.0
C3415 C 0.71851 0.77836 0.44985 0.0
N3416 N 0.68418 0.8135 0.46687 0.0
N3417 N 0.74797 0.76735 0.46533 0.0
H3418 H 0.71213 0.76841 0.42164 0.0
H3419 H 0.73053 0.75629 0.43358 0.0
H3420 H 0.7573 0.76551 0.47714 0.0
H3421 H 0.75314 0.76199 0.45275 0.0
H3422 H 0.68159 0.82264 0.47813 0.0
H3423 H 0.67503 0.81556 0.45492 0.0
H3424 H 0.69219 0.81114 0.50349 0.0
H3425 H 0.7132 0.80226 0.51399 0.0
C3426 C 0.71993 0.20158 0.43034 0.0
C3427 C 0.72981 0.19151 0.41621 0.0
C3428 C 0.76008 0.19966 0.43318 0.0
C3429 C 0.75081 0.21218 0.44544 0.0
N3430 N 0.72129 0.2236 0.45723 0.0
N3431 N 0.75573 0.16925 0.41818 0.0
C3432 C 0.73051 0.2128 0.44443 0.0
C3433 C 0.74907 0.18708 0.42125 0.0
N3434 N 0.70104 0.19763 0.43245 0.0
N3435 N 0.77948 0.19965 0.4328 0.0
H3436 H 0.74658 0.15808 0.41371 0.0
H3437 H 0.7693 0.16501 0.42303 0.0
H3438 H 0.78813 0.20927 0.44071 0.0
H3439 H 0.7866 0.19132 0.42313 0.0
H3440 H 0.6931 0.20324 0.44326 0.0
H3441 H 0.69404 0.18646 0.42508 0.0
H3442 H 0.70687 0.22682 0.45566 0.0
H3443 H 0.72819 0.22986 0.46916 0.0
C3444 C 0.27973 0.22316 0.46088 0.0
C3445 C 0.2937 0.20873 0.46115 0.0
C3446 C 0.29385 0.20774 0.49617 0.0
C3447 C 0.27892 0.22106 0.49576 0.0
N3448 N 0.25581 0.23983 0.47823 0.0
N3449 N 0.31264 0.18554 0.47857 0.0
C3450 C 0.27136 0.22834 0.47821 0.0
C3451 C 0.30039 0.20052 0.47869 0.0
N3452 N 0.27483 0.23216 0.4441 0.0
N3453 N 0.30218 0.20257 0.51335 0.0
H3454 H 0.31813 0.18021 0.46609 0.0
H3455 H 0.31641 0.17758 0.49065 0.0
H3456 H 0.29751 0.20756 0.52632 0.0
H3457 H 0.31449 0.19448 0.51474 0.0
H3458 H 0.26618 0.24408 0.44318 0.0
H3459 H 0.28058 0.22857 0.43113 0.0
H3460 H 0.24839 0.24436 0.46589 0.0
H3461 H 0.2494 0.24372 0.49076 0.0
C3462 C 0.29889 0.79833 0.41907 0.0
C3463 C 0.3033 0.81805 0.42027 0.0
C3464 C 0.29481 0.81787 0.45403 0.0
C3465 C 0.2932 0.79763 0.45346 0.0
N3466 N 0.29736 0.76837 0.43571 0.0
N3467 N 0.30758 0.84646 0.43944 0.0
C3468 C 0.29621 0.7878 0.43605 0.0
C3469 C 0.3016 0.82787 0.43785 0.0
N3470 N 0.29684 0.78966 0.4016 0.0
N3471 N 0.29043 0.82754 0.47015 0.0
H3472 H 0.31289 0.85416 0.42806 0.0
H3473 H 0.3088 0.85383 0.45235 0.0
H3474 H 0.2866 0.82083 0.48269 0.0
H3475 H 0.28926 0.84231 0.47068 0.0
H3476 H 0.29162 0.77577 0.39976 0.0
H3477 H 0.29842 0.79695 0.38878 0.0
H3478 H 0.30183 0.76082 0.42395 0.0
H3479 H 0.29537 0.75974 0.44754 0.0
C3480 C 0.63222 0.2664 0.72016 0.0
C3481 C 0.62785 0.24957 0.70949 0.0
C3482 C 0.59395 0.2528 0.716 0.0
C3483 C 0.59809 0.27066 0.72476 0.0
N3484 N 0.62047 0.29539 0.73428 0.0
N3485 N 0.60468 0.227 0.69619 0.0
C3486 C 0.61709 0.27764 0.72674 0.0
C3487 C 0.60873 0.24273 0.70724 0.0
N3488 N 0.65086 0.27149 0.72408 0.0
N3489 N 0.57588 0.24537 0.71647 0.0
H3490 H 0.61522 0.21889 0.69018 0.0
H3491 H 0.5909 0.2225 0.69213 0.0
H3492 H 0.56483 0.25258 0.72269 0.0
H3493 H 0.57211 0.23161 0.71205 0.0
H3494 H 0.65516 0.2826 0.73322 0.0
H3495 H 0.66222 0.26359 0.71936 0.0
H3496 H 0.63368 0.30234 0.73445 0.0
H3497 H 0.60961 0.30381 0.73926 0.0
C3498 C 0.32245 0.1247 0.74923 0.0
C3499 C 0.34027 0.12613 0.74044 0.0
C3500 C 0.34627 0.09263 0.74852 0.0
C3501 C 0.32727 0.09039 0.75412 0.0
N3502 N 0.29638 0.10397 0.75803 0.0
N3503 N 0.36834 0.11052 0.72965 0.0
C3504 C 0.31516 0.1064 0.75427 0.0
C3505 C 0.35213 0.1099 0.73975 0.0
N3506 N 0.31262 0.14084 0.75298 0.0
N3507 N 0.35859 0.07793 0.75141 0.0
H3508 H 0.37282 0.12257 0.72231 0.0
H3509 H 0.37644 0.09855 0.72703 0.0
H3510 H 0.35444 0.0652 0.75784 0.0
H3511 H 0.37315 0.07906 0.74924 0.0
H3512 H 0.30045 0.14084 0.76097 0.0
H3513 H 0.31767 0.15445 0.7497 0.0
H3514 H 0.28633 0.11466 0.75618 0.0
H3515 H 0.29057 0.09083 0.76169 0.0
C3516 C 0.4472 0.825 0.71825 0.0
C3517 C 0.43144 0.81671 0.72742 0.0
C3518 C 0.45198 0.79153 0.74066 0.0
C3519 C 0.46776 0.80006 0.73189 0.0
N3520 N 0.48162 0.8268 0.71597 0.0
N3521 N 0.4194 0.79468 0.75042 0.0
C3522 C 0.46572 0.81741 0.72179 0.0
C3523 C 0.43407 0.80079 0.73968 0.0
N3524 N 0.44433 0.83953 0.70551 0.0
N3525 N 0.45399 0.77411 0.74916 0.0
H3526 H 0.40617 0.80131 0.74999 0.0
H3527 H 0.4208 0.78424 0.76092 0.0
H3528 H 0.46688 0.76688 0.74979 0.0
H3529 H 0.44266 0.76614 0.75422 0.0
H3530 H 0.4548 0.84463 0.69668 0.0
H3531 H 0.4311 0.8458 0.70287 0.0
H3532 H 0.48142 0.84046 0.71019 0.0
H3533 H 0.49533 0.8215 0.71844 0.0
C3534 C 0.71305 0.98344 0.73038 0.0
C3535 C 0.71999 0.96512 0.73546 0.0
C3536 C 0.74393 0.97973 0.75779 0.0
C3537 C 0.73747 0.998 0.75214 0.0
N3538 N 0.71829 0.01778 0.73133 0.0
N3539 N 0.74339 0.94558 0.75198 0.0
C3540 C 0.72266 0.99999 0.73795 0.0
C3541 C 0.73589 0.9632 0.74856 0.0
N3542 N 0.69708 0.98495 0.7186 0.0
N3543 N 0.75734 0.97833 0.77245 0.0
H3544 H 0.73753 0.93312 0.74589 0.0
H3545 H 0.7561 0.94332 0.75981 0.0
H3546 H 0.76343 0.99025 0.77937 0.0
H3547 H 0.76155 0.96551 0.77866 0.0
H3548 H 0.69001 0.99769 0.716 0.0
H3549 H 0.69017 0.9732 0.71215 0.0
H3550 H 0.70899 0.02034 0.71965 0.0
H3551 H 0.72512 0.03008 0.73672 0.0
C3552 C 0.56327 0.78994 0.32105 0.0
C3553 C 0.58126 0.78241 0.31701 0.0
C3554 C 0.56506 0.75663 0.29841 0.0
C3555 C 0.54726 0.76589 0.29988 0.0
N3556 N 0.53027 0.79351 0.31085 0.0
N3557 N 0.59965 0.75924 0.30079 0.0
C3558 C 0.54651 0.78299 0.31094 0.0
C3559 C 0.58226 0.76586 0.30547 0.0
N3560 N 0.56216 0.80377 0.3347 0.0
N3561 N 0.56544 0.73872 0.29079 0.0
H3562 H 0.61248 0.76529 0.30614 0.0
H3563 H 0.60139 0.74864 0.29064 0.0
H3564 H 0.5531 0.7313 0.28614 0.0
H3565 H 0.57765 0.73046 0.29088 0.0
H3566 H 0.5493 0.80828 0.3399 0.0
H3567 H 0.57412 0.80944 0.34217 0.0
H3568 H 0.52986 0.80724 0.31647 0.0
H3569 H 0.51752 0.78956 0.30378 0.0
C3570 C 0.71555 0.07635 0.27551 0.0
C3571 C 0.70064 0.07572 0.28858 0.0
C3572 C 0.70453 0.0411 0.29222 0.0
C3573 C 0.71993 0.04186 0.27976 0.0
N3574 N 0.73786 0.059 0.25664 0.0
N3575 N 0.6785 0.05743 0.30676 0.0
C3576 C 0.7246 0.05912 0.27035 0.0
C3577 C 0.69428 0.05801 0.29599 0.0
N3578 N 0.72147 0.09358 0.26862 0.0
N3579 N 0.70023 0.02424 0.30094 0.0
H3580 H 0.67113 0.06958 0.31046 0.0
H3581 H 0.67189 0.0449 0.31109 0.0
H3582 H 0.7066 1.01142 0.29747 0.0
H3583 H 0.69088 0.0229 0.31199 0.0
H3584 H 0.73369 0.09557 0.26095 0.0
H3585 H 0.71453 0.10629 0.2713 0.0
H3586 H 0.7409 0.07061 0.24801 0.0
H3587 H 0.74502 0.04676 0.25284 0.0
C3588 C 0.44108 0.21212 0.3519 0.0
C3589 C 0.42305 0.22073 0.34842 0.0
C3590 C 0.4384 0.24697 0.33138 0.0
C3591 C 0.45617 0.23783 0.33393 0.0
N3592 N 0.47429 0.21049 0.34363 0.0
N3593 N 0.40392 0.24452 0.33217 0.0
C3594 C 0.45746 0.22003 0.34335 0.0
C3595 C 0.42153 0.23765 0.33735 0.0
N3596 N 0.44263 0.19679 0.36388 0.0
N3597 N 0.43785 0.2649 0.3238 0.0
H3598 H 0.39127 0.23804 0.33627 0.0
H3599 H 0.40173 0.25565 0.32255 0.0
H3600 H 0.45003 0.27199 0.31931 0.0
H3601 H 0.42574 0.2733 0.32331 0.0
H3602 H 0.45561 0.19113 0.36864 0.0
H3603 H 0.43093 0.1905 0.3702 0.0
H3604 H 0.47584 0.19658 0.34854 0.0
H3605 H 0.48645 0.21603 0.33746 0.0
C3606 C 0.30748 0.94631 0.28957 0.0
C3607 C 0.30089 0.92789 0.28374 0.0
C3608 C 0.27265 0.94156 0.26757 0.0
C3609 C 0.27862 0.95981 0.27444 0.0
N3610 N 0.30342 0.98061 0.28763 0.0
N3611 N 0.27997 0.90804 0.26385 0.0
C3612 C 0.29674 0.96253 0.28386 0.0
C3613 C 0.28438 0.92556 0.27153 0.0
N3614 N 0.32349 0.94812 0.30135 0.0
N3615 N 0.25539 0.93958 0.25789 0.0
H3616 H 0.28819 0.89603 0.26676 0.0
H3617 H 0.26902 0.90554 0.25361 0.0
H3618 H 0.24719 0.95127 0.25371 0.0
H3619 H 0.2489 0.92653 0.2544 0.0
H3620 H 0.32789 0.96079 0.30802 0.0
H3621 H 0.33203 0.93661 0.3053 0.0
H3622 H 0.31715 0.98376 0.29303 0.0
H3623 H 0.29573 0.99272 0.28383 0.0
C3624 C 0.74598 0.10597 0.7069 0.0
C3625 C 0.75172 0.12523 0.7103 0.0
C3626 C 0.77641 0.11469 0.73384 0.0
C3627 C 0.77019 0.0955 0.731 0.0
N3628 N 0.75212 0.07225 0.71234 0.0
N3629 N 0.77491 0.14775 0.72351 0.0
C3630 C 0.75603 0.09096 0.71657 0.0
C3631 C 0.76783 0.1295 0.72262 0.0
N3632 N 0.73039 0.10214 0.69504 0.0
N3633 N 0.79002 0.11877 0.74788 0.0
H3634 H 0.76879 0.15891 0.71566 0.0
H3635 H 0.78762 0.15164 0.73079 0.0
H3636 H 0.79735 0.10817 0.75546 0.0
H3637 H 0.79357 0.13251 0.75254 0.0
H3638 H 0.72402 0.08872 0.69345 0.0
H3639 H 0.72317 0.11271 0.68728 0.0
H3640 H 0.74309 0.06771 0.70102 0.0
H3641 H 0.75917 0.0611 0.71936 0.0
C3642 C 0.71664 0.90787 0.3067 0.0
C3643 C 0.70576 0.91017 0.32315 0.0
C3644 C 0.71546 0.94402 0.32494 0.0
C3645 C 0.72626 0.94167 0.30856 0.0
N3646 N 0.73368 0.92307 0.28125 0.0
N3647 N 0.69138 0.93112 0.34543 0.0
C3648 C 0.72566 0.9241 0.29858 0.0
C3649 C 0.70407 0.92853 0.33147 0.0
N3650 N 0.71924 0.89004 0.29947 0.0
N3651 N 0.71666 0.96095 0.33456 0.0
H3652 H 0.68275 0.92009 0.35032 0.0
H3653 H 0.6882 0.94439 0.35102 0.0
H3654 H 0.72437 0.97264 0.3296 0.0
H3655 H 0.71093 0.96315 0.34781 0.0
H3656 H 0.72878 0.88712 0.28893 0.0
H3657 H 0.7128 0.87783 0.30488 0.0
H3658 H 0.7324 0.91125 0.27228 0.0
H3659 H 0.74012 0.93487 0.27507 0.0
C3660 C 0.56767 0.20236 0.32256 0.0
C3661 C 0.58258 0.2017 0.30957 0.0
C3662 C 0.56024 0.21312 0.28409 0.0
C3663 C 0.54621 0.21627 0.29773 0.0
N3664 N 0.53917 0.21844 0.33121 0.0
N3665 N 0.59387 0.2097 0.27849 0.0
C3666 C 0.55057 0.21206 0.31732 0.0
C3667 C 0.57909 0.20793 0.29043 0.0
N3668 N 0.56963 0.19341 0.33983 0.0
N3669 N 0.55546 0.21453 0.26503 0.0
H3670 H 0.6079 0.20648 0.28266 0.0
H3671 H 0.59251 0.21606 0.26508 0.0
H3672 H 0.54174 0.21779 0.25984 0.0
H3673 H 0.56456 0.21059 0.25442 0.0
H3674 H 0.55844 0.1919 0.34903 0.0
H3675 H 0.58173 0.18575 0.34405 0.0
H3676 H 0.54282 0.21727 0.34575 0.0
H3677 H 0.52733 0.22694 0.32845 0.0
C3678 C 0.29521 0.08982 0.31313 0.0
C3679 C 0.29856 0.09369 0.33291 0.0
C3680 C 0.28008 0.06491 0.34035 0.0
C3681 C 0.27913 0.05971 0.32081 0.0
N3682 N 0.29099 0.06498 0.28939 0.0
N3683 N 0.2983 0.08168 0.3653 0.0
C3684 C 0.28811 0.07155 0.30734 0.0
C3685 C 0.29216 0.08031 0.34656 0.0
N3686 N 0.29822 0.10365 0.29986 0.0
N3687 N 0.26906 0.05547 0.35294 0.0
H3688 H 0.3082 0.09194 0.37029 0.0
H3689 H 0.29526 0.07129 0.37539 0.0
H3690 H 0.2594 0.0447 0.34866 0.0
H3691 H 0.26802 0.05979 0.36709 0.0
H3692 H 0.29433 0.10189 0.28542 0.0
H3693 H 0.30264 0.11748 0.30351 0.0
H3694 H 0.29885 0.07259 0.27959 0.0
H3695 H 0.28763 0.05106 0.28512 0.0
C3696 C 0.44096 0.82957 0.29366 0.0
C3697 C 0.42941 0.81513 0.30177 0.0
C3698 C 0.45276 0.79145 0.29291 0.0
C3699 C 0.46231 0.80533 0.28195 0.0
N3700 N 0.46263 0.83704 0.26878 0.0
N3701 N 0.42251 0.7814 0.30493 0.0
C3702 C 0.45558 0.82426 0.28143 0.0
C3703 C 0.43476 0.79576 0.3002 0.0
N3704 N 0.43854 0.84829 0.29817 0.0
N3705 N 0.46126 0.77456 0.29735 0.0
H3706 H 0.40881 0.78384 0.30944 0.0
H3707 H 0.42528 0.76709 0.30234 0.0
H3708 H 0.47516 0.77156 0.29383 0.0
H3709 H 0.4554 0.76463 0.30656 0.0
H3710 H 0.44769 0.85912 0.2938 0.0
H3711 H 0.42882 0.85273 0.30803 0.0
H3712 H 0.457 0.85058 0.26672 0.0
H3713 H 0.47262 0.83334 0.25889 0.0
C3714 C 0.29521 0.94412 0.7438 0.0
C3715 C 0.3097 0.94339 0.73031 0.0
C3716 C 0.31268 0.97825 0.73087 0.0
C3717 C 0.29839 0.97912 0.74462 0.0
N3718 N 0.27345 0.96343 0.76147 0.0
N3719 N 0.32898 0.95958 0.70762 0.0
C3720 C 0.28868 0.9622 0.75006 0.0
C3721 C 0.31728 0.96043 0.72269 0.0
N3722 N 0.28825 0.9275 0.75113 0.0
N3723 N 0.32259 0.99439 0.7263 0.0
H3724 H 0.33326 0.94679 0.70168 0.0
H3725 H 0.33321 0.97149 0.69994 0.0
H3726 H 0.31912 1.00784 0.73117 0.0
H3727 H 0.33492 0.9944 0.71857 0.0
H3728 H 0.27932 0.92682 0.76256 0.0
H3729 H 0.2922 0.91412 0.74629 0.0
H3730 H 0.26473 0.95191 0.76481 0.0
H3731 H 0.2686 0.97636 0.76655 0.0
C3732 C 0.60118 0.83047 0.74869 0.0
C3733 C 0.59953 0.83713 0.72955 0.0
C3734 C 0.56599 0.82678 0.72753 0.0
C3735 C 0.56706 0.82189 0.74726 0.0
N3736 N 0.58487 0.82263 0.77751 0.0
N3737 N 0.57915 0.84584 0.7024 0.0
C3738 C 0.58445 0.82479 0.75812 0.0
C3739 C 0.58154 0.83661 0.7195 0.0
N3740 N 0.61878 0.8288 0.75764 0.0
N3741 N 0.55074 0.82094 0.71604 0.0
H3742 H 0.5901 0.85347 0.69616 0.0
H3743 H 0.56584 0.84754 0.69544 0.0
H3744 H 0.5395 0.81264 0.72084 0.0
H3745 H 0.55029 0.82249 0.70124 0.0
H3746 H 0.621 0.82214 0.77082 0.0
H3747 H 0.6314 0.83249 0.75115 0.0
H3748 H 0.59664 0.82636 0.78637 0.0
H3749 H 0.57281 0.81888 0.78493 0.0
C3750 C 0.47445 0.24819 0.76268 0.0
C3751 C 0.47148 0.24209 0.7434 0.0
C3752 C 0.5043 0.25195 0.7372 0.0
C3753 C 0.50813 0.25538 0.75706 0.0
N3754 N 0.49728 0.25337 0.78921 0.0
N3755 N 0.48521 0.23434 0.71342 0.0
C3756 C 0.4933 0.25257 0.76996 0.0
C3757 C 0.48688 0.24284 0.73097 0.0
N3758 N 0.45921 0.25039 0.7739 0.0
N3759 N 0.51666 0.25839 0.72404 0.0
H3760 H 0.47291 0.2271 0.70841 0.0
H3761 H 0.49672 0.23284 0.70467 0.0
H3762 H 0.52887 0.26647 0.72761 0.0
H3763 H 0.51356 0.25776 0.70937 0.0
H3764 H 0.46035 0.25657 0.78743 0.0
H3765 H 0.44516 0.24789 0.76892 0.0
H3766 H 0.48739 0.2496 0.79926 0.0
H3767 H 0.51099 0.25587 0.79514 0.0
C3768 C 0.73795 0.72638 0.0691 0.0
C3769 C 0.7208 0.71546 0.0671 0.0
C3770 C 0.72422 0.71359 0.03244 0.0
C3771 C 0.74158 0.72409 0.03454 0.0
N3772 N 0.76719 0.73677 0.05475 0.0
N3773 N 0.69924 0.6957 0.04771 0.0
C3774 C 0.74911 0.72933 0.0529 0.0
C3775 C 0.71442 0.70814 0.04899 0.0
N3776 N 0.74324 0.73445 0.08634 0.0
N3777 N 0.71677 0.70951 0.01455 0.0
H3778 H 0.69158 0.69164 0.0595 0.0
H3779 H 0.69508 0.68831 0.03529 0.0
H3780 H 0.72402 0.71264 1.00228 0.0
H3781 H 0.70308 0.70398 1.0118 0.0
H3782 H 0.75444 0.74425 0.08824 0.0
H3783 H 0.73552 0.73248 0.09858 0.0
H3784 H 0.77434 0.73938 0.06785 0.0
H3785 H 0.77575 0.73861 0.04308 0.0
C3786 C 0.3025 0.73819 0.09425 0.0
C3787 C 0.31213 0.72114 0.09024 0.0
C3788 C 0.30231 0.72444 0.05617 0.0
C3789 C 0.29524 0.7429 0.05986 0.0
N3790 N 0.29065 0.76832 0.08245 0.0
N3791 N 0.32251 0.69844 0.06723 0.0
C3792 C 0.29581 0.74999 0.07894 0.0
C3793 C 0.31217 0.71421 0.07117 0.0
N3794 N 0.2994 0.74295 0.11277 0.0
N3795 N 0.29994 0.71684 0.03824 0.0
H3796 H 0.32987 0.69063 0.07777 0.0
H3797 H 0.32498 0.69384 0.05345 0.0
H3798 H 0.29348 0.72417 0.02681 0.0
H3799 H 0.303 0.70276 0.035 0.0
H3800 H 0.2907 0.75411 0.11656 0.0
H3801 H 0.30396 0.73458 0.12435 0.0
H3802 H 0.29305 0.77502 0.09563 0.0
H3803 H 0.28528 0.7774 0.07187 0.0
C3804 C 0.29729 0.3064 0.09928 0.0
C3805 C 0.31061 0.32148 0.09681 0.0
C3806 C 0.30484 0.31917 0.06197 0.0
C3807 C 0.29363 0.30235 0.06432 0.0
N3808 N 0.28193 0.27815 0.08575 0.0
N3809 N 0.32853 0.34133 0.07585 0.0
C3810 C 0.29039 0.29557 0.08312 0.0
C3811 C 0.31475 0.32767 0.07815 0.0
N3812 N 0.29114 0.30244 0.11711 0.0
N3813 N 0.30549 0.32741 0.04434 0.0
H3814 H 0.33576 0.34812 0.08734 0.0
H3815 H 0.33378 0.34493 0.06264 0.0
H3816 H 0.29796 0.32194 0.03233 0.0
H3817 H 0.31188 0.34063 0.04196 0.0
H3818 H 0.2798 0.29316 0.11957 0.0
H3819 H 0.29618 0.30976 0.12933 0.0
H3820 H 0.28082 0.27183 0.0991 0.0
H3821 H 0.27767 0.26899 0.07465 0.0
C3822 C 0.73477 0.30551 0.13929 0.0
C3823 C 0.72449 0.3226 0.13614 0.0
C3824 C 0.72976 0.32048 0.1018 0.0
C3825 C 0.73823 0.3025 0.10473 0.0
N3826 N 0.74704 0.27661 0.12554 0.0
N3827 N 0.7103 0.34549 0.11432 0.0
C3828 C 0.74039 0.29471 0.12332 0.0
C3829 C 0.72155 0.32993 0.11735 0.0
N3830 N 0.73949 0.29985 0.15754 0.0
N3831 N 0.72986 0.32855 0.08407 0.0
H3832 H 0.70405 0.35279 0.12534 0.0
H3833 H 0.70597 0.35036 0.10081 0.0
H3834 H 0.7358 0.32179 0.07251 0.0
H3835 H 0.72558 0.34242 0.08114 0.0
H3836 H 0.74862 0.28863 0.1608 0.0
H3837 H 0.73546 0.30731 0.16955 0.0
H3838 H 0.74712 0.2692 0.13841 0.0
H3839 H 0.75129 0.26845 0.11408 0.0
C3840 C 0.76177 0.30628 0.96935 0.0
C3841 C 0.74352 0.31466 0.96995 0.0
C3842 C 0.74288 0.30735 1.00429 0.0
C3843 C 0.76178 0.30043 1.00393 0.0
N3844 N 0.79072 0.29734 0.98695 0.0
N3845 N 0.71814 0.32636 0.98864 0.0
C3846 C 0.77169 0.30113 0.9867 0.0
C3847 C 0.73442 0.31603 0.98761 0.0
N3848 N 0.76936 0.30252 0.95214 0.0
N3849 N 0.73301 0.30568 0.02059 0.0
H3850 H 0.71172 0.3332 0.97686 0.0
H3851 H 0.7119 0.32961 1.00142 0.0
H3852 H 0.73908 0.30051 0.03337 0.0
H3853 H 0.71848 0.30832 0.02116 0.0
H3854 H 0.78162 0.29453 0.95075 0.0
H3855 H 0.76245 0.30576 0.93908 0.0
H3856 H 0.79912 0.29948 0.97524 0.0
H3857 H 0.79851 0.29377 0.99937 0.0
C3858 C 0.73173 0.73524 0.94627 0.0
C3859 C 0.73634 0.73911 0.92715 0.0
C3860 C 0.74296 0.77279 0.93571 0.0
C3861 C 0.73703 0.76911 0.95455 0.0
N3862 N 0.72203 0.74784 0.97646 0.0
N3863 N 0.7479 0.76073 0.9036 0.0
C3864 C 0.73072 0.75053 0.95958 0.0
C3865 C 0.7426 0.75768 0.92192 0.0
N3866 N 0.72821 0.71688 0.95172 0.0
N3867 N 0.7481 0.79099 0.93088 0.0
H3868 H 0.74857 0.74976 0.89361 0.0
H3869 H 0.75194 0.77383 0.89808 0.0
H3870 H 0.74808 0.80234 0.94049 0.0
H3871 H 0.75231 0.79524 0.91751 0.0
H3872 H 0.72689 0.71283 0.9659 0.0
H3873 H 0.72823 0.70541 0.94226 0.0
H3874 H 0.71431 0.73555 0.97957 0.0
H3875 H 0.72108 0.75852 0.98671 0.0
C3876 C 0.3426 0.72887 0.95039 0.0
C3877 C 0.33532 0.73217 0.93143 0.0
C3878 C 0.31478 0.75738 0.94304 0.0
C3879 C 0.32169 0.75369 0.96196 0.0
N3880 N 0.33995 0.73483 0.9844 0.0
N3881 N 0.31324 0.74797 0.90959 0.0
C3882 C 0.33501 0.73911 0.96583 0.0
C3883 C 0.32098 0.74596 0.92773 0.0
N3884 N 0.35701 0.71618 0.95353 0.0
N3885 N 0.30259 0.77218 0.93984 0.0
H3886 H 0.31789 0.74031 0.89796 0.0
H3887 H 0.30151 0.75637 0.90608 0.0
H3888 H 0.29766 0.78048 0.95089 0.0
H3889 H 0.29811 0.77698 0.92636 0.0
H3890 H 0.36447 0.71457 0.96659 0.0
H3891 H 0.36224 0.70773 0.94274 0.0
H3892 H 0.34808 0.72315 0.9886 0.0
H3893 H 0.33487 0.74247 0.99585 0.0
C3894 C 0.34416 0.30389 0.93682 0.0
C3895 C 0.35812 0.318 0.94212 0.0
C3896 C 0.36055 0.30509 0.97473 0.0
C3897 C 0.34688 0.29083 0.96934 0.0
N3898 N 0.327 0.27502 0.94527 0.0
N3899 N 0.38138 0.33102 0.96506 0.0
C3900 C 0.33913 0.28974 0.95032 0.0
C3901 C 0.36689 0.31827 0.9608 0.0
N3902 N 0.33539 0.30438 0.91898 0.0
N3903 N 0.36706 0.30615 0.99338 0.0
H3904 H 0.386 0.34114 0.95532 0.0
H3905 H 0.38962 0.33099 0.97777 0.0
H3906 H 0.36309 0.2962 1.00358 0.0
H3907 H 0.37558 0.31721 0.99902 0.0
H3908 H 0.32362 0.29598 0.91475 0.0
H3909 H 0.33931 0.31395 0.90842 0.0
H3910 H 0.32217 0.27199 0.93133 0.0
H3911 H 0.32251 0.265 0.95508 0.0
C3912 C 0.60038 0.74807 0.19924 0.0
C3913 C 0.59808 0.73214 0.18677 0.0
C3914 C 0.56324 0.7346 0.18749 0.0
C3915 C 0.56556 0.75063 0.19969 0.0
N3916 N 0.58552 0.77446 0.21524 0.0
N3917 N 0.57778 0.71189 0.16658 0.0
C3918 C 0.58395 0.75794 0.20493 0.0
C3919 C 0.5796 0.72594 0.1801 0.0
N3920 N 0.61825 0.75337 0.20603 0.0
N3921 N 0.54533 0.72731 0.18363 0.0
H3922 H 0.58945 0.70497 0.16119 0.0
H3923 H 0.56488 0.70792 0.1597 0.0
H3924 H 0.53314 0.73368 0.18855 0.0
H3925 H 0.54252 0.71446 0.17656 0.0
H3926 H 0.62093 0.7635 0.21669 0.0
H3927 H 0.6306 0.74692 0.20159 0.0
H3928 H 0.59832 0.78173 0.21826 0.0
H3929 H 0.57362 0.78166 0.21977 0.0
C3930 C 0.29044 0.58547 0.21082 0.0
C3931 C 0.3034 0.58296 0.19606 0.0
C3932 C 0.29644 0.54843 0.19583 0.0
C3933 C 0.28254 0.55117 0.20956 0.0
N3934 N 0.26513 0.572 0.22938 0.0
N3935 N 0.31822 0.56256 0.17357 0.0
C3936 C 0.27927 0.56964 0.21688 0.0
C3937 C 0.30631 0.56453 0.18834 0.0
N3938 N 0.289 0.60299 0.21919 0.0
N3939 N 0.30028 0.53029 0.19023 0.0
H3940 H 0.32626 0.57388 0.16836 0.0
H3941 H 0.31957 0.55002 0.16587 0.0
H3942 H 0.29276 0.51844 0.19509 0.0
H3943 H 0.31145 0.52678 0.18168 0.0
H3944 H 0.28141 0.6055 0.23133 0.0
H3945 H 0.29645 0.61503 0.21473 0.0
H3946 H 0.26036 0.58515 0.23388 0.0
H3947 H 0.25728 0.56056 0.23447 0.0
C3948 C 0.43893 0.27696 0.22544 0.0
C3949 C 0.43939 0.29639 0.21965 0.0
C3950 C 0.47151 0.29985 0.23471 0.0
C3951 C 0.47207 0.2799 0.23836 0.0
N3952 N 0.45718 0.24889 0.23412 0.0
N3953 N 0.45811 0.32501 0.21496 0.0
C3954 C 0.45599 0.26827 0.23287 0.0
C3955 C 0.45629 0.30743 0.22312 0.0
N3956 N 0.42207 0.26696 0.22455 0.0
N3957 N 0.48481 0.31188 0.24327 0.0
H3958 H 0.44753 0.33093 0.20597 0.0
H3959 H 0.47088 0.33279 0.2155 0.0
H3960 H 0.49536 0.3073 0.25307 0.0
H3961 H 0.48394 0.32667 0.24246 0.0
H3962 H 0.42047 0.25341 0.23039 0.0
H3963 H 0.40923 0.27289 0.2196 0.0
H3964 H 0.44661 0.23963 0.22853 0.0
H3965 H 0.4695 0.24202 0.23908 0.0
C3966 C 0.71095 0.46774 0.24338 0.0
C3967 C 0.71453 0.45077 0.25385 0.0
C3968 C 0.73778 0.46786 0.275 0.0
C3969 C 0.73626 0.48392 0.2628 0.0
N3970 N 0.72143 0.49985 0.23567 0.0
N3971 N 0.73158 0.43401 0.27915 0.0
C3972 C 0.72269 0.48412 0.24716 0.0
C3973 C 0.72783 0.4507 0.26972 0.0
N3974 N 0.69615 0.46817 0.23 0.0
N3975 N 0.7488 0.46903 0.29156 0.0
H3976 H 0.72429 0.42127 0.27592 0.0
H3977 H 0.74267 0.43242 0.28936 0.0
H3978 H 0.75632 0.48138 0.29572 0.0
H3979 H 0.74921 0.45847 0.30198 0.0
H3980 H 0.69155 0.48051 0.2231 0.0
H3981 H 0.68741 0.45634 0.2268 0.0
H3982 H 0.71367 0.50019 0.22267 0.0
H3983 H 0.72883 0.51256 0.23883 0.0
C3984 C 0.61967 0.30516 0.83175 0.0
C3985 C 0.62171 0.32441 0.83797 0.0
C3986 C 0.58918 0.33073 0.82555 0.0
C3987 C 0.58639 0.31108 0.82098 0.0
N3988 N 0.59796 0.27893 0.82328 0.0
N3989 N 0.60659 0.35403 0.84523 0.0
C3990 C 0.60135 0.29808 0.82515 0.0
C3991 C 0.60586 0.33669 0.8363 0.0
N3992 N 0.63532 0.29384 0.83134 0.0
N3993 N 0.57669 0.34403 0.81848 0.0
H3994 H 0.61842 0.35878 0.85355 0.0
H3995 H 0.59475 0.36274 0.84602 0.0
H3996 H 0.56506 0.34071 0.80926 0.0
H3997 H 0.57916 0.35865 0.81989 0.0
H3998 H 0.63506 0.28039 0.82503 0.0
H3999 H 0.64897 0.29851 0.83582 0.0
H4000 H 0.60773 0.26869 0.82787 0.0
H4001 H 0.58467 0.27325 0.81885 0.0
C4002 C 0.75624 0.60012 0.7977 0.0
C4003 C 0.74685 0.59944 0.81524 0.0
C4004 C 0.75601 0.56589 0.81929 0.0
C4005 C 0.76448 0.5663 0.80121 0.0
N4006 N 0.76926 0.58267 0.7715 0.0
N4007 N 0.73505 0.58098 0.84129 0.0
C4008 C 0.76348 0.58306 0.78986 0.0
C4009 C 0.74601 0.58212 0.82567 0.0
N4010 N 0.7588 0.61727 0.78885 0.0
N4011 N 0.7576 0.54994 0.83042 0.0
H4012 H 0.72783 0.59261 0.84658 0.0
H4013 H 0.732 0.56828 0.84826 0.0
H4014 H 0.76328 0.53724 0.8256 0.0
H4015 H 0.75406 0.54949 0.84468 0.0
H4016 H 0.76729 0.61917 0.77717 0.0
H4017 H 0.75387 0.63006 0.79428 0.0
H4018 H 0.76724 0.59385 0.7619 0.0
H4019 H 0.7744 0.57047 0.76517 0.0
C4020 C 0.4722 0.76354 0.82492 0.0
C4021 C 0.47122 0.74389 0.8298 0.0
C4022 C 0.50259 0.73937 0.81681 0.0
C4023 C 0.50468 0.75939 0.81415 0.0
N4024 N 0.49271 0.79091 0.81953 0.0
N4025 N 0.48796 0.71438 0.83507 0.0
C4026 C 0.48985 0.77161 0.81943 0.0
C4027 C 0.48723 0.73222 0.82729 0.0
N4028 N 0.45613 0.77432 0.82454 0.0
N4029 N 0.51419 0.72694 0.80803 0.0
H4030 H 0.47723 0.7088 0.84336 0.0
H4031 H 0.50013 0.70605 0.83498 0.0
H4032 H 0.52425 0.73127 0.79841 0.0
H4033 H 0.51204 0.71221 0.8083 0.0
H4034 H 0.45573 0.78818 0.81924 0.0
H4035 H 0.44275 0.76882 0.82766 0.0
H4036 H 0.48299 0.80039 0.82493 0.0
H4037 H 0.50562 0.79729 0.81609 0.0
C4038 C 0.31181 0.45612 0.83243 0.0
C4039 C 0.32942 0.45946 0.84278 0.0
C4040 C 0.32375 0.49391 0.84227 0.0
C4041 C 0.30604 0.49054 0.83226 0.0
N4042 N 0.2815 0.46896 0.82053 0.0
N4043 N 0.35041 0.48081 0.86098 0.0
C4044 C 0.29953 0.47173 0.82828 0.0
C4045 C 0.33482 0.47817 0.84881 0.0
N4046 N 0.30724 0.4382 0.82588 0.0
N4047 N 0.33038 0.51219 0.84462 0.0
H4048 H 0.35886 0.46958 0.86595 0.0
H4049 H 0.35406 0.49382 0.86741 0.0
H4050 H 0.3225 0.52398 0.84014 0.0
H4051 H 0.34412 0.51567 0.84982 0.0
H4052 H 0.29566 0.43511 0.81654 0.0
H4053 H 0.31574 0.4264 0.82887 0.0
H4054 H 0.275 0.45562 0.81869 0.0
H4055 H 0.27244 0.48029 0.8173 0.0
C4056 C 0.71716 0.59171 0.20106 0.0
C4057 C 0.72283 0.61083 0.20523 0.0
C4058 C 0.74787 0.59973 0.22791 0.0
C4059 C 0.74223 0.58069 0.22369 0.0
N4060 N 0.7199 0.55817 0.2094 0.0
N4061 N 0.74087 0.63344 0.2249 0.0
C4062 C 0.7263 0.57659 0.21122 0.0
C4063 C 0.73731 0.61496 0.21948 0.0
N4064 N 0.7035 0.58807 0.18695 0.0
N4065 N 0.76384 0.60312 0.23935 0.0
H4066 H 0.73352 0.6449 0.21878 0.0
H4067 H 0.74999 0.63739 0.23639 0.0
H4068 H 0.77172 0.59218 0.24576 0.0
H4069 H 0.77 0.61655 0.24161 0.0
H4070 H 0.70016 0.57451 0.18167 0.0
H4071 H 0.69596 0.59884 0.17981 0.0
H4072 H 0.70734 0.55415 0.20192 0.0
H4073 H 0.72657 0.54691 0.21663 0.0
C4074 C 0.75631 0.45458 0.8502 0.0
C4075 C 0.75974 0.43561 0.84422 0.0
C4076 C 0.78098 0.44786 0.81989 0.0
C4077 C 0.77875 0.46659 0.82692 0.0
N4078 N 0.76568 0.48812 0.84925 0.0
N4079 N 0.77644 0.41379 0.82457 0.0
C4080 C 0.76674 0.47003 0.84221 0.0
C4081 C 0.77231 0.43214 0.82929 0.0
N4082 N 0.74276 0.45779 0.8632 0.0
N4083 N 0.79123 0.44525 0.80399 0.0
H4084 H 0.77007 0.40197 0.83085 0.0
H4085 H 0.78698 0.41016 0.8153 0.0
H4086 H 0.79816 0.45647 0.79727 0.0
H4087 H 0.79187 0.43236 0.79673 0.0
H4088 H 0.73819 0.47128 0.86691 0.0
H4089 H 0.73499 0.44681 0.8694 0.0
H4090 H 0.7588 0.49159 0.8616 0.0
H4091 H 0.77275 0.49968 0.84323 0.0
C4092 C 0.61726 0.72239 0.78305 0.0
C4093 C 0.61583 0.71095 0.79964 0.0
C4094 C 0.58094 0.71107 0.79589 0.0
C4095 C 0.58236 0.72244 0.7793 0.0
N4096 N 0.60114 0.73595 0.75486 0.0
N4097 N 0.59691 0.69122 0.81985 0.0
C4098 C 0.60037 0.72713 0.77218 0.0
C4099 C 0.59782 0.70424 0.8054 0.0
N4100 N 0.6347 0.72925 0.77811 0.0
N4101 N 0.56345 0.70763 0.80304 0.0
H4102 H 0.60901 0.68615 0.8273 0.0
H4103 H 0.58438 0.6843 0.82351 0.0
H4104 H 0.55085 0.71196 0.79606 0.0
H4105 H 0.56143 0.70149 0.81632 0.0
H4106 H 0.63658 0.73933 0.76744 0.0
H4107 H 0.6474 0.72564 0.78544 0.0
H4108 H 0.61368 0.73842 0.74784 0.0
H4109 H 0.58885 0.73943 0.74673 0.0
C4110 C 0.33891 0.61935 0.784 0.0
C4111 C 0.35165 0.61586 0.79985 0.0
C4112 C 0.34719 0.58131 0.79492 0.0
C4113 C 0.33274 0.5848 0.78051 0.0
N4114 N 0.31272 0.60759 0.76351 0.0
N4115 N 0.36677 0.5937 0.82173 0.0
C4116 C 0.32815 0.60394 0.77547 0.0
C4117 C 0.35548 0.59687 0.80568 0.0
N4118 N 0.33712 0.63747 0.77701 0.0
N4119 N 0.35347 0.56315 0.79784 0.0
H4120 H 0.37353 0.60469 0.8296 0.0
H4121 H 0.36838 0.58036 0.82804 0.0
H4122 H 0.3481 0.55153 0.78989 0.0
H4123 H 0.3652 0.5598 0.80677 0.0
H4124 H 0.32996 0.64062 0.76408 0.0
H4125 H 0.3441 0.64926 0.78332 0.0
H4126 H 0.30745 0.6212 0.76105 0.0
H4127 H 0.304 0.59701 0.75727 0.0
C4128 C 0.46445 0.34858 0.79714 0.0
C4129 C 0.46711 0.35749 0.8153 0.0
C4130 C 0.50185 0.35653 0.81268 0.0
C4131 C 0.49918 0.34805 0.7944 0.0
N4132 N 0.47861 0.3389 0.76765 0.0
N4133 N 0.48787 0.3734 0.83875 0.0
C4134 C 0.48061 0.34503 0.78614 0.0
C4135 C 0.48571 0.36258 0.82255 0.0
N4136 N 0.44658 0.34281 0.79081 0.0
N4137 N 0.51982 0.3579 0.82094 0.0
H4138 H 0.47633 0.37801 0.84633 0.0
H4139 H 0.50089 0.37916 0.8438 0.0
H4140 H 0.53187 0.35369 0.81397 0.0
H4141 H 0.52269 0.36195 0.83508 0.0
H4142 H 0.44387 0.3344 0.77873 0.0
H4143 H 0.43439 0.34547 0.79832 0.0
H4144 H 0.46558 0.33798 0.75997 0.0
H4145 H 0.49032 0.33615 0.75946 0.0
C4146 C 0.30551 0.42447 0.23841 0.0
C4147 C 0.32535 0.42721 0.23622 0.0
C4148 C 0.32382 0.45767 0.25381 0.0
C4149 C 0.30372 0.4555 0.25433 0.0
N4150 N 0.27535 0.43995 0.24086 0.0
N4151 N 0.35282 0.44832 0.23877 0.0
C4152 C 0.29455 0.4398 0.24479 0.0
C4153 C 0.3344 0.44438 0.24308 0.0
N4154 N 0.29712 0.407 0.23514 0.0
N4155 N 0.33284 0.4721 0.26387 0.0
H4156 H 0.3608 0.43918 0.23065 0.0
H4157 H 0.3596 0.46135 0.24176 0.0
H4158 H 0.32544 0.48217 0.27148 0.0
H4159 H 0.34761 0.47327 0.26574 0.0
H4160 H 0.28302 0.40398 0.2383 0.0
H4161 H 0.30471 0.39501 0.23137 0.0
H4162 H 0.2682 0.42963 0.23242 0.0
H4163 H 0.26703 0.45156 0.24412 0.0
C4164 C 0.57593 0.3267 0.24058 0.0
C4165 C 0.59422 0.32291 0.24911 0.0
C4166 C 0.57929 0.30829 0.27666 0.0
C4167 C 0.56115 0.31076 0.26745 0.0
N4168 N 0.54188 0.31983 0.23989 0.0
N4169 N 0.61368 0.30828 0.2741 0.0
C4170 C 0.55938 0.31935 0.2492 0.0
C4171 C 0.59601 0.31323 0.26689 0.0
N4172 N 0.57439 0.33774 0.22452 0.0
N4173 N 0.58036 0.30152 0.29495 0.0
H4174 H 0.62623 0.3118 0.26741 0.0
H4175 H 0.61591 0.29955 0.28597 0.0
H4176 H 0.56826 0.29769 0.30225 0.0
H4177 H 0.59295 0.30102 0.30336 0.0
H4178 H 0.56148 0.34271 0.21874 0.0
H4179 H 0.5862 0.34315 0.21768 0.0
H4180 H 0.53974 0.324 0.2257 0.0
H4181 H 0.52955 0.31472 0.24599 0.0
C4182 C 0.42886 0.71588 0.23858 0.0
C4183 C 0.43246 0.70319 0.22342 0.0
C4184 C 0.46702 0.70773 0.22999 0.0
C4185 C 0.46348 0.722 0.24379 0.0
N4186 N 0.44051 0.74167 0.25907 0.0
N4187 N 0.45483 0.68862 0.20306 0.0
C4188 C 0.44425 0.72652 0.24762 0.0
C4189 C 0.45152 0.6996 0.21865 0.0
N4190 N 0.41069 0.71759 0.24457 0.0
N4191 N 0.48515 0.70124 0.22835 0.0
H4192 H 0.4439 0.68205 0.19476 0.0
H4193 H 0.46823 0.68723 0.19746 0.0
H4194 H 0.49673 0.70628 0.23684 0.0
H4195 H 0.48845 0.68958 0.21999 0.0
H4196 H 0.40742 0.72469 0.25703 0.0
H4197 H 0.39896 0.71063 0.2379 0.0
H4198 H 0.42692 0.74714 0.2604 0.0
H4199 H 0.45104 0.74992 0.26609 0.0
loop_
_geom_bond_atom_site_label_1
_geom_bond_atom_site_label_2
_geom_bond_distance
_geom_bond_site_symmetry_2
_ccdc_geom_bond_type
C0 C1 1.391 . S
C0 C4 1.391 . S
C0 H42 0.948 . S
C1 C0 1.391 . S
C1 C2 1.391 . S
C2 C1 1.391 . S
C2 H58 0.947 . S
C2 C59 1.392 . S
C3 C4 1.391 . S
C3 C7 1.397 . S
C3 C59 1.419 . S
C4 C0 1.391 . S
C4 C3 1.391 . S
C4 C5 1.399 . S
C5 C4 1.399 . S
C5 C8 1.396 . S
C5 C17 1.453 . S
C5 C18 1.684 . S
H6 C30 0.948 . S
C7 C3 1.397 . S
C7 C8 1.394 . S
C7 C26 1.723 . S
C8 C5 1.396 . S
C8 C7 1.394 . S
C8 C38 1.723 . S
H9 C32 0.947 . S
H10 C33 0.948 . S
H11 C39 0.982 . S
H12 C40 0.979 . S
H13 C40 0.980 . S
H14 C40 0.983 . S
H15 C39 0.979 . S
H16 C39 0.977 . S
C17 C5 1.453 . S
C17 H46 0.982 . S
C17 H47 0.979 . S
C17 H48 0.977 . S
C18 C5 1.684 . S
C18 H43 0.979 . S
C18 H44 0.980 . S
C18 H45 0.983 . S
C19 C20 1.391 . S
C19 C24 1.391 . S
C19 H49 0.948 . S
C20 C19 1.391 . S
C20 C21 1.391 . S
C21 C20 1.391 . S
C21 C22 1.392 . S
C21 H50 0.947 . S
C22 C21 1.392 . S
C22 C23 1.419 . S
C22 H51 0.948 . S
C23 C22 1.419 . S
C23 C24 1.391 . S
C23 C27 1.397 . S
C24 C19 1.391 . S
C24 C23 1.391 . S
C24 C25 1.399 . S
C25 C24 1.399 . S
C25 C26 1.396 . S
C25 C28 1.453 . S
C25 C29 1.684 . S
C26 C7 1.723 . S
C26 C25 1.396 . S
C26 C27 1.394 . S
C27 C23 1.397 . S
C27 C26 1.394 . S
C27 C37 1.723 . S
C28 C25 1.453 . S
C28 H52 0.982 . S
C28 H53 0.979 . S
C28 H54 0.977 . S
C29 C25 1.684 . S
C29 H55 0.979 . S
C29 H56 0.980 . S
C29 H57 0.983 . S
C30 H6 0.948 . S
C30 C31 1.391 . S
C30 C35 1.391 . S
C31 C30 1.391 . S
C31 C32 1.391 . S
C32 H9 0.947 . S
C32 C31 1.391 . S
C32 C33 1.392 . S
C33 H10 0.948 . S
C33 C32 1.392 . S
C33 C34 1.419 . S
C34 C33 1.419 . S
C34 C35 1.391 . S
C34 C38 1.397 . S
C35 C30 1.391 . S
C35 C34 1.391 . S
C35 C36 1.399 . S
C36 C35 1.399 . S
C36 C37 1.396 . S
C36 C39 1.453 . S
C36 C40 1.684 . S
C37 C27 1.723 . S
C37 C36 1.396 . S
C37 C38 1.394 . S
C38 C8 1.723 . S
C38 C34 1.397 . S
C38 C37 1.394 . S
C39 H11 0.982 . S
C39 H15 0.979 . S
C39 H16 0.977 . S
C39 C36 1.453 . S
C40 H12 0.979 . S
C40 H13 0.980 . S
C40 H14 0.983 . S
C40 C36 1.684 . S
H41 C59 0.948 . S
H42 C0 0.948 . S
H43 C18 0.979 . S
H44 C18 0.980 . S
H45 C18 0.983 . S
H46 C17 0.982 . S
H47 C17 0.979 . S
H48 C17 0.977 . S
H49 C19 0.948 . S
H50 C21 0.947 . S
H51 C22 0.948 . S
H52 C28 0.982 . S
H53 C28 0.979 . S
H54 C28 0.977 . S
H55 C29 0.979 . S
H56 C29 0.980 . S
H57 C29 0.983 . S
H58 C2 0.947 . S
C59 C2 1.392 . S
C59 C3 1.419 . S
C59 H41 0.948 . S
C60 C61 1.391 . S
C60 C64 1.391 . S
C60 H102 0.948 . S
C61 C60 1.391 . S
C61 C62 1.391 . S
C62 C61 1.391 . S
C62 H118 0.947 . S
C62 C119 1.392 . S
C63 C64 1.391 . S
C63 C67 1.397 . S
C63 C119 1.419 . S
C64 C60 1.391 . S
C64 C63 1.391 . S
C64 C65 1.399 . S
C65 C64 1.399 . S
C65 C68 1.396 . S
C65 C77 1.453 . S
C65 C78 1.684 . S
H66 C90 0.948 . S
C67 C63 1.397 . S
C67 C68 1.394 . S
C67 C86 1.723 . S
C68 C65 1.396 . S
C68 C67 1.394 . S
C68 C98 1.723 . S
H69 C92 0.947 . S
H70 C93 0.948 . S
H71 C99 0.982 . S
H72 C100 0.979 . S
H73 C100 0.980 . S
H74 C100 0.983 . S
H75 C99 0.979 . S
H76 C99 0.977 . S
C77 C65 1.453 . S
C77 H106 0.982 . S
C77 H107 0.979 . S
C77 H108 0.977 . S
C78 C65 1.684 . S
C78 H103 0.979 . S
C78 H104 0.980 . S
C78 H105 0.983 . S
C79 C80 1.391 . S
C79 C84 1.391 . S
C79 H109 0.948 . S
C80 C79 1.391 . S
C80 C81 1.391 . S
C81 C80 1.391 . S
C81 C82 1.392 . S
C81 H110 0.947 . S
C82 C81 1.392 . S
C82 C83 1.419 . S
C82 H111 0.948 . S
C83 C82 1.419 . S
C83 C84 1.391 . S
C83 C87 1.397 . S
C84 C79 1.391 . S
C84 C83 1.391 . S
C84 C85 1.399 . S
C85 C84 1.399 . S
C85 C86 1.396 . S
C85 C88 1.453 . S
C85 C89 1.684 . S
C86 C67 1.723 . S
C86 C85 1.396 . S
C86 C87 1.394 . S
C87 C83 1.397 . S
C87 C86 1.394 . S
C87 C97 1.723 . S
C88 C85 1.453 . S
C88 H112 0.982 . S
C88 H113 0.979 . S
C88 H114 0.977 . S
C89 C85 1.684 . S
C89 H115 0.979 . S
C89 H116 0.980 . S
C89 H117 0.983 . S
C90 H66 0.948 . S
C90 C91 1.391 . S
C90 C95 1.391 . S
C91 C90 1.391 . S
C91 C92 1.391 . S
C92 H69 0.947 . S
C92 C91 1.391 . S
C92 C93 1.392 . S
C93 H70 0.948 . S
C93 C92 1.392 . S
C93 C94 1.419 . S
C94 C93 1.419 . S
C94 C95 1.391 . S
C94 C98 1.397 . S
C95 C90 1.391 . S
C95 C94 1.391 . S
C95 C96 1.399 . S
C96 C95 1.399 . S
C96 C97 1.396 . S
C96 C99 1.453 . S
C96 C100 1.684 . S
C97 C87 1.723 . S
C97 C96 1.396 . S
C97 C98 1.394 . S
C98 C68 1.723 . S
C98 C94 1.397 . S
C98 C97 1.394 . S
C99 H71 0.982 . S
C99 H75 0.979 . S
C99 H76 0.977 . S
C99 C96 1.453 . S
C100 H72 0.979 . S
C100 H73 0.980 . S
C100 H74 0.983 . S
C100 C96 1.684 . S
H101 C119 0.948 . S
H102 C60 0.948 . S
H103 C78 0.979 . S
H104 C78 0.980 . S
H105 C78 0.983 . S
H106 C77 0.982 . S
H107 C77 0.979 . S
H108 C77 0.977 . S
H109 C79 0.948 . S
H110 C81 0.947 . S
H111 C82 0.948 . S
H112 C88 0.982 . S
H113 C88 0.979 . S
H114 C88 0.977 . S
H115 C89 0.979 . S
H116 C89 0.980 . S
H117 C89 0.983 . S
H118 C62 0.947 . S
C119 C62 1.392 . S
C119 C63 1.419 . S
C119 H101 0.948 . S
C120 C121 1.391 . S
C120 C124 1.391 . S
C120 H162 0.948 . S
C121 C120 1.391 . S
C121 C122 1.391 . S
C122 C121 1.391 . S
C122 H178 0.947 . S
C122 C179 1.392 . S
C123 C124 1.391 . S
C123 C127 1.397 . S
C123 C179 1.419 . S
C124 C120 1.391 . S
C124 C123 1.391 . S
C124 C125 1.399 . S
C125 C124 1.399 . S
C125 C128 1.396 . S
C125 C137 1.453 . S
C125 C138 1.684 . S
H126 C150 0.948 . S
C127 C123 1.397 . S
C127 C128 1.394 . S
C127 C146 1.723 . S
C128 C125 1.396 . S
C128 C127 1.394 . S
C128 C158 1.723 . S
H129 C152 0.947 . S
H130 C153 0.948 . S
H131 C159 0.982 . S
H132 C160 0.979 . S
H133 C160 0.980 . S
H134 C160 0.983 . S
H135 C159 0.979 . S
H136 C159 0.977 . S
C137 C125 1.453 . S
C137 H166 0.982 . S
C137 H167 0.979 . S
C137 H168 0.977 . S
C138 C125 1.684 . S
C138 H163 0.979 . S
C138 H164 0.980 . S
C138 H165 0.983 . S
C139 C140 1.391 . S
C139 C144 1.391 . S
C139 H169 0.948 . S
C140 C139 1.391 . S
C140 C141 1.391 . S
C141 C140 1.391 . S
C141 C142 1.392 . S
C141 H170 0.947 . S
C142 C141 1.392 . S
C142 C143 1.419 . S
C142 H171 0.948 . S
C143 C142 1.419 . S
C143 C144 1.391 . S
C143 C147 1.397 . S
C144 C139 1.391 . S
C144 C143 1.391 . S
C144 C145 1.399 . S
C145 C144 1.399 . S
C145 C146 1.396 . S
C145 C148 1.453 . S
C145 C149 1.684 . S
C146 C127 1.723 . S
C146 C145 1.396 . S
C146 C147 1.394 . S
C147 C143 1.397 . S
C147 C146 1.394 . S
C147 C157 1.723 . S
C148 C145 1.453 . S
C148 H172 0.982 . S
C148 H173 0.979 . S
C148 H174 0.977 . S
C149 C145 1.684 . S
C149 H175 0.979 . S
C149 H176 0.980 . S
C149 H177 0.983 . S
C150 H126 0.948 . S
C150 C151 1.391 . S
C150 C155 1.391 . S
C151 C150 1.391 . S
C151 C152 1.391 . S
C152 H129 0.947 . S
C152 C151 1.391 . S
C152 C153 1.392 . S
C153 H130 0.948 . S
C153 C152 1.392 . S
C153 C154 1.419 . S
C154 C153 1.419 . S
C154 C155 1.391 . S
C154 C158 1.397 . S
C155 C150 1.391 . S
C155 C154 1.391 . S
C155 C156 1.399 . S
C156 C155 1.399 . S
C156 C157 1.396 . S
C156 C159 1.453 . S
C156 C160 1.684 . S
C157 C147 1.723 . S
C157 C156 1.396 . S
C157 C158 1.394 . S
C158 C128 1.723 . S
C158 C154 1.397 . S
C158 C157 1.394 . S
C159 H131 0.982 . S
C159 H135 0.979 . S
C159 H136 0.977 . S
C159 C156 1.453 . S
C160 H132 0.979 . S
C160 H133 0.980 . S
C160 H134 0.983 . S
C160 C156 1.684 . S
H161 C179 0.948 . S
H162 C120 0.948 . S
H163 C138 0.979 . S
H164 C138 0.980 . S
H165 C138 0.983 . S
H166 C137 0.982 . S
H167 C137 0.979 . S
H168 C137 0.977 . S
H169 C139 0.948 . S
H170 C141 0.947 . S
H171 C142 0.948 . S
H172 C148 0.982 . S
H173 C148 0.979 . S
H174 C148 0.977 . S
H175 C149 0.979 . S
H176 C149 0.980 . S
H177 C149 0.983 . S
H178 C122 0.947 . S
C179 C122 1.392 . S
C179 C123 1.419 . S
C179 H161 0.948 . S
C180 C181 1.391 . S
C180 C184 1.391 . S
C180 H222 0.948 . S
C181 C180 1.391 . S
C181 C182 1.391 . S
C182 C181 1.391 . S
C182 H238 0.947 . S
C182 C239 1.392 . S
C183 C184 1.391 . S
C183 C187 1.397 . S
C183 C239 1.419 . S
C184 C180 1.391 . S
C184 C183 1.391 . S
C184 C185 1.399 . S
C185 C184 1.399 . S
C185 C188 1.396 . S
C185 C197 1.453 . S
C185 C198 1.684 . S
H186 C210 0.948 . S
C187 C183 1.397 . S
C187 C188 1.394 . S
C187 C206 1.723 . S
C188 C185 1.396 . S
C188 C187 1.394 . S
C188 C218 1.723 . S
H189 C212 0.947 . S
H190 C213 0.948 . S
H191 C219 0.982 . S
H192 C220 0.979 . S
H193 C220 0.980 . S
H194 C220 0.983 . S
H195 C219 0.979 . S
H196 C219 0.977 . S
C197 C185 1.453 . S
C197 H226 0.982 . S
C197 H227 0.979 . S
C197 H228 0.977 . S
C198 C185 1.684 . S
C198 H223 0.979 . S
C198 H224 0.980 . S
C198 H225 0.983 . S
C199 C200 1.391 . S
C199 C204 1.391 . S
C199 H229 0.948 . S
C200 C199 1.391 . S
C200 C201 1.391 . S
C201 C200 1.391 . S
C201 C202 1.392 . S
C201 H230 0.947 . S
C202 C201 1.392 . S
C202 C203 1.419 . S
C202 H231 0.948 . S
C203 C202 1.419 . S
C203 C204 1.391 . S
C203 C207 1.397 . S
C204 C199 1.391 . S
C204 C203 1.391 . S
C204 C205 1.399 . S
C205 C204 1.399 . S
C205 C206 1.396 . S
C205 C208 1.453 . S
C205 C209 1.684 . S
C206 C187 1.723 . S
C206 C205 1.396 . S
C206 C207 1.394 . S
C207 C203 1.397 . S
C207 C206 1.394 . S
C207 C217 1.723 . S
C208 C205 1.453 . S
C208 H232 0.982 . S
C208 H233 0.979 . S
C208 H234 0.977 . S
C209 C205 1.684 . S
C209 H235 0.979 . S
C209 H236 0.980 . S
C209 H237 0.983 . S
C210 H186 0.948 . S
C210 C211 1.391 . S
C210 C215 1.391 . S
C211 C210 1.391 . S
C211 C212 1.391 . S
C212 H189 0.947 . S
C212 C211 1.391 . S
C212 C213 1.392 . S
C213 H190 0.948 . S
C213 C212 1.392 . S
C213 C214 1.419 . S
C214 C213 1.419 . S
C214 C215 1.391 . S
C214 C218 1.397 . S
C215 C210 1.391 . S
C215 C214 1.391 . S
C215 C216 1.399 . S
C216 C215 1.399 . S
C216 C217 1.396 . S
C216 C219 1.453 . S
C216 C220 1.684 . S
C217 C207 1.723 . S
C217 C216 1.396 . S
C217 C218 1.394 . S
C218 C188 1.723 . S
C218 C214 1.397 . S
C218 C217 1.394 . S
C219 H191 0.982 . S
C219 H195 0.979 . S
C219 H196 0.977 . S
C219 C216 1.453 . S
C220 H192 0.979 . S
C220 H193 0.980 . S
C220 H194 0.983 . S
C220 C216 1.684 . S
H221 C239 0.948 . S
H222 C180 0.948 . S
H223 C198 0.979 . S
H224 C198 0.980 . S
H225 C198 0.983 . S
H226 C197 0.982 . S
H227 C197 0.979 . S
H228 C197 0.977 . S
H229 C199 0.948 . S
H230 C201 0.947 . S
H231 C202 0.948 . S
H232 C208 0.982 . S
H233 C208 0.979 . S
H234 C208 0.977 . S
H235 C209 0.979 . S
H236 C209 0.980 . S
H237 C209 0.983 . S
H238 C182 0.947 . S
C239 C182 1.392 . S
C239 C183 1.419 . S
C239 H221 0.948 . S
C240 C241 1.391 . S
C240 C244 1.391 . S
C240 H282 0.948 . S
C241 C240 1.391 . S
C241 C242 1.391 . S
C242 C241 1.391 . S
C242 H298 0.947 . S
C242 C299 1.392 . S
C243 C244 1.391 . S
C243 C247 1.397 . S
C243 C299 1.419 . S
C244 C240 1.391 . S
C244 C243 1.391 . S
C244 C245 1.399 . S
C245 C244 1.399 . S
C245 C248 1.396 . S
C245 C257 1.453 . S
C245 C258 1.684 . S
H246 C270 0.948 . S
C247 C243 1.397 . S
C247 C248 1.394 . S
C247 C266 1.723 . S
C248 C245 1.396 . S
C248 C247 1.394 . S
C248 C278 1.723 . S
H249 C272 0.947 . S
H250 C273 0.948 . S
H251 C279 0.982 . S
H252 C280 0.979 . S
H253 C280 0.980 . S
H254 C280 0.983 . S
H255 C279 0.979 . S
H256 C279 0.977 . S
C257 C245 1.453 . S
C257 H286 0.982 . S
C257 H287 0.979 . S
C257 H288 0.977 . S
C258 C245 1.684 . S
C258 H283 0.979 . S
C258 H284 0.980 . S
C258 H285 0.983 . S
C259 C260 1.391 . S
C259 C264 1.391 . S
C259 H289 0.948 . S
C260 C259 1.391 . S
C260 C261 1.391 . S
C261 C260 1.391 . S
C261 C262 1.392 . S
C261 H290 0.947 . S
C262 C261 1.392 . S
C262 C263 1.419 . S
C262 H291 0.948 . S
C263 C262 1.419 . S
C263 C264 1.391 . S
C263 C267 1.397 . S
C264 C259 1.391 . S
C264 C263 1.391 . S
C264 C265 1.399 . S
C265 C264 1.399 . S
C265 C266 1.396 . S
C265 C268 1.453 . S
C265 C269 1.684 . S
C266 C247 1.723 . S
C266 C265 1.396 . S
C266 C267 1.394 . S
C267 C263 1.397 . S
C267 C266 1.394 . S
C267 C277 1.723 . S
C268 C265 1.453 . S
C268 H292 0.982 . S
C268 H293 0.979 . S
C268 H294 0.977 . S
C269 C265 1.684 . S
C269 H295 0.979 . S
C269 H296 0.980 . S
C269 H297 0.983 . S
C270 H246 0.948 . S
C270 C271 1.391 . S
C270 C275 1.391 . S
C271 C270 1.391 . S
C271 C272 1.391 . S
C272 H249 0.947 . S
C272 C271 1.391 . S
C272 C273 1.392 . S
C273 H250 0.948 . S
C273 C272 1.392 . S
C273 C274 1.419 . S
C274 C273 1.419 . S
C274 C275 1.391 . S
C274 C278 1.397 . S
C275 C270 1.391 . S
C275 C274 1.391 . S
C275 C276 1.399 . S
C276 C275 1.399 . S
C276 C277 1.396 . S
C276 C279 1.453 . S
C276 C280 1.684 . S
C277 C267 1.723 . S
C277 C276 1.396 . S
C277 C278 1.394 . S
C278 C248 1.723 . S
C278 C274 1.397 . S
C278 C277 1.394 . S
C279 H251 0.982 . S
C279 H255 0.979 . S
C279 H256 0.977 . S
C279 C276 1.453 . S
C280 H252 0.979 . S
C280 H253 0.980 . S
C280 H254 0.983 . S
C280 C276 1.684 . S
H281 C299 0.948 . S
H282 C240 0.948 . S
H283 C258 0.979 . S
H284 C258 0.980 . S
H285 C258 0.983 . S
H286 C257 0.982 . S
H287 C257 0.979 . S
H288 C257 0.977 . S
H289 C259 0.948 . S
H290 C261 0.947 . S
H291 C262 0.948 . S
H292 C268 0.982 . S
H293 C268 0.979 . S
H294 C268 0.977 . S
H295 C269 0.979 . S
H296 C269 0.980 . S
H297 C269 0.983 . S
H298 C242 0.947 . S
C299 C242 1.392 . S
C299 C243 1.419 . S
C299 H281 0.948 . S
C300 C301 1.391 . S
C300 C304 1.391 . S
C300 H342 0.948 . S
C301 C300 1.391 . S
C301 C302 1.391 . S
C302 C301 1.391 . S
C302 H358 0.947 . S
C302 C359 1.392 . S
C303 C304 1.391 . S
C303 C307 1.397 . S
C303 C359 1.419 . S
C304 C300 1.391 . S
C304 C303 1.391 . S
C304 C305 1.399 . S
C305 C304 1.399 . S
C305 C308 1.396 . S
C305 C317 1.453 . S
C305 C318 1.684 . S
H306 C330 0.948 . S
C307 C303 1.397 . S
C307 C308 1.394 . S
C307 C326 1.723 . S
C308 C305 1.396 . S
C308 C307 1.394 . S
C308 C338 1.723 . S
H309 C332 0.947 . S
H310 C333 0.948 . S
H311 C339 0.982 . S
H312 C340 0.979 . S
H313 C340 0.980 . S
H314 C340 0.983 . S
H315 C339 0.979 . S
H316 C339 0.977 . S
C317 C305 1.453 . S
C317 H346 0.982 . S
C317 H347 0.979 . S
C317 H348 0.977 . S
C318 C305 1.684 . S
C318 H343 0.979 . S
C318 H344 0.980 . S
C318 H345 0.983 . S
C319 C320 1.391 . S
C319 C324 1.391 . S
C319 H349 0.948 . S
C320 C319 1.391 . S
C320 C321 1.391 . S
C321 C320 1.391 . S
C321 C322 1.392 . S
C321 H350 0.947 . S
C322 C321 1.392 . S
C322 C323 1.419 . S
C322 H351 0.948 . S
C323 C322 1.419 . S
C323 C324 1.391 . S
C323 C327 1.397 . S
C324 C319 1.391 . S
C324 C323 1.391 . S
C324 C325 1.399 . S
C325 C324 1.399 . S
C325 C326 1.396 . S
C325 C328 1.453 . S
C325 C329 1.684 . S
C326 C307 1.723 . S
C326 C325 1.396 . S
C326 C327 1.394 . S
C327 C323 1.397 . S
C327 C326 1.394 . S
C327 C337 1.723 . S
C328 C325 1.453 . S
C328 H352 0.982 . S
C328 H353 0.979 . S
C328 H354 0.977 . S
C329 C325 1.684 . S
C329 H355 0.979 . S
C329 H356 0.980 . S
C329 H357 0.983 . S
C330 H306 0.948 . S
C330 C331 1.391 . S
C330 C335 1.391 . S
C331 C330 1.391 . S
C331 C332 1.391 . S
C332 H309 0.947 . S
C332 C331 1.391 . S
C332 C333 1.392 . S
C333 H310 0.948 . S
C333 C332 1.392 . S
C333 C334 1.419 . S
C334 C333 1.419 . S
C334 C335 1.391 . S
C334 C338 1.397 . S
C335 C330 1.391 . S
C335 C334 1.391 . S
C335 C336 1.399 . S
C336 C335 1.399 . S
C336 C337 1.396 . S
C336 C339 1.453 . S
C336 C340 1.684 . S
C337 C327 1.723 . S
C337 C336 1.396 . S
C337 C338 1.394 . S
C338 C308 1.723 . S
C338 C334 1.397 . S
C338 C337 1.394 . S
C339 H311 0.982 . S
C339 H315 0.979 . S
C339 H316 0.977 . S
C339 C336 1.453 . S
C340 H312 0.979 . S
C340 H313 0.980 . S
C340 H314 0.983 . S
C340 C336 1.684 . S
H341 C359 0.948 . S
H342 C300 0.948 . S
H343 C318 0.979 . S
H344 C318 0.980 . S
H345 C318 0.983 . S
H346 C317 0.982 . S
H347 C317 0.979 . S
H348 C317 0.977 . S
H349 C319 0.948 . S
H350 C321 0.947 . S
H351 C322 0.948 . S
H352 C328 0.982 . S
H353 C328 0.979 . S
H354 C328 0.977 . S
H355 C329 0.979 . S
H356 C329 0.980 . S
H357 C329 0.983 . S
H358 C302 0.947 . S
C359 C302 1.392 . S
C359 C303 1.419 . S
C359 H341 0.948 . S
C360 C361 1.391 . S
C360 C364 1.391 . S
C360 H402 0.948 . S
C361 C360 1.391 . S
C361 C362 1.391 . S
C362 C361 1.391 . S
C362 H418 0.947 . S
C362 C419 1.392 . S
C363 C364 1.391 . S
C363 C367 1.397 . S
C363 C419 1.419 . S
C364 C360 1.391 . S
C364 C363 1.391 . S
C364 C365 1.399 . S
C365 C364 1.399 . S
C365 C368 1.396 . S
C365 C377 1.453 . S
C365 C378 1.684 . S
H366 C390 0.948 . S
C367 C363 1.397 . S
C367 C368 1.394 . S
C367 C386 1.723 . S
C368 C365 1.396 . S
C368 C367 1.394 . S
C368 C398 1.723 . S
H369 C392 0.947 . S
H370 C393 0.948 . S
H371 C399 0.982 . S
H372 C400 0.979 . S
H373 C400 0.980 . S
H374 C400 0.983 . S
H375 C399 0.979 . S
H376 C399 0.977 . S
C377 C365 1.453 . S
C377 H406 0.982 . S
C377 H407 0.979 . S
C377 H408 0.977 . S
C378 C365 1.684 . S
C378 H403 0.979 . S
C378 H404 0.980 . S
C378 H405 0.983 . S
C379 C380 1.391 . S
C379 C384 1.391 . S
C379 H409 0.948 . S
C380 C379 1.391 . S
C380 C381 1.391 . S
C381 C380 1.391 . S
C381 C382 1.392 . S
C381 H410 0.947 . S
C382 C381 1.392 . S
C382 C383 1.419 . S
C382 H411 0.948 . S
C383 C382 1.419 . S
C383 C384 1.391 . S
C383 C387 1.397 . S
C384 C379 1.391 . S
C384 C383 1.391 . S
C384 C385 1.399 . S
C385 C384 1.399 . S
C385 C386 1.396 . S
C385 C388 1.453 . S
C385 C389 1.684 . S
C386 C367 1.723 . S
C386 C385 1.396 . S
C386 C387 1.394 . S
C387 C383 1.397 . S
C387 C386 1.394 . S
C387 C397 1.723 . S
C388 C385 1.453 . S
C388 H412 0.982 . S
C388 H413 0.979 . S
C388 H414 0.977 . S
C389 C385 1.684 . S
C389 H415 0.979 . S
C389 H416 0.980 . S
C389 H417 0.983 . S
C390 H366 0.948 . S
C390 C391 1.391 . S
C390 C395 1.391 . S
C391 C390 1.391 . S
C391 C392 1.391 . S
C392 H369 0.947 . S
C392 C391 1.391 . S
C392 C393 1.392 . S
C393 H370 0.948 . S
C393 C392 1.392 . S
C393 C394 1.419 . S
C394 C393 1.419 . S
C394 C395 1.391 . S
C394 C398 1.397 . S
C395 C390 1.391 . S
C395 C394 1.391 . S
C395 C396 1.399 . S
C396 C395 1.399 . S
C396 C397 1.396 . S
C396 C399 1.453 . S
C396 C400 1.684 . S
C397 C387 1.723 . S
C397 C396 1.396 . S
C397 C398 1.394 . S
C398 C368 1.723 . S
C398 C394 1.397 . S
C398 C397 1.394 . S
C399 H371 0.982 . S
C399 H375 0.979 . S
C399 H376 0.977 . S
C399 C396 1.453 . S
C400 H372 0.979 . S
C400 H373 0.980 . S
C400 H374 0.983 . S
C400 C396 1.684 . S
H401 C419 0.948 . S
H402 C360 0.948 . S
H403 C378 0.979 . S
H404 C378 0.980 . S
H405 C378 0.983 . S
H406 C377 0.982 . S
H407 C377 0.979 . S
H408 C377 0.977 . S
H409 C379 0.948 . S
H410 C381 0.947 . S
H411 C382 0.948 . S
H412 C388 0.982 . S
H413 C388 0.979 . S
H414 C388 0.977 . S
H415 C389 0.979 . S
H416 C389 0.980 . S
H417 C389 0.983 . S
H418 C362 0.947 . S
C419 C362 1.392 . S
C419 C363 1.419 . S
C419 H401 0.948 . S
C420 C421 1.391 . S
C420 C424 1.391 . S
C420 H462 0.948 . S
C421 C420 1.391 . S
C421 C422 1.391 . S
C422 C421 1.391 . S
C422 H478 0.947 . S
C422 C479 1.392 . S
C423 C424 1.391 . S
C423 C427 1.397 . S
C423 C479 1.419 . S
C424 C420 1.391 . S
C424 C423 1.391 . S
C424 C425 1.399 . S
C425 C424 1.399 . S
C425 C428 1.396 . S
C425 C437 1.453 . S
C425 C438 1.684 . S
H426 C450 0.948 . S
C427 C423 1.397 . S
C427 C428 1.394 . S
C427 C446 1.723 . S
C428 C425 1.396 . S
C428 C427 1.394 . S
C428 C458 1.723 . S
H429 C452 0.947 . S
H430 C453 0.948 . S
H431 C459 0.982 . S
H432 C460 0.979 . S
H433 C460 0.980 . S
H434 C460 0.983 . S
H435 C459 0.979 . S
H436 C459 0.977 . S
C437 C425 1.453 . S
C437 H466 0.982 . S
C437 H467 0.979 . S
C437 H468 0.977 . S
C438 C425 1.684 . S
C438 H463 0.979 . S
C438 H464 0.980 . S
C438 H465 0.983 . S
C439 C440 1.391 . S
C439 C444 1.391 . S
C439 H469 0.948 . S
C440 C439 1.391 . S
C440 C441 1.391 . S
C441 C440 1.391 . S
C441 C442 1.392 . S
C441 H470 0.947 . S
C442 C441 1.392 . S
C442 C443 1.419 . S
C442 H471 0.948 . S
C443 C442 1.419 . S
C443 C444 1.391 . S
C443 C447 1.397 . S
C444 C439 1.391 . S
C444 C443 1.391 . S
C444 C445 1.399 . S
C445 C444 1.399 . S
C445 C446 1.396 . S
C445 C448 1.453 . S
C445 C449 1.684 . S
C446 C427 1.723 . S
C446 C445 1.396 . S
C446 C447 1.394 . S
C447 C443 1.397 . S
C447 C446 1.394 . S
C447 C457 1.723 . S
C448 C445 1.453 . S
C448 H472 0.982 . S
C448 H473 0.979 . S
C448 H474 0.977 . S
C449 C445 1.684 . S
C449 H475 0.979 . S
C449 H476 0.980 . S
C449 H477 0.983 . S
C450 H426 0.948 . S
C450 C451 1.391 . S
C450 C455 1.391 . S
C451 C450 1.391 . S
C451 C452 1.391 . S
C452 H429 0.947 . S
C452 C451 1.391 . S
C452 C453 1.392 . S
C453 H430 0.948 . S
C453 C452 1.392 . S
C453 C454 1.419 . S
C454 C453 1.419 . S
C454 C455 1.391 . S
C454 C458 1.397 . S
C455 C450 1.391 . S
C455 C454 1.391 . S
C455 C456 1.399 . S
C456 C455 1.399 . S
C456 C457 1.396 . S
C456 C459 1.453 . S
C456 C460 1.684 . S
C457 C447 1.723 . S
C457 C456 1.396 . S
C457 C458 1.394 . S
C458 C428 1.723 . S
C458 C454 1.397 . S
C458 C457 1.394 . S
C459 H431 0.982 . S
C459 H435 0.979 . S
C459 H436 0.977 . S
C459 C456 1.453 . S
C460 H432 0.979 . S
C460 H433 0.980 . S
C460 H434 0.983 . S
C460 C456 1.684 . S
H461 C479 0.948 . S
H462 C420 0.948 . S
H463 C438 0.979 . S
H464 C438 0.980 . S
H465 C438 0.983 . S
H466 C437 0.982 . S
H467 C437 0.979 . S
H468 C437 0.977 . S
H469 C439 0.948 . S
H470 C441 0.947 . S
H471 C442 0.948 . S
H472 C448 0.982 . S
H473 C448 0.979 . S
H474 C448 0.977 . S
H475 C449 0.979 . S
H476 C449 0.980 . S
H477 C449 0.983 . S
H478 C422 0.947 . S
C479 C422 1.392 . S
C479 C423 1.419 . S
C479 H461 0.948 . S
C480 C481 1.391 . S
C480 C484 1.391 . S
C480 H522 0.948 . S
C481 C480 1.391 . S
C481 C482 1.391 . S
C482 C481 1.391 . S
C482 H538 0.947 . S
C482 C539 1.392 . S
C483 C484 1.391 . S
C483 C487 1.397 . S
C483 C539 1.419 . S
C484 C480 1.391 . S
C484 C483 1.391 . S
C484 C485 1.399 . S
C485 C484 1.399 . S
C485 C488 1.396 . S
C485 C497 1.453 . S
C485 C498 1.684 . S
H486 C510 0.948 . S
C487 C483 1.397 . S
C487 C488 1.394 . S
C487 C506 1.723 . S
C488 C485 1.396 . S
C488 C487 1.394 . S
C488 C518 1.723 . S
H489 C512 0.947 . S
H490 C513 0.948 . S
H491 C519 0.982 . S
H492 C520 0.979 . S
H493 C520 0.980 . S
H494 C520 0.983 . S
H495 C519 0.979 . S
H496 C519 0.977 . S
C497 C485 1.453 . S
C497 H526 0.982 . S
C497 H527 0.979 . S
C497 H528 0.977 . S
C498 C485 1.684 . S
C498 H523 0.979 . S
C498 H524 0.980 . S
C498 H525 0.983 . S
C499 C500 1.391 . S
C499 C504 1.391 . S
C499 H529 0.948 . S
C500 C499 1.391 . S
C500 C501 1.391 . S
C501 C500 1.391 . S
C501 C502 1.392 . S
C501 H530 0.947 . S
C502 C501 1.392 . S
C502 C503 1.419 . S
C502 H531 0.948 . S
C503 C502 1.419 . S
C503 C504 1.391 . S
C503 C507 1.397 . S
C504 C499 1.391 . S
C504 C503 1.391 . S
C504 C505 1.399 . S
C505 C504 1.399 . S
C505 C506 1.396 . S
C505 C508 1.453 . S
C505 C509 1.684 . S
C506 C487 1.723 . S
C506 C505 1.396 . S
C506 C507 1.394 . S
C507 C503 1.397 . S
C507 C506 1.394 . S
C507 C517 1.723 . S
C508 C505 1.453 . S
C508 H532 0.982 . S
C508 H533 0.979 . S
C508 H534 0.977 . S
C509 C505 1.684 . S
C509 H535 0.979 . S
C509 H536 0.980 . S
C509 H537 0.983 . S
C510 H486 0.948 . S
C510 C511 1.391 . S
C510 C515 1.391 . S
C511 C510 1.391 . S
C511 C512 1.391 . S
C512 H489 0.947 . S
C512 C511 1.391 . S
C512 C513 1.392 . S
C513 H490 0.948 . S
C513 C512 1.392 . S
C513 C514 1.419 . S
C514 C513 1.419 . S
C514 C515 1.391 . S
C514 C518 1.397 . S
C515 C510 1.391 . S
C515 C514 1.391 . S
C515 C516 1.399 . S
C516 C515 1.399 . S
C516 C517 1.396 . S
C516 C519 1.453 . S
C516 C520 1.684 . S
C517 C507 1.723 . S
C517 C516 1.396 . S
C517 C518 1.394 . S
C518 C488 1.723 . S
C518 C514 1.397 . S
C518 C517 1.394 . S
C519 H491 0.982 . S
C519 H495 0.979 . S
C519 H496 0.977 . S
C519 C516 1.453 . S
C520 H492 0.979 . S
C520 H493 0.980 . S
C520 H494 0.983 . S
C520 C516 1.684 . S
H521 C539 0.948 . S
H522 C480 0.948 . S
H523 C498 0.979 . S
H524 C498 0.980 . S
H525 C498 0.983 . S
H526 C497 0.982 . S
H527 C497 0.979 . S
H528 C497 0.977 . S
H529 C499 0.948 . S
H530 C501 0.947 . S
H531 C502 0.948 . S
H532 C508 0.982 . S
H533 C508 0.979 . S
H534 C508 0.977 . S
H535 C509 0.979 . S
H536 C509 0.980 . S
H537 C509 0.983 . S
H538 C482 0.947 . S
C539 C482 1.392 . S
C539 C483 1.419 . S
C539 H521 0.948 . S
C540 C541 1.391 . S
C540 C544 1.391 . S
C540 H582 0.948 . S
C541 C540 1.391 . S
C541 C542 1.391 . S
C542 C541 1.391 . S
C542 H598 0.947 . S
C542 C599 1.392 . S
C543 C544 1.391 . S
C543 C547 1.397 . S
C543 C599 1.419 . S
C544 C540 1.391 . S
C544 C543 1.391 . S
C544 C545 1.399 . S
C545 C544 1.399 . S
C545 C548 1.396 . S
C545 C557 1.453 . S
C545 C558 1.684 . S
H546 C570 0.948 . S
C547 C543 1.397 . S
C547 C548 1.394 . S
C547 C566 1.723 . S
C548 C545 1.396 . S
C548 C547 1.394 . S
C548 C578 1.723 . S
H549 C572 0.947 . S
H550 C573 0.948 . S
H551 C579 0.982 . S
H552 C580 0.979 . S
H553 C580 0.980 . S
H554 C580 0.983 . S
H555 C579 0.979 . S
H556 C579 0.977 . S
C557 C545 1.453 . S
C557 H586 0.982 . S
C557 H587 0.979 . S
C557 H588 0.977 . S
C558 C545 1.684 . S
C558 H583 0.979 . S
C558 H584 0.980 . S
C558 H585 0.983 . S
C559 C560 1.391 . S
C559 C564 1.391 . S
C559 H589 0.948 . S
C560 C559 1.391 . S
C560 C561 1.391 . S
C561 C560 1.391 . S
C561 C562 1.392 . S
C561 H590 0.947 . S
C562 C561 1.392 . S
C562 C563 1.419 . S
C562 H591 0.948 . S
C563 C562 1.419 . S
C563 C564 1.391 . S
C563 C567 1.397 . S
C564 C559 1.391 . S
C564 C563 1.391 . S
C564 C565 1.399 . S
C565 C564 1.399 . S
C565 C566 1.396 . S
C565 C568 1.453 . S
C565 C569 1.684 . S
C566 C547 1.723 . S
C566 C565 1.396 . S
C566 C567 1.394 . S
C567 C563 1.397 . S
C567 C566 1.394 . S
C567 C577 1.723 . S
C568 C565 1.453 . S
C568 H592 0.982 . S
C568 H593 0.979 . S
C568 H594 0.977 . S
C569 C565 1.684 . S
C569 H595 0.979 . S
C569 H596 0.980 . S
C569 H597 0.983 . S
C570 H546 0.948 . S
C570 C571 1.391 . S
C570 C575 1.391 . S
C571 C570 1.391 . S
C571 C572 1.391 . S
C572 H549 0.947 . S
C572 C571 1.391 . S
C572 C573 1.392 . S
C573 H550 0.948 . S
C573 C572 1.392 . S
C573 C574 1.419 . S
C574 C573 1.419 . S
C574 C575 1.391 . S
C574 C578 1.397 . S
C575 C570 1.391 . S
C575 C574 1.391 . S
C575 C576 1.399 . S
C576 C575 1.399 . S
C576 C577 1.396 . S
C576 C579 1.453 . S
C576 C580 1.684 . S
C577 C567 1.723 . S
C577 C576 1.396 . S
C577 C578 1.394 . S
C578 C548 1.723 . S
C578 C574 1.397 . S
C578 C577 1.394 . S
C579 H551 0.982 . S
C579 H555 0.979 . S
C579 H556 0.977 . S
C579 C576 1.453 . S
C580 H552 0.979 . S
C580 H553 0.980 . S
C580 H554 0.983 . S
C580 C576 1.684 . S
H581 C599 0.948 . S
H582 C540 0.948 . S
H583 C558 0.979 . S
H584 C558 0.980 . S
H585 C558 0.983 . S
H586 C557 0.982 . S
H587 C557 0.979 . S
H588 C557 0.977 . S
H589 C559 0.948 . S
H590 C561 0.947 . S
H591 C562 0.948 . S
H592 C568 0.982 . S
H593 C568 0.979 . S
H594 C568 0.977 . S
H595 C569 0.979 . S
H596 C569 0.980 . S
H597 C569 0.983 . S
H598 C542 0.947 . S
C599 C542 1.392 . S
C599 C543 1.419 . S
C599 H581 0.948 . S
C600 C601 1.391 . S
C600 C604 1.391 . S
C600 H642 0.948 . S
C601 C600 1.391 . S
C601 C602 1.391 . S
C602 C601 1.391 . S
C602 H658 0.947 . S
C602 C659 1.392 . S
C603 C604 1.391 . S
C603 C607 1.397 . S
C603 C659 1.419 . S
C604 C600 1.391 . S
C604 C603 1.391 . S
C604 C605 1.399 . S
C605 C604 1.399 . S
C605 C608 1.396 . S
C605 C617 1.453 . S
C605 C618 1.684 . S
H606 C630 0.948 . S
C607 C603 1.397 . S
C607 C608 1.394 . S
C607 C626 1.723 . S
C608 C605 1.396 . S
C608 C607 1.394 . S
C608 C638 1.723 . S
H609 C632 0.947 . S
H610 C633 0.948 . S
H611 C639 0.982 . S
H612 C640 0.979 . S
H613 C640 0.980 . S
H614 C640 0.983 . S
H615 C639 0.979 . S
H616 C639 0.977 . S
C617 C605 1.453 . S
C617 H646 0.982 . S
C617 H647 0.979 . S
C617 H648 0.977 . S
C618 C605 1.684 . S
C618 H643 0.979 . S
C618 H644 0.980 . S
C618 H645 0.983 . S
C619 C620 1.391 . S
C619 C624 1.391 . S
C619 H649 0.948 . S
C620 C619 1.391 . S
C620 C621 1.391 . S
C621 C620 1.391 . S
C621 C622 1.392 . S
C621 H650 0.947 . S
C622 C621 1.392 . S
C622 C623 1.419 . S
C622 H651 0.948 . S
C623 C622 1.419 . S
C623 C624 1.391 . S
C623 C627 1.397 . S
C624 C619 1.391 . S
C624 C623 1.391 . S
C624 C625 1.399 . S
C625 C624 1.399 . S
C625 C626 1.396 . S
C625 C628 1.453 . S
C625 C629 1.684 . S
C626 C607 1.723 . S
C626 C625 1.396 . S
C626 C627 1.394 . S
C627 C623 1.397 . S
C627 C626 1.394 . S
C627 C637 1.723 . S
C628 C625 1.453 . S
C628 H652 0.982 . S
C628 H653 0.979 . S
C628 H654 0.977 . S
C629 C625 1.684 . S
C629 H655 0.979 . S
C629 H656 0.980 . S
C629 H657 0.983 . S
C630 H606 0.948 . S
C630 C631 1.391 . S
C630 C635 1.391 . S
C631 C630 1.391 . S
C631 C632 1.391 . S
C632 H609 0.947 . S
C632 C631 1.391 . S
C632 C633 1.392 . S
C633 H610 0.948 . S
C633 C632 1.392 . S
C633 C634 1.419 . S
C634 C633 1.419 . S
C634 C635 1.391 . S
C634 C638 1.397 . S
C635 C630 1.391 . S
C635 C634 1.391 . S
C635 C636 1.399 . S
C636 C635 1.399 . S
C636 C637 1.396 . S
C636 C639 1.453 . S
C636 C640 1.684 . S
C637 C627 1.723 . S
C637 C636 1.396 . S
C637 C638 1.394 . S
C638 C608 1.723 . S
C638 C634 1.397 . S
C638 C637 1.394 . S
C639 H611 0.982 . S
C639 H615 0.979 . S
C639 H616 0.977 . S
C639 C636 1.453 . S
C640 H612 0.979 . S
C640 H613 0.980 . S
C640 H614 0.983 . S
C640 C636 1.684 . S
H641 C659 0.948 . S
H642 C600 0.948 . S
H643 C618 0.979 . S
H644 C618 0.980 . S
H645 C618 0.983 . S
H646 C617 0.982 . S
H647 C617 0.979 . S
H648 C617 0.977 . S
H649 C619 0.948 . S
H650 C621 0.947 . S
H651 C622 0.948 . S
H652 C628 0.982 . S
H653 C628 0.979 . S
H654 C628 0.977 . S
H655 C629 0.979 . S
H656 C629 0.980 . S
H657 C629 0.983 . S
H658 C602 0.947 . S
C659 C602 1.392 . S
C659 C603 1.419 . S
C659 H641 0.948 . S
C660 C661 1.391 . S
C660 C664 1.391 . S
C660 H702 0.948 . S
C661 C660 1.391 . S
C661 C662 1.391 . S
C662 C661 1.391 . S
C662 H718 0.947 . S
C662 C719 1.392 . S
C663 C664 1.391 . S
C663 C667 1.397 . S
C663 C719 1.419 . S
C664 C660 1.391 . S
C664 C663 1.391 . S
C664 C665 1.399 . S
C665 C664 1.399 . S
C665 C668 1.396 . S
C665 C677 1.453 . S
C665 C678 1.684 . S
H666 C690 0.948 . S
C667 C663 1.397 . S
C667 C668 1.394 . S
C667 C686 1.723 . S
C668 C665 1.396 . S
C668 C667 1.394 . S
C668 C698 1.723 . S
H669 C692 0.947 . S
H670 C693 0.948 . S
H671 C699 0.982 . S
H672 C700 0.979 . S
H673 C700 0.980 . S
H674 C700 0.983 . S
H675 C699 0.979 . S
H676 C699 0.977 . S
C677 C665 1.453 . S
C677 H706 0.982 . S
C677 H707 0.979 . S
C677 H708 0.977 . S
C678 C665 1.684 . S
C678 H703 0.979 . S
C678 H704 0.980 . S
C678 H705 0.983 . S
C679 C680 1.391 . S
C679 C684 1.391 . S
C679 H709 0.948 . S
C680 C679 1.391 . S
C680 C681 1.391 . S
C681 C680 1.391 . S
C681 C682 1.392 . S
C681 H710 0.947 . S
C682 C681 1.392 . S
C682 C683 1.419 . S
C682 H711 0.948 . S
C683 C682 1.419 . S
C683 C684 1.391 . S
C683 C687 1.397 . S
C684 C679 1.391 . S
C684 C683 1.391 . S
C684 C685 1.399 . S
C685 C684 1.399 . S
C685 C686 1.396 . S
C685 C688 1.453 . S
C685 C689 1.684 . S
C686 C667 1.723 . S
C686 C685 1.396 . S
C686 C687 1.394 . S
C687 C683 1.397 . S
C687 C686 1.394 . S
C687 C697 1.723 . S
C688 C685 1.453 . S
C688 H712 0.982 . S
C688 H713 0.979 . S
C688 H714 0.977 . S
C689 C685 1.684 . S
C689 H715 0.979 . S
C689 H716 0.980 . S
C689 H717 0.983 . S
C690 H666 0.948 . S
C690 C691 1.391 . S
C690 C695 1.391 . S
C691 C690 1.391 . S
C691 C692 1.391 . S
C692 H669 0.947 . S
C692 C691 1.391 . S
C692 C693 1.392 . S
C693 H670 0.948 . S
C693 C692 1.392 . S
C693 C694 1.419 . S
C694 C693 1.419 . S
C694 C695 1.391 . S
C694 C698 1.397 . S
C695 C690 1.391 . S
C695 C694 1.391 . S
C695 C696 1.399 . S
C696 C695 1.399 . S
C696 C697 1.396 . S
C696 C699 1.453 . S
C696 C700 1.684 . S
C697 C687 1.723 . S
C697 C696 1.396 . S
C697 C698 1.394 . S
C698 C668 1.723 . S
C698 C694 1.397 . S
C698 C697 1.394 . S
C699 H671 0.982 . S
C699 H675 0.979 . S
C699 H676 0.977 . S
C699 C696 1.453 . S
C700 H672 0.979 . S
C700 H673 0.980 . S
C700 H674 0.983 . S
C700 C696 1.684 . S
H701 C719 0.948 . S
H702 C660 0.948 . S
H703 C678 0.979 . S
H704 C678 0.980 . S
H705 C678 0.983 . S
H706 C677 0.982 . S
H707 C677 0.979 . S
H708 C677 0.977 . S
H709 C679 0.948 . S
H710 C681 0.947 . S
H711 C682 0.948 . S
H712 C688 0.982 . S
H713 C688 0.979 . S
H714 C688 0.977 . S
H715 C689 0.979 . S
H716 C689 0.980 . S
H717 C689 0.983 . S
H718 C662 0.947 . S
C719 C662 1.392 . S
C719 C663 1.419 . S
C719 H701 0.948 . S
C720 C721 1.391 . S
C720 C724 1.391 . S
C720 H762 0.948 . S
C721 C720 1.391 . S
C721 C722 1.391 . S
C722 C721 1.391 . S
C722 H778 0.947 . S
C722 C779 1.392 . S
C723 C724 1.391 . S
C723 C727 1.397 . S
C723 C779 1.419 . S
C724 C720 1.391 . S
C724 C723 1.391 . S
C724 C725 1.399 . S
C725 C724 1.399 . S
C725 C728 1.396 . S
C725 C737 1.453 . S
C725 C738 1.684 . S
H726 C750 0.948 . S
C727 C723 1.397 . S
C727 C728 1.394 . S
C727 C746 1.723 . S
C728 C725 1.396 . S
C728 C727 1.394 . S
C728 C758 1.723 . S
H729 C752 0.947 . S
H730 C753 0.948 . S
H731 C759 0.982 . S
H732 C760 0.979 . S
H733 C760 0.980 . S
H734 C760 0.983 . S
H735 C759 0.979 . S
H736 C759 0.977 . S
C737 C725 1.453 . S
C737 H766 0.982 . S
C737 H767 0.979 . S
C737 H768 0.977 . S
C738 C725 1.684 . S
C738 H763 0.979 . S
C738 H764 0.980 . S
C738 H765 0.983 . S
C739 C740 1.391 . S
C739 C744 1.391 . S
C739 H769 0.948 . S
C740 C739 1.391 . S
C740 C741 1.391 . S
C741 C740 1.391 . S
C741 C742 1.392 . S
C741 H770 0.947 . S
C742 C741 1.392 . S
C742 C743 1.419 . S
C742 H771 0.948 . S
C743 C742 1.419 . S
C743 C744 1.391 . S
C743 C747 1.397 . S
C744 C739 1.391 . S
C744 C743 1.391 . S
C744 C745 1.399 . S
C745 C744 1.399 . S
C745 C746 1.396 . S
C745 C748 1.453 . S
C745 C749 1.684 . S
C746 C727 1.723 . S
C746 C745 1.396 . S
C746 C747 1.394 . S
C747 C743 1.397 . S
C747 C746 1.394 . S
C747 C757 1.723 . S
C748 C745 1.453 . S
C748 H772 0.982 . S
C748 H773 0.979 . S
C748 H774 0.977 . S
C749 C745 1.684 . S
C749 H775 0.979 . S
C749 H776 0.980 . S
C749 H777 0.983 . S
C750 H726 0.948 . S
C750 C751 1.391 . S
C750 C755 1.391 . S
C751 C750 1.391 . S
C751 C752 1.391 . S
C752 H729 0.947 . S
C752 C751 1.391 . S
C752 C753 1.392 . S
C753 H730 0.948 . S
C753 C752 1.392 . S
C753 C754 1.419 . S
C754 C753 1.419 . S
C754 C755 1.391 . S
C754 C758 1.397 . S
C755 C750 1.391 . S
C755 C754 1.391 . S
C755 C756 1.399 . S
C756 C755 1.399 . S
C756 C757 1.396 . S
C756 C759 1.453 . S
C756 C760 1.684 . S
C757 C747 1.723 . S
C757 C756 1.396 . S
C757 C758 1.394 . S
C758 C728 1.723 . S
C758 C754 1.397 . S
C758 C757 1.394 . S
C759 H731 0.982 . S
C759 H735 0.979 . S
C759 H736 0.977 . S
C759 C756 1.453 . S
C760 H732 0.979 . S
C760 H733 0.980 . S
C760 H734 0.983 . S
C760 C756 1.684 . S
H761 C779 0.948 . S
H762 C720 0.948 . S
H763 C738 0.979 . S
H764 C738 0.980 . S
H765 C738 0.983 . S
H766 C737 0.982 . S
H767 C737 0.979 . S
H768 C737 0.977 . S
H769 C739 0.948 . S
H770 C741 0.947 . S
H771 C742 0.948 . S
H772 C748 0.982 . S
H773 C748 0.979 . S
H774 C748 0.977 . S
H775 C749 0.979 . S
H776 C749 0.980 . S
H777 C749 0.983 . S
H778 C722 0.947 . S
C779 C722 1.392 . S
C779 C723 1.419 . S
C779 H761 0.948 . S
C780 C781 1.391 . S
C780 C784 1.391 . S
C780 H822 0.948 . S
C781 C780 1.391 . S
C781 C782 1.391 . S
C782 C781 1.391 . S
C782 H838 0.947 . S
C782 C839 1.392 . S
C783 C784 1.391 . S
C783 C787 1.397 . S
C783 C839 1.419 . S
C784 C780 1.391 . S
C784 C783 1.391 . S
C784 C785 1.399 . S
C785 C784 1.399 . S
C785 C788 1.396 . S
C785 C797 1.453 . S
C785 C798 1.684 . S
H786 C810 0.948 . S
C787 C783 1.397 . S
C787 C788 1.394 . S
C787 C806 1.723 . S
C788 C785 1.396 . S
C788 C787 1.394 . S
C788 C818 1.723 . S
H789 C812 0.947 . S
H790 C813 0.948 . S
H791 C819 0.982 . S
H792 C820 0.979 . S
H793 C820 0.980 . S
H794 C820 0.983 . S
H795 C819 0.979 . S
H796 C819 0.977 . S
C797 C785 1.453 . S
C797 H826 0.982 . S
C797 H827 0.979 . S
C797 H828 0.977 . S
C798 C785 1.684 . S
C798 H823 0.979 . S
C798 H824 0.980 . S
C798 H825 0.983 . S
C799 C800 1.391 . S
C799 C804 1.391 . S
C799 H829 0.948 . S
C800 C799 1.391 . S
C800 C801 1.391 . S
C801 C800 1.391 . S
C801 C802 1.392 . S
C801 H830 0.947 . S
C802 C801 1.392 . S
C802 C803 1.419 . S
C802 H831 0.948 . S
C803 C802 1.419 . S
C803 C804 1.391 . S
C803 C807 1.397 . S
C804 C799 1.391 . S
C804 C803 1.391 . S
C804 C805 1.399 . S
C805 C804 1.399 . S
C805 C806 1.396 . S
C805 C808 1.453 . S
C805 C809 1.684 . S
C806 C787 1.723 . S
C806 C805 1.396 . S
C806 C807 1.394 . S
C807 C803 1.397 . S
C807 C806 1.394 . S
C807 C817 1.723 . S
C808 C805 1.453 . S
C808 H832 0.982 . S
C808 H833 0.979 . S
C808 H834 0.977 . S
C809 C805 1.684 . S
C809 H835 0.979 . S
C809 H836 0.980 . S
C809 H837 0.983 . S
C810 H786 0.948 . S
C810 C811 1.391 . S
C810 C815 1.391 . S
C811 C810 1.391 . S
C811 C812 1.391 . S
C812 H789 0.947 . S
C812 C811 1.391 . S
C812 C813 1.392 . S
C813 H790 0.948 . S
C813 C812 1.392 . S
C813 C814 1.419 . S
C814 C813 1.419 . S
C814 C815 1.391 . S
C814 C818 1.397 . S
C815 C810 1.391 . S
C815 C814 1.391 . S
C815 C816 1.399 . S
C816 C815 1.399 . S
C816 C817 1.396 . S
C816 C819 1.453 . S
C816 C820 1.684 . S
C817 C807 1.723 . S
C817 C816 1.396 . S
C817 C818 1.394 . S
C818 C788 1.723 . S
C818 C814 1.397 . S
C818 C817 1.394 . S
C819 H791 0.982 . S
C819 H795 0.979 . S
C819 H796 0.977 . S
C819 C816 1.453 . S
C820 H792 0.979 . S
C820 H793 0.980 . S
C820 H794 0.983 . S
C820 C816 1.684 . S
H821 C839 0.948 . S
H822 C780 0.948 . S
H823 C798 0.979 . S
H824 C798 0.980 . S
H825 C798 0.983 . S
H826 C797 0.982 . S
H827 C797 0.979 . S
H828 C797 0.977 . S
H829 C799 0.948 . S
H830 C801 0.947 . S
H831 C802 0.948 . S
H832 C808 0.982 . S
H833 C808 0.979 . S
H834 C808 0.977 . S
H835 C809 0.979 . S
H836 C809 0.980 . S
H837 C809 0.983 . S
H838 C782 0.947 . S
C839 C782 1.392 . S
C839 C783 1.419 . S
C839 H821 0.948 . S
C840 C841 1.391 . S
C840 C844 1.391 . S
C840 H882 0.948 . S
C841 C840 1.391 . S
C841 C842 1.391 . S
C842 C841 1.391 . S
C842 H898 0.947 . S
C842 C899 1.392 . S
C843 C844 1.391 . S
C843 C847 1.397 . S
C843 C899 1.419 . S
C844 C840 1.391 . S
C844 C843 1.391 . S
C844 C845 1.399 . S
C845 C844 1.399 . S
C845 C848 1.396 . S
C845 C857 1.453 . S
C845 C858 1.684 . S
H846 C870 0.948 . S
C847 C843 1.397 . S
C847 C848 1.394 . S
C847 C866 1.723 . S
C848 C845 1.396 . S
C848 C847 1.394 . S
C848 C878 1.723 . S
H849 C872 0.947 . S
H850 C873 0.948 . S
H851 C879 0.982 . S
H852 C880 0.979 . S
H853 C880 0.980 . S
H854 C880 0.983 . S
H855 C879 0.979 . S
H856 C879 0.977 . S
C857 C845 1.453 . S
C857 H886 0.982 . S
C857 H887 0.979 . S
C857 H888 0.977 . S
C858 C845 1.684 . S
C858 H883 0.979 . S
C858 H884 0.980 . S
C858 H885 0.983 . S
C859 C860 1.391 . S
C859 C864 1.391 . S
C859 H889 0.948 . S
C860 C859 1.391 . S
C860 C861 1.391 . S
C861 C860 1.391 . S
C861 C862 1.392 . S
C861 H890 0.947 . S
C862 C861 1.392 . S
C862 C863 1.419 . S
C862 H891 0.948 . S
C863 C862 1.419 . S
C863 C864 1.391 . S
C863 C867 1.397 . S
C864 C859 1.391 . S
C864 C863 1.391 . S
C864 C865 1.399 . S
C865 C864 1.399 . S
C865 C866 1.396 . S
C865 C868 1.453 . S
C865 C869 1.684 . S
C866 C847 1.723 . S
C866 C865 1.396 . S
C866 C867 1.394 . S
C867 C863 1.397 . S
C867 C866 1.394 . S
C867 C877 1.723 . S
C868 C865 1.453 . S
C868 H892 0.982 . S
C868 H893 0.979 . S
C868 H894 0.977 . S
C869 C865 1.684 . S
C869 H895 0.979 . S
C869 H896 0.980 . S
C869 H897 0.983 . S
C870 H846 0.948 . S
C870 C871 1.391 . S
C870 C875 1.391 . S
C871 C870 1.391 . S
C871 C872 1.391 . S
C872 H849 0.947 . S
C872 C871 1.391 . S
C872 C873 1.392 . S
C873 H850 0.948 . S
C873 C872 1.392 . S
C873 C874 1.419 . S
C874 C873 1.419 . S
C874 C875 1.391 . S
C874 C878 1.397 . S
C875 C870 1.391 . S
C875 C874 1.391 . S
C875 C876 1.399 . S
C876 C875 1.399 . S
C876 C877 1.396 . S
C876 C879 1.453 . S
C876 C880 1.684 . S
C877 C867 1.723 . S
C877 C876 1.396 . S
C877 C878 1.394 . S
C878 C848 1.723 . S
C878 C874 1.397 . S
C878 C877 1.394 . S
C879 H851 0.982 . S
C879 H855 0.979 . S
C879 H856 0.977 . S
C879 C876 1.453 . S
C880 H852 0.979 . S
C880 H853 0.980 . S
C880 H854 0.983 . S
C880 C876 1.684 . S
H881 C899 0.948 . S
H882 C840 0.948 . S
H883 C858 0.979 . S
H884 C858 0.980 . S
H885 C858 0.983 . S
H886 C857 0.982 . S
H887 C857 0.979 . S
H888 C857 0.977 . S
H889 C859 0.948 . S
H890 C861 0.947 . S
H891 C862 0.948 . S
H892 C868 0.982 . S
H893 C868 0.979 . S
H894 C868 0.977 . S
H895 C869 0.979 . S
H896 C869 0.980 . S
H897 C869 0.983 . S
H898 C842 0.947 . S
C899 C842 1.392 . S
C899 C843 1.419 . S
C899 H881 0.948 . S
C900 C901 1.391 . S
C900 C904 1.391 . S
C900 H942 0.948 . S
C901 C900 1.391 . S
C901 C902 1.391 . S
C902 C901 1.391 . S
C902 H958 0.947 . S
C902 C959 1.392 . S
C903 C904 1.391 . S
C903 C907 1.397 . S
C903 C959 1.419 . S
C904 C900 1.391 . S
C904 C903 1.391 . S
C904 C905 1.399 . S
C905 C904 1.399 . S
C905 C908 1.396 . S
C905 C917 1.453 . S
C905 C918 1.684 . S
H906 C930 0.948 . S
C907 C903 1.397 . S
C907 C908 1.394 . S
C907 C926 1.723 . S
C908 C905 1.396 . S
C908 C907 1.394 . S
C908 C938 1.723 . S
H909 C932 0.947 . S
H910 C933 0.948 . S
H911 C939 0.982 . S
H912 C940 0.979 . S
H913 C940 0.980 . S
H914 C940 0.983 . S
H915 C939 0.979 . S
H916 C939 0.977 . S
C917 C905 1.453 . S
C917 H946 0.982 . S
C917 H947 0.979 . S
C917 H948 0.977 . S
C918 C905 1.684 . S
C918 H943 0.979 . S
C918 H944 0.980 . S
C918 H945 0.983 . S
C919 C920 1.391 . S
C919 C924 1.391 . S
C919 H949 0.948 . S
C920 C919 1.391 . S
C920 C921 1.391 . S
C921 C920 1.391 . S
C921 C922 1.392 . S
C921 H950 0.947 . S
C922 C921 1.392 . S
C922 C923 1.419 . S
C922 H951 0.948 . S
C923 C922 1.419 . S
C923 C924 1.391 . S
C923 C927 1.397 . S
C924 C919 1.391 . S
C924 C923 1.391 . S
C924 C925 1.399 . S
C925 C924 1.399 . S
C925 C926 1.396 . S
C925 C928 1.453 . S
C925 C929 1.684 . S
C926 C907 1.723 . S
C926 C925 1.396 . S
C926 C927 1.394 . S
C927 C923 1.397 . S
C927 C926 1.394 . S
C927 C937 1.723 . S
C928 C925 1.453 . S
C928 H952 0.982 . S
C928 H953 0.979 . S
C928 H954 0.977 . S
C929 C925 1.684 . S
C929 H955 0.979 . S
C929 H956 0.980 . S
C929 H957 0.983 . S
C930 H906 0.948 . S
C930 C931 1.391 . S
C930 C935 1.391 . S
C931 C930 1.391 . S
C931 C932 1.391 . S
C932 H909 0.947 . S
C932 C931 1.391 . S
C932 C933 1.392 . S
C933 H910 0.948 . S
C933 C932 1.392 . S
C933 C934 1.419 . S
C934 C933 1.419 . S
C934 C935 1.391 . S
C934 C938 1.397 . S
C935 C930 1.391 . S
C935 C934 1.391 . S
C935 C936 1.399 . S
C936 C935 1.399 . S
C936 C937 1.396 . S
C936 C939 1.453 . S
C936 C940 1.684 . S
C937 C927 1.723 . S
C937 C936 1.396 . S
C937 C938 1.394 . S
C938 C908 1.723 . S
C938 C934 1.397 . S
C938 C937 1.394 . S
C939 H911 0.982 . S
C939 H915 0.979 . S
C939 H916 0.977 . S
C939 C936 1.453 . S
C940 H912 0.979 . S
C940 H913 0.980 . S
C940 H914 0.983 . S
C940 C936 1.684 . S
H941 C959 0.948 . S
H942 C900 0.948 . S
H943 C918 0.979 . S
H944 C918 0.980 . S
H945 C918 0.983 . S
H946 C917 0.982 . S
H947 C917 0.979 . S
H948 C917 0.977 . S
H949 C919 0.948 . S
H950 C921 0.947 . S
H951 C922 0.948 . S
H952 C928 0.982 . S
H953 C928 0.979 . S
H954 C928 0.977 . S
H955 C929 0.979 . S
H956 C929 0.980 . S
H957 C929 0.983 . S
H958 C902 0.947 . S
C959 C902 1.392 . S
C959 C903 1.419 . S
C959 H941 0.948 . S
C960 C961 1.391 . S
C960 C964 1.391 . S
C960 H1002 0.948 . S
C961 C960 1.391 . S
C961 C962 1.391 . S
C962 C961 1.391 . S
C962 H1018 0.947 . S
C962 C1019 1.392 . S
C963 C964 1.391 . S
C963 C967 1.397 . S
C963 C1019 1.419 . S
C964 C960 1.391 . S
C964 C963 1.391 . S
C964 C965 1.399 . S
C965 C964 1.399 . S
C965 C968 1.396 . S
C965 C977 1.453 . S
C965 C978 1.684 . S
H966 C990 0.948 . S
C967 C963 1.397 . S
C967 C968 1.394 . S
C967 C986 1.723 . S
C968 C965 1.396 . S
C968 C967 1.394 . S
C968 C998 1.723 . S
H969 C992 0.947 . S
H970 C993 0.948 . S
H971 C999 0.982 . S
H972 C1000 0.979 . S
H973 C1000 0.980 . S
H974 C1000 0.983 . S
H975 C999 0.979 . S
H976 C999 0.977 . S
C977 C965 1.453 . S
C977 H1006 0.982 . S
C977 H1007 0.979 . S
C977 H1008 0.977 . S
C978 C965 1.684 . S
C978 H1003 0.979 . S
C978 H1004 0.980 . S
C978 H1005 0.983 . S
C979 C980 1.391 . S
C979 C984 1.391 . S
C979 H1009 0.948 . S
C980 C979 1.391 . S
C980 C981 1.391 . S
C981 C980 1.391 . S
C981 C982 1.392 . S
C981 H1010 0.947 . S
C982 C981 1.392 . S
C982 C983 1.419 . S
C982 H1011 0.948 . S
C983 C982 1.419 . S
C983 C984 1.391 . S
C983 C987 1.397 . S
C984 C979 1.391 . S
C984 C983 1.391 . S
C984 C985 1.399 . S
C985 C984 1.399 . S
C985 C986 1.396 . S
C985 C988 1.453 . S
C985 C989 1.684 . S
C986 C967 1.723 . S
C986 C985 1.396 . S
C986 C987 1.394 . S
C987 C983 1.397 . S
C987 C986 1.394 . S
C987 C997 1.723 . S
C988 C985 1.453 . S
C988 H1012 0.982 . S
C988 H1013 0.979 . S
C988 H1014 0.977 . S
C989 C985 1.684 . S
C989 H1015 0.979 . S
C989 H1016 0.980 . S
C989 H1017 0.983 . S
C990 H966 0.948 . S
C990 C991 1.391 . S
C990 C995 1.391 . S
C991 C990 1.391 . S
C991 C992 1.391 . S
C992 H969 0.947 . S
C992 C991 1.391 . S
C992 C993 1.392 . S
C993 H970 0.948 . S
C993 C992 1.392 . S
C993 C994 1.419 . S
C994 C993 1.419 . S
C994 C995 1.391 . S
C994 C998 1.397 . S
C995 C990 1.391 . S
C995 C994 1.391 . S
C995 C996 1.399 . S
C996 C995 1.399 . S
C996 C997 1.396 . S
C996 C999 1.453 . S
C996 C1000 1.684 . S
C997 C987 1.723 . S
C997 C996 1.396 . S
C997 C998 1.394 . S
C998 C968 1.723 . S
C998 C994 1.397 . S
C998 C997 1.394 . S
C999 H971 0.982 . S
C999 H975 0.979 . S
C999 H976 0.977 . S
C999 C996 1.453 . S
C1000 H972 0.979 . S
C1000 H973 0.980 . S
C1000 H974 0.983 . S
C1000 C996 1.684 . S
H1001 C1019 0.948 . S
H1002 C960 0.948 . S
H1003 C978 0.979 . S
H1004 C978 0.980 . S
H1005 C978 0.983 . S
H1006 C977 0.982 . S
H1007 C977 0.979 . S
H1008 C977 0.977 . S
H1009 C979 0.948 . S
H1010 C981 0.947 . S
H1011 C982 0.948 . S
H1012 C988 0.982 . S
H1013 C988 0.979 . S
H1014 C988 0.977 . S
H1015 C989 0.979 . S
H1016 C989 0.980 . S
H1017 C989 0.983 . S
H1018 C962 0.947 . S
C1019 C962 1.392 . S
C1019 C963 1.419 . S
C1019 H1001 0.948 . S
C1020 C1021 1.391 . S
C1020 C1024 1.391 . S
C1020 H1062 0.948 . S
C1021 C1020 1.391 . S
C1021 C1022 1.391 . S
C1022 C1021 1.391 . S
C1022 H1078 0.947 . S
C1022 C1079 1.392 . S
C1023 C1024 1.391 . S
C1023 C1027 1.397 . S
C1023 C1079 1.419 . S
C1024 C1020 1.391 . S
C1024 C1023 1.391 . S
C1024 C1025 1.399 . S
C1025 C1024 1.399 . S
C1025 C1028 1.396 . S
C1025 C1037 1.453 . S
C1025 C1038 1.684 . S
H1026 C1050 0.948 . S
C1027 C1023 1.397 . S
C1027 C1028 1.394 . S
C1027 C1046 1.723 . S
C1028 C1025 1.396 . S
C1028 C1027 1.394 . S
C1028 C1058 1.723 . S
H1029 C1052 0.947 . S
H1030 C1053 0.948 . S
H1031 C1059 0.982 . S
H1032 C1060 0.979 . S
H1033 C1060 0.980 . S
H1034 C1060 0.983 . S
H1035 C1059 0.979 . S
H1036 C1059 0.977 . S
C1037 C1025 1.453 . S
C1037 H1066 0.982 . S
C1037 H1067 0.979 . S
C1037 H1068 0.977 . S
C1038 C1025 1.684 . S
C1038 H1063 0.979 . S
C1038 H1064 0.980 . S
C1038 H1065 0.983 . S
C1039 C1040 1.391 . S
C1039 C1044 1.391 . S
C1039 H1069 0.948 . S
C1040 C1039 1.391 . S
C1040 C1041 1.391 . S
C1041 C1040 1.391 . S
C1041 C1042 1.392 . S
C1041 H1070 0.947 . S
C1042 C1041 1.392 . S
C1042 C1043 1.419 . S
C1042 H1071 0.948 . S
C1043 C1042 1.419 . S
C1043 C1044 1.391 . S
C1043 C1047 1.397 . S
C1044 C1039 1.391 . S
C1044 C1043 1.391 . S
C1044 C1045 1.399 . S
C1045 C1044 1.399 . S
C1045 C1046 1.396 . S
C1045 C1048 1.453 . S
C1045 C1049 1.684 . S
C1046 C1027 1.723 . S
C1046 C1045 1.396 . S
C1046 C1047 1.394 . S
C1047 C1043 1.397 . S
C1047 C1046 1.394 . S
C1047 C1057 1.723 . S
C1048 C1045 1.453 . S
C1048 H1072 0.982 . S
C1048 H1073 0.979 . S
C1048 H1074 0.977 . S
C1049 C1045 1.684 . S
C1049 H1075 0.979 . S
C1049 H1076 0.980 . S
C1049 H1077 0.983 . S
C1050 H1026 0.948 . S
C1050 C1051 1.391 . S
C1050 C1055 1.391 . S
C1051 C1050 1.391 . S
C1051 C1052 1.391 . S
C1052 H1029 0.947 . S
C1052 C1051 1.391 . S
C1052 C1053 1.392 . S
C1053 H1030 0.948 . S
C1053 C1052 1.392 . S
C1053 C1054 1.419 . S
C1054 C1053 1.419 . S
C1054 C1055 1.391 . S
C1054 C1058 1.397 . S
C1055 C1050 1.391 . S
C1055 C1054 1.391 . S
C1055 C1056 1.399 . S
C1056 C1055 1.399 . S
C1056 C1057 1.396 . S
C1056 C1059 1.453 . S
C1056 C1060 1.684 . S
C1057 C1047 1.723 . S
C1057 C1056 1.396 . S
C1057 C1058 1.394 . S
C1058 C1028 1.723 . S
C1058 C1054 1.397 . S
C1058 C1057 1.394 . S
C1059 H1031 0.982 . S
C1059 H1035 0.979 . S
C1059 H1036 0.977 . S
C1059 C1056 1.453 . S
C1060 H1032 0.979 . S
C1060 H1033 0.980 . S
C1060 H1034 0.983 . S
C1060 C1056 1.684 . S
H1061 C1079 0.948 . S
H1062 C1020 0.948 . S
H1063 C1038 0.979 . S
H1064 C1038 0.980 . S
H1065 C1038 0.983 . S
H1066 C1037 0.982 . S
H1067 C1037 0.979 . S
H1068 C1037 0.977 . S
H1069 C1039 0.948 . S
H1070 C1041 0.947 . S
H1071 C1042 0.948 . S
H1072 C1048 0.982 . S
H1073 C1048 0.979 . S
H1074 C1048 0.977 . S
H1075 C1049 0.979 . S
H1076 C1049 0.980 . S
H1077 C1049 0.983 . S
H1078 C1022 0.947 . S
C1079 C1022 1.392 . S
C1079 C1023 1.419 . S
C1079 H1061 0.948 . S
C1080 C1081 1.391 . S
C1080 C1084 1.391 . S
C1080 H1122 0.948 . S
C1081 C1080 1.391 . S
C1081 C1082 1.391 . S
C1082 C1081 1.391 . S
C1082 H1138 0.947 . S
C1082 C1139 1.392 . S
C1083 C1084 1.391 . S
C1083 C1087 1.397 . S
C1083 C1139 1.419 . S
C1084 C1080 1.391 . S
C1084 C1083 1.391 . S
C1084 C1085 1.399 . S
C1085 C1084 1.399 . S
C1085 C1088 1.396 . S
C1085 C1097 1.453 . S
C1085 C1098 1.684 . S
H1086 C1110 0.948 . S
C1087 C1083 1.397 . S
C1087 C1088 1.394 . S
C1087 C1106 1.723 . S
C1088 C1085 1.396 . S
C1088 C1087 1.394 . S
C1088 C1118 1.723 . S
H1089 C1112 0.947 . S
H1090 C1113 0.948 . S
H1091 C1119 0.982 . S
H1092 C1120 0.979 . S
H1093 C1120 0.980 . S
H1094 C1120 0.983 . S
H1095 C1119 0.979 . S
H1096 C1119 0.977 . S
C1097 C1085 1.453 . S
C1097 H1126 0.982 . S
C1097 H1127 0.979 . S
C1097 H1128 0.977 . S
C1098 C1085 1.684 . S
C1098 H1123 0.979 . S
C1098 H1124 0.980 . S
C1098 H1125 0.983 . S
C1099 C1100 1.391 . S
C1099 C1104 1.391 . S
C1099 H1129 0.948 . S
C1100 C1099 1.391 . S
C1100 C1101 1.391 . S
C1101 C1100 1.391 . S
C1101 C1102 1.392 . S
C1101 H1130 0.947 . S
C1102 C1101 1.392 . S
C1102 C1103 1.419 . S
C1102 H1131 0.948 . S
C1103 C1102 1.419 . S
C1103 C1104 1.391 . S
C1103 C1107 1.397 . S
C1104 C1099 1.391 . S
C1104 C1103 1.391 . S
C1104 C1105 1.399 . S
C1105 C1104 1.399 . S
C1105 C1106 1.396 . S
C1105 C1108 1.453 . S
C1105 C1109 1.684 . S
C1106 C1087 1.723 . S
C1106 C1105 1.396 . S
C1106 C1107 1.394 . S
C1107 C1103 1.397 . S
C1107 C1106 1.394 . S
C1107 C1117 1.723 . S
C1108 C1105 1.453 . S
C1108 H1132 0.982 . S
C1108 H1133 0.979 . S
C1108 H1134 0.977 . S
C1109 C1105 1.684 . S
C1109 H1135 0.979 . S
C1109 H1136 0.980 . S
C1109 H1137 0.983 . S
C1110 H1086 0.948 . S
C1110 C1111 1.391 . S
C1110 C1115 1.391 . S
C1111 C1110 1.391 . S
C1111 C1112 1.391 . S
C1112 H1089 0.947 . S
C1112 C1111 1.391 . S
C1112 C1113 1.392 . S
C1113 H1090 0.948 . S
C1113 C1112 1.392 . S
C1113 C1114 1.419 . S
C1114 C1113 1.419 . S
C1114 C1115 1.391 . S
C1114 C1118 1.397 . S
C1115 C1110 1.391 . S
C1115 C1114 1.391 . S
C1115 C1116 1.399 . S
C1116 C1115 1.399 . S
C1116 C1117 1.396 . S
C1116 C1119 1.453 . S
C1116 C1120 1.684 . S
C1117 C1107 1.723 . S
C1117 C1116 1.396 . S
C1117 C1118 1.394 . S
C1118 C1088 1.723 . S
C1118 C1114 1.397 . S
C1118 C1117 1.394 . S
C1119 H1091 0.982 . S
C1119 H1095 0.979 . S
C1119 H1096 0.977 . S
C1119 C1116 1.453 . S
C1120 H1092 0.979 . S
C1120 H1093 0.980 . S
C1120 H1094 0.983 . S
C1120 C1116 1.684 . S
H1121 C1139 0.948 . S
H1122 C1080 0.948 . S
H1123 C1098 0.979 . S
H1124 C1098 0.980 . S
H1125 C1098 0.983 . S
H1126 C1097 0.982 . S
H1127 C1097 0.979 . S
H1128 C1097 0.977 . S
H1129 C1099 0.948 . S
H1130 C1101 0.947 . S
H1131 C1102 0.948 . S
H1132 C1108 0.982 . S
H1133 C1108 0.979 . S
H1134 C1108 0.977 . S
H1135 C1109 0.979 . S
H1136 C1109 0.980 . S
H1137 C1109 0.983 . S
H1138 C1082 0.947 . S
C1139 C1082 1.392 . S
C1139 C1083 1.419 . S
C1139 H1121 0.948 . S
C1140 C1141 1.391 . S
C1140 C1144 1.391 . S
C1140 H1182 0.948 . S
C1141 C1140 1.391 . S
C1141 C1142 1.391 . S
C1142 C1141 1.391 . S
C1142 H1198 0.947 . S
C1142 C1199 1.392 . S
C1143 C1144 1.391 . S
C1143 C1147 1.397 . S
C1143 C1199 1.419 . S
C1144 C1140 1.391 . S
C1144 C1143 1.391 . S
C1144 C1145 1.399 . S
C1145 C1144 1.399 . S
C1145 C1148 1.396 . S
C1145 C1157 1.453 . S
C1145 C1158 1.684 . S
H1146 C1170 0.948 . S
C1147 C1143 1.397 . S
C1147 C1148 1.394 . S
C1147 C1166 1.723 . S
C1148 C1145 1.396 . S
C1148 C1147 1.394 . S
C1148 C1178 1.723 . S
H1149 C1172 0.947 . S
H1150 C1173 0.948 . S
H1151 C1179 0.982 . S
H1152 C1180 0.979 . S
H1153 C1180 0.980 . S
H1154 C1180 0.983 . S
H1155 C1179 0.979 . S
H1156 C1179 0.977 . S
C1157 C1145 1.453 . S
C1157 H1186 0.982 . S
C1157 H1187 0.979 . S
C1157 H1188 0.977 . S
C1158 C1145 1.684 . S
C1158 H1183 0.979 . S
C1158 H1184 0.980 . S
C1158 H1185 0.983 . S
C1159 C1160 1.391 . S
C1159 C1164 1.391 . S
C1159 H1189 0.948 . S
C1160 C1159 1.391 . S
C1160 C1161 1.391 . S
C1161 C1160 1.391 . S
C1161 C1162 1.392 . S
C1161 H1190 0.947 . S
C1162 C1161 1.392 . S
C1162 C1163 1.419 . S
C1162 H1191 0.948 . S
C1163 C1162 1.419 . S
C1163 C1164 1.391 . S
C1163 C1167 1.397 . S
C1164 C1159 1.391 . S
C1164 C1163 1.391 . S
C1164 C1165 1.399 . S
C1165 C1164 1.399 . S
C1165 C1166 1.396 . S
C1165 C1168 1.453 . S
C1165 C1169 1.684 . S
C1166 C1147 1.723 . S
C1166 C1165 1.396 . S
C1166 C1167 1.394 . S
C1167 C1163 1.397 . S
C1167 C1166 1.394 . S
C1167 C1177 1.723 . S
C1168 C1165 1.453 . S
C1168 H1192 0.982 . S
C1168 H1193 0.979 . S
C1168 H1194 0.977 . S
C1169 C1165 1.684 . S
C1169 H1195 0.979 . S
C1169 H1196 0.980 . S
C1169 H1197 0.983 . S
C1170 H1146 0.948 . S
C1170 C1171 1.391 . S
C1170 C1175 1.391 . S
C1171 C1170 1.391 . S
C1171 C1172 1.391 . S
C1172 H1149 0.947 . S
C1172 C1171 1.391 . S
C1172 C1173 1.392 . S
C1173 H1150 0.948 . S
C1173 C1172 1.392 . S
C1173 C1174 1.419 . S
C1174 C1173 1.419 . S
C1174 C1175 1.391 . S
C1174 C1178 1.397 . S
C1175 C1170 1.391 . S
C1175 C1174 1.391 . S
C1175 C1176 1.399 . S
C1176 C1175 1.399 . S
C1176 C1177 1.396 . S
C1176 C1179 1.453 . S
C1176 C1180 1.684 . S
C1177 C1167 1.723 . S
C1177 C1176 1.396 . S
C1177 C1178 1.394 . S
C1178 C1148 1.723 . S
C1178 C1174 1.397 . S
C1178 C1177 1.394 . S
C1179 H1151 0.982 . S
C1179 H1155 0.979 . S
C1179 H1156 0.977 . S
C1179 C1176 1.453 . S
C1180 H1152 0.979 . S
C1180 H1153 0.980 . S
C1180 H1154 0.983 . S
C1180 C1176 1.684 . S
H1181 C1199 0.948 . S
H1182 C1140 0.948 . S
H1183 C1158 0.979 . S
H1184 C1158 0.980 . S
H1185 C1158 0.983 . S
H1186 C1157 0.982 . S
H1187 C1157 0.979 . S
H1188 C1157 0.977 . S
H1189 C1159 0.948 . S
H1190 C1161 0.947 . S
H1191 C1162 0.948 . S
H1192 C1168 0.982 . S
H1193 C1168 0.979 . S
H1194 C1168 0.977 . S
H1195 C1169 0.979 . S
H1196 C1169 0.980 . S
H1197 C1169 0.983 . S
H1198 C1142 0.947 . S
C1199 C1142 1.392 . S
C1199 C1143 1.419 . S
C1199 H1181 0.948 . S
C1200 C1201 1.391 . S
C1200 C1204 1.391 . S
C1200 H1242 0.948 . S
C1201 C1200 1.391 . S
C1201 C1202 1.391 . S
C1202 C1201 1.391 . S
C1202 H1258 0.947 . S
C1202 C1259 1.392 . S
C1203 C1204 1.391 . S
C1203 C1207 1.397 . S
C1203 C1259 1.419 . S
C1204 C1200 1.391 . S
C1204 C1203 1.391 . S
C1204 C1205 1.399 . S
C1205 C1204 1.399 . S
C1205 C1208 1.396 . S
C1205 C1217 1.453 . S
C1205 C1218 1.684 . S
H1206 C1230 0.948 . S
C1207 C1203 1.397 . S
C1207 C1208 1.394 . S
C1207 C1226 1.723 . S
C1208 C1205 1.396 . S
C1208 C1207 1.394 . S
C1208 C1238 1.723 . S
H1209 C1232 0.947 . S
H1210 C1233 0.948 . S
H1211 C1239 0.982 . S
H1212 C1240 0.979 . S
H1213 C1240 0.980 . S
H1214 C1240 0.983 . S
H1215 C1239 0.979 . S
H1216 C1239 0.977 . S
C1217 C1205 1.453 . S
C1217 H1246 0.982 . S
C1217 H1247 0.979 . S
C1217 H1248 0.977 . S
C1218 C1205 1.684 . S
C1218 H1243 0.979 . S
C1218 H1244 0.980 . S
C1218 H1245 0.983 . S
C1219 C1220 1.391 . S
C1219 C1224 1.391 . S
C1219 H1249 0.948 . S
C1220 C1219 1.391 . S
C1220 C1221 1.391 . S
C1221 C1220 1.391 . S
C1221 C1222 1.392 . S
C1221 H1250 0.947 . S
C1222 C1221 1.392 . S
C1222 C1223 1.419 . S
C1222 H1251 0.948 . S
C1223 C1222 1.419 . S
C1223 C1224 1.391 . S
C1223 C1227 1.397 . S
C1224 C1219 1.391 . S
C1224 C1223 1.391 . S
C1224 C1225 1.399 . S
C1225 C1224 1.399 . S
C1225 C1226 1.396 . S
C1225 C1228 1.453 . S
C1225 C1229 1.684 . S
C1226 C1207 1.723 . S
C1226 C1225 1.396 . S
C1226 C1227 1.394 . S
C1227 C1223 1.397 . S
C1227 C1226 1.394 . S
C1227 C1237 1.723 . S
C1228 C1225 1.453 . S
C1228 H1252 0.982 . S
C1228 H1253 0.979 . S
C1228 H1254 0.977 . S
C1229 C1225 1.684 . S
C1229 H1255 0.979 . S
C1229 H1256 0.980 . S
C1229 H1257 0.983 . S
C1230 H1206 0.948 . S
C1230 C1231 1.391 . S
C1230 C1235 1.391 . S
C1231 C1230 1.391 . S
C1231 C1232 1.391 . S
C1232 H1209 0.947 . S
C1232 C1231 1.391 . S
C1232 C1233 1.392 . S
C1233 H1210 0.948 . S
C1233 C1232 1.392 . S
C1233 C1234 1.419 . S
C1234 C1233 1.419 . S
C1234 C1235 1.391 . S
C1234 C1238 1.397 . S
C1235 C1230 1.391 . S
C1235 C1234 1.391 . S
C1235 C1236 1.399 . S
C1236 C1235 1.399 . S
C1236 C1237 1.396 . S
C1236 C1239 1.453 . S
C1236 C1240 1.684 . S
C1237 C1227 1.723 . S
C1237 C1236 1.396 . S
C1237 C1238 1.394 . S
C1238 C1208 1.723 . S
C1238 C1234 1.397 . S
C1238 C1237 1.394 . S
C1239 H1211 0.982 . S
C1239 H1215 0.979 . S
C1239 H1216 0.977 . S
C1239 C1236 1.453 . S
C1240 H1212 0.979 . S
C1240 H1213 0.980 . S
C1240 H1214 0.983 . S
C1240 C1236 1.684 . S
H1241 C1259 0.948 . S
H1242 C1200 0.948 . S
H1243 C1218 0.979 . S
H1244 C1218 0.980 . S
H1245 C1218 0.983 . S
H1246 C1217 0.982 . S
H1247 C1217 0.979 . S
H1248 C1217 0.977 . S
H1249 C1219 0.948 . S
H1250 C1221 0.947 . S
H1251 C1222 0.948 . S
H1252 C1228 0.982 . S
H1253 C1228 0.979 . S
H1254 C1228 0.977 . S
H1255 C1229 0.979 . S
H1256 C1229 0.980 . S
H1257 C1229 0.983 . S
H1258 C1202 0.947 . S
C1259 C1202 1.392 . S
C1259 C1203 1.419 . S
C1259 H1241 0.948 . S
C1260 C1261 1.391 . S
C1260 C1264 1.391 . S
C1260 H1302 0.948 . S
C1261 C1260 1.391 . S
C1261 C1262 1.391 . S
C1262 C1261 1.391 . S
C1262 H1318 0.947 . S
C1262 C1319 1.392 . S
C1263 C1264 1.391 . S
C1263 C1267 1.397 . S
C1263 C1319 1.419 . S
C1264 C1260 1.391 . S
C1264 C1263 1.391 . S
C1264 C1265 1.399 . S
C1265 C1264 1.399 . S
C1265 C1268 1.396 . S
C1265 C1277 1.453 . S
C1265 C1278 1.684 . S
H1266 C1290 0.948 . S
C1267 C1263 1.397 . S
C1267 C1268 1.394 . S
C1267 C1286 1.723 . S
C1268 C1265 1.396 . S
C1268 C1267 1.394 . S
C1268 C1298 1.723 . S
H1269 C1292 0.947 . S
H1270 C1293 0.948 . S
H1271 C1299 0.982 . S
H1272 C1300 0.979 . S
H1273 C1300 0.980 . S
H1274 C1300 0.983 . S
H1275 C1299 0.979 . S
H1276 C1299 0.977 . S
C1277 C1265 1.453 . S
C1277 H1306 0.982 . S
C1277 H1307 0.979 . S
C1277 H1308 0.977 . S
C1278 C1265 1.684 . S
C1278 H1303 0.979 . S
C1278 H1304 0.980 . S
C1278 H1305 0.983 . S
C1279 C1280 1.391 . S
C1279 C1284 1.391 . S
C1279 H1309 0.948 . S
C1280 C1279 1.391 . S
C1280 C1281 1.391 . S
C1281 C1280 1.391 . S
C1281 C1282 1.392 . S
C1281 H1310 0.947 . S
C1282 C1281 1.392 . S
C1282 C1283 1.419 . S
C1282 H1311 0.948 . S
C1283 C1282 1.419 . S
C1283 C1284 1.391 . S
C1283 C1287 1.397 . S
C1284 C1279 1.391 . S
C1284 C1283 1.391 . S
C1284 C1285 1.399 . S
C1285 C1284 1.399 . S
C1285 C1286 1.396 . S
C1285 C1288 1.453 . S
C1285 C1289 1.684 . S
C1286 C1267 1.723 . S
C1286 C1285 1.396 . S
C1286 C1287 1.394 . S
C1287 C1283 1.397 . S
C1287 C1286 1.394 . S
C1287 C1297 1.723 . S
C1288 C1285 1.453 . S
C1288 H1312 0.982 . S
C1288 H1313 0.979 . S
C1288 H1314 0.977 . S
C1289 C1285 1.684 . S
C1289 H1315 0.979 . S
C1289 H1316 0.980 . S
C1289 H1317 0.983 . S
C1290 H1266 0.948 . S
C1290 C1291 1.391 . S
C1290 C1295 1.391 . S
C1291 C1290 1.391 . S
C1291 C1292 1.391 . S
C1292 H1269 0.947 . S
C1292 C1291 1.391 . S
C1292 C1293 1.392 . S
C1293 H1270 0.948 . S
C1293 C1292 1.392 . S
C1293 C1294 1.419 . S
C1294 C1293 1.419 . S
C1294 C1295 1.391 . S
C1294 C1298 1.397 . S
C1295 C1290 1.391 . S
C1295 C1294 1.391 . S
C1295 C1296 1.399 . S
C1296 C1295 1.399 . S
C1296 C1297 1.396 . S
C1296 C1299 1.453 . S
C1296 C1300 1.684 . S
C1297 C1287 1.723 . S
C1297 C1296 1.396 . S
C1297 C1298 1.394 . S
C1298 C1268 1.723 . S
C1298 C1294 1.397 . S
C1298 C1297 1.394 . S
C1299 H1271 0.982 . S
C1299 H1275 0.979 . S
C1299 H1276 0.977 . S
C1299 C1296 1.453 . S
C1300 H1272 0.979 . S
C1300 H1273 0.980 . S
C1300 H1274 0.983 . S
C1300 C1296 1.684 . S
H1301 C1319 0.948 . S
H1302 C1260 0.948 . S
H1303 C1278 0.979 . S
H1304 C1278 0.980 . S
H1305 C1278 0.983 . S
H1306 C1277 0.982 . S
H1307 C1277 0.979 . S
H1308 C1277 0.977 . S
H1309 C1279 0.948 . S
H1310 C1281 0.947 . S
H1311 C1282 0.948 . S
H1312 C1288 0.982 . S
H1313 C1288 0.979 . S
H1314 C1288 0.977 . S
H1315 C1289 0.979 . S
H1316 C1289 0.980 . S
H1317 C1289 0.983 . S
H1318 C1262 0.947 . S
C1319 C1262 1.392 . S
C1319 C1263 1.419 . S
C1319 H1301 0.948 . S
C1320 C1321 1.391 . S
C1320 C1324 1.391 . S
C1320 H1362 0.948 . S
C1321 C1320 1.391 . S
C1321 C1322 1.391 . S
C1322 C1321 1.391 . S
C1322 H1378 0.947 . S
C1322 C1379 1.392 . S
C1323 C1324 1.391 . S
C1323 C1327 1.397 . S
C1323 C1379 1.419 . S
C1324 C1320 1.391 . S
C1324 C1323 1.391 . S
C1324 C1325 1.399 . S
C1325 C1324 1.399 . S
C1325 C1328 1.396 . S
C1325 C1337 1.453 . S
C1325 C1338 1.684 . S
H1326 C1350 0.948 . S
C1327 C1323 1.397 . S
C1327 C1328 1.394 . S
C1327 C1346 1.723 . S
C1328 C1325 1.396 . S
C1328 C1327 1.394 . S
C1328 C1358 1.723 . S
H1329 C1352 0.947 . S
H1330 C1353 0.948 . S
H1331 C1359 0.982 . S
H1332 C1360 0.979 . S
H1333 C1360 0.980 . S
H1334 C1360 0.983 . S
H1335 C1359 0.979 . S
H1336 C1359 0.977 . S
C1337 C1325 1.453 . S
C1337 H1366 0.982 . S
C1337 H1367 0.979 . S
C1337 H1368 0.977 . S
C1338 C1325 1.684 . S
C1338 H1363 0.979 . S
C1338 H1364 0.980 . S
C1338 H1365 0.983 . S
C1339 C1340 1.391 . S
C1339 C1344 1.391 . S
C1339 H1369 0.948 . S
C1340 C1339 1.391 . S
C1340 C1341 1.391 . S
C1341 C1340 1.391 . S
C1341 C1342 1.392 . S
C1341 H1370 0.947 . S
C1342 C1341 1.392 . S
C1342 C1343 1.419 . S
C1342 H1371 0.948 . S
C1343 C1342 1.419 . S
C1343 C1344 1.391 . S
C1343 C1347 1.397 . S
C1344 C1339 1.391 . S
C1344 C1343 1.391 . S
C1344 C1345 1.399 . S
C1345 C1344 1.399 . S
C1345 C1346 1.396 . S
C1345 C1348 1.453 . S
C1345 C1349 1.684 . S
C1346 C1327 1.723 . S
C1346 C1345 1.396 . S
C1346 C1347 1.394 . S
C1347 C1343 1.397 . S
C1347 C1346 1.394 . S
C1347 C1357 1.723 . S
C1348 C1345 1.453 . S
C1348 H1372 0.982 . S
C1348 H1373 0.979 . S
C1348 H1374 0.977 . S
C1349 C1345 1.684 . S
C1349 H1375 0.979 . S
C1349 H1376 0.980 . S
C1349 H1377 0.983 . S
C1350 H1326 0.948 . S
C1350 C1351 1.391 . S
C1350 C1355 1.391 . S
C1351 C1350 1.391 . S
C1351 C1352 1.391 . S
C1352 H1329 0.947 . S
C1352 C1351 1.391 . S
C1352 C1353 1.392 . S
C1353 H1330 0.948 . S
C1353 C1352 1.392 . S
C1353 C1354 1.419 . S
C1354 C1353 1.419 . S
C1354 C1355 1.391 . S
C1354 C1358 1.397 . S
C1355 C1350 1.391 . S
C1355 C1354 1.391 . S
C1355 C1356 1.399 . S
C1356 C1355 1.399 . S
C1356 C1357 1.396 . S
C1356 C1359 1.453 . S
C1356 C1360 1.684 . S
C1357 C1347 1.723 . S
C1357 C1356 1.396 . S
C1357 C1358 1.394 . S
C1358 C1328 1.723 . S
C1358 C1354 1.397 . S
C1358 C1357 1.394 . S
C1359 H1331 0.982 . S
C1359 H1335 0.979 . S
C1359 H1336 0.977 . S
C1359 C1356 1.453 . S
C1360 H1332 0.979 . S
C1360 H1333 0.980 . S
C1360 H1334 0.983 . S
C1360 C1356 1.684 . S
H1361 C1379 0.948 . S
H1362 C1320 0.948 . S
H1363 C1338 0.979 . S
H1364 C1338 0.980 . S
H1365 C1338 0.983 . S
H1366 C1337 0.982 . S
H1367 C1337 0.979 . S
H1368 C1337 0.977 . S
H1369 C1339 0.948 . S
H1370 C1341 0.947 . S
H1371 C1342 0.948 . S
H1372 C1348 0.982 . S
H1373 C1348 0.979 . S
H1374 C1348 0.977 . S
H1375 C1349 0.979 . S
H1376 C1349 0.980 . S
H1377 C1349 0.983 . S
H1378 C1322 0.947 . S
C1379 C1322 1.392 . S
C1379 C1323 1.419 . S
C1379 H1361 0.948 . S
C1380 C1381 1.391 . S
C1380 C1384 1.391 . S
C1380 H1422 0.948 . S
C1381 C1380 1.391 . S
C1381 C1382 1.391 . S
C1382 C1381 1.391 . S
C1382 H1438 0.947 . S
C1382 C1439 1.392 . S
C1383 C1384 1.391 . S
C1383 C1387 1.397 . S
C1383 C1439 1.419 . S
C1384 C1380 1.391 . S
C1384 C1383 1.391 . S
C1384 C1385 1.399 . S
C1385 C1384 1.399 . S
C1385 C1388 1.396 . S
C1385 C1397 1.453 . S
C1385 C1398 1.684 . S
H1386 C1410 0.948 . S
C1387 C1383 1.397 . S
C1387 C1388 1.394 . S
C1387 C1406 1.723 . S
C1388 C1385 1.396 . S
C1388 C1387 1.394 . S
C1388 C1418 1.723 . S
H1389 C1412 0.947 . S
H1390 C1413 0.948 . S
H1391 C1419 0.982 . S
H1392 C1420 0.979 . S
H1393 C1420 0.980 . S
H1394 C1420 0.983 . S
H1395 C1419 0.979 . S
H1396 C1419 0.977 . S
C1397 C1385 1.453 . S
C1397 H1426 0.982 . S
C1397 H1427 0.979 . S
C1397 H1428 0.977 . S
C1398 C1385 1.684 . S
C1398 H1423 0.979 . S
C1398 H1424 0.980 . S
C1398 H1425 0.983 . S
C1399 C1400 1.391 . S
C1399 C1404 1.391 . S
C1399 H1429 0.948 . S
C1400 C1399 1.391 . S
C1400 C1401 1.391 . S
C1401 C1400 1.391 . S
C1401 C1402 1.392 . S
C1401 H1430 0.947 . S
C1402 C1401 1.392 . S
C1402 C1403 1.419 . S
C1402 H1431 0.948 . S
C1403 C1402 1.419 . S
C1403 C1404 1.391 . S
C1403 C1407 1.397 . S
C1404 C1399 1.391 . S
C1404 C1403 1.391 . S
C1404 C1405 1.399 . S
C1405 C1404 1.399 . S
C1405 C1406 1.396 . S
C1405 C1408 1.453 . S
C1405 C1409 1.684 . S
C1406 C1387 1.723 . S
C1406 C1405 1.396 . S
C1406 C1407 1.394 . S
C1407 C1403 1.397 . S
C1407 C1406 1.394 . S
C1407 C1417 1.723 . S
C1408 C1405 1.453 . S
C1408 H1432 0.982 . S
C1408 H1433 0.979 . S
C1408 H1434 0.977 . S
C1409 C1405 1.684 . S
C1409 H1435 0.979 . S
C1409 H1436 0.980 . S
C1409 H1437 0.983 . S
C1410 H1386 0.948 . S
C1410 C1411 1.391 . S
C1410 C1415 1.391 . S
C1411 C1410 1.391 . S
C1411 C1412 1.391 . S
C1412 H1389 0.947 . S
C1412 C1411 1.391 . S
C1412 C1413 1.392 . S
C1413 H1390 0.948 . S
C1413 C1412 1.392 . S
C1413 C1414 1.419 . S
C1414 C1413 1.419 . S
C1414 C1415 1.391 . S
C1414 C1418 1.397 . S
C1415 C1410 1.391 . S
C1415 C1414 1.391 . S
C1415 C1416 1.399 . S
C1416 C1415 1.399 . S
C1416 C1417 1.396 . S
C1416 C1419 1.453 . S
C1416 C1420 1.684 . S
C1417 C1407 1.723 . S
C1417 C1416 1.396 . S
C1417 C1418 1.394 . S
C1418 C1388 1.723 . S
C1418 C1414 1.397 . S
C1418 C1417 1.394 . S
C1419 H1391 0.982 . S
C1419 H1395 0.979 . S
C1419 H1396 0.977 . S
C1419 C1416 1.453 . S
C1420 H1392 0.979 . S
C1420 H1393 0.980 . S
C1420 H1394 0.983 . S
C1420 C1416 1.684 . S
H1421 C1439 0.948 . S
H1422 C1380 0.948 . S
H1423 C1398 0.979 . S
H1424 C1398 0.980 . S
H1425 C1398 0.983 . S
H1426 C1397 0.982 . S
H1427 C1397 0.979 . S
H1428 C1397 0.977 . S
H1429 C1399 0.948 . S
H1430 C1401 0.947 . S
H1431 C1402 0.948 . S
H1432 C1408 0.982 . S
H1433 C1408 0.979 . S
H1434 C1408 0.977 . S
H1435 C1409 0.979 . S
H1436 C1409 0.980 . S
H1437 C1409 0.983 . S
H1438 C1382 0.947 . S
C1439 C1382 1.392 . S
C1439 C1383 1.419 . S
C1439 H1421 0.948 . S
C1440 C1441 1.391 . S
C1440 C1444 1.391 . S
C1440 H1482 0.948 . S
C1441 C1440 1.391 . S
C1441 C1442 1.391 . S
C1442 C1441 1.391 . S
C1442 H1498 0.947 . S
C1442 C1499 1.392 . S
C1443 C1444 1.391 . S
C1443 C1447 1.397 . S
C1443 C1499 1.419 . S
C1444 C1440 1.391 . S
C1444 C1443 1.391 . S
C1444 C1445 1.399 . S
C1445 C1444 1.399 . S
C1445 C1448 1.396 . S
C1445 C1457 1.453 . S
C1445 C1458 1.684 . S
H1446 C1470 0.948 . S
C1447 C1443 1.397 . S
C1447 C1448 1.394 . S
C1447 C1466 1.723 . S
C1448 C1445 1.396 . S
C1448 C1447 1.394 . S
C1448 C1478 1.723 . S
H1449 C1472 0.947 . S
H1450 C1473 0.948 . S
H1451 C1479 0.982 . S
H1452 C1480 0.979 . S
H1453 C1480 0.980 . S
H1454 C1480 0.983 . S
H1455 C1479 0.979 . S
H1456 C1479 0.977 . S
C1457 C1445 1.453 . S
C1457 H1486 0.982 . S
C1457 H1487 0.979 . S
C1457 H1488 0.977 . S
C1458 C1445 1.684 . S
C1458 H1483 0.979 . S
C1458 H1484 0.980 . S
C1458 H1485 0.983 . S
C1459 C1460 1.391 . S
C1459 C1464 1.391 . S
C1459 H1489 0.948 . S
C1460 C1459 1.391 . S
C1460 C1461 1.391 . S
C1461 C1460 1.391 . S
C1461 C1462 1.392 . S
C1461 H1490 0.947 . S
C1462 C1461 1.392 . S
C1462 C1463 1.419 . S
C1462 H1491 0.948 . S
C1463 C1462 1.419 . S
C1463 C1464 1.391 . S
C1463 C1467 1.397 . S
C1464 C1459 1.391 . S
C1464 C1463 1.391 . S
C1464 C1465 1.399 . S
C1465 C1464 1.399 . S
C1465 C1466 1.396 . S
C1465 C1468 1.453 . S
C1465 C1469 1.684 . S
C1466 C1447 1.723 . S
C1466 C1465 1.396 . S
C1466 C1467 1.394 . S
C1467 C1463 1.397 . S
C1467 C1466 1.394 . S
C1467 C1477 1.723 . S
C1468 C1465 1.453 . S
C1468 H1492 0.982 . S
C1468 H1493 0.979 . S
C1468 H1494 0.977 . S
C1469 C1465 1.684 . S
C1469 H1495 0.979 . S
C1469 H1496 0.980 . S
C1469 H1497 0.983 . S
C1470 H1446 0.948 . S
C1470 C1471 1.391 . S
C1470 C1475 1.391 . S
C1471 C1470 1.391 . S
C1471 C1472 1.391 . S
C1472 H1449 0.947 . S
C1472 C1471 1.391 . S
C1472 C1473 1.392 . S
C1473 H1450 0.948 . S
C1473 C1472 1.392 . S
C1473 C1474 1.419 . S
C1474 C1473 1.419 . S
C1474 C1475 1.391 . S
C1474 C1478 1.397 . S
C1475 C1470 1.391 . S
C1475 C1474 1.391 . S
C1475 C1476 1.399 . S
C1476 C1475 1.399 . S
C1476 C1477 1.396 . S
C1476 C1479 1.453 . S
C1476 C1480 1.684 . S
C1477 C1467 1.723 . S
C1477 C1476 1.396 . S
C1477 C1478 1.394 . S
C1478 C1448 1.723 . S
C1478 C1474 1.397 . S
C1478 C1477 1.394 . S
C1479 H1451 0.982 . S
C1479 H1455 0.979 . S
C1479 H1456 0.977 . S
C1479 C1476 1.453 . S
C1480 H1452 0.979 . S
C1480 H1453 0.980 . S
C1480 H1454 0.983 . S
C1480 C1476 1.684 . S
H1481 C1499 0.948 . S
H1482 C1440 0.948 . S
H1483 C1458 0.979 . S
H1484 C1458 0.980 . S
H1485 C1458 0.983 . S
H1486 C1457 0.982 . S
H1487 C1457 0.979 . S
H1488 C1457 0.977 . S
H1489 C1459 0.948 . S
H1490 C1461 0.947 . S
H1491 C1462 0.948 . S
H1492 C1468 0.982 . S
H1493 C1468 0.979 . S
H1494 C1468 0.977 . S
H1495 C1469 0.979 . S
H1496 C1469 0.980 . S
H1497 C1469 0.983 . S
H1498 C1442 0.947 . S
C1499 C1442 1.392 . S
C1499 C1443 1.419 . S
C1499 H1481 0.948 . S
C1500 C1501 1.391 . S
C1500 C1504 1.391 . S
C1500 H1542 0.948 . S
C1501 C1500 1.391 . S
C1501 C1502 1.391 . S
C1502 C1501 1.391 . S
C1502 H1558 0.947 . S
C1502 C1559 1.392 . S
C1503 C1504 1.391 . S
C1503 C1507 1.397 . S
C1503 C1559 1.419 . S
C1504 C1500 1.391 . S
C1504 C1503 1.391 . S
C1504 C1505 1.399 . S
C1505 C1504 1.399 . S
C1505 C1508 1.396 . S
C1505 C1517 1.453 . S
C1505 C1518 1.684 . S
H1506 C1530 0.948 . S
C1507 C1503 1.397 . S
C1507 C1508 1.394 . S
C1507 C1526 1.723 . S
C1508 C1505 1.396 . S
C1508 C1507 1.394 . S
C1508 C1538 1.723 . S
H1509 C1532 0.947 . S
H1510 C1533 0.948 . S
H1511 C1539 0.982 . S
H1512 C1540 0.979 . S
H1513 C1540 0.980 . S
H1514 C1540 0.983 . S
H1515 C1539 0.979 . S
H1516 C1539 0.977 . S
C1517 C1505 1.453 . S
C1517 H1546 0.982 . S
C1517 H1547 0.979 . S
C1517 H1548 0.977 . S
C1518 C1505 1.684 . S
C1518 H1543 0.979 . S
C1518 H1544 0.980 . S
C1518 H1545 0.983 . S
C1519 C1520 1.391 . S
C1519 C1524 1.391 . S
C1519 H1549 0.948 . S
C1520 C1519 1.391 . S
C1520 C1521 1.391 . S
C1521 C1520 1.391 . S
C1521 C1522 1.392 . S
C1521 H1550 0.947 . S
C1522 C1521 1.392 . S
C1522 C1523 1.419 . S
C1522 H1551 0.948 . S
C1523 C1522 1.419 . S
C1523 C1524 1.391 . S
C1523 C1527 1.397 . S
C1524 C1519 1.391 . S
C1524 C1523 1.391 . S
C1524 C1525 1.399 . S
C1525 C1524 1.399 . S
C1525 C1526 1.396 . S
C1525 C1528 1.453 . S
C1525 C1529 1.684 . S
C1526 C1507 1.723 . S
C1526 C1525 1.396 . S
C1526 C1527 1.394 . S
C1527 C1523 1.397 . S
C1527 C1526 1.394 . S
C1527 C1537 1.723 . S
C1528 C1525 1.453 . S
C1528 H1552 0.982 . S
C1528 H1553 0.979 . S
C1528 H1554 0.977 . S
C1529 C1525 1.684 . S
C1529 H1555 0.979 . S
C1529 H1556 0.980 . S
C1529 H1557 0.983 . S
C1530 H1506 0.948 . S
C1530 C1531 1.391 . S
C1530 C1535 1.391 . S
C1531 C1530 1.391 . S
C1531 C1532 1.391 . S
C1532 H1509 0.947 . S
C1532 C1531 1.391 . S
C1532 C1533 1.392 . S
C1533 H1510 0.948 . S
C1533 C1532 1.392 . S
C1533 C1534 1.419 . S
C1534 C1533 1.419 . S
C1534 C1535 1.391 . S
C1534 C1538 1.397 . S
C1535 C1530 1.391 . S
C1535 C1534 1.391 . S
C1535 C1536 1.399 . S
C1536 C1535 1.399 . S
C1536 C1537 1.396 . S
C1536 C1539 1.453 . S
C1536 C1540 1.684 . S
C1537 C1527 1.723 . S
C1537 C1536 1.396 . S
C1537 C1538 1.394 . S
C1538 C1508 1.723 . S
C1538 C1534 1.397 . S
C1538 C1537 1.394 . S
C1539 H1511 0.982 . S
C1539 H1515 0.979 . S
C1539 H1516 0.977 . S
C1539 C1536 1.453 . S
C1540 H1512 0.979 . S
C1540 H1513 0.980 . S
C1540 H1514 0.983 . S
C1540 C1536 1.684 . S
H1541 C1559 0.948 . S
H1542 C1500 0.948 . S
H1543 C1518 0.979 . S
H1544 C1518 0.980 . S
H1545 C1518 0.983 . S
H1546 C1517 0.982 . S
H1547 C1517 0.979 . S
H1548 C1517 0.977 . S
H1549 C1519 0.948 . S
H1550 C1521 0.947 . S
H1551 C1522 0.948 . S
H1552 C1528 0.982 . S
H1553 C1528 0.979 . S
H1554 C1528 0.977 . S
H1555 C1529 0.979 . S
H1556 C1529 0.980 . S
H1557 C1529 0.983 . S
H1558 C1502 0.947 . S
C1559 C1502 1.392 . S
C1559 C1503 1.419 . S
C1559 H1541 0.948 . S
C1560 C1561 1.391 . S
C1560 C1564 1.391 . S
C1560 H1602 0.948 . S
C1561 C1560 1.391 . S
C1561 C1562 1.391 . S
C1562 C1561 1.391 . S
C1562 H1618 0.947 . S
C1562 C1619 1.392 . S
C1563 C1564 1.391 . S
C1563 C1567 1.397 . S
C1563 C1619 1.419 . S
C1564 C1560 1.391 . S
C1564 C1563 1.391 . S
C1564 C1565 1.399 . S
C1565 C1564 1.399 . S
C1565 C1568 1.396 . S
C1565 C1577 1.453 . S
C1565 C1578 1.684 . S
H1566 C1590 0.948 . S
C1567 C1563 1.397 . S
C1567 C1568 1.394 . S
C1567 C1586 1.723 . S
C1568 C1565 1.396 . S
C1568 C1567 1.394 . S
C1568 C1598 1.723 . S
H1569 C1592 0.947 . S
H1570 C1593 0.948 . S
H1571 C1599 0.982 . S
H1572 C1600 0.979 . S
H1573 C1600 0.980 . S
H1574 C1600 0.983 . S
H1575 C1599 0.979 . S
H1576 C1599 0.977 . S
C1577 C1565 1.453 . S
C1577 H1606 0.982 . S
C1577 H1607 0.979 . S
C1577 H1608 0.977 . S
C1578 C1565 1.684 . S
C1578 H1603 0.979 . S
C1578 H1604 0.980 . S
C1578 H1605 0.983 . S
C1579 C1580 1.391 . S
C1579 C1584 1.391 . S
C1579 H1609 0.948 . S
C1580 C1579 1.391 . S
C1580 C1581 1.391 . S
C1581 C1580 1.391 . S
C1581 C1582 1.392 . S
C1581 H1610 0.947 . S
C1582 C1581 1.392 . S
C1582 C1583 1.419 . S
C1582 H1611 0.948 . S
C1583 C1582 1.419 . S
C1583 C1584 1.391 . S
C1583 C1587 1.397 . S
C1584 C1579 1.391 . S
C1584 C1583 1.391 . S
C1584 C1585 1.399 . S
C1585 C1584 1.399 . S
C1585 C1586 1.396 . S
C1585 C1588 1.453 . S
C1585 C1589 1.684 . S
C1586 C1567 1.723 . S
C1586 C1585 1.396 . S
C1586 C1587 1.394 . S
C1587 C1583 1.397 . S
C1587 C1586 1.394 . S
C1587 C1597 1.723 . S
C1588 C1585 1.453 . S
C1588 H1612 0.982 . S
C1588 H1613 0.979 . S
C1588 H1614 0.977 . S
C1589 C1585 1.684 . S
C1589 H1615 0.979 . S
C1589 H1616 0.980 . S
C1589 H1617 0.983 . S
C1590 H1566 0.948 . S
C1590 C1591 1.391 . S
C1590 C1595 1.391 . S
C1591 C1590 1.391 . S
C1591 C1592 1.391 . S
C1592 H1569 0.947 . S
C1592 C1591 1.391 . S
C1592 C1593 1.392 . S
C1593 H1570 0.948 . S
C1593 C1592 1.392 . S
C1593 C1594 1.419 . S
C1594 C1593 1.419 . S
C1594 C1595 1.391 . S
C1594 C1598 1.397 . S
C1595 C1590 1.391 . S
C1595 C1594 1.391 . S
C1595 C1596 1.399 . S
C1596 C1595 1.399 . S
C1596 C1597 1.396 . S
C1596 C1599 1.453 . S
C1596 C1600 1.684 . S
C1597 C1587 1.723 . S
C1597 C1596 1.396 . S
C1597 C1598 1.394 . S
C1598 C1568 1.723 . S
C1598 C1594 1.397 . S
C1598 C1597 1.394 . S
C1599 H1571 0.982 . S
C1599 H1575 0.979 . S
C1599 H1576 0.977 . S
C1599 C1596 1.453 . S
C1600 H1572 0.979 . S
C1600 H1573 0.980 . S
C1600 H1574 0.983 . S
C1600 C1596 1.684 . S
H1601 C1619 0.948 . S
H1602 C1560 0.948 . S
H1603 C1578 0.979 . S
H1604 C1578 0.980 . S
H1605 C1578 0.983 . S
H1606 C1577 0.982 . S
H1607 C1577 0.979 . S
H1608 C1577 0.977 . S
H1609 C1579 0.948 . S
H1610 C1581 0.947 . S
H1611 C1582 0.948 . S
H1612 C1588 0.982 . S
H1613 C1588 0.979 . S
H1614 C1588 0.977 . S
H1615 C1589 0.979 . S
H1616 C1589 0.980 . S
H1617 C1589 0.983 . S
H1618 C1562 0.947 . S
C1619 C1562 1.392 . S
C1619 C1563 1.419 . S
C1619 H1601 0.948 . S
C1620 C1621 1.391 . S
C1620 C1624 1.391 . S
C1620 H1662 0.948 . S
C1621 C1620 1.391 . S
C1621 C1622 1.391 . S
C1622 C1621 1.391 . S
C1622 H1678 0.947 . S
C1622 C1679 1.392 . S
C1623 C1624 1.391 . S
C1623 C1627 1.397 . S
C1623 C1679 1.419 . S
C1624 C1620 1.391 . S
C1624 C1623 1.391 . S
C1624 C1625 1.399 . S
C1625 C1624 1.399 . S
C1625 C1628 1.396 . S
C1625 C1637 1.453 . S
C1625 C1638 1.684 . S
H1626 C1650 0.948 . S
C1627 C1623 1.397 . S
C1627 C1628 1.394 . S
C1627 C1646 1.723 . S
C1628 C1625 1.396 . S
C1628 C1627 1.394 . S
C1628 C1658 1.723 . S
H1629 C1652 0.947 . S
H1630 C1653 0.948 . S
H1631 C1659 0.982 . S
H1632 C1660 0.979 . S
H1633 C1660 0.980 . S
H1634 C1660 0.983 . S
H1635 C1659 0.979 . S
H1636 C1659 0.977 . S
C1637 C1625 1.453 . S
C1637 H1666 0.982 . S
C1637 H1667 0.979 . S
C1637 H1668 0.977 . S
C1638 C1625 1.684 . S
C1638 H1663 0.979 . S
C1638 H1664 0.980 . S
C1638 H1665 0.983 . S
C1639 C1640 1.391 . S
C1639 C1644 1.391 . S
C1639 H1669 0.948 . S
C1640 C1639 1.391 . S
C1640 C1641 1.391 . S
C1641 C1640 1.391 . S
C1641 C1642 1.392 . S
C1641 H1670 0.947 . S
C1642 C1641 1.392 . S
C1642 C1643 1.419 . S
C1642 H1671 0.948 . S
C1643 C1642 1.419 . S
C1643 C1644 1.391 . S
C1643 C1647 1.397 . S
C1644 C1639 1.391 . S
C1644 C1643 1.391 . S
C1644 C1645 1.399 . S
C1645 C1644 1.399 . S
C1645 C1646 1.396 . S
C1645 C1648 1.453 . S
C1645 C1649 1.684 . S
C1646 C1627 1.723 . S
C1646 C1645 1.396 . S
C1646 C1647 1.394 . S
C1647 C1643 1.397 . S
C1647 C1646 1.394 . S
C1647 C1657 1.723 . S
C1648 C1645 1.453 . S
C1648 H1672 0.982 . S
C1648 H1673 0.979 . S
C1648 H1674 0.977 . S
C1649 C1645 1.684 . S
C1649 H1675 0.979 . S
C1649 H1676 0.980 . S
C1649 H1677 0.983 . S
C1650 H1626 0.948 . S
C1650 C1651 1.391 . S
C1650 C1655 1.391 . S
C1651 C1650 1.391 . S
C1651 C1652 1.391 . S
C1652 H1629 0.947 . S
C1652 C1651 1.391 . S
C1652 C1653 1.392 . S
C1653 H1630 0.948 . S
C1653 C1652 1.392 . S
C1653 C1654 1.419 . S
C1654 C1653 1.419 . S
C1654 C1655 1.391 . S
C1654 C1658 1.397 . S
C1655 C1650 1.391 . S
C1655 C1654 1.391 . S
C1655 C1656 1.399 . S
C1656 C1655 1.399 . S
C1656 C1657 1.396 . S
C1656 C1659 1.453 . S
C1656 C1660 1.684 . S
C1657 C1647 1.723 . S
C1657 C1656 1.396 . S
C1657 C1658 1.394 . S
C1658 C1628 1.723 . S
C1658 C1654 1.397 . S
C1658 C1657 1.394 . S
C1659 H1631 0.982 . S
C1659 H1635 0.979 . S
C1659 H1636 0.977 . S
C1659 C1656 1.453 . S
C1660 H1632 0.979 . S
C1660 H1633 0.980 . S
C1660 H1634 0.983 . S
C1660 C1656 1.684 . S
H1661 C1679 0.948 . S
H1662 C1620 0.948 . S
H1663 C1638 0.979 . S
H1664 C1638 0.980 . S
H1665 C1638 0.983 . S
H1666 C1637 0.982 . S
H1667 C1637 0.979 . S
H1668 C1637 0.977 . S
H1669 C1639 0.948 . S
H1670 C1641 0.947 . S
H1671 C1642 0.948 . S
H1672 C1648 0.982 . S
H1673 C1648 0.979 . S
H1674 C1648 0.977 . S
H1675 C1649 0.979 . S
H1676 C1649 0.980 . S
H1677 C1649 0.983 . S
H1678 C1622 0.947 . S
C1679 C1622 1.392 . S
C1679 C1623 1.419 . S
C1679 H1661 0.948 . S
C1680 C1681 1.391 . S
C1680 C1684 1.391 . S
C1680 H1722 0.948 . S
C1681 C1680 1.391 . S
C1681 C1682 1.391 . S
C1682 C1681 1.391 . S
C1682 H1738 0.947 . S
C1682 C1739 1.392 . S
C1683 C1684 1.391 . S
C1683 C1687 1.397 . S
C1683 C1739 1.419 . S
C1684 C1680 1.391 . S
C1684 C1683 1.391 . S
C1684 C1685 1.399 . S
C1685 C1684 1.399 . S
C1685 C1688 1.396 . S
C1685 C1697 1.453 . S
C1685 C1698 1.684 . S
H1686 C1710 0.948 . S
C1687 C1683 1.397 . S
C1687 C1688 1.394 . S
C1687 C1706 1.723 . S
C1688 C1685 1.396 . S
C1688 C1687 1.394 . S
C1688 C1718 1.723 . S
H1689 C1712 0.947 . S
H1690 C1713 0.948 . S
H1691 C1719 0.982 . S
H1692 C1720 0.979 . S
H1693 C1720 0.980 . S
H1694 C1720 0.983 . S
H1695 C1719 0.979 . S
H1696 C1719 0.977 . S
C1697 C1685 1.453 . S
C1697 H1726 0.982 . S
C1697 H1727 0.979 . S
C1697 H1728 0.977 . S
C1698 C1685 1.684 . S
C1698 H1723 0.979 . S
C1698 H1724 0.980 . S
C1698 H1725 0.983 . S
C1699 C1700 1.391 . S
C1699 C1704 1.391 . S
C1699 H1729 0.948 . S
C1700 C1699 1.391 . S
C1700 C1701 1.391 . S
C1701 C1700 1.391 . S
C1701 C1702 1.392 . S
C1701 H1730 0.947 . S
C1702 C1701 1.392 . S
C1702 C1703 1.419 . S
C1702 H1731 0.948 . S
C1703 C1702 1.419 . S
C1703 C1704 1.391 . S
C1703 C1707 1.397 . S
C1704 C1699 1.391 . S
C1704 C1703 1.391 . S
C1704 C1705 1.399 . S
C1705 C1704 1.399 . S
C1705 C1706 1.396 . S
C1705 C1708 1.453 . S
C1705 C1709 1.684 . S
C1706 C1687 1.723 . S
C1706 C1705 1.396 . S
C1706 C1707 1.394 . S
C1707 C1703 1.397 . S
C1707 C1706 1.394 . S
C1707 C1717 1.723 . S
C1708 C1705 1.453 . S
C1708 H1732 0.982 . S
C1708 H1733 0.979 . S
C1708 H1734 0.977 . S
C1709 C1705 1.684 . S
C1709 H1735 0.979 . S
C1709 H1736 0.980 . S
C1709 H1737 0.983 . S
C1710 H1686 0.948 . S
C1710 C1711 1.391 . S
C1710 C1715 1.391 . S
C1711 C1710 1.391 . S
C1711 C1712 1.391 . S
C1712 H1689 0.947 . S
C1712 C1711 1.391 . S
C1712 C1713 1.392 . S
C1713 H1690 0.948 . S
C1713 C1712 1.392 . S
C1713 C1714 1.419 . S
C1714 C1713 1.419 . S
C1714 C1715 1.391 . S
C1714 C1718 1.397 . S
C1715 C1710 1.391 . S
C1715 C1714 1.391 . S
C1715 C1716 1.399 . S
C1716 C1715 1.399 . S
C1716 C1717 1.396 . S
C1716 C1719 1.453 . S
C1716 C1720 1.684 . S
C1717 C1707 1.723 . S
C1717 C1716 1.396 . S
C1717 C1718 1.394 . S
C1718 C1688 1.723 . S
C1718 C1714 1.397 . S
C1718 C1717 1.394 . S
C1719 H1691 0.982 . S
C1719 H1695 0.979 . S
C1719 H1696 0.977 . S
C1719 C1716 1.453 . S
C1720 H1692 0.979 . S
C1720 H1693 0.980 . S
C1720 H1694 0.983 . S
C1720 C1716 1.684 . S
H1721 C1739 0.948 . S
H1722 C1680 0.948 . S
H1723 C1698 0.979 . S
H1724 C1698 0.980 . S
H1725 C1698 0.983 . S
H1726 C1697 0.982 . S
H1727 C1697 0.979 . S
H1728 C1697 0.977 . S
H1729 C1699 0.948 . S
H1730 C1701 0.947 . S
H1731 C1702 0.948 . S
H1732 C1708 0.982 . S
H1733 C1708 0.979 . S
H1734 C1708 0.977 . S
H1735 C1709 0.979 . S
H1736 C1709 0.980 . S
H1737 C1709 0.983 . S
H1738 C1682 0.947 . S
C1739 C1682 1.392 . S
C1739 C1683 1.419 . S
C1739 H1721 0.948 . S
C1740 C1741 1.391 . S
C1740 C1744 1.391 . S
C1740 H1782 0.948 . S
C1741 C1740 1.391 . S
C1741 C1742 1.391 . S
C1742 C1741 1.391 . S
C1742 H1798 0.947 . S
C1742 C1799 1.392 . S
C1743 C1744 1.391 . S
C1743 C1747 1.397 . S
C1743 C1799 1.419 . S
C1744 C1740 1.391 . S
C1744 C1743 1.391 . S
C1744 C1745 1.399 . S
C1745 C1744 1.399 . S
C1745 C1748 1.396 . S
C1745 C1757 1.453 . S
C1745 C1758 1.684 . S
H1746 C1770 0.948 . S
C1747 C1743 1.397 . S
C1747 C1748 1.394 . S
C1747 C1766 1.723 . S
C1748 C1745 1.396 . S
C1748 C1747 1.394 . S
C1748 C1778 1.723 . S
H1749 C1772 0.947 . S
H1750 C1773 0.948 . S
H1751 C1779 0.982 . S
H1752 C1780 0.979 . S
H1753 C1780 0.980 . S
H1754 C1780 0.983 . S
H1755 C1779 0.979 . S
H1756 C1779 0.977 . S
C1757 C1745 1.453 . S
C1757 H1786 0.982 . S
C1757 H1787 0.979 . S
C1757 H1788 0.977 . S
C1758 C1745 1.684 . S
C1758 H1783 0.979 . S
C1758 H1784 0.980 . S
C1758 H1785 0.983 . S
C1759 C1760 1.391 . S
C1759 C1764 1.391 . S
C1759 H1789 0.948 . S
C1760 C1759 1.391 . S
C1760 C1761 1.391 . S
C1761 C1760 1.391 . S
C1761 C1762 1.392 . S
C1761 H1790 0.947 . S
C1762 C1761 1.392 . S
C1762 C1763 1.419 . S
C1762 H1791 0.948 . S
C1763 C1762 1.419 . S
C1763 C1764 1.391 . S
C1763 C1767 1.397 . S
C1764 C1759 1.391 . S
C1764 C1763 1.391 . S
C1764 C1765 1.399 . S
C1765 C1764 1.399 . S
C1765 C1766 1.396 . S
C1765 C1768 1.453 . S
C1765 C1769 1.684 . S
C1766 C1747 1.723 . S
C1766 C1765 1.396 . S
C1766 C1767 1.394 . S
C1767 C1763 1.397 . S
C1767 C1766 1.394 . S
C1767 C1777 1.723 . S
C1768 C1765 1.453 . S
C1768 H1792 0.982 . S
C1768 H1793 0.979 . S
C1768 H1794 0.977 . S
C1769 C1765 1.684 . S
C1769 H1795 0.979 . S
C1769 H1796 0.980 . S
C1769 H1797 0.983 . S
C1770 H1746 0.948 . S
C1770 C1771 1.391 . S
C1770 C1775 1.391 . S
C1771 C1770 1.391 . S
C1771 C1772 1.391 . S
C1772 H1749 0.947 . S
C1772 C1771 1.391 . S
C1772 C1773 1.392 . S
C1773 H1750 0.948 . S
C1773 C1772 1.392 . S
C1773 C1774 1.419 . S
C1774 C1773 1.419 . S
C1774 C1775 1.391 . S
C1774 C1778 1.397 . S
C1775 C1770 1.391 . S
C1775 C1774 1.391 . S
C1775 C1776 1.399 . S
C1776 C1775 1.399 . S
C1776 C1777 1.396 . S
C1776 C1779 1.453 . S
C1776 C1780 1.684 . S
C1777 C1767 1.723 . S
C1777 C1776 1.396 . S
C1777 C1778 1.394 . S
C1778 C1748 1.723 . S
C1778 C1774 1.397 . S
C1778 C1777 1.394 . S
C1779 H1751 0.982 . S
C1779 H1755 0.979 . S
C1779 H1756 0.977 . S
C1779 C1776 1.453 . S
C1780 H1752 0.979 . S
C1780 H1753 0.980 . S
C1780 H1754 0.983 . S
C1780 C1776 1.684 . S
H1781 C1799 0.948 . S
H1782 C1740 0.948 . S
H1783 C1758 0.979 . S
H1784 C1758 0.980 . S
H1785 C1758 0.983 . S
H1786 C1757 0.982 . S
H1787 C1757 0.979 . S
H1788 C1757 0.977 . S
H1789 C1759 0.948 . S
H1790 C1761 0.947 . S
H1791 C1762 0.948 . S
H1792 C1768 0.982 . S
H1793 C1768 0.979 . S
H1794 C1768 0.977 . S
H1795 C1769 0.979 . S
H1796 C1769 0.980 . S
H1797 C1769 0.983 . S
H1798 C1742 0.947 . S
C1799 C1742 1.392 . S
C1799 C1743 1.419 . S
C1799 H1781 0.948 . S
C1800 C1801 1.391 . S
C1800 C1804 1.391 . S
C1800 H1842 0.948 . S
C1801 C1800 1.391 . S
C1801 C1802 1.391 . S
C1802 C1801 1.391 . S
C1802 H1858 0.947 . S
C1802 C1859 1.392 . S
C1803 C1804 1.391 . S
C1803 C1807 1.397 . S
C1803 C1859 1.419 . S
C1804 C1800 1.391 . S
C1804 C1803 1.391 . S
C1804 C1805 1.399 . S
C1805 C1804 1.399 . S
C1805 C1808 1.396 . S
C1805 C1817 1.453 . S
C1805 C1818 1.684 . S
H1806 C1830 0.948 . S
C1807 C1803 1.397 . S
C1807 C1808 1.394 . S
C1807 C1826 1.723 . S
C1808 C1805 1.396 . S
C1808 C1807 1.394 . S
C1808 C1838 1.723 . S
H1809 C1832 0.947 . S
H1810 C1833 0.948 . S
H1811 C1839 0.982 . S
H1812 C1840 0.979 . S
H1813 C1840 0.980 . S
H1814 C1840 0.983 . S
H1815 C1839 0.979 . S
H1816 C1839 0.977 . S
C1817 C1805 1.453 . S
C1817 H1846 0.982 . S
C1817 H1847 0.979 . S
C1817 H1848 0.977 . S
C1818 C1805 1.684 . S
C1818 H1843 0.979 . S
C1818 H1844 0.980 . S
C1818 H1845 0.983 . S
C1819 C1820 1.391 . S
C1819 C1824 1.391 . S
C1819 H1849 0.948 . S
C1820 C1819 1.391 . S
C1820 C1821 1.391 . S
C1821 C1820 1.391 . S
C1821 C1822 1.392 . S
C1821 H1850 0.947 . S
C1822 C1821 1.392 . S
C1822 C1823 1.419 . S
C1822 H1851 0.948 . S
C1823 C1822 1.419 . S
C1823 C1824 1.391 . S
C1823 C1827 1.397 . S
C1824 C1819 1.391 . S
C1824 C1823 1.391 . S
C1824 C1825 1.399 . S
C1825 C1824 1.399 . S
C1825 C1826 1.396 . S
C1825 C1828 1.453 . S
C1825 C1829 1.684 . S
C1826 C1807 1.723 . S
C1826 C1825 1.396 . S
C1826 C1827 1.394 . S
C1827 C1823 1.397 . S
C1827 C1826 1.394 . S
C1827 C1837 1.723 . S
C1828 C1825 1.453 . S
C1828 H1852 0.982 . S
C1828 H1853 0.979 . S
C1828 H1854 0.977 . S
C1829 C1825 1.684 . S
C1829 H1855 0.979 . S
C1829 H1856 0.980 . S
C1829 H1857 0.983 . S
C1830 H1806 0.948 . S
C1830 C1831 1.391 . S
C1830 C1835 1.391 . S
C1831 C1830 1.391 . S
C1831 C1832 1.391 . S
C1832 H1809 0.947 . S
C1832 C1831 1.391 . S
C1832 C1833 1.392 . S
C1833 H1810 0.948 . S
C1833 C1832 1.392 . S
C1833 C1834 1.419 . S
C1834 C1833 1.419 . S
C1834 C1835 1.391 . S
C1834 C1838 1.397 . S
C1835 C1830 1.391 . S
C1835 C1834 1.391 . S
C1835 C1836 1.399 . S
C1836 C1835 1.399 . S
C1836 C1837 1.396 . S
C1836 C1839 1.453 . S
C1836 C1840 1.684 . S
C1837 C1827 1.723 . S
C1837 C1836 1.396 . S
C1837 C1838 1.394 . S
C1838 C1808 1.723 . S
C1838 C1834 1.397 . S
C1838 C1837 1.394 . S
C1839 H1811 0.982 . S
C1839 H1815 0.979 . S
C1839 H1816 0.977 . S
C1839 C1836 1.453 . S
C1840 H1812 0.979 . S
C1840 H1813 0.980 . S
C1840 H1814 0.983 . S
C1840 C1836 1.684 . S
H1841 C1859 0.948 . S
H1842 C1800 0.948 . S
H1843 C1818 0.979 . S
H1844 C1818 0.980 . S
H1845 C1818 0.983 . S
H1846 C1817 0.982 . S
H1847 C1817 0.979 . S
H1848 C1817 0.977 . S
H1849 C1819 0.948 . S
H1850 C1821 0.947 . S
H1851 C1822 0.948 . S
H1852 C1828 0.982 . S
H1853 C1828 0.979 . S
H1854 C1828 0.977 . S
H1855 C1829 0.979 . S
H1856 C1829 0.980 . S
H1857 C1829 0.983 . S
H1858 C1802 0.947 . S
C1859 C1802 1.392 . S
C1859 C1803 1.419 . S
C1859 H1841 0.948 . S
C1860 C1861 1.391 . S
C1860 C1864 1.391 . S
C1860 H1902 0.948 . S
C1861 C1860 1.391 . S
C1861 C1862 1.391 . S
C1862 C1861 1.391 . S
C1862 H1918 0.947 . S
C1862 C1919 1.392 . S
C1863 C1864 1.391 . S
C1863 C1867 1.397 . S
C1863 C1919 1.419 . S
C1864 C1860 1.391 . S
C1864 C1863 1.391 . S
C1864 C1865 1.399 . S
C1865 C1864 1.399 . S
C1865 C1868 1.396 . S
C1865 C1877 1.453 . S
C1865 C1878 1.684 . S
H1866 C1890 0.948 . S
C1867 C1863 1.397 . S
C1867 C1868 1.394 . S
C1867 C1886 1.723 . S
C1868 C1865 1.396 . S
C1868 C1867 1.394 . S
C1868 C1898 1.723 . S
H1869 C1892 0.947 . S
H1870 C1893 0.948 . S
H1871 C1899 0.982 . S
H1872 C1900 0.979 . S
H1873 C1900 0.980 . S
H1874 C1900 0.983 . S
H1875 C1899 0.979 . S
H1876 C1899 0.977 . S
C1877 C1865 1.453 . S
C1877 H1906 0.982 . S
C1877 H1907 0.979 . S
C1877 H1908 0.977 . S
C1878 C1865 1.684 . S
C1878 H1903 0.979 . S
C1878 H1904 0.980 . S
C1878 H1905 0.983 . S
C1879 C1880 1.391 . S
C1879 C1884 1.391 . S
C1879 H1909 0.948 . S
C1880 C1879 1.391 . S
C1880 C1881 1.391 . S
C1881 C1880 1.391 . S
C1881 C1882 1.392 . S
C1881 H1910 0.947 . S
C1882 C1881 1.392 . S
C1882 C1883 1.419 . S
C1882 H1911 0.948 . S
C1883 C1882 1.419 . S
C1883 C1884 1.391 . S
C1883 C1887 1.397 . S
C1884 C1879 1.391 . S
C1884 C1883 1.391 . S
C1884 C1885 1.399 . S
C1885 C1884 1.399 . S
C1885 C1886 1.396 . S
C1885 C1888 1.453 . S
C1885 C1889 1.684 . S
C1886 C1867 1.723 . S
C1886 C1885 1.396 . S
C1886 C1887 1.394 . S
C1887 C1883 1.397 . S
C1887 C1886 1.394 . S
C1887 C1897 1.723 . S
C1888 C1885 1.453 . S
C1888 H1912 0.982 . S
C1888 H1913 0.979 . S
C1888 H1914 0.977 . S
C1889 C1885 1.684 . S
C1889 H1915 0.979 . S
C1889 H1916 0.980 . S
C1889 H1917 0.983 . S
C1890 H1866 0.948 . S
C1890 C1891 1.391 . S
C1890 C1895 1.391 . S
C1891 C1890 1.391 . S
C1891 C1892 1.391 . S
C1892 H1869 0.947 . S
C1892 C1891 1.391 . S
C1892 C1893 1.392 . S
C1893 H1870 0.948 . S
C1893 C1892 1.392 . S
C1893 C1894 1.419 . S
C1894 C1893 1.419 . S
C1894 C1895 1.391 . S
C1894 C1898 1.397 . S
C1895 C1890 1.391 . S
C1895 C1894 1.391 . S
C1895 C1896 1.399 . S
C1896 C1895 1.399 . S
C1896 C1897 1.396 . S
C1896 C1899 1.453 . S
C1896 C1900 1.684 . S
C1897 C1887 1.723 . S
C1897 C1896 1.396 . S
C1897 C1898 1.394 . S
C1898 C1868 1.723 . S
C1898 C1894 1.397 . S
C1898 C1897 1.394 . S
C1899 H1871 0.982 . S
C1899 H1875 0.979 . S
C1899 H1876 0.977 . S
C1899 C1896 1.453 . S
C1900 H1872 0.979 . S
C1900 H1873 0.980 . S
C1900 H1874 0.983 . S
C1900 C1896 1.684 . S
H1901 C1919 0.948 . S
H1902 C1860 0.948 . S
H1903 C1878 0.979 . S
H1904 C1878 0.980 . S
H1905 C1878 0.983 . S
H1906 C1877 0.982 . S
H1907 C1877 0.979 . S
H1908 C1877 0.977 . S
H1909 C1879 0.948 . S
H1910 C1881 0.947 . S
H1911 C1882 0.948 . S
H1912 C1888 0.982 . S
H1913 C1888 0.979 . S
H1914 C1888 0.977 . S
H1915 C1889 0.979 . S
H1916 C1889 0.980 . S
H1917 C1889 0.983 . S
H1918 C1862 0.947 . S
C1919 C1862 1.392 . S
C1919 C1863 1.419 . S
C1919 H1901 0.948 . S
Cu1920 N1921 1.999 . S
Cu1920 O1926 1.974 1_554 S
Cu1920 N1931 1.985 . S
Cu1920 O1940 1.959 . S
N1921 Cu1920 1.999 . S
N1921 C1923 1.263 1_554 S
N1921 C1925 1.389 . S
N1922 C1923 1.358 . S
N1922 C1924 1.400 . S
C1923 N1921 1.263 1_556 S
C1923 N1922 1.358 . S
C1923 H1929 0.930 . S
C1924 N1922 1.400 . S
C1924 C1925 1.351 1_556 S
C1924 H1941 0.930 . S
C1925 N1921 1.389 . S
C1925 C1924 1.351 1_554 S
C1925 H1930 0.930 . S
O1926 Cu1920 1.974 1_556 S
O1926 C1936 1.282 . S
C1927 O1928 1.261 . S
C1927 O1940 1.251 . S
O1928 C1927 1.261 . S
H1929 C1923 0.930 . S
H1930 C1925 0.930 . S
N1931 Cu1920 1.985 . S
N1931 C1933 1.335 . S
N1931 C1934 1.390 . S
N1932 C1933 1.345 . S
N1932 C1935 1.336 . S
C1933 N1931 1.335 . S
C1933 N1932 1.345 . S
C1933 H1938 0.930 . S
C1934 N1931 1.390 . S
C1934 C1935 1.346 . S
C1934 H1939 0.930 . S
C1935 N1932 1.336 . S
C1935 C1934 1.346 . S
C1935 H1942 0.929 . S
C1936 O1926 1.282 . S
C1936 O1937 1.216 . S
O1937 C1936 1.216 . S
H1938 C1933 0.930 . S
H1939 C1934 0.930 . S
O1940 Cu1920 1.959 . S
O1940 C1927 1.251 . S
H1941 C1924 0.930 . S
H1942 C1935 0.929 . S
Cu1943 N1944 1.999 . S
Cu1943 O1949 1.974 . S
Cu1943 N1954 1.985 1_554 S
Cu1943 O1963 1.959 1_554 S
N1944 Cu1943 1.999 . S
N1944 C1946 1.263 . S
N1944 C1948 1.389 . S
N1945 C1946 1.358 . S
N1945 C1947 1.400 . S
C1946 N1944 1.263 . S
C1946 N1945 1.358 . S
C1946 H1952 0.930 . S
C1947 N1945 1.400 . S
C1947 C1948 1.351 . S
C1947 H1964 0.930 . S
C1948 N1944 1.389 . S
C1948 C1947 1.351 . S
C1948 H1953 0.930 . S
O1949 Cu1943 1.974 . S
O1949 C1959 1.282 . S
C1950 O1951 1.261 . S
C1950 O1963 1.251 . S
O1951 C1950 1.261 . S
H1952 C1946 0.930 . S
H1953 C1948 0.930 . S
N1954 Cu1943 1.985 1_556 S
N1954 C1956 1.335 . S
N1954 C1957 1.390 . S
N1955 C1956 1.345 . S
N1955 C1958 1.336 . S
C1956 N1954 1.335 . S
C1956 N1955 1.345 . S
C1956 H1961 0.930 . S
C1957 N1954 1.390 . S
C1957 C1958 1.346 . S
C1957 H1962 0.930 1_556 S
C1958 N1955 1.336 . S
C1958 C1957 1.346 . S
C1958 H1965 0.929 . S
C1959 O1949 1.282 . S
C1959 O1960 1.216 . S
O1960 C1959 1.216 . S
H1961 C1956 0.930 . S
H1962 C1957 0.930 1_554 S
O1963 Cu1943 1.959 1_556 S
O1963 C1950 1.251 . S
H1964 C1947 0.930 . S
H1965 C1958 0.929 . S
Cu1966 N1967 1.999 1_554 S
Cu1966 O1972 1.974 1_554 S
Cu1966 N1977 1.985 . S
Cu1966 O1986 1.959 . S
N1967 Cu1966 1.999 1_556 S
N1967 C1969 1.263 . S
N1967 C1971 1.389 . S
N1968 C1969 1.358 . S
N1968 C1970 1.400 . S
C1969 N1967 1.263 . S
C1969 N1968 1.358 . S
C1969 H1975 0.930 . S
C1970 N1968 1.400 . S
C1970 C1971 1.351 . S
C1970 H1987 0.930 . S
C1971 N1967 1.389 . S
C1971 C1970 1.351 . S
C1971 H1976 0.971 . S
O1972 Cu1966 1.974 1_556 S
O1972 C1982 1.282 . S
C1973 O1974 1.261 . S
C1973 O1986 1.251 . S
O1974 C1973 1.261 . S
H1975 C1969 0.930 . S
H1976 C1971 0.971 . S
N1977 Cu1966 1.985 . S
N1977 C1979 1.335 . S
N1977 C1980 1.390 . S
N1978 C1979 1.345 . S
N1978 C1981 1.336 . S
C1979 N1977 1.335 . S
C1979 N1978 1.345 . S
C1979 H1984 0.930 . S
C1980 N1977 1.390 . S
C1980 C1981 1.346 . S
C1980 H1985 0.941 . S
C1981 N1978 1.336 . S
C1981 C1980 1.346 . S
C1981 H1988 0.929 . S
C1982 O1972 1.282 . S
C1982 O1983 1.216 . S
O1983 C1982 1.216 . S
H1984 C1979 0.930 . S
H1985 C1980 0.941 . S
O1986 Cu1966 1.959 . S
O1986 C1973 1.251 . S
H1987 C1970 0.930 . S
H1988 C1981 0.929 . S
Cu1989 N1990 2.030 . S
Cu1989 O1995 2.011 . S
Cu1989 N2000 1.956 1_554 S
Cu1989 O2009 1.923 1_554 S
N1990 Cu1989 2.030 . S
N1990 C1992 1.263 . S
N1990 C1994 1.389 . S
N1991 C1992 1.358 . S
N1991 C1993 1.400 . S
C1992 N1990 1.263 . S
C1992 N1991 1.358 . S
C1992 H1998 0.930 . S
C1993 N1991 1.400 . S
C1993 C1994 1.351 . S
C1993 H2010 0.930 . S
C1994 N1990 1.389 . S
C1994 C1993 1.351 . S
C1994 H1999 0.930 . S
O1995 Cu1989 2.011 . S
O1995 C2005 1.282 . S
C1996 O1997 1.261 . S
C1996 O2009 1.251 . S
O1997 C1996 1.261 . S
H1998 C1992 0.930 . S
H1999 C1994 0.930 . S
N2000 Cu1989 1.956 1_556 S
N2000 C2002 1.335 . S
N2000 C2003 1.390 . S
N2001 C2002 1.345 . S
N2001 C2004 1.336 . S
C2002 N2000 1.335 . S
C2002 N2001 1.345 . S
C2002 H2007 0.930 . S
C2003 N2000 1.390 . S
C2003 C2004 1.346 . S
C2003 H2008 0.930 1_556 S
C2004 N2001 1.336 . S
C2004 C2003 1.346 . S
C2004 H2011 0.929 . S
C2005 O1995 1.282 . S
C2005 O2006 1.216 . S
O2006 C2005 1.216 . S
H2007 C2002 0.930 . S
H2008 C2003 0.930 1_554 S
O2009 Cu1989 1.923 1_556 S
O2009 C1996 1.251 . S
H2010 C1993 0.930 . S
H2011 C2004 0.929 . S
Cu2012 N2013 1.999 . S
Cu2012 O2018 1.974 . S
Cu2012 N2023 1.985 1_455 S
Cu2012 O2032 1.959 1_455 S
N2013 Cu2012 1.999 . S
N2013 C2015 1.263 . S
N2013 C2017 1.389 . S
N2014 C2015 1.358 . S
N2014 C2016 1.400 . S
C2015 N2013 1.263 . S
C2015 N2014 1.358 . S
C2015 H2021 0.930 . S
C2016 N2014 1.400 . S
C2016 C2017 1.351 . S
C2016 H2033 0.930 . S
C2017 N2013 1.389 . S
C2017 C2016 1.351 . S
C2017 H2022 0.930 . S
O2018 Cu2012 1.974 . S
O2018 C2028 1.282 . S
C2019 O2020 1.261 . S
C2019 O2032 1.251 . S
O2020 C2019 1.261 . S
H2021 C2015 0.930 . S
H2022 C2017 0.930 . S
N2023 Cu2012 1.985 1_655 S
N2023 C2025 1.335 . S
N2023 C2026 1.384 1_655 S
N2024 C2025 1.345 . S
N2024 C2027 1.336 . S
C2025 N2023 1.335 . S
C2025 N2024 1.345 . S
C2025 H2030 0.930 . S
C2026 N2023 1.384 1_455 S
C2026 C2027 1.317 1_455 S
C2026 H2031 0.961 . S
C2027 N2024 1.336 . S
C2027 C2026 1.317 1_655 S
C2027 H2034 0.929 . S
C2028 O2018 1.282 . S
C2028 O2029 1.216 . S
O2029 C2028 1.216 . S
H2030 C2025 0.930 . S
H2031 C2026 0.961 . S
O2032 Cu2012 1.959 1_655 S
O2032 C2019 1.251 . S
H2033 C2016 0.930 . S
H2034 C2027 0.929 . S
Cu2035 N2036 1.999 . S
Cu2035 O2041 1.974 . S
Cu2035 N2046 1.985 1_545 S
Cu2035 O2055 1.959 1_545 S
N2036 Cu2035 1.999 . S
N2036 C2038 1.263 . S
N2036 C2040 1.389 . S
N2037 C2038 1.358 . S
N2037 C2039 1.400 . S
C2038 N2036 1.263 . S
C2038 N2037 1.358 . S
C2038 H2044 0.930 . S
C2039 N2037 1.400 . S
C2039 C2040 1.351 . S
C2039 H2056 0.930 . S
C2040 N2036 1.389 . S
C2040 C2039 1.351 . S
C2040 H2045 0.930 . S
O2041 Cu2035 1.974 . S
O2041 C2051 1.282 . S
C2042 O2043 1.261 . S
C2042 O2055 1.251 . S
O2043 C2042 1.261 . S
H2044 C2038 0.930 . S
H2045 C2040 0.930 . S
N2046 Cu2035 1.985 1_565 S
N2046 C2048 1.335 . S
N2046 C2049 1.390 . S
N2047 C2048 1.345 . S
N2047 C2050 1.336 . S
C2048 N2046 1.335 . S
C2048 N2047 1.345 . S
C2048 H2053 0.930 . S
C2049 N2046 1.390 . S
C2049 C2050 1.346 . S
C2049 H2054 0.930 1_565 S
C2050 N2047 1.336 . S
C2050 C2049 1.346 . S
C2050 H2057 0.929 . S
C2051 O2041 1.282 . S
C2051 O2052 1.216 . S
O2052 C2051 1.216 . S
H2053 C2048 0.930 . S
H2054 C2049 0.930 1_545 S
O2055 Cu2035 1.959 1_565 S
O2055 C2042 1.251 . S
H2056 C2039 0.930 . S
H2057 C2050 0.929 . S
Cu2058 N2059 1.999 . S
Cu2058 O2064 1.973 . S
Cu2058 N2069 1.985 1_655 S
Cu2058 O2078 1.960 1_655 S
N2059 Cu2058 1.999 . S
N2059 C2061 1.263 . S
N2059 C2063 1.389 . S
N2060 C2061 1.358 . S
N2060 C2062 1.400 . S
C2061 N2059 1.263 . S
C2061 N2060 1.358 . S
C2061 H2067 0.930 . S
C2062 N2060 1.400 . S
C2062 C2063 1.351 . S
C2062 H2079 0.930 . S
C2063 N2059 1.389 . S
C2063 C2062 1.351 . S
C2063 H2068 0.930 . S
O2064 Cu2058 1.973 . S
O2064 C2074 1.282 . S
C2065 O2066 1.261 . S
C2065 O2078 1.251 . S
O2066 C2065 1.261 . S
H2067 C2061 0.930 . S
H2068 C2063 0.930 . S
N2069 Cu2058 1.985 1_455 S
N2069 C2071 1.335 . S
N2069 C2072 1.390 . S
N2070 C2071 1.345 . S
N2070 C2073 1.336 . S
C2071 N2069 1.335 . S
C2071 N2070 1.345 . S
C2071 H2076 0.930 . S
C2072 N2069 1.390 . S
C2072 C2073 1.346 . S
C2072 H2077 0.930 . S
C2073 N2070 1.336 . S
C2073 C2072 1.346 . S
C2073 H2080 0.929 . S
C2074 O2064 1.282 . S
C2074 O2075 1.216 . S
O2075 C2074 1.216 . S
H2076 C2071 0.930 . S
H2077 C2072 0.930 . S
O2078 Cu2058 1.960 1_455 S
O2078 C2065 1.251 . S
H2079 C2062 0.930 . S
H2080 C2073 0.929 . S
Cu2081 N2082 1.983 1_565 S
Cu2081 O2087 1.953 1_565 S
Cu2081 N2092 2.001 . S
Cu2081 O2101 1.980 . S
N2082 Cu2081 1.983 1_545 S
N2082 C2084 1.263 . S
N2082 C2086 1.389 . S
N2083 C2084 1.358 . S
N2083 C2085 1.400 . S
C2084 N2082 1.263 . S
C2084 N2083 1.358 . S
C2084 H2090 0.930 . S
C2085 N2083 1.400 . S
C2085 C2086 1.351 . S
C2085 H2102 0.930 . S
C2086 N2082 1.389 . S
C2086 C2085 1.351 . S
C2086 H2091 0.930 . S
O2087 Cu2081 1.953 1_545 S
O2087 C2097 1.282 . S
C2088 O2089 1.261 . S
C2088 O2101 1.251 . S
O2089 C2088 1.261 . S
H2090 C2084 0.930 . S
H2091 C2086 0.930 . S
N2092 Cu2081 2.001 . S
N2092 C2094 1.335 . S
N2092 C2095 1.390 . S
N2093 C2094 1.345 . S
N2093 C2096 1.336 . S
C2094 N2092 1.335 . S
C2094 N2093 1.345 . S
C2094 H2099 0.930 . S
C2095 N2092 1.390 . S
C2095 C2096 1.346 . S
C2095 H2100 0.930 . S
C2096 N2093 1.336 . S
C2096 C2095 1.346 . S
C2096 H2103 0.929 . S
C2097 O2087 1.282 . S
C2097 O2098 1.216 . S
O2098 C2097 1.216 . S
H2099 C2094 0.930 . S
H2100 C2095 0.930 . S
O2101 Cu2081 1.980 . S
O2101 C2088 1.251 . S
H2102 C2085 0.930 . S
H2103 C2096 0.929 . S
Cu2104 N2105 1.999 . S
Cu2104 O2110 1.974 . S
Cu2104 N2115 1.985 1_455 S
Cu2104 O2124 1.959 1_455 S
N2105 Cu2104 1.999 . S
N2105 C2107 1.263 . S
N2105 C2109 1.389 . S
N2106 C2107 1.358 . S
N2106 C2108 1.400 . S
C2107 N2105 1.263 . S
C2107 N2106 1.358 . S
C2107 H2113 0.930 . S
C2108 N2106 1.400 . S
C2108 C2109 1.351 . S
C2108 H2125 0.930 . S
C2109 N2105 1.389 . S
C2109 C2108 1.351 . S
C2109 H2114 0.930 . S
O2110 Cu2104 1.974 . S
O2110 C2120 1.282 . S
C2111 O2112 1.261 . S
C2111 O2124 1.251 . S
O2112 C2111 1.261 . S
H2113 C2107 0.930 . S
H2114 C2109 0.930 . S
N2115 Cu2104 1.985 1_655 S
N2115 C2117 1.335 . S
N2115 C2118 1.393 . S
N2116 C2117 1.345 . S
N2116 C2119 1.336 . S
C2117 N2115 1.335 . S
C2117 N2116 1.345 . S
C2117 H2122 0.930 . S
C2118 N2115 1.393 . S
C2118 C2119 1.360 . S
C2118 H2123 0.917 1_655 S
C2119 N2116 1.336 . S
C2119 C2118 1.360 . S
C2119 H2126 0.929 . S
C2120 O2110 1.282 . S
C2120 O2121 1.216 . S
O2121 C2120 1.216 . S
H2122 C2117 0.930 . S
H2123 C2118 0.917 1_455 S
O2124 Cu2104 1.959 1_655 S
O2124 C2111 1.251 . S
H2125 C2108 0.930 . S
H2126 C2119 0.929 . S
Cu2127 N2128 1.999 . S
Cu2127 O2133 1.974 . S
Cu2127 N2138 1.985 1_545 S
Cu2127 O2147 1.959 1_545 S
N2128 Cu2127 1.999 . S
N2128 C2130 1.263 . S
N2128 C2132 1.389 . S
N2129 C2130 1.358 . S
N2129 C2131 1.400 . S
C2130 N2128 1.263 . S
C2130 N2129 1.358 . S
C2130 H2136 0.930 . S
C2131 N2129 1.400 . S
C2131 C2132 1.351 . S
C2131 H2148 0.930 . S
C2132 N2128 1.389 . S
C2132 C2131 1.351 . S
C2132 H2137 0.930 . S
O2133 Cu2127 1.974 . S
O2133 C2143 1.282 . S
C2134 O2135 1.261 . S
C2134 O2147 1.251 . S
O2135 C2134 1.261 . S
H2136 C2130 0.930 . S
H2137 C2132 0.930 . S
N2138 Cu2127 1.985 1_565 S
N2138 C2140 1.335 . S
N2138 C2141 1.390 1_565 S
N2139 C2140 1.345 . S
N2139 C2142 1.336 . S
C2140 N2138 1.335 . S
C2140 N2139 1.345 . S
C2140 H2145 0.930 . S
C2141 N2138 1.390 1_545 S
C2141 C2142 1.346 1_545 S
C2141 H2146 0.930 . S
C2142 N2139 1.336 . S
C2142 C2141 1.346 1_565 S
C2142 H2149 0.929 . S
C2143 O2133 1.282 . S
C2143 O2144 1.216 . S
O2144 C2143 1.216 . S
H2145 C2140 0.930 . S
H2146 C2141 0.930 . S
O2147 Cu2127 1.959 1_565 S
O2147 C2134 1.251 . S
H2148 C2131 0.930 . S
H2149 C2142 0.929 . S
Cu2150 N2151 1.999 . S
Cu2150 O2156 1.974 . S
Cu2150 N2161 1.985 . S
Cu2150 O2170 1.959 . S
N2151 Cu2150 1.999 . S
N2151 C2153 1.263 1_455 S
N2151 C2155 1.389 . S
N2152 C2153 1.358 . S
N2152 C2154 1.400 . S
C2153 N2151 1.263 1_655 S
C2153 N2152 1.358 . S
C2153 H2159 0.930 . S
C2154 N2152 1.400 . S
C2154 C2155 1.351 1_655 S
C2154 H2171 0.930 . S
C2155 N2151 1.389 . S
C2155 C2154 1.351 1_455 S
C2155 H2160 0.930 . S
O2156 Cu2150 1.974 . S
O2156 C2166 1.282 1_455 S
C2157 O2158 1.261 . S
C2157 O2170 1.251 . S
O2158 C2157 1.261 . S
H2159 C2153 0.930 . S
H2160 C2155 0.930 . S
N2161 Cu2150 1.985 . S
N2161 C2163 1.335 . S
N2161 C2164 1.390 . S
N2162 C2163 1.345 . S
N2162 C2165 1.336 . S
C2163 N2161 1.335 . S
C2163 N2162 1.345 . S
C2163 H2168 0.930 . S
C2164 N2161 1.390 . S
C2164 C2165 1.346 . S
C2164 H2169 0.930 . S
C2165 N2162 1.336 . S
C2165 C2164 1.346 . S
C2165 H2172 0.929 . S
C2166 O2156 1.282 1_655 S
C2166 O2167 1.216 1_655 S
O2167 C2166 1.216 1_455 S
H2168 C2163 0.930 . S
H2169 C2164 0.930 . S
O2170 Cu2150 1.959 . S
O2170 C2157 1.251 . S
H2171 C2154 0.930 . S
H2172 C2165 0.929 . S
Cu2173 N2174 1.999 . S
Cu2173 O2179 1.974 . S
Cu2173 N2184 1.985 . S
Cu2173 O2193 1.959 1_545 S
N2174 Cu2173 1.999 . S
N2174 C2176 1.263 . S
N2174 C2178 1.389 . S
N2175 C2176 1.358 . S
N2175 C2177 1.400 . S
C2176 N2174 1.263 . S
C2176 N2175 1.358 . S
C2176 H2182 0.930 . S
C2177 N2175 1.400 . S
C2177 C2178 1.351 . S
C2177 H2194 0.930 . S
C2178 N2174 1.389 . S
C2178 C2177 1.351 . S
C2178 H2183 0.930 . S
O2179 Cu2173 1.974 . S
O2179 C2189 1.282 . S
C2180 O2181 1.244 1_565 S
C2180 O2193 1.251 . S
O2181 C2180 1.244 1_545 S
H2182 C2176 0.930 . S
H2183 C2178 0.930 . S
N2184 Cu2173 1.985 . S
N2184 C2186 1.335 1_545 S
N2184 C2187 1.390 . S
N2185 C2186 1.345 . S
N2185 C2188 1.336 . S
C2186 N2184 1.335 1_565 S
C2186 N2185 1.345 . S
C2186 H2191 0.930 . S
C2187 N2184 1.390 . S
C2187 C2188 1.346 1_545 S
C2187 H2192 0.930 . S
C2188 N2185 1.336 . S
C2188 C2187 1.346 1_565 S
C2188 H2195 0.929 . S
C2189 O2179 1.282 . S
C2189 O2190 1.216 . S
O2190 C2189 1.216 . S
H2191 C2186 0.930 . S
H2192 C2187 0.930 . S
O2193 Cu2173 1.959 1_565 S
O2193 C2180 1.251 . S
H2194 C2177 0.930 . S
H2195 C2188 0.929 . S
Cu2196 N2197 1.999 . S
Cu2196 O2202 1.974 . S
Cu2196 N2207 1.985 . S
Cu2196 O2216 1.959 . S
N2197 Cu2196 1.999 . S
N2197 C2199 1.263 . S
N2197 C2201 1.389 . S
N2198 C2199 1.358 . S
N2198 C2200 1.400 . S
C2199 N2197 1.263 . S
C2199 N2198 1.358 . S
C2199 H2205 0.930 . S
C2200 N2198 1.400 . S
C2200 C2201 1.351 . S
C2200 H2217 0.930 . S
C2201 N2197 1.389 . S
C2201 C2200 1.351 . S
C2201 H2206 0.930 . S
O2202 Cu2196 1.974 . S
O2202 C2212 1.282 . S
C2203 O2204 1.261 . S
C2203 O2216 1.251 . S
O2204 C2203 1.261 . S
H2205 C2199 0.930 . S
H2206 C2201 0.930 . S
N2207 Cu2196 1.985 . S
N2207 C2209 1.335 . S
N2207 C2210 1.390 . S
N2208 C2209 1.345 . S
N2208 C2211 1.336 . S
C2209 N2207 1.335 . S
C2209 N2208 1.345 . S
C2209 H2214 0.930 . S
C2210 N2207 1.390 . S
C2210 C2211 1.346 . S
C2210 H2215 0.930 . S
C2211 N2208 1.336 . S
C2211 C2210 1.346 . S
C2211 H2218 0.929 . S
C2212 O2202 1.282 . S
C2212 O2213 1.216 . S
O2213 C2212 1.216 . S
H2214 C2209 0.930 . S
H2215 C2210 0.930 . S
O2216 Cu2196 1.959 . S
O2216 C2203 1.251 . S
H2217 C2200 0.930 . S
H2218 C2211 0.929 . S
Cu2219 N2220 1.999 . S
Cu2219 O2225 1.974 . S
Cu2219 N2230 1.985 . S
Cu2219 O2239 1.959 . S
N2220 Cu2219 1.999 . S
N2220 C2222 1.263 . S
N2220 C2224 1.389 . S
N2221 C2222 1.358 . S
N2221 C2223 1.400 . S
C2222 N2220 1.263 . S
C2222 N2221 1.358 . S
C2222 H2228 0.930 . S
C2223 N2221 1.400 . S
C2223 C2224 1.351 . S
C2223 H2240 0.930 . S
C2224 N2220 1.389 . S
C2224 C2223 1.351 . S
C2224 H2229 0.930 . S
O2225 Cu2219 1.974 . S
O2225 C2235 1.282 . S
C2226 O2227 1.261 . S
C2226 O2239 1.251 . S
O2227 C2226 1.261 . S
H2228 C2222 0.930 . S
H2229 C2224 0.930 . S
N2230 Cu2219 1.985 . S
N2230 C2232 1.335 . S
N2230 C2233 1.390 . S
N2231 C2232 1.345 . S
N2231 C2234 1.336 . S
C2232 N2230 1.335 . S
C2232 N2231 1.345 . S
C2232 H2237 0.930 . S
C2233 N2230 1.390 . S
C2233 C2234 1.346 . S
C2233 H2238 0.930 . S
C2234 N2231 1.336 . S
C2234 C2233 1.346 . S
C2234 H2241 0.929 . S
C2235 O2225 1.282 . S
C2235 O2236 1.216 . S
O2236 C2235 1.216 . S
H2237 C2232 0.930 . S
H2238 C2233 0.930 . S
O2239 Cu2219 1.959 . S
O2239 C2226 1.251 . S
H2240 C2223 0.930 . S
H2241 C2234 0.929 . S
Cu2242 N2243 1.999 . S
Cu2242 O2248 1.974 . S
Cu2242 N2253 1.985 . S
Cu2242 O2262 1.959 . S
N2243 Cu2242 1.999 . S
N2243 C2245 1.263 . S
N2243 C2247 1.389 . S
N2244 C2245 1.358 . S
N2244 C2246 1.400 . S
C2245 N2243 1.263 . S
C2245 N2244 1.358 . S
C2245 H2251 0.930 . S
C2246 N2244 1.400 . S
C2246 C2247 1.351 . S
C2246 H2263 0.930 . S
C2247 N2243 1.389 . S
C2247 C2246 1.351 . S
C2247 H2252 0.930 . S
O2248 Cu2242 1.974 . S
O2248 C2258 1.282 . S
C2249 O2250 1.261 . S
C2249 O2262 1.251 . S
O2250 C2249 1.261 . S
H2251 C2245 0.930 . S
H2252 C2247 0.930 . S
N2253 Cu2242 1.985 . S
N2253 C2255 1.335 . S
N2253 C2256 1.390 . S
N2254 C2255 1.345 . S
N2254 C2257 1.336 . S
C2255 N2253 1.335 . S
C2255 N2254 1.345 . S
C2255 H2260 0.930 . S
C2256 N2253 1.390 . S
C2256 C2257 1.346 . S
C2256 H2261 0.930 . S
C2257 N2254 1.336 . S
C2257 C2256 1.346 . S
C2257 H2264 0.929 . S
C2258 O2248 1.282 . S
C2258 O2259 1.216 . S
O2259 C2258 1.216 . S
H2260 C2255 0.930 . S
H2261 C2256 0.930 . S
O2262 Cu2242 1.959 . S
O2262 C2249 1.251 . S
H2263 C2246 0.930 . S
H2264 C2257 0.929 . S
Cu2265 N2266 1.999 . S
Cu2265 O2271 1.974 . S
Cu2265 N2276 1.985 . S
Cu2265 O2285 1.959 . S
N2266 Cu2265 1.999 . S
N2266 C2268 1.263 . S
N2266 C2270 1.389 . S
N2267 C2268 1.358 . S
N2267 C2269 1.400 . S
C2268 N2266 1.263 . S
C2268 N2267 1.358 . S
C2268 H2274 0.930 . S
C2269 N2267 1.400 . S
C2269 C2270 1.351 . S
C2269 H2286 0.930 . S
C2270 N2266 1.389 . S
C2270 C2269 1.351 . S
C2270 H2275 0.930 . S
O2271 Cu2265 1.974 . S
O2271 C2281 1.282 . S
C2272 O2273 1.261 . S
C2272 O2285 1.251 . S
O2273 C2272 1.261 . S
H2274 C2268 0.930 . S
H2275 C2270 0.930 . S
N2276 Cu2265 1.985 . S
N2276 C2278 1.335 . S
N2276 C2279 1.390 . S
N2277 C2278 1.345 . S
N2277 C2280 1.336 . S
C2278 N2276 1.335 . S
C2278 N2277 1.345 . S
C2278 H2283 0.930 . S
C2279 N2276 1.390 . S
C2279 C2280 1.346 . S
C2279 H2284 0.930 . S
C2280 N2277 1.336 . S
C2280 C2279 1.346 . S
C2280 H2287 0.929 . S
C2281 O2271 1.282 . S
C2281 O2282 1.216 . S
O2282 C2281 1.216 . S
H2283 C2278 0.930 . S
H2284 C2279 0.930 . S
O2285 Cu2265 1.959 . S
O2285 C2272 1.251 . S
H2286 C2269 0.930 . S
H2287 C2280 0.929 . S
Cu2288 N2289 1.999 . S
Cu2288 O2294 1.974 . S
Cu2288 N2299 1.985 . S
Cu2288 O2308 1.959 . S
N2289 Cu2288 1.999 . S
N2289 C2291 1.263 . S
N2289 C2293 1.389 . S
N2290 C2291 1.358 . S
N2290 C2292 1.400 . S
C2291 N2289 1.263 . S
C2291 N2290 1.358 . S
C2291 H2297 0.930 . S
C2292 N2290 1.400 . S
C2292 C2293 1.351 . S
C2292 H2309 0.930 . S
C2293 N2289 1.389 . S
C2293 C2292 1.351 . S
C2293 H2298 0.930 . S
O2294 Cu2288 1.974 . S
O2294 C2304 1.282 . S
C2295 O2296 1.261 . S
C2295 O2308 1.251 . S
O2296 C2295 1.261 . S
H2297 C2291 0.930 . S
H2298 C2293 0.930 . S
N2299 Cu2288 1.985 . S
N2299 C2301 1.335 . S
N2299 C2302 1.390 . S
N2300 C2301 1.345 . S
N2300 C2303 1.336 . S
C2301 N2299 1.335 . S
C2301 N2300 1.345 . S
C2301 H2306 0.930 . S
C2302 N2299 1.390 . S
C2302 C2303 1.346 . S
C2302 H2307 0.930 . S
C2303 N2300 1.336 . S
C2303 C2302 1.346 . S
C2303 H2310 0.929 . S
C2304 O2294 1.282 . S
C2304 O2305 1.216 . S
O2305 C2304 1.216 . S
H2306 C2301 0.930 . S
H2307 C2302 0.930 . S
O2308 Cu2288 1.959 . S
O2308 C2295 1.251 . S
H2309 C2292 0.930 . S
H2310 C2303 0.929 . S
Cu2311 N2312 1.999 . S
Cu2311 O2317 1.974 . S
Cu2311 N2322 1.985 . S
Cu2311 O2331 1.959 . S
N2312 Cu2311 1.999 . S
N2312 C2314 1.263 . S
N2312 C2316 1.389 . S
N2313 C2314 1.358 . S
N2313 C2315 1.400 . S
C2314 N2312 1.263 . S
C2314 N2313 1.358 . S
C2314 H2320 0.930 . S
C2315 N2313 1.400 . S
C2315 C2316 1.351 . S
C2315 H2332 0.930 . S
C2316 N2312 1.389 . S
C2316 C2315 1.351 . S
C2316 H2321 0.930 . S
O2317 Cu2311 1.974 . S
O2317 C2327 1.282 . S
C2318 O2319 1.261 . S
C2318 O2331 1.251 . S
O2319 C2318 1.261 . S
H2320 C2314 0.930 . S
H2321 C2316 0.930 . S
N2322 Cu2311 1.985 . S
N2322 C2324 1.335 . S
N2322 C2325 1.390 . S
N2323 C2324 1.345 . S
N2323 C2326 1.336 . S
C2324 N2322 1.335 . S
C2324 N2323 1.345 . S
C2324 H2329 0.930 . S
C2325 N2322 1.390 . S
C2325 C2326 1.346 . S
C2325 H2330 0.930 . S
C2326 N2323 1.336 . S
C2326 C2325 1.346 . S
C2326 H2333 0.929 . S
C2327 O2317 1.282 . S
C2327 O2328 1.216 . S
O2328 C2327 1.216 . S
H2329 C2324 0.930 . S
H2330 C2325 0.930 . S
O2331 Cu2311 1.959 . S
O2331 C2318 1.251 . S
H2332 C2315 0.930 . S
H2333 C2326 0.929 . S
Cu2334 N2335 1.999 . S
Cu2334 O2340 1.974 . S
Cu2334 N2345 1.985 . S
Cu2334 O2354 1.959 . S
N2335 Cu2334 1.999 . S
N2335 C2337 1.263 . S
N2335 C2339 1.389 . S
N2336 C2337 1.358 . S
N2336 C2338 1.400 . S
C2337 N2335 1.263 . S
C2337 N2336 1.358 . S
C2337 H2343 0.930 . S
C2338 N2336 1.400 . S
C2338 C2339 1.351 . S
C2338 H2355 0.930 . S
C2339 N2335 1.389 . S
C2339 C2338 1.351 . S
C2339 H2344 0.930 . S
O2340 Cu2334 1.974 . S
O2340 C2350 1.282 . S
C2341 O2342 1.261 . S
C2341 O2354 1.251 . S
O2342 C2341 1.261 . S
H2343 C2337 0.930 . S
H2344 C2339 0.930 . S
N2345 Cu2334 1.985 . S
N2345 C2347 1.335 . S
N2345 C2348 1.390 . S
N2346 C2347 1.345 . S
N2346 C2349 1.336 . S
C2347 N2345 1.335 . S
C2347 N2346 1.345 . S
C2347 H2352 0.930 . S
C2348 N2345 1.390 . S
C2348 C2349 1.346 . S
C2348 H2353 0.930 . S
C2349 N2346 1.336 . S
C2349 C2348 1.346 . S
C2349 H2356 0.929 . S
C2350 O2340 1.282 . S
C2350 O2351 1.216 . S
O2351 C2350 1.216 . S
H2352 C2347 0.930 . S
H2353 C2348 0.930 . S
O2354 Cu2334 1.959 . S
O2354 C2341 1.251 . S
H2355 C2338 0.930 . S
H2356 C2349 0.929 . S
Cu2357 N2358 1.999 . S
Cu2357 O2363 1.974 . S
Cu2357 N2368 1.985 . S
Cu2357 O2377 1.959 . S
N2358 Cu2357 1.999 . S
N2358 C2360 1.263 . S
N2358 C2362 1.389 . S
N2359 C2360 1.358 . S
N2359 C2361 1.400 . S
C2360 N2358 1.263 . S
C2360 N2359 1.358 . S
C2360 H2366 0.930 . S
C2361 N2359 1.400 . S
C2361 C2362 1.351 . S
C2361 H2378 0.930 . S
C2362 N2358 1.389 . S
C2362 C2361 1.351 . S
C2362 H2367 0.930 . S
O2363 Cu2357 1.974 . S
O2363 C2373 1.282 . S
C2364 O2365 1.261 . S
C2364 O2377 1.251 . S
O2365 C2364 1.261 . S
H2366 C2360 0.930 . S
H2367 C2362 0.930 . S
N2368 Cu2357 1.985 . S
N2368 C2370 1.335 . S
N2368 C2371 1.390 . S
N2369 C2370 1.345 . S
N2369 C2372 1.336 . S
C2370 N2368 1.335 . S
C2370 N2369 1.345 . S
C2370 H2375 0.930 . S
C2371 N2368 1.390 . S
C2371 C2372 1.346 . S
C2371 H2376 0.930 . S
C2372 N2369 1.336 . S
C2372 C2371 1.346 . S
C2372 H2379 0.929 . S
C2373 O2363 1.282 . S
C2373 O2374 1.216 . S
O2374 C2373 1.216 . S
H2375 C2370 0.930 . S
H2376 C2371 0.930 . S
O2377 Cu2357 1.959 . S
O2377 C2364 1.251 . S
H2378 C2361 0.930 . S
H2379 C2372 0.929 . S
Cu2380 N2381 1.999 . S
Cu2380 O2386 1.974 . S
Cu2380 N2391 1.985 . S
Cu2380 O2400 1.959 . S
N2381 Cu2380 1.999 . S
N2381 C2383 1.263 . S
N2381 C2385 1.389 . S
N2382 C2383 1.358 . S
N2382 C2384 1.400 . S
C2383 N2381 1.263 . S
C2383 N2382 1.358 . S
C2383 H2389 0.930 . S
C2384 N2382 1.400 . S
C2384 C2385 1.351 . S
C2384 H2401 0.930 . S
C2385 N2381 1.389 . S
C2385 C2384 1.351 . S
C2385 H2390 0.930 . S
O2386 Cu2380 1.974 . S
O2386 C2396 1.282 . S
C2387 O2388 1.261 . S
C2387 O2400 1.251 . S
O2388 C2387 1.261 . S
H2389 C2383 0.930 . S
H2390 C2385 0.930 . S
N2391 Cu2380 1.985 . S
N2391 C2393 1.335 . S
N2391 C2394 1.390 . S
N2392 C2393 1.345 . S
N2392 C2395 1.336 . S
C2393 N2391 1.335 . S
C2393 N2392 1.345 . S
C2393 H2398 0.930 . S
C2394 N2391 1.390 . S
C2394 C2395 1.346 . S
C2394 H2399 0.930 . S
C2395 N2392 1.336 . S
C2395 C2394 1.346 . S
C2395 H2402 0.929 . S
C2396 O2386 1.282 . S
C2396 O2397 1.216 . S
O2397 C2396 1.216 . S
H2398 C2393 0.930 . S
H2399 C2394 0.930 . S
O2400 Cu2380 1.959 . S
O2400 C2387 1.251 . S
H2401 C2384 0.930 . S
H2402 C2395 0.929 . S
Cu2403 N2404 1.999 . S
Cu2403 O2409 1.974 . S
Cu2403 N2414 1.985 . S
Cu2403 O2423 1.959 . S
N2404 Cu2403 1.999 . S
N2404 C2406 1.263 . S
N2404 C2408 1.389 . S
N2405 C2406 1.358 . S
N2405 C2407 1.400 . S
C2406 N2404 1.263 . S
C2406 N2405 1.358 . S
C2406 H2412 0.930 . S
C2407 N2405 1.400 . S
C2407 C2408 1.351 . S
C2407 H2424 0.930 . S
C2408 N2404 1.389 . S
C2408 C2407 1.351 . S
C2408 H2413 0.930 . S
O2409 Cu2403 1.974 . S
O2409 C2419 1.282 . S
C2410 O2411 1.261 . S
C2410 O2423 1.251 . S
O2411 C2410 1.261 . S
H2412 C2406 0.930 . S
H2413 C2408 0.930 . S
N2414 Cu2403 1.985 . S
N2414 C2416 1.335 . S
N2414 C2417 1.390 . S
N2415 C2416 1.345 . S
N2415 C2418 1.336 . S
C2416 N2414 1.335 . S
C2416 N2415 1.345 . S
C2416 H2421 0.930 . S
C2417 N2414 1.390 . S
C2417 C2418 1.346 . S
C2417 H2422 0.930 . S
C2418 N2415 1.336 . S
C2418 C2417 1.346 . S
C2418 H2425 0.929 . S
C2419 O2409 1.282 . S
C2419 O2420 1.216 . S
O2420 C2419 1.216 . S
H2421 C2416 0.930 . S
H2422 C2417 0.930 . S
O2423 Cu2403 1.959 . S
O2423 C2410 1.251 . S
H2424 C2407 0.930 . S
H2425 C2418 0.929 . S
Cu2426 N2427 1.999 . S
Cu2426 O2432 1.974 . S
Cu2426 N2437 1.985 . S
Cu2426 O2446 1.959 . S
N2427 Cu2426 1.999 . S
N2427 C2429 1.263 . S
N2427 C2431 1.389 . S
N2428 C2429 1.358 . S
N2428 C2430 1.400 . S
C2429 N2427 1.263 . S
C2429 N2428 1.358 . S
C2429 H2435 0.930 . S
C2430 N2428 1.400 . S
C2430 C2431 1.351 . S
C2430 H2447 0.930 . S
C2431 N2427 1.389 . S
C2431 C2430 1.351 . S
C2431 H2436 0.930 . S
O2432 Cu2426 1.974 . S
O2432 C2442 1.282 . S
C2433 O2434 1.261 . S
C2433 O2446 1.251 . S
O2434 C2433 1.261 . S
H2435 C2429 0.930 . S
H2436 C2431 0.930 . S
N2437 Cu2426 1.985 . S
N2437 C2439 1.335 . S
N2437 C2440 1.390 . S
N2438 C2439 1.345 . S
N2438 C2441 1.336 . S
C2439 N2437 1.335 . S
C2439 N2438 1.345 . S
C2439 H2444 0.930 . S
C2440 N2437 1.390 . S
C2440 C2441 1.346 . S
C2440 H2445 0.930 . S
C2441 N2438 1.336 . S
C2441 C2440 1.346 . S
C2441 H2448 0.929 . S
C2442 O2432 1.282 . S
C2442 O2443 1.216 . S
O2443 C2442 1.216 . S
H2444 C2439 0.930 . S
H2445 C2440 0.930 . S
O2446 Cu2426 1.959 . S
O2446 C2433 1.251 . S
H2447 C2430 0.930 . S
H2448 C2441 0.929 . S
Cu2449 N2450 1.999 . S
Cu2449 O2455 1.974 . S
Cu2449 N2460 1.985 . S
Cu2449 O2469 1.959 . S
N2450 Cu2449 1.999 . S
N2450 C2452 1.263 . S
N2450 C2454 1.389 . S
N2451 C2452 1.358 . S
N2451 C2453 1.400 . S
C2452 N2450 1.263 . S
C2452 N2451 1.358 . S
C2452 H2458 0.930 . S
C2453 N2451 1.400 . S
C2453 C2454 1.351 . S
C2453 H2470 0.930 . S
C2454 N2450 1.389 . S
C2454 C2453 1.351 . S
C2454 H2459 0.930 . S
O2455 Cu2449 1.974 . S
O2455 C2465 1.282 . S
C2456 O2457 1.261 . S
C2456 O2469 1.251 . S
O2457 C2456 1.261 . S
H2458 C2452 0.930 . S
H2459 C2454 0.930 . S
N2460 Cu2449 1.985 . S
N2460 C2462 1.335 . S
N2460 C2463 1.390 . S
N2461 C2462 1.345 . S
N2461 C2464 1.336 . S
C2462 N2460 1.335 . S
C2462 N2461 1.345 . S
C2462 H2467 0.930 . S
C2463 N2460 1.390 . S
C2463 C2464 1.346 . S
C2463 H2468 0.930 . S
C2464 N2461 1.336 . S
C2464 C2463 1.346 . S
C2464 H2471 0.929 . S
C2465 O2455 1.282 . S
C2465 O2466 1.216 . S
O2466 C2465 1.216 . S
H2467 C2462 0.930 . S
H2468 C2463 0.930 . S
O2469 Cu2449 1.959 . S
O2469 C2456 1.251 . S
H2470 C2453 0.930 . S
H2471 C2464 0.929 . S
C2472 C2473 1.363 . S
C2472 C2478 1.379 . S
C2472 N2480 1.356 . S
C2473 C2472 1.363 . S
C2473 C2479 1.363 . S
C2474 C2475 1.363 . S
C2474 C2479 1.379 . S
C2474 N2481 1.356 . S
C2475 C2474 1.363 . S
C2475 C2478 1.363 . S
N2476 C2478 1.356 . S
N2476 H2488 0.984 . S
N2476 H2489 0.985 . S
N2477 C2479 1.356 . S
N2477 H2482 0.984 . S
N2477 H2483 0.985 . S
C2478 C2472 1.379 . S
C2478 C2475 1.363 . S
C2478 N2476 1.356 . S
C2479 C2473 1.363 . S
C2479 C2474 1.379 . S
C2479 N2477 1.356 . S
N2480 C2472 1.356 . S
N2480 H2486 0.984 . S
N2480 H2487 0.984 . S
N2481 C2474 1.356 . S
N2481 H2484 0.984 . S
N2481 H2485 0.985 . S
H2482 N2477 0.984 . S
H2483 N2477 0.985 . S
H2484 N2481 0.984 . S
H2485 N2481 0.985 . S
H2486 N2480 0.984 . S
H2487 N2480 0.984 . S
H2488 N2476 0.984 . S
H2489 N2476 0.985 . S
C2490 C2491 1.363 . S
C2490 C2496 1.379 . S
C2490 N2498 1.356 . S
C2491 C2490 1.363 . S
C2491 C2497 1.363 . S
C2492 C2493 1.363 . S
C2492 C2497 1.379 . S
C2492 N2499 1.356 . S
C2493 C2492 1.363 . S
C2493 C2496 1.363 . S
N2494 C2496 1.356 . S
N2494 H2506 0.984 . S
N2494 H2507 0.985 . S
N2495 C2497 1.356 . S
N2495 H2500 0.984 . S
N2495 H2501 0.985 . S
C2496 C2490 1.379 . S
C2496 C2493 1.363 . S
C2496 N2494 1.356 . S
C2497 C2491 1.363 . S
C2497 C2492 1.379 . S
C2497 N2495 1.356 . S
N2498 C2490 1.356 . S
N2498 H2504 0.984 . S
N2498 H2505 0.984 . S
N2499 C2492 1.356 . S
N2499 H2502 0.984 . S
N2499 H2503 0.985 . S
H2500 N2495 0.984 . S
H2501 N2495 0.985 . S
H2502 N2499 0.984 . S
H2503 N2499 0.985 . S
H2504 N2498 0.984 . S
H2505 N2498 0.984 . S
H2506 N2494 0.984 . S
H2507 N2494 0.985 . S
C2508 C2509 1.363 . S
C2508 C2514 1.379 . S
C2508 N2516 1.356 . S
C2509 C2508 1.363 . S
C2509 C2515 1.363 . S
C2510 C2511 1.363 . S
C2510 C2515 1.379 . S
C2510 N2517 1.356 . S
C2511 C2510 1.363 . S
C2511 C2514 1.363 . S
N2512 C2514 1.356 . S
N2512 H2524 0.984 . S
N2512 H2525 0.985 . S
N2513 C2515 1.356 . S
N2513 H2518 0.984 . S
N2513 H2519 0.985 . S
C2514 C2508 1.379 . S
C2514 C2511 1.363 . S
C2514 N2512 1.356 . S
C2515 C2509 1.363 . S
C2515 C2510 1.379 . S
C2515 N2513 1.356 . S
N2516 C2508 1.356 . S
N2516 H2522 0.984 . S
N2516 H2523 0.984 . S
N2517 C2510 1.356 . S
N2517 H2520 0.984 . S
N2517 H2521 0.985 . S
H2518 N2513 0.984 . S
H2519 N2513 0.985 . S
H2520 N2517 0.984 . S
H2521 N2517 0.985 . S
H2522 N2516 0.984 . S
H2523 N2516 0.984 . S
H2524 N2512 0.984 . S
H2525 N2512 0.985 . S
C2526 C2527 1.363 . S
C2526 C2532 1.379 . S
C2526 N2534 1.356 . S
C2527 C2526 1.363 . S
C2527 C2533 1.363 . S
C2528 C2529 1.363 . S
C2528 C2533 1.379 . S
C2528 N2535 1.356 . S
C2529 C2528 1.363 . S
C2529 C2532 1.363 . S
N2530 C2532 1.356 . S
N2530 H2542 0.984 . S
N2530 H2543 0.985 . S
N2531 C2533 1.356 . S
N2531 H2536 0.984 . S
N2531 H2537 0.985 . S
C2532 C2526 1.379 . S
C2532 C2529 1.363 . S
C2532 N2530 1.356 . S
C2533 C2527 1.363 . S
C2533 C2528 1.379 . S
C2533 N2531 1.356 . S
N2534 C2526 1.356 . S
N2534 H2540 0.984 . S
N2534 H2541 0.984 . S
N2535 C2528 1.356 . S
N2535 H2538 0.984 . S
N2535 H2539 0.985 . S
H2536 N2531 0.984 . S
H2537 N2531 0.985 . S
H2538 N2535 0.984 . S
H2539 N2535 0.985 . S
H2540 N2534 0.984 . S
H2541 N2534 0.984 . S
H2542 N2530 0.984 . S
H2543 N2530 0.985 . S
C2544 C2545 1.363 . S
C2544 C2550 1.379 . S
C2544 N2552 1.356 . S
C2545 C2544 1.363 . S
C2545 C2551 1.363 . S
C2546 C2547 1.363 . S
C2546 C2551 1.379 . S
C2546 N2553 1.356 . S
C2547 C2546 1.363 . S
C2547 C2550 1.363 . S
N2548 C2550 1.356 . S
N2548 H2560 0.984 . S
N2548 H2561 0.985 . S
N2549 C2551 1.356 . S
N2549 H2554 0.984 . S
N2549 H2555 0.985 . S
C2550 C2544 1.379 . S
C2550 C2547 1.363 . S
C2550 N2548 1.356 . S
C2551 C2545 1.363 . S
C2551 C2546 1.379 . S
C2551 N2549 1.356 . S
N2552 C2544 1.356 . S
N2552 H2558 0.984 . S
N2552 H2559 0.984 . S
N2553 C2546 1.356 . S
N2553 H2556 0.984 . S
N2553 H2557 0.985 . S
H2554 N2549 0.984 . S
H2555 N2549 0.985 . S
H2556 N2553 0.984 . S
H2557 N2553 0.985 . S
H2558 N2552 0.984 . S
H2559 N2552 0.984 . S
H2560 N2548 0.984 . S
H2561 N2548 0.985 . S
C2562 C2563 1.363 . S
C2562 C2568 1.379 . S
C2562 N2570 1.356 . S
C2563 C2562 1.363 . S
C2563 C2569 1.363 . S
C2564 C2565 1.363 . S
C2564 C2569 1.379 . S
C2564 N2571 1.356 . S
C2565 C2564 1.363 . S
C2565 C2568 1.363 . S
N2566 C2568 1.356 . S
N2566 H2578 0.984 . S
N2566 H2579 0.985 . S
N2567 C2569 1.356 . S
N2567 H2572 0.984 . S
N2567 H2573 0.985 . S
C2568 C2562 1.379 . S
C2568 C2565 1.363 . S
C2568 N2566 1.356 . S
C2569 C2563 1.363 . S
C2569 C2564 1.379 . S
C2569 N2567 1.356 . S
N2570 C2562 1.356 . S
N2570 H2576 0.984 . S
N2570 H2577 0.984 . S
N2571 C2564 1.356 . S
N2571 H2574 0.984 . S
N2571 H2575 0.985 . S
H2572 N2567 0.984 . S
H2573 N2567 0.985 . S
H2574 N2571 0.984 . S
H2575 N2571 0.985 . S
H2576 N2570 0.984 . S
H2577 N2570 0.984 . S
H2578 N2566 0.984 . S
H2579 N2566 0.985 . S
C2580 C2581 1.363 . S
C2580 C2586 1.379 . S
C2580 N2588 1.356 . S
C2581 C2580 1.363 . S
C2581 C2587 1.363 . S
C2582 C2583 1.363 . S
C2582 C2587 1.379 . S
C2582 N2589 1.356 . S
C2583 C2582 1.363 . S
C2583 C2586 1.363 . S
N2584 C2586 1.356 . S
N2584 H2596 0.984 . S
N2584 H2597 0.985 . S
N2585 C2587 1.356 . S
N2585 H2590 0.984 . S
N2585 H2591 0.985 . S
C2586 C2580 1.379 . S
C2586 C2583 1.363 . S
C2586 N2584 1.356 . S
C2587 C2581 1.363 . S
C2587 C2582 1.379 . S
C2587 N2585 1.356 . S
N2588 C2580 1.356 . S
N2588 H2594 0.984 . S
N2588 H2595 0.984 . S
N2589 C2582 1.356 . S
N2589 H2592 0.984 . S
N2589 H2593 0.985 . S
H2590 N2585 0.984 . S
H2591 N2585 0.985 . S
H2592 N2589 0.984 . S
H2593 N2589 0.985 . S
H2594 N2588 0.984 . S
H2595 N2588 0.984 . S
H2596 N2584 0.984 . S
H2597 N2584 0.985 . S
C2598 C2599 1.363 . S
C2598 C2604 1.379 . S
C2598 N2606 1.356 . S
C2599 C2598 1.363 . S
C2599 C2605 1.363 . S
C2600 C2601 1.363 . S
C2600 C2605 1.379 . S
C2600 N2607 1.356 . S
C2601 C2600 1.363 . S
C2601 C2604 1.363 . S
N2602 C2604 1.356 . S
N2602 H2614 0.984 . S
N2602 H2615 0.985 . S
N2603 C2605 1.356 . S
N2603 H2608 0.984 . S
N2603 H2609 0.985 . S
C2604 C2598 1.379 . S
C2604 C2601 1.363 . S
C2604 N2602 1.356 . S
C2605 C2599 1.363 . S
C2605 C2600 1.379 . S
C2605 N2603 1.356 . S
N2606 C2598 1.356 . S
N2606 H2612 0.984 . S
N2606 H2613 0.984 . S
N2607 C2600 1.356 . S
N2607 H2610 0.984 . S
N2607 H2611 0.985 . S
H2608 N2603 0.984 . S
H2609 N2603 0.985 . S
H2610 N2607 0.984 . S
H2611 N2607 0.985 . S
H2612 N2606 0.984 . S
H2613 N2606 0.984 . S
H2614 N2602 0.984 . S
H2615 N2602 0.985 . S
C2616 C2617 1.363 . S
C2616 C2622 1.379 . S
C2616 N2624 1.356 . S
C2617 C2616 1.363 . S
C2617 C2623 1.363 . S
C2618 C2619 1.363 . S
C2618 C2623 1.379 . S
C2618 N2625 1.356 . S
C2619 C2618 1.363 . S
C2619 C2622 1.363 . S
N2620 C2622 1.356 . S
N2620 H2632 0.984 . S
N2620 H2633 0.985 . S
N2621 C2623 1.356 . S
N2621 H2626 0.984 . S
N2621 H2627 0.985 . S
C2622 C2616 1.379 . S
C2622 C2619 1.363 . S
C2622 N2620 1.356 . S
C2623 C2617 1.363 . S
C2623 C2618 1.379 . S
C2623 N2621 1.356 . S
N2624 C2616 1.356 . S
N2624 H2630 0.984 . S
N2624 H2631 0.984 . S
N2625 C2618 1.356 . S
N2625 H2628 0.984 . S
N2625 H2629 0.985 . S
H2626 N2621 0.984 . S
H2627 N2621 0.985 . S
H2628 N2625 0.984 . S
H2629 N2625 0.985 . S
H2630 N2624 0.984 . S
H2631 N2624 0.984 . S
H2632 N2620 0.984 . S
H2633 N2620 0.985 . S
C2634 C2635 1.363 . S
C2634 C2640 1.379 . S
C2634 N2642 1.356 . S
C2635 C2634 1.363 . S
C2635 C2641 1.363 . S
C2636 C2637 1.363 . S
C2636 C2641 1.379 . S
C2636 N2643 1.356 . S
C2637 C2636 1.363 . S
C2637 C2640 1.363 . S
N2638 C2640 1.356 . S
N2638 H2650 0.984 . S
N2638 H2651 0.985 . S
N2639 C2641 1.356 . S
N2639 H2644 0.984 . S
N2639 H2645 0.985 . S
C2640 C2634 1.379 . S
C2640 C2637 1.363 . S
C2640 N2638 1.356 . S
C2641 C2635 1.363 . S
C2641 C2636 1.379 . S
C2641 N2639 1.356 . S
N2642 C2634 1.356 . S
N2642 H2648 0.984 . S
N2642 H2649 0.984 . S
N2643 C2636 1.356 . S
N2643 H2646 0.984 . S
N2643 H2647 0.985 . S
H2644 N2639 0.984 . S
H2645 N2639 0.985 . S
H2646 N2643 0.984 . S
H2647 N2643 0.985 . S
H2648 N2642 0.984 . S
H2649 N2642 0.984 . S
H2650 N2638 0.984 . S
H2651 N2638 0.985 . S
C2652 C2653 1.363 . S
C2652 C2658 1.379 . S
C2652 N2660 1.356 . S
C2653 C2652 1.363 . S
C2653 C2659 1.363 . S
C2654 C2655 1.363 . S
C2654 C2659 1.379 . S
C2654 N2661 1.356 . S
C2655 C2654 1.363 . S
C2655 C2658 1.363 . S
N2656 C2658 1.356 . S
N2656 H2668 0.984 . S
N2656 H2669 0.985 . S
N2657 C2659 1.356 . S
N2657 H2662 0.984 . S
N2657 H2663 0.985 . S
C2658 C2652 1.379 . S
C2658 C2655 1.363 . S
C2658 N2656 1.356 . S
C2659 C2653 1.363 . S
C2659 C2654 1.379 . S
C2659 N2657 1.356 . S
N2660 C2652 1.356 . S
N2660 H2666 0.984 . S
N2660 H2667 0.984 . S
N2661 C2654 1.356 . S
N2661 H2664 0.984 . S
N2661 H2665 0.985 . S
H2662 N2657 0.984 . S
H2663 N2657 0.985 . S
H2664 N2661 0.984 . S
H2665 N2661 0.985 . S
H2666 N2660 0.984 . S
H2667 N2660 0.984 . S
H2668 N2656 0.984 . S
H2669 N2656 0.985 . S
C2670 C2671 1.363 . S
C2670 C2676 1.379 . S
C2670 N2678 1.356 . S
C2671 C2670 1.363 . S
C2671 C2677 1.363 . S
C2672 C2673 1.363 . S
C2672 C2677 1.379 . S
C2672 N2679 1.356 . S
C2673 C2672 1.363 . S
C2673 C2676 1.363 . S
N2674 C2676 1.356 . S
N2674 H2686 0.984 . S
N2674 H2687 0.985 . S
N2675 C2677 1.356 . S
N2675 H2680 0.984 . S
N2675 H2681 0.985 . S
C2676 C2670 1.379 . S
C2676 C2673 1.363 . S
C2676 N2674 1.356 . S
C2677 C2671 1.363 . S
C2677 C2672 1.379 . S
C2677 N2675 1.356 . S
N2678 C2670 1.356 . S
N2678 H2684 0.984 . S
N2678 H2685 0.984 . S
N2679 C2672 1.356 . S
N2679 H2682 0.984 . S
N2679 H2683 0.985 . S
H2680 N2675 0.984 . S
H2681 N2675 0.985 . S
H2682 N2679 0.984 . S
H2683 N2679 0.985 . S
H2684 N2678 0.984 . S
H2685 N2678 0.984 . S
H2686 N2674 0.984 . S
H2687 N2674 0.985 . S
C2688 C2689 1.363 . S
C2688 C2694 1.379 . S
C2688 N2696 1.356 . S
C2689 C2688 1.363 . S
C2689 C2695 1.363 . S
C2690 C2691 1.363 . S
C2690 C2695 1.379 . S
C2690 N2697 1.356 . S
C2691 C2690 1.363 . S
C2691 C2694 1.363 . S
N2692 C2694 1.356 . S
N2692 H2704 0.984 . S
N2692 H2705 0.985 . S
N2693 C2695 1.356 . S
N2693 H2698 0.984 . S
N2693 H2699 0.985 . S
C2694 C2688 1.379 . S
C2694 C2691 1.363 . S
C2694 N2692 1.356 . S
C2695 C2689 1.363 . S
C2695 C2690 1.379 . S
C2695 N2693 1.356 . S
N2696 C2688 1.356 . S
N2696 H2702 0.984 . S
N2696 H2703 0.984 . S
N2697 C2690 1.356 . S
N2697 H2700 0.984 . S
N2697 H2701 0.985 . S
H2698 N2693 0.984 . S
H2699 N2693 0.985 . S
H2700 N2697 0.984 . S
H2701 N2697 0.985 . S
H2702 N2696 0.984 . S
H2703 N2696 0.984 . S
H2704 N2692 0.984 . S
H2705 N2692 0.985 . S
C2706 C2707 1.363 . S
C2706 C2712 1.379 . S
C2706 N2714 1.356 . S
C2707 C2706 1.363 . S
C2707 C2713 1.363 . S
C2708 C2709 1.363 . S
C2708 C2713 1.379 . S
C2708 N2715 1.356 . S
C2709 C2708 1.363 . S
C2709 C2712 1.363 . S
N2710 C2712 1.356 . S
N2710 H2722 0.984 . S
N2710 H2723 0.985 . S
N2711 C2713 1.356 . S
N2711 H2716 0.984 . S
N2711 H2717 0.985 . S
C2712 C2706 1.379 . S
C2712 C2709 1.363 . S
C2712 N2710 1.356 . S
C2713 C2707 1.363 . S
C2713 C2708 1.379 . S
C2713 N2711 1.356 . S
N2714 C2706 1.356 . S
N2714 H2720 0.984 . S
N2714 H2721 0.984 . S
N2715 C2708 1.356 . S
N2715 H2718 0.984 . S
N2715 H2719 0.985 . S
H2716 N2711 0.984 . S
H2717 N2711 0.985 . S
H2718 N2715 0.984 . S
H2719 N2715 0.985 . S
H2720 N2714 0.984 . S
H2721 N2714 0.984 . S
H2722 N2710 0.984 . S
H2723 N2710 0.985 . S
C2724 C2725 1.363 . S
C2724 C2730 1.379 . S
C2724 N2732 1.356 . S
C2725 C2724 1.363 . S
C2725 C2731 1.363 . S
C2726 C2727 1.363 . S
C2726 C2731 1.379 . S
C2726 N2733 1.356 . S
C2727 C2726 1.363 . S
C2727 C2730 1.363 . S
N2728 C2730 1.356 . S
N2728 H2740 0.984 . S
N2728 H2741 0.985 . S
N2729 C2731 1.356 . S
N2729 H2734 0.984 . S
N2729 H2735 0.985 . S
C2730 C2724 1.379 . S
C2730 C2727 1.363 . S
C2730 N2728 1.356 . S
C2731 C2725 1.363 . S
C2731 C2726 1.379 . S
C2731 N2729 1.356 . S
N2732 C2724 1.356 . S
N2732 H2738 0.984 . S
N2732 H2739 0.984 . S
N2733 C2726 1.356 . S
N2733 H2736 0.984 . S
N2733 H2737 0.985 . S
H2734 N2729 0.984 . S
H2735 N2729 0.985 . S
H2736 N2733 0.984 . S
H2737 N2733 0.985 . S
H2738 N2732 0.984 . S
H2739 N2732 0.984 . S
H2740 N2728 0.984 . S
H2741 N2728 0.985 . S
C2742 C2743 1.363 . S
C2742 C2748 1.379 . S
C2742 N2750 1.356 . S
C2743 C2742 1.363 . S
C2743 C2749 1.363 . S
C2744 C2745 1.363 . S
C2744 C2749 1.379 . S
C2744 N2751 1.356 . S
C2745 C2744 1.363 . S
C2745 C2748 1.363 . S
N2746 C2748 1.356 . S
N2746 H2758 0.984 . S
N2746 H2759 0.985 . S
N2747 C2749 1.356 . S
N2747 H2752 0.984 . S
N2747 H2753 0.985 . S
C2748 C2742 1.379 . S
C2748 C2745 1.363 . S
C2748 N2746 1.356 . S
C2749 C2743 1.363 . S
C2749 C2744 1.379 . S
C2749 N2747 1.356 . S
N2750 C2742 1.356 . S
N2750 H2756 0.984 . S
N2750 H2757 0.984 . S
N2751 C2744 1.356 . S
N2751 H2754 0.984 1_565 S
N2751 H2755 0.964 1_565 S
H2752 N2747 0.984 . S
H2753 N2747 0.985 . S
H2754 N2751 0.984 1_545 S
H2755 N2751 0.964 1_545 S
H2756 N2750 0.984 . S
H2757 N2750 0.984 . S
H2758 N2746 0.984 . S
H2759 N2746 0.985 . S
C2760 C2761 1.363 . S
C2760 C2766 1.379 . S
C2760 N2768 1.356 . S
C2761 C2760 1.363 . S
C2761 C2767 1.363 . S
C2762 C2763 1.363 . S
C2762 C2767 1.379 . S
C2762 N2769 1.356 . S
C2763 C2762 1.363 . S
C2763 C2766 1.363 . S
N2764 C2766 1.356 . S
N2764 H2776 0.984 . S
N2764 H2777 0.985 . S
N2765 C2767 1.356 . S
N2765 H2770 0.984 . S
N2765 H2771 0.985 . S
C2766 C2760 1.379 . S
C2766 C2763 1.363 . S
C2766 N2764 1.356 . S
C2767 C2761 1.363 . S
C2767 C2762 1.379 . S
C2767 N2765 1.356 . S
N2768 C2760 1.356 . S
N2768 H2774 0.984 . S
N2768 H2775 0.984 . S
N2769 C2762 1.356 . S
N2769 H2772 0.984 . S
N2769 H2773 0.985 . S
H2770 N2765 0.984 . S
H2771 N2765 0.985 . S
H2772 N2769 0.984 . S
H2773 N2769 0.985 . S
H2774 N2768 0.984 . S
H2775 N2768 0.984 . S
H2776 N2764 0.984 . S
H2777 N2764 0.985 . S
C2778 C2779 1.363 . S
C2778 C2784 1.379 . S
C2778 N2786 1.356 . S
C2779 C2778 1.363 . S
C2779 C2785 1.363 . S
C2780 C2781 1.363 . S
C2780 C2785 1.379 . S
C2780 N2787 1.356 . S
C2781 C2780 1.363 . S
C2781 C2784 1.363 . S
N2782 C2784 1.356 . S
N2782 H2794 0.984 . S
N2782 H2795 0.985 . S
N2783 C2785 1.356 . S
N2783 H2788 0.984 . S
N2783 H2789 0.985 . S
C2784 C2778 1.379 . S
C2784 C2781 1.363 . S
C2784 N2782 1.356 . S
C2785 C2779 1.363 . S
C2785 C2780 1.379 . S
C2785 N2783 1.356 . S
N2786 C2778 1.356 . S
N2786 H2792 0.984 . S
N2786 H2793 0.984 . S
N2787 C2780 1.356 . S
N2787 H2790 0.984 . S
N2787 H2791 0.985 . S
H2788 N2783 0.984 . S
H2789 N2783 0.985 . S
H2790 N2787 0.984 . S
H2791 N2787 0.985 . S
H2792 N2786 0.984 . S
H2793 N2786 0.984 . S
H2794 N2782 0.984 . S
H2795 N2782 0.985 . S
C2796 C2797 1.363 . S
C2796 C2802 1.379 . S
C2796 N2804 1.356 . S
C2797 C2796 1.363 . S
C2797 C2803 1.363 . S
C2798 C2799 1.363 . S
C2798 C2803 1.379 . S
C2798 N2805 1.356 . S
C2799 C2798 1.363 . S
C2799 C2802 1.363 . S
N2800 C2802 1.356 . S
N2800 H2812 0.984 . S
N2800 H2813 0.985 . S
N2801 C2803 1.356 . S
N2801 H2806 0.984 . S
N2801 H2807 0.985 . S
C2802 C2796 1.379 . S
C2802 C2799 1.363 . S
C2802 N2800 1.356 . S
C2803 C2797 1.363 . S
C2803 C2798 1.379 . S
C2803 N2801 1.356 . S
N2804 C2796 1.356 . S
N2804 H2810 0.984 . S
N2804 H2811 0.984 . S
N2805 C2798 1.356 . S
N2805 H2808 0.984 . S
N2805 H2809 0.985 . S
H2806 N2801 0.984 . S
H2807 N2801 0.985 . S
H2808 N2805 0.984 . S
H2809 N2805 0.985 . S
H2810 N2804 0.984 . S
H2811 N2804 0.984 . S
H2812 N2800 0.984 . S
H2813 N2800 0.985 . S
C2814 C2815 1.363 . S
C2814 C2820 1.379 . S
C2814 N2822 1.356 . S
C2815 C2814 1.363 . S
C2815 C2821 1.363 . S
C2816 C2817 1.363 . S
C2816 C2821 1.379 . S
C2816 N2823 1.356 . S
C2817 C2816 1.363 . S
C2817 C2820 1.363 . S
N2818 C2820 1.356 . S
N2818 H2830 0.984 . S
N2818 H2831 0.985 . S
N2819 C2821 1.356 . S
N2819 H2824 0.984 . S
N2819 H2825 0.985 . S
C2820 C2814 1.379 . S
C2820 C2817 1.363 . S
C2820 N2818 1.356 . S
C2821 C2815 1.363 . S
C2821 C2816 1.379 . S
C2821 N2819 1.356 . S
N2822 C2814 1.356 . S
N2822 H2828 0.984 . S
N2822 H2829 0.984 . S
N2823 C2816 1.356 . S
N2823 H2826 0.984 . S
N2823 H2827 0.985 . S
H2824 N2819 0.984 . S
H2825 N2819 0.985 . S
H2826 N2823 0.984 . S
H2827 N2823 0.985 . S
H2828 N2822 0.984 . S
H2829 N2822 0.984 . S
H2830 N2818 0.984 . S
H2831 N2818 0.985 . S
C2832 C2833 1.363 . S
C2832 C2838 1.379 . S
C2832 N2840 1.356 . S
C2833 C2832 1.363 . S
C2833 C2839 1.363 . S
C2834 C2835 1.363 . S
C2834 C2839 1.379 . S
C2834 N2841 1.356 . S
C2835 C2834 1.363 . S
C2835 C2838 1.363 . S
N2836 C2838 1.356 . S
N2836 H2848 0.984 . S
N2836 H2849 0.985 . S
N2837 C2839 1.356 . S
N2837 H2842 0.984 . S
N2837 H2843 0.985 . S
C2838 C2832 1.379 . S
C2838 C2835 1.363 . S
C2838 N2836 1.356 . S
C2839 C2833 1.363 . S
C2839 C2834 1.379 . S
C2839 N2837 1.356 . S
N2840 C2832 1.356 . S
N2840 H2846 0.984 . S
N2840 H2847 0.984 . S
N2841 C2834 1.356 . S
N2841 H2844 0.984 . S
N2841 H2845 0.985 . S
H2842 N2837 0.984 . S
H2843 N2837 0.985 . S
H2844 N2841 0.984 . S
H2845 N2841 0.985 . S
H2846 N2840 0.984 . S
H2847 N2840 0.984 . S
H2848 N2836 0.984 . S
H2849 N2836 0.985 . S
C2850 C2851 1.363 . S
C2850 C2856 1.379 . S
C2850 N2858 1.356 . S
C2851 C2850 1.363 . S
C2851 C2857 1.363 . S
C2852 C2853 1.363 . S
C2852 C2857 1.379 . S
C2852 N2859 1.356 . S
C2853 C2852 1.363 . S
C2853 C2856 1.363 . S
N2854 C2856 1.356 . S
N2854 H2866 0.984 . S
N2854 H2867 0.985 . S
N2855 C2857 1.356 . S
N2855 H2860 0.984 . S
N2855 H2861 0.985 . S
C2856 C2850 1.379 . S
C2856 C2853 1.363 . S
C2856 N2854 1.356 . S
C2857 C2851 1.363 . S
C2857 C2852 1.379 . S
C2857 N2855 1.356 . S
N2858 C2850 1.356 . S
N2858 H2864 0.984 . S
N2858 H2865 0.984 . S
N2859 C2852 1.356 . S
N2859 H2862 0.984 . S
N2859 H2863 0.985 . S
H2860 N2855 0.984 . S
H2861 N2855 0.985 . S
H2862 N2859 0.984 . S
H2863 N2859 0.985 . S
H2864 N2858 0.984 . S
H2865 N2858 0.984 . S
H2866 N2854 0.984 . S
H2867 N2854 0.985 . S
C2868 C2869 1.363 . S
C2868 C2874 1.379 . S
C2868 N2876 1.356 . S
C2869 C2868 1.363 . S
C2869 C2875 1.363 . S
C2870 C2871 1.363 . S
C2870 C2875 1.379 . S
C2870 N2877 1.356 . S
C2871 C2870 1.363 . S
C2871 C2874 1.363 . S
N2872 C2874 1.356 . S
N2872 H2884 0.984 . S
N2872 H2885 0.985 . S
N2873 C2875 1.356 . S
N2873 H2878 0.984 . S
N2873 H2879 0.985 . S
C2874 C2868 1.379 . S
C2874 C2871 1.363 . S
C2874 N2872 1.356 . S
C2875 C2869 1.363 . S
C2875 C2870 1.379 . S
C2875 N2873 1.356 . S
N2876 C2868 1.356 . S
N2876 H2882 0.984 . S
N2876 H2883 0.984 . S
N2877 C2870 1.356 . S
N2877 H2880 0.984 . S
N2877 H2881 0.985 . S
H2878 N2873 0.984 . S
H2879 N2873 0.985 . S
H2880 N2877 0.984 . S
H2881 N2877 0.985 . S
H2882 N2876 0.984 . S
H2883 N2876 0.984 . S
H2884 N2872 0.984 . S
H2885 N2872 0.985 . S
C2886 C2887 1.363 . S
C2886 C2892 1.379 . S
C2886 N2894 1.356 . S
C2887 C2886 1.363 . S
C2887 C2893 1.363 . S
C2888 C2889 1.363 . S
C2888 C2893 1.379 . S
C2888 N2895 1.356 . S
C2889 C2888 1.363 . S
C2889 C2892 1.363 . S
N2890 C2892 1.356 . S
N2890 H2902 0.984 . S
N2890 H2903 0.985 . S
N2891 C2893 1.356 . S
N2891 H2896 0.984 . S
N2891 H2897 0.985 . S
C2892 C2886 1.379 . S
C2892 C2889 1.363 . S
C2892 N2890 1.356 . S
C2893 C2887 1.363 . S
C2893 C2888 1.379 . S
C2893 N2891 1.356 . S
N2894 C2886 1.356 . S
N2894 H2900 0.984 . S
N2894 H2901 0.984 . S
N2895 C2888 1.356 . S
N2895 H2898 0.984 . S
N2895 H2899 0.985 . S
H2896 N2891 0.984 . S
H2897 N2891 0.985 . S
H2898 N2895 0.984 . S
H2899 N2895 0.985 . S
H2900 N2894 0.984 . S
H2901 N2894 0.984 . S
H2902 N2890 0.984 . S
H2903 N2890 0.985 . S
C2904 C2905 1.363 . S
C2904 C2910 1.379 . S
C2904 N2912 1.356 . S
C2905 C2904 1.363 . S
C2905 C2911 1.363 . S
C2906 C2907 1.363 . S
C2906 C2911 1.379 . S
C2906 N2913 1.356 . S
C2907 C2906 1.363 . S
C2907 C2910 1.363 . S
N2908 C2910 1.356 . S
N2908 H2920 0.984 . S
N2908 H2921 0.985 . S
N2909 C2911 1.356 . S
N2909 H2914 0.984 . S
N2909 H2915 0.985 . S
C2910 C2904 1.379 . S
C2910 C2907 1.363 . S
C2910 N2908 1.356 . S
C2911 C2905 1.363 . S
C2911 C2906 1.379 . S
C2911 N2909 1.356 . S
N2912 C2904 1.356 . S
N2912 H2918 0.984 . S
N2912 H2919 0.984 . S
N2913 C2906 1.356 . S
N2913 H2916 0.984 . S
N2913 H2917 0.985 . S
H2914 N2909 0.984 . S
H2915 N2909 0.985 . S
H2916 N2913 0.984 . S
H2917 N2913 0.985 . S
H2918 N2912 0.984 . S
H2919 N2912 0.984 . S
H2920 N2908 0.984 . S
H2921 N2908 0.985 . S
C2922 C2923 1.363 . S
C2922 C2928 1.379 . S
C2922 N2930 1.356 . S
C2923 C2922 1.363 . S
C2923 C2929 1.363 . S
C2924 C2925 1.363 . S
C2924 C2929 1.379 . S
C2924 N2931 1.356 . S
C2925 C2924 1.363 . S
C2925 C2928 1.363 . S
N2926 C2928 1.356 . S
N2926 H2938 0.984 . S
N2926 H2939 0.985 . S
N2927 C2929 1.356 . S
N2927 H2932 0.984 . S
N2927 H2933 0.985 . S
C2928 C2922 1.379 . S
C2928 C2925 1.363 . S
C2928 N2926 1.356 . S
C2929 C2923 1.363 . S
C2929 C2924 1.379 . S
C2929 N2927 1.356 . S
N2930 C2922 1.356 . S
N2930 H2936 0.984 . S
N2930 H2937 0.984 . S
N2931 C2924 1.356 . S
N2931 H2934 0.984 . S
N2931 H2935 0.985 . S
H2932 N2927 0.984 . S
H2933 N2927 0.985 . S
H2934 N2931 0.984 . S
H2935 N2931 0.985 . S
H2936 N2930 0.984 . S
H2937 N2930 0.984 . S
H2938 N2926 0.984 . S
H2939 N2926 0.985 . S
C2940 C2941 1.363 . S
C2940 C2946 1.379 . S
C2940 N2948 1.356 . S
C2941 C2940 1.363 . S
C2941 C2947 1.363 . S
C2942 C2943 1.363 . S
C2942 C2947 1.379 . S
C2942 N2949 1.356 . S
C2943 C2942 1.363 . S
C2943 C2946 1.363 . S
N2944 C2946 1.356 . S
N2944 H2956 0.984 . S
N2944 H2957 0.985 . S
N2945 C2947 1.356 . S
N2945 H2950 0.984 . S
N2945 H2951 0.985 . S
C2946 C2940 1.379 . S
C2946 C2943 1.363 . S
C2946 N2944 1.356 . S
C2947 C2941 1.363 . S
C2947 C2942 1.379 . S
C2947 N2945 1.356 . S
N2948 C2940 1.356 . S
N2948 H2954 0.984 . S
N2948 H2955 0.984 . S
N2949 C2942 1.356 . S
N2949 H2952 0.984 . S
N2949 H2953 0.985 . S
H2950 N2945 0.984 . S
H2951 N2945 0.985 . S
H2952 N2949 0.984 . S
H2953 N2949 0.985 . S
H2954 N2948 0.984 . S
H2955 N2948 0.984 . S
H2956 N2944 0.984 . S
H2957 N2944 0.985 . S
C2958 C2959 1.363 . S
C2958 C2964 1.379 . S
C2958 N2966 1.356 . S
C2959 C2958 1.363 . S
C2959 C2965 1.363 . S
C2960 C2961 1.363 . S
C2960 C2965 1.379 . S
C2960 N2967 1.356 . S
C2961 C2960 1.363 . S
C2961 C2964 1.363 . S
N2962 C2964 1.356 . S
N2962 H2974 0.984 . S
N2962 H2975 0.985 . S
N2963 C2965 1.356 . S
N2963 H2968 0.984 . S
N2963 H2969 0.985 . S
C2964 C2958 1.379 . S
C2964 C2961 1.363 . S
C2964 N2962 1.356 . S
C2965 C2959 1.363 . S
C2965 C2960 1.379 . S
C2965 N2963 1.356 . S
N2966 C2958 1.356 . S
N2966 H2972 0.984 . S
N2966 H2973 0.984 . S
N2967 C2960 1.356 . S
N2967 H2970 0.984 . S
N2967 H2971 0.985 . S
H2968 N2963 0.984 . S
H2969 N2963 0.985 . S
H2970 N2967 0.984 . S
H2971 N2967 0.985 . S
H2972 N2966 0.984 . S
H2973 N2966 0.984 . S
H2974 N2962 0.984 . S
H2975 N2962 0.985 . S
C2976 C2977 1.363 . S
C2976 C2982 1.379 . S
C2976 N2984 1.356 . S
C2977 C2976 1.363 . S
C2977 C2983 1.363 . S
C2978 C2979 1.363 . S
C2978 C2983 1.379 . S
C2978 N2985 1.356 . S
C2979 C2978 1.363 . S
C2979 C2982 1.363 . S
N2980 C2982 1.356 . S
N2980 H2992 0.984 . S
N2980 H2993 0.985 . S
N2981 C2983 1.356 . S
N2981 H2986 0.984 . S
N2981 H2987 0.985 . S
C2982 C2976 1.379 . S
C2982 C2979 1.363 . S
C2982 N2980 1.356 . S
C2983 C2977 1.363 . S
C2983 C2978 1.379 . S
C2983 N2981 1.356 . S
N2984 C2976 1.356 . S
N2984 H2990 0.984 . S
N2984 H2991 0.984 . S
N2985 C2978 1.356 . S
N2985 H2988 0.984 . S
N2985 H2989 0.985 . S
H2986 N2981 0.984 . S
H2987 N2981 0.985 . S
H2988 N2985 0.984 . S
H2989 N2985 0.985 . S
H2990 N2984 0.984 . S
H2991 N2984 0.984 . S
H2992 N2980 0.984 . S
H2993 N2980 0.985 . S
C2994 C2995 1.363 . S
C2994 C3000 1.379 . S
C2994 N3002 1.356 . S
C2995 C2994 1.363 . S
C2995 C3001 1.363 . S
C2996 C2997 1.363 . S
C2996 C3001 1.379 . S
C2996 N3003 1.356 . S
C2997 C2996 1.363 . S
C2997 C3000 1.363 . S
N2998 C3000 1.356 . S
N2998 H3010 0.984 . S
N2998 H3011 0.985 . S
N2999 C3001 1.356 . S
N2999 H3004 0.984 . S
N2999 H3005 0.985 . S
C3000 C2994 1.379 . S
C3000 C2997 1.363 . S
C3000 N2998 1.356 . S
C3001 C2995 1.363 . S
C3001 C2996 1.379 . S
C3001 N2999 1.356 . S
N3002 C2994 1.356 . S
N3002 H3008 0.984 . S
N3002 H3009 0.984 . S
N3003 C2996 1.356 . S
N3003 H3006 0.984 . S
N3003 H3007 0.985 . S
H3004 N2999 0.984 . S
H3005 N2999 0.985 . S
H3006 N3003 0.984 . S
H3007 N3003 0.985 . S
H3008 N3002 0.984 . S
H3009 N3002 0.984 . S
H3010 N2998 0.984 . S
H3011 N2998 0.985 . S
C3012 C3013 1.363 . S
C3012 C3018 1.379 . S
C3012 N3020 1.356 . S
C3013 C3012 1.363 . S
C3013 C3019 1.363 . S
C3014 C3015 1.363 . S
C3014 C3019 1.379 . S
C3014 N3021 1.356 . S
C3015 C3014 1.363 . S
C3015 C3018 1.363 . S
N3016 C3018 1.356 . S
N3016 H3028 0.984 . S
N3016 H3029 0.985 . S
N3017 C3019 1.356 . S
N3017 H3022 0.984 . S
N3017 H3023 0.985 . S
C3018 C3012 1.379 . S
C3018 C3015 1.363 . S
C3018 N3016 1.356 . S
C3019 C3013 1.363 . S
C3019 C3014 1.379 . S
C3019 N3017 1.356 . S
N3020 C3012 1.356 . S
N3020 H3026 0.984 . S
N3020 H3027 0.984 . S
N3021 C3014 1.356 . S
N3021 H3024 0.984 . S
N3021 H3025 0.985 . S
H3022 N3017 0.984 . S
H3023 N3017 0.985 . S
H3024 N3021 0.984 . S
H3025 N3021 0.985 . S
H3026 N3020 0.984 . S
H3027 N3020 0.984 . S
H3028 N3016 0.984 . S
H3029 N3016 0.985 . S
C3030 C3031 1.363 . S
C3030 C3036 1.379 . S
C3030 N3038 1.356 . S
C3031 C3030 1.363 . S
C3031 C3037 1.363 . S
C3032 C3033 1.363 . S
C3032 C3037 1.379 . S
C3032 N3039 1.356 . S
C3033 C3032 1.363 . S
C3033 C3036 1.363 . S
N3034 C3036 1.356 . S
N3034 H3046 0.984 . S
N3034 H3047 0.985 . S
N3035 C3037 1.356 . S
N3035 H3040 0.984 . S
N3035 H3041 0.985 . S
C3036 C3030 1.379 . S
C3036 C3033 1.363 . S
C3036 N3034 1.356 . S
C3037 C3031 1.363 . S
C3037 C3032 1.379 . S
C3037 N3035 1.356 . S
N3038 C3030 1.356 . S
N3038 H3044 0.984 . S
N3038 H3045 0.984 . S
N3039 C3032 1.356 . S
N3039 H3042 0.984 . S
N3039 H3043 0.985 . S
H3040 N3035 0.984 . S
H3041 N3035 0.985 . S
H3042 N3039 0.984 . S
H3043 N3039 0.985 . S
H3044 N3038 0.984 . S
H3045 N3038 0.984 . S
H3046 N3034 0.984 . S
H3047 N3034 0.985 . S
C3048 C3049 1.363 . S
C3048 C3054 1.379 . S
C3048 N3056 1.356 . S
C3049 C3048 1.363 . S
C3049 C3055 1.363 . S
C3050 C3051 1.363 . S
C3050 C3055 1.379 . S
C3050 N3057 1.356 . S
C3051 C3050 1.363 . S
C3051 C3054 1.363 . S
N3052 C3054 1.356 . S
N3052 H3064 0.984 . S
N3052 H3065 0.985 . S
N3053 C3055 1.356 . S
N3053 H3058 0.984 . S
N3053 H3059 0.985 . S
C3054 C3048 1.379 . S
C3054 C3051 1.363 . S
C3054 N3052 1.356 . S
C3055 C3049 1.363 . S
C3055 C3050 1.379 . S
C3055 N3053 1.356 . S
N3056 C3048 1.356 . S
N3056 H3062 0.984 . S
N3056 H3063 0.984 . S
N3057 C3050 1.356 . S
N3057 H3060 0.984 . S
N3057 H3061 0.985 . S
H3058 N3053 0.984 . S
H3059 N3053 0.985 . S
H3060 N3057 0.984 . S
H3061 N3057 0.985 . S
H3062 N3056 0.984 . S
H3063 N3056 0.984 . S
H3064 N3052 0.984 . S
H3065 N3052 0.985 . S
C3066 C3067 1.363 . S
C3066 C3072 1.379 . S
C3066 N3074 1.356 . S
C3067 C3066 1.363 . S
C3067 C3073 1.363 . S
C3068 C3069 1.363 . S
C3068 C3073 1.379 . S
C3068 N3075 1.356 . S
C3069 C3068 1.363 . S
C3069 C3072 1.363 . S
N3070 C3072 1.356 . S
N3070 H3082 0.984 . S
N3070 H3083 0.985 . S
N3071 C3073 1.356 . S
N3071 H3076 0.984 . S
N3071 H3077 0.985 . S
C3072 C3066 1.379 . S
C3072 C3069 1.363 . S
C3072 N3070 1.356 . S
C3073 C3067 1.363 . S
C3073 C3068 1.379 . S
C3073 N3071 1.356 . S
N3074 C3066 1.356 . S
N3074 H3080 0.984 . S
N3074 H3081 0.984 . S
N3075 C3068 1.356 . S
N3075 H3078 0.984 . S
N3075 H3079 0.985 . S
H3076 N3071 0.984 . S
H3077 N3071 0.985 . S
H3078 N3075 0.984 . S
H3079 N3075 0.985 . S
H3080 N3074 0.984 . S
H3081 N3074 0.984 . S
H3082 N3070 0.984 . S
H3083 N3070 0.985 . S
C3084 C3085 1.363 . S
C3084 C3090 1.379 . S
C3084 N3092 1.356 . S
C3085 C3084 1.363 . S
C3085 C3091 1.363 . S
C3086 C3087 1.363 . S
C3086 C3091 1.379 . S
C3086 N3093 1.356 . S
C3087 C3086 1.363 . S
C3087 C3090 1.363 . S
N3088 C3090 1.356 . S
N3088 H3100 0.984 . S
N3088 H3101 0.985 . S
N3089 C3091 1.356 . S
N3089 H3094 0.984 . S
N3089 H3095 0.985 . S
C3090 C3084 1.379 . S
C3090 C3087 1.363 . S
C3090 N3088 1.356 . S
C3091 C3085 1.363 . S
C3091 C3086 1.379 . S
C3091 N3089 1.356 . S
N3092 C3084 1.356 . S
N3092 H3098 0.984 . S
N3092 H3099 0.984 . S
N3093 C3086 1.356 . S
N3093 H3096 0.984 . S
N3093 H3097 0.985 . S
H3094 N3089 0.984 . S
H3095 N3089 0.985 . S
H3096 N3093 0.984 . S
H3097 N3093 0.985 . S
H3098 N3092 0.984 . S
H3099 N3092 0.984 . S
H3100 N3088 0.984 . S
H3101 N3088 0.985 . S
C3102 C3103 1.363 . S
C3102 C3108 1.379 . S
C3102 N3110 1.356 . S
C3103 C3102 1.363 . S
C3103 C3109 1.363 . S
C3104 C3105 1.363 . S
C3104 C3109 1.379 . S
C3104 N3111 1.356 . S
C3105 C3104 1.363 . S
C3105 C3108 1.363 . S
N3106 C3108 1.356 . S
N3106 H3118 0.984 . S
N3106 H3119 0.985 . S
N3107 C3109 1.356 . S
N3107 H3112 0.984 . S
N3107 H3113 0.985 . S
C3108 C3102 1.379 . S
C3108 C3105 1.363 . S
C3108 N3106 1.356 . S
C3109 C3103 1.363 . S
C3109 C3104 1.379 . S
C3109 N3107 1.356 . S
N3110 C3102 1.356 . S
N3110 H3116 0.984 . S
N3110 H3117 0.984 . S
N3111 C3104 1.356 . S
N3111 H3114 0.984 . S
N3111 H3115 0.985 . S
H3112 N3107 0.984 . S
H3113 N3107 0.985 . S
H3114 N3111 0.984 . S
H3115 N3111 0.985 . S
H3116 N3110 0.984 . S
H3117 N3110 0.984 . S
H3118 N3106 0.984 . S
H3119 N3106 0.985 . S
C3120 C3121 1.363 . S
C3120 C3126 1.379 . S
C3120 N3128 1.356 . S
C3121 C3120 1.363 . S
C3121 C3127 1.363 . S
C3122 C3123 1.363 . S
C3122 C3127 1.379 . S
C3122 N3129 1.356 . S
C3123 C3122 1.363 . S
C3123 C3126 1.363 . S
N3124 C3126 1.356 . S
N3124 H3136 0.984 . S
N3124 H3137 0.985 . S
N3125 C3127 1.356 . S
N3125 H3130 0.984 . S
N3125 H3131 0.985 . S
C3126 C3120 1.379 . S
C3126 C3123 1.363 . S
C3126 N3124 1.356 . S
C3127 C3121 1.363 . S
C3127 C3122 1.379 . S
C3127 N3125 1.356 . S
N3128 C3120 1.356 . S
N3128 H3134 0.984 . S
N3128 H3135 0.984 . S
N3129 C3122 1.356 . S
N3129 H3132 0.984 . S
N3129 H3133 0.985 . S
H3130 N3125 0.984 . S
H3131 N3125 0.985 . S
H3132 N3129 0.984 . S
H3133 N3129 0.985 . S
H3134 N3128 0.984 . S
H3135 N3128 0.984 . S
H3136 N3124 0.984 . S
H3137 N3124 0.985 . S
C3138 C3139 1.363 . S
C3138 C3144 1.379 . S
C3138 N3146 1.356 . S
C3139 C3138 1.363 . S
C3139 C3145 1.363 . S
C3140 C3141 1.363 . S
C3140 C3145 1.379 . S
C3140 N3147 1.356 . S
C3141 C3140 1.363 . S
C3141 C3144 1.363 . S
N3142 C3144 1.356 . S
N3142 H3154 0.984 . S
N3142 H3155 0.985 . S
N3143 C3145 1.356 . S
N3143 H3148 0.984 . S
N3143 H3149 0.985 . S
C3144 C3138 1.379 . S
C3144 C3141 1.363 . S
C3144 N3142 1.356 . S
C3145 C3139 1.363 . S
C3145 C3140 1.379 . S
C3145 N3143 1.356 . S
N3146 C3138 1.356 . S
N3146 H3152 0.984 . S
N3146 H3153 0.984 . S
N3147 C3140 1.356 . S
N3147 H3150 0.984 . S
N3147 H3151 0.985 . S
H3148 N3143 0.984 . S
H3149 N3143 0.985 . S
H3150 N3147 0.984 . S
H3151 N3147 0.985 . S
H3152 N3146 0.984 . S
H3153 N3146 0.984 . S
H3154 N3142 0.984 . S
H3155 N3142 0.985 . S
C3156 C3157 1.363 . S
C3156 C3162 1.379 . S
C3156 N3164 1.356 . S
C3157 C3156 1.363 . S
C3157 C3163 1.363 . S
C3158 C3159 1.363 . S
C3158 C3163 1.379 . S
C3158 N3165 1.356 . S
C3159 C3158 1.363 . S
C3159 C3162 1.363 . S
N3160 C3162 1.356 . S
N3160 H3172 0.984 . S
N3160 H3173 0.985 . S
N3161 C3163 1.356 . S
N3161 H3166 0.984 . S
N3161 H3167 0.985 . S
C3162 C3156 1.379 . S
C3162 C3159 1.363 . S
C3162 N3160 1.356 . S
C3163 C3157 1.363 . S
C3163 C3158 1.379 . S
C3163 N3161 1.356 . S
N3164 C3156 1.356 . S
N3164 H3170 0.984 . S
N3164 H3171 0.984 . S
N3165 C3158 1.356 . S
N3165 H3168 0.984 . S
N3165 H3169 0.985 . S
H3166 N3161 0.984 . S
H3167 N3161 0.985 . S
H3168 N3165 0.984 . S
H3169 N3165 0.985 . S
H3170 N3164 0.984 . S
H3171 N3164 0.984 . S
H3172 N3160 0.984 . S
H3173 N3160 0.985 . S
C3174 C3175 1.363 . S
C3174 C3180 1.379 . S
C3174 N3182 1.356 . S
C3175 C3174 1.363 . S
C3175 C3181 1.363 . S
C3176 C3177 1.363 . S
C3176 C3181 1.379 . S
C3176 N3183 1.356 . S
C3177 C3176 1.363 . S
C3177 C3180 1.363 . S
N3178 C3180 1.356 . S
N3178 H3190 0.984 . S
N3178 H3191 0.985 . S
N3179 C3181 1.356 . S
N3179 H3184 0.984 . S
N3179 H3185 0.985 . S
C3180 C3174 1.379 . S
C3180 C3177 1.363 . S
C3180 N3178 1.356 . S
C3181 C3175 1.363 . S
C3181 C3176 1.379 . S
C3181 N3179 1.356 . S
N3182 C3174 1.356 . S
N3182 H3188 0.984 . S
N3182 H3189 0.984 . S
N3183 C3176 1.356 . S
N3183 H3186 0.984 . S
N3183 H3187 0.985 . S
H3184 N3179 0.984 . S
H3185 N3179 0.985 . S
H3186 N3183 0.984 . S
H3187 N3183 0.985 . S
H3188 N3182 0.984 . S
H3189 N3182 0.984 . S
H3190 N3178 0.984 . S
H3191 N3178 0.985 . S
C3192 C3193 1.363 . S
C3192 C3198 1.379 . S
C3192 N3200 1.356 . S
C3193 C3192 1.363 . S
C3193 C3199 1.363 . S
C3194 C3195 1.363 . S
C3194 C3199 1.379 . S
C3194 N3201 1.356 . S
C3195 C3194 1.363 . S
C3195 C3198 1.363 . S
N3196 C3198 1.356 . S
N3196 H3208 0.984 . S
N3196 H3209 0.985 . S
N3197 C3199 1.356 . S
N3197 H3202 0.984 . S
N3197 H3203 0.985 . S
C3198 C3192 1.379 . S
C3198 C3195 1.363 . S
C3198 N3196 1.356 . S
C3199 C3193 1.363 . S
C3199 C3194 1.379 . S
C3199 N3197 1.356 . S
N3200 C3192 1.356 . S
N3200 H3206 0.984 . S
N3200 H3207 0.984 . S
N3201 C3194 1.356 . S
N3201 H3204 0.984 . S
N3201 H3205 0.985 . S
H3202 N3197 0.984 . S
H3203 N3197 0.985 . S
H3204 N3201 0.984 . S
H3205 N3201 0.985 . S
H3206 N3200 0.984 . S
H3207 N3200 0.984 . S
H3208 N3196 0.984 . S
H3209 N3196 0.985 . S
C3210 C3211 1.363 . S
C3210 C3216 1.379 . S
C3210 N3218 1.356 . S
C3211 C3210 1.363 . S
C3211 C3217 1.363 . S
C3212 C3213 1.363 . S
C3212 C3217 1.379 . S
C3212 N3219 1.356 . S
C3213 C3212 1.363 . S
C3213 C3216 1.363 . S
N3214 C3216 1.356 . S
N3214 H3226 0.984 . S
N3214 H3227 0.985 . S
N3215 C3217 1.356 . S
N3215 H3220 0.984 . S
N3215 H3221 0.985 . S
C3216 C3210 1.379 . S
C3216 C3213 1.363 . S
C3216 N3214 1.356 . S
C3217 C3211 1.363 . S
C3217 C3212 1.379 . S
C3217 N3215 1.356 . S
N3218 C3210 1.356 . S
N3218 H3224 0.984 . S
N3218 H3225 0.984 . S
N3219 C3212 1.356 . S
N3219 H3222 0.984 . S
N3219 H3223 0.985 . S
H3220 N3215 0.984 . S
H3221 N3215 0.985 . S
H3222 N3219 0.984 . S
H3223 N3219 0.985 . S
H3224 N3218 0.984 . S
H3225 N3218 0.984 . S
H3226 N3214 0.984 . S
H3227 N3214 0.985 . S
C3228 C3229 1.363 . S
C3228 C3234 1.379 . S
C3228 N3236 1.356 . S
C3229 C3228 1.363 . S
C3229 C3235 1.363 . S
C3230 C3231 1.363 . S
C3230 C3235 1.379 . S
C3230 N3237 1.356 . S
C3231 C3230 1.363 . S
C3231 C3234 1.363 . S
N3232 C3234 1.356 . S
N3232 H3244 0.984 . S
N3232 H3245 0.985 . S
N3233 C3235 1.356 . S
N3233 H3238 0.984 . S
N3233 H3239 0.985 . S
C3234 C3228 1.379 . S
C3234 C3231 1.363 . S
C3234 N3232 1.356 . S
C3235 C3229 1.363 . S
C3235 C3230 1.379 . S
C3235 N3233 1.356 . S
N3236 C3228 1.356 . S
N3236 H3242 0.984 . S
N3236 H3243 0.984 . S
N3237 C3230 1.356 . S
N3237 H3240 0.984 . S
N3237 H3241 0.985 . S
H3238 N3233 0.984 . S
H3239 N3233 0.985 . S
H3240 N3237 0.984 . S
H3241 N3237 0.985 . S
H3242 N3236 0.984 . S
H3243 N3236 0.984 . S
H3244 N3232 0.984 . S
H3245 N3232 0.985 . S
C3246 C3247 1.363 . S
C3246 C3252 1.379 . S
C3246 N3254 1.356 . S
C3247 C3246 1.363 . S
C3247 C3253 1.363 . S
C3248 C3249 1.363 . S
C3248 C3253 1.379 . S
C3248 N3255 1.356 . S
C3249 C3248 1.363 . S
C3249 C3252 1.363 . S
N3250 C3252 1.356 . S
N3250 H3262 0.984 . S
N3250 H3263 0.985 . S
N3251 C3253 1.356 . S
N3251 H3256 0.984 . S
N3251 H3257 0.985 . S
C3252 C3246 1.379 . S
C3252 C3249 1.363 . S
C3252 N3250 1.356 . S
C3253 C3247 1.363 . S
C3253 C3248 1.379 . S
C3253 N3251 1.356 . S
N3254 C3246 1.356 . S
N3254 H3260 0.984 . S
N3254 H3261 0.984 . S
N3255 C3248 1.356 . S
N3255 H3258 0.984 . S
N3255 H3259 0.985 . S
H3256 N3251 0.984 . S
H3257 N3251 0.985 . S
H3258 N3255 0.984 . S
H3259 N3255 0.985 . S
H3260 N3254 0.984 . S
H3261 N3254 0.984 . S
H3262 N3250 0.984 . S
H3263 N3250 0.985 . S
C3264 C3265 1.363 . S
C3264 C3270 1.379 . S
C3264 N3272 1.356 . S
C3265 C3264 1.363 . S
C3265 C3271 1.363 . S
C3266 C3267 1.363 . S
C3266 C3271 1.379 . S
C3266 N3273 1.356 . S
C3267 C3266 1.363 . S
C3267 C3270 1.363 . S
N3268 C3270 1.356 . S
N3268 H3280 0.984 . S
N3268 H3281 0.985 . S
N3269 C3271 1.356 . S
N3269 H3274 0.984 . S
N3269 H3275 0.985 . S
C3270 C3264 1.379 . S
C3270 C3267 1.363 . S
C3270 N3268 1.356 . S
C3271 C3265 1.363 . S
C3271 C3266 1.379 . S
C3271 N3269 1.356 . S
N3272 C3264 1.356 . S
N3272 H3278 0.984 . S
N3272 H3279 0.984 . S
N3273 C3266 1.356 . S
N3273 H3276 0.984 . S
N3273 H3277 0.985 . S
H3274 N3269 0.984 . S
H3275 N3269 0.985 . S
H3276 N3273 0.984 . S
H3277 N3273 0.985 . S
H3278 N3272 0.984 . S
H3279 N3272 0.984 . S
H3280 N3268 0.984 . S
H3281 N3268 0.985 . S
C3282 C3283 1.363 . S
C3282 C3288 1.379 . S
C3282 N3290 1.356 . S
C3283 C3282 1.363 . S
C3283 C3289 1.363 . S
C3284 C3285 1.363 . S
C3284 C3289 1.379 . S
C3284 N3291 1.356 . S
C3285 C3284 1.363 . S
C3285 C3288 1.363 . S
N3286 C3288 1.356 . S
N3286 H3298 0.984 . S
N3286 H3299 0.985 . S
N3287 C3289 1.356 . S
N3287 H3292 0.984 . S
N3287 H3293 0.985 . S
C3288 C3282 1.379 . S
C3288 C3285 1.363 . S
C3288 N3286 1.356 . S
C3289 C3283 1.363 . S
C3289 C3284 1.379 . S
C3289 N3287 1.356 . S
N3290 C3282 1.356 . S
N3290 H3296 0.984 . S
N3290 H3297 0.984 . S
N3291 C3284 1.356 . S
N3291 H3294 0.984 . S
N3291 H3295 0.985 . S
H3292 N3287 0.984 . S
H3293 N3287 0.985 . S
H3294 N3291 0.984 . S
H3295 N3291 0.985 . S
H3296 N3290 0.984 . S
H3297 N3290 0.984 . S
H3298 N3286 0.984 . S
H3299 N3286 0.985 . S
C3300 C3301 1.363 . S
C3300 C3306 1.379 . S
C3300 N3308 1.356 . S
C3301 C3300 1.363 . S
C3301 C3307 1.363 . S
C3302 C3303 1.363 . S
C3302 C3307 1.379 . S
C3302 N3309 1.356 . S
C3303 C3302 1.363 . S
C3303 C3306 1.363 . S
N3304 C3306 1.356 . S
N3304 H3316 0.984 . S
N3304 H3317 0.985 . S
N3305 C3307 1.356 . S
N3305 H3310 0.984 . S
N3305 H3311 0.985 . S
C3306 C3300 1.379 . S
C3306 C3303 1.363 . S
C3306 N3304 1.356 . S
C3307 C3301 1.363 . S
C3307 C3302 1.379 . S
C3307 N3305 1.356 . S
N3308 C3300 1.356 . S
N3308 H3314 0.984 . S
N3308 H3315 0.984 . S
N3309 C3302 1.356 . S
N3309 H3312 0.984 . S
N3309 H3313 0.985 . S
H3310 N3305 0.984 . S
H3311 N3305 0.985 . S
H3312 N3309 0.984 . S
H3313 N3309 0.985 . S
H3314 N3308 0.984 . S
H3315 N3308 0.984 . S
H3316 N3304 0.984 . S
H3317 N3304 0.985 . S
C3318 C3319 1.363 . S
C3318 C3324 1.379 . S
C3318 N3326 1.356 . S
C3319 C3318 1.363 . S
C3319 C3325 1.363 . S
C3320 C3321 1.363 . S
C3320 C3325 1.379 . S
C3320 N3327 1.356 . S
C3321 C3320 1.363 . S
C3321 C3324 1.363 . S
N3322 C3324 1.356 . S
N3322 H3334 0.984 . S
N3322 H3335 0.985 . S
N3323 C3325 1.356 . S
N3323 H3328 0.984 . S
N3323 H3329 0.985 . S
C3324 C3318 1.379 . S
C3324 C3321 1.363 . S
C3324 N3322 1.356 . S
C3325 C3319 1.363 . S
C3325 C3320 1.379 . S
C3325 N3323 1.356 . S
N3326 C3318 1.356 . S
N3326 H3332 0.984 . S
N3326 H3333 0.984 . S
N3327 C3320 1.356 . S
N3327 H3330 0.984 . S
N3327 H3331 0.985 . S
H3328 N3323 0.984 . S
H3329 N3323 0.985 . S
H3330 N3327 0.984 . S
H3331 N3327 0.985 . S
H3332 N3326 0.984 . S
H3333 N3326 0.984 . S
H3334 N3322 0.984 . S
H3335 N3322 0.985 . S
C3336 C3337 1.363 . S
C3336 C3342 1.379 . S
C3336 N3344 1.356 . S
C3337 C3336 1.363 . S
C3337 C3343 1.363 . S
C3338 C3339 1.363 . S
C3338 C3343 1.379 . S
C3338 N3345 1.356 . S
C3339 C3338 1.363 . S
C3339 C3342 1.363 . S
N3340 C3342 1.356 . S
N3340 H3352 0.984 . S
N3340 H3353 0.985 . S
N3341 C3343 1.356 . S
N3341 H3346 0.984 . S
N3341 H3347 0.985 . S
C3342 C3336 1.379 . S
C3342 C3339 1.363 . S
C3342 N3340 1.356 . S
C3343 C3337 1.363 . S
C3343 C3338 1.379 . S
C3343 N3341 1.356 . S
N3344 C3336 1.356 . S
N3344 H3350 0.984 . S
N3344 H3351 0.984 . S
N3345 C3338 1.356 . S
N3345 H3348 0.984 . S
N3345 H3349 0.985 . S
H3346 N3341 0.984 . S
H3347 N3341 0.985 . S
H3348 N3345 0.984 . S
H3349 N3345 0.985 . S
H3350 N3344 0.984 . S
H3351 N3344 0.984 . S
H3352 N3340 0.984 . S
H3353 N3340 0.985 . S
C3354 C3355 1.363 . S
C3354 C3360 1.379 . S
C3354 N3362 1.356 . S
C3355 C3354 1.363 . S
C3355 C3361 1.363 . S
C3356 C3357 1.363 . S
C3356 C3361 1.379 . S
C3356 N3363 1.356 . S
C3357 C3356 1.363 . S
C3357 C3360 1.363 . S
N3358 C3360 1.356 . S
N3358 H3370 0.984 . S
N3358 H3371 0.985 . S
N3359 C3361 1.356 . S
N3359 H3364 0.984 . S
N3359 H3365 0.985 . S
C3360 C3354 1.379 . S
C3360 C3357 1.363 . S
C3360 N3358 1.356 . S
C3361 C3355 1.363 . S
C3361 C3356 1.379 . S
C3361 N3359 1.356 . S
N3362 C3354 1.356 . S
N3362 H3368 0.984 . S
N3362 H3369 0.984 . S
N3363 C3356 1.356 . S
N3363 H3366 0.984 . S
N3363 H3367 0.985 . S
H3364 N3359 0.984 . S
H3365 N3359 0.985 . S
H3366 N3363 0.984 . S
H3367 N3363 0.985 . S
H3368 N3362 0.984 . S
H3369 N3362 0.984 . S
H3370 N3358 0.984 . S
H3371 N3358 0.985 . S
C3372 C3373 1.363 . S
C3372 C3378 1.379 . S
C3372 N3380 1.356 . S
C3373 C3372 1.363 . S
C3373 C3379 1.363 . S
C3374 C3375 1.363 . S
C3374 C3379 1.379 . S
C3374 N3381 1.356 . S
C3375 C3374 1.363 . S
C3375 C3378 1.363 . S
N3376 C3378 1.356 . S
N3376 H3388 0.984 . S
N3376 H3389 0.985 . S
N3377 C3379 1.356 . S
N3377 H3382 0.984 . S
N3377 H3383 0.985 . S
C3378 C3372 1.379 . S
C3378 C3375 1.363 . S
C3378 N3376 1.356 . S
C3379 C3373 1.363 . S
C3379 C3374 1.379 . S
C3379 N3377 1.356 . S
N3380 C3372 1.356 . S
N3380 H3386 0.984 . S
N3380 H3387 0.984 . S
N3381 C3374 1.356 . S
N3381 H3384 0.984 . S
N3381 H3385 0.985 . S
H3382 N3377 0.984 . S
H3383 N3377 0.985 . S
H3384 N3381 0.984 . S
H3385 N3381 0.985 . S
H3386 N3380 0.984 . S
H3387 N3380 0.984 . S
H3388 N3376 0.984 . S
H3389 N3376 0.985 . S
C3390 C3391 1.363 . S
C3390 C3396 1.379 . S
C3390 N3398 1.356 . S
C3391 C3390 1.363 . S
C3391 C3397 1.363 . S
C3392 C3393 1.363 . S
C3392 C3397 1.379 . S
C3392 N3399 1.356 . S
C3393 C3392 1.363 . S
C3393 C3396 1.363 . S
N3394 C3396 1.356 . S
N3394 H3406 0.984 . S
N3394 H3407 0.985 . S
N3395 C3397 1.356 . S
N3395 H3400 0.984 . S
N3395 H3401 0.985 . S
C3396 C3390 1.379 . S
C3396 C3393 1.363 . S
C3396 N3394 1.356 . S
C3397 C3391 1.363 . S
C3397 C3392 1.379 . S
C3397 N3395 1.356 . S
N3398 C3390 1.356 . S
N3398 H3404 0.984 . S
N3398 H3405 0.984 . S
N3399 C3392 1.356 . S
N3399 H3402 0.984 . S
N3399 H3403 0.985 . S
H3400 N3395 0.984 . S
H3401 N3395 0.985 . S
H3402 N3399 0.984 . S
H3403 N3399 0.985 . S
H3404 N3398 0.984 . S
H3405 N3398 0.984 . S
H3406 N3394 0.984 . S
H3407 N3394 0.985 . S
C3408 C3409 1.363 . S
C3408 C3414 1.379 . S
C3408 N3416 1.356 . S
C3409 C3408 1.363 . S
C3409 C3415 1.363 . S
C3410 C3411 1.363 . S
C3410 C3415 1.379 . S
C3410 N3417 1.356 . S
C3411 C3410 1.363 . S
C3411 C3414 1.363 . S
N3412 C3414 1.356 . S
N3412 H3424 0.984 . S
N3412 H3425 0.985 . S
N3413 C3415 1.356 . S
N3413 H3418 0.984 . S
N3413 H3419 0.985 . S
C3414 C3408 1.379 . S
C3414 C3411 1.363 . S
C3414 N3412 1.356 . S
C3415 C3409 1.363 . S
C3415 C3410 1.379 . S
C3415 N3413 1.356 . S
N3416 C3408 1.356 . S
N3416 H3422 0.984 . S
N3416 H3423 0.984 . S
N3417 C3410 1.356 . S
N3417 H3420 0.984 . S
N3417 H3421 0.985 . S
H3418 N3413 0.984 . S
H3419 N3413 0.985 . S
H3420 N3417 0.984 . S
H3421 N3417 0.985 . S
H3422 N3416 0.984 . S
H3423 N3416 0.984 . S
H3424 N3412 0.984 . S
H3425 N3412 0.985 . S
C3426 C3427 1.363 . S
C3426 C3432 1.379 . S
C3426 N3434 1.356 . S
C3427 C3426 1.363 . S
C3427 C3433 1.363 . S
C3428 C3429 1.363 . S
C3428 C3433 1.379 . S
C3428 N3435 1.356 . S
C3429 C3428 1.363 . S
C3429 C3432 1.363 . S
N3430 C3432 1.356 . S
N3430 H3442 0.984 . S
N3430 H3443 0.985 . S
N3431 C3433 1.356 . S
N3431 H3436 0.984 . S
N3431 H3437 0.985 . S
C3432 C3426 1.379 . S
C3432 C3429 1.363 . S
C3432 N3430 1.356 . S
C3433 C3427 1.363 . S
C3433 C3428 1.379 . S
C3433 N3431 1.356 . S
N3434 C3426 1.356 . S
N3434 H3440 0.984 . S
N3434 H3441 0.984 . S
N3435 C3428 1.356 . S
N3435 H3438 0.984 . S
N3435 H3439 0.985 . S
H3436 N3431 0.984 . S
H3437 N3431 0.985 . S
H3438 N3435 0.984 . S
H3439 N3435 0.985 . S
H3440 N3434 0.984 . S
H3441 N3434 0.984 . S
H3442 N3430 0.984 . S
H3443 N3430 0.985 . S
C3444 C3445 1.363 . S
C3444 C3450 1.379 . S
C3444 N3452 1.356 . S
C3445 C3444 1.363 . S
C3445 C3451 1.363 . S
C3446 C3447 1.363 . S
C3446 C3451 1.379 . S
C3446 N3453 1.356 . S
C3447 C3446 1.363 . S
C3447 C3450 1.363 . S
N3448 C3450 1.356 . S
N3448 H3460 0.984 . S
N3448 H3461 0.985 . S
N3449 C3451 1.356 . S
N3449 H3454 0.984 . S
N3449 H3455 0.985 . S
C3450 C3444 1.379 . S
C3450 C3447 1.363 . S
C3450 N3448 1.356 . S
C3451 C3445 1.363 . S
C3451 C3446 1.379 . S
C3451 N3449 1.356 . S
N3452 C3444 1.356 . S
N3452 H3458 0.984 . S
N3452 H3459 0.984 . S
N3453 C3446 1.356 . S
N3453 H3456 0.984 . S
N3453 H3457 0.985 . S
H3454 N3449 0.984 . S
H3455 N3449 0.985 . S
H3456 N3453 0.984 . S
H3457 N3453 0.985 . S
H3458 N3452 0.984 . S
H3459 N3452 0.984 . S
H3460 N3448 0.984 . S
H3461 N3448 0.985 . S
C3462 C3463 1.363 . S
C3462 C3468 1.379 . S
C3462 N3470 1.356 . S
C3463 C3462 1.363 . S
C3463 C3469 1.363 . S
C3464 C3465 1.363 . S
C3464 C3469 1.379 . S
C3464 N3471 1.356 . S
C3465 C3464 1.363 . S
C3465 C3468 1.363 . S
N3466 C3468 1.356 . S
N3466 H3478 0.984 . S
N3466 H3479 0.985 . S
N3467 C3469 1.356 . S
N3467 H3472 0.984 . S
N3467 H3473 0.985 . S
C3468 C3462 1.379 . S
C3468 C3465 1.363 . S
C3468 N3466 1.356 . S
C3469 C3463 1.363 . S
C3469 C3464 1.379 . S
C3469 N3467 1.356 . S
N3470 C3462 1.356 . S
N3470 H3476 0.984 . S
N3470 H3477 0.984 . S
N3471 C3464 1.356 . S
N3471 H3474 0.984 . S
N3471 H3475 0.985 . S
H3472 N3467 0.984 . S
H3473 N3467 0.985 . S
H3474 N3471 0.984 . S
H3475 N3471 0.985 . S
H3476 N3470 0.984 . S
H3477 N3470 0.984 . S
H3478 N3466 0.984 . S
H3479 N3466 0.985 . S
C3480 C3481 1.363 . S
C3480 C3486 1.379 . S
C3480 N3488 1.356 . S
C3481 C3480 1.363 . S
C3481 C3487 1.363 . S
C3482 C3483 1.363 . S
C3482 C3487 1.379 . S
C3482 N3489 1.356 . S
C3483 C3482 1.363 . S
C3483 C3486 1.363 . S
N3484 C3486 1.356 . S
N3484 H3496 0.984 . S
N3484 H3497 0.985 . S
N3485 C3487 1.356 . S
N3485 H3490 0.984 . S
N3485 H3491 0.985 . S
C3486 C3480 1.379 . S
C3486 C3483 1.363 . S
C3486 N3484 1.356 . S
C3487 C3481 1.363 . S
C3487 C3482 1.379 . S
C3487 N3485 1.356 . S
N3488 C3480 1.356 . S
N3488 H3494 0.984 . S
N3488 H3495 0.984 . S
N3489 C3482 1.356 . S
N3489 H3492 0.984 . S
N3489 H3493 0.985 . S
H3490 N3485 0.984 . S
H3491 N3485 0.985 . S
H3492 N3489 0.984 . S
H3493 N3489 0.985 . S
H3494 N3488 0.984 . S
H3495 N3488 0.984 . S
H3496 N3484 0.984 . S
H3497 N3484 0.985 . S
C3498 C3499 1.363 . S
C3498 C3504 1.379 . S
C3498 N3506 1.356 . S
C3499 C3498 1.363 . S
C3499 C3505 1.363 . S
C3500 C3501 1.363 . S
C3500 C3505 1.379 . S
C3500 N3507 1.356 . S
C3501 C3500 1.363 . S
C3501 C3504 1.363 . S
N3502 C3504 1.356 . S
N3502 H3514 0.984 . S
N3502 H3515 0.985 . S
N3503 C3505 1.356 . S
N3503 H3508 0.984 . S
N3503 H3509 0.985 . S
C3504 C3498 1.379 . S
C3504 C3501 1.363 . S
C3504 N3502 1.356 . S
C3505 C3499 1.363 . S
C3505 C3500 1.379 . S
C3505 N3503 1.356 . S
N3506 C3498 1.356 . S
N3506 H3512 0.984 . S
N3506 H3513 0.984 . S
N3507 C3500 1.356 . S
N3507 H3510 0.984 . S
N3507 H3511 0.985 . S
H3508 N3503 0.984 . S
H3509 N3503 0.985 . S
H3510 N3507 0.984 . S
H3511 N3507 0.985 . S
H3512 N3506 0.984 . S
H3513 N3506 0.984 . S
H3514 N3502 0.984 . S
H3515 N3502 0.985 . S
C3516 C3517 1.363 . S
C3516 C3522 1.379 . S
C3516 N3524 1.356 . S
C3517 C3516 1.363 . S
C3517 C3523 1.363 . S
C3518 C3519 1.363 . S
C3518 C3523 1.379 . S
C3518 N3525 1.356 . S
C3519 C3518 1.363 . S
C3519 C3522 1.363 . S
N3520 C3522 1.356 . S
N3520 H3532 0.984 . S
N3520 H3533 0.985 . S
N3521 C3523 1.356 . S
N3521 H3526 0.984 . S
N3521 H3527 0.985 . S
C3522 C3516 1.379 . S
C3522 C3519 1.363 . S
C3522 N3520 1.356 . S
C3523 C3517 1.363 . S
C3523 C3518 1.379 . S
C3523 N3521 1.356 . S
N3524 C3516 1.356 . S
N3524 H3530 0.984 . S
N3524 H3531 0.984 . S
N3525 C3518 1.356 . S
N3525 H3528 0.984 . S
N3525 H3529 0.985 . S
H3526 N3521 0.984 . S
H3527 N3521 0.985 . S
H3528 N3525 0.984 . S
H3529 N3525 0.985 . S
H3530 N3524 0.984 . S
H3531 N3524 0.984 . S
H3532 N3520 0.984 . S
H3533 N3520 0.985 . S
C3534 C3535 1.363 . S
C3534 C3540 1.379 . S
C3534 N3542 1.356 . S
C3535 C3534 1.363 . S
C3535 C3541 1.363 . S
C3536 C3537 1.363 . S
C3536 C3541 1.379 . S
C3536 N3543 1.356 . S
C3537 C3536 1.363 . S
C3537 C3540 1.363 . S
N3538 C3540 1.356 . S
N3538 H3550 0.984 . S
N3538 H3551 0.985 . S
N3539 C3541 1.356 . S
N3539 H3544 0.984 . S
N3539 H3545 0.985 . S
C3540 C3534 1.379 . S
C3540 C3537 1.363 . S
C3540 N3538 1.356 . S
C3541 C3535 1.363 . S
C3541 C3536 1.379 . S
C3541 N3539 1.356 . S
N3542 C3534 1.356 . S
N3542 H3548 0.984 . S
N3542 H3549 0.984 . S
N3543 C3536 1.356 . S
N3543 H3546 0.984 . S
N3543 H3547 0.985 . S
H3544 N3539 0.984 . S
H3545 N3539 0.985 . S
H3546 N3543 0.984 . S
H3547 N3543 0.985 . S
H3548 N3542 0.984 . S
H3549 N3542 0.984 . S
H3550 N3538 0.984 . S
H3551 N3538 0.985 . S
C3552 C3553 1.363 . S
C3552 C3558 1.379 . S
C3552 N3560 1.356 . S
C3553 C3552 1.363 . S
C3553 C3559 1.363 . S
C3554 C3555 1.363 . S
C3554 C3559 1.379 . S
C3554 N3561 1.356 . S
C3555 C3554 1.363 . S
C3555 C3558 1.363 . S
N3556 C3558 1.356 . S
N3556 H3568 0.984 . S
N3556 H3569 0.985 . S
N3557 C3559 1.356 . S
N3557 H3562 0.984 . S
N3557 H3563 0.985 . S
C3558 C3552 1.379 . S
C3558 C3555 1.363 . S
C3558 N3556 1.356 . S
C3559 C3553 1.363 . S
C3559 C3554 1.379 . S
C3559 N3557 1.356 . S
N3560 C3552 1.356 . S
N3560 H3566 0.984 . S
N3560 H3567 0.984 . S
N3561 C3554 1.356 . S
N3561 H3564 0.984 . S
N3561 H3565 0.985 . S
H3562 N3557 0.984 . S
H3563 N3557 0.985 . S
H3564 N3561 0.984 . S
H3565 N3561 0.985 . S
H3566 N3560 0.984 . S
H3567 N3560 0.984 . S
H3568 N3556 0.984 . S
H3569 N3556 0.985 . S
C3570 C3571 1.363 . S
C3570 C3576 1.379 . S
C3570 N3578 1.356 . S
C3571 C3570 1.363 . S
C3571 C3577 1.363 . S
C3572 C3573 1.363 . S
C3572 C3577 1.379 . S
C3572 N3579 1.356 . S
C3573 C3572 1.363 . S
C3573 C3576 1.363 . S
N3574 C3576 1.356 . S
N3574 H3586 0.984 . S
N3574 H3587 0.985 . S
N3575 C3577 1.356 . S
N3575 H3580 0.984 . S
N3575 H3581 0.985 . S
C3576 C3570 1.379 . S
C3576 C3573 1.363 . S
C3576 N3574 1.356 . S
C3577 C3571 1.363 . S
C3577 C3572 1.379 . S
C3577 N3575 1.356 . S
N3578 C3570 1.356 . S
N3578 H3584 0.984 . S
N3578 H3585 0.984 . S
N3579 C3572 1.356 . S
N3579 H3582 0.984 . S
N3579 H3583 0.985 . S
H3580 N3575 0.984 . S
H3581 N3575 0.985 . S
H3582 N3579 0.984 . S
H3583 N3579 0.985 . S
H3584 N3578 0.984 . S
H3585 N3578 0.984 . S
H3586 N3574 0.984 . S
H3587 N3574 0.985 . S
C3588 C3589 1.363 . S
C3588 C3594 1.379 . S
C3588 N3596 1.356 . S
C3589 C3588 1.363 . S
C3589 C3595 1.363 . S
C3590 C3591 1.363 . S
C3590 C3595 1.379 . S
C3590 N3597 1.356 . S
C3591 C3590 1.363 . S
C3591 C3594 1.363 . S
N3592 C3594 1.356 . S
N3592 H3604 0.984 . S
N3592 H3605 0.985 . S
N3593 C3595 1.356 . S
N3593 H3598 0.984 . S
N3593 H3599 0.985 . S
C3594 C3588 1.379 . S
C3594 C3591 1.363 . S
C3594 N3592 1.356 . S
C3595 C3589 1.363 . S
C3595 C3590 1.379 . S
C3595 N3593 1.356 . S
N3596 C3588 1.356 . S
N3596 H3602 0.984 . S
N3596 H3603 0.984 . S
N3597 C3590 1.356 . S
N3597 H3600 0.984 . S
N3597 H3601 0.985 . S
H3598 N3593 0.984 . S
H3599 N3593 0.985 . S
H3600 N3597 0.984 . S
H3601 N3597 0.985 . S
H3602 N3596 0.984 . S
H3603 N3596 0.984 . S
H3604 N3592 0.984 . S
H3605 N3592 0.985 . S
C3606 C3607 1.363 . S
C3606 C3612 1.379 . S
C3606 N3614 1.356 . S
C3607 C3606 1.363 . S
C3607 C3613 1.363 . S
C3608 C3609 1.363 . S
C3608 C3613 1.379 . S
C3608 N3615 1.356 . S
C3609 C3608 1.363 . S
C3609 C3612 1.363 . S
N3610 C3612 1.356 . S
N3610 H3622 0.984 . S
N3610 H3623 0.985 . S
N3611 C3613 1.356 . S
N3611 H3616 0.984 . S
N3611 H3617 0.985 . S
C3612 C3606 1.379 . S
C3612 C3609 1.363 . S
C3612 N3610 1.356 . S
C3613 C3607 1.363 . S
C3613 C3608 1.379 . S
C3613 N3611 1.356 . S
N3614 C3606 1.356 . S
N3614 H3620 0.984 . S
N3614 H3621 0.984 . S
N3615 C3608 1.356 . S
N3615 H3618 0.984 . S
N3615 H3619 0.985 . S
H3616 N3611 0.984 . S
H3617 N3611 0.985 . S
H3618 N3615 0.984 . S
H3619 N3615 0.985 . S
H3620 N3614 0.984 . S
H3621 N3614 0.984 . S
H3622 N3610 0.984 . S
H3623 N3610 0.985 . S
C3624 C3625 1.363 . S
C3624 C3630 1.379 . S
C3624 N3632 1.356 . S
C3625 C3624 1.363 . S
C3625 C3631 1.363 . S
C3626 C3627 1.363 . S
C3626 C3631 1.379 . S
C3626 N3633 1.356 . S
C3627 C3626 1.363 . S
C3627 C3630 1.363 . S
N3628 C3630 1.356 . S
N3628 H3640 0.984 . S
N3628 H3641 0.985 . S
N3629 C3631 1.356 . S
N3629 H3634 0.984 . S
N3629 H3635 0.985 . S
C3630 C3624 1.379 . S
C3630 C3627 1.363 . S
C3630 N3628 1.356 . S
C3631 C3625 1.363 . S
C3631 C3626 1.379 . S
C3631 N3629 1.356 . S
N3632 C3624 1.356 . S
N3632 H3638 0.984 . S
N3632 H3639 0.984 . S
N3633 C3626 1.356 . S
N3633 H3636 0.984 . S
N3633 H3637 0.985 . S
H3634 N3629 0.984 . S
H3635 N3629 0.985 . S
H3636 N3633 0.984 . S
H3637 N3633 0.985 . S
H3638 N3632 0.984 . S
H3639 N3632 0.984 . S
H3640 N3628 0.984 . S
H3641 N3628 0.985 . S
C3642 C3643 1.363 . S
C3642 C3648 1.379 . S
C3642 N3650 1.356 . S
C3643 C3642 1.363 . S
C3643 C3649 1.363 . S
C3644 C3645 1.363 . S
C3644 C3649 1.379 . S
C3644 N3651 1.356 . S
C3645 C3644 1.363 . S
C3645 C3648 1.363 . S
N3646 C3648 1.356 . S
N3646 H3658 0.984 . S
N3646 H3659 0.985 . S
N3647 C3649 1.356 . S
N3647 H3652 0.984 . S
N3647 H3653 0.985 . S
C3648 C3642 1.379 . S
C3648 C3645 1.363 . S
C3648 N3646 1.356 . S
C3649 C3643 1.363 . S
C3649 C3644 1.379 . S
C3649 N3647 1.356 . S
N3650 C3642 1.356 . S
N3650 H3656 0.984 . S
N3650 H3657 0.984 . S
N3651 C3644 1.356 . S
N3651 H3654 0.984 . S
N3651 H3655 0.985 . S
H3652 N3647 0.984 . S
H3653 N3647 0.985 . S
H3654 N3651 0.984 . S
H3655 N3651 0.985 . S
H3656 N3650 0.984 . S
H3657 N3650 0.984 . S
H3658 N3646 0.984 . S
H3659 N3646 0.985 . S
C3660 C3661 1.363 . S
C3660 C3666 1.379 . S
C3660 N3668 1.356 . S
C3661 C3660 1.363 . S
C3661 C3667 1.363 . S
C3662 C3663 1.363 . S
C3662 C3667 1.379 . S
C3662 N3669 1.356 . S
C3663 C3662 1.363 . S
C3663 C3666 1.363 . S
N3664 C3666 1.356 . S
N3664 H3676 0.984 . S
N3664 H3677 0.985 . S
N3665 C3667 1.356 . S
N3665 H3670 0.984 . S
N3665 H3671 0.985 . S
C3666 C3660 1.379 . S
C3666 C3663 1.363 . S
C3666 N3664 1.356 . S
C3667 C3661 1.363 . S
C3667 C3662 1.379 . S
C3667 N3665 1.356 . S
N3668 C3660 1.356 . S
N3668 H3674 0.984 . S
N3668 H3675 0.984 . S
N3669 C3662 1.356 . S
N3669 H3672 0.984 . S
N3669 H3673 0.985 . S
H3670 N3665 0.984 . S
H3671 N3665 0.985 . S
H3672 N3669 0.984 . S
H3673 N3669 0.985 . S
H3674 N3668 0.984 . S
H3675 N3668 0.984 . S
H3676 N3664 0.984 . S
H3677 N3664 0.985 . S
C3678 C3679 1.363 . S
C3678 C3684 1.379 . S
C3678 N3686 1.356 . S
C3679 C3678 1.363 . S
C3679 C3685 1.363 . S
C3680 C3681 1.363 . S
C3680 C3685 1.379 . S
C3680 N3687 1.356 . S
C3681 C3680 1.363 . S
C3681 C3684 1.363 . S
N3682 C3684 1.356 . S
N3682 H3694 0.984 . S
N3682 H3695 0.985 . S
N3683 C3685 1.356 . S
N3683 H3688 0.984 . S
N3683 H3689 0.985 . S
C3684 C3678 1.379 . S
C3684 C3681 1.363 . S
C3684 N3682 1.356 . S
C3685 C3679 1.363 . S
C3685 C3680 1.379 . S
C3685 N3683 1.356 . S
N3686 C3678 1.356 . S
N3686 H3692 0.984 . S
N3686 H3693 0.984 . S
N3687 C3680 1.356 . S
N3687 H3690 0.984 . S
N3687 H3691 0.985 . S
H3688 N3683 0.984 . S
H3689 N3683 0.985 . S
H3690 N3687 0.984 . S
H3691 N3687 0.985 . S
H3692 N3686 0.984 . S
H3693 N3686 0.984 . S
H3694 N3682 0.984 . S
H3695 N3682 0.985 . S
C3696 C3697 1.363 . S
C3696 C3702 1.379 . S
C3696 N3704 1.356 . S
C3697 C3696 1.363 . S
C3697 C3703 1.363 . S
C3698 C3699 1.363 . S
C3698 C3703 1.379 . S
C3698 N3705 1.356 . S
C3699 C3698 1.363 . S
C3699 C3702 1.363 . S
N3700 C3702 1.356 . S
N3700 H3712 0.984 . S
N3700 H3713 0.985 . S
N3701 C3703 1.356 . S
N3701 H3706 0.984 . S
N3701 H3707 0.985 . S
C3702 C3696 1.379 . S
C3702 C3699 1.363 . S
C3702 N3700 1.356 . S
C3703 C3697 1.363 . S
C3703 C3698 1.379 . S
C3703 N3701 1.356 . S
N3704 C3696 1.356 . S
N3704 H3710 0.984 . S
N3704 H3711 0.984 . S
N3705 C3698 1.356 . S
N3705 H3708 0.984 . S
N3705 H3709 0.985 . S
H3706 N3701 0.984 . S
H3707 N3701 0.985 . S
H3708 N3705 0.984 . S
H3709 N3705 0.985 . S
H3710 N3704 0.984 . S
H3711 N3704 0.984 . S
H3712 N3700 0.984 . S
H3713 N3700 0.985 . S
C3714 C3715 1.363 . S
C3714 C3720 1.379 . S
C3714 N3722 1.356 . S
C3715 C3714 1.363 . S
C3715 C3721 1.363 . S
C3716 C3717 1.363 . S
C3716 C3721 1.379 . S
C3716 N3723 1.356 . S
C3717 C3716 1.363 . S
C3717 C3720 1.363 . S
N3718 C3720 1.356 . S
N3718 H3730 0.984 . S
N3718 H3731 0.985 . S
N3719 C3721 1.356 . S
N3719 H3724 0.984 . S
N3719 H3725 0.985 . S
C3720 C3714 1.379 . S
C3720 C3717 1.363 . S
C3720 N3718 1.356 . S
C3721 C3715 1.363 . S
C3721 C3716 1.379 . S
C3721 N3719 1.356 . S
N3722 C3714 1.356 . S
N3722 H3728 0.984 . S
N3722 H3729 0.984 . S
N3723 C3716 1.356 . S
N3723 H3726 0.984 . S
N3723 H3727 0.985 . S
H3724 N3719 0.984 . S
H3725 N3719 0.985 . S
H3726 N3723 0.984 . S
H3727 N3723 0.985 . S
H3728 N3722 0.984 . S
H3729 N3722 0.984 . S
H3730 N3718 0.984 . S
H3731 N3718 0.985 . S
C3732 C3733 1.363 . S
C3732 C3738 1.379 . S
C3732 N3740 1.356 . S
C3733 C3732 1.363 . S
C3733 C3739 1.363 . S
C3734 C3735 1.363 . S
C3734 C3739 1.379 . S
C3734 N3741 1.356 . S
C3735 C3734 1.363 . S
C3735 C3738 1.363 . S
N3736 C3738 1.356 . S
N3736 H3748 0.984 . S
N3736 H3749 0.985 . S
N3737 C3739 1.356 . S
N3737 H3742 0.984 . S
N3737 H3743 0.985 . S
C3738 C3732 1.379 . S
C3738 C3735 1.363 . S
C3738 N3736 1.356 . S
C3739 C3733 1.363 . S
C3739 C3734 1.379 . S
C3739 N3737 1.356 . S
N3740 C3732 1.356 . S
N3740 H3746 0.984 . S
N3740 H3747 0.984 . S
N3741 C3734 1.356 . S
N3741 H3744 0.984 . S
N3741 H3745 0.985 . S
H3742 N3737 0.984 . S
H3743 N3737 0.985 . S
H3744 N3741 0.984 . S
H3745 N3741 0.985 . S
H3746 N3740 0.984 . S
H3747 N3740 0.984 . S
H3748 N3736 0.984 . S
H3749 N3736 0.985 . S
C3750 C3751 1.363 . S
C3750 C3756 1.379 . S
C3750 N3758 1.356 . S
C3751 C3750 1.363 . S
C3751 C3757 1.363 . S
C3752 C3753 1.363 . S
C3752 C3757 1.379 . S
C3752 N3759 1.356 . S
C3753 C3752 1.363 . S
C3753 C3756 1.363 . S
N3754 C3756 1.356 . S
N3754 H3766 0.984 . S
N3754 H3767 0.985 . S
N3755 C3757 1.356 . S
N3755 H3760 0.984 . S
N3755 H3761 0.985 . S
C3756 C3750 1.379 . S
C3756 C3753 1.363 . S
C3756 N3754 1.356 . S
C3757 C3751 1.363 . S
C3757 C3752 1.379 . S
C3757 N3755 1.356 . S
N3758 C3750 1.356 . S
N3758 H3764 0.984 . S
N3758 H3765 0.984 . S
N3759 C3752 1.356 . S
N3759 H3762 0.984 . S
N3759 H3763 0.985 . S
H3760 N3755 0.984 . S
H3761 N3755 0.985 . S
H3762 N3759 0.984 . S
H3763 N3759 0.985 . S
H3764 N3758 0.984 . S
H3765 N3758 0.984 . S
H3766 N3754 0.984 . S
H3767 N3754 0.985 . S
C3768 C3769 1.363 . S
C3768 C3774 1.379 . S
C3768 N3776 1.356 . S
C3769 C3768 1.363 . S
C3769 C3775 1.363 . S
C3770 C3771 1.363 . S
C3770 C3775 1.379 . S
C3770 N3777 1.356 . S
C3771 C3770 1.363 . S
C3771 C3774 1.363 . S
N3772 C3774 1.356 . S
N3772 H3784 0.984 . S
N3772 H3785 0.985 . S
N3773 C3775 1.356 . S
N3773 H3778 0.984 . S
N3773 H3779 0.985 . S
C3774 C3768 1.379 . S
C3774 C3771 1.363 . S
C3774 N3772 1.356 . S
C3775 C3769 1.363 . S
C3775 C3770 1.379 . S
C3775 N3773 1.356 . S
N3776 C3768 1.356 . S
N3776 H3782 0.984 . S
N3776 H3783 0.984 . S
N3777 C3770 1.356 . S
N3777 H3780 0.984 . S
N3777 H3781 0.985 . S
H3778 N3773 0.984 . S
H3779 N3773 0.985 . S
H3780 N3777 0.984 . S
H3781 N3777 0.985 . S
H3782 N3776 0.984 . S
H3783 N3776 0.984 . S
H3784 N3772 0.984 . S
H3785 N3772 0.985 . S
C3786 C3787 1.363 . S
C3786 C3792 1.379 . S
C3786 N3794 1.356 . S
C3787 C3786 1.363 . S
C3787 C3793 1.363 . S
C3788 C3789 1.363 . S
C3788 C3793 1.379 . S
C3788 N3795 1.356 . S
C3789 C3788 1.363 . S
C3789 C3792 1.363 . S
N3790 C3792 1.356 . S
N3790 H3802 0.984 . S
N3790 H3803 0.985 . S
N3791 C3793 1.356 . S
N3791 H3796 0.984 . S
N3791 H3797 0.985 . S
C3792 C3786 1.379 . S
C3792 C3789 1.363 . S
C3792 N3790 1.356 . S
C3793 C3787 1.363 . S
C3793 C3788 1.379 . S
C3793 N3791 1.356 . S
N3794 C3786 1.356 . S
N3794 H3800 0.984 . S
N3794 H3801 0.984 . S
N3795 C3788 1.356 . S
N3795 H3798 0.984 . S
N3795 H3799 0.985 . S
H3796 N3791 0.984 . S
H3797 N3791 0.985 . S
H3798 N3795 0.984 . S
H3799 N3795 0.985 . S
H3800 N3794 0.984 . S
H3801 N3794 0.984 . S
H3802 N3790 0.984 . S
H3803 N3790 0.985 . S
C3804 C3805 1.363 . S
C3804 C3810 1.379 . S
C3804 N3812 1.356 . S
C3805 C3804 1.363 . S
C3805 C3811 1.363 . S
C3806 C3807 1.363 . S
C3806 C3811 1.379 . S
C3806 N3813 1.356 . S
C3807 C3806 1.363 . S
C3807 C3810 1.363 . S
N3808 C3810 1.356 . S
N3808 H3820 0.984 . S
N3808 H3821 0.985 . S
N3809 C3811 1.356 . S
N3809 H3814 0.984 . S
N3809 H3815 0.985 . S
C3810 C3804 1.379 . S
C3810 C3807 1.363 . S
C3810 N3808 1.356 . S
C3811 C3805 1.363 . S
C3811 C3806 1.379 . S
C3811 N3809 1.356 . S
N3812 C3804 1.356 . S
N3812 H3818 0.984 . S
N3812 H3819 0.984 . S
N3813 C3806 1.356 . S
N3813 H3816 0.984 . S
N3813 H3817 0.985 . S
H3814 N3809 0.984 . S
H3815 N3809 0.985 . S
H3816 N3813 0.984 . S
H3817 N3813 0.985 . S
H3818 N3812 0.984 . S
H3819 N3812 0.984 . S
H3820 N3808 0.984 . S
H3821 N3808 0.985 . S
C3822 C3823 1.363 . S
C3822 C3828 1.379 . S
C3822 N3830 1.356 . S
C3823 C3822 1.363 . S
C3823 C3829 1.363 . S
C3824 C3825 1.363 . S
C3824 C3829 1.379 . S
C3824 N3831 1.356 . S
C3825 C3824 1.363 . S
C3825 C3828 1.363 . S
N3826 C3828 1.356 . S
N3826 H3838 0.984 . S
N3826 H3839 0.985 . S
N3827 C3829 1.356 . S
N3827 H3832 0.984 . S
N3827 H3833 0.985 . S
C3828 C3822 1.379 . S
C3828 C3825 1.363 . S
C3828 N3826 1.356 . S
C3829 C3823 1.363 . S
C3829 C3824 1.379 . S
C3829 N3827 1.356 . S
N3830 C3822 1.356 . S
N3830 H3836 0.984 . S
N3830 H3837 0.984 . S
N3831 C3824 1.356 . S
N3831 H3834 0.984 . S
N3831 H3835 0.985 . S
H3832 N3827 0.984 . S
H3833 N3827 0.985 . S
H3834 N3831 0.984 . S
H3835 N3831 0.985 . S
H3836 N3830 0.984 . S
H3837 N3830 0.984 . S
H3838 N3826 0.984 . S
H3839 N3826 0.985 . S
C3840 C3841 1.363 . S
C3840 C3846 1.379 . S
C3840 N3848 1.356 . S
C3841 C3840 1.363 . S
C3841 C3847 1.363 . S
C3842 C3843 1.363 . S
C3842 C3847 1.379 . S
C3842 N3849 1.356 . S
C3843 C3842 1.363 . S
C3843 C3846 1.363 . S
N3844 C3846 1.356 . S
N3844 H3856 0.984 . S
N3844 H3857 0.985 . S
N3845 C3847 1.356 . S
N3845 H3850 0.984 . S
N3845 H3851 0.985 . S
C3846 C3840 1.379 . S
C3846 C3843 1.363 . S
C3846 N3844 1.356 . S
C3847 C3841 1.363 . S
C3847 C3842 1.379 . S
C3847 N3845 1.356 . S
N3848 C3840 1.356 . S
N3848 H3854 0.984 . S
N3848 H3855 0.984 . S
N3849 C3842 1.356 . S
N3849 H3852 0.984 . S
N3849 H3853 0.985 . S
H3850 N3845 0.984 . S
H3851 N3845 0.985 . S
H3852 N3849 0.984 . S
H3853 N3849 0.985 . S
H3854 N3848 0.984 . S
H3855 N3848 0.984 . S
H3856 N3844 0.984 . S
H3857 N3844 0.985 . S
C3858 C3859 1.363 . S
C3858 C3864 1.379 . S
C3858 N3866 1.356 . S
C3859 C3858 1.363 . S
C3859 C3865 1.363 . S
C3860 C3861 1.363 . S
C3860 C3865 1.379 . S
C3860 N3867 1.356 . S
C3861 C3860 1.363 . S
C3861 C3864 1.363 . S
N3862 C3864 1.356 . S
N3862 H3874 0.984 . S
N3862 H3875 0.985 . S
N3863 C3865 1.356 . S
N3863 H3868 0.984 . S
N3863 H3869 0.985 . S
C3864 C3858 1.379 . S
C3864 C3861 1.363 . S
C3864 N3862 1.356 . S
C3865 C3859 1.363 . S
C3865 C3860 1.379 . S
C3865 N3863 1.356 . S
N3866 C3858 1.356 . S
N3866 H3872 0.984 . S
N3866 H3873 0.984 . S
N3867 C3860 1.356 . S
N3867 H3870 0.984 . S
N3867 H3871 0.985 . S
H3868 N3863 0.984 . S
H3869 N3863 0.985 . S
H3870 N3867 0.984 . S
H3871 N3867 0.985 . S
H3872 N3866 0.984 . S
H3873 N3866 0.984 . S
H3874 N3862 0.984 . S
H3875 N3862 0.985 . S
C3876 C3877 1.363 . S
C3876 C3882 1.379 . S
C3876 N3884 1.356 . S
C3877 C3876 1.363 . S
C3877 C3883 1.363 . S
C3878 C3879 1.363 . S
C3878 C3883 1.379 . S
C3878 N3885 1.356 . S
C3879 C3878 1.363 . S
C3879 C3882 1.363 . S
N3880 C3882 1.356 . S
N3880 H3892 0.984 . S
N3880 H3893 0.985 . S
N3881 C3883 1.356 . S
N3881 H3886 0.984 . S
N3881 H3887 0.985 . S
C3882 C3876 1.379 . S
C3882 C3879 1.363 . S
C3882 N3880 1.356 . S
C3883 C3877 1.363 . S
C3883 C3878 1.379 . S
C3883 N3881 1.356 . S
N3884 C3876 1.356 . S
N3884 H3890 0.984 . S
N3884 H3891 0.984 . S
N3885 C3878 1.356 . S
N3885 H3888 0.984 . S
N3885 H3889 0.985 . S
H3886 N3881 0.984 . S
H3887 N3881 0.985 . S
H3888 N3885 0.984 . S
H3889 N3885 0.985 . S
H3890 N3884 0.984 . S
H3891 N3884 0.984 . S
H3892 N3880 0.984 . S
H3893 N3880 0.985 . S
C3894 C3895 1.363 . S
C3894 C3900 1.379 . S
C3894 N3902 1.356 . S
C3895 C3894 1.363 . S
C3895 C3901 1.363 . S
C3896 C3897 1.363 . S
C3896 C3901 1.379 . S
C3896 N3903 1.356 . S
C3897 C3896 1.363 . S
C3897 C3900 1.363 . S
N3898 C3900 1.356 . S
N3898 H3910 0.984 . S
N3898 H3911 0.985 . S
N3899 C3901 1.356 . S
N3899 H3904 0.984 . S
N3899 H3905 0.985 . S
C3900 C3894 1.379 . S
C3900 C3897 1.363 . S
C3900 N3898 1.356 . S
C3901 C3895 1.363 . S
C3901 C3896 1.379 . S
C3901 N3899 1.356 . S
N3902 C3894 1.356 . S
N3902 H3908 0.984 . S
N3902 H3909 0.984 . S
N3903 C3896 1.356 . S
N3903 H3906 0.984 . S
N3903 H3907 0.985 . S
H3904 N3899 0.984 . S
H3905 N3899 0.985 . S
H3906 N3903 0.984 . S
H3907 N3903 0.985 . S
H3908 N3902 0.984 . S
H3909 N3902 0.984 . S
H3910 N3898 0.984 . S
H3911 N3898 0.985 . S
C3912 C3913 1.363 . S
C3912 C3918 1.379 . S
C3912 N3920 1.356 . S
C3913 C3912 1.363 . S
C3913 C3919 1.363 . S
C3914 C3915 1.363 . S
C3914 C3919 1.379 . S
C3914 N3921 1.356 . S
C3915 C3914 1.363 . S
C3915 C3918 1.363 . S
N3916 C3918 1.356 . S
N3916 H3928 0.984 . S
N3916 H3929 0.985 . S
N3917 C3919 1.356 . S
N3917 H3922 0.984 . S
N3917 H3923 0.985 . S
C3918 C3912 1.379 . S
C3918 C3915 1.363 . S
C3918 N3916 1.356 . S
C3919 C3913 1.363 . S
C3919 C3914 1.379 . S
C3919 N3917 1.356 . S
N3920 C3912 1.356 . S
N3920 H3926 0.984 . S
N3920 H3927 0.984 . S
N3921 C3914 1.356 . S
N3921 H3924 0.984 . S
N3921 H3925 0.985 . S
H3922 N3917 0.984 . S
H3923 N3917 0.985 . S
H3924 N3921 0.984 . S
H3925 N3921 0.985 . S
H3926 N3920 0.984 . S
H3927 N3920 0.984 . S
H3928 N3916 0.984 . S
H3929 N3916 0.985 . S
C3930 C3931 1.363 . S
C3930 C3936 1.379 . S
C3930 N3938 1.356 . S
C3931 C3930 1.363 . S
C3931 C3937 1.363 . S
C3932 C3933 1.363 . S
C3932 C3937 1.379 . S
C3932 N3939 1.356 . S
C3933 C3932 1.363 . S
C3933 C3936 1.363 . S
N3934 C3936 1.356 . S
N3934 H3946 0.984 . S
N3934 H3947 0.985 . S
N3935 C3937 1.356 . S
N3935 H3940 0.984 . S
N3935 H3941 0.985 . S
C3936 C3930 1.379 . S
C3936 C3933 1.363 . S
C3936 N3934 1.356 . S
C3937 C3931 1.363 . S
C3937 C3932 1.379 . S
C3937 N3935 1.356 . S
N3938 C3930 1.356 . S
N3938 H3944 0.984 . S
N3938 H3945 0.984 . S
N3939 C3932 1.356 . S
N3939 H3942 0.984 . S
N3939 H3943 0.985 . S
H3940 N3935 0.984 . S
H3941 N3935 0.985 . S
H3942 N3939 0.984 . S
H3943 N3939 0.985 . S
H3944 N3938 0.984 . S
H3945 N3938 0.984 . S
H3946 N3934 0.984 . S
H3947 N3934 0.985 . S
C3948 C3949 1.363 . S
C3948 C3954 1.379 . S
C3948 N3956 1.356 . S
C3949 C3948 1.363 . S
C3949 C3955 1.363 . S
C3950 C3951 1.363 . S
C3950 C3955 1.379 . S
C3950 N3957 1.356 . S
C3951 C3950 1.363 . S
C3951 C3954 1.363 . S
N3952 C3954 1.356 . S
N3952 H3964 0.984 . S
N3952 H3965 0.985 . S
N3953 C3955 1.356 . S
N3953 H3958 0.984 . S
N3953 H3959 0.985 . S
C3954 C3948 1.379 . S
C3954 C3951 1.363 . S
C3954 N3952 1.356 . S
C3955 C3949 1.363 . S
C3955 C3950 1.379 . S
C3955 N3953 1.356 . S
N3956 C3948 1.356 . S
N3956 H3962 0.984 . S
N3956 H3963 0.984 . S
N3957 C3950 1.356 . S
N3957 H3960 0.984 . S
N3957 H3961 0.985 . S
H3958 N3953 0.984 . S
H3959 N3953 0.985 . S
H3960 N3957 0.984 . S
H3961 N3957 0.985 . S
H3962 N3956 0.984 . S
H3963 N3956 0.984 . S
H3964 N3952 0.984 . S
H3965 N3952 0.985 . S
C3966 C3967 1.363 . S
C3966 C3972 1.379 . S
C3966 N3974 1.356 . S
C3967 C3966 1.363 . S
C3967 C3973 1.363 . S
C3968 C3969 1.363 . S
C3968 C3973 1.379 . S
C3968 N3975 1.356 . S
C3969 C3968 1.363 . S
C3969 C3972 1.363 . S
N3970 C3972 1.356 . S
N3970 H3982 0.984 . S
N3970 H3983 0.985 . S
N3971 C3973 1.356 . S
N3971 H3976 0.984 . S
N3971 H3977 0.985 . S
C3972 C3966 1.379 . S
C3972 C3969 1.363 . S
C3972 N3970 1.356 . S
C3973 C3967 1.363 . S
C3973 C3968 1.379 . S
C3973 N3971 1.356 . S
N3974 C3966 1.356 . S
N3974 H3980 0.984 . S
N3974 H3981 0.984 . S
N3975 C3968 1.356 . S
N3975 H3978 0.984 . S
N3975 H3979 0.985 . S
H3976 N3971 0.984 . S
H3977 N3971 0.985 . S
H3978 N3975 0.984 . S
H3979 N3975 0.985 . S
H3980 N3974 0.984 . S
H3981 N3974 0.984 . S
H3982 N3970 0.984 . S
H3983 N3970 0.985 . S
C3984 C3985 1.363 . S
C3984 C3990 1.379 . S
C3984 N3992 1.356 . S
C3985 C3984 1.363 . S
C3985 C3991 1.363 . S
C3986 C3987 1.363 . S
C3986 C3991 1.379 . S
C3986 N3993 1.356 . S
C3987 C3986 1.363 . S
C3987 C3990 1.363 . S
N3988 C3990 1.356 . S
N3988 H4000 0.984 . S
N3988 H4001 0.985 . S
N3989 C3991 1.356 . S
N3989 H3994 0.984 . S
N3989 H3995 0.985 . S
C3990 C3984 1.379 . S
C3990 C3987 1.363 . S
C3990 N3988 1.356 . S
C3991 C3985 1.363 . S
C3991 C3986 1.379 . S
C3991 N3989 1.356 . S
N3992 C3984 1.356 . S
N3992 H3998 0.984 . S
N3992 H3999 0.984 . S
N3993 C3986 1.356 . S
N3993 H3996 0.984 . S
N3993 H3997 0.985 . S
H3994 N3989 0.984 . S
H3995 N3989 0.985 . S
H3996 N3993 0.984 . S
H3997 N3993 0.985 . S
H3998 N3992 0.984 . S
H3999 N3992 0.984 . S
H4000 N3988 0.984 . S
H4001 N3988 0.985 . S
C4002 C4003 1.363 . S
C4002 C4008 1.379 . S
C4002 N4010 1.356 . S
C4003 C4002 1.363 . S
C4003 C4009 1.363 . S
C4004 C4005 1.363 . S
C4004 C4009 1.379 . S
C4004 N4011 1.356 . S
C4005 C4004 1.363 . S
C4005 C4008 1.363 . S
N4006 C4008 1.356 . S
N4006 H4018 0.984 . S
N4006 H4019 0.985 . S
N4007 C4009 1.356 . S
N4007 H4012 0.984 . S
N4007 H4013 0.985 . S
C4008 C4002 1.379 . S
C4008 C4005 1.363 . S
C4008 N4006 1.356 . S
C4009 C4003 1.363 . S
C4009 C4004 1.379 . S
C4009 N4007 1.356 . S
N4010 C4002 1.356 . S
N4010 H4016 0.984 . S
N4010 H4017 0.984 . S
N4011 C4004 1.356 . S
N4011 H4014 0.984 . S
N4011 H4015 0.985 . S
H4012 N4007 0.984 . S
H4013 N4007 0.985 . S
H4014 N4011 0.984 . S
H4015 N4011 0.985 . S
H4016 N4010 0.984 . S
H4017 N4010 0.984 . S
H4018 N4006 0.984 . S
H4019 N4006 0.985 . S
C4020 C4021 1.363 . S
C4020 C4026 1.379 . S
C4020 N4028 1.356 . S
C4021 C4020 1.363 . S
C4021 C4027 1.363 . S
C4022 C4023 1.363 . S
C4022 C4027 1.379 . S
C4022 N4029 1.356 . S
C4023 C4022 1.363 . S
C4023 C4026 1.363 . S
N4024 C4026 1.356 . S
N4024 H4036 0.984 . S
N4024 H4037 0.985 . S
N4025 C4027 1.356 . S
N4025 H4030 0.984 . S
N4025 H4031 0.985 . S
C4026 C4020 1.379 . S
C4026 C4023 1.363 . S
C4026 N4024 1.356 . S
C4027 C4021 1.363 . S
C4027 C4022 1.379 . S
C4027 N4025 1.356 . S
N4028 C4020 1.356 . S
N4028 H4034 0.984 . S
N4028 H4035 0.984 . S
N4029 C4022 1.356 . S
N4029 H4032 0.984 . S
N4029 H4033 0.985 . S
H4030 N4025 0.984 . S
H4031 N4025 0.985 . S
H4032 N4029 0.984 . S
H4033 N4029 0.985 . S
H4034 N4028 0.984 . S
H4035 N4028 0.984 . S
H4036 N4024 0.984 . S
H4037 N4024 0.985 . S
C4038 C4039 1.363 . S
C4038 C4044 1.379 . S
C4038 N4046 1.356 . S
C4039 C4038 1.363 . S
C4039 C4045 1.363 . S
C4040 C4041 1.363 . S
C4040 C4045 1.379 . S
C4040 N4047 1.356 . S
C4041 C4040 1.363 . S
C4041 C4044 1.363 . S
N4042 C4044 1.356 . S
N4042 H4054 0.984 . S
N4042 H4055 0.985 . S
N4043 C4045 1.356 . S
N4043 H4048 0.984 . S
N4043 H4049 0.985 . S
C4044 C4038 1.379 . S
C4044 C4041 1.363 . S
C4044 N4042 1.356 . S
C4045 C4039 1.363 . S
C4045 C4040 1.379 . S
C4045 N4043 1.356 . S
N4046 C4038 1.356 . S
N4046 H4052 0.984 . S
N4046 H4053 0.984 . S
N4047 C4040 1.356 . S
N4047 H4050 0.984 . S
N4047 H4051 0.985 . S
H4048 N4043 0.984 . S
H4049 N4043 0.985 . S
H4050 N4047 0.984 . S
H4051 N4047 0.985 . S
H4052 N4046 0.984 . S
H4053 N4046 0.984 . S
H4054 N4042 0.984 . S
H4055 N4042 0.985 . S
C4056 C4057 1.363 . S
C4056 C4062 1.379 . S
C4056 N4064 1.356 . S
C4057 C4056 1.363 . S
C4057 C4063 1.363 . S
C4058 C4059 1.363 . S
C4058 C4063 1.379 . S
C4058 N4065 1.356 . S
C4059 C4058 1.363 . S
C4059 C4062 1.363 . S
N4060 C4062 1.356 . S
N4060 H4072 0.984 . S
N4060 H4073 0.985 . S
N4061 C4063 1.356 . S
N4061 H4066 0.984 . S
N4061 H4067 0.985 . S
C4062 C4056 1.379 . S
C4062 C4059 1.363 . S
C4062 N4060 1.356 . S
C4063 C4057 1.363 . S
C4063 C4058 1.379 . S
C4063 N4061 1.356 . S
N4064 C4056 1.356 . S
N4064 H4070 0.984 . S
N4064 H4071 0.984 . S
N4065 C4058 1.356 . S
N4065 H4068 0.984 . S
N4065 H4069 0.985 . S
H4066 N4061 0.984 . S
H4067 N4061 0.985 . S
H4068 N4065 0.984 . S
H4069 N4065 0.985 . S
H4070 N4064 0.984 . S
H4071 N4064 0.984 . S
H4072 N4060 0.984 . S
H4073 N4060 0.985 . S
C4074 C4075 1.363 . S
C4074 C4080 1.379 . S
C4074 N4082 1.356 . S
C4075 C4074 1.363 . S
C4075 C4081 1.363 . S
C4076 C4077 1.363 . S
C4076 C4081 1.379 . S
C4076 N4083 1.356 . S
C4077 C4076 1.363 . S
C4077 C4080 1.363 . S
N4078 C4080 1.356 . S
N4078 H4090 0.984 . S
N4078 H4091 0.985 . S
N4079 C4081 1.356 . S
N4079 H4084 0.984 . S
N4079 H4085 0.985 . S
C4080 C4074 1.379 . S
C4080 C4077 1.363 . S
C4080 N4078 1.356 . S
C4081 C4075 1.363 . S
C4081 C4076 1.379 . S
C4081 N4079 1.356 . S
N4082 C4074 1.356 . S
N4082 H4088 0.984 . S
N4082 H4089 0.984 . S
N4083 C4076 1.356 . S
N4083 H4086 0.984 . S
N4083 H4087 0.985 . S
H4084 N4079 0.984 . S
H4085 N4079 0.985 . S
H4086 N4083 0.984 . S
H4087 N4083 0.985 . S
H4088 N4082 0.984 . S
H4089 N4082 0.984 . S
H4090 N4078 0.984 . S
H4091 N4078 0.985 . S
C4092 C4093 1.363 . S
C4092 C4098 1.379 . S
C4092 N4100 1.356 . S
C4093 C4092 1.363 . S
C4093 C4099 1.363 . S
C4094 C4095 1.363 . S
C4094 C4099 1.379 . S
C4094 N4101 1.356 . S
C4095 C4094 1.363 . S
C4095 C4098 1.363 . S
N4096 C4098 1.356 . S
N4096 H4108 0.984 . S
N4096 H4109 0.985 . S
N4097 C4099 1.356 . S
N4097 H4102 0.984 . S
N4097 H4103 0.985 . S
C4098 C4092 1.379 . S
C4098 C4095 1.363 . S
C4098 N4096 1.356 . S
C4099 C4093 1.363 . S
C4099 C4094 1.379 . S
C4099 N4097 1.356 . S
N4100 C4092 1.356 . S
N4100 H4106 0.984 . S
N4100 H4107 0.984 . S
N4101 C4094 1.356 . S
N4101 H4104 0.984 . S
N4101 H4105 0.985 . S
H4102 N4097 0.984 . S
H4103 N4097 0.985 . S
H4104 N4101 0.984 . S
H4105 N4101 0.985 . S
H4106 N4100 0.984 . S
H4107 N4100 0.984 . S
H4108 N4096 0.984 . S
H4109 N4096 0.985 . S
C4110 C4111 1.363 . S
C4110 C4116 1.379 . S
C4110 N4118 1.356 . S
C4111 C4110 1.363 . S
C4111 C4117 1.363 . S
C4112 C4113 1.363 . S
C4112 C4117 1.379 . S
C4112 N4119 1.356 . S
C4113 C4112 1.363 . S
C4113 C4116 1.363 . S
N4114 C4116 1.356 . S
N4114 H4126 0.984 . S
N4114 H4127 0.985 . S
N4115 C4117 1.356 . S
N4115 H4120 0.984 . S
N4115 H4121 0.985 . S
C4116 C4110 1.379 . S
C4116 C4113 1.363 . S
C4116 N4114 1.356 . S
C4117 C4111 1.363 . S
C4117 C4112 1.379 . S
C4117 N4115 1.356 . S
N4118 C4110 1.356 . S
N4118 H4124 0.984 . S
N4118 H4125 0.984 . S
N4119 C4112 1.356 . S
N4119 H4122 0.984 . S
N4119 H4123 0.985 . S
H4120 N4115 0.984 . S
H4121 N4115 0.985 . S
H4122 N4119 0.984 . S
H4123 N4119 0.985 . S
H4124 N4118 0.984 . S
H4125 N4118 0.984 . S
H4126 N4114 0.984 . S
H4127 N4114 0.985 . S
C4128 C4129 1.363 . S
C4128 C4134 1.379 . S
C4128 N4136 1.356 . S
C4129 C4128 1.363 . S
C4129 C4135 1.363 . S
C4130 C4131 1.363 . S
C4130 C4135 1.379 . S
C4130 N4137 1.356 . S
C4131 C4130 1.363 . S
C4131 C4134 1.363 . S
N4132 C4134 1.356 . S
N4132 H4144 0.984 . S
N4132 H4145 0.985 . S
N4133 C4135 1.356 . S
N4133 H4138 0.984 . S
N4133 H4139 0.985 . S
C4134 C4128 1.379 . S
C4134 C4131 1.363 . S
C4134 N4132 1.356 . S
C4135 C4129 1.363 . S
C4135 C4130 1.379 . S
C4135 N4133 1.356 . S
N4136 C4128 1.356 . S
N4136 H4142 0.984 . S
N4136 H4143 0.984 . S
N4137 C4130 1.356 . S
N4137 H4140 0.984 . S
N4137 H4141 0.985 . S
H4138 N4133 0.984 . S
H4139 N4133 0.985 . S
H4140 N4137 0.984 . S
H4141 N4137 0.985 . S
H4142 N4136 0.984 . S
H4143 N4136 0.984 . S
H4144 N4132 0.984 . S
H4145 N4132 0.985 . S
C4146 C4147 1.363 . S
C4146 C4152 1.379 . S
C4146 N4154 1.356 . S
C4147 C4146 1.363 . S
C4147 C4153 1.363 . S
C4148 C4149 1.363 . S
C4148 C4153 1.379 . S
C4148 N4155 1.356 . S
C4149 C4148 1.363 . S
C4149 C4152 1.363 . S
N4150 C4152 1.356 . S
N4150 H4162 0.984 . S
N4150 H4163 0.985 . S
N4151 C4153 1.356 . S
N4151 H4156 0.984 . S
N4151 H4157 0.985 . S
C4152 C4146 1.379 . S
C4152 C4149 1.363 . S
C4152 N4150 1.356 . S
C4153 C4147 1.363 . S
C4153 C4148 1.379 . S
C4153 N4151 1.356 . S
N4154 C4146 1.356 . S
N4154 H4160 0.984 . S
N4154 H4161 0.984 . S
N4155 C4148 1.356 . S
N4155 H4158 0.984 . S
N4155 H4159 0.985 . S
H4156 N4151 0.984 . S
H4157 N4151 0.985 . S
H4158 N4155 0.984 . S
H4159 N4155 0.985 . S
H4160 N4154 0.984 . S
H4161 N4154 0.984 . S
H4162 N4150 0.984 . S
H4163 N4150 0.985 . S
C4164 C4165 1.363 . S
C4164 C4170 1.379 . S
C4164 N4172 1.356 . S
C4165 C4164 1.363 . S
C4165 C4171 1.363 . S
C4166 C4167 1.363 . S
C4166 C4171 1.379 . S
C4166 N4173 1.356 . S
C4167 C4166 1.363 . S
C4167 C4170 1.363 . S
N4168 C4170 1.356 . S
N4168 H4180 0.984 . S
N4168 H4181 0.985 . S
N4169 C4171 1.356 . S
N4169 H4174 0.984 . S
N4169 H4175 0.985 . S
C4170 C4164 1.379 . S
C4170 C4167 1.363 . S
C4170 N4168 1.356 . S
C4171 C4165 1.363 . S
C4171 C4166 1.379 . S
C4171 N4169 1.356 . S
N4172 C4164 1.356 . S
N4172 H4178 0.984 . S
N4172 H4179 0.984 . S
N4173 C4166 1.356 . S
N4173 H4176 0.984 . S
N4173 H4177 0.985 . S
H4174 N4169 0.984 . S
H4175 N4169 0.985 . S
H4176 N4173 0.984 . S
H4177 N4173 0.985 . S
H4178 N4172 0.984 . S
H4179 N4172 0.984 . S
H4180 N4168 0.984 . S
H4181 N4168 0.985 . S
C4182 C4183 1.363 . S
C4182 C4188 1.379 . S
C4182 N4190 1.356 . S
C4183 C4182 1.363 . S
C4183 C4189 1.363 . S
C4184 C4185 1.363 . S
C4184 C4189 1.379 . S
C4184 N4191 1.356 . S
C4185 C4184 1.363 . S
C4185 C4188 1.363 . S
N4186 C4188 1.356 . S
N4186 H4198 0.984 . S
N4186 H4199 0.985 . S
N4187 C4189 1.356 . S
N4187 H4192 0.984 . S
N4187 H4193 0.985 . S
C4188 C4182 1.379 . S
C4188 C4185 1.363 . S
C4188 N4186 1.356 . S
C4189 C4183 1.363 . S
C4189 C4184 1.379 . S
C4189 N4187 1.356 . S
N4190 C4182 1.356 . S
N4190 H4196 0.984 . S
N4190 H4197 0.984 . S
N4191 C4184 1.356 . S
N4191 H4194 0.984 . S
N4191 H4195 0.985 . S
H4192 N4187 0.984 . S
H4193 N4187 0.985 . S
H4194 N4191 0.984 . S
H4195 N4191 0.985 . S
H4196 N4190 0.984 . S
H4197 N4190 0.984 . S
H4198 N4186 0.984 . S
H4199 N4186 0.985 . S
C2475 N1932 1.455 . S
C2473 C1 1.464 . S
C2493 C1959 1.605 . S
C2491 C80 1.582 . S
C2509 C140 1.504 . S
C2511 C1973 1.509 . S
C2529 N1991 1.451 . S
C2527 C211 1.476 . S
C2545 C241 1.573 . S
C2547 C1996 1.588 . S
C2563 C320 1.521 . S
C2565 C1936 1.522 . S
C2581 C391 1.412 . S
C2583 N1955 1.400 . S
C2601 N1968 1.452 . S
C2599 C421 1.472 . S
C2619 N2014 1.407 . S
C2617 C31 1.411 . S
C2635 C61 1.515 . S
C2637 N2037 1.521 . S
C2653 C121 1.534 . S
C2655 N2060 1.575 . S
C2673 N2093 1.419 . S
C2671 C181 1.469 . S
C2689 C260 1.522 . S
C2691 C2120 1.543 . S
C2709 C2143 1.573 . S
C2707 C331 1.561 . S
C2725 C380 1.484 . S
C2727 C2166 1.519 . S
C2745 C2180 1.440 . S
C2743 C440 1.410 . S
C2761 C20 1.405 . S
C2763 C2097 1.453 . S
C2779 C271 1.479 . S
C2781 N2139 1.459 . S
C2799 N2162 1.440 . S
C2797 C301 1.464 . S
C2815 C361 1.471 . S
C2817 N2175 1.451 . S
C2835 N2116 1.410 . S
C2833 C451 1.441 . S
C2853 C2042 1.665 . S
C2851 C151 1.640 . S
C2869 C200 1.524 . S
C2871 C2065 1.521 . S
C2889 C2019 1.611 . S
C2887 C91 1.574 . S
C2907 C2212 1.459 . S
C2905 C500 1.438 . S
C2923 C560 1.596 . S
C2925 C2226 1.610 . S
C2941 C620 1.497 . S
C2943 N2254 1.458 . S
C2961 N2267 1.439 . S
C2959 C691 1.461 . S
C2977 C721 1.589 . S
C2979 C2272 1.601 . S
C2995 C811 1.513 . S
C2997 N2208 1.460 . S
C3013 C871 1.492 . S
C3015 N2221 1.505 . S
C3031 C901 1.430 . S
C3033 C2258 1.447 . S
C3051 N2106 1.416 . S
C3049 C511 1.425 . S
C3067 C541 1.502 . S
C3069 N2290 1.475 . S
C3087 N2152 1.458 . S
C3085 C601 1.451 . S
C3103 C661 1.538 . S
C3105 C2327 1.536 . S
C3121 C740 1.565 . S
C3123 C2028 1.590 . S
C3141 C2341 1.599 . S
C3139 C781 1.580 . S
C3157 C860 1.536 . S
C3159 C2074 1.544 . S
C3177 N2359 1.399 . S
C3175 C920 1.411 . S
C3193 C481 1.451 . S
C3195 N2323 1.424 . S
C3213 N2336 1.498 . S
C3211 C751 1.515 . S
C3229 C800 1.454 . S
C3231 N2070 1.436 . S
C3249 C2364 1.444 . S
C3247 C841 1.425 . S
C3265 C931 1.422 . S
C3267 N2024 1.396 . S
C3283 C631 1.544 . S
C3285 C2295 1.571 . S
C3301 C680 1.561 . S
C3303 C2157 1.566 . S
C3319 C571 1.568 . S
C3321 C2111 1.607 . S
C3337 C961 1.486 . S
C3339 C2249 1.520 . S
C3357 C2281 1.550 . S
C3355 C1040 1.541 . S
C3373 C1100 1.471 . S
C3375 N2198 1.441 . S
C3391 C1171 1.449 . S
C3393 N2231 1.422 . S
C3409 C1201 1.587 . S
C3411 C2235 1.599 . S
C3427 C1291 1.543 . S
C3429 N2244 1.529 . S
C3447 N2277 1.371 . S
C3445 C1351 1.400 . S
C3463 C1381 1.471 . S
C3465 C2203 1.493 . S
C3483 N2392 1.428 . S
C3481 C991 1.439 . S
C3499 C1021 1.452 . S
C3501 N2129 1.448 . S
C3519 N2415 1.391 . S
C3517 C1081 1.411 . S
C3535 C1141 1.519 . S
C3537 N2185 1.464 . S
C3553 C1220 1.534 . S
C3555 C2433 1.563 . S
C3571 C1261 1.644 . S
C3573 C2051 1.661 . S
C3591 N2451 1.394 . S
C3589 C1340 1.420 . S
C3607 C1400 1.466 . S
C3609 C2088 1.488 . S
C3627 C2189 1.500 . S
C3625 C980 1.449 . S
C3645 N2047 1.497 . S
C3643 C1231 1.539 . S
C3661 C1280 1.540 . S
C3663 C2456 1.574 . S
C3679 C1321 1.395 . S
C3681 N2083 1.363 . S
C3699 N2428 1.472 . S
C3697 C1411 1.485 . S
C3717 C2134 1.578 . S
C3715 C1111 1.542 . S
C3735 C2419 1.575 . S
C3733 C1160 1.572 . S
C3753 C2396 1.583 . S
C3751 C1051 1.537 . S
C3769 C1460 1.395 . S
C3771 N1978 1.366 . S
C3787 C1520 1.554 . S
C3789 C2005 1.570 . S
C3807 C1927 1.545 . S
C3805 C1580 1.529 . S
C3825 N1945 1.392 . S
C3823 C1651 1.421 . S
C3843 C1950 1.606 . S
C3841 C1681 1.605 . S
C3861 C1982 1.551 . S
C3859 C1760 1.563 . S
C3879 N2001 1.496 . S
C3877 C1831 1.501 . S
C3895 C1861 1.499 . S
C3897 N1922 1.491 . S
C3913 C1471 1.368 . S
C3915 N2438 1.347 . S
C3933 N2346 1.470 . S
C3931 C1501 1.482 . S
C3951 C2465 1.607 . S
C3949 C1561 1.552 . S
C3969 C2373 1.398 . S
C3967 C1621 1.400 . S
C3985 C1700 1.556 . S
C3987 C2387 1.583 . S
C4005 C2304 1.583 . S
C4003 C1771 1.574 . S
C4023 C2410 1.644 . S
C4021 C1820 1.616 . S
C4039 C1880 1.450 . S
C4041 N2313 1.441 . S
C4059 N2369 1.354 . S
C4057 C1441 1.376 . S
C4077 N2300 1.463 . S
C4075 C1711 1.479 . S
C4095 N2405 1.405 . S
C4093 C1741 1.412 . S
C4111 C1801 1.506 . S
C4113 C2318 1.516 . S
C4129 C1891 1.424 . S
C4131 N2382 1.413 . S
C4147 C1591 1.642 . S
C4149 C2350 1.665 . S
C4165 C1640 1.436 . S
C4167 N2461 1.404 . S
C4185 C2442 1.559 . S
C4183 C1531 1.525 . S
