# Generated by pormake.
# Topology ant, (3,6)-cn, num edge types: 1
# Building blocks:
#     Node 0, Type 0, BuildingBlock: BELTOD_clean_linker_0, # of connection points: 3
#     Node 1, Type 0, BuildingBlock: BELTOD_clean_linker_0, # of connection points: 3
#     Node 2, Type 0, BuildingBlock: BELTOD_clean_linker_0, # of connection points: 3
#     Node 3, Type 0, BuildingBlock: BELTOD_clean_linker_0, # of connection points: 3
#     Node 4, Type 0, BuildingBlock: BELTOD_clean_linker_0, # of connection points: 3
#     Node 5, Type 0, BuildingBlock: BELTOD_clean_linker_0, # of connection points: 3
#     Node 6, Type 0, BuildingBlock: BELTOD_clean_linker_0, # of connection points: 3
#     Node 7, Type 0, BuildingBlock: BELTOD_clean_linker_0, # of connection points: 3
#     Node 8, Type 1, BuildingBlock: MIDCAF_clean_sbu_0, # of connection points: 6
#     Node 9, Type 1, BuildingBlock: MIDCAF_clean_sbu_0, # of connection points: 6
#     Node 10, Type 1, BuildingBlock: MIDCAF_clean_sbu_0, # of connection points: 6
#     Node 11, Type 1, BuildingBlock: MIDCAF_clean_sbu_0, # of connection points: 6
#     Edge 12, Type (0, 1), BuildingBlock: XUDNAN_clean_linker_2, # of connection points: 2
#     Edge 13, Type (0, 1), BuildingBlock: XUDNAN_clean_linker_2, # of connection points: 2
#     Edge 14, Type (0, 1), BuildingBlock: XUDNAN_clean_linker_2, # of connection points: 2
#     Edge 15, Type (0, 1), BuildingBlock: XUDNAN_clean_linker_2, # of connection points: 2
#     Edge 16, Type (0, 1), BuildingBlock: XUDNAN_clean_linker_2, # of connection points: 2
#     Edge 17, Type (0, 1), BuildingBlock: XUDNAN_clean_linker_2, # of connection points: 2
#     Edge 18, Type (0, 1), BuildingBlock: XUDNAN_clean_linker_2, # of connection points: 2
#     Edge 19, Type (0, 1), BuildingBlock: XUDNAN_clean_linker_2, # of connection points: 2
#     Edge 20, Type (0, 1), BuildingBlock: XUDNAN_clean_linker_2, # of connection points: 2
#     Edge 21, Type (0, 1), BuildingBlock: XUDNAN_clean_linker_2, # of connection points: 2
#     Edge 22, Type (0, 1), BuildingBlock: XUDNAN_clean_linker_2, # of connection points: 2
#     Edge 23, Type (0, 1), BuildingBlock: XUDNAN_clean_linker_2, # of connection points: 2
#     Edge 24, Type (0, 1), BuildingBlock: XUDNAN_clean_linker_2, # of connection points: 2
#     Edge 25, Type (0, 1), BuildingBlock: XUDNAN_clean_linker_2, # of connection points: 2
#     Edge 26, Type (0, 1), BuildingBlock: XUDNAN_clean_linker_2, # of connection points: 2
#     Edge 27, Type (0, 1), BuildingBlock: XUDNAN_clean_linker_2, # of connection points: 2
#     Edge 28, Type (0, 1), BuildingBlock: XUDNAN_clean_linker_2, # of connection points: 2
#     Edge 29, Type (0, 1), BuildingBlock: XUDNAN_clean_linker_2, # of connection points: 2
#     Edge 30, Type (0, 1), BuildingBlock: XUDNAN_clean_linker_2, # of connection points: 2
#     Edge 31, Type (0, 1), BuildingBlock: XUDNAN_clean_linker_2, # of connection points: 2
#     Edge 32, Type (0, 1), BuildingBlock: XUDNAN_clean_linker_2, # of connection points: 2
#     Edge 33, Type (0, 1), BuildingBlock: XUDNAN_clean_linker_2, # of connection points: 2
#     Edge 34, Type (0, 1), BuildingBlock: XUDNAN_clean_linker_2, # of connection points: 2
#     Edge 35, Type (0, 1), BuildingBlock: XUDNAN_clean_linker_2, # of connection points: 2
# Relax obj value: 0.095
# Max RMSD: 0.155
# Mean RMSD: 0.097
data_MOF--net-ant--node1-MIDCAF_clean_sbu_0--node2-BELTOD_clean_linker_0--edge1-XUDNAN_clean_linker_2
_symmetry_space_group_name_H-M    P1
_symmetry_Int_Tables_number       1
_symmetry_cell_setting            triclinic
loop_
_symmetry_equiv_pos_as_xyz
'x, y, z'
_cell_length_a     31.952788
_cell_length_b     31.818851
_cell_length_c     85.412349
_cell_angle_alpha  90.601296
_cell_angle_beta   93.611599
_cell_angle_gamma 89.869052
loop_
_atom_site_label
_atom_site_type_symbol
_atom_site_fract_x
_atom_site_fract_y
_atom_site_fract_z
_atom_type_partial_charge
P0 P 0.28248 0.21936 0.05718 0.0
H1 H 0.28295 0.29661 0.04012 0.0
H2 H 0.26616 0.3688 0.04611 0.0
H3 H 0.23839 0.33283 0.09309 0.0
H4 H 0.25044 0.25952 0.08619 0.0
H5 H 0.26261 0.13119 0.05178 0.0
H6 H 0.25485 0.07182 0.06872 0.0
H7 H 0.29128 0.14877 0.10917 0.0
H8 H 0.29954 0.20929 0.09185 0.0
H9 H 0.29635 0.22674 0.02373 0.0
H10 H 0.19609 0.18924 0.05198 0.0
O11 O 0.33244 0.22001 0.05257 0.0
H12 H 0.2529 0.21117 5e-05 0.0
H13 H 0.15352 0.16939 0.0284 0.0
C14 C 0.26901 0.27244 0.06278 0.0
C15 C 0.27287 0.30411 0.0517 0.0
C16 C 0.2638 0.34586 0.05527 0.0
C17 C 0.25189 0.35763 0.07029 0.0
C18 C 0.24731 0.32552 0.08136 0.0
C19 C 0.25514 0.28326 0.07755 0.0
C20 C 0.27768 0.17611 0.0706 0.0
C21 C 0.2676 0.13623 0.0643 0.0
C22 C 0.26369 0.10188 0.07401 0.0
C23 C 0.27093 0.10602 0.09032 0.0
C24 C 0.28446 0.14503 0.09665 0.0
C25 C 0.28826 0.17982 0.08679 0.0
C26 C 0.24986 0.20812 0.03961 0.0
C27 C 0.26515 0.21435 0.02482 0.0
C28 C 0.24024 0.20476 0.01123 0.0
C29 C 0.19968 0.18781 0.01212 0.0
C30 C 0.18428 0.18253 0.02707 0.0
C31 C 0.20879 0.19347 0.04064 0.0
P32 P 0.05611 0.72159 0.31603 0.0
H33 H 0.0809 0.75323 0.34758 0.0
H34 H 0.14808 0.77946 0.35952 0.0
H35 H 0.20285 0.76761 0.31483 0.0
H36 H 0.13684 0.73962 0.30311 0.0
H37 H 0.98663 0.68278 0.33119 0.0
H38 H 0.92125 0.71095 0.34019 0.0
H39 H 0.9577 0.83557 0.32664 0.0
H40 H 0.02393 0.80714 0.31818 0.0
H41 H 0.02111 0.66788 0.29063 0.0
H42 H 0.07336 0.79239 0.29575 0.0
O43 O 0.05959 0.67028 0.31977 0.0
H44 H 0.01378 0.67631 0.26222 0.0
H45 H 0.06866 0.8003 0.26736 0.0
C46 C 0.10338 0.74594 0.32432 0.0
C47 C 0.10713 0.75703 0.34029 0.0
C48 C 0.14534 0.77194 0.3471 0.0
C49 C 0.17997 0.77629 0.33794 0.0
C50 C 0.1761 0.76543 0.32197 0.0
C51 C 0.13832 0.74965 0.31528 0.0
C52 C 0.01016 0.74299 0.32416 0.0
C53 C 0.98082 0.71624 0.33035 0.0
C54 C 0.94316 0.73235 0.3353 0.0
C55 C 0.934 0.77549 0.33398 0.0
C56 C 0.9639 0.80228 0.32795 0.0
C57 C 0.00171 0.7861 0.32308 0.0
C58 C 0.04944 0.7288 0.29519 0.0
C59 C 0.03143 0.69688 0.2856 0.0
C60 C 0.02732 0.70177 0.26935 0.0
C61 C 0.04137 0.73868 0.2624 0.0
C62 C 0.05726 0.77152 0.27221 0.0
C63 C 0.06065 0.7668 0.28848 0.0
P64 P 0.81372 0.73004 0.55556 0.0
H65 H 0.85668 0.80981 0.56262 0.0
H66 H 0.83163 0.87979 0.56922 0.0
H67 H 0.70524 0.83185 0.56964 0.0
H68 H 0.73044 0.76214 0.5625 0.0
H69 H 0.8734 0.67958 0.57513 0.0
H70 H 0.86413 0.61458 0.58964 0.0
H71 H 0.72987 0.62607 0.58143 0.0
H72 H 0.73927 0.69016 0.56671 0.0
H73 H 0.76504 0.77677 0.53107 0.0
H74 H 0.80151 0.64814 0.54001 0.0
O75 O 0.86431 0.73333 0.55192 0.0
H76 H 0.72462 0.75447 0.50732 0.0
H77 H 0.76079 0.62556 0.51614 0.0
C78 C 0.79552 0.78056 0.56217 0.0
C79 C 0.82363 0.81419 0.56426 0.0
C80 C 0.80923 0.85428 0.56809 0.0
C81 C 0.76635 0.86157 0.56995 0.0
C82 C 0.73836 0.82753 0.5681 0.0
C83 C 0.75284 0.78743 0.56425 0.0
C84 C 0.807 0.68968 0.5698 0.0
C85 C 0.84193 0.66872 0.57681 0.0
C86 C 0.83664 0.63163 0.58514 0.0
C87 C 0.79633 0.61502 0.58646 0.0
C88 C 0.76135 0.6379 0.58041 0.0
C89 C 0.76666 0.67486 0.57214 0.0
C90 C 0.78518 0.71398 0.53762 0.0
C91 C 0.76398 0.74366 0.52806 0.0
C92 C 0.74075 0.73082 0.51448 0.0
C93 C 0.7388 0.6881 0.51005 0.0
C94 C 0.76147 0.65861 0.51932 0.0
C95 C 0.78456 0.6715 0.53298 0.0
P96 P 0.56121 0.23524 0.81282 0.0
H97 H 0.59566 0.23962 0.84521 0.0
H98 H 0.65799 0.27412 0.85732 0.0
H99 H 0.67215 0.34268 0.8146 0.0
H100 H 0.61065 0.30765 0.8025 0.0
H101 H 0.4855 0.21408 0.79392 0.0
H102 H 0.4116 0.2195 0.79833 0.0
H103 H 0.44177 0.28123 0.8429 0.0
H104 H 0.51673 0.27711 0.83809 0.0
H105 H 0.58931 0.16905 0.79172 0.0
H106 H 0.54348 0.29647 0.78795 0.0
O107 O 0.57068 0.18727 0.81994 0.0
H108 H 0.58959 0.16401 0.76311 0.0
H109 H 0.54551 0.29198 0.7593 0.0
C110 C 0.59877 0.27024 0.82283 0.0
C111 C 0.61152 0.26291 0.83858 0.0
C112 C 0.64711 0.28288 0.84553 0.0
C113 C 0.6705 0.31068 0.83684 0.0
C114 C 0.65528 0.32085 0.82153 0.0
C115 C 0.61979 0.30079 0.81459 0.0
C116 C 0.50679 0.24615 0.8155 0.0
C117 C 0.47651 0.23 0.80445 0.0
C118 C 0.43405 0.23258 0.80708 0.0
C119 C 0.42079 0.25046 0.82101 0.0
C120 C 0.45104 0.26766 0.83196 0.0
C121 C 0.49386 0.26528 0.82925 0.0
C122 C 0.56714 0.23345 0.79198 0.0
C123 C 0.57999 0.19618 0.78479 0.0
C124 C 0.57981 0.19315 0.76846 0.0
C125 C 0.56737 0.22756 0.75913 0.0
C126 C 0.5553 0.26512 0.76632 0.0
C127 C 0.55458 0.26782 0.78264 0.0
P128 P 0.11342 0.73324 0.92438 0.0
H129 H 0.10223 0.69315 0.89338 0.0
H130 H 0.05964 0.63348 0.88374 0.0
H131 H 0.99851 0.6318 0.92743 0.0
H132 H 0.04146 0.69145 0.93703 0.0
H133 H 0.15321 0.812 0.93426 0.0
H134 H 0.12982 0.88514 0.93364 0.0
H135 H 0.01173 0.84583 0.91056 0.0
H136 H 0.03472 0.77281 0.91197 0.0
H137 H 0.15641 0.66011 0.93803 0.0
H138 H 0.097 0.77234 0.95485 0.0
O139 O 0.157 0.72959 0.91466 0.0
H140 H 0.17436 0.63905 0.96527 0.0
H141 H 0.11593 0.75214 0.98181 0.0
C142 C 0.07572 0.69593 0.91606 0.0
C143 C 0.07907 0.68048 0.90076 0.0
C144 C 0.05442 0.64656 0.89521 0.0
C145 C 0.02601 0.6276 0.90489 0.0
C146 C 0.02052 0.64539 0.91978 0.0
C147 C 0.04504 0.67944 0.92528 0.0
C148 C 0.09562 0.78699 0.92327 0.0
C149 C 0.1222 0.81926 0.92913 0.0
C150 C 0.10884 0.86113 0.92868 0.0
C151 C 0.06871 0.87166 0.92213 0.0
C152 C 0.04243 0.83904 0.91605 0.0
C153 C 0.05568 0.79711 0.9167 0.0
C154 C 0.12647 0.71835 0.94439 0.0
C155 C 0.1476 0.68036 0.94755 0.0
C156 C 0.15764 0.66825 0.96305 0.0
C157 C 0.14703 0.69432 0.97556 0.0
C158 C 0.12512 0.7319 0.97234 0.0
C159 C 0.11449 0.74357 0.9569 0.0
P160 P 0.6885 0.85329 0.18518 0.0
H161 H 0.70733 0.83739 0.15277 0.0
H162 H 0.7658 0.80248 0.14087 0.0
H163 H 0.81543 0.76431 0.18678 0.0
H164 H 0.7573 0.79987 0.1986 0.0
H165 H 0.62126 0.91211 0.17582 0.0
H166 H 0.54987 0.90249 0.16429 0.0
H167 H 0.56995 0.76834 0.16251 0.0
H168 H 0.64186 0.77827 0.17384 0.0
H169 H 0.74009 0.88517 0.21206 0.0
H170 H 0.63515 0.801 0.20414 0.0
O171 O 0.70262 0.90313 0.18273 0.0
H172 H 0.7394 0.87382 0.24031 0.0
H173 H 0.63318 0.79069 0.23226 0.0
C174 C 0.72755 0.82093 0.17654 0.0
C175 C 0.73036 0.8208 0.16024 0.0
C176 C 0.76385 0.80072 0.15345 0.0
C177 C 0.79546 0.78054 0.16286 0.0
C178 C 0.79195 0.77992 0.1792 0.0
C179 C 0.7584 0.80002 0.18597 0.0
C180 C 0.63705 0.84593 0.17552 0.0
C181 C 0.61061 0.88066 0.17273 0.0
C182 C 0.56978 0.87516 0.16612 0.0
C183 C 0.55433 0.83469 0.16247 0.0
C184 C 0.58096 0.79989 0.16526 0.0
C185 C 0.62206 0.80552 0.17165 0.0
C186 C 0.68724 0.84454 0.20599 0.0
C187 C 0.71664 0.86454 0.21641 0.0
C188 C 0.71613 0.85811 0.23258 0.0
C189 C 0.68613 0.83147 0.23863 0.0
C190 C 0.65712 0.81098 0.22806 0.0
C191 C 0.65789 0.81722 0.2119 0.0
P192 P 0.62707 0.22708 0.42113 0.0
H193 H 0.61817 0.18606 0.39039 0.0
H194 H 0.57045 0.1323 0.3796 0.0
H195 H 0.4965 0.14501 0.4201 0.0
H196 H 0.54574 0.19797 0.43111 0.0
H197 H 0.68132 0.2978 0.41512 0.0
H198 H 0.66927 0.37334 0.41299 0.0
H199 H 0.53917 0.3553 0.42208 0.0
H200 H 0.55129 0.27915 0.42396 0.0
H201 H 0.67226 0.15686 0.43589 0.0
H202 H 0.59769 0.26143 0.45067 0.0
O203 O 0.67138 0.21648 0.41247 0.0
H204 H 0.68206 0.13356 0.46313 0.0
H205 H 0.60772 0.23879 0.47781 0.0
C206 C 0.58604 0.19529 0.4117 0.0
C207 C 0.59131 0.17784 0.39684 0.0
C208 C 0.56357 0.14725 0.39059 0.0
C209 C 0.52967 0.13378 0.39903 0.0
C210 C 0.52267 0.15397 0.4134 0.0
C211 C 0.55068 0.18443 0.41969 0.0
C212 C 0.61703 0.28272 0.41941 0.0
C213 C 0.65007 0.30989 0.41652 0.0
C214 C 0.6432 0.35313 0.41533 0.0
C215 C 0.60326 0.37018 0.41731 0.0
C216 C 0.57031 0.343 0.42057 0.0
C217 C 0.57712 0.29953 0.42153 0.0
C218 C 0.63496 0.21134 0.44129 0.0
C219 C 0.65832 0.17503 0.44501 0.0
C220 C 0.6639 0.16173 0.46057 0.0
C221 C 0.64566 0.18427 0.47264 0.0
C222 C 0.62177 0.22038 0.46878 0.0
C223 C 0.61635 0.23367 0.45325 0.0
P224 P 0.18747 0.34416 0.69196 0.0
H225 H 0.23554 0.37625 0.66651 0.0
H226 H 0.30472 0.35779 0.65748 0.0
H227 H 0.31321 0.25459 0.68985 0.0
H228 H 0.24387 0.27164 0.69837 0.0
H229 H 0.10129 0.32652 0.69984 0.0
H230 H 0.03555 0.32117 0.68465 0.0
H231 H 0.09788 0.35245 0.64274 0.0
H232 H 0.16498 0.35271 0.65803 0.0
H233 H 0.21663 0.36828 0.72404 0.0
H234 H 0.15395 0.26284 0.7009 0.0
O235 O 0.19348 0.39561 0.69531 0.0
H236 H 0.21282 0.33383 0.74932 0.0
H237 H 0.14741 0.22932 0.72609 0.0
C238 C 0.23415 0.32547 0.68313 0.0
C239 C 0.25163 0.34885 0.67132 0.0
C240 C 0.29125 0.33846 0.66623 0.0
C241 C 0.31433 0.30505 0.67312 0.0
C242 C 0.29615 0.28073 0.68448 0.0
C243 C 0.25628 0.29055 0.68931 0.0
C244 C 0.13884 0.33792 0.68005 0.0
C245 C 0.1014 0.33059 0.68729 0.0
C246 C 0.06309 0.32884 0.67853 0.0
C247 C 0.06051 0.33679 0.6623 0.0
C248 C 0.09816 0.34521 0.6551 0.0
C249 C 0.13685 0.34554 0.66387 0.0
C250 C 0.18418 0.3188 0.71067 0.0
C251 C 0.20143 0.33797 0.72444 0.0
C252 C 0.19911 0.31821 0.73891 0.0
C253 C 0.17938 0.27886 0.73989 0.0
C254 C 0.16329 0.2593 0.72591 0.0
C255 C 0.1663 0.27878 0.71146 0.0
Zn256 Zn 0.20547 0.68064 0.14311 0.0
Zn257 Zn 0.13016 0.77143 0.10621 0.0
Zn258 Zn 0.17044 0.73176 0.12361 0.0
C259 C 0.16917 0.72082 0.08703 0.0
C260 C 0.18021 0.82917 0.12098 0.0
O261 O 0.13113 0.72687 0.14403 0.0
O262 O 0.17029 0.68933 0.16102 0.0
C263 C 0.19398 0.63417 0.11623 0.0
O264 O 0.17025 0.70078 0.10008 0.0
O265 O 0.15862 0.759 0.08686 0.0
O266 O 0.14218 0.82676 0.11609 0.0
O267 O 0.20122 0.79486 0.12329 0.0
O268 O 0.1996 0.62751 0.13075 0.0
O269 O 0.1857 0.67167 0.11129 0.0
O270 O 0.22947 0.76465 0.13052 0.0
O271 O 0.25998 0.71181 0.14341 0.0
C272 C 0.26209 0.74827 0.13773 0.0
O273 O 0.10388 0.73583 0.1311 0.0
O274 O 0.07355 0.74701 0.1077 0.0
C275 C 0.13812 0.71143 0.15786 0.0
C276 C 0.07034 0.73742 0.12185 0.0
Zn277 Zn 0.54175 0.70766 0.35626 0.0
Zn278 Zn 0.60235 0.81261 0.39893 0.0
Zn279 Zn 0.57118 0.76212 0.37732 0.0
C280 C 0.52792 0.84933 0.38873 0.0
C281 C 0.6593 0.80969 0.37545 0.0
O282 O 0.57143 0.69731 0.38747 0.0
O283 O 0.56026 0.65528 0.36683 0.0
C284 C 0.47578 0.76123 0.36484 0.0
O285 O 0.52595 0.81558 0.38018 0.0
O286 O 0.55895 0.85565 0.39831 0.0
O287 O 0.65542 0.82532 0.38893 0.0
O288 O 0.63007 0.78635 0.36896 0.0
O289 O 0.48241 0.72623 0.3583 0.0
O290 O 0.50629 0.78217 0.37167 0.0
O291 O 0.60724 0.76797 0.35611 0.0
O292 O 0.57311 0.72759 0.33839 0.0
C293 C 0.60172 0.75399 0.3419 0.0
O294 O 0.5876 0.72559 0.39903 0.0
O295 O 0.60459 0.77463 0.41683 0.0
C296 C 0.56877 0.66001 0.38137 0.0
C297 C 0.5985 0.73649 0.41329 0.0
Zn298 Zn 0.62875 0.27963 0.60017 0.0
Zn299 Zn 0.73101 0.19523 0.6386 0.0
Zn300 Zn 0.6809 0.23843 0.61871 0.0
C301 C 0.77598 0.26581 0.63132 0.0
C302 C 0.71337 0.14366 0.6121 0.0
O303 O 0.62056 0.25207 0.63046 0.0
O304 O 0.57871 0.28239 0.61228 0.0
C305 C 0.69966 0.33093 0.60659 0.0
O306 O 0.74178 0.27297 0.62289 0.0
O307 O 0.77945 0.23361 0.63978 0.0
O308 O 0.73354 0.14404 0.62531 0.0
O309 O 0.69217 0.1763 0.60747 0.0
O310 O 0.66397 0.3306 0.59934 0.0
O311 O 0.71252 0.2986 0.61449 0.0
O312 O 0.67155 0.20247 0.59615 0.0
O313 O 0.62673 0.24173 0.58195 0.0
C314 C 0.64965 0.2095 0.58322 0.0
O315 O 0.64839 0.22861 0.6405 0.0
O316 O 0.69454 0.19491 0.65633 0.0
C317 C 0.58468 0.26842 0.62599 0.0
C318 C 0.65888 0.21136 0.65377 0.0
Zn319 Zn 1.00086 0.19198 0.85647 0.0
Zn320 Zn 0.10819 0.28782 0.89073 0.0
Zn321 Zn 0.05182 0.24271 0.87421 0.0
C322 C 0.09555 0.21566 0.90782 0.0
C323 C 0.03403 0.33567 0.88736 0.0
O324 O 0.07881 0.22917 0.85149 0.0
O325 O 0.03815 0.18166 0.83902 0.0
C326 C 0.01613 0.15212 0.88501 0.0
O327 O 0.06723 0.20989 0.89659 0.0
O328 O 0.11985 0.24684 0.90774 0.0
O329 O 0.06985 0.33536 0.89452 0.0
O330 O 0.02176 0.3042 0.87865 0.0
O331 O 0.99357 0.14791 0.87242 0.0
O332 O 0.03987 0.18457 0.8873 0.0
O333 O 0.99304 0.27885 0.8697 0.0
O334 O 0.95697 0.23587 0.85338 0.0
C335 C 0.96007 0.27046 0.86076 0.0
O336 O 0.11027 0.24926 0.86158 0.0
O337 O 0.15144 0.29374 0.87533 0.0
C338 C 0.07001 0.20513 0.83948 0.0
C339 C 0.14496 0.26993 0.86352 0.0
H340 H 0.19908 0.39254 0.09171 0.0
H341 H 0.2904 0.4271 0.05842 0.0
H342 H 0.2782 0.50154 0.06421 0.0
H343 H 0.12858 0.48133 0.08602 0.0
H344 H 0.1202 0.48698 0.10661 0.0
H345 H 0.13186 0.43602 0.09854 0.0
H346 H 0.1951 0.42821 0.11886 0.0
H347 H 0.18332 0.47886 0.12707 0.0
H348 H 0.23475 0.46854 0.12035 0.0
H349 H 0.2577 0.5731 0.074 0.0
H350 H 0.2378 0.6348 0.08986 0.0
H351 H 0.16604 0.55377 0.11855 0.0
C352 C 0.21677 0.41546 0.08561 0.0
C353 C 0.245 0.40312 0.07425 0.0
C354 C 0.26725 0.43498 0.06669 0.0
C355 C 0.2608 0.47769 0.06997 0.0
C356 C 0.23259 0.48852 0.08109 0.0
C357 C 0.21152 0.45831 0.08901 0.0
C358 C 0.18594 0.4782 0.10149 0.0
C359 C 0.13885 0.47014 0.09795 0.0
C360 C 0.20068 0.46253 0.11791 0.0
C361 C 0.19651 0.52418 0.09949 0.0
C362 C 0.22266 0.52959 0.0874 0.0
C363 C 0.23711 0.56925 0.08347 0.0
C364 C 0.22545 0.60413 0.09244 0.0
C365 C 0.20009 0.59894 0.10525 0.0
C366 C 0.18514 0.55853 0.10868 0.0
H367 H 0.85621 0.73912 0.32968 0.0
H368 H 0.9201 0.84926 0.34975 0.0
H369 H 0.85345 0.87467 0.35949 0.0
H370 H 0.75329 0.79035 0.31937 0.0
H371 H 0.72485 0.74445 0.32481 0.0
H372 H 0.77589 0.73882 0.3172 0.0
H373 H 0.80079 0.69709 0.34208 0.0
H374 H 0.74988 0.70323 0.34965 0.0
H375 H 0.79593 0.72069 0.36116 0.0
H376 H 0.78261 0.88398 0.36966 0.0
H377 H 0.7127 0.87591 0.38 0.0
H378 H 0.69563 0.75842 0.35418 0.0
C379 C 0.85616 0.7688 0.336 0.0
C380 C 0.89342 0.79226 0.33891 0.0
C381 C 0.89189 0.83106 0.34714 0.0
C382 C 0.85417 0.84574 0.35274 0.0
C383 C 0.81823 0.8214 0.34992 0.0
C384 C 0.81886 0.78381 0.3417 0.0
C385 C 0.77685 0.76177 0.34149 0.0
C386 C 0.75653 0.75871 0.32472 0.0
C387 C 0.78115 0.71813 0.34905 0.0
C388 C 0.75306 0.792 0.35146 0.0
C389 C 0.77723 0.82659 0.35593 0.0
C390 C 0.76311 0.85742 0.36603 0.0
C391 C 0.72349 0.85246 0.37189 0.0
C392 C 0.69858 0.81685 0.3677 0.0
C393 C 0.71345 0.78656 0.35721 0.0
H394 H 0.74821 0.55373 0.57243 0.0
H395 H 0.8324 0.57852 0.61326 0.0
H396 H 0.8215 0.50565 0.62239 0.0
H397 H 0.67431 0.49361 0.5913 0.0
H398 H 0.66436 0.45814 0.5749 0.0
H399 H 0.68101 0.51109 0.5716 0.0
H400 H 0.74353 0.48257 0.55666 0.0
H401 H 0.72721 0.42945 0.56002 0.0
H402 H 0.77968 0.44591 0.56618 0.0
H403 H 0.79645 0.43025 0.62762 0.0
H404 H 0.75976 0.36175 0.62839 0.0
H405 H 0.6953 0.3882 0.5834 0.0
C406 C 0.76422 0.54398 0.58335 0.0
C407 C 0.79068 0.5718 0.59227 0.0
C408 C 0.81188 0.55756 0.60629 0.0
C409 C 0.80589 0.51632 0.61153 0.0
C410 C 0.77915 0.48975 0.60246 0.0
C411 C 0.75891 0.50319 0.58862 0.0
C412 C 0.73107 0.46949 0.58107 0.0
C413 C 0.68498 0.48395 0.57965 0.0
C414 C 0.7463 0.45607 0.56503 0.0
C415 C 0.73789 0.43508 0.59297 0.0
C416 C 0.76589 0.44692 0.60521 0.0
C417 C 0.77506 0.4205 0.61794 0.0
C418 C 0.7545 0.38143 0.61822 0.0
C419 C 0.72538 0.36931 0.60582 0.0
C420 C 0.71765 0.3964 0.59301 0.0
H421 H 0.74074 0.31017 0.82052 0.0
H422 H 0.69783 0.33709 0.86669 0.0
H423 H 0.77151 0.34585 0.87702 0.0
H424 H 0.81849 0.24597 0.8324 0.0
H425 H 0.85485 0.26108 0.81818 0.0
H426 H 0.79964 0.26766 0.81385 0.0
H427 H 0.81093 0.34688 0.80868 0.0
H428 H 0.86652 0.34047 0.81305 0.0
H429 H 0.83775 0.37922 0.82357 0.0
H430 H 0.85017 0.33965 0.88307 0.0
H431 H 0.92317 0.31255 0.88449 0.0
H432 H 0.91307 0.28856 0.83444 0.0
C433 C 0.74663 0.31991 0.83264 0.0
C434 C 0.71344 0.32365 0.84273 0.0
C435 C 0.72274 0.33436 0.85871 0.0
C436 C 0.76451 0.33972 0.86465 0.0
C437 C 0.79664 0.33446 0.85444 0.0
C438 C 0.78796 0.32493 0.83872 0.0
C439 C 0.8274 0.31417 0.83064 0.0
C440 C 0.82493 0.2696 0.82336 0.0
C441 C 0.83616 0.34717 0.81825 0.0
C442 C 0.85945 0.31668 0.8444 0.0
C443 C 0.84159 0.32978 0.85796 0.0
C444 C 0.86461 0.33026 0.87245 0.0
C445 C 0.90612 0.31506 0.87317 0.0
C446 C 0.92353 0.29885 0.85954 0.0
C447 C 0.90051 0.30148 0.84496 0.0
H448 H 0.02324 0.55856 0.92316 0.0
H449 H 0.98937 0.60239 0.87621 0.0
H450 H 0.97083 0.52966 0.86791 0.0
H451 H 0.07649 0.47475 0.9123 0.0
H452 H 0.06189 0.44018 0.92763 0.0
H453 H 0.06116 0.49593 0.93076 0.0
H454 H 0.98314 0.49213 0.93733 0.0
H455 H 0.98366 0.436 0.93418 0.0
H456 H 0.94524 0.46805 0.92351 0.0
H457 H 0.96856 0.4509 0.86366 0.0
H458 H 0.98938 0.37582 0.86345 0.0
H459 H 0.0263 0.38441 0.913 0.0
C460 C 0.00996 0.55322 0.91133 0.0
C461 C 0.00708 0.58621 0.90041 0.0
C462 C 0.9915 0.57758 0.88481 0.0
C463 C 0.9806 0.5364 0.88003 0.0
C464 C 0.98528 0.50422 0.891 0.0
C465 C 0.99948 0.51237 0.90638 0.0
C466 C 0.00872 0.47221 0.91526 0.0
C467 C 0.05477 0.4707 0.92185 0.0
C468 C 0.97837 0.46679 0.92834 0.0
C469 C 1.00013 0.44018 0.90226 0.0
C470 C 0.98518 0.45892 0.88847 0.0
C471 C 0.97932 0.43582 0.87448 0.0
C472 C 0.99098 0.39314 0.87446 0.0
C473 C 0.00911 0.37456 0.88824 0.0
C474 C 0.01186 0.3979 0.90238 0.0
H475 H 0.87817 0.78447 0.17404 0.0
H476 H 0.79756 0.73584 0.13524 0.0
H477 H 0.8599 0.7117 0.12204 0.0
H478 H 0.95648 0.82445 0.15277 0.0
H479 H 0.99971 0.80911 0.16609 0.0
H480 H 0.94881 0.81792 0.17334 0.0
H481 H 0.95144 0.74389 0.18513 0.0
H482 H 1.00112 0.73229 0.17715 0.0
H483 H 0.957 0.69857 0.17257 0.0
H484 H 0.93048 0.70029 0.11171 0.0
H485 H 0.00428 0.70288 0.10488 0.0
H486 H 0.03939 0.75808 0.15029 0.0
C487 C 0.87351 0.76772 0.16297 0.0
C488 C 0.83281 0.76214 0.15568 0.0
C489 C 0.82832 0.74093 0.141 0.0
C490 C 0.86356 0.72675 0.13347 0.0
C491 C 0.90318 0.73351 0.14083 0.0
C492 C 0.90838 0.75322 0.1553 0.0
C493 C 0.95452 0.75875 0.16022 0.0
C494 C 0.9655 0.80532 0.16328 0.0
C495 C 0.96669 0.73181 0.17464 0.0
C496 C 0.97437 0.7417 0.14579 0.0
C497 C 0.94418 0.72632 0.13492 0.0
C498 C 0.95443 0.71153 0.12025 0.0
C499 C 0.99645 0.71326 0.11646 0.0
C500 C 0.02784 0.72985 0.12724 0.0
C501 C 0.01659 0.74356 0.14217 0.0
H502 H 0.62671 0.41969 0.39354 0.0
H503 H 0.56326 0.42393 0.4369 0.0
H504 H 0.55225 0.50069 0.43374 0.0
H505 H 0.67853 0.52122 0.39772 0.0
H506 H 0.67088 0.53259 0.3771 0.0
H507 H 0.67606 0.47892 0.38348 0.0
H508 H 0.60493 0.46053 0.36872 0.0
H509 H 0.59969 0.51399 0.36224 0.0
H510 H 0.55884 0.49047 0.37283 0.0
H511 H 0.54762 0.57779 0.42528 0.0
H512 H 0.54339 0.64541 0.41099 0.0
H513 H 0.608 0.58845 0.37301 0.0
C514 C 0.61097 0.43688 0.40247 0.0
C515 C 0.59616 0.41606 0.41554 0.0
C516 C 0.57479 0.43939 0.4268 0.0
C517 C 0.5687 0.48297 0.42515 0.0
C518 C 0.58391 0.50261 0.41212 0.0
C519 C 0.60425 0.48009 0.40092 0.0
C520 C 0.61523 0.50768 0.38748 0.0
C521 C 0.66302 0.51025 0.38639 0.0
C522 C 0.59335 0.49225 0.3719 0.0
C523 C 0.59744 0.5492 0.39271 0.0
C524 C 0.58011 0.54604 0.40708 0.0
C525 C 0.56123 0.58055 0.41405 0.0
C526 C 0.55918 0.61886 0.40593 0.0
C527 C 0.5756 0.62204 0.39099 0.0
C528 C 0.59532 0.58686 0.38446 0.0
H529 H 0.98203 0.35512 0.67275 0.0
H530 H 0.04311 0.31567 0.63095 0.0
H531 H 0.97406 0.30917 0.6167 0.0
H532 H 0.90715 0.2777 0.66934 0.0
H533 H 0.86603 0.30891 0.67717 0.0
H534 H 0.91988 0.32051 0.68279 0.0
H535 H 0.90838 0.39722 0.67339 0.0
H536 H 0.85444 0.38545 0.66753 0.0
H537 H 0.88836 0.40677 0.65354 0.0
H538 H 0.89776 0.29858 0.60775 0.0
H539 H 0.82384 0.27465 0.60642 0.0
H540 H 0.81406 0.31198 0.65488 0.0
C541 C 0.98141 0.34518 0.66059 0.0
C542 C 0.01881 0.33607 0.65311 0.0
C543 C 0.01553 0.32393 0.63703 0.0
C544 C 0.9762 0.32003 0.62878 0.0
C545 C 0.94014 0.32806 0.63671 0.0
C546 C 0.94251 0.33994 0.65234 0.0
C547 C 0.89961 0.34029 0.65895 0.0
C548 C 0.8981 0.31004 0.67287 0.0
C549 C 0.88697 0.38511 0.66363 0.0
C550 C 0.87288 0.32478 0.64481 0.0
C551 C 0.89647 0.31956 0.63189 0.0
C552 C 0.87893 0.30315 0.61773 0.0
C553 C 0.83689 0.28994 0.61702 0.0
C554 C 0.8134 0.29229 0.63047 0.0
C555 C 0.83124 0.31099 0.64435 0.0
H556 H 0.34395 0.29002 0.64415 0.0
H557 H 0.3835 0.30271 0.69343 0.0
H558 H 0.45749 0.29249 0.68712 0.0
H559 H 0.41939 0.20782 0.63557 0.0
H560 H 0.42725 0.2274 0.61625 0.0
H561 H 0.37764 0.2353 0.62478 0.0
H562 H 0.38373 0.31561 0.62069 0.0
H563 H 0.43332 0.30796 0.61217 0.0
H564 H 0.42964 0.34304 0.62874 0.0
H565 H 0.52798 0.28771 0.67485 0.0
H566 H 0.58779 0.28277 0.65779 0.0
H567 H 0.50146 0.26468 0.61723 0.0
C568 C 0.36827 0.29048 0.65358 0.0
C569 C 0.35826 0.29724 0.66925 0.0
C570 C 0.39071 0.29736 0.68135 0.0
C571 C 0.43274 0.2917 0.67787 0.0
C572 C 0.44167 0.28525 0.66226 0.0
C573 C 0.41026 0.284 0.65034 0.0
C574 C 0.42808 0.27609 0.63458 0.0
C575 C 0.41214 0.23415 0.62738 0.0
C576 C 0.4181 0.31287 0.62339 0.0
C577 C 0.47444 0.27395 0.63943 0.0
C578 C 0.48179 0.27951 0.65542 0.0
C579 C 0.52247 0.28183 0.66239 0.0
C580 C 0.55636 0.27806 0.65272 0.0
C581 C 0.54942 0.27076 0.63642 0.0
C582 C 0.50782 0.26905 0.62975 0.0
H583 H 0.49693 0.7793 0.17269 0.0
H584 H 0.51177 0.87723 0.13859 0.0
H585 H 0.43773 0.8678 0.1287 0.0
H586 H 0.43027 0.71182 0.14841 0.0
H587 H 0.39872 0.69668 0.16418 0.0
H588 H 0.45267 0.71143 0.16832 0.0
H589 H 0.42967 0.7681 0.18808 0.0
H590 H 0.37562 0.75364 0.18393 0.0
H591 H 0.39179 0.80734 0.18164 0.0
H592 H 0.36182 0.84462 0.12185 0.0
H593 H 0.29144 0.81154 0.11941 0.0
H594 H 0.32656 0.73266 0.15923 0.0
C595 C 0.48469 0.79853 0.16306 0.0
C596 C 0.51013 0.82877 0.15632 0.0
C597 C 0.49274 0.85391 0.14393 0.0
C598 C 0.45078 0.84872 0.13823 0.0
C599 C 0.42648 0.8186 0.14517 0.0
C600 C 0.44285 0.79415 0.15739 0.0
C601 C 0.4103 0.7644 0.16302 0.0
C602 C 0.4238 0.71837 0.16085 0.0
C603 C 0.40132 0.77396 0.18018 0.0
C604 C 0.37314 0.77549 0.15197 0.0
C605 C 0.38291 0.8067 0.1417 0.0
C606 C 0.35371 0.82064 0.13002 0.0
C607 C 0.31367 0.802 0.1288 0.0
C608 C 0.30301 0.77038 0.13938 0.0
C609 C 0.33338 0.7572 0.15108 0.0
H610 H 0.37185 0.31157 0.83401 0.0
H611 H 0.36855 0.18328 0.81616 0.0
H612 H 0.29451 0.17757 0.82221 0.0
H613 H 0.31151 0.29356 0.86624 0.0
H614 H 0.28404 0.34309 0.86515 0.0
H615 H 0.33554 0.33865 0.85791 0.0
H616 H 0.30652 0.36617 0.83102 0.0
H617 H 0.25439 0.36977 0.83787 0.0
H618 H 0.2637 0.33921 0.82054 0.0
H619 H 0.22423 0.1824 0.83288 0.0
H620 H 0.16223 0.19776 0.84771 0.0
H621 H 0.2083 0.32396 0.85749 0.0
C622 C 0.3554 0.28243 0.83127 0.0
C623 C 0.37588 0.24806 0.82444 0.0
C624 C 0.35331 0.21037 0.82108 0.0
C625 C 0.31123 0.20675 0.8245 0.0
C626 C 0.29197 0.24115 0.83121 0.0
C627 C 0.31318 0.27832 0.83454 0.0
C628 C 0.28572 0.30958 0.84263 0.0
C629 C 0.30537 0.32192 0.85895 0.0
C630 C 0.27706 0.34848 0.8324 0.0
C631 C 0.2464 0.28357 0.84383 0.0
C632 C 0.25056 0.24434 0.83701 0.0
C633 C 0.22001 0.21343 0.83785 0.0
C634 C 0.18456 0.22261 0.84611 0.0
C635 C 0.17946 0.26263 0.85311 0.0
C636 C 0.21076 0.29351 0.85183 0.0
H637 H 0.23129 0.72812 0.35663 0.0
H638 H 0.22251 0.84922 0.33409 0.0
H639 H 0.29668 0.86388 0.3427 0.0
H640 H 0.30911 0.75769 0.38993 0.0
H641 H 0.33582 0.70796 0.38852 0.0
H642 H 0.28017 0.71125 0.38368 0.0
H643 H 0.29094 0.67844 0.35631 0.0
H644 H 0.34642 0.67524 0.36102 0.0
H645 H 0.32687 0.7029 0.34375 0.0
H646 H 0.37384 0.8608 0.35051 0.0
H647 H 0.44773 0.8384 0.35531 0.0
H648 H 0.40656 0.71827 0.3718 0.0
C649 C 0.24471 0.75835 0.3541 0.0
C650 C 0.22139 0.78813 0.34512 0.0
C651 C 0.24002 0.8266 0.34129 0.0
C652 C 0.28195 0.83512 0.34615 0.0
C653 C 0.30467 0.80462 0.35472 0.0
C654 C 0.28664 0.76695 0.35864 0.0
C655 C 0.31902 0.73697 0.36587 0.0
C656 C 0.31052 0.72795 0.38302 0.0
C657 C 0.32092 0.696 0.35615 0.0
C658 C 0.35833 0.7629 0.36483 0.0
C659 C 0.34938 0.80226 0.35876 0.0
C660 C 0.3811 0.8305 0.35565 0.0
C661 C 0.42298 0.81782 0.35856 0.0
C662 C 0.43255 0.77728 0.36432 0.0
C663 C 0.39983 0.7498 0.36767 0.0
H664 H 0.80394 0.91984 0.5901 0.0
H665 H 0.69408 0.90072 0.55833 0.0
H666 H 0.66918 0.97221 0.56465 0.0
H667 H 0.75363 0.97708 0.61934 0.0
H668 H 0.79725 0.01198 0.62372 0.0
H669 H 0.80633 0.95978 0.61636 0.0
H670 H 0.84571 0.99082 0.5935 0.0
H671 H 0.83664 0.04317 0.60078 0.0
H672 H 0.81991 0.02924 0.58086 0.0
H673 H 0.65556 0.04618 0.57529 0.0
H674 H 0.65416 0.11406 0.58977 0.0
H675 H 0.77468 0.0844 0.61328 0.0
C676 C 0.7749 0.93076 0.58429 0.0
C677 C 0.75104 0.90456 0.5737 0.0
C678 C 0.71272 0.91996 0.56663 0.0
C679 C 0.69847 0.96067 0.57005 0.0
C680 C 0.72295 0.98569 0.58051 0.0
C681 C 0.76036 0.9712 0.58751 0.0
C682 C 0.78052 0.00364 0.5986 0.0
C683 C 0.78465 0.98713 0.6155 0.0
C684 C 0.82322 0.01754 0.5931 0.0
C685 C 0.74848 0.03858 0.59689 0.0
C686 C 0.71551 0.02792 0.58637 0.0
C687 C 0.68153 0.05501 0.5834 0.0
C688 C 0.68116 0.09369 0.59154 0.0
C689 C 0.71466 0.10492 0.6024 0.0
C690 C 0.74872 0.07693 0.60495 0.0
H691 H 0.20088 0.05865 0.08882 0.0
H692 H 0.32271 0.06997 0.1137 0.0
H693 H 0.31114 0.00186 0.12684 0.0
H694 H 0.14598 0.00622 0.11976 0.0
H695 H 0.11655 0.97375 0.1056 0.0
H696 H 0.13282 0.02559 0.1003 0.0
H697 H 0.16966 0.99387 0.07666 0.0
H698 H 0.1538 0.94204 0.08193 0.0
H699 H 0.2085 0.95323 0.08003 0.0
H700 H 0.28709 0.927 0.13507 0.0
H701 H 0.25337 0.85702 0.13743 0.0
H702 H 0.15043 0.89772 0.1057 0.0
C703 C 0.22483 0.04724 0.09728 0.0
C704 C 0.26264 0.06939 0.10027 0.0
C705 C 0.2933 0.05353 0.11139 0.0
C706 C 0.28701 0.01484 0.11883 0.0
C707 C 0.24976 0.9929 0.11511 0.0
C708 C 0.21912 0.00906 0.10467 0.0
C709 C 0.1833 0.97882 0.1015 0.0
C710 C 0.14224 0.9972 0.10713 0.0
C711 C 0.17858 0.96625 0.084 0.0
C712 C 0.19864 0.94252 0.11151 0.0
C713 C 0.23678 0.95085 0.11945 0.0
C714 C 0.25721 0.9204 0.12888 0.0
C715 C 0.23826 0.88053 0.12998 0.0
C716 C 0.19985 0.87144 0.12148 0.0
C717 C 0.17975 0.9034 0.11244 0.0
H718 H 0.5031 0.07087 0.41752 0.0
H719 H 0.50479 0.10806 0.36889 0.0
H720 H 0.48276 0.0367 0.36052 0.0
H721 H 0.54974 0.98144 0.41458 0.0
H722 H 0.52019 0.95156 0.4279 0.0
H723 H 0.52301 0.00747 0.42995 0.0
H724 H 0.44188 0.01214 0.42767 0.0
H725 H 0.43884 0.95573 0.42558 0.0
H726 H 0.41301 0.9889 0.41096 0.0
H727 H 0.48229 0.95911 0.35765 0.0
H728 H 0.50341 0.88505 0.36086 0.0
H729 H 0.49474 0.89697 0.41097 0.0
C730 C 0.49656 0.06482 0.40512 0.0
C731 C 0.50586 0.09521 0.3939 0.0
C732 C 0.49835 0.08529 0.37775 0.0
C733 C 0.48533 0.04485 0.37287 0.0
C734 C 0.47889 0.01482 0.38426 0.0
C735 C 0.48335 0.02469 0.40009 0.0
C736 C 0.4814 0.98564 0.41001 0.0
C737 C 0.52093 0.98129 0.42124 0.0
C738 C 0.44139 0.98561 0.41908 0.0
C739 C 0.47942 0.95195 0.39732 0.0
C740 C 0.47658 0.96934 0.3825 0.0
C741 C 0.48239 0.94491 0.36911 0.0
C742 C 0.49375 0.90249 0.37098 0.0
C743 C 0.49885 0.88492 0.3861 0.0
C744 C 0.48916 0.90938 0.39926 0.0
H745 H 0.11563 0.9423 0.91673 0.0
H746 H 0.98938 0.9026 0.92557 0.0
H747 H 0.96411 0.97489 0.92121 0.0
H748 H 0.10583 0.05139 0.9353 0.0
H749 H 0.13751 0.0742 0.92089 0.0
H750 H 0.14717 0.02097 0.92723 0.0
H751 H 0.13877 0.99513 0.89828 0.0
H752 H 0.12907 0.04811 0.89197 0.0
H753 H 0.09135 0.00754 0.88666 0.0
H754 H 0.95026 0.04666 0.91118 0.0
H755 H 0.94966 0.11397 0.89699 0.0
H756 H 0.0851 0.11042 0.89699 0.0
C757 C 0.08294 0.94898 0.91832 0.0
C758 C 0.0545 0.91637 0.92135 0.0
C759 C 0.01174 0.9266 0.92291 0.0
C760 C 0.99713 0.96779 0.92069 0.0
C761 C 0.02575 0.99884 0.91729 0.0
C762 C 0.06794 0.99017 0.91639 0.0
C763 C 0.09143 0.02854 0.91123 0.0
C764 C 0.12231 0.04471 0.92445 0.0
C765 C 0.11394 0.01926 0.89614 0.0
C766 C 0.05538 0.05909 0.90831 0.0
C767 C 0.01786 0.04153 0.91216 0.0
C768 C 0.97952 0.06135 0.90861 0.0
C769 C 0.97942 0.09947 0.90055 0.0
C770 C 0.01737 0.11755 0.89631 0.0
C771 C 0.05587 0.09783 0.90067 0.0
H772 H 0.22636 0.16095 0.98356 0.0
H773 H 0.11327 0.19112 0.0071 0.0
H774 H 0.07136 0.17985 0.98235 0.0
H775 H 0.20246 0.22321 0.9528 0.0
H776 H 0.22542 0.1905 0.93824 0.0
H777 H 0.2445 0.18742 0.95837 0.0
H778 H 0.23 0.10725 0.95772 0.0
H779 H 0.20973 0.11033 0.93757 0.0
H780 H 0.17804 0.08823 0.95214 0.0
H781 H 0.04267 0.17788 0.9545 0.0
H782 H 0.03258 0.19794 0.92661 0.0
H783 H 0.16469 0.17791 0.92095 0.0
C784 C 0.19274 0.16476 0.98367 0.0
C785 C 0.17349 0.1768 0.9975 0.0
C786 C 0.12916 0.18087 0.99691 0.0
C787 C 0.10487 0.17447 0.98282 0.0
C788 C 0.12513 0.16417 0.96931 0.0
C789 C 0.16823 0.15972 0.96963 0.0
C790 C 0.18344 0.15694 0.95322 0.0
C791 C 0.2158 0.19159 0.95051 0.0
C792 C 0.20136 0.11307 0.94998 0.0
C793 C 0.14261 0.16391 0.94363 0.0
C794 C 0.10896 0.16567 0.95306 0.0
C795 C 0.06862 0.17577 0.94698 0.0
C796 C 0.06306 0.18691 0.93112 0.0
C797 C 0.09791 0.1891 0.92179 0.0
C798 C 0.13759 0.17557 0.92789 0.0
H799 H 0.05967 0.6756 0.2419 0.0
H800 H 0.02813 0.80832 0.24366 0.0
H801 H 0.04184 0.81429 0.21564 0.0
H802 H 0.14207 0.68233 0.21924 0.0
H803 H 0.13148 0.6351 0.20785 0.0
H804 H 0.11329 0.6398 0.22727 0.0
H805 H 0.03696 0.62517 0.21643 0.0
H806 H 0.05508 0.61979 0.19694 0.0
H807 H 0.01408 0.65685 0.20073 0.0
H808 H 0.06935 0.80769 0.18866 0.0
H809 H 0.10491 0.78793 0.16468 0.0
H810 H 0.11414 0.65915 0.18046 0.0
C811 C 0.05399 0.70565 0.23633 0.0
C812 C 0.0429 0.74148 0.24507 0.0
C813 C 0.0372 0.78047 0.23731 0.0
C814 C 0.04453 0.78411 0.22135 0.0
C815 C 0.05676 0.74835 0.21326 0.0
C816 C 0.06065 0.7097 0.22043 0.0
C817 C 0.07703 0.67665 0.20953 0.0
C818 C 0.11841 0.65738 0.21639 0.0
C819 C 0.04379 0.6426 0.20568 0.0
C820 C 0.08383 0.70315 0.19536 0.0
C821 C 0.07157 0.74436 0.19763 0.0
C822 C 0.07812 0.77533 0.18661 0.0
C823 C 0.09807 0.76384 0.17302 0.0
C824 C 0.11095 0.72184 0.17061 0.0
C825 C 0.10341 0.69121 0.18186 0.0
H826 H 0.66012 0.71408 0.50065 0.0
H827 H 0.76143 0.63403 0.48674 0.0
H828 H 0.7237 0.62204 0.46092 0.0
H829 H 0.57149 0.65873 0.47621 0.0
H830 H 0.54677 0.7086 0.47187 0.0
H831 H 0.57547 0.70089 0.49049 0.0
H832 H 0.62151 0.76587 0.48551 0.0
H833 H 0.59284 0.77384 0.46709 0.0
H834 H 0.64906 0.76798 0.46775 0.0
H835 H 0.68353 0.63208 0.43503 0.0
H836 H 0.64834 0.66679 0.41195 0.0
H837 H 0.57346 0.74018 0.44266 0.0
C838 C 0.67375 0.69305 0.49231 0.0
C839 C 0.71361 0.67503 0.49565 0.0
C840 C 0.73063 0.64776 0.48448 0.0
C841 C 0.70932 0.64067 0.46979 0.0
C842 C 0.67074 0.66049 0.46659 0.0
C843 C 0.65295 0.68582 0.47766 0.0
C844 C 0.61496 0.70898 0.47071 0.0
C845 C 0.57479 0.69334 0.47774 0.0
C846 C 0.61995 0.75696 0.47288 0.0
C847 C 0.61617 0.69563 0.45371 0.0
C848 C 0.64751 0.66638 0.45158 0.0
C849 C 0.65811 0.65395 0.43659 0.0
C850 C 0.63785 0.6736 0.42353 0.0
C851 C 0.60789 0.70552 0.42566 0.0
C852 C 0.59556 0.715 0.44083 0.0
H853 H 0.61184 0.27582 0.74014 0.0
H854 H 0.52573 0.17088 0.7397 0.0
H855 H 0.53164 0.16194 0.71105 0.0
H856 H 0.5811 0.31594 0.69991 0.0
H857 H 0.63469 0.32816 0.69634 0.0
H858 H 0.61723 0.33143 0.71599 0.0
H859 H 0.67662 0.28033 0.72556 0.0
H860 H 0.69416 0.27693 0.70602 0.0
H861 H 0.68077 0.22974 0.71606 0.0
H862 H 0.55215 0.16061 0.68297 0.0
H863 H 0.59095 0.16254 0.65867 0.0
H864 H 0.66732 0.26456 0.67838 0.0
C865 C 0.59335 0.25181 0.73387 0.0
C866 C 0.5679 0.22439 0.74191 0.0
C867 C 0.54514 0.19232 0.73357 0.0
C868 C 0.54809 0.18725 0.71734 0.0
C869 C 0.57415 0.21437 0.70972 0.0
C870 C 0.59657 0.24589 0.71776 0.0
C871 C 0.62655 0.26722 0.7074 0.0
C872 C 0.61413 0.31343 0.70476 0.0
C873 C 0.67221 0.26328 0.71416 0.0
C874 C 0.61896 0.24157 0.69251 0.0
C875 C 0.58762 0.21217 0.69386 0.0
C876 C 0.57639 0.18382 0.68173 0.0
C877 C 0.59843 0.18505 0.66802 0.0
C878 C 0.63151 0.21392 0.66682 0.0
C879 C 0.64164 0.24263 0.6791 0.0
H880 H 0.18921 0.74328 0.9973 0.0
H881 H 0.13046 0.62134 0.99085 0.0
H882 H 0.14183 0.60822 0.0194 0.0
H883 H 0.26715 0.71277 0.03027 0.0
H884 H 0.26159 0.76321 0.03971 0.0
H885 H 0.25606 0.75887 0.01862 0.0
H886 H 0.18263 0.7938 0.01869 0.0
H887 H 0.18797 0.79829 0.03968 0.0
H888 H 0.14342 0.77126 0.03035 0.0
H889 H 0.14811 0.61485 0.04924 0.0
H890 H 0.14834 0.64082 0.07675 0.0
H891 H 0.2055 0.75691 0.06305 0.0
C892 C 0.17979 0.71336 0.00187 0.0
C893 C 0.15905 0.68328 0.992 0.0
C894 C 0.14681 0.64456 0.9983 0.0
C895 C 0.15321 0.63688 0.01446 0.0
C896 C 0.17267 0.66792 0.02403 0.0
C897 C 0.18631 0.70516 0.01785 0.0
C898 C 0.2023 0.73541 0.03057 0.0
C899 C 0.24959 0.74299 0.02974 0.0
C900 C 0.17759 0.7771 0.02977 0.0
C901 C 0.19328 0.71055 0.04493 0.0
C902 C 0.17698 0.67132 0.04105 0.0
C903 C 0.16196 0.64498 0.05243 0.0
C904 C 0.16241 0.65979 0.06804 0.0
C905 C 0.1776 0.70049 0.07197 0.0
C906 C 0.19443 0.72534 0.06036 0.0
H907 H 0.66844 0.75925 0.25436 0.0
H908 H 0.6984 0.89118 0.26199 0.0
H909 H 0.68969 0.88304 0.29029 0.0
H910 H 0.58681 0.75645 0.27896 0.0
H911 H 0.59751 0.70421 0.28615 0.0
H912 H 0.61297 0.71868 0.26707 0.0
H913 H 0.68963 0.6973 0.27503 0.0
H914 H 0.67452 0.68296 0.29425 0.0
H915 H 0.71597 0.7205 0.29229 0.0
H916 H 0.66977 0.86246 0.31731 0.0
H917 H 0.63756 0.83193 0.34017 0.0
H918 H 0.61905 0.71425 0.31465 0.0
C919 C 0.67358 0.78641 0.26197 0.0
C920 C 0.68426 0.82584 0.25588 0.0
C921 C 0.69095 0.86043 0.26634 0.0
C922 C 0.68598 0.85616 0.28246 0.0
C923 C 0.67453 0.81704 0.28799 0.0
C924 C 0.66855 0.78275 0.27804 0.0
C925 C 0.65271 0.74516 0.28661 0.0
C926 C 0.60997 0.73029 0.27926 0.0
C927 C 0.68515 0.70936 0.28707 0.0
C928 C 0.64879 0.7642 0.30275 0.0
C929 C 0.66244 0.80539 0.30345 0.0
C930 C 0.65963 0.83003 0.31696 0.0
C931 C 0.64152 0.81236 0.32993 0.0
C932 C 0.62636 0.77057 0.32926 0.0
C933 C 0.63076 0.74616 0.31556 0.0
H934 H 0.58738 0.18262 0.4947 0.0
H935 H 0.71854 0.15731 0.48821 0.0
H936 H 0.73062 0.14436 0.51662 0.0
H937 H 0.60302 0.24265 0.52719 0.0
H938 H 0.55774 0.22513 0.53687 0.0
H939 H 0.55784 0.22227 0.51589 0.0
H940 H 0.54169 0.14247 0.51671 0.0
H941 H 0.54192 0.14515 0.53782 0.0
H942 H 0.5757 0.1084 0.5285 0.0
H943 H 0.73106 0.1476 0.54616 0.0
H944 H 0.72037 0.17082 0.57339 0.0
H945 H 0.58918 0.19374 0.56045 0.0
C946 C 0.61846 0.17343 0.49921 0.0
C947 C 0.65198 0.17095 0.48925 0.0
C948 C 0.69221 0.15884 0.49558 0.0
C949 C 0.69935 0.15135 0.51171 0.0
C950 C 0.66581 0.15546 0.52132 0.0
C951 C 0.62603 0.16592 0.51523 0.0
C952 C 0.59652 0.17401 0.52808 0.0
C953 C 0.57774 0.21865 0.52694 0.0
C954 C 0.56191 0.1405 0.52776 0.0
C955 C 0.62649 0.16934 0.54238 0.0
C956 C 0.66607 0.15737 0.53834 0.0
C957 C 0.69997 0.15591 0.5495 0.0
C958 C 0.69364 0.16893 0.56496 0.0
C959 C 0.65387 0.18363 0.56897 0.0
C960 C 0.61971 0.18193 0.5577 0.0
H961 H 0.16486 0.31809 0.76797 0.0
H962 H 0.1807 0.19452 0.74701 0.0
H963 H 0.16141 0.1618 0.77153 0.0
H964 H 0.20657 0.28599 0.80853 0.0
H965 H 0.17042 0.32031 0.8178 0.0
H966 H 0.19045 0.33459 0.79932 0.0
H967 H 0.11473 0.34216 0.78697 0.0
H968 H 0.09419 0.32819 0.80532 0.0
H969 H 0.07893 0.29861 0.78777 0.0
H970 H 0.12945 0.1429 0.7965 0.0
H971 H 0.09228 0.13943 0.82102 0.0
H972 H 0.10284 0.27458 0.82658 0.0
C973 C 0.1658 0.28416 0.76864 0.0
C974 C 0.17387 0.25903 0.75538 0.0
C975 C 0.17368 0.21464 0.7568 0.0
C976 C 0.16326 0.19567 0.77077 0.0
C977 C 0.15416 0.22141 0.7834 0.0
C978 C 0.15625 0.2647 0.78259 0.0
C979 C 0.14268 0.28524 0.79754 0.0
C980 C 0.17973 0.30789 0.80632 0.0
C981 C 0.10542 0.31529 0.79419 0.0
C982 C 0.12993 0.24689 0.80641 0.0
C983 C 0.1374 0.2103 0.79816 0.0
C984 C 0.1245 0.17121 0.80327 0.0
C985 C 0.10322 0.16953 0.81712 0.0
C986 C 0.09544 0.20665 0.82572 0.0
C987 C 0.10942 0.24567 0.82038 0.0
loop_
_geom_bond_atom_site_label_1
_geom_bond_atom_site_label_2
_geom_bond_distance
_geom_bond_site_symmetry_2
_ccdc_geom_bond_type
P0 O11 1.490 . S
P0 C14 1.812 . S
P0 C20 1.803 . S
P0 C26 1.819 . S
H1 C15 0.941 . S
H2 C16 0.939 . S
H3 C18 0.940 . S
H4 C19 0.940 . S
H5 C21 0.939 . S
H6 C22 0.942 . S
H7 C24 0.940 . S
H8 C25 0.939 . S
H9 C27 0.941 . S
H10 C31 0.939 . S
O11 P0 1.490 . S
H12 C28 0.939 . S
H13 C30 0.940 . S
C14 P0 1.812 . S
C14 C15 1.389 . S
C14 C19 1.391 . S
C15 H1 0.941 . S
C15 C14 1.389 . S
C15 C16 1.397 . S
C16 H2 0.939 . S
C16 C15 1.397 . S
C16 C17 1.378 . S
C17 C16 1.378 . S
C17 C18 1.378 . S
C18 H3 0.940 . S
C18 C17 1.378 . S
C18 C19 1.396 . S
C19 H4 0.940 . S
C19 C14 1.391 . S
C19 C18 1.396 . S
C20 P0 1.803 . S
C20 C21 1.378 . S
C20 C25 1.400 . S
C21 H5 0.939 . S
C21 C20 1.378 . S
C21 C22 1.361 . S
C22 H6 0.942 . S
C22 C21 1.361 . S
C22 C23 1.369 . S
C23 C22 1.369 . S
C23 C24 1.404 . S
C24 H7 0.940 . S
C24 C23 1.404 . S
C24 C25 1.389 . S
C25 H8 0.939 . S
C25 C20 1.400 . S
C25 C24 1.389 . S
C26 P0 1.819 . S
C26 C27 1.391 . S
C26 C31 1.391 . S
C27 H9 0.941 . S
C27 C26 1.391 . S
C27 C28 1.396 . S
C28 H12 0.939 . S
C28 C27 1.396 . S
C28 C29 1.397 . S
C29 C28 1.397 . S
C29 C30 1.385 . S
C30 H13 0.940 . S
C30 C29 1.385 . S
C30 C31 1.388 . S
C31 H10 0.939 . S
C31 C26 1.391 . S
C31 C30 1.388 . S
P32 O43 1.490 . S
P32 C46 1.812 . S
P32 C52 1.803 . S
P32 C58 1.819 . S
H33 C47 0.941 . S
H34 C48 0.939 . S
H35 C50 0.940 . S
H36 C51 0.940 . S
H37 C53 0.939 . S
H38 C54 0.942 . S
H39 C56 0.940 . S
H40 C57 0.939 . S
H41 C59 0.941 . S
H42 C63 0.939 . S
O43 P32 1.490 . S
H44 C60 0.939 . S
H45 C62 0.940 . S
C46 P32 1.812 . S
C46 C47 1.389 . S
C46 C51 1.391 . S
C47 H33 0.941 . S
C47 C46 1.389 . S
C47 C48 1.397 . S
C48 H34 0.939 . S
C48 C47 1.397 . S
C48 C49 1.378 . S
C49 C48 1.378 . S
C49 C50 1.378 . S
C50 H35 0.940 . S
C50 C49 1.378 . S
C50 C51 1.396 . S
C51 H36 0.940 . S
C51 C46 1.391 . S
C51 C50 1.396 . S
C52 P32 1.803 . S
C52 C53 1.378 . S
C52 C57 1.400 . S
C53 H37 0.939 . S
C53 C52 1.378 . S
C53 C54 1.361 1_455 S
C54 H38 0.942 . S
C54 C53 1.361 1_655 S
C54 C55 1.369 . S
C55 C54 1.369 . S
C55 C56 1.404 1_655 S
C56 H39 0.940 . S
C56 C55 1.404 1_455 S
C56 C57 1.389 . S
C57 H40 0.939 . S
C57 C52 1.400 . S
C57 C56 1.389 . S
C58 P32 1.819 . S
C58 C59 1.391 . S
C58 C63 1.391 . S
C59 H41 0.941 . S
C59 C58 1.391 . S
C59 C60 1.396 . S
C60 H44 0.939 . S
C60 C59 1.396 . S
C60 C61 1.397 . S
C61 C60 1.397 . S
C61 C62 1.385 . S
C62 H45 0.940 . S
C62 C61 1.385 . S
C62 C63 1.388 . S
C63 H42 0.939 . S
C63 C58 1.391 . S
C63 C62 1.388 . S
P64 O75 1.490 . S
P64 C78 1.812 . S
P64 C84 1.803 . S
P64 C90 1.819 . S
H65 C79 0.941 . S
H66 C80 0.939 . S
H67 C82 0.940 . S
H68 C83 0.940 . S
H69 C85 0.939 . S
H70 C86 0.942 . S
H71 C88 0.940 . S
H72 C89 0.939 . S
H73 C91 0.941 . S
H74 C95 0.939 . S
O75 P64 1.490 . S
H76 C92 0.939 . S
H77 C94 0.940 . S
C78 P64 1.812 . S
C78 C79 1.389 . S
C78 C83 1.391 . S
C79 H65 0.941 . S
C79 C78 1.389 . S
C79 C80 1.397 . S
C80 H66 0.939 . S
C80 C79 1.397 . S
C80 C81 1.378 . S
C81 C80 1.378 . S
C81 C82 1.378 . S
C82 H67 0.940 . S
C82 C81 1.378 . S
C82 C83 1.396 . S
C83 H68 0.940 . S
C83 C78 1.391 . S
C83 C82 1.396 . S
C84 P64 1.803 . S
C84 C85 1.378 . S
C84 C89 1.400 . S
C85 H69 0.939 . S
C85 C84 1.378 . S
C85 C86 1.361 . S
C86 H70 0.942 . S
C86 C85 1.361 . S
C86 C87 1.369 . S
C87 C86 1.369 . S
C87 C88 1.404 . S
C88 H71 0.940 . S
C88 C87 1.404 . S
C88 C89 1.389 . S
C89 H72 0.939 . S
C89 C84 1.400 . S
C89 C88 1.389 . S
C90 P64 1.819 . S
C90 C91 1.391 . S
C90 C95 1.391 . S
C91 H73 0.941 . S
C91 C90 1.391 . S
C91 C92 1.396 . S
C92 H76 0.939 . S
C92 C91 1.396 . S
C92 C93 1.397 . S
C93 C92 1.397 . S
C93 C94 1.385 . S
C94 H77 0.940 . S
C94 C93 1.385 . S
C94 C95 1.388 . S
C95 H74 0.939 . S
C95 C90 1.391 . S
C95 C94 1.388 . S
P96 O107 1.490 . S
P96 C110 1.812 . S
P96 C116 1.803 . S
P96 C122 1.819 . S
H97 C111 0.941 . S
H98 C112 0.939 . S
H99 C114 0.940 . S
H100 C115 0.940 . S
H101 C117 0.939 . S
H102 C118 0.942 . S
H103 C120 0.940 . S
H104 C121 0.939 . S
H105 C123 0.941 . S
H106 C127 0.939 . S
O107 P96 1.490 . S
H108 C124 0.939 . S
H109 C126 0.940 . S
C110 P96 1.812 . S
C110 C111 1.389 . S
C110 C115 1.391 . S
C111 H97 0.941 . S
C111 C110 1.389 . S
C111 C112 1.397 . S
C112 H98 0.939 . S
C112 C111 1.397 . S
C112 C113 1.378 . S
C113 C112 1.378 . S
C113 C114 1.378 . S
C114 H99 0.940 . S
C114 C113 1.378 . S
C114 C115 1.396 . S
C115 H100 0.940 . S
C115 C110 1.391 . S
C115 C114 1.396 . S
C116 P96 1.803 . S
C116 C117 1.378 . S
C116 C121 1.400 . S
C117 H101 0.939 . S
C117 C116 1.378 . S
C117 C118 1.361 . S
C118 H102 0.942 . S
C118 C117 1.361 . S
C118 C119 1.369 . S
C119 C118 1.369 . S
C119 C120 1.404 . S
C120 H103 0.940 . S
C120 C119 1.404 . S
C120 C121 1.389 . S
C121 H104 0.939 . S
C121 C116 1.400 . S
C121 C120 1.389 . S
C122 P96 1.819 . S
C122 C123 1.391 . S
C122 C127 1.391 . S
C123 H105 0.941 . S
C123 C122 1.391 . S
C123 C124 1.396 . S
C124 H108 0.939 . S
C124 C123 1.396 . S
C124 C125 1.397 . S
C125 C124 1.397 . S
C125 C126 1.385 . S
C126 H109 0.940 . S
C126 C125 1.385 . S
C126 C127 1.388 . S
C127 H106 0.939 . S
C127 C122 1.391 . S
C127 C126 1.388 . S
P128 O139 1.490 . S
P128 C142 1.812 . S
P128 C148 1.803 . S
P128 C154 1.819 . S
H129 C143 0.941 . S
H130 C144 0.939 . S
H131 C146 0.940 . S
H132 C147 0.940 . S
H133 C149 0.939 . S
H134 C150 0.942 . S
H135 C152 0.940 . S
H136 C153 0.939 . S
H137 C155 0.941 . S
H138 C159 0.939 . S
O139 P128 1.490 . S
H140 C156 0.939 . S
H141 C158 0.940 . S
C142 P128 1.812 . S
C142 C143 1.389 . S
C142 C147 1.391 . S
C143 H129 0.941 . S
C143 C142 1.389 . S
C143 C144 1.397 . S
C144 H130 0.939 . S
C144 C143 1.397 . S
C144 C145 1.378 . S
C145 C144 1.378 . S
C145 C146 1.378 . S
C146 H131 0.940 . S
C146 C145 1.378 . S
C146 C147 1.396 . S
C147 H132 0.940 . S
C147 C142 1.391 . S
C147 C146 1.396 . S
C148 P128 1.803 . S
C148 C149 1.378 . S
C148 C153 1.400 . S
C149 H133 0.939 . S
C149 C148 1.378 . S
C149 C150 1.361 . S
C150 H134 0.942 . S
C150 C149 1.361 . S
C150 C151 1.369 . S
C151 C150 1.369 . S
C151 C152 1.404 . S
C152 H135 0.940 . S
C152 C151 1.404 . S
C152 C153 1.389 . S
C153 H136 0.939 . S
C153 C148 1.400 . S
C153 C152 1.389 . S
C154 P128 1.819 . S
C154 C155 1.391 . S
C154 C159 1.391 . S
C155 H137 0.941 . S
C155 C154 1.391 . S
C155 C156 1.396 . S
C156 H140 0.939 . S
C156 C155 1.396 . S
C156 C157 1.397 . S
C157 C156 1.397 . S
C157 C158 1.385 . S
C158 H141 0.940 . S
C158 C157 1.385 . S
C158 C159 1.388 . S
C159 H138 0.939 . S
C159 C154 1.391 . S
C159 C158 1.388 . S
P160 O171 1.490 . S
P160 C174 1.812 . S
P160 C180 1.803 . S
P160 C186 1.819 . S
H161 C175 0.941 . S
H162 C176 0.939 . S
H163 C178 0.940 . S
H164 C179 0.940 . S
H165 C181 0.939 . S
H166 C182 0.942 . S
H167 C184 0.940 . S
H168 C185 0.939 . S
H169 C187 0.941 . S
H170 C191 0.939 . S
O171 P160 1.490 . S
H172 C188 0.939 . S
H173 C190 0.940 . S
C174 P160 1.812 . S
C174 C175 1.389 . S
C174 C179 1.391 . S
C175 H161 0.941 . S
C175 C174 1.389 . S
C175 C176 1.397 . S
C176 H162 0.939 . S
C176 C175 1.397 . S
C176 C177 1.378 . S
C177 C176 1.378 . S
C177 C178 1.378 . S
C178 H163 0.940 . S
C178 C177 1.378 . S
C178 C179 1.396 . S
C179 H164 0.940 . S
C179 C174 1.391 . S
C179 C178 1.396 . S
C180 P160 1.803 . S
C180 C181 1.378 . S
C180 C185 1.400 . S
C181 H165 0.939 . S
C181 C180 1.378 . S
C181 C182 1.361 . S
C182 H166 0.942 . S
C182 C181 1.361 . S
C182 C183 1.369 . S
C183 C182 1.369 . S
C183 C184 1.404 . S
C184 H167 0.940 . S
C184 C183 1.404 . S
C184 C185 1.389 . S
C185 H168 0.939 . S
C185 C180 1.400 . S
C185 C184 1.389 . S
C186 P160 1.819 . S
C186 C187 1.391 . S
C186 C191 1.391 . S
C187 H169 0.941 . S
C187 C186 1.391 . S
C187 C188 1.396 . S
C188 H172 0.939 . S
C188 C187 1.396 . S
C188 C189 1.397 . S
C189 C188 1.397 . S
C189 C190 1.385 . S
C190 H173 0.940 . S
C190 C189 1.385 . S
C190 C191 1.388 . S
C191 H170 0.939 . S
C191 C186 1.391 . S
C191 C190 1.388 . S
P192 O203 1.490 . S
P192 C206 1.812 . S
P192 C212 1.803 . S
P192 C218 1.819 . S
H193 C207 0.941 . S
H194 C208 0.939 . S
H195 C210 0.940 . S
H196 C211 0.940 . S
H197 C213 0.939 . S
H198 C214 0.942 . S
H199 C216 0.940 . S
H200 C217 0.939 . S
H201 C219 0.941 . S
H202 C223 0.939 . S
O203 P192 1.490 . S
H204 C220 0.939 . S
H205 C222 0.940 . S
C206 P192 1.812 . S
C206 C207 1.389 . S
C206 C211 1.391 . S
C207 H193 0.941 . S
C207 C206 1.389 . S
C207 C208 1.397 . S
C208 H194 0.939 . S
C208 C207 1.397 . S
C208 C209 1.378 . S
C209 C208 1.378 . S
C209 C210 1.378 . S
C210 H195 0.940 . S
C210 C209 1.378 . S
C210 C211 1.396 . S
C211 H196 0.940 . S
C211 C206 1.391 . S
C211 C210 1.396 . S
C212 P192 1.803 . S
C212 C213 1.378 . S
C212 C217 1.400 . S
C213 H197 0.939 . S
C213 C212 1.378 . S
C213 C214 1.361 . S
C214 H198 0.942 . S
C214 C213 1.361 . S
C214 C215 1.369 . S
C215 C214 1.369 . S
C215 C216 1.404 . S
C216 H199 0.940 . S
C216 C215 1.404 . S
C216 C217 1.389 . S
C217 H200 0.939 . S
C217 C212 1.400 . S
C217 C216 1.389 . S
C218 P192 1.819 . S
C218 C219 1.391 . S
C218 C223 1.391 . S
C219 H201 0.941 . S
C219 C218 1.391 . S
C219 C220 1.396 . S
C220 H204 0.939 . S
C220 C219 1.396 . S
C220 C221 1.397 . S
C221 C220 1.397 . S
C221 C222 1.385 . S
C222 H205 0.940 . S
C222 C221 1.385 . S
C222 C223 1.388 . S
C223 H202 0.939 . S
C223 C218 1.391 . S
C223 C222 1.388 . S
P224 O235 1.490 . S
P224 C238 1.812 . S
P224 C244 1.803 . S
P224 C250 1.819 . S
H225 C239 0.941 . S
H226 C240 0.939 . S
H227 C242 0.940 . S
H228 C243 0.940 . S
H229 C245 0.939 . S
H230 C246 0.942 1_655 S
H231 C248 0.940 . S
H232 C249 0.939 . S
H233 C251 0.941 . S
H234 C255 0.939 . S
O235 P224 1.490 . S
H236 C252 0.939 . S
H237 C254 0.940 . S
C238 P224 1.812 . S
C238 C239 1.389 . S
C238 C243 1.391 . S
C239 H225 0.941 . S
C239 C238 1.389 . S
C239 C240 1.397 . S
C240 H226 0.939 . S
C240 C239 1.397 . S
C240 C241 1.378 . S
C241 C240 1.378 . S
C241 C242 1.378 . S
C242 H227 0.940 . S
C242 C241 1.378 . S
C242 C243 1.396 . S
C243 H228 0.940 . S
C243 C238 1.391 . S
C243 C242 1.396 . S
C244 P224 1.803 . S
C244 C245 1.378 . S
C244 C249 1.400 . S
C245 H229 0.939 . S
C245 C244 1.378 . S
C245 C246 1.361 . S
C246 H230 0.942 1_455 S
C246 C245 1.361 . S
C246 C247 1.369 . S
C247 C246 1.369 . S
C247 C248 1.404 . S
C248 H231 0.940 . S
C248 C247 1.404 . S
C248 C249 1.389 . S
C249 H232 0.939 . S
C249 C244 1.400 . S
C249 C248 1.389 . S
C250 P224 1.819 . S
C250 C251 1.391 . S
C250 C255 1.391 . S
C251 H233 0.941 . S
C251 C250 1.391 . S
C251 C252 1.396 . S
C252 H236 0.939 . S
C252 C251 1.396 . S
C252 C253 1.397 . S
C253 C252 1.397 . S
C253 C254 1.385 . S
C254 H237 0.940 . S
C254 C253 1.385 . S
C254 C255 1.388 . S
C255 H234 0.939 . S
C255 C250 1.391 . S
C255 C254 1.388 . S
Zn256 O262 1.920 . S
Zn256 O268 1.898 . S
Zn256 O271 1.905 . S
Zn257 O265 1.905 . S
Zn257 O266 1.898 . S
Zn257 O274 1.920 . S
Zn258 O261 2.080 . S
Zn258 O264 2.114 . S
Zn258 O267 2.120 . S
Zn258 O269 2.120 . S
Zn258 O270 2.114 . S
Zn258 O273 2.080 . S
C259 O264 1.166 . S
C259 O265 1.182 . S
C260 O266 1.167 . S
C260 O267 1.299 . S
O261 Zn258 2.080 . S
O261 C275 1.305 . S
O262 Zn256 1.920 . S
O262 C275 1.234 . S
C263 O268 1.167 . S
C263 O269 1.299 . S
O264 Zn258 2.114 . S
O264 C259 1.166 . S
O265 Zn257 1.905 . S
O265 C259 1.182 . S
O266 Zn257 1.898 . S
O266 C260 1.167 . S
O267 Zn258 2.120 . S
O267 C260 1.299 . S
O268 Zn256 1.898 . S
O268 C263 1.167 . S
O269 Zn258 2.120 . S
O269 C263 1.299 . S
O270 Zn258 2.114 . S
O270 C272 1.166 . S
O271 Zn256 1.905 . S
O271 C272 1.182 . S
C272 O270 1.166 . S
C272 O271 1.182 . S
O273 Zn258 2.080 . S
O273 C276 1.305 . S
O274 Zn257 1.920 . S
O274 C276 1.234 . S
C275 O261 1.305 . S
C275 O262 1.234 . S
C276 O273 1.305 . S
C276 O274 1.234 . S
Zn277 O283 1.920 . S
Zn277 O289 1.898 . S
Zn277 O292 1.905 . S
Zn278 O286 1.905 . S
Zn278 O287 1.898 . S
Zn278 O295 1.920 . S
Zn279 O282 2.080 . S
Zn279 O285 2.114 . S
Zn279 O288 2.120 . S
Zn279 O290 2.120 . S
Zn279 O291 2.114 . S
Zn279 O294 2.080 . S
C280 O285 1.166 . S
C280 O286 1.182 . S
C281 O287 1.167 . S
C281 O288 1.299 . S
O282 Zn279 2.080 . S
O282 C296 1.305 . S
O283 Zn277 1.920 . S
O283 C296 1.234 . S
C284 O289 1.167 . S
C284 O290 1.299 . S
O285 Zn279 2.114 . S
O285 C280 1.166 . S
O286 Zn278 1.905 . S
O286 C280 1.182 . S
O287 Zn278 1.898 . S
O287 C281 1.167 . S
O288 Zn279 2.120 . S
O288 C281 1.299 . S
O289 Zn277 1.898 . S
O289 C284 1.167 . S
O290 Zn279 2.120 . S
O290 C284 1.299 . S
O291 Zn279 2.114 . S
O291 C293 1.166 . S
O292 Zn277 1.905 . S
O292 C293 1.182 . S
C293 O291 1.166 . S
C293 O292 1.182 . S
O294 Zn279 2.080 . S
O294 C297 1.305 . S
O295 Zn278 1.920 . S
O295 C297 1.234 . S
C296 O282 1.305 . S
C296 O283 1.234 . S
C297 O294 1.305 . S
C297 O295 1.234 . S
Zn298 O304 1.920 . S
Zn298 O310 1.898 . S
Zn298 O313 1.905 . S
Zn299 O307 1.905 . S
Zn299 O308 1.898 . S
Zn299 O316 1.920 . S
Zn300 O303 2.080 . S
Zn300 O306 2.114 . S
Zn300 O309 2.120 . S
Zn300 O311 2.120 . S
Zn300 O312 2.114 . S
Zn300 O315 2.080 . S
C301 O306 1.166 . S
C301 O307 1.182 . S
C302 O308 1.167 . S
C302 O309 1.299 . S
O303 Zn300 2.080 . S
O303 C317 1.305 . S
O304 Zn298 1.920 . S
O304 C317 1.234 . S
C305 O310 1.167 . S
C305 O311 1.299 . S
O306 Zn300 2.114 . S
O306 C301 1.166 . S
O307 Zn299 1.905 . S
O307 C301 1.182 . S
O308 Zn299 1.898 . S
O308 C302 1.167 . S
O309 Zn300 2.120 . S
O309 C302 1.299 . S
O310 Zn298 1.898 . S
O310 C305 1.167 . S
O311 Zn300 2.120 . S
O311 C305 1.299 . S
O312 Zn300 2.114 . S
O312 C314 1.166 . S
O313 Zn298 1.905 . S
O313 C314 1.182 . S
C314 O312 1.166 . S
C314 O313 1.182 . S
O315 Zn300 2.080 . S
O315 C318 1.305 . S
O316 Zn299 1.920 . S
O316 C318 1.234 . S
C317 O303 1.305 . S
C317 O304 1.234 . S
C318 O315 1.305 . S
C318 O316 1.234 . S
Zn319 O325 1.920 . S
Zn319 O331 1.898 . S
Zn319 O334 1.905 . S
Zn320 O328 1.905 . S
Zn320 O329 1.898 . S
Zn320 O337 1.920 . S
Zn321 O324 2.080 . S
Zn321 O327 2.114 . S
Zn321 O330 2.120 . S
Zn321 O332 2.120 . S
Zn321 O333 2.114 . S
Zn321 O336 2.080 . S
C322 O327 1.166 . S
C322 O328 1.182 . S
C323 O329 1.167 . S
C323 O330 1.299 . S
O324 Zn321 2.080 . S
O324 C338 1.305 . S
O325 Zn319 1.920 . S
O325 C338 1.234 . S
C326 O331 1.167 . S
C326 O332 1.299 . S
O327 Zn321 2.114 . S
O327 C322 1.166 . S
O328 Zn320 1.905 . S
O328 C322 1.182 . S
O329 Zn320 1.898 . S
O329 C323 1.167 . S
O330 Zn321 2.120 . S
O330 C323 1.299 . S
O331 Zn319 1.898 . S
O331 C326 1.167 . S
O332 Zn321 2.120 . S
O332 C326 1.299 . S
O333 Zn321 2.114 . S
O333 C335 1.166 . S
O334 Zn319 1.905 . S
O334 C335 1.182 . S
C335 O333 1.166 . S
C335 O334 1.182 . S
O336 Zn321 2.080 . S
O336 C339 1.305 . S
O337 Zn320 1.920 . S
O337 C339 1.234 . S
C338 O324 1.305 . S
C338 O325 1.234 . S
C339 O336 1.305 . S
C339 O337 1.234 . S
H340 C352 0.930 . S
H341 C354 0.930 . S
H342 C355 0.930 . S
H343 C359 0.959 . S
H344 C359 0.959 . S
H345 C359 0.961 . S
H346 C360 0.960 . S
H347 C360 0.961 . S
H348 C360 0.959 . S
H349 C363 0.929 . S
H350 C364 0.931 . S
H351 C366 0.930 . S
C352 H340 0.930 . S
C352 C353 1.399 . S
C352 C357 1.399 . S
C353 C352 1.399 . S
C353 C354 1.376 . S
C354 H341 0.930 . S
C354 C353 1.376 . S
C354 C355 1.388 . S
C355 H342 0.930 . S
C355 C354 1.388 . S
C355 C356 1.390 . S
C356 C355 1.390 . S
C356 C357 1.394 . S
C356 C362 1.465 . S
C357 C352 1.399 . S
C357 C356 1.394 . S
C357 C358 1.516 . S
C358 C357 1.516 . S
C358 C359 1.502 . S
C358 C360 1.561 . S
C358 C361 1.526 . S
C359 H343 0.959 . S
C359 H344 0.959 . S
C359 H345 0.961 . S
C359 C358 1.502 . S
C360 H346 0.960 . S
C360 H347 0.961 . S
C360 H348 0.959 . S
C360 C358 1.561 . S
C361 C358 1.526 . S
C361 C362 1.396 . S
C361 C366 1.390 . S
C362 C356 1.465 . S
C362 C361 1.396 . S
C362 C363 1.399 . S
C363 H349 0.929 . S
C363 C362 1.399 . S
C363 C364 1.385 . S
C364 H350 0.931 . S
C364 C363 1.385 . S
C364 C365 1.389 . S
C365 C364 1.389 . S
C365 C366 1.387 . S
C366 H351 0.930 . S
C366 C361 1.390 . S
C366 C365 1.387 . S
H367 C379 0.930 . S
H368 C381 0.930 . S
H369 C382 0.930 . S
H370 C386 0.959 . S
H371 C386 0.959 . S
H372 C386 0.961 . S
H373 C387 0.960 . S
H374 C387 0.961 . S
H375 C387 0.959 . S
H376 C390 0.929 . S
H377 C391 0.931 . S
H378 C393 0.930 . S
C379 H367 0.930 . S
C379 C380 1.399 . S
C379 C384 1.399 . S
C380 C379 1.399 . S
C380 C381 1.376 . S
C381 H368 0.930 . S
C381 C380 1.376 . S
C381 C382 1.388 . S
C382 H369 0.930 . S
C382 C381 1.388 . S
C382 C383 1.390 . S
C383 C382 1.390 . S
C383 C384 1.394 . S
C383 C389 1.465 . S
C384 C379 1.399 . S
C384 C383 1.394 . S
C384 C385 1.516 . S
C385 C384 1.516 . S
C385 C386 1.502 . S
C385 C387 1.561 . S
C385 C388 1.526 . S
C386 H370 0.959 . S
C386 H371 0.959 . S
C386 H372 0.961 . S
C386 C385 1.502 . S
C387 H373 0.960 . S
C387 H374 0.961 . S
C387 H375 0.959 . S
C387 C385 1.561 . S
C388 C385 1.526 . S
C388 C389 1.396 . S
C388 C393 1.390 . S
C389 C383 1.465 . S
C389 C388 1.396 . S
C389 C390 1.399 . S
C390 H376 0.929 . S
C390 C389 1.399 . S
C390 C391 1.385 . S
C391 H377 0.931 . S
C391 C390 1.385 . S
C391 C392 1.389 . S
C392 C391 1.389 . S
C392 C393 1.387 . S
C393 H378 0.930 . S
C393 C388 1.390 . S
C393 C392 1.387 . S
H394 C406 0.930 . S
H395 C408 0.930 . S
H396 C409 0.930 . S
H397 C413 0.959 . S
H398 C413 0.959 . S
H399 C413 0.961 . S
H400 C414 0.960 . S
H401 C414 0.961 . S
H402 C414 0.959 . S
H403 C417 0.929 . S
H404 C418 0.931 . S
H405 C420 0.930 . S
C406 H394 0.930 . S
C406 C407 1.399 . S
C406 C411 1.399 . S
C407 C406 1.399 . S
C407 C408 1.376 . S
C408 H395 0.930 . S
C408 C407 1.376 . S
C408 C409 1.388 . S
C409 H396 0.930 . S
C409 C408 1.388 . S
C409 C410 1.390 . S
C410 C409 1.390 . S
C410 C411 1.394 . S
C410 C416 1.465 . S
C411 C406 1.399 . S
C411 C410 1.394 . S
C411 C412 1.516 . S
C412 C411 1.516 . S
C412 C413 1.502 . S
C412 C414 1.561 . S
C412 C415 1.526 . S
C413 H397 0.959 . S
C413 H398 0.959 . S
C413 H399 0.961 . S
C413 C412 1.502 . S
C414 H400 0.960 . S
C414 H401 0.961 . S
C414 H402 0.959 . S
C414 C412 1.561 . S
C415 C412 1.526 . S
C415 C416 1.396 . S
C415 C420 1.390 . S
C416 C410 1.465 . S
C416 C415 1.396 . S
C416 C417 1.399 . S
C417 H403 0.929 . S
C417 C416 1.399 . S
C417 C418 1.385 . S
C418 H404 0.931 . S
C418 C417 1.385 . S
C418 C419 1.389 . S
C419 C418 1.389 . S
C419 C420 1.387 . S
C420 H405 0.930 . S
C420 C415 1.390 . S
C420 C419 1.387 . S
H421 C433 0.930 . S
H422 C435 0.930 . S
H423 C436 0.930 . S
H424 C440 0.959 . S
H425 C440 0.959 . S
H426 C440 0.961 . S
H427 C441 0.960 . S
H428 C441 0.961 . S
H429 C441 0.959 . S
H430 C444 0.929 . S
H431 C445 0.931 . S
H432 C447 0.930 . S
C433 H421 0.930 . S
C433 C434 1.399 . S
C433 C438 1.399 . S
C434 C433 1.399 . S
C434 C435 1.376 . S
C435 H422 0.930 . S
C435 C434 1.376 . S
C435 C436 1.388 . S
C436 H423 0.930 . S
C436 C435 1.388 . S
C436 C437 1.390 . S
C437 C436 1.390 . S
C437 C438 1.394 . S
C437 C443 1.465 . S
C438 C433 1.399 . S
C438 C437 1.394 . S
C438 C439 1.516 . S
C439 C438 1.516 . S
C439 C440 1.502 . S
C439 C441 1.561 . S
C439 C442 1.526 . S
C440 H424 0.959 . S
C440 H425 0.959 . S
C440 H426 0.961 . S
C440 C439 1.502 . S
C441 H427 0.960 . S
C441 H428 0.961 . S
C441 H429 0.959 . S
C441 C439 1.561 . S
C442 C439 1.526 . S
C442 C443 1.396 . S
C442 C447 1.390 . S
C443 C437 1.465 . S
C443 C442 1.396 . S
C443 C444 1.399 . S
C444 H430 0.929 . S
C444 C443 1.399 . S
C444 C445 1.385 . S
C445 H431 0.931 . S
C445 C444 1.385 . S
C445 C446 1.389 . S
C446 C445 1.389 . S
C446 C447 1.387 . S
C447 H432 0.930 . S
C447 C442 1.390 . S
C447 C446 1.387 . S
H448 C460 0.930 . S
H449 C462 0.930 . S
H450 C463 0.930 . S
H451 C467 0.959 . S
H452 C467 0.959 . S
H453 C467 0.961 . S
H454 C468 0.960 . S
H455 C468 0.961 . S
H456 C468 0.959 . S
H457 C471 0.929 . S
H458 C472 0.931 . S
H459 C474 0.930 . S
C460 H448 0.930 . S
C460 C461 1.399 . S
C460 C465 1.399 . S
C461 C460 1.399 . S
C461 C462 1.376 . S
C462 H449 0.930 . S
C462 C461 1.376 . S
C462 C463 1.388 . S
C463 H450 0.930 . S
C463 C462 1.388 . S
C463 C464 1.390 . S
C464 C463 1.390 . S
C464 C465 1.394 . S
C464 C470 1.465 . S
C465 C460 1.399 . S
C465 C464 1.394 . S
C465 C466 1.516 . S
C466 C465 1.516 . S
C466 C467 1.502 . S
C466 C468 1.561 . S
C466 C469 1.526 . S
C467 H451 0.959 . S
C467 H452 0.959 . S
C467 H453 0.961 . S
C467 C466 1.502 . S
C468 H454 0.960 . S
C468 H455 0.961 . S
C468 H456 0.959 . S
C468 C466 1.561 . S
C469 C466 1.526 . S
C469 C470 1.396 . S
C469 C474 1.390 . S
C470 C464 1.465 . S
C470 C469 1.396 . S
C470 C471 1.399 . S
C471 H457 0.929 . S
C471 C470 1.399 . S
C471 C472 1.385 . S
C472 H458 0.931 . S
C472 C471 1.385 . S
C472 C473 1.389 . S
C473 C472 1.389 . S
C473 C474 1.387 . S
C474 H459 0.930 . S
C474 C469 1.390 . S
C474 C473 1.387 . S
H475 C487 0.930 . S
H476 C489 0.930 . S
H477 C490 0.930 . S
H478 C494 0.959 . S
H479 C494 0.959 . S
H480 C494 0.961 . S
H481 C495 0.960 . S
H482 C495 0.961 . S
H483 C495 0.959 . S
H484 C498 0.929 . S
H485 C499 0.931 . S
H486 C501 0.930 . S
C487 H475 0.930 . S
C487 C488 1.399 . S
C487 C492 1.399 . S
C488 C487 1.399 . S
C488 C489 1.376 . S
C489 H476 0.930 . S
C489 C488 1.376 . S
C489 C490 1.388 . S
C490 H477 0.930 . S
C490 C489 1.388 . S
C490 C491 1.390 . S
C491 C490 1.390 . S
C491 C492 1.394 . S
C491 C497 1.465 . S
C492 C487 1.399 . S
C492 C491 1.394 . S
C492 C493 1.516 . S
C493 C492 1.516 . S
C493 C494 1.502 . S
C493 C495 1.561 . S
C493 C496 1.526 . S
C494 H478 0.959 . S
C494 H479 0.959 . S
C494 H480 0.961 . S
C494 C493 1.502 . S
C495 H481 0.960 . S
C495 H482 0.961 . S
C495 H483 0.959 . S
C495 C493 1.561 . S
C496 C493 1.526 . S
C496 C497 1.396 . S
C496 C501 1.390 . S
C497 C491 1.465 . S
C497 C496 1.396 . S
C497 C498 1.399 . S
C498 H484 0.929 . S
C498 C497 1.399 . S
C498 C499 1.385 . S
C499 H485 0.931 . S
C499 C498 1.385 . S
C499 C500 1.389 . S
C500 C499 1.389 . S
C500 C501 1.387 . S
C501 H486 0.930 . S
C501 C496 1.390 . S
C501 C500 1.387 . S
H502 C514 0.930 . S
H503 C516 0.930 . S
H504 C517 0.930 . S
H505 C521 0.959 . S
H506 C521 0.959 . S
H507 C521 0.961 . S
H508 C522 0.960 . S
H509 C522 0.961 . S
H510 C522 0.959 . S
H511 C525 0.929 . S
H512 C526 0.931 . S
H513 C528 0.930 . S
C514 H502 0.930 . S
C514 C515 1.399 . S
C514 C519 1.399 . S
C515 C514 1.399 . S
C515 C516 1.376 . S
C516 H503 0.930 . S
C516 C515 1.376 . S
C516 C517 1.388 . S
C517 H504 0.930 . S
C517 C516 1.388 . S
C517 C518 1.390 . S
C518 C517 1.390 . S
C518 C519 1.394 . S
C518 C524 1.465 . S
C519 C514 1.399 . S
C519 C518 1.394 . S
C519 C520 1.516 . S
C520 C519 1.516 . S
C520 C521 1.502 . S
C520 C522 1.561 . S
C520 C523 1.526 . S
C521 H505 0.959 . S
C521 H506 0.959 . S
C521 H507 0.961 . S
C521 C520 1.502 . S
C522 H508 0.960 . S
C522 H509 0.961 . S
C522 H510 0.959 . S
C522 C520 1.561 . S
C523 C520 1.526 . S
C523 C524 1.396 . S
C523 C528 1.390 . S
C524 C518 1.465 . S
C524 C523 1.396 . S
C524 C525 1.399 . S
C525 H511 0.929 . S
C525 C524 1.399 . S
C525 C526 1.385 . S
C526 H512 0.931 . S
C526 C525 1.385 . S
C526 C527 1.389 . S
C527 C526 1.389 . S
C527 C528 1.387 . S
C528 H513 0.930 . S
C528 C523 1.390 . S
C528 C527 1.387 . S
H529 C541 0.930 . S
H530 C543 0.930 . S
H531 C544 0.930 . S
H532 C548 0.959 . S
H533 C548 0.959 . S
H534 C548 0.961 . S
H535 C549 0.960 . S
H536 C549 0.961 . S
H537 C549 0.959 . S
H538 C552 0.929 . S
H539 C553 0.931 . S
H540 C555 0.930 . S
C541 H529 0.930 . S
C541 C542 1.399 . S
C541 C546 1.399 . S
C542 C541 1.399 . S
C542 C543 1.376 . S
C543 H530 0.930 . S
C543 C542 1.376 . S
C543 C544 1.388 . S
C544 H531 0.930 . S
C544 C543 1.388 . S
C544 C545 1.390 . S
C545 C544 1.390 . S
C545 C546 1.394 . S
C545 C551 1.465 . S
C546 C541 1.399 . S
C546 C545 1.394 . S
C546 C547 1.516 . S
C547 C546 1.516 . S
C547 C548 1.502 . S
C547 C549 1.561 . S
C547 C550 1.526 . S
C548 H532 0.959 . S
C548 H533 0.959 . S
C548 H534 0.961 . S
C548 C547 1.502 . S
C549 H535 0.960 . S
C549 H536 0.961 . S
C549 H537 0.959 . S
C549 C547 1.561 . S
C550 C547 1.526 . S
C550 C551 1.396 . S
C550 C555 1.390 . S
C551 C545 1.465 . S
C551 C550 1.396 . S
C551 C552 1.399 . S
C552 H538 0.929 . S
C552 C551 1.399 . S
C552 C553 1.385 . S
C553 H539 0.931 . S
C553 C552 1.385 . S
C553 C554 1.389 . S
C554 C553 1.389 . S
C554 C555 1.387 . S
C555 H540 0.930 . S
C555 C550 1.390 . S
C555 C554 1.387 . S
H556 C568 0.930 . S
H557 C570 0.930 . S
H558 C571 0.930 . S
H559 C575 0.959 . S
H560 C575 0.959 . S
H561 C575 0.961 . S
H562 C576 0.960 . S
H563 C576 0.961 . S
H564 C576 0.959 . S
H565 C579 0.929 . S
H566 C580 0.931 . S
H567 C582 0.930 . S
C568 H556 0.930 . S
C568 C569 1.399 . S
C568 C573 1.399 . S
C569 C568 1.399 . S
C569 C570 1.376 . S
C570 H557 0.930 . S
C570 C569 1.376 . S
C570 C571 1.388 . S
C571 H558 0.930 . S
C571 C570 1.388 . S
C571 C572 1.390 . S
C572 C571 1.390 . S
C572 C573 1.394 . S
C572 C578 1.465 . S
C573 C568 1.399 . S
C573 C572 1.394 . S
C573 C574 1.516 . S
C574 C573 1.516 . S
C574 C575 1.502 . S
C574 C576 1.561 . S
C574 C577 1.526 . S
C575 H559 0.959 . S
C575 H560 0.959 . S
C575 H561 0.961 . S
C575 C574 1.502 . S
C576 H562 0.960 . S
C576 H563 0.961 . S
C576 H564 0.959 . S
C576 C574 1.561 . S
C577 C574 1.526 . S
C577 C578 1.396 . S
C577 C582 1.390 . S
C578 C572 1.465 . S
C578 C577 1.396 . S
C578 C579 1.399 . S
C579 H565 0.929 . S
C579 C578 1.399 . S
C579 C580 1.385 . S
C580 H566 0.931 . S
C580 C579 1.385 . S
C580 C581 1.389 . S
C581 C580 1.389 . S
C581 C582 1.387 . S
C582 H567 0.930 . S
C582 C577 1.390 . S
C582 C581 1.387 . S
H583 C595 0.930 . S
H584 C597 0.930 . S
H585 C598 0.930 . S
H586 C602 0.959 . S
H587 C602 0.959 . S
H588 C602 0.961 . S
H589 C603 0.960 . S
H590 C603 0.961 . S
H591 C603 0.959 . S
H592 C606 0.929 . S
H593 C607 0.931 . S
H594 C609 0.930 . S
C595 H583 0.930 . S
C595 C596 1.399 . S
C595 C600 1.399 . S
C596 C595 1.399 . S
C596 C597 1.376 . S
C597 H584 0.930 . S
C597 C596 1.376 . S
C597 C598 1.388 . S
C598 H585 0.930 . S
C598 C597 1.388 . S
C598 C599 1.390 . S
C599 C598 1.390 . S
C599 C600 1.394 . S
C599 C605 1.465 . S
C600 C595 1.399 . S
C600 C599 1.394 . S
C600 C601 1.516 . S
C601 C600 1.516 . S
C601 C602 1.502 . S
C601 C603 1.561 . S
C601 C604 1.526 . S
C602 H586 0.959 . S
C602 H587 0.959 . S
C602 H588 0.961 . S
C602 C601 1.502 . S
C603 H589 0.960 . S
C603 H590 0.961 . S
C603 H591 0.959 . S
C603 C601 1.561 . S
C604 C601 1.526 . S
C604 C605 1.396 . S
C604 C609 1.390 . S
C605 C599 1.465 . S
C605 C604 1.396 . S
C605 C606 1.399 . S
C606 H592 0.929 . S
C606 C605 1.399 . S
C606 C607 1.385 . S
C607 H593 0.931 . S
C607 C606 1.385 . S
C607 C608 1.389 . S
C608 C607 1.389 . S
C608 C609 1.387 . S
C609 H594 0.930 . S
C609 C604 1.390 . S
C609 C608 1.387 . S
H610 C622 0.930 . S
H611 C624 0.930 . S
H612 C625 0.930 . S
H613 C629 0.959 . S
H614 C629 0.959 . S
H615 C629 0.961 . S
H616 C630 0.960 . S
H617 C630 0.961 . S
H618 C630 0.959 . S
H619 C633 0.929 . S
H620 C634 0.931 . S
H621 C636 0.930 . S
C622 H610 0.930 . S
C622 C623 1.399 . S
C622 C627 1.399 . S
C623 C622 1.399 . S
C623 C624 1.376 . S
C624 H611 0.930 . S
C624 C623 1.376 . S
C624 C625 1.388 . S
C625 H612 0.930 . S
C625 C624 1.388 . S
C625 C626 1.390 . S
C626 C625 1.390 . S
C626 C627 1.394 . S
C626 C632 1.465 . S
C627 C622 1.399 . S
C627 C626 1.394 . S
C627 C628 1.516 . S
C628 C627 1.516 . S
C628 C629 1.502 . S
C628 C630 1.561 . S
C628 C631 1.526 . S
C629 H613 0.959 . S
C629 H614 0.959 . S
C629 H615 0.961 . S
C629 C628 1.502 . S
C630 H616 0.960 . S
C630 H617 0.961 . S
C630 H618 0.959 . S
C630 C628 1.561 . S
C631 C628 1.526 . S
C631 C632 1.396 . S
C631 C636 1.390 . S
C632 C626 1.465 . S
C632 C631 1.396 . S
C632 C633 1.399 . S
C633 H619 0.929 . S
C633 C632 1.399 . S
C633 C634 1.385 . S
C634 H620 0.931 . S
C634 C633 1.385 . S
C634 C635 1.389 . S
C635 C634 1.389 . S
C635 C636 1.387 . S
C636 H621 0.930 . S
C636 C631 1.390 . S
C636 C635 1.387 . S
H637 C649 0.930 . S
H638 C651 0.930 . S
H639 C652 0.930 . S
H640 C656 0.959 . S
H641 C656 0.959 . S
H642 C656 0.961 . S
H643 C657 0.960 . S
H644 C657 0.961 . S
H645 C657 0.959 . S
H646 C660 0.929 . S
H647 C661 0.931 . S
H648 C663 0.930 . S
C649 H637 0.930 . S
C649 C650 1.399 . S
C649 C654 1.399 . S
C650 C649 1.399 . S
C650 C651 1.376 . S
C651 H638 0.930 . S
C651 C650 1.376 . S
C651 C652 1.388 . S
C652 H639 0.930 . S
C652 C651 1.388 . S
C652 C653 1.390 . S
C653 C652 1.390 . S
C653 C654 1.394 . S
C653 C659 1.465 . S
C654 C649 1.399 . S
C654 C653 1.394 . S
C654 C655 1.516 . S
C655 C654 1.516 . S
C655 C656 1.502 . S
C655 C657 1.561 . S
C655 C658 1.526 . S
C656 H640 0.959 . S
C656 H641 0.959 . S
C656 H642 0.961 . S
C656 C655 1.502 . S
C657 H643 0.960 . S
C657 H644 0.961 . S
C657 H645 0.959 . S
C657 C655 1.561 . S
C658 C655 1.526 . S
C658 C659 1.396 . S
C658 C663 1.390 . S
C659 C653 1.465 . S
C659 C658 1.396 . S
C659 C660 1.399 . S
C660 H646 0.929 . S
C660 C659 1.399 . S
C660 C661 1.385 . S
C661 H647 0.931 . S
C661 C660 1.385 . S
C661 C662 1.389 . S
C662 C661 1.389 . S
C662 C663 1.387 . S
C663 H648 0.930 . S
C663 C658 1.390 . S
C663 C662 1.387 . S
H664 C676 0.930 . S
H665 C678 0.930 . S
H666 C679 0.930 . S
H667 C683 0.959 . S
H668 C683 0.959 1_545 S
H669 C683 0.961 . S
H670 C684 0.960 1_565 S
H671 C684 0.961 . S
H672 C684 0.959 . S
H673 C687 0.929 . S
H674 C688 0.931 . S
H675 C690 0.930 . S
C676 H664 0.930 . S
C676 C677 1.399 . S
C676 C681 1.399 . S
C677 C676 1.399 . S
C677 C678 1.376 . S
C678 H665 0.930 . S
C678 C677 1.376 . S
C678 C679 1.388 . S
C679 H666 0.930 . S
C679 C678 1.388 . S
C679 C680 1.390 . S
C680 C679 1.390 . S
C680 C681 1.394 . S
C680 C686 1.465 1_565 S
C681 C676 1.399 . S
C681 C680 1.394 . S
C681 C682 1.516 1_565 S
C682 C681 1.516 1_545 S
C682 C683 1.502 1_545 S
C682 C684 1.561 . S
C682 C685 1.526 . S
C683 H667 0.959 . S
C683 H668 0.959 1_565 S
C683 H669 0.961 . S
C683 C682 1.502 1_565 S
C684 H670 0.960 1_545 S
C684 H671 0.961 . S
C684 H672 0.959 . S
C684 C682 1.561 . S
C685 C682 1.526 . S
C685 C686 1.396 . S
C685 C690 1.390 . S
C686 C680 1.465 1_545 S
C686 C685 1.396 . S
C686 C687 1.399 . S
C687 H673 0.929 . S
C687 C686 1.399 . S
C687 C688 1.385 . S
C688 H674 0.931 . S
C688 C687 1.385 . S
C688 C689 1.389 . S
C689 C688 1.389 . S
C689 C690 1.387 . S
C690 H675 0.930 . S
C690 C685 1.390 . S
C690 C689 1.387 . S
H691 C703 0.930 . S
H692 C705 0.930 . S
H693 C706 0.930 . S
H694 C710 0.959 . S
H695 C710 0.959 . S
H696 C710 0.961 . S
H697 C711 0.960 . S
H698 C711 0.961 . S
H699 C711 0.959 . S
H700 C714 0.929 . S
H701 C715 0.931 . S
H702 C717 0.930 . S
C703 H691 0.930 . S
C703 C704 1.399 . S
C703 C708 1.399 . S
C704 C703 1.399 . S
C704 C705 1.376 . S
C705 H692 0.930 . S
C705 C704 1.376 . S
C705 C706 1.388 . S
C706 H693 0.930 . S
C706 C705 1.388 . S
C706 C707 1.372 1_545 S
C707 C706 1.372 1_565 S
C707 C708 1.389 1_565 S
C707 C713 1.488 . S
C708 C703 1.399 . S
C708 C707 1.389 1_545 S
C708 C709 1.516 1_545 S
C709 C708 1.516 1_565 S
C709 C710 1.502 . S
C709 C711 1.561 . S
C709 C712 1.526 . S
C710 H694 0.959 . S
C710 H695 0.959 . S
C710 H696 0.961 . S
C710 C709 1.502 . S
C711 H697 0.960 . S
C711 H698 0.961 . S
C711 H699 0.959 . S
C711 C709 1.561 . S
C712 C709 1.526 . S
C712 C713 1.396 . S
C712 C717 1.390 . S
C713 C707 1.488 . S
C713 C712 1.396 . S
C713 C714 1.399 . S
C714 H700 0.929 . S
C714 C713 1.399 . S
C714 C715 1.385 . S
C715 H701 0.931 . S
C715 C714 1.385 . S
C715 C716 1.389 . S
C716 C715 1.389 . S
C716 C717 1.387 . S
C717 H702 0.930 . S
C717 C712 1.390 . S
C717 C716 1.387 . S
H718 C730 0.930 . S
H719 C732 0.930 . S
H720 C733 0.930 . S
H721 C737 0.959 . S
H722 C737 0.959 . S
H723 C737 0.973 . S
H724 C738 0.960 . S
H725 C738 0.961 . S
H726 C738 0.959 . S
H727 C741 0.929 . S
H728 C742 0.931 . S
H729 C744 0.930 . S
C730 H718 0.930 . S
C730 C731 1.399 . S
C730 C735 1.399 . S
C731 C730 1.399 . S
C731 C732 1.376 . S
C732 H719 0.930 . S
C732 C731 1.376 . S
C732 C733 1.388 . S
C733 H720 0.930 . S
C733 C732 1.388 . S
C733 C734 1.390 1_545 S
C734 C733 1.390 1_565 S
C734 C735 1.394 1_565 S
C734 C740 1.465 . S
C735 C730 1.399 . S
C735 C734 1.394 1_545 S
C735 C736 1.516 1_545 S
C736 C735 1.516 1_565 S
C736 C737 1.502 . S
C736 C738 1.561 . S
C736 C739 1.526 . S
C737 H721 0.959 . S
C737 H722 0.959 . S
C737 H723 0.973 . S
C737 C736 1.502 . S
C738 H724 0.960 . S
C738 H725 0.961 . S
C738 H726 0.959 . S
C738 C736 1.561 . S
C739 C736 1.526 . S
C739 C740 1.396 . S
C739 C744 1.390 . S
C740 C734 1.465 . S
C740 C739 1.396 . S
C740 C741 1.399 . S
C741 H727 0.929 . S
C741 C740 1.399 . S
C741 C742 1.385 . S
C742 H728 0.931 . S
C742 C741 1.385 . S
C742 C743 1.389 . S
C743 C742 1.389 . S
C743 C744 1.387 . S
C744 H729 0.930 . S
C744 C739 1.390 . S
C744 C743 1.387 . S
H745 C757 0.930 . S
H746 C759 0.930 . S
H747 C760 0.930 . S
H748 C764 0.959 . S
H749 C764 0.959 . S
H750 C764 0.961 . S
H751 C765 0.960 . S
H752 C765 0.961 1_545 S
H753 C765 0.959 1_545 S
H754 C768 0.929 . S
H755 C769 0.931 . S
H756 C771 0.930 . S
C757 H745 0.930 . S
C757 C758 1.399 . S
C757 C762 1.399 . S
C758 C757 1.399 . S
C758 C759 1.376 . S
C759 H746 0.930 . S
C759 C758 1.376 . S
C759 C760 1.388 . S
C760 H747 0.930 . S
C760 C759 1.388 . S
C760 C761 1.390 . S
C761 C760 1.390 . S
C761 C762 1.394 . S
C761 C767 1.465 1_565 S
C762 C757 1.399 . S
C762 C761 1.394 . S
C762 C763 1.516 . S
C763 C762 1.516 . S
C763 C764 1.502 . S
C763 C765 1.561 . S
C763 C766 1.526 1_565 S
C764 H748 0.959 . S
C764 H749 0.959 . S
C764 H750 0.961 . S
C764 C763 1.502 . S
C765 H751 0.960 . S
C765 H752 0.961 1_565 S
C765 H753 0.959 1_565 S
C765 C763 1.561 . S
C766 C763 1.526 1_545 S
C766 C767 1.396 . S
C766 C771 1.390 . S
C767 C761 1.465 1_545 S
C767 C766 1.396 . S
C767 C768 1.399 . S
C768 H754 0.929 . S
C768 C767 1.399 . S
C768 C769 1.385 . S
C769 H755 0.931 . S
C769 C768 1.385 . S
C769 C770 1.389 . S
C770 C769 1.389 . S
C770 C771 1.387 . S
C771 H756 0.930 . S
C771 C766 1.390 . S
C771 C770 1.387 . S
H772 C784 0.959 . S
H773 C786 0.930 1_554 S
H774 C787 0.930 . S
H775 C791 0.959 . S
H776 C791 0.959 . S
H777 C791 0.961 . S
H778 C792 0.960 . S
H779 C792 0.961 . S
H780 C792 0.959 . S
H781 C795 0.929 . S
H782 C796 0.931 . S
H783 C798 0.930 . S
C784 H772 0.959 . S
C784 C785 1.399 1_556 S
C784 C789 1.399 . S
C785 C784 1.399 1_554 S
C785 C786 1.376 1_554 S
C786 H773 0.930 1_556 S
C786 C785 1.376 1_556 S
C786 C787 1.388 . S
C787 H774 0.930 . S
C787 C786 1.388 . S
C787 C788 1.390 . S
C788 C787 1.390 . S
C788 C789 1.394 . S
C788 C794 1.465 . S
C789 C784 1.399 . S
C789 C788 1.394 . S
C789 C790 1.516 . S
C790 C789 1.516 . S
C790 C791 1.502 . S
C790 C792 1.561 . S
C790 C793 1.526 . S
C791 H775 0.959 . S
C791 H776 0.959 . S
C791 H777 0.961 . S
C791 C790 1.502 . S
C792 H778 0.960 . S
C792 H779 0.961 . S
C792 H780 0.959 . S
C792 C790 1.561 . S
C793 C790 1.526 . S
C793 C794 1.396 . S
C793 C798 1.390 . S
C794 C788 1.465 . S
C794 C793 1.396 . S
C794 C795 1.399 . S
C795 H781 0.929 . S
C795 C794 1.399 . S
C795 C796 1.385 . S
C796 H782 0.931 . S
C796 C795 1.385 . S
C796 C797 1.389 . S
C797 C796 1.389 . S
C797 C798 1.387 . S
C798 H783 0.930 . S
C798 C793 1.390 . S
C798 C797 1.387 . S
H799 C811 0.930 . S
H800 C813 0.930 . S
H801 C814 0.930 . S
H802 C818 0.959 . S
H803 C818 0.959 . S
H804 C818 0.961 . S
H805 C819 0.960 . S
H806 C819 0.961 . S
H807 C819 0.959 . S
H808 C822 0.929 . S
H809 C823 0.931 . S
H810 C825 0.930 . S
C811 H799 0.930 . S
C811 C812 1.399 . S
C811 C816 1.399 . S
C812 C811 1.399 . S
C812 C813 1.376 . S
C813 H800 0.930 . S
C813 C812 1.376 . S
C813 C814 1.388 . S
C814 H801 0.930 . S
C814 C813 1.388 . S
C814 C815 1.390 . S
C815 C814 1.390 . S
C815 C816 1.394 . S
C815 C821 1.465 . S
C816 C811 1.399 . S
C816 C815 1.394 . S
C816 C817 1.516 . S
C817 C816 1.516 . S
C817 C818 1.502 . S
C817 C819 1.561 . S
C817 C820 1.526 . S
C818 H802 0.959 . S
C818 H803 0.959 . S
C818 H804 0.961 . S
C818 C817 1.502 . S
C819 H805 0.960 . S
C819 H806 0.961 . S
C819 H807 0.959 . S
C819 C817 1.561 . S
C820 C817 1.526 . S
C820 C821 1.396 . S
C820 C825 1.390 . S
C821 C815 1.465 . S
C821 C820 1.396 . S
C821 C822 1.399 . S
C822 H808 0.929 . S
C822 C821 1.399 . S
C822 C823 1.385 . S
C823 H809 0.931 . S
C823 C822 1.385 . S
C823 C824 1.389 . S
C824 C823 1.389 . S
C824 C825 1.387 . S
C825 H810 0.930 . S
C825 C820 1.390 . S
C825 C824 1.387 . S
H826 C838 0.930 . S
H827 C840 0.930 . S
H828 C841 0.930 . S
H829 C845 0.959 . S
H830 C845 0.959 . S
H831 C845 0.961 . S
H832 C846 0.960 . S
H833 C846 0.961 . S
H834 C846 0.959 . S
H835 C849 0.929 . S
H836 C850 0.931 . S
H837 C852 0.930 . S
C838 H826 0.930 . S
C838 C839 1.399 . S
C838 C843 1.399 . S
C839 C838 1.399 . S
C839 C840 1.376 . S
C840 H827 0.930 . S
C840 C839 1.376 . S
C840 C841 1.388 . S
C841 H828 0.930 . S
C841 C840 1.388 . S
C841 C842 1.390 . S
C842 C841 1.390 . S
C842 C843 1.394 . S
C842 C848 1.465 . S
C843 C838 1.399 . S
C843 C842 1.394 . S
C843 C844 1.516 . S
C844 C843 1.516 . S
C844 C845 1.502 . S
C844 C846 1.561 . S
C844 C847 1.526 . S
C845 H829 0.959 . S
C845 H830 0.959 . S
C845 H831 0.961 . S
C845 C844 1.502 . S
C846 H832 0.960 . S
C846 H833 0.961 . S
C846 H834 0.959 . S
C846 C844 1.561 . S
C847 C844 1.526 . S
C847 C848 1.396 . S
C847 C852 1.390 . S
C848 C842 1.465 . S
C848 C847 1.396 . S
C848 C849 1.399 . S
C849 H835 0.929 . S
C849 C848 1.399 . S
C849 C850 1.385 . S
C850 H836 0.931 . S
C850 C849 1.385 . S
C850 C851 1.389 . S
C851 C850 1.389 . S
C851 C852 1.387 . S
C852 H837 0.930 . S
C852 C847 1.390 . S
C852 C851 1.387 . S
H853 C865 0.930 . S
H854 C867 0.930 . S
H855 C868 0.930 . S
H856 C872 0.959 . S
H857 C872 0.959 . S
H858 C872 0.961 . S
H859 C873 0.960 . S
H860 C873 0.961 . S
H861 C873 0.959 . S
H862 C876 0.929 . S
H863 C877 0.931 . S
H864 C879 0.930 . S
C865 H853 0.930 . S
C865 C866 1.399 . S
C865 C870 1.399 . S
C866 C865 1.399 . S
C866 C867 1.376 . S
C867 H854 0.930 . S
C867 C866 1.376 . S
C867 C868 1.388 . S
C868 H855 0.930 . S
C868 C867 1.388 . S
C868 C869 1.390 . S
C869 C868 1.390 . S
C869 C870 1.394 . S
C869 C875 1.465 . S
C870 C865 1.399 . S
C870 C869 1.394 . S
C870 C871 1.516 . S
C871 C870 1.516 . S
C871 C872 1.502 . S
C871 C873 1.561 . S
C871 C874 1.526 . S
C872 H856 0.959 . S
C872 H857 0.959 . S
C872 H858 0.961 . S
C872 C871 1.502 . S
C873 H859 0.960 . S
C873 H860 0.961 . S
C873 H861 0.959 . S
C873 C871 1.561 . S
C874 C871 1.526 . S
C874 C875 1.396 . S
C874 C879 1.390 . S
C875 C869 1.465 . S
C875 C874 1.396 . S
C875 C876 1.399 . S
C876 H862 0.929 . S
C876 C875 1.399 . S
C876 C877 1.385 . S
C877 H863 0.931 . S
C877 C876 1.385 . S
C877 C878 1.389 . S
C878 C877 1.389 . S
C878 C879 1.387 . S
C879 H864 0.930 . S
C879 C874 1.390 . S
C879 C878 1.387 . S
H880 C892 0.930 . S
H881 C894 0.900 1_556 S
H882 C895 0.930 . S
H883 C899 0.959 . S
H884 C899 0.959 . S
H885 C899 0.961 . S
H886 C900 0.960 . S
H887 C900 0.961 . S
H888 C900 0.959 . S
H889 C903 0.929 . S
H890 C904 0.931 . S
H891 C906 0.930 . S
C892 H880 0.930 . S
C892 C893 1.399 1_554 S
C892 C897 1.399 . S
C893 C892 1.399 1_556 S
C893 C894 1.358 1_556 S
C894 H881 0.900 1_554 S
C894 C893 1.358 1_554 S
C894 C895 1.438 . S
C895 H882 0.930 . S
C895 C894 1.438 . S
C895 C896 1.390 . S
C896 C895 1.390 . S
C896 C897 1.394 . S
C896 C902 1.465 . S
C897 C892 1.399 . S
C897 C896 1.394 . S
C897 C898 1.516 . S
C898 C897 1.516 . S
C898 C899 1.502 . S
C898 C900 1.561 . S
C898 C901 1.526 . S
C899 H883 0.959 . S
C899 H884 0.959 . S
C899 H885 0.961 . S
C899 C898 1.502 . S
C900 H886 0.960 . S
C900 H887 0.961 . S
C900 H888 0.959 . S
C900 C898 1.561 . S
C901 C898 1.526 . S
C901 C902 1.396 . S
C901 C906 1.390 . S
C902 C896 1.465 . S
C902 C901 1.396 . S
C902 C903 1.399 . S
C903 H889 0.929 . S
C903 C902 1.399 . S
C903 C904 1.385 . S
C904 H890 0.931 . S
C904 C903 1.385 . S
C904 C905 1.389 . S
C905 C904 1.389 . S
C905 C906 1.387 . S
C906 H891 0.930 . S
C906 C901 1.390 . S
C906 C905 1.387 . S
H907 C919 0.930 . S
H908 C921 0.930 . S
H909 C922 0.930 . S
H910 C926 0.959 . S
H911 C926 0.959 . S
H912 C926 0.961 . S
H913 C927 0.960 . S
H914 C927 0.961 . S
H915 C927 0.959 . S
H916 C930 0.929 . S
H917 C931 0.931 . S
H918 C933 0.930 . S
C919 H907 0.930 . S
C919 C920 1.399 . S
C919 C924 1.399 . S
C920 C919 1.399 . S
C920 C921 1.376 . S
C921 H908 0.930 . S
C921 C920 1.376 . S
C921 C922 1.388 . S
C922 H909 0.930 . S
C922 C921 1.388 . S
C922 C923 1.390 . S
C923 C922 1.390 . S
C923 C924 1.394 . S
C923 C929 1.465 . S
C924 C919 1.399 . S
C924 C923 1.394 . S
C924 C925 1.516 . S
C925 C924 1.516 . S
C925 C926 1.502 . S
C925 C927 1.561 . S
C925 C928 1.526 . S
C926 H910 0.959 . S
C926 H911 0.959 . S
C926 H912 0.961 . S
C926 C925 1.502 . S
C927 H913 0.960 . S
C927 H914 0.961 . S
C927 H915 0.959 . S
C927 C925 1.561 . S
C928 C925 1.526 . S
C928 C929 1.396 . S
C928 C933 1.390 . S
C929 C923 1.465 . S
C929 C928 1.396 . S
C929 C930 1.399 . S
C930 H916 0.929 . S
C930 C929 1.399 . S
C930 C931 1.385 . S
C931 H917 0.931 . S
C931 C930 1.385 . S
C931 C932 1.389 . S
C932 C931 1.389 . S
C932 C933 1.387 . S
C933 H918 0.930 . S
C933 C928 1.390 . S
C933 C932 1.387 . S
H934 C946 0.930 . S
H935 C948 0.930 . S
H936 C949 0.930 . S
H937 C953 0.959 . S
H938 C953 0.959 . S
H939 C953 0.961 . S
H940 C954 0.960 . S
H941 C954 0.961 . S
H942 C954 0.959 . S
H943 C957 0.929 . S
H944 C958 0.931 . S
H945 C960 0.930 . S
C946 H934 0.930 . S
C946 C947 1.399 . S
C946 C951 1.399 . S
C947 C946 1.399 . S
C947 C948 1.376 . S
C948 H935 0.930 . S
C948 C947 1.376 . S
C948 C949 1.388 . S
C949 H936 0.930 . S
C949 C948 1.388 . S
C949 C950 1.390 . S
C950 C949 1.390 . S
C950 C951 1.394 . S
C950 C956 1.465 . S
C951 C946 1.399 . S
C951 C950 1.394 . S
C951 C952 1.516 . S
C952 C951 1.516 . S
C952 C953 1.502 . S
C952 C954 1.561 . S
C952 C955 1.526 . S
C953 H937 0.959 . S
C953 H938 0.959 . S
C953 H939 0.961 . S
C953 C952 1.502 . S
C954 H940 0.960 . S
C954 H941 0.961 . S
C954 H942 0.959 . S
C954 C952 1.561 . S
C955 C952 1.526 . S
C955 C956 1.396 . S
C955 C960 1.390 . S
C956 C950 1.465 . S
C956 C955 1.396 . S
C956 C957 1.399 . S
C957 H943 0.929 . S
C957 C956 1.399 . S
C957 C958 1.385 . S
C958 H944 0.931 . S
C958 C957 1.385 . S
C958 C959 1.389 . S
C959 C958 1.389 . S
C959 C960 1.387 . S
C960 H945 0.930 . S
C960 C955 1.390 . S
C960 C959 1.387 . S
H961 C973 0.930 . S
H962 C975 0.930 . S
H963 C976 0.930 . S
H964 C980 0.959 . S
H965 C980 0.959 . S
H966 C980 0.961 . S
H967 C981 0.960 . S
H968 C981 0.961 . S
H969 C981 0.959 . S
H970 C984 0.929 . S
H971 C985 0.931 . S
H972 C987 0.930 . S
C973 H961 0.930 . S
C973 C974 1.399 . S
C973 C978 1.399 . S
C974 C973 1.399 . S
C974 C975 1.376 . S
C975 H962 0.930 . S
C975 C974 1.376 . S
C975 C976 1.388 . S
C976 H963 0.930 . S
C976 C975 1.388 . S
C976 C977 1.390 . S
C977 C976 1.390 . S
C977 C978 1.394 . S
C977 C983 1.465 . S
C978 C973 1.399 . S
C978 C977 1.394 . S
C978 C979 1.516 . S
C979 C978 1.516 . S
C979 C980 1.502 . S
C979 C981 1.561 . S
C979 C982 1.526 . S
C980 H964 0.959 . S
C980 H965 0.959 . S
C980 H966 0.961 . S
C980 C979 1.502 . S
C981 H967 0.960 . S
C981 H968 0.961 . S
C981 H969 0.959 . S
C981 C979 1.561 . S
C982 C979 1.526 . S
C982 C983 1.396 . S
C982 C987 1.390 . S
C983 C977 1.465 . S
C983 C982 1.396 . S
C983 C984 1.399 . S
C984 H970 0.929 . S
C984 C983 1.399 . S
C984 C985 1.385 . S
C985 H971 0.931 . S
C985 C984 1.385 . S
C985 C986 1.389 . S
C986 C985 1.389 . S
C986 C987 1.387 . S
C987 H972 0.930 . S
C987 C982 1.390 . S
C987 C986 1.387 . S
C365 C263 1.413 . S
C353 C17 1.630 . S
C392 C281 1.225 . S
C380 C55 1.357 . S
C407 C87 1.405 . S
C419 C305 1.332 . S
C446 C335 1.295 1_655 S
C434 C113 1.440 . S
C473 C323 1.341 . S
C461 C145 1.380 . S
C488 C177 1.409 . S
C500 C276 1.289 1_655 S
C515 C215 1.568 . S
C527 C296 1.494 . S
C542 C247 1.438 1_655 S
C554 C301 1.235 . S
C569 C241 1.378 . S
C581 C317 1.345 . S
C596 C183 1.378 . S
C608 C272 1.334 . S
C635 C339 1.267 . S
C623 C119 1.335 . S
C662 C284 1.343 . S
C650 C49 1.450 . S
C677 C81 1.606 . S
C689 C302 1.521 . S
C704 C23 1.410 . S
C716 C260 1.354 . S
C743 C280 1.341 . S
C731 C209 1.376 . S
C770 C326 1.503 . S
C758 C151 1.573 . S
C797 C322 1.250 . S
C785 C29 1.494 . S
C824 C275 1.402 . S
C812 C61 1.383 . S
C839 C93 1.456 . S
C851 C297 1.324 . S
C866 C125 1.377 . S
C878 C318 1.341 . S
C905 C259 1.355 . S
C893 C157 1.464 . S
C920 C189 1.472 . S
C932 C293 1.433 . S
C959 C314 1.336 . S
C947 C221 1.403 . S
C986 C338 1.326 . S
C974 C253 1.458 . S
