# Generated by pormake.
# Topology tsx, (6,3)-cn, num edge types: 1
# Building blocks:
#     Node 0, Type 0, BuildingBlock: FUNLAD_clean_sbu_0, # of connection points: 6
#     Node 1, Type 0, BuildingBlock: FUNLAD_clean_sbu_0, # of connection points: 6
#     Node 2, Type 1, BuildingBlock: INOVEN_clean_linker_0, # of connection points: 3
#     Node 3, Type 1, BuildingBlock: INOVEN_clean_linker_0, # of connection points: 3
#     Node 4, Type 1, BuildingBlock: INOVEN_clean_linker_0, # of connection points: 3
#     Node 5, Type 1, BuildingBlock: INOVEN_clean_linker_0, # of connection points: 3
#     Edge 6, Type (0, 1), BuildingBlock: UVAHIK_clean_linker_0, # of connection points: 2
#     Edge 7, Type (0, 1), BuildingBlock: UVAHIK_clean_linker_0, # of connection points: 2
#     Edge 8, Type (0, 1), BuildingBlock: UVAHIK_clean_linker_0, # of connection points: 2
#     Edge 9, Type (0, 1), BuildingBlock: UVAHIK_clean_linker_0, # of connection points: 2
#     Edge 10, Type (0, 1), BuildingBlock: UVAHIK_clean_linker_0, # of connection points: 2
#     Edge 11, Type (0, 1), BuildingBlock: UVAHIK_clean_linker_0, # of connection points: 2
#     Edge 12, Type (0, 1), BuildingBlock: UVAHIK_clean_linker_0, # of connection points: 2
#     Edge 13, Type (0, 1), BuildingBlock: UVAHIK_clean_linker_0, # of connection points: 2
#     Edge 14, Type (0, 1), BuildingBlock: UVAHIK_clean_linker_0, # of connection points: 2
#     Edge 15, Type (0, 1), BuildingBlock: UVAHIK_clean_linker_0, # of connection points: 2
#     Edge 16, Type (0, 1), BuildingBlock: UVAHIK_clean_linker_0, # of connection points: 2
#     Edge 17, Type (0, 1), BuildingBlock: UVAHIK_clean_linker_0, # of connection points: 2
# Relax obj value: 0.101
# Max RMSD: 0.111
# Mean RMSD: 0.102
data_MOF--net-tsx--node1-FUNLAD_clean_sbu_0--node2-INOVEN_clean_linker_0--edge1-UVAHIK_clean_linker_0
_symmetry_space_group_name_H-M    P1
_symmetry_Int_Tables_number       1
_symmetry_cell_setting            triclinic
loop_
_symmetry_equiv_pos_as_xyz
'x, y, z'
_cell_length_a     25.164786
_cell_length_b     28.254636
_cell_length_c     49.237965
_cell_angle_alpha  90.836634
_cell_angle_beta   100.76095
_cell_angle_gamma 89.615435
loop_
_atom_site_label
_atom_site_type_symbol
_atom_site_fract_x
_atom_site_fract_y
_atom_site_fract_z
_atom_type_partial_charge
C0 C 0.94181 0.9403 0.00604 0.0
N1 N 0.04601 0.00905 0.0705 0.0
C2 C 0.00485 0.01665 0.0845 0.0
C3 C 0.01517 0.01919 0.11329 0.0
C4 C 0.06808 0.01274 0.12777 0.0
C5 C 0.10968 0.00371 0.11303 0.0
C6 C 0.09777 0.00252 0.08414 0.0
Zn7 Zn 0.02887 0.0095 0.02828 0.0
C8 C 0.09603 0.94206 0.00282 0.0
N9 N 0.98987 0.01186 0.94041 0.0
C10 C 0.93814 0.00765 0.9263 0.0
C11 C 0.03148 0.02034 0.92704 0.0
C12 C 0.02167 0.02652 0.89851 0.0
C13 C 0.96871 0.02303 0.88353 0.0
C14 C 0.92665 0.01269 0.89758 0.0
Zn15 Zn 0.00673 0.0096 0.98259 0.0
O16 O 0.96738 0.95944 0.02813 0.0
C17 C 0.93954 0.07716 0.00761 0.0
O18 O 0.95177 0.9529 0.98282 0.0
H19 H 0.07237 0.02308 0.93856 0.0
H20 H 0.96391 0.02115 0.07333 0.0
H21 H 0.90564 0.00118 0.93736 0.0
O22 O 0.972 0.06538 0.02944 0.0
O23 O 0.94396 0.05805 0.98464 0.0
H24 H 0.12994 -0.00317 0.07263 0.0
O25 O 0.06202 0.06653 0.98325 0.0
O26 O 0.0902 0.05918 0.02792 0.0
O27 O 0.06971 0.96084 0.98107 0.0
O28 O 0.08547 0.95409 0.02622 0.0
C29 C 0.09404 0.07867 0.00531 0.0
H30 H 0.98215 0.02579 0.12418 0.0
H31 H 0.15098 -0.00136 0.12372 0.0
H32 H 0.05517 0.03379 0.88823 0.0
H33 H 0.88528 0.00976 0.88658 0.0
C34 C 0.43105 0.41713 0.49794 0.0
N35 N 0.52297 0.48793 0.566 0.0
C36 C 0.47955 0.48237 0.57844 0.0
C37 C 0.48594 0.48357 0.60715 0.0
C38 C 0.53743 0.49117 0.62333 0.0
C39 C 0.58178 0.49585 0.60996 0.0
C40 C 0.5736 0.49399 0.58111 0.0
Zn41 Zn 0.50964 0.49066 0.52398 0.0
C42 C 0.58589 0.43157 0.49937 0.0
N43 N 0.47823 0.49902 0.43617 0.0
C44 C 0.42769 0.49122 0.42129 0.0
C45 C 0.51994 0.51091 0.42358 0.0
C46 C 0.51139 0.51636 0.395 0.0
C47 C 0.45975 0.50851 0.37924 0.0
C48 C 0.41763 0.49531 0.39256 0.0
Zn49 Zn 0.49208 0.49489 0.47821 0.0
O50 O 0.45459 0.43378 0.52116 0.0
C51 C 0.41621 0.55443 0.50279 0.0
O52 O 0.44011 0.43548 0.47585 0.0
H53 H 0.55991 0.51648 0.43572 0.0
H54 H 0.43963 0.47774 0.56606 0.0
H55 H 0.39502 0.48217 0.43172 0.0
O56 O 0.44591 0.54025 0.52495 0.0
O57 O 0.42577 0.54004 0.47962 0.0
H58 H 0.60754 0.49838 0.57077 0.0
O59 O 0.54394 0.5546 0.48117 0.0
O60 O 0.56479 0.54706 0.52613 0.0
O61 O 0.55906 0.44947 0.47743 0.0
O62 O 0.57308 0.44174 0.52255 0.0
C63 C 0.57087 0.56821 0.50435 0.0
H64 H 0.45074 0.47879 0.61653 0.0
H65 H 0.62213 0.50215 0.62157 0.0
H66 H 0.5449 0.52607 0.38527 0.0
H67 H 0.37725 0.4891 0.38091 0.0
H68 H 0.04743 0.98536 0.49314 0.0
H69 H 0.1174 0.93401 0.42514 0.0
H70 H 0.03426 0.06783 0.41938 0.0
N71 N 0.0085 0.06591 0.46983 0.0
N72 N 0.00011 0.10581 0.45934 0.0
C73 C 0.0563 0.99022 0.47267 0.0
C74 C 0.08375 0.9548 0.46052 0.0
C75 C 0.03913 0.03149 0.45805 0.0
C76 C 0.04968 0.03698 0.43114 0.0
C77 C 0.07742 0.00186 0.41882 0.0
C78 C 0.09495 0.9612 0.43397 0.0
H79 H 0.97043 0.97496 0.51774 0.0
H80 H 0.90318 0.94775 0.5899 0.0
H81 H 0.0081 0.06697 0.58909 0.0
N82 N 0.02409 0.05249 0.5372 0.0
N83 N 0.03353 0.09494 0.54343 0.0
C84 C 0.96572 0.98457 0.53854 0.0
C85 C 0.93466 0.9562 0.55265 0.0
C86 C 0.99126 0.02515 0.55142 0.0
C87 C 0.98626 0.03688 0.57877 0.0
C88 C 0.95555 0.00849 0.59318 0.0
C89 C 0.92885 0.96901 0.57955 0.0
H90 H 0.56586 0.50245 -0.00363 0.0
H91 H 0.60549 0.43469 0.92392 0.0
H92 H 0.53201 0.57238 0.91779 0.0
N93 N 0.51908 0.57851 0.97086 0.0
N94 N 0.50584 0.61607 0.95835 0.0
C95 C 0.5669 0.50291 0.97451 0.0
C96 C 0.58757 0.46385 0.96192 0.0
C97 C 0.54618 0.54202 0.95867 0.0
C98 C 0.54864 0.54269 0.93033 0.0
C99 C 0.56972 0.50399 0.91768 0.0
C100 C 0.58886 0.46468 0.93358 0.0
H101 H 0.48756 0.48999 0.01408 0.0
H102 H 0.41434 0.44284 0.0808 0.0
H103 H 0.51155 0.56862 0.09092 0.0
N104 N 0.53594 0.56586 0.04005 0.0
N105 N 0.54999 0.604 0.05227 0.0
C106 C 0.48021 0.49493 0.03489 0.0
C107 C 0.44946 0.46176 0.04598 0.0
C108 C 0.50231 0.53387 0.05095 0.0
C109 C 0.49282 0.53956 0.07814 0.0
C110 C 0.46131 0.50686 0.0893 0.0
C111 C 0.4394 0.46827 0.07283 0.0
C112 C 0.18332 0.11405 0.02514 0.0
C113 C 0.13646 0.11403 0.00463 0.0
C114 C 0.22357 0.14756 0.02491 0.0
C115 C 0.27116 0.2408 0.9821 0.0
H116 H 0.33909 0.28866 0.05435 0.0
C117 C 0.38352 0.4204 0.00938 0.0
C118 C 0.42904 0.41855 0.03067 0.0
C119 C 0.35477 0.37898 0.00057 0.0
C120 C 0.32109 0.27516 0.03402 0.0
H121 H 0.0951 0.14832 0.96748 0.0
H122 H 0.16422 0.20873 0.96785 0.0
H123 H 0.27335 0.22577 0.051 0.0
H124 H 0.48363 0.37268 0.05767 0.0
H125 H 0.43382 0.30031 0.04219 0.0
H126 H 0.31759 0.29294 0.9654 0.0
C127 C 0.17075 0.18201 0.98368 0.0
C128 C 0.28344 0.2389 0.03206 0.0
C129 C 0.13089 0.14771 0.98359 0.0
C130 C 0.44854 0.37464 0.04119 0.0
C131 C 0.42 0.33344 0.03243 0.0
C132 C 0.30845 0.27788 0.9841 0.0
C133 C 0.21735 0.18266 0.00455 0.0
C134 C 0.25809 0.22099 0.00612 0.0
C135 C 0.37136 0.33563 0.01314 0.0
C136 C 0.33389 0.29508 0.01013 0.0
H137 H 0.18913 0.08786 0.0413 0.0
H138 H 0.25953 0.14599 0.04085 0.0
H139 H 0.25281 0.22761 0.96178 0.0
H140 H 0.36775 0.45415 0.00125 0.0
H141 H 0.31723 0.38151 0.98575 0.0
C142 C 0.16058 0.9046 0.97625 0.0
C143 C 0.13979 0.90793 0.00075 0.0
C144 C 0.20263 0.87328 0.97411 0.0
C145 C 0.31115 0.80087 0.01566 0.0
H146 H 0.31035 0.73997 0.94448 0.0
C147 C 0.45135 0.64524 0.99205 0.0
C148 C 0.47446 0.65166 0.96846 0.0
C149 C 0.41428 0.67835 -0.00107 0.0
C150 C 0.31121 0.75699 0.96442 0.0
H151 H 0.14662 0.88102 0.04227 0.0
H152 H 0.21904 0.82478 0.03821 0.0
H153 H 0.23581 0.79172 0.95051 0.0
H154 H 0.47917 0.69754 0.9344 0.0
H155 H 0.41367 0.75527 0.94609 0.0
H156 H 0.3863 0.76435 0.02953 0.0
C157 C 0.20365 0.84724 0.02085 0.0
C158 C 0.26866 0.78682 0.96789 0.0
C159 C 0.16191 0.87919 0.02312 0.0
C160 C 0.46176 0.69227 0.95265 0.0
C161 C 0.42432 0.72497 0.95927 0.0
C162 C 0.35349 0.77029 0.01225 0.0
C163 C 0.22443 0.84386 -0.00374 0.0
C164 C 0.26846 0.80985 0.99339 0.0
C165 C 0.39928 0.71768 0.98205 0.0
C166 C 0.3542 0.74879 0.98646 0.0
H167 H 0.14492 0.92675 0.95876 0.0
H168 H 0.21843 0.87261 0.95511 0.0
H169 H 0.31257 0.81829 0.03551 0.0
H170 H 0.45985 0.61378 0.00436 0.0
H171 H 0.39518 0.67191 0.01651 0.0
C172 C 0.88192 0.87309 0.98559 0.0
C173 C 0.90035 0.90435 0.00775 0.0
C174 C 0.84373 0.83832 0.988 0.0
C175 C 0.7854 0.77608 0.0416 0.0
H176 H 0.67063 0.74172 0.98047 0.0
C177 C 0.59517 0.67948 0.05718 0.0
C178 C 0.58527 0.63629 0.043 0.0
C179 C 0.63284 0.71096 0.05038 0.0
C180 C 0.70281 0.75087 -0.00243 0.0
H181 H 0.89178 0.92509 0.0493 0.0
H182 H 0.82423 0.86615 0.05313 0.0
H183 H 0.73878 0.79964 0.97349 0.0
H184 H 0.60675 0.59157 0.01049 0.0
H185 H 0.67147 0.64782 -0.00229 0.0
H186 H 0.7481 0.72883 0.0659 0.0
C187 C 0.84047 0.86692 0.03427 0.0
C188 C 0.74192 0.78378 0.99362 0.0
C189 C 0.87901 0.90102 0.03202 0.0
C190 C 0.61265 0.62526 0.02127 0.0
C191 C 0.64981 0.65721 0.01408 0.0
C192 C 0.74596 0.74396 0.04562 0.0
C193 C 0.82288 0.83462 0.0125 0.0
C194 C 0.78321 0.79734 0.01576 0.0
C195 C 0.66088 0.69984 0.029 0.0
C196 C 0.70402 0.73159 0.02378 0.0
H197 H 0.89775 0.87489 0.96663 0.0
H198 H 0.83138 0.81384 0.9709 0.0
H199 H 0.81744 0.78448 0.05891 0.0
H200 H 0.5745 0.68827 0.07403 0.0
H201 H 0.64068 0.74377 0.06207 0.0
C202 C 0.84894 0.1108 0.98867 0.0
C203 C 0.89644 0.11222 0.00874 0.0
C204 C 0.80869 0.14486 0.98875 0.0
C205 C 0.76302 0.2445 0.02979 0.0
H206 H 0.6953 0.28567 0.95665 0.0
C207 C 0.65323 0.42416 -0.0009 0.0
C208 C 0.60796 0.42139 0.97764 0.0
C209 C 0.68133 0.3829 0.00868 0.0
C210 C 0.71321 0.2741 0.97724 0.0
H211 H 0.93875 0.14936 0.04512 0.0
H212 H 0.86958 0.21071 0.04444 0.0
H213 H 0.75978 0.22114 0.96125 0.0
H214 H 0.55262 0.37403 0.95156 0.0
H215 H 0.60133 0.30209 0.96837 0.0
H216 H 0.71779 0.30017 0.04543 0.0
C217 C 0.86258 0.18251 0.02908 0.0
C218 C 0.75013 0.23688 0.97993 0.0
C219 C 0.90244 0.14764 0.02937 0.0
C220 C 0.58784 0.37687 0.96794 0.0
C221 C 0.61569 0.33585 0.9775 0.0
C222 C 0.72643 0.28253 0.02705 0.0
C223 C 0.81559 0.18199 0.00845 0.0
C224 C 0.77541 0.2213 0.00619 0.0
C225 C 0.66424 0.33871 -0.00316 0.0
C226 C 0.70103 0.29737 0.0007 0.0
H227 H 0.84283 0.08327 0.97286 0.0
H228 H 0.77238 0.14232 0.97306 0.0
H229 H 0.78139 0.23325 0.05035 0.0
H230 H 0.66937 0.45826 0.00679 0.0
H231 H 0.71874 0.38596 0.02358 0.0
C232 C 0.61044 0.63676 0.48321 0.0
C233 C 0.60978 0.60754 0.50601 0.0
C234 C 0.6473 0.67407 0.48509 0.0
C235 C 0.73515 0.74848 0.53747 0.0
H236 H 0.80595 0.7814 0.47677 0.0
C237 C 0.91538 0.87062 0.5557 0.0
C238 C 0.90841 0.91232 0.54027 0.0
C239 C 0.88213 0.8318 0.5477 0.0
C240 C 0.78615 0.77258 0.49376 0.0
H241 H 0.64828 0.59354 0.54834 0.0
H242 H 0.71323 0.65737 0.55139 0.0
H243 H 0.73994 0.71673 0.47084 0.0
H244 H 0.86476 0.94497 0.50313 0.0
H245 H 0.8062 0.87614 0.48883 0.0
H246 H 0.78213 0.8033 0.56058 0.0
C247 C 0.68434 0.65264 0.5323 0.0
C248 C 0.74826 0.73581 0.4904 0.0
C249 C 0.64723 0.61581 0.53052 0.0
C250 C 0.87082 0.91309 0.5153 0.0
C251 C 0.8374 0.87391 0.50719 0.0
C252 C 0.77327 0.78456 0.5409 0.0
C253 C 0.68449 0.68262 0.50974 0.0
C254 C 0.72287 0.72295 0.5124 0.0
C255 C 0.84137 0.83383 0.52404 0.0
C256 C 0.79963 0.79656 0.51925 0.0
H257 H 0.58204 0.63119 0.46401 0.0
H258 H 0.64595 0.6967 0.46741 0.0
H259 H 0.71529 0.74062 0.55458 0.0
H260 H 0.94465 0.86902 0.57485 0.0
H261 H 0.88649 0.80096 0.56077 0.0
C262 C 0.65718 0.40047 0.47476 0.0
C263 C 0.63183 0.39955 0.49782 0.0
C264 C 0.70038 0.37009 0.47301 0.0
C265 C 0.80092 0.28909 0.51452 0.0
H266 H 0.81215 0.24049 0.44174 0.0
C267 C 0.93619 0.13083 0.48938 0.0
C268 C 0.96681 0.14042 0.46894 0.0
C269 C 0.8992 0.16442 0.49588 0.0
C270 C 0.80964 0.25406 0.46216 0.0
H271 H 0.63175 0.36629 0.5372 0.0
H272 H 0.70566 0.31163 0.53362 0.0
H273 H 0.73845 0.29388 0.4468 0.0
H274 H 0.98452 0.19198 0.44007 0.0
H275 H 0.91892 0.25045 0.4509 0.0
H276 H 0.87148 0.24712 0.52973 0.0
C277 C 0.69335 0.33673 0.51721 0.0
C278 C 0.76761 0.28493 0.4651 0.0
C279 C 0.6507 0.36782 0.5192 0.0
C280 C 0.9612 0.18422 0.45586 0.0
C281 C 0.92379 0.21739 0.462 0.0
C282 C 0.84255 0.25739 0.51159 0.0
C283 C 0.7186 0.3373 0.494 0.0
C284 C 0.76295 0.30338 0.49126 0.0
C285 C 0.8917 0.2074 0.48164 0.0
C286 C 0.84751 0.24012 0.48533 0.0
H287 H 0.64401 0.42505 0.45814 0.0
H288 H 0.71961 0.37259 0.45516 0.0
H289 H 0.7991 0.30293 0.53495 0.0
H290 H 0.93932 0.09697 0.49955 0.0
H291 H 0.8746 0.1559 0.51098 0.0
C292 C 0.3554 0.36717 0.47237 0.0
C293 C 0.39223 0.37783 0.49684 0.0
C294 C 0.31639 0.332 0.47203 0.0
C295 C 0.28331 0.22727 0.50919 0.0
H296 H 0.13358 0.26226 0.48235 0.0
C297 C 0.06605 0.17168 0.53282 0.0
C298 C 0.06873 0.12236 0.53073 0.0
C299 C 0.10309 0.19987 0.52268 0.0
C300 C 0.17525 0.25189 0.48971 0.0
H301 H 0.41816 0.35903 0.53987 0.0
H302 H 0.35061 0.29742 0.53914 0.0
H303 H 0.20586 0.31643 0.47637 0.0
H304 H 0.11149 0.06317 0.51609 0.0
H305 H 0.17685 0.11246 0.49848 0.0
H306 H 0.25279 0.16351 0.52337 0.0
C307 C 0.35185 0.31622 0.52025 0.0
C308 C 0.21656 0.28269 0.48612 0.0
C309 C 0.39029 0.35172 0.5207 0.0
C310 C 0.10835 0.10129 0.51773 0.0
C311 C 0.14583 0.12944 0.50781 0.0
C312 C 0.24207 0.19629 0.51252 0.0
C313 C 0.3141 0.30639 0.49603 0.0
C314 C 0.27091 0.27118 0.49647 0.0
C315 C 0.14411 0.179 0.51062 0.0
C316 C 0.18758 0.20881 0.50343 0.0
H317 H 0.35585 0.38677 0.45367 0.0
H318 H 0.28786 0.32496 0.45306 0.0
H319 H 0.32491 0.21739 0.51716 0.0
H320 H 0.03577 0.1883 0.54284 0.0
H321 H 0.10112 0.23791 0.52542 0.0
C322 C 0.37475 0.62078 0.52598 0.0
C323 C 0.37209 0.58862 0.50375 0.0
C324 C 0.33553 0.65629 0.52536 0.0
C325 C 0.23488 0.72026 0.47418 0.0
H326 H 0.19168 0.77646 0.53912 0.0
C327 C 0.08004 0.86732 0.46115 0.0
C328 C 0.09974 0.90966 0.4744 0.0
C329 C 0.10478 0.82435 0.46945 0.0
C330 C 0.2034 0.76088 0.52087 0.0
H331 H 0.32457 0.56594 0.46448 0.0
H332 H 0.25482 0.62603 0.46395 0.0
H333 H 0.25115 0.70673 0.54399 0.0
H334 H 0.15727 0.94046 0.50806 0.0
H335 H 0.20117 0.86465 0.52272 0.0
H336 H 0.18723 0.77397 0.45108 0.0
C337 C 0.28829 0.62554 0.48132 0.0
C338 C 0.23763 0.72118 0.52361 0.0
C339 C 0.32806 0.59084 0.48166 0.0
C340 C 0.14136 0.90805 0.49771 0.0
C341 C 0.16636 0.8648 0.50604 0.0
C342 C 0.20026 0.7592 0.47144 0.0
C343 C 0.29237 0.65973 0.50271 0.0
C344 C 0.25396 0.70049 0.50024 0.0
C345 C 0.14988 0.823 0.49105 0.0
C346 C 0.18425 0.78001 0.4947 0.0
H347 H 0.40841 0.61981 0.54326 0.0
H348 H 0.34039 0.68212 0.54208 0.0
H349 H 0.24775 0.70653 0.4558 0.0
H350 H 0.0478 0.86791 0.44316 0.0
H351 H 0.09087 0.79251 0.45782 0.0
C352 C 0.09786 0.97585 0.17382 0.0
C353 C 0.07942 0.0157 0.15818 0.0
C354 C 0.10443 0.97772 0.20263 0.0
C355 C 0.06094 0.04882 0.25901 0.0
H356 H 0.16522 0.96905 0.30552 0.0
C357 C 0.09466 0.0508 0.37889 0.0
C358 C 0.08562 0.00635 0.38975 0.0
C359 C 0.09961 0.05493 0.3512 0.0
C360 C 0.13613 -0.00838 0.2927 0.0
H361 H 0.05556 0.08918 0.15985 0.0
H362 H 0.06974 0.09357 0.21021 0.0
H363 H 0.16511 0.97206 0.25599 0.0
H364 H 0.07472 0.93142 0.37959 0.0
H365 H 0.086 0.9387 0.33185 0.0
H366 H 0.03297 0.0689 0.29609 0.0
C367 C 0.07715 0.0602 0.20047 0.0
C368 C 0.13564 -0.0069 0.2643 0.0
C369 C 0.06945 0.05794 0.17166 0.0
C370 C 0.08296 0.9661 0.37233 0.0
C371 C 0.08908 0.97017 0.34488 0.0
C372 C 0.06226 0.04805 0.28747 0.0
C373 C 0.0937 0.01984 0.21638 0.0
C374 C 0.09734 0.02106 0.24696 0.0
C375 C 0.09682 0.01463 0.33403 0.0
C376 C 0.09922 0.01885 0.30444 0.0
H377 H 0.10536 0.94283 0.16369 0.0
H378 H 0.11625 0.94564 0.21398 0.0
H379 H 0.0301 0.07005 0.24642 0.0
H380 H 0.09793 0.08247 0.39172 0.0
H381 H 0.10577 0.08958 0.3432 0.0
C382 C 0.93073 -0.00442 0.8354 0.0
C383 C 0.9579 0.03021 0.85334 0.0
C384 C 0.92451 0.00067 0.8068 0.0
C385 C 0.98397 0.06516 0.75442 0.0
H386 H 0.86461 0.00655 0.7043 0.0
C387 C 0.9519 0.0648 0.63325 0.0
C388 C 0.9528 0.01822 0.62273 0.0
C389 C 0.94853 0.07304 0.66102 0.0
C390 C 0.89785 0.02346 0.71813 0.0
H391 H 0.99747 0.09833 0.85581 0.0
H392 H 0.98463 0.10844 0.80589 0.0
H393 H 0.86345 0.00993 0.75373 0.0
H394 H 0.95324 0.94393 0.63383 0.0
H395 H 0.94459 0.95862 0.6815 0.0
H396 H 0.01779 0.07883 0.71839 0.0
C397 C 0.96981 0.07646 0.81369 0.0
C398 C 0.89758 0.02499 0.74645 0.0
C399 C 0.97691 0.07089 0.84228 0.0
C400 C 0.95079 0.98028 0.64076 0.0
C401 C 0.94622 0.98855 0.66817 0.0
C402 C 0.98363 0.06443 0.726 0.0
C403 C 0.94446 0.04098 0.79553 0.0
C404 C 0.94142 0.04461 0.7651 0.0
C405 C 0.94496 0.03488 0.6785 0.0
C406 C 0.94127 0.04247 0.70778 0.0
H407 H 0.91613 0.96373 0.84351 0.0
H408 H 0.9057 0.97211 0.79362 0.0
H409 H 0.01885 0.07997 0.76803 0.0
H410 H 0.95297 0.09489 0.62 0.0
H411 H 0.94781 0.1091 0.66872 0.0
C412 C 0.58981 0.47564 0.67115 0.0
C413 C 0.54427 0.49511 0.6539 0.0
C414 C 0.59506 0.47841 0.6999 0.0
C415 C 0.51346 0.48812 0.75361 0.0
H416 H 0.6467 0.52618 0.80192 0.0
C417 C 0.58847 0.54257 0.87494 0.0
C418 C 0.56945 0.50354 0.88761 0.0
C419 C 0.58771 0.54196 0.84648 0.0
C420 C 0.60924 0.51566 0.78861 0.0
H421 H 0.46977 0.53461 0.65347 0.0
H422 H 0.47842 0.5383 0.70351 0.0
H423 H 0.64146 0.52508 0.75169 0.0
H424 H 0.53433 0.43356 0.88059 0.0
H425 H 0.53266 0.43264 0.83085 0.0
H426 H 0.48122 0.47848 0.79038 0.0
C427 C 0.50969 0.52051 0.69474 0.0
C428 C 0.60639 0.51469 0.75998 0.0
C429 C 0.50468 0.51816 0.66608 0.0
C430 C 0.54962 0.46395 0.87136 0.0
C431 C 0.5483 0.46356 0.84292 0.0
C432 C 0.51651 0.48854 0.78217 0.0
C433 C 0.55467 0.50034 0.71191 0.0
C434 C 0.55836 0.50108 0.74224 0.0
C435 C 0.56722 0.50257 0.83021 0.0
C436 C 0.56437 0.50237 0.79994 0.0
H437 H 0.62079 0.45727 0.66247 0.0
H438 H 0.62994 0.46227 0.71273 0.0
H439 H 0.4761 0.47712 0.74039 0.0
H440 H 0.60422 0.57339 0.88708 0.0
H441 H 0.6022 0.57259 0.83711 0.0
C442 C 0.42928 0.47602 0.33154 0.0
C443 C 0.45029 0.51375 0.34896 0.0
C444 C 0.42392 0.47981 0.30291 0.0
C445 C 0.47558 0.55005 0.25015 0.0
H446 H 0.36601 0.47989 0.19988 0.0
C447 C 0.44819 0.5566 0.13051 0.0
C448 C 0.45317 0.5117 0.11841 0.0
C449 C 0.44248 0.56084 0.15815 0.0
C450 C 0.3966 0.4998 0.21375 0.0
H451 H 0.47989 0.58564 0.35052 0.0
H452 H 0.4682 0.59337 0.30048 0.0
H453 H 0.36406 0.48145 0.24925 0.0
H454 H 0.45631 0.43609 0.1263 0.0
H455 H 0.44381 0.44375 0.17396 0.0
H456 H 0.5073 0.56888 0.2143 0.0
C457 C 0.45773 0.56012 0.30874 0.0
C458 C 0.39587 0.50043 0.24204 0.0
C459 C 0.46412 0.55592 0.33738 0.0
C460 C 0.45127 0.47122 0.13455 0.0
C461 C 0.44442 0.47548 0.16193 0.0
C462 C 0.47559 0.55017 0.2218 0.0
C463 C 0.4385 0.5218 0.2911 0.0
C464 C 0.43607 0.52472 0.26072 0.0
C465 C 0.44047 0.52028 0.174 0.0
C466 C 0.43676 0.52429 0.20349 0.0
H467 H 0.41877 0.44303 0.34012 0.0
H468 H 0.40995 0.44919 0.29016 0.0
H469 H 0.50781 0.56846 0.26379 0.0
H470 H 0.44853 0.58853 0.11866 0.0
H471 H 0.43932 0.59576 0.16711 0.0
loop_
_geom_bond_atom_site_label_1
_geom_bond_atom_site_label_2
_geom_bond_distance
_geom_bond_site_symmetry_2
_ccdc_geom_bond_type
C0 O16 1.251 . S
C0 O18 1.254 1_554 S
N1 C2 1.333 1_455 S
N1 C6 1.307 . S
N1 Zn7 2.020 . S
C2 N1 1.333 1_655 S
C2 C3 1.379 . S
C2 H20 0.952 1_545 S
C3 C2 1.379 . S
C3 C4 1.390 1_655 S
C3 H30 0.949 1_545 S
C4 C3 1.390 1_455 S
C4 C5 1.357 . S
C5 C4 1.357 . S
C5 C6 1.370 . S
C5 H31 0.950 . S
C6 N1 1.307 . S
C6 C5 1.370 . S
C6 H24 0.948 . S
Zn7 N1 2.020 . S
Zn7 O16 2.039 1_445 S
Zn7 O22 2.034 1_455 S
Zn7 O26 2.025 . S
Zn7 O28 2.024 1_545 S
C8 O27 1.246 1_554 S
C8 O28 1.249 . S
N9 C10 1.292 1_455 S
N9 C11 1.351 . S
N9 Zn15 2.017 . S
C10 N9 1.292 1_655 S
C10 C14 1.370 . S
C10 H21 0.948 1_545 S
C11 N9 1.351 . S
C11 C12 1.379 . S
C11 H19 0.952 . S
C12 C11 1.379 . S
C12 C13 1.390 1_455 S
C12 H32 0.949 . S
C13 C12 1.390 1_655 S
C13 C14 1.357 . S
C14 C10 1.370 . S
C14 C13 1.357 . S
C14 H33 0.950 1_545 S
Zn15 N9 2.017 . S
Zn15 O18 2.025 1_445 S
Zn15 O23 2.024 1_455 S
Zn15 O25 2.039 . S
Zn15 O27 2.034 1_545 S
O16 C0 1.251 . S
O16 Zn7 2.039 1_665 S
C17 O22 1.246 . S
C17 O23 1.249 1_554 S
O18 C0 1.254 1_556 S
O18 Zn15 2.025 1_665 S
H19 C11 0.952 . S
H20 C2 0.952 1_565 S
H21 C10 0.948 1_565 S
O22 Zn7 2.034 1_655 S
O22 C17 1.246 . S
O23 Zn15 2.024 1_655 S
O23 C17 1.249 1_556 S
H24 C6 0.948 . S
O25 Zn15 2.039 . S
O25 C29 1.251 1_556 S
O26 Zn7 2.025 . S
O26 C29 1.254 . S
O27 C8 1.246 1_556 S
O27 Zn15 2.034 1_565 S
O28 Zn7 2.024 1_565 S
O28 C8 1.249 . S
C29 O25 1.251 1_554 S
C29 O26 1.254 . S
H30 C3 0.949 1_565 S
H31 C5 0.950 . S
H32 C12 0.949 . S
H33 C14 0.950 1_565 S
C34 O50 1.251 . S
C34 O52 1.254 . S
N35 C36 1.333 . S
N35 C40 1.307 . S
N35 Zn41 2.020 . S
C36 N35 1.333 . S
C36 C37 1.379 . S
C36 H54 0.952 . S
C37 C36 1.379 . S
C37 C38 1.390 . S
C37 H64 0.949 . S
C38 C37 1.390 . S
C38 C39 1.357 . S
C39 C38 1.357 . S
C39 C40 1.370 . S
C39 H65 0.950 . S
C40 N35 1.307 . S
C40 C39 1.370 . S
C40 H58 0.948 . S
Zn41 N35 2.020 . S
Zn41 O50 2.039 . S
Zn41 O56 2.034 . S
Zn41 O60 2.025 . S
Zn41 O62 2.024 . S
C42 O61 1.246 . S
C42 O62 1.249 . S
N43 C44 1.307 . S
N43 C45 1.333 . S
N43 Zn49 2.020 . S
C44 N43 1.307 . S
C44 C48 1.370 . S
C44 H55 0.948 . S
C45 N43 1.333 . S
C45 C46 1.379 . S
C45 H53 0.952 . S
C46 C45 1.379 . S
C46 C47 1.390 . S
C46 H66 0.949 . S
C47 C46 1.390 . S
C47 C48 1.357 . S
C48 C44 1.370 . S
C48 C47 1.357 . S
C48 H67 0.950 . S
Zn49 N43 2.020 . S
Zn49 O52 2.025 . S
Zn49 O57 2.024 . S
Zn49 O59 2.039 . S
Zn49 O61 2.034 . S
O50 C34 1.251 . S
O50 Zn41 2.039 . S
C51 O56 1.246 . S
C51 O57 1.249 . S
O52 C34 1.254 . S
O52 Zn49 2.025 . S
H53 C45 0.952 . S
H54 C36 0.952 . S
H55 C44 0.948 . S
O56 Zn41 2.034 . S
O56 C51 1.246 . S
O57 Zn49 2.024 . S
O57 C51 1.249 . S
H58 C40 0.948 . S
O59 Zn49 2.039 . S
O59 C63 1.251 . S
O60 Zn41 2.025 . S
O60 C63 1.254 . S
O61 C42 1.246 . S
O61 Zn49 2.034 . S
O62 Zn41 2.024 . S
O62 C42 1.249 . S
C63 O59 1.251 . S
C63 O60 1.254 . S
H64 C37 0.949 . S
H65 C39 0.950 . S
H66 C46 0.949 . S
H67 C48 0.950 . S
H68 C73 0.929 . S
H69 C78 0.931 . S
H70 C76 0.930 1_655 S
N71 N72 1.234 . S
N71 C75 1.453 1_655 S
N72 N71 1.234 . S
C73 H68 0.929 . S
C73 C74 1.373 . S
C73 C75 1.368 1_565 S
C74 C73 1.373 . S
C74 C78 1.397 . S
C75 N71 1.453 1_455 S
C75 C73 1.368 1_545 S
C75 C76 1.373 . S
C76 H70 0.930 1_455 S
C76 C75 1.373 . S
C76 C77 1.371 . S
C77 C76 1.371 . S
C77 C78 1.383 1_545 S
C78 H69 0.931 . S
C78 C74 1.397 . S
C78 C77 1.383 1_565 S
H79 C84 0.928 1_565 S
H80 C89 0.931 . S
H81 C87 0.930 . S
N82 N83 1.234 . S
N82 C86 1.453 . S
N83 N82 1.234 . S
C84 H79 0.928 1_545 S
C84 C85 1.370 1_545 S
C84 C86 1.372 1_655 S
C85 C84 1.370 1_565 S
C85 C89 1.397 . S
C86 N82 1.453 . S
C86 C84 1.372 1_455 S
C86 C87 1.373 . S
C87 H81 0.930 . S
C87 C86 1.373 . S
C87 C88 1.371 1_455 S
C88 C87 1.371 1_655 S
C88 C89 1.383 1_545 S
C89 H80 0.931 . S
C89 C85 1.397 . S
C89 C88 1.383 1_565 S
H90 C95 0.929 1_554 S
H91 C100 0.931 . S
H92 C98 0.930 . S
N93 N94 1.234 . S
N93 C97 1.453 . S
N94 N93 1.234 . S
C95 H90 0.929 1_556 S
C95 C96 1.373 . S
C95 C97 1.368 . S
C96 C95 1.373 . S
C96 C100 1.397 . S
C97 N93 1.453 . S
C97 C95 1.368 . S
C97 C98 1.373 . S
C98 H92 0.930 . S
C98 C97 1.373 . S
C98 C99 1.371 . S
C99 C98 1.371 . S
C99 C100 1.383 . S
C100 H91 0.931 . S
C100 C96 1.397 . S
C100 C99 1.383 . S
H101 C106 0.929 . S
H102 C111 0.931 . S
H103 C109 0.930 . S
N104 N105 1.234 . S
N104 C108 1.453 . S
N105 N104 1.234 . S
C106 H101 0.929 . S
C106 C107 1.373 . S
C106 C108 1.368 . S
C107 C106 1.373 . S
C107 C111 1.397 . S
C108 N104 1.453 . S
C108 C106 1.368 . S
C108 C109 1.373 . S
C109 H103 0.930 . S
C109 C108 1.373 . S
C109 C110 1.371 . S
C110 C109 1.371 . S
C110 C111 1.383 . S
C111 H102 0.931 . S
C111 C107 1.397 . S
C111 C110 1.383 . S
C112 C113 1.349 . S
C112 C114 1.327 . S
C112 H137 0.950 . S
C113 C112 1.349 . S
C113 C129 1.349 1_554 S
C114 C112 1.327 . S
C114 C133 1.429 . S
C114 H138 0.950 . S
C115 C132 1.573 . S
C115 C134 1.380 . S
C115 H139 0.939 1_554 S
H116 C120 0.949 . S
C117 C118 1.349 . S
C117 C119 1.327 . S
C117 H140 0.948 . S
C118 C117 1.349 . S
C118 C130 1.349 . S
C119 C117 1.327 . S
C119 C135 1.429 . S
C119 H141 0.950 1_554 S
C120 H116 0.949 . S
C120 C128 1.574 . S
C120 C136 1.368 . S
H121 C129 0.950 . S
H122 C127 0.950 . S
H123 C128 0.949 . S
H124 C130 0.950 . S
H125 C131 0.950 . S
H126 C132 0.949 1_556 S
C127 H122 0.950 . S
C127 C129 1.327 . S
C127 C133 1.429 1_556 S
C128 C120 1.574 . S
C128 H123 0.949 . S
C128 C134 1.368 . S
C129 C113 1.349 1_556 S
C129 H121 0.950 . S
C129 C127 1.327 . S
C130 C118 1.349 . S
C130 H124 0.950 . S
C130 C131 1.327 . S
C131 H125 0.950 . S
C131 C130 1.327 . S
C131 C135 1.429 . S
C132 C115 1.573 . S
C132 H126 0.949 1_554 S
C132 C136 1.368 . S
C133 C114 1.429 . S
C133 C127 1.429 1_554 S
C133 C134 1.523 . S
C134 C115 1.380 . S
C134 C128 1.368 . S
C134 C133 1.523 . S
C135 C119 1.429 . S
C135 C131 1.429 . S
C135 C136 1.523 . S
C136 C120 1.368 . S
C136 C132 1.368 . S
C136 C135 1.523 . S
H137 C112 0.950 . S
H138 C114 0.950 . S
H139 C115 0.939 1_556 S
H140 C117 0.948 . S
H141 C119 0.950 1_556 S
C142 C143 1.349 1_556 S
C142 C144 1.327 . S
C142 H167 0.950 . S
C143 C142 1.349 1_554 S
C143 C159 1.349 . S
C144 C142 1.327 . S
C144 C163 1.429 1_556 S
C144 H168 0.950 . S
C145 C162 1.574 . S
C145 C164 1.368 . S
C145 H169 0.949 . S
H146 C150 0.949 . S
C147 C148 1.349 1_554 S
C147 C149 1.327 . S
C147 H170 0.950 . S
C148 C147 1.349 1_556 S
C148 C160 1.349 . S
C149 C147 1.327 . S
C149 C165 1.429 1_554 S
C149 H171 0.950 . S
C150 H146 0.949 . S
C150 C158 1.574 . S
C150 C166 1.381 . S
H151 C159 0.950 . S
H152 C157 0.950 . S
H153 C158 0.949 . S
H154 C160 0.950 . S
H155 C161 0.950 . S
H156 C162 0.949 . S
C157 H152 0.950 . S
C157 C159 1.327 . S
C157 C163 1.429 . S
C158 C150 1.574 . S
C158 H153 0.949 . S
C158 C164 1.368 1_556 S
C159 C143 1.349 . S
C159 H151 0.950 . S
C159 C157 1.327 . S
C160 C148 1.349 . S
C160 H154 0.950 . S
C160 C161 1.327 . S
C161 H155 0.950 . S
C161 C160 1.327 . S
C161 C165 1.429 . S
C162 C145 1.574 . S
C162 H156 0.949 . S
C162 C166 1.352 1_554 S
C163 C144 1.429 1_554 S
C163 C157 1.429 . S
C163 C164 1.523 . S
C164 C145 1.368 . S
C164 C158 1.368 1_554 S
C164 C163 1.523 . S
C165 C149 1.429 1_556 S
C165 C161 1.429 . S
C165 C166 1.528 . S
C166 C150 1.381 . S
C166 C162 1.352 1_556 S
C166 C165 1.528 . S
H167 C142 0.950 . S
H168 C144 0.950 . S
H169 C145 0.949 . S
H170 C147 0.950 . S
H171 C149 0.950 . S
C172 C173 1.349 1_556 S
C172 C174 1.319 1_556 S
C172 H197 0.950 . S
C173 C172 1.349 1_554 S
C173 C189 1.349 . S
C174 C172 1.319 1_554 S
C174 C193 1.449 . S
C174 H198 0.938 1_554 S
C175 C192 1.574 . S
C175 C194 1.368 . S
C175 H199 0.949 . S
H176 C180 0.949 . S
C177 C178 1.349 . S
C177 C179 1.327 . S
C177 H200 0.950 . S
C178 C177 1.349 . S
C178 C190 1.349 . S
C179 C177 1.327 . S
C179 C195 1.429 . S
C179 H201 0.950 . S
C180 H176 0.949 . S
C180 C188 1.574 . S
C180 C196 1.368 . S
H181 C189 0.950 . S
H182 C187 0.950 . S
H183 C188 0.949 1_556 S
H184 C190 0.950 . S
H185 C191 0.950 . S
H186 C192 0.949 . S
C187 H182 0.950 . S
C187 C189 1.327 . S
C187 C193 1.429 . S
C188 C180 1.574 . S
C188 H183 0.949 1_554 S
C188 C194 1.368 . S
C189 C173 1.349 . S
C189 H181 0.950 . S
C189 C187 1.327 . S
C190 C178 1.349 . S
C190 H184 0.950 . S
C190 C191 1.327 . S
C191 H185 0.950 . S
C191 C190 1.327 . S
C191 C195 1.429 . S
C192 C175 1.574 . S
C192 H186 0.949 . S
C192 C196 1.368 . S
C193 C174 1.449 . S
C193 C187 1.429 . S
C193 C194 1.523 . S
C194 C175 1.368 . S
C194 C188 1.368 . S
C194 C193 1.523 . S
C195 C179 1.429 . S
C195 C191 1.429 . S
C195 C196 1.523 . S
C196 C180 1.368 . S
C196 C192 1.368 . S
C196 C195 1.523 . S
H197 C172 0.950 . S
H198 C174 0.938 1_556 S
H199 C175 0.949 . S
H200 C177 0.950 . S
H201 C179 0.950 . S
C202 C203 1.349 1_556 S
C202 C204 1.327 . S
C202 H227 0.950 . S
C203 C202 1.349 1_554 S
C203 C219 1.349 . S
C204 C202 1.327 . S
C204 C223 1.429 . S
C204 H228 0.950 . S
C205 C222 1.574 . S
C205 C224 1.368 1_554 S
C205 H229 0.949 . S
H206 C210 0.949 . S
C207 C208 1.349 1_554 S
C207 C209 1.327 . S
C207 H230 0.950 . S
C208 C207 1.349 1_556 S
C208 C220 1.349 . S
C209 C207 1.327 . S
C209 C225 1.429 1_554 S
C209 H231 0.950 . S
C210 H206 0.949 . S
C210 C218 1.574 . S
C210 C226 1.368 . S
H211 C219 0.950 . S
H212 C217 0.950 . S
H213 C218 0.949 . S
H214 C220 0.950 . S
H215 C221 0.950 . S
H216 C222 0.949 . S
C217 H212 0.950 . S
C217 C219 1.327 . S
C217 C223 1.429 1_554 S
C218 C210 1.574 . S
C218 H213 0.949 . S
C218 C224 1.368 . S
C219 C203 1.349 . S
C219 H211 0.950 . S
C219 C217 1.327 . S
C220 C208 1.349 . S
C220 H214 0.950 . S
C220 C221 1.327 . S
C221 H215 0.950 . S
C221 C220 1.327 . S
C221 C225 1.429 . S
C222 C205 1.574 . S
C222 H216 0.949 . S
C222 C226 1.368 1_554 S
C223 C204 1.429 . S
C223 C217 1.429 1_556 S
C223 C224 1.523 . S
C224 C205 1.368 1_556 S
C224 C218 1.368 . S
C224 C223 1.523 . S
C225 C209 1.429 1_556 S
C225 C221 1.429 . S
C225 C226 1.523 . S
C226 C210 1.368 . S
C226 C222 1.368 1_556 S
C226 C225 1.523 . S
H227 C202 0.950 . S
H228 C204 0.950 . S
H229 C205 0.949 . S
H230 C207 0.950 . S
H231 C209 0.950 . S
C232 C233 1.349 . S
C232 C234 1.327 . S
C232 H257 0.950 . S
C233 C232 1.349 . S
C233 C249 1.349 . S
C234 C232 1.327 . S
C234 C253 1.429 . S
C234 H258 0.950 . S
C235 C252 1.574 . S
C235 C254 1.368 . S
C235 H259 0.949 . S
H236 C240 0.949 . S
C237 C238 1.349 . S
C237 C239 1.327 . S
C237 H260 0.950 . S
C238 C237 1.349 . S
C238 C250 1.349 . S
C239 C237 1.327 . S
C239 C255 1.429 . S
C239 H261 0.950 . S
C240 H236 0.949 . S
C240 C248 1.574 . S
C240 C256 1.368 . S
H241 C249 0.950 . S
H242 C247 0.950 . S
H243 C248 0.949 . S
H244 C250 0.950 . S
H245 C251 0.950 . S
H246 C252 0.949 . S
C247 H242 0.950 . S
C247 C249 1.327 . S
C247 C253 1.429 . S
C248 C240 1.574 . S
C248 H243 0.949 . S
C248 C254 1.368 . S
C249 C233 1.349 . S
C249 H241 0.950 . S
C249 C247 1.327 . S
C250 C238 1.349 . S
C250 H244 0.950 . S
C250 C251 1.327 . S
C251 H245 0.950 . S
C251 C250 1.327 . S
C251 C255 1.429 . S
C252 C235 1.574 . S
C252 H246 0.949 . S
C252 C256 1.368 . S
C253 C234 1.429 . S
C253 C247 1.429 . S
C253 C254 1.523 . S
C254 C235 1.368 . S
C254 C248 1.368 . S
C254 C253 1.523 . S
C255 C239 1.429 . S
C255 C251 1.429 . S
C255 C256 1.523 . S
C256 C240 1.368 . S
C256 C252 1.368 . S
C256 C255 1.523 . S
H257 C232 0.950 . S
H258 C234 0.950 . S
H259 C235 0.949 . S
H260 C237 0.950 . S
H261 C239 0.950 . S
C262 C263 1.349 . S
C262 C264 1.327 . S
C262 H287 0.950 . S
C263 C262 1.349 . S
C263 C279 1.349 . S
C264 C262 1.327 . S
C264 C283 1.429 . S
C264 H288 0.950 . S
C265 C282 1.574 . S
C265 C284 1.368 . S
C265 H289 0.949 . S
H266 C270 0.949 . S
C267 C268 1.349 . S
C267 C269 1.327 . S
C267 H290 0.950 . S
C268 C267 1.349 . S
C268 C280 1.349 . S
C269 C267 1.327 . S
C269 C285 1.429 . S
C269 H291 0.950 . S
C270 H266 0.949 . S
C270 C278 1.574 . S
C270 C286 1.368 . S
H271 C279 0.950 . S
H272 C277 0.950 . S
H273 C278 0.949 . S
H274 C280 0.950 . S
H275 C281 0.950 . S
H276 C282 0.949 . S
C277 H272 0.950 . S
C277 C279 1.327 . S
C277 C283 1.429 . S
C278 C270 1.574 . S
C278 H273 0.949 . S
C278 C284 1.368 . S
C279 C263 1.349 . S
C279 H271 0.950 . S
C279 C277 1.327 . S
C280 C268 1.349 . S
C280 H274 0.950 . S
C280 C281 1.327 . S
C281 H275 0.950 . S
C281 C280 1.327 . S
C281 C285 1.429 . S
C282 C265 1.574 . S
C282 H276 0.949 . S
C282 C286 1.368 . S
C283 C264 1.429 . S
C283 C277 1.429 . S
C283 C284 1.523 . S
C284 C265 1.368 . S
C284 C278 1.368 . S
C284 C283 1.523 . S
C285 C269 1.429 . S
C285 C281 1.429 . S
C285 C286 1.523 . S
C286 C270 1.368 . S
C286 C282 1.368 . S
C286 C285 1.523 . S
H287 C262 0.950 . S
H288 C264 0.950 . S
H289 C265 0.949 . S
H290 C267 0.950 . S
H291 C269 0.950 . S
C292 C293 1.349 . S
C292 C294 1.327 . S
C292 H317 0.950 . S
C293 C292 1.349 . S
C293 C309 1.349 . S
C294 C292 1.327 . S
C294 C313 1.429 . S
C294 H318 0.950 . S
C295 C312 1.574 . S
C295 C314 1.368 . S
C295 H319 0.949 . S
H296 C300 0.949 . S
C297 C298 1.349 . S
C297 C299 1.327 . S
C297 H320 0.950 . S
C298 C297 1.349 . S
C298 C310 1.349 . S
C299 C297 1.327 . S
C299 C315 1.429 . S
C299 H321 0.950 . S
C300 H296 0.949 . S
C300 C308 1.574 . S
C300 C316 1.368 . S
H301 C309 0.950 . S
H302 C307 0.950 . S
H303 C308 0.949 . S
H304 C310 0.950 . S
H305 C311 0.950 . S
H306 C312 0.949 . S
C307 H302 0.950 . S
C307 C309 1.327 . S
C307 C313 1.429 . S
C308 C300 1.574 . S
C308 H303 0.949 . S
C308 C314 1.368 . S
C309 C293 1.349 . S
C309 H301 0.950 . S
C309 C307 1.327 . S
C310 C298 1.349 . S
C310 H304 0.950 . S
C310 C311 1.327 . S
C311 H305 0.950 . S
C311 C310 1.327 . S
C311 C315 1.429 . S
C312 C295 1.574 . S
C312 H306 0.949 . S
C312 C316 1.368 . S
C313 C294 1.429 . S
C313 C307 1.429 . S
C313 C314 1.523 . S
C314 C295 1.368 . S
C314 C308 1.368 . S
C314 C313 1.523 . S
C315 C299 1.429 . S
C315 C311 1.429 . S
C315 C316 1.523 . S
C316 C300 1.368 . S
C316 C312 1.368 . S
C316 C315 1.523 . S
H317 C292 0.950 . S
H318 C294 0.950 . S
H319 C295 0.949 . S
H320 C297 0.950 . S
H321 C299 0.950 . S
C322 C323 1.349 . S
C322 C324 1.327 . S
C322 H347 0.950 . S
C323 C322 1.349 . S
C323 C339 1.349 . S
C324 C322 1.327 . S
C324 C343 1.429 . S
C324 H348 0.950 . S
C325 C342 1.574 . S
C325 C344 1.368 . S
C325 H349 0.949 . S
H326 C330 0.949 . S
C327 C328 1.349 . S
C327 C329 1.327 . S
C327 H350 0.950 . S
C328 C327 1.349 . S
C328 C340 1.349 . S
C329 C327 1.327 . S
C329 C345 1.429 . S
C329 H351 0.950 . S
C330 H326 0.949 . S
C330 C338 1.574 . S
C330 C346 1.368 . S
H331 C339 0.950 . S
H332 C337 0.950 . S
H333 C338 0.949 . S
H334 C340 0.950 . S
H335 C341 0.950 . S
H336 C342 0.949 . S
C337 H332 0.950 . S
C337 C339 1.327 . S
C337 C343 1.429 . S
C338 C330 1.574 . S
C338 H333 0.949 . S
C338 C344 1.368 . S
C339 C323 1.349 . S
C339 H331 0.950 . S
C339 C337 1.327 . S
C340 C328 1.349 . S
C340 H334 0.950 . S
C340 C341 1.327 . S
C341 H335 0.950 . S
C341 C340 1.327 . S
C341 C345 1.429 . S
C342 C325 1.574 . S
C342 H336 0.949 . S
C342 C346 1.368 . S
C343 C324 1.429 . S
C343 C337 1.429 . S
C343 C344 1.523 . S
C344 C325 1.368 . S
C344 C338 1.368 . S
C344 C343 1.523 . S
C345 C329 1.429 . S
C345 C341 1.429 . S
C345 C346 1.523 . S
C346 C330 1.368 . S
C346 C342 1.368 . S
C346 C345 1.523 . S
H347 C322 0.950 . S
H348 C324 0.950 . S
H349 C325 0.949 . S
H350 C327 0.950 . S
H351 C329 0.950 . S
C352 C353 1.349 1_565 S
C352 C354 1.327 . S
C352 H377 0.950 . S
C353 C352 1.349 1_545 S
C353 C369 1.349 . S
C354 C352 1.327 . S
C354 C373 1.429 1_565 S
C354 H378 0.950 . S
C355 C372 1.574 . S
C355 C374 1.368 . S
C355 H379 0.949 1_455 S
H356 C360 0.949 . S
C357 C358 1.349 . S
C357 C359 1.327 . S
C357 H380 0.950 1_455 S
C358 C357 1.349 . S
C358 C370 1.349 1_545 S
C359 C357 1.327 . S
C359 C375 1.429 . S
C359 H381 0.950 1_455 S
C360 H356 0.949 . S
C360 C368 1.574 . S
C360 C376 1.368 1_565 S
H361 C369 0.950 1_655 S
H362 C367 0.950 1_655 S
H363 C368 0.949 . S
H364 C370 0.950 . S
H365 C371 0.950 . S
H366 C372 0.949 1_655 S
C367 H362 0.950 1_455 S
C367 C369 1.327 . S
C367 C373 1.429 . S
C368 C360 1.574 . S
C368 H363 0.949 . S
C368 C374 1.368 1_565 S
C369 C353 1.349 . S
C369 H361 0.950 1_455 S
C369 C367 1.327 . S
C370 C358 1.349 1_565 S
C370 H364 0.950 . S
C370 C371 1.327 . S
C371 H365 0.950 . S
C371 C370 1.327 . S
C371 C375 1.429 1_565 S
C372 C355 1.574 . S
C372 H366 0.949 1_455 S
C372 C376 1.368 . S
C373 C354 1.429 1_545 S
C373 C367 1.429 . S
C373 C374 1.523 . S
C374 C355 1.368 . S
C374 C368 1.368 1_545 S
C374 C373 1.523 . S
C375 C359 1.429 . S
C375 C371 1.429 1_545 S
C375 C376 1.523 . S
C376 C360 1.368 1_545 S
C376 C372 1.368 . S
C376 C375 1.523 . S
H377 C352 0.950 . S
H378 C354 0.950 . S
H379 C355 0.949 1_655 S
H380 C357 0.950 1_655 S
H381 C359 0.950 1_655 S
C382 C383 1.349 1_565 S
C382 C384 1.327 . S
C382 H407 0.950 . S
C383 C382 1.349 1_545 S
C383 C399 1.349 1_655 S
C384 C382 1.327 . S
C384 C403 1.429 1_565 S
C384 H408 0.950 . S
C385 C402 1.574 . S
C385 C404 1.368 1_455 S
C385 H409 0.949 . S
H386 C390 0.949 . S
C387 C388 1.349 1_455 S
C387 C389 1.327 . S
C387 H410 0.950 . S
C388 C387 1.349 1_655 S
C388 C400 1.349 1_545 S
C389 C387 1.327 . S
C389 C405 1.429 1_455 S
C389 H411 0.950 . S
C390 H386 0.949 . S
C390 C398 1.574 . S
C390 C406 1.368 1_565 S
H391 C399 0.950 . S
H392 C397 0.950 . S
H393 C398 0.949 . S
H394 C400 0.950 . S
H395 C401 0.950 . S
H396 C402 0.949 . S
C397 H392 0.950 . S
C397 C399 1.327 . S
C397 C403 1.429 1_455 S
C398 C390 1.574 . S
C398 H393 0.949 . S
C398 C404 1.368 1_565 S
C399 C383 1.349 1_455 S
C399 H391 0.950 . S
C399 C397 1.327 . S
C400 C388 1.349 1_565 S
C400 H394 0.950 . S
C400 C401 1.327 . S
C401 H395 0.950 . S
C401 C400 1.327 . S
C401 C405 1.429 1_565 S
C402 C385 1.574 . S
C402 H396 0.949 . S
C402 C406 1.368 1_455 S
C403 C384 1.429 1_545 S
C403 C397 1.429 1_655 S
C403 C404 1.523 . S
C404 C385 1.368 1_655 S
C404 C398 1.368 1_545 S
C404 C403 1.523 . S
C405 C389 1.429 1_655 S
C405 C401 1.429 1_545 S
C405 C406 1.523 . S
C406 C390 1.368 1_545 S
C406 C402 1.368 1_655 S
C406 C405 1.523 . S
H407 C382 0.950 . S
H408 C384 0.950 . S
H409 C385 0.949 . S
H410 C387 0.950 . S
H411 C389 0.950 . S
C412 C413 1.349 . S
C412 C414 1.327 . S
C412 H437 0.950 . S
C413 C412 1.349 . S
C413 C429 1.349 . S
C414 C412 1.327 . S
C414 C433 1.429 . S
C414 H438 0.950 . S
C415 C432 1.574 . S
C415 C434 1.368 . S
C415 H439 0.949 . S
H416 C420 0.949 . S
C417 C418 1.349 . S
C417 C419 1.327 . S
C417 H440 0.950 . S
C418 C417 1.349 . S
C418 C430 1.349 . S
C419 C417 1.327 . S
C419 C435 1.429 . S
C419 H441 0.950 . S
C420 H416 0.949 . S
C420 C428 1.574 . S
C420 C436 1.368 . S
H421 C429 0.950 . S
H422 C427 0.950 . S
H423 C428 0.949 . S
H424 C430 0.950 . S
H425 C431 0.950 . S
H426 C432 0.949 . S
C427 H422 0.950 . S
C427 C429 1.327 . S
C427 C433 1.429 . S
C428 C420 1.574 . S
C428 H423 0.949 . S
C428 C434 1.368 . S
C429 C413 1.349 . S
C429 H421 0.950 . S
C429 C427 1.327 . S
C430 C418 1.349 . S
C430 H424 0.950 . S
C430 C431 1.327 . S
C431 H425 0.950 . S
C431 C430 1.327 . S
C431 C435 1.429 . S
C432 C415 1.574 . S
C432 H426 0.949 . S
C432 C436 1.368 . S
C433 C414 1.429 . S
C433 C427 1.429 . S
C433 C434 1.523 . S
C434 C415 1.368 . S
C434 C428 1.368 . S
C434 C433 1.523 . S
C435 C419 1.429 . S
C435 C431 1.429 . S
C435 C436 1.523 . S
C436 C420 1.368 . S
C436 C432 1.368 . S
C436 C435 1.523 . S
H437 C412 0.950 . S
H438 C414 0.950 . S
H439 C415 0.949 . S
H440 C417 0.950 . S
H441 C419 0.950 . S
C442 C443 1.349 . S
C442 C444 1.327 . S
C442 H467 0.950 . S
C443 C442 1.349 . S
C443 C459 1.349 . S
C444 C442 1.327 . S
C444 C463 1.429 . S
C444 H468 0.950 . S
C445 C462 1.574 . S
C445 C464 1.368 . S
C445 H469 0.949 . S
H446 C450 0.949 . S
C447 C448 1.349 . S
C447 C449 1.327 . S
C447 H470 0.950 . S
C448 C447 1.349 . S
C448 C460 1.349 . S
C449 C447 1.327 . S
C449 C465 1.429 . S
C449 H471 0.950 . S
C450 H446 0.949 . S
C450 C458 1.574 . S
C450 C466 1.368 . S
H451 C459 0.950 . S
H452 C457 0.950 . S
H453 C458 0.949 . S
H454 C460 0.950 . S
H455 C461 0.950 . S
H456 C462 0.949 . S
C457 H452 0.950 . S
C457 C459 1.327 . S
C457 C463 1.429 . S
C458 C450 1.574 . S
C458 H453 0.949 . S
C458 C464 1.368 . S
C459 C443 1.349 . S
C459 H451 0.950 . S
C459 C457 1.327 . S
C460 C448 1.349 . S
C460 H454 0.950 . S
C460 C461 1.327 . S
C461 H455 0.950 . S
C461 C460 1.327 . S
C461 C465 1.429 . S
C462 C445 1.574 . S
C462 H456 0.949 . S
C462 C466 1.368 . S
C463 C444 1.429 . S
C463 C457 1.429 . S
C463 C464 1.523 . S
C464 C445 1.368 . S
C464 C458 1.368 . S
C464 C463 1.523 . S
C465 C449 1.429 . S
C465 C461 1.429 . S
C465 C466 1.523 . S
C466 C450 1.368 . S
C466 C462 1.368 . S
C466 C465 1.523 . S
H467 C442 0.950 . S
H468 C444 0.950 . S
H469 C445 0.949 . S
H470 C447 0.950 . S
H471 C449 0.950 . S
C118 C107 1.434 . S
C113 C29 1.461 . S
C143 C8 1.353 . S
C148 N94 1.309 . S
C173 C0 1.361 . S
C178 N105 1.318 . S
C203 C17 1.465 . S
C208 C96 1.442 . S
C233 C63 1.461 . S
C238 C85 1.434 . S
C263 C42 1.353 . S
C268 N72 1.310 . S
C298 N83 1.318 . S
C293 C34 1.361 . S
C328 C74 1.442 . S
C323 C51 1.465 . S
C353 C4 1.514 . S
C358 C77 1.508 . S
C383 C13 1.508 . S
C388 C88 1.500 . S
C418 C99 1.508 . S
C413 C38 1.514 . S
C443 C47 1.508 . S
C448 C110 1.500 . S
