# Generated by pormake.
# Topology ptr, (4,4)-cn, num edge types: 1
# Building blocks:
#     Node 0, Type 0, BuildingBlock: QUQFOY_clean_sbu_3, # of connection points: 4
#     Node 1, Type 0, BuildingBlock: QUQFOY_clean_sbu_3, # of connection points: 4
#     Node 2, Type 0, BuildingBlock: QUQFOY_clean_sbu_3, # of connection points: 4
#     Node 3, Type 0, BuildingBlock: QUQFOY_clean_sbu_3, # of connection points: 4
#     Node 4, Type 0, BuildingBlock: QUQFOY_clean_sbu_3, # of connection points: 4
#     Node 5, Type 0, BuildingBlock: QUQFOY_clean_sbu_3, # of connection points: 4
#     Node 6, Type 0, BuildingBlock: QUQFOY_clean_sbu_3, # of connection points: 4
#     Node 7, Type 0, BuildingBlock: QUQFOY_clean_sbu_3, # of connection points: 4
#     Node 8, Type 0, BuildingBlock: QUQFOY_clean_sbu_3, # of connection points: 4
#     Node 9, Type 0, BuildingBlock: QUQFOY_clean_sbu_3, # of connection points: 4
#     Node 10, Type 0, BuildingBlock: QUQFOY_clean_sbu_3, # of connection points: 4
#     Node 11, Type 0, BuildingBlock: QUQFOY_clean_sbu_3, # of connection points: 4
#     Node 12, Type 0, BuildingBlock: QUQFOY_clean_sbu_3, # of connection points: 4
#     Node 13, Type 0, BuildingBlock: QUQFOY_clean_sbu_3, # of connection points: 4
#     Node 14, Type 0, BuildingBlock: QUQFOY_clean_sbu_3, # of connection points: 4
#     Node 15, Type 0, BuildingBlock: QUQFOY_clean_sbu_3, # of connection points: 4
#     Node 16, Type 0, BuildingBlock: QUQFOY_clean_sbu_3, # of connection points: 4
#     Node 17, Type 0, BuildingBlock: QUQFOY_clean_sbu_3, # of connection points: 4
#     Node 18, Type 1, BuildingBlock: AZAVOO_clean_linker_0, # of connection points: 4
#     Node 19, Type 1, BuildingBlock: AZAVOO_clean_linker_0, # of connection points: 4
#     Node 20, Type 1, BuildingBlock: AZAVOO_clean_linker_0, # of connection points: 4
#     Node 21, Type 1, BuildingBlock: AZAVOO_clean_linker_0, # of connection points: 4
#     Node 22, Type 1, BuildingBlock: AZAVOO_clean_linker_0, # of connection points: 4
#     Node 23, Type 1, BuildingBlock: AZAVOO_clean_linker_0, # of connection points: 4
#     Node 24, Type 1, BuildingBlock: AZAVOO_clean_linker_0, # of connection points: 4
#     Node 25, Type 1, BuildingBlock: AZAVOO_clean_linker_0, # of connection points: 4
#     Node 26, Type 1, BuildingBlock: AZAVOO_clean_linker_0, # of connection points: 4
#     Node 27, Type 1, BuildingBlock: AZAVOO_clean_linker_0, # of connection points: 4
#     Node 28, Type 1, BuildingBlock: AZAVOO_clean_linker_0, # of connection points: 4
#     Node 29, Type 1, BuildingBlock: AZAVOO_clean_linker_0, # of connection points: 4
#     Node 30, Type 1, BuildingBlock: AZAVOO_clean_linker_0, # of connection points: 4
#     Node 31, Type 1, BuildingBlock: AZAVOO_clean_linker_0, # of connection points: 4
#     Node 32, Type 1, BuildingBlock: AZAVOO_clean_linker_0, # of connection points: 4
#     Node 33, Type 1, BuildingBlock: AZAVOO_clean_linker_0, # of connection points: 4
#     Node 34, Type 1, BuildingBlock: AZAVOO_clean_linker_0, # of connection points: 4
#     Node 35, Type 1, BuildingBlock: AZAVOO_clean_linker_0, # of connection points: 4
#     Edge 36, Type (0, 1), BuildingBlock: OJICUG_clean_linker_0, # of connection points: 2
#     Edge 37, Type (0, 1), BuildingBlock: OJICUG_clean_linker_0, # of connection points: 2
#     Edge 38, Type (0, 1), BuildingBlock: OJICUG_clean_linker_0, # of connection points: 2
#     Edge 39, Type (0, 1), BuildingBlock: OJICUG_clean_linker_0, # of connection points: 2
#     Edge 40, Type (0, 1), BuildingBlock: OJICUG_clean_linker_0, # of connection points: 2
#     Edge 41, Type (0, 1), BuildingBlock: OJICUG_clean_linker_0, # of connection points: 2
#     Edge 42, Type (0, 1), BuildingBlock: OJICUG_clean_linker_0, # of connection points: 2
#     Edge 43, Type (0, 1), BuildingBlock: OJICUG_clean_linker_0, # of connection points: 2
#     Edge 44, Type (0, 1), BuildingBlock: OJICUG_clean_linker_0, # of connection points: 2
#     Edge 45, Type (0, 1), BuildingBlock: OJICUG_clean_linker_0, # of connection points: 2
#     Edge 46, Type (0, 1), BuildingBlock: OJICUG_clean_linker_0, # of connection points: 2
#     Edge 47, Type (0, 1), BuildingBlock: OJICUG_clean_linker_0, # of connection points: 2
#     Edge 48, Type (0, 1), BuildingBlock: OJICUG_clean_linker_0, # of connection points: 2
#     Edge 49, Type (0, 1), BuildingBlock: OJICUG_clean_linker_0, # of connection points: 2
#     Edge 50, Type (0, 1), BuildingBlock: OJICUG_clean_linker_0, # of connection points: 2
#     Edge 51, Type (0, 1), BuildingBlock: OJICUG_clean_linker_0, # of connection points: 2
#     Edge 52, Type (0, 1), BuildingBlock: OJICUG_clean_linker_0, # of connection points: 2
#     Edge 53, Type (0, 1), BuildingBlock: OJICUG_clean_linker_0, # of connection points: 2
#     Edge 54, Type (0, 1), BuildingBlock: OJICUG_clean_linker_0, # of connection points: 2
#     Edge 55, Type (0, 1), BuildingBlock: OJICUG_clean_linker_0, # of connection points: 2
#     Edge 56, Type (0, 1), BuildingBlock: OJICUG_clean_linker_0, # of connection points: 2
#     Edge 57, Type (0, 1), BuildingBlock: OJICUG_clean_linker_0, # of connection points: 2
#     Edge 58, Type (0, 1), BuildingBlock: OJICUG_clean_linker_0, # of connection points: 2
#     Edge 59, Type (0, 1), BuildingBlock: OJICUG_clean_linker_0, # of connection points: 2
#     Edge 60, Type (0, 1), BuildingBlock: OJICUG_clean_linker_0, # of connection points: 2
#     Edge 61, Type (0, 1), BuildingBlock: OJICUG_clean_linker_0, # of connection points: 2
#     Edge 62, Type (0, 1), BuildingBlock: OJICUG_clean_linker_0, # of connection points: 2
#     Edge 63, Type (0, 1), BuildingBlock: OJICUG_clean_linker_0, # of connection points: 2
#     Edge 64, Type (0, 1), BuildingBlock: OJICUG_clean_linker_0, # of connection points: 2
#     Edge 65, Type (0, 1), BuildingBlock: OJICUG_clean_linker_0, # of connection points: 2
#     Edge 66, Type (0, 1), BuildingBlock: OJICUG_clean_linker_0, # of connection points: 2
#     Edge 67, Type (0, 1), BuildingBlock: OJICUG_clean_linker_0, # of connection points: 2
#     Edge 68, Type (0, 1), BuildingBlock: OJICUG_clean_linker_0, # of connection points: 2
#     Edge 69, Type (0, 1), BuildingBlock: OJICUG_clean_linker_0, # of connection points: 2
#     Edge 70, Type (0, 1), BuildingBlock: OJICUG_clean_linker_0, # of connection points: 2
#     Edge 71, Type (0, 1), BuildingBlock: OJICUG_clean_linker_0, # of connection points: 2
#     Edge 72, Type (0, 1), BuildingBlock: OJICUG_clean_linker_0, # of connection points: 2
#     Edge 73, Type (0, 1), BuildingBlock: OJICUG_clean_linker_0, # of connection points: 2
#     Edge 74, Type (0, 1), BuildingBlock: OJICUG_clean_linker_0, # of connection points: 2
#     Edge 75, Type (0, 1), BuildingBlock: OJICUG_clean_linker_0, # of connection points: 2
#     Edge 76, Type (0, 1), BuildingBlock: OJICUG_clean_linker_0, # of connection points: 2
#     Edge 77, Type (0, 1), BuildingBlock: OJICUG_clean_linker_0, # of connection points: 2
#     Edge 78, Type (0, 1), BuildingBlock: OJICUG_clean_linker_0, # of connection points: 2
#     Edge 79, Type (0, 1), BuildingBlock: OJICUG_clean_linker_0, # of connection points: 2
#     Edge 80, Type (0, 1), BuildingBlock: OJICUG_clean_linker_0, # of connection points: 2
#     Edge 81, Type (0, 1), BuildingBlock: OJICUG_clean_linker_0, # of connection points: 2
#     Edge 82, Type (0, 1), BuildingBlock: OJICUG_clean_linker_0, # of connection points: 2
#     Edge 83, Type (0, 1), BuildingBlock: OJICUG_clean_linker_0, # of connection points: 2
#     Edge 84, Type (0, 1), BuildingBlock: OJICUG_clean_linker_0, # of connection points: 2
#     Edge 85, Type (0, 1), BuildingBlock: OJICUG_clean_linker_0, # of connection points: 2
#     Edge 86, Type (0, 1), BuildingBlock: OJICUG_clean_linker_0, # of connection points: 2
#     Edge 87, Type (0, 1), BuildingBlock: OJICUG_clean_linker_0, # of connection points: 2
#     Edge 88, Type (0, 1), BuildingBlock: OJICUG_clean_linker_0, # of connection points: 2
#     Edge 89, Type (0, 1), BuildingBlock: OJICUG_clean_linker_0, # of connection points: 2
#     Edge 90, Type (0, 1), BuildingBlock: OJICUG_clean_linker_0, # of connection points: 2
#     Edge 91, Type (0, 1), BuildingBlock: OJICUG_clean_linker_0, # of connection points: 2
#     Edge 92, Type (0, 1), BuildingBlock: OJICUG_clean_linker_0, # of connection points: 2
#     Edge 93, Type (0, 1), BuildingBlock: OJICUG_clean_linker_0, # of connection points: 2
#     Edge 94, Type (0, 1), BuildingBlock: OJICUG_clean_linker_0, # of connection points: 2
#     Edge 95, Type (0, 1), BuildingBlock: OJICUG_clean_linker_0, # of connection points: 2
#     Edge 96, Type (0, 1), BuildingBlock: OJICUG_clean_linker_0, # of connection points: 2
#     Edge 97, Type (0, 1), BuildingBlock: OJICUG_clean_linker_0, # of connection points: 2
#     Edge 98, Type (0, 1), BuildingBlock: OJICUG_clean_linker_0, # of connection points: 2
#     Edge 99, Type (0, 1), BuildingBlock: OJICUG_clean_linker_0, # of connection points: 2
#     Edge 100, Type (0, 1), BuildingBlock: OJICUG_clean_linker_0, # of connection points: 2
#     Edge 101, Type (0, 1), BuildingBlock: OJICUG_clean_linker_0, # of connection points: 2
#     Edge 102, Type (0, 1), BuildingBlock: OJICUG_clean_linker_0, # of connection points: 2
#     Edge 103, Type (0, 1), BuildingBlock: OJICUG_clean_linker_0, # of connection points: 2
#     Edge 104, Type (0, 1), BuildingBlock: OJICUG_clean_linker_0, # of connection points: 2
#     Edge 105, Type (0, 1), BuildingBlock: OJICUG_clean_linker_0, # of connection points: 2
#     Edge 106, Type (0, 1), BuildingBlock: OJICUG_clean_linker_0, # of connection points: 2
#     Edge 107, Type (0, 1), BuildingBlock: OJICUG_clean_linker_0, # of connection points: 2
# Relax obj value: 0.058
# Max RMSD: 0.176
# Mean RMSD: 0.119
data_MOF--net-ptr--node1-QUQFOY_clean_sbu_3--node2-AZAVOO_clean_linker_0--edge1-OJICUG_clean_linker_0
_symmetry_space_group_name_H-M    P1
_symmetry_Int_Tables_number       1
_symmetry_cell_setting            triclinic
loop_
_symmetry_equiv_pos_as_xyz
'x, y, z'
_cell_length_a     64.319478
_cell_length_b     63.525491
_cell_length_c     54.424165
_cell_angle_alpha  93.359429
_cell_angle_beta   92.310533
_cell_angle_gamma 120.69751
loop_
_atom_site_label
_atom_site_type_symbol
_atom_site_fract_x
_atom_site_fract_y
_atom_site_fract_z
_atom_type_partial_charge
C0 C 0.94925 0.30738 0.007 0.0
O1 O 0.93723 0.31671 0.01518 0.0
Cd2 Cd 0.95481 0.35772 0.03382 0.0
O3 O 0.97233 0.31935 0.00981 0.0
Cd4 Cd 0.00503 0.35878 0.03122 0.0
C5 C 0.99484 0.39038 0.99032 0.0
O6 O 0.98352 0.36272 0.06551 0.0
O7 O 0.01653 0.39554 0.05833 0.0
O8 O 0.01707 0.33163 0.0478 0.0
C9 C -0.00097 0.38515 0.07179 0.0
O10 O 0.97651 0.38505 0.00249 0.0
C11 C 0.0397 0.34616 0.04728 0.0
O12 O 0.00829 0.38147 -0.00507 0.0
O13 O 0.04648 0.3665 0.03823 0.0
C14 C 0.61566 0.6634 0.08513 0.0
O15 O 0.59368 0.65461 0.07727 0.0
Cd16 Cd 0.57146 0.61621 0.05253 0.0
O17 O 0.62678 0.65236 0.07906 0.0
Cd18 Cd 0.61942 0.61598 0.05258 0.0
C19 C 0.57962 0.57839 0.08979 0.0
O20 O 0.5947 0.61836 0.01859 0.0
O21 O 0.59371 0.58396 0.01966 0.0
O22 O 0.6597 0.64605 0.04212 0.0
C23 C 0.58822 0.59738 0.00802 0.0
O24 O 0.56559 0.58434 0.07917 0.0
C25 C 0.66743 0.63133 0.03993 0.0
O26 O 0.60184 0.58862 0.08531 0.0
O27 O 0.65302 0.60922 0.04431 0.0
C28 C 0.33581 0.94169 0.02616 0.0
O29 O 0.34219 0.92732 0.01672 0.0
Cd30 Cd 0.38295 0.94663 0.00353 0.0
O31 O 0.34932 0.96475 0.02572 0.0
Cd32 Cd 0.38561 -0.00202 0.01118 0.0
C33 C 0.41525 0.98656 0.05562 0.0
O34 O 0.38754 0.97557 0.97444 0.0
O35 O 0.41907 0.01158 0.98528 0.0
O36 O 0.35593 0.00571 0.99337 0.0
C37 C 0.40839 0.9927 0.96982 0.0
O38 O 0.40892 0.96699 0.04182 0.0
C39 C 0.36539 0.02774 0.00262 0.0
O40 O 0.40873 0.00152 0.04948 0.0
O41 O 0.38531 0.03677 0.01597 0.0
C42 C 0.93948 0.62271 0.02404 0.0
O43 O 0.92669 0.60135 0.03107 0.0
Cd44 Cd 0.94469 0.58152 0.05241 0.0
O45 O 0.96215 0.6352 0.03014 0.0
Cd46 Cd 0.99278 0.63175 0.05525 0.0
C47 C 0.98785 0.58908 0.01262 0.0
O48 O 0.97088 0.60573 0.08818 0.0
O49 O 0.0052 0.60944 0.0801 0.0
O50 O 0.00483 0.67123 0.07698 0.0
C51 C 0.98762 0.60131 0.09365 0.0
O52 O 0.96849 0.57491 0.0226 0.0
C53 C 0.02694 0.6815 0.07241 0.0
O54 O 0.00014 0.61203 0.01946 0.0
O55 O 0.0332 0.66864 0.05946 0.0
C56 C 0.33153 0.38666 0.01832 0.0
O57 O 0.34109 0.40953 0.01641 0.0
Cd58 Cd 0.38109 0.43211 0.00181 0.0
O59 O 0.34223 0.37557 0.01112 0.0
Cd60 Cd 0.37813 0.38251 0.99147 0.0
C61 C 0.41237 0.41688 0.04247 0.0
O62 O 0.3825 0.41261 0.963 0.0
O63 O 0.4129 0.40727 0.96932 0.0
O64 O 0.35095 0.34509 0.96565 0.0
C65 C 0.40319 0.41695 0.95724 0.0
O66 O 0.40876 0.43349 0.03505 0.0
C67 C 0.36197 0.33405 0.97146 0.0
O68 O 0.40221 0.39572 0.03067 0.0
O69 O 0.38099 0.34593 0.98617 0.0
C70 C 0.66877 0.04744 0.03302 0.0
O71 O 0.66216 0.06173 0.04216 0.0
Cd72 Cd 0.6217 0.04248 0.05633 0.0
O73 O 0.65565 0.02444 0.03426 0.0
Cd74 Cd 0.61963 0.99194 0.0506 0.0
C75 C 0.58958 0.0017 0.005 0.0
O76 O 0.61584 0.01426 0.08697 0.0
O77 O 0.58584 0.97731 0.07575 0.0
O78 O 0.6497 0.9854 0.06995 0.0
C79 C 0.59522 -0.00374 0.09109 0.0
O80 O 0.59634 0.02171 0.01815 0.0
C81 C 0.64056 0.96315 0.06156 0.0
O82 O 0.59548 0.98648 0.01189 0.0
O83 O 0.62081 0.95354 0.04779 0.0
C84 C 0.61073 0.64835 0.32931 0.0
O85 O 0.59936 0.65926 0.33469 0.0
Cd86 Cd 0.61716 0.69882 0.35694 0.0
O87 O 0.63315 0.65812 0.33625 0.0
Cd88 Cd 0.66495 0.69567 0.3613 0.0
C89 C 0.66427 0.7335 0.32124 0.0
O90 O 0.63894 0.69712 0.39215 0.0
O91 O 0.67434 0.72952 0.39203 0.0
O92 O 0.67513 0.66664 0.37734 0.0
C93 C 0.65462 0.71822 0.40219 0.0
O94 O 0.64478 0.72905 0.33068 0.0
C95 C 0.69787 0.68145 0.37949 0.0
O96 O 0.67501 0.72205 0.327 0.0
O97 O 0.7055 0.70266 0.37224 0.0
C98 C 0.28626 0.99109 0.42491 0.0
O99 O 0.26357 0.98155 0.4203 0.0
Cd100 Cd 0.23919 0.94316 0.39609 0.0
O101 O 0.29692 0.98015 0.41684 0.0
Cd102 Cd 0.28628 0.94155 0.3922 0.0
C103 C 0.24829 0.90593 0.43266 0.0
O104 O 0.26051 0.94528 0.36031 0.0
O105 O 0.26039 0.91122 0.3581 0.0
O106 O 0.32683 0.96939 0.38036 0.0
C107 C 0.25432 0.92504 0.34817 0.0
O108 O 0.23402 0.91218 0.42326 0.0
C109 C 0.33288 0.95334 0.37757 0.0
O110 O 0.26974 0.91501 0.42598 0.0
O111 O 0.31751 0.93168 0.38239 0.0
C112 C 0.01236 0.27837 0.36404 0.0
O113 O 0.0206 0.26468 0.3575 0.0
Cd114 Cd 0.06119 0.28358 0.34444 0.0
O115 O 0.02456 0.30131 0.36193 0.0
Cd116 Cd 0.06151 0.33338 0.34639 0.0
C117 C 0.09358 0.32767 0.39313 0.0
O118 O 0.06203 0.30782 0.31175 0.0
O119 O 0.09379 0.34424 0.31879 0.0
O120 O 0.0332 0.34297 0.328 0.0
C121 C 0.08218 0.32424 0.30498 0.0
O122 O 0.08839 0.30745 0.3813 0.0
C123 C 0.04455 0.36552 0.33593 0.0
O124 O 0.08537 0.34064 0.38505 0.0
O125 O 0.06456 0.37366 0.3488 0.0
C126 C 0.608 0.94207 0.35223 0.0
O127 O 0.5982 0.91917 0.35427 0.0
Cd128 Cd 0.61482 0.90099 0.38048 0.0
O129 O 0.62844 0.95739 0.36366 0.0
Cd130 Cd 0.65962 0.95583 0.39009 0.0
C131 C 0.66445 0.91604 0.34915 0.0
O132 O 0.63287 0.9268 0.41839 0.0
O133 O 0.67084 0.93834 0.42285 0.0
O134 O 0.67103 -0.0035 0.40935 0.0
C135 C 0.64983 0.92606 0.43031 0.0
O136 O 0.64474 0.89902 0.35635 0.0
C137 C 0.69327 0.00626 0.40535 0.0
O138 O 0.67288 0.9384 0.3571 0.0
O139 O 0.6996 0.99255 0.3942 0.0
C140 C -0.00076 0.72754 0.35931 0.0
O141 O 0.01045 0.75075 0.35907 0.0
Cd142 Cd 0.05008 0.77345 0.34416 0.0
O143 O 0.00849 0.71526 0.35117 0.0
Cd144 Cd 0.04542 0.72215 0.33309 0.0
C145 C 0.07947 0.75647 0.38483 0.0
O146 O 0.05055 0.75327 0.30537 0.0
O147 O 0.079 0.74461 0.30874 0.0
O148 O 0.01906 0.68391 0.3077 0.0
C149 C 0.07029 0.75603 0.29824 0.0
O150 O 0.07575 0.77317 0.37804 0.0
C151 C 0.0309 0.6738 0.31395 0.0
O152 O 0.07009 0.73575 0.37225 0.0
O153 O 0.04954 0.68635 0.329 0.0
C154 C 0.33441 0.38227 0.36769 0.0
O155 O 0.32739 0.39672 0.37526 0.0
Cd156 Cd 0.28699 0.37816 0.38884 0.0
O157 O 0.32147 0.35942 0.37 0.0
Cd158 Cd 0.28509 0.32832 0.38759 0.0
C159 C 0.25429 0.33398 0.33997 0.0
O160 O 0.28303 0.35331 0.42235 0.0
O161 O 0.25149 0.31701 0.41307 0.0
O162 O 0.31508 0.32177 0.40727 0.0
C163 C 0.26224 0.33656 0.42761 0.0
O164 O 0.26113 0.35489 0.3513 0.0
C165 C 0.30481 0.29899 0.40058 0.0
O166 O 0.26045 0.31962 0.34871 0.0
O167 O 0.28443 0.28915 0.38795 0.0
C168 C 0.28087 0.97672 0.66796 0.0
O169 O 0.26814 0.9863 0.67252 0.0
Cd170 Cd 0.28421 0.02788 0.68778 0.0
O171 O 0.30383 0.98899 0.67252 0.0
Cd172 Cd 0.33474 0.03016 0.69297 0.0
C173 C 0.32772 0.05935 0.64692 0.0
O174 O 0.30882 0.032 0.72346 0.0
O175 O 0.34242 0.0658 0.72053 0.0
O176 O 0.34811 0.00455 0.71132 0.0
C177 C 0.3234 0.0541 0.7317 0.0
O178 O 0.30783 0.05369 0.65618 0.0
C179 C 0.3705 0.0207 0.7133 0.0
O180 O 0.34129 0.05189 0.65559 0.0
O181 O 0.37659 0.04116 0.70492 0.0
C182 C 0.94063 0.31252 0.75319 0.0
O183 O 0.91812 0.29963 0.74646 0.0
Cd184 Cd 0.90131 0.26227 0.71978 0.0
O185 O 0.95522 0.3062 0.74543 0.0
Cd186 Cd 0.95447 0.2738 0.71781 0.0
C187 C 0.91932 0.23004 0.75409 0.0
O188 O 0.92606 0.27232 0.68573 0.0
O189 O 0.93414 0.24329 0.68198 0.0
O190 O 0.99155 0.30735 0.70445 0.0
C191 C 0.9243 0.25426 0.67264 0.0
O192 O 0.90191 0.23153 0.74416 0.0
C193 C 0.00378 0.29687 0.70613 0.0
O194 O 0.94112 0.24468 0.74943 0.0
O195 O 0.99321 0.2756 0.71385 0.0
C196 C 0.67873 0.61303 0.697 0.0
O197 O 0.688 0.60013 0.69113 0.0
Cd198 Cd 0.7276 0.62042 0.67518 0.0
O199 O 0.68963 0.63568 0.69354 0.0
Cd200 Cd 0.72418 0.66996 0.67769 0.0
C201 C 0.75971 0.66606 0.72293 0.0
O202 O 0.72512 0.64428 0.64377 0.0
O203 O 0.75269 0.68294 0.6456 0.0
O204 O 0.69177 0.67511 0.66213 0.0
C205 C 0.74315 0.66149 0.63462 0.0
O206 O 0.75455 0.6458 0.71122 0.0
C207 C 0.70118 0.69743 0.6704 0.0
O208 O 0.75086 0.67862 0.71513 0.0
O209 O 0.72209 0.70763 0.682 0.0
C210 C 0.27652 0.28027 0.68436 0.0
O211 O 0.26534 0.25737 0.68675 0.0
Cd212 Cd 0.28218 0.23795 0.71071 0.0
O213 O 0.29788 0.29433 0.69444 0.0
Cd214 Cd 0.32839 0.29017 0.71884 0.0
C215 C 0.32949 0.2496 0.67666 0.0
O216 O 0.30329 0.26225 0.74879 0.0
O217 O 0.33936 0.26824 0.74655 0.0
O218 O 0.34181 0.32948 0.74233 0.0
C219 C 0.31985 0.25874 0.75727 0.0
O220 O 0.30989 0.23346 0.68489 0.0
C221 C 0.36321 0.33995 0.73549 0.0
O222 O 0.33913 0.27226 0.68412 0.0
O223 O 0.36842 0.32713 0.72111 0.0
C224 C 0.67131 0.06422 0.6839 0.0
O225 O 0.68414 0.08706 0.68143 0.0
Cd226 Cd 0.72251 0.10493 0.66375 0.0
O227 O 0.67812 0.04946 0.67667 0.0
Cd228 Cd 0.7116 0.04907 0.65714 0.0
C229 C 0.74949 0.08622 0.70611 0.0
O230 O 0.71748 0.07862 0.62773 0.0
O231 O 0.74338 0.06648 0.62916 0.0
O232 O 0.68026 0.00999 0.6361 0.0
C233 C 0.73585 0.07921 0.61928 0.0
O234 O 0.74739 0.10335 0.69761 0.0
C235 C 0.69074 -0.0016 0.64188 0.0
O236 O 0.73814 0.06451 0.69537 0.0
O237 O 0.71095 0.01051 0.65475 0.0
C238 C 0.99399 0.7087 0.69706 0.0
O239 O 0.98735 0.72369 0.70384 0.0
Cd240 Cd 0.947 0.70751 0.71703 0.0
O241 O 0.9804 0.68593 0.69942 0.0
Cd242 Cd 0.94251 0.65602 0.71591 0.0
C243 C 0.91313 0.6641 0.66819 0.0
O244 O 0.94175 0.68231 0.75044 0.0
O245 O 0.91004 0.64583 0.74255 0.0
O246 O 0.96943 0.64562 0.73618 0.0
C247 C 0.92112 0.66585 0.75636 0.0
O248 O 0.92093 0.68523 0.67946 0.0
C249 C 0.95791 0.623 0.72846 0.0
O250 O 0.91816 0.64895 0.67703 0.0
O251 O 0.93846 0.61518 0.71468 0.0
H252 H 0.16276 0.3244 0.98074 0.0
H253 H 0.29847 0.2826 0.18535 0.0
H254 H 0.16535 0.34756 0.11421 0.0
H255 H 0.13791 0.35717 0.09293 0.0
H256 H 0.07711 0.2869 0.10812 0.0
H257 H 0.10546 0.27653 0.12731 0.0
H258 H 0.19534 0.34226 0.08577 0.0
H259 H 0.18717 0.34186 0.04144 0.0
H260 H 0.12859 0.26627 0.0395 0.0
H261 H 0.13716 0.26681 0.08383 0.0
H262 H 0.23347 0.34906 0.13092 0.0
H263 H 0.26583 0.36758 0.10343 0.0
H264 H 0.23046 0.30031 0.05482 0.0
H265 H 0.19835 0.28143 0.08325 0.0
H266 H 0.2343 0.33827 0.18006 0.0
H267 H 0.27036 0.33807 0.19577 0.0
H268 H 0.24354 0.26727 0.1551 0.0
H269 H 0.20741 0.26758 0.13976 0.0
H270 H 0.18806 0.33864 0.20033 0.0
H271 H 0.20151 0.3439 0.24361 0.0
H272 H 0.20019 0.27501 0.23521 0.0
H273 H 0.18362 0.26851 0.19242 0.0
H274 H 0.15243 0.34134 0.16864 0.0
H275 H 0.13105 0.34581 0.20276 0.0
H276 H 0.10795 0.2717 0.2196 0.0
H277 H 0.12869 0.26709 0.18484 0.0
O278 O 0.16575 0.32412 -0.00173 0.0
O279 O 0.13575 0.28531 -0.0017 0.0
O280 O 0.29733 0.31951 0.20004 0.0
O281 O 0.28438 0.28313 0.17945 0.0
C282 C 0.15536 0.30474 0.13128 0.0
C283 C 0.17174 0.30444 0.11496 0.0
C284 C 0.19273 0.3049 0.12436 0.0
C285 C 0.19597 0.30266 0.14965 0.0
C286 C 0.17892 0.30157 0.16597 0.0
C287 C 0.15864 0.30282 0.15672 0.0
C288 C 0.13747 0.31116 0.12187 0.0
C289 C 0.14608 0.33417 0.11282 0.0
C290 C 0.1302 0.33977 0.10091 0.0
C291 C 0.10506 0.32286 0.09857 0.0
C292 C 0.09634 0.30021 0.1089 0.0
C293 C 0.11245 0.29433 0.12026 0.0
C294 C 0.16708 0.30443 0.08794 0.0
C295 C 0.18093 0.32555 0.0757 0.0
C296 C 0.17613 0.32531 0.05038 0.0
C297 C 0.15727 0.304 0.0369 0.0
C298 C 0.1433 0.28295 0.04931 0.0
C299 C 0.14816 0.28321 0.07461 0.0
C300 C 0.21371 0.31386 0.10916 0.0
C301 C 0.23302 0.33807 0.11468 0.0
C302 C 0.25123 0.34879 0.09871 0.0
C303 C 0.25039 0.33558 0.07672 0.0
C304 C 0.23154 0.31092 0.07165 0.0
C305 C 0.21328 0.30009 0.08784 0.0
C306 C 0.21808 0.30278 0.15904 0.0
C307 C 0.23616 0.32266 0.17472 0.0
C308 C 0.25678 0.32253 0.18358 0.0
C309 C 0.2598 0.3026 0.17675 0.0
C310 C 0.24176 0.28287 0.16078 0.0
C311 C 0.22112 0.283 0.15197 0.0
C312 C 0.18453 0.30305 0.19311 0.0
C313 C 0.18964 0.32415 0.20804 0.0
C314 C 0.19801 0.32742 0.23278 0.0
C315 C 0.2027 0.31025 0.24302 0.0
C316 C 0.19672 0.28863 0.22823 0.0
C317 C 0.18741 0.28493 0.20362 0.0
C318 C 0.14202 0.30384 0.17419 0.0
C319 C 0.14203 0.32577 0.17913 0.0
C320 C 0.13015 0.32843 0.19887 0.0
C321 C 0.11813 0.30923 0.21406 0.0
C322 C 0.11693 0.28677 0.20815 0.0
C323 C 0.12877 0.2841 0.18834 0.0
C324 C 0.1522 0.30381 0.01001 0.0
C325 C 0.28165 0.30235 0.18616 0.0
H326 H 0.66465 0.78059 0.01507 0.0
H327 H 0.74956 0.01727 0.19992 0.0
H328 H 0.65774 0.79974 0.1715 0.0
H329 H 0.63799 0.75631 0.15781 0.0
H330 H 0.70281 0.76923 0.12417 0.0
H331 H 0.7232 0.81272 0.13983 0.0
H332 H 0.66092 0.81247 0.11696 0.0
H333 H 0.65527 0.79417 0.07463 0.0
H334 H 0.73103 0.84475 0.06554 0.0
H335 H 0.7365 0.86267 0.10806 0.0
H336 H 0.66154 0.85534 0.12345 0.0
H337 H 0.64763 0.8762 0.09741 0.0
H338 H 0.7215 0.93668 0.09725 0.0
H339 H 0.73527 0.91555 0.12385 0.0
H340 H 0.67618 0.89766 0.16532 0.0
H341 H 0.68221 0.93883 0.1728 0.0
H342 H 0.75814 0.96774 0.19415 0.0
H343 H 0.75191 0.92649 0.18625 0.0
H344 H 0.66993 0.87056 0.20528 0.0
H345 H 0.66317 0.88189 0.24654 0.0
H346 H 0.7358 0.90206 0.27271 0.0
H347 H 0.74245 0.89015 0.23097 0.0
H348 H 0.6658 0.82583 0.2126 0.0
H349 H 0.65842 0.7998 0.24608 0.0
H350 H 0.72882 0.80749 0.24042 0.0
H351 H 0.73574 0.83325 0.20612 0.0
O352 O 0.66729 0.78809 0.03179 0.0
O353 O 0.70631 0.81462 0.028 0.0
O354 O 0.70758 0.98508 0.1853 0.0
O355 O 0.74668 0.00081 0.19674 0.0
C356 C 0.70184 0.83615 0.16168 0.0
C357 C 0.70289 0.84966 0.1415 0.0
C358 C 0.70611 0.87329 0.14577 0.0
C359 C 0.7102 0.88426 0.17018 0.0
C360 C 0.70924 0.87087 0.19033 0.0
C361 C 0.70516 0.84684 0.18612 0.0
C362 C 0.69206 0.80936 0.15704 0.0
C363 C 0.66812 0.79306 0.16225 0.0
C364 C 0.65666 0.76828 0.15391 0.0
C365 C 0.66864 0.75938 0.13947 0.0
C366 C 0.69312 0.77547 0.13539 0.0
C367 C 0.70479 0.80031 0.14424 0.0
C368 C 0.69921 0.83865 0.11568 0.0
C369 C 0.67632 0.81943 0.10587 0.0
C370 C 0.67312 0.80908 0.08164 0.0
C371 C 0.69272 0.81793 0.06672 0.0
C372 C 0.71557 0.83744 0.07655 0.0
C373 C 0.71875 0.84772 0.10081 0.0
C374 C 0.69942 0.88391 0.1255 0.0
C375 C 0.67487 0.87268 0.11705 0.0
C376 C 0.66692 0.88468 0.10212 0.0
C377 C 0.6834 0.90823 0.09539 0.0
C378 C 0.7083 0.91869 0.10243 0.0
C379 C 0.71626 0.90661 0.11744 0.0
C380 C 0.7137 0.9092 0.1749 0.0
C381 C 0.69414 0.91295 0.17141 0.0
C382 C 0.69762 0.93646 0.17579 0.0
C383 C 0.72069 0.95661 0.184 0.0
C384 C 0.74016 0.95267 0.18776 0.0
C385 C 0.73667 0.92914 0.18328 0.0
C386 C 0.70668 0.87964 0.2152 0.0
C387 C 0.6845 0.87765 0.21982 0.0
C388 C 0.68062 0.88395 0.24333 0.0
C389 C 0.69894 0.89264 0.26262 0.0
C390 C 0.72148 0.89536 0.25797 0.0
C391 C 0.72526 0.88862 0.23431 0.0
C392 C 0.70146 0.83175 0.20719 0.0
C393 C 0.67979 0.8222 0.2188 0.0
C394 C 0.67565 0.80733 0.23801 0.0
C395 C 0.69317 0.80177 0.24624 0.0
C396 C 0.7149 0.8113 0.23448 0.0
C397 C 0.71897 0.82614 0.21504 0.0
C398 C 0.68929 0.80686 0.041 0.0
C399 C 0.72449 0.98163 0.18869 0.0
H400 H 0.12544 0.82829 0.98684 0.0
H401 H 0.32979 -0.00127 0.18145 0.0
H402 H 0.11156 0.83917 0.11677 0.0
H403 H 0.07907 0.79769 0.10065 0.0
H404 H 0.11876 0.76718 0.13403 0.0
H405 H 0.15109 0.8085 0.14979 0.0
H406 H 0.1553 0.88174 0.08512 0.0
H407 H 0.14169 0.86485 0.04205 0.0
H408 H 0.15324 0.80511 0.05606 0.0
H409 H 0.16709 0.82237 0.09898 0.0
H410 H 0.21133 0.92497 0.1008 0.0
H411 H 0.2434 0.93765 0.07225 0.0
H412 H 0.24748 0.87312 0.08466 0.0
H413 H 0.21504 0.86036 0.11215 0.0
H414 H 0.20888 0.94045 0.16622 0.0
H415 H 0.24789 0.9783 0.1774 0.0
H416 H 0.28501 0.93884 0.16211 0.0
H417 H 0.24592 0.90111 0.15129 0.0
H418 H 0.17033 0.90224 0.20741 0.0
H419 H 0.18519 0.91216 0.25135 0.0
H420 H 0.23884 0.89242 0.23631 0.0
H421 H 0.22363 0.88208 0.19294 0.0
H422 H 0.11819 0.85053 0.17672 0.0
H423 H 0.09424 0.82449 0.20826 0.0
H424 H 0.1541 0.81509 0.2308 0.0
H425 H 0.17675 0.83915 0.19806 0.0
O426 O 0.13097 0.8347 0.00389 0.0
O427 O 0.13713 0.80432 0.01208 0.0
O428 O 0.29419 0.00362 0.18416 0.0
O429 O 0.31412 0.98409 0.17687 0.0
C430 C 0.15519 0.85163 0.14043 0.0
C431 C 0.16992 0.86348 0.12132 0.0
C432 C 0.19308 0.8845 0.12708 0.0
C433 C 0.20072 0.89514 0.15166 0.0
C434 C 0.18602 0.88336 0.17086 0.0
C435 C 0.16335 0.86137 0.16525 0.0
C436 C 0.13355 0.82675 0.13453 0.0
C437 C 0.11289 0.82344 0.12104 0.0
C438 C 0.09445 0.79982 0.11184 0.0
C439 C 0.09662 0.77934 0.11588 0.0
C440 C 0.11683 0.7827 0.13038 0.0
C441 C 0.13512 0.80621 0.13965 0.0
C442 C 0.16187 0.85311 0.09519 0.0
C443 C 0.15487 0.86501 0.07881 0.0
C444 C 0.14709 0.85531 0.05425 0.0
C445 C 0.14627 0.83356 0.04563 0.0
C446 C 0.15355 0.82182 0.06211 0.0
C447 C 0.16138 0.83158 0.08665 0.0
C448 C 0.21101 0.89183 0.10843 0.0
C449 C 0.21898 0.91351 0.09694 0.0
C450 C 0.23734 0.92071 0.08081 0.0
C451 C 0.24809 0.90642 0.07624 0.0
C452 C 0.23938 0.88434 0.08734 0.0
C453 C 0.22097 0.87709 0.1032 0.0
C454 C 0.22458 0.91814 0.15759 0.0
C455 C 0.22548 0.94007 0.16517 0.0
C456 C 0.24777 0.96165 0.17157 0.0
C457 C 0.26959 0.96161 0.17058 0.0
C458 C 0.26858 0.93955 0.16298 0.0
C459 C 0.24627 0.91799 0.15661 0.0
C460 C 0.1961 0.89173 0.19696 0.0
C461 C 0.18546 0.90035 0.21365 0.0
C462 C 0.19395 0.90599 0.23866 0.0
C463 C 0.21303 0.90285 0.24725 0.0
C464 C 0.22389 0.89468 0.23031 0.0
C465 C 0.21548 0.88914 0.20546 0.0
C466 C 0.14934 0.84703 0.18536 0.0
C467 C 0.12601 0.84278 0.18854 0.0
C468 C 0.11246 0.82806 0.20668 0.0
C469 C 0.12217 0.81757 0.22207 0.0
C470 C 0.14578 0.82237 0.21902 0.0
C471 C 0.15901 0.83657 0.2006 0.0
C472 C 0.13788 0.82325 0.01956 0.0
C473 C 0.29331 0.98442 0.17761 0.0
H474 H 0.28591 0.17487 0.06746 0.0
H475 H 0.30797 0.00111 0.87758 0.0
H476 H 0.27197 0.17679 0.92912 0.0
H477 H 0.28669 0.22027 0.94177 0.0
H478 H 0.35991 0.23839 0.93009 0.0
H479 H 0.3452 0.19516 0.91839 0.0
H480 H 0.26256 0.12789 0.96646 0.0
H481 H 0.26515 0.14294 0.00958 0.0
H482 H 0.34218 0.19314 0.00707 0.0
H483 H 0.33935 0.17773 0.96408 0.0
H484 H 0.26845 0.07623 0.95033 0.0
H485 H 0.28317 0.05431 0.97443 0.0
H486 H 0.35638 0.1164 0.97579 0.0
H487 H 0.34149 0.13805 0.9523 0.0
H488 H 0.25338 0.06609 0.89152 0.0
H489 H 0.25076 0.02675 0.88093 0.0
H490 H 0.32864 0.06233 0.895 0.0
H491 H 0.33096 0.10155 0.90529 0.0
H492 H 0.25884 0.09534 0.84971 0.0
H493 H 0.26448 0.07995 0.80955 0.0
H494 H 0.34217 0.12145 0.82734 0.0
H495 H 0.33629 0.13694 0.86686 0.0
H496 H 0.26149 0.14907 0.86466 0.0
H497 H 0.26608 0.17517 0.83139 0.0
H498 H 0.34405 0.2087 0.84197 0.0
H499 H 0.33902 0.18151 0.87388 0.0
O500 O 0.28532 0.16914 0.05044 0.0
O501 O 0.32485 0.19463 0.04818 0.0
O502 O 0.26852 -0.00097 0.87458 0.0
O503 O 0.30848 0.01641 0.88169 0.0
C504 C 0.2996 0.15698 0.91671 0.0
C505 C 0.29874 0.14267 0.93594 0.0
C506 C 0.2968 0.11978 0.93033 0.0
C507 C 0.29374 0.11033 0.90545 0.0
C508 C 0.29429 0.12455 0.88626 0.0
C509 C 0.29724 0.14788 0.89186 0.0
C510 C 0.30755 0.18306 0.92269 0.0
C511 C 0.29111 0.19029 0.92915 0.0
C512 C 0.29953 0.21503 0.93625 0.0
C513 C 0.32446 0.23264 0.93701 0.0
C514 C 0.34068 0.22521 0.93001 0.0
C515 C 0.33229 0.20062 0.92305 0.0
C516 C 0.30069 0.15193 0.9621 0.0
C517 C 0.27996 0.14214 0.97528 0.0
C518 C 0.2815 0.15078 -0.00011 0.0
C519 C 0.30386 0.16933 0.01175 0.0
C520 C 0.32466 0.17893 -0.00153 0.0
C521 C 0.32308 0.17025 0.97388 0.0
C522 C 0.3039 0.10871 0.94968 0.0
C523 C 0.2875 0.08532 0.95664 0.0
C524 C 0.296 0.07281 0.97019 0.0
C525 C 0.32101 0.08351 0.97677 0.0
C526 C 0.33701 0.10771 0.97135 0.0
C527 C 0.32852 0.12016 0.95791 0.0
C528 C 0.29231 0.08653 0.89932 0.0
C529 C 0.26982 0.06529 0.89232 0.0
C530 C 0.26839 0.04288 0.88629 0.0
C531 C 0.2895 0.04139 0.88717 0.0
C532 C 0.31204 0.06281 0.89416 0.0
C533 C 0.31343 0.08521 0.90011 0.0
C534 C 0.29718 0.11728 0.86095 0.0
C535 C 0.27702 0.10138 0.84459 0.0
C536 C 0.2803 0.09252 0.82183 0.0
C537 C 0.30379 0.09948 0.81529 0.0
C538 C 0.32389 0.11606 0.83157 0.0
C539 C 0.32059 0.12486 0.85419 0.0
C540 C 0.29993 0.16363 0.87176 0.0
C541 C 0.2795 0.16203 0.85961 0.0
C542 C 0.28221 0.1771 0.84077 0.0
C543 C 0.30546 0.19415 0.83394 0.0
C544 C 0.32584 0.19557 0.84633 0.0
C545 C 0.32306 0.18025 0.86482 0.0
C546 C 0.3054 0.17852 0.03787 0.0
C547 C 0.28809 0.01763 0.88076 0.0
H548 H 0.84023 0.1683 0.06725 0.0
H549 H 0.68502 0.98276 0.85231 0.0
H550 H 0.83902 0.17713 0.92349 0.0
H551 H 0.86571 0.21762 0.94476 0.0
H552 H 0.92085 0.19891 0.95792 0.0
H553 H 0.89389 0.15815 0.93535 0.0
H554 H 0.81056 0.14764 0.96141 0.0
H555 H 0.81856 0.15915 0.00596 0.0
H556 H 0.86555 0.12909 0.00952 0.0
H557 H 0.85723 0.11752 0.96496 0.0
H558 H 0.76849 0.11283 0.92218 0.0
H559 H 0.73668 0.0996 0.95067 0.0
H560 H 0.76662 0.06192 0.98871 0.0
H561 H 0.79812 0.07472 0.95946 0.0
H562 H 0.7671 0.10277 0.87001 0.0
H563 H 0.72734 0.06933 0.85242 0.0
H564 H 0.74206 0.01664 0.88338 0.0
H565 H 0.78188 0.05026 0.90066 0.0
H566 H 0.81904 0.14639 0.85296 0.0
H567 H 0.80742 0.14167 0.80934 0.0
H568 H 0.79098 0.06634 0.80537 0.0
H569 H 0.80627 0.07267 0.84868 0.0
H570 H 0.85956 0.18112 0.88212 0.0
H571 H 0.88495 0.203 0.8498 0.0
H572 H 0.89031 0.13987 0.82731 0.0
H573 H 0.86628 0.11837 0.86133 0.0
O574 O 0.83722 0.16348 0.04966 0.0
O575 O 0.8612 0.14777 0.05049 0.0
O576 O 0.6938 0.0242 0.84381 0.0
O577 O 0.70056 -0.00365 0.85918 0.0
C578 C 0.84638 0.13967 0.91737 0.0
C579 C 0.82859 0.12478 0.93295 0.0
C580 C 0.80596 0.1051 0.92271 0.0
C581 C 0.80172 0.09916 0.89689 0.0
C582 C 0.82004 0.11329 0.88124 0.0
C583 C 0.84268 0.13334 0.89159 0.0
C584 C 0.86469 0.16493 0.9276 0.0
C585 C 0.85706 0.18193 0.93051 0.0
C586 C 0.87223 0.20494 0.94295 0.0
C587 C 0.89522 0.2113 0.95342 0.0
C588 C 0.90324 0.1945 0.94994 0.0
C589 C 0.88797 0.17132 0.93709 0.0
C590 C 0.83307 0.13146 0.96007 0.0
C591 C 0.82239 0.14336 0.9719 0.0
C592 C 0.82708 0.15 -0.00267 0.0
C593 C 0.84264 0.14497 0.01133 0.0
C594 C 0.85342 0.13317 -0.00069 0.0
C595 C 0.84869 0.12652 0.97389 0.0
C596 C 0.78536 0.09441 0.93854 0.0
C597 C 0.76787 0.10128 0.93635 0.0
C598 C 0.74999 0.09408 0.95291 0.0
C599 C 0.7493 0.07996 0.97212 0.0
C600 C 0.76661 0.07269 0.97401 0.0
C601 C 0.78454 0.0799 0.95734 0.0
C602 C 0.77748 0.0789 0.88633 0.0
C603 C 0.76176 0.08398 0.87282 0.0
C604 C 0.73904 0.06486 0.86288 0.0
C605 C 0.73156 0.04029 0.86642 0.0
C606 C 0.74728 0.03533 0.88024 0.0
C607 C 0.77002 0.05448 0.89014 0.0
C608 C 0.81392 0.11004 0.85407 0.0
C609 C 0.81392 0.12918 0.8425 0.0
C610 C 0.80658 0.12617 0.81754 0.0
C611 C 0.79752 0.10336 0.8037 0.0
C612 C 0.79798 0.08426 0.81521 0.0
C613 C 0.80645 0.08771 0.84009 0.0
C614 C 0.86165 0.14834 0.87492 0.0
C615 C 0.86751 0.17247 0.87159 0.0
C616 C 0.88171 0.18487 0.85276 0.0
C617 C 0.88973 0.17314 0.83645 0.0
C618 C 0.8846 0.14933 0.84004 0.0
C619 C 0.87092 0.13713 0.8594 0.0
C620 C 0.84764 0.15211 0.03833 0.0
C621 C 0.70749 0.01988 0.85577 0.0
H622 H 0.87505 0.70228 0.08423 0.0
H623 H 0.68873 0.68002 0.88574 0.0
H624 H 0.89183 0.71342 0.95796 0.0
H625 H 0.91615 0.69907 0.97869 0.0
H626 H 0.87215 0.62766 0.9381 0.0
H627 H 0.84745 0.64189 0.9182 0.0
H628 H 0.85039 0.72106 0.98653 0.0
H629 H 0.86223 0.72013 0.02958 0.0
H630 H 0.84424 0.64493 0.01357 0.0
H631 H 0.83205 0.64596 0.97074 0.0
H632 H 0.79535 0.714 0.96222 0.0
H633 H 0.76148 0.70095 0.9881 0.0
H634 H 0.75755 0.63118 0.99263 0.0
H635 H 0.78924 0.64334 0.96455 0.0
H636 H 0.80842 0.72954 0.90538 0.0
H637 H 0.77374 0.73386 0.89372 0.0
H638 H 0.72504 0.65746 0.90483 0.0
H639 H 0.75992 0.65336 0.91627 0.0
H640 H 0.84421 0.72475 0.86825 0.0
H641 H 0.83205 0.72228 0.82411 0.0
H642 H 0.77182 0.64873 0.82877 0.0
H643 H 0.78377 0.65138 0.87255 0.0
H644 H 0.88958 0.71644 0.8957 0.0
H645 H 0.91032 0.71156 0.86097 0.0
H646 H 0.84466 0.64332 0.83488 0.0
H647 H 0.82513 0.64743 0.87056 0.0
O648 O 0.87004 0.70215 0.0672 0.0
O649 O 0.86065 0.66356 0.05798 0.0
O650 O 0.72852 0.7182 0.88582 0.0
O651 O 0.70274 0.67883 0.89051 0.0
C652 C 0.84866 0.68441 0.93042 0.0
C653 C 0.83418 0.68482 0.94918 0.0
C654 C 0.81315 0.68578 0.94302 0.0
C655 C 0.80791 0.68879 0.91845 0.0
C656 C 0.8225 0.68871 0.89976 0.0
C657 C 0.84251 0.68584 0.90562 0.0
C658 C 0.86779 0.67866 0.93671 0.0
C659 C 0.888 0.69495 0.95295 0.0
C660 C 0.90182 0.68668 0.96482 0.0
C661 C 0.89571 0.66205 0.96043 0.0
C662 C 0.87693 0.64655 0.9423 0.0
C663 C 0.86307 0.65478 0.93057 0.0
C664 C 0.84066 0.68371 0.97545 0.0
C665 C 0.84894 0.70438 0.9924 0.0
C666 C 0.85574 0.70381 0.01695 0.0
C667 C 0.8543 0.6825 0.02499 0.0
C668 C 0.84567 0.66168 0.00798 0.0
C669 C 0.83879 0.66225 0.98347 0.0
C670 C 0.7948 0.67964 0.9614 0.0
C671 C 0.78708 0.69589 0.96881 0.0
C672 C 0.76785 0.68844 0.98391 0.0
C673 C 0.75643 0.66481 0.99246 0.0
C674 C 0.76525 0.6492 0.98598 0.0
C675 C 0.78381 0.65634 0.97026 0.0
C676 C 0.78665 0.69121 0.91186 0.0
C677 C 0.79024 0.71379 0.90533 0.0
C678 C 0.7704 0.7162 0.89869 0.0
C679 C 0.7466 0.69601 0.89839 0.0
C680 C 0.74311 0.67338 0.90491 0.0
C681 C 0.76298 0.67099 0.91152 0.0
C682 C 0.8148 0.68826 0.87354 0.0
C683 C 0.82828 0.70825 0.85971 0.0
C684 C 0.82135 0.70684 0.83464 0.0
C685 C 0.80115 0.68525 0.82314 0.0
C686 C 0.78759 0.66547 0.83718 0.0
C687 C 0.79427 0.66702 0.86217 0.0
C688 C 0.85574 0.68247 0.88544 0.0
C689 C 0.87991 0.7003 0.8826 0.0
C690 C 0.8916 0.69759 0.86256 0.0
C691 C 0.8792 0.67711 0.84485 0.0
C692 C 0.85507 0.65914 0.84818 0.0
C693 C 0.84366 0.66162 0.86844 0.0
C694 C 0.86181 0.68206 0.05101 0.0
C695 C 0.72549 0.69845 0.8912 0.0
H696 H 0.80933 0.6445 0.30788 0.0
H697 H 0.9608 0.62475 0.51825 0.0
H698 H 0.82226 0.68085 0.44587 0.0
H699 H 0.79459 0.69097 0.42592 0.0
H700 H 0.73433 0.61878 0.43691 0.0
H701 H 0.763 0.60813 0.45485 0.0
H702 H 0.84323 0.67365 0.41231 0.0
H703 H 0.83298 0.66879 0.36788 0.0
H704 H 0.7904 0.58993 0.37009 0.0
H705 H 0.80098 0.59505 0.41461 0.0
H706 H 0.87652 0.68671 0.44626 0.0
H707 H 0.91076 0.70775 0.42172 0.0
H708 H 0.90866 0.63924 0.40415 0.0
H709 H 0.87249 0.61789 0.42711 0.0
H710 H 0.89364 0.67643 0.50364 0.0
H711 H 0.93115 0.67927 0.51987 0.0
H712 H 0.90403 0.60456 0.48937 0.0
H713 H 0.86656 0.60195 0.47345 0.0
H714 H 0.84957 0.67333 0.52908 0.0
H715 H 0.86337 0.67794 0.57214 0.0
H716 H 0.85743 0.60685 0.56306 0.0
H717 H 0.84053 0.6012 0.5205 0.0
H718 H 0.81741 0.67755 0.50199 0.0
H719 H 0.79787 0.6831 0.53689 0.0
H720 H 0.75968 0.60452 0.54297 0.0
H721 H 0.78149 0.59984 0.50943 0.0
O722 O 0.81323 0.64599 0.32549 0.0
O723 O 0.79148 0.60556 0.32764 0.0
O724 O 0.95929 0.66247 0.52738 0.0
O725 O 0.94621 0.62416 0.51201 0.0
C726 C 0.81279 0.63736 0.46031 0.0
C727 C 0.82899 0.63715 0.44376 0.0
C728 C 0.85073 0.6391 0.4529 0.0
C729 C 0.85446 0.63704 0.47812 0.0
C730 C 0.83738 0.63532 0.49468 0.0
C731 C 0.81685 0.63626 0.48577 0.0
C732 C 0.7947 0.64361 0.45129 0.0
C733 C 0.80307 0.66715 0.4438 0.0
C734 C 0.78705 0.67302 0.43269 0.0
C735 C 0.76199 0.65575 0.42963 0.0
C736 C 0.7535 0.63242 0.43833 0.0
C737 C 0.76977 0.62634 0.44891 0.0
C738 C 0.82307 0.63467 0.41669 0.0
C739 C 0.8319 0.65532 0.4032 0.0
C740 C 0.82591 0.6525 0.37778 0.0
C741 C 0.81092 0.62896 0.3654 0.0
C742 C 0.80203 0.60832 0.37903 0.0
C743 C 0.80805 0.61118 0.40445 0.0
C744 C 0.87191 0.65079 0.43812 0.0
C745 C 0.8833 0.67621 0.43681 0.0
C746 C 0.90316 0.68826 0.42303 0.0
C747 C 0.91283 0.67535 0.41104 0.0
C748 C 0.90153 0.64977 0.41275 0.0
C749 C 0.88103 0.63752 0.42604 0.0
C750 C 0.87742 0.63896 0.48746 0.0
C751 C 0.89587 0.66072 0.50052 0.0
C752 C 0.91725 0.66228 0.50974 0.0
C753 C 0.92058 0.64211 0.50594 0.0
C754 C 0.90206 0.62041 0.49265 0.0
C755 C 0.88067 0.61888 0.48349 0.0
C756 C 0.84332 0.63663 0.52169 0.0
C757 C 0.85003 0.65819 0.53665 0.0
C758 C 0.8587 0.66109 0.56123 0.0
C759 C 0.86215 0.64303 0.57122 0.0
C760 C 0.85485 0.62111 0.5563 0.0
C761 C 0.8453 0.61786 0.53185 0.0
C762 C 0.80105 0.63838 0.50348 0.0
C763 C 0.80455 0.66154 0.51073 0.0
C764 C 0.79315 0.66459 0.5307 0.0
C765 C 0.77727 0.64432 0.54329 0.0
C766 C 0.77239 0.62076 0.5345 0.0
C767 C 0.7845 0.6179 0.51503 0.0
C768 C 0.80457 0.62603 0.33839 0.0
C769 C 0.94321 0.64362 0.51578 0.0
H770 H 0.35617 0.15281 0.33331 0.0
H771 H 0.40587 0.34333 0.54308 0.0
H772 H 0.32668 0.13837 0.46375 0.0
H773 H 0.30818 0.09495 0.45072 0.0
H774 H 0.37268 0.09664 0.47964 0.0
H775 H 0.39173 0.14101 0.49174 0.0
H776 H 0.33614 0.17056 0.43377 0.0
H777 H 0.33764 0.16154 0.38987 0.0
H778 H 0.4115 0.17851 0.404 0.0
H779 H 0.40986 0.1878 0.44791 0.0
H780 H 0.32788 0.19581 0.4703 0.0
H781 H 0.31216 0.21686 0.44684 0.0
H782 H 0.3847 0.26836 0.42813 0.0
H783 H 0.4004 0.24693 0.45207 0.0
H784 H 0.34074 0.22101 0.52223 0.0
H785 H 0.34347 0.25967 0.53648 0.0
H786 H 0.41876 0.29957 0.52039 0.0
H787 H 0.4158 0.26072 0.50642 0.0
H788 H 0.33398 0.17566 0.54488 0.0
H789 H 0.3263 0.18739 0.58525 0.0
H790 H 0.40166 0.24506 0.59785 0.0
H791 H 0.40924 0.23294 0.557 0.0
H792 H 0.32861 0.13355 0.51801 0.0
H793 H 0.31896 0.10399 0.54855 0.0
H794 H 0.39305 0.14613 0.58068 0.0
H795 H 0.40284 0.1752 0.54912 0.0
O796 O 0.35602 0.1566 0.35077 0.0
O797 O 0.39394 0.16547 0.35902 0.0
O798 O 0.36558 0.30639 0.54571 0.0
O799 O 0.4043 0.32777 0.53762 0.0
C800 C 0.37029 0.16888 0.48766 0.0
C801 C 0.37251 0.18584 0.47078 0.0
C802 C 0.37387 0.20787 0.47937 0.0
C803 C 0.37655 0.21467 0.50493 0.0
C804 C 0.37529 0.19821 0.522 0.0
C805 C 0.3717 0.17505 0.51335 0.0
C806 C 0.36073 0.14296 0.47821 0.0
C807 C 0.33714 0.12959 0.46669 0.0
C808 C 0.32638 0.10463 0.45974 0.0
C809 C 0.33881 0.09227 0.46453 0.0
C810 C 0.3627 0.10573 0.47569 0.0
C811 C 0.3736 0.13098 0.48256 0.0
C812 C 0.37305 0.18026 0.444 0.0
C813 C 0.35275 0.17268 0.42735 0.0
C814 C 0.3536 0.16735 0.40227 0.0
C815 C 0.37473 0.1694 0.39339 0.0
C816 C 0.39497 0.17682 0.4102 0.0
C817 C 0.39409 0.18214 0.43528 0.0
C818 C 0.36519 0.21976 0.46263 0.0
C819 C 0.34032 0.21136 0.46072 0.0
C820 C 0.33136 0.22331 0.44719 0.0
C821 C 0.34716 0.24415 0.43548 0.0
C822 C 0.37213 0.25233 0.43701 0.0
C823 C 0.38111 0.24013 0.45051 0.0
C824 C 0.37817 0.2381 0.51361 0.0
C825 C 0.35784 0.23812 0.52199 0.0
C826 C 0.35944 0.26022 0.53003 0.0
C827 C 0.38137 0.28273 0.52964 0.0
C828 C 0.40163 0.28259 0.521 0.0
C829 C 0.40001 0.26045 0.51301 0.0
C830 C 0.37225 0.20314 0.54819 0.0
C831 C 0.34905 0.19023 0.55668 0.0
C832 C 0.34469 0.19705 0.57977 0.0
C833 C 0.3634 0.21711 0.59481 0.0
C834 C 0.38687 0.22959 0.58661 0.0
C835 C 0.39128 0.2226 0.56344 0.0
C836 C 0.36652 0.15633 0.53108 0.0
C837 C 0.34293 0.13608 0.53122 0.0
C838 C 0.33738 0.11939 0.54892 0.0
C839 C 0.3552 0.1228 0.56717 0.0
C840 C 0.37899 0.14284 0.56671 0.0
C841 C 0.38458 0.15952 0.54881 0.0
C842 C 0.37557 0.16373 0.36673 0.0
C843 C 0.38317 0.30627 0.53816 0.0
H844 H 0.79651 0.1605 0.31057 0.0
H845 H -0.00455 0.33084 0.50686 0.0
H846 H 0.77973 0.1658 0.44106 0.0
H847 H 0.74667 0.12391 0.42678 0.0
H848 H 0.7876 0.0945 0.45972 0.0
H849 H 0.82047 0.13612 0.47348 0.0
H850 H 0.82452 0.21099 0.41018 0.0
H851 H 0.81171 0.19539 0.36672 0.0
H852 H 0.82259 0.13493 0.37913 0.0
H853 H 0.83563 0.15091 0.42246 0.0
H854 H 0.88069 0.25502 0.42794 0.0
H855 H 0.91522 0.27008 0.40236 0.0
H856 H 0.91818 0.20445 0.41192 0.0
H857 H 0.88336 0.18938 0.43628 0.0
H858 H 0.87438 0.26719 0.49249 0.0
H859 H 0.91237 0.30604 0.50399 0.0
H860 H 0.95272 0.27018 0.48756 0.0
H861 H 0.91463 0.23143 0.47647 0.0
H862 H 0.83708 0.22671 0.53337 0.0
H863 H 0.85229 0.23624 0.57712 0.0
H864 H 0.90835 0.22054 0.56003 0.0
H865 H 0.89247 0.21012 0.51691 0.0
H866 H 0.78617 0.17662 0.50067 0.0
H867 H 0.76178 0.14955 0.5313 0.0
H868 H 0.82154 0.14001 0.55383 0.0
H869 H 0.84484 0.1654 0.52203 0.0
O870 O 0.80169 0.16636 0.32778 0.0
O871 O 0.80749 0.13558 0.33514 0.0
O872 O 0.95855 0.33325 0.51066 0.0
O873 O 0.98015 0.31571 0.50238 0.0
C874 C 0.82368 0.17894 0.46465 0.0
C875 C 0.8384 0.19162 0.44583 0.0
C876 C 0.86122 0.21299 0.45204 0.0
C877 C 0.86848 0.22306 0.47685 0.0
C878 C 0.8539 0.21033 0.49575 0.0
C879 C 0.83155 0.18815 0.48964 0.0
C880 C 0.80238 0.15391 0.45837 0.0
C881 C 0.78131 0.15023 0.44544 0.0
C882 C 0.76251 0.12639 0.43737 0.0
C883 C 0.76474 0.10604 0.44198 0.0
C884 C 0.78556 0.10986 0.45564 0.0
C885 C 0.80421 0.13357 0.46372 0.0
C886 C 0.83067 0.1819 0.41951 0.0
C887 C 0.82409 0.19437 0.40346 0.0
C888 C 0.81678 0.18541 0.37866 0.0
C889 C 0.81602 0.16384 0.36947 0.0
C890 C 0.82286 0.15152 0.38563 0.0
C891 C 0.83021 0.16053 0.4104 0.0
C892 C 0.8796 0.22114 0.4338 0.0
C893 C 0.88853 0.24376 0.4239 0.0
C894 C 0.90836 0.25236 0.40954 0.0
C895 C 0.91964 0.23855 0.40521 0.0
C896 C 0.90981 0.21541 0.41441 0.0
C897 C 0.88993 0.20678 0.42845 0.0
C898 C 0.89175 0.2466 0.48329 0.0
C899 C 0.89146 0.26781 0.4913 0.0
C900 C 0.91318 0.28996 0.49788 0.0
C901 C 0.9356 0.29124 0.4966 0.0
C902 C 0.93579 0.26988 0.48865 0.0
C903 C 0.91406 0.24774 0.48214 0.0
C904 C 0.86388 0.21807 0.52193 0.0
C905 C 0.85272 0.22551 0.53915 0.0
C906 C 0.86146 0.23097 0.56407 0.0
C907 C 0.88146 0.22901 0.57206 0.0
C908 C 0.8927 0.22185 0.5546 0.0
C909 C 0.88391 0.2163 0.52985 0.0
C910 C 0.81738 0.17324 0.50938 0.0
C911 C 0.79391 0.16866 0.5123 0.0
C912 C 0.78009 0.15333 0.52992 0.0
C913 C 0.78966 0.14253 0.54504 0.0
C914 C 0.81338 0.14759 0.54224 0.0
C915 C 0.82695 0.1625 0.52437 0.0
C916 C 0.80816 0.15434 0.34314 0.0
C917 C 0.95873 0.31471 0.50365 0.0
H918 H 0.98989 0.52331 0.40469 0.0
H919 H 0.00218 0.35489 0.19636 0.0
H920 H 0.95477 0.51712 0.26638 0.0
H921 H 0.96483 0.55884 0.28118 0.0
H922 H 0.03948 0.58668 0.26592 0.0
H923 H 0.02937 0.54511 0.25175 0.0
H924 H 0.95545 0.47514 0.30434 0.0
H925 H 0.96285 0.49079 0.34796 0.0
H926 H 0.03837 0.5406 0.33711 0.0
H927 H 0.03072 0.5246 0.29363 0.0
H928 H 0.95667 0.42465 0.28404 0.0
H929 H 0.96965 0.40097 0.30749 0.0
H930 H 0.04457 0.45805 0.30403 0.0
H931 H 0.03135 0.48165 0.28131 0.0
H932 H 0.94256 0.41138 0.22903 0.0
H933 H 0.94196 0.37363 0.21531 0.0
H934 H 0.02023 0.41496 0.21618 0.0
H935 H 0.0205 0.45252 0.22984 0.0
H936 H 0.94222 0.43766 0.18753 0.0
H937 H 0.94511 0.41814 0.14863 0.0
H938 H 0.0229 0.46773 0.15552 0.0
H939 H 0.01963 0.48732 0.19376 0.0
H940 H 0.9434 0.49235 0.2018 0.0
H941 H 0.94372 0.51797 0.16959 0.0
H942 H 0.02218 0.55694 0.17545 0.0
H943 H 0.02148 0.53054 0.20656 0.0
O944 O 0.98736 0.51737 0.38741 0.0
O945 O 0.02597 0.54273 0.38081 0.0
O946 O 0.96168 0.349 0.20211 0.0
O947 O 0.00189 0.36945 0.20206 0.0
C948 C 0.98614 0.50321 0.25102 0.0
C949 C 0.98782 0.48934 0.26949 0.0
C950 C 0.98607 0.46674 0.26277 0.0
C951 C 0.98178 0.45757 0.23771 0.0
C952 C 0.9802 0.47152 0.21927 0.0
C953 C 0.98235 0.49433 0.2259 0.0
C954 C 0.99135 0.52832 0.25792 0.0
C955 C 0.97319 0.53236 0.26603 0.0
C956 C 0.97895 0.55609 0.27437 0.0
C957 C 0.00296 0.57589 0.2748 0.0
C958 C 0.02091 0.57171 0.26608 0.0
C959 C 0.01514 0.54809 0.25777 0.0
C960 C 0.99248 0.49894 0.29586 0.0
C961 C 0.97355 0.48944 0.31146 0.0
C962 C 0.97784 0.49842 0.33634 0.0
C963 C 0.00119 0.51701 0.34601 0.0
C964 C 0.02016 0.52635 0.33025 0.0
C965 C 0.01584 0.51732 0.30541 0.0
C966 C 0.9931 0.45479 0.28112 0.0
C967 C 0.97581 0.43227 0.28908 0.0
C968 C 0.98329 0.41875 0.30224 0.0
C969 C 0.00817 0.42752 0.30738 0.0
C970 C 0.0253 0.45088 0.30069 0.0
C971 C 0.01779 0.46439 0.28766 0.0
C972 C 0.98156 0.43456 0.23047 0.0
C973 C 0.95953 0.41216 0.22637 0.0
C974 C 0.95925 0.39067 0.21849 0.0
C975 C 0.98106 0.39129 0.21461 0.0
C976 C 0.00312 0.41383 0.21897 0.0
C977 C 0.00335 0.43528 0.22683 0.0
C978 C 0.9807 0.46395 0.19323 0.0
C979 C 0.95971 0.44479 0.18006 0.0
C980 C 0.96147 0.43349 0.15809 0.0
C981 C 0.98428 0.44118 0.14914 0.0
C982 C 0.00503 0.46151 0.16166 0.0
C983 C 0.00322 0.47281 0.1835 0.0
C984 C 0.98241 0.50973 0.20649 0.0
C985 C 0.96058 0.50641 0.19597 0.0
C986 C 0.96084 0.52118 0.17776 0.0
C987 C 0.98298 0.53953 0.16989 0.0
C988 C 0.00479 0.54276 0.18071 0.0
C989 C 0.00447 0.52786 0.19867 0.0
C990 C 0.00568 0.52654 0.37243 0.0
C991 C 0.98086 0.3686 0.20591 0.0
H992 H 0.5105 0.51536 0.39834 0.0
H993 H 0.36943 0.29848 0.19816 0.0
H994 H 0.50309 0.514 0.2451 0.0
H995 H 0.52958 0.5565 0.26148 0.0
H996 H 0.58088 0.53813 0.29194 0.0
H997 H 0.5547 0.49557 0.27363 0.0
H998 H 0.48179 0.49049 0.2924 0.0
H999 H 0.49055 0.50499 0.33637 0.0
H1000 H 0.52832 0.46556 0.34594 0.0
H1001 H 0.51939 0.4512 0.30192 0.0
H1002 H 0.43689 0.44795 0.26057 0.0
H1003 H 0.40522 0.43514 0.28905 0.0
H1004 H 0.43392 0.39608 0.32657 0.0
H1005 H 0.46548 0.40863 0.29721 0.0
H1006 H 0.42216 0.42027 0.21956 0.0
H1007 H 0.38615 0.38032 0.20621 0.0
H1008 H 0.42748 0.34503 0.21922 0.0
H1009 H 0.46342 0.38519 0.23239 0.0
H1010 H 0.45076 0.45486 0.19538 0.0
H1011 H 0.43712 0.44886 0.15176 0.0
H1012 H 0.48006 0.41593 0.13543 0.0
H1013 H 0.49374 0.42205 0.17966 0.0
H1014 H 0.49173 0.49775 0.20246 0.0
H1015 H 0.51156 0.52371 0.16967 0.0
H1016 H 0.5638 0.50007 0.17007 0.0
H1017 H 0.54402 0.4745 0.20382 0.0
O1018 O 0.50733 0.50952 0.38098 0.0
O1019 O 0.52689 0.48926 0.38482 0.0
O1020 O 0.363 0.33357 0.19688 0.0
O1021 O 0.38339 0.31452 0.20338 0.0
C1022 C 0.50932 0.47573 0.24982 0.0
C1023 C 0.49449 0.46085 0.26753 0.0
C1024 C 0.47287 0.43856 0.25983 0.0
C1025 C 0.46741 0.42977 0.23465 0.0
C1026 C 0.48226 0.4445 0.2169 0.0
C1027 C 0.50316 0.46755 0.22446 0.0
C1028 C 0.52729 0.50188 0.25757 0.0
C1029 C 0.5205 0.51933 0.25441 0.0
C1030 C 0.53546 0.54353 0.26429 0.0
C1031 C 0.55722 0.55068 0.27833 0.0
C1032 C 0.56435 0.53328 0.281 0.0
C1033 C 0.54945 0.50899 0.27064 0.0
C1034 C 0.50005 0.4699 0.29408 0.0
C1035 C 0.49201 0.48509 0.30405 0.0
C1036 C 0.49701 0.49331 0.32916 0.0
C1037 C 0.51014 0.48644 0.34468 0.0
C1038 C 0.51818 0.4712 0.33451 0.0
C1039 C 0.51313 0.46298 0.30941 0.0
C1040 C 0.45312 0.42881 0.2766 0.0
C1041 C 0.43612 0.43632 0.27473 0.0
C1042 C 0.4183 0.42932 0.29126 0.0
C1043 C 0.41722 0.41482 0.31023 0.0
C1044 C 0.43425 0.40716 0.31204 0.0
C1045 C 0.4522 0.41422 0.29534 0.0
C1046 C 0.44541 0.4056 0.22679 0.0
C1047 C 0.42342 0.40391 0.21943 0.0
C1048 C 0.40287 0.38105 0.21186 0.0
C1049 C 0.40394 0.35946 0.2116 0.0
C1050 C 0.42602 0.36128 0.21915 0.0
C1051 C 0.44657 0.38417 0.22669 0.0
C1052 C 0.473 0.43865 0.19059 0.0
C1053 C 0.45702 0.44609 0.18243 0.0
C1054 C 0.44951 0.44294 0.15751 0.0
C1055 C 0.4578 0.43222 0.14023 0.0
C1056 C 0.47345 0.42425 0.14845 0.0
C1057 C 0.48119 0.42765 0.17357 0.0
C1058 C 0.51654 0.48439 0.20559 0.0
C1059 C 0.50765 0.49841 0.19572 0.0
C1060 C 0.51885 0.51301 0.17676 0.0
C1061 C 0.53908 0.5137 0.167 0.0
C1062 C 0.54832 0.5 0.17728 0.0
C1063 C 0.53707 0.4854 0.19647 0.0
C1064 C 0.51535 0.49511 0.37137 0.0
C1065 C 0.38217 0.33513 0.2035 0.0
H1066 H 0.53971 0.01684 0.41281 0.0
H1067 H 0.33931 0.97201 0.21762 0.0
H1068 H 0.5532 0.026 0.28163 0.0
H1069 H 0.58111 0.01495 0.30032 0.0
H1070 H 0.53111 0.93873 0.27383 0.0
H1071 H 0.50471 0.95049 0.25372 0.0
H1072 H 0.51174 0.032 0.31477 0.0
H1073 H 0.52533 0.03278 0.35766 0.0
H1074 H 0.50428 0.95635 0.34484 0.0
H1075 H 0.49041 0.95574 0.30217 0.0
H1076 H 0.45539 0.02415 0.29056 0.0
H1077 H 0.42345 0.01445 0.31832 0.0
H1078 H 0.41792 0.94461 0.32784 0.0
H1079 H 0.44794 0.9535 0.29815 0.0
H1080 H 0.4603 0.03303 0.23315 0.0
H1081 H 0.42279 0.03234 0.22147 0.0
H1082 H 0.38108 0.95626 0.23709 0.0
H1083 H 0.41873 0.95714 0.24846 0.0
H1084 H 0.50025 0.03457 0.20011 0.0
H1085 H 0.48713 0.03408 0.15684 0.0
H1086 H 0.43001 0.95832 0.15804 0.0
H1087 H 0.44316 0.95897 0.20097 0.0
H1088 H 0.54826 0.03003 0.22934 0.0
H1089 H 0.5726 0.03015 0.19592 0.0
H1090 H 0.51137 0.96145 0.16292 0.0
H1091 H 0.48819 0.96057 0.19743 0.0
O1092 O 0.53402 0.01607 0.39586 0.0
O1093 O 0.52309 0.97683 0.38823 0.0
O1094 O 0.3767 0.01196 0.2145 0.0
O1095 O 0.35442 0.97281 0.22218 0.0
C1096 C 0.50747 0.99416 0.26027 0.0
C1097 C 0.49289 0.99396 0.27912 0.0
C1098 C 0.47131 0.99392 0.27313 0.0
C1099 C 0.46508 -0.00441 0.2484 0.0
C1100 C 0.4802 -0.00321 0.22969 0.0
C1101 C 0.50129 -0.00424 0.23556 0.0
C1102 C 0.52702 0.98903 0.26634 0.0
C1103 C 0.54889 0.00711 0.27914 0.0
C1104 C 0.56455 0.0006 0.29022 0.0
C1105 C 0.55825 0.97577 0.28924 0.0
C1106 C 0.53697 0.95805 0.2749 0.0
C1107 C 0.52171 0.96471 0.26332 0.0
C1108 C 0.50033 0.99391 0.30532 0.0
C1109 C 0.51 0.01544 0.32132 0.0
C1110 C 0.5178 0.01583 0.34577 0.0
C1111 C 0.516 0.99466 0.35465 0.0
C1112 C 0.50602 0.97301 0.33858 0.0
C1113 C 0.49817 0.97264 0.31417 0.0
C1114 C 0.45405 0.98957 0.29231 0.0
C1115 C 0.44724 0.00678 0.29869 0.0
C1116 C 0.42913 0.00126 0.31485 0.0
C1117 C 0.41787 0.97862 0.3254 0.0
C1118 C 0.42565 0.96197 0.31974 0.0
C1119 C 0.44321 0.96721 0.30308 0.0
C1120 C 0.44222 -0.00482 0.24176 0.0
C1121 C 0.44304 0.01625 0.23403 0.0
C1122 C 0.42159 0.0158 0.22739 0.0
C1123 C 0.39892 0.99423 0.22837 0.0
C1124 C 0.39821 0.97316 0.23615 0.0
C1125 C 0.41968 0.97363 0.24273 0.0
C1126 C 0.47261 -0.00319 0.20359 0.0
C1127 C 0.48493 0.01792 0.19093 0.0
C1128 C 0.47739 0.01764 0.16636 0.0
C1129 C 0.45766 -0.00388 0.15411 0.0
C1130 C 0.44546 0.97505 0.16692 0.0
C1131 C 0.45282 0.97543 0.19145 0.0
C1132 C 0.51635 -0.00457 0.2157 0.0
C1133 C 0.54031 0.01486 0.21503 0.0
C1134 C 0.55408 0.01503 0.1957 0.0
C1135 C 0.54402 -0.00411 0.17646 0.0
C1136 C 0.52002 0.97633 0.17748 0.0
C1137 C 0.50652 0.97595 0.19705 0.0
C1138 C 0.52454 -0.00479 0.38056 0.0
C1139 C 0.37608 0.99364 0.22126 0.0
H1140 H 0.49319 0.0111 0.64953 0.0
H1141 H 0.64562 0.98442 0.85464 0.0
H1142 H 0.49907 0.03277 0.78579 0.0
H1143 H 0.46959 0.03995 0.76502 0.0
H1144 H 0.41304 0.96542 0.77456 0.0
H1145 H 0.44365 0.95785 0.79328 0.0
H1146 H 0.52644 0.031 0.75439 0.0
H1147 H 0.51694 0.03007 0.7103 0.0
H1148 H 0.4708 0.95096 0.70635 0.0
H1149 H 0.48071 0.95214 0.75051 0.0
H1150 H 0.56222 0.04117 0.78544 0.0
H1151 H 0.59427 0.05862 0.75763 0.0
H1152 H 0.58067 0.98567 0.73574 0.0
H1153 H 0.54678 0.96832 0.76199 0.0
H1154 H 0.5724 0.02972 0.84465 0.0
H1155 H 0.61078 0.03432 0.86061 0.0
H1156 H 0.58939 0.96311 0.8239 0.0
H1157 H 0.55102 0.95869 0.80826 0.0
H1158 H 0.52412 0.01946 0.87147 0.0
H1159 H 0.53695 0.02021 0.91421 0.0
H1160 H 0.53939 0.9543 0.89598 0.0
H1161 H 0.52377 0.95226 0.85374 0.0
H1162 H 0.48821 0.02352 0.8391 0.0
H1163 H 0.46435 0.024 0.87269 0.0
H1164 H 0.4439 0.94933 0.88438 0.0
H1165 H 0.46725 0.94875 0.85014 0.0
O1166 O 0.49687 0.01102 0.66693 0.0
O1167 O 0.47336 0.97038 0.66588 0.0
O1168 O 0.64135 0.02017 0.86603 0.0
O1169 O 0.63077 0.98325 0.84831 0.0
C1170 C 0.49296 0.99004 0.79918 0.0
C1171 C 0.50989 0.99187 0.78246 0.0
C1172 C 0.53168 0.99372 0.79123 0.0
C1173 C 0.53547 0.99089 0.81619 0.0
C1174 C 0.51766 0.98698 0.83273 0.0
C1175 C 0.49657 0.98715 0.82427 0.0
C1176 C 0.47359 0.99467 0.79057 0.0
C1177 C 0.48029 0.01797 0.78333 0.0
C1178 C 0.46321 0.02212 0.77171 0.0
C1179 C 0.43869 0.00327 0.76783 0.0
C1180 C 0.43178 0.98024 0.77654 0.0
C1181 C 0.44915 0.97592 0.78762 0.0
C1182 C 0.50457 0.99159 0.75557 0.0
C1183 C 0.51458 0.01345 0.74394 0.0
C1184 C 0.50897 0.01288 0.71875 0.0
C1185 C 0.49316 0.99043 0.70476 0.0
C1186 C 0.4831 0.96856 0.71656 0.0
C1187 C 0.48874 0.96917 0.74175 0.0
C1188 C 0.55221 0.00355 0.77552 0.0
C1189 C 0.56617 0.02901 0.77449 0.0
C1190 C 0.58469 0.03895 0.75872 0.0
C1191 C 0.59034 0.02367 0.74434 0.0
C1192 C 0.5766 -0.00195 0.74602 0.0
C1193 C 0.55744 0.98805 0.76127 0.0
C1194 C 0.55898 0.99388 0.82533 0.0
C1195 C 0.57608 0.01516 0.84008 0.0
C1196 C 0.59797 0.01774 0.84915 0.0
C1197 C 0.60315 -0.00094 0.84354 0.0
C1198 C 0.58599 0.97783 0.82858 0.0
C1199 C 0.5641 0.97529 0.81954 0.0
C1200 C 0.52279 0.98571 0.85939 0.0
C1201 C 0.5265 0.00465 0.87688 0.0
C1202 C 0.53443 0.00533 0.9013 0.0
C1203 C 0.53989 0.98766 0.90866 0.0
C1204 C 0.53527 0.96816 0.89125 0.0
C1205 C 0.52653 0.96706 0.86696 0.0
C1206 C 0.47934 0.98606 0.84212 0.0
C1207 C 0.478 0.00702 0.84843 0.0
C1208 C 0.46465 0.00738 0.86783 0.0
C1209 C 0.4525 0.98679 0.88133 0.0
C1210 C 0.45294 0.9654 0.8742 0.0
C1211 C 0.46629 0.96505 0.85473 0.0
C1212 C 0.48715 0.9899 0.67803 0.0
C1213 C 0.62627 0.00157 0.85333 0.0
H1214 H 0.959 0.4257 0.68228 0.0
H1215 H 0.04646 0.66291 0.86406 0.0
H1216 H 0.96478 0.44452 0.83773 0.0
H1217 H 0.94961 0.40144 0.82494 0.0
H1218 H 0.0157 0.42223 0.7897 0.0
H1219 H 0.03142 0.46528 0.80422 0.0
H1220 H 0.963 0.45919 0.78569 0.0
H1221 H 0.95427 0.44012 0.74329 0.0
H1222 H 0.02823 0.49126 0.72819 0.0
H1223 H 0.03679 0.50997 0.77078 0.0
H1224 H 0.96503 0.50609 0.79002 0.0
H1225 H 0.95374 0.52969 0.76479 0.0
H1226 H 0.0295 0.58556 0.76421 0.0
H1227 H 0.04053 0.56192 0.79012 0.0
H1228 H 0.97732 0.54158 0.83625 0.0
H1229 H 0.98086 0.58168 0.84402 0.0
H1230 H 0.05878 0.616 0.85612 0.0
H1231 H 0.05494 0.57578 0.84806 0.0
H1232 H 0.97357 0.50928 0.87703 0.0
H1233 H 0.96997 0.52608 0.91697 0.0
H1234 H 0.04798 0.56603 0.93133 0.0
H1235 H 0.05138 0.54868 0.89098 0.0
H1236 H 0.9731 0.46916 0.87922 0.0
H1237 H 0.97102 0.4446 0.91275 0.0
H1238 H 0.04509 0.46372 0.90447 0.0
H1239 H 0.04668 0.48788 0.87018 0.0
O1240 O 0.96287 0.43348 0.69898 0.0
O1241 O 0.00104 0.46029 0.69211 0.0
O1242 O 0.00442 0.6283 0.85432 0.0
O1243 O 0.04454 0.64683 0.86091 0.0
C1244 C 0.00665 0.48412 0.82709 0.0
C1245 C 0.006 0.49719 0.80717 0.0
C1246 C 0.00925 0.52078 0.81187 0.0
C1247 C 0.01373 0.53159 0.83637 0.0
C1248 C 0.01404 0.51844 0.85622 0.0
C1249 C 0.01084 0.49483 0.85163 0.0
C1250 C -0.00064 0.45797 0.82226 0.0
C1251 C 0.9764 0.43967 0.82816 0.0
C1252 C 0.96756 0.41509 0.8204 0.0
C1253 C 0.98129 0.40838 0.80603 0.0
C1254 C 0.00476 0.4267 0.80099 0.0
C1255 C 0.01376 0.45132 0.80915 0.0
C1256 C 0.00061 0.48575 0.78136 0.0
C1257 C 0.97734 0.46611 0.77324 0.0
C1258 C 0.97238 0.45532 0.74899 0.0
C1259 C 0.99057 0.46411 0.73236 0.0
C1260 C 0.01382 0.48399 0.74053 0.0
C1261 C 0.01876 0.49473 0.76482 0.0
C1262 C 0.00357 0.53236 0.79189 0.0
C1263 C 0.97923 0.52304 0.78375 0.0
C1264 C 0.97282 0.53657 0.7693 0.0
C1265 C 0.9907 0.55967 0.76272 0.0
C1266 C 0.01527 0.56804 0.76935 0.0
C1267 C 0.02165 0.5545 0.78393 0.0
C1268 C 0.01589 0.55588 0.84145 0.0
C1269 C -0.00488 0.55781 0.8405 0.0
C1270 C -0.00279 0.58072 0.84499 0.0
C1271 C 0.02013 0.60207 0.85065 0.0
C1272 C 0.04087 0.59996 0.85177 0.0
C1273 C 0.03875 0.57703 0.84721 0.0
C1274 C 0.01267 0.52739 0.88145 0.0
C1275 C 0.98985 0.52123 0.88903 0.0
C1276 C 0.98785 0.53086 0.9118 0.0
C1277 C 0.00869 0.54715 0.92732 0.0
C1278 C 0.03166 0.55345 0.91969 0.0
C1279 C 0.03362 0.54348 0.89685 0.0
C1280 C 0.01014 0.48057 0.87253 0.0
C1281 C 0.98897 0.46827 0.8848 0.0
C1282 C 0.98786 0.45426 0.90401 0.0
C1283 C 0.00801 0.4524 0.91155 0.0
C1284 C 0.02922 0.46464 0.89905 0.0
C1285 C 0.03023 0.47859 0.87963 0.0
C1286 C 0.98524 0.45259 0.7066 0.0
C1287 C 0.02245 0.62646 0.85538 0.0
H1288 H 0.47525 0.4912 0.64616 0.0
H1289 H 0.64506 0.66435 0.88581 0.0
H1290 H 0.44343 0.49592 0.79055 0.0
H1291 H 0.41125 0.45431 0.77438 0.0
H1292 H 0.46473 0.43254 0.76924 0.0
H1293 H 0.4965 0.47401 0.78472 0.0
H1294 H 0.47862 0.52847 0.74796 0.0
H1295 H 0.47205 0.51464 0.70391 0.0
H1296 H 0.52641 0.49424 0.71288 0.0
H1297 H 0.53261 0.5079 0.75694 0.0
H1298 H 0.53888 0.57563 0.75202 0.0
H1299 H 0.57322 0.58951 0.7262 0.0
H1300 H 0.6052 0.56015 0.77459 0.0
H1301 H 0.57071 0.54583 0.79963 0.0
H1302 H 0.5439 0.60337 0.81028 0.0
H1303 H 0.57847 0.64245 0.8286 0.0
H1304 H 0.60687 0.60286 0.86561 0.0
H1305 H 0.57248 0.564 0.84682 0.0
H1306 H 0.51395 0.57798 0.86256 0.0
H1307 H 0.52769 0.59011 0.90652 0.0
H1308 H 0.54606 0.5334 0.90739 0.0
H1309 H 0.53136 0.52095 0.86412 0.0
H1310 H 0.46394 0.5267 0.85086 0.0
H1311 H 0.44027 0.50147 0.88312 0.0
H1312 H 0.4659 0.45155 0.86665 0.0
H1313 H 0.49017 0.47734 0.83542 0.0
O1314 O 0.47818 0.49659 0.66358 0.0
O1315 O 0.50634 0.48651 0.66914 0.0
O1316 O 0.61818 0.66889 0.8557 0.0
O1317 O 0.63187 0.64924 0.87746 0.0
C1318 C 0.49201 0.51291 0.79804 0.0
C1319 C 0.50974 0.52755 0.7823 0.0
C1320 C 0.53108 0.54917 0.79225 0.0
C1321 C 0.53371 0.55733 0.81745 0.0
C1322 C 0.516 0.54268 0.83322 0.0
C1323 C 0.49525 0.52037 0.82354 0.0
C1324 C 0.47225 0.48796 0.78845 0.0
C1325 C 0.44807 0.4821 0.78578 0.0
C1326 C 0.42977 0.45835 0.7767 0.0
C1327 C 0.43548 0.44017 0.7703 0.0
C1328 C 0.45976 0.4462 0.7734 0.0
C1329 C 0.47794 0.46985 0.78232 0.0
C1330 C 0.50629 0.51947 0.75553 0.0
C1331 C 0.48914 0.52108 0.74033 0.0
C1332 C 0.48541 0.51315 0.7152 0.0
C1333 C 0.49877 0.50341 0.70485 0.0
C1334 C 0.51589 0.50174 0.72023 0.0
C1335 C 0.51956 0.50963 0.74537 0.0
C1336 C 0.55254 0.56003 0.77778 0.0
C1337 C 0.55345 0.57245 0.75705 0.0
C1338 C 0.57299 0.58027 0.74237 0.0
C1339 C 0.59176 0.57569 0.74829 0.0
C1340 C 0.59082 0.56354 0.7693 0.0
C1341 C 0.57136 0.55573 0.78386 0.0
C1342 C 0.55553 0.58089 0.82749 0.0
C1343 C 0.55771 0.60322 0.82221 0.0
C1344 C 0.57743 0.62548 0.83273 0.0
C1345 C 0.59532 0.62576 0.84875 0.0
C1346 C 0.59333 0.60331 0.85353 0.0
C1347 C 0.57368 0.58108 0.84287 0.0
C1348 C 0.52153 0.54851 0.86031 0.0
C1349 C 0.52047 0.56793 0.87252 0.0
C1350 C 0.52857 0.57495 0.89754 0.0
C1351 C 0.5381 0.56281 0.91059 0.0
C1352 C 0.53841 0.54289 0.89824 0.0
C1353 C 0.53009 0.53576 0.87343 0.0
C1354 C 0.4785 0.50364 0.84068 0.0
C1355 C 0.4641 0.51011 0.85407 0.0
C1356 C 0.45058 0.49567 0.87237 0.0
C1357 C 0.45139 0.47465 0.87749 0.0
C1358 C 0.4652 0.46785 0.86337 0.0
C1359 C 0.47878 0.48233 0.84527 0.0
C1360 C 0.49473 0.49498 0.67815 0.0
C1361 C 0.61581 0.6493 0.86072 0.0
H1362 H 0.61908 0.84153 0.7384 0.0
H1363 H 0.6417 0.66697 0.55572 0.0
H1364 H 0.60168 0.83933 0.60603 0.0
H1365 H 0.61547 0.88248 0.61926 0.0
H1366 H 0.68532 0.90469 0.59206 0.0
H1367 H 0.67166 0.86184 0.57942 0.0
H1368 H 0.59448 0.79115 0.63884 0.0
H1369 H 0.59783 0.80713 0.68176 0.0
H1370 H 0.67229 0.86346 0.67463 0.0
H1371 H 0.66877 0.8471 0.63186 0.0
H1372 H 0.60023 0.74182 0.62107 0.0
H1373 H 0.6158 0.72044 0.64483 0.0
H1374 H 0.68797 0.78458 0.64824 0.0
H1375 H 0.67221 0.80569 0.62518 0.0
H1376 H 0.58652 0.73196 0.55928 0.0
H1377 H 0.58464 0.69279 0.55007 0.0
H1378 H 0.66115 0.72795 0.57285 0.0
H1379 H 0.66285 0.76702 0.58156 0.0
H1380 H 0.5923 0.76667 0.51717 0.0
H1381 H 0.59821 0.75076 0.47735 0.0
H1382 H 0.67314 0.77853 0.50237 0.0
H1383 H 0.66715 0.79451 0.54151 0.0
H1384 H 0.59473 0.82492 0.54623 0.0
H1385 H 0.59932 0.85306 0.51516 0.0
H1386 H 0.66854 0.86136 0.50017 0.0
H1387 H 0.6645 0.83473 0.53227 0.0
O1388 O 0.61816 0.83551 0.72142 0.0
O1389 O 0.65631 0.8642 0.71674 0.0
O1390 O 0.60272 0.6651 0.54729 0.0
O1391 O 0.64193 0.68222 0.55918 0.0
C1392 C 0.62901 0.82169 0.58639 0.0
C1393 C 0.62896 0.80821 0.60618 0.0
C1394 C 0.62799 0.78568 0.60135 0.0
C1395 C 0.62567 0.77592 0.57672 0.0
C1396 C 0.62592 0.78947 0.55698 0.0
C1397 C 0.62734 0.81226 0.56173 0.0
C1398 C 0.63566 0.84758 0.59168 0.0
C1399 C 0.6198 0.85362 0.60264 0.0
C1400 C 0.62767 0.87817 0.61013 0.0
C1401 C 0.65152 0.89679 0.60687 0.0
C1402 C 0.66697 0.89065 0.59509 0.0
C1403 C 0.65912 0.86626 0.58761 0.0
C1404 C 0.63125 0.81817 0.63217 0.0
C1405 C 0.61147 0.80696 0.6466 0.0
C1406 C 0.61345 0.81613 0.67109 0.0
C1407 C 0.6353 0.83664 0.6816 0.0
C1408 C 0.65517 0.84771 0.66708 0.0
C1409 C 0.65317 0.83848 0.64262 0.0
C1410 C 0.63511 0.77524 0.62139 0.0
C1411 C 0.61919 0.75149 0.62786 0.0
C1412 C 0.62819 0.73928 0.64118 0.0
C1413 C 0.65323 0.75065 0.64804 0.0
C1414 C 0.6686 0.7753 0.64351 0.0
C1415 C 0.65959 0.78747 0.63032 0.0
C1416 C 0.62472 0.7522 0.5714 0.0
C1417 C 0.60283 0.73112 0.5623 0.0
C1418 C 0.60181 0.70879 0.55706 0.0
C1419 C 0.62274 0.70722 0.56082 0.0
C1420 C 0.64469 0.72848 0.56982 0.0
C1421 C 0.6457 0.7508 0.57493 0.0
C1422 C 0.62933 0.78175 0.53205 0.0
C1423 C 0.61001 0.76958 0.51376 0.0
C1424 C 0.61339 0.7604 0.4912 0.0
C1425 C 0.63616 0.76348 0.48676 0.0
C1426 C 0.65551 0.77622 0.50504 0.0
C1427 C 0.65211 0.78523 0.52744 0.0
C1428 C 0.62904 0.82735 0.54118 0.0
C1429 C 0.61077 0.83272 0.53604 0.0
C1430 C 0.6134 0.84872 0.51821 0.0
C1431 C 0.63434 0.85959 0.50515 0.0
C1432 C 0.65235 0.85371 0.5101 0.0
C1433 C 0.64985 0.83803 0.52811 0.0
C1434 C 0.63732 0.84634 0.70762 0.0
C1435 C 0.62176 0.68354 0.55533 0.0
H1436 H 0.16895 0.81793 0.74596 0.0
H1437 H 0.02566 0.63925 0.52427 0.0
H1438 H 0.16735 0.83587 0.60896 0.0
H1439 H 0.19397 0.87748 0.62737 0.0
H1440 H 0.25523 0.86693 0.62471 0.0
H1441 H 0.228 0.8249 0.60493 0.0
H1442 H 0.14015 0.80367 0.64021 0.0
H1443 H 0.14736 0.81194 0.68513 0.0
H1444 H 0.199 0.78751 0.68414 0.0
H1445 H 0.19142 0.77908 0.63919 0.0
H1446 H 0.10227 0.77403 0.59498 0.0
H1447 H 0.06843 0.76032 0.62073 0.0
H1448 H 0.0942 0.7202 0.66086 0.0
H1449 H 0.12803 0.73364 0.63424 0.0
H1450 H 0.09846 0.76083 0.54612 0.0
H1451 H 0.06037 0.72543 0.52768 0.0
H1452 H 0.08241 0.67664 0.55514 0.0
H1453 H 0.12058 0.71225 0.57327 0.0
H1454 H 0.14569 0.80864 0.5335 0.0
H1455 H 0.13285 0.80606 0.49064 0.0
H1456 H 0.1282 0.73574 0.47832 0.0
H1457 H 0.14479 0.74055 0.52093 0.0
H1458 H 0.18269 0.84341 0.56295 0.0
H1459 H 0.20411 0.87021 0.53139 0.0
H1460 H 0.22516 0.81923 0.50388 0.0
H1461 H 0.20421 0.79256 0.5365 0.0
O1462 O 0.16628 0.81442 0.72818 0.0
O1463 O 0.1927 0.80172 0.72666 0.0
O1464 O 0.03013 0.67945 0.51761 0.0
O1465 O 0.04063 0.65357 0.53127 0.0
C1466 C 0.17838 0.80226 0.59439 0.0
C1467 C 0.16091 0.78551 0.60916 0.0
C1468 C 0.13894 0.76551 0.59798 0.0
C1469 C 0.13562 0.76053 0.57205 0.0
C1470 C 0.15342 0.77684 0.55716 0.0
C1471 C 0.175 0.7977 0.56838 0.0
C1472 C 0.19574 0.82737 0.60586 0.0
C1473 C 0.18651 0.84246 0.61248 0.0
C1474 C 0.20178 0.86622 0.62316 0.0
C1475 C 0.22671 0.87543 0.62803 0.0
C1476 C 0.23611 0.86036 0.62117 0.0
C1477 C 0.22065 0.83639 0.61004 0.0
C1478 C 0.16497 0.79038 0.63651 0.0
C1479 C 0.15281 0.79986 0.64975 0.0
C1480 C 0.15706 0.80469 0.6754 0.0
C1481 C 0.17369 0.8003 0.68825 0.0
C1482 C 0.186 0.79101 0.67484 0.0
C1483 C 0.1817 0.78616 0.64918 0.0
C1484 C 0.11739 0.75452 0.6125 0.0
C1485 C 0.10037 0.76186 0.60899 0.0
C1486 C 0.08127 0.75436 0.624 0.0
C1487 C 0.07884 0.73947 0.64304 0.0
C1488 C 0.09561 0.73163 0.64627 0.0
C1489 C 0.11485 0.73919 0.63111 0.0
C1490 C 0.11246 0.7391 0.56068 0.0
C1491 C 0.09514 0.7425 0.54791 0.0
C1492 C 0.07335 0.72223 0.5375 0.0
C1493 C 0.06837 0.69818 0.53986 0.0
C1494 C 0.08569 0.69489 0.5529 0.0
C1495 C 0.1075 0.71519 0.56327 0.0
C1496 C 0.14694 0.77519 0.53028 0.0
C1497 C 0.14311 0.79327 0.52131 0.0
C1498 C 0.13495 0.79132 0.49681 0.0
C1499 C 0.12879 0.77036 0.4809 0.0
C1500 C 0.13295 0.75231 0.48981 0.0
C1501 C 0.14225 0.75488 0.51425 0.0
C1502 C 0.19225 0.81618 0.55252 0.0
C1503 C 0.19297 0.83853 0.55112 0.0
C1504 C 0.20482 0.85362 0.53268 0.0
C1505 C 0.21603 0.84662 0.51507 0.0
C1506 C 0.21673 0.82507 0.51734 0.0
C1507 C 0.20481 0.80988 0.53592 0.0
C1508 C 0.1782 0.80548 0.7155 0.0
C1509 C 0.04522 0.67658 0.52888 0.0
H1510 H 0.21474 0.36422 0.7522 0.0
H1511 H 0.02794 0.34513 0.54618 0.0
H1512 H 0.23386 0.37364 0.61146 0.0
H1513 H 0.25848 0.35762 0.62841 0.0
H1514 H 0.19412 0.2851 0.62463 0.0
H1515 H 0.17044 0.30102 0.60652 0.0
H1516 H 0.20243 0.38665 0.65186 0.0
H1517 H 0.21257 0.38459 0.69514 0.0
H1518 H 0.15985 0.3066 0.68804 0.0
H1519 H 0.14994 0.30896 0.64478 0.0
H1520 H 0.14399 0.38398 0.6428 0.0
H1521 H 0.11099 0.37286 0.67019 0.0
H1522 H 0.08076 0.29615 0.6453 0.0
H1523 H 0.11356 0.30741 0.61843 0.0
H1524 H 0.14454 0.39722 0.5871 0.0
H1525 H 0.10971 0.40125 0.575 0.0
H1526 H 0.06575 0.32242 0.55812 0.0
H1527 H 0.10078 0.31873 0.57018 0.0
H1528 H 0.16846 0.39188 0.54094 0.0
H1529 H 0.15558 0.38794 0.49693 0.0
H1530 H 0.12375 0.30914 0.49482 0.0
H1531 H 0.13716 0.31342 0.5383 0.0
H1532 H 0.21336 0.38822 0.55154 0.0
H1533 H 0.23405 0.38511 0.516 0.0
H1534 H 0.20144 0.3071 0.52208 0.0
H1535 H 0.18009 0.3103 0.55695 0.0
O1536 O 0.21034 0.36464 0.73512 0.0
O1537 O 0.18319 0.32455 0.73046 0.0
O1538 O 0.06561 0.38459 0.55913 0.0
O1539 O 0.04204 0.34409 0.55091 0.0
C1540 C 0.18446 0.34793 0.60099 0.0
C1541 C 0.16998 0.34954 0.61894 0.0
C1542 C 0.15028 0.35231 0.6118 0.0
C1543 C 0.14618 0.35542 0.587 0.0
C1544 C 0.16117 0.35471 0.56916 0.0
C1545 C 0.18044 0.35109 0.57616 0.0
C1546 C 0.20046 0.33844 0.60779 0.0
C1547 C 0.22539 0.35421 0.61375 0.0
C1548 C 0.23929 0.34503 0.62372 0.0
C1549 C 0.22833 0.32002 0.62811 0.0
C1550 C 0.20343 0.30429 0.62117 0.0
C1551 C 0.18975 0.31338 0.61094 0.0
C1552 C 0.17535 0.34802 0.64531 0.0
C1553 C 0.19303 0.36918 0.65976 0.0
C1554 C 0.1988 0.36793 0.68444 0.0
C1555 C 0.187 0.34543 0.69507 0.0
C1556 C 0.16924 0.32423 0.68046 0.0
C1557 C 0.16347 0.32553 0.65578 0.0
C1558 C 0.13112 0.34644 0.62886 0.0
C1559 C 0.13027 0.36482 0.64352 0.0
C1560 C 0.11146 0.35843 0.65904 0.0
C1561 C 0.09344 0.33359 0.6601 0.0
C1562 C 0.09461 0.31537 0.64537 0.0
C1563 C 0.11321 0.32176 0.62987 0.0
C1564 C 0.12509 0.35772 0.57946 0.0
C1565 C 0.12736 0.38089 0.58074 0.0
C1566 C 0.10745 0.38312 0.57383 0.0
C1567 C 0.08493 0.36214 0.56559 0.0
C1568 C 0.08281 0.33893 0.56436 0.0
C1569 C 0.10276 0.33676 0.57121 0.0
C1570 C 0.15383 0.35294 0.54263 0.0
C1571 C 0.15882 0.37385 0.53081 0.0
C1572 C 0.15139 0.37153 0.50576 0.0
C1573 C 0.1388 0.34823 0.49229 0.0
C1574 C 0.13388 0.3274 0.50441 0.0
C1575 C 0.14134 0.32976 0.5293 0.0
C1576 C 0.1955 0.34956 0.55701 0.0
C1577 C 0.21103 0.37055 0.54539 0.0
C1578 C 0.22287 0.36873 0.52513 0.0
C1579 C 0.21936 0.34584 0.51612 0.0
C1580 C 0.2043 0.32496 0.52833 0.0
C1581 C 0.19238 0.32679 0.54851 0.0
C1582 C 0.19332 0.34414 0.72125 0.0
C1583 C 0.06369 0.36439 0.55836 0.0
C1584 C 0.00817 0.42522 0.09295 0.0
C1585 C -0.00513 0.39941 0.09123 0.0
H1586 H 0.01458 0.45867 0.11195 0.0
C1587 C 0.97727 0.38741 0.1079 0.0
H1588 H 0.02165 0.43498 0.08013 0.0
C1589 C 0.97341 0.40099 0.12634 0.0
C1590 C 0.98689 0.42685 0.12826 0.0
H1591 H 0.96677 0.36752 0.10699 0.0
H1592 H 0.96037 0.39119 0.13951 0.0
C1593 C 0.00411 0.43879 0.11117 0.0
C1594 C 0.58511 0.5587 0.12634 0.0
C1595 C 0.5698 0.56009 0.10815 0.0
H1596 H 0.5874 0.54312 0.15955 0.0
C1597 C 0.54458 0.54465 0.10837 0.0
H1598 H 0.60463 0.57037 0.12661 0.0
C1599 C 0.5348 0.52894 0.12691 0.0
C1600 C 0.54995 0.52847 0.14593 0.0
H1601 H 0.53229 0.54495 0.09438 0.0
H1602 H 0.51525 0.51741 0.12656 0.0
C1603 C 0.57525 0.54306 0.14514 0.0
C1604 C 0.43497 0.01138 0.09637 0.0
C1605 C 0.42869 0.99072 0.0799 0.0
H1606 H 0.4492 0.02934 0.13288 0.0
C1607 C 0.43394 0.97303 0.08749 0.0
H1608 H 0.43124 0.02538 0.0911 0.0
C1609 C 0.44411 0.9753 0.11132 0.0
C1610 C 0.44942 -0.00464 0.1281 0.0
H1611 H 0.42954 0.95697 0.07528 0.0
H1612 H 0.44742 0.96107 0.11679 0.0
C1613 C 0.44533 0.01372 0.12025 0.0
C1614 C 0.44216 0.01067 0.94213 0.0
C1615 C 0.4195 0.99104 0.94714 0.0
H1616 H 0.47039 0.02457 0.91753 0.0
C1617 C 0.40755 0.96997 0.93024 0.0
H1618 H 0.45185 0.02712 0.95482 0.0
C1619 C 0.41813 0.96858 0.90874 0.0
C1620 C 0.44079 0.98826 0.90373 0.0
H1621 H 0.39003 0.95456 0.9336 0.0
H1622 H 0.4085 0.9522 0.89595 0.0
C1623 C 0.4527 0.00929 0.92066 0.0
C1624 C 0.01368 0.40769 0.95108 0.0
C1625 C 0.00016 0.40737 0.97086 0.0
H1626 H 0.02644 0.42188 0.91645 0.0
C1627 C 0.99078 0.42307 0.9717 0.0
H1628 H 0.02115 0.39579 0.94997 0.0
C1629 C 0.9941 0.43818 0.9529 0.0
C1630 C 0.00661 0.43778 0.93248 0.0
H1631 H 0.98067 0.42364 0.98693 0.0
H1632 H 0.98664 0.45007 0.95431 0.0
C1633 C 0.01678 0.4227 0.93197 0.0
C1634 C 0.56018 0.56328 0.97646 0.0
C1635 C 0.57403 0.58855 0.98385 0.0
H1636 H 0.53699 0.53526 0.9481 0.0
C1637 C 0.57468 0.60528 0.96773 0.0
H1638 H 0.55909 0.54995 0.98869 0.0
C1639 C 0.56251 0.59693 0.94417 0.0
C1640 C 0.54908 0.57162 0.93644 0.0
H1641 H 0.58529 0.62489 0.97298 0.0
H1642 H 0.56441 0.61041 0.93176 0.0
C1643 C 0.54762 0.55489 0.95313 0.0
C1644 C 0.98284 0.55293 0.98653 0.0
C1645 C -0.00464 0.57854 0.99232 0.0
H1646 H 0.9777 0.52299 0.96176 0.0
C1647 C 0.01417 0.59367 0.97792 0.0
H1648 H 0.9685 0.54067 -0.00258 0.0
C1649 C 0.01945 0.5834 0.95738 0.0
C1650 C 0.00598 0.5579 0.95096 0.0
H1651 H 0.02423 0.61345 0.98199 0.0
H1652 H 0.03325 0.59549 0.94589 0.0
C1653 C 0.9881 0.54275 0.96611 0.0
C1654 C 0.43924 0.43843 0.93315 0.0
C1655 C 0.41553 0.43245 0.93735 0.0
H1656 H 0.46926 0.45685 0.9113 0.0
C1657 C 0.40376 0.44098 0.92212 0.0
H1658 H 0.44888 0.43232 0.94471 0.0
C1659 C 0.4154 0.45489 0.90271 0.0
C1660 C 0.43899 0.46047 0.89828 0.0
H1661 H 0.38545 0.43662 0.92496 0.0
H1662 H 0.4058 0.46084 0.8909 0.0
C1663 C 0.45086 0.45235 0.91389 0.0
C1664 C 0.56051 0.97365 0.96927 0.0
C1665 C 0.5763 -0.00257 0.98067 0.0
H1666 H 0.53574 0.95172 0.93813 0.0
C1667 C 0.57985 0.01771 0.96842 0.0
H1668 H 0.5574 0.95768 0.97835 0.0
C1669 C 0.56812 0.01442 0.94522 0.0
C1670 C 0.55193 0.99069 0.93375 0.0
H1671 H 0.59225 0.03631 0.97652 0.0
H1672 H 0.57227 0.03067 0.93612 0.0
C1673 C 0.54822 0.9703 0.94615 0.0
C1674 C 0.5875 0.01874 0.12555 0.0
C1675 C 0.58313 -0.00345 0.11348 0.0
H1676 H 0.57806 0.03601 0.15429 0.0
C1677 C 0.56666 0.97433 0.12274 0.0
H1678 H 0.60006 0.03614 0.1187 0.0
C1679 C 0.55461 0.97421 0.14352 0.0
C1680 C 0.55822 -0.0037 0.15526 0.0
H1681 H 0.5632 0.95694 0.11401 0.0
H1682 H 0.54245 0.95669 0.15036 0.0
C1683 C 0.57499 0.01862 0.14607 0.0
C1684 C 0.00198 0.57661 0.11443 0.0
C1685 C 0.98589 0.58538 0.11315 0.0
H1686 H 0.01315 0.55478 0.13264 0.0
C1687 C 0.96837 0.5786 0.13038 0.0
H1688 H 0.01552 0.58124 0.10124 0.0
C1689 C 0.96726 0.56362 0.1488 0.0
C1690 C 0.98353 0.55501 0.15016 0.0
H1691 H 0.95573 0.5851 0.12983 0.0
H1692 H 0.95394 0.55915 0.1622 0.0
C1693 C 0.00071 0.56151 0.13257 0.0
C1694 C 0.43806 0.44489 0.07941 0.0
C1695 C 0.42701 0.42168 0.06603 0.0
H1696 H 0.45694 0.46651 0.11327 0.0
C1697 C 0.42866 0.40267 0.07623 0.0
H1698 H 0.43741 0.46002 0.072 0.0
C1699 C 0.43986 0.40642 0.09994 0.0
C1700 C 0.44953 0.42921 0.11383 0.0
H1701 H 0.42045 0.38459 0.06634 0.0
H1702 H 0.43983 0.39116 0.10787 0.0
C1703 C 0.44921 0.44861 0.10306 0.0
C1704 C 0.66602 0.75456 0.43192 0.0
C1705 C 0.64925 0.73009 0.42304 0.0
H1706 H 0.67467 0.78452 0.45859 0.0
C1707 C 0.62738 0.71715 0.43427 0.0
H1708 H 0.68292 0.76509 0.42348 0.0
C1709 C 0.62269 0.72828 0.45446 0.0
C1710 C 0.63979 0.75254 0.46376 0.0
H1711 H 0.61408 0.69828 0.42774 0.0
H1712 H 0.60608 0.71761 0.46331 0.0
C1713 C 0.66131 0.76568 0.45202 0.0
C1714 C 0.25535 0.8829 0.46508 0.0
C1715 C 0.23993 0.88914 0.45256 0.0
H1716 H 0.25984 0.86435 0.49486 0.0
C1717 C 0.21639 0.8801 0.46003 0.0
H1718 H 0.27356 0.88951 0.45973 0.0
C1719 C 0.20873 0.86599 0.48001 0.0
C1720 C 0.22434 0.86045 0.49305 0.0
H1721 H 0.20389 0.88428 0.45074 0.0
H1722 H 0.19054 0.85951 0.4854 0.0
C1723 C 0.24755 0.86853 0.48513 0.0
C1724 C 0.10851 0.35361 0.43367 0.0
C1725 C 0.10774 0.33512 0.41743 0.0
H1726 H 0.11863 0.37205 0.47015 0.0
C1727 C 0.11922 0.32262 0.42531 0.0
H1728 H 0.09983 0.36359 0.42818 0.0
C1729 C 0.13027 0.32771 0.44925 0.0
C1730 C 0.12989 0.34523 0.46596 0.0
H1731 H 0.11923 0.30849 0.41317 0.0
H1732 H 0.1387 0.31751 0.45483 0.0
C1733 C 0.1194 0.35856 0.45772 0.0
C1734 C 0.1136 0.33884 0.27444 0.0
C1735 C 0.0913 0.32041 0.28171 0.0
H1736 H 0.13961 0.34963 0.24747 0.0
C1737 C 0.07762 0.29836 0.26639 0.0
H1738 H 0.12457 0.356 0.28588 0.0
C1739 C 0.08613 0.2948 0.24425 0.0
C1740 C 0.10846 0.31323 0.23699 0.0
H1741 H 0.06031 0.28384 0.27146 0.0
H1742 H 0.07517 0.27769 0.23274 0.0
C1743 C 0.1221 0.33527 0.25233 0.0
C1744 C 0.68793 0.75118 0.28451 0.0
C1745 C 0.67406 0.75223 0.30331 0.0
H1746 H 0.7045 0.76573 0.25131 0.0
C1747 C 0.6684 0.77086 0.30433 0.0
H1748 H 0.69255 0.73699 0.28331 0.0
C1749 C 0.6756 0.78753 0.28644 0.0
C1750 C 0.68826 0.78574 0.26675 0.0
H1751 H 0.65813 0.77244 0.31888 0.0
H1752 H 0.67086 0.80163 0.28787 0.0
C1753 C 0.69485 0.76771 0.26627 0.0
C1754 C 0.23653 0.89657 0.3096 0.0
C1755 C 0.24182 0.91848 0.32311 0.0
H1756 H 0.22292 0.87432 0.27515 0.0
C1757 C 0.2361 0.93455 0.31202 0.0
H1758 H 0.24055 0.88374 0.31767 0.0
C1759 C 0.22603 0.92916 0.28758 0.0
C1760 C 0.22163 0.90769 0.27379 0.0
H1761 H 0.23992 0.95156 0.32201 0.0
H1762 H 0.22249 0.9422 0.27921 0.0
C1763 C 0.22655 0.89124 0.2852 0.0
C1764 C 0.66564 0.88524 0.31948 0.0
C1765 C 0.67627 0.90974 0.32964 0.0
H1766 H 0.66485 0.86073 0.29024 0.0
C1767 C 0.69686 0.92816 0.31945 0.0
H1768 H 0.64994 0.87054 0.32696 0.0
C1769 C 0.70555 0.92237 0.29849 0.0
C1770 C 0.69369 0.89816 0.28745 0.0
H1771 H 0.70556 0.94719 0.32693 0.0
H1772 H 0.72055 0.93698 0.29006 0.0
C1773 C 0.67419 0.87955 0.29852 0.0
C1774 C 0.07926 0.79077 0.27267 0.0
C1775 C 0.08244 0.77123 0.27814 0.0
H1776 H 0.08991 0.82132 0.25115 0.0
C1777 C 0.09781 0.76641 0.26451 0.0
H1778 H 0.0675 0.79485 0.28302 0.0
C1779 C 0.11009 0.78103 0.24592 0.0
C1780 C 0.10776 0.80124 0.24091 0.0
H1781 H 0.10027 0.75118 0.26811 0.0
H1782 H 0.12142 0.77642 0.23547 0.0
C1783 C 0.09199 0.80581 0.25434 0.0
C1784 C 0.24436 0.34608 0.3006 0.0
C1785 C 0.24053 0.3274 0.31559 0.0
H1786 H 0.23665 0.35542 0.26594 0.0
C1787 C 0.22403 0.30283 0.30679 0.0
H1788 H 0.25729 0.36518 0.30671 0.0
C1789 C 0.21132 0.29713 0.28349 0.0
C1790 C 0.21531 0.31589 0.2683 0.0
H1791 H 0.22072 0.28807 0.31805 0.0
H1792 H 0.19829 0.27805 0.27754 0.0
C1793 C 0.23224 0.34041 0.2772 0.0
C1794 C 0.22758 0.32116 0.45438 0.0
C1795 C 0.25132 0.33923 0.4501 0.0
H1796 H 0.19879 0.30928 0.47825 0.0
C1797 C 0.26453 0.35958 0.46766 0.0
H1798 H 0.21686 0.30532 0.44115 0.0
C1799 C 0.25427 0.3617 0.48915 0.0
C1800 C 0.23053 0.34355 0.49349 0.0
H1801 H 0.2829 0.37378 0.46492 0.0
H1802 H 0.26505 0.37741 0.50251 0.0
C1803 C 0.21729 0.32333 0.47578 0.0
C1804 C 0.66473 0.91373 0.46649 0.0
C1805 C 0.64527 0.91003 0.45047 0.0
H1806 H 0.67643 0.90136 0.49674 0.0
C1807 C 0.62188 0.89027 0.45319 0.0
H1808 H 0.68293 0.92897 0.465 0.0
C1809 C 0.61819 0.874 0.47109 0.0
C1810 C 0.6378 0.87736 0.48679 0.0
H1811 H 0.60657 0.88693 0.44099 0.0
H1812 H 0.60011 0.85843 0.47214 0.0
C1813 C 0.66101 0.89773 0.48455 0.0
C1814 C 0.09011 0.77371 0.42854 0.0
C1815 C 0.09292 0.76046 0.40881 0.0
H1816 H 0.09777 0.78587 0.46673 0.0
C1817 C 0.1076 0.75032 0.41262 0.0
H1818 H 0.07844 0.78124 0.42619 0.0
C1819 C 0.11967 0.75382 0.43584 0.0
C1820 C 0.11669 0.76693 0.45582 0.0
H1821 H 0.10996 0.73997 0.39759 0.0
H1822 H 0.1314 0.74637 0.43803 0.0
C1823 C 0.10146 0.77653 0.45181 0.0
C1824 C 0.33222 0.0914 0.75864 0.0
C1825 C 0.31759 0.06601 0.75213 0.0
H1826 H 0.33884 0.12208 0.78325 0.0
C1827 C 0.29746 0.05198 0.76549 0.0
H1828 H 0.3477 0.10272 0.7485 0.0
C1829 C 0.2925 0.06301 0.78551 0.0
C1830 C 0.3075 0.08832 0.79247 0.0
H1831 H 0.28584 0.03235 0.76086 0.0
H1832 H 0.27742 0.05154 0.79606 0.0
C1833 C 0.32716 0.10247 0.77856 0.0
C1834 C 0.93021 0.21945 0.79424 0.0
C1835 C 0.91404 0.21278 0.77314 0.0
H1836 H 0.93491 0.21192 0.8314 0.0
C1837 C 0.89135 0.19094 0.77191 0.0
H1838 H 0.94772 0.23632 0.79571 0.0
C1839 C 0.88436 0.17679 0.79199 0.0
C1840 C 0.89978 0.1845 0.81373 0.0
H1841 H 0.87859 0.18539 0.75584 0.0
H1842 H 0.86626 0.16074 0.79118 0.0
C1843 C 0.92296 0.20557 0.81459 0.0
C1844 C 0.77877 0.69476 0.76175 0.0
C1845 C 0.77388 0.67338 0.74727 0.0
H1846 H 0.79158 0.71545 0.79732 0.0
C1847 C 0.78062 0.65759 0.75726 0.0
H1848 H 0.77389 0.70735 0.75459 0.0
C1849 C 0.79047 0.66214 0.78162 0.0
C1850 C 0.7941 0.68272 0.79646 0.0
H1851 H 0.77731 0.64105 0.74666 0.0
H1852 H 0.7946 0.64914 0.78913 0.0
C1853 C 0.78893 0.69945 0.78615 0.0
C1854 C 0.75624 0.67271 0.5926 0.0
C1855 C 0.75143 0.65695 0.61128 0.0
H1856 H 0.76636 0.6802 0.55592 0.0
C1857 C 0.75409 0.63651 0.60736 0.0
H1858 H 0.75383 0.68836 0.59518 0.0
C1859 C 0.76234 0.63234 0.58532 0.0
C1860 C 0.76721 0.64804 0.56632 0.0
H1861 H 0.75048 0.62416 0.62166 0.0
H1862 H 0.76542 0.61711 0.58359 0.0
C1863 C 0.76358 0.66804 0.57017 0.0
C1864 C 0.35693 0.08255 0.61544 0.0
C1865 C 0.33498 0.0752 0.62619 0.0
H1866 H 0.38054 0.10326 0.58816 0.0
C1867 C 0.31991 0.08358 0.61728 0.0
H1868 H 0.36897 0.07646 0.62189 0.0
C1869 C 0.32657 0.09893 0.59821 0.0
C1870 C 0.34844 0.10629 0.58739 0.0
H1871 H 0.30294 0.07847 0.62517 0.0
H1872 H 0.31468 0.10537 0.59222 0.0
C1873 C 0.36362 0.098 0.59624 0.0
C1874 C 0.90328 0.26087 0.63689 0.0
C1875 C 0.91186 0.2468 0.64754 0.0
H1876 H 0.8872 0.26646 0.60462 0.0
C1877 C 0.90918 0.22612 0.63367 0.0
H1878 H 0.90508 0.27694 0.64714 0.0
C1879 C 0.89872 0.21998 0.6094 0.0
C1880 C 0.89083 0.2345 0.59844 0.0
H1881 H 0.91544 0.21481 0.64143 0.0
H1882 H 0.89694 0.20393 0.59916 0.0
C1883 C 0.8929 0.2548 0.61258 0.0
C1884 C 0.35805 0.25897 0.64333 0.0
C1885 C 0.34051 0.2418 0.65756 0.0
H1886 H 0.37897 0.26459 0.61213 0.0
C1887 C 0.33262 0.21676 0.6526 0.0
H1888 H 0.36453 0.2784 0.64674 0.0
C1889 C 0.34117 0.20892 0.63308 0.0
C1890 C 0.35762 0.22589 0.61792 0.0
H1891 H 0.31942 0.2031 0.66348 0.0
H1892 H 0.33435 0.18944 0.62943 0.0
C1893 C 0.36647 0.25108 0.62362 0.0
C1894 C 0.76412 0.09011 0.58605 0.0
C1895 C 0.74864 0.09481 0.59966 0.0
H1896 H 0.78841 0.10083 0.55753 0.0
C1897 C 0.746 0.1148 0.59473 0.0
H1898 H 0.76625 0.07462 0.58929 0.0
C1899 C 0.75919 0.13027 0.57692 0.0
C1900 C 0.77497 0.12578 0.56345 0.0
H1901 H 0.73424 0.11887 0.60509 0.0
H1902 H 0.75742 0.14604 0.57413 0.0
C1903 C 0.77696 0.10527 0.56798 0.0
C1904 C 0.88214 0.63389 0.63487 0.0
C1905 C 0.89964 0.65815 0.64371 0.0
H1906 H 0.85576 0.61006 0.60558 0.0
C1907 C 0.90472 0.67716 0.62871 0.0
H1908 H 0.87787 0.61889 0.64613 0.0
C1909 C 0.89276 0.67212 0.6053 0.0
C1910 C 0.87478 0.64796 0.5964 0.0
H1911 H 0.91846 0.69601 0.63484 0.0
H1912 H 0.89809 0.68731 0.59406 0.0
C1913 C 0.86961 0.62886 0.61156 0.0
C1914 C 0.91785 0.69252 0.78991 0.0
C1915 C 0.91113 0.66901 0.7793 0.0
H1916 H 0.91255 0.71359 0.81838 0.0
C1917 C 0.89468 0.64833 0.79079 0.0
H1918 H 0.93049 0.70878 0.78135 0.0
C1919 C 0.885 0.65104 0.81241 0.0
C1920 C 0.89101 0.6745 0.82276 0.0
H1921 H 0.88948 0.62999 0.78322 0.0
H1922 H 0.87281 0.63463 0.82099 0.0
C1923 C 0.90771 0.69524 0.81127 0.0
C1924 C 0.29685 0.23565 0.79219 0.0
C1925 C 0.3158 0.24213 0.77676 0.0
H1926 H 0.27906 0.21597 0.82279 0.0
C1927 C 0.33093 0.23241 0.77989 0.0
H1928 H 0.28494 0.24293 0.79019 0.0
C1929 C 0.32724 0.21654 0.79808 0.0
C1930 C 0.30862 0.21035 0.81396 0.0
H1931 H 0.34549 0.2368 0.76805 0.0
H1932 H 0.33895 0.20899 0.79951 0.0
C1933 C 0.29339 0.22005 0.81073 0.0
C1934 C 0.76314 0.10809 0.74806 0.0
C1935 C 0.76304 0.09115 0.7303 0.0
H1936 H 0.77261 0.1241 0.7851 0.0
C1937 C 0.77466 0.07831 0.73646 0.0
H1938 H 0.75386 0.11786 0.74398 0.0
C1939 C 0.78642 0.08259 0.76004 0.0
C1940 C 0.78617 0.09931 0.77808 0.0
H1941 H 0.77477 0.06511 0.72302 0.0
H1942 H 0.79567 0.07281 0.76405 0.0
C1943 C 0.77417 0.11181 0.7717 0.0
C1944 C 0.05118 0.31583 0.0591 0.0
C1945 C 0.05709 0.34034 0.05873 0.0
H1946 H 0.06194 0.2911 0.07097 0.0
C1947 C 0.07874 0.35907 0.07133 0.0
H1948 H 0.0345 0.30104 0.04952 0.0
C1949 C 0.09397 0.35337 0.08463 0.0
C1950 C 0.08831 0.32881 0.08497 0.0
H1951 H 0.08343 0.37808 0.07176 0.0
H1952 H 0.10994 0.36831 0.09502 0.0
C1953 C 0.06678 0.31014 0.07175 0.0
C1954 C 0.65257 0.69641 0.11082 0.0
C1955 C 0.62883 0.68725 0.10033 0.0
H1956 H 0.68369 0.72622 0.13186 0.0
C1957 C 0.61812 0.7016 0.10357 0.0
H1958 H 0.66132 0.68575 0.1087 0.0
C1959 C 0.631 0.72479 0.11652 0.0
C1960 C 0.65484 0.73414 0.12683 0.0
H1961 H 0.59995 0.6952 0.09557 0.0
H1962 H 0.62245 0.73569 0.11783 0.0
C1963 C 0.66544 0.71963 0.12398 0.0
C1964 C 0.30888 0.94875 0.05257 0.0
C1965 C 0.31279 0.93229 0.03793 0.0
H1966 H 0.28577 0.95349 0.07634 0.0
C1967 C 0.29469 0.90731 0.0349 0.0
H1968 H 0.3225 0.96814 0.0554 0.0
C1969 C 0.27321 0.89895 0.04657 0.0
C1970 C 0.2696 0.91538 0.06172 0.0
H1971 H 0.29712 0.89426 0.02353 0.0
H1972 H 0.25951 0.87959 0.04387 0.0
C1973 C 0.28764 0.94039 0.06441 0.0
C1974 C 0.36256 0.06567 0.00889 0.0
C1975 C 0.35343 0.04181 -0.00236 0.0
H1976 H 0.35893 0.09742 0.01178 0.0
C1977 C 0.33253 0.03121 0.98114 0.0
H1978 H 0.37849 0.07421 0.02188 0.0
C1979 C 0.32146 0.04442 0.97528 0.0
C1980 C 0.33089 0.06855 0.98593 0.0
H1981 H 0.32499 0.01282 0.97216 0.0
H1982 H 0.30611 0.03604 0.96155 0.0
C1983 C 0.35134 0.07892 0.00312 0.0
C1984 C 0.94799 0.27362 0.97929 0.0
C1985 C 0.93617 0.28226 -0.0056 0.0
H1986 H 0.94422 0.24432 0.95414 0.0
C1987 C 0.91141 0.26674 -0.00276 0.0
H1988 H 0.96713 0.28517 0.97686 0.0
C1989 C 0.89852 0.2434 0.98468 0.0
C1990 C 0.90996 0.2351 0.96862 0.0
H1991 H 0.90187 0.27265 0.00912 0.0
H1992 H 0.87942 0.23191 0.98733 0.0
C1993 C 0.93495 0.25022 0.96641 0.0
C1994 C 0.69484 0.62263 0.01601 0.0
C1995 C 0.69127 0.63929 0.03052 0.0
H1996 H 0.7174 0.61762 0.99174 0.0
C1997 C 0.7098 0.66412 0.03386 0.0
H1998 H 0.68067 0.60344 0.01286 0.0
C1999 C 0.73135 0.67227 0.0224 0.0
C2000 C 0.73456 0.65586 0.00676 0.0
H2001 H 0.70749 0.67732 0.04511 0.0
H2002 H 0.7453 0.6915 0.02557 0.0
C2003 C 0.71607 0.63085 0.00399 0.0
C2004 C 0.90326 0.61948 0.00099 0.0
C2005 C 0.92828 0.63293 0.008 0.0
H2006 H 0.87343 0.61823 0.98074 0.0
C2007 C 0.94263 0.65604 -0.00099 0.0
H2008 H 0.89166 0.60168 0.00761 0.0
C2009 C 0.93219 0.66542 0.98334 0.0
C2010 C 0.9072 0.6519 0.97627 0.0
H2011 H 0.96199 0.66687 0.00396 0.0
H2012 H 0.94373 0.68318 0.97661 0.0
C2013 C 0.89285 0.62887 0.98536 0.0
C2014 C 0.33138 0.29547 0.94609 0.0
C2015 C 0.35257 0.30829 0.9622 0.0
H2016 H 0.30589 0.2614 0.92534 0.0
C2017 C 0.3643 0.29605 0.97003 0.0
H2018 H 0.32193 0.30446 0.93979 0.0
C2019 C 0.35502 0.27144 0.96195 0.0
C2020 C 0.33388 0.25861 0.94579 0.0
H2021 H 0.38055 0.30539 0.9826 0.0
H2022 H 0.36427 0.26237 0.96858 0.0
C2023 C 0.32209 0.27081 0.93797 0.0
C2024 C 0.69866 0.04064 0.01141 0.0
C2025 C 0.69101 0.05683 0.0197 0.0
H2026 H 0.72282 0.03517 0.98981 0.0
C2027 C 0.70383 0.08125 0.01365 0.0
H2028 H 0.68928 0.02169 0.01582 0.0
C2029 C 0.72323 0.08899 -0.00124 0.0
C2030 C 0.73021 0.07248 0.98969 0.0
H2031 H 0.69846 0.09418 0.01981 0.0
H2032 H 0.73258 0.10784 0.99407 0.0
C2033 C 0.71801 0.04837 -0.00339 0.0
C2034 C 0.6733 0.96072 0.08487 0.0
C2035 C 0.65244 0.94935 0.06824 0.0
H2036 H 0.69923 0.95669 0.10652 0.0
C2037 C 0.64304 0.92485 0.05882 0.0
H2038 H 0.68108 0.97961 0.09246 0.0
C2039 C 0.65381 0.91175 0.06661 0.0
C2040 C 0.67412 0.92287 0.08405 0.0
H2041 H 0.62712 0.91568 0.0458 0.0
H2042 H 0.64594 0.89274 0.05937 0.0
C2043 C 0.68395 0.94764 0.09273 0.0
C2044 C 0.06959 0.71663 0.08084 0.0
C2045 C 0.04465 0.70696 0.08248 0.0
H2046 H 0.10555 0.74718 0.09014 0.0
C2047 C 0.03682 0.72156 0.09459 0.0
H2048 H 0.07617 0.70585 0.0716 0.0
C2049 C 0.05366 0.74526 0.10515 0.0
C2050 C 0.0786 0.75464 0.10403 0.0
H2051 H 0.01769 0.71461 0.09609 0.0
H2052 H 0.04721 0.75603 0.11466 0.0
C2053 C 0.0864 0.7402 0.0916 0.0
C2054 C 0.29741 0.38482 0.04064 0.0
C2055 C 0.30891 0.37292 0.03067 0.0
H2056 H 0.26946 0.38209 0.06262 0.0
C2057 C 0.2996 0.34796 0.03413 0.0
H2058 H 0.304 0.40394 0.03812 0.0
C2059 C 0.28002 0.33553 0.04836 0.0
C2060 C 0.26931 0.34779 0.05936 0.0
H2061 H 0.30796 0.33817 0.02659 0.0
H2062 H 0.27397 0.31666 0.0516 0.0
C2063 C 0.27776 0.37234 0.05481 0.0
C2064 C 0.70871 0.6503 0.39032 0.0
C2065 C 0.71444 0.67484 0.39151 0.0
H2066 H 0.7195 0.62508 0.4005 0.0
C2067 C 0.73547 0.69295 0.40557 0.0
H2068 H 0.69251 0.63599 0.3796 0.0
C2069 C 0.7504 0.68663 0.41846 0.0
C2070 C 0.74513 0.66212 0.41695 0.0
H2071 H 0.74001 0.71194 0.40721 0.0
H2072 H 0.76594 0.70106 0.42983 0.0
C2073 C 0.72406 0.64405 0.40261 0.0
C2074 C 0.32571 0.03045 0.43604 0.0
C2075 C 0.30059 0.01587 0.43812 0.0
H2076 H 0.35757 0.06631 0.4426 0.0
C2077 C 0.28891 0.02586 0.45142 0.0
H2078 H 0.33521 0.0232 0.42593 0.0
C2079 C 0.30175 0.05032 0.46123 0.0
C2080 C 0.32648 0.06545 0.45764 0.0
H2081 H 0.26967 0.01496 0.4537 0.0
H2082 H 0.29211 0.05762 0.47099 0.0
C2083 C 0.33854 0.05509 0.44566 0.0
C2084 C 0.97074 0.24303 0.36892 0.0
C2085 C 0.9884 0.26801 0.37393 0.0
H2086 H 0.93466 0.21431 0.37382 0.0
C2087 C 0.98292 0.28342 0.38823 0.0
H2088 H 0.97438 0.23083 0.35765 0.0
C2089 C 0.96042 0.27395 0.39786 0.0
C2090 C 0.94271 0.24891 0.39308 0.0
H2091 H -0.00376 0.30277 0.39247 0.0
H2092 H 0.95726 0.28619 0.40967 0.0
C2093 C 0.94801 0.23362 0.3782 0.0
C2094 C 0.0463 0.40594 0.33992 0.0
C2095 C 0.03474 0.38131 0.33005 0.0
H2096 H 0.04653 0.43983 0.34106 0.0
C2097 C 0.0136 0.37168 0.31407 0.0
H2098 H 0.06252 0.41378 0.35244 0.0
C2099 C 0.00457 0.38652 0.30747 0.0
C2100 C 0.01636 0.41132 0.31684 0.0
H2101 H 0.00426 0.35275 0.30614 0.0
H2102 H 0.98885 0.37873 0.29426 0.0
C2103 C 0.03715 0.42082 0.3334 0.0
C2104 C 0.57196 0.61025 0.314 0.0
C2105 C 0.59742 0.62357 0.31591 0.0
H2106 H 0.5395 0.57669 0.30155 0.0
C2107 C 0.60979 0.6127 0.30555 0.0
H2108 H 0.56187 0.61791 0.32211 0.0
C2109 C 0.59686 0.58903 0.29327 0.0
C2110 C 0.57135 0.57577 0.29133 0.0
H2111 H 0.62943 0.62253 0.30676 0.0
H2112 H 0.60681 0.58126 0.28508 0.0
C2113 C 0.55912 0.5866 0.30206 0.0
C2114 C 0.37522 0.98371 0.36853 0.0
C2115 C 0.35581 0.9593 0.36699 0.0
H2116 H 0.41046 0.00885 0.35764 0.0
C2117 C 0.3576 0.94102 0.35322 0.0
H2118 H 0.37433 -0.00185 0.37919 0.0
C2119 C 0.3779 0.94723 0.34014 0.0
C2120 C 0.39718 0.97181 0.34101 0.0
H2121 H 0.34275 0.92209 0.3515 0.0
H2122 H 0.3779 0.93279 0.32855 0.0
C2123 C 0.39581 0.98986 0.35594 0.0
C2124 C 0.58434 0.93807 0.31302 0.0
C2125 C 0.59596 0.95103 0.3359 0.0
H2126 H 0.56486 0.93646 0.27962 0.0
C2127 C 0.59628 0.97279 0.34291 0.0
H2128 H 0.58425 0.92145 0.30704 0.0
C2129 C 0.58436 0.98098 0.32768 0.0
C2130 C 0.57252 0.96802 0.30466 0.0
H2131 H 0.60512 0.98306 0.36055 0.0
H2132 H 0.58391 -0.00291 0.33441 0.0
C2133 C 0.57312 0.94668 0.29738 0.0
C2134 C 0.00227 0.63464 0.28816 0.0
C2135 C 0.02341 0.64862 0.30415 0.0
H2136 H 0.97923 0.60054 0.26621 0.0
C2137 C 0.03744 0.63836 0.31072 0.0
H2138 H 0.99108 0.64209 0.28282 0.0
C2139 C 0.03063 0.61467 0.30128 0.0
C2140 C 0.00965 0.60076 0.28511 0.0
H2141 H 0.05376 0.64864 0.3231 0.0
H2142 H 0.04173 0.60716 0.30678 0.0
C2143 C -0.00459 0.61086 0.27876 0.0
C2144 C 0.37081 0.41608 0.35011 0.0
C2145 C 0.35713 0.39143 0.35526 0.0
H2146 H 0.40092 0.44295 0.33225 0.0
C2147 C 0.36467 0.37506 0.34728 0.0
H2148 H 0.36562 0.42919 0.35614 0.0
C2149 C 0.38478 0.3829 0.33351 0.0
C2150 C 0.39779 0.40726 0.32739 0.0
H2151 H 0.35463 0.35595 0.35107 0.0
H2152 H 0.38948 0.3696 0.32677 0.0
C2153 C 0.39095 0.42392 0.33632 0.0
C2154 C 0.30452 0.25942 0.40165 0.0
C2155 C 0.3163 0.28493 0.40757 0.0
H2156 H 0.30539 0.22649 0.40538 0.0
C2157 C 0.33924 0.29712 0.42082 0.0
H2158 H 0.28695 0.24958 0.39128 0.0
C2159 C 0.34978 0.28397 0.42883 0.0
C2160 C 0.33761 0.25834 0.42381 0.0
H2161 H 0.34888 0.31681 0.42554 0.0
H2162 H 0.36698 0.29378 0.43991 0.0
C2163 C 0.31508 0.24624 0.40972 0.0
C2164 C 0.73593 0.04151 0.41099 0.0
C2165 C 0.71121 0.03216 0.41381 0.0
H2166 H 0.77212 0.07225 0.41751 0.0
C2167 C 0.70401 0.0476 0.42522 0.0
H2168 H 0.74207 0.03014 0.40217 0.0
C2169 C 0.72131 0.07183 0.43401 0.0
C2170 C 0.74607 0.0809 0.43172 0.0
H2171 H 0.68505 0.04091 0.42759 0.0
H2172 H 0.7154 0.08328 0.44311 0.0
C2173 C 0.75317 0.06559 0.41989 0.0
C2174 C 0.97295 0.72626 0.39208 0.0
C2175 C 0.97641 0.71474 0.37125 0.0
H2176 H 0.95115 0.72257 0.42178 0.0
C2177 C 0.95887 0.69024 0.36329 0.0
H2178 H 0.98649 0.74497 0.39889 0.0
C2179 C 0.93807 0.67749 0.37594 0.0
C2180 C 0.93474 0.68881 0.39719 0.0
H2181 H 0.96123 0.68096 0.34725 0.0
H2182 H 0.92462 0.65883 0.36895 0.0
C2183 C 0.95257 0.71335 0.40513 0.0
C2184 C 0.40808 0.03565 0.74088 0.0
C2185 C 0.38827 0.01635 0.72636 0.0
H2186 H 0.43843 0.04649 0.76658 0.0
C2187 C 0.38471 0.99262 0.72576 0.0
H2188 H 0.41089 0.05402 0.74206 0.0
C2189 C 0.40101 0.98833 0.73913 0.0
C2190 C 0.42083 0.00758 0.75403 0.0
H2191 H 0.36948 0.97741 0.71469 0.0
H2192 H 0.39817 0.96997 0.73744 0.0
C2193 C 0.42392 0.03126 0.75488 0.0
C2194 C 0.97456 0.34864 0.77898 0.0
C2195 C 0.95035 0.33591 0.76878 0.0
H2196 H 0.00318 0.38126 0.79932 0.0
C2197 C 0.93601 0.34646 0.77236 0.0
H2198 H 0.98603 0.34089 0.7767 0.0
C2199 C 0.94594 0.36972 0.78497 0.0
C2200 C 0.97036 0.38282 0.79457 0.0
H2201 H 0.91735 0.33718 0.76462 0.0
H2202 H 0.93467 0.37778 0.78634 0.0
C2203 C 0.98443 0.37183 0.79182 0.0
C2204 C 0.64497 0.6169 0.71303 0.0
C2205 C 0.6554 0.60239 0.70836 0.0
H2206 H 0.61684 0.61988 0.72939 0.0
C2207 C 0.6438 0.57834 0.71549 0.0
H2208 H 0.65334 0.63549 0.70766 0.0
C2209 C 0.62266 0.56935 0.72784 0.0
C2210 C 0.61276 0.58423 0.73322 0.0
H2211 H 0.65131 0.56669 0.71202 0.0
H2212 H 0.6142 0.55084 0.73344 0.0
C2213 C 0.6239 0.60792 0.72532 0.0
C2214 C 0.69654 0.73407 0.67827 0.0
C2215 C 0.68819 0.71064 0.66629 0.0
H2216 H 0.69143 0.76481 0.68271 0.0
C2217 C 0.66716 0.69975 0.64996 0.0
H2218 H 0.71255 0.74278 0.69117 0.0
C2219 C 0.65524 0.71236 0.64494 0.0
C2220 C 0.6639 0.7361 0.65636 0.0
H2221 H 0.66025 0.68169 0.64042 0.0
H2222 H 0.63987 0.70387 0.63125 0.0
C2223 C 0.68443 0.74664 0.67344 0.0
C2224 C 0.24584 0.93434 0.66729 0.0
C2225 C 0.26848 0.95054 0.65897 0.0
H2226 H 0.21569 0.89773 0.66521 0.0
C2227 C 0.27864 0.94148 0.64209 0.0
H2228 H 0.2379 0.94076 0.68079 0.0
C2229 C 0.26553 0.91676 0.63251 0.0
C2230 C 0.24233 0.90077 0.6401 0.0
H2231 H 0.29621 0.95369 0.63558 0.0
H2232 H 0.27313 0.91047 0.61851 0.0
C2233 C 0.2331 0.9097 0.65828 0.0
C2234 C 0.03829 0.33022 0.68619 0.0
C2235 C 0.02845 0.30816 0.6976 0.0
H2236 H 0.06657 0.35554 0.66529 0.0
C2237 C 0.04159 0.2961 0.69902 0.0
H2238 H 0.02863 0.34 0.68487 0.0
C2239 C 0.06346 0.30516 0.688 0.0
C2240 C 0.07255 0.32639 0.67525 0.0
H2241 H 0.03461 0.27921 0.70791 0.0
H2242 H 0.07288 0.29511 0.68881 0.0
C2243 C 0.06013 0.33924 0.6751 0.0
C2244 C 0.2715 0.31539 0.67422 0.0
C2245 C 0.26492 0.29071 0.6694 0.0
H2246 H 0.26476 0.34385 0.6655 0.0
C2247 C 0.24737 0.27616 0.65002 0.0
H2248 H 0.28501 0.32703 0.68909 0.0
C2249 C 0.23634 0.286 0.63591 0.0
C2250 C 0.24214 0.31046 0.64127 0.0
H2251 H 0.24229 0.25719 0.64561 0.0
H2252 H 0.22311 0.2743 0.62088 0.0
C2253 C 0.26006 0.3251 0.66048 0.0
C2254 C 0.65713 0.95867 0.62063 0.0
C2255 C 0.68014 0.97215 0.63368 0.0
H2256 H 0.62994 0.92404 0.60189 0.0
C2257 C 0.69318 0.96044 0.63851 0.0
H2258 H 0.64663 0.96722 0.61671 0.0
C2259 C 0.68366 0.93588 0.63003 0.0
C2260 C 0.66087 0.9225 0.61662 0.0
H2261 H 0.7109 0.97031 0.64862 0.0
H2262 H 0.69415 0.92731 0.63397 0.0
C2263 C 0.64752 0.93398 0.61225 0.0
C2264 C 0.03157 0.74187 0.68051 0.0
C2265 C 0.01704 0.71723 0.68539 0.0
H2266 H 0.0628 0.76832 0.66369 0.0
C2267 C 0.02412 0.70035 0.6779 0.0
H2268 H 0.02676 0.75537 0.68618 0.0
C2269 C 0.04469 0.70775 0.66493 0.0
C2270 C 0.05861 0.73215 0.65913 0.0
H2271 H 0.01341 0.68122 0.68148 0.0
H2272 H 0.04914 0.69414 0.65861 0.0
C2273 C 0.05214 0.74925 0.66752 0.0
C2274 C 0.95512 0.58202 0.72639 0.0
C2275 C 0.96687 0.60682 0.73574 0.0
H2276 H 0.95386 0.54768 0.72703 0.0
C2277 C 0.98735 0.61625 0.75266 0.0
H2278 H 0.9394 0.5743 0.71318 0.0
C2279 C -0.0045 0.60108 0.76067 0.0
C2280 C 0.9835 0.57612 0.75182 0.0
H2281 H -0.00317 0.63529 0.76024 0.0
H2282 H 0.01068 0.60878 0.77456 0.0
C2283 C 0.96339 0.5668 0.73433 0.0
C2284 C 0.40363 0.37783 0.73348 0.0
C2285 C 0.38124 0.36582 0.74387 0.0
H2286 H 0.43795 0.41091 0.73314 0.0
C2287 C 0.37635 0.37871 0.76238 0.0
H2288 H 0.40782 0.36848 0.719 0.0
C2289 C 0.39377 0.403 0.77072 0.0
C2290 C 0.41635 0.41489 0.76062 0.0
H2291 H 0.35923 0.36991 0.77073 0.0
H2292 H 0.38977 0.41223 0.78551 0.0
C2293 C 0.42093 0.40213 0.74167 0.0
C2294 C 0.65008 0.06839 0.71921 0.0
C2295 C 0.64966 0.05487 0.69774 0.0
H2296 H 0.63261 0.06872 0.75146 0.0
C2297 C 0.62947 0.03136 0.69112 0.0
H2298 H 0.66574 0.08637 0.72493 0.0
C2299 C 0.60994 0.02145 0.70584 0.0
C2300 C 0.6106 0.03456 0.72794 0.0
H2301 H 0.62885 0.02062 0.67458 0.0
H2302 H 0.59442 0.0035 0.69986 0.0
C2303 C 0.63096 0.05821 0.73436 0.0
loop_
_geom_bond_atom_site_label_1
_geom_bond_atom_site_label_2
_geom_bond_distance
_geom_bond_site_symmetry_2
_ccdc_geom_bond_type
C0 O1 1.306 . S
C0 O3 1.160 . S
O1 C0 1.306 . S
O1 Cd2 2.228 . S
Cd2 O1 2.228 . S
Cd2 O6 2.273 . S
Cd2 O10 2.277 . S
O3 C0 1.160 . S
O3 Cd4 2.203 1_655 S
Cd4 O3 2.203 1_455 S
Cd4 O6 2.411 1_455 S
Cd4 O7 2.333 . S
Cd4 O8 2.352 . S
Cd4 O12 2.277 1_554 S
Cd4 O13 2.356 . S
C5 O10 1.209 1_456 S
C5 O12 1.226 . S
O6 Cd2 2.273 . S
O6 Cd4 2.411 1_655 S
O6 C9 1.320 1_655 S
O7 Cd4 2.333 . S
O7 C9 1.214 . S
O8 Cd4 2.352 . S
O8 C11 1.258 . S
C9 O6 1.320 1_455 S
C9 O7 1.214 . S
O10 Cd2 2.277 . S
O10 C5 1.209 1_654 S
C11 O8 1.258 . S
C11 O13 1.282 . S
O12 Cd4 2.277 1_556 S
O12 C5 1.226 . S
O13 Cd4 2.356 . S
O13 C11 1.282 . S
C14 O15 1.306 . S
C14 O17 1.160 . S
O15 C14 1.306 . S
O15 Cd16 2.228 . S
Cd16 O15 2.228 . S
Cd16 O20 2.273 . S
Cd16 O24 2.277 . S
O17 C14 1.160 . S
O17 Cd18 2.203 . S
Cd18 O17 2.203 . S
Cd18 O20 2.411 . S
Cd18 O21 2.333 . S
Cd18 O22 2.352 . S
Cd18 O26 2.277 . S
Cd18 O27 2.356 . S
C19 O24 1.209 . S
C19 O26 1.226 . S
O20 Cd16 2.273 . S
O20 Cd18 2.411 . S
O20 C23 1.320 . S
O21 Cd18 2.333 . S
O21 C23 1.214 . S
O22 Cd18 2.352 . S
O22 C25 1.258 . S
C23 O20 1.320 . S
C23 O21 1.214 . S
O24 Cd16 2.277 . S
O24 C19 1.209 . S
C25 O22 1.258 . S
C25 O27 1.282 . S
O26 Cd18 2.277 . S
O26 C19 1.226 . S
O27 Cd18 2.356 . S
O27 C25 1.282 . S
C28 O29 1.306 . S
C28 O31 1.160 . S
O29 C28 1.306 . S
O29 Cd30 2.228 . S
Cd30 O29 2.228 . S
Cd30 O34 2.273 . S
Cd30 O38 2.277 . S
O31 C28 1.160 . S
O31 Cd32 2.203 1_565 S
Cd32 O31 2.203 1_545 S
Cd32 O34 2.411 1_545 S
Cd32 O35 2.333 1_554 S
Cd32 O36 2.328 1_554 S
Cd32 O40 2.277 . S
Cd32 O41 2.356 . S
C33 O38 1.209 1_545 S
C33 O40 1.226 . S
O34 Cd30 2.273 . S
O34 Cd32 2.411 1_565 S
O34 C37 1.320 1_554 S
O35 Cd32 2.333 1_556 S
O35 C37 1.214 1_545 S
O36 Cd32 2.328 1_556 S
O36 C39 1.253 1_556 S
C37 O34 1.320 1_556 S
C37 O35 1.214 1_565 S
O38 Cd30 2.277 . S
O38 C33 1.209 1_565 S
C39 O36 1.253 1_554 S
C39 O41 1.282 . S
O40 Cd32 2.277 . S
O40 C33 1.226 . S
O41 Cd32 2.356 . S
O41 C39 1.282 . S
C42 O43 1.306 . S
C42 O45 1.160 . S
O43 C42 1.306 . S
O43 Cd44 2.228 . S
Cd44 O43 2.228 . S
Cd44 O48 2.273 . S
Cd44 O52 2.277 . S
O45 C42 1.160 . S
O45 Cd46 2.203 1_655 S
Cd46 O45 2.203 1_455 S
Cd46 O48 2.411 1_455 S
Cd46 O49 2.333 . S
Cd46 O50 2.352 . S
Cd46 O54 2.277 . S
Cd46 O55 2.356 . S
C47 O52 1.209 1_455 S
C47 O54 1.226 . S
O48 Cd44 2.273 . S
O48 Cd46 2.411 1_655 S
O48 C51 1.320 . S
O49 Cd46 2.333 . S
O49 C51 1.214 1_455 S
O50 Cd46 2.352 . S
O50 C53 1.258 . S
C51 O48 1.320 . S
C51 O49 1.214 1_655 S
O52 Cd44 2.277 . S
O52 C47 1.209 1_655 S
C53 O50 1.258 . S
C53 O55 1.282 . S
O54 Cd46 2.277 . S
O54 C47 1.226 . S
O55 Cd46 2.356 . S
O55 C53 1.282 . S
C56 O57 1.306 . S
C56 O59 1.160 . S
O57 C56 1.306 . S
O57 Cd58 2.228 . S
Cd58 O57 2.228 . S
Cd58 O62 2.273 1_554 S
Cd58 O66 2.277 . S
O59 C56 1.160 . S
O59 Cd60 2.203 . S
Cd60 O59 2.203 . S
Cd60 O62 2.411 1_554 S
Cd60 O63 2.333 1_554 S
Cd60 O64 2.352 1_554 S
Cd60 O68 2.277 . S
Cd60 O69 2.356 1_554 S
C61 O66 1.209 . S
C61 O68 1.226 . S
O62 Cd58 2.273 1_556 S
O62 Cd60 2.411 1_556 S
O62 C65 1.320 . S
O63 Cd60 2.333 1_556 S
O63 C65 1.214 . S
O64 Cd60 2.352 1_556 S
O64 C67 1.258 . S
C65 O62 1.320 . S
C65 O63 1.214 . S
O66 Cd58 2.277 . S
O66 C61 1.209 . S
C67 O64 1.258 . S
C67 O69 1.282 . S
O68 Cd60 2.277 . S
O68 C61 1.226 . S
O69 Cd60 2.356 1_556 S
O69 C67 1.282 . S
C70 O71 1.306 . S
C70 O73 1.160 . S
O71 C70 1.306 . S
O71 Cd72 2.228 . S
Cd72 O71 2.228 . S
Cd72 O76 2.273 . S
Cd72 O80 2.277 . S
O73 C70 1.160 . S
O73 Cd74 2.203 1_545 S
Cd74 O73 2.203 1_565 S
Cd74 O76 2.411 1_565 S
Cd74 O77 2.333 . S
Cd74 O78 2.352 . S
Cd74 O82 2.277 . S
Cd74 O83 2.356 . S
C75 O80 1.209 1_565 S
C75 O82 1.226 . S
O76 Cd72 2.273 . S
O76 Cd74 2.411 1_545 S
O76 C79 1.320 . S
O77 Cd74 2.333 . S
O77 C79 1.214 1_565 S
O78 Cd74 2.352 . S
O78 C81 1.258 . S
C79 O76 1.320 . S
C79 O77 1.214 1_545 S
O80 Cd72 2.277 . S
O80 C75 1.209 1_545 S
C81 O78 1.258 . S
C81 O83 1.282 . S
O82 Cd74 2.277 . S
O82 C75 1.226 . S
O83 Cd74 2.356 . S
O83 C81 1.282 . S
C84 O85 1.306 . S
C84 O87 1.160 . S
O85 C84 1.306 . S
O85 Cd86 2.228 . S
Cd86 O85 2.228 . S
Cd86 O90 2.273 . S
Cd86 O94 2.277 . S
O87 C84 1.160 . S
O87 Cd88 2.203 . S
Cd88 O87 2.203 . S
Cd88 O90 2.411 . S
Cd88 O91 2.333 . S
Cd88 O92 2.352 . S
Cd88 O96 2.277 . S
Cd88 O97 2.356 . S
C89 O94 1.209 . S
C89 O96 1.226 . S
O90 Cd86 2.273 . S
O90 Cd88 2.411 . S
O90 C93 1.320 . S
O91 Cd88 2.333 . S
O91 C93 1.214 . S
O92 Cd88 2.352 . S
O92 C95 1.258 . S
C93 O90 1.320 . S
C93 O91 1.214 . S
O94 Cd86 2.277 . S
O94 C89 1.209 . S
C95 O92 1.258 . S
C95 O97 1.282 . S
O96 Cd88 2.277 . S
O96 C89 1.226 . S
O97 Cd88 2.356 . S
O97 C95 1.282 . S
C98 O99 1.306 . S
C98 O101 1.161 . S
O99 C98 1.306 . S
O99 Cd100 2.228 . S
Cd100 O99 2.228 . S
Cd100 O104 2.273 . S
Cd100 O108 2.277 . S
O101 C98 1.161 . S
O101 Cd102 2.203 . S
Cd102 O101 2.203 . S
Cd102 O104 2.411 . S
Cd102 O105 2.333 . S
Cd102 O106 2.352 . S
Cd102 O110 2.277 . S
Cd102 O111 2.356 . S
C103 O108 1.209 . S
C103 O110 1.226 . S
O104 Cd100 2.273 . S
O104 Cd102 2.411 . S
O104 C107 1.320 . S
O105 Cd102 2.333 . S
O105 C107 1.214 . S
O106 Cd102 2.352 . S
O106 C109 1.258 . S
C107 O104 1.320 . S
C107 O105 1.214 . S
O108 Cd100 2.277 . S
O108 C103 1.209 . S
C109 O106 1.258 . S
C109 O111 1.282 . S
O110 Cd102 2.277 . S
O110 C103 1.226 . S
O111 Cd102 2.356 . S
O111 C109 1.282 . S
C112 O113 1.306 . S
C112 O115 1.160 . S
O113 C112 1.306 . S
O113 Cd114 2.228 . S
Cd114 O113 2.228 . S
Cd114 O118 2.273 . S
Cd114 O122 2.277 . S
O115 C112 1.160 . S
O115 Cd116 2.203 . S
Cd116 O115 2.203 . S
Cd116 O118 2.411 . S
Cd116 O119 2.333 . S
Cd116 O120 2.352 . S
Cd116 O124 2.277 . S
Cd116 O125 2.356 . S
C117 O122 1.209 . S
C117 O124 1.226 . S
O118 Cd114 2.273 . S
O118 Cd116 2.411 . S
O118 C121 1.320 . S
O119 Cd116 2.333 . S
O119 C121 1.214 . S
O120 Cd116 2.352 . S
O120 C123 1.258 . S
C121 O118 1.320 . S
C121 O119 1.214 . S
O122 Cd114 2.277 . S
O122 C117 1.209 . S
C123 O120 1.258 . S
C123 O125 1.282 . S
O124 Cd116 2.277 . S
O124 C117 1.226 . S
O125 Cd116 2.356 . S
O125 C123 1.282 . S
C126 O127 1.306 . S
C126 O129 1.160 . S
O127 C126 1.306 . S
O127 Cd128 2.228 . S
Cd128 O127 2.228 . S
Cd128 O132 2.273 . S
Cd128 O136 2.277 . S
O129 C126 1.160 . S
O129 Cd130 2.203 . S
Cd130 O129 2.203 . S
Cd130 O132 2.411 . S
Cd130 O133 2.333 . S
Cd130 O134 2.383 . S
Cd130 O138 2.277 . S
Cd130 O139 2.356 1_565 S
C131 O136 1.209 . S
C131 O138 1.226 . S
O132 Cd128 2.273 . S
O132 Cd130 2.411 . S
O132 C135 1.320 . S
O133 Cd130 2.333 . S
O133 C135 1.214 . S
O134 Cd130 2.383 . S
O134 C137 1.257 1_565 S
C135 O132 1.320 . S
C135 O133 1.214 . S
O136 Cd128 2.277 . S
O136 C131 1.209 . S
C137 O134 1.257 1_545 S
C137 O139 1.282 . S
O138 Cd130 2.277 . S
O138 C131 1.226 . S
O139 Cd130 2.356 1_545 S
O139 C137 1.282 . S
C140 O141 1.306 . S
C140 O143 1.160 . S
O141 C140 1.306 . S
O141 Cd142 2.228 . S
Cd142 O141 2.228 . S
Cd142 O146 2.273 . S
Cd142 O150 2.277 . S
O143 C140 1.160 . S
O143 Cd144 2.203 . S
Cd144 O143 2.203 . S
Cd144 O146 2.411 . S
Cd144 O147 2.333 . S
Cd144 O148 2.352 . S
Cd144 O152 2.277 . S
Cd144 O153 2.356 . S
C145 O150 1.209 . S
C145 O152 1.226 . S
O146 Cd142 2.273 . S
O146 Cd144 2.411 . S
O146 C149 1.320 . S
O147 Cd144 2.333 . S
O147 C149 1.214 . S
O148 Cd144 2.352 . S
O148 C151 1.258 . S
C149 O146 1.320 . S
C149 O147 1.214 . S
O150 Cd142 2.277 . S
O150 C145 1.209 . S
C151 O148 1.258 . S
C151 O153 1.282 . S
O152 Cd144 2.277 . S
O152 C145 1.226 . S
O153 Cd144 2.356 . S
O153 C151 1.282 . S
C154 O155 1.306 . S
C154 O157 1.160 . S
O155 C154 1.306 . S
O155 Cd156 2.228 . S
Cd156 O155 2.228 . S
Cd156 O160 2.273 . S
Cd156 O164 2.277 . S
O157 C154 1.160 . S
O157 Cd158 2.203 . S
Cd158 O157 2.203 . S
Cd158 O160 2.411 . S
Cd158 O161 2.333 . S
Cd158 O162 2.352 . S
Cd158 O166 2.277 . S
Cd158 O167 2.356 . S
C159 O164 1.209 . S
C159 O166 1.226 . S
O160 Cd156 2.273 . S
O160 Cd158 2.411 . S
O160 C163 1.320 . S
O161 Cd158 2.333 . S
O161 C163 1.214 . S
O162 Cd158 2.352 . S
O162 C165 1.258 . S
C163 O160 1.320 . S
C163 O161 1.214 . S
O164 Cd156 2.277 . S
O164 C159 1.209 . S
C165 O162 1.258 . S
C165 O167 1.282 . S
O166 Cd158 2.277 . S
O166 C159 1.226 . S
O167 Cd158 2.356 . S
O167 C165 1.282 . S
C168 O169 1.272 1_565 S
C168 O171 1.160 1_565 S
O169 C168 1.272 1_545 S
O169 Cd170 2.276 . S
Cd170 O169 2.276 . S
Cd170 O174 2.273 . S
Cd170 O178 2.277 . S
O171 C168 1.160 1_545 S
O171 Cd172 2.203 . S
Cd172 O171 2.203 . S
Cd172 O174 2.411 . S
Cd172 O175 2.333 . S
Cd172 O176 2.352 . S
Cd172 O180 2.277 . S
Cd172 O181 2.356 . S
C173 O178 1.209 . S
C173 O180 1.226 . S
O174 Cd170 2.273 . S
O174 Cd172 2.411 . S
O174 C177 1.320 . S
O175 Cd172 2.333 . S
O175 C177 1.214 . S
O176 Cd172 2.352 . S
O176 C179 1.258 . S
C177 O174 1.320 . S
C177 O175 1.214 . S
O178 Cd170 2.277 . S
O178 C173 1.209 . S
C179 O176 1.258 . S
C179 O181 1.282 . S
O180 Cd172 2.277 . S
O180 C173 1.226 . S
O181 Cd172 2.356 . S
O181 C179 1.282 . S
C182 O183 1.306 . S
C182 O185 1.160 . S
O183 C182 1.306 . S
O183 Cd184 2.228 . S
Cd184 O183 2.228 . S
Cd184 O188 2.273 . S
Cd184 O192 2.277 . S
O185 C182 1.160 . S
O185 Cd186 2.203 . S
Cd186 O185 2.203 . S
Cd186 O188 2.411 . S
Cd186 O189 2.333 . S
Cd186 O190 2.371 . S
Cd186 O194 2.277 . S
Cd186 O195 2.356 1_655 S
C187 O192 1.209 . S
C187 O194 1.226 . S
O188 Cd184 2.273 . S
O188 Cd186 2.411 . S
O188 C191 1.320 . S
O189 Cd186 2.333 . S
O189 C191 1.214 . S
O190 Cd186 2.371 . S
O190 C193 1.220 1_655 S
C191 O188 1.320 . S
C191 O189 1.214 . S
O192 Cd184 2.277 . S
O192 C187 1.209 . S
C193 O190 1.220 1_455 S
C193 O195 1.282 . S
O194 Cd186 2.277 . S
O194 C187 1.226 . S
O195 Cd186 2.356 1_455 S
O195 C193 1.282 . S
C196 O197 1.306 . S
C196 O199 1.160 . S
O197 C196 1.306 . S
O197 Cd198 2.228 . S
Cd198 O197 2.228 . S
Cd198 O202 2.273 . S
Cd198 O206 2.277 . S
O199 C196 1.160 . S
O199 Cd200 2.203 . S
Cd200 O199 2.203 . S
Cd200 O202 2.411 . S
Cd200 O203 2.333 . S
Cd200 O204 2.352 . S
Cd200 O208 2.277 . S
Cd200 O209 2.356 . S
C201 O206 1.209 . S
C201 O208 1.226 . S
O202 Cd198 2.273 . S
O202 Cd200 2.411 . S
O202 C205 1.320 . S
O203 Cd200 2.333 . S
O203 C205 1.214 . S
O204 Cd200 2.352 . S
O204 C207 1.258 . S
C205 O202 1.320 . S
C205 O203 1.214 . S
O206 Cd198 2.277 . S
O206 C201 1.209 . S
C207 O204 1.258 . S
C207 O209 1.282 . S
O208 Cd200 2.277 . S
O208 C201 1.226 . S
O209 Cd200 2.356 . S
O209 C207 1.282 . S
C210 O211 1.306 . S
C210 O213 1.160 . S
O211 C210 1.306 . S
O211 Cd212 2.228 . S
Cd212 O211 2.228 . S
Cd212 O216 2.273 . S
Cd212 O220 2.277 . S
O213 C210 1.160 . S
O213 Cd214 2.203 . S
Cd214 O213 2.203 . S
Cd214 O216 2.411 . S
Cd214 O217 2.333 . S
Cd214 O218 2.352 . S
Cd214 O222 2.277 . S
Cd214 O223 2.356 . S
C215 O220 1.209 . S
C215 O222 1.226 . S
O216 Cd212 2.273 . S
O216 Cd214 2.411 . S
O216 C219 1.320 . S
O217 Cd214 2.333 . S
O217 C219 1.214 . S
O218 Cd214 2.352 . S
O218 C221 1.258 . S
C219 O216 1.320 . S
C219 O217 1.214 . S
O220 Cd212 2.277 . S
O220 C215 1.209 . S
C221 O218 1.258 . S
C221 O223 1.282 . S
O222 Cd214 2.277 . S
O222 C215 1.226 . S
O223 Cd214 2.356 . S
O223 C221 1.282 . S
C224 O225 1.306 . S
C224 O227 1.160 . S
O225 C224 1.306 . S
O225 Cd226 2.228 . S
Cd226 O225 2.228 . S
Cd226 O230 2.273 . S
Cd226 O234 2.277 . S
O227 C224 1.160 . S
O227 Cd228 2.203 . S
Cd228 O227 2.203 . S
Cd228 O230 2.411 . S
Cd228 O231 2.333 . S
Cd228 O232 2.352 . S
Cd228 O236 2.277 . S
Cd228 O237 2.356 . S
C229 O234 1.209 . S
C229 O236 1.226 . S
O230 Cd226 2.273 . S
O230 Cd228 2.411 . S
O230 C233 1.320 . S
O231 Cd228 2.333 . S
O231 C233 1.214 . S
O232 Cd228 2.352 . S
O232 C235 1.258 1_545 S
C233 O230 1.320 . S
C233 O231 1.214 . S
O234 Cd226 2.277 . S
O234 C229 1.209 . S
C235 O232 1.258 1_565 S
C235 O237 1.282 1_565 S
O236 Cd228 2.277 . S
O236 C229 1.226 . S
O237 Cd228 2.356 . S
O237 C235 1.282 1_545 S
C238 O239 1.306 . S
C238 O241 1.160 . S
O239 C238 1.306 . S
O239 Cd240 2.228 . S
Cd240 O239 2.228 . S
Cd240 O244 2.273 . S
Cd240 O248 2.277 . S
O241 C238 1.160 . S
O241 Cd242 2.203 . S
Cd242 O241 2.203 . S
Cd242 O244 2.411 . S
Cd242 O245 2.333 . S
Cd242 O246 2.352 . S
Cd242 O250 2.277 . S
Cd242 O251 2.356 . S
C243 O248 1.209 . S
C243 O250 1.226 . S
O244 Cd240 2.273 . S
O244 Cd242 2.411 . S
O244 C247 1.320 . S
O245 Cd242 2.333 . S
O245 C247 1.214 . S
O246 Cd242 2.352 . S
O246 C249 1.258 . S
C247 O244 1.320 . S
C247 O245 1.214 . S
O248 Cd240 2.277 . S
O248 C243 1.209 . S
C249 O246 1.258 . S
C249 O251 1.282 . S
O250 Cd242 2.277 . S
O250 C243 1.226 . S
O251 Cd242 2.356 . S
O251 C249 1.282 . S
H252 O278 0.861 . S
H253 O281 0.854 . S
H254 C289 0.930 . S
H255 C290 0.930 . S
H256 C292 0.930 . S
H257 C293 0.930 . S
H258 C295 0.931 . S
H259 C296 0.930 . S
H260 C298 0.930 . S
H261 C299 0.929 . S
H262 C301 0.930 . S
H263 C302 0.931 . S
H264 C304 0.930 . S
H265 C305 0.929 . S
H266 C307 0.931 . S
H267 C308 0.930 . S
H268 C310 0.930 . S
H269 C311 0.932 . S
H270 C313 0.930 . S
H271 C314 0.929 . S
H272 C316 0.931 . S
H273 C317 0.930 . S
H274 C319 0.929 . S
H275 C320 0.931 . S
H276 C322 0.930 . S
H277 C323 0.929 . S
O278 H252 0.861 . S
O278 C324 1.300 . S
O279 C324 1.209 . S
O280 C325 1.199 . S
O281 H253 0.854 . S
O281 C325 1.297 . S
C282 C283 1.404 . S
C282 C287 1.397 . S
C282 C288 1.492 . S
C283 C282 1.404 . S
C283 C284 1.396 . S
C283 C294 1.492 . S
C284 C283 1.396 . S
C284 C285 1.397 . S
C284 C300 1.509 . S
C285 C284 1.397 . S
C285 C286 1.412 . S
C285 C306 1.485 . S
C286 C285 1.412 . S
C286 C287 1.388 . S
C286 C312 1.490 . S
C287 C282 1.397 . S
C287 C286 1.388 . S
C287 C318 1.519 . S
C288 C282 1.492 . S
C288 C289 1.363 . S
C288 C293 1.390 . S
C289 H254 0.930 . S
C289 C288 1.363 . S
C289 C290 1.372 . S
C290 H255 0.930 . S
C290 C289 1.372 . S
C290 C291 1.383 . S
C291 C290 1.383 . S
C291 C292 1.395 . S
C292 H256 0.930 . S
C292 C291 1.395 . S
C292 C293 1.362 . S
C293 H257 0.930 . S
C293 C288 1.390 . S
C293 C292 1.362 . S
C294 C283 1.492 . S
C294 C295 1.377 . S
C294 C299 1.397 . S
C295 H258 0.931 . S
C295 C294 1.377 . S
C295 C296 1.376 . S
C296 H259 0.930 . S
C296 C295 1.376 . S
C296 C297 1.376 . S
C297 C296 1.376 . S
C297 C298 1.378 . S
C297 C324 1.486 . S
C298 H260 0.930 . S
C298 C297 1.378 . S
C298 C299 1.376 . S
C299 H261 0.929 . S
C299 C294 1.397 . S
C299 C298 1.376 . S
C300 C284 1.509 . S
C300 C301 1.391 . S
C300 C305 1.386 . S
C301 H262 0.930 . S
C301 C300 1.391 . S
C301 C302 1.375 . S
C302 H263 0.931 . S
C302 C301 1.375 . S
C302 C303 1.375 . S
C303 C302 1.375 . S
C303 C304 1.361 . S
C304 H264 0.930 . S
C304 C303 1.361 . S
C304 C305 1.399 . S
C305 H265 0.929 . S
C305 C300 1.386 . S
C305 C304 1.399 . S
C306 C285 1.485 . S
C306 C307 1.394 . S
C306 C311 1.360 . S
C307 H266 0.931 . S
C307 C306 1.394 . S
C307 C308 1.372 . S
C308 H267 0.930 . S
C308 C307 1.372 . S
C308 C309 1.397 . S
C309 C308 1.397 . S
C309 C310 1.390 . S
C309 C325 1.476 . S
C310 H268 0.930 . S
C310 C309 1.390 . S
C310 C311 1.366 . S
C311 H269 0.932 . S
C311 C306 1.360 . S
C311 C310 1.366 . S
C312 C286 1.490 . S
C312 C313 1.380 . S
C312 C317 1.386 . S
C313 H270 0.930 . S
C313 C312 1.380 . S
C313 C314 1.381 . S
C314 H271 0.929 . S
C314 C313 1.381 . S
C314 C315 1.371 . S
C315 C314 1.371 . S
C315 C316 1.380 . S
C316 H272 0.931 . S
C316 C315 1.380 . S
C316 C317 1.387 . S
C317 H273 0.930 . S
C317 C312 1.386 . S
C317 C316 1.387 . S
C318 C287 1.519 . S
C318 C319 1.377 . S
C318 C323 1.361 . S
C319 H274 0.929 . S
C319 C318 1.377 . S
C319 C320 1.386 . S
C320 H275 0.931 . S
C320 C319 1.386 . S
C320 C321 1.363 . S
C321 C320 1.363 . S
C321 C322 1.385 . S
C322 H276 0.930 . S
C322 C321 1.385 . S
C322 C323 1.396 . S
C323 H277 0.929 . S
C323 C318 1.361 . S
C323 C322 1.396 . S
C324 O278 1.300 . S
C324 O279 1.209 . S
C324 C297 1.486 . S
C325 O280 1.199 . S
C325 O281 1.297 . S
C325 C309 1.476 . S
H326 O352 0.856 . S
H327 O355 0.854 1_545 S
H328 C363 0.930 . S
H329 C364 0.930 . S
H330 C366 0.930 . S
H331 C367 0.930 . S
H332 C369 0.931 . S
H333 C370 0.930 . S
H334 C372 0.930 . S
H335 C373 0.929 . S
H336 C375 0.930 . S
H337 C376 0.931 . S
H338 C378 0.930 . S
H339 C379 0.929 . S
H340 C381 0.931 . S
H341 C382 0.930 . S
H342 C384 0.930 . S
H343 C385 0.932 . S
H344 C387 0.930 . S
H345 C388 0.929 . S
H346 C390 0.931 . S
H347 C391 0.930 . S
H348 C393 0.929 . S
H349 C394 0.931 . S
H350 C396 0.930 . S
H351 C397 0.929 . S
O352 H326 0.856 . S
O352 C398 1.300 . S
O353 C398 1.209 . S
O354 C399 1.199 . S
O355 H327 0.854 1_565 S
O355 C399 1.297 . S
C356 C357 1.404 . S
C356 C361 1.397 . S
C356 C362 1.492 . S
C357 C356 1.404 . S
C357 C358 1.396 . S
C357 C368 1.492 . S
C358 C357 1.396 . S
C358 C359 1.397 . S
C358 C374 1.509 . S
C359 C358 1.397 . S
C359 C360 1.412 . S
C359 C380 1.485 . S
C360 C359 1.412 . S
C360 C361 1.388 . S
C360 C386 1.490 . S
C361 C356 1.397 . S
C361 C360 1.388 . S
C361 C392 1.519 . S
C362 C356 1.492 . S
C362 C363 1.363 . S
C362 C367 1.390 . S
C363 H328 0.930 . S
C363 C362 1.363 . S
C363 C364 1.372 . S
C364 H329 0.930 . S
C364 C363 1.372 . S
C364 C365 1.383 . S
C365 C364 1.383 . S
C365 C366 1.395 . S
C366 H330 0.930 . S
C366 C365 1.395 . S
C366 C367 1.362 . S
C367 H331 0.930 . S
C367 C362 1.390 . S
C367 C366 1.362 . S
C368 C357 1.492 . S
C368 C369 1.377 . S
C368 C373 1.397 . S
C369 H332 0.931 . S
C369 C368 1.377 . S
C369 C370 1.376 . S
C370 H333 0.930 . S
C370 C369 1.376 . S
C370 C371 1.376 . S
C371 C370 1.376 . S
C371 C372 1.378 . S
C371 C398 1.486 . S
C372 H334 0.930 . S
C372 C371 1.378 . S
C372 C373 1.376 . S
C373 H335 0.929 . S
C373 C368 1.397 . S
C373 C372 1.376 . S
C374 C358 1.509 . S
C374 C375 1.391 . S
C374 C379 1.386 . S
C375 H336 0.930 . S
C375 C374 1.391 . S
C375 C376 1.375 . S
C376 H337 0.931 . S
C376 C375 1.375 . S
C376 C377 1.375 . S
C377 C376 1.375 . S
C377 C378 1.361 . S
C378 H338 0.930 . S
C378 C377 1.361 . S
C378 C379 1.399 . S
C379 H339 0.929 . S
C379 C374 1.386 . S
C379 C378 1.399 . S
C380 C359 1.485 . S
C380 C381 1.394 . S
C380 C385 1.360 . S
C381 H340 0.931 . S
C381 C380 1.394 . S
C381 C382 1.372 . S
C382 H341 0.930 . S
C382 C381 1.372 . S
C382 C383 1.397 . S
C383 C382 1.397 . S
C383 C384 1.390 . S
C383 C399 1.476 . S
C384 H342 0.930 . S
C384 C383 1.390 . S
C384 C385 1.366 . S
C385 H343 0.932 . S
C385 C380 1.360 . S
C385 C384 1.366 . S
C386 C360 1.490 . S
C386 C387 1.380 . S
C386 C391 1.386 . S
C387 H344 0.930 . S
C387 C386 1.380 . S
C387 C388 1.381 . S
C388 H345 0.929 . S
C388 C387 1.381 . S
C388 C389 1.371 . S
C389 C388 1.371 . S
C389 C390 1.380 . S
C390 H346 0.931 . S
C390 C389 1.380 . S
C390 C391 1.387 . S
C391 H347 0.930 . S
C391 C386 1.386 . S
C391 C390 1.387 . S
C392 C361 1.519 . S
C392 C393 1.377 . S
C392 C397 1.361 . S
C393 H348 0.929 . S
C393 C392 1.377 . S
C393 C394 1.386 . S
C394 H349 0.931 . S
C394 C393 1.386 . S
C394 C395 1.363 . S
C395 C394 1.363 . S
C395 C396 1.385 . S
C396 H350 0.930 . S
C396 C395 1.385 . S
C396 C397 1.396 . S
C397 H351 0.929 . S
C397 C392 1.361 . S
C397 C396 1.396 . S
C398 O352 1.300 . S
C398 O353 1.209 . S
C398 C371 1.486 . S
C399 O354 1.199 . S
C399 O355 1.297 . S
C399 C383 1.476 . S
H400 O426 0.856 . S
H401 O429 0.848 1_545 S
H402 C437 0.930 . S
H403 C438 0.930 . S
H404 C440 0.930 . S
H405 C441 0.930 . S
H406 C443 0.931 . S
H407 C444 0.930 . S
H408 C446 0.930 . S
H409 C447 0.929 . S
H410 C449 0.930 . S
H411 C450 0.931 . S
H412 C452 0.930 . S
H413 C453 0.929 . S
H414 C455 0.931 . S
H415 C456 0.930 . S
H416 C458 0.930 . S
H417 C459 0.932 . S
H418 C461 0.930 . S
H419 C462 0.929 . S
H420 C464 0.931 . S
H421 C465 0.930 . S
H422 C467 0.929 . S
H423 C468 0.931 . S
H424 C470 0.930 . S
H425 C471 0.929 . S
O426 H400 0.856 . S
O426 C472 1.300 . S
O427 C472 1.209 . S
O428 C473 1.199 1_545 S
O429 H401 0.848 1_565 S
O429 C473 1.297 . S
C430 C431 1.404 . S
C430 C435 1.397 . S
C430 C436 1.492 . S
C431 C430 1.404 . S
C431 C432 1.396 . S
C431 C442 1.492 . S
C432 C431 1.396 . S
C432 C433 1.397 . S
C432 C448 1.509 . S
C433 C432 1.397 . S
C433 C434 1.412 . S
C433 C454 1.485 . S
C434 C433 1.412 . S
C434 C435 1.388 . S
C434 C460 1.490 . S
C435 C430 1.397 . S
C435 C434 1.388 . S
C435 C466 1.519 . S
C436 C430 1.492 . S
C436 C437 1.363 . S
C436 C441 1.390 . S
C437 H402 0.930 . S
C437 C436 1.363 . S
C437 C438 1.372 . S
C438 H403 0.930 . S
C438 C437 1.372 . S
C438 C439 1.383 . S
C439 C438 1.383 . S
C439 C440 1.395 . S
C440 H404 0.930 . S
C440 C439 1.395 . S
C440 C441 1.362 . S
C441 H405 0.930 . S
C441 C436 1.390 . S
C441 C440 1.362 . S
C442 C431 1.492 . S
C442 C443 1.377 . S
C442 C447 1.397 . S
C443 H406 0.931 . S
C443 C442 1.377 . S
C443 C444 1.376 . S
C444 H407 0.930 . S
C444 C443 1.376 . S
C444 C445 1.376 . S
C445 C444 1.376 . S
C445 C446 1.378 . S
C445 C472 1.486 . S
C446 H408 0.930 . S
C446 C445 1.378 . S
C446 C447 1.376 . S
C447 H409 0.929 . S
C447 C442 1.397 . S
C447 C446 1.376 . S
C448 C432 1.509 . S
C448 C449 1.391 . S
C448 C453 1.386 . S
C449 H410 0.930 . S
C449 C448 1.391 . S
C449 C450 1.375 . S
C450 H411 0.931 . S
C450 C449 1.375 . S
C450 C451 1.375 . S
C451 C450 1.375 . S
C451 C452 1.361 . S
C452 H412 0.930 . S
C452 C451 1.361 . S
C452 C453 1.399 . S
C453 H413 0.929 . S
C453 C448 1.386 . S
C453 C452 1.399 . S
C454 C433 1.485 . S
C454 C455 1.394 . S
C454 C459 1.360 . S
C455 H414 0.931 . S
C455 C454 1.394 . S
C455 C456 1.372 . S
C456 H415 0.930 . S
C456 C455 1.372 . S
C456 C457 1.397 . S
C457 C456 1.397 . S
C457 C458 1.390 . S
C457 C473 1.476 . S
C458 H416 0.930 . S
C458 C457 1.390 . S
C458 C459 1.366 . S
C459 H417 0.932 . S
C459 C454 1.360 . S
C459 C458 1.366 . S
C460 C434 1.490 . S
C460 C461 1.380 . S
C460 C465 1.386 . S
C461 H418 0.930 . S
C461 C460 1.380 . S
C461 C462 1.381 . S
C462 H419 0.929 . S
C462 C461 1.381 . S
C462 C463 1.371 . S
C463 C462 1.371 . S
C463 C464 1.380 . S
C464 H420 0.931 . S
C464 C463 1.380 . S
C464 C465 1.387 . S
C465 H421 0.930 . S
C465 C460 1.386 . S
C465 C464 1.387 . S
C466 C435 1.519 . S
C466 C467 1.377 . S
C466 C471 1.361 . S
C467 H422 0.929 . S
C467 C466 1.377 . S
C467 C468 1.386 . S
C468 H423 0.931 . S
C468 C467 1.386 . S
C468 C469 1.363 . S
C469 C468 1.363 . S
C469 C470 1.385 . S
C470 H424 0.930 . S
C470 C469 1.385 . S
C470 C471 1.396 . S
C471 H425 0.929 . S
C471 C466 1.361 . S
C471 C470 1.396 . S
C472 O426 1.300 . S
C472 O427 1.209 . S
C472 C445 1.486 . S
C473 O428 1.199 1_565 S
C473 O429 1.297 . S
C473 C457 1.476 . S
H474 O500 0.856 . S
H475 O503 0.854 . S
H476 C511 0.930 . S
H477 C512 0.930 . S
H478 C514 0.930 . S
H479 C515 0.930 . S
H480 C517 0.931 . S
H481 C518 0.930 1_554 S
H482 C520 0.930 . S
H483 C521 0.929 . S
H484 C523 0.930 . S
H485 C524 0.931 . S
H486 C526 0.930 . S
H487 C527 0.929 . S
H488 C529 0.931 . S
H489 C530 0.930 . S
H490 C532 0.930 . S
H491 C533 0.932 . S
H492 C535 0.930 . S
H493 C536 0.929 . S
H494 C538 0.931 . S
H495 C539 0.930 . S
H496 C541 0.929 . S
H497 C542 0.931 . S
H498 C544 0.930 . S
H499 C545 0.929 . S
O500 H474 0.856 . S
O500 C546 1.300 . S
O501 C546 1.209 . S
O502 C547 1.199 . S
O503 H475 0.854 . S
O503 C547 1.297 . S
C504 C505 1.404 . S
C504 C509 1.397 . S
C504 C510 1.492 . S
C505 C504 1.404 . S
C505 C506 1.396 . S
C505 C516 1.492 . S
C506 C505 1.396 . S
C506 C507 1.397 . S
C506 C522 1.509 . S
C507 C506 1.397 . S
C507 C508 1.412 . S
C507 C528 1.485 . S
C508 C507 1.412 . S
C508 C509 1.388 . S
C508 C534 1.490 . S
C509 C504 1.397 . S
C509 C508 1.388 . S
C509 C540 1.519 . S
C510 C504 1.492 . S
C510 C511 1.363 . S
C510 C515 1.390 . S
C511 H476 0.930 . S
C511 C510 1.363 . S
C511 C512 1.372 . S
C512 H477 0.930 . S
C512 C511 1.372 . S
C512 C513 1.383 . S
C513 C512 1.383 . S
C513 C514 1.395 . S
C514 H478 0.930 . S
C514 C513 1.395 . S
C514 C515 1.362 . S
C515 H479 0.930 . S
C515 C510 1.390 . S
C515 C514 1.362 . S
C516 C505 1.492 . S
C516 C517 1.377 . S
C516 C521 1.397 . S
C517 H480 0.931 . S
C517 C516 1.377 . S
C517 C518 1.376 . S
C518 H481 0.930 1_556 S
C518 C517 1.376 . S
C518 C519 1.376 . S
C519 C518 1.376 . S
C519 C520 1.378 . S
C519 C546 1.486 1_556 S
C520 H482 0.930 . S
C520 C519 1.378 . S
C520 C521 1.376 . S
C521 H483 0.929 . S
C521 C516 1.397 . S
C521 C520 1.376 . S
C522 C506 1.509 . S
C522 C523 1.391 . S
C522 C527 1.386 . S
C523 H484 0.930 . S
C523 C522 1.391 . S
C523 C524 1.375 . S
C524 H485 0.931 . S
C524 C523 1.375 . S
C524 C525 1.375 . S
C525 C524 1.375 . S
C525 C526 1.361 . S
C526 H486 0.930 . S
C526 C525 1.361 . S
C526 C527 1.399 . S
C527 H487 0.929 . S
C527 C522 1.386 . S
C527 C526 1.399 . S
C528 C507 1.485 . S
C528 C529 1.394 . S
C528 C533 1.360 . S
C529 H488 0.931 . S
C529 C528 1.394 . S
C529 C530 1.372 . S
C530 H489 0.930 . S
C530 C529 1.372 . S
C530 C531 1.397 . S
C531 C530 1.397 . S
C531 C532 1.390 . S
C531 C547 1.476 . S
C532 H490 0.930 . S
C532 C531 1.390 . S
C532 C533 1.366 . S
C533 H491 0.932 . S
C533 C528 1.360 . S
C533 C532 1.366 . S
C534 C508 1.490 . S
C534 C535 1.380 . S
C534 C539 1.386 . S
C535 H492 0.930 . S
C535 C534 1.380 . S
C535 C536 1.381 . S
C536 H493 0.929 . S
C536 C535 1.381 . S
C536 C537 1.371 . S
C537 C536 1.371 . S
C537 C538 1.380 . S
C538 H494 0.931 . S
C538 C537 1.380 . S
C538 C539 1.387 . S
C539 H495 0.930 . S
C539 C534 1.386 . S
C539 C538 1.387 . S
C540 C509 1.519 . S
C540 C541 1.377 . S
C540 C545 1.361 . S
C541 H496 0.929 . S
C541 C540 1.377 . S
C541 C542 1.386 . S
C542 H497 0.931 . S
C542 C541 1.386 . S
C542 C543 1.363 . S
C543 C542 1.363 . S
C543 C544 1.385 . S
C544 H498 0.930 . S
C544 C543 1.385 . S
C544 C545 1.396 . S
C545 H499 0.929 . S
C545 C540 1.361 . S
C545 C544 1.396 . S
C546 O500 1.300 . S
C546 O501 1.209 . S
C546 C519 1.486 1_554 S
C547 O502 1.199 . S
C547 O503 1.297 . S
C547 C531 1.476 . S
H548 O574 0.856 . S
H549 O577 0.854 . S
H550 C585 0.930 . S
H551 C586 0.930 . S
H552 C588 0.930 . S
H553 C589 0.930 . S
H554 C591 0.931 . S
H555 C592 0.930 . S
H556 C594 0.938 . S
H557 C595 0.929 . S
H558 C597 0.930 . S
H559 C598 0.931 . S
H560 C600 0.930 . S
H561 C601 0.929 . S
H562 C603 0.931 . S
H563 C604 0.930 . S
H564 C606 0.930 . S
H565 C607 0.932 . S
H566 C609 0.930 . S
H567 C610 0.929 . S
H568 C612 0.931 . S
H569 C613 0.930 . S
H570 C615 0.929 . S
H571 C616 0.931 . S
H572 C618 0.930 . S
H573 C619 0.929 . S
O574 H548 0.856 . S
O574 C620 1.300 . S
O575 C620 1.209 . S
O576 C621 1.199 . S
O577 H549 0.854 . S
O577 C621 1.297 1_565 S
C578 C579 1.404 . S
C578 C583 1.397 . S
C578 C584 1.492 . S
C579 C578 1.404 . S
C579 C580 1.396 . S
C579 C590 1.492 . S
C580 C579 1.396 . S
C580 C581 1.397 . S
C580 C596 1.509 . S
C581 C580 1.397 . S
C581 C582 1.412 . S
C581 C602 1.485 . S
C582 C581 1.412 . S
C582 C583 1.388 . S
C582 C608 1.490 . S
C583 C578 1.397 . S
C583 C582 1.388 . S
C583 C614 1.519 . S
C584 C578 1.492 . S
C584 C585 1.363 . S
C584 C589 1.390 . S
C585 H550 0.930 . S
C585 C584 1.363 . S
C585 C586 1.372 . S
C586 H551 0.930 . S
C586 C585 1.372 . S
C586 C587 1.383 . S
C587 C586 1.383 . S
C587 C588 1.395 . S
C588 H552 0.930 . S
C588 C587 1.395 . S
C588 C589 1.362 . S
C589 H553 0.930 . S
C589 C584 1.390 . S
C589 C588 1.362 . S
C590 C579 1.492 . S
C590 C591 1.377 . S
C590 C595 1.397 . S
C591 H554 0.931 . S
C591 C590 1.377 . S
C591 C592 1.376 1_556 S
C592 H555 0.930 . S
C592 C591 1.376 1_554 S
C592 C593 1.376 . S
C593 C592 1.376 . S
C593 C594 1.389 . S
C593 C620 1.486 . S
C594 H556 0.938 . S
C594 C593 1.389 . S
C594 C595 1.357 1_554 S
C595 H557 0.929 . S
C595 C590 1.397 . S
C595 C594 1.357 1_556 S
C596 C580 1.509 . S
C596 C597 1.391 . S
C596 C601 1.386 . S
C597 H558 0.930 . S
C597 C596 1.391 . S
C597 C598 1.375 . S
C598 H559 0.931 . S
C598 C597 1.375 . S
C598 C599 1.375 . S
C599 C598 1.375 . S
C599 C600 1.361 . S
C600 H560 0.930 . S
C600 C599 1.361 . S
C600 C601 1.399 . S
C601 H561 0.929 . S
C601 C596 1.386 . S
C601 C600 1.399 . S
C602 C581 1.485 . S
C602 C603 1.394 . S
C602 C607 1.360 . S
C603 H562 0.931 . S
C603 C602 1.394 . S
C603 C604 1.372 . S
C604 H563 0.930 . S
C604 C603 1.372 . S
C604 C605 1.397 . S
C605 C604 1.397 . S
C605 C606 1.390 . S
C605 C621 1.476 . S
C606 H564 0.930 . S
C606 C605 1.390 . S
C606 C607 1.366 . S
C607 H565 0.932 . S
C607 C602 1.360 . S
C607 C606 1.366 . S
C608 C582 1.490 . S
C608 C609 1.380 . S
C608 C613 1.386 . S
C609 H566 0.930 . S
C609 C608 1.380 . S
C609 C610 1.381 . S
C610 H567 0.929 . S
C610 C609 1.381 . S
C610 C611 1.371 . S
C611 C610 1.371 . S
C611 C612 1.380 . S
C612 H568 0.931 . S
C612 C611 1.380 . S
C612 C613 1.387 . S
C613 H569 0.930 . S
C613 C608 1.386 . S
C613 C612 1.387 . S
C614 C583 1.519 . S
C614 C615 1.377 . S
C614 C619 1.361 . S
C615 H570 0.929 . S
C615 C614 1.377 . S
C615 C616 1.386 . S
C616 H571 0.931 . S
C616 C615 1.386 . S
C616 C617 1.363 . S
C617 C616 1.363 . S
C617 C618 1.385 . S
C618 H572 0.930 . S
C618 C617 1.385 . S
C618 C619 1.396 . S
C619 H573 0.929 . S
C619 C614 1.361 . S
C619 C618 1.396 . S
C620 O574 1.300 . S
C620 O575 1.209 . S
C620 C593 1.486 . S
C621 O576 1.199 . S
C621 O577 1.297 1_545 S
C621 C605 1.476 . S
H622 O648 0.856 . S
H623 O651 0.854 . S
H624 C659 0.930 . S
H625 C660 0.930 . S
H626 C662 0.930 . S
H627 C663 0.930 . S
H628 C665 0.931 . S
H629 C666 0.930 . S
H630 C668 0.930 . S
H631 C669 0.929 . S
H632 C671 0.930 . S
H633 C672 0.931 . S
H634 C674 0.930 . S
H635 C675 0.929 . S
H636 C677 0.931 . S
H637 C678 0.930 . S
H638 C680 0.930 . S
H639 C681 0.932 . S
H640 C683 0.930 . S
H641 C684 0.929 . S
H642 C686 0.931 . S
H643 C687 0.930 . S
H644 C689 0.929 . S
H645 C690 0.931 . S
H646 C692 0.930 . S
H647 C693 0.929 . S
O648 H622 0.856 . S
O648 C694 1.300 . S
O649 C694 1.209 . S
O650 C695 1.199 . S
O651 H623 0.854 . S
O651 C695 1.297 . S
C652 C653 1.404 . S
C652 C657 1.397 . S
C652 C658 1.492 . S
C653 C652 1.404 . S
C653 C654 1.396 . S
C653 C664 1.492 . S
C654 C653 1.396 . S
C654 C655 1.397 . S
C654 C670 1.509 . S
C655 C654 1.397 . S
C655 C656 1.412 . S
C655 C676 1.485 . S
C656 C655 1.412 . S
C656 C657 1.388 . S
C656 C682 1.490 . S
C657 C652 1.397 . S
C657 C656 1.388 . S
C657 C688 1.519 . S
C658 C652 1.492 . S
C658 C659 1.363 . S
C658 C663 1.390 . S
C659 H624 0.930 . S
C659 C658 1.363 . S
C659 C660 1.372 . S
C660 H625 0.930 . S
C660 C659 1.372 . S
C660 C661 1.383 . S
C661 C660 1.383 . S
C661 C662 1.395 . S
C662 H626 0.930 . S
C662 C661 1.395 . S
C662 C663 1.362 . S
C663 H627 0.930 . S
C663 C658 1.390 . S
C663 C662 1.362 . S
C664 C653 1.492 . S
C664 C665 1.377 . S
C664 C669 1.397 . S
C665 H628 0.931 . S
C665 C664 1.377 . S
C665 C666 1.376 1_556 S
C666 H629 0.930 . S
C666 C665 1.376 1_554 S
C666 C667 1.376 . S
C667 C666 1.376 . S
C667 C668 1.378 . S
C667 C694 1.486 . S
C668 H630 0.930 . S
C668 C667 1.378 . S
C668 C669 1.376 1_554 S
C669 H631 0.929 . S
C669 C664 1.397 . S
C669 C668 1.376 1_556 S
C670 C654 1.509 . S
C670 C671 1.391 . S
C670 C675 1.386 . S
C671 H632 0.930 . S
C671 C670 1.391 . S
C671 C672 1.375 . S
C672 H633 0.931 . S
C672 C671 1.375 . S
C672 C673 1.375 . S
C673 C672 1.375 . S
C673 C674 1.361 . S
C674 H634 0.930 . S
C674 C673 1.361 . S
C674 C675 1.399 . S
C675 H635 0.929 . S
C675 C670 1.386 . S
C675 C674 1.399 . S
C676 C655 1.485 . S
C676 C677 1.394 . S
C676 C681 1.360 . S
C677 H636 0.931 . S
C677 C676 1.394 . S
C677 C678 1.372 . S
C678 H637 0.930 . S
C678 C677 1.372 . S
C678 C679 1.397 . S
C679 C678 1.397 . S
C679 C680 1.390 . S
C679 C695 1.476 . S
C680 H638 0.930 . S
C680 C679 1.390 . S
C680 C681 1.366 . S
C681 H639 0.932 . S
C681 C676 1.360 . S
C681 C680 1.366 . S
C682 C656 1.490 . S
C682 C683 1.380 . S
C682 C687 1.386 . S
C683 H640 0.930 . S
C683 C682 1.380 . S
C683 C684 1.381 . S
C684 H641 0.929 . S
C684 C683 1.381 . S
C684 C685 1.371 . S
C685 C684 1.371 . S
C685 C686 1.380 . S
C686 H642 0.931 . S
C686 C685 1.380 . S
C686 C687 1.387 . S
C687 H643 0.930 . S
C687 C682 1.386 . S
C687 C686 1.387 . S
C688 C657 1.519 . S
C688 C689 1.377 . S
C688 C693 1.361 . S
C689 H644 0.929 . S
C689 C688 1.377 . S
C689 C690 1.386 . S
C690 H645 0.931 . S
C690 C689 1.386 . S
C690 C691 1.363 . S
C691 C690 1.363 . S
C691 C692 1.385 . S
C692 H646 0.930 . S
C692 C691 1.385 . S
C692 C693 1.396 . S
C693 H647 0.929 . S
C693 C688 1.361 . S
C693 C692 1.396 . S
C694 O648 1.300 . S
C694 O649 1.209 . S
C694 C667 1.486 . S
C695 O650 1.199 . S
C695 O651 1.297 . S
C695 C679 1.476 . S
H696 O722 0.856 . S
H697 O725 0.854 . S
H698 C733 0.930 . S
H699 C734 0.930 . S
H700 C736 0.930 . S
H701 C737 0.930 . S
H702 C739 0.931 . S
H703 C740 0.930 . S
H704 C742 0.930 . S
H705 C743 0.929 . S
H706 C745 0.930 . S
H707 C746 0.931 . S
H708 C748 0.930 . S
H709 C749 0.929 . S
H710 C751 0.931 . S
H711 C752 0.930 . S
H712 C754 0.930 . S
H713 C755 0.932 . S
H714 C757 0.930 . S
H715 C758 0.929 . S
H716 C760 0.931 . S
H717 C761 0.930 . S
H718 C763 0.929 . S
H719 C764 0.931 . S
H720 C766 0.930 . S
H721 C767 0.929 . S
O722 H696 0.856 . S
O722 C768 1.300 . S
O723 C768 1.209 . S
O724 C769 1.199 . S
O725 H697 0.854 . S
O725 C769 1.297 . S
C726 C727 1.404 . S
C726 C731 1.397 . S
C726 C732 1.492 . S
C727 C726 1.404 . S
C727 C728 1.396 . S
C727 C738 1.492 . S
C728 C727 1.396 . S
C728 C729 1.397 . S
C728 C744 1.509 . S
C729 C728 1.397 . S
C729 C730 1.412 . S
C729 C750 1.485 . S
C730 C729 1.412 . S
C730 C731 1.388 . S
C730 C756 1.490 . S
C731 C726 1.397 . S
C731 C730 1.388 . S
C731 C762 1.519 . S
C732 C726 1.492 . S
C732 C733 1.363 . S
C732 C737 1.390 . S
C733 H698 0.930 . S
C733 C732 1.363 . S
C733 C734 1.372 . S
C734 H699 0.930 . S
C734 C733 1.372 . S
C734 C735 1.383 . S
C735 C734 1.383 . S
C735 C736 1.395 . S
C736 H700 0.930 . S
C736 C735 1.395 . S
C736 C737 1.362 . S
C737 H701 0.930 . S
C737 C732 1.390 . S
C737 C736 1.362 . S
C738 C727 1.492 . S
C738 C739 1.377 . S
C738 C743 1.397 . S
C739 H702 0.931 . S
C739 C738 1.377 . S
C739 C740 1.376 . S
C740 H703 0.930 . S
C740 C739 1.376 . S
C740 C741 1.376 . S
C741 C740 1.376 . S
C741 C742 1.378 . S
C741 C768 1.486 . S
C742 H704 0.930 . S
C742 C741 1.378 . S
C742 C743 1.376 . S
C743 H705 0.929 . S
C743 C738 1.397 . S
C743 C742 1.376 . S
C744 C728 1.509 . S
C744 C745 1.391 . S
C744 C749 1.386 . S
C745 H706 0.930 . S
C745 C744 1.391 . S
C745 C746 1.375 . S
C746 H707 0.931 . S
C746 C745 1.375 . S
C746 C747 1.375 . S
C747 C746 1.375 . S
C747 C748 1.361 . S
C748 H708 0.930 . S
C748 C747 1.361 . S
C748 C749 1.399 . S
C749 H709 0.929 . S
C749 C744 1.386 . S
C749 C748 1.399 . S
C750 C729 1.485 . S
C750 C751 1.394 . S
C750 C755 1.360 . S
C751 H710 0.931 . S
C751 C750 1.394 . S
C751 C752 1.372 . S
C752 H711 0.930 . S
C752 C751 1.372 . S
C752 C753 1.397 . S
C753 C752 1.397 . S
C753 C754 1.390 . S
C753 C769 1.476 . S
C754 H712 0.930 . S
C754 C753 1.390 . S
C754 C755 1.366 . S
C755 H713 0.932 . S
C755 C750 1.360 . S
C755 C754 1.366 . S
C756 C730 1.490 . S
C756 C757 1.380 . S
C756 C761 1.386 . S
C757 H714 0.930 . S
C757 C756 1.380 . S
C757 C758 1.381 . S
C758 H715 0.929 . S
C758 C757 1.381 . S
C758 C759 1.371 . S
C759 C758 1.371 . S
C759 C760 1.380 . S
C760 H716 0.931 . S
C760 C759 1.380 . S
C760 C761 1.387 . S
C761 H717 0.930 . S
C761 C756 1.386 . S
C761 C760 1.387 . S
C762 C731 1.519 . S
C762 C763 1.377 . S
C762 C767 1.361 . S
C763 H718 0.929 . S
C763 C762 1.377 . S
C763 C764 1.386 . S
C764 H719 0.931 . S
C764 C763 1.386 . S
C764 C765 1.363 . S
C765 C764 1.363 . S
C765 C766 1.385 . S
C766 H720 0.930 . S
C766 C765 1.385 . S
C766 C767 1.396 . S
C767 H721 0.929 . S
C767 C762 1.361 . S
C767 C766 1.396 . S
C768 O722 1.300 . S
C768 O723 1.209 . S
C768 C741 1.486 . S
C769 O724 1.199 . S
C769 O725 1.297 . S
C769 C753 1.476 . S
H770 O796 0.856 . S
H771 O799 0.854 . S
H772 C807 0.930 . S
H773 C808 0.930 . S
H774 C810 0.930 . S
H775 C811 0.930 . S
H776 C813 0.931 . S
H777 C814 0.930 . S
H778 C816 0.930 . S
H779 C817 0.929 . S
H780 C819 0.930 . S
H781 C820 0.931 . S
H782 C822 0.930 . S
H783 C823 0.929 . S
H784 C825 0.931 . S
H785 C826 0.930 . S
H786 C828 0.930 . S
H787 C829 0.932 . S
H788 C831 0.930 . S
H789 C832 0.929 . S
H790 C834 0.931 . S
H791 C835 0.930 . S
H792 C837 0.929 . S
H793 C838 0.931 . S
H794 C840 0.930 . S
H795 C841 0.929 . S
O796 H770 0.856 . S
O796 C842 1.300 . S
O797 C842 1.209 . S
O798 C843 1.199 . S
O799 H771 0.854 . S
O799 C843 1.297 . S
C800 C801 1.404 . S
C800 C805 1.397 . S
C800 C806 1.492 . S
C801 C800 1.404 . S
C801 C802 1.396 . S
C801 C812 1.492 . S
C802 C801 1.396 . S
C802 C803 1.397 . S
C802 C818 1.509 . S
C803 C802 1.397 . S
C803 C804 1.412 . S
C803 C824 1.485 . S
C804 C803 1.412 . S
C804 C805 1.388 . S
C804 C830 1.490 . S
C805 C800 1.397 . S
C805 C804 1.388 . S
C805 C836 1.519 . S
C806 C800 1.492 . S
C806 C807 1.363 . S
C806 C811 1.390 . S
C807 H772 0.930 . S
C807 C806 1.363 . S
C807 C808 1.372 . S
C808 H773 0.930 . S
C808 C807 1.372 . S
C808 C809 1.383 . S
C809 C808 1.383 . S
C809 C810 1.395 . S
C810 H774 0.930 . S
C810 C809 1.395 . S
C810 C811 1.362 . S
C811 H775 0.930 . S
C811 C806 1.390 . S
C811 C810 1.362 . S
C812 C801 1.492 . S
C812 C813 1.377 . S
C812 C817 1.397 . S
C813 H776 0.931 . S
C813 C812 1.377 . S
C813 C814 1.376 . S
C814 H777 0.930 . S
C814 C813 1.376 . S
C814 C815 1.376 . S
C815 C814 1.376 . S
C815 C816 1.378 . S
C815 C842 1.486 . S
C816 H778 0.930 . S
C816 C815 1.378 . S
C816 C817 1.376 . S
C817 H779 0.929 . S
C817 C812 1.397 . S
C817 C816 1.376 . S
C818 C802 1.509 . S
C818 C819 1.391 . S
C818 C823 1.386 . S
C819 H780 0.930 . S
C819 C818 1.391 . S
C819 C820 1.375 . S
C820 H781 0.931 . S
C820 C819 1.375 . S
C820 C821 1.375 . S
C821 C820 1.375 . S
C821 C822 1.361 . S
C822 H782 0.930 . S
C822 C821 1.361 . S
C822 C823 1.399 . S
C823 H783 0.929 . S
C823 C818 1.386 . S
C823 C822 1.399 . S
C824 C803 1.485 . S
C824 C825 1.394 . S
C824 C829 1.360 . S
C825 H784 0.931 . S
C825 C824 1.394 . S
C825 C826 1.372 . S
C826 H785 0.930 . S
C826 C825 1.372 . S
C826 C827 1.397 . S
C827 C826 1.397 . S
C827 C828 1.390 . S
C827 C843 1.476 . S
C828 H786 0.930 . S
C828 C827 1.390 . S
C828 C829 1.366 . S
C829 H787 0.932 . S
C829 C824 1.360 . S
C829 C828 1.366 . S
C830 C804 1.490 . S
C830 C831 1.380 . S
C830 C835 1.386 . S
C831 H788 0.930 . S
C831 C830 1.380 . S
C831 C832 1.381 . S
C832 H789 0.929 . S
C832 C831 1.381 . S
C832 C833 1.371 . S
C833 C832 1.371 . S
C833 C834 1.380 . S
C834 H790 0.931 . S
C834 C833 1.380 . S
C834 C835 1.387 . S
C835 H791 0.930 . S
C835 C830 1.386 . S
C835 C834 1.387 . S
C836 C805 1.519 . S
C836 C837 1.377 . S
C836 C841 1.361 . S
C837 H792 0.929 . S
C837 C836 1.377 . S
C837 C838 1.386 . S
C838 H793 0.931 . S
C838 C837 1.386 . S
C838 C839 1.363 . S
C839 C838 1.363 . S
C839 C840 1.385 . S
C840 H794 0.930 . S
C840 C839 1.385 . S
C840 C841 1.396 . S
C841 H795 0.929 . S
C841 C836 1.361 . S
C841 C840 1.396 . S
C842 O796 1.300 . S
C842 O797 1.209 . S
C842 C815 1.486 . S
C843 O798 1.199 . S
C843 O799 1.297 . S
C843 C827 1.476 . S
H844 O870 0.856 . S
H845 O873 0.854 . S
H846 C881 0.930 . S
H847 C882 0.930 . S
H848 C884 0.930 . S
H849 C885 0.930 . S
H850 C887 0.931 . S
H851 C888 0.930 . S
H852 C890 0.930 . S
H853 C891 0.929 . S
H854 C893 0.930 . S
H855 C894 0.931 . S
H856 C896 0.930 . S
H857 C897 0.929 . S
H858 C899 0.931 . S
H859 C900 0.930 . S
H860 C902 0.930 . S
H861 C903 0.932 . S
H862 C905 0.930 . S
H863 C906 0.929 . S
H864 C908 0.931 . S
H865 C909 0.930 . S
H866 C911 0.929 . S
H867 C912 0.931 . S
H868 C914 0.930 . S
H869 C915 0.929 . S
O870 H844 0.856 . S
O870 C916 1.300 . S
O871 C916 1.209 . S
O872 C917 1.199 . S
O873 H845 0.854 . S
O873 C917 1.297 . S
C874 C875 1.404 . S
C874 C879 1.397 . S
C874 C880 1.492 . S
C875 C874 1.404 . S
C875 C876 1.396 . S
C875 C886 1.492 . S
C876 C875 1.396 . S
C876 C877 1.397 . S
C876 C892 1.509 . S
C877 C876 1.397 . S
C877 C878 1.412 . S
C877 C898 1.485 . S
C878 C877 1.412 . S
C878 C879 1.388 . S
C878 C904 1.490 . S
C879 C874 1.397 . S
C879 C878 1.388 . S
C879 C910 1.519 . S
C880 C874 1.492 . S
C880 C881 1.363 . S
C880 C885 1.390 . S
C881 H846 0.930 . S
C881 C880 1.363 . S
C881 C882 1.372 . S
C882 H847 0.930 . S
C882 C881 1.372 . S
C882 C883 1.383 . S
C883 C882 1.383 . S
C883 C884 1.395 . S
C884 H848 0.930 . S
C884 C883 1.395 . S
C884 C885 1.362 . S
C885 H849 0.930 . S
C885 C880 1.390 . S
C885 C884 1.362 . S
C886 C875 1.492 . S
C886 C887 1.377 . S
C886 C891 1.397 . S
C887 H850 0.931 . S
C887 C886 1.377 . S
C887 C888 1.376 . S
C888 H851 0.930 . S
C888 C887 1.376 . S
C888 C889 1.376 . S
C889 C888 1.376 . S
C889 C890 1.378 . S
C889 C916 1.486 . S
C890 H852 0.930 . S
C890 C889 1.378 . S
C890 C891 1.376 . S
C891 H853 0.929 . S
C891 C886 1.397 . S
C891 C890 1.376 . S
C892 C876 1.509 . S
C892 C893 1.391 . S
C892 C897 1.386 . S
C893 H854 0.930 . S
C893 C892 1.391 . S
C893 C894 1.375 . S
C894 H855 0.931 . S
C894 C893 1.375 . S
C894 C895 1.375 . S
C895 C894 1.375 . S
C895 C896 1.361 . S
C896 H856 0.930 . S
C896 C895 1.361 . S
C896 C897 1.399 . S
C897 H857 0.929 . S
C897 C892 1.386 . S
C897 C896 1.399 . S
C898 C877 1.485 . S
C898 C899 1.394 . S
C898 C903 1.360 . S
C899 H858 0.931 . S
C899 C898 1.394 . S
C899 C900 1.372 . S
C900 H859 0.930 . S
C900 C899 1.372 . S
C900 C901 1.397 . S
C901 C900 1.397 . S
C901 C902 1.390 . S
C901 C917 1.476 . S
C902 H860 0.930 . S
C902 C901 1.390 . S
C902 C903 1.366 . S
C903 H861 0.932 . S
C903 C898 1.360 . S
C903 C902 1.366 . S
C904 C878 1.490 . S
C904 C905 1.380 . S
C904 C909 1.386 . S
C905 H862 0.930 . S
C905 C904 1.380 . S
C905 C906 1.381 . S
C906 H863 0.929 . S
C906 C905 1.381 . S
C906 C907 1.371 . S
C907 C906 1.371 . S
C907 C908 1.380 . S
C908 H864 0.931 . S
C908 C907 1.380 . S
C908 C909 1.387 . S
C909 H865 0.930 . S
C909 C904 1.386 . S
C909 C908 1.387 . S
C910 C879 1.519 . S
C910 C911 1.377 . S
C910 C915 1.361 . S
C911 H866 0.929 . S
C911 C910 1.377 . S
C911 C912 1.386 . S
C912 H867 0.931 . S
C912 C911 1.386 . S
C912 C913 1.363 . S
C913 C912 1.363 . S
C913 C914 1.385 . S
C914 H868 0.930 . S
C914 C913 1.385 . S
C914 C915 1.396 . S
C915 H869 0.929 . S
C915 C910 1.361 . S
C915 C914 1.396 . S
C916 O870 1.300 . S
C916 O871 1.209 . S
C916 C889 1.486 . S
C917 O872 1.199 . S
C917 O873 1.297 . S
C917 C901 1.476 . S
H918 O944 0.856 . S
H919 O947 0.854 . S
H920 C955 0.930 . S
H921 C956 0.930 . S
H922 C958 0.930 . S
H923 C959 0.930 . S
H924 C961 0.947 . S
H925 C962 0.930 1_655 S
H926 C964 0.930 . S
H927 C965 0.929 . S
H928 C967 0.930 . S
H929 C968 0.931 1_655 S
H930 C970 0.930 . S
H931 C971 0.929 . S
H932 C973 0.931 . S
H933 C974 0.930 . S
H934 C976 0.930 . S
H935 C977 0.932 . S
H936 C979 0.930 . S
H937 C980 0.929 . S
H938 C982 0.931 . S
H939 C983 0.930 . S
H940 C985 0.929 . S
H941 C986 0.931 . S
H942 C988 0.930 . S
H943 C989 0.929 . S
O944 H918 0.856 . S
O944 C990 1.300 . S
O945 C990 1.209 . S
O946 C991 1.199 1_655 S
O947 H919 0.854 . S
O947 C991 1.297 . S
C948 C949 1.404 . S
C948 C953 1.397 . S
C948 C954 1.492 . S
C949 C948 1.404 . S
C949 C950 1.396 . S
C949 C960 1.492 . S
C950 C949 1.396 . S
C950 C951 1.397 . S
C950 C966 1.509 . S
C951 C950 1.397 . S
C951 C952 1.424 . S
C951 C972 1.485 . S
C952 C951 1.424 . S
C952 C953 1.377 . S
C952 C978 1.490 1_455 S
C953 C948 1.397 . S
C953 C952 1.377 . S
C953 C984 1.498 1_455 S
C954 C948 1.492 . S
C954 C955 1.363 1_455 S
C954 C959 1.390 . S
C955 H920 0.930 . S
C955 C954 1.363 1_655 S
C955 C956 1.372 . S
C956 H921 0.930 . S
C956 C955 1.372 . S
C956 C957 1.383 . S
C957 C956 1.383 . S
C957 C958 1.395 1_655 S
C958 H922 0.930 . S
C958 C957 1.395 1_455 S
C958 C959 1.362 . S
C959 H923 0.930 . S
C959 C954 1.390 . S
C959 C958 1.362 . S
C960 C949 1.492 . S
C960 C961 1.360 1_455 S
C960 C965 1.397 . S
C961 H924 0.947 . S
C961 C960 1.360 1_655 S
C961 C962 1.379 1_655 S
C962 H925 0.930 1_455 S
C962 C961 1.379 1_455 S
C962 C963 1.376 . S
C963 C962 1.376 . S
C963 C964 1.378 . S
C963 C990 1.486 . S
C964 H926 0.930 . S
C964 C963 1.378 . S
C964 C965 1.376 . S
C965 H927 0.929 . S
C965 C960 1.397 . S
C965 C964 1.376 . S
C966 C950 1.509 . S
C966 C967 1.391 1_455 S
C966 C971 1.386 . S
C967 H928 0.930 . S
C967 C966 1.391 1_655 S
C967 C968 1.375 1_655 S
C968 H929 0.931 1_455 S
C968 C967 1.375 1_455 S
C968 C969 1.375 . S
C969 C968 1.375 . S
C969 C970 1.361 . S
C970 H930 0.930 . S
C970 C969 1.361 . S
C970 C971 1.399 . S
C971 H931 0.929 . S
C971 C966 1.386 . S
C971 C970 1.399 . S
C972 C951 1.485 . S
C972 C973 1.394 1_455 S
C972 C977 1.360 . S
C973 H932 0.931 . S
C973 C972 1.394 1_655 S
C973 C974 1.372 . S
C974 H933 0.930 . S
C974 C973 1.372 . S
C974 C975 1.397 1_655 S
C975 C974 1.397 1_455 S
C975 C976 1.390 . S
C975 C991 1.476 . S
C976 H934 0.930 . S
C976 C975 1.390 . S
C976 C977 1.366 . S
C977 H935 0.932 . S
C977 C972 1.360 . S
C977 C976 1.366 . S
C978 C952 1.490 1_655 S
C978 C979 1.380 . S
C978 C983 1.386 1_655 S
C979 H936 0.930 . S
C979 C978 1.380 . S
C979 C980 1.381 . S
C980 H937 0.929 . S
C980 C979 1.381 . S
C980 C981 1.371 . S
C981 C980 1.371 . S
C981 C982 1.380 1_655 S
C982 H938 0.931 . S
C982 C981 1.380 1_455 S
C982 C983 1.387 . S
C983 H939 0.930 . S
C983 C978 1.386 1_455 S
C983 C982 1.387 . S
C984 C953 1.498 1_655 S
C984 C985 1.433 . S
C984 C989 1.326 1_655 S
C985 H940 0.929 . S
C985 C984 1.433 . S
C985 C986 1.386 . S
C986 H941 0.931 . S
C986 C985 1.386 . S
C986 C987 1.363 . S
C987 C986 1.363 . S
C987 C988 1.385 1_655 S
C988 H942 0.930 . S
C988 C987 1.385 1_455 S
C988 C989 1.396 . S
C989 H943 0.929 . S
C989 C984 1.326 1_455 S
C989 C988 1.396 . S
C990 O944 1.300 . S
C990 O945 1.209 . S
C990 C963 1.486 . S
C991 O946 1.199 1_455 S
C991 O947 1.297 . S
C991 C975 1.476 . S
H992 O1018 0.856 . S
H993 O1021 0.854 . S
H994 C1029 0.930 . S
H995 C1030 0.930 . S
H996 C1032 0.930 . S
H997 C1033 0.930 . S
H998 C1035 0.931 . S
H999 C1036 0.930 . S
H1000 C1038 0.930 . S
H1001 C1039 0.929 . S
H1002 C1041 0.930 . S
H1003 C1042 0.931 . S
H1004 C1044 0.930 . S
H1005 C1045 0.929 . S
H1006 C1047 0.931 . S
H1007 C1048 0.930 . S
H1008 C1050 0.930 . S
H1009 C1051 0.932 . S
H1010 C1053 0.930 . S
H1011 C1054 0.929 . S
H1012 C1056 0.931 . S
H1013 C1057 0.930 . S
H1014 C1059 0.929 . S
H1015 C1060 0.931 . S
H1016 C1062 0.930 . S
H1017 C1063 0.929 . S
O1018 H992 0.856 . S
O1018 C1064 1.300 . S
O1019 C1064 1.209 . S
O1020 C1065 1.199 . S
O1021 H993 0.854 . S
O1021 C1065 1.297 . S
C1022 C1023 1.404 . S
C1022 C1027 1.397 . S
C1022 C1028 1.492 . S
C1023 C1022 1.404 . S
C1023 C1024 1.396 . S
C1023 C1034 1.492 . S
C1024 C1023 1.396 . S
C1024 C1025 1.397 . S
C1024 C1040 1.509 . S
C1025 C1024 1.397 . S
C1025 C1026 1.412 . S
C1025 C1046 1.485 . S
C1026 C1025 1.412 . S
C1026 C1027 1.388 . S
C1026 C1052 1.490 . S
C1027 C1022 1.397 . S
C1027 C1026 1.388 . S
C1027 C1058 1.519 . S
C1028 C1022 1.492 . S
C1028 C1029 1.363 . S
C1028 C1033 1.390 . S
C1029 H994 0.930 . S
C1029 C1028 1.363 . S
C1029 C1030 1.372 . S
C1030 H995 0.930 . S
C1030 C1029 1.372 . S
C1030 C1031 1.383 . S
C1031 C1030 1.383 . S
C1031 C1032 1.395 . S
C1032 H996 0.930 . S
C1032 C1031 1.395 . S
C1032 C1033 1.362 . S
C1033 H997 0.930 . S
C1033 C1028 1.390 . S
C1033 C1032 1.362 . S
C1034 C1023 1.492 . S
C1034 C1035 1.377 . S
C1034 C1039 1.397 . S
C1035 H998 0.931 . S
C1035 C1034 1.377 . S
C1035 C1036 1.376 . S
C1036 H999 0.930 . S
C1036 C1035 1.376 . S
C1036 C1037 1.376 . S
C1037 C1036 1.376 . S
C1037 C1038 1.378 . S
C1037 C1064 1.486 . S
C1038 H1000 0.930 . S
C1038 C1037 1.378 . S
C1038 C1039 1.376 . S
C1039 H1001 0.929 . S
C1039 C1034 1.397 . S
C1039 C1038 1.376 . S
C1040 C1024 1.509 . S
C1040 C1041 1.391 . S
C1040 C1045 1.386 . S
C1041 H1002 0.930 . S
C1041 C1040 1.391 . S
C1041 C1042 1.375 . S
C1042 H1003 0.931 . S
C1042 C1041 1.375 . S
C1042 C1043 1.375 . S
C1043 C1042 1.375 . S
C1043 C1044 1.361 . S
C1044 H1004 0.930 . S
C1044 C1043 1.361 . S
C1044 C1045 1.399 . S
C1045 H1005 0.929 . S
C1045 C1040 1.386 . S
C1045 C1044 1.399 . S
C1046 C1025 1.485 . S
C1046 C1047 1.394 . S
C1046 C1051 1.360 . S
C1047 H1006 0.931 . S
C1047 C1046 1.394 . S
C1047 C1048 1.372 . S
C1048 H1007 0.930 . S
C1048 C1047 1.372 . S
C1048 C1049 1.397 . S
C1049 C1048 1.397 . S
C1049 C1050 1.390 . S
C1049 C1065 1.476 . S
C1050 H1008 0.930 . S
C1050 C1049 1.390 . S
C1050 C1051 1.366 . S
C1051 H1009 0.932 . S
C1051 C1046 1.360 . S
C1051 C1050 1.366 . S
C1052 C1026 1.490 . S
C1052 C1053 1.380 . S
C1052 C1057 1.386 . S
C1053 H1010 0.930 . S
C1053 C1052 1.380 . S
C1053 C1054 1.381 . S
C1054 H1011 0.929 . S
C1054 C1053 1.381 . S
C1054 C1055 1.371 . S
C1055 C1054 1.371 . S
C1055 C1056 1.380 . S
C1056 H1012 0.931 . S
C1056 C1055 1.380 . S
C1056 C1057 1.387 . S
C1057 H1013 0.930 . S
C1057 C1052 1.386 . S
C1057 C1056 1.387 . S
C1058 C1027 1.519 . S
C1058 C1059 1.377 . S
C1058 C1063 1.361 . S
C1059 H1014 0.929 . S
C1059 C1058 1.377 . S
C1059 C1060 1.386 . S
C1060 H1015 0.931 . S
C1060 C1059 1.386 . S
C1060 C1061 1.363 . S
C1061 C1060 1.363 . S
C1061 C1062 1.385 . S
C1062 H1016 0.930 . S
C1062 C1061 1.385 . S
C1062 C1063 1.396 . S
C1063 H1017 0.929 . S
C1063 C1058 1.361 . S
C1063 C1062 1.396 . S
C1064 O1018 1.300 . S
C1064 O1019 1.209 . S
C1064 C1037 1.486 . S
C1065 O1020 1.199 . S
C1065 O1021 1.297 . S
C1065 C1049 1.476 . S
H1066 O1092 0.856 . S
H1067 O1095 0.854 . S
H1068 C1103 0.930 . S
H1069 C1104 0.930 . S
H1070 C1106 0.930 . S
H1071 C1107 0.930 . S
H1072 C1109 0.931 . S
H1073 C1110 0.941 . S
H1074 C1112 0.930 . S
H1075 C1113 0.929 . S
H1076 C1115 0.930 . S
H1077 C1116 0.931 . S
H1078 C1118 0.930 . S
H1079 C1119 0.929 . S
H1080 C1121 0.931 . S
H1081 C1122 0.930 . S
H1082 C1124 0.930 . S
H1083 C1125 0.932 . S
H1084 C1127 0.930 . S
H1085 C1128 0.929 . S
H1086 C1130 0.931 . S
H1087 C1131 0.930 . S
H1088 C1133 0.929 . S
H1089 C1134 0.931 . S
H1090 C1136 0.930 . S
H1091 C1137 0.929 . S
O1092 H1066 0.856 . S
O1092 C1138 1.300 . S
O1093 C1138 1.209 . S
O1094 C1139 1.199 1_545 S
O1095 H1067 0.854 . S
O1095 C1139 1.297 . S
C1096 C1097 1.404 . S
C1096 C1101 1.414 . S
C1096 C1102 1.492 . S
C1097 C1096 1.404 . S
C1097 C1098 1.396 . S
C1097 C1108 1.492 . S
C1098 C1097 1.396 . S
C1098 C1099 1.397 . S
C1098 C1114 1.509 . S
C1099 C1098 1.397 . S
C1099 C1100 1.412 . S
C1099 C1120 1.485 . S
C1100 C1099 1.412 . S
C1100 C1101 1.364 . S
C1100 C1126 1.490 1_565 S
C1101 C1096 1.414 . S
C1101 C1100 1.364 . S
C1101 C1132 1.534 1_565 S
C1102 C1096 1.492 . S
C1102 C1103 1.363 1_565 S
C1102 C1107 1.390 . S
C1103 H1068 0.930 . S
C1103 C1102 1.363 1_545 S
C1103 C1104 1.372 . S
C1104 H1069 0.930 . S
C1104 C1103 1.372 . S
C1104 C1105 1.383 . S
C1105 C1104 1.383 . S
C1105 C1106 1.395 1_545 S
C1106 H1070 0.930 . S
C1106 C1105 1.395 1_565 S
C1106 C1107 1.362 . S
C1107 H1071 0.930 . S
C1107 C1102 1.390 . S
C1107 C1106 1.362 . S
C1108 C1097 1.492 . S
C1108 C1109 1.377 1_565 S
C1108 C1113 1.397 . S
C1109 H1072 0.931 . S
C1109 C1108 1.377 1_545 S
C1109 C1110 1.382 . S
C1110 H1073 0.941 . S
C1110 C1109 1.382 . S
C1110 C1111 1.359 1_545 S
C1111 C1110 1.359 1_565 S
C1111 C1112 1.378 . S
C1111 C1138 1.486 . S
C1112 H1074 0.930 . S
C1112 C1111 1.378 . S
C1112 C1113 1.376 . S
C1113 H1075 0.929 . S
C1113 C1108 1.397 . S
C1113 C1112 1.376 . S
C1114 C1098 1.509 . S
C1114 C1115 1.391 1_565 S
C1114 C1119 1.386 . S
C1115 H1076 0.930 . S
C1115 C1114 1.391 1_545 S
C1115 C1116 1.375 . S
C1116 H1077 0.931 . S
C1116 C1115 1.375 . S
C1116 C1117 1.375 1_545 S
C1117 C1116 1.375 1_565 S
C1117 C1118 1.361 . S
C1118 H1078 0.930 . S
C1118 C1117 1.361 . S
C1118 C1119 1.399 . S
C1119 H1079 0.929 . S
C1119 C1114 1.386 . S
C1119 C1118 1.399 . S
C1120 C1099 1.485 . S
C1120 C1121 1.394 1_565 S
C1120 C1125 1.360 . S
C1121 H1080 0.931 . S
C1121 C1120 1.394 1_545 S
C1121 C1122 1.372 . S
C1122 H1081 0.930 . S
C1122 C1121 1.372 . S
C1122 C1123 1.397 1_545 S
C1123 C1122 1.397 1_565 S
C1123 C1124 1.390 . S
C1123 C1139 1.476 . S
C1124 H1082 0.930 . S
C1124 C1123 1.390 . S
C1124 C1125 1.366 . S
C1125 H1083 0.932 . S
C1125 C1120 1.360 . S
C1125 C1124 1.366 . S
C1126 C1100 1.490 1_545 S
C1126 C1127 1.380 . S
C1126 C1131 1.386 1_545 S
C1127 H1084 0.930 . S
C1127 C1126 1.380 . S
C1127 C1128 1.381 . S
C1128 H1085 0.929 . S
C1128 C1127 1.381 . S
C1128 C1129 1.371 . S
C1129 C1128 1.371 . S
C1129 C1130 1.380 1_545 S
C1130 H1086 0.931 . S
C1130 C1129 1.380 1_565 S
C1130 C1131 1.387 . S
C1131 H1087 0.930 . S
C1131 C1126 1.386 1_565 S
C1131 C1130 1.387 . S
C1132 C1101 1.534 1_545 S
C1132 C1133 1.377 . S
C1132 C1137 1.360 1_545 S
C1133 H1088 0.929 . S
C1133 C1132 1.377 . S
C1133 C1134 1.386 . S
C1134 H1089 0.931 . S
C1134 C1133 1.386 . S
C1134 C1135 1.363 1_545 S
C1135 C1134 1.363 1_565 S
C1135 C1136 1.385 . S
C1136 H1090 0.930 . S
C1136 C1135 1.385 . S
C1136 C1137 1.396 . S
C1137 H1091 0.929 . S
C1137 C1132 1.360 1_565 S
C1137 C1136 1.396 . S
C1138 O1092 1.300 . S
C1138 O1093 1.209 . S
C1138 C1111 1.486 . S
C1139 O1094 1.199 1_565 S
C1139 O1095 1.297 . S
C1139 C1123 1.476 . S
H1140 O1166 0.856 . S
H1141 O1169 0.854 . S
H1142 C1177 0.930 . S
H1143 C1178 0.930 . S
H1144 C1180 0.930 . S
H1145 C1181 0.930 . S
H1146 C1183 0.931 . S
H1147 C1184 0.930 . S
H1148 C1186 0.930 . S
H1149 C1187 0.929 . S
H1150 C1189 0.930 . S
H1151 C1190 0.931 . S
H1152 C1192 0.930 . S
H1153 C1193 0.929 . S
H1154 C1195 0.931 . S
H1155 C1196 0.930 . S
H1156 C1198 0.930 . S
H1157 C1199 0.932 . S
H1158 C1201 0.930 . S
H1159 C1202 0.929 . S
H1160 C1204 0.931 . S
H1161 C1205 0.930 . S
H1162 C1207 0.929 . S
H1163 C1208 0.931 . S
H1164 C1210 0.930 . S
H1165 C1211 0.929 . S
O1166 H1140 0.856 . S
O1166 C1212 1.300 . S
O1167 C1212 1.209 1_565 S
O1168 C1213 1.199 1_545 S
O1169 H1141 0.854 . S
O1169 C1213 1.297 . S
C1170 C1171 1.404 . S
C1170 C1175 1.396 1_545 S
C1170 C1176 1.492 . S
C1171 C1170 1.404 . S
C1171 C1172 1.396 . S
C1171 C1182 1.492 . S
C1172 C1171 1.396 . S
C1172 C1173 1.392 1_545 S
C1172 C1188 1.509 . S
C1173 C1172 1.392 1_565 S
C1173 C1174 1.419 . S
C1173 C1194 1.496 . S
C1174 C1173 1.419 . S
C1174 C1175 1.367 . S
C1174 C1200 1.500 . S
C1175 C1170 1.396 1_565 S
C1175 C1174 1.367 . S
C1175 C1206 1.518 . S
C1176 C1170 1.492 . S
C1176 C1177 1.363 . S
C1176 C1181 1.390 1_545 S
C1177 H1142 0.930 . S
C1177 C1176 1.363 . S
C1177 C1178 1.372 . S
C1178 H1143 0.930 . S
C1178 C1177 1.372 . S
C1178 C1179 1.383 . S
C1179 C1178 1.383 . S
C1179 C1180 1.395 1_545 S
C1180 H1144 0.930 . S
C1180 C1179 1.395 1_565 S
C1180 C1181 1.362 . S
C1181 H1145 0.930 . S
C1181 C1176 1.390 1_565 S
C1181 C1180 1.362 . S
C1182 C1171 1.492 . S
C1182 C1183 1.377 . S
C1182 C1187 1.397 1_545 S
C1183 H1146 0.931 . S
C1183 C1182 1.377 . S
C1183 C1184 1.376 . S
C1184 H1147 0.930 . S
C1184 C1183 1.376 . S
C1184 C1185 1.376 . S
C1185 C1184 1.376 . S
C1185 C1186 1.378 1_545 S
C1185 C1212 1.486 . S
C1186 H1148 0.930 . S
C1186 C1185 1.378 1_565 S
C1186 C1187 1.376 . S
C1187 H1149 0.929 . S
C1187 C1182 1.397 1_565 S
C1187 C1186 1.376 . S
C1188 C1172 1.509 . S
C1188 C1189 1.391 . S
C1188 C1193 1.386 1_545 S
C1189 H1150 0.930 . S
C1189 C1188 1.391 . S
C1189 C1190 1.375 . S
C1190 H1151 0.931 . S
C1190 C1189 1.375 . S
C1190 C1191 1.375 . S
C1191 C1190 1.375 . S
C1191 C1192 1.361 1_545 S
C1192 H1152 0.930 . S
C1192 C1191 1.361 1_565 S
C1192 C1193 1.399 . S
C1193 H1153 0.929 . S
C1193 C1188 1.386 1_565 S
C1193 C1192 1.399 . S
C1194 C1173 1.496 . S
C1194 C1195 1.394 1_565 S
C1194 C1199 1.360 . S
C1195 H1154 0.931 . S
C1195 C1194 1.394 1_545 S
C1195 C1196 1.372 . S
C1196 H1155 0.930 . S
C1196 C1195 1.372 . S
C1196 C1197 1.397 1_545 S
C1197 C1196 1.397 1_565 S
C1197 C1198 1.390 . S
C1197 C1213 1.476 . S
C1198 H1156 0.930 . S
C1198 C1197 1.390 . S
C1198 C1199 1.366 . S
C1199 H1157 0.932 . S
C1199 C1194 1.360 . S
C1199 C1198 1.366 . S
C1200 C1174 1.500 . S
C1200 C1201 1.380 1_565 S
C1200 C1205 1.386 . S
C1201 H1158 0.930 . S
C1201 C1200 1.380 1_545 S
C1201 C1202 1.381 . S
C1202 H1159 0.929 . S
C1202 C1201 1.381 . S
C1202 C1203 1.375 1_545 S
C1203 C1202 1.375 1_565 S
C1203 C1204 1.377 . S
C1204 H1160 0.931 . S
C1204 C1203 1.377 . S
C1204 C1205 1.387 . S
C1205 H1161 0.930 . S
C1205 C1200 1.386 . S
C1205 C1204 1.387 . S
C1206 C1175 1.518 . S
C1206 C1207 1.377 1_565 S
C1206 C1211 1.361 . S
C1207 H1162 0.929 . S
C1207 C1206 1.377 1_545 S
C1207 C1208 1.386 . S
C1208 H1163 0.931 . S
C1208 C1207 1.386 . S
C1208 C1209 1.363 1_545 S
C1209 C1208 1.363 1_565 S
C1209 C1210 1.385 . S
C1210 H1164 0.930 . S
C1210 C1209 1.385 . S
C1210 C1211 1.396 . S
C1211 H1165 0.929 . S
C1211 C1206 1.361 . S
C1211 C1210 1.396 . S
C1212 O1166 1.300 . S
C1212 O1167 1.209 1_545 S
C1212 C1185 1.486 . S
C1213 O1168 1.199 1_565 S
C1213 O1169 1.297 . S
C1213 C1197 1.476 . S
H1214 O1240 0.856 . S
H1215 O1243 0.854 . S
H1216 C1251 0.930 . S
H1217 C1252 0.930 . S
H1218 C1254 0.930 . S
H1219 C1255 0.930 . S
H1220 C1257 0.931 . S
H1221 C1258 0.930 . S
H1222 C1260 0.930 . S
H1223 C1261 0.929 . S
H1224 C1263 0.930 . S
H1225 C1264 0.931 . S
H1226 C1266 0.930 . S
H1227 C1267 0.929 . S
H1228 C1269 0.931 . S
H1229 C1270 0.930 . S
H1230 C1272 0.930 . S
H1231 C1273 0.932 . S
H1232 C1275 0.930 . S
H1233 C1276 0.929 . S
H1234 C1278 0.931 . S
H1235 C1279 0.930 . S
H1236 C1281 0.929 . S
H1237 C1282 0.931 . S
H1238 C1284 0.930 . S
H1239 C1285 0.929 . S
O1240 H1214 0.856 . S
O1240 C1286 1.300 . S
O1241 C1286 1.209 1_455 S
O1242 C1287 1.199 1_655 S
O1243 H1215 0.854 . S
O1243 C1287 1.297 . S
C1244 C1245 1.404 . S
C1244 C1249 1.396 1_655 S
C1244 C1250 1.492 . S
C1245 C1244 1.404 . S
C1245 C1246 1.396 . S
C1245 C1256 1.492 . S
C1246 C1245 1.396 . S
C1246 C1247 1.396 . S
C1246 C1262 1.509 . S
C1247 C1246 1.396 . S
C1247 C1248 1.392 1_655 S
C1247 C1268 1.493 1_655 S
C1248 C1247 1.392 1_455 S
C1248 C1249 1.412 . S
C1248 C1274 1.485 . S
C1249 C1244 1.396 1_455 S
C1249 C1248 1.412 . S
C1249 C1280 1.516 . S
C1250 C1244 1.492 . S
C1250 C1251 1.363 . S
C1250 C1255 1.390 1_655 S
C1251 H1216 0.930 . S
C1251 C1250 1.363 . S
C1251 C1252 1.372 . S
C1252 H1217 0.930 . S
C1252 C1251 1.372 . S
C1252 C1253 1.383 . S
C1253 C1252 1.383 . S
C1253 C1254 1.395 1_655 S
C1254 H1218 0.930 . S
C1254 C1253 1.395 1_455 S
C1254 C1255 1.362 . S
C1255 H1219 0.930 . S
C1255 C1250 1.390 1_455 S
C1255 C1254 1.362 . S
C1256 C1245 1.492 . S
C1256 C1257 1.377 . S
C1256 C1261 1.397 1_655 S
C1257 H1220 0.931 . S
C1257 C1256 1.377 . S
C1257 C1258 1.376 . S
C1258 H1221 0.930 . S
C1258 C1257 1.376 . S
C1258 C1259 1.376 . S
C1259 C1258 1.376 . S
C1259 C1260 1.378 1_655 S
C1259 C1286 1.486 . S
C1260 H1222 0.930 . S
C1260 C1259 1.378 1_455 S
C1260 C1261 1.376 . S
C1261 H1223 0.929 . S
C1261 C1256 1.397 1_455 S
C1261 C1260 1.376 . S
C1262 C1246 1.509 . S
C1262 C1263 1.391 . S
C1262 C1267 1.386 1_655 S
C1263 H1224 0.930 . S
C1263 C1262 1.391 . S
C1263 C1264 1.375 . S
C1264 H1225 0.931 . S
C1264 C1263 1.375 . S
C1264 C1265 1.375 . S
C1265 C1264 1.375 . S
C1265 C1266 1.361 1_655 S
C1266 H1226 0.930 . S
C1266 C1265 1.361 1_455 S
C1266 C1267 1.399 . S
C1267 H1227 0.929 . S
C1267 C1262 1.386 1_455 S
C1267 C1266 1.399 . S
C1268 C1247 1.493 1_455 S
C1268 C1269 1.394 1_455 S
C1268 C1273 1.360 . S
C1269 H1228 0.931 . S
C1269 C1268 1.394 1_655 S
C1269 C1270 1.372 . S
C1270 H1229 0.930 . S
C1270 C1269 1.372 . S
C1270 C1271 1.397 1_655 S
C1271 C1270 1.397 1_455 S
C1271 C1272 1.390 . S
C1271 C1287 1.476 . S
C1272 H1230 0.930 . S
C1272 C1271 1.390 . S
C1272 C1273 1.366 . S
C1273 H1231 0.932 . S
C1273 C1268 1.360 . S
C1273 C1272 1.366 . S
C1274 C1248 1.485 . S
C1274 C1275 1.380 1_455 S
C1274 C1279 1.386 . S
C1275 H1232 0.930 . S
C1275 C1274 1.380 1_655 S
C1275 C1276 1.381 . S
C1276 H1233 0.929 . S
C1276 C1275 1.381 . S
C1276 C1277 1.371 1_655 S
C1277 C1276 1.371 1_455 S
C1277 C1278 1.380 . S
C1278 H1234 0.931 . S
C1278 C1277 1.380 . S
C1278 C1279 1.387 . S
C1279 H1235 0.930 . S
C1279 C1274 1.386 . S
C1279 C1278 1.387 . S
C1280 C1249 1.516 . S
C1280 C1281 1.377 1_455 S
C1280 C1285 1.361 . S
C1281 H1236 0.929 . S
C1281 C1280 1.377 1_655 S
C1281 C1282 1.386 . S
C1282 H1237 0.931 . S
C1282 C1281 1.386 . S
C1282 C1283 1.363 1_655 S
C1283 C1282 1.363 1_455 S
C1283 C1284 1.385 . S
C1284 H1238 0.930 . S
C1284 C1283 1.385 . S
C1284 C1285 1.396 . S
C1285 H1239 0.929 . S
C1285 C1280 1.361 . S
C1285 C1284 1.396 . S
C1286 O1240 1.300 . S
C1286 O1241 1.209 1_655 S
C1286 C1259 1.486 . S
C1287 O1242 1.199 1_455 S
C1287 O1243 1.297 . S
C1287 C1271 1.476 . S
H1288 O1314 0.856 . S
H1289 O1317 0.854 . S
H1290 C1325 0.930 . S
H1291 C1326 0.930 . S
H1292 C1328 0.930 . S
H1293 C1329 0.930 . S
H1294 C1331 0.931 . S
H1295 C1332 0.930 . S
H1296 C1334 0.930 . S
H1297 C1335 0.929 . S
H1298 C1337 0.930 . S
H1299 C1338 0.931 . S
H1300 C1340 0.930 . S
H1301 C1341 0.929 . S
H1302 C1343 0.931 . S
H1303 C1344 0.930 . S
H1304 C1346 0.930 . S
H1305 C1347 0.932 . S
H1306 C1349 0.930 . S
H1307 C1350 0.929 . S
H1308 C1352 0.931 . S
H1309 C1353 0.930 . S
H1310 C1355 0.929 . S
H1311 C1356 0.931 . S
H1312 C1358 0.930 . S
H1313 C1359 0.929 . S
O1314 H1288 0.856 . S
O1314 C1360 1.300 . S
O1315 C1360 1.209 . S
O1316 C1361 1.199 . S
O1317 H1289 0.854 . S
O1317 C1361 1.297 . S
C1318 C1319 1.404 . S
C1318 C1323 1.397 . S
C1318 C1324 1.492 . S
C1319 C1318 1.404 . S
C1319 C1320 1.396 . S
C1319 C1330 1.492 . S
C1320 C1319 1.396 . S
C1320 C1321 1.397 . S
C1320 C1336 1.509 . S
C1321 C1320 1.397 . S
C1321 C1322 1.412 . S
C1321 C1342 1.485 . S
C1322 C1321 1.412 . S
C1322 C1323 1.388 . S
C1322 C1348 1.490 . S
C1323 C1318 1.397 . S
C1323 C1322 1.388 . S
C1323 C1354 1.519 . S
C1324 C1318 1.492 . S
C1324 C1325 1.363 . S
C1324 C1329 1.390 . S
C1325 H1290 0.930 . S
C1325 C1324 1.363 . S
C1325 C1326 1.372 . S
C1326 H1291 0.930 . S
C1326 C1325 1.372 . S
C1326 C1327 1.383 . S
C1327 C1326 1.383 . S
C1327 C1328 1.395 . S
C1328 H1292 0.930 . S
C1328 C1327 1.395 . S
C1328 C1329 1.362 . S
C1329 H1293 0.930 . S
C1329 C1324 1.390 . S
C1329 C1328 1.362 . S
C1330 C1319 1.492 . S
C1330 C1331 1.377 . S
C1330 C1335 1.397 . S
C1331 H1294 0.931 . S
C1331 C1330 1.377 . S
C1331 C1332 1.376 . S
C1332 H1295 0.930 . S
C1332 C1331 1.376 . S
C1332 C1333 1.376 . S
C1333 C1332 1.376 . S
C1333 C1334 1.378 . S
C1333 C1360 1.486 . S
C1334 H1296 0.930 . S
C1334 C1333 1.378 . S
C1334 C1335 1.376 . S
C1335 H1297 0.929 . S
C1335 C1330 1.397 . S
C1335 C1334 1.376 . S
C1336 C1320 1.509 . S
C1336 C1337 1.391 . S
C1336 C1341 1.386 . S
C1337 H1298 0.930 . S
C1337 C1336 1.391 . S
C1337 C1338 1.375 . S
C1338 H1299 0.931 . S
C1338 C1337 1.375 . S
C1338 C1339 1.375 . S
C1339 C1338 1.375 . S
C1339 C1340 1.361 . S
C1340 H1300 0.930 . S
C1340 C1339 1.361 . S
C1340 C1341 1.399 . S
C1341 H1301 0.929 . S
C1341 C1336 1.386 . S
C1341 C1340 1.399 . S
C1342 C1321 1.485 . S
C1342 C1343 1.394 . S
C1342 C1347 1.360 . S
C1343 H1302 0.931 . S
C1343 C1342 1.394 . S
C1343 C1344 1.372 . S
C1344 H1303 0.930 . S
C1344 C1343 1.372 . S
C1344 C1345 1.397 . S
C1345 C1344 1.397 . S
C1345 C1346 1.390 . S
C1345 C1361 1.476 . S
C1346 H1304 0.930 . S
C1346 C1345 1.390 . S
C1346 C1347 1.366 . S
C1347 H1305 0.932 . S
C1347 C1342 1.360 . S
C1347 C1346 1.366 . S
C1348 C1322 1.490 . S
C1348 C1349 1.380 . S
C1348 C1353 1.386 . S
C1349 H1306 0.930 . S
C1349 C1348 1.380 . S
C1349 C1350 1.381 . S
C1350 H1307 0.929 . S
C1350 C1349 1.381 . S
C1350 C1351 1.371 . S
C1351 C1350 1.371 . S
C1351 C1352 1.380 . S
C1352 H1308 0.931 . S
C1352 C1351 1.380 . S
C1352 C1353 1.387 . S
C1353 H1309 0.930 . S
C1353 C1348 1.386 . S
C1353 C1352 1.387 . S
C1354 C1323 1.519 . S
C1354 C1355 1.377 . S
C1354 C1359 1.361 . S
C1355 H1310 0.929 . S
C1355 C1354 1.377 . S
C1355 C1356 1.386 . S
C1356 H1311 0.931 . S
C1356 C1355 1.386 . S
C1356 C1357 1.363 . S
C1357 C1356 1.363 . S
C1357 C1358 1.385 . S
C1358 H1312 0.930 . S
C1358 C1357 1.385 . S
C1358 C1359 1.396 . S
C1359 H1313 0.929 . S
C1359 C1354 1.361 . S
C1359 C1358 1.396 . S
C1360 O1314 1.300 . S
C1360 O1315 1.209 . S
C1360 C1333 1.486 . S
C1361 O1316 1.199 . S
C1361 O1317 1.297 . S
C1361 C1345 1.476 . S
H1362 O1388 0.856 . S
H1363 O1391 0.854 . S
H1364 C1399 0.930 . S
H1365 C1400 0.930 . S
H1366 C1402 0.930 . S
H1367 C1403 0.930 . S
H1368 C1405 0.931 . S
H1369 C1406 0.930 . S
H1370 C1408 0.930 . S
H1371 C1409 0.929 . S
H1372 C1411 0.930 . S
H1373 C1412 0.931 . S
H1374 C1414 0.930 . S
H1375 C1415 0.929 . S
H1376 C1417 0.931 . S
H1377 C1418 0.930 . S
H1378 C1420 0.930 . S
H1379 C1421 0.932 . S
H1380 C1423 0.930 . S
H1381 C1424 0.929 . S
H1382 C1426 0.931 . S
H1383 C1427 0.930 . S
H1384 C1429 0.929 . S
H1385 C1430 0.931 . S
H1386 C1432 0.930 . S
H1387 C1433 0.929 . S
O1388 H1362 0.856 . S
O1388 C1434 1.300 . S
O1389 C1434 1.209 . S
O1390 C1435 1.199 . S
O1391 H1363 0.854 . S
O1391 C1435 1.297 . S
C1392 C1393 1.404 . S
C1392 C1397 1.397 . S
C1392 C1398 1.492 . S
C1393 C1392 1.404 . S
C1393 C1394 1.396 . S
C1393 C1404 1.492 . S
C1394 C1393 1.396 . S
C1394 C1395 1.397 . S
C1394 C1410 1.509 . S
C1395 C1394 1.397 . S
C1395 C1396 1.412 . S
C1395 C1416 1.485 . S
C1396 C1395 1.412 . S
C1396 C1397 1.388 . S
C1396 C1422 1.490 . S
C1397 C1392 1.397 . S
C1397 C1396 1.388 . S
C1397 C1428 1.519 . S
C1398 C1392 1.492 . S
C1398 C1399 1.363 . S
C1398 C1403 1.390 . S
C1399 H1364 0.930 . S
C1399 C1398 1.363 . S
C1399 C1400 1.372 . S
C1400 H1365 0.930 . S
C1400 C1399 1.372 . S
C1400 C1401 1.383 . S
C1401 C1400 1.383 . S
C1401 C1402 1.395 . S
C1402 H1366 0.930 . S
C1402 C1401 1.395 . S
C1402 C1403 1.362 . S
C1403 H1367 0.930 . S
C1403 C1398 1.390 . S
C1403 C1402 1.362 . S
C1404 C1393 1.492 . S
C1404 C1405 1.377 . S
C1404 C1409 1.397 . S
C1405 H1368 0.931 . S
C1405 C1404 1.377 . S
C1405 C1406 1.376 . S
C1406 H1369 0.930 . S
C1406 C1405 1.376 . S
C1406 C1407 1.376 . S
C1407 C1406 1.376 . S
C1407 C1408 1.378 . S
C1407 C1434 1.486 . S
C1408 H1370 0.930 . S
C1408 C1407 1.378 . S
C1408 C1409 1.376 . S
C1409 H1371 0.929 . S
C1409 C1404 1.397 . S
C1409 C1408 1.376 . S
C1410 C1394 1.509 . S
C1410 C1411 1.391 . S
C1410 C1415 1.386 . S
C1411 H1372 0.930 . S
C1411 C1410 1.391 . S
C1411 C1412 1.375 . S
C1412 H1373 0.931 . S
C1412 C1411 1.375 . S
C1412 C1413 1.375 . S
C1413 C1412 1.375 . S
C1413 C1414 1.361 . S
C1414 H1374 0.930 . S
C1414 C1413 1.361 . S
C1414 C1415 1.399 . S
C1415 H1375 0.929 . S
C1415 C1410 1.386 . S
C1415 C1414 1.399 . S
C1416 C1395 1.485 . S
C1416 C1417 1.394 . S
C1416 C1421 1.360 . S
C1417 H1376 0.931 . S
C1417 C1416 1.394 . S
C1417 C1418 1.372 . S
C1418 H1377 0.930 . S
C1418 C1417 1.372 . S
C1418 C1419 1.397 . S
C1419 C1418 1.397 . S
C1419 C1420 1.390 . S
C1419 C1435 1.476 . S
C1420 H1378 0.930 . S
C1420 C1419 1.390 . S
C1420 C1421 1.366 . S
C1421 H1379 0.932 . S
C1421 C1416 1.360 . S
C1421 C1420 1.366 . S
C1422 C1396 1.490 . S
C1422 C1423 1.380 . S
C1422 C1427 1.386 . S
C1423 H1380 0.930 . S
C1423 C1422 1.380 . S
C1423 C1424 1.381 . S
C1424 H1381 0.929 . S
C1424 C1423 1.381 . S
C1424 C1425 1.371 . S
C1425 C1424 1.371 . S
C1425 C1426 1.380 . S
C1426 H1382 0.931 . S
C1426 C1425 1.380 . S
C1426 C1427 1.387 . S
C1427 H1383 0.930 . S
C1427 C1422 1.386 . S
C1427 C1426 1.387 . S
C1428 C1397 1.519 . S
C1428 C1429 1.377 . S
C1428 C1433 1.361 . S
C1429 H1384 0.929 . S
C1429 C1428 1.377 . S
C1429 C1430 1.386 . S
C1430 H1385 0.931 . S
C1430 C1429 1.386 . S
C1430 C1431 1.363 . S
C1431 C1430 1.363 . S
C1431 C1432 1.385 . S
C1432 H1386 0.930 . S
C1432 C1431 1.385 . S
C1432 C1433 1.396 . S
C1433 H1387 0.929 . S
C1433 C1428 1.361 . S
C1433 C1432 1.396 . S
C1434 O1388 1.300 . S
C1434 O1389 1.209 . S
C1434 C1407 1.486 . S
C1435 O1390 1.199 . S
C1435 O1391 1.297 . S
C1435 C1419 1.476 . S
H1436 O1462 0.856 . S
H1437 O1465 0.854 . S
H1438 C1473 0.930 . S
H1439 C1474 0.930 . S
H1440 C1476 0.930 . S
H1441 C1477 0.930 . S
H1442 C1479 0.931 . S
H1443 C1480 0.930 . S
H1444 C1482 0.930 . S
H1445 C1483 0.929 . S
H1446 C1485 0.930 . S
H1447 C1486 0.931 . S
H1448 C1488 0.930 . S
H1449 C1489 0.929 . S
H1450 C1491 0.931 . S
H1451 C1492 0.930 . S
H1452 C1494 0.930 . S
H1453 C1495 0.932 . S
H1454 C1497 0.930 . S
H1455 C1498 0.929 . S
H1456 C1500 0.931 . S
H1457 C1501 0.930 . S
H1458 C1503 0.929 . S
H1459 C1504 0.931 . S
H1460 C1506 0.930 . S
H1461 C1507 0.929 . S
O1462 H1436 0.856 . S
O1462 C1508 1.300 . S
O1463 C1508 1.209 . S
O1464 C1509 1.199 . S
O1465 H1437 0.854 . S
O1465 C1509 1.297 . S
C1466 C1467 1.404 . S
C1466 C1471 1.397 . S
C1466 C1472 1.492 . S
C1467 C1466 1.404 . S
C1467 C1468 1.396 . S
C1467 C1478 1.492 . S
C1468 C1467 1.396 . S
C1468 C1469 1.397 . S
C1468 C1484 1.509 . S
C1469 C1468 1.397 . S
C1469 C1470 1.412 . S
C1469 C1490 1.485 . S
C1470 C1469 1.412 . S
C1470 C1471 1.388 . S
C1470 C1496 1.490 . S
C1471 C1466 1.397 . S
C1471 C1470 1.388 . S
C1471 C1502 1.519 . S
C1472 C1466 1.492 . S
C1472 C1473 1.363 . S
C1472 C1477 1.390 . S
C1473 H1438 0.930 . S
C1473 C1472 1.363 . S
C1473 C1474 1.372 . S
C1474 H1439 0.930 . S
C1474 C1473 1.372 . S
C1474 C1475 1.383 . S
C1475 C1474 1.383 . S
C1475 C1476 1.395 . S
C1476 H1440 0.930 . S
C1476 C1475 1.395 . S
C1476 C1477 1.362 . S
C1477 H1441 0.930 . S
C1477 C1472 1.390 . S
C1477 C1476 1.362 . S
C1478 C1467 1.492 . S
C1478 C1479 1.377 . S
C1478 C1483 1.397 . S
C1479 H1442 0.931 . S
C1479 C1478 1.377 . S
C1479 C1480 1.376 . S
C1480 H1443 0.930 . S
C1480 C1479 1.376 . S
C1480 C1481 1.376 . S
C1481 C1480 1.376 . S
C1481 C1482 1.378 . S
C1481 C1508 1.486 . S
C1482 H1444 0.930 . S
C1482 C1481 1.378 . S
C1482 C1483 1.376 . S
C1483 H1445 0.929 . S
C1483 C1478 1.397 . S
C1483 C1482 1.376 . S
C1484 C1468 1.509 . S
C1484 C1485 1.391 . S
C1484 C1489 1.386 . S
C1485 H1446 0.930 . S
C1485 C1484 1.391 . S
C1485 C1486 1.375 . S
C1486 H1447 0.931 . S
C1486 C1485 1.375 . S
C1486 C1487 1.375 . S
C1487 C1486 1.375 . S
C1487 C1488 1.361 . S
C1488 H1448 0.930 . S
C1488 C1487 1.361 . S
C1488 C1489 1.399 . S
C1489 H1449 0.929 . S
C1489 C1484 1.386 . S
C1489 C1488 1.399 . S
C1490 C1469 1.485 . S
C1490 C1491 1.394 . S
C1490 C1495 1.360 . S
C1491 H1450 0.931 . S
C1491 C1490 1.394 . S
C1491 C1492 1.372 . S
C1492 H1451 0.930 . S
C1492 C1491 1.372 . S
C1492 C1493 1.397 . S
C1493 C1492 1.397 . S
C1493 C1494 1.390 . S
C1493 C1509 1.476 . S
C1494 H1452 0.930 . S
C1494 C1493 1.390 . S
C1494 C1495 1.366 . S
C1495 H1453 0.932 . S
C1495 C1490 1.360 . S
C1495 C1494 1.366 . S
C1496 C1470 1.490 . S
C1496 C1497 1.380 . S
C1496 C1501 1.386 . S
C1497 H1454 0.930 . S
C1497 C1496 1.380 . S
C1497 C1498 1.381 . S
C1498 H1455 0.929 . S
C1498 C1497 1.381 . S
C1498 C1499 1.371 . S
C1499 C1498 1.371 . S
C1499 C1500 1.380 . S
C1500 H1456 0.931 . S
C1500 C1499 1.380 . S
C1500 C1501 1.387 . S
C1501 H1457 0.930 . S
C1501 C1496 1.386 . S
C1501 C1500 1.387 . S
C1502 C1471 1.519 . S
C1502 C1503 1.377 . S
C1502 C1507 1.361 . S
C1503 H1458 0.929 . S
C1503 C1502 1.377 . S
C1503 C1504 1.386 . S
C1504 H1459 0.931 . S
C1504 C1503 1.386 . S
C1504 C1505 1.363 . S
C1505 C1504 1.363 . S
C1505 C1506 1.385 . S
C1506 H1460 0.930 . S
C1506 C1505 1.385 . S
C1506 C1507 1.396 . S
C1507 H1461 0.929 . S
C1507 C1502 1.361 . S
C1507 C1506 1.396 . S
C1508 O1462 1.300 . S
C1508 O1463 1.209 . S
C1508 C1481 1.486 . S
C1509 O1464 1.199 . S
C1509 O1465 1.297 . S
C1509 C1493 1.476 . S
H1510 O1536 0.856 . S
H1511 O1539 0.854 . S
H1512 C1547 0.930 . S
H1513 C1548 0.930 . S
H1514 C1550 0.930 . S
H1515 C1551 0.930 . S
H1516 C1553 0.931 . S
H1517 C1554 0.930 . S
H1518 C1556 0.930 . S
H1519 C1557 0.929 . S
H1520 C1559 0.930 . S
H1521 C1560 0.931 . S
H1522 C1562 0.930 . S
H1523 C1563 0.929 . S
H1524 C1565 0.931 . S
H1525 C1566 0.930 . S
H1526 C1568 0.930 . S
H1527 C1569 0.932 . S
H1528 C1571 0.930 . S
H1529 C1572 0.929 . S
H1530 C1574 0.931 . S
H1531 C1575 0.930 . S
H1532 C1577 0.929 . S
H1533 C1578 0.931 . S
H1534 C1580 0.930 . S
H1535 C1581 0.929 . S
O1536 H1510 0.856 . S
O1536 C1582 1.300 . S
O1537 C1582 1.209 . S
O1538 C1583 1.199 . S
O1539 H1511 0.854 . S
O1539 C1583 1.297 . S
C1540 C1541 1.404 . S
C1540 C1545 1.397 . S
C1540 C1546 1.492 . S
C1541 C1540 1.404 . S
C1541 C1542 1.396 . S
C1541 C1552 1.492 . S
C1542 C1541 1.396 . S
C1542 C1543 1.397 . S
C1542 C1558 1.509 . S
C1543 C1542 1.397 . S
C1543 C1544 1.412 . S
C1543 C1564 1.485 . S
C1544 C1543 1.412 . S
C1544 C1545 1.388 . S
C1544 C1570 1.490 . S
C1545 C1540 1.397 . S
C1545 C1544 1.388 . S
C1545 C1576 1.519 . S
C1546 C1540 1.492 . S
C1546 C1547 1.363 . S
C1546 C1551 1.390 . S
C1547 H1512 0.930 . S
C1547 C1546 1.363 . S
C1547 C1548 1.372 . S
C1548 H1513 0.930 . S
C1548 C1547 1.372 . S
C1548 C1549 1.383 . S
C1549 C1548 1.383 . S
C1549 C1550 1.395 . S
C1550 H1514 0.930 . S
C1550 C1549 1.395 . S
C1550 C1551 1.362 . S
C1551 H1515 0.930 . S
C1551 C1546 1.390 . S
C1551 C1550 1.362 . S
C1552 C1541 1.492 . S
C1552 C1553 1.377 . S
C1552 C1557 1.397 . S
C1553 H1516 0.931 . S
C1553 C1552 1.377 . S
C1553 C1554 1.376 . S
C1554 H1517 0.930 . S
C1554 C1553 1.376 . S
C1554 C1555 1.376 . S
C1555 C1554 1.376 . S
C1555 C1556 1.378 . S
C1555 C1582 1.486 . S
C1556 H1518 0.930 . S
C1556 C1555 1.378 . S
C1556 C1557 1.376 . S
C1557 H1519 0.929 . S
C1557 C1552 1.397 . S
C1557 C1556 1.376 . S
C1558 C1542 1.509 . S
C1558 C1559 1.391 . S
C1558 C1563 1.386 . S
C1559 H1520 0.930 . S
C1559 C1558 1.391 . S
C1559 C1560 1.375 . S
C1560 H1521 0.931 . S
C1560 C1559 1.375 . S
C1560 C1561 1.375 . S
C1561 C1560 1.375 . S
C1561 C1562 1.361 . S
C1562 H1522 0.930 . S
C1562 C1561 1.361 . S
C1562 C1563 1.399 . S
C1563 H1523 0.929 . S
C1563 C1558 1.386 . S
C1563 C1562 1.399 . S
C1564 C1543 1.485 . S
C1564 C1565 1.394 . S
C1564 C1569 1.360 . S
C1565 H1524 0.931 . S
C1565 C1564 1.394 . S
C1565 C1566 1.372 . S
C1566 H1525 0.930 . S
C1566 C1565 1.372 . S
C1566 C1567 1.397 . S
C1567 C1566 1.397 . S
C1567 C1568 1.390 . S
C1567 C1583 1.476 . S
C1568 H1526 0.930 . S
C1568 C1567 1.390 . S
C1568 C1569 1.366 . S
C1569 H1527 0.932 . S
C1569 C1564 1.360 . S
C1569 C1568 1.366 . S
C1570 C1544 1.490 . S
C1570 C1571 1.380 . S
C1570 C1575 1.386 . S
C1571 H1528 0.930 . S
C1571 C1570 1.380 . S
C1571 C1572 1.381 . S
C1572 H1529 0.929 . S
C1572 C1571 1.381 . S
C1572 C1573 1.371 . S
C1573 C1572 1.371 . S
C1573 C1574 1.380 . S
C1574 H1530 0.931 . S
C1574 C1573 1.380 . S
C1574 C1575 1.387 . S
C1575 H1531 0.930 . S
C1575 C1570 1.386 . S
C1575 C1574 1.387 . S
C1576 C1545 1.519 . S
C1576 C1577 1.377 . S
C1576 C1581 1.361 . S
C1577 H1532 0.929 . S
C1577 C1576 1.377 . S
C1577 C1578 1.386 . S
C1578 H1533 0.931 . S
C1578 C1577 1.386 . S
C1578 C1579 1.363 . S
C1579 C1578 1.363 . S
C1579 C1580 1.385 . S
C1580 H1534 0.930 . S
C1580 C1579 1.385 . S
C1580 C1581 1.396 . S
C1581 H1535 0.929 . S
C1581 C1576 1.361 . S
C1581 C1580 1.396 . S
C1582 O1536 1.300 . S
C1582 O1537 1.209 . S
C1582 C1555 1.486 . S
C1583 O1538 1.199 . S
C1583 O1539 1.297 . S
C1583 C1567 1.476 . S
C1584 C1585 1.401 1_455 S
C1584 H1588 0.978 . S
C1584 C1593 1.351 1_455 S
C1585 C1584 1.401 1_655 S
C1585 C1587 1.387 . S
H1586 C1593 0.950 . S
C1587 C1585 1.387 . S
C1587 C1589 1.390 . S
C1587 H1591 0.950 . S
H1588 C1584 0.978 . S
C1589 C1587 1.390 . S
C1589 C1590 1.387 . S
C1589 H1592 0.950 . S
C1590 C1589 1.387 . S
C1590 C1593 1.387 . S
H1591 C1587 0.950 . S
H1592 C1589 0.950 . S
C1593 C1584 1.351 1_655 S
C1593 H1586 0.950 . S
C1593 C1590 1.387 . S
C1594 C1595 1.387 . S
C1594 H1598 0.950 . S
C1594 C1603 1.390 . S
C1595 C1594 1.387 . S
C1595 C1597 1.387 . S
H1596 C1603 0.950 . S
C1597 C1595 1.387 . S
C1597 C1599 1.390 . S
C1597 H1601 0.950 . S
H1598 C1594 0.950 . S
C1599 C1597 1.390 . S
C1599 C1600 1.387 . S
C1599 H1602 0.950 . S
C1600 C1599 1.387 . S
C1600 C1603 1.387 . S
H1601 C1597 0.950 . S
H1602 C1599 0.950 . S
C1603 C1594 1.390 . S
C1603 H1596 0.950 . S
C1603 C1600 1.387 . S
C1604 C1605 1.387 . S
C1604 H1608 0.950 . S
C1604 C1613 1.390 . S
C1605 C1604 1.387 . S
C1605 C1607 1.387 1_545 S
H1606 C1613 0.950 . S
C1607 C1605 1.387 1_565 S
C1607 C1609 1.390 . S
C1607 H1611 0.950 . S
H1608 C1604 0.950 . S
C1609 C1607 1.390 . S
C1609 C1610 1.387 1_565 S
C1609 H1612 0.950 . S
C1610 C1609 1.387 1_545 S
C1610 C1613 1.387 . S
H1611 C1607 0.950 . S
H1612 C1609 0.950 . S
C1613 C1604 1.390 . S
C1613 H1606 0.950 . S
C1613 C1610 1.387 . S
C1614 C1615 1.387 1_545 S
C1614 H1618 0.950 . S
C1614 C1623 1.390 . S
C1615 C1614 1.387 1_565 S
C1615 C1617 1.387 . S
H1616 C1623 0.950 . S
C1617 C1615 1.387 . S
C1617 C1619 1.390 . S
C1617 H1621 0.950 . S
H1618 C1614 0.950 . S
C1619 C1617 1.390 . S
C1619 C1620 1.387 . S
C1619 H1622 0.950 . S
C1620 C1619 1.387 . S
C1620 C1623 1.387 1_565 S
H1621 C1617 0.950 . S
H1622 C1619 0.950 . S
C1623 C1614 1.390 . S
C1623 H1616 0.950 . S
C1623 C1620 1.387 1_545 S
C1624 C1625 1.387 . S
C1624 H1628 0.950 . S
C1624 C1633 1.390 . S
C1625 C1624 1.387 . S
C1625 C1627 1.387 . S
H1626 C1633 0.950 . S
C1627 C1625 1.387 . S
C1627 C1629 1.390 . S
C1627 H1631 0.950 . S
H1628 C1624 0.950 . S
C1629 C1627 1.390 . S
C1629 C1630 1.387 . S
C1629 H1632 0.950 . S
C1630 C1629 1.387 . S
C1630 C1633 1.387 . S
H1631 C1627 0.950 . S
H1632 C1629 0.950 . S
C1633 C1624 1.390 . S
C1633 H1626 0.950 . S
C1633 C1630 1.387 . S
C1634 C1635 1.387 . S
C1634 H1638 0.950 . S
C1634 C1643 1.390 1_554 S
C1635 C1634 1.387 . S
C1635 C1637 1.387 1_554 S
H1636 C1643 0.950 . S
C1637 C1635 1.387 1_556 S
C1637 C1639 1.390 . S
C1637 H1641 0.950 . S
H1638 C1634 0.950 . S
C1639 C1637 1.390 . S
C1639 C1640 1.387 . S
C1639 H1642 0.950 . S
C1640 C1639 1.387 . S
C1640 C1643 1.387 . S
H1641 C1637 0.950 . S
H1642 C1639 0.950 . S
C1643 C1634 1.390 1_556 S
C1643 H1636 0.950 . S
C1643 C1640 1.387 . S
C1644 C1645 1.387 1_554 S
C1644 H1648 0.950 . S
C1644 C1653 1.390 1_554 S
C1645 C1644 1.387 1_556 S
C1645 C1647 1.387 . S
H1646 C1653 0.942 1_554 S
C1647 C1645 1.387 . S
C1647 C1649 1.390 . S
C1647 H1651 0.950 . S
H1648 C1644 0.950 . S
C1649 C1647 1.390 . S
C1649 C1650 1.387 . S
C1649 H1652 0.950 . S
C1650 C1649 1.387 . S
C1650 C1653 1.387 . S
H1651 C1647 0.950 . S
H1652 C1649 0.950 . S
C1653 C1644 1.390 1_556 S
C1653 H1646 0.942 1_556 S
C1653 C1650 1.387 . S
C1654 C1655 1.387 . S
C1654 H1658 0.950 . S
C1654 C1663 1.390 . S
C1655 C1654 1.387 . S
C1655 C1657 1.387 . S
H1656 C1663 0.950 . S
C1657 C1655 1.387 . S
C1657 C1659 1.390 . S
C1657 H1661 0.950 . S
H1658 C1654 0.950 . S
C1659 C1657 1.390 . S
C1659 C1660 1.387 . S
C1659 H1662 0.950 . S
C1660 C1659 1.387 . S
C1660 C1663 1.387 . S
H1661 C1657 0.950 . S
H1662 C1659 0.950 . S
C1663 C1654 1.390 . S
C1663 H1656 0.950 . S
C1663 C1660 1.387 . S
C1664 C1665 1.387 . S
C1664 H1668 0.950 . S
C1664 C1673 1.390 . S
C1665 C1664 1.387 . S
C1665 C1667 1.387 1_565 S
H1666 C1673 0.950 . S
C1667 C1665 1.387 1_545 S
C1667 C1669 1.390 . S
C1667 H1671 0.950 . S
H1668 C1664 0.950 . S
C1669 C1667 1.390 . S
C1669 C1670 1.375 1_545 S
C1669 H1672 0.950 . S
C1670 C1669 1.375 1_565 S
C1670 C1673 1.415 . S
H1671 C1667 0.950 . S
H1672 C1669 0.950 . S
C1673 C1664 1.390 . S
C1673 H1666 0.950 . S
C1673 C1670 1.415 . S
C1674 C1675 1.387 . S
C1674 H1678 0.950 . S
C1674 C1683 1.390 . S
C1675 C1674 1.387 . S
C1675 C1677 1.387 1_545 S
H1676 C1683 0.950 . S
C1677 C1675 1.387 1_565 S
C1677 C1679 1.390 . S
C1677 H1681 0.950 . S
H1678 C1674 0.950 . S
C1679 C1677 1.390 . S
C1679 C1680 1.343 1_565 S
C1679 H1682 0.950 . S
C1680 C1679 1.343 1_545 S
C1680 C1683 1.430 . S
H1681 C1677 0.950 . S
H1682 C1679 0.950 . S
C1683 C1674 1.390 . S
C1683 H1676 0.950 . S
C1683 C1680 1.430 . S
C1684 C1685 1.387 1_455 S
C1684 H1688 0.950 . S
C1684 C1693 1.390 . S
C1685 C1684 1.387 1_655 S
C1685 C1687 1.387 . S
H1686 C1693 0.950 . S
C1687 C1685 1.387 . S
C1687 C1689 1.390 . S
C1687 H1691 0.950 . S
H1688 C1684 0.950 . S
C1689 C1687 1.390 . S
C1689 C1690 1.387 . S
C1689 H1692 0.950 . S
C1690 C1689 1.387 . S
C1690 C1693 1.387 1_655 S
H1691 C1687 0.950 . S
H1692 C1689 0.950 . S
C1693 C1684 1.390 . S
C1693 H1686 0.950 . S
C1693 C1690 1.387 1_455 S
C1694 C1695 1.387 . S
C1694 H1698 0.950 . S
C1694 C1703 1.390 . S
C1695 C1694 1.387 . S
C1695 C1697 1.387 . S
H1696 C1703 0.950 . S
C1697 C1695 1.387 . S
C1697 C1699 1.390 . S
C1697 H1701 0.950 . S
H1698 C1694 0.950 . S
C1699 C1697 1.390 . S
C1699 C1700 1.387 . S
C1699 H1702 0.950 . S
C1700 C1699 1.387 . S
C1700 C1703 1.387 . S
H1701 C1697 0.950 . S
H1702 C1699 0.950 . S
C1703 C1694 1.390 . S
C1703 H1696 0.950 . S
C1703 C1700 1.387 . S
C1704 C1705 1.387 . S
C1704 H1708 0.950 . S
C1704 C1713 1.390 . S
C1705 C1704 1.387 . S
C1705 C1707 1.387 . S
H1706 C1713 0.950 . S
C1707 C1705 1.387 . S
C1707 C1709 1.390 . S
C1707 H1711 0.950 . S
H1708 C1704 0.950 . S
C1709 C1707 1.390 . S
C1709 C1710 1.387 . S
C1709 H1712 0.950 . S
C1710 C1709 1.387 . S
C1710 C1713 1.387 . S
H1711 C1707 0.950 . S
H1712 C1709 0.950 . S
C1713 C1704 1.390 . S
C1713 H1706 0.950 . S
C1713 C1710 1.387 . S
C1714 C1715 1.387 . S
C1714 H1718 0.950 . S
C1714 C1723 1.390 . S
C1715 C1714 1.387 . S
C1715 C1717 1.387 . S
H1716 C1723 0.950 . S
C1717 C1715 1.387 . S
C1717 C1719 1.390 . S
C1717 H1721 0.950 . S
H1718 C1714 0.950 . S
C1719 C1717 1.390 . S
C1719 C1720 1.387 . S
C1719 H1722 0.950 . S
C1720 C1719 1.387 . S
C1720 C1723 1.387 . S
H1721 C1717 0.950 . S
H1722 C1719 0.950 . S
C1723 C1714 1.390 . S
C1723 H1716 0.950 . S
C1723 C1720 1.387 . S
C1724 C1725 1.387 . S
C1724 H1728 0.950 . S
C1724 C1733 1.390 . S
C1725 C1724 1.387 . S
C1725 C1727 1.387 . S
H1726 C1733 0.950 . S
C1727 C1725 1.387 . S
C1727 C1729 1.390 . S
C1727 H1731 0.950 . S
H1728 C1724 0.950 . S
C1729 C1727 1.390 . S
C1729 C1730 1.387 . S
C1729 H1732 0.950 . S
C1730 C1729 1.387 . S
C1730 C1733 1.387 . S
H1731 C1727 0.950 . S
H1732 C1729 0.950 . S
C1733 C1724 1.390 . S
C1733 H1726 0.950 . S
C1733 C1730 1.387 . S
C1734 C1735 1.387 . S
C1734 H1738 0.950 . S
C1734 C1743 1.390 . S
C1735 C1734 1.387 . S
C1735 C1737 1.387 . S
H1736 C1743 0.950 . S
C1737 C1735 1.387 . S
C1737 C1739 1.390 . S
C1737 H1741 0.950 . S
H1738 C1734 0.950 . S
C1739 C1737 1.390 . S
C1739 C1740 1.387 . S
C1739 H1742 0.950 . S
C1740 C1739 1.387 . S
C1740 C1743 1.387 . S
H1741 C1737 0.950 . S
H1742 C1739 0.950 . S
C1743 C1734 1.390 . S
C1743 H1736 0.950 . S
C1743 C1740 1.387 . S
C1744 C1745 1.387 . S
C1744 H1748 0.950 . S
C1744 C1753 1.390 . S
C1745 C1744 1.387 . S
C1745 C1747 1.387 . S
H1746 C1753 0.950 . S
C1747 C1745 1.387 . S
C1747 C1749 1.390 . S
C1747 H1751 0.950 . S
H1748 C1744 0.950 . S
C1749 C1747 1.390 . S
C1749 C1750 1.387 . S
C1749 H1752 0.950 . S
C1750 C1749 1.387 . S
C1750 C1753 1.387 . S
H1751 C1747 0.950 . S
H1752 C1749 0.950 . S
C1753 C1744 1.390 . S
C1753 H1746 0.950 . S
C1753 C1750 1.387 . S
C1754 C1755 1.387 . S
C1754 H1758 0.950 . S
C1754 C1763 1.390 . S
C1755 C1754 1.387 . S
C1755 C1757 1.387 . S
H1756 C1763 0.950 . S
C1757 C1755 1.387 . S
C1757 C1759 1.390 . S
C1757 H1761 0.950 . S
H1758 C1754 0.950 . S
C1759 C1757 1.390 . S
C1759 C1760 1.387 . S
C1759 H1762 0.950 . S
C1760 C1759 1.387 . S
C1760 C1763 1.387 . S
H1761 C1757 0.950 . S
H1762 C1759 0.950 . S
C1763 C1754 1.390 . S
C1763 H1756 0.950 . S
C1763 C1760 1.387 . S
C1764 C1765 1.387 . S
C1764 H1768 0.950 . S
C1764 C1773 1.390 . S
C1765 C1764 1.387 . S
C1765 C1767 1.387 . S
H1766 C1773 0.950 . S
C1767 C1765 1.387 . S
C1767 C1769 1.390 . S
C1767 H1771 0.950 . S
H1768 C1764 0.950 . S
C1769 C1767 1.390 . S
C1769 C1770 1.387 . S
C1769 H1772 0.950 . S
C1770 C1769 1.387 . S
C1770 C1773 1.387 . S
H1771 C1767 0.950 . S
H1772 C1769 0.950 . S
C1773 C1764 1.390 . S
C1773 H1766 0.950 . S
C1773 C1770 1.387 . S
C1774 C1775 1.387 . S
C1774 H1778 0.950 . S
C1774 C1783 1.390 . S
C1775 C1774 1.387 . S
C1775 C1777 1.387 . S
H1776 C1783 0.950 . S
C1777 C1775 1.387 . S
C1777 C1779 1.390 . S
C1777 H1781 0.950 . S
H1778 C1774 0.950 . S
C1779 C1777 1.390 . S
C1779 C1780 1.387 . S
C1779 H1782 0.950 . S
C1780 C1779 1.387 . S
C1780 C1783 1.387 . S
H1781 C1777 0.950 . S
H1782 C1779 0.950 . S
C1783 C1774 1.390 . S
C1783 H1776 0.950 . S
C1783 C1780 1.387 . S
C1784 C1785 1.387 . S
C1784 H1788 0.950 . S
C1784 C1793 1.390 . S
C1785 C1784 1.387 . S
C1785 C1787 1.387 . S
H1786 C1793 0.950 . S
C1787 C1785 1.387 . S
C1787 C1789 1.390 . S
C1787 H1791 0.950 . S
H1788 C1784 0.950 . S
C1789 C1787 1.390 . S
C1789 C1790 1.387 . S
C1789 H1792 0.950 . S
C1790 C1789 1.387 . S
C1790 C1793 1.387 . S
H1791 C1787 0.950 . S
H1792 C1789 0.950 . S
C1793 C1784 1.390 . S
C1793 H1786 0.950 . S
C1793 C1790 1.387 . S
C1794 C1795 1.387 . S
C1794 H1798 0.950 . S
C1794 C1803 1.390 . S
C1795 C1794 1.387 . S
C1795 C1797 1.387 . S
H1796 C1803 0.950 . S
C1797 C1795 1.387 . S
C1797 C1799 1.390 . S
C1797 H1801 0.950 . S
H1798 C1794 0.950 . S
C1799 C1797 1.390 . S
C1799 C1800 1.387 . S
C1799 H1802 0.950 . S
C1800 C1799 1.387 . S
C1800 C1803 1.387 . S
H1801 C1797 0.950 . S
H1802 C1799 0.950 . S
C1803 C1794 1.390 . S
C1803 H1796 0.950 . S
C1803 C1800 1.387 . S
C1804 C1805 1.387 . S
C1804 H1808 0.950 . S
C1804 C1813 1.390 . S
C1805 C1804 1.387 . S
C1805 C1807 1.387 . S
H1806 C1813 0.950 . S
C1807 C1805 1.387 . S
C1807 C1809 1.390 . S
C1807 H1811 0.950 . S
H1808 C1804 0.950 . S
C1809 C1807 1.390 . S
C1809 C1810 1.387 . S
C1809 H1812 0.950 . S
C1810 C1809 1.387 . S
C1810 C1813 1.387 . S
H1811 C1807 0.950 . S
H1812 C1809 0.950 . S
C1813 C1804 1.390 . S
C1813 H1806 0.950 . S
C1813 C1810 1.387 . S
C1814 C1815 1.387 . S
C1814 H1818 0.950 . S
C1814 C1823 1.390 . S
C1815 C1814 1.387 . S
C1815 C1817 1.387 . S
H1816 C1823 0.950 . S
C1817 C1815 1.387 . S
C1817 C1819 1.390 . S
C1817 H1821 0.950 . S
H1818 C1814 0.950 . S
C1819 C1817 1.390 . S
C1819 C1820 1.387 . S
C1819 H1822 0.950 . S
C1820 C1819 1.387 . S
C1820 C1823 1.387 . S
H1821 C1817 0.950 . S
H1822 C1819 0.950 . S
C1823 C1814 1.390 . S
C1823 H1816 0.950 . S
C1823 C1820 1.387 . S
C1824 C1825 1.387 . S
C1824 H1828 0.950 . S
C1824 C1833 1.390 . S
C1825 C1824 1.387 . S
C1825 C1827 1.387 . S
H1826 C1833 0.950 . S
C1827 C1825 1.387 . S
C1827 C1829 1.390 . S
C1827 H1831 0.950 . S
H1828 C1824 0.950 . S
C1829 C1827 1.390 . S
C1829 C1830 1.387 . S
C1829 H1832 0.950 . S
C1830 C1829 1.387 . S
C1830 C1833 1.387 . S
H1831 C1827 0.950 . S
H1832 C1829 0.950 . S
C1833 C1824 1.390 . S
C1833 H1826 0.950 . S
C1833 C1830 1.387 . S
C1834 C1835 1.387 . S
C1834 H1838 0.950 . S
C1834 C1843 1.390 . S
C1835 C1834 1.387 . S
C1835 C1837 1.387 . S
H1836 C1843 0.950 . S
C1837 C1835 1.387 . S
C1837 C1839 1.390 . S
C1837 H1841 0.950 . S
H1838 C1834 0.950 . S
C1839 C1837 1.390 . S
C1839 C1840 1.387 . S
C1839 H1842 0.950 . S
C1840 C1839 1.387 . S
C1840 C1843 1.387 . S
H1841 C1837 0.950 . S
H1842 C1839 0.950 . S
C1843 C1834 1.390 . S
C1843 H1836 0.950 . S
C1843 C1840 1.387 . S
C1844 C1845 1.387 . S
C1844 H1848 0.950 . S
C1844 C1853 1.390 . S
C1845 C1844 1.387 . S
C1845 C1847 1.387 . S
H1846 C1853 0.950 . S
C1847 C1845 1.387 . S
C1847 C1849 1.390 . S
C1847 H1851 0.950 . S
H1848 C1844 0.950 . S
C1849 C1847 1.390 . S
C1849 C1850 1.387 . S
C1849 H1852 0.950 . S
C1850 C1849 1.387 . S
C1850 C1853 1.387 . S
H1851 C1847 0.950 . S
H1852 C1849 0.950 . S
C1853 C1844 1.390 . S
C1853 H1846 0.950 . S
C1853 C1850 1.387 . S
C1854 C1855 1.387 . S
C1854 H1858 0.950 . S
C1854 C1863 1.390 . S
C1855 C1854 1.387 . S
C1855 C1857 1.387 . S
H1856 C1863 0.950 . S
C1857 C1855 1.387 . S
C1857 C1859 1.390 . S
C1857 H1861 0.950 . S
H1858 C1854 0.950 . S
C1859 C1857 1.390 . S
C1859 C1860 1.387 . S
C1859 H1862 0.950 . S
C1860 C1859 1.387 . S
C1860 C1863 1.387 . S
H1861 C1857 0.950 . S
H1862 C1859 0.950 . S
C1863 C1854 1.390 . S
C1863 H1856 0.950 . S
C1863 C1860 1.387 . S
C1864 C1865 1.387 . S
C1864 H1868 0.950 . S
C1864 C1873 1.390 . S
C1865 C1864 1.387 . S
C1865 C1867 1.387 . S
H1866 C1873 0.950 . S
C1867 C1865 1.387 . S
C1867 C1869 1.390 . S
C1867 H1871 0.950 . S
H1868 C1864 0.950 . S
C1869 C1867 1.390 . S
C1869 C1870 1.387 . S
C1869 H1872 0.950 . S
C1870 C1869 1.387 . S
C1870 C1873 1.387 . S
H1871 C1867 0.950 . S
H1872 C1869 0.950 . S
C1873 C1864 1.390 . S
C1873 H1866 0.950 . S
C1873 C1870 1.387 . S
C1874 C1875 1.387 . S
C1874 H1878 0.950 . S
C1874 C1883 1.390 . S
C1875 C1874 1.387 . S
C1875 C1877 1.387 . S
H1876 C1883 0.950 . S
C1877 C1875 1.387 . S
C1877 C1879 1.390 . S
C1877 H1881 0.950 . S
H1878 C1874 0.950 . S
C1879 C1877 1.390 . S
C1879 C1880 1.387 . S
C1879 H1882 0.950 . S
C1880 C1879 1.387 . S
C1880 C1883 1.387 . S
H1881 C1877 0.950 . S
H1882 C1879 0.950 . S
C1883 C1874 1.390 . S
C1883 H1876 0.950 . S
C1883 C1880 1.387 . S
C1884 C1885 1.387 . S
C1884 H1888 0.950 . S
C1884 C1893 1.390 . S
C1885 C1884 1.387 . S
C1885 C1887 1.387 . S
H1886 C1893 0.950 . S
C1887 C1885 1.387 . S
C1887 C1889 1.390 . S
C1887 H1891 0.950 . S
H1888 C1884 0.950 . S
C1889 C1887 1.390 . S
C1889 C1890 1.387 . S
C1889 H1892 0.950 . S
C1890 C1889 1.387 . S
C1890 C1893 1.387 . S
H1891 C1887 0.950 . S
H1892 C1889 0.950 . S
C1893 C1884 1.390 . S
C1893 H1886 0.950 . S
C1893 C1890 1.387 . S
C1894 C1895 1.387 . S
C1894 H1898 0.950 . S
C1894 C1903 1.390 . S
C1895 C1894 1.387 . S
C1895 C1897 1.387 . S
H1896 C1903 0.950 . S
C1897 C1895 1.387 . S
C1897 C1899 1.390 . S
C1897 H1901 0.950 . S
H1898 C1894 0.950 . S
C1899 C1897 1.390 . S
C1899 C1900 1.387 . S
C1899 H1902 0.950 . S
C1900 C1899 1.387 . S
C1900 C1903 1.387 . S
H1901 C1897 0.950 . S
H1902 C1899 0.950 . S
C1903 C1894 1.390 . S
C1903 H1896 0.950 . S
C1903 C1900 1.387 . S
C1904 C1905 1.387 . S
C1904 H1908 0.950 . S
C1904 C1913 1.390 . S
C1905 C1904 1.387 . S
C1905 C1907 1.387 . S
H1906 C1913 0.950 . S
C1907 C1905 1.387 . S
C1907 C1909 1.390 . S
C1907 H1911 0.950 . S
H1908 C1904 0.950 . S
C1909 C1907 1.390 . S
C1909 C1910 1.387 . S
C1909 H1912 0.950 . S
C1910 C1909 1.387 . S
C1910 C1913 1.387 . S
H1911 C1907 0.950 . S
H1912 C1909 0.950 . S
C1913 C1904 1.390 . S
C1913 H1906 0.950 . S
C1913 C1910 1.387 . S
C1914 C1915 1.387 . S
C1914 H1918 0.950 . S
C1914 C1923 1.390 . S
C1915 C1914 1.387 . S
C1915 C1917 1.387 . S
H1916 C1923 0.950 . S
C1917 C1915 1.387 . S
C1917 C1919 1.390 . S
C1917 H1921 0.950 . S
H1918 C1914 0.950 . S
C1919 C1917 1.390 . S
C1919 C1920 1.387 . S
C1919 H1922 0.950 . S
C1920 C1919 1.387 . S
C1920 C1923 1.387 . S
H1921 C1917 0.950 . S
H1922 C1919 0.950 . S
C1923 C1914 1.390 . S
C1923 H1916 0.950 . S
C1923 C1920 1.387 . S
C1924 C1925 1.387 . S
C1924 H1928 0.950 . S
C1924 C1933 1.390 . S
C1925 C1924 1.387 . S
C1925 C1927 1.387 . S
H1926 C1933 0.950 . S
C1927 C1925 1.387 . S
C1927 C1929 1.390 . S
C1927 H1931 0.950 . S
H1928 C1924 0.950 . S
C1929 C1927 1.390 . S
C1929 C1930 1.387 . S
C1929 H1932 0.950 . S
C1930 C1929 1.387 . S
C1930 C1933 1.387 . S
H1931 C1927 0.950 . S
H1932 C1929 0.950 . S
C1933 C1924 1.390 . S
C1933 H1926 0.950 . S
C1933 C1930 1.387 . S
C1934 C1935 1.387 . S
C1934 H1938 0.950 . S
C1934 C1943 1.390 . S
C1935 C1934 1.387 . S
C1935 C1937 1.387 . S
H1936 C1943 0.950 . S
C1937 C1935 1.387 . S
C1937 C1939 1.390 . S
C1937 H1941 0.950 . S
H1938 C1934 0.950 . S
C1939 C1937 1.390 . S
C1939 C1940 1.387 . S
C1939 H1942 0.950 . S
C1940 C1939 1.387 . S
C1940 C1943 1.387 . S
H1941 C1937 0.950 . S
H1942 C1939 0.950 . S
C1943 C1934 1.390 . S
C1943 H1936 0.950 . S
C1943 C1940 1.387 . S
C1944 C1945 1.387 . S
C1944 H1948 0.950 . S
C1944 C1953 1.390 . S
C1945 C1944 1.387 . S
C1945 C1947 1.387 . S
H1946 C1953 0.950 . S
C1947 C1945 1.387 . S
C1947 C1949 1.390 . S
C1947 H1951 0.950 . S
H1948 C1944 0.950 . S
C1949 C1947 1.390 . S
C1949 C1950 1.387 . S
C1949 H1952 0.950 . S
C1950 C1949 1.387 . S
C1950 C1953 1.387 . S
H1951 C1947 0.950 . S
H1952 C1949 0.950 . S
C1953 C1944 1.390 . S
C1953 H1946 0.950 . S
C1953 C1950 1.387 . S
C1954 C1955 1.387 . S
C1954 H1958 0.950 . S
C1954 C1963 1.390 . S
C1955 C1954 1.387 . S
C1955 C1957 1.387 . S
H1956 C1963 0.950 . S
C1957 C1955 1.387 . S
C1957 C1959 1.390 . S
C1957 H1961 0.950 . S
H1958 C1954 0.950 . S
C1959 C1957 1.390 . S
C1959 C1960 1.387 . S
C1959 H1962 0.950 . S
C1960 C1959 1.387 . S
C1960 C1963 1.387 . S
H1961 C1957 0.950 . S
H1962 C1959 0.950 . S
C1963 C1954 1.390 . S
C1963 H1956 0.950 . S
C1963 C1960 1.387 . S
C1964 C1965 1.387 . S
C1964 H1968 0.950 . S
C1964 C1973 1.390 . S
C1965 C1964 1.387 . S
C1965 C1967 1.387 . S
H1966 C1973 0.950 . S
C1967 C1965 1.387 . S
C1967 C1969 1.390 . S
C1967 H1971 0.950 . S
H1968 C1964 0.950 . S
C1969 C1967 1.390 . S
C1969 C1970 1.387 . S
C1969 H1972 0.950 . S
C1970 C1969 1.387 . S
C1970 C1973 1.387 . S
H1971 C1967 0.950 . S
H1972 C1969 0.950 . S
C1973 C1964 1.390 . S
C1973 H1966 0.950 . S
C1973 C1970 1.387 . S
C1974 C1975 1.387 1_554 S
C1974 H1978 0.950 . S
C1974 C1983 1.390 . S
C1975 C1974 1.387 1_556 S
C1975 C1977 1.387 . S
H1976 C1983 0.950 . S
C1977 C1975 1.387 . S
C1977 C1979 1.390 . S
C1977 H1981 0.950 . S
H1978 C1974 0.950 . S
C1979 C1977 1.390 . S
C1979 C1980 1.387 . S
C1979 H1982 0.950 . S
C1980 C1979 1.387 . S
C1980 C1983 1.387 1_556 S
H1981 C1977 0.950 . S
H1982 C1979 0.950 . S
C1983 C1974 1.390 . S
C1983 H1976 0.950 . S
C1983 C1980 1.387 1_554 S
C1984 C1985 1.387 . S
C1984 H1988 0.950 . S
C1984 C1993 1.390 . S
C1985 C1984 1.387 . S
C1985 C1987 1.387 . S
H1986 C1993 0.950 . S
C1987 C1985 1.387 . S
C1987 C1989 1.390 . S
C1987 H1991 0.950 . S
H1988 C1984 0.950 . S
C1989 C1987 1.390 . S
C1989 C1990 1.387 . S
C1989 H1992 0.950 . S
C1990 C1989 1.387 . S
C1990 C1993 1.387 . S
H1991 C1987 0.950 . S
H1992 C1989 0.950 . S
C1993 C1984 1.390 . S
C1993 H1986 0.950 . S
C1993 C1990 1.387 . S
C1994 C1995 1.387 . S
C1994 H1998 0.954 . S
C1994 C2003 1.390 1_554 S
C1995 C1994 1.387 . S
C1995 C1997 1.387 . S
H1996 C2003 0.950 . S
C1997 C1995 1.387 . S
C1997 C1999 1.390 . S
C1997 H2001 0.950 . S
H1998 C1994 0.954 . S
C1999 C1997 1.390 . S
C1999 C2000 1.387 . S
C1999 H2002 0.950 . S
C2000 C1999 1.387 . S
C2000 C2003 1.387 1_554 S
H2001 C1997 0.950 . S
H2002 C1999 0.950 . S
C2003 C1994 1.390 1_556 S
C2003 H1996 0.950 . S
C2003 C2000 1.387 1_556 S
C2004 C2005 1.387 1_556 S
C2004 H2008 0.950 . S
C2004 C2013 1.390 . S
C2005 C2004 1.387 1_554 S
C2005 C2007 1.392 . S
H2006 C2013 0.950 . S
C2007 C2005 1.392 . S
C2007 C2009 1.373 1_554 S
C2007 H2011 0.963 . S
H2008 C2004 0.950 . S
C2009 C2007 1.373 1_556 S
C2009 C2010 1.387 . S
C2009 H2012 0.950 . S
C2010 C2009 1.387 . S
C2010 C2013 1.387 . S
H2011 C2007 0.963 . S
H2012 C2009 0.950 . S
C2013 C2004 1.390 . S
C2013 H2006 0.950 . S
C2013 C2010 1.387 . S
C2014 C2015 1.387 . S
C2014 H2018 0.950 . S
C2014 C2023 1.390 . S
C2015 C2014 1.387 . S
C2015 C2017 1.387 . S
H2016 C2023 0.950 . S
C2017 C2015 1.387 . S
C2017 C2019 1.390 . S
C2017 H2021 0.950 . S
H2018 C2014 0.950 . S
C2019 C2017 1.390 . S
C2019 C2020 1.387 . S
C2019 H2022 0.950 . S
C2020 C2019 1.387 . S
C2020 C2023 1.387 . S
H2021 C2017 0.950 . S
H2022 C2019 0.950 . S
C2023 C2014 1.390 . S
C2023 H2016 0.950 . S
C2023 C2020 1.387 . S
C2024 C2025 1.387 . S
C2024 H2028 0.949 1_554 S
C2024 C2033 1.390 1_554 S
C2025 C2024 1.387 . S
C2025 C2027 1.387 . S
H2026 C2033 0.950 . S
C2027 C2025 1.387 . S
C2027 C2029 1.390 . S
C2027 H2031 0.950 . S
H2028 C2024 0.949 1_556 S
C2029 C2027 1.390 . S
C2029 C2030 1.387 1_554 S
C2029 H2032 0.950 . S
C2030 C2029 1.387 1_556 S
C2030 C2033 1.387 . S
H2031 C2027 0.950 . S
H2032 C2029 0.950 . S
C2033 C2024 1.390 1_556 S
C2033 H2026 0.950 . S
C2033 C2030 1.387 . S
C2034 C2035 1.387 . S
C2034 H2038 0.950 . S
C2034 C2043 1.390 . S
C2035 C2034 1.387 . S
C2035 C2037 1.387 . S
H2036 C2043 0.950 . S
C2037 C2035 1.387 . S
C2037 C2039 1.390 . S
C2037 H2041 0.950 . S
H2038 C2034 0.950 . S
C2039 C2037 1.390 . S
C2039 C2040 1.387 . S
C2039 H2042 0.950 . S
C2040 C2039 1.387 . S
C2040 C2043 1.387 . S
H2041 C2037 0.950 . S
H2042 C2039 0.950 . S
C2043 C2034 1.390 . S
C2043 H2036 0.950 . S
C2043 C2040 1.387 . S
C2044 C2045 1.387 . S
C2044 H2048 0.950 . S
C2044 C2053 1.390 . S
C2045 C2044 1.387 . S
C2045 C2047 1.387 . S
H2046 C2053 0.950 . S
C2047 C2045 1.387 . S
C2047 C2049 1.390 . S
C2047 H2051 0.950 . S
H2048 C2044 0.950 . S
C2049 C2047 1.390 . S
C2049 C2050 1.387 . S
C2049 H2052 0.950 . S
C2050 C2049 1.387 . S
C2050 C2053 1.387 . S
H2051 C2047 0.950 . S
H2052 C2049 0.950 . S
C2053 C2044 1.390 . S
C2053 H2046 0.950 . S
C2053 C2050 1.387 . S
C2054 C2055 1.387 . S
C2054 H2058 0.950 . S
C2054 C2063 1.390 . S
C2055 C2054 1.387 . S
C2055 C2057 1.387 . S
H2056 C2063 0.950 . S
C2057 C2055 1.387 . S
C2057 C2059 1.390 . S
C2057 H2061 0.950 . S
H2058 C2054 0.950 . S
C2059 C2057 1.390 . S
C2059 C2060 1.387 . S
C2059 H2062 0.950 . S
C2060 C2059 1.387 . S
C2060 C2063 1.387 . S
H2061 C2057 0.950 . S
H2062 C2059 0.950 . S
C2063 C2054 1.390 . S
C2063 H2056 0.950 . S
C2063 C2060 1.387 . S
C2064 C2065 1.387 . S
C2064 H2068 0.950 . S
C2064 C2073 1.390 . S
C2065 C2064 1.387 . S
C2065 C2067 1.387 . S
H2066 C2073 0.950 . S
C2067 C2065 1.387 . S
C2067 C2069 1.390 . S
C2067 H2071 0.950 . S
H2068 C2064 0.950 . S
C2069 C2067 1.390 . S
C2069 C2070 1.387 . S
C2069 H2072 0.950 . S
C2070 C2069 1.387 . S
C2070 C2073 1.387 . S
H2071 C2067 0.950 . S
H2072 C2069 0.950 . S
C2073 C2064 1.390 . S
C2073 H2066 0.950 . S
C2073 C2070 1.387 . S
C2074 C2075 1.387 . S
C2074 H2078 0.950 . S
C2074 C2083 1.390 . S
C2075 C2074 1.387 . S
C2075 C2077 1.387 . S
H2076 C2083 0.950 . S
C2077 C2075 1.387 . S
C2077 C2079 1.390 . S
C2077 H2081 0.950 . S
H2078 C2074 0.950 . S
C2079 C2077 1.390 . S
C2079 C2080 1.387 . S
C2079 H2082 0.950 . S
C2080 C2079 1.387 . S
C2080 C2083 1.387 . S
H2081 C2077 0.950 . S
H2082 C2079 0.950 . S
C2083 C2074 1.390 . S
C2083 H2076 0.950 . S
C2083 C2080 1.387 . S
C2084 C2085 1.387 . S
C2084 H2088 0.950 . S
C2084 C2093 1.390 . S
C2085 C2084 1.387 . S
C2085 C2087 1.387 . S
H2086 C2093 0.950 . S
C2087 C2085 1.387 . S
C2087 C2089 1.390 . S
C2087 H2091 0.950 . S
H2088 C2084 0.950 . S
C2089 C2087 1.390 . S
C2089 C2090 1.387 . S
C2089 H2092 0.950 . S
C2090 C2089 1.387 . S
C2090 C2093 1.387 . S
H2091 C2087 0.950 . S
H2092 C2089 0.950 . S
C2093 C2084 1.390 . S
C2093 H2086 0.950 . S
C2093 C2090 1.387 . S
C2094 C2095 1.387 . S
C2094 H2098 0.950 . S
C2094 C2103 1.390 . S
C2095 C2094 1.387 . S
C2095 C2097 1.387 . S
H2096 C2103 0.950 . S
C2097 C2095 1.387 . S
C2097 C2099 1.390 . S
C2097 H2101 0.950 . S
H2098 C2094 0.950 . S
C2099 C2097 1.390 . S
C2099 C2100 1.387 . S
C2099 H2102 0.950 . S
C2100 C2099 1.387 . S
C2100 C2103 1.387 . S
H2101 C2097 0.950 . S
H2102 C2099 0.950 . S
C2103 C2094 1.390 . S
C2103 H2096 0.950 . S
C2103 C2100 1.387 . S
C2104 C2105 1.387 . S
C2104 H2108 0.950 . S
C2104 C2113 1.390 . S
C2105 C2104 1.387 . S
C2105 C2107 1.387 . S
H2106 C2113 0.950 . S
C2107 C2105 1.387 . S
C2107 C2109 1.390 . S
C2107 H2111 0.950 . S
H2108 C2104 0.950 . S
C2109 C2107 1.390 . S
C2109 C2110 1.387 . S
C2109 H2112 0.950 . S
C2110 C2109 1.387 . S
C2110 C2113 1.387 . S
H2111 C2107 0.950 . S
H2112 C2109 0.950 . S
C2113 C2104 1.390 . S
C2113 H2106 0.950 . S
C2113 C2110 1.387 . S
C2114 C2115 1.387 . S
C2114 H2118 0.950 1_565 S
C2114 C2123 1.390 . S
C2115 C2114 1.387 . S
C2115 C2117 1.387 . S
H2116 C2123 0.950 1_545 S
C2117 C2115 1.387 . S
C2117 C2119 1.390 . S
C2117 H2121 0.950 . S
H2118 C2114 0.950 1_545 S
C2119 C2117 1.390 . S
C2119 C2120 1.387 . S
C2119 H2122 0.950 . S
C2120 C2119 1.387 . S
C2120 C2123 1.387 . S
H2121 C2117 0.950 . S
H2122 C2119 0.950 . S
C2123 C2114 1.390 . S
C2123 H2116 0.950 1_565 S
C2123 C2120 1.387 . S
C2124 C2125 1.387 . S
C2124 H2128 0.950 . S
C2124 C2133 1.390 . S
C2125 C2124 1.387 . S
C2125 C2127 1.387 . S
H2126 C2133 0.950 . S
C2127 C2125 1.387 . S
C2127 C2129 1.390 1_565 S
C2127 H2131 0.945 1_565 S
H2128 C2124 0.950 . S
C2129 C2127 1.390 1_545 S
C2129 C2130 1.387 1_545 S
C2129 H2132 0.950 . S
C2130 C2129 1.387 1_565 S
C2130 C2133 1.387 . S
H2131 C2127 0.945 1_545 S
H2132 C2129 0.950 . S
C2133 C2124 1.390 . S
C2133 H2126 0.950 . S
C2133 C2130 1.387 . S
C2134 C2135 1.387 1_655 S
C2134 H2138 0.950 . S
C2134 C2143 1.390 . S
C2135 C2134 1.387 1_455 S
C2135 C2137 1.387 . S
H2136 C2143 0.950 . S
C2137 C2135 1.387 . S
C2137 C2139 1.390 . S
C2137 H2141 0.950 . S
H2138 C2134 0.950 . S
C2139 C2137 1.390 . S
C2139 C2140 1.387 . S
C2139 H2142 0.950 . S
C2140 C2139 1.387 . S
C2140 C2143 1.387 1_455 S
H2141 C2137 0.950 . S
H2142 C2139 0.950 . S
C2143 C2134 1.390 . S
C2143 H2136 0.950 . S
C2143 C2140 1.387 1_655 S
C2144 C2145 1.387 . S
C2144 H2148 0.950 . S
C2144 C2153 1.390 . S
C2145 C2144 1.387 . S
C2145 C2147 1.387 . S
H2146 C2153 0.950 . S
C2147 C2145 1.387 . S
C2147 C2149 1.390 . S
C2147 H2151 0.950 . S
H2148 C2144 0.950 . S
C2149 C2147 1.390 . S
C2149 C2150 1.387 . S
C2149 H2152 0.950 . S
C2150 C2149 1.387 . S
C2150 C2153 1.387 . S
H2151 C2147 0.950 . S
H2152 C2149 0.950 . S
C2153 C2144 1.390 . S
C2153 H2146 0.950 . S
C2153 C2150 1.387 . S
C2154 C2155 1.387 . S
C2154 H2158 0.950 . S
C2154 C2163 1.390 . S
C2155 C2154 1.387 . S
C2155 C2157 1.387 . S
H2156 C2163 0.950 . S
C2157 C2155 1.387 . S
C2157 C2159 1.390 . S
C2157 H2161 0.950 . S
H2158 C2154 0.950 . S
C2159 C2157 1.390 . S
C2159 C2160 1.387 . S
C2159 H2162 0.950 . S
C2160 C2159 1.387 . S
C2160 C2163 1.387 . S
H2161 C2157 0.950 . S
H2162 C2159 0.950 . S
C2163 C2154 1.390 . S
C2163 H2156 0.950 . S
C2163 C2160 1.387 . S
C2164 C2165 1.387 . S
C2164 H2168 0.950 . S
C2164 C2173 1.390 . S
C2165 C2164 1.387 . S
C2165 C2167 1.387 . S
H2166 C2173 0.950 . S
C2167 C2165 1.387 . S
C2167 C2169 1.390 . S
C2167 H2171 0.950 . S
H2168 C2164 0.950 . S
C2169 C2167 1.390 . S
C2169 C2170 1.387 . S
C2169 H2172 0.950 . S
C2170 C2169 1.387 . S
C2170 C2173 1.387 . S
H2171 C2167 0.950 . S
H2172 C2169 0.950 . S
C2173 C2164 1.390 . S
C2173 H2166 0.950 . S
C2173 C2170 1.387 . S
C2174 C2175 1.387 . S
C2174 H2178 0.950 . S
C2174 C2183 1.390 . S
C2175 C2174 1.387 . S
C2175 C2177 1.387 . S
H2176 C2183 0.950 . S
C2177 C2175 1.387 . S
C2177 C2179 1.390 . S
C2177 H2181 0.950 . S
H2178 C2174 0.950 . S
C2179 C2177 1.390 . S
C2179 C2180 1.387 . S
C2179 H2182 0.950 . S
C2180 C2179 1.387 . S
C2180 C2183 1.387 . S
H2181 C2177 0.950 . S
H2182 C2179 0.950 . S
C2183 C2174 1.390 . S
C2183 H2176 0.950 . S
C2183 C2180 1.387 . S
C2184 C2185 1.387 . S
C2184 H2188 0.950 . S
C2184 C2193 1.390 . S
C2185 C2184 1.387 . S
C2185 C2187 1.387 1_545 S
H2186 C2193 0.950 . S
C2187 C2185 1.387 1_565 S
C2187 C2189 1.390 . S
C2187 H2191 0.950 . S
H2188 C2184 0.950 . S
C2189 C2187 1.390 . S
C2189 C2190 1.387 1_565 S
C2189 H2192 0.950 . S
C2190 C2189 1.387 1_545 S
C2190 C2193 1.387 . S
H2191 C2187 0.950 . S
H2192 C2189 0.950 . S
C2193 C2184 1.390 . S
C2193 H2186 0.950 . S
C2193 C2190 1.387 . S
C2194 C2195 1.386 1_455 S
C2194 H2198 0.952 . S
C2194 C2203 1.389 . S
C2195 C2194 1.386 1_655 S
C2195 C2197 1.387 . S
H2196 C2203 0.950 . S
C2197 C2195 1.387 . S
C2197 C2199 1.390 . S
C2197 H2201 0.950 . S
H2198 C2194 0.952 . S
C2199 C2197 1.390 . S
C2199 C2200 1.387 . S
C2199 H2202 0.950 . S
C2200 C2199 1.387 . S
C2200 C2203 1.387 1_655 S
H2201 C2197 0.950 . S
H2202 C2199 0.950 . S
C2203 C2194 1.389 . S
C2203 H2196 0.950 . S
C2203 C2200 1.387 1_455 S
C2204 C2205 1.387 . S
C2204 H2208 0.950 . S
C2204 C2213 1.390 . S
C2205 C2204 1.387 . S
C2205 C2207 1.387 . S
H2206 C2213 0.950 . S
C2207 C2205 1.387 . S
C2207 C2209 1.390 . S
C2207 H2211 0.950 . S
H2208 C2204 0.950 . S
C2209 C2207 1.390 . S
C2209 C2210 1.387 . S
C2209 H2212 0.950 . S
C2210 C2209 1.387 . S
C2210 C2213 1.387 . S
H2211 C2207 0.950 . S
H2212 C2209 0.950 . S
C2213 C2204 1.390 . S
C2213 H2206 0.950 . S
C2213 C2210 1.387 . S
C2214 C2215 1.387 . S
C2214 H2218 0.950 . S
C2214 C2223 1.390 . S
C2215 C2214 1.387 . S
C2215 C2217 1.387 . S
H2216 C2223 0.950 . S
C2217 C2215 1.387 . S
C2217 C2219 1.390 . S
C2217 H2221 0.950 . S
H2218 C2214 0.950 . S
C2219 C2217 1.390 . S
C2219 C2220 1.387 . S
C2219 H2222 0.950 . S
C2220 C2219 1.387 . S
C2220 C2223 1.387 . S
H2221 C2217 0.950 . S
H2222 C2219 0.950 . S
C2223 C2214 1.390 . S
C2223 H2216 0.950 . S
C2223 C2220 1.387 . S
C2224 C2225 1.387 . S
C2224 H2228 0.950 . S
C2224 C2233 1.390 . S
C2225 C2224 1.387 . S
C2225 C2227 1.387 . S
H2226 C2233 0.950 . S
C2227 C2225 1.387 . S
C2227 C2229 1.390 . S
C2227 H2231 0.950 . S
H2228 C2224 0.950 . S
C2229 C2227 1.390 . S
C2229 C2230 1.387 . S
C2229 H2232 0.950 . S
C2230 C2229 1.387 . S
C2230 C2233 1.387 . S
H2231 C2227 0.950 . S
H2232 C2229 0.950 . S
C2233 C2224 1.390 . S
C2233 H2226 0.950 . S
C2233 C2230 1.387 . S
C2234 C2235 1.387 . S
C2234 H2238 0.950 . S
C2234 C2243 1.390 . S
C2235 C2234 1.387 . S
C2235 C2237 1.387 . S
H2236 C2243 0.950 . S
C2237 C2235 1.387 . S
C2237 C2239 1.390 . S
C2237 H2241 0.950 . S
H2238 C2234 0.950 . S
C2239 C2237 1.390 . S
C2239 C2240 1.387 . S
C2239 H2242 0.950 . S
C2240 C2239 1.387 . S
C2240 C2243 1.387 . S
H2241 C2237 0.950 . S
H2242 C2239 0.950 . S
C2243 C2234 1.390 . S
C2243 H2236 0.950 . S
C2243 C2240 1.387 . S
C2244 C2245 1.387 . S
C2244 H2248 0.950 . S
C2244 C2253 1.390 . S
C2245 C2244 1.387 . S
C2245 C2247 1.387 . S
H2246 C2253 0.950 . S
C2247 C2245 1.387 . S
C2247 C2249 1.390 . S
C2247 H2251 0.950 . S
H2248 C2244 0.950 . S
C2249 C2247 1.390 . S
C2249 C2250 1.387 . S
C2249 H2252 0.950 . S
C2250 C2249 1.387 . S
C2250 C2253 1.387 . S
H2251 C2247 0.950 . S
H2252 C2249 0.950 . S
C2253 C2244 1.390 . S
C2253 H2246 0.950 . S
C2253 C2250 1.387 . S
C2254 C2255 1.387 . S
C2254 H2258 0.950 . S
C2254 C2263 1.390 . S
C2255 C2254 1.387 . S
C2255 C2257 1.387 . S
H2256 C2263 0.950 . S
C2257 C2255 1.387 . S
C2257 C2259 1.390 . S
C2257 H2261 0.950 . S
H2258 C2254 0.950 . S
C2259 C2257 1.390 . S
C2259 C2260 1.387 . S
C2259 H2262 0.950 . S
C2260 C2259 1.387 . S
C2260 C2263 1.387 . S
H2261 C2257 0.950 . S
H2262 C2259 0.950 . S
C2263 C2254 1.390 . S
C2263 H2256 0.950 . S
C2263 C2260 1.387 . S
C2264 C2265 1.387 . S
C2264 H2268 0.950 . S
C2264 C2273 1.390 . S
C2265 C2264 1.387 . S
C2265 C2267 1.387 . S
H2266 C2273 0.950 . S
C2267 C2265 1.387 . S
C2267 C2269 1.390 . S
C2267 H2271 0.950 . S
H2268 C2264 0.950 . S
C2269 C2267 1.390 . S
C2269 C2270 1.387 . S
C2269 H2272 0.950 . S
C2270 C2269 1.387 . S
C2270 C2273 1.387 . S
H2271 C2267 0.950 . S
H2272 C2269 0.950 . S
C2273 C2264 1.390 . S
C2273 H2266 0.950 . S
C2273 C2270 1.387 . S
C2274 C2275 1.387 . S
C2274 H2278 0.950 . S
C2274 C2283 1.390 . S
C2275 C2274 1.387 . S
C2275 C2277 1.387 . S
H2276 C2283 0.950 . S
C2277 C2275 1.387 . S
C2277 C2279 1.390 . S
C2277 H2281 0.950 . S
H2278 C2274 0.950 . S
C2279 C2277 1.390 . S
C2279 C2280 1.387 . S
C2279 H2282 0.950 . S
C2280 C2279 1.387 . S
C2280 C2283 1.387 . S
H2281 C2277 0.950 . S
H2282 C2279 0.950 . S
C2283 C2274 1.390 . S
C2283 H2276 0.950 . S
C2283 C2280 1.387 . S
C2284 C2285 1.387 . S
C2284 H2288 0.950 . S
C2284 C2293 1.390 . S
C2285 C2284 1.387 . S
C2285 C2287 1.387 . S
H2286 C2293 0.950 . S
C2287 C2285 1.387 . S
C2287 C2289 1.390 . S
C2287 H2291 0.950 . S
H2288 C2284 0.950 . S
C2289 C2287 1.390 . S
C2289 C2290 1.387 . S
C2289 H2292 0.950 . S
C2290 C2289 1.387 . S
C2290 C2293 1.387 . S
H2291 C2287 0.950 . S
H2292 C2289 0.950 . S
C2293 C2284 1.390 . S
C2293 H2286 0.950 . S
C2293 C2290 1.387 . S
C2294 C2295 1.387 . S
C2294 H2298 0.950 . S
C2294 C2303 1.390 . S
C2295 C2294 1.387 . S
C2295 C2297 1.387 . S
H2296 C2303 0.950 . S
C2297 C2295 1.387 . S
C2297 C2299 1.390 1_545 S
C2297 H2301 0.950 1_545 S
H2298 C2294 0.950 . S
C2299 C2297 1.390 1_565 S
C2299 C2300 1.387 1_565 S
C2299 H2302 0.950 . S
C2300 C2299 1.387 1_545 S
C2300 C2303 1.387 . S
H2301 C2297 0.950 1_565 S
H2302 C2299 0.950 . S
C2303 C2294 1.390 . S
C2303 H2296 0.950 . S
C2303 C2300 1.387 . S
C1585 C9 1.413 1_655 S
C1590 C981 1.278 . S
C1595 C19 1.666 . S
C1600 C1061 1.587 . S
C1610 C1129 1.407 . S
C1605 C33 1.476 . S
C1615 C37 1.730 . S
C1620 C1209 1.720 . S
C1625 C5 1.526 . S
C1630 C1283 1.503 . S
C1635 C23 1.786 . S
C1640 C1351 1.639 . S
C1645 C47 1.289 1_556 S
C1650 C1277 1.220 . S
C1660 C1357 1.518 . S
C1655 C65 1.520 . S
C1670 C1203 1.328 . S
C1665 C75 1.362 1_556 S
C1675 C79 1.618 . S
C1680 C1135 1.661 1_545 S
C1690 C987 1.515 . S
C1685 C51 1.493 . S
C1695 C61 1.519 . S
C1700 C1055 1.484 . S
C1705 C93 1.755 . S
C1710 C1425 1.530 . S
C1715 C103 1.728 . S
C1720 C1505 1.635 . S
C1730 C1573 1.585 . S
C1725 C117 1.725 . S
C1735 C121 1.974 . S
C1740 C321 1.881 . S
C1745 C89 1.812 . S
C1750 C395 1.713 . S
C1755 C107 1.824 . S
C1760 C463 1.677 . S
C1765 C131 1.339 . S
C1770 C389 1.265 . S
C1775 C149 1.556 . S
C1780 C469 1.549 . S
C1790 C315 1.419 . S
C1785 C159 1.451 . S
C1800 C1579 1.816 . S
C1795 C163 1.825 . S
C1810 C1431 1.614 . S
C1805 C135 1.634 . S
C1820 C1499 1.525 . S
C1815 C145 1.555 . S
C1825 C177 1.666 . S
C1830 C537 1.444 . S
C1835 C187 1.721 . S
C1840 C617 1.625 . S
C1845 C201 1.750 . S
C1850 C685 1.610 . S
C1855 C205 2.052 . S
C1860 C765 1.955 . S
C1870 C839 1.711 . S
C1865 C173 1.812 . S
C1880 C907 1.698 . S
C1875 C191 1.855 . S
C1890 C833 1.360 . S
C1885 C215 1.435 . S
C1900 C913 1.552 . S
C1895 C233 1.562 . S
C1905 C243 1.413 . S
C1910 C759 1.384 . S
C1920 C691 1.730 . S
C1915 C247 1.735 . S
C1925 C219 1.646 . S
C1930 C543 1.632 . S
C1940 C611 1.509 . S
C1935 C229 1.537 . S
C1950 C291 1.890 . S
C1945 C11 1.957 . S
C1955 C14 1.515 . S
C1960 C365 1.483 . S
C1970 C451 1.621 . S
C1965 C28 1.647 . S
C1980 C525 1.395 . S
C1975 C39 1.447 1_556 S
C1990 C587 1.634 . S
C1985 C0 1.670 1_556 S
C2000 C673 1.521 1_554 S
C1995 C25 1.548 . S
C2005 C42 2.256 . S
C2010 C661 2.095 . S
C2015 C67 1.802 . S
C2020 C513 1.659 . S
C2025 C70 1.856 . S
C2030 C599 1.749 . S
C2035 C81 1.717 . S
C2040 C377 1.583 . S
C2050 C439 1.796 . S
C2045 C53 1.945 . S
C2055 C56 1.926 . S
C2060 C303 1.814 . S
C2070 C735 1.832 . S
C2065 C95 1.893 . S
C2075 C98 1.620 1_545 S
C2080 C809 1.592 . S
C2085 C112 1.683 1_655 S
C2090 C895 1.647 . S
C2100 C969 1.210 . S
C2095 C123 1.234 . S
C2105 C84 1.597 . S
C2110 C1031 1.568 . S
C2115 C109 1.419 . S
C2120 C1117 1.419 . S
C2125 C126 1.927 . S
C2130 C1105 1.829 1_565 S
C2135 C151 1.492 . S
C2140 C957 1.428 1_455 S
C2150 C1043 1.692 . S
C2145 C154 1.793 . S
C2155 C165 1.717 . S
C2160 C821 1.576 . S
C2165 C137 1.928 . S
C2170 C883 1.794 . S
C2180 C747 1.868 . S
C2175 C140 1.982 1_655 S
C2190 C1179 1.729 . S
C2185 C179 1.775 . S
C2195 C182 1.341 . S
C2200 C1253 1.337 . S
C2205 C196 1.599 . S
C2210 C1339 1.573 . S
C2220 C1413 1.390 . S
C2215 C207 1.447 . S
C2230 C1475 1.649 . S
C2225 C168 1.676 . S
C2235 C193 1.622 . S
C2240 C1561 1.596 . S
C2245 C210 2.202 . S
C2250 C1549 2.044 . S
C2255 C235 1.890 . S
C2260 C1401 1.749 . S
C2270 C1487 1.765 . S
C2265 C238 1.878 1_455 S
C2280 C1265 1.266 . S
C2275 C249 1.329 . S
C2290 C1327 1.721 . S
C2285 C221 1.854 . S
C2295 C224 1.610 . S
C2300 C1191 1.567 . S
