# Generated by pormake.
# Topology ssc, (4,4)-cn, num edge types: 1
# Building blocks:
#     Node 0, Type 0, BuildingBlock: CEKHIL_clean_sbu_0, # of connection points: 4
#     Node 1, Type 0, BuildingBlock: CEKHIL_clean_sbu_0, # of connection points: 4
#     Node 2, Type 0, BuildingBlock: CEKHIL_clean_sbu_0, # of connection points: 4
#     Node 3, Type 0, BuildingBlock: CEKHIL_clean_sbu_0, # of connection points: 4
#     Node 4, Type 0, BuildingBlock: CEKHIL_clean_sbu_0, # of connection points: 4
#     Node 5, Type 0, BuildingBlock: CEKHIL_clean_sbu_0, # of connection points: 4
#     Node 6, Type 0, BuildingBlock: CEKHIL_clean_sbu_0, # of connection points: 4
#     Node 7, Type 0, BuildingBlock: CEKHIL_clean_sbu_0, # of connection points: 4
#     Node 8, Type 0, BuildingBlock: CEKHIL_clean_sbu_0, # of connection points: 4
#     Node 9, Type 0, BuildingBlock: CEKHIL_clean_sbu_0, # of connection points: 4
#     Node 10, Type 0, BuildingBlock: CEKHIL_clean_sbu_0, # of connection points: 4
#     Node 11, Type 0, BuildingBlock: CEKHIL_clean_sbu_0, # of connection points: 4
#     Node 12, Type 1, BuildingBlock: GIZVER_clean_linker_0, # of connection points: 4
#     Node 13, Type 1, BuildingBlock: GIZVER_clean_linker_0, # of connection points: 4
#     Node 14, Type 1, BuildingBlock: GIZVER_clean_linker_0, # of connection points: 4
#     Node 15, Type 1, BuildingBlock: GIZVER_clean_linker_0, # of connection points: 4
#     Node 16, Type 1, BuildingBlock: GIZVER_clean_linker_0, # of connection points: 4
#     Node 17, Type 1, BuildingBlock: GIZVER_clean_linker_0, # of connection points: 4
#     Node 18, Type 1, BuildingBlock: GIZVER_clean_linker_0, # of connection points: 4
#     Node 19, Type 1, BuildingBlock: GIZVER_clean_linker_0, # of connection points: 4
#     Node 20, Type 1, BuildingBlock: GIZVER_clean_linker_0, # of connection points: 4
#     Node 21, Type 1, BuildingBlock: GIZVER_clean_linker_0, # of connection points: 4
#     Node 22, Type 1, BuildingBlock: GIZVER_clean_linker_0, # of connection points: 4
#     Node 23, Type 1, BuildingBlock: GIZVER_clean_linker_0, # of connection points: 4
#     Edge 24, Type (0, 1), BuildingBlock: ZUJKAS_clean_linker_0, # of connection points: 2
#     Edge 25, Type (0, 1), BuildingBlock: ZUJKAS_clean_linker_0, # of connection points: 2
#     Edge 26, Type (0, 1), BuildingBlock: ZUJKAS_clean_linker_0, # of connection points: 2
#     Edge 27, Type (0, 1), BuildingBlock: ZUJKAS_clean_linker_0, # of connection points: 2
#     Edge 28, Type (0, 1), BuildingBlock: ZUJKAS_clean_linker_0, # of connection points: 2
#     Edge 29, Type (0, 1), BuildingBlock: ZUJKAS_clean_linker_0, # of connection points: 2
#     Edge 30, Type (0, 1), BuildingBlock: ZUJKAS_clean_linker_0, # of connection points: 2
#     Edge 31, Type (0, 1), BuildingBlock: ZUJKAS_clean_linker_0, # of connection points: 2
#     Edge 32, Type (0, 1), BuildingBlock: ZUJKAS_clean_linker_0, # of connection points: 2
#     Edge 33, Type (0, 1), BuildingBlock: ZUJKAS_clean_linker_0, # of connection points: 2
#     Edge 34, Type (0, 1), BuildingBlock: ZUJKAS_clean_linker_0, # of connection points: 2
#     Edge 35, Type (0, 1), BuildingBlock: ZUJKAS_clean_linker_0, # of connection points: 2
#     Edge 36, Type (0, 1), BuildingBlock: ZUJKAS_clean_linker_0, # of connection points: 2
#     Edge 37, Type (0, 1), BuildingBlock: ZUJKAS_clean_linker_0, # of connection points: 2
#     Edge 38, Type (0, 1), BuildingBlock: ZUJKAS_clean_linker_0, # of connection points: 2
#     Edge 39, Type (0, 1), BuildingBlock: ZUJKAS_clean_linker_0, # of connection points: 2
#     Edge 40, Type (0, 1), BuildingBlock: ZUJKAS_clean_linker_0, # of connection points: 2
#     Edge 41, Type (0, 1), BuildingBlock: ZUJKAS_clean_linker_0, # of connection points: 2
#     Edge 42, Type (0, 1), BuildingBlock: ZUJKAS_clean_linker_0, # of connection points: 2
#     Edge 43, Type (0, 1), BuildingBlock: ZUJKAS_clean_linker_0, # of connection points: 2
#     Edge 44, Type (0, 1), BuildingBlock: ZUJKAS_clean_linker_0, # of connection points: 2
#     Edge 45, Type (0, 1), BuildingBlock: ZUJKAS_clean_linker_0, # of connection points: 2
#     Edge 46, Type (0, 1), BuildingBlock: ZUJKAS_clean_linker_0, # of connection points: 2
#     Edge 47, Type (0, 1), BuildingBlock: ZUJKAS_clean_linker_0, # of connection points: 2
#     Edge 48, Type (0, 1), BuildingBlock: ZUJKAS_clean_linker_0, # of connection points: 2
#     Edge 49, Type (0, 1), BuildingBlock: ZUJKAS_clean_linker_0, # of connection points: 2
#     Edge 50, Type (0, 1), BuildingBlock: ZUJKAS_clean_linker_0, # of connection points: 2
#     Edge 51, Type (0, 1), BuildingBlock: ZUJKAS_clean_linker_0, # of connection points: 2
#     Edge 52, Type (0, 1), BuildingBlock: ZUJKAS_clean_linker_0, # of connection points: 2
#     Edge 53, Type (0, 1), BuildingBlock: ZUJKAS_clean_linker_0, # of connection points: 2
#     Edge 54, Type (0, 1), BuildingBlock: ZUJKAS_clean_linker_0, # of connection points: 2
#     Edge 55, Type (0, 1), BuildingBlock: ZUJKAS_clean_linker_0, # of connection points: 2
#     Edge 56, Type (0, 1), BuildingBlock: ZUJKAS_clean_linker_0, # of connection points: 2
#     Edge 57, Type (0, 1), BuildingBlock: ZUJKAS_clean_linker_0, # of connection points: 2
#     Edge 58, Type (0, 1), BuildingBlock: ZUJKAS_clean_linker_0, # of connection points: 2
#     Edge 59, Type (0, 1), BuildingBlock: ZUJKAS_clean_linker_0, # of connection points: 2
#     Edge 60, Type (0, 1), BuildingBlock: ZUJKAS_clean_linker_0, # of connection points: 2
#     Edge 61, Type (0, 1), BuildingBlock: ZUJKAS_clean_linker_0, # of connection points: 2
#     Edge 62, Type (0, 1), BuildingBlock: ZUJKAS_clean_linker_0, # of connection points: 2
#     Edge 63, Type (0, 1), BuildingBlock: ZUJKAS_clean_linker_0, # of connection points: 2
#     Edge 64, Type (0, 1), BuildingBlock: ZUJKAS_clean_linker_0, # of connection points: 2
#     Edge 65, Type (0, 1), BuildingBlock: ZUJKAS_clean_linker_0, # of connection points: 2
#     Edge 66, Type (0, 1), BuildingBlock: ZUJKAS_clean_linker_0, # of connection points: 2
#     Edge 67, Type (0, 1), BuildingBlock: ZUJKAS_clean_linker_0, # of connection points: 2
#     Edge 68, Type (0, 1), BuildingBlock: ZUJKAS_clean_linker_0, # of connection points: 2
#     Edge 69, Type (0, 1), BuildingBlock: ZUJKAS_clean_linker_0, # of connection points: 2
#     Edge 70, Type (0, 1), BuildingBlock: ZUJKAS_clean_linker_0, # of connection points: 2
#     Edge 71, Type (0, 1), BuildingBlock: ZUJKAS_clean_linker_0, # of connection points: 2
# Relax obj value: 0.117
# Max RMSD: 0.302
# Mean RMSD: 0.276
data_MOF--net-ssc--node1-CEKHIL_clean_sbu_0--node2-GIZVER_clean_linker_0--edge1-ZUJKAS_clean_linker_0
_symmetry_space_group_name_H-M    P1
_symmetry_Int_Tables_number       1
_symmetry_cell_setting            triclinic
loop_
_symmetry_equiv_pos_as_xyz
'x, y, z'
_cell_length_a     39.940465
_cell_length_b     40.043453
_cell_length_c     39.888896
_cell_angle_alpha  91.249059
_cell_angle_beta   89.907103
_cell_angle_gamma 93.172918
loop_
_atom_site_label
_atom_site_type_symbol
_atom_site_fract_x
_atom_site_fract_y
_atom_site_fract_z
_atom_type_partial_charge
Co0 Co 0.05504 0.24217 0.13117 0.0
O1 O 0.08785 0.25729 0.09842 0.0
O2 O 0.03877 0.27919 0.10702 0.0
C3 C 0.09047 0.23848 0.17487 0.0
O4 O 0.01521 0.23535 0.16272 0.0
Co5 Co 0.05612 0.17308 0.16467 0.0
O6 O 0.02261 0.1917 0.19578 0.0
C7 C 0.03237 0.17702 0.09484 0.0
C8 C 0.06694 0.27969 0.0907 0.0
C9 C 0.00673 0.21711 0.18783 0.0
O10 O 0.03403 0.20918 0.09738 0.0
O11 O 0.04223 0.15822 0.11803 0.0
O12 O 0.07953 0.26718 0.16668 0.0
O13 O 0.08241 0.21377 0.15455 0.0
Co14 Co 0.02616 0.7558 0.41971 0.0
O15 O 0.05349 0.74286 0.45656 0.0
O16 O 0.0055 0.71697 0.44062 0.0
C17 C 0.06813 0.76366 0.38243 0.0
O18 O 0.99172 0.75937 0.38246 0.0
Co19 Co 0.0337 0.82566 0.38732 0.0
O20 O 0.00348 0.8052 0.35226 0.0
C21 C 0.00551 0.81882 0.45536 0.0
C22 C 0.03111 0.71843 0.46071 0.0
C23 C 0.98696 0.77755 0.35687 0.0
O24 O 0.00189 0.78683 0.45091 0.0
O25 O 0.02035 0.83809 0.43416 0.0
O26 O 0.05562 0.73361 0.38795 0.0
O27 O 0.05699 0.78714 0.4013 0.0
Co28 Co 0.54307 0.75756 0.60673 0.0
O29 O 0.57538 0.76669 0.5718 0.0
O30 O 0.52799 0.79236 0.57859 0.0
C31 C 0.57979 0.75722 0.64966 0.0
O32 O 0.50418 0.75633 0.63993 0.0
Co33 Co 0.54282 0.69219 0.64682 0.0
O34 O 0.5109 0.71526 0.67635 0.0
C35 C 0.51687 0.68988 0.57767 0.0
C36 C 0.5555 0.78902 0.56169 0.0
C37 C 0.49588 0.74067 0.66678 0.0
O38 O 0.51951 0.72207 0.57723 0.0
O39 O 0.52706 0.67303 0.60222 0.0
O40 O 0.56971 0.7853 0.6387 0.0
O41 O 0.57006 0.73079 0.63236 0.0
Co42 Co 0.51746 0.27652 0.91426 0.0
O43 O 0.55365 0.26325 0.94211 0.0
O44 O 0.50331 0.23718 0.93852 0.0
C45 C 0.54757 0.28546 0.86721 0.0
O46 O 0.47464 0.28025 0.88733 0.0
Co47 Co 0.51548 0.34708 0.88388 0.0
O48 O 0.48167 0.32424 0.85364 0.0
C49 C 0.50226 0.33857 0.95598 0.0
C50 C 0.5333 0.23858 0.95117 0.0
C51 C 0.4661 0.29701 0.86188 0.0
O52 O 0.50137 0.3065 0.95181 0.0
O53 O 0.50978 0.3589 0.93247 0.0
O54 O 0.53756 0.2552 0.87514 0.0
O55 O 0.54206 0.30849 0.88938 0.0
Co56 Co 0.10037 0.01628 0.23373 0.0
O57 O 0.13341 0.98628 0.21769 0.0
O58 O 0.12812 0.00362 0.2704 0.0
C59 C 0.05524 0.9921 0.20714 0.0
O60 O 0.06931 0.04518 0.26049 0.0
Co61 Co 0.06307 0.06158 0.18573 0.0
O62 O 0.03667 0.07308 0.22616 0.0
C63 C 0.13336 0.0792 0.20291 0.0
C64 C 0.14397 0.9859 0.2485 0.0
C65 C 0.04528 0.06452 0.25537 0.0
O66 O 0.13218 0.05604 0.22484 0.0
O67 O 0.10928 0.0837 0.18266 0.0
O68 O 0.06601 0.97975 0.23476 0.0
O69 O 0.07415 0.01596 0.19465 0.0
Co70 Co 0.2635 0.9172 0.57165 0.0
O71 O 0.25646 0.95469 0.60163 0.0
O72 O 0.22725 0.94217 0.55545 0.0
C73 C 0.26788 0.87852 0.61149 0.0
O74 O 0.26124 0.88096 0.53504 0.0
Co75 Co 0.32835 0.87877 0.5705 0.0
O76 O 0.30305 0.84637 0.54026 0.0
C77 C 0.32869 0.94592 0.54156 0.0
C78 C 0.23257 0.96195 0.58135 0.0
C79 C 0.27597 0.85436 0.52645 0.0
O80 O 0.29668 0.94571 0.54523 0.0
O81 O 0.34636 0.92255 0.55208 0.0
O82 O 0.23859 0.8869 0.60146 0.0
O83 O 0.29332 0.89544 0.59919 0.0
Co84 Co 0.41428 0.05196 0.77883 0.0
O85 O 0.37699 0.07445 0.76073 0.0
O86 O 0.38568 0.06639 0.8147 0.0
C87 C 0.45497 0.07704 0.7474 0.0
O88 O 0.44964 0.03237 0.80795 0.0
Co89 Co 0.45821 0.00542 0.73648 0.0
O90 O 0.48786 0.00716 0.77646 0.0
C91 C 0.38911 0.98266 0.75407 0.0
C92 C 0.36702 0.07813 0.7916 0.0
C93 C 0.47755 0.01813 0.80465 0.0
O94 O 0.38744 0.00772 0.77476 0.0
O95 O 0.4142 0.97877 0.73464 0.0
O96 O 0.44388 0.09229 0.77402 0.0
O97 O 0.43928 0.04902 0.73932 0.0
Co98 Co 0.28286 0.09814 0.01961 0.0
O99 O 0.29502 0.06523 0.05138 0.0
O100 O 0.32104 0.07531 0.00324 0.0
C101 C 0.27667 0.14043 0.05719 0.0
O102 O 0.28014 0.13045 0.98112 0.0
Co103 Co 0.21436 0.13109 0.02048 0.0
O104 O 0.23701 0.16323 0.9895 0.0
C105 C 0.21818 0.06036 0.99867 0.0
C106 C 0.31922 0.05866 0.03081 0.0
C107 C 0.26372 0.15608 0.97401 0.0
O108 O 0.25045 0.06395 0.99719 0.0
O109 O 0.19982 0.08333 0.00992 0.0
O110 O 0.30636 0.13371 0.0464 0.0
O111 O 0.2525 0.11999 0.04711 0.0
Co112 Co 0.77905 0.40968 0.08743 0.0
O113 O 0.77096 0.45054 0.11185 0.0
O114 O 0.74258 0.43129 0.06713 0.0
C115 C 0.78332 0.37678 0.13214 0.0
O116 O 0.77784 0.36855 0.05658 0.0
Co117 Co 0.84521 0.37361 0.09325 0.0
O118 O 0.82108 0.33689 0.06719 0.0
C119 C 0.8445 0.43613 0.05587 0.0
C120 C 0.74703 0.45427 0.09041 0.0
C121 C 0.79355 0.3416 0.05236 0.0
O122 O 0.81226 0.43478 0.0578 0.0
O123 O 0.86255 0.41551 0.07066 0.0
O124 O 0.75404 0.38351 0.12067 0.0
O125 O 0.80871 0.39247 0.11829 0.0
Co126 Co 0.91308 0.57082 0.26458 0.0
O127 O 0.87966 0.59963 0.24854 0.0
O128 O 0.88739 0.58728 0.30174 0.0
C129 C 0.95624 0.59266 0.23418 0.0
O130 O 0.9449 0.54452 0.29193 0.0
Co131 Co 0.95096 0.52161 0.21935 0.0
O132 O 0.97918 0.51528 0.25945 0.0
C133 C 0.87892 0.50853 0.23373 0.0
C134 C 0.87102 0.60343 0.2798 0.0
C135 C 0.97008 0.5262 0.28809 0.0
O136 O 0.88059 0.53072 0.25768 0.0
O137 O 0.90338 0.50359 0.21376 0.0
O138 O 0.94777 0.60718 0.26219 0.0
O139 O 0.93726 0.56717 0.22458 0.0
Co140 Co 0.76519 0.59596 0.52923 0.0
O141 O 0.78399 0.56228 0.55625 0.0
O142 O 0.80024 0.5751 0.50474 0.0
C143 C 0.76466 0.63645 0.5692 0.0
O144 O 0.75502 0.62986 0.49409 0.0
Co145 Co 0.69679 0.62592 0.54318 0.0
O146 O 0.71111 0.6594 0.50924 0.0
C147 C 0.69888 0.55679 0.51676 0.0
C148 C 0.80407 0.55729 0.53112 0.0
C149 C 0.73605 0.65435 0.49021 0.0
O150 O 0.7305 0.56168 0.51093 0.0
O151 O 0.68152 0.57845 0.53185 0.0
O152 O 0.79212 0.63103 0.55289 0.0
O153 O 0.73944 0.61565 0.56294 0.0
Co154 Co 0.6018 0.49293 0.73815 0.0
O155 O 0.63974 0.47283 0.71777 0.0
O156 O 0.63248 0.47994 0.77246 0.0
C157 C 0.56104 0.46538 0.70769 0.0
O158 O 0.56588 0.51154 0.76851 0.0
Co159 Co 0.55652 0.5371 0.69673 0.0
O160 O 0.52641 0.53255 0.73623 0.0
C161 C 0.62366 0.56372 0.71705 0.0
C162 C 0.65108 0.46961 0.74797 0.0
C163 C 0.53693 0.52358 0.76464 0.0
O164 O 0.62634 0.53808 0.73554 0.0
O165 O 0.59861 0.56714 0.69766 0.0
O166 O 0.57419 0.45129 0.73323 0.0
O167 O 0.57549 0.49365 0.69928 0.0
H168 H 0.08085 0.29016 0.78667 0.0
H169 H 0.06229 0.28201 0.68009 0.0
H170 H 0.08957 0.19644 0.73389 0.0
H171 H 0.06481 0.33838 0.75903 0.0
H172 H 0.08292 0.33917 0.71826 0.0
H173 H 0.00269 0.3339 0.76612 0.0
H174 H 0.94463 0.35967 0.68118 0.0
H175 H 0.04826 0.33881 0.66795 0.0
C176 C 0.07773 0.27508 0.76388 0.0
C177 C 0.08533 0.24125 0.76409 0.0
C178 C 0.06788 0.28984 0.73389 0.0
C179 C 0.06715 0.27059 0.7038 0.0
C180 C 0.07416 0.23674 0.70413 0.0
C181 C 0.08226 0.22216 0.73433 0.0
C182 C 0.06252 0.32691 0.73342 0.0
C183 C 0.02903 0.33436 0.71853 0.0
C184 C 0.00069 0.33733 0.73934 0.0
C185 C 0.9703 0.34655 0.72566 0.0
C186 C 0.96798 0.35149 0.6912 0.0
C187 C 0.99576 0.34845 0.67003 0.0
C188 C 0.02637 0.34015 0.68391 0.0
H189 H 0.06596 0.7609 0.73395 0.0
H190 H 0.01625 0.76143 0.83058 0.0
H191 H 0.09701 0.83299 0.81029 0.0
H192 H 0.01079 0.7309 0.74035 0.0
H193 H 0.03207 0.70624 0.76836 0.0
H194 H 0.95385 0.74883 0.75319 0.0
H195 H 0.89922 0.68831 0.82504 0.0
H196 H 0.00639 0.68835 0.82149 0.0
C197 C 0.06254 0.77192 0.7587 0.0
C198 C 0.08381 0.7991 0.7693 0.0
C199 C 0.03721 0.75851 0.78011 0.0
C200 C 0.03438 0.77202 0.81303 0.0
C201 C 0.05593 0.79906 0.82356 0.0
C202 C 0.07992 0.81263 0.8015 0.0
C203 C 0.0162 0.72817 0.76749 0.0
C204 C 0.98375 0.72036 0.78604 0.0
C205 C 0.9534 0.73213 0.77421 0.0
C206 C 0.92252 0.7209 0.78825 0.0
C207 C 0.92271 0.69836 0.81476 0.0
C208 C 0.95265 0.68659 0.82692 0.0
C209 C 0.98321 0.69814 0.81291 0.0
H210 H 0.51806 0.72926 0.1814 0.0
H211 H 0.54154 0.75759 0.2841 0.0
H212 H 0.61457 0.71122 0.22238 0.0
H213 H 0.47364 0.74253 0.21987 0.0
H214 H 0.48269 0.75013 0.26349 0.0
H215 H 0.51837 0.79674 0.18777 0.0
H216 H 0.46941 0.88588 0.2145 0.0
H217 H 0.44782 0.79618 0.26941 0.0
C218 C 0.53589 0.73175 0.20188 0.0
C219 C 0.56796 0.71966 0.19772 0.0
C220 C 0.52639 0.74624 0.23276 0.0
C221 C 0.54913 0.74793 0.25983 0.0
C222 C 0.58087 0.73507 0.25598 0.0
C223 C 0.59029 0.72196 0.22478 0.0
C224 C 0.49089 0.75663 0.23764 0.0
C225 C 0.48721 0.79356 0.23242 0.0
C226 C 0.50281 0.81009 0.20515 0.0
C227 C 0.49668 0.84353 0.19903 0.0
C228 C 0.47473 0.86029 0.22001 0.0
C229 C 0.45543 0.84304 0.2441 0.0
C230 C 0.4628 0.81002 0.25116 0.0
H231 H 0.57736 0.26048 0.22441 0.0
H232 H 0.54622 0.2506 0.32773 0.0
H233 H 0.60254 0.3386 0.29688 0.0
H234 H 0.54659 0.21106 0.23919 0.0
H235 H 0.56116 0.19951 0.27908 0.0
H236 H 0.48682 0.22208 0.23059 0.0
H237 H 0.41799 0.18271 0.30441 0.0
H238 H 0.52322 0.1931 0.32689 0.0
C239 C 0.57517 0.27088 0.24959 0.0
C240 C 0.59092 0.30229 0.25741 0.0
C241 C 0.55796 0.25226 0.27455 0.0
C242 C 0.55746 0.26523 0.30775 0.0
C243 C 0.57345 0.29641 0.31559 0.0
C244 C 0.58931 0.31497 0.29029 0.0
C245 C 0.54467 0.21689 0.26651 0.0
C246 C 0.50895 0.20982 0.27801 0.0
C247 C 0.48204 0.21342 0.2558 0.0
C248 C 0.44928 0.20336 0.26536 0.0
C249 C 0.44328 0.19133 0.29763 0.0
C250 C 0.46965 0.18775 0.32014 0.0
C251 C 0.50253 0.19685 0.31008 0.0
H252 H 0.68369 0.98253 0.17609 0.0
H253 H 0.77224 0.02686 0.22506 0.0
H254 H 0.69912 0.08924 0.18385 0.0
H255 H 0.7248 0.94674 0.19479 0.0
H256 H 0.76647 0.96567 0.1977 0.0
H257 H 0.69242 0.97617 0.25643 0.0
H258 H 0.7402 0.92856 0.33713 0.0
H259 H 0.78673 0.93081 0.24016 0.0
C260 C 0.69839 0.0044 0.18525 0.0
C261 C 0.68752 0.0363 0.17901 0.0
C262 C 0.72859 0.00078 0.20264 0.0
C263 C 0.74827 0.02948 0.21298 0.0
C264 C 0.73773 0.06144 0.20601 0.0
C265 C 0.707 0.06455 0.18985 0.0
C266 C 0.74074 0.96633 0.20825 0.0
C267 C 0.74142 0.95787 0.24495 0.0
C268 C 0.71411 0.96447 0.26615 0.0
C269 C 0.71425 0.95474 0.29967 0.0
C270 C 0.74136 0.93798 0.31181 0.0
C271 C 0.76717 0.92858 0.29041 0.0
C272 C 0.76733 0.93888 0.25704 0.0
H273 H 0.18348 0.24435 0.62374 0.0
H274 H 0.21064 0.34178 0.58504 0.0
H275 H 0.28687 0.27931 0.61869 0.0
H276 H 0.1402 0.2782 0.60878 0.0
H277 H 0.15194 0.3214 0.6158 0.0
H278 H 0.15833 0.25789 0.54362 0.0
H279 H 0.1076 0.32015 0.47586 0.0
H280 H 0.12789 0.35521 0.57644 0.0
C281 C 0.20251 0.26268 0.61557 0.0
C282 C 0.23635 0.25755 0.62192 0.0
C283 C 0.19301 0.29259 0.6013 0.0
C284 C 0.21784 0.31776 0.59378 0.0
C285 C 0.25182 0.3124 0.59924 0.0
C286 C 0.26077 0.28205 0.61233 0.0
C287 C 0.15628 0.29943 0.59912 0.0
C288 C 0.14518 0.30611 0.56384 0.0
C289 C 0.14699 0.2812 0.5384 0.0
C290 C 0.13311 0.28603 0.50663 0.0
C291 C 0.11771 0.31591 0.50055 0.0
C292 C 0.11575 0.34085 0.52546 0.0
C293 C 0.12983 0.33608 0.557 0.0
H294 H 0.84177 0.01973 0.72875 0.0
H295 H 0.7473 0.97245 0.75943 0.0
H296 H 0.82728 0.91271 0.72614 0.0
H297 H 0.79461 0.05327 0.73848 0.0
H298 H 0.75376 0.03316 0.74407 0.0
H299 H 0.82977 0.02561 0.80021 0.0
H300 H 0.78664 0.08129 0.88081 0.0
H301 H 0.73653 0.07307 0.78586 0.0
C302 C 0.82646 0.9973 0.73417 0.0
C303 C 0.83886 0.96583 0.72696 0.0
C304 C 0.7938 -8e-05 0.74706 0.0
C305 C 0.77317 0.97066 0.75166 0.0
C306 C 0.78561 0.93918 0.74467 0.0
C307 C 0.81863 0.93705 0.73345 0.0
C308 C 0.78016 0.03401 0.75307 0.0
C309 C 0.78125 0.04503 0.78962 0.0
C310 C 0.80903 0.03907 0.81011 0.0
C311 C 0.81061 0.05141 0.8433 0.0
C312 C 0.78461 0.07014 0.85578 0.0
C313 C 0.7582 0.07838 0.83515 0.0
C314 C 0.75645 0.06577 0.80212 0.0
H315 H 0.29596 0.80932 0.07665 0.0
H316 H 0.26299 0.71743 0.02473 0.0
H317 H 0.19924 0.7623 0.09703 0.0
H318 H 0.32568 0.79254 0.02572 0.0
H319 H 0.33411 0.75486 0.04543 0.0
H320 H 0.30195 0.7916 0.96722 0.0
H321 H 0.32391 0.7056 0.90698 0.0
H322 H 0.33262 0.70243 0.01433 0.0
C323 C 0.27653 0.79014 0.07068 0.0
C324 C 0.2464 0.78937 0.08881 0.0
C325 C 0.28228 0.76526 0.04601 0.0
C326 C 0.25813 0.73836 0.04131 0.0
C327 C 0.22793 0.73789 0.05927 0.0
C328 C 0.2219 0.76393 0.0819 0.0
C329 C 0.31597 0.76616 0.02851 0.0
C330 C 0.31588 0.74844 0.99464 0.0
C331 C 0.30819 0.76562 0.96546 0.0
C332 C 0.31038 0.74977 0.93388 0.0
C333 C 0.32011 0.71672 0.93164 0.0
C334 C 0.32875 0.69945 0.96036 0.0
C335 C 0.32591 0.71534 0.99191 0.0
H336 H 0.71861 0.73225 0.09532 0.0
H337 H 0.71678 0.83879 0.08122 0.0
H338 H 0.80668 0.79626 0.11423 0.0
H339 H 0.66803 0.75367 0.07779 0.0
H340 H 0.66351 0.79271 0.09894 0.0
H341 H 0.68277 0.75364 0.01467 0.0
H342 H 0.63463 0.83021 0.96196 0.0
H343 H 0.64918 0.84054 0.06833 0.0
C344 C 0.73154 0.75674 0.0944 0.0
C345 C 0.76514 0.76063 0.10459 0.0
C346 C 0.71405 0.7847 0.08495 0.0
C347 C 0.73044 0.81686 0.08645 0.0
C348 C 0.764 0.82075 0.09666 0.0
C349 C 0.78121 0.79264 0.10484 0.0
C350 C 0.67692 0.78051 0.07794 0.0
C351 C 0.66748 0.79558 0.04517 0.0
C352 C 0.67155 0.77768 0.01473 0.0
C353 C 0.65947 0.7901 0.98471 0.0
C354 C 0.64412 0.82067 0.98516 0.0
C355 C 0.64055 0.83902 0.01507 0.0
C356 C 0.65258 0.82667 0.04504 0.0
H357 H 0.32927 0.52777 0.21912 0.0
H358 H 0.2346 0.4746 0.23855 0.0
H359 H 0.32207 0.42043 0.21724 0.0
H360 H 0.27093 0.55275 0.2121 0.0
H361 H 0.23612 0.53357 0.23421 0.0
H362 H 0.31054 0.52844 0.28662 0.0
H363 H 0.29738 0.62055 0.33989 0.0
H364 H 0.23851 0.59699 0.2517 0.0
C365 C 0.31483 0.50447 0.22312 0.0
C366 C 0.33015 0.47394 0.21888 0.0
C367 C 0.28062 0.505 0.23184 0.0
C368 C 0.26139 0.47452 0.23423 0.0
C369 C 0.27642 0.44393 0.22927 0.0
C370 C 0.31087 0.444 0.22284 0.0
C371 C 0.26387 0.538 0.23459 0.0
C372 C 0.27324 0.55975 0.26523 0.0
C373 C 0.29786 0.55155 0.28874 0.0
C374 C 0.30637 0.57356 0.31554 0.0
C375 C 0.29053 0.60363 0.31907 0.0
C376 C 0.26617 0.61231 0.29621 0.0
C377 C 0.2573 0.59021 0.26953 0.0
H378 H 0.75161 0.32364 0.55755 0.0
H379 H 0.75657 0.21706 0.54168 0.0
H380 H 0.66559 0.25787 0.57628 0.0
H381 H 0.80028 0.30381 0.53092 0.0
H382 H 0.80932 0.26939 0.55627 0.0
H383 H 0.77863 0.29063 0.46994 0.0
H384 H 0.82408 0.20671 0.42332 0.0
H385 H 0.83074 0.22147 0.52986 0.0
C386 C 0.7393 0.29884 0.55596 0.0
C387 C 0.70611 0.29405 0.56708 0.0
C388 C 0.75729 0.27134 0.54497 0.0
C389 C 0.74219 0.2387 0.5471 0.0
C390 C 0.70875 0.23404 0.55752 0.0
C391 C 0.69067 0.26186 0.56606 0.0
C392 C 0.79363 0.27685 0.53498 0.0
C393 C 0.8018 0.25706 0.50372 0.0
C394 C 0.79151 0.26765 0.47203 0.0
C395 C 0.79911 0.24913 0.443 0.0
C396 C 0.81655 0.22 0.4459 0.0
C397 C 0.82852 0.21033 0.4769 0.0
C398 C 0.82095 0.22868 0.5059 0.0
H399 H 0.15716 0.48591 0.7132 0.0
H400 H 0.25003 0.53556 0.7469 0.0
H401 H 0.1731 0.59235 0.70473 0.0
H402 H 0.20234 0.45305 0.72633 0.0
H403 H 0.24338 0.47347 0.7255 0.0
H404 H 0.17704 0.48736 0.79202 0.0
H405 H 0.22954 0.4344 0.86583 0.0
H406 H 0.26391 0.43419 0.76384 0.0
C407 C 0.1724 0.50875 0.71802 0.0
C408 C 0.16067 0.53946 0.70827 0.0
C409 C 0.20445 0.50718 0.7324 0.0
C410 C 0.22475 0.53678 0.73732 0.0
C411 C 0.21331 0.56752 0.72735 0.0
C412 C 0.18116 0.56867 0.71359 0.0
C413 C 0.21851 0.47354 0.73812 0.0
C414 C 0.22277 0.46557 0.77467 0.0
C415 C 0.19866 0.47386 0.79897 0.0
C416 C 0.20161 0.46313 0.83204 0.0
C417 C 0.22821 0.44367 0.84053 0.0
C418 C 0.24975 0.43164 0.81585 0.0
C419 C 0.2478 0.4438 0.78326 0.0
H420 H 0.11649 0.2791 0.04358 0.0
H421 H 0.13091 0.32169 0.00228 0.0
H422 H 0.05122 0.38091 0.03944 0.0
H423 H 0.03575 0.33758 0.07994 0.0
H424 H 0.05295 0.38284 0.97364 0.0
H425 H 0.18189 0.40851 0.02015 0.0
H426 H 0.17528 0.36503 0.00924 0.0
H427 H 0.15133 0.38298 0.04281 0.0
C428 C 0.10203 0.30118 0.04295 0.0
C429 C 0.07517 0.30512 0.06517 0.0
C430 C 0.11046 0.32568 0.0195 0.0
C431 C 0.09278 0.35504 0.01833 0.0
C432 C 0.06544 0.35866 0.04003 0.0
H433 H 0.19984 0.49803 0.8914 0.0
H434 H 0.16514 0.48138 0.93956 0.0
C435 C 0.05664 0.33388 0.06317 0.0
C436 C 0.10277 0.38157 0.99415 0.0
H437 H 0.17147 0.42505 0.96353 0.0
C438 C 0.07877 0.39253 0.97175 0.0
C439 C 0.13613 0.39528 0.99232 0.0
C440 C 0.16248 0.38762 0.01771 0.0
C441 C 0.08776 0.41499 0.9462 0.0
C442 C 0.12186 0.4259 0.94222 0.0
C443 C 0.14533 0.4166 0.96605 0.0
C444 C 0.13479 0.44363 0.91193 0.0
C445 C 0.06054 0.42657 0.92376 0.0
C446 C 0.12779 0.42984 0.87982 0.0
C447 C 0.14677 0.44032 0.85214 0.0
C448 C 0.17367 0.46411 0.85622 0.0
C449 C 0.17879 0.48011 0.88758 0.0
C450 C 0.15923 0.47023 0.91515 0.0
H451 H 0.03674 0.42866 0.93791 0.0
H452 H 0.06757 0.45116 0.91265 0.0
H453 H 0.05567 0.4078 0.90322 0.0
H454 H 0.10991 0.40873 0.87651 0.0
H455 H 0.14298 0.427 0.82838 0.0
H456 H 0.94097 0.7239 0.35991 0.0
H457 H 0.89968 0.70497 0.3172 0.0
H458 H 0.93505 0.78508 0.25344 0.0
H459 H 0.97572 0.80453 0.29591 0.0
H460 H 0.86731 0.78062 0.25951 0.0
H461 H 0.91532 0.65654 0.22667 0.0
H462 H 0.91044 0.66584 0.27079 0.0
H463 H 0.94073 0.68978 0.24681 0.0
C464 C 0.94004 0.73743 0.33675 0.0
C465 C 0.9617 0.76579 0.3314 0.0
C466 C 0.91662 0.72638 0.31227 0.0
C467 C 0.91473 0.74329 0.28194 0.0
C468 C 0.93622 0.77157 0.27662 0.0
H469 H 0.82865 0.74053 0.09434 0.0
H470 H 0.86361 0.72227 0.1398 0.0
C471 C 0.95943 0.78271 0.30103 0.0
C472 C 0.88934 0.73292 0.25618 0.0
H473 H 0.86603 0.67088 0.19922 0.0
C474 C 0.86639 0.75629 0.24701 0.0
C475 C 0.88926 0.70166 0.23892 0.0
C476 C 0.91536 0.67697 0.24595 0.0
C477 C 0.8433 0.74938 0.22112 0.0
C478 C 0.84292 0.71799 0.20403 0.0
C479 C 0.86577 0.69444 0.21313 0.0
C480 C 0.82213 0.71223 0.17364 0.0
C481 C 0.82073 0.77652 0.21093 0.0
C482 C 0.78709 0.70905 0.17646 0.0
C483 C 0.76704 0.72003 0.15067 0.0
C484 C 0.78207 0.73388 0.12188 0.0
C485 C 0.81657 0.73054 0.1166 0.0
C486 C 0.83659 0.72002 0.14255 0.0
H487 H 0.82534 0.80001 0.22597 0.0
H488 H 0.82461 0.7822 0.18404 0.0
H489 H 0.79407 0.76793 0.21414 0.0
H490 H 0.77547 0.70224 0.20002 0.0
H491 H 0.74048 0.72196 0.15533 0.0
H492 H 0.49346 0.71576 0.5197 0.0
H493 H 0.46177 0.68607 0.47485 0.0
H494 H 0.4698 0.59302 0.5258 0.0
H495 H 0.50186 0.62233 0.57075 0.0
H496 H 0.47942 0.58849 0.45435 0.0
H497 H 0.36374 0.65124 0.49022 0.0
H498 H 0.39922 0.67955 0.4825 0.0
H499 H 0.40005 0.65162 0.51713 0.0
C500 C 0.48873 0.68895 0.52137 0.0
C501 C 0.49991 0.67155 0.54913 0.0
C502 C 0.47055 0.67204 0.4957 0.0
C503 C 0.46302 0.63747 0.49733 0.0
C504 C 0.47526 0.61974 0.52419 0.0
H505 H 0.29757 0.55103 0.37854 0.0
H506 H 0.3384 0.55811 0.42429 0.0
C507 C 0.49351 0.63661 0.5499 0.0
C508 C 0.44093 0.62024 0.47182 0.0
H509 H 0.36233 0.62045 0.43873 0.0
C510 C 0.45372 0.59522 0.45102 0.0
C511 C 0.40726 0.62864 0.46802 0.0
C512 C 0.39157 0.65399 0.49083 0.0
C513 C 0.43396 0.57922 0.42559 0.0
C514 C 0.40077 0.5888 0.42079 0.0
C515 C 0.38778 0.61306 0.44238 0.0
C516 C 0.37934 0.57583 0.39252 0.0
C517 C 0.44874 0.55225 0.40418 0.0
C518 C 0.38923 0.58189 0.35928 0.0
C519 C 0.36602 0.57734 0.33312 0.0
C520 C 0.33266 0.56689 0.33994 0.0
C521 C 0.3234 0.55846 0.37274 0.0
C522 C 0.34662 0.56275 0.39883 0.0
H523 H 0.46945 0.54058 0.41739 0.0
H524 H 0.4294 0.53242 0.39694 0.0
H525 H 0.45921 0.56347 0.38096 0.0
H526 H 0.41403 0.59272 0.35384 0.0
H527 H 0.37336 0.58477 0.30809 0.0
H528 H 0.54845 0.34601 0.83716 0.0
H529 H 0.56681 0.3595 0.78061 0.0
H530 H 0.5959 0.25806 0.76506 0.0
H531 H 0.57492 0.2438 0.82089 0.0
H532 H 0.62333 0.36255 0.75416 0.0
H533 H 0.5492 0.2675 0.67964 0.0
H534 H 0.54118 0.27474 0.72363 0.0
H535 H 0.57323 0.24728 0.71024 0.0
C536 C 0.55826 0.3264 0.82154 0.0
C537 C 0.5599 0.29371 0.83331 0.0
C538 C 0.56883 0.33419 0.78915 0.0
C539 C 0.58207 0.30967 0.76807 0.0
C540 C 0.58455 0.27715 0.78018 0.0
H541 H 0.73095 0.32303 0.624 0.0
H542 H 0.69627 0.33765 0.67149 0.0
C543 C 0.57299 0.26909 0.81228 0.0
C544 C 0.5954 0.31875 0.73445 0.0
H545 H 0.59981 0.29069 0.65333 0.0
C546 C 0.61757 0.34711 0.73202 0.0
C547 C 0.58733 0.29946 0.70509 0.0
C548 C 0.56111 0.27082 0.70474 0.0
C549 C 0.63337 0.3554 0.70168 0.0
C550 C 0.62809 0.33413 0.6733 0.0
C551 C 0.60432 0.30698 0.67513 0.0
C552 C 0.64989 0.33659 0.64317 0.0
C553 C 0.65563 0.38688 0.70059 0.0
C554 C 0.63594 0.33326 0.61088 0.0
C555 C 0.65592 0.32465 0.58359 0.0
C556 C 0.69004 0.3192 0.58836 0.0
C557 C 0.70482 0.32746 0.61955 0.0
C558 C 0.68482 0.33565 0.64688 0.0
H559 H 0.64441 0.40666 0.71602 0.0
H560 H 0.68036 0.38217 0.71159 0.0
H561 H 0.65928 0.39614 0.67474 0.0
H562 H 0.60912 0.33418 0.60734 0.0
H563 H 0.64398 0.31824 0.55976 0.0
H564 H 0.08162 0.71566 0.50627 0.0
H565 H 0.09039 0.67143 0.54597 0.0
H566 H 0.99942 0.61825 0.51206 0.0
H567 H 0.99015 0.66278 0.47241 0.0
H568 H 0.00653 0.61916 0.58193 0.0
H569 H 0.12138 0.57873 0.51949 0.0
H570 H 0.12399 0.62295 0.5281 0.0
H571 H 0.0926 0.60527 0.49951 0.0
C572 C 0.06339 0.69465 0.5073 0.0
C573 C 0.03534 0.69261 0.48605 0.0
C574 C 0.06853 0.66928 0.52985 0.0
C575 C 0.04592 0.64124 0.53142 0.0
C576 C 0.0173 0.63955 0.511 0.0
H577 H 0.14045 0.49894 0.65515 0.0
H578 H 0.10097 0.51254 0.61146 0.0
C579 C 0.01209 0.66501 0.4884 0.0
C580 C 0.05259 0.61395 0.55456 0.0
H581 H 0.11546 0.56548 0.57805 0.0
C582 C 0.03003 0.60683 0.58081 0.0
C583 C 0.08257 0.59688 0.55237 0.0
C584 C 0.10632 0.60105 0.5231 0.0
C585 C 0.03828 0.58549 0.60671 0.0
C586 C 0.07016 0.57169 0.6066 0.0
C587 C 0.09118 0.57634 0.57861 0.0
C588 C 0.08476 0.55716 0.63688 0.0
C589 C 0.01315 0.57872 0.6343 0.0
C590 C 0.08726 0.57647 0.66669 0.0
C591 C 0.10938 0.56841 0.69193 0.0
C592 C 0.12995 0.54128 0.68758 0.0
C593 C 0.1249 0.51994 0.65935 0.0
C594 C 0.10245 0.52783 0.63421 0.0
H595 H 0.98715 0.57817 0.62436 0.0
H596 H 0.01703 0.55461 0.64658 0.0
H597 H 0.01559 0.59922 0.65346 0.0
H598 H 0.0745 0.59954 0.66928 0.0
H599 H 0.11245 0.58507 0.7136 0.0
H600 H 0.58937 0.8061 0.69775 0.0
H601 H 0.61583 0.80186 0.75233 0.0
H602 H 0.63937 0.70029 0.72828 0.0
H603 H 0.6112 0.70382 0.67407 0.0
H604 H 0.61658 0.70084 0.78625 0.0
H605 H 0.70827 0.80819 0.78419 0.0
H606 H 0.66765 0.82336 0.77731 0.0
H607 H 0.68493 0.79476 0.74718 0.0
C608 C 0.60058 0.78298 0.70388 0.0
C609 C 0.59825 0.75533 0.6816 0.0
C610 C 0.61615 0.7807 0.73501 0.0
C611 C 0.6307 0.75104 0.74419 0.0
C612 C 0.62884 0.72356 0.72163 0.0
H613 H 0.71459 0.77512 0.94773 0.0
H614 H 0.71464 0.75636 0.8885 0.0
C615 C 0.61261 0.72558 0.69073 0.0
C616 C 0.64455 0.74777 0.77857 0.0
H617 H 0.68857 0.79149 0.84003 0.0
C618 C 0.63301 0.72034 0.79767 0.0
C619 C 0.66674 0.77255 0.79365 0.0
C620 C 0.68284 0.80111 0.77426 0.0
C621 C 0.64057 0.71859 0.83191 0.0
C622 C 0.65947 0.74535 0.84775 0.0
C623 C 0.67356 0.77119 0.8281 0.0
C624 C 0.66056 0.74977 0.88482 0.0
C625 C 0.62729 0.68854 0.85097 0.0
C626 C 0.63032 0.75148 0.9026 0.0
C627 C 0.63034 0.76199 0.93613 0.0
C628 C 0.66058 0.77116 0.95259 0.0
C629 C 0.69103 0.76765 0.93559 0.0
C630 C 0.69102 0.75717 0.9018 0.0
H631 H 0.6261 0.66572 0.83456 0.0
H632 H 0.64305 0.68402 0.87315 0.0
H633 H 0.60139 0.6927 0.85961 0.0
H634 H 0.60647 0.74687 0.88997 0.0
H635 H 0.60657 0.76496 0.94869 0.0
H636 H 0.49166 0.40386 0.97139 0.0
H637 H 0.47627 0.42809 0.02517 0.0
H638 H 0.47896 0.33139 0.07037 0.0
H639 H 0.49368 0.30648 0.016 0.0
H640 H 0.4231 0.36053 0.08587 0.0
H641 H 0.52816 0.4535 0.10841 0.0
H642 H 0.51031 0.4588 0.06782 0.0
H643 H 0.53004 0.42059 0.0769 0.0
C644 C 0.48938 0.38764 0.99275 0.0
C645 C 0.49391 0.35312 0.98927 0.0
C646 C 0.48094 0.40171 0.02368 0.0
C647 C 0.47733 0.3818 0.05207 0.0
C648 C 0.48205 0.34734 0.04887 0.0
H649 H 0.3809 0.43675 0.24027 0.0
H650 H 0.42554 0.41621 0.20446 0.0
C651 C 0.49029 0.33311 0.01775 0.0
C652 C 0.46509 0.39656 0.08396 0.0
H653 H 0.47568 0.4649 0.13662 0.0
C654 C 0.43505 0.38286 0.09745 0.0
C655 C 0.48073 0.42571 0.09916 0.0
C656 C 0.51429 0.44024 0.08749 0.0
C657 C 0.41914 0.39866 0.12429 0.0
C658 C 0.43374 0.42887 0.13809 0.0
C659 C 0.46453 0.44183 0.12577 0.0
C660 C 0.41535 0.44832 0.16327 0.0
C661 C 0.38589 0.38384 0.13668 0.0
C662 C 0.3966 0.47478 0.15272 0.0
C663 C 0.3711 0.48655 0.1731 0.0
C664 C 0.36407 0.47185 0.20417 0.0
C665 C 0.38574 0.44836 0.21632 0.0
C666 C 0.41118 0.43657 0.19592 0.0
H667 H 0.37639 0.36205 0.12104 0.0
H668 H 0.38873 0.37546 0.16281 0.0
H669 H 0.36683 0.40301 0.13686 0.0
H670 H 0.39952 0.48408 0.12752 0.0
H671 H 0.35467 0.50447 0.163 0.0
H672 H 0.99146 0.19915 0.25188 0.0
H673 H 0.94172 0.2115 0.28423 0.0
H674 H 0.90372 0.26497 0.20089 0.0
H675 H 0.9544 0.25397 0.16884 0.0
H676 H 0.8893 0.29681 0.25398 0.0
H677 H 0.85283 0.16533 0.27818 0.0
H678 H 0.89413 0.17394 0.29456 0.0
H679 H 0.88678 0.17668 0.25012 0.0
C680 C 0.97248 0.21344 0.24035 0.0
C681 C 0.97672 0.22523 0.20763 0.0
C682 C 0.94381 0.22022 0.25878 0.0
C683 C 0.91815 0.238 0.24458 0.0
C684 C 0.9228 0.25071 0.21225 0.0
H685 H 0.76068 0.22365 0.39114 0.0
H686 H 0.77759 0.2277 0.33238 0.0
C687 C 0.95182 0.24441 0.19396 0.0
C688 C 0.88717 0.244 0.26413 0.0
H689 H 0.83305 0.20588 0.31915 0.0
C690 C 0.87656 0.27679 0.26774 0.0
C691 C 0.86922 0.21788 0.28097 0.0
C692 C 0.87613 0.18149 0.27535 0.0
C693 C 0.85086 0.28453 0.29027 0.0
C694 C 0.8362 0.25906 0.31052 0.0
C695 C 0.84453 0.22582 0.30433 0.0
C696 C 0.81687 0.2663 0.34158 0.0
C697 C 0.84031 0.32005 0.29255 0.0
C698 C 0.83106 0.28876 0.36592 0.0
C699 C 0.82058 0.28716 0.39931 0.0
C700 C 0.79637 0.26254 0.40901 0.0
C701 C 0.77912 0.24312 0.38414 0.0
C702 C 0.78912 0.2452 0.35059 0.0
H703 H 0.84049 0.3312 0.26729 0.0
H704 H 0.81489 0.32163 0.30357 0.0
H705 H 0.85856 0.33529 0.30825 0.0
H706 H 0.85291 0.30481 0.36015 0.0
H707 H 0.83467 0.30194 0.41811 0.0
H708 H 0.01063 0.12129 0.26001 0.0
H709 H 0.97858 0.14124 0.30792 0.0
H710 H 0.00453 0.05538 0.36401 0.0
H711 H 0.03783 0.03609 0.31666 0.0
H712 H 0.92534 0.11304 0.33446 0.0
H713 H 0.02261 0.1276 0.43319 0.0
H714 H 0.0327 0.12062 0.38962 0.0
H715 H 0.01937 0.08602 0.41542 0.0
C716 C 0.00976 0.10685 0.28268 0.0
C717 C 0.02672 0.07714 0.28462 0.0
C718 C 0.99151 0.11828 0.31007 0.0
C719 C 0.98949 0.10005 0.33979 0.0
C720 C 0.00646 0.07038 0.34177 0.0
H721 H 0.81999 0.14295 0.46682 0.0
H722 H 0.86221 0.10868 0.44058 0.0
C723 C 0.02526 0.05925 0.31458 0.0
C724 C 0.96764 0.11096 0.3676 0.0
H725 H 0.96586 0.13078 0.45134 0.0
C726 C 0.93424 0.1169 0.36001 0.0
C727 C 0.97936 0.11632 0.40088 0.0
C728 C 0.01556 0.11265 0.41023 0.0
C729 C 0.91234 0.12852 0.38451 0.0
C730 C 0.92365 0.13276 0.41809 0.0
C731 C 0.95701 0.12662 0.42582 0.0
C732 C 0.90215 0.1474 0.44427 0.0
C733 C 0.87784 0.13772 0.37366 0.0
C734 C 0.91178 0.17878 0.45861 0.0
C735 C 0.88804 0.19775 0.47478 0.0
C736 C 0.85444 0.18565 0.47638 0.0
C737 C 0.84587 0.15258 0.46607 0.0
C738 C 0.86983 0.13328 0.4506 0.0
H739 H 0.87612 0.14029 0.34605 0.0
H740 H 0.85904 0.11779 0.38105 0.0
H741 H 0.87103 0.16166 0.38574 0.0
H742 H 0.93666 0.19005 0.45431 0.0
H743 H 0.89503 0.22339 0.48219 0.0
H744 H 0.3243 0.86373 0.64576 0.0
H745 H 0.33131 0.81637 0.68263 0.0
H746 H 0.22793 0.78323 0.66584 0.0
H747 H 0.22051 0.83106 0.63029 0.0
H748 H 0.24624 0.77595 0.73017 0.0
H749 H 0.34225 0.72301 0.64612 0.0
H750 H 0.35061 0.76449 0.66309 0.0
H751 H 0.31741 0.75675 0.63326 0.0
C752 C 0.3031 0.8463 0.65004 0.0
C753 C 0.27199 0.85071 0.63467 0.0
C754 C 0.30718 0.81922 0.67103 0.0
C755 C 0.28041 0.79571 0.67635 0.0
C756 C 0.24905 0.80089 0.66198 0.0
H757 H 0.23286 0.60034 0.67205 0.0
H758 H 0.25941 0.65632 0.66889 0.0
C759 C 0.24485 0.82814 0.64146 0.0
C760 C 0.28471 0.76449 0.69501 0.0
H761 H 0.31792 0.68807 0.68624 0.0
C762 C 0.26223 0.7568 0.72112 0.0
C763 C 0.30621 0.73981 0.68335 0.0
C764 C 0.33042 0.74612 0.65482 0.0
C765 C 0.2575 0.72412 0.73297 0.0
C766 C 0.27729 0.69878 0.7195 0.0
C767 C 0.30273 0.70751 0.69642 0.0
C768 C 0.26685 0.66276 0.7225 0.0
C769 C 0.22894 0.71638 0.75693 0.0
C770 C 0.26333 0.64699 0.75361 0.0
C771 C 0.24777 0.61473 0.75542 0.0
C772 C 0.23582 0.59804 0.72612 0.0
C773 C 0.24172 0.61287 0.69499 0.0
C774 C 0.25701 0.64483 0.69319 0.0
H775 H 0.21345 0.7382 0.76158 0.0
H776 H 0.21236 0.69535 0.74689 0.0
H777 H 0.23899 0.70881 0.78134 0.0
H778 H 0.2713 0.66004 0.77651 0.0
H779 H 0.24347 0.60365 0.77968 0.0
H780 H 0.47263 0.04938 0.86617 0.0
H781 H 0.5048 0.03955 0.91688 0.0
H782 H 0.5593 0.96544 0.86277 0.0
H783 H 0.52833 0.97597 0.81201 0.0
H784 H 0.50575 0.98688 0.9524 0.0
H785 H 0.63518 0.01273 0.91086 0.0
H786 H 0.59999 0.02569 0.88696 0.0
H787 H 0.61548 0.98447 0.88061 0.0
C788 C 0.49183 0.03132 0.865 0.0
C789 C 0.49795 0.01347 0.835 0.0
C790 C 0.51026 0.02583 0.89399 0.0
C791 C 0.53508 0.00233 0.89356 0.0
C792 C 0.54123 0.98463 0.86356 0.0
H793 H 0.57626 0.84467 0.99699 0.0
H794 H 0.55058 0.8953 0.98021 0.0
C795 C 0.52319 0.9904 0.83453 0.0
C796 C 0.55219 0.99331 0.92488 0.0
H797 H 0.62697 0.96612 0.95075 0.0
C798 C 0.53247 0.9833 0.95248 0.0
C799 C 0.58726 0.99001 0.92611 0.0
C800 C 0.61063 0.00426 0.89964 0.0
C801 C 0.54621 0.96601 0.97893 0.0
C802 C 0.58008 0.95752 0.97702 0.0
C803 C 0.6007 0.97162 0.95188 0.0
C804 C 0.5925 0.9289 0.99553 0.0
C805 C 0.52378 0.95541 0.00765 0.0
C806 C 0.62451 0.93067 0.01039 0.0
C807 C 0.63938 0.90138 0.01979 0.0
C808 C 0.62247 0.87011 0.01416 0.0
C809 C 0.58961 0.86861 0.00173 0.0
C810 C 0.57481 0.89767 0.99244 0.0
H811 H 0.50684 0.97558 0.01446 0.0
H812 H 0.50777 0.9331 -0.00025 0.0
H813 H 0.53833 0.9493 0.03019 0.0
H814 H 0.63876 0.95441 0.01277 0.0
H815 H 0.66491 0.90295 0.02907 0.0
H816 H 0.21624 0.16059 0.07919 0.0
H817 H 0.20488 0.21131 0.11142 0.0
H818 H 0.31078 0.23874 0.11479 0.0
H819 H 0.32221 0.18892 0.0809 0.0
H820 H 0.22426 0.2333 0.17387 0.0
H821 H 0.27221 0.32192 0.07816 0.0
H822 H 0.26495 0.27776 0.06926 0.0
H823 H 0.30292 0.29331 0.0899 0.0
C824 C 0.23714 0.17754 0.08655 0.0
C825 C 0.27016 0.17083 0.07736 0.0
C826 C 0.23058 0.20642 0.10514 0.0
C827 C 0.25689 0.229 0.11518 0.0
C828 C 0.28998 0.22201 0.10669 0.0
H829 H 0.28464 0.3842 0.25887 0.0
H830 H 0.26919 0.32949 0.23345 0.0
C831 C 0.29652 0.19343 0.08752 0.0
C832 C 0.24969 0.2601 0.1341 0.0
H833 H 0.26331 0.34487 0.13297 0.0
C834 C 0.23258 0.25774 0.16487 0.0
C835 C 0.25953 0.29203 0.12183 0.0
C836 C 0.27558 0.29651 0.08781 0.0
C837 C 0.22669 0.28646 0.18447 0.0
C838 C 0.23863 0.31814 0.17319 0.0
C839 C 0.25427 0.32054 0.14172 0.0
C840 C 0.23846 0.34893 0.19454 0.0
C841 C 0.20786 0.28277 0.21706 0.0
C842 C 0.2249 0.37789 0.18224 0.0
C843 C 0.23368 0.40922 0.19686 0.0
C844 C 0.25646 0.412 0.2237 0.0
C845 C 0.26687 0.38267 0.23832 0.0
C846 C 0.25801 0.35136 0.22379 0.0
H847 H 0.19212 0.25902 0.21743 0.0
H848 H 0.22613 0.28262 0.23796 0.0
H849 H 0.19156 0.304 0.22155 0.0
H850 H 0.20987 0.37656 0.15962 0.0
H851 H 0.22562 0.43142 0.18484 0.0
H852 H 0.00744 0.94859 0.2331 0.0
H853 H 0.9526 0.93139 0.20906 0.0
H854 H 0.97316 0.99468 0.12462 0.0
H855 H 0.02805 0.01227 0.14857 0.0
H856 H 0.89826 0.98131 0.18294 0.0
H857 H 0.95051 0.89095 0.09105 0.0
H858 H 0.97182 0.90195 0.12998 0.0
H859 H 0.97112 0.93183 0.09725 0.0
C860 C 0.00031 0.9589 0.20944 0.0
C861 C 0.02213 0.98165 0.19264 0.0
C862 C 0.96893 0.94917 0.19585 0.0
C863 C 0.95895 0.96183 0.16516 0.0
C864 C 0.9805 0.9847 0.14838 0.0
H865 H 0.79385 0.8633 0.05175 0.0
H866 H 0.83739 0.90728 0.06525 0.0
C867 C 0.01183 0.99463 0.16206 0.0
C868 C 0.92646 0.94994 0.15022 0.0
H869 H 0.8921 0.89183 0.09486 0.0
C870 C 0.89677 0.96206 0.16335 0.0
C871 C 0.92476 0.92519 0.12446 0.0
C872 C 0.95613 0.91148 0.10971 0.0
C873 C 0.86521 0.94925 0.15201 0.0
C874 C 0.86342 0.92301 0.12755 0.0
C875 C 0.89329 0.91203 0.11346 0.0
C876 C 0.83156 0.90362 0.11908 0.0
C877 C 0.83424 0.96377 0.16669 0.0
C878 C 0.81272 0.88805 0.14471 0.0
C879 C 0.7876 0.86351 0.13695 0.0
C880 C 0.78106 0.85381 0.10347 0.0
C881 C 0.79804 0.87094 0.0777 0.0
C882 C 0.82309 0.89579 0.08546 0.0
H883 H 0.83895 0.99072 0.17327 0.0
H884 H 0.81267 0.96102 0.14913 0.0
H885 H 0.82743 0.95068 0.19017 0.0
H886 H 0.81921 0.89276 0.17079 0.0
H887 H 0.7753 0.85 0.15721 0.0
H888 H 0.22496 0.86779 0.48344 0.0
H889 H 0.20319 0.83314 0.43604 0.0
H890 H 0.27288 0.75833 0.45864 0.0
H891 H 0.29471 0.7925 0.50588 0.0
H892 H 0.2389 0.81047 0.37946 0.0
H893 H 0.18251 0.70435 0.44964 0.0
H894 H 0.19235 0.74492 0.46902 0.0
H895 H 0.22434 0.7152 0.46398 0.0
C896 C 0.23544 0.8438 0.47854 0.0
C897 C 0.2616 0.83291 0.49859 0.0
C898 C 0.22297 0.82409 0.45139 0.0
C899 C 0.23605 0.79297 0.44414 0.0
C900 C 0.26195 0.78199 0.4642 0.0
H901 H 0.29803 0.67355 0.29773 0.0
H902 H 0.27812 0.72341 0.32519 0.0
C903 C 0.27457 0.80169 0.49111 0.0
C904 C 0.22434 0.77227 0.41471 0.0
H905 H 0.20263 0.69118 0.3936 0.0
C906 C 0.23011 0.78458 0.38239 0.0
C907 C 0.21159 0.73894 0.41834 0.0
C908 C 0.20195 0.7252 0.45214 0.0
C909 C 0.22731 0.76322 0.35397 0.0
C910 C 0.21925 0.72867 0.35821 0.0
C911 C 0.20947 0.71747 0.39011 0.0
C912 C 0.22728 0.70292 0.33239 0.0
C913 C 0.23464 0.77765 0.31997 0.0
C914 C 0.20521 0.67485 0.32602 0.0
C915 C 0.21689 0.64592 0.31056 0.0
C916 C 0.25076 0.64478 0.30137 0.0
C917 C 0.27176 0.67395 0.30451 0.0
C918 C 0.26021 0.70266 0.31999 0.0
H919 H 0.22494 0.80304 0.3184 0.0
H920 H 0.26219 0.78031 0.31625 0.0
H921 H 0.22345 0.76159 0.29941 0.0
H922 H 0.17972 0.67438 0.33541 0.0
H923 H 0.20033 0.62361 0.30862 0.0
H924 H 0.49707 0.13232 0.76094 0.0
H925 H 0.54597 0.15221 0.72808 0.0
H926 H 0.52858 0.06959 0.65793 0.0
H927 H 0.48043 0.0493 0.69079 0.0
H928 H 0.59565 0.08052 0.67396 0.0
H929 H 0.53948 0.19895 0.63897 0.0
H930 H 0.54218 0.19223 0.6832 0.0
H931 H 0.51515 0.16488 0.65764 0.0
C932 C 0.50374 0.11843 0.73854 0.0
C933 C 0.48476 0.08941 0.72832 0.0
C934 C 0.53159 0.12985 0.71973 0.0
C935 C 0.54063 0.11261 0.69029 0.0
C936 C 0.52207 0.0833 0.68052 0.0
H937 H 0.65433 0.20101 0.52944 0.0
H938 H 0.61524 0.16371 0.56014 0.0
C939 C 0.49444 0.07183 0.6993 0.0
C940 C 0.56875 0.12533 0.66888 0.0
H941 H 0.59448 0.19099 0.62035 0.0
C942 C 0.59545 0.10468 0.66221 0.0
C943 C 0.56824 0.15669 0.65331 0.0
C944 C 0.53964 0.17942 0.65833 0.0
C945 C 0.62169 0.11462 0.64042 0.0
C946 C 0.62123 0.14607 0.6251 0.0
C947 C 0.59462 0.16672 0.63191 0.0
C948 C 0.64828 0.15898 0.60252 0.0
C949 C 0.64935 0.09125 0.63352 0.0
C950 C 0.68067 0.1667 0.61508 0.0
C951 C 0.70327 0.18749 0.59718 0.0
C952 C 0.69352 0.20112 0.56678 0.0
C953 C 0.66257 0.19032 0.55254 0.0
C954 C 0.64011 0.16938 0.57029 0.0
H955 H 0.64174 0.0651 0.6401 0.0
H956 H 0.65689 0.09175 0.60672 0.0
H957 H 0.67158 0.0994 0.64888 0.0
H958 H 0.68736 0.1594 0.64007 0.0
H959 H 0.72667 0.19611 0.609 0.0
H960 H 0.24271 0.2177 0.9597 0.0
H961 H 0.26485 0.25623 0.9178 0.0
H962 H 0.33681 0.18558 0.88632 0.0
H963 H 0.31449 0.14615 0.92844 0.0
H964 H 0.34637 0.27528 0.91182 0.0
H965 H 0.28033 0.22209 0.79959 0.0
H966 H 0.2556 0.21905 0.83696 0.0
H967 H 0.29348 0.19659 0.83346 0.0
C968 C 0.26312 0.21007 0.94388 0.0
C969 C 0.27675 0.17875 0.94749 0.0
C970 C 0.27581 0.2322 0.91999 0.0
C971 C 0.3025 0.22373 0.89921 0.0
C972 C 0.31625 0.1925 0.90231 0.0
H973 H 0.31411 0.41654 0.79641 0.0
H974 H 0.34199 0.36413 0.8071 0.0
C975 C 0.30344 0.1701 0.92635 0.0
C976 C 0.31526 0.24865 0.87495 0.0
H977 H 0.28428 0.28296 0.80522 0.0
C978 C 0.33453 0.27654 0.88746 0.0
C979 C 0.30044 0.24996 0.84299 0.0
C980 C 0.28161 0.22009 0.82727 0.0
C981 C 0.33503 0.3072 0.871 0.0
C982 C 0.31498 0.30987 0.84219 0.0
C983 C 0.29972 0.28085 0.82735 0.0
C984 C 0.30015 0.34179 0.83474 0.0
C985 C 0.35303 0.33755 0.88691 0.0
C986 C 0.26768 0.34616 0.84661 0.0
C987 C 0.25193 0.37538 0.84053 0.0
C988 C 0.26837 0.40141 0.82274 0.0
C989 C 0.301 0.39704 0.81049 0.0
C990 C 0.31692 0.36729 0.81658 0.0
H991 H 0.37137 0.33058 0.90611 0.0
H992 H 0.36642 0.35258 0.86748 0.0
H993 H 0.33445 0.35349 0.89912 0.0
H994 H 0.25431 0.32664 0.86053 0.0
H995 H 0.2264 0.37722 0.84932 0.0
H996 H 0.38121 0.05294 0.00285 0.0
H997 H 0.42504 0.01676 0.02062 0.0
H998 H 0.35788 0.97356 0.09479 0.0
H999 H 0.31459 0.01062 0.07811 0.0
H1000 H 0.41611 0.99287 0.12148 0.0
H1001 H 0.43967 0.91905 0.00511 0.0
H1002 H 0.44341 0.96362 0.00066 0.0
H1003 H 0.40333 0.94353 0.01031 0.0
C1004 C 0.37569 0.03539 0.02266 0.0
C1005 C 0.34452 0.03463 0.03919 0.0
C1006 C 0.40071 0.01455 0.03261 0.0
C1007 C 0.39468 0.9921 0.05877 0.0
C1008 C 0.36314 0.99068 0.07454 0.0
H1009 H 0.47027 0.82364 0.13949 0.0
H1010 H 0.4554 0.86307 0.09714 0.0
C1011 C 0.33839 0.01185 0.065 0.0
C1012 C 0.42168 0.97187 0.07185 0.0
H1013 H 0.47383 0.90952 0.05186 0.0
C1014 C 0.42894 0.97482 0.10618 0.0
C1015 C 0.4384 0.94838 0.0518 0.0
C1016 C 0.4307 0.94313 0.01499 0.0
C1017 C 0.45097 0.95386 0.12152 0.0
C1018 C 0.46777 0.93021 0.1016 0.0
C1019 C 0.46157 0.92813 0.06692 0.0
C1020 C 0.48715 0.90416 0.11747 0.0
C1021 C 0.4539 0.9557 0.15932 0.0
C1022 C 0.5128 0.913 0.14062 0.0
C1023 C 0.52081 0.89056 0.1654 0.0
C1024 C 0.5041 0.85879 0.16632 0.0
C1025 C 0.48356 0.84798 0.13923 0.0
C1026 C 0.47484 0.87067 0.11508 0.0
H1027 H 0.43407 0.97047 0.17108 0.0
H1028 H 0.45204 0.93028 0.16999 0.0
H1029 H 0.47852 0.96794 0.16647 0.0
H1030 H 0.52353 0.93842 0.14212 0.0
H1031 H 0.53672 0.89942 0.18607 0.0
H1032 H 0.81541 0.48429 0.0198 0.0
H1033 H 0.84331 0.52678 0.98492 0.0
H1034 H 0.93961 0.49104 0.01072 0.0
H1035 H 0.91201 0.44807 0.04538 0.0
H1036 H 0.89185 0.578 0.00236 0.0
H1037 H 0.93998 0.48851 0.90757 0.0
H1038 H 0.90814 0.4763 0.93774 0.0
H1039 H 0.95125 0.48179 0.95041 0.0
C1040 C 0.84256 0.48534 0.0181 0.0
C1041 C 0.86142 0.46248 0.03525 0.0
C1042 C 0.85842 0.50976 0.9982 0.0
C1043 C 0.89347 0.5118 0.99493 0.0
C1044 C 0.91248 0.48952 0.01246 0.0
H1045 H 0.987 0.68394 0.88636 0.0
H1046 H 0.97909 0.64122 0.92966 0.0
C1047 C 0.89665 0.46502 0.03237 0.0
C1048 C 0.90974 0.5371 0.97276 0.0
H1049 H 0.95192 0.54578 0.89866 0.0
C1050 C 0.90537 0.57106 0.97988 0.0
C1051 C 0.92724 0.52783 0.94344 0.0
C1052 C 0.93182 0.49165 0.93404 0.0
C1053 C 0.91704 0.596 0.95786 0.0
C1054 C 0.9339 0.58668 0.92818 0.0
C1055 C 0.93929 0.55281 0.92164 0.0
C1056 C 0.94182 0.61102 0.90148 0.0
C1057 C 0.90969 0.63192 0.96559 0.0
C1058 C 0.92442 0.60747 0.87103 0.0
C1059 C 0.92894 0.63154 0.84652 0.0
C1060 C 0.95103 0.65969 0.8519 0.0
C1061 C 0.96974 0.66251 0.88173 0.0
C1062 C 0.96508 0.63832 0.90647 0.0
H1063 H 0.89221 0.63427 0.9871 0.0
H1064 H 0.93343 0.64639 0.97187 0.0
H1065 H 0.89863 0.64341 0.94338 0.0
H1066 H 0.9065 0.58652 0.86662 0.0
H1067 H 0.91463 0.62847 0.8235 0.0
H1068 H 0.8245 0.62967 0.23972 0.0
H1069 H 0.77829 0.66354 0.25666 0.0
H1070 H 0.81049 0.66142 0.35979 0.0
H1071 H 0.85629 0.62625 0.343 0.0
H1072 H 0.7448 0.64951 0.35618 0.0
H1073 H 0.77668 0.75976 0.28064 0.0
H1074 H 0.77459 0.72347 0.25404 0.0
H1075 H 0.80595 0.72747 0.28646 0.0
C1076 C 0.82192 0.63659 0.26597 0.0
C1077 C 0.84394 0.62523 0.29001 0.0
C1078 C 0.79566 0.65627 0.27564 0.0
C1079 C 0.79128 0.6657 0.30947 0.0
C1080 C 0.81347 0.65464 0.33355 0.0
H1081 H 0.61884 0.78304 0.29112 0.0
H1082 H 0.66994 0.77263 0.32258 0.0
C1083 C 0.83957 0.63453 0.32391 0.0
C1084 C 0.76211 0.68519 0.3194 0.0
H1085 H 0.71692 0.74851 0.29147 0.0
C1086 C 0.73897 0.67168 0.34267 0.0
C1087 C 0.75493 0.71492 0.30309 0.0
C1088 C 0.7797 0.73241 0.28004 0.0
C1089 C 0.70718 0.68467 0.34667 0.0
C1090 C 0.69825 0.7115 0.32649 0.0
C1091 C 0.7231 0.72758 0.30666 0.0
C1092 C 0.66268 0.71857 0.3196 0.0
C1093 C 0.68304 0.66839 0.37128 0.0
C1094 C 0.64034 0.69194 0.30943 0.0
C1095 C 0.61089 0.69797 0.29256 0.0
C1096 C 0.60354 0.73069 0.28454 0.0
C1097 C 0.62389 0.75762 0.29738 0.0
C1098 C 0.65319 0.75159 0.31511 0.0
H1099 H 0.69665 0.65945 0.3933 0.0
H1100 H 0.664 0.68582 0.37998 0.0
H1101 H 0.67013 0.64598 0.3593 0.0
H1102 H 0.64716 0.66627 0.31109 0.0
H1103 H 0.5957 0.67683 0.28248 0.0
H1104 H 0.63153 0.53997 0.51842 0.0
H1105 H 0.60247 0.48841 0.49776 0.0
H1106 H 0.697 0.44968 0.46846 0.0
H1107 H 0.72652 0.50119 0.48916 0.0
H1108 H 0.60598 0.46635 0.43063 0.0
H1109 H 0.64796 0.37018 0.51666 0.0
H1110 H 0.65066 0.41437 0.52726 0.0
H1111 H 0.68142 0.39682 0.50015 0.0
C1112 C 0.6463 0.52042 0.50792 0.0
C1113 C 0.68144 0.52489 0.50529 0.0
C1114 C 0.62958 0.49089 0.49626 0.0
C1115 C 0.64761 0.46505 0.4821 0.0
C1116 C 0.68269 0.46906 0.47998 0.0
H1117 H 0.63084 0.3017 0.35096 0.0
H1118 H 0.64261 0.33893 0.39924 0.0
C1119 C 0.69948 0.49869 0.49149 0.0
C1120 C 0.62957 0.43558 0.46614 0.0
H1121 H 0.62374 0.35019 0.46448 0.0
C1122 C 0.60925 0.44093 0.43837 0.0
C1123 C 0.63396 0.40255 0.47643 0.0
C1124 C 0.65444 0.39553 0.50696 0.0
C1125 C 0.59498 0.41411 0.41913 0.0
C1126 C 0.60039 0.38092 0.42858 0.0
C1127 C 0.61938 0.37559 0.45742 0.0
C1128 C 0.59113 0.35205 0.40588 0.0
C1129 C 0.57629 0.4217 0.38753 0.0
C1130 C 0.5579 0.34529 0.39498 0.0
C1131 C 0.55118 0.32407 0.36711 0.0
C1132 C 0.57759 0.30911 0.35038 0.0
C1133 C 0.61012 0.31297 0.36366 0.0
C1134 C 0.61684 0.33426 0.3912 0.0
H1135 H 0.57976 0.44844 0.38078 0.0
H1136 H 0.58477 0.40617 0.36607 0.0
H1137 H 0.54908 0.4159 0.39127 0.0
H1138 H 0.53758 0.35823 0.40647 0.0
H1139 H 0.52596 0.32151 0.35709 0.0
H1140 H 0.17282 0.9825 0.31052 0.0
H1141 H 0.22401 0.95498 0.32503 0.0
H1142 H 0.23329 0.92033 0.22252 0.0
H1143 H 0.18202 0.94732 0.20789 0.0
H1144 H 0.24598 0.87126 0.27205 0.0
H1145 H 0.31811 0.99255 0.29574 0.0
H1146 H 0.2795 0.98528 0.31838 0.0
H1147 H 0.27853 0.99021 0.2738 0.0
C1148 C 0.18563 0.96882 0.29111 0.0
C1149 C 0.17354 0.96737 0.25795 0.0
C1150 C 0.21494 0.95323 0.29945 0.0
C1151 C 0.23269 0.93603 0.27476 0.0
C1152 C 0.22001 0.93358 0.24194 0.0
H1153 H 0.41208 0.87795 0.2079 0.0
H1154 H 0.35938 0.89977 0.22545 0.0
C1155 C 0.19075 0.94909 0.23359 0.0
C1156 C 0.26522 0.92166 0.28231 0.0
H1157 H 0.34813 0.94387 0.2949 0.0
C1158 C 0.26805 0.88707 0.2778 0.0
C1159 C 0.29424 0.94229 0.28997 0.0
C1160 C 0.29276 0.97969 0.29462 0.0
C1161 C 0.29929 0.87282 0.27866 0.0
C1162 C 0.32842 0.8937 0.28436 0.0
C1163 C 0.32554 0.92795 0.29101 0.0
C1164 C 0.36182 0.88186 0.27602 0.0
C1165 C 0.30137 0.83593 0.27095 0.0
C1166 C 0.38078 0.86465 0.29892 0.0
C1167 C 0.41172 0.85247 0.28913 0.0
C1168 C 0.42388 0.85739 0.25633 0.0
C1169 C 0.40439 0.87466 0.23372 0.0
C1170 C 0.37396 0.88694 0.24356 0.0
H1171 H 0.2762 0.82282 0.26861 0.0
H1172 H 0.31513 0.83241 0.24704 0.0
H1173 H 0.31561 0.82417 0.291 0.0
H1174 H 0.37152 0.86039 0.32409 0.0
H1175 H 0.42599 0.83916 0.30706 0.0
H1176 H 0.23813 0.00771 0.63313 0.0
H1177 H 0.20447 0.05619 0.64297 0.0
H1178 H 0.14804 0.03154 0.55287 0.0
H1179 H 0.18189 0.98319 0.54257 0.0
H1180 H 0.16691 0.10068 0.56055 0.0
H1181 H 0.10659 0.04924 0.67502 0.0
H1182 H 0.15155 0.05028 0.67652 0.0
H1183 H 0.12938 0.02386 0.64591 0.0
C1184 C 0.21858 0.01259 0.61539 0.0
C1185 C 0.2125 0.99148 0.58722 0.0
C1186 C 0.19931 0.04024 0.62109 0.0
C1187 C 0.17347 0.04716 0.59888 0.0
C1188 C 0.16778 0.02655 0.57036 0.0
H1189 H 0.0335 0.18591 0.67868 0.0
H1190 H 0.05212 0.14027 0.64256 0.0
C1191 C 0.18707 0.99888 0.56461 0.0
C1192 C 0.1521 0.07558 0.6059 0.0
H1193 H 0.10117 0.10727 0.66582 0.0
C1194 C 0.15215 0.10204 0.58334 0.0
C1195 C 0.13231 0.07694 0.63524 0.0
C1196 C 0.12961 0.04842 0.65941 0.0
C1197 C 0.13421 0.13066 0.59027 0.0
C1198 C 0.11614 0.1329 0.62072 0.0
C1199 C 0.11493 0.10567 0.64242 0.0
C1200 C 0.10103 0.16408 0.63266 0.0
C1201 C 0.13506 0.15824 0.56507 0.0
C1202 C 0.12145 0.19351 0.63734 0.0
C1203 C 0.11045 0.21989 0.65723 0.0
C1204 C 0.0791 0.21696 0.67314 0.0
C1205 C 0.05748 0.18891 0.66605 0.0
C1206 C 0.06827 0.16275 0.64571 0.0
H1207 H 0.1386 0.14816 0.53922 0.0
H1208 H 0.11169 0.17203 0.56585 0.0
H1209 H 0.15658 0.1762 0.57076 0.0
H1210 H 0.14707 0.1948 0.62842 0.0
H1211 H 0.12786 0.24091 0.66318 0.0
H1212 H 0.82591 0.49853 0.27714 0.0
H1213 H 0.77558 0.46135 0.26844 0.0
H1214 H 0.81061 0.43442 0.16987 0.0
H1215 H 0.86084 0.47095 0.17817 0.0
H1216 H 0.7386 0.45003 0.17583 0.0
H1217 H 0.78044 0.35569 0.26445 0.0
H1218 H 0.78418 0.39849 0.27915 0.0
H1219 H 0.80927 0.38531 0.24441 0.0
C1220 C 0.82284 0.48477 0.25357 0.0
C1221 C 0.84762 0.48743 0.22855 0.0
C1222 C 0.79414 0.46354 0.24866 0.0
C1223 C 0.78966 0.44492 0.2186 0.0
C1224 C 0.81373 0.44837 0.19324 0.0
H1225 H 0.64294 0.27728 0.22254 0.0
H1226 H 0.69148 0.31024 0.2013 0.0
C1227 C 0.84251 0.46922 0.19819 0.0
C1228 C 0.76042 0.42097 0.21407 0.0
H1229 H 0.72476 0.34888 0.24513 0.0
C1230 C 0.73559 0.42774 0.19071 0.0
C1231 C 0.75714 0.39148 0.23278 0.0
C1232 C 0.78425 0.38198 0.25645 0.0
C1233 C 0.70658 0.40649 0.18686 0.0
C1234 C 0.70216 0.37817 0.20738 0.0
C1235 C 0.72793 0.37065 0.22948 0.0
C1236 C 0.66987 0.35812 0.20963 0.0
C1237 C 0.68096 0.41471 0.16102 0.0
C1238 C 0.64079 0.3739 0.21946 0.0
C1239 C 0.61292 0.35507 0.23121 0.0
C1240 C 0.6138 0.32017 0.23373 0.0
C1241 C 0.64145 0.3041 0.22056 0.0
C1242 C 0.66934 0.32297 0.20867 0.0
H1243 H 0.69306 0.42791 0.13959 0.0
H1244 H 0.66684 0.39186 0.15134 0.0
H1245 H 0.66295 0.4317 0.17256 0.0
H1246 H 0.64066 0.40092 0.22108 0.0
H1247 H 0.5919 0.36803 0.2413 0.0
H1248 H 0.62562 0.62579 0.68851 0.0
H1249 H 0.67249 0.66781 0.68878 0.0
H1250 H 0.7309 0.60334 0.74774 0.0
H1251 H 0.68452 0.56128 0.74766 0.0
H1252 H 0.70787 0.70075 0.74426 0.0
H1253 H 0.78991 0.62638 0.66465 0.0
H1254 H 0.74572 0.61547 0.66937 0.0
H1255 H 0.77528 0.60255 0.69989 0.0
C1256 C 0.64847 0.62051 0.7015 0.0
C1257 C 0.65132 0.59 0.71789 0.0
C1258 C 0.67524 0.64461 0.70161 0.0
C1259 C 0.70537 0.63844 0.71776 0.0
C1260 C 0.70803 0.60835 0.73464 0.0
H1261 H 0.86301 0.73151 0.82012 0.0
H1262 H 0.8077 0.72204 0.79588 0.0
C1263 C 0.68135 0.58439 0.73471 0.0
C1264 C 0.73441 0.66306 0.71759 0.0
H1265 H 0.81826 0.66721 0.70228 0.0
C1266 C 0.732 0.69385 0.73457 0.0
C1267 C 0.76552 0.65465 0.70384 0.0
C1268 C 0.76917 0.62309 0.68309 0.0
C1269 C 0.76069 0.71489 0.74119 0.0
C1270 C 0.79261 0.70461 0.73079 0.0
C1271 C 0.79418 0.67535 0.71078 0.0
C1272 C 0.82485 0.72009 0.74428 0.0
C1273 C 0.75612 0.74735 0.75994 0.0
C1274 C 0.85345 0.72333 0.72367 0.0
C1275 C 0.88558 0.72694 0.73779 0.0
C1276 C 0.88967 0.72806 0.77284 0.0
C1277 C 0.86087 0.72961 0.79307 0.0
C1278 C 0.82892 0.72486 0.77907 0.0
H1279 H 0.73443 0.75972 0.74945 0.0
H1280 H 0.75023 0.74216 0.7866 0.0
H1281 H 0.77852 0.76484 0.75869 0.0
H1282 H 0.85114 0.72015 0.69672 0.0
H1283 H 0.90705 0.7258 0.72129 0.0
H1284 H 0.53172 0.84959 0.54638 0.0
H1285 H 0.55006 0.88605 0.50055 0.0
H1286 H 0.61646 0.81144 0.46514 0.0
H1287 H 0.59943 0.77581 0.51172 0.0
H1288 H 0.64842 0.86921 0.46882 0.0
H1289 H 0.52853 0.88541 0.40285 0.0
H1290 H 0.52749 0.89795 0.44627 0.0
H1291 H 0.53258 0.85478 0.43489 0.0
C1292 C 0.54997 0.8409 0.52856 0.0
C1293 C 0.56427 0.80996 0.53263 0.0
C1294 C 0.56023 0.86164 0.50221 0.0
C1295 C 0.58433 0.85136 0.47903 0.0
C1296 C 0.59786 0.81998 0.48267 0.0
H1297 H 0.65643 0.91768 0.29012 0.0
H1298 H 0.61899 0.89861 0.33522 0.0
C1299 C 0.58813 0.79962 0.5093 0.0
C1300 C 0.59758 0.87398 0.45246 0.0
H1301 H 0.57575 0.91931 0.38496 0.0
C1302 C 0.63245 0.88016 0.45053 0.0
C1303 C 0.57679 0.88815 0.42844 0.0
C1304 C 0.5393 0.881 0.42793 0.0
C1305 C 0.64722 0.89934 0.42497 0.0
C1306 C 0.62646 0.91425 0.40143 0.0
C1307 C 0.59153 0.90849 0.40348 0.0
C1308 C 0.64118 0.93288 0.37271 0.0
C1309 C 0.68506 0.90199 0.42256 0.0
C1310 C 0.66412 0.96032 0.37818 0.0
C1311 C 0.68576 0.97096 0.3525 0.0
C1312 C 0.68399 0.95489 0.32088 0.0
C1313 C 0.65791 0.93072 0.3142 0.0
C1314 C 0.63668 0.91966 0.34005 0.0
H1315 H 0.69679 0.8826 0.43742 0.0
H1316 H 0.69345 0.89935 0.39612 0.0
H1317 H 0.69452 0.92685 0.43244 0.0
H1318 H 0.66745 0.97136 0.40306 0.0
H1319 H 0.70591 0.98943 0.35822 0.0
H1320 H 0.41805 0.24737 0.87592 0.0
H1321 H 0.37352 0.2242 0.83863 0.0
H1322 H 0.40791 0.29182 0.7615 0.0
H1323 H 0.4516 0.31551 0.79859 0.0
H1324 H 0.34469 0.29394 0.76793 0.0
H1325 H 0.37467 0.16075 0.76012 0.0
H1326 H 0.36529 0.17399 0.80222 0.0
H1327 H 0.4016 0.19209 0.7811 0.0
C1328 C 0.41605 0.25727 0.85099 0.0
C1329 C 0.43824 0.28346 0.84031 0.0
C1330 C 0.39078 0.24377 0.8296 0.0
C1331 C 0.38756 0.25596 0.79709 0.0
C1332 C 0.40983 0.28197 0.78647 0.0
H1333 H 0.28939 0.21712 0.61703 0.0
H1334 H 0.32216 0.20361 0.66592 0.0
C1335 C 0.43474 0.29566 0.80783 0.0
C1336 C 0.35976 0.24373 0.77457 0.0
H1337 H 0.32329 0.17471 0.73431 0.0
C1338 C 0.33995 0.26779 0.76083 0.0
C1339 C 0.35364 0.20959 0.76518 0.0
C1340 C 0.37514 0.18268 0.77769 0.0
C1341 C 0.31426 0.25896 0.73809 0.0
C1342 C 0.30786 0.22486 0.72884 0.0
C1343 C 0.32763 0.2006 0.74237 0.0
C1344 C 0.2837 0.21557 0.70172 0.0
C1345 C 0.29504 0.28657 0.72322 0.0
C1346 C 0.24989 0.22274 0.7056 0.0
C1347 C 0.23127 0.2311 0.67765 0.0
C1348 C 0.24644 0.232 0.64579 0.0
C1349 C 0.27751 0.21753 0.64146 0.0
C1350 C 0.29627 0.20968 0.66943 0.0
H1351 H 0.30683 0.31181 0.72908 0.0
H1352 H 0.29327 0.28342 0.69554 0.0
H1353 H 0.26921 0.28562 0.73358 0.0
H1354 H 0.23959 0.22675 0.73043 0.0
H1355 H 0.20716 0.24161 0.68184 0.0
H1356 H 0.01932 0.11002 0.08198 0.0
H1357 H 0.98916 0.08385 0.0343 0.0
H1358 H 0.98003 0.18059 0.99088 0.0
H1359 H 0.00973 0.2072 0.03876 0.0
H1360 H 0.92037 0.14513 0.99515 0.0
H1361 H 0.01472 0.06546 0.93713 0.0
H1362 H 0.0093 0.05904 0.98125 0.0
H1363 H 0.02579 0.09891 0.96686 0.0
C1364 C 0.01136 0.1258 0.0621 0.0
C1365 C 0.01686 0.16082 0.06437 0.0
C1366 C 0.99433 0.11068 0.03468 0.0
C1367 C 0.98275 0.13019 0.0088 0.0
C1368 C 0.98894 0.16504 0.01051 0.0
H1369 H 0.87435 0.07214 0.82637 0.0
H1370 H 0.92003 0.08724 0.86585 0.0
C1371 C 0.00589 0.18023 0.03796 0.0
C1372 C 0.9613 0.11464 0.98176 0.0
H1373 H 0.95766 0.05405 0.9199 0.0
C1374 C 0.92865 0.12541 0.97855 0.0
C1375 C 0.97221 0.08904 0.95998 0.0
C1376 C 0.00753 0.07763 0.96119 0.0
C1377 C 0.90636 0.11081 0.9547 0.0
C1378 C 0.91676 0.08427 0.93387 0.0
C1379 C 0.94966 0.07401 0.93635 0.0
C1380 C 0.89349 0.06765 0.90911 0.0
C1381 C 0.8718 0.12403 0.95186 0.0
C1382 C 0.86446 0.04984 0.92015 0.0
C1383 C 0.83846 0.04122 0.89773 0.0
C1384 C 0.84125 0.05008 0.86391 0.0
C1385 C 0.87174 0.06474 0.85224 0.0
C1386 C 0.89774 0.07354 0.87478 0.0
H1387 H 0.87036 0.14901 0.9643 0.0
H1388 H 0.86442 0.12596 0.92518 0.0
H1389 H 0.85331 0.10652 0.96411 0.0
H1390 H 0.86094 0.04478 0.94653 0.0
H1391 H 0.81518 0.02991 0.90726 0.0
H1392 H 0.12043 0.72787 0.36038 0.0
H1393 H 0.15982 0.74253 0.31507 0.0
H1394 H 0.1046 0.82956 0.29469 0.0
H1395 H 0.06772 0.81677 0.3416 0.0
H1396 H 0.15378 0.74581 0.25333 0.0
H1397 H 0.19196 0.87543 0.29303 0.0
H1398 H 0.1683 0.84753 0.31998 0.0
H1399 H 0.14763 0.87077 0.28844 0.0
C1400 C 0.11715 0.75034 0.34638 0.0
C1401 C 0.09121 0.77131 0.35452 0.0
C1402 C 0.13968 0.75881 0.3206 0.0
C1403 C 0.13611 0.78796 0.30208 0.0
C1404 C 0.10924 0.80803 0.30956 0.0
H1405 H 0.19629 0.83066 0.10354 0.0
H1406 H 0.17402 0.83828 0.16019 0.0
C1407 C 0.08766 0.80031 0.33608 0.0
C1408 C 0.15891 0.79622 0.27352 0.0
H1409 H 0.20165 0.86081 0.23439 0.0
C1410 C 0.16494 0.7708 0.24983 0.0
C1411 C 0.17341 0.82896 0.26855 0.0
C1412 C 0.17025 0.85703 0.29408 0.0
C1413 C 0.18422 0.77728 0.2211 0.0
C1414 C 0.19771 0.81011 0.21573 0.0
C1415 C 0.19181 0.83561 0.23914 0.0
C1416 C 0.21639 0.81796 0.18466 0.0
C1417 C 0.18915 0.74917 0.19598 0.0
C1418 C 0.24879 0.80675 0.18017 0.0
C1419 C 0.26169 0.80269 0.14781 0.0
C1420 C 0.24208 0.80951 0.11982 0.0
C1421 C 0.2119 0.82542 0.12478 0.0
C1422 C 0.19907 0.82957 0.1571 0.0
H1423 H 0.17371 0.72612 0.20192 0.0
H1424 H 0.18264 0.75695 0.17036 0.0
H1425 H 0.21592 0.74309 0.19574 0.0
H1426 H 0.26247 0.79775 0.20128 0.0
H1427 H 0.28484 0.79008 0.14466 0.0
H1428 H 0.59673 0.22867 0.97251 0.0
H1429 H 0.61445 0.18579 0.01025 0.0
H1430 H 0.51176 0.14788 0.02029 0.0
H1431 H 0.49396 0.19015 0.98168 0.0
H1432 H 0.59729 0.17846 0.07413 0.0
H1433 H 0.5585 0.0621 0.00289 0.0
H1434 H 0.55999 0.10282 0.98422 0.0
H1435 H 0.52519 0.08965 0.01033 0.0
C1436 C 0.57793 0.2111 0.98261 0.0
C1437 C 0.54396 0.21279 0.97419 0.0
C1438 C 0.58809 0.18653 0.00409 0.0
C1439 C 0.56449 0.16328 0.01773 0.0
C1440 C 0.53051 0.16497 0.00943 0.0
H1441 H 0.62897 0.06363 0.19625 0.0
H1442 H 0.59074 0.08899 0.15738 0.0
C1443 C 0.52036 0.18936 0.98762 0.0
C1444 C 0.5755 0.13894 0.04238 0.0
H1445 H 0.57866 0.05561 0.05823 0.0
C1446 C 0.59312 0.1516 0.07068 0.0
C1447 C 0.57016 0.10388 0.0377 0.0
C1448 C 0.55271 0.08871 0.00701 0.0
C1449 C 0.60625 0.13034 0.0941 0.0
C1450 C 0.60049 0.09527 0.08984 0.0
C1451 C 0.58247 0.08249 0.06175 0.0
C1452 C 0.61602 0.07186 0.11267 0.0
C1453 C 0.62751 0.14575 0.12234 0.0
C1454 C 0.64072 0.05121 0.10031 0.0
C1455 C 0.66188 0.03594 0.12248 0.0
C1456 C 0.65863 0.04136 0.15717 0.0
C1457 C 0.63173 0.05907 0.16954 0.0
C1458 C 0.61018 0.0738 0.14738 0.0
H1459 H 0.63595 0.17208 0.11734 0.0
H1460 H 0.61257 0.14571 0.14581 0.0
H1461 H 0.65003 0.1313 0.12647 0.0
H1462 H 0.64553 0.04923 0.07362 0.0
H1463 H 0.68274 0.02267 0.11248 0.0
H1464 H 0.10404 0.28537 0.22407 0.0
H1465 H 0.12407 0.27652 0.28062 0.0
H1466 H 0.13314 0.17172 0.2571 0.0
H1467 H 0.11231 0.18035 0.20026 0.0
H1468 H 0.09908 0.18044 0.3148 0.0
H1469 H 0.21445 0.26213 0.32026 0.0
H1470 H 0.18096 0.28439 0.30307 0.0
H1471 H 0.19517 0.24792 0.28123 0.0
C1472 C 0.11075 0.26052 0.23069 0.0
C1473 C 0.10634 0.23354 0.20777 0.0
C1474 C 0.12252 0.25552 0.26301 0.0
C1475 C 0.13059 0.22353 0.27306 0.0
C1476 C 0.12722 0.19664 0.24988 0.0
H1477 H 0.18799 0.25496 0.48244 0.0
H1478 H 0.19218 0.22604 0.42778 0.0
C1479 C 0.11532 0.20163 0.21743 0.0
C1480 C 0.1391 0.21823 0.30875 0.0
H1481 H 0.184 0.25574 0.37306 0.0
C1482 C 0.11825 0.19625 0.32749 0.0
C1483 C 0.16481 0.23783 0.32533 0.0
C1484 C 0.19037 0.2591 0.30632 0.0
C1485 C 0.12017 0.19606 0.36267 0.0
C1486 C 0.14283 0.21917 0.37952 0.0
C1487 C 0.16605 0.23845 0.36048 0.0
C1488 C 0.13942 0.22794 0.41583 0.0
C1489 C 0.09706 0.17182 0.3813 0.0
C1490 C 0.10823 0.23729 0.4281 0.0
C1491 C 0.1058 0.25322 0.45935 0.0
C1492 C 0.13459 0.2609 0.47883 0.0
C1493 C 0.16539 0.24922 0.46798 0.0
C1494 C 0.1678 0.2329 0.43664 0.0
H1495 H 0.09387 0.14764 0.36716 0.0
H1496 H 0.10656 0.167 0.40678 0.0
H1497 H 0.07189 0.18211 0.38351 0.0
H1498 H 0.08605 0.23473 0.41249 0.0
H1499 H 0.08169 0.26179 0.46722 0.0
H1500 H 0.9674 0.7894 0.5055 0.0
H1501 H 0.94582 0.81678 0.55613 0.0
H1502 H 0.99282 0.91093 0.52606 0.0
H1503 H 0.01447 0.88417 0.47581 0.0
H1504 H 0.00176 0.8949 0.59611 0.0
H1505 H 0.86904 0.88358 0.55286 0.0
H1506 H 0.89107 0.8456 0.55282 0.0
H1507 H 0.90386 0.8783 0.52469 0.0
C1508 C 0.97316 0.81592 0.50967 0.0
C1509 C 0.9924 0.83459 0.48634 0.0
C1510 C 0.96082 0.83149 0.53858 0.0
C1511 C 0.96762 0.86588 0.54462 0.0
C1512 C 0.98734 0.88436 0.52182 0.0
H1513 H 0.85551 0.99711 0.66901 0.0
H1514 H 0.89335 0.97662 0.62597 0.0
C1515 C 0.99951 0.86896 0.49297 0.0
C1516 C 0.95326 0.88323 0.57394 0.0
H1517 H 0.87945 0.90853 0.60606 0.0
C1518 C 0.97501 0.89784 0.59845 0.0
C1519 C 0.91845 0.88735 0.57652 0.0
C1520 C 0.89414 0.87314 0.55027 0.0
C1521 C 0.96272 0.91634 0.62571 0.0
C1522 C 0.92789 0.92022 0.62835 0.0
C1523 C 0.90621 0.90565 0.60379 0.0
C1524 C 0.91274 0.93833 0.65678 0.0
C1525 C 0.98698 0.932 0.65119 0.0
C1526 C 0.91258 0.92476 0.68889 0.0
C1527 C 0.89116 0.93661 0.71362 0.0
C1528 C 0.86943 0.96199 0.70645 0.0
C1529 C 0.8722 0.9778 0.6754 0.0
C1530 C 0.89358 0.9659 0.65067 0.0
H1531 H 0.0132 0.93299 0.64175 0.0
H1532 H 0.98014 0.95775 0.65815 0.0
H1533 H 0.98589 0.91695 0.67423 0.0
H1534 H 0.9269 0.90324 0.69401 0.0
H1535 H 0.88945 0.92399 0.73737 0.0
H1536 H 0.44792 0.78432 0.64965 0.0
H1537 H 0.39863 0.79893 0.68253 0.0
H1538 H 0.42997 0.73675 0.7624 0.0
H1539 H 0.47851 0.72183 0.72987 0.0
H1540 H 0.36552 0.72273 0.74557 0.0
H1541 H 0.38731 0.86071 0.7625 0.0
H1542 H 0.38481 0.84332 0.72058 0.0
H1543 H 0.41981 0.83503 0.7467 0.0
C1544 C 0.44435 0.77397 0.67434 0.0
C1545 C 0.46707 0.75164 0.68699 0.0
C1546 C 0.41616 0.78241 0.69312 0.0
C1547 C 0.41036 0.76877 0.72489 0.0
C1548 C 0.4336 0.74731 0.73778 0.0
H1549 H 0.35774 0.79464 0.91238 0.0
H1550 H 0.36921 0.80726 0.85388 0.0
C1551 C 0.46147 0.73877 0.71911 0.0
C1552 C 0.37998 0.77517 0.74514 0.0
H1553 H 0.34758 0.83392 0.79735 0.0
C1554 C 0.36101 0.74714 0.75649 0.0
C1555 C 0.37354 0.80718 0.75855 0.0
C1556 C 0.39241 0.83839 0.74667 0.0
C1557 C 0.33962 0.74932 0.78422 0.0
C1558 C 0.33558 0.78097 0.79996 0.0
C1559 C 0.35097 0.80969 0.78554 0.0
C1560 C 0.32276 0.78344 0.83497 0.0
C1561 C 0.32511 0.71709 0.79869 0.0
C1562 C 0.2916 0.76834 0.84432 0.0
C1563 C 0.28549 0.76022 0.87787 0.0
C1564 C 0.30976 0.76867 0.90253 0.0
C1565 C 0.33854 0.78818 0.89382 0.0
C1566 C 0.3451 0.79534 0.86027 0.0
H1567 H 0.33367 0.69459 0.78509 0.0
H1568 H 0.33227 0.71545 0.82546 0.0
H1569 H 0.29743 0.71632 0.79715 0.0
H1570 H 0.27338 0.76008 0.82541 0.0
H1571 H 0.26314 0.74505 0.8841 0.0
H1572 H 0.47081 0.53746 0.76557 0.0
H1573 H 0.43724 0.55333 0.81385 0.0
H1574 H 0.52044 0.53854 0.87958 0.0
H1575 H 0.55454 0.5226 0.83121 0.0
H1576 H 0.42113 0.52006 0.87911 0.0
H1577 H 0.49873 0.64009 0.88944 0.0
H1578 H 0.49895 0.61403 0.85197 0.0
H1579 H 0.51957 0.60137 0.88913 0.0
C1580 C 0.48197 0.53718 0.79028 0.0
C1581 C 0.51557 0.52924 0.79444 0.0
C1582 C 0.46263 0.54604 0.81788 0.0
C1583 C 0.47647 0.54733 0.85017 0.0
C1584 C 0.50942 0.53783 0.85477 0.0
H1585 H 0.38384 0.67955 0.99388 0.0
H1586 H 0.41928 0.63428 0.97741 0.0
C1587 C 0.52882 0.52873 0.8271 0.0
C1588 C 0.45722 0.56201 0.878 0.0
H1589 H 0.44902 0.63606 0.92004 0.0
C1590 C 0.42749 0.54516 0.8887 0.0
C1591 C 0.46579 0.59458 0.89066 0.0
C1592 C 0.49739 0.61382 0.87976 0.0
C1593 C 0.40521 0.56078 0.91052 0.0
C1594 C 0.41246 0.59441 0.921 0.0
C1595 C 0.44334 0.61031 0.91205 0.0
C1596 C 0.38699 0.61531 0.937 0.0
C1597 C 0.37385 0.54127 0.92146 0.0
C1598 C 0.35616 0.61878 0.9209 0.0
C1599 C 0.33549 0.64425 0.93071 0.0
C1600 C 0.34556 0.66733 0.95632 0.0
C1601 C 0.37511 0.66215 0.97421 0.0
C1602 C 0.39559 0.63637 0.96465 0.0
H1603 H 0.37853 0.51432 0.92373 0.0
H1604 H 0.36441 0.55078 0.94585 0.0
H1605 H 0.35408 0.54324 0.9022 0.0
H1606 H 0.34913 0.60344 0.89908 0.0
H1607 H 0.31267 0.64725 0.91672 0.0
H1608 H 0.73607 0.33024 0.15287 0.0
H1609 H 0.74462 0.2817 0.18685 0.0
H1610 H 0.84845 0.31441 0.20108 0.0
H1611 H 0.84017 0.36289 0.16607 0.0
H1612 H 0.844 0.25273 0.17879 0.0
H1613 H 0.75446 0.25904 0.28285 0.0
H1614 H 0.73303 0.26764 0.2449 0.0
H1615 H 0.76747 0.29538 0.25911 0.0
C1616 C 0.76056 0.32752 0.1638 0.0
C1617 C 0.78753 0.35012 0.15652 0.0
C1618 C 0.76533 0.29996 0.18369 0.0
C1619 C 0.79703 0.29465 0.19721 0.0
C1620 C 0.8237 0.31811 0.19123 0.0
H1621 H 0.7618 0.0897 0.26535 0.0
H1622 H 0.78896 0.14625 0.27285 0.0
C1623 C 0.81898 0.34567 0.17108 0.0
C1624 C 0.80294 0.26193 0.21235 0.0
H1625 H 0.76178 0.20214 0.25876 0.0
C1626 C 0.82678 0.242 0.19719 0.0
C1627 C 0.78146 0.24793 0.2372 0.0
C1628 C 0.75799 0.26885 0.25719 0.0
C1629 C 0.82649 0.20754 0.20275 0.0
C1630 C 0.80117 0.19259 0.22329 0.0
C1631 C 0.78058 0.21328 0.24215 0.0
C1632 C 0.79096 0.15644 0.21973 0.0
C1633 C 0.85185 0.18721 0.1846 0.0
C1634 C 0.78347 0.14323 0.18754 0.0
C1635 C 0.76838 0.11131 0.18335 0.0
C1636 C 0.75984 0.09191 0.21124 0.0
C1637 C 0.76855 0.10419 0.24349 0.0
C1638 C 0.78389 0.13643 0.24774 0.0
H1639 H 0.87666 0.20109 0.18411 0.0
H1640 H 0.85472 0.16268 0.19641 0.0
H1641 H 0.84386 0.1829 0.15816 0.0
H1642 H 0.78741 0.15835 0.16556 0.0
H1643 H 0.76167 0.1024 0.15826 0.0
H1644 H 0.96934 0.5564 0.35019 0.0
H1645 H 0.99829 0.54032 0.40079 0.0
H1646 H 0.04041 0.45876 0.34563 0.0
H1647 H 0.01256 0.47541 0.29473 0.0
H1648 H 0.9902 0.48626 0.4349 0.0
H1649 H 0.12192 0.49522 0.394 0.0
H1650 H 0.08905 0.5128 0.37017 0.0
H1651 H 0.09793 0.46932 0.36465 0.0
C1652 C 0.98509 0.53525 0.34874 0.0
C1653 C 0.98869 0.51718 0.31839 0.0
C1654 C 0.00168 0.52615 0.3777 0.0
C1655 C 0.02211 0.49874 0.37696 0.0
C1656 C 0.02574 0.4807 0.34666 0.0
H1657 H 0.05261 0.34473 0.50205 0.0
H1658 H 0.0296 0.39223 0.47495 0.0
C1659 C 0.00952 0.49005 0.31758 0.0
C1660 C 0.03731 0.48705 0.40827 0.0
H1661 H 0.10848 0.45482 0.43783 0.0
C1662 C 0.0163 0.48015 0.43584 0.0
C1663 C 0.07159 0.48007 0.41025 0.0
C1664 C 0.09644 0.49016 0.38328 0.0
C1665 C 0.02789 0.46357 0.46381 0.0
C1666 C 0.06098 0.45268 0.46376 0.0
C1667 C 0.08286 0.46251 0.43772 0.0
C1668 C 0.07175 0.42684 0.48698 0.0
C1669 C 0.00408 0.45667 0.49247 0.0
C1670 C 0.10291 0.43042 0.50344 0.0
C1671 C 0.11627 0.40295 0.51879 0.0
C1672 C 0.09875 0.37157 0.5175 0.0
C1673 C 0.06656 0.36872 0.5033 0.0
C1674 C 0.05326 0.39602 0.48808 0.0
H1675 H 0.98675 0.47726 0.49586 0.0
H1676 H 0.98859 0.43349 0.48649 0.0
H1677 H 0.01758 0.45339 0.51638 0.0
H1678 H 0.11769 0.4539 0.50277 0.0
H1679 H 0.14124 0.40562 0.52942 0.0
H1680 H 0.71806 0.64494 0.61806 0.0
H1681 H 0.71304 0.69346 0.65543 0.0
H1682 H 0.79757 0.74365 0.60693 0.0
H1683 H 0.80407 0.6943 0.57088 0.0
H1684 H 0.80388 0.7543 0.66827 0.0
H1685 H 0.67083 0.77685 0.64204 0.0
H1686 H 0.67614 0.73588 0.6575 0.0
H1687 H 0.69384 0.74747 0.61757 0.0
C1688 C 0.73556 0.66637 0.61539 0.0
C1689 C 0.76148 0.6659 0.5916 0.0
C1690 C 0.73239 0.69426 0.63657 0.0
C1691 C 0.75431 0.72266 0.63372 0.0
C1692 C 0.78023 0.72213 0.60979 0.0
H1693 H 0.73962 0.92489 0.69648 0.0
H1694 H 0.72598 0.86849 0.67433 0.0
C1695 C 0.78396 0.69392 0.58914 0.0
C1696 C 0.75125 0.75249 0.6563 0.0
H1697 H 0.69674 0.80903 0.68613 0.0
C1698 C 0.78042 0.76627 0.67201 0.0
C1699 C 0.72064 0.7683 0.66131 0.0
C1700 C 0.68869 0.7566 0.64344 0.0
C1701 C 0.78023 0.79574 0.69158 0.0
C1702 C 0.74947 0.81099 0.69741 0.0
C1703 C 0.72011 0.7969 0.68233 0.0
C1704 C 0.74828 0.8436 0.71574 0.0
C1705 C 0.81341 0.81107 0.70422 0.0
C1706 C 0.76246 0.8483 0.74783 0.0
C1707 C 0.77057 0.88061 0.76035 0.0
C1708 C 0.76363 0.90851 0.74133 0.0
C1709 C 0.74481 0.90374 0.71177 0.0
C1710 C 0.73733 0.87146 0.69894 0.0
H1711 H 0.83498 0.80071 0.69067 0.0
H1712 H 0.81484 0.83863 0.70137 0.0
H1713 H 0.81629 0.80565 0.73117 0.0
H1714 H 0.77004 0.82712 0.76181 0.0
H1715 H 0.78533 0.88374 0.78307 0.0
H1716 H 0.5196 0.41307 0.72798 0.0
H1717 H 0.46643 0.39241 0.70282 0.0
H1718 H 0.47824 0.46619 0.62585 0.0
H1719 H 0.53092 0.48772 0.65163 0.0
H1720 H 0.41555 0.4631 0.64875 0.0
H1721 H 0.45242 0.33439 0.62056 0.0
H1722 H 0.45731 0.34514 0.66419 0.0
H1723 H 0.48241 0.36746 0.63351 0.0
C1724 C 0.51098 0.42476 0.70558 0.0
C1725 C 0.52956 0.45189 0.69166 0.0
C1726 C 0.48065 0.41279 0.69107 0.0
C1727 C 0.46857 0.42727 0.66199 0.0
C1728 C 0.48707 0.45447 0.64815 0.0
H1729 H 0.30476 0.31773 0.55641 0.0
H1730 H 0.35713 0.35133 0.56627 0.0
C1731 C 0.51724 0.46669 0.66285 0.0
C1732 C 0.43629 0.41455 0.64652 0.0
H1733 H 0.39373 0.34317 0.61844 0.0
C1734 C 0.41089 0.43693 0.64176 0.0
C1735 C 0.43032 0.38055 0.63674 0.0
C1736 C 0.4572 0.3556 0.63866 0.0
C1737 C 0.37938 0.42603 0.62862 0.0
C1738 C 0.37275 0.39164 0.62077 0.0
C1739 C 0.39856 0.36952 0.62455 0.0
C1740 C 0.339 0.37742 0.61024 0.0
C1741 C 0.3537 0.4516 0.62308 0.0
C1742 C 0.31077 0.38197 0.63062 0.0
C1743 C 0.28058 0.36347 0.62435 0.0
C1744 C 0.27826 0.33967 0.59797 0.0
C1745 C 0.30576 0.33651 0.5764 0.0
C1746 C 0.33577 0.35541 0.58232 0.0
H1747 H 0.36594 0.47667 0.61847 0.0
H1748 H 0.33708 0.44438 0.60154 0.0
H1749 H 0.33804 0.45379 0.64594 0.0
H1750 H 0.31269 0.39797 0.65284 0.0
H1751 H 0.26006 0.36553 0.64193 0.0
H1752 H 0.72972 0.33516 0.02684 0.0
H1753 H 0.70576 0.2906 0.98965 0.0
H1754 H 0.80088 0.24457 0.9874 0.0
H1755 H 0.82464 0.28821 0.02525 0.0
H1756 H 0.72018 0.27092 0.92734 0.0
H1757 H 0.7393 0.16652 0.01157 0.0
H1758 H 0.74399 0.20961 0.02574 0.0
H1759 H 0.77829 0.18985 0.00531 0.0
C1760 C 0.74551 0.31545 0.01853 0.0
C1761 C 0.77905 0.31509 0.0293 0.0
C1762 C 0.73174 0.29001 0.99727 0.0
C1763 C 0.75126 0.26379 0.98634 0.0
C1764 C 0.78498 0.26392 0.99635 0.0
H1765 H 0.76425 0.14284 0.81771 0.0
H1766 H 0.74963 0.18975 0.85349 0.0
C1767 C 0.79863 0.28905 0.01786 0.0
C1768 C 0.73702 0.2366 0.96381 0.0
H1769 H 0.73579 0.15208 0.95233 0.0
C1770 C 0.72294 0.24485 0.93301 0.0
C1771 C 0.73928 0.20252 0.97161 0.0
C1772 C 0.75066 0.19164 0.00555 0.0
C1773 C 0.71381 0.22002 0.90873 0.0
C1774 C 0.71996 0.18622 0.91504 0.0
C1775 C 0.73138 0.1779 0.94697 0.0
C1776 C 0.71952 0.15977 0.88814 0.0
C1777 C 0.69819 0.23046 0.87649 0.0
C1778 C 0.70658 0.12713 0.89466 0.0
C1779 C 0.7158 0.10009 0.87454 0.0
C1780 C 0.73735 0.10543 0.84714 0.0
C1781 C 0.74693 0.13827 0.83827 0.0
C1782 C 0.73845 0.1652 0.85881 0.0
H1783 H 0.68172 0.25154 0.88121 0.0
H1784 H 0.71827 0.23946 0.85909 0.0
H1785 H 0.68317 0.20952 0.86413 0.0
H1786 H 0.69188 0.1222 0.91704 0.0
H1787 H 0.70863 0.07488 0.88212 0.0
H1788 H 0.97132 0.57345 0.17059 0.0
H1789 H 0.01995 0.59117 0.13721 0.0
H1790 H 0.05817 0.65294 0.22011 0.0
H1791 H 0.00845 0.63629 0.25332 0.0
H1792 H 0.06348 0.68593 0.16493 0.0
H1793 H 0.11344 0.56207 0.13933 0.0
H1794 H 0.07076 0.56277 0.12573 0.0
H1795 H 0.08068 0.56825 0.16965 0.0
C1796 C 0.99017 0.59067 0.18183 0.0
C1797 C 0.9862 0.60339 0.21464 0.0
C1798 C 0.01818 0.60051 0.1628 0.0
C1799 C 0.04326 0.62266 0.17638 0.0
C1800 C 0.0393 0.63553 0.20918 0.0
H1801 H 0.23662 0.6813 0.09272 0.0
H1802 H 0.19064 0.64789 0.11832 0.0
C1803 C 0.01092 0.62606 0.22813 0.0
C1804 C 0.07242 0.634 0.15552 0.0
H1805 H 0.1339 0.60646 0.1037 0.0
C1806 C 0.07898 0.6685 0.15177 0.0
C1807 C 0.09311 0.61132 0.13872 0.0
C1808 C 0.08937 0.57408 0.14387 0.0
C1809 C 0.10502 0.68093 0.13116 0.0
C1810 C 0.12423 0.65823 0.11262 0.0
C1811 C 0.11843 0.62376 0.11708 0.0
C1812 C 0.15174 0.67036 0.09024 0.0
C1813 C 0.11217 0.71834 0.13007 0.0
C1814 C 0.14524 0.69185 0.06395 0.0
C1815 C 0.17149 0.71096 0.04937 0.0
C1816 C 0.20453 0.70824 0.06047 0.0
C1817 C 0.21138 0.68333 0.08334 0.0
C1818 C 0.18508 0.66454 0.09826 0.0
H1819 H 0.10156 0.73139 0.1522 0.0
H1820 H 0.13956 0.72476 0.12917 0.0
H1821 H 0.10059 0.72807 0.10725 0.0
H1822 H 0.11967 0.69614 0.05692 0.0
H1823 H 0.16564 0.73039 0.03217 0.0
H1824 H 0.79851 0.67106 0.46663 0.0
H1825 H 0.81506 0.71629 0.42903 0.0
H1826 H 0.71098 0.73638 0.41506 0.0
H1827 H 0.69457 0.693 0.45506 0.0
H1828 H 0.8091 0.73283 0.36933 0.0
H1829 H 0.74294 0.82604 0.4447 0.0
H1830 H 0.74612 0.78377 0.45824 0.0
H1831 H 0.71371 0.79394 0.42923 0.0
C1832 C 0.77914 0.68512 0.45549 0.0
C1833 C 0.74527 0.6789 0.46418 0.0
C1834 C 0.78864 0.71096 0.43389 0.0
C1835 C 0.76441 0.73068 0.42001 0.0
C1836 C 0.73033 0.72272 0.4267 0.0
H1837 H 0.77061 0.86695 0.26221 0.0
H1838 H 0.78102 0.81712 0.2934 0.0
C1839 C 0.7209 0.69768 0.44929 0.0
C1840 C 0.77492 0.76033 0.39987 0.0
H1841 H 0.76126 0.84295 0.39049 0.0
C1842 C 0.7988 0.75696 0.37415 0.0
C1843 C 0.76265 0.79232 0.40688 0.0
C1844 C 0.74029 0.79931 0.43652 0.0
C1845 C 0.80968 0.78435 0.35466 0.0
C1846 C 0.79516 0.81537 0.35994 0.0
C1847 C 0.77215 0.81899 0.38619 0.0
C1848 C 0.80095 0.84399 0.33729 0.0
C1849 C 0.83764 0.78059 0.32971 0.0
C1850 C 0.81021 0.87583 0.35084 0.0
C1851 C 0.80374 0.9045 0.33314 0.0
C1852 C 0.78805 0.90162 0.30163 0.0
C1853 C 0.78317 0.86986 0.28625 0.0
C1854 C 0.78918 0.84122 0.30414 0.0
H1855 H 0.84753 0.7552 0.32977 0.0
H1856 H 0.82872 0.78563 0.30419 0.0
H1857 H 0.85845 0.79935 0.33552 0.0
H1858 H 0.8192 0.87857 0.37642 0.0
H1859 H 0.8075 0.92875 0.34556 0.0
H1860 H 0.82136 0.52101 0.58481 0.0
H1861 H 0.86823 0.48469 0.58907 0.0
H1862 H 0.89509 0.50373 0.48623 0.0
H1863 H 0.84803 0.5403 0.48166 0.0
H1864 H 0.89563 0.43414 0.50527 0.0
H1865 H 0.96882 0.51947 0.5915 0.0
H1866 H 0.92608 0.51338 0.60511 0.0
H1867 H 0.93522 0.5332 0.56579 0.0
C1868 C 0.83709 0.51741 0.56303 0.0
C1869 C 0.83111 0.53366 0.53298 0.0
C1870 C 0.86397 0.4968 0.56555 0.0
C1871 C 0.88539 0.49205 0.53812 0.0
C1872 C 0.87896 0.50736 0.50772 0.0
H1873 H 0.03883 0.38965 0.63396 0.0
H1874 H 0.02325 0.42127 0.58518 0.0
C1875 C 0.8521 0.52818 0.5052 0.0
C1876 C 0.91428 0.4709 0.54188 0.0
H1877 H 0.97862 0.46069 0.59559 0.0
C1878 C 0.91435 0.44009 0.52447 0.0
C1879 C 0.93964 0.47934 0.56567 0.0
C1880 C 0.94273 0.51334 0.5828 0.0
C1881 C 0.93684 0.41593 0.53316 0.0
C1882 C 0.959 0.42258 0.5605 0.0
C1883 C 0.96141 0.45496 0.575 0.0
C1884 C 0.97443 0.39549 0.57906 0.0
C1885 C 0.93608 0.38339 0.51338 0.0
C1886 C 0.9537 0.3683 0.58982 0.0
C1887 C 0.96306 0.34958 0.61694 0.0
C1888 C 0.99276 0.35839 0.63457 0.0
C1889 C 0.01561 0.38246 0.62107 0.0
C1890 C 0.00658 0.40074 0.59328 0.0
H1891 H 0.9325 0.388 0.48629 0.0
H1892 H 0.95951 0.37009 0.51652 0.0
H1893 H 0.9144 0.36705 0.52161 0.0
H1894 H 0.92861 0.36373 0.57995 0.0
H1895 H 0.9453 0.3306 0.62639 0.0
H1896 H 0.30294 0.00534 0.52513 0.0
H1897 H 0.33041 0.05097 0.49394 0.0
H1898 H 0.4202 0.99626 0.48609 0.0
H1899 H 0.39324 0.95073 0.51795 0.0
H1900 H 0.43373 0.06352 0.5006 0.0
H1901 H 0.34561 0.0459 0.39341 0.0
H1902 H 0.32514 0.05313 0.43277 0.0
H1903 H 0.34765 0.01583 0.42625 0.0
C1904 C 0.32855 0.00296 0.51683 0.0
C1905 C 0.34575 0.97416 0.52374 0.0
C1906 C 0.34417 0.02905 0.49892 0.0
C1907 C 0.37711 0.0267 0.48715 0.0
C1908 C 0.39471 0.99849 0.49483 0.0
H1909 H 0.50283 0.13683 0.34724 0.0
H1910 H 0.48319 0.10077 0.39285 0.0
C1911 C 0.37921 0.97246 0.51298 0.0
C1912 C 0.39286 0.05321 0.46604 0.0
H1913 H 0.38361 0.09335 0.39232 0.0
C1914 C 0.42284 0.07006 0.4769 0.0
C1915 C 0.3787 0.06148 0.43501 0.0
C1916 C 0.3477 0.04294 0.42095 0.0
C1917 C 0.43874 0.09536 0.45772 0.0
C1918 C 0.42428 0.10381 0.42698 0.0
C1919 C 0.39438 0.08699 0.41615 0.0
C1920 C 0.44005 0.12922 0.40472 0.0
C1921 C 0.4706 0.11314 0.47051 0.0
C1922 C 0.4228 0.15761 0.39698 0.0
C1923 C 0.43402 0.17829 0.3711 0.0
C1924 C 0.46251 0.17071 0.35224 0.0
C1925 C 0.48105 0.14354 0.36156 0.0
C1926 C 0.46982 0.12288 0.38757 0.0
H1927 H 0.4748 0.10853 0.4975 0.0
H1928 H 0.49221 0.10405 0.45611 0.0
H1929 H 0.46999 0.14052 0.46685 0.0
H1930 H 0.39973 0.16284 0.40992 0.0
H1931 H 0.41943 0.19925 0.36468 0.0
H1932 H 0.33357 0.07771 0.85161 0.0
H1933 H 0.27873 0.0998 0.86382 0.0
H1934 H 0.27523 0.13776 0.76355 0.0
H1935 H 0.32871 0.11386 0.75062 0.0
H1936 H 0.25227 0.15714 0.86692 0.0
H1937 H 0.18842 0.08577 0.76424 0.0
H1938 H 0.23075 0.07813 0.77631 0.0
H1939 H 0.22266 0.11024 0.74671 0.0
C1940 C 0.32097 0.09065 0.83214 0.0
C1941 C 0.33521 0.09366 0.79996 0.0
C1942 C 0.28965 0.1033 0.83918 0.0
C1943 C 0.27218 0.11939 0.81424 0.0
C1944 C 0.28743 0.12412 0.78278 0.0
H1945 H 0.14221 0.26631 0.79481 0.0
H1946 H 0.18315 0.23248 0.82141 0.0
C1947 C 0.31823 0.11079 0.77549 0.0
C1948 C 0.23807 0.13133 0.82057 0.0
H1949 H 0.16286 0.13725 0.7816 0.0
C1950 C 0.23252 0.15233 0.84854 0.0
C1951 C 0.21142 0.12379 0.79779 0.0
C1952 C 0.21354 0.09788 0.76989 0.0
C1953 C 0.20258 0.16905 0.85193 0.0
C1954 C 0.17797 0.1649 0.82658 0.0
C1955 C 0.18207 0.14116 0.80071 0.0
C1956 C 0.15022 0.18774 0.8232 0.0
C1957 C 0.19788 0.19156 0.88214 0.0
C1958 C 0.11739 0.17454 0.81741 0.0
C1959 C 0.09391 0.19394 0.80224 0.0
C1960 C 0.10305 0.22671 0.79244 0.0
C1961 C 0.13438 0.24125 0.80238 0.0
C1962 C 0.15789 0.22183 0.81756 0.0
H1963 H 0.20972 0.18126 0.90454 0.0
H1964 H 0.21013 0.21659 0.87759 0.0
H1965 H 0.17095 0.19462 0.88762 0.0
H1966 H 0.11092 0.14833 0.8216 0.0
H1967 H 0.06989 0.18219 0.79484 0.0
H1968 H 0.15185 0.04146 0.00545 0.0
H1969 H 0.12239 0.99015 0.98529 0.0
H1970 H 0.21473 0.9552 0.9452 0.0
H1971 H 0.24491 0.00681 0.96555 0.0
H1972 H 0.15631 0.95543 0.89947 0.0
H1973 H 0.12737 0.89143 0.01919 0.0
H1974 H 0.12069 0.93551 0.01883 0.0
H1975 H 0.16242 0.92153 0.01449 0.0
C1976 C 0.16615 0.02289 0.99257 0.0
C1977 C 0.20086 0.02844 0.98702 0.0
C1978 C 0.1492 0.99341 0.98131 0.0
C1979 C 0.16646 0.96875 0.96424 0.0
C1980 C 0.20108 0.9739 0.9587 0.0
H1981 H 0.09453 0.78088 0.87475 0.0
H1982 H 0.11872 0.82112 0.91626 0.0
C1983 C 0.21824 0.00341 0.97024 0.0
C1984 C 0.1475 0.93905 0.94986 0.0
H1985 H 0.09817 0.87004 0.97064 0.0
C1986 C 0.14381 0.93662 0.91497 0.0
C1987 C 0.13136 0.91456 0.97024 0.0
C1988 C 0.13575 0.91555 0.00779 0.0
C1989 C 0.12363 0.91079 0.89988 0.0
C1990 C 0.10633 0.88702 0.92031 0.0
C1991 C 0.11088 0.88875 0.95517 0.0
C1992 C 0.08473 0.85955 0.90506 0.0
C1993 C 0.12106 0.90904 0.86209 0.0
C1994 C 0.05586 0.86689 0.88724 0.0
C1995 C 0.0419 0.84383 0.86367 0.0
C1996 C 0.0566 0.8132 0.85794 0.0
C1997 C 0.08239 0.8041 0.87925 0.0
C1998 C 0.09648 0.82723 0.90269 0.0
H1999 H 0.14095 0.92509 0.84995 0.0
H2000 H 0.12288 0.88292 0.85261 0.0
H2001 H 0.09637 0.91771 0.85436 0.0
H2002 H 0.04633 0.89169 0.88897 0.0
H2003 H 0.02247 0.85161 0.84709 0.0
H2004 H 0.70141 0.46187 0.70296 0.0
H2005 H 0.75433 0.43553 0.71136 0.0
H2006 H 0.72754 0.41701 0.81434 0.0
H2007 H 0.67452 0.4441 0.80621 0.0
H2008 H 0.79292 0.4402 0.80817 0.0
H2009 H 0.7669 0.33626 0.7167 0.0
H2010 H 0.76075 0.37618 0.69887 0.0
H2011 H 0.73453 0.36181 0.73298 0.0
C2012 C 0.70675 0.4522 0.72742 0.0
C2013 C 0.68368 0.45479 0.75385 0.0
C2014 C 0.73691 0.43689 0.73211 0.0
C2015 C 0.74456 0.42348 0.76324 0.0
C2016 C 0.722 0.42684 0.79001 0.0
H2017 H 0.92154 0.30387 0.75117 0.0
H2018 H 0.86576 0.31928 0.77019 0.0
C2019 C 0.69178 0.44238 0.78536 0.0
C2020 C 0.77656 0.40677 0.76766 0.0
H2021 H 0.82465 0.34816 0.73134 0.0
C2022 C 0.79969 0.4197 0.79175 0.0
C2023 C 0.78513 0.37938 0.74695 0.0
C2024 C 0.76038 0.36234 0.72268 0.0
C2025 C 0.83193 0.40746 0.79411 0.0
C2026 C 0.84157 0.38218 0.77123 0.0
C2027 C 0.81761 0.36779 0.74868 0.0
C2028 C 0.87699 0.37273 0.76754 0.0
C2029 C 0.85538 0.42209 0.82086 0.0
C2030 C 0.90227 0.39751 0.7609 0.0
C2031 C 0.93411 0.38868 0.75068 0.0
C2032 C 0.94126 0.35492 0.74657 0.0
C2033 C 0.91677 0.33005 0.75499 0.0
C2034 C 0.88486 0.33889 0.76549 0.0
H2035 H 0.84121 0.43001 0.8434 0.0
H2036 H 0.87384 0.40397 0.82851 0.0
H2037 H 0.86918 0.44468 0.81113 0.0
H2038 H 0.89678 0.42368 0.76119 0.0
H2039 H 0.95238 0.40822 0.74343 0.0
H2040 H 0.7471 0.50306 0.13926 0.0
H2041 H 0.70949 0.54909 0.14436 0.0
H2042 H 0.66045 0.51656 0.05217 0.0
H2043 H 0.69794 0.47027 0.04685 0.0
H2044 H 0.67747 0.58977 0.06046 0.0
H2045 H 0.60684 0.53277 0.1667 0.0
H2046 H 0.65163 0.53454 0.17169 0.0
H2047 H 0.63245 0.50892 0.13869 0.0
C2048 C 0.72841 0.50574 0.12 0.0
C2049 C 0.72534 0.48294 0.09276 0.0
C2050 C 0.70694 0.532 0.12297 0.0
C2051 C 0.6821 0.53597 0.09876 0.0
C2052 C 0.67947 0.51381 0.07109 0.0
H2053 H 0.53092 0.66881 0.16652 0.0
H2054 H 0.55311 0.62484 0.1308 0.0
C2055 C 0.70084 0.48738 0.06819 0.0
C2056 C 0.65835 0.56275 0.10315 0.0
H2057 H 0.59969 0.59047 0.15748 0.0
C2058 C 0.66004 0.58983 0.08134 0.0
C2059 C 0.63516 0.5623 0.1299 0.0
C2060 C 0.63107 0.53295 0.15295 0.0
C2061 C 0.6405 0.61757 0.08692 0.0
C2062 C 0.61911 0.61823 0.11524 0.0
C2063 C 0.61605 0.59012 0.13575 0.0
C2064 C 0.60284 0.64886 0.12687 0.0
C2065 C 0.64338 0.64604 0.06276 0.0
C2066 C 0.62274 0.67797 0.13473 0.0
C2067 C 0.60992 0.70334 0.15467 0.0
C2068 C 0.57719 0.69975 0.16764 0.0
C2069 C 0.55617 0.67235 0.15679 0.0
C2070 C 0.56894 0.64707 0.13657 0.0
H2071 H 0.64937 0.63684 0.03708 0.0
H2072 H 0.61992 0.65961 0.06181 0.0
H2073 H 0.66418 0.66393 0.07086 0.0
H2074 H 0.64907 0.67985 0.12812 0.0
H2075 H 0.62657 0.72435 0.16246 0.0
H2076 H 0.38463 0.9242 0.71674 0.0
H2077 H 0.33562 0.88536 0.70933 0.0
H2078 H 0.27927 0.94537 0.77762 0.0
H2079 H 0.328 0.98456 0.78533 0.0
H2080 H 0.28242 0.86236 0.78097 0.0
H2081 H 0.23986 0.9237 0.66563 0.0
H2082 H 0.28404 0.92005 0.67377 0.0
H2083 H 0.26057 0.94793 0.69896 0.0
C2084 C 0.36192 0.92915 0.73039 0.0
C2085 C 0.36027 0.95771 0.75155 0.0
C2086 C 0.33398 0.90688 0.72605 0.0
C2087 C 0.30397 0.91275 0.74276 0.0
C2088 C 0.30236 0.94058 0.76452 0.0
H2089 H 0.09986 0.86366 0.75368 0.0
H2090 H 0.15572 0.88674 0.73914 0.0
C2091 C 0.33024 0.96289 0.76891 0.0
C2092 C 0.27375 0.89053 0.73692 0.0
H2093 H 0.20359 0.88155 0.68816 0.0
C2094 C 0.2654 0.8659 0.76034 0.0
C2095 C 0.2516 0.89595 0.71029 0.0
C2096 C 0.25921 0.9233 0.68556 0.0
C2097 C 0.23447 0.84751 0.75878 0.0
C2098 C 0.21201 0.85305 0.73221 0.0
C2099 C 0.22111 0.87685 0.70803 0.0
C2100 C 0.17707 0.83853 0.73251 0.0
C2101 C 0.22474 0.82479 0.78737 0.0
C2102 C 0.16995 0.80377 0.73125 0.0
C2103 C 0.13795 0.79049 0.73972 0.0
C2104 C 0.11276 0.81192 0.74925 0.0
C2105 C 0.11896 0.84665 0.74659 0.0
C2106 C 0.15088 0.85984 0.73836 0.0
H2107 H 0.24372 0.82614 0.80776 0.0
H2108 H 0.20027 0.83159 0.79805 0.0
H2109 H 0.22179 0.79851 0.77822 0.0
H2110 H 0.18957 0.78691 0.72587 0.0
H2111 H 0.13383 0.76364 0.74166 0.0
H2112 H 0.18551 0.0848 0.24732 0.0
H2113 H 0.23675 0.1206 0.24361 0.0
H2114 H 0.20223 0.16063 0.15128 0.0
H2115 H 0.15055 0.12504 0.15468 0.0
H2116 H 0.27108 0.13326 0.15208 0.0
H2117 H 0.24911 0.22632 0.25329 0.0
H2118 H 0.23842 0.18394 0.26481 0.0
H2119 H 0.21534 0.20245 0.23206 0.0
C2120 C 0.18861 0.10131 0.22626 0.0
C2121 C 0.16395 0.10183 0.20118 0.0
C2122 C 0.21784 0.12192 0.22431 0.0
C2123 C 0.2231 0.14338 0.19726 0.0
C2124 C 0.19853 0.14432 0.17235 0.0
H2125 H 0.41451 0.25333 0.23799 0.0
H2126 H 0.35991 0.24599 0.20921 0.0
C2127 C 0.16904 0.12391 0.1744 0.0
C2128 C 0.25549 0.16281 0.19444 0.0
H2129 H 0.30681 0.21726 0.23994 0.0
C2130 C 0.27881 0.15229 0.17069 0.0
C2131 C 0.26521 0.18805 0.21827 0.0
C2132 C 0.24061 0.20114 0.24337 0.0
C2133 C 0.31262 0.16381 0.17248 0.0
C2134 C 0.32313 0.1865 0.19863 0.0
C2135 C 0.29894 0.19972 0.22 0.0
C2136 C 0.35894 0.19183 0.20838 0.0
C2137 C 0.33711 0.15016 0.14756 0.0
C2138 C 0.3768 0.16398 0.21681 0.0
C2139 C 0.40779 0.16818 0.2327 0.0
C2140 C 0.42142 0.2003 0.24105 0.0
C2141 C 0.40464 0.22836 0.23121 0.0
C2142 C 0.37348 0.22414 0.21498 0.0
H2143 H 0.32441 0.14164 0.12391 0.0
H2144 H 0.35749 0.16918 0.14184 0.0
H2145 H 0.34847 0.12802 0.15808 0.0
H2146 H 0.36573 0.13884 0.21346 0.0
H2147 H 0.4201 0.14622 0.24062 0.0
loop_
_geom_bond_atom_site_label_1
_geom_bond_atom_site_label_2
_geom_bond_distance
_geom_bond_site_symmetry_2
_ccdc_geom_bond_type
Co0 O1 2.216 . S
Co0 O2 2.091 . S
Co0 O4 2.004 1_455 S
Co0 O10 2.021 1_455 S
Co0 O12 2.137 . S
Co0 O13 2.244 . S
O1 Co0 2.216 . S
O1 C8 1.247 . S
O2 Co0 2.091 . S
O2 C8 1.261 . S
C3 O12 1.247 . S
C3 O13 1.272 . S
O4 Co0 2.004 1_655 S
O4 C9 1.259 . S
Co5 O6 2.061 1_455 S
Co5 O11 2.052 1_455 S
Co5 O13 2.135 . S
O6 Co5 2.061 1_655 S
O6 C9 1.235 . S
C7 O10 1.238 . S
C7 O11 1.242 . S
C8 O1 1.247 . S
C8 O2 1.261 . S
C9 O4 1.259 . S
C9 O6 1.235 . S
O10 Co0 2.021 1_655 S
O10 C7 1.238 . S
O11 Co5 2.052 1_655 S
O11 C7 1.242 . S
O12 Co0 2.137 . S
O12 C3 1.247 . S
O13 Co0 2.244 . S
O13 C3 1.272 . S
O13 Co5 2.135 . S
Co14 O15 2.216 . S
Co14 O16 2.091 1_455 S
Co14 O18 2.004 1_455 S
Co14 O24 2.021 1_455 S
Co14 O26 2.137 . S
Co14 O27 2.244 . S
O15 Co14 2.216 . S
O15 C22 1.247 . S
O16 Co14 2.091 1_655 S
O16 C22 1.264 1_655 S
C17 O26 1.247 . S
C17 O27 1.272 . S
O18 Co14 2.004 1_655 S
O18 C23 1.259 . S
Co19 O20 2.061 1_455 S
Co19 O25 2.052 1_455 S
Co19 O27 2.135 . S
O20 Co19 2.061 1_655 S
O20 C23 1.235 . S
C21 O24 1.238 . S
C21 O25 1.241 . S
C22 O15 1.247 . S
C22 O16 1.264 1_455 S
C23 O18 1.259 . S
C23 O20 1.235 . S
O24 Co14 2.021 1_655 S
O24 C21 1.238 . S
O25 Co19 2.052 1_655 S
O25 C21 1.241 . S
O26 Co14 2.137 . S
O26 C17 1.247 . S
O27 Co14 2.244 . S
O27 C17 1.272 . S
O27 Co19 2.135 . S
Co28 O29 2.216 . S
Co28 O30 2.091 . S
Co28 O32 2.004 . S
Co28 O38 2.021 . S
Co28 O40 2.137 . S
Co28 O41 2.244 . S
O29 Co28 2.216 . S
O29 C36 1.247 . S
O30 Co28 2.091 . S
O30 C36 1.261 . S
C31 O40 1.247 . S
C31 O41 1.272 . S
O32 Co28 2.004 . S
O32 C37 1.259 . S
Co33 O34 2.061 . S
Co33 O39 2.052 . S
Co33 O41 2.135 . S
O34 Co33 2.061 . S
O34 C37 1.235 . S
C35 O38 1.238 . S
C35 O39 1.241 . S
C36 O29 1.247 . S
C36 O30 1.261 . S
C37 O32 1.259 . S
C37 O34 1.235 . S
O38 Co28 2.021 . S
O38 C35 1.238 . S
O39 Co33 2.052 . S
O39 C35 1.241 . S
O40 Co28 2.137 . S
O40 C31 1.247 . S
O41 Co28 2.244 . S
O41 C31 1.272 . S
O41 Co33 2.135 . S
Co42 O43 2.216 . S
Co42 O44 2.091 . S
Co42 O46 2.004 . S
Co42 O52 2.021 . S
Co42 O54 2.137 . S
Co42 O55 2.244 . S
O43 Co42 2.216 . S
O43 C50 1.247 . S
O44 Co42 2.091 . S
O44 C50 1.261 . S
C45 O54 1.247 . S
C45 O55 1.272 . S
O46 Co42 2.004 . S
O46 C51 1.259 . S
Co47 O48 2.061 . S
Co47 O53 2.052 . S
Co47 O55 2.135 . S
O48 Co47 2.061 . S
O48 C51 1.235 . S
C49 O52 1.238 . S
C49 O53 1.241 . S
C50 O43 1.247 . S
C50 O44 1.261 . S
C51 O46 1.259 . S
C51 O48 1.235 . S
O52 Co42 2.021 . S
O52 C49 1.238 . S
O53 Co47 2.052 . S
O53 C49 1.241 . S
O54 Co42 2.137 . S
O54 C45 1.247 . S
O55 Co42 2.244 . S
O55 C45 1.272 . S
O55 Co47 2.135 . S
Co56 O57 2.216 . S
Co56 O58 2.091 . S
Co56 O60 2.004 1_565 S
Co56 O66 2.021 1_565 S
Co56 O68 2.137 . S
Co56 O69 2.244 1_565 S
O57 Co56 2.216 . S
O57 C64 1.247 . S
O58 Co56 2.091 . S
O58 C64 1.261 . S
C59 O68 1.247 . S
C59 O69 1.272 1_565 S
O60 Co56 2.004 1_545 S
O60 C65 1.259 . S
Co61 O62 2.061 . S
Co61 O67 2.052 . S
Co61 O69 2.135 . S
O62 Co61 2.061 . S
O62 C65 1.235 . S
C63 O66 1.238 . S
C63 O67 1.241 . S
C64 O57 1.247 . S
C64 O58 1.261 . S
C65 O60 1.259 . S
C65 O62 1.235 . S
O66 Co56 2.021 1_545 S
O66 C63 1.238 . S
O67 Co61 2.052 . S
O67 C63 1.241 . S
O68 Co56 2.137 . S
O68 C59 1.247 . S
O69 Co56 2.244 1_545 S
O69 C59 1.272 1_545 S
O69 Co61 2.135 . S
Co70 O71 2.216 . S
Co70 O72 2.091 . S
Co70 O74 2.004 . S
Co70 O80 2.021 . S
Co70 O82 2.137 . S
Co70 O83 2.244 . S
O71 Co70 2.216 . S
O71 C78 1.247 . S
O72 Co70 2.091 . S
O72 C78 1.261 . S
C73 O82 1.247 . S
C73 O83 1.272 . S
O74 Co70 2.004 . S
O74 C79 1.259 . S
Co75 O76 2.061 . S
Co75 O81 2.052 . S
Co75 O83 2.135 . S
O76 Co75 2.061 . S
O76 C79 1.235 . S
C77 O80 1.238 . S
C77 O81 1.241 . S
C78 O71 1.247 . S
C78 O72 1.261 . S
C79 O74 1.259 . S
C79 O76 1.235 . S
O80 Co70 2.021 . S
O80 C77 1.238 . S
O81 Co75 2.052 . S
O81 C77 1.241 . S
O82 Co70 2.137 . S
O82 C73 1.247 . S
O83 Co70 2.244 . S
O83 C73 1.272 . S
O83 Co75 2.135 . S
Co84 O85 2.216 . S
Co84 O86 2.091 . S
Co84 O88 2.004 . S
Co84 O94 2.021 . S
Co84 O96 2.137 . S
Co84 O97 2.244 . S
O85 Co84 2.216 . S
O85 C92 1.247 . S
O86 Co84 2.091 . S
O86 C92 1.261 . S
C87 O96 1.247 . S
C87 O97 1.272 . S
O88 Co84 2.004 . S
O88 C93 1.259 . S
Co89 O90 2.061 . S
Co89 O95 2.052 . S
Co89 O97 2.135 1_565 S
O90 Co89 2.061 . S
O90 C93 1.235 1_565 S
C91 O94 1.238 1_565 S
C91 O95 1.241 . S
C92 O85 1.247 . S
C92 O86 1.261 . S
C93 O88 1.259 . S
C93 O90 1.235 1_545 S
O94 Co84 2.021 . S
O94 C91 1.238 1_545 S
O95 Co89 2.052 . S
O95 C91 1.241 . S
O96 Co84 2.137 . S
O96 C87 1.247 . S
O97 Co84 2.244 . S
O97 C87 1.272 . S
O97 Co89 2.135 1_545 S
Co98 O99 2.216 . S
Co98 O100 2.091 1_554 S
Co98 O102 2.004 1_554 S
Co98 O108 2.021 1_554 S
Co98 O110 2.137 . S
Co98 O111 2.244 . S
O99 Co98 2.216 . S
O99 C106 1.247 . S
O100 Co98 2.091 1_556 S
O100 C106 1.261 1_556 S
C101 O110 1.247 . S
C101 O111 1.272 . S
O102 Co98 2.004 1_556 S
O102 C107 1.259 . S
Co103 O104 2.061 1_554 S
Co103 O109 2.052 1_554 S
Co103 O111 2.135 . S
O104 Co103 2.061 1_556 S
O104 C107 1.235 . S
C105 O108 1.238 . S
C105 O109 1.241 . S
C106 O99 1.247 . S
C106 O100 1.261 1_554 S
C107 O102 1.259 . S
C107 O104 1.235 . S
O108 Co98 2.021 1_556 S
O108 C105 1.238 . S
O109 Co103 2.052 1_556 S
O109 C105 1.241 . S
O110 Co98 2.137 . S
O110 C101 1.247 . S
O111 Co98 2.244 . S
O111 C101 1.272 . S
O111 Co103 2.135 . S
Co112 O113 2.216 . S
Co112 O114 2.091 . S
Co112 O116 2.004 1_554 S
Co112 O122 2.021 1_554 S
Co112 O124 2.137 . S
Co112 O125 2.244 . S
O113 Co112 2.216 . S
O113 C120 1.247 . S
O114 Co112 2.091 . S
O114 C120 1.261 . S
C115 O124 1.247 . S
C115 O125 1.272 . S
O116 Co112 2.004 1_556 S
O116 C121 1.259 . S
Co117 O118 2.061 1_554 S
Co117 O123 2.052 . S
Co117 O125 2.135 . S
O118 Co117 2.061 1_556 S
O118 C121 1.235 . S
C119 O122 1.238 . S
C119 O123 1.241 1_556 S
C120 O113 1.247 . S
C120 O114 1.261 . S
C121 O116 1.259 . S
C121 O118 1.235 . S
O122 Co112 2.021 1_556 S
O122 C119 1.238 . S
O123 Co117 2.052 . S
O123 C119 1.241 1_554 S
O124 Co112 2.137 . S
O124 C115 1.247 . S
O125 Co112 2.244 . S
O125 C115 1.272 . S
O125 Co117 2.135 . S
Co126 O127 2.216 . S
Co126 O128 2.091 . S
Co126 O130 2.004 . S
Co126 O136 2.021 . S
Co126 O138 2.137 . S
Co126 O139 2.244 . S
O127 Co126 2.216 . S
O127 C134 1.247 . S
O128 Co126 2.091 . S
O128 C134 1.261 . S
C129 O138 1.247 . S
C129 O139 1.272 . S
O130 Co126 2.004 . S
O130 C135 1.259 . S
Co131 O132 2.061 . S
Co131 O137 2.052 . S
Co131 O139 2.135 . S
O132 Co131 2.061 . S
O132 C135 1.235 . S
C133 O136 1.238 . S
C133 O137 1.241 . S
C134 O127 1.247 . S
C134 O128 1.261 . S
C135 O130 1.259 . S
C135 O132 1.235 . S
O136 Co126 2.021 . S
O136 C133 1.238 . S
O137 Co131 2.052 . S
O137 C133 1.241 . S
O138 Co126 2.137 . S
O138 C129 1.247 . S
O139 Co126 2.244 . S
O139 C129 1.272 . S
O139 Co131 2.135 . S
Co140 O141 2.216 . S
Co140 O142 2.091 . S
Co140 O144 2.004 . S
Co140 O150 2.021 . S
Co140 O152 2.137 . S
Co140 O153 2.244 . S
O141 Co140 2.216 . S
O141 C148 1.247 . S
O142 Co140 2.091 . S
O142 C148 1.261 . S
C143 O152 1.247 . S
C143 O153 1.272 . S
O144 Co140 2.004 . S
O144 C149 1.259 . S
Co145 O146 2.061 . S
Co145 O151 2.052 . S
Co145 O153 2.135 . S
O146 Co145 2.061 . S
O146 C149 1.235 . S
C147 O150 1.238 . S
C147 O151 1.241 . S
C148 O141 1.247 . S
C148 O142 1.261 . S
C149 O144 1.259 . S
C149 O146 1.235 . S
O150 Co140 2.021 . S
O150 C147 1.238 . S
O151 Co145 2.052 . S
O151 C147 1.241 . S
O152 Co140 2.137 . S
O152 C143 1.247 . S
O153 Co140 2.244 . S
O153 C143 1.272 . S
O153 Co145 2.135 . S
Co154 O155 2.216 . S
Co154 O156 2.091 . S
Co154 O158 2.004 . S
Co154 O164 2.021 . S
Co154 O166 2.137 . S
Co154 O167 2.244 . S
O155 Co154 2.216 . S
O155 C162 1.247 . S
O156 Co154 2.091 . S
O156 C162 1.261 . S
C157 O166 1.247 . S
C157 O167 1.272 . S
O158 Co154 2.004 . S
O158 C163 1.259 . S
Co159 O160 2.061 . S
Co159 O165 2.052 . S
Co159 O167 2.135 . S
O160 Co159 2.061 . S
O160 C163 1.235 . S
C161 O164 1.238 . S
C161 O165 1.241 . S
C162 O155 1.247 . S
C162 O156 1.261 . S
C163 O158 1.259 . S
C163 O160 1.235 . S
O164 Co154 2.021 . S
O164 C161 1.238 . S
O165 Co159 2.052 . S
O165 C161 1.241 . S
O166 Co154 2.137 . S
O166 C157 1.247 . S
O167 Co154 2.244 . S
O167 C157 1.272 . S
O167 Co159 2.135 . S
H168 C176 0.930 . S
H169 C179 0.930 . S
H170 C181 0.930 . S
H171 C182 0.970 . S
H172 C182 0.970 . S
H173 C184 0.930 1_455 S
H174 C186 0.930 . S
H175 C188 0.930 1_455 S
C176 H168 0.930 . S
C176 C177 1.382 . S
C176 C178 1.426 . S
C177 C176 1.382 . S
C177 C181 1.389 . S
C178 C176 1.426 . S
C178 C179 1.375 . S
C178 C182 1.532 . S
C179 H169 0.930 . S
C179 C178 1.375 . S
C179 C180 1.416 . S
C180 C179 1.416 . S
C180 C181 1.371 . S
C181 H170 0.930 . S
C181 C177 1.389 . S
C181 C180 1.371 . S
C182 H171 0.970 . S
C182 H172 0.970 . S
C182 C178 1.532 . S
C182 C183 1.499 . S
C183 C182 1.499 . S
C183 C184 1.370 1_455 S
C183 C188 1.415 1_455 S
C184 H173 0.930 1_655 S
C184 C183 1.370 1_655 S
C184 C185 1.407 . S
C185 C184 1.407 . S
C185 C186 1.365 . S
C186 H174 0.930 . S
C186 C185 1.365 . S
C186 C187 1.393 . S
C187 C186 1.393 . S
C187 C188 1.387 . S
C188 H175 0.930 1_655 S
C188 C183 1.415 1_655 S
C188 C187 1.387 . S
H189 C197 0.930 . S
H190 C200 0.930 . S
H191 C202 0.930 . S
H192 C203 0.970 . S
H193 C203 0.970 . S
H194 C205 0.930 1_455 S
H195 C207 0.930 . S
H196 C209 0.917 1_455 S
C197 H189 0.930 . S
C197 C198 1.382 . S
C197 C199 1.426 . S
C198 C197 1.382 . S
C198 C202 1.389 . S
C199 C197 1.426 . S
C199 C200 1.375 . S
C199 C203 1.532 . S
C200 H190 0.930 . S
C200 C199 1.375 . S
C200 C201 1.416 . S
C201 C200 1.416 . S
C201 C202 1.371 . S
C202 H191 0.930 . S
C202 C198 1.389 . S
C202 C201 1.371 . S
C203 H192 0.970 . S
C203 H193 0.970 . S
C203 C199 1.532 . S
C203 C204 1.499 . S
C204 C203 1.499 . S
C204 C205 1.370 1_455 S
C204 C209 1.405 1_455 S
C205 H194 0.930 1_655 S
C205 C204 1.370 1_655 S
C205 C206 1.407 . S
C206 C205 1.407 . S
C206 C207 1.365 . S
C207 H195 0.930 . S
C207 C206 1.365 . S
C207 C208 1.393 . S
C208 C207 1.393 . S
C208 C209 1.412 . S
C209 H196 0.917 1_655 S
C209 C204 1.405 1_655 S
C209 C208 1.412 . S
H210 C218 0.930 . S
H211 C221 0.930 . S
H212 C223 0.930 . S
H213 C224 0.970 . S
H214 C224 0.970 . S
H215 C226 0.930 . S
H216 C228 0.930 . S
H217 C230 0.930 . S
C218 H210 0.930 . S
C218 C219 1.382 . S
C218 C220 1.426 . S
C219 C218 1.382 . S
C219 C223 1.389 . S
C220 C218 1.426 . S
C220 C221 1.375 . S
C220 C224 1.532 . S
C221 H211 0.930 . S
C221 C220 1.375 . S
C221 C222 1.416 . S
C222 C221 1.416 . S
C222 C223 1.371 . S
C223 H212 0.930 . S
C223 C219 1.389 . S
C223 C222 1.371 . S
C224 H213 0.970 . S
C224 H214 0.970 . S
C224 C220 1.532 . S
C224 C225 1.499 . S
C225 C224 1.499 . S
C225 C226 1.370 . S
C225 C230 1.415 . S
C226 H215 0.930 . S
C226 C225 1.370 . S
C226 C227 1.407 . S
C227 C226 1.407 . S
C227 C228 1.365 . S
C228 H216 0.930 . S
C228 C227 1.365 . S
C228 C229 1.393 . S
C229 C228 1.393 . S
C229 C230 1.387 . S
C230 H217 0.930 . S
C230 C225 1.415 . S
C230 C229 1.387 . S
H231 C239 0.930 . S
H232 C242 0.930 . S
H233 C244 0.930 . S
H234 C245 0.970 . S
H235 C245 0.970 . S
H236 C247 0.930 . S
H237 C249 0.930 . S
H238 C251 0.930 . S
C239 H231 0.930 . S
C239 C240 1.382 . S
C239 C241 1.426 . S
C240 C239 1.382 . S
C240 C244 1.389 . S
C241 C239 1.426 . S
C241 C242 1.375 . S
C241 C245 1.532 . S
C242 H232 0.930 . S
C242 C241 1.375 . S
C242 C243 1.416 . S
C243 C242 1.416 . S
C243 C244 1.371 . S
C244 H233 0.930 . S
C244 C240 1.389 . S
C244 C243 1.371 . S
C245 H234 0.970 . S
C245 H235 0.970 . S
C245 C241 1.532 . S
C245 C246 1.499 . S
C246 C245 1.499 . S
C246 C247 1.370 . S
C246 C251 1.415 . S
C247 H236 0.930 . S
C247 C246 1.370 . S
C247 C248 1.407 . S
C248 C247 1.407 . S
C248 C249 1.365 . S
C249 H237 0.930 . S
C249 C248 1.365 . S
C249 C250 1.393 . S
C250 C249 1.393 . S
C250 C251 1.387 . S
C251 H238 0.930 . S
C251 C246 1.415 . S
C251 C250 1.387 . S
H252 C260 0.930 . S
H253 C263 0.930 . S
H254 C265 0.930 . S
H255 C266 0.970 . S
H256 C266 0.970 . S
H257 C268 0.930 . S
H258 C270 0.930 . S
H259 C272 0.930 . S
C260 H252 0.930 . S
C260 C261 1.382 . S
C260 C262 1.426 . S
C261 C260 1.382 . S
C261 C265 1.389 . S
C262 C260 1.426 . S
C262 C263 1.375 . S
C262 C266 1.532 1_545 S
C263 H253 0.930 . S
C263 C262 1.375 . S
C263 C264 1.416 . S
C264 C263 1.416 . S
C264 C265 1.371 . S
C265 H254 0.930 . S
C265 C261 1.389 . S
C265 C264 1.371 . S
C266 H255 0.970 . S
C266 H256 0.970 . S
C266 C262 1.532 1_565 S
C266 C267 1.499 . S
C267 C266 1.499 . S
C267 C268 1.370 . S
C267 C272 1.415 . S
C268 H257 0.930 . S
C268 C267 1.370 . S
C268 C269 1.407 . S
C269 C268 1.407 . S
C269 C270 1.365 . S
C270 H258 0.930 . S
C270 C269 1.365 . S
C270 C271 1.393 . S
C271 C270 1.393 . S
C271 C272 1.387 . S
C272 H259 0.930 . S
C272 C267 1.415 . S
C272 C271 1.387 . S
H273 C281 0.930 . S
H274 C284 0.930 . S
H275 C286 0.930 . S
H276 C287 0.970 . S
H277 C287 0.970 . S
H278 C289 0.930 . S
H279 C291 0.930 . S
H280 C293 0.930 . S
C281 H273 0.930 . S
C281 C282 1.382 . S
C281 C283 1.426 . S
C282 C281 1.382 . S
C282 C286 1.389 . S
C283 C281 1.426 . S
C283 C284 1.375 . S
C283 C287 1.532 . S
C284 H274 0.930 . S
C284 C283 1.375 . S
C284 C285 1.416 . S
C285 C284 1.416 . S
C285 C286 1.371 . S
C286 H275 0.930 . S
C286 C282 1.389 . S
C286 C285 1.371 . S
C287 H276 0.970 . S
C287 H277 0.970 . S
C287 C283 1.532 . S
C287 C288 1.499 . S
C288 C287 1.499 . S
C288 C289 1.370 . S
C288 C293 1.415 . S
C289 H278 0.930 . S
C289 C288 1.370 . S
C289 C290 1.407 . S
C290 C289 1.407 . S
C290 C291 1.365 . S
C291 H279 0.930 . S
C291 C290 1.365 . S
C291 C292 1.393 . S
C292 C291 1.393 . S
C292 C293 1.387 . S
C293 H280 0.930 . S
C293 C288 1.415 . S
C293 C292 1.387 . S
H294 C302 0.930 . S
H295 C305 0.930 . S
H296 C307 0.930 . S
H297 C308 0.970 . S
H298 C308 0.970 . S
H299 C310 0.930 . S
H300 C312 0.930 . S
H301 C314 0.930 . S
C302 H294 0.930 . S
C302 C303 1.382 . S
C302 C304 1.426 1_565 S
C303 C302 1.382 . S
C303 C307 1.389 . S
C304 C302 1.426 1_545 S
C304 C305 1.375 1_545 S
C304 C308 1.532 . S
C305 H295 0.930 . S
C305 C304 1.375 1_565 S
C305 C306 1.416 . S
C306 C305 1.416 . S
C306 C307 1.371 . S
C307 H296 0.930 . S
C307 C303 1.389 . S
C307 C306 1.371 . S
C308 H297 0.970 . S
C308 H298 0.970 . S
C308 C304 1.532 . S
C308 C309 1.499 . S
C309 C308 1.499 . S
C309 C310 1.370 . S
C309 C314 1.415 . S
C310 H299 0.930 . S
C310 C309 1.370 . S
C310 C311 1.407 . S
C311 C310 1.407 . S
C311 C312 1.365 . S
C312 H300 0.930 . S
C312 C311 1.365 . S
C312 C313 1.393 . S
C313 C312 1.393 . S
C313 C314 1.387 . S
C314 H301 0.930 . S
C314 C309 1.415 . S
C314 C313 1.387 . S
H315 C323 0.930 . S
H316 C326 0.930 . S
H317 C328 0.930 . S
H318 C329 0.970 . S
H319 C329 0.970 . S
H320 C331 0.930 . S
H321 C333 0.930 . S
H322 C335 0.930 . S
C323 H315 0.930 . S
C323 C324 1.382 . S
C323 C325 1.426 . S
C324 C323 1.382 . S
C324 C328 1.389 . S
C325 C323 1.426 . S
C325 C326 1.375 . S
C325 C329 1.532 . S
C326 H316 0.930 . S
C326 C325 1.375 . S
C326 C327 1.416 . S
C327 C326 1.416 . S
C327 C328 1.371 . S
C328 H317 0.930 . S
C328 C324 1.389 . S
C328 C327 1.371 . S
C329 H318 0.970 . S
C329 H319 0.970 . S
C329 C325 1.532 . S
C329 C330 1.499 . S
C330 C329 1.499 . S
C330 C331 1.370 . S
C330 C335 1.415 . S
C331 H320 0.930 . S
C331 C330 1.370 . S
C331 C332 1.407 1_554 S
C332 C331 1.407 1_556 S
C332 C333 1.365 . S
C333 H321 0.930 . S
C333 C332 1.365 . S
C333 C334 1.393 . S
C334 C333 1.393 . S
C334 C335 1.387 1_556 S
C335 H322 0.930 . S
C335 C330 1.415 . S
C335 C334 1.387 1_554 S
H336 C344 0.930 . S
H337 C347 0.930 . S
H338 C349 0.930 . S
H339 C350 0.970 . S
H340 C350 0.970 . S
H341 C352 0.930 . S
H342 C354 0.930 . S
H343 C356 0.930 . S
C344 H336 0.930 . S
C344 C345 1.382 . S
C344 C346 1.426 . S
C345 C344 1.382 . S
C345 C349 1.389 . S
C346 C344 1.426 . S
C346 C347 1.375 . S
C346 C350 1.532 . S
C347 H337 0.930 . S
C347 C346 1.375 . S
C347 C348 1.416 . S
C348 C347 1.416 . S
C348 C349 1.371 . S
C349 H338 0.930 . S
C349 C345 1.389 . S
C349 C348 1.371 . S
C350 H339 0.970 . S
C350 H340 0.970 . S
C350 C346 1.532 . S
C350 C351 1.499 . S
C351 C350 1.499 . S
C351 C352 1.370 . S
C351 C356 1.415 . S
C352 H341 0.930 . S
C352 C351 1.370 . S
C352 C353 1.407 1_554 S
C353 C352 1.407 1_556 S
C353 C354 1.365 . S
C354 H342 0.930 . S
C354 C353 1.365 . S
C354 C355 1.393 . S
C355 C354 1.393 . S
C355 C356 1.387 1_556 S
C356 H343 0.930 . S
C356 C351 1.415 . S
C356 C355 1.387 1_554 S
H357 C365 0.930 . S
H358 C368 0.930 . S
H359 C370 0.930 . S
H360 C371 0.970 . S
H361 C371 0.970 . S
H362 C373 0.930 . S
H363 C375 0.930 . S
H364 C377 0.930 . S
C365 H357 0.930 . S
C365 C366 1.382 . S
C365 C367 1.426 . S
C366 C365 1.382 . S
C366 C370 1.389 . S
C367 C365 1.426 . S
C367 C368 1.375 . S
C367 C371 1.532 . S
C368 H358 0.930 . S
C368 C367 1.375 . S
C368 C369 1.416 . S
C369 C368 1.416 . S
C369 C370 1.371 . S
C370 H359 0.930 . S
C370 C366 1.389 . S
C370 C369 1.371 . S
C371 H360 0.970 . S
C371 H361 0.970 . S
C371 C367 1.532 . S
C371 C372 1.499 . S
C372 C371 1.499 . S
C372 C373 1.370 . S
C372 C377 1.415 . S
C373 H362 0.930 . S
C373 C372 1.370 . S
C373 C374 1.407 . S
C374 C373 1.407 . S
C374 C375 1.365 . S
C375 H363 0.930 . S
C375 C374 1.365 . S
C375 C376 1.393 . S
C376 C375 1.393 . S
C376 C377 1.387 . S
C377 H364 0.930 . S
C377 C372 1.415 . S
C377 C376 1.387 . S
H378 C386 0.930 . S
H379 C389 0.930 . S
H380 C391 0.930 . S
H381 C392 0.970 . S
H382 C392 0.970 . S
H383 C394 0.930 . S
H384 C396 0.930 . S
H385 C398 0.930 . S
C386 H378 0.930 . S
C386 C387 1.382 . S
C386 C388 1.426 . S
C387 C386 1.382 . S
C387 C391 1.389 . S
C388 C386 1.426 . S
C388 C389 1.375 . S
C388 C392 1.532 . S
C389 H379 0.930 . S
C389 C388 1.375 . S
C389 C390 1.416 . S
C390 C389 1.416 . S
C390 C391 1.371 . S
C391 H380 0.930 . S
C391 C387 1.389 . S
C391 C390 1.371 . S
C392 H381 0.970 . S
C392 H382 0.970 . S
C392 C388 1.532 . S
C392 C393 1.499 . S
C393 C392 1.499 . S
C393 C394 1.370 . S
C393 C398 1.415 . S
C394 H383 0.930 . S
C394 C393 1.370 . S
C394 C395 1.407 . S
C395 C394 1.407 . S
C395 C396 1.365 . S
C396 H384 0.930 . S
C396 C395 1.365 . S
C396 C397 1.393 . S
C397 C396 1.393 . S
C397 C398 1.387 . S
C398 H385 0.930 . S
C398 C393 1.415 . S
C398 C397 1.387 . S
H399 C407 0.930 . S
H400 C410 0.930 . S
H401 C412 0.930 . S
H402 C413 0.970 . S
H403 C413 0.970 . S
H404 C415 0.930 . S
H405 C417 0.930 . S
H406 C419 0.930 . S
C407 H399 0.930 . S
C407 C408 1.382 . S
C407 C409 1.426 . S
C408 C407 1.382 . S
C408 C412 1.389 . S
C409 C407 1.426 . S
C409 C410 1.375 . S
C409 C413 1.532 . S
C410 H400 0.930 . S
C410 C409 1.375 . S
C410 C411 1.416 . S
C411 C410 1.416 . S
C411 C412 1.371 . S
C412 H401 0.930 . S
C412 C408 1.389 . S
C412 C411 1.371 . S
C413 H402 0.970 . S
C413 H403 0.970 . S
C413 C409 1.532 . S
C413 C414 1.499 . S
C414 C413 1.499 . S
C414 C415 1.370 . S
C414 C419 1.415 . S
C415 H404 0.930 . S
C415 C414 1.370 . S
C415 C416 1.407 . S
C416 C415 1.407 . S
C416 C417 1.365 . S
C417 H405 0.930 . S
C417 C416 1.365 . S
C417 C418 1.393 . S
C418 C417 1.393 . S
C418 C419 1.387 . S
C419 H406 0.930 . S
C419 C414 1.415 . S
C419 C418 1.387 . S
H420 C428 0.929 . S
H421 C430 0.930 . S
H422 C432 0.930 . S
H423 C435 0.929 . S
H424 C438 0.930 . S
H425 C440 0.960 . S
H426 C440 0.960 . S
H427 C440 0.960 . S
C428 H420 0.929 . S
C428 C429 1.377 . S
C428 C430 1.384 . S
C429 C428 1.377 . S
C429 C435 1.390 . S
C430 H421 0.930 . S
C430 C428 1.384 . S
C430 C431 1.372 . S
C431 C430 1.372 . S
C431 C432 1.400 . S
C431 C436 1.490 1_554 S
C432 H422 0.930 . S
C432 C431 1.400 . S
C432 C435 1.386 . S
H433 C449 0.930 . S
H434 C450 0.931 . S
C435 H423 0.929 . S
C435 C429 1.390 . S
C435 C432 1.386 . S
C436 C431 1.490 1_556 S
C436 C438 1.395 . S
C436 C439 1.403 . S
H437 C443 0.930 . S
C438 H424 0.930 . S
C438 C436 1.395 . S
C438 C441 1.403 . S
C439 C436 1.403 . S
C439 C440 1.524 1_556 S
C439 C443 1.400 . S
C440 H425 0.960 . S
C440 H426 0.960 . S
C440 H427 0.960 . S
C440 C439 1.524 1_554 S
C441 C438 1.403 . S
C441 C442 1.392 . S
C441 C445 1.495 . S
C442 C441 1.392 . S
C442 C443 1.385 . S
C442 C444 1.478 . S
C443 H437 0.930 . S
C443 C439 1.400 . S
C443 C442 1.385 . S
C444 C442 1.478 . S
C444 C446 1.381 . S
C444 C450 1.383 . S
C445 C441 1.495 . S
C445 H451 0.959 . S
C445 H452 0.961 . S
C445 H453 0.960 . S
C446 C444 1.381 . S
C446 C447 1.394 . S
C446 H454 0.930 . S
C447 C446 1.394 . S
C447 C448 1.383 . S
C447 H455 0.929 . S
C448 C447 1.383 . S
C448 C449 1.377 . S
C449 H433 0.930 . S
C449 C448 1.377 . S
C449 C450 1.379 . S
C450 H434 0.931 . S
C450 C444 1.383 . S
C450 C449 1.379 . S
H451 C445 0.959 . S
H452 C445 0.961 . S
H453 C445 0.960 . S
H454 C446 0.930 . S
H455 C447 0.929 . S
H456 C464 0.929 . S
H457 C466 0.930 . S
H458 C468 0.930 . S
H459 C471 0.929 . S
H460 C474 0.930 . S
H461 C476 0.960 . S
H462 C476 0.960 . S
H463 C476 0.960 . S
C464 H456 0.929 . S
C464 C465 1.377 . S
C464 C466 1.384 . S
C465 C464 1.377 . S
C465 C471 1.390 . S
C466 H457 0.930 . S
C466 C464 1.384 . S
C466 C467 1.372 . S
C467 C466 1.372 . S
C467 C468 1.400 . S
C467 C472 1.490 . S
C468 H458 0.930 . S
C468 C467 1.400 . S
C468 C471 1.386 . S
H469 C485 0.930 . S
H470 C486 0.931 . S
C471 H459 0.929 . S
C471 C465 1.390 . S
C471 C468 1.386 . S
C472 C467 1.490 . S
C472 C474 1.395 . S
C472 C475 1.403 . S
H473 C479 0.930 . S
C474 H460 0.930 . S
C474 C472 1.395 . S
C474 C477 1.403 . S
C475 C472 1.403 . S
C475 C476 1.524 . S
C475 C479 1.400 . S
C476 H461 0.960 . S
C476 H462 0.960 . S
C476 H463 0.960 . S
C476 C475 1.524 . S
C477 C474 1.403 . S
C477 C478 1.392 . S
C477 C481 1.495 . S
C478 C477 1.392 . S
C478 C479 1.385 . S
C478 C480 1.478 . S
C479 H473 0.930 . S
C479 C475 1.400 . S
C479 C478 1.385 . S
C480 C478 1.478 . S
C480 C482 1.381 . S
C480 C486 1.383 . S
C481 C477 1.495 . S
C481 H487 0.959 . S
C481 H488 0.961 . S
C481 H489 0.960 . S
C482 C480 1.381 . S
C482 C483 1.394 . S
C482 H490 0.930 . S
C483 C482 1.394 . S
C483 C484 1.383 . S
C483 H491 0.929 . S
C484 C483 1.383 . S
C484 C485 1.377 . S
C485 H469 0.930 . S
C485 C484 1.377 . S
C485 C486 1.379 . S
C486 H470 0.931 . S
C486 C480 1.383 . S
C486 C485 1.379 . S
H487 C481 0.959 . S
H488 C481 0.961 . S
H489 C481 0.960 . S
H490 C482 0.930 . S
H491 C483 0.929 . S
H492 C500 0.929 . S
H493 C502 0.930 . S
H494 C504 0.930 . S
H495 C507 0.929 . S
H496 C510 0.930 . S
H497 C512 0.960 . S
H498 C512 0.960 . S
H499 C512 0.960 . S
C500 H492 0.929 . S
C500 C501 1.377 . S
C500 C502 1.384 . S
C501 C500 1.377 . S
C501 C507 1.390 . S
C502 H493 0.930 . S
C502 C500 1.384 . S
C502 C503 1.372 . S
C503 C502 1.372 . S
C503 C504 1.400 . S
C503 C508 1.490 . S
C504 H494 0.930 . S
C504 C503 1.400 . S
C504 C507 1.386 . S
H505 C521 0.930 . S
H506 C522 0.931 . S
C507 H495 0.929 . S
C507 C501 1.390 . S
C507 C504 1.386 . S
C508 C503 1.490 . S
C508 C510 1.395 . S
C508 C511 1.403 . S
H509 C515 0.930 . S
C510 H496 0.930 . S
C510 C508 1.395 . S
C510 C513 1.403 . S
C511 C508 1.403 . S
C511 C512 1.524 . S
C511 C515 1.400 . S
C512 H497 0.960 . S
C512 H498 0.960 . S
C512 H499 0.960 . S
C512 C511 1.524 . S
C513 C510 1.403 . S
C513 C514 1.392 . S
C513 C517 1.495 . S
C514 C513 1.392 . S
C514 C515 1.385 . S
C514 C516 1.478 . S
C515 H509 0.930 . S
C515 C511 1.400 . S
C515 C514 1.385 . S
C516 C514 1.478 . S
C516 C518 1.381 . S
C516 C522 1.383 . S
C517 C513 1.495 . S
C517 H523 0.959 . S
C517 H524 0.961 . S
C517 H525 0.960 . S
C518 C516 1.381 . S
C518 C519 1.394 . S
C518 H526 0.930 . S
C519 C518 1.394 . S
C519 C520 1.383 . S
C519 H527 0.929 . S
C520 C519 1.383 . S
C520 C521 1.377 . S
C521 H505 0.930 . S
C521 C520 1.377 . S
C521 C522 1.379 . S
C522 H506 0.931 . S
C522 C516 1.383 . S
C522 C521 1.379 . S
H523 C517 0.959 . S
H524 C517 0.961 . S
H525 C517 0.960 . S
H526 C518 0.930 . S
H527 C519 0.929 . S
H528 C536 0.929 . S
H529 C538 0.930 . S
H530 C540 0.930 . S
H531 C543 0.929 . S
H532 C546 0.930 . S
H533 C548 0.960 . S
H534 C548 0.960 . S
H535 C548 0.960 . S
C536 H528 0.929 . S
C536 C537 1.377 . S
C536 C538 1.384 . S
C537 C536 1.377 . S
C537 C543 1.390 . S
C538 H529 0.930 . S
C538 C536 1.384 . S
C538 C539 1.372 . S
C539 C538 1.372 . S
C539 C540 1.400 . S
C539 C544 1.490 . S
C540 H530 0.930 . S
C540 C539 1.400 . S
C540 C543 1.386 . S
H541 C557 0.930 . S
H542 C558 0.931 . S
C543 H531 0.929 . S
C543 C537 1.390 . S
C543 C540 1.386 . S
C544 C539 1.490 . S
C544 C546 1.395 . S
C544 C547 1.403 . S
H545 C551 0.930 . S
C546 H532 0.930 . S
C546 C544 1.395 . S
C546 C549 1.403 . S
C547 C544 1.403 . S
C547 C548 1.524 . S
C547 C551 1.400 . S
C548 H533 0.960 . S
C548 H534 0.960 . S
C548 H535 0.960 . S
C548 C547 1.524 . S
C549 C546 1.403 . S
C549 C550 1.392 . S
C549 C553 1.495 . S
C550 C549 1.392 . S
C550 C551 1.385 . S
C550 C552 1.478 . S
C551 H545 0.930 . S
C551 C547 1.400 . S
C551 C550 1.385 . S
C552 C550 1.478 . S
C552 C554 1.381 . S
C552 C558 1.383 . S
C553 C549 1.495 . S
C553 H559 0.959 . S
C553 H560 0.961 . S
C553 H561 0.960 . S
C554 C552 1.381 . S
C554 C555 1.394 . S
C554 H562 0.930 . S
C555 C554 1.394 . S
C555 C556 1.383 . S
C555 H563 0.929 . S
C556 C555 1.383 . S
C556 C557 1.377 . S
C557 H541 0.930 . S
C557 C556 1.377 . S
C557 C558 1.379 . S
C558 H542 0.931 . S
C558 C552 1.383 . S
C558 C557 1.379 . S
H559 C553 0.959 . S
H560 C553 0.961 . S
H561 C553 0.960 . S
H562 C554 0.930 . S
H563 C555 0.929 . S
H564 C572 0.929 . S
H565 C574 0.930 . S
H566 C576 0.930 . S
H567 C579 0.929 . S
H568 C582 0.930 . S
H569 C584 0.960 . S
H570 C584 0.960 . S
H571 C584 0.960 . S
C572 H564 0.929 . S
C572 C573 1.377 . S
C572 C574 1.384 . S
C573 C572 1.377 . S
C573 C579 1.390 . S
C574 H565 0.930 . S
C574 C572 1.384 . S
C574 C575 1.372 . S
C575 C574 1.372 . S
C575 C576 1.400 . S
C575 C580 1.490 . S
C576 H566 0.930 . S
C576 C575 1.400 . S
C576 C579 1.386 . S
H577 C593 0.930 . S
H578 C594 0.931 . S
C579 H567 0.929 . S
C579 C573 1.390 . S
C579 C576 1.386 . S
C580 C575 1.490 . S
C580 C582 1.395 . S
C580 C583 1.403 . S
H581 C587 0.930 . S
C582 H568 0.930 . S
C582 C580 1.395 . S
C582 C585 1.403 . S
C583 C580 1.403 . S
C583 C584 1.524 . S
C583 C587 1.400 . S
C584 H569 0.960 . S
C584 H570 0.960 . S
C584 H571 0.960 . S
C584 C583 1.524 . S
C585 C582 1.403 . S
C585 C586 1.392 . S
C585 C589 1.495 . S
C586 C585 1.392 . S
C586 C587 1.385 . S
C586 C588 1.478 . S
C587 H581 0.930 . S
C587 C583 1.400 . S
C587 C586 1.385 . S
C588 C586 1.478 . S
C588 C590 1.381 . S
C588 C594 1.383 . S
C589 C585 1.495 . S
C589 H595 0.959 . S
C589 H596 0.961 . S
C589 H597 0.960 . S
C590 C588 1.381 . S
C590 C591 1.394 . S
C590 H598 0.930 . S
C591 C590 1.394 . S
C591 C592 1.383 . S
C591 H599 0.929 . S
C592 C591 1.383 . S
C592 C593 1.377 . S
C593 H577 0.930 . S
C593 C592 1.377 . S
C593 C594 1.379 . S
C594 H578 0.931 . S
C594 C588 1.383 . S
C594 C593 1.379 . S
H595 C589 0.959 . S
H596 C589 0.961 . S
H597 C589 0.960 . S
H598 C590 0.930 . S
H599 C591 0.929 . S
H600 C608 0.929 . S
H601 C610 0.930 . S
H602 C612 0.930 . S
H603 C615 0.929 . S
H604 C618 0.930 . S
H605 C620 0.960 . S
H606 C620 0.960 . S
H607 C620 0.960 . S
C608 H600 0.929 . S
C608 C609 1.377 . S
C608 C610 1.384 . S
C609 C608 1.377 . S
C609 C615 1.390 . S
C610 H601 0.930 . S
C610 C608 1.384 . S
C610 C611 1.372 . S
C611 C610 1.372 . S
C611 C612 1.400 . S
C611 C616 1.490 . S
C612 H602 0.930 . S
C612 C611 1.400 . S
C612 C615 1.386 . S
H613 C629 0.930 . S
H614 C630 0.931 . S
C615 H603 0.929 . S
C615 C609 1.390 . S
C615 C612 1.386 . S
C616 C611 1.490 . S
C616 C618 1.395 . S
C616 C619 1.403 . S
H617 C623 0.930 . S
C618 H604 0.930 . S
C618 C616 1.395 . S
C618 C621 1.403 . S
C619 C616 1.403 . S
C619 C620 1.524 . S
C619 C623 1.400 . S
C620 H605 0.960 . S
C620 H606 0.960 . S
C620 H607 0.960 . S
C620 C619 1.524 . S
C621 C618 1.403 . S
C621 C622 1.392 . S
C621 C625 1.495 . S
C622 C621 1.392 . S
C622 C623 1.385 . S
C622 C624 1.478 . S
C623 H617 0.930 . S
C623 C619 1.400 . S
C623 C622 1.385 . S
C624 C622 1.478 . S
C624 C626 1.381 . S
C624 C630 1.383 . S
C625 C621 1.495 . S
C625 H631 0.959 . S
C625 H632 0.961 . S
C625 H633 0.960 . S
C626 C624 1.381 . S
C626 C627 1.394 . S
C626 H634 0.930 . S
C627 C626 1.394 . S
C627 C628 1.383 . S
C627 H635 0.929 . S
C628 C627 1.383 . S
C628 C629 1.377 . S
C629 H613 0.930 . S
C629 C628 1.377 . S
C629 C630 1.379 . S
C630 H614 0.931 . S
C630 C624 1.383 . S
C630 C629 1.379 . S
H631 C625 0.959 . S
H632 C625 0.961 . S
H633 C625 0.960 . S
H634 C626 0.930 . S
H635 C627 0.929 . S
H636 C644 0.929 . S
H637 C646 0.930 . S
H638 C648 0.930 . S
H639 C651 0.928 1_554 S
H640 C654 0.930 . S
H641 C656 0.960 . S
H642 C656 0.960 . S
H643 C656 0.960 . S
C644 H636 0.929 . S
C644 C645 1.377 . S
C644 C646 1.384 . S
C645 C644 1.377 . S
C645 C651 1.405 . S
C646 H637 0.930 . S
C646 C644 1.384 . S
C646 C647 1.372 1_556 S
C647 C646 1.372 1_554 S
C647 C648 1.400 . S
C647 C652 1.490 . S
C648 H638 0.930 . S
C648 C647 1.400 . S
C648 C651 1.372 1_554 S
H649 C665 0.930 . S
H650 C666 0.931 . S
C651 H639 0.928 1_556 S
C651 C645 1.405 . S
C651 C648 1.372 1_556 S
C652 C647 1.490 . S
C652 C654 1.395 . S
C652 C655 1.403 . S
H653 C659 0.930 . S
C654 H640 0.930 . S
C654 C652 1.395 . S
C654 C657 1.403 . S
C655 C652 1.403 . S
C655 C656 1.524 . S
C655 C659 1.400 . S
C656 H641 0.960 . S
C656 H642 0.960 . S
C656 H643 0.960 . S
C656 C655 1.524 . S
C657 C654 1.403 . S
C657 C658 1.392 . S
C657 C661 1.495 . S
C658 C657 1.392 . S
C658 C659 1.385 . S
C658 C660 1.478 . S
C659 H653 0.930 . S
C659 C655 1.400 . S
C659 C658 1.385 . S
C660 C658 1.478 . S
C660 C662 1.381 . S
C660 C666 1.383 . S
C661 C657 1.495 . S
C661 H667 0.959 . S
C661 H668 0.961 . S
C661 H669 0.960 . S
C662 C660 1.381 . S
C662 C663 1.394 . S
C662 H670 0.930 . S
C663 C662 1.394 . S
C663 C664 1.383 . S
C663 H671 0.929 . S
C664 C663 1.383 . S
C664 C665 1.377 . S
C665 H649 0.930 . S
C665 C664 1.377 . S
C665 C666 1.379 . S
C666 H650 0.931 . S
C666 C660 1.383 . S
C666 C665 1.379 . S
H667 C661 0.959 . S
H668 C661 0.961 . S
H669 C661 0.960 . S
H670 C662 0.930 . S
H671 C663 0.929 . S
H672 C680 0.929 . S
H673 C682 0.930 . S
H674 C684 0.930 . S
H675 C687 0.929 . S
H676 C690 0.930 . S
H677 C692 0.960 . S
H678 C692 0.960 . S
H679 C692 0.960 . S
C680 H672 0.929 . S
C680 C681 1.377 . S
C680 C682 1.384 . S
C681 C680 1.377 . S
C681 C687 1.390 . S
C682 H673 0.930 . S
C682 C680 1.384 . S
C682 C683 1.372 . S
C683 C682 1.372 . S
C683 C684 1.400 . S
C683 C688 1.490 . S
C684 H674 0.930 . S
C684 C683 1.400 . S
C684 C687 1.386 . S
H685 C701 0.930 . S
H686 C702 0.931 . S
C687 H675 0.929 . S
C687 C681 1.390 . S
C687 C684 1.386 . S
C688 C683 1.490 . S
C688 C690 1.395 . S
C688 C691 1.403 . S
H689 C695 0.930 . S
C690 H676 0.930 . S
C690 C688 1.395 . S
C690 C693 1.403 . S
C691 C688 1.403 . S
C691 C692 1.524 . S
C691 C695 1.400 . S
C692 H677 0.960 . S
C692 H678 0.960 . S
C692 H679 0.960 . S
C692 C691 1.524 . S
C693 C690 1.403 . S
C693 C694 1.392 . S
C693 C697 1.495 . S
C694 C693 1.392 . S
C694 C695 1.385 . S
C694 C696 1.478 . S
C695 H689 0.930 . S
C695 C691 1.400 . S
C695 C694 1.385 . S
C696 C694 1.478 . S
C696 C698 1.381 . S
C696 C702 1.383 . S
C697 C693 1.495 . S
C697 H703 0.959 . S
C697 H704 0.961 . S
C697 H705 0.960 . S
C698 C696 1.381 . S
C698 C699 1.394 . S
C698 H706 0.930 . S
C699 C698 1.394 . S
C699 C700 1.383 . S
C699 H707 0.929 . S
C700 C699 1.383 . S
C700 C701 1.377 . S
C701 H685 0.930 . S
C701 C700 1.377 . S
C701 C702 1.379 . S
C702 H686 0.931 . S
C702 C696 1.383 . S
C702 C701 1.379 . S
H703 C697 0.959 . S
H704 C697 0.961 . S
H705 C697 0.960 . S
H706 C698 0.930 . S
H707 C699 0.929 . S
H708 C716 0.929 . S
H709 C718 0.930 . S
H710 C720 0.930 1_655 S
H711 C723 0.936 . S
H712 C726 0.930 . S
H713 C728 0.960 . S
H714 C728 0.960 . S
H715 C728 0.960 . S
C716 H708 0.929 . S
C716 C717 1.377 . S
C716 C718 1.384 . S
C717 C716 1.377 . S
C717 C723 1.390 . S
C718 H709 0.930 . S
C718 C716 1.384 . S
C718 C719 1.372 . S
C719 C718 1.372 . S
C719 C720 1.400 . S
C719 C724 1.490 1_455 S
C720 H710 0.930 1_455 S
C720 C719 1.400 . S
C720 C723 1.386 . S
H721 C737 0.930 . S
H722 C738 0.931 . S
C723 H711 0.936 . S
C723 C717 1.390 . S
C723 C720 1.386 . S
C724 C719 1.490 1_655 S
C724 C726 1.395 . S
C724 C727 1.403 . S
H725 C731 0.930 . S
C726 H712 0.930 . S
C726 C724 1.395 . S
C726 C729 1.403 . S
C727 C724 1.403 . S
C727 C728 1.524 . S
C727 C731 1.400 . S
C728 H713 0.960 . S
C728 H714 0.960 . S
C728 H715 0.960 . S
C728 C727 1.524 . S
C729 C726 1.403 . S
C729 C730 1.392 . S
C729 C733 1.495 . S
C730 C729 1.392 . S
C730 C731 1.385 . S
C730 C732 1.478 . S
C731 H725 0.930 . S
C731 C727 1.400 . S
C731 C730 1.385 . S
C732 C730 1.478 . S
C732 C734 1.381 . S
C732 C738 1.383 . S
C733 C729 1.495 . S
C733 H739 0.959 . S
C733 H740 0.961 . S
C733 H741 0.960 . S
C734 C732 1.381 . S
C734 C735 1.394 . S
C734 H742 0.930 . S
C735 C734 1.394 . S
C735 C736 1.383 . S
C735 H743 0.929 . S
C736 C735 1.383 . S
C736 C737 1.377 . S
C737 H721 0.930 . S
C737 C736 1.377 . S
C737 C738 1.379 . S
C738 H722 0.931 . S
C738 C732 1.383 . S
C738 C737 1.379 . S
H739 C733 0.959 . S
H740 C733 0.961 . S
H741 C733 0.960 . S
H742 C734 0.930 . S
H743 C735 0.929 . S
H744 C752 0.929 . S
H745 C754 0.930 . S
H746 C756 0.930 . S
H747 C759 0.929 . S
H748 C762 0.930 . S
H749 C764 0.960 . S
H750 C764 0.960 . S
H751 C764 0.960 . S
C752 H744 0.929 . S
C752 C753 1.377 . S
C752 C754 1.384 . S
C753 C752 1.377 . S
C753 C759 1.390 . S
C754 H745 0.930 . S
C754 C752 1.384 . S
C754 C755 1.372 . S
C755 C754 1.372 . S
C755 C756 1.400 . S
C755 C760 1.490 . S
C756 H746 0.930 . S
C756 C755 1.400 . S
C756 C759 1.386 . S
H757 C773 0.930 . S
H758 C774 0.931 . S
C759 H747 0.929 . S
C759 C753 1.390 . S
C759 C756 1.386 . S
C760 C755 1.490 . S
C760 C762 1.395 . S
C760 C763 1.403 . S
H761 C767 0.930 . S
C762 H748 0.930 . S
C762 C760 1.395 . S
C762 C765 1.403 . S
C763 C760 1.403 . S
C763 C764 1.524 . S
C763 C767 1.400 . S
C764 H749 0.960 . S
C764 H750 0.960 . S
C764 H751 0.960 . S
C764 C763 1.524 . S
C765 C762 1.403 . S
C765 C766 1.392 . S
C765 C769 1.495 . S
C766 C765 1.392 . S
C766 C767 1.385 . S
C766 C768 1.478 . S
C767 H761 0.930 . S
C767 C763 1.400 . S
C767 C766 1.385 . S
C768 C766 1.478 . S
C768 C770 1.381 . S
C768 C774 1.383 . S
C769 C765 1.495 . S
C769 H775 0.959 . S
C769 H776 0.961 . S
C769 H777 0.960 . S
C770 C768 1.381 . S
C770 C771 1.394 . S
C770 H778 0.930 . S
C771 C770 1.394 . S
C771 C772 1.383 . S
C771 H779 0.929 . S
C772 C771 1.383 . S
C772 C773 1.377 . S
C773 H757 0.930 . S
C773 C772 1.377 . S
C773 C774 1.379 . S
C774 H758 0.931 . S
C774 C768 1.383 . S
C774 C773 1.379 . S
H775 C769 0.959 . S
H776 C769 0.961 . S
H777 C769 0.960 . S
H778 C770 0.930 . S
H779 C771 0.929 . S
H780 C788 0.929 . S
H781 C790 0.930 . S
H782 C792 0.930 . S
H783 C795 0.929 . S
H784 C798 0.930 . S
H785 C800 0.960 . S
H786 C800 0.960 . S
H787 C800 0.960 . S
C788 H780 0.929 . S
C788 C789 1.377 . S
C788 C790 1.384 . S
C789 C788 1.377 . S
C789 C795 1.390 1_545 S
C790 H781 0.930 . S
C790 C788 1.384 . S
C790 C791 1.372 1_545 S
C791 C790 1.372 1_565 S
C791 C792 1.400 . S
C791 C796 1.490 . S
C792 H782 0.930 . S
C792 C791 1.400 . S
C792 C795 1.386 . S
H793 C809 0.930 . S
H794 C810 0.931 . S
C795 H783 0.929 . S
C795 C789 1.390 1_565 S
C795 C792 1.386 . S
C796 C791 1.490 . S
C796 C798 1.395 . S
C796 C799 1.403 . S
H797 C803 0.930 . S
C798 H784 0.930 . S
C798 C796 1.395 . S
C798 C801 1.403 . S
C799 C796 1.403 . S
C799 C800 1.524 . S
C799 C803 1.400 . S
C800 H785 0.960 . S
C800 H786 0.960 . S
C800 H787 0.960 . S
C800 C799 1.524 . S
C801 C798 1.403 . S
C801 C802 1.392 . S
C801 C805 1.495 . S
C802 C801 1.392 . S
C802 C803 1.385 . S
C802 C804 1.478 . S
C803 H797 0.930 . S
C803 C799 1.400 . S
C803 C802 1.385 . S
C804 C802 1.478 . S
C804 C806 1.381 . S
C804 C810 1.383 . S
C805 C801 1.495 . S
C805 H811 0.959 1_565 S
C805 H812 0.961 . S
C805 H813 0.960 . S
C806 C804 1.381 . S
C806 C807 1.394 . S
C806 H814 0.930 . S
C807 C806 1.394 . S
C807 C808 1.383 . S
C807 H815 0.929 . S
C808 C807 1.383 . S
C808 C809 1.377 . S
C809 H793 0.930 . S
C809 C808 1.377 . S
C809 C810 1.379 . S
C810 H794 0.931 . S
C810 C804 1.383 . S
C810 C809 1.379 . S
H811 C805 0.959 1_545 S
H812 C805 0.961 . S
H813 C805 0.960 . S
H814 C806 0.930 . S
H815 C807 0.929 . S
H816 C824 0.929 . S
H817 C826 0.930 . S
H818 C828 0.930 . S
H819 C831 0.929 . S
H820 C834 0.930 . S
H821 C836 0.960 . S
H822 C836 0.960 . S
H823 C836 0.960 . S
C824 H816 0.929 . S
C824 C825 1.377 . S
C824 C826 1.384 . S
C825 C824 1.377 . S
C825 C831 1.390 . S
C826 H817 0.930 . S
C826 C824 1.384 . S
C826 C827 1.372 . S
C827 C826 1.372 . S
C827 C828 1.400 . S
C827 C832 1.490 . S
C828 H818 0.930 . S
C828 C827 1.400 . S
C828 C831 1.386 . S
H829 C845 0.930 . S
H830 C846 0.931 . S
C831 H819 0.929 . S
C831 C825 1.390 . S
C831 C828 1.386 . S
C832 C827 1.490 . S
C832 C834 1.395 . S
C832 C835 1.403 . S
H833 C839 0.930 . S
C834 H820 0.930 . S
C834 C832 1.395 . S
C834 C837 1.403 . S
C835 C832 1.403 . S
C835 C836 1.524 . S
C835 C839 1.400 . S
C836 H821 0.960 . S
C836 H822 0.960 . S
C836 H823 0.960 . S
C836 C835 1.524 . S
C837 C834 1.403 . S
C837 C838 1.392 . S
C837 C841 1.495 . S
C838 C837 1.392 . S
C838 C839 1.385 . S
C838 C840 1.478 . S
C839 H833 0.930 . S
C839 C835 1.400 . S
C839 C838 1.385 . S
C840 C838 1.478 . S
C840 C842 1.381 . S
C840 C846 1.383 . S
C841 C837 1.495 . S
C841 H847 0.959 . S
C841 H848 0.961 . S
C841 H849 0.960 . S
C842 C840 1.381 . S
C842 C843 1.394 . S
C842 H850 0.930 . S
C843 C842 1.394 . S
C843 C844 1.383 . S
C843 H851 0.929 . S
C844 C843 1.383 . S
C844 C845 1.377 . S
C845 H829 0.930 . S
C845 C844 1.377 . S
C845 C846 1.379 . S
C846 H830 0.931 . S
C846 C840 1.383 . S
C846 C845 1.379 . S
H847 C841 0.959 . S
H848 C841 0.961 . S
H849 C841 0.960 . S
H850 C842 0.930 . S
H851 C843 0.929 . S
H852 C860 0.929 . S
H853 C862 0.930 . S
H854 C864 0.930 . S
H855 C867 0.929 1_545 S
H856 C870 0.930 . S
H857 C872 0.963 . S
H858 C872 0.960 . S
H859 C872 0.960 . S
C860 H852 0.929 . S
C860 C861 1.377 . S
C860 C862 1.384 . S
C861 C860 1.377 . S
C861 C867 1.390 . S
C862 H853 0.930 . S
C862 C860 1.384 . S
C862 C863 1.372 . S
C863 C862 1.372 . S
C863 C864 1.400 . S
C863 C868 1.490 1_455 S
C864 H854 0.930 . S
C864 C863 1.400 . S
C864 C867 1.386 . S
H865 C881 0.930 . S
H866 C882 0.931 . S
C867 H855 0.929 1_565 S
C867 C861 1.390 . S
C867 C864 1.386 . S
C868 C863 1.490 1_655 S
C868 C870 1.395 . S
C868 C871 1.403 . S
H869 C875 0.930 . S
C870 H856 0.930 . S
C870 C868 1.395 . S
C870 C873 1.403 . S
C871 C868 1.403 . S
C871 C872 1.524 1_655 S
C871 C875 1.400 . S
C872 H857 0.963 . S
C872 H858 0.960 . S
C872 H859 0.960 . S
C872 C871 1.524 1_455 S
C873 C870 1.403 . S
C873 C874 1.392 . S
C873 C877 1.495 . S
C874 C873 1.392 . S
C874 C875 1.385 . S
C874 C876 1.478 . S
C875 H869 0.930 . S
C875 C871 1.400 . S
C875 C874 1.385 . S
C876 C874 1.478 . S
C876 C878 1.381 . S
C876 C882 1.383 . S
C877 C873 1.495 . S
C877 H883 0.959 . S
C877 H884 0.961 . S
C877 H885 0.960 . S
C878 C876 1.381 . S
C878 C879 1.394 . S
C878 H886 0.930 . S
C879 C878 1.394 . S
C879 C880 1.383 . S
C879 H887 0.929 . S
C880 C879 1.383 . S
C880 C881 1.377 . S
C881 H865 0.930 . S
C881 C880 1.377 . S
C881 C882 1.379 . S
C882 H866 0.931 . S
C882 C876 1.383 . S
C882 C881 1.379 . S
H883 C877 0.959 . S
H884 C877 0.961 . S
H885 C877 0.960 . S
H886 C878 0.930 . S
H887 C879 0.929 . S
H888 C896 0.929 . S
H889 C898 0.930 . S
H890 C900 0.930 . S
H891 C903 0.929 . S
H892 C906 0.930 . S
H893 C908 0.960 . S
H894 C908 0.960 . S
H895 C908 0.960 . S
C896 H888 0.929 . S
C896 C897 1.377 . S
C896 C898 1.384 . S
C897 C896 1.377 . S
C897 C903 1.390 . S
C898 H889 0.930 . S
C898 C896 1.384 . S
C898 C899 1.372 . S
C899 C898 1.372 . S
C899 C900 1.400 . S
C899 C904 1.490 . S
C900 H890 0.930 . S
C900 C899 1.400 . S
C900 C903 1.386 . S
H901 C917 0.930 . S
H902 C918 0.931 . S
C903 H891 0.929 . S
C903 C897 1.390 . S
C903 C900 1.386 . S
C904 C899 1.490 . S
C904 C906 1.395 . S
C904 C907 1.403 . S
H905 C911 0.930 . S
C906 H892 0.930 . S
C906 C904 1.395 . S
C906 C909 1.403 . S
C907 C904 1.403 . S
C907 C908 1.524 . S
C907 C911 1.400 . S
C908 H893 0.960 . S
C908 H894 0.960 . S
C908 H895 0.960 . S
C908 C907 1.524 . S
C909 C906 1.403 . S
C909 C910 1.392 . S
C909 C913 1.495 . S
C910 C909 1.392 . S
C910 C911 1.385 . S
C910 C912 1.478 . S
C911 H905 0.930 . S
C911 C907 1.400 . S
C911 C910 1.385 . S
C912 C910 1.478 . S
C912 C914 1.381 . S
C912 C918 1.383 . S
C913 C909 1.495 . S
C913 H919 0.959 . S
C913 H920 0.961 . S
C913 H921 0.960 . S
C914 C912 1.381 . S
C914 C915 1.394 . S
C914 H922 0.930 . S
C915 C914 1.394 . S
C915 C916 1.383 . S
C915 H923 0.929 . S
C916 C915 1.383 . S
C916 C917 1.377 . S
C917 H901 0.930 . S
C917 C916 1.377 . S
C917 C918 1.379 . S
C918 H902 0.931 . S
C918 C912 1.383 . S
C918 C917 1.379 . S
H919 C913 0.959 . S
H920 C913 0.961 . S
H921 C913 0.960 . S
H922 C914 0.930 . S
H923 C915 0.929 . S
H924 C932 0.929 . S
H925 C934 0.930 . S
H926 C936 0.930 . S
H927 C939 0.929 . S
H928 C942 0.930 . S
H929 C944 0.960 . S
H930 C944 0.960 . S
H931 C944 0.960 . S
C932 H924 0.929 . S
C932 C933 1.377 . S
C932 C934 1.384 . S
C933 C932 1.377 . S
C933 C939 1.390 . S
C934 H925 0.930 . S
C934 C932 1.384 . S
C934 C935 1.372 . S
C935 C934 1.372 . S
C935 C936 1.400 . S
C935 C940 1.490 . S
C936 H926 0.930 . S
C936 C935 1.400 . S
C936 C939 1.386 . S
H937 C953 0.930 . S
H938 C954 0.931 . S
C939 H927 0.929 . S
C939 C933 1.390 . S
C939 C936 1.386 . S
C940 C935 1.490 . S
C940 C942 1.395 . S
C940 C943 1.403 . S
H941 C947 0.930 . S
C942 H928 0.930 . S
C942 C940 1.395 . S
C942 C945 1.403 . S
C943 C940 1.403 . S
C943 C944 1.524 . S
C943 C947 1.400 . S
C944 H929 0.960 . S
C944 H930 0.960 . S
C944 H931 0.960 . S
C944 C943 1.524 . S
C945 C942 1.403 . S
C945 C946 1.392 . S
C945 C949 1.495 . S
C946 C945 1.392 . S
C946 C947 1.385 . S
C946 C948 1.478 . S
C947 H941 0.930 . S
C947 C943 1.400 . S
C947 C946 1.385 . S
C948 C946 1.478 . S
C948 C950 1.381 . S
C948 C954 1.383 . S
C949 C945 1.495 . S
C949 H955 0.959 . S
C949 H956 0.961 . S
C949 H957 0.960 . S
C950 C948 1.381 . S
C950 C951 1.394 . S
C950 H958 0.930 . S
C951 C950 1.394 . S
C951 C952 1.383 . S
C951 H959 0.929 . S
C952 C951 1.383 . S
C952 C953 1.377 . S
C953 H937 0.930 . S
C953 C952 1.377 . S
C953 C954 1.379 . S
C954 H938 0.931 . S
C954 C948 1.383 . S
C954 C953 1.379 . S
H955 C949 0.959 . S
H956 C949 0.961 . S
H957 C949 0.960 . S
H958 C950 0.930 . S
H959 C951 0.929 . S
H960 C968 0.929 . S
H961 C970 0.930 . S
H962 C972 0.930 . S
H963 C975 0.929 . S
H964 C978 0.930 . S
H965 C980 0.960 . S
H966 C980 0.960 . S
H967 C980 0.960 . S
C968 H960 0.929 . S
C968 C969 1.377 . S
C968 C970 1.384 . S
C969 C968 1.377 . S
C969 C975 1.390 . S
C970 H961 0.930 . S
C970 C968 1.384 . S
C970 C971 1.372 . S
C971 C970 1.372 . S
C971 C972 1.400 . S
C971 C976 1.490 . S
C972 H962 0.930 . S
C972 C971 1.400 . S
C972 C975 1.386 . S
H973 C989 0.930 . S
H974 C990 0.931 . S
C975 H963 0.929 . S
C975 C969 1.390 . S
C975 C972 1.386 . S
C976 C971 1.490 . S
C976 C978 1.395 . S
C976 C979 1.403 . S
H977 C983 0.930 . S
C978 H964 0.930 . S
C978 C976 1.395 . S
C978 C981 1.403 . S
C979 C976 1.403 . S
C979 C980 1.524 . S
C979 C983 1.400 . S
C980 H965 0.960 . S
C980 H966 0.960 . S
C980 H967 0.960 . S
C980 C979 1.524 . S
C981 C978 1.403 . S
C981 C982 1.392 . S
C981 C985 1.495 . S
C982 C981 1.392 . S
C982 C983 1.385 . S
C982 C984 1.478 . S
C983 H977 0.930 . S
C983 C979 1.400 . S
C983 C982 1.385 . S
C984 C982 1.478 . S
C984 C986 1.381 . S
C984 C990 1.383 . S
C985 C981 1.495 . S
C985 H991 0.959 . S
C985 H992 0.961 . S
C985 H993 0.960 . S
C986 C984 1.381 . S
C986 C987 1.394 . S
C986 H994 0.930 . S
C987 C986 1.394 . S
C987 C988 1.383 . S
C987 H995 0.929 . S
C988 C987 1.383 . S
C988 C989 1.377 . S
C989 H973 0.930 . S
C989 C988 1.377 . S
C989 C990 1.379 . S
C990 H974 0.931 . S
C990 C984 1.383 . S
C990 C989 1.379 . S
H991 C985 0.959 . S
H992 C985 0.961 . S
H993 C985 0.960 . S
H994 C986 0.930 . S
H995 C987 0.929 . S
H996 C1004 0.929 . S
H997 C1006 0.930 . S
H998 C1008 0.930 . S
H999 C1011 0.929 . S
H1000 C1014 0.930 1_545 S
H1001 C1016 0.960 . S
H1002 C1016 0.960 . S
H1003 C1016 0.960 . S
C1004 H996 0.929 . S
C1004 C1005 1.377 . S
C1004 C1006 1.384 . S
C1005 C1004 1.377 . S
C1005 C1011 1.390 . S
C1006 H997 0.930 . S
C1006 C1004 1.384 . S
C1006 C1007 1.372 . S
C1007 C1006 1.372 . S
C1007 C1008 1.400 . S
C1007 C1012 1.490 1_545 S
C1008 H998 0.930 . S
C1008 C1007 1.400 . S
C1008 C1011 1.386 . S
H1009 C1025 0.930 . S
H1010 C1026 0.931 . S
C1011 H999 0.929 . S
C1011 C1005 1.390 . S
C1011 C1008 1.386 . S
C1012 C1007 1.490 1_565 S
C1012 C1014 1.395 . S
C1012 C1015 1.403 . S
H1013 C1019 0.930 . S
C1014 H1000 0.930 1_565 S
C1014 C1012 1.395 . S
C1014 C1017 1.403 . S
C1015 C1012 1.403 . S
C1015 C1016 1.524 . S
C1015 C1019 1.400 . S
C1016 H1001 0.960 . S
C1016 H1002 0.960 . S
C1016 H1003 0.960 . S
C1016 C1015 1.524 . S
C1017 C1014 1.403 . S
C1017 C1018 1.392 . S
C1017 C1021 1.495 . S
C1018 C1017 1.392 . S
C1018 C1019 1.385 . S
C1018 C1020 1.478 . S
C1019 H1013 0.930 . S
C1019 C1015 1.400 . S
C1019 C1018 1.385 . S
C1020 C1018 1.478 . S
C1020 C1022 1.381 . S
C1020 C1026 1.383 . S
C1021 C1017 1.495 . S
C1021 H1027 0.959 . S
C1021 H1028 0.961 . S
C1021 H1029 0.960 . S
C1022 C1020 1.381 . S
C1022 C1023 1.394 . S
C1022 H1030 0.930 . S
C1023 C1022 1.394 . S
C1023 C1024 1.383 . S
C1023 H1031 0.929 . S
C1024 C1023 1.383 . S
C1024 C1025 1.377 . S
C1025 H1009 0.930 . S
C1025 C1024 1.377 . S
C1025 C1026 1.379 . S
C1026 H1010 0.931 . S
C1026 C1020 1.383 . S
C1026 C1025 1.379 . S
H1027 C1021 0.959 . S
H1028 C1021 0.961 . S
H1029 C1021 0.960 . S
H1030 C1022 0.930 . S
H1031 C1023 0.929 . S
H1032 C1040 0.929 . S
H1033 C1042 0.930 . S
H1034 C1044 0.930 . S
H1035 C1047 0.929 1_554 S
H1036 C1050 0.930 . S
H1037 C1052 0.960 . S
H1038 C1052 0.960 . S
H1039 C1052 0.960 . S
C1040 H1032 0.929 . S
C1040 C1041 1.377 . S
C1040 C1042 1.384 . S
C1041 C1040 1.377 . S
C1041 C1047 1.390 . S
C1042 H1033 0.930 . S
C1042 C1040 1.384 . S
C1042 C1043 1.372 . S
C1043 C1042 1.372 . S
C1043 C1044 1.400 . S
C1043 C1048 1.490 . S
C1044 H1034 0.930 . S
C1044 C1043 1.400 . S
C1044 C1047 1.386 . S
H1045 C1061 0.930 . S
H1046 C1062 0.931 . S
C1047 H1035 0.929 1_556 S
C1047 C1041 1.390 . S
C1047 C1044 1.386 . S
C1048 C1043 1.490 . S
C1048 C1050 1.395 . S
C1048 C1051 1.403 . S
H1049 C1055 0.930 . S
C1050 H1036 0.930 . S
C1050 C1048 1.395 . S
C1050 C1053 1.403 . S
C1051 C1048 1.403 . S
C1051 C1052 1.524 . S
C1051 C1055 1.400 . S
C1052 H1037 0.960 . S
C1052 H1038 0.960 . S
C1052 H1039 0.960 . S
C1052 C1051 1.524 . S
C1053 C1050 1.403 . S
C1053 C1054 1.392 . S
C1053 C1057 1.495 . S
C1054 C1053 1.392 . S
C1054 C1055 1.385 . S
C1054 C1056 1.478 . S
C1055 H1049 0.930 . S
C1055 C1051 1.400 . S
C1055 C1054 1.385 . S
C1056 C1054 1.478 . S
C1056 C1058 1.381 . S
C1056 C1062 1.383 . S
C1057 C1053 1.495 . S
C1057 H1063 0.959 . S
C1057 H1064 0.961 . S
C1057 H1065 0.960 . S
C1058 C1056 1.381 . S
C1058 C1059 1.394 . S
C1058 H1066 0.930 . S
C1059 C1058 1.394 . S
C1059 C1060 1.383 . S
C1059 H1067 0.929 . S
C1060 C1059 1.383 . S
C1060 C1061 1.377 . S
C1061 H1045 0.930 . S
C1061 C1060 1.377 . S
C1061 C1062 1.379 . S
C1062 H1046 0.931 . S
C1062 C1056 1.383 . S
C1062 C1061 1.379 . S
H1063 C1057 0.959 . S
H1064 C1057 0.961 . S
H1065 C1057 0.960 . S
H1066 C1058 0.930 . S
H1067 C1059 0.929 . S
H1068 C1076 0.929 . S
H1069 C1078 0.930 . S
H1070 C1080 0.930 . S
H1071 C1083 0.929 . S
H1072 C1086 0.930 . S
H1073 C1088 0.960 . S
H1074 C1088 0.960 . S
H1075 C1088 0.960 . S
C1076 H1068 0.929 . S
C1076 C1077 1.377 . S
C1076 C1078 1.384 . S
C1077 C1076 1.377 . S
C1077 C1083 1.390 . S
C1078 H1069 0.930 . S
C1078 C1076 1.384 . S
C1078 C1079 1.372 . S
C1079 C1078 1.372 . S
C1079 C1080 1.400 . S
C1079 C1084 1.490 . S
C1080 H1070 0.930 . S
C1080 C1079 1.400 . S
C1080 C1083 1.386 . S
H1081 C1097 0.930 . S
H1082 C1098 0.931 . S
C1083 H1071 0.929 . S
C1083 C1077 1.390 . S
C1083 C1080 1.386 . S
C1084 C1079 1.490 . S
C1084 C1086 1.395 . S
C1084 C1087 1.403 . S
H1085 C1091 0.930 . S
C1086 H1072 0.930 . S
C1086 C1084 1.395 . S
C1086 C1089 1.403 . S
C1087 C1084 1.403 . S
C1087 C1088 1.524 . S
C1087 C1091 1.400 . S
C1088 H1073 0.960 . S
C1088 H1074 0.960 . S
C1088 H1075 0.960 . S
C1088 C1087 1.524 . S
C1089 C1086 1.403 . S
C1089 C1090 1.392 . S
C1089 C1093 1.495 . S
C1090 C1089 1.392 . S
C1090 C1091 1.385 . S
C1090 C1092 1.478 . S
C1091 H1085 0.930 . S
C1091 C1087 1.400 . S
C1091 C1090 1.385 . S
C1092 C1090 1.478 . S
C1092 C1094 1.381 . S
C1092 C1098 1.383 . S
C1093 C1089 1.495 . S
C1093 H1099 0.959 . S
C1093 H1100 0.961 . S
C1093 H1101 0.960 . S
C1094 C1092 1.381 . S
C1094 C1095 1.394 . S
C1094 H1102 0.930 . S
C1095 C1094 1.394 . S
C1095 C1096 1.383 . S
C1095 H1103 0.929 . S
C1096 C1095 1.383 . S
C1096 C1097 1.377 . S
C1097 H1081 0.930 . S
C1097 C1096 1.377 . S
C1097 C1098 1.379 . S
C1098 H1082 0.931 . S
C1098 C1092 1.383 . S
C1098 C1097 1.379 . S
H1099 C1093 0.959 . S
H1100 C1093 0.961 . S
H1101 C1093 0.960 . S
H1102 C1094 0.930 . S
H1103 C1095 0.929 . S
H1104 C1112 0.929 . S
H1105 C1114 0.930 . S
H1106 C1116 0.930 . S
H1107 C1119 0.929 . S
H1108 C1122 0.930 . S
H1109 C1124 0.960 . S
H1110 C1124 0.960 . S
H1111 C1124 0.960 . S
C1112 H1104 0.929 . S
C1112 C1113 1.377 . S
C1112 C1114 1.384 . S
C1113 C1112 1.377 . S
C1113 C1119 1.390 . S
C1114 H1105 0.930 . S
C1114 C1112 1.384 . S
C1114 C1115 1.372 . S
C1115 C1114 1.372 . S
C1115 C1116 1.400 . S
C1115 C1120 1.490 . S
C1116 H1106 0.930 . S
C1116 C1115 1.400 . S
C1116 C1119 1.386 . S
H1117 C1133 0.930 . S
H1118 C1134 0.931 . S
C1119 H1107 0.929 . S
C1119 C1113 1.390 . S
C1119 C1116 1.386 . S
C1120 C1115 1.490 . S
C1120 C1122 1.395 . S
C1120 C1123 1.403 . S
H1121 C1127 0.930 . S
C1122 H1108 0.930 . S
C1122 C1120 1.395 . S
C1122 C1125 1.403 . S
C1123 C1120 1.403 . S
C1123 C1124 1.524 . S
C1123 C1127 1.400 . S
C1124 H1109 0.960 . S
C1124 H1110 0.960 . S
C1124 H1111 0.960 . S
C1124 C1123 1.524 . S
C1125 C1122 1.403 . S
C1125 C1126 1.392 . S
C1125 C1129 1.495 . S
C1126 C1125 1.392 . S
C1126 C1127 1.385 . S
C1126 C1128 1.478 . S
C1127 H1121 0.930 . S
C1127 C1123 1.400 . S
C1127 C1126 1.385 . S
C1128 C1126 1.478 . S
C1128 C1130 1.381 . S
C1128 C1134 1.383 . S
C1129 C1125 1.495 . S
C1129 H1135 0.959 . S
C1129 H1136 0.961 . S
C1129 H1137 0.960 . S
C1130 C1128 1.381 . S
C1130 C1131 1.394 . S
C1130 H1138 0.930 . S
C1131 C1130 1.394 . S
C1131 C1132 1.383 . S
C1131 H1139 0.929 . S
C1132 C1131 1.383 . S
C1132 C1133 1.377 . S
C1133 H1117 0.930 . S
C1133 C1132 1.377 . S
C1133 C1134 1.379 . S
C1134 H1118 0.931 . S
C1134 C1128 1.383 . S
C1134 C1133 1.379 . S
H1135 C1129 0.959 . S
H1136 C1129 0.961 . S
H1137 C1129 0.960 . S
H1138 C1130 0.930 . S
H1139 C1131 0.929 . S
H1140 C1148 0.929 . S
H1141 C1150 0.930 . S
H1142 C1152 0.930 . S
H1143 C1155 0.929 . S
H1144 C1158 0.930 . S
H1145 C1160 0.960 . S
H1146 C1160 0.960 . S
H1147 C1160 0.960 . S
C1148 H1140 0.929 . S
C1148 C1149 1.377 . S
C1148 C1150 1.384 . S
C1149 C1148 1.377 . S
C1149 C1155 1.390 . S
C1150 H1141 0.930 . S
C1150 C1148 1.384 . S
C1150 C1151 1.372 . S
C1151 C1150 1.372 . S
C1151 C1152 1.400 . S
C1151 C1156 1.490 . S
C1152 H1142 0.930 . S
C1152 C1151 1.400 . S
C1152 C1155 1.386 . S
H1153 C1169 0.930 . S
H1154 C1170 0.931 . S
C1155 H1143 0.929 . S
C1155 C1149 1.390 . S
C1155 C1152 1.386 . S
C1156 C1151 1.490 . S
C1156 C1158 1.395 . S
C1156 C1159 1.403 . S
H1157 C1163 0.930 . S
C1158 H1144 0.930 . S
C1158 C1156 1.395 . S
C1158 C1161 1.403 . S
C1159 C1156 1.403 . S
C1159 C1160 1.524 . S
C1159 C1163 1.400 . S
C1160 H1145 0.960 . S
C1160 H1146 0.960 . S
C1160 H1147 0.960 . S
C1160 C1159 1.524 . S
C1161 C1158 1.403 . S
C1161 C1162 1.392 . S
C1161 C1165 1.495 . S
C1162 C1161 1.392 . S
C1162 C1163 1.385 . S
C1162 C1164 1.478 . S
C1163 H1157 0.930 . S
C1163 C1159 1.400 . S
C1163 C1162 1.385 . S
C1164 C1162 1.478 . S
C1164 C1166 1.381 . S
C1164 C1170 1.383 . S
C1165 C1161 1.495 . S
C1165 H1171 0.959 . S
C1165 H1172 0.961 . S
C1165 H1173 0.960 . S
C1166 C1164 1.381 . S
C1166 C1167 1.394 . S
C1166 H1174 0.930 . S
C1167 C1166 1.394 . S
C1167 C1168 1.383 . S
C1167 H1175 0.929 . S
C1168 C1167 1.383 . S
C1168 C1169 1.377 . S
C1169 H1153 0.930 . S
C1169 C1168 1.377 . S
C1169 C1170 1.379 . S
C1170 H1154 0.931 . S
C1170 C1164 1.383 . S
C1170 C1169 1.379 . S
H1171 C1165 0.959 . S
H1172 C1165 0.961 . S
H1173 C1165 0.960 . S
H1174 C1166 0.930 . S
H1175 C1167 0.929 . S
H1176 C1184 0.929 . S
H1177 C1186 0.930 . S
H1178 C1188 0.930 . S
H1179 C1191 0.929 . S
H1180 C1194 0.930 . S
H1181 C1196 0.960 . S
H1182 C1196 0.960 . S
H1183 C1196 0.960 . S
C1184 H1176 0.929 . S
C1184 C1185 1.377 . S
C1184 C1186 1.384 1_565 S
C1185 C1184 1.377 . S
C1185 C1191 1.390 . S
C1186 H1177 0.930 . S
C1186 C1184 1.384 1_545 S
C1186 C1187 1.372 . S
C1187 C1186 1.372 . S
C1187 C1188 1.400 1_545 S
C1187 C1192 1.490 . S
C1188 H1178 0.930 . S
C1188 C1187 1.400 1_565 S
C1188 C1191 1.386 . S
H1189 C1205 0.930 . S
H1190 C1206 0.931 . S
C1191 H1179 0.929 . S
C1191 C1185 1.390 . S
C1191 C1188 1.386 . S
C1192 C1187 1.490 . S
C1192 C1194 1.395 . S
C1192 C1195 1.403 . S
H1193 C1199 0.930 . S
C1194 H1180 0.930 . S
C1194 C1192 1.395 . S
C1194 C1197 1.403 . S
C1195 C1192 1.403 . S
C1195 C1196 1.524 . S
C1195 C1199 1.400 . S
C1196 H1181 0.960 . S
C1196 H1182 0.960 . S
C1196 H1183 0.960 . S
C1196 C1195 1.524 . S
C1197 C1194 1.403 . S
C1197 C1198 1.392 . S
C1197 C1201 1.495 . S
C1198 C1197 1.392 . S
C1198 C1199 1.385 . S
C1198 C1200 1.478 . S
C1199 H1193 0.930 . S
C1199 C1195 1.400 . S
C1199 C1198 1.385 . S
C1200 C1198 1.478 . S
C1200 C1202 1.381 . S
C1200 C1206 1.383 . S
C1201 C1197 1.495 . S
C1201 H1207 0.959 . S
C1201 H1208 0.961 . S
C1201 H1209 0.960 . S
C1202 C1200 1.381 . S
C1202 C1203 1.394 . S
C1202 H1210 0.930 . S
C1203 C1202 1.394 . S
C1203 C1204 1.383 . S
C1203 H1211 0.929 . S
C1204 C1203 1.383 . S
C1204 C1205 1.377 . S
C1205 H1189 0.930 . S
C1205 C1204 1.377 . S
C1205 C1206 1.379 . S
C1206 H1190 0.931 . S
C1206 C1200 1.383 . S
C1206 C1205 1.379 . S
H1207 C1201 0.959 . S
H1208 C1201 0.961 . S
H1209 C1201 0.960 . S
H1210 C1202 0.930 . S
H1211 C1203 0.929 . S
H1212 C1220 0.929 . S
H1213 C1222 0.930 . S
H1214 C1224 0.930 . S
H1215 C1227 0.929 . S
H1216 C1230 0.930 . S
H1217 C1232 0.960 . S
H1218 C1232 0.960 . S
H1219 C1232 0.960 . S
C1220 H1212 0.929 . S
C1220 C1221 1.377 . S
C1220 C1222 1.384 . S
C1221 C1220 1.377 . S
C1221 C1227 1.390 . S
C1222 H1213 0.930 . S
C1222 C1220 1.384 . S
C1222 C1223 1.372 . S
C1223 C1222 1.372 . S
C1223 C1224 1.400 . S
C1223 C1228 1.490 . S
C1224 H1214 0.930 . S
C1224 C1223 1.400 . S
C1224 C1227 1.386 . S
H1225 C1241 0.930 . S
H1226 C1242 0.931 . S
C1227 H1215 0.929 . S
C1227 C1221 1.390 . S
C1227 C1224 1.386 . S
C1228 C1223 1.490 . S
C1228 C1230 1.395 . S
C1228 C1231 1.403 . S
H1229 C1235 0.930 . S
C1230 H1216 0.930 . S
C1230 C1228 1.395 . S
C1230 C1233 1.403 . S
C1231 C1228 1.403 . S
C1231 C1232 1.524 . S
C1231 C1235 1.400 . S
C1232 H1217 0.960 . S
C1232 H1218 0.960 . S
C1232 H1219 0.960 . S
C1232 C1231 1.524 . S
C1233 C1230 1.403 . S
C1233 C1234 1.392 . S
C1233 C1237 1.495 . S
C1234 C1233 1.392 . S
C1234 C1235 1.385 . S
C1234 C1236 1.478 . S
C1235 H1229 0.930 . S
C1235 C1231 1.400 . S
C1235 C1234 1.385 . S
C1236 C1234 1.478 . S
C1236 C1238 1.381 . S
C1236 C1242 1.383 . S
C1237 C1233 1.495 . S
C1237 H1243 0.959 . S
C1237 H1244 0.961 . S
C1237 H1245 0.960 . S
C1238 C1236 1.381 . S
C1238 C1239 1.394 . S
C1238 H1246 0.930 . S
C1239 C1238 1.394 . S
C1239 C1240 1.383 . S
C1239 H1247 0.929 . S
C1240 C1239 1.383 . S
C1240 C1241 1.377 . S
C1241 H1225 0.930 . S
C1241 C1240 1.377 . S
C1241 C1242 1.379 . S
C1242 H1226 0.931 . S
C1242 C1236 1.383 . S
C1242 C1241 1.379 . S
H1243 C1237 0.959 . S
H1244 C1237 0.961 . S
H1245 C1237 0.960 . S
H1246 C1238 0.930 . S
H1247 C1239 0.929 . S
H1248 C1256 0.929 . S
H1249 C1258 0.930 . S
H1250 C1260 0.930 . S
H1251 C1263 0.929 . S
H1252 C1266 0.930 . S
H1253 C1268 0.960 . S
H1254 C1268 0.960 . S
H1255 C1268 0.960 . S
C1256 H1248 0.929 . S
C1256 C1257 1.377 . S
C1256 C1258 1.384 . S
C1257 C1256 1.377 . S
C1257 C1263 1.390 . S
C1258 H1249 0.930 . S
C1258 C1256 1.384 . S
C1258 C1259 1.372 . S
C1259 C1258 1.372 . S
C1259 C1260 1.400 . S
C1259 C1264 1.490 . S
C1260 H1250 0.930 . S
C1260 C1259 1.400 . S
C1260 C1263 1.386 . S
H1261 C1277 0.930 . S
H1262 C1278 0.931 . S
C1263 H1251 0.929 . S
C1263 C1257 1.390 . S
C1263 C1260 1.386 . S
C1264 C1259 1.490 . S
C1264 C1266 1.395 . S
C1264 C1267 1.403 . S
H1265 C1271 0.930 . S
C1266 H1252 0.930 . S
C1266 C1264 1.395 . S
C1266 C1269 1.403 . S
C1267 C1264 1.403 . S
C1267 C1268 1.524 . S
C1267 C1271 1.400 . S
C1268 H1253 0.960 . S
C1268 H1254 0.960 . S
C1268 H1255 0.960 . S
C1268 C1267 1.524 . S
C1269 C1266 1.403 . S
C1269 C1270 1.392 . S
C1269 C1273 1.495 . S
C1270 C1269 1.392 . S
C1270 C1271 1.385 . S
C1270 C1272 1.478 . S
C1271 H1265 0.930 . S
C1271 C1267 1.400 . S
C1271 C1270 1.385 . S
C1272 C1270 1.478 . S
C1272 C1274 1.381 . S
C1272 C1278 1.383 . S
C1273 C1269 1.495 . S
C1273 H1279 0.959 . S
C1273 H1280 0.961 . S
C1273 H1281 0.960 . S
C1274 C1272 1.381 . S
C1274 C1275 1.394 . S
C1274 H1282 0.930 . S
C1275 C1274 1.394 . S
C1275 C1276 1.383 . S
C1275 H1283 0.929 . S
C1276 C1275 1.383 . S
C1276 C1277 1.377 . S
C1277 H1261 0.930 . S
C1277 C1276 1.377 . S
C1277 C1278 1.379 . S
C1278 H1262 0.931 . S
C1278 C1272 1.383 . S
C1278 C1277 1.379 . S
H1279 C1273 0.959 . S
H1280 C1273 0.961 . S
H1281 C1273 0.960 . S
H1282 C1274 0.930 . S
H1283 C1275 0.929 . S
H1284 C1292 0.929 . S
H1285 C1294 0.930 . S
H1286 C1296 0.930 . S
H1287 C1299 0.929 . S
H1288 C1302 0.930 . S
H1289 C1304 0.960 . S
H1290 C1304 0.960 . S
H1291 C1304 0.960 . S
C1292 H1284 0.929 . S
C1292 C1293 1.377 . S
C1292 C1294 1.384 . S
C1293 C1292 1.377 . S
C1293 C1299 1.390 . S
C1294 H1285 0.930 . S
C1294 C1292 1.384 . S
C1294 C1295 1.372 . S
C1295 C1294 1.372 . S
C1295 C1296 1.400 . S
C1295 C1300 1.490 . S
C1296 H1286 0.930 . S
C1296 C1295 1.400 . S
C1296 C1299 1.386 . S
H1297 C1313 0.930 . S
H1298 C1314 0.931 . S
C1299 H1287 0.929 . S
C1299 C1293 1.390 . S
C1299 C1296 1.386 . S
C1300 C1295 1.490 . S
C1300 C1302 1.395 . S
C1300 C1303 1.403 . S
H1301 C1307 0.930 . S
C1302 H1288 0.930 . S
C1302 C1300 1.395 . S
C1302 C1305 1.403 . S
C1303 C1300 1.403 . S
C1303 C1304 1.524 . S
C1303 C1307 1.400 . S
C1304 H1289 0.960 . S
C1304 H1290 0.960 . S
C1304 H1291 0.960 . S
C1304 C1303 1.524 . S
C1305 C1302 1.403 . S
C1305 C1306 1.392 . S
C1305 C1309 1.495 . S
C1306 C1305 1.392 . S
C1306 C1307 1.385 . S
C1306 C1308 1.478 . S
C1307 H1301 0.930 . S
C1307 C1303 1.400 . S
C1307 C1306 1.385 . S
C1308 C1306 1.478 . S
C1308 C1310 1.381 . S
C1308 C1314 1.383 . S
C1309 C1305 1.495 . S
C1309 H1315 0.959 . S
C1309 H1316 0.961 . S
C1309 H1317 0.960 . S
C1310 C1308 1.381 . S
C1310 C1311 1.394 . S
C1310 H1318 0.930 . S
C1311 C1310 1.394 . S
C1311 C1312 1.383 . S
C1311 H1319 0.929 1_565 S
C1312 C1311 1.383 . S
C1312 C1313 1.377 . S
C1313 H1297 0.930 . S
C1313 C1312 1.377 . S
C1313 C1314 1.379 . S
C1314 H1298 0.931 . S
C1314 C1308 1.383 . S
C1314 C1313 1.379 . S
H1315 C1309 0.959 . S
H1316 C1309 0.961 . S
H1317 C1309 0.960 . S
H1318 C1310 0.930 . S
H1319 C1311 0.929 1_545 S
H1320 C1328 0.929 . S
H1321 C1330 0.930 . S
H1322 C1332 0.930 . S
H1323 C1335 0.929 . S
H1324 C1338 0.930 . S
H1325 C1340 0.960 . S
H1326 C1340 0.960 . S
H1327 C1340 0.960 . S
C1328 H1320 0.929 . S
C1328 C1329 1.377 . S
C1328 C1330 1.384 . S
C1329 C1328 1.377 . S
C1329 C1335 1.390 . S
C1330 H1321 0.930 . S
C1330 C1328 1.384 . S
C1330 C1331 1.372 . S
C1331 C1330 1.372 . S
C1331 C1332 1.400 . S
C1331 C1336 1.490 . S
C1332 H1322 0.930 . S
C1332 C1331 1.400 . S
C1332 C1335 1.386 . S
H1333 C1349 0.930 . S
H1334 C1350 0.931 . S
C1335 H1323 0.929 . S
C1335 C1329 1.390 . S
C1335 C1332 1.386 . S
C1336 C1331 1.490 . S
C1336 C1338 1.395 . S
C1336 C1339 1.403 . S
H1337 C1343 0.930 . S
C1338 H1324 0.930 . S
C1338 C1336 1.395 . S
C1338 C1341 1.403 . S
C1339 C1336 1.403 . S
C1339 C1340 1.524 . S
C1339 C1343 1.400 . S
C1340 H1325 0.960 . S
C1340 H1326 0.960 . S
C1340 H1327 0.960 . S
C1340 C1339 1.524 . S
C1341 C1338 1.403 . S
C1341 C1342 1.392 . S
C1341 C1345 1.495 . S
C1342 C1341 1.392 . S
C1342 C1343 1.385 . S
C1342 C1344 1.478 . S
C1343 H1337 0.930 . S
C1343 C1339 1.400 . S
C1343 C1342 1.385 . S
C1344 C1342 1.478 . S
C1344 C1346 1.381 . S
C1344 C1350 1.383 . S
C1345 C1341 1.495 . S
C1345 H1351 0.959 . S
C1345 H1352 0.961 . S
C1345 H1353 0.960 . S
C1346 C1344 1.381 . S
C1346 C1347 1.394 . S
C1346 H1354 0.930 . S
C1347 C1346 1.394 . S
C1347 C1348 1.383 . S
C1347 H1355 0.929 . S
C1348 C1347 1.383 . S
C1348 C1349 1.377 . S
C1349 H1333 0.930 . S
C1349 C1348 1.377 . S
C1349 C1350 1.379 . S
C1350 H1334 0.931 . S
C1350 C1344 1.383 . S
C1350 C1349 1.379 . S
H1351 C1345 0.959 . S
H1352 C1345 0.961 . S
H1353 C1345 0.960 . S
H1354 C1346 0.930 . S
H1355 C1347 0.929 . S
H1356 C1364 0.929 . S
H1357 C1366 0.930 . S
H1358 C1368 0.930 . S
H1359 C1371 0.929 1_455 S
H1360 C1374 0.930 . S
H1361 C1376 0.956 1_556 S
H1362 C1376 0.967 . S
H1363 C1376 0.961 . S
C1364 H1356 0.929 . S
C1364 C1365 1.377 . S
C1364 C1366 1.384 . S
C1365 C1364 1.377 . S
C1365 C1371 1.390 . S
C1366 H1357 0.930 . S
C1366 C1364 1.384 . S
C1366 C1367 1.372 . S
C1367 C1366 1.372 . S
C1367 C1368 1.400 . S
C1367 C1372 1.490 1_554 S
C1368 H1358 0.930 . S
C1368 C1367 1.400 . S
C1368 C1371 1.386 . S
H1369 C1385 0.930 . S
H1370 C1386 0.931 . S
C1371 H1359 0.929 1_655 S
C1371 C1365 1.390 . S
C1371 C1368 1.386 . S
C1372 C1367 1.490 1_556 S
C1372 C1374 1.395 . S
C1372 C1375 1.403 . S
H1373 C1379 0.930 . S
C1374 H1360 0.930 . S
C1374 C1372 1.395 . S
C1374 C1377 1.403 . S
C1375 C1372 1.403 . S
C1375 C1376 1.519 1_556 S
C1375 C1379 1.400 . S
C1376 H1361 0.956 1_554 S
C1376 H1362 0.967 . S
C1376 H1363 0.961 . S
C1376 C1375 1.519 1_554 S
C1377 C1374 1.403 . S
C1377 C1378 1.392 . S
C1377 C1381 1.495 . S
C1378 C1377 1.392 . S
C1378 C1379 1.385 . S
C1378 C1380 1.478 . S
C1379 H1373 0.930 . S
C1379 C1375 1.400 . S
C1379 C1378 1.385 . S
C1380 C1378 1.478 . S
C1380 C1382 1.381 . S
C1380 C1386 1.383 . S
C1381 C1377 1.495 . S
C1381 H1387 0.959 . S
C1381 H1388 0.961 . S
C1381 H1389 0.960 . S
C1382 C1380 1.381 . S
C1382 C1383 1.394 . S
C1382 H1390 0.930 . S
C1383 C1382 1.394 . S
C1383 C1384 1.383 . S
C1383 H1391 0.929 . S
C1384 C1383 1.383 . S
C1384 C1385 1.377 . S
C1385 H1369 0.930 . S
C1385 C1384 1.377 . S
C1385 C1386 1.379 . S
C1386 H1370 0.931 . S
C1386 C1380 1.383 . S
C1386 C1385 1.379 . S
H1387 C1381 0.959 . S
H1388 C1381 0.961 . S
H1389 C1381 0.960 . S
H1390 C1382 0.930 . S
H1391 C1383 0.929 . S
H1392 C1400 0.929 . S
H1393 C1402 0.930 . S
H1394 C1404 0.930 . S
H1395 C1407 0.929 . S
H1396 C1410 0.930 . S
H1397 C1412 0.960 . S
H1398 C1412 0.960 . S
H1399 C1412 0.960 . S
C1400 H1392 0.929 . S
C1400 C1401 1.377 . S
C1400 C1402 1.384 . S
C1401 C1400 1.377 . S
C1401 C1407 1.390 . S
C1402 H1393 0.930 . S
C1402 C1400 1.384 . S
C1402 C1403 1.372 . S
C1403 C1402 1.372 . S
C1403 C1404 1.400 . S
C1403 C1408 1.490 . S
C1404 H1394 0.930 . S
C1404 C1403 1.400 . S
C1404 C1407 1.386 . S
H1405 C1421 0.930 . S
H1406 C1422 0.931 . S
C1407 H1395 0.929 . S
C1407 C1401 1.390 . S
C1407 C1404 1.386 . S
C1408 C1403 1.490 . S
C1408 C1410 1.395 . S
C1408 C1411 1.403 . S
H1409 C1415 0.930 . S
C1410 H1396 0.930 . S
C1410 C1408 1.395 . S
C1410 C1413 1.403 . S
C1411 C1408 1.403 . S
C1411 C1412 1.524 . S
C1411 C1415 1.400 . S
C1412 H1397 0.960 . S
C1412 H1398 0.960 . S
C1412 H1399 0.960 . S
C1412 C1411 1.524 . S
C1413 C1410 1.403 . S
C1413 C1414 1.392 . S
C1413 C1417 1.495 . S
C1414 C1413 1.392 . S
C1414 C1415 1.385 . S
C1414 C1416 1.478 . S
C1415 H1409 0.930 . S
C1415 C1411 1.400 . S
C1415 C1414 1.385 . S
C1416 C1414 1.478 . S
C1416 C1418 1.381 . S
C1416 C1422 1.383 . S
C1417 C1413 1.495 . S
C1417 H1423 0.959 . S
C1417 H1424 0.961 . S
C1417 H1425 0.960 . S
C1418 C1416 1.381 . S
C1418 C1419 1.394 . S
C1418 H1426 0.930 . S
C1419 C1418 1.394 . S
C1419 C1420 1.383 . S
C1419 H1427 0.929 . S
C1420 C1419 1.383 . S
C1420 C1421 1.377 . S
C1421 H1405 0.930 . S
C1421 C1420 1.377 . S
C1421 C1422 1.379 . S
C1422 H1406 0.931 . S
C1422 C1416 1.383 . S
C1422 C1421 1.379 . S
H1423 C1417 0.959 . S
H1424 C1417 0.961 . S
H1425 C1417 0.960 . S
H1426 C1418 0.930 . S
H1427 C1419 0.929 . S
H1428 C1436 0.929 . S
H1429 C1438 0.931 . S
H1430 C1440 0.930 . S
H1431 C1443 0.929 . S
H1432 C1446 0.930 . S
H1433 C1448 0.960 . S
H1434 C1448 0.960 . S
H1435 C1448 0.960 . S
C1436 H1428 0.929 . S
C1436 C1437 1.377 . S
C1436 C1438 1.399 . S
C1437 C1436 1.377 . S
C1437 C1443 1.390 1_556 S
C1438 H1429 0.931 . S
C1438 C1436 1.399 . S
C1438 C1439 1.355 1_556 S
C1439 C1438 1.355 1_554 S
C1439 C1440 1.400 . S
C1439 C1444 1.490 . S
C1440 H1430 0.930 . S
C1440 C1439 1.400 . S
C1440 C1443 1.386 . S
H1441 C1457 0.930 . S
H1442 C1458 0.931 . S
C1443 H1431 0.929 . S
C1443 C1437 1.390 1_554 S
C1443 C1440 1.386 . S
C1444 C1439 1.490 . S
C1444 C1446 1.395 . S
C1444 C1447 1.403 . S
H1445 C1451 0.930 . S
C1446 H1432 0.930 . S
C1446 C1444 1.395 . S
C1446 C1449 1.403 . S
C1447 C1444 1.403 . S
C1447 C1448 1.524 . S
C1447 C1451 1.400 . S
C1448 H1433 0.960 . S
C1448 H1434 0.960 . S
C1448 H1435 0.960 . S
C1448 C1447 1.524 . S
C1449 C1446 1.403 . S
C1449 C1450 1.392 . S
C1449 C1453 1.495 . S
C1450 C1449 1.392 . S
C1450 C1451 1.385 . S
C1450 C1452 1.478 . S
C1451 H1445 0.930 . S
C1451 C1447 1.400 . S
C1451 C1450 1.385 . S
C1452 C1450 1.478 . S
C1452 C1454 1.381 . S
C1452 C1458 1.383 . S
C1453 C1449 1.495 . S
C1453 H1459 0.959 . S
C1453 H1460 0.961 . S
C1453 H1461 0.960 . S
C1454 C1452 1.381 . S
C1454 C1455 1.394 . S
C1454 H1462 0.930 . S
C1455 C1454 1.394 . S
C1455 C1456 1.383 . S
C1455 H1463 0.929 . S
C1456 C1455 1.383 . S
C1456 C1457 1.377 . S
C1457 H1441 0.930 . S
C1457 C1456 1.377 . S
C1457 C1458 1.379 . S
C1458 H1442 0.931 . S
C1458 C1452 1.383 . S
C1458 C1457 1.379 . S
H1459 C1453 0.959 . S
H1460 C1453 0.961 . S
H1461 C1453 0.960 . S
H1462 C1454 0.930 . S
H1463 C1455 0.929 . S
H1464 C1472 0.929 . S
H1465 C1474 0.930 . S
H1466 C1476 0.930 . S
H1467 C1479 0.929 . S
H1468 C1482 0.930 . S
H1469 C1484 0.960 . S
H1470 C1484 0.960 . S
H1471 C1484 0.960 . S
C1472 H1464 0.929 . S
C1472 C1473 1.377 . S
C1472 C1474 1.384 . S
C1473 C1472 1.377 . S
C1473 C1479 1.390 . S
C1474 H1465 0.930 . S
C1474 C1472 1.384 . S
C1474 C1475 1.372 . S
C1475 C1474 1.372 . S
C1475 C1476 1.400 . S
C1475 C1480 1.490 . S
C1476 H1466 0.930 . S
C1476 C1475 1.400 . S
C1476 C1479 1.386 . S
H1477 C1493 0.930 . S
H1478 C1494 0.931 . S
C1479 H1467 0.929 . S
C1479 C1473 1.390 . S
C1479 C1476 1.386 . S
C1480 C1475 1.490 . S
C1480 C1482 1.395 . S
C1480 C1483 1.403 . S
H1481 C1487 0.930 . S
C1482 H1468 0.930 . S
C1482 C1480 1.395 . S
C1482 C1485 1.403 . S
C1483 C1480 1.403 . S
C1483 C1484 1.524 . S
C1483 C1487 1.400 . S
C1484 H1469 0.960 . S
C1484 H1470 0.960 . S
C1484 H1471 0.960 . S
C1484 C1483 1.524 . S
C1485 C1482 1.403 . S
C1485 C1486 1.392 . S
C1485 C1489 1.495 . S
C1486 C1485 1.392 . S
C1486 C1487 1.385 . S
C1486 C1488 1.478 . S
C1487 H1481 0.930 . S
C1487 C1483 1.400 . S
C1487 C1486 1.385 . S
C1488 C1486 1.478 . S
C1488 C1490 1.381 . S
C1488 C1494 1.383 . S
C1489 C1485 1.495 . S
C1489 H1495 0.959 . S
C1489 H1496 0.961 . S
C1489 H1497 0.960 . S
C1490 C1488 1.381 . S
C1490 C1491 1.394 . S
C1490 H1498 0.930 . S
C1491 C1490 1.394 . S
C1491 C1492 1.383 . S
C1491 H1499 0.929 . S
C1492 C1491 1.383 . S
C1492 C1493 1.377 . S
C1493 H1477 0.930 . S
C1493 C1492 1.377 . S
C1493 C1494 1.379 . S
C1494 H1478 0.931 . S
C1494 C1488 1.383 . S
C1494 C1493 1.379 . S
H1495 C1489 0.959 . S
H1496 C1489 0.961 . S
H1497 C1489 0.960 . S
H1498 C1490 0.930 . S
H1499 C1491 0.929 . S
H1500 C1508 0.929 . S
H1501 C1510 0.930 . S
H1502 C1512 0.930 . S
H1503 C1515 0.929 . S
H1504 C1518 0.930 . S
H1505 C1520 0.960 . S
H1506 C1520 0.960 . S
H1507 C1520 0.960 . S
C1508 H1500 0.929 . S
C1508 C1509 1.377 . S
C1508 C1510 1.384 . S
C1509 C1508 1.377 . S
C1509 C1515 1.390 . S
C1510 H1501 0.930 . S
C1510 C1508 1.384 . S
C1510 C1511 1.372 . S
C1511 C1510 1.372 . S
C1511 C1512 1.400 . S
C1511 C1516 1.490 . S
C1512 H1502 0.930 . S
C1512 C1511 1.400 . S
C1512 C1515 1.386 . S
H1513 C1529 0.930 . S
H1514 C1530 0.931 . S
C1515 H1503 0.929 . S
C1515 C1509 1.390 . S
C1515 C1512 1.386 . S
C1516 C1511 1.490 . S
C1516 C1518 1.395 . S
C1516 C1519 1.403 . S
H1517 C1523 0.930 . S
C1518 H1504 0.930 . S
C1518 C1516 1.395 . S
C1518 C1521 1.403 . S
C1519 C1516 1.403 . S
C1519 C1520 1.524 . S
C1519 C1523 1.400 . S
C1520 H1505 0.960 . S
C1520 H1506 0.960 . S
C1520 H1507 0.960 . S
C1520 C1519 1.524 . S
C1521 C1518 1.403 . S
C1521 C1522 1.392 . S
C1521 C1525 1.495 . S
C1522 C1521 1.392 . S
C1522 C1523 1.385 . S
C1522 C1524 1.478 . S
C1523 H1517 0.930 . S
C1523 C1519 1.400 . S
C1523 C1522 1.385 . S
C1524 C1522 1.478 . S
C1524 C1526 1.381 . S
C1524 C1530 1.383 . S
C1525 C1521 1.495 . S
C1525 H1531 0.959 . S
C1525 H1532 0.961 . S
C1525 H1533 0.960 . S
C1526 C1524 1.381 . S
C1526 C1527 1.394 . S
C1526 H1534 0.930 . S
C1527 C1526 1.394 . S
C1527 C1528 1.383 . S
C1527 H1535 0.929 . S
C1528 C1527 1.383 . S
C1528 C1529 1.377 . S
C1529 H1513 0.930 . S
C1529 C1528 1.377 . S
C1529 C1530 1.379 . S
C1530 H1514 0.931 . S
C1530 C1524 1.383 . S
C1530 C1529 1.379 . S
H1531 C1525 0.959 . S
H1532 C1525 0.961 . S
H1533 C1525 0.960 . S
H1534 C1526 0.930 . S
H1535 C1527 0.929 . S
H1536 C1544 0.929 . S
H1537 C1546 0.930 . S
H1538 C1548 0.930 . S
H1539 C1551 0.929 . S
H1540 C1554 0.930 . S
H1541 C1556 0.960 . S
H1542 C1556 0.960 . S
H1543 C1556 0.960 . S
C1544 H1536 0.929 . S
C1544 C1545 1.377 . S
C1544 C1546 1.384 . S
C1545 C1544 1.377 . S
C1545 C1551 1.390 . S
C1546 H1537 0.930 . S
C1546 C1544 1.384 . S
C1546 C1547 1.372 . S
C1547 C1546 1.372 . S
C1547 C1548 1.400 . S
C1547 C1552 1.490 . S
C1548 H1538 0.930 . S
C1548 C1547 1.400 . S
C1548 C1551 1.386 . S
H1549 C1565 0.930 . S
H1550 C1566 0.931 . S
C1551 H1539 0.929 . S
C1551 C1545 1.390 . S
C1551 C1548 1.386 . S
C1552 C1547 1.490 . S
C1552 C1554 1.395 . S
C1552 C1555 1.403 . S
H1553 C1559 0.930 . S
C1554 H1540 0.930 . S
C1554 C1552 1.395 . S
C1554 C1557 1.403 . S
C1555 C1552 1.403 . S
C1555 C1556 1.524 . S
C1555 C1559 1.400 . S
C1556 H1541 0.960 . S
C1556 H1542 0.960 . S
C1556 H1543 0.960 . S
C1556 C1555 1.524 . S
C1557 C1554 1.403 . S
C1557 C1558 1.392 . S
C1557 C1561 1.495 . S
C1558 C1557 1.392 . S
C1558 C1559 1.385 . S
C1558 C1560 1.478 . S
C1559 H1553 0.930 . S
C1559 C1555 1.400 . S
C1559 C1558 1.385 . S
C1560 C1558 1.478 . S
C1560 C1562 1.381 . S
C1560 C1566 1.383 . S
C1561 C1557 1.495 . S
C1561 H1567 0.959 . S
C1561 H1568 0.961 . S
C1561 H1569 0.960 . S
C1562 C1560 1.381 . S
C1562 C1563 1.394 . S
C1562 H1570 0.930 . S
C1563 C1562 1.394 . S
C1563 C1564 1.383 . S
C1563 H1571 0.929 . S
C1564 C1563 1.383 . S
C1564 C1565 1.377 . S
C1565 H1549 0.930 . S
C1565 C1564 1.377 . S
C1565 C1566 1.379 . S
C1566 H1550 0.931 . S
C1566 C1560 1.383 . S
C1566 C1565 1.379 . S
H1567 C1561 0.959 . S
H1568 C1561 0.961 . S
H1569 C1561 0.960 . S
H1570 C1562 0.930 . S
H1571 C1563 0.929 . S
H1572 C1580 0.929 . S
H1573 C1582 0.930 . S
H1574 C1584 0.930 . S
H1575 C1587 0.929 . S
H1576 C1590 0.930 . S
H1577 C1592 0.960 . S
H1578 C1592 0.960 . S
H1579 C1592 0.960 . S
C1580 H1572 0.929 . S
C1580 C1581 1.377 . S
C1580 C1582 1.384 . S
C1581 C1580 1.377 . S
C1581 C1587 1.390 . S
C1582 H1573 0.930 . S
C1582 C1580 1.384 . S
C1582 C1583 1.372 . S
C1583 C1582 1.372 . S
C1583 C1584 1.400 . S
C1583 C1588 1.490 . S
C1584 H1574 0.930 . S
C1584 C1583 1.400 . S
C1584 C1587 1.386 . S
H1585 C1601 0.930 . S
H1586 C1602 0.931 . S
C1587 H1575 0.929 . S
C1587 C1581 1.390 . S
C1587 C1584 1.386 . S
C1588 C1583 1.490 . S
C1588 C1590 1.395 . S
C1588 C1591 1.403 . S
H1589 C1595 0.930 . S
C1590 H1576 0.930 . S
C1590 C1588 1.395 . S
C1590 C1593 1.403 . S
C1591 C1588 1.403 . S
C1591 C1592 1.524 . S
C1591 C1595 1.400 . S
C1592 H1577 0.960 . S
C1592 H1578 0.960 . S
C1592 H1579 0.960 . S
C1592 C1591 1.524 . S
C1593 C1590 1.403 . S
C1593 C1594 1.392 . S
C1593 C1597 1.495 . S
C1594 C1593 1.392 . S
C1594 C1595 1.385 . S
C1594 C1596 1.478 . S
C1595 H1589 0.930 . S
C1595 C1591 1.400 . S
C1595 C1594 1.385 . S
C1596 C1594 1.478 . S
C1596 C1598 1.381 . S
C1596 C1602 1.383 . S
C1597 C1593 1.495 . S
C1597 H1603 0.959 . S
C1597 H1604 0.961 . S
C1597 H1605 0.960 . S
C1598 C1596 1.381 . S
C1598 C1599 1.394 . S
C1598 H1606 0.930 . S
C1599 C1598 1.394 . S
C1599 C1600 1.383 . S
C1599 H1607 0.929 . S
C1600 C1599 1.383 . S
C1600 C1601 1.377 . S
C1601 H1585 0.930 . S
C1601 C1600 1.377 . S
C1601 C1602 1.379 . S
C1602 H1586 0.931 . S
C1602 C1596 1.383 . S
C1602 C1601 1.379 . S
H1603 C1597 0.959 . S
H1604 C1597 0.961 . S
H1605 C1597 0.960 . S
H1606 C1598 0.930 . S
H1607 C1599 0.929 . S
H1608 C1616 0.929 . S
H1609 C1618 0.930 . S
H1610 C1620 0.930 . S
H1611 C1623 0.929 . S
H1612 C1626 0.930 . S
H1613 C1628 0.960 . S
H1614 C1628 0.960 . S
H1615 C1628 0.960 . S
C1616 H1608 0.929 . S
C1616 C1617 1.377 . S
C1616 C1618 1.384 . S
C1617 C1616 1.377 . S
C1617 C1623 1.390 . S
C1618 H1609 0.930 . S
C1618 C1616 1.384 . S
C1618 C1619 1.372 . S
C1619 C1618 1.372 . S
C1619 C1620 1.400 . S
C1619 C1624 1.490 . S
C1620 H1610 0.930 . S
C1620 C1619 1.400 . S
C1620 C1623 1.386 . S
H1621 C1637 0.930 . S
H1622 C1638 0.931 . S
C1623 H1611 0.929 . S
C1623 C1617 1.390 . S
C1623 C1620 1.386 . S
C1624 C1619 1.490 . S
C1624 C1626 1.395 . S
C1624 C1627 1.403 . S
H1625 C1631 0.930 . S
C1626 H1612 0.930 . S
C1626 C1624 1.395 . S
C1626 C1629 1.403 . S
C1627 C1624 1.403 . S
C1627 C1628 1.524 . S
C1627 C1631 1.400 . S
C1628 H1613 0.960 . S
C1628 H1614 0.960 . S
C1628 H1615 0.960 . S
C1628 C1627 1.524 . S
C1629 C1626 1.403 . S
C1629 C1630 1.392 . S
C1629 C1633 1.495 . S
C1630 C1629 1.392 . S
C1630 C1631 1.385 . S
C1630 C1632 1.478 . S
C1631 H1625 0.930 . S
C1631 C1627 1.400 . S
C1631 C1630 1.385 . S
C1632 C1630 1.478 . S
C1632 C1634 1.381 . S
C1632 C1638 1.383 . S
C1633 C1629 1.495 . S
C1633 H1639 0.959 . S
C1633 H1640 0.961 . S
C1633 H1641 0.960 . S
C1634 C1632 1.381 . S
C1634 C1635 1.394 . S
C1634 H1642 0.930 . S
C1635 C1634 1.394 . S
C1635 C1636 1.383 . S
C1635 H1643 0.929 . S
C1636 C1635 1.383 . S
C1636 C1637 1.377 . S
C1637 H1621 0.930 . S
C1637 C1636 1.377 . S
C1637 C1638 1.379 . S
C1638 H1622 0.931 . S
C1638 C1632 1.383 . S
C1638 C1637 1.379 . S
H1639 C1633 0.959 . S
H1640 C1633 0.961 . S
H1641 C1633 0.960 . S
H1642 C1634 0.930 . S
H1643 C1635 0.929 . S
H1644 C1652 0.929 . S
H1645 C1654 0.930 . S
H1646 C1656 0.935 . S
H1647 C1659 0.929 . S
H1648 C1662 0.930 . S
H1649 C1664 0.960 . S
H1650 C1664 0.960 . S
H1651 C1664 0.960 . S
C1652 H1644 0.929 . S
C1652 C1653 1.377 . S
C1652 C1654 1.384 1_655 S
C1653 C1652 1.377 . S
C1653 C1659 1.390 . S
C1654 H1645 0.930 . S
C1654 C1652 1.384 1_455 S
C1654 C1655 1.372 . S
C1655 C1654 1.372 . S
C1655 C1656 1.405 . S
C1655 C1660 1.490 . S
C1656 H1646 0.935 . S
C1656 C1655 1.405 . S
C1656 C1659 1.375 1_455 S
H1657 C1673 0.930 . S
H1658 C1674 0.931 . S
C1659 H1647 0.929 . S
C1659 C1653 1.390 . S
C1659 C1656 1.375 1_655 S
C1660 C1655 1.490 . S
C1660 C1662 1.395 . S
C1660 C1663 1.403 . S
H1661 C1667 0.930 . S
C1662 H1648 0.930 . S
C1662 C1660 1.395 . S
C1662 C1665 1.403 . S
C1663 C1660 1.403 . S
C1663 C1664 1.524 . S
C1663 C1667 1.400 . S
C1664 H1649 0.960 . S
C1664 H1650 0.960 . S
C1664 H1651 0.960 . S
C1664 C1663 1.524 . S
C1665 C1662 1.403 . S
C1665 C1666 1.392 . S
C1665 C1669 1.495 . S
C1666 C1665 1.392 . S
C1666 C1667 1.385 . S
C1666 C1668 1.478 . S
C1667 H1661 0.930 . S
C1667 C1663 1.400 . S
C1667 C1666 1.385 . S
C1668 C1666 1.478 . S
C1668 C1670 1.381 . S
C1668 C1674 1.383 . S
C1669 C1665 1.495 . S
C1669 H1675 0.959 . S
C1669 H1676 0.961 . S
C1669 H1677 0.960 . S
C1670 C1668 1.381 . S
C1670 C1671 1.394 . S
C1670 H1678 0.930 . S
C1671 C1670 1.394 . S
C1671 C1672 1.383 . S
C1671 H1679 0.929 . S
C1672 C1671 1.383 . S
C1672 C1673 1.377 . S
C1673 H1657 0.930 . S
C1673 C1672 1.377 . S
C1673 C1674 1.379 . S
C1674 H1658 0.931 . S
C1674 C1668 1.383 . S
C1674 C1673 1.379 . S
H1675 C1669 0.959 . S
H1676 C1669 0.961 . S
H1677 C1669 0.960 . S
H1678 C1670 0.930 . S
H1679 C1671 0.929 . S
H1680 C1688 0.929 . S
H1681 C1690 0.930 . S
H1682 C1692 0.930 . S
H1683 C1695 0.929 . S
H1684 C1698 0.930 . S
H1685 C1700 0.960 . S
H1686 C1700 0.960 . S
H1687 C1700 0.960 . S
C1688 H1680 0.929 . S
C1688 C1689 1.377 . S
C1688 C1690 1.384 . S
C1689 C1688 1.377 . S
C1689 C1695 1.390 . S
C1690 H1681 0.930 . S
C1690 C1688 1.384 . S
C1690 C1691 1.372 . S
C1691 C1690 1.372 . S
C1691 C1692 1.400 . S
C1691 C1696 1.490 . S
C1692 H1682 0.930 . S
C1692 C1691 1.400 . S
C1692 C1695 1.386 . S
H1693 C1709 0.930 . S
H1694 C1710 0.931 . S
C1695 H1683 0.929 . S
C1695 C1689 1.390 . S
C1695 C1692 1.386 . S
C1696 C1691 1.490 . S
C1696 C1698 1.395 . S
C1696 C1699 1.403 . S
H1697 C1703 0.930 . S
C1698 H1684 0.930 . S
C1698 C1696 1.395 . S
C1698 C1701 1.403 . S
C1699 C1696 1.403 . S
C1699 C1700 1.524 . S
C1699 C1703 1.400 . S
C1700 H1685 0.960 . S
C1700 H1686 0.960 . S
C1700 H1687 0.960 . S
C1700 C1699 1.524 . S
C1701 C1698 1.403 . S
C1701 C1702 1.392 . S
C1701 C1705 1.495 . S
C1702 C1701 1.392 . S
C1702 C1703 1.385 . S
C1702 C1704 1.478 . S
C1703 H1697 0.930 . S
C1703 C1699 1.400 . S
C1703 C1702 1.385 . S
C1704 C1702 1.478 . S
C1704 C1706 1.381 . S
C1704 C1710 1.383 . S
C1705 C1701 1.495 . S
C1705 H1711 0.959 . S
C1705 H1712 0.961 . S
C1705 H1713 0.960 . S
C1706 C1704 1.381 . S
C1706 C1707 1.394 . S
C1706 H1714 0.930 . S
C1707 C1706 1.394 . S
C1707 C1708 1.383 . S
C1707 H1715 0.929 . S
C1708 C1707 1.383 . S
C1708 C1709 1.377 . S
C1709 H1693 0.930 . S
C1709 C1708 1.377 . S
C1709 C1710 1.379 . S
C1710 H1694 0.931 . S
C1710 C1704 1.383 . S
C1710 C1709 1.379 . S
H1711 C1705 0.959 . S
H1712 C1705 0.961 . S
H1713 C1705 0.960 . S
H1714 C1706 0.930 . S
H1715 C1707 0.929 . S
H1716 C1724 0.929 . S
H1717 C1726 0.930 . S
H1718 C1728 0.930 . S
H1719 C1731 0.929 . S
H1720 C1734 0.930 . S
H1721 C1736 0.960 . S
H1722 C1736 0.960 . S
H1723 C1736 0.960 . S
C1724 H1716 0.929 . S
C1724 C1725 1.377 . S
C1724 C1726 1.384 . S
C1725 C1724 1.377 . S
C1725 C1731 1.390 . S
C1726 H1717 0.930 . S
C1726 C1724 1.384 . S
C1726 C1727 1.372 . S
C1727 C1726 1.372 . S
C1727 C1728 1.400 . S
C1727 C1732 1.490 . S
C1728 H1718 0.930 . S
C1728 C1727 1.400 . S
C1728 C1731 1.386 . S
H1729 C1745 0.930 . S
H1730 C1746 0.931 . S
C1731 H1719 0.929 . S
C1731 C1725 1.390 . S
C1731 C1728 1.386 . S
C1732 C1727 1.490 . S
C1732 C1734 1.395 . S
C1732 C1735 1.403 . S
H1733 C1739 0.930 . S
C1734 H1720 0.930 . S
C1734 C1732 1.395 . S
C1734 C1737 1.403 . S
C1735 C1732 1.403 . S
C1735 C1736 1.524 . S
C1735 C1739 1.400 . S
C1736 H1721 0.960 . S
C1736 H1722 0.960 . S
C1736 H1723 0.960 . S
C1736 C1735 1.524 . S
C1737 C1734 1.403 . S
C1737 C1738 1.392 . S
C1737 C1741 1.495 . S
C1738 C1737 1.392 . S
C1738 C1739 1.385 . S
C1738 C1740 1.478 . S
C1739 H1733 0.930 . S
C1739 C1735 1.400 . S
C1739 C1738 1.385 . S
C1740 C1738 1.478 . S
C1740 C1742 1.381 . S
C1740 C1746 1.383 . S
C1741 C1737 1.495 . S
C1741 H1747 0.959 . S
C1741 H1748 0.961 . S
C1741 H1749 0.960 . S
C1742 C1740 1.381 . S
C1742 C1743 1.394 . S
C1742 H1750 0.930 . S
C1743 C1742 1.394 . S
C1743 C1744 1.383 . S
C1743 H1751 0.929 . S
C1744 C1743 1.383 . S
C1744 C1745 1.377 . S
C1745 H1729 0.930 . S
C1745 C1744 1.377 . S
C1745 C1746 1.379 . S
C1746 H1730 0.931 . S
C1746 C1740 1.383 . S
C1746 C1745 1.379 . S
H1747 C1741 0.959 . S
H1748 C1741 0.961 . S
H1749 C1741 0.960 . S
H1750 C1742 0.930 . S
H1751 C1743 0.929 . S
H1752 C1760 0.929 . S
H1753 C1762 0.930 . S
H1754 C1764 0.930 . S
H1755 C1767 0.929 . S
H1756 C1770 0.930 . S
H1757 C1772 0.960 . S
H1758 C1772 0.960 . S
H1759 C1772 0.960 . S
C1760 H1752 0.929 . S
C1760 C1761 1.377 . S
C1760 C1762 1.384 . S
C1761 C1760 1.377 . S
C1761 C1767 1.390 . S
C1762 H1753 0.930 . S
C1762 C1760 1.384 . S
C1762 C1763 1.372 . S
C1763 C1762 1.372 . S
C1763 C1764 1.400 . S
C1763 C1768 1.490 . S
C1764 H1754 0.930 . S
C1764 C1763 1.400 . S
C1764 C1767 1.386 . S
H1765 C1781 0.930 . S
H1766 C1782 0.931 . S
C1767 H1755 0.929 . S
C1767 C1761 1.390 . S
C1767 C1764 1.386 . S
C1768 C1763 1.490 . S
C1768 C1770 1.395 . S
C1768 C1771 1.403 . S
H1769 C1775 0.930 . S
C1770 H1756 0.930 . S
C1770 C1768 1.395 . S
C1770 C1773 1.403 . S
C1771 C1768 1.403 . S
C1771 C1772 1.524 . S
C1771 C1775 1.400 . S
C1772 H1757 0.960 . S
C1772 H1758 0.960 . S
C1772 H1759 0.960 . S
C1772 C1771 1.524 . S
C1773 C1770 1.403 . S
C1773 C1774 1.392 . S
C1773 C1777 1.495 . S
C1774 C1773 1.392 . S
C1774 C1775 1.385 . S
C1774 C1776 1.478 . S
C1775 H1769 0.930 . S
C1775 C1771 1.400 . S
C1775 C1774 1.385 . S
C1776 C1774 1.478 . S
C1776 C1778 1.381 . S
C1776 C1782 1.383 . S
C1777 C1773 1.495 . S
C1777 H1783 0.959 . S
C1777 H1784 0.961 . S
C1777 H1785 0.960 . S
C1778 C1776 1.381 . S
C1778 C1779 1.394 . S
C1778 H1786 0.930 . S
C1779 C1778 1.394 . S
C1779 C1780 1.383 . S
C1779 H1787 0.929 . S
C1780 C1779 1.383 . S
C1780 C1781 1.377 . S
C1781 H1765 0.930 . S
C1781 C1780 1.377 . S
C1781 C1782 1.379 . S
C1782 H1766 0.931 . S
C1782 C1776 1.383 . S
C1782 C1781 1.379 . S
H1783 C1777 0.959 . S
H1784 C1777 0.961 . S
H1785 C1777 0.960 . S
H1786 C1778 0.930 . S
H1787 C1779 0.929 . S
H1788 C1796 0.929 . S
H1789 C1798 0.916 1_455 S
H1790 C1800 0.930 . S
H1791 C1803 0.929 . S
H1792 C1806 0.930 . S
H1793 C1808 0.960 . S
H1794 C1808 0.960 . S
H1795 C1808 0.960 . S
C1796 H1788 0.929 . S
C1796 C1797 1.377 . S
C1796 C1798 1.413 . S
C1797 C1796 1.377 . S
C1797 C1803 1.390 . S
C1798 H1789 0.916 1_655 S
C1798 C1796 1.413 . S
C1798 C1799 1.358 1_655 S
C1799 C1798 1.358 1_455 S
C1799 C1800 1.400 . S
C1799 C1804 1.490 . S
C1800 H1790 0.930 . S
C1800 C1799 1.400 . S
C1800 C1803 1.386 1_455 S
H1801 C1817 0.930 . S
H1802 C1818 0.931 . S
C1803 H1791 0.929 . S
C1803 C1797 1.390 . S
C1803 C1800 1.386 1_655 S
C1804 C1799 1.490 . S
C1804 C1806 1.395 . S
C1804 C1807 1.403 . S
H1805 C1811 0.930 . S
C1806 H1792 0.930 . S
C1806 C1804 1.395 . S
C1806 C1809 1.403 . S
C1807 C1804 1.403 . S
C1807 C1808 1.524 . S
C1807 C1811 1.400 . S
C1808 H1793 0.960 . S
C1808 H1794 0.960 . S
C1808 H1795 0.960 . S
C1808 C1807 1.524 . S
C1809 C1806 1.403 . S
C1809 C1810 1.392 . S
C1809 C1813 1.495 . S
C1810 C1809 1.392 . S
C1810 C1811 1.385 . S
C1810 C1812 1.478 . S
C1811 H1805 0.930 . S
C1811 C1807 1.400 . S
C1811 C1810 1.385 . S
C1812 C1810 1.478 . S
C1812 C1814 1.381 . S
C1812 C1818 1.383 . S
C1813 C1809 1.495 . S
C1813 H1819 0.959 . S
C1813 H1820 0.961 . S
C1813 H1821 0.960 . S
C1814 C1812 1.381 . S
C1814 C1815 1.394 . S
C1814 H1822 0.930 . S
C1815 C1814 1.394 . S
C1815 C1816 1.383 . S
C1815 H1823 0.929 . S
C1816 C1815 1.383 . S
C1816 C1817 1.377 . S
C1817 H1801 0.930 . S
C1817 C1816 1.377 . S
C1817 C1818 1.379 . S
C1818 H1802 0.931 . S
C1818 C1812 1.383 . S
C1818 C1817 1.379 . S
H1819 C1813 0.959 . S
H1820 C1813 0.961 . S
H1821 C1813 0.960 . S
H1822 C1814 0.930 . S
H1823 C1815 0.929 . S
H1824 C1832 0.929 . S
H1825 C1834 0.930 . S
H1826 C1836 0.930 . S
H1827 C1839 0.929 . S
H1828 C1842 0.930 . S
H1829 C1844 0.960 . S
H1830 C1844 0.960 . S
H1831 C1844 0.960 . S
C1832 H1824 0.929 . S
C1832 C1833 1.377 . S
C1832 C1834 1.384 . S
C1833 C1832 1.377 . S
C1833 C1839 1.390 . S
C1834 H1825 0.930 . S
C1834 C1832 1.384 . S
C1834 C1835 1.372 . S
C1835 C1834 1.372 . S
C1835 C1836 1.400 . S
C1835 C1840 1.490 . S
C1836 H1826 0.930 . S
C1836 C1835 1.400 . S
C1836 C1839 1.386 . S
H1837 C1853 0.930 . S
H1838 C1854 0.931 . S
C1839 H1827 0.929 . S
C1839 C1833 1.390 . S
C1839 C1836 1.386 . S
C1840 C1835 1.490 . S
C1840 C1842 1.395 . S
C1840 C1843 1.403 . S
H1841 C1847 0.930 . S
C1842 H1828 0.930 . S
C1842 C1840 1.395 . S
C1842 C1845 1.403 . S
C1843 C1840 1.403 . S
C1843 C1844 1.524 . S
C1843 C1847 1.400 . S
C1844 H1829 0.960 . S
C1844 H1830 0.960 . S
C1844 H1831 0.960 . S
C1844 C1843 1.524 . S
C1845 C1842 1.403 . S
C1845 C1846 1.392 . S
C1845 C1849 1.495 . S
C1846 C1845 1.392 . S
C1846 C1847 1.385 . S
C1846 C1848 1.478 . S
C1847 H1841 0.930 . S
C1847 C1843 1.400 . S
C1847 C1846 1.385 . S
C1848 C1846 1.478 . S
C1848 C1850 1.381 . S
C1848 C1854 1.383 . S
C1849 C1845 1.495 . S
C1849 H1855 0.959 . S
C1849 H1856 0.961 . S
C1849 H1857 0.960 . S
C1850 C1848 1.381 . S
C1850 C1851 1.394 . S
C1850 H1858 0.930 . S
C1851 C1850 1.394 . S
C1851 C1852 1.383 . S
C1851 H1859 0.929 . S
C1852 C1851 1.383 . S
C1852 C1853 1.377 . S
C1853 H1837 0.930 . S
C1853 C1852 1.377 . S
C1853 C1854 1.379 . S
C1854 H1838 0.931 . S
C1854 C1848 1.383 . S
C1854 C1853 1.379 . S
H1855 C1849 0.959 . S
H1856 C1849 0.961 . S
H1857 C1849 0.960 . S
H1858 C1850 0.930 . S
H1859 C1851 0.929 . S
H1860 C1868 0.929 . S
H1861 C1870 0.930 . S
H1862 C1872 0.930 . S
H1863 C1875 0.929 . S
H1864 C1878 0.930 . S
H1865 C1880 0.960 . S
H1866 C1880 0.960 . S
H1867 C1880 0.960 . S
C1868 H1860 0.929 . S
C1868 C1869 1.377 . S
C1868 C1870 1.384 . S
C1869 C1868 1.377 . S
C1869 C1875 1.390 . S
C1870 H1861 0.930 . S
C1870 C1868 1.384 . S
C1870 C1871 1.372 . S
C1871 C1870 1.372 . S
C1871 C1872 1.400 . S
C1871 C1876 1.490 . S
C1872 H1862 0.930 . S
C1872 C1871 1.400 . S
C1872 C1875 1.386 . S
H1873 C1889 0.930 . S
H1874 C1890 0.931 . S
C1875 H1863 0.929 . S
C1875 C1869 1.390 . S
C1875 C1872 1.386 . S
C1876 C1871 1.490 . S
C1876 C1878 1.395 . S
C1876 C1879 1.403 . S
H1877 C1883 0.930 . S
C1878 H1864 0.930 . S
C1878 C1876 1.395 . S
C1878 C1881 1.403 . S
C1879 C1876 1.403 . S
C1879 C1880 1.524 . S
C1879 C1883 1.400 . S
C1880 H1865 0.960 . S
C1880 H1866 0.960 . S
C1880 H1867 0.960 . S
C1880 C1879 1.524 . S
C1881 C1878 1.403 . S
C1881 C1882 1.392 . S
C1881 C1885 1.495 . S
C1882 C1881 1.392 . S
C1882 C1883 1.385 . S
C1882 C1884 1.478 . S
C1883 H1877 0.930 . S
C1883 C1879 1.400 . S
C1883 C1882 1.385 . S
C1884 C1882 1.478 . S
C1884 C1886 1.381 . S
C1884 C1890 1.383 . S
C1885 C1881 1.495 . S
C1885 H1891 0.959 . S
C1885 H1892 0.961 . S
C1885 H1893 0.960 . S
C1886 C1884 1.381 . S
C1886 C1887 1.394 . S
C1886 H1894 0.930 . S
C1887 C1886 1.394 . S
C1887 C1888 1.383 . S
C1887 H1895 0.929 . S
C1888 C1887 1.383 . S
C1888 C1889 1.377 . S
C1889 H1873 0.930 . S
C1889 C1888 1.377 . S
C1889 C1890 1.379 . S
C1890 H1874 0.931 . S
C1890 C1884 1.383 . S
C1890 C1889 1.379 . S
H1891 C1885 0.959 . S
H1892 C1885 0.961 . S
H1893 C1885 0.960 . S
H1894 C1886 0.930 . S
H1895 C1887 0.929 . S
H1896 C1904 0.929 . S
H1897 C1906 0.930 . S
H1898 C1908 0.930 . S
H1899 C1911 0.929 . S
H1900 C1914 0.930 . S
H1901 C1916 0.960 . S
H1902 C1916 0.960 . S
H1903 C1916 0.960 . S
C1904 H1896 0.929 . S
C1904 C1905 1.377 . S
C1904 C1906 1.384 1_565 S
C1905 C1904 1.377 . S
C1905 C1911 1.390 . S
C1906 H1897 0.930 . S
C1906 C1904 1.384 1_545 S
C1906 C1907 1.372 . S
C1907 C1906 1.372 . S
C1907 C1908 1.400 1_545 S
C1907 C1912 1.490 . S
C1908 H1898 0.930 . S
C1908 C1907 1.400 1_565 S
C1908 C1911 1.386 . S
H1909 C1925 0.930 . S
H1910 C1926 0.931 . S
C1911 H1899 0.929 . S
C1911 C1905 1.390 . S
C1911 C1908 1.386 . S
C1912 C1907 1.490 . S
C1912 C1914 1.395 . S
C1912 C1915 1.403 . S
H1913 C1919 0.930 . S
C1914 H1900 0.930 . S
C1914 C1912 1.395 . S
C1914 C1917 1.403 . S
C1915 C1912 1.403 . S
C1915 C1916 1.524 . S
C1915 C1919 1.400 . S
C1916 H1901 0.960 . S
C1916 H1902 0.960 . S
C1916 H1903 0.960 . S
C1916 C1915 1.524 . S
C1917 C1914 1.403 . S
C1917 C1918 1.392 . S
C1917 C1921 1.495 . S
C1918 C1917 1.392 . S
C1918 C1919 1.385 . S
C1918 C1920 1.478 . S
C1919 H1913 0.930 . S
C1919 C1915 1.400 . S
C1919 C1918 1.385 . S
C1920 C1918 1.478 . S
C1920 C1922 1.381 . S
C1920 C1926 1.383 . S
C1921 C1917 1.495 . S
C1921 H1927 0.959 . S
C1921 H1928 0.961 . S
C1921 H1929 0.960 . S
C1922 C1920 1.381 . S
C1922 C1923 1.394 . S
C1922 H1930 0.930 . S
C1923 C1922 1.394 . S
C1923 C1924 1.383 . S
C1923 H1931 0.929 . S
C1924 C1923 1.383 . S
C1924 C1925 1.377 . S
C1925 H1909 0.930 . S
C1925 C1924 1.377 . S
C1925 C1926 1.379 . S
C1926 H1910 0.931 . S
C1926 C1920 1.383 . S
C1926 C1925 1.379 . S
H1927 C1921 0.959 . S
H1928 C1921 0.961 . S
H1929 C1921 0.960 . S
H1930 C1922 0.930 . S
H1931 C1923 0.929 . S
H1932 C1940 0.929 . S
H1933 C1942 0.930 . S
H1934 C1944 0.930 . S
H1935 C1947 0.929 . S
H1936 C1950 0.930 . S
H1937 C1952 0.960 . S
H1938 C1952 0.960 . S
H1939 C1952 0.960 . S
C1940 H1932 0.929 . S
C1940 C1941 1.377 . S
C1940 C1942 1.384 . S
C1941 C1940 1.377 . S
C1941 C1947 1.390 . S
C1942 H1933 0.930 . S
C1942 C1940 1.384 . S
C1942 C1943 1.372 . S
C1943 C1942 1.372 . S
C1943 C1944 1.400 . S
C1943 C1948 1.490 . S
C1944 H1934 0.930 . S
C1944 C1943 1.400 . S
C1944 C1947 1.386 . S
H1945 C1961 0.930 . S
H1946 C1962 0.931 . S
C1947 H1935 0.929 . S
C1947 C1941 1.390 . S
C1947 C1944 1.386 . S
C1948 C1943 1.490 . S
C1948 C1950 1.395 . S
C1948 C1951 1.403 . S
H1949 C1955 0.930 . S
C1950 H1936 0.930 . S
C1950 C1948 1.395 . S
C1950 C1953 1.403 . S
C1951 C1948 1.403 . S
C1951 C1952 1.524 . S
C1951 C1955 1.400 . S
C1952 H1937 0.960 . S
C1952 H1938 0.960 . S
C1952 H1939 0.960 . S
C1952 C1951 1.524 . S
C1953 C1950 1.403 . S
C1953 C1954 1.392 . S
C1953 C1957 1.495 . S
C1954 C1953 1.392 . S
C1954 C1955 1.385 . S
C1954 C1956 1.478 . S
C1955 H1949 0.930 . S
C1955 C1951 1.400 . S
C1955 C1954 1.385 . S
C1956 C1954 1.478 . S
C1956 C1958 1.381 . S
C1956 C1962 1.383 . S
C1957 C1953 1.495 . S
C1957 H1963 0.959 . S
C1957 H1964 0.961 . S
C1957 H1965 0.960 . S
C1958 C1956 1.381 . S
C1958 C1959 1.394 . S
C1958 H1966 0.930 . S
C1959 C1958 1.394 . S
C1959 C1960 1.383 . S
C1959 H1967 0.929 . S
C1960 C1959 1.383 . S
C1960 C1961 1.377 . S
C1961 H1945 0.930 . S
C1961 C1960 1.377 . S
C1961 C1962 1.379 . S
C1962 H1946 0.931 . S
C1962 C1956 1.383 . S
C1962 C1961 1.379 . S
H1963 C1957 0.959 . S
H1964 C1957 0.961 . S
H1965 C1957 0.960 . S
H1966 C1958 0.930 . S
H1967 C1959 0.929 . S
H1968 C1976 0.929 1_554 S
H1969 C1978 0.930 . S
H1970 C1980 0.930 . S
H1971 C1983 0.929 . S
H1972 C1986 0.930 . S
H1973 C1988 0.960 . S
H1974 C1988 0.960 . S
H1975 C1988 0.960 . S
C1976 H1968 0.929 1_556 S
C1976 C1977 1.377 . S
C1976 C1978 1.384 . S
C1977 C1976 1.377 . S
C1977 C1983 1.390 . S
C1978 H1969 0.930 . S
C1978 C1976 1.384 . S
C1978 C1979 1.372 . S
C1979 C1978 1.372 . S
C1979 C1980 1.400 . S
C1979 C1984 1.490 1_545 S
C1980 H1970 0.930 . S
C1980 C1979 1.400 . S
C1980 C1983 1.386 . S
H1981 C1997 0.930 . S
H1982 C1998 0.931 . S
C1983 H1971 0.929 . S
C1983 C1977 1.390 . S
C1983 C1980 1.386 . S
C1984 C1979 1.490 1_565 S
C1984 C1986 1.395 . S
C1984 C1987 1.403 . S
H1985 C1991 0.930 . S
C1986 H1972 0.930 . S
C1986 C1984 1.395 . S
C1986 C1989 1.403 . S
C1987 C1984 1.403 . S
C1987 C1988 1.524 . S
C1987 C1991 1.400 . S
C1988 H1973 0.960 . S
C1988 H1974 0.960 . S
C1988 H1975 0.960 . S
C1988 C1987 1.524 . S
C1989 C1986 1.403 . S
C1989 C1990 1.392 . S
C1989 C1993 1.495 . S
C1990 C1989 1.392 . S
C1990 C1991 1.385 . S
C1990 C1992 1.478 . S
C1991 H1985 0.930 . S
C1991 C1987 1.400 . S
C1991 C1990 1.385 . S
C1992 C1990 1.478 . S
C1992 C1994 1.381 . S
C1992 C1998 1.383 . S
C1993 C1989 1.495 . S
C1993 H1999 0.959 . S
C1993 H2000 0.961 . S
C1993 H2001 0.960 . S
C1994 C1992 1.381 . S
C1994 C1995 1.394 . S
C1994 H2002 0.930 . S
C1995 C1994 1.394 . S
C1995 C1996 1.383 . S
C1995 H2003 0.929 . S
C1996 C1995 1.383 . S
C1996 C1997 1.377 . S
C1997 H1981 0.930 . S
C1997 C1996 1.377 . S
C1997 C1998 1.379 . S
C1998 H1982 0.931 . S
C1998 C1992 1.383 . S
C1998 C1997 1.379 . S
H1999 C1993 0.959 . S
H2000 C1993 0.961 . S
H2001 C1993 0.960 . S
H2002 C1994 0.930 . S
H2003 C1995 0.929 . S
H2004 C2012 0.929 . S
H2005 C2014 0.930 . S
H2006 C2016 0.930 . S
H2007 C2019 0.929 . S
H2008 C2022 0.930 . S
H2009 C2024 0.960 . S
H2010 C2024 0.960 . S
H2011 C2024 0.960 . S
C2012 H2004 0.929 . S
C2012 C2013 1.377 . S
C2012 C2014 1.384 . S
C2013 C2012 1.377 . S
C2013 C2019 1.390 . S
C2014 H2005 0.930 . S
C2014 C2012 1.384 . S
C2014 C2015 1.372 . S
C2015 C2014 1.372 . S
C2015 C2016 1.400 . S
C2015 C2020 1.490 . S
C2016 H2006 0.930 . S
C2016 C2015 1.400 . S
C2016 C2019 1.386 . S
H2017 C2033 0.930 . S
H2018 C2034 0.931 . S
C2019 H2007 0.929 . S
C2019 C2013 1.390 . S
C2019 C2016 1.386 . S
C2020 C2015 1.490 . S
C2020 C2022 1.395 . S
C2020 C2023 1.403 . S
H2021 C2027 0.930 . S
C2022 H2008 0.930 . S
C2022 C2020 1.395 . S
C2022 C2025 1.403 . S
C2023 C2020 1.403 . S
C2023 C2024 1.524 . S
C2023 C2027 1.400 . S
C2024 H2009 0.960 . S
C2024 H2010 0.960 . S
C2024 H2011 0.960 . S
C2024 C2023 1.524 . S
C2025 C2022 1.403 . S
C2025 C2026 1.392 . S
C2025 C2029 1.495 . S
C2026 C2025 1.392 . S
C2026 C2027 1.385 . S
C2026 C2028 1.478 . S
C2027 H2021 0.930 . S
C2027 C2023 1.400 . S
C2027 C2026 1.385 . S
C2028 C2026 1.478 . S
C2028 C2030 1.381 . S
C2028 C2034 1.383 . S
C2029 C2025 1.495 . S
C2029 H2035 0.959 . S
C2029 H2036 0.961 . S
C2029 H2037 0.960 . S
C2030 C2028 1.381 . S
C2030 C2031 1.394 . S
C2030 H2038 0.930 . S
C2031 C2030 1.394 . S
C2031 C2032 1.383 . S
C2031 H2039 0.929 . S
C2032 C2031 1.383 . S
C2032 C2033 1.377 . S
C2033 H2017 0.930 . S
C2033 C2032 1.377 . S
C2033 C2034 1.379 . S
C2034 H2018 0.931 . S
C2034 C2028 1.383 . S
C2034 C2033 1.379 . S
H2035 C2029 0.959 . S
H2036 C2029 0.961 . S
H2037 C2029 0.960 . S
H2038 C2030 0.930 . S
H2039 C2031 0.929 . S
H2040 C2048 0.929 . S
H2041 C2050 0.930 . S
H2042 C2052 0.930 . S
H2043 C2055 0.929 . S
H2044 C2058 0.930 . S
H2045 C2060 0.960 . S
H2046 C2060 0.960 . S
H2047 C2060 0.960 . S
C2048 H2040 0.929 . S
C2048 C2049 1.377 . S
C2048 C2050 1.384 . S
C2049 C2048 1.377 . S
C2049 C2055 1.390 . S
C2050 H2041 0.930 . S
C2050 C2048 1.384 . S
C2050 C2051 1.372 . S
C2051 C2050 1.372 . S
C2051 C2052 1.400 . S
C2051 C2056 1.490 . S
C2052 H2042 0.930 . S
C2052 C2051 1.400 . S
C2052 C2055 1.386 . S
H2053 C2069 0.930 . S
H2054 C2070 0.931 . S
C2055 H2043 0.929 . S
C2055 C2049 1.390 . S
C2055 C2052 1.386 . S
C2056 C2051 1.490 . S
C2056 C2058 1.395 . S
C2056 C2059 1.403 . S
H2057 C2063 0.930 . S
C2058 H2044 0.930 . S
C2058 C2056 1.395 . S
C2058 C2061 1.403 . S
C2059 C2056 1.403 . S
C2059 C2060 1.524 . S
C2059 C2063 1.400 . S
C2060 H2045 0.960 . S
C2060 H2046 0.960 . S
C2060 H2047 0.960 . S
C2060 C2059 1.524 . S
C2061 C2058 1.403 . S
C2061 C2062 1.392 . S
C2061 C2065 1.495 . S
C2062 C2061 1.392 . S
C2062 C2063 1.385 . S
C2062 C2064 1.478 . S
C2063 H2057 0.930 . S
C2063 C2059 1.400 . S
C2063 C2062 1.385 . S
C2064 C2062 1.478 . S
C2064 C2066 1.381 . S
C2064 C2070 1.383 . S
C2065 C2061 1.495 . S
C2065 H2071 0.959 . S
C2065 H2072 0.961 . S
C2065 H2073 0.960 . S
C2066 C2064 1.381 . S
C2066 C2067 1.394 . S
C2066 H2074 0.930 . S
C2067 C2066 1.394 . S
C2067 C2068 1.383 . S
C2067 H2075 0.929 . S
C2068 C2067 1.383 . S
C2068 C2069 1.377 . S
C2069 H2053 0.930 . S
C2069 C2068 1.377 . S
C2069 C2070 1.379 . S
C2070 H2054 0.931 . S
C2070 C2064 1.383 . S
C2070 C2069 1.379 . S
H2071 C2065 0.959 . S
H2072 C2065 0.961 . S
H2073 C2065 0.960 . S
H2074 C2066 0.930 . S
H2075 C2067 0.929 . S
H2076 C2084 0.929 . S
H2077 C2086 0.930 . S
H2078 C2088 0.930 . S
H2079 C2091 0.929 1_545 S
H2080 C2094 0.930 . S
H2081 C2096 0.960 . S
H2082 C2096 0.960 . S
H2083 C2096 0.960 . S
C2084 H2076 0.929 . S
C2084 C2085 1.377 . S
C2084 C2086 1.384 . S
C2085 C2084 1.377 . S
C2085 C2091 1.390 . S
C2086 H2077 0.930 . S
C2086 C2084 1.384 . S
C2086 C2087 1.372 . S
C2087 C2086 1.372 . S
C2087 C2088 1.400 . S
C2087 C2092 1.490 . S
C2088 H2078 0.930 . S
C2088 C2087 1.400 . S
C2088 C2091 1.386 . S
H2089 C2105 0.930 . S
H2090 C2106 0.931 . S
C2091 H2079 0.929 1_565 S
C2091 C2085 1.390 . S
C2091 C2088 1.386 . S
C2092 C2087 1.490 . S
C2092 C2094 1.395 . S
C2092 C2095 1.403 . S
H2093 C2099 0.930 . S
C2094 H2080 0.930 . S
C2094 C2092 1.395 . S
C2094 C2097 1.403 . S
C2095 C2092 1.403 . S
C2095 C2096 1.524 . S
C2095 C2099 1.400 . S
C2096 H2081 0.960 . S
C2096 H2082 0.960 . S
C2096 H2083 0.960 . S
C2096 C2095 1.524 . S
C2097 C2094 1.403 . S
C2097 C2098 1.392 . S
C2097 C2101 1.495 . S
C2098 C2097 1.392 . S
C2098 C2099 1.385 . S
C2098 C2100 1.478 . S
C2099 H2093 0.930 . S
C2099 C2095 1.400 . S
C2099 C2098 1.385 . S
C2100 C2098 1.478 . S
C2100 C2102 1.381 . S
C2100 C2106 1.383 . S
C2101 C2097 1.495 . S
C2101 H2107 0.959 . S
C2101 H2108 0.961 . S
C2101 H2109 0.960 . S
C2102 C2100 1.381 . S
C2102 C2103 1.394 . S
C2102 H2110 0.930 . S
C2103 C2102 1.394 . S
C2103 C2104 1.383 . S
C2103 H2111 0.929 . S
C2104 C2103 1.383 . S
C2104 C2105 1.377 . S
C2105 H2089 0.930 . S
C2105 C2104 1.377 . S
C2105 C2106 1.379 . S
C2106 H2090 0.931 . S
C2106 C2100 1.383 . S
C2106 C2105 1.379 . S
H2107 C2101 0.959 . S
H2108 C2101 0.961 . S
H2109 C2101 0.960 . S
H2110 C2102 0.930 . S
H2111 C2103 0.929 . S
H2112 C2120 0.929 . S
H2113 C2122 0.930 . S
H2114 C2124 0.930 . S
H2115 C2127 0.929 . S
H2116 C2130 0.930 . S
H2117 C2132 0.960 . S
H2118 C2132 0.960 . S
H2119 C2132 0.960 . S
C2120 H2112 0.929 . S
C2120 C2121 1.377 . S
C2120 C2122 1.384 . S
C2121 C2120 1.377 . S
C2121 C2127 1.390 . S
C2122 H2113 0.930 . S
C2122 C2120 1.384 . S
C2122 C2123 1.372 . S
C2123 C2122 1.372 . S
C2123 C2124 1.400 . S
C2123 C2128 1.490 . S
C2124 H2114 0.930 . S
C2124 C2123 1.400 . S
C2124 C2127 1.386 . S
H2125 C2141 0.930 . S
H2126 C2142 0.931 . S
C2127 H2115 0.929 . S
C2127 C2121 1.390 . S
C2127 C2124 1.386 . S
C2128 C2123 1.490 . S
C2128 C2130 1.395 . S
C2128 C2131 1.403 . S
H2129 C2135 0.930 . S
C2130 H2116 0.930 . S
C2130 C2128 1.395 . S
C2130 C2133 1.403 . S
C2131 C2128 1.403 . S
C2131 C2132 1.524 . S
C2131 C2135 1.400 . S
C2132 H2117 0.960 . S
C2132 H2118 0.960 . S
C2132 H2119 0.960 . S
C2132 C2131 1.524 . S
C2133 C2130 1.403 . S
C2133 C2134 1.392 . S
C2133 C2137 1.495 . S
C2134 C2133 1.392 . S
C2134 C2135 1.385 . S
C2134 C2136 1.478 . S
C2135 H2129 0.930 . S
C2135 C2131 1.400 . S
C2135 C2134 1.385 . S
C2136 C2134 1.478 . S
C2136 C2138 1.381 . S
C2136 C2142 1.383 . S
C2137 C2133 1.495 . S
C2137 H2143 0.959 . S
C2137 H2144 0.961 . S
C2137 H2145 0.960 . S
C2138 C2136 1.381 . S
C2138 C2139 1.394 . S
C2138 H2146 0.930 . S
C2139 C2138 1.394 . S
C2139 C2140 1.383 . S
C2139 H2147 0.929 . S
C2140 C2139 1.383 . S
C2140 C2141 1.377 . S
C2141 H2125 0.930 . S
C2141 C2140 1.377 . S
C2141 C2142 1.379 . S
C2142 H2126 0.931 . S
C2142 C2136 1.383 . S
C2142 C2141 1.379 . S
H2143 C2137 0.959 . S
H2144 C2137 0.961 . S
H2145 C2137 0.960 . S
H2146 C2138 0.930 . S
H2147 C2139 0.929 . S
C448 C416 1.179 . S
C429 C8 1.245 . S
C465 C23 1.037 . S
C484 C345 0.832 . S
C501 C35 1.268 . S
C520 C374 1.225 . S
C556 C387 0.927 . S
C537 C45 0.986 . S
C573 C22 1.234 . S
C592 C408 1.163 . S
C628 C353 0.917 . S
C609 C31 0.949 . S
C664 C366 1.057 . S
C645 C49 1.249 . S
C700 C395 0.975 . S
C681 C9 0.975 . S
C717 C65 1.223 . S
C736 C397 1.149 . S
C772 C411 0.890 . S
C753 C73 1.009 . S
C808 C355 1.205 . S
C789 C93 1.235 . S
C844 C369 0.909 . S
C825 C101 0.950 . S
C861 C59 1.202 . S
C880 C348 1.129 . S
C897 C79 0.989 . S
C916 C376 0.895 . S
C933 C87 1.193 . S
C952 C390 1.148 . S
C988 C418 1.017 . S
C969 C107 1.080 . S
C1024 C227 1.236 . S
C1005 C106 1.312 . S
C1060 C208 1.138 . S
C1041 C119 1.209 . S
C1096 C222 0.935 . S
C1077 C134 1.038 . S
C1132 C243 1.123 . S
C1113 C147 1.189 . S
C1149 C64 1.018 . S
C1168 C229 0.883 . S
C1185 C78 1.264 . S
C1204 C180 1.221 . S
C1221 C133 1.016 . S
C1240 C240 0.884 . S
C1257 C161 0.987 . S
C1276 C206 0.937 . S
C1312 C269 1.146 . S
C1293 C36 1.244 . S
C1348 C282 0.831 . S
C1329 C51 1.024 . S
C1365 C7 1.261 . S
C1384 C311 1.146 . S
C1401 C17 0.993 . S
C1420 C324 0.886 . S
C1456 C261 1.089 . S
C1437 C50 1.239 . S
C1492 C290 0.854 . S
C1473 C3 0.954 . S
C1509 C21 1.257 . S
C1528 C303 1.163 . S
C1564 C332 0.957 . S
C1545 C37 0.980 . S
C1581 C163 1.222 . S
C1600 C334 1.210 . S
C1617 C115 0.986 . S
C1636 C264 0.968 . S
C1672 C292 1.161 . S
C1653 C135 1.249 . S
C1689 C143 0.934 . S
C1708 C306 0.819 . S
C1744 C285 1.144 . S
C1725 C157 1.215 . S
C1761 C121 0.980 . S
C1780 C313 0.894 . S
C1816 C327 1.140 . S
C1797 C129 1.203 . S
C1852 C271 1.026 . S
C1833 C149 1.058 . S
C1888 C187 1.241 . S
C1869 C148 1.299 . S
C1924 C250 1.169 . S
C1905 C77 1.241 . S
C1941 C92 1.041 . S
C1960 C177 0.930 . S
C1996 C201 1.147 . S
C1977 C105 1.218 . S
C2032 C185 0.930 . S
C2013 C162 1.014 . S
C2049 C120 1.264 . S
C2068 C219 1.191 . S
C2085 C91 0.982 . S
C2104 C198 0.761 . S
C2121 C63 0.958 . S
C2140 C248 0.927 . S
