# Generated by pormake.
# Topology zzz, (3,6)-cn, num edge types: 1
# Building blocks:
#     Node 0, Type 0, BuildingBlock: CUQRIR_clean_linker_1, # of connection points: 3
#     Node 1, Type 0, BuildingBlock: CUQRIR_clean_linker_1, # of connection points: 3
#     Node 2, Type 0, BuildingBlock: CUQRIR_clean_linker_1, # of connection points: 3
#     Node 3, Type 0, BuildingBlock: CUQRIR_clean_linker_1, # of connection points: 3
#     Node 4, Type 0, BuildingBlock: CUQRIR_clean_linker_1, # of connection points: 3
#     Node 5, Type 0, BuildingBlock: CUQRIR_clean_linker_1, # of connection points: 3
#     Node 6, Type 0, BuildingBlock: CUQRIR_clean_linker_1, # of connection points: 3
#     Node 7, Type 0, BuildingBlock: CUQRIR_clean_linker_1, # of connection points: 3
#     Node 8, Type 1, BuildingBlock: JUFBIX_clean_sbu_0, # of connection points: 6
#     Node 9, Type 1, BuildingBlock: JUFBIX_clean_sbu_0, # of connection points: 6
#     Node 10, Type 1, BuildingBlock: JUFBIX_clean_sbu_0, # of connection points: 6
#     Node 11, Type 1, BuildingBlock: JUFBIX_clean_sbu_0, # of connection points: 6
#     Edge 12, Type (0, 1), BuildingBlock: KIFKEQ_clean_linker_1, # of connection points: 2
#     Edge 13, Type (0, 1), BuildingBlock: KIFKEQ_clean_linker_1, # of connection points: 2
#     Edge 14, Type (0, 1), BuildingBlock: KIFKEQ_clean_linker_1, # of connection points: 2
#     Edge 15, Type (0, 1), BuildingBlock: KIFKEQ_clean_linker_1, # of connection points: 2
#     Edge 16, Type (0, 1), BuildingBlock: KIFKEQ_clean_linker_1, # of connection points: 2
#     Edge 17, Type (0, 1), BuildingBlock: KIFKEQ_clean_linker_1, # of connection points: 2
#     Edge 18, Type (0, 1), BuildingBlock: KIFKEQ_clean_linker_1, # of connection points: 2
#     Edge 19, Type (0, 1), BuildingBlock: KIFKEQ_clean_linker_1, # of connection points: 2
#     Edge 20, Type (0, 1), BuildingBlock: KIFKEQ_clean_linker_1, # of connection points: 2
#     Edge 21, Type (0, 1), BuildingBlock: KIFKEQ_clean_linker_1, # of connection points: 2
#     Edge 22, Type (0, 1), BuildingBlock: KIFKEQ_clean_linker_1, # of connection points: 2
#     Edge 23, Type (0, 1), BuildingBlock: KIFKEQ_clean_linker_1, # of connection points: 2
#     Edge 24, Type (0, 1), BuildingBlock: KIFKEQ_clean_linker_1, # of connection points: 2
#     Edge 25, Type (0, 1), BuildingBlock: KIFKEQ_clean_linker_1, # of connection points: 2
#     Edge 26, Type (0, 1), BuildingBlock: KIFKEQ_clean_linker_1, # of connection points: 2
#     Edge 27, Type (0, 1), BuildingBlock: KIFKEQ_clean_linker_1, # of connection points: 2
#     Edge 28, Type (0, 1), BuildingBlock: KIFKEQ_clean_linker_1, # of connection points: 2
#     Edge 29, Type (0, 1), BuildingBlock: KIFKEQ_clean_linker_1, # of connection points: 2
#     Edge 30, Type (0, 1), BuildingBlock: KIFKEQ_clean_linker_1, # of connection points: 2
#     Edge 31, Type (0, 1), BuildingBlock: KIFKEQ_clean_linker_1, # of connection points: 2
#     Edge 32, Type (0, 1), BuildingBlock: KIFKEQ_clean_linker_1, # of connection points: 2
#     Edge 33, Type (0, 1), BuildingBlock: KIFKEQ_clean_linker_1, # of connection points: 2
#     Edge 34, Type (0, 1), BuildingBlock: KIFKEQ_clean_linker_1, # of connection points: 2
#     Edge 35, Type (0, 1), BuildingBlock: KIFKEQ_clean_linker_1, # of connection points: 2
# Relax obj value: 0.131
# Max RMSD: 0.179
# Mean RMSD: 0.099
data_MOF--net-zzz--node1-JUFBIX_clean_sbu_0--node2-CUQRIR_clean_linker_1--edge1-KIFKEQ_clean_linker_1
_symmetry_space_group_name_H-M    P1
_symmetry_Int_Tables_number       1
_symmetry_cell_setting            triclinic
loop_
_symmetry_equiv_pos_as_xyz
'x, y, z'
_cell_length_a     49.418985
_cell_length_b     49.227262
_cell_length_c     16.061207
_cell_angle_alpha  80.793284
_cell_angle_beta   89.866351
_cell_angle_gamma 91.16278
loop_
_atom_site_label
_atom_site_type_symbol
_atom_site_fract_x
_atom_site_fract_y
_atom_site_fract_z
_atom_type_partial_charge
C0 C 0.78083 0.49956 0.33148 0.0
N1 N 0.80814 0.49688 0.33395 0.0
N2 N 0.7712 0.49616 0.25461 0.0
C3 C 0.76357 0.50433 0.40448 0.0
C4 C 0.79356 0.49168 0.21042 0.0
N5 N 0.81591 0.49182 0.25869 0.0
C6 C 0.79368 0.4896 0.11781 0.0
H7 H 0.77244 0.49449 0.46499 0.0
H8 H 0.74265 0.49626 0.39849 0.0
H9 H 0.76267 0.5268 0.40511 0.0
H10 H 0.77635 0.50058 0.0851 0.0
H11 H 0.79193 0.4676 0.11049 0.0
H12 H 0.81274 0.49836 0.08703 0.0
C13 C 0.02018 0.74565 0.33575 0.0
N14 N 0.0245 0.77272 0.33961 0.0
N15 N 0.02946 0.73957 0.26128 0.0
C16 C 1.00683 0.72537 0.40382 0.0
C17 C 0.03902 0.76404 0.21978 0.0
N18 N 0.03625 0.78403 0.26763 0.0
C19 C 0.04777 0.76905 0.12842 0.0
H20 H 0.01121 0.73092 0.46679 0.0
H21 H 0.01371 0.7042 0.40121 0.0
H22 H 0.9846 0.72587 0.39435 0.0
H23 H 0.04405 0.79047 0.09799 0.0
H24 H 0.03696 0.75485 0.09212 0.0
H25 H 0.06979 0.76536 0.12498 0.0
C26 C 0.77144 0.01533 0.21385 0.0
N27 N 0.74402 0.0152 0.20804 0.0
N28 N 0.78296 0.01443 0.13728 0.0
C29 C 0.7869 0.01807 0.29249 0.0
C30 C 0.76151 0.01333 0.08543 0.0
N31 N 0.73802 0.01403 0.12804 0.0
C32 C 0.76342 0.00931 0.99458 0.0
H33 H 0.80646 0.0292 0.27675 0.0
H34 H 0.7912 0.9972 0.32661 0.0
H35 H 0.7749 0.02902 0.33474 0.0
H36 H 0.78193 0.99802 0.98328 0.0
H37 H 0.76424 0.02972 0.95363 0.0
H38 H 0.74545 0.99774 0.97649 0.0
C39 C 0.51029 0.74635 0.22735 0.0
N40 N 0.50802 0.71879 0.22854 0.0
N41 N 0.50946 0.75997 0.14682 0.0
C42 C 0.51411 0.75972 0.3043 0.0
C43 C 0.50657 0.73968 0.09954 0.0
N44 N 0.50552 0.7148 0.1491 0.0
C45 C 0.50482 0.74417 1.00492 0.0
H46 H 0.50107 0.7492 0.35654 0.0
H47 H 0.50952 0.78194 0.29143 0.0
H48 H 0.53547 0.75746 0.32493 0.0
H49 H 0.52562 0.74552 0.97823 0.0
H50 H 0.49456 0.76373 0.98138 0.0
H51 H 0.49383 0.72683 0.98263 0.0
C52 C 0.24363 0.51588 0.25425 0.0
N53 N 0.21616 0.51591 0.25373 0.0
N54 N 0.25314 0.52104 0.32965 0.0
C55 C 0.26101 0.50988 0.183 0.0
C56 C 0.23051 0.524 0.37469 0.0
N57 N 0.20821 0.521 0.32851 0.0
C58 C 0.23029 0.52906 0.46471 0.0
H59 H 0.26221 0.48724 0.18658 0.0
H60 H 0.28179 0.5185 0.18726 0.0
H61 H 0.252 0.51838 0.12137 0.0
H62 H 0.23506 0.55113 0.46562 0.0
H63 H 0.24606 0.51675 0.50161 0.0
H64 H 0.21032 0.52405 0.49547 0.0
C65 C 0.01167 0.26573 0.26381 0.0
N66 N 1.00687 0.23846 0.26396 0.0
N67 N 1.00379 0.27289 0.3383 0.0
C68 C 0.02359 0.28529 0.19122 0.0
C69 C 0.99458 0.24899 0.38399 0.0
N70 N 0.99616 0.22821 0.33864 0.0
C71 C 0.98697 0.24541 0.47617 0.0
H72 H 0.04597 0.28515 0.19646 0.0
H73 H 0.01676 0.30656 0.19243 0.0
H74 H 0.01797 0.2788 0.13038 0.0
H75 H 0.96475 0.24742 0.48181 0.0
H76 H 0.99707 0.26125 0.50795 0.0
H77 H 0.99259 0.22481 0.50946 0.0
C78 C 0.2503 0.99617 0.3687 0.0
N79 N 0.27755 0.99381 0.37621 0.0
N80 N 0.2385 0.99448 0.44588 0.0
C81 C 0.23529 1.00082 0.28677 0.0
C82 C 0.25947 0.99107 0.50022 0.0
N83 N 0.28304 0.99049 0.4581 0.0
C84 C 0.25706 0.99011 0.59395 0.0
H85 H 0.23376 0.0233 0.26518 0.0
H86 H 0.21447 0.99188 0.295 0.0
H87 H 0.2462 0.99172 0.23777 0.0
H88 H 0.23725 0.98096 0.61759 0.0
H89 H 0.25849 0.01143 0.60807 0.0
H90 H 0.27367 0.97812 0.62743 0.0
C91 C 0.51371 0.27025 0.35908 0.0
N92 N 0.51578 0.29788 0.35595 0.0
N93 N 0.51513 0.25721 0.44 0.0
C94 C 0.51014 0.256 0.28381 0.0
C95 C 0.51826 0.27792 0.48574 0.0
N96 N 0.51881 0.30261 0.43455 0.0
C97 C 0.51913 0.27382 0.5806 0.0
H98 H 0.49767 0.2369 0.30062 0.0
H99 H 0.53033 0.2502 0.26283 0.0
H100 H 0.50065 0.26969 0.2308 0.0
H101 H 0.52976 0.25459 0.60545 0.0
H102 H 0.49809 0.27183 0.6054 0.0
H103 H 0.52916 0.29132 0.60445 0.0
Co104 Co 0.02063 0.01894 0.83813 0.0
C105 C 0.96641 1.00687 0.87505 0.0
Co106 Co 1.00198 0.99201 0.7548 0.0
C107 C 0.02536 0.06677 0.92213 0.0
C108 C 0.06099 0.04253 0.93624 0.0
N109 N 0.03605 0.0435 0.90243 0.0
N110 N 0.04266 0.08049 0.96683 0.0
C111 C 0.06511 0.06512 0.97566 0.0
H112 H 1.00519 0.07339 0.90385 0.0
H113 H 0.07541 0.02661 0.93143 0.0
C114 C 0.05623 1.00413 0.71776 0.0
N115 N 0.98663 0.96736 0.69081 0.0
C116 C 0.99732 0.94374 0.67393 0.0
C117 C 0.96207 0.96841 0.65438 0.0
N118 N 0.98043 0.92988 0.62853 0.0
C119 C 0.95821 0.9455 0.61612 0.0
C120 C 0.99737 0.04612 0.68964 0.0
O121 O 0.054 0.01829 0.77712 0.0
O122 O 0.03574 0.99047 0.69817 0.0
O123 O 0.99234 0.02214 0.67325 0.0
O124 O 0.00916 0.04903 0.75804 0.0
O125 O 0.96819 0.99402 0.81246 0.0
H126 H 0.94775 0.98461 0.65649 0.0
H127 H 0.01725 0.93698 0.69459 0.0
O128 O 0.98731 0.01917 0.89809 0.0
O129 O 0.03172 0.9884 0.91774 0.0
O130 O 0.01177 0.96223 0.83671 0.0
C131 C 0.02476 0.96458 0.90339 0.0
H132 H 0.08353 0.07001 0.00685 0.0
H133 H 0.94014 0.94058 0.58316 0.0
Co134 Co 0.49957 0.01415 0.84475 0.0
C135 C 0.50828 0.95765 0.85966 0.0
Co136 Co 0.52126 1.00209 0.73533 0.0
C137 C 0.45408 0.01451 0.95903 0.0
C138 C 0.48705 0.03982 0.99023 0.0
N139 N 0.47944 0.02333 0.93456 0.0
N140 N 0.44569 0.02469 0.02772 0.0
C141 C 0.46645 0.04052 0.04784 0.0
H142 H 0.44214 1.00038 0.92818 0.0
H143 H 0.50637 0.05059 0.98925 0.0
C144 C 0.51265 0.05861 0.72067 0.0
N145 N 0.54151 0.99307 0.64541 0.0
C146 C 0.5666 1.00261 0.62018 0.0
C147 C 0.53449 0.97593 0.59104 0.0
N148 N 0.57544 0.99219 0.55244 0.0
C149 C 0.5552 0.97549 0.53357 0.0
C150 C 0.4663 1.00235 0.71372 0.0
O151 O 0.50199 0.052 0.79362 0.0
O152 O 0.52232 0.03984 0.68397 0.0
O153 O 0.48818 0.99688 0.67864 0.0
O154 O 0.46719 0.01021 0.78519 0.0
O155 O 0.51992 0.96437 0.7882 0.0
H156 H 0.51554 0.96444 0.59302 0.0
H157 H 0.57805 0.01735 0.64994 0.0
O158 O 0.49751 0.97629 0.89454 0.0
O159 O 0.53252 0.01801 0.90322 0.0
O160 O 0.5537 0.00737 0.79314 0.0
C161 C 0.5545 0.01401 0.86626 0.0
H162 H 0.4666 0.052 0.09999 0.0
H163 H 0.55554 0.96351 0.48263 0.0
Co164 Co 0.5341 0.50962 0.79909 0.0
C165 C 0.50921 0.46722 0.91234 0.0
Co166 Co 0.48948 0.50731 0.78819 0.0
C167 C 0.58507 0.50947 0.88679 0.0
C168 C 0.5907 0.51288 0.75327 0.0
N169 N 0.57138 0.51109 0.81336 0.0
N170 N 0.61217 0.50994 0.87503 0.0
C171 C 0.61575 0.51209 0.79093 0.0
H172 H 0.57529 0.50718 0.94798 0.0
H173 H 0.58679 0.51432 0.68648 0.0
C174 C 0.51422 0.54995 0.67552 0.0
N175 N 0.45221 0.50591 0.77378 0.0
C176 C 0.43861 0.50786 0.70013 0.0
C177 C 0.43282 0.50396 0.83369 0.0
N178 N 0.41151 0.50745 0.71157 0.0
C179 C 0.40781 0.50499 0.79568 0.0
C180 C 0.50666 0.54179 0.89765 0.0
O181 O 0.53615 0.54037 0.70862 0.0
O182 O 0.49188 0.53816 0.70061 0.0
O183 O 0.48565 0.53187 0.86706 0.0
O184 O 0.5299 0.53445 0.8769 0.0
O185 O 0.48746 0.47623 0.87666 0.0
H186 H 0.43664 0.50228 0.90059 0.0
H187 H 0.44847 0.51036 0.63903 0.0
O188 O 0.53161 0.47922 0.88892 0.0
O189 O 0.53785 0.48445 0.72061 0.0
O190 O 0.49362 0.48305 0.70988 0.0
C191 C 0.51662 0.47501 0.68964 0.0
H192 H 0.63511 0.51303 0.7588 0.0
H193 H 0.38841 0.50401 0.82757 0.0
Co194 Co 0.01127 0.53109 0.7898 0.0
C195 C 0.05587 0.50609 0.87804 0.0
Co196 Co 0.01349 0.4861 0.79284 0.0
C197 C 0.01062 0.57815 0.87397 0.0
C198 C 1.00783 0.59045 0.74035 0.0
N199 N 0.0094 0.56806 0.80052 0.0
N200 N 0.00999 0.60586 0.86234 0.0
C201 C 0.00836 0.61376 0.77819 0.0
H202 H 0.01281 0.56539 0.93496 0.0
H203 H 1.00677 0.58989 0.67339 0.0
C204 C 0.96868 0.51078 0.70591 0.0
N205 N 0.0154 0.44911 0.78258 0.0
C206 C 0.0145 0.43878 0.70952 0.0
C207 C 0.01739 0.42692 0.84329 0.0
N208 N 0.01582 0.4111 0.72195 0.0
C209 C 0.0175 0.40349 0.80619 0.0
C210 C 0.98394 0.49796 0.92447 0.0
O211 O 0.97881 0.53325 0.72307 0.0
O212 O 0.9809 0.48844 0.73008 0.0
O213 O 0.99273 0.47751 0.89399 0.0
O214 O 0.98996 0.52214 0.88807 0.0
O215 O 0.04623 0.48403 0.85673 0.0
H216 H 0.01854 0.42772 0.9101 0.0
H217 H 0.01223 0.45131 0.6482 0.0
O218 O 0.04346 0.52847 0.85599 0.0
O219 O 0.03276 0.53972 0.69071 0.0
O220 O 0.03401 0.49516 0.69214 0.0
C221 C 0.04054 0.51943 0.65756 0.0
H222 H 1.0076 0.63484 0.74633 0.0
H223 H 0.01888 0.38252 0.83857 0.0
H224 H 0.1981 0.95681 0.45282 0.0
H225 H 0.21707 0.03935 0.4926 0.0
H226 H 0.153 0.95966 0.51451 0.0
H227 H 0.17182 0.04304 0.55184 0.0
H228 H 0.10506 0.02711 0.75209 0.0
H229 H 0.14791 0.02578 0.67791 0.0
H230 H 0.10926 0.97942 0.50275 0.0
H231 H 0.06656 0.98002 0.57878 0.0
C232 C 0.19213 0.97584 0.47264 0.0
C233 C 0.21065 0.99798 0.46738 0.0
C234 C 0.16638 0.97757 0.50808 0.0
C235 C 0.15869 1.00154 0.53906 0.0
C236 C 0.1771 0.02407 0.53032 0.0
C237 C 0.20284 0.02221 0.49538 0.0
C238 C 0.10567 0.01665 0.6977 0.0
C239 C 0.08232 1.00363 0.67163 0.0
C240 C 0.13026 0.01607 0.65455 0.0
C241 C 0.13219 1.00261 0.58372 0.0
C242 C 0.10874 0.9897 0.55746 0.0
C243 C 0.08416 0.99016 0.60093 0.0
H244 H 0.54963 0.21824 0.40959 0.0
H245 H 0.47667 0.23106 0.54335 0.0
H246 H 0.54933 0.16984 0.47648 0.0
H247 H 0.47554 0.18265 0.60894 0.0
H248 H 0.49805 0.10458 0.78493 0.0
H249 H 0.49828 0.15212 0.71336 0.0
H250 H 0.52764 0.12597 0.48578 0.0
H251 H 0.52827 0.07858 0.55834 0.0
C252 C 0.53327 0.2104 0.45226 0.0
C253 C 0.51323 0.22816 0.47179 0.0
C254 C 0.533 0.18273 0.49064 0.0
C255 C 0.51253 0.17222 0.54904 0.0
C256 C 0.49198 0.19002 0.56602 0.0
C257 C 0.49242 0.21767 0.52806 0.0
C258 C 0.50463 0.10898 0.7197 0.0
C259 C 0.51316 0.08771 0.67756 0.0
C260 C 0.50456 0.13627 0.67826 0.0
C261 C 0.51283 0.14305 0.5933 0.0
C262 C 0.52146 0.12172 0.55137 0.0
C263 C 0.52169 0.09445 0.59299 0.0
H264 H 0.27908 0.5636 0.38149 0.0
H265 H 0.28788 0.47891 0.35157 0.0
H266 H 0.32029 0.56145 0.46628 0.0
H267 H 0.32938 0.47646 0.43644 0.0
H268 H 0.41304 0.49004 0.55943 0.0
H269 H 0.37756 0.49486 0.45165 0.0
H270 H 0.32779 0.53619 0.61162 0.0
H271 H 0.3631 0.53159 0.7182 0.0
C272 C 0.29037 0.54475 0.39144 0.0
C273 C 0.28046 0.52143 0.36048 0.0
C274 C 0.31377 0.54339 0.44042 0.0
C275 C 0.32785 0.51864 0.45928 0.0
C276 C 0.31903 0.49584 0.42285 0.0
C277 C 0.29543 0.49721 0.37402 0.0
C278 C 0.39458 0.50033 0.57106 0.0
C279 C 0.39085 0.51038 0.64747 0.0
C280 C 0.37423 0.50293 0.50964 0.0
C281 C 0.34995 0.51608 0.5228 0.0
C282 C 0.3464 0.5263 0.59893 0.0
C283 C 0.36651 0.52338 0.66053 0.0
H284 H 0.04885 0.30348 0.35641 0.0
H285 H 0.96237 0.30005 0.39077 0.0
H286 H 0.05225 0.34061 0.44231 0.0
H287 H 0.96558 0.33657 0.47753 0.0
H288 H 0.99139 0.36106 0.73509 0.0
H289 H 0.98845 0.33151 0.62658 0.0
H290 H 0.03503 0.39147 0.45604 0.0
H291 H 0.03767 0.42132 0.56482 0.0
C292 C 0.03055 0.31144 0.37979 0.0
C293 C 1.00535 0.29907 0.36736 0.0
C294 C 0.03246 0.33245 0.42934 0.0
C295 C 0.0092 0.34108 0.46769 0.0
C296 C 0.98385 0.33006 0.44969 0.0
C297 C 0.98196 0.30941 0.39957 0.0
C298 C 1.00107 0.36787 0.67462 0.0
C299 C 0.0147 0.39348 0.65838 0.0
C300 C 0.99922 0.35111 0.61229 0.0
C301 C 0.01135 0.35933 0.53271 0.0
C302 C 0.02546 0.38469 0.51676 0.0
C303 C 0.02685 0.40176 0.57874 0.0
H304 H 0.82367 0.98235 0.20724 0.0
H305 H 0.8058 0.04983 0.01059 0.0
H306 H 0.86986 0.98086 0.14982 0.0
H307 H 0.85117 0.04753 0.95106 0.0
H308 H 0.91558 0.99952 0.81515 0.0
H309 H 0.87233 1.00273 0.88726 0.0
H310 H 0.91465 0.01878 0.10936 0.0
H311 H 0.9581 0.01642 0.0365 0.0
C312 C 0.82981 0.99712 0.15279 0.0
C313 C 0.81115 0.016 0.11266 0.0
C314 C 0.85607 0.99618 0.11969 0.0
C315 C 0.86382 0.01382 0.04535 0.0
C316 C 0.84555 0.03347 0.00773 0.0
C317 C 0.81965 0.03476 0.04166 0.0
C318 C 0.91571 1.00367 0.87939 0.0
C319 C 0.94026 0.00781 0.91998 0.0
C320 C 0.89097 1.00556 0.9205 0.0
C321 C 0.89024 0.011 1.00375 0.0
C322 C 0.91473 0.01448 0.04529 0.0
C323 C 0.93951 0.01325 1.00342 0.0
H324 H 0.54894 0.78726 0.05071 0.0
H325 H 0.47276 0.7977 0.17042 0.0
H326 H 0.54917 0.83556 0.98356 0.0
H327 H 0.47217 0.84591 0.10191 0.0
H328 H 0.49044 0.9377 0.01972 0.0
H329 H 0.49202 0.89066 0.09458 0.0
H330 H 0.52689 0.86469 0.87391 0.0
H331 H 0.5261 0.91194 0.80004 0.0
C332 C 0.5324 0.80018 0.06311 0.0
C333 C 0.51101 0.7891 0.11619 0.0
C334 C 0.53228 0.82771 0.02403 0.0
C335 C 0.51056 0.84476 0.03647 0.0
C336 C 0.48942 0.83364 0.09149 0.0
C337 C 0.48968 0.80609 0.13089 0.0
C338 C 0.4984 0.92195 0.98703 0.0
C339 C 0.50816 0.92867 0.90373 0.0
C340 C 0.49921 0.89487 0.02998 0.0
C341 C 0.50967 0.87371 0.99072 0.0
C342 C 0.51916 0.88044 0.907 0.0
C343 C 0.5185 0.90755 0.8642 0.0
H344 H 0.73673 0.53865 0.23362 0.0
H345 H 0.74485 0.45396 0.20286 0.0
H346 H 0.69505 0.54142 0.1492 0.0
H347 H 0.70345 0.45637 0.11908 0.0
H348 H 0.66068 0.48603 0.86799 0.0
H349 H 0.69615 0.48173 0.97391 0.0
H350 H 0.64653 0.52314 0.13408 0.0
H351 H 0.61085 0.52766 0.02685 0.0
C352 C 0.72899 0.52042 0.21114 0.0
C353 C 0.7438 0.4961 0.22429 0.0
C354 C 0.70529 0.52197 0.16261 0.0
C355 C 0.69623 0.49923 0.12622 0.0
C356 C 0.71014 0.47438 0.14488 0.0
C357 C 0.73363 0.47286 0.1934 0.0
C358 C 0.65732 0.49434 0.92552 0.0
C359 C 0.63295 0.50725 0.93879 0.0
C360 C 0.67754 0.4916 0.98675 0.0
C361 C 0.67408 0.50189 0.0628 0.0
C362 C 0.64979 0.515 0.07614 0.0
C363 C 0.62932 0.51744 0.01505 0.0
H364 H 0.0696 0.71288 0.19893 0.0
H365 H 0.98343 0.71074 0.24046 0.0
H366 H 0.06457 0.67797 0.10688 0.0
H367 H 0.97825 0.67517 0.14977 0.0
H368 H 0.98882 0.59574 0.02028 0.0
H369 H 0.99343 0.62479 0.13058 0.0
H370 H 0.04089 0.68393 0.96002 0.0
H371 H 0.03603 0.65513 0.84996 0.0
C372 C 0.04969 0.70422 0.1902 0.0
C373 C 0.02691 0.71443 0.22638 0.0
C374 C 0.04676 0.68448 0.13716 0.0
C375 C 0.02098 0.67419 0.12023 0.0
C376 C 0.99836 0.68275 0.16185 0.0
C377 C 1.00129 0.70288 0.21418 0.0
C378 C 1.00024 0.61494 0.00663 0.0
C379 C 0.01209 0.6232 0.92655 0.0
C380 C 1.00276 0.63157 0.06951 0.0
C381 C 0.0177 0.65647 0.05405 0.0
C382 C 0.02951 0.66468 0.97398 0.0
C383 C 0.02654 0.64836 0.91075 0.0
H384 H 0.95031 0.20483 0.41035 0.0
H385 H 0.03169 0.18737 0.34094 0.0
H386 H 0.945 0.15763 0.48701 0.0
H387 H 0.02592 0.13992 0.41285 0.0
H388 H 0.99604 0.05104 0.51827 0.0
H389 H 0.99095 0.09368 0.41731 0.0
H390 H 0.97837 0.1385 0.62365 0.0
H391 H 0.98431 0.0963 0.72442 0.0
C392 C 0.96669 0.19059 0.40965 0.0
C393 C 0.99138 0.19951 0.37024 0.0
C394 C 0.96363 0.16375 0.45279 0.0
C395 C 0.98503 0.14536 0.455 0.0
C396 C 0.00904 0.15372 0.41068 0.0
C397 C 0.01231 0.18073 0.36941 0.0
C398 C 0.9917 0.06994 0.54171 0.0
C399 C 0.99072 0.07058 0.62879 0.0
C400 C 0.98881 0.09419 0.48419 0.0
C401 C 0.98411 0.11908 0.51325 0.0
C402 C 0.98166 0.11939 0.6001 0.0
C403 C 0.98524 0.09537 0.65751 0.0
H404 H 0.31208 0.94808 0.53381 0.0
H405 H 0.31336 0.03602 0.45885 0.0
H406 H 0.35819 0.95054 0.59074 0.0
H407 H 0.35909 0.03887 0.51747 0.0
H408 H 0.42019 0.02798 0.74493 0.0
H409 H 0.37615 0.02495 0.67859 0.0
H410 H 0.40817 0.96894 0.52402 0.0
H411 H 0.45281 0.97239 0.58924 0.0
C412 C 0.32238 0.96786 0.53012 0.0
C413 C 0.30961 0.99191 0.49297 0.0
C414 C 0.34861 0.96929 0.56178 0.0
C415 C 0.36201 0.99489 0.5581 0.0
C416 C 0.34906 0.01893 0.52103 0.0
C417 C 0.32309 0.01739 0.48796 0.0
C418 C 0.41793 0.01505 0.69664 0.0
C419 C 0.43991 1.0004 0.67216 0.0
C420 C 0.39277 0.01345 0.65858 0.0
C421 C 0.38894 0.99675 0.59646 0.0
C422 C 0.41076 0.98189 0.57211 0.0
C423 C 0.43621 0.98395 0.60905 0.0
H424 H 0.55988 0.32437 0.51403 0.0
H425 H 0.48067 0.34108 0.41008 0.0
H426 H 0.56052 0.36844 0.56611 0.0
H427 H 0.48196 0.3862 0.454 0.0
H428 H 0.47489 0.44349 0.64677 0.0
H429 H 0.4768 0.40365 0.57714 0.0
H430 H 0.5632 0.41654 0.54154 0.0
H431 H 0.56137 0.45595 0.61664 0.0
C432 C 0.5428 0.33782 0.5015 0.0
C433 C 0.52007 0.32941 0.45946 0.0
C434 C 0.54325 0.36323 0.53001 0.0
C435 C 0.52115 0.38097 0.51521 0.0
C436 C 0.49906 0.37292 0.46877 0.0
C437 C 0.4984 0.34727 0.44231 0.0
C438 C 0.49431 0.43808 0.6234 0.0
C439 C 0.51802 0.45286 0.63759 0.0
C440 C 0.4954 0.41521 0.58258 0.0
C441 C 0.52016 0.40669 0.55314 0.0
C442 C 0.54381 0.42214 0.56454 0.0
C443 C 0.54278 0.44488 0.60691 0.0
H444 H 0.17379 0.56285 0.29473 0.0
H445 H 0.1816 0.48009 0.4257 0.0
H446 H 0.12807 0.56484 0.35479 0.0
H447 H 0.13638 0.48166 0.48641 0.0
H448 H 0.05087 0.48268 0.55283 0.0
H449 H 0.08818 0.48446 0.45287 0.0
H450 H 0.11061 0.56588 0.50004 0.0
H451 H 0.07278 0.56436 0.59908 0.0
C452 C 0.16536 0.54505 0.3356 0.0
C453 C 0.18072 0.52136 0.35654 0.0
C454 C 0.13944 0.54614 0.37002 0.0
C455 C 0.12862 0.52339 0.42511 0.0
C456 C 0.1439 0.49936 0.4431 0.0
C457 C 0.16975 0.49842 0.40916 0.0
C458 C 0.0634 0.50123 0.54049 0.0
C459 C 0.05927 0.5232 0.58486 0.0
C460 C 0.08479 0.5022 0.48342 0.0
C461 C 0.10263 0.52506 0.47 0.0
C462 C 0.09715 0.54801 0.50895 0.0
C463 C 0.07555 0.54712 0.56586 0.0
H464 H 0.08057 0.81523 0.21636 0.0
H465 H 0.99401 0.81725 0.24558 0.0
H466 H 0.08059 0.86264 0.13812 0.0
H467 H 0.99389 0.86432 0.16888 0.0
H468 H 1.00558 0.91306 0.89736 0.0
H469 H 0.01072 0.87206 1.00136 0.0
H470 H 0.06077 0.91761 0.1528 0.0
H471 H 0.05534 0.95956 0.04822 0.0
C472 C 0.06178 0.82627 0.20819 0.0
C473 C 0.03729 0.81302 0.2365 0.0
C474 C 0.06178 0.85321 0.1642 0.0
C475 C 0.03723 0.86685 0.14794 0.0
C476 C 0.01303 0.85413 0.18122 0.0
C477 C 0.01308 0.82739 0.22515 0.0
C478 C 0.01781 0.91454 0.95242 0.0
C479 C 0.02991 0.93964 0.96488 0.0
C480 C 0.02063 0.89104 0.01201 0.0
C481 C 0.03585 0.89196 0.08495 0.0
C482 C 0.04885 0.91665 0.0968 0.0
C483 C 0.04571 0.9405 0.03725 0.0
H484 H 0.69597 0.97941 0.17891 0.0
H485 H 0.71995 0.0505 0.99922 0.0
H486 H 0.65011 0.98137 0.11981 0.0
H487 H 0.67451 0.05218 0.93838 0.0
H488 H 0.56472 0.01349 0.03424 0.0
H489 H 0.6092 0.01424 0.1016 0.0
H490 H 0.648 0.01996 0.85807 0.0
H491 H 0.60398 0.01906 0.79109 0.0
C492 C 0.69128 0.99542 0.12682 0.0
C493 C 0.71127 0.01469 0.09281 0.0
C494 C 0.66517 0.99664 0.09336 0.0
C495 C 0.65889 0.0169 0.02453 0.0
C496 C 0.67894 0.03622 0.99094 0.0
C497 C 0.70486 0.03519 0.02514 0.0
C498 C 0.58278 0.01513 0.99525 0.0
C499 C 0.58091 0.01619 0.9075 0.0
C500 C 0.60814 0.01537 0.03376 0.0
C501 C 0.63192 0.01717 0.98486 0.0
C502 C 0.62996 0.0188 0.89709 0.0
C503 C 0.60475 0.01817 0.85887 0.0
H504 H 0.54801 0.68871 0.09874 0.0
H505 H 0.46174 0.68277 0.13481 0.0
H506 H 0.54734 0.64479 0.0459 0.0
H507 H 0.46073 0.6378 0.08839 0.0
H508 H 0.46492 0.57678 0.90152 0.0
H509 H 0.46419 0.61773 0.9681 0.0
H510 H 0.54234 0.59723 0.07913 0.0
H511 H 0.54363 0.55714 0.00791 0.0
C512 C 0.529 0.67752 0.09645 0.0
C513 C 0.505 0.68855 0.12123 0.0
C514 C 0.52852 0.65228 0.06723 0.0
C515 C 0.50397 0.63744 0.06331 0.0
C516 C 0.47996 0.64866 0.08935 0.0
C517 C 0.48047 0.67417 0.11693 0.0
C518 C 0.48175 0.58084 0.94119 0.0
C519 C 0.5044 0.5639 0.94916 0.0
C520 C 0.48133 0.60432 0.97978 0.0
C521 C 0.50334 0.61111 0.02861 0.0
C522 C 0.52534 0.59317 0.04023 0.0
C523 C 0.52599 0.57 1.00019 0.0
H524 H 0.83573 0.45143 0.1825 0.0
H525 H 0.85805 0.52622 0.27473 0.0
H526 H 0.88042 0.4504 0.11884 0.0
H527 H 0.90374 0.52377 0.22025 0.0
H528 H 0.95977 0.53844 0.99156 0.0
H529 H 0.92235 0.53413 0.08877 0.0
H530 H 0.92709 0.44535 0.12107 0.0
H531 H 0.96403 0.44986 0.01788 0.0
C532 C 0.85052 0.46732 0.19043 0.0
C533 C 0.84342 0.48918 0.23178 0.0
C534 C 0.87632 0.46651 0.15543 0.0
C535 C 0.89578 0.48726 0.16303 0.0
C536 C 0.88914 0.50788 0.21069 0.0
C537 C 0.86309 0.50913 0.24318 0.0
C538 C 0.95315 0.51792 0.01996 0.0
C539 C 0.96459 0.49446 0.99575 0.0
C540 C 0.93171 0.51541 0.07699 0.0
C541 C 0.92136 0.48935 0.11295 0.0
C542 C 0.93409 0.46578 0.09327 0.0
C543 C 0.95541 0.46831 0.03472 0.0
H544 H 0.9703 0.20925 0.19042 0.0
H545 H 0.05522 0.23002 0.19464 0.0
H546 H 0.97973 0.17313 0.1067 0.0
H547 H 0.06502 0.19394 0.11005 0.0
H548 H 1.00462 0.11907 0.91569 0.0
H549 H 0.99661 0.16131 0.97225 0.0
H550 H 0.06285 0.143 0.1454 0.0
H551 H 0.07066 0.10068 0.09039 0.0
C552 C 0.99091 0.20658 0.17067 0.0
C553 C 0.01202 0.22239 0.19819 0.0
C554 C 0.99637 0.1859 0.12295 0.0
C555 C 0.02317 0.18043 0.10227 0.0
C556 C 0.04418 0.19742 0.12572 0.0
C557 C 0.03862 0.21832 0.17292 0.0
C558 C 0.01745 0.12386 0.96606 0.0
C559 C 0.03827 0.10609 0.99836 0.0
C560 C 0.01291 0.14824 0.99823 0.0
C561 C 0.02917 0.15567 0.06308 0.0
C562 C 0.05026 0.13823 0.09433 0.0
C563 C 0.05469 0.11379 0.06268 0.0
H564 H 0.3159 0.95698 0.36162 0.0
H565 H 0.28585 0.03545 0.24537 0.0
H566 H 0.35635 0.96425 0.27168 0.0
H567 H 0.32578 0.04217 0.15156 0.0
H568 H 0.39608 0.02095 0.95854 0.0
H569 H 0.35252 0.01264 0.03412 0.0
H570 H 0.39431 0.00756 0.27138 0.0
H571 H 0.43757 0.01659 0.19606 0.0
C572 C 0.31777 0.97552 0.31546 0.0
C573 C 0.29794 0.99574 0.31077 0.0
C574 C 0.34082 0.97966 0.26409 0.0
C575 C 0.3442 1.00383 0.20523 0.0
C576 C 0.32354 0.02331 0.19633 0.0
C577 C 0.30066 0.0194 0.24931 0.0
C578 C 0.39585 0.01803 0.0268 0.0
C579 C 0.42015 0.01942 0.07158 0.0
C580 C 0.37101 0.01344 0.06984 0.0
C581 C 0.37016 0.00943 0.15839 0.0
C582 C 0.39447 0.01053 0.20305 0.0
C583 C 0.41915 0.01579 0.16008 0.0
H584 H 0.47142 0.31723 0.27208 0.0
H585 H 0.55794 0.32682 0.27959 0.0
H586 H 0.46886 0.35843 0.16522 0.0
H587 H 0.55625 0.3668 0.16804 0.0
H588 H 0.54511 0.45397 0.03993 0.0
H589 H 0.54622 0.41226 0.14353 0.0
H590 H 0.47505 0.38101 0.03045 0.0
H591 H 0.47306 0.42383 0.93084 0.0
C592 C 0.48995 0.32784 0.2483 0.0
C593 C 0.51487 0.31901 0.28289 0.0
C594 C 0.48862 0.35146 0.18697 0.0
C595 C 0.51233 0.36648 0.1576 0.0
C596 C 0.53741 0.35654 0.19013 0.0
C597 C 0.53857 0.33333 0.25292 0.0
C598 C 0.52958 0.43824 0.03787 0.0
C599 C 0.50894 0.44222 0.97753 0.0
C600 C 0.53037 0.41403 0.09675 0.0
C601 C 0.51094 0.39271 0.09557 0.0
C602 C 0.49019 0.39689 0.03494 0.0
C603 C 0.48904 0.42146 0.97735 0.0
H604 H 0.18214 0.47264 0.25484 0.0
H605 H 0.20798 0.54947 0.10697 0.0
H606 H 0.14455 0.46905 0.1579 0.0
H607 H 0.17091 0.54587 0.00767 0.0
H608 H 0.08124 0.54998 0.93127 0.0
H609 H 0.12246 0.5505 0.01331 0.0
H610 H 0.13004 0.46302 0.0176 0.0
H611 H 0.08829 0.4624 0.93632 0.0
C612 C 0.1801 0.48833 0.19984 0.0
C613 C 0.19792 0.51117 0.18746 0.0
C614 C 0.15864 0.48633 0.14422 0.0
C615 C 0.15449 0.50728 0.07508 0.0
C616 C 0.17323 0.52955 0.06083 0.0
C617 C 0.19467 0.53148 0.11666 0.0
C618 C 0.09168 0.53081 0.94938 0.0
C619 C 0.08133 0.50612 0.92726 0.0
C620 C 0.11553 0.53117 0.99593 0.0
C621 C 0.12977 0.50684 0.02181 0.0
C622 C 0.11952 0.48212 0.99933 0.0
C623 C 0.09561 0.48177 0.95251 0.0
H624 H 0.0584 0.80144 0.42314 0.0
H625 H 0.97426 0.78041 0.39761 0.0
H626 H 0.04625 0.83707 0.50556 0.0
H627 H 0.96166 0.81611 0.48069 0.0
H628 H 0.01667 0.89066 0.68963 0.0
H629 H 0.02593 0.84823 0.63574 0.0
H630 H 0.96393 0.86716 0.44779 0.0
H631 H 0.95486 0.90971 0.50053 0.0
C632 C 0.03731 0.80389 0.43821 0.0
C633 C 0.01728 0.7881 0.4053 0.0
C634 C 0.03028 0.82431 0.48508 0.0
C635 C 1.00295 0.82962 0.49931 0.0
C636 C 0.98289 0.8127 0.47022 0.0
C637 C 0.99002 0.79201 0.42393 0.0
C638 C 1.00504 0.88595 0.63661 0.0
C639 C 0.98513 0.90398 0.59924 0.0
C640 C 0.01028 0.86146 0.60599 0.0
C641 C 0.99565 0.85422 0.53752 0.0
C642 C 0.97527 0.87183 0.50156 0.0
C643 C 0.97013 0.89637 0.53183 0.0
H644 H 0.70549 0.05313 0.20703 0.0
H645 H 0.73702 0.97983 0.35402 0.0
H646 H 0.66499 0.04901 0.29684 0.0
H647 H 0.69691 0.97624 0.44676 0.0
H648 H 0.62455 0.99838 0.62257 0.0
H649 H 0.66835 1.00647 0.54856 0.0
H650 H 0.62789 1.00694 0.31065 0.0
H651 H 0.58439 0.99822 0.38456 0.0
C652 C 0.70403 0.0366 0.26024 0.0
C653 C 0.72416 0.01664 0.27333 0.0
C654 C 0.68087 0.03417 0.31128 0.0
C655 C 0.67771 0.01214 0.37808 0.0
C656 C 0.69889 0.99344 0.39569 0.0
C657 C 0.72188 0.99557 0.34327 0.0
C658 C 0.6251 1.00033 0.55447 0.0
C659 C 0.60109 0.99766 0.50921 0.0
C660 C 0.6501 1.00481 0.51232 0.0
C661 C 0.65144 0.00745 0.42398 0.0
C662 C 0.62739 1.00518 0.37877 0.0
C663 C 0.60255 1.00004 0.42098 0.0
H664 H 0.4676 0.68329 0.28362 0.0
H665 H 0.54993 0.7052 0.33391 0.0
H666 H 0.46999 0.64239 0.3904 0.0
H667 H 0.55217 0.66523 0.4466 0.0
H668 H 0.5564 0.5749 0.57749 0.0
H669 H 0.55511 0.6169 0.47307 0.0
H670 H 0.47063 0.62569 0.53227 0.0
H671 H 0.47168 0.58328 0.63205 0.0
C672 C 0.48614 0.67935 0.3187 0.0
C673 C 0.50862 0.69707 0.30031 0.0
C674 C 0.48751 0.6561 0.38091 0.0
C675 C 0.51132 0.65023 0.42794 0.0
C676 C 0.53363 0.66867 0.41109 0.0
C677 C 0.5323 0.6918 0.34762 0.0
C678 C 0.53757 0.58581 0.56758 0.0
C679 C 0.51408 0.57552 0.61229 0.0
C680 C 0.53684 0.61007 0.50823 0.0
C681 C 0.51269 0.62485 0.4932 0.0
C682 C 0.48945 0.6147 0.5398 0.0
C683 C 0.49007 0.59032 0.59769 0.0
H684 H 0.84143 0.45709 0.40098 0.0
H685 H 0.81639 0.53896 0.42156 0.0
H686 H 0.87879 0.46135 0.49656 0.0
H687 H 0.85318 0.54318 0.52166 0.0
H688 H 0.94299 0.55268 0.60323 0.0
H689 H 0.90121 0.54918 0.52346 0.0
H690 H 0.89281 0.46329 0.63305 0.0
H691 H 0.93487 0.46655 0.70844 0.0
C692 C 0.84357 0.47573 0.42845 0.0
C693 C 0.82613 0.49764 0.40429 0.0
C694 C 0.86495 0.47825 0.48355 0.0
C695 C 0.86927 0.50271 0.5172 0.0
C696 C 0.85083 0.5242 0.4962 0.0
C697 C 0.82946 0.52168 0.4402 0.0
C698 C 0.93211 0.53312 0.61014 0.0
C699 C 0.9425 0.50981 0.66106 0.0
C700 C 0.90801 0.53111 0.56495 0.0
C701 C 0.89359 0.50583 0.57072 0.0
C702 C 0.90357 0.48292 0.62477 0.0
C703 C 0.92774 0.48482 0.66851 0.0
loop_
_geom_bond_atom_site_label_1
_geom_bond_atom_site_label_2
_geom_bond_distance
_geom_bond_site_symmetry_2
_ccdc_geom_bond_type
C0 N1 1.317 . S
C0 N2 1.348 . S
C0 C3 1.485 . S
N1 C0 1.317 . S
N1 N5 1.370 . S
N2 C0 1.348 . S
N2 C4 1.346 . S
C3 C0 1.485 . S
C3 H7 0.960 . S
C3 H8 0.961 . S
C3 H9 0.960 . S
C4 N2 1.346 . S
C4 N5 1.307 . S
C4 C6 1.486 . S
N5 N1 1.370 . S
N5 C4 1.307 . S
C6 C4 1.486 . S
C6 H10 0.960 1_554 S
C6 H11 0.960 . S
C6 H12 0.959 1_554 S
H7 C3 0.960 . S
H8 C3 0.961 . S
H9 C3 0.960 . S
H10 C6 0.960 1_556 S
H11 C6 0.960 . S
H12 C6 0.959 1_556 S
C13 N14 1.317 . S
C13 N15 1.348 . S
C13 C16 1.485 . S
N14 C13 1.317 . S
N14 N18 1.370 . S
N15 C13 1.348 . S
N15 C17 1.346 . S
C16 C13 1.485 . S
C16 H20 0.960 . S
C16 H21 0.961 . S
C16 H22 0.960 . S
C17 N15 1.346 . S
C17 N18 1.307 . S
C17 C19 1.486 1_554 S
N18 N14 1.370 . S
N18 C17 1.307 . S
C19 C17 1.486 1_556 S
C19 H23 0.960 . S
C19 H24 0.960 . S
C19 H25 0.959 . S
H20 C16 0.960 . S
H21 C16 0.961 . S
H22 C16 0.960 . S
H23 C19 0.960 . S
H24 C19 0.960 . S
H25 C19 0.959 . S
C26 N27 1.317 . S
C26 N28 1.344 . S
C26 C29 1.485 . S
N27 C26 1.317 . S
N27 N31 1.369 . S
N28 C26 1.344 . S
N28 C30 1.349 1_564 S
C29 C26 1.485 . S
C29 H33 0.960 1_565 S
C29 H34 0.961 . S
C29 H35 0.960 . S
C30 N28 1.349 1_546 S
C30 N31 1.308 1_546 S
C30 C32 1.492 . S
N31 N27 1.369 . S
N31 C30 1.308 1_564 S
C32 C30 1.492 . S
C32 H36 0.919 1_545 S
C32 H37 0.989 . S
C32 H38 0.966 . S
H33 C29 0.960 1_545 S
H34 C29 0.961 . S
H35 C29 0.960 . S
H36 C32 0.919 1_565 S
H37 C32 0.989 . S
H38 C32 0.966 . S
C39 N40 1.317 . S
C39 N41 1.348 . S
C39 C42 1.485 . S
N40 C39 1.317 . S
N40 N44 1.370 . S
N41 C39 1.348 . S
N41 C43 1.346 . S
C42 C39 1.485 . S
C42 H46 0.960 . S
C42 H47 0.961 . S
C42 H48 0.960 . S
C43 N41 1.346 . S
C43 N44 1.307 . S
C43 C45 1.486 1_554 S
N44 N40 1.370 . S
N44 C43 1.307 . S
C45 C43 1.486 1_556 S
C45 H49 0.960 . S
C45 H50 0.960 . S
C45 H51 0.959 . S
H46 C42 0.960 . S
H47 C42 0.961 . S
H48 C42 0.960 . S
H49 C45 0.960 . S
H50 C45 0.960 . S
H51 C45 0.959 . S
C52 N53 1.317 . S
C52 N54 1.348 . S
C52 C55 1.485 . S
N53 C52 1.317 . S
N53 N57 1.370 . S
N54 C52 1.348 . S
N54 C56 1.346 . S
C55 C52 1.485 . S
C55 H59 0.960 . S
C55 H60 0.961 . S
C55 H61 0.960 . S
C56 N54 1.346 . S
C56 N57 1.307 . S
C56 C58 1.486 . S
N57 N53 1.370 . S
N57 C56 1.307 . S
C58 C56 1.486 . S
C58 H62 0.960 . S
C58 H63 0.960 . S
C58 H64 0.959 . S
H59 C55 0.960 . S
H60 C55 0.961 . S
H61 C55 0.960 . S
H62 C58 0.960 . S
H63 C58 0.960 . S
H64 C58 0.959 . S
C65 N66 1.317 . S
C65 N67 1.348 . S
C65 C68 1.485 . S
N66 C65 1.317 . S
N66 N70 1.370 . S
N67 C65 1.348 . S
N67 C69 1.346 . S
C68 C65 1.485 . S
C68 H72 0.960 . S
C68 H73 0.961 . S
C68 H74 0.960 . S
C69 N67 1.346 . S
C69 N70 1.307 . S
C69 C71 1.486 . S
N70 N66 1.370 . S
N70 C69 1.307 . S
C71 C69 1.486 . S
C71 H75 0.960 . S
C71 H76 0.960 . S
C71 H77 0.959 . S
H72 C68 0.960 . S
H73 C68 0.961 . S
H74 C68 0.960 . S
H75 C71 0.960 . S
H76 C71 0.960 . S
H77 C71 0.959 . S
C78 N79 1.317 . S
C78 N80 1.354 . S
C78 C81 1.485 . S
N79 C78 1.317 . S
N79 N83 1.371 . S
N80 C78 1.354 . S
N80 C82 1.342 1_565 S
C81 C78 1.485 . S
C81 H85 0.960 1_565 S
C81 H86 0.961 . S
C81 H87 0.960 . S
C82 N80 1.342 1_545 S
C82 N83 1.305 1_545 S
C82 C84 1.488 . S
N83 N79 1.371 . S
N83 C82 1.305 1_565 S
C84 C82 1.488 . S
C84 H88 0.960 1_545 S
C84 H89 0.960 . S
C84 H90 0.959 . S
H85 C81 0.960 1_545 S
H86 C81 0.961 . S
H87 C81 0.960 . S
H88 C84 0.960 1_565 S
H89 C84 0.960 . S
H90 C84 0.959 . S
C91 N92 1.317 . S
C91 N93 1.348 . S
C91 C94 1.485 . S
N92 C91 1.317 . S
N92 N96 1.370 . S
N93 C91 1.348 . S
N93 C95 1.346 . S
C94 C91 1.485 . S
C94 H98 0.960 . S
C94 H99 0.961 . S
C94 H100 0.960 . S
C95 N93 1.346 . S
C95 N96 1.307 . S
C95 C97 1.486 . S
N96 N92 1.370 . S
N96 C95 1.307 . S
C97 C95 1.486 . S
C97 H101 0.960 . S
C97 H102 0.960 . S
C97 H103 0.959 . S
H98 C94 0.960 . S
H99 C94 0.961 . S
H100 C94 0.960 . S
H101 C97 0.960 . S
H102 C97 0.960 . S
H103 C97 0.959 . S
Co104 N109 2.057 . S
Co104 O121 2.021 . S
Co104 O124 2.062 . S
Co104 O128 2.117 1_455 S
Co104 O129 2.020 1_545 S
C105 O125 1.259 1_545 S
C105 O128 1.258 . S
Co106 N115 2.057 . S
Co106 O122 2.117 1_655 S
Co106 O123 2.018 1_665 S
Co106 O125 2.021 . S
Co106 O130 2.062 . S
C107 N109 1.316 . S
C107 N110 1.347 1_556 S
C107 H112 0.931 . S
C108 N109 1.375 1_654 S
C108 C111 1.362 . S
C108 H113 0.930 1_554 S
N109 Co104 2.057 . S
N109 C107 1.316 . S
N109 C108 1.375 1_456 S
N110 C107 1.347 1_554 S
N110 C111 1.336 1_455 S
C111 C108 1.362 . S
C111 N110 1.336 1_655 S
C111 H132 0.953 . S
H112 C107 0.931 . S
H113 C108 0.930 1_556 S
C114 O121 1.259 1_565 S
C114 O122 1.258 . S
N115 Co106 2.057 . S
N115 C116 1.316 . S
N115 C117 1.375 1_655 S
C116 N115 1.316 . S
C116 N118 1.347 . S
C116 H127 0.931 . S
C117 N115 1.375 1_455 S
C117 C119 1.350 . S
C117 H126 0.930 . S
N118 C116 1.347 . S
N118 C119 1.373 1_655 S
C119 C117 1.350 . S
C119 N118 1.373 1_455 S
C119 H133 0.931 . S
C120 O123 1.260 . S
C120 O124 1.255 . S
O121 Co104 2.021 . S
O121 C114 1.259 1_545 S
O122 Co106 2.117 1_455 S
O122 C114 1.258 . S
O123 Co106 2.018 1_445 S
O123 C120 1.260 . S
O124 Co104 2.062 . S
O124 C120 1.255 . S
O125 C105 1.259 1_565 S
O125 Co106 2.021 . S
H126 C117 0.930 . S
H127 C116 0.931 . S
O128 Co104 2.117 1_655 S
O128 C105 1.258 . S
O129 Co104 2.020 1_565 S
O129 C131 1.245 1_455 S
O130 Co106 2.062 . S
O130 C131 1.264 . S
C131 O129 1.245 1_655 S
C131 O130 1.264 . S
H132 C111 0.953 . S
H133 C119 0.931 . S
Co134 N139 2.057 1_545 S
Co134 O151 2.021 . S
Co134 O154 2.069 . S
Co134 O158 2.117 1_545 S
Co134 O159 2.020 . S
C135 O155 1.259 . S
C135 O158 1.258 . S
Co136 N145 2.057 1_565 S
Co136 O152 2.117 1_565 S
Co136 O153 2.020 . S
Co136 O155 2.021 . S
Co136 O160 2.067 . S
C137 N139 1.315 1_544 S
C137 N140 1.349 . S
C137 H142 0.930 1_554 S
C138 N139 1.375 1_554 S
C138 C141 1.350 . S
C138 H143 0.930 . S
N139 Co134 2.057 1_565 S
N139 C137 1.315 1_566 S
N139 C138 1.375 1_556 S
N140 C137 1.349 . S
N140 C141 1.373 1_545 S
C141 C138 1.350 . S
C141 N140 1.373 1_565 S
C141 H162 0.931 . S
H142 C137 0.930 1_556 S
H143 C138 0.930 . S
C144 O151 1.259 . S
C144 O152 1.258 . S
N145 Co136 2.057 1_545 S
N145 C146 1.316 1_545 S
N145 C147 1.375 . S
C146 N145 1.316 1_565 S
C146 N148 1.347 . S
C146 H157 0.931 . S
C147 N145 1.375 . S
C147 C149 1.350 . S
C147 H156 0.930 . S
N148 C146 1.347 . S
N148 C149 1.373 1_565 S
C149 C147 1.350 . S
C149 N148 1.373 1_545 S
C149 H163 0.931 . S
C150 O153 1.256 . S
C150 O154 1.241 1_565 S
O151 Co134 2.021 . S
O151 C144 1.259 . S
O152 Co136 2.117 1_545 S
O152 C144 1.258 . S
O153 Co136 2.020 . S
O153 C150 1.256 . S
O154 Co134 2.069 . S
O154 C150 1.241 1_545 S
O155 C135 1.259 . S
O155 Co136 2.021 . S
H156 C147 0.930 . S
H157 C146 0.931 . S
O158 Co134 2.117 1_565 S
O158 C135 1.258 . S
O159 Co134 2.020 . S
O159 C161 1.256 . S
O160 Co136 2.067 . S
O160 C161 1.245 1_565 S
C161 O159 1.256 . S
C161 O160 1.245 1_545 S
H162 C141 0.931 . S
H163 C149 0.931 . S
Co164 N169 2.057 . S
Co164 O181 2.021 . S
Co164 O184 2.062 . S
Co164 O188 2.117 . S
Co164 O189 2.020 . S
C165 O185 1.259 . S
C165 O188 1.258 . S
Co166 N175 2.057 . S
Co166 O182 2.117 . S
Co166 O183 2.020 . S
Co166 O185 2.021 . S
Co166 O190 2.062 . S
C167 N169 1.316 . S
C167 N170 1.347 . S
C167 H172 0.931 . S
C168 N169 1.375 . S
C168 C171 1.350 . S
C168 H173 0.930 . S
N169 Co164 2.057 . S
N169 C167 1.316 . S
N169 C168 1.375 . S
N170 C167 1.347 . S
N170 C171 1.373 . S
C171 C168 1.350 . S
C171 N170 1.373 . S
C171 H192 0.931 . S
H172 C167 0.931 . S
H173 C168 0.930 . S
C174 O181 1.259 . S
C174 O182 1.258 . S
N175 Co166 2.057 . S
N175 C176 1.316 . S
N175 C177 1.375 . S
C176 N175 1.316 . S
C176 N178 1.347 . S
C176 H187 0.931 . S
C177 N175 1.375 . S
C177 C179 1.350 . S
C177 H186 0.930 . S
N178 C176 1.347 . S
N178 C179 1.373 . S
C179 C177 1.350 . S
C179 N178 1.373 . S
C179 H193 0.931 . S
C180 O183 1.256 . S
C180 O184 1.255 . S
O181 Co164 2.021 . S
O181 C174 1.259 . S
O182 Co166 2.117 . S
O182 C174 1.258 . S
O183 Co166 2.020 . S
O183 C180 1.256 . S
O184 Co164 2.062 . S
O184 C180 1.255 . S
O185 C165 1.259 . S
O185 Co166 2.021 . S
H186 C177 0.930 . S
H187 C176 0.931 . S
O188 Co164 2.117 . S
O188 C165 1.258 . S
O189 Co164 2.020 . S
O189 C191 1.256 . S
O190 Co166 2.062 . S
O190 C191 1.255 . S
C191 O189 1.256 . S
C191 O190 1.255 . S
H192 C171 0.931 . S
H193 C179 0.931 . S
Co194 N199 2.057 . S
Co194 O211 2.021 1_455 S
Co194 O214 2.062 1_455 S
Co194 O218 2.117 . S
Co194 O219 2.020 . S
C195 O215 1.259 . S
C195 O218 1.258 . S
Co196 N205 2.059 . S
Co196 O212 2.117 1_455 S
Co196 O213 2.020 1_455 S
Co196 O215 2.021 . S
Co196 O220 2.062 . S
C197 N199 1.316 1_655 S
C197 N200 1.347 . S
C197 H202 0.931 . S
C198 N199 1.375 . S
C198 C201 1.350 . S
C198 H203 0.930 . S
N199 Co194 2.057 . S
N199 C197 1.316 1_455 S
N199 C198 1.375 . S
N200 C197 1.347 . S
N200 C201 1.373 1_655 S
C201 C198 1.350 . S
C201 N200 1.373 1_455 S
C201 H222 0.931 . S
H202 C197 0.931 . S
H203 C198 0.930 . S
C204 O211 1.259 . S
C204 O212 1.258 . S
N205 Co196 2.059 . S
N205 C206 1.334 . S
N205 C207 1.358 1_455 S
C206 N205 1.334 . S
C206 N208 1.347 . S
C206 H217 0.931 . S
C207 N205 1.358 1_655 S
C207 C209 1.350 . S
C207 H216 0.930 . S
N208 C206 1.347 . S
N208 C209 1.373 1_455 S
C209 C207 1.350 . S
C209 N208 1.373 1_655 S
C209 H223 0.931 . S
C210 O213 1.256 . S
C210 O214 1.255 . S
O211 Co194 2.021 1_655 S
O211 C204 1.259 . S
O212 Co196 2.117 1_655 S
O212 C204 1.258 . S
O213 Co196 2.020 1_655 S
O213 C210 1.256 . S
O214 Co194 2.062 1_655 S
O214 C210 1.255 . S
O215 C195 1.259 . S
O215 Co196 2.021 . S
H216 C207 0.930 . S
H217 C206 0.931 . S
O218 Co194 2.117 . S
O218 C195 1.258 . S
O219 Co194 2.020 . S
O219 C221 1.256 . S
O220 Co196 2.062 . S
O220 C221 1.255 . S
C221 O219 1.256 . S
C221 O220 1.255 . S
H222 C201 0.931 . S
H223 C209 0.931 . S
H224 C232 0.950 . S
H225 C237 0.950 . S
H226 C234 0.950 . S
H227 C236 0.950 . S
H228 C238 0.950 . S
H229 C240 0.950 . S
H230 C242 0.950 . S
H231 C243 0.950 . S
C232 H224 0.950 . S
C232 C233 1.386 . S
C232 C234 1.391 . S
C233 C232 1.386 . S
C233 C237 1.393 1_565 S
C234 H226 0.950 . S
C234 C232 1.391 . S
C234 C235 1.400 . S
C235 C234 1.400 . S
C235 C236 1.398 1_565 S
C235 C241 1.491 . S
C236 H227 0.950 . S
C236 C235 1.398 1_545 S
C236 C237 1.391 . S
C237 H225 0.950 . S
C237 C233 1.393 1_545 S
C237 C236 1.391 . S
C238 H228 0.950 . S
C238 C239 1.386 1_545 S
C238 C240 1.391 . S
C239 C238 1.386 1_565 S
C239 C243 1.393 . S
C240 H229 0.950 . S
C240 C238 1.391 . S
C240 C241 1.400 1_545 S
C241 C235 1.491 . S
C241 C240 1.400 1_565 S
C241 C242 1.398 . S
C242 H230 0.950 . S
C242 C241 1.398 . S
C242 C243 1.391 . S
C243 H231 0.950 . S
C243 C239 1.393 . S
C243 C242 1.391 . S
H244 C252 0.950 . S
H245 C257 0.950 . S
H246 C254 0.950 . S
H247 C256 0.950 . S
H248 C258 0.950 . S
H249 C260 0.950 . S
H250 C262 0.950 . S
H251 C263 0.950 . S
C252 H244 0.950 . S
C252 C253 1.386 . S
C252 C254 1.391 . S
C253 C252 1.386 . S
C253 C257 1.393 . S
C254 H246 0.950 . S
C254 C252 1.391 . S
C254 C255 1.400 . S
C255 C254 1.400 . S
C255 C256 1.398 . S
C255 C261 1.491 . S
C256 H247 0.950 . S
C256 C255 1.398 . S
C256 C257 1.391 . S
C257 H245 0.950 . S
C257 C253 1.393 . S
C257 C256 1.391 . S
C258 H248 0.950 . S
C258 C259 1.386 . S
C258 C260 1.391 . S
C259 C258 1.386 . S
C259 C263 1.393 . S
C260 H249 0.950 . S
C260 C258 1.391 . S
C260 C261 1.400 . S
C261 C255 1.491 . S
C261 C260 1.400 . S
C261 C262 1.398 . S
C262 H250 0.950 . S
C262 C261 1.398 . S
C262 C263 1.391 . S
C263 H251 0.950 . S
C263 C259 1.393 . S
C263 C262 1.391 . S
H264 C272 0.950 . S
H265 C277 0.950 . S
H266 C274 0.950 . S
H267 C276 0.950 . S
H268 C278 0.950 . S
H269 C280 0.950 . S
H270 C282 0.950 . S
H271 C283 0.950 . S
C272 H264 0.950 . S
C272 C273 1.386 . S
C272 C274 1.391 . S
C273 C272 1.386 . S
C273 C277 1.393 . S
C274 H266 0.950 . S
C274 C272 1.391 . S
C274 C275 1.400 . S
C275 C274 1.400 . S
C275 C276 1.398 . S
C275 C281 1.491 . S
C276 H267 0.950 . S
C276 C275 1.398 . S
C276 C277 1.391 . S
C277 H265 0.950 . S
C277 C273 1.393 . S
C277 C276 1.391 . S
C278 H268 0.950 . S
C278 C279 1.386 . S
C278 C280 1.391 . S
C279 C278 1.386 . S
C279 C283 1.393 . S
C280 H269 0.950 . S
C280 C278 1.391 . S
C280 C281 1.400 . S
C281 C275 1.491 . S
C281 C280 1.400 . S
C281 C282 1.398 . S
C282 H270 0.950 . S
C282 C281 1.398 . S
C282 C283 1.391 . S
C283 H271 0.950 . S
C283 C279 1.393 . S
C283 C282 1.391 . S
H284 C292 0.950 . S
H285 C297 0.950 . S
H286 C294 0.950 . S
H287 C296 0.950 . S
H288 C298 0.950 1_655 S
H289 C300 0.931 1_655 S
H290 C302 0.950 . S
H291 C303 0.950 . S
C292 H284 0.950 . S
C292 C293 1.386 . S
C292 C294 1.391 . S
C293 C292 1.386 . S
C293 C297 1.393 . S
C294 H286 0.950 . S
C294 C292 1.391 . S
C294 C295 1.400 . S
C295 C294 1.400 . S
C295 C296 1.398 . S
C295 C301 1.491 . S
C296 H287 0.950 . S
C296 C295 1.398 . S
C296 C297 1.391 . S
C297 H285 0.950 . S
C297 C293 1.393 . S
C297 C296 1.391 . S
C298 H288 0.950 1_455 S
C298 C299 1.386 . S
C298 C300 1.391 . S
C299 C298 1.386 . S
C299 C303 1.393 . S
C300 H289 0.931 1_455 S
C300 C298 1.391 . S
C300 C301 1.400 . S
C301 C295 1.491 . S
C301 C300 1.400 . S
C301 C302 1.398 . S
C302 H290 0.950 . S
C302 C301 1.398 . S
C302 C303 1.391 . S
C303 H291 0.950 . S
C303 C299 1.393 . S
C303 C302 1.391 . S
H304 C312 0.950 . S
H305 C317 0.950 . S
H306 C314 0.950 . S
H307 C316 0.950 . S
H308 C318 0.950 . S
H309 C320 0.950 . S
H310 C322 0.950 1_554 S
H311 C323 0.950 . S
C312 H304 0.950 . S
C312 C313 1.386 . S
C312 C314 1.391 . S
C313 C312 1.386 . S
C313 C317 1.393 1_564 S
C314 H306 0.950 . S
C314 C312 1.391 . S
C314 C315 1.400 1_564 S
C315 C314 1.400 1_546 S
C315 C316 1.398 . S
C315 C321 1.491 . S
C316 H307 0.950 . S
C316 C315 1.398 . S
C316 C317 1.391 . S
C317 H305 0.950 . S
C317 C313 1.393 1_546 S
C317 C316 1.391 . S
C318 H308 0.950 . S
C318 C319 1.386 . S
C318 C320 1.391 . S
C319 C318 1.386 . S
C319 C323 1.393 1_545 S
C320 H309 0.950 . S
C320 C318 1.391 . S
C320 C321 1.400 . S
C321 C315 1.491 . S
C321 C320 1.400 . S
C321 C322 1.398 1_545 S
C322 H310 0.950 1_556 S
C322 C321 1.398 1_565 S
C322 C323 1.391 . S
C323 H311 0.950 . S
C323 C319 1.393 1_565 S
C323 C322 1.391 . S
H324 C332 0.950 1_556 S
H325 C337 0.950 . S
H326 C334 0.950 . S
H327 C336 0.950 . S
H328 C338 0.950 . S
H329 C340 0.950 . S
H330 C342 0.950 . S
H331 C343 0.950 . S
C332 H324 0.950 1_554 S
C332 C333 1.386 . S
C332 C334 1.391 1_554 S
C333 C332 1.386 . S
C333 C337 1.393 . S
C334 H326 0.950 . S
C334 C332 1.391 1_556 S
C334 C335 1.400 . S
C335 C334 1.400 . S
C335 C336 1.398 1_556 S
C335 C341 1.491 . S
C336 H327 0.950 . S
C336 C335 1.398 1_554 S
C336 C337 1.391 . S
C337 H325 0.950 . S
C337 C333 1.393 . S
C337 C336 1.391 . S
C338 H328 0.950 . S
C338 C339 1.386 . S
C338 C340 1.391 . S
C339 C338 1.386 . S
C339 C343 1.393 . S
C340 H329 0.950 . S
C340 C338 1.391 . S
C340 C341 1.400 . S
C341 C335 1.491 . S
C341 C340 1.400 . S
C341 C342 1.398 . S
C342 H330 0.950 . S
C342 C341 1.398 . S
C342 C343 1.391 . S
C343 H331 0.950 . S
C343 C339 1.393 . S
C343 C342 1.391 . S
H344 C352 0.950 . S
H345 C357 0.950 . S
H346 C354 0.950 . S
H347 C356 0.950 1_556 S
H348 C358 0.950 . S
H349 C360 0.950 . S
H350 C362 0.950 . S
H351 C363 0.950 . S
C352 H344 0.950 . S
C352 C353 1.386 . S
C352 C354 1.391 . S
C353 C352 1.386 . S
C353 C357 1.393 . S
C354 H346 0.950 . S
C354 C352 1.391 . S
C354 C355 1.400 . S
C355 C354 1.400 . S
C355 C356 1.398 . S
C355 C361 1.491 1_554 S
C356 H347 0.950 1_554 S
C356 C355 1.398 . S
C356 C357 1.391 . S
C357 H345 0.950 . S
C357 C353 1.393 . S
C357 C356 1.391 . S
C358 H348 0.950 . S
C358 C359 1.386 . S
C358 C360 1.391 . S
C359 C358 1.386 . S
C359 C363 1.393 . S
C360 H349 0.950 . S
C360 C358 1.391 . S
C360 C361 1.400 . S
C361 C355 1.491 1_556 S
C361 C360 1.400 . S
C361 C362 1.398 1_556 S
C362 H350 0.950 . S
C362 C361 1.398 1_554 S
C362 C363 1.391 1_554 S
C363 H351 0.950 . S
C363 C359 1.393 . S
C363 C362 1.391 1_556 S
H364 C372 0.950 . S
H365 C377 0.950 . S
H366 C374 0.923 1_455 S
H367 C376 0.950 . S
H368 C378 0.950 . S
H369 C380 0.950 . S
H370 C382 0.950 1_455 S
H371 C383 0.950 . S
C372 H364 0.950 . S
C372 C373 1.386 . S
C372 C374 1.391 1_554 S
C373 C372 1.386 . S
C373 C377 1.393 . S
C374 H366 0.923 1_655 S
C374 C372 1.391 1_556 S
C374 C375 1.400 . S
C375 C374 1.400 . S
C375 C376 1.398 1_556 S
C375 C381 1.491 . S
C376 H367 0.950 . S
C376 C375 1.398 1_554 S
C376 C377 1.391 . S
C377 H365 0.950 . S
C377 C373 1.393 . S
C377 C376 1.391 . S
C378 H368 0.950 . S
C378 C379 1.386 . S
C378 C380 1.391 . S
C379 C378 1.386 . S
C379 C383 1.393 1_655 S
C380 H369 0.950 . S
C380 C378 1.391 . S
C380 C381 1.400 . S
C381 C375 1.491 . S
C381 C380 1.400 . S
C381 C382 1.398 . S
C382 H370 0.950 1_655 S
C382 C381 1.398 . S
C382 C383 1.391 1_655 S
C383 H371 0.950 . S
C383 C379 1.393 1_455 S
C383 C382 1.391 1_455 S
H384 C392 0.950 . S
H385 C397 0.950 . S
H386 C394 0.950 . S
H387 C396 0.950 . S
H388 C398 0.950 . S
H389 C400 0.950 . S
H390 C402 0.950 . S
H391 C403 0.934 1_655 S
C392 H384 0.950 . S
C392 C393 1.386 . S
C392 C394 1.391 . S
C393 C392 1.386 . S
C393 C397 1.393 . S
C394 H386 0.950 . S
C394 C392 1.391 . S
C394 C395 1.400 . S
C395 C394 1.400 . S
C395 C396 1.398 . S
C395 C401 1.491 . S
C396 H387 0.950 . S
C396 C395 1.398 . S
C396 C397 1.391 . S
C397 H385 0.950 . S
C397 C393 1.393 . S
C397 C396 1.391 . S
C398 H388 0.950 . S
C398 C399 1.386 . S
C398 C400 1.391 . S
C399 C398 1.386 . S
C399 C403 1.399 . S
C400 H389 0.950 . S
C400 C398 1.391 . S
C400 C401 1.400 . S
C401 C395 1.491 . S
C401 C400 1.400 . S
C401 C402 1.398 . S
C402 H390 0.950 . S
C402 C401 1.398 . S
C402 C403 1.400 . S
C403 H391 0.934 1_455 S
C403 C399 1.399 . S
C403 C402 1.400 . S
H404 C412 0.950 . S
H405 C417 0.950 . S
H406 C414 0.950 . S
H407 C416 0.950 . S
H408 C418 0.950 . S
H409 C420 0.950 . S
H410 C422 0.950 . S
H411 C423 0.950 . S
C412 H404 0.950 . S
C412 C413 1.377 1_565 S
C412 C414 1.391 . S
C413 C412 1.377 1_545 S
C413 C417 1.401 . S
C414 H406 0.950 . S
C414 C412 1.391 . S
C414 C415 1.400 . S
C415 C414 1.400 . S
C415 C416 1.398 1_565 S
C415 C421 1.491 . S
C416 H407 0.950 . S
C416 C415 1.398 1_545 S
C416 C417 1.391 . S
C417 H405 0.950 . S
C417 C413 1.401 . S
C417 C416 1.391 . S
C418 H408 0.950 . S
C418 C419 1.386 1_545 S
C418 C420 1.391 . S
C419 C418 1.386 1_565 S
C419 C423 1.393 . S
C420 H409 0.950 . S
C420 C418 1.391 . S
C420 C421 1.400 1_545 S
C421 C415 1.491 . S
C421 C420 1.400 1_565 S
C421 C422 1.398 . S
C422 H410 0.950 . S
C422 C421 1.398 . S
C422 C423 1.391 . S
C423 H411 0.950 . S
C423 C419 1.393 . S
C423 C422 1.391 . S
H424 C432 0.950 . S
H425 C437 0.950 . S
H426 C434 0.950 . S
H427 C436 0.950 . S
H428 C438 0.950 . S
H429 C440 0.950 . S
H430 C442 0.950 . S
H431 C443 0.950 . S
C432 H424 0.950 . S
C432 C433 1.386 . S
C432 C434 1.391 . S
C433 C432 1.386 . S
C433 C437 1.393 . S
C434 H426 0.950 . S
C434 C432 1.391 . S
C434 C435 1.400 . S
C435 C434 1.400 . S
C435 C436 1.398 . S
C435 C441 1.491 . S
C436 H427 0.950 . S
C436 C435 1.398 . S
C436 C437 1.391 . S
C437 H425 0.950 . S
C437 C433 1.393 . S
C437 C436 1.391 . S
C438 H428 0.950 . S
C438 C439 1.386 . S
C438 C440 1.391 . S
C439 C438 1.386 . S
C439 C443 1.393 . S
C440 H429 0.950 . S
C440 C438 1.391 . S
C440 C441 1.400 . S
C441 C435 1.491 . S
C441 C440 1.400 . S
C441 C442 1.398 . S
C442 H430 0.950 . S
C442 C441 1.398 . S
C442 C443 1.391 . S
C443 H431 0.950 . S
C443 C439 1.393 . S
C443 C442 1.391 . S
H444 C452 0.950 . S
H445 C457 0.950 . S
H446 C454 0.950 . S
H447 C456 0.950 . S
H448 C458 0.950 . S
H449 C460 0.950 . S
H450 C462 0.950 . S
H451 C463 0.950 . S
C452 H444 0.950 . S
C452 C453 1.386 . S
C452 C454 1.391 . S
C453 C452 1.386 . S
C453 C457 1.393 . S
C454 H446 0.950 . S
C454 C452 1.391 . S
C454 C455 1.400 . S
C455 C454 1.400 . S
C455 C456 1.398 . S
C455 C461 1.491 . S
C456 H447 0.950 . S
C456 C455 1.398 . S
C456 C457 1.391 . S
C457 H445 0.950 . S
C457 C453 1.393 . S
C457 C456 1.391 . S
C458 H448 0.950 . S
C458 C459 1.386 . S
C458 C460 1.391 . S
C459 C458 1.386 . S
C459 C463 1.393 . S
C460 H449 0.950 . S
C460 C458 1.391 . S
C460 C461 1.400 . S
C461 C455 1.491 . S
C461 C460 1.400 . S
C461 C462 1.398 . S
C462 H450 0.950 . S
C462 C461 1.398 . S
C462 C463 1.391 . S
C463 H451 0.950 . S
C463 C459 1.393 . S
C463 C462 1.391 . S
H464 C472 0.950 . S
H465 C477 0.950 . S
H466 C474 0.950 . S
H467 C476 0.950 . S
H468 C478 0.950 1_554 S
H469 C480 0.950 . S
H470 C482 0.950 . S
H471 C483 0.950 . S
C472 H464 0.950 . S
C472 C473 1.386 1_556 S
C472 C474 1.391 . S
C473 C472 1.386 1_554 S
C473 C477 1.393 . S
C474 H466 0.950 . S
C474 C472 1.391 . S
C474 C475 1.400 . S
C475 C474 1.400 . S
C475 C476 1.398 1_556 S
C475 C481 1.491 . S
C476 H467 0.950 . S
C476 C475 1.398 1_554 S
C476 C477 1.391 . S
C477 H465 0.950 . S
C477 C473 1.393 . S
C477 C476 1.391 . S
C478 H468 0.950 1_556 S
C478 C479 1.386 . S
C478 C480 1.391 1_456 S
C479 C478 1.386 . S
C479 C483 1.393 1_455 S
C480 H469 0.950 . S
C480 C478 1.391 1_654 S
C480 C481 1.400 1_554 S
C481 C475 1.491 . S
C481 C480 1.400 1_556 S
C481 C482 1.398 . S
C482 H470 0.950 . S
C482 C481 1.398 . S
C482 C483 1.391 . S
C483 H471 0.950 . S
C483 C479 1.393 1_655 S
C483 C482 1.391 . S
H484 C492 0.950 . S
H485 C497 0.950 . S
H486 C494 0.950 . S
H487 C496 0.950 . S
H488 C498 0.950 . S
H489 C500 0.950 . S
H490 C502 0.950 . S
H491 C503 0.950 . S
C492 H484 0.950 . S
C492 C493 1.386 1_556 S
C492 C494 1.391 . S
C493 C492 1.386 1_554 S
C493 C497 1.392 1_565 S
C494 H486 0.950 . S
C494 C492 1.391 . S
C494 C495 1.400 1_565 S
C495 C494 1.400 1_545 S
C495 C496 1.398 . S
C495 C501 1.491 . S
C496 H487 0.950 . S
C496 C495 1.398 . S
C496 C497 1.391 1_556 S
C497 H485 0.950 . S
C497 C493 1.392 1_545 S
C497 C496 1.391 1_554 S
C498 H488 0.950 . S
C498 C499 1.386 . S
C498 C500 1.391 . S
C499 C498 1.386 . S
C499 C503 1.393 1_545 S
C500 H489 0.950 . S
C500 C498 1.391 . S
C500 C501 1.400 . S
C501 C495 1.491 . S
C501 C500 1.400 . S
C501 C502 1.398 1_545 S
C502 H490 0.950 . S
C502 C501 1.398 1_565 S
C502 C503 1.391 . S
C503 H491 0.950 . S
C503 C499 1.393 1_565 S
C503 C502 1.391 . S
H504 C512 0.950 . S
H505 C517 0.950 . S
H506 C514 0.950 . S
H507 C516 0.950 . S
H508 C518 0.950 . S
H509 C520 0.950 . S
H510 C522 0.950 . S
H511 C523 0.950 1_554 S
C512 H504 0.950 . S
C512 C513 1.386 . S
C512 C514 1.391 . S
C513 C512 1.386 . S
C513 C517 1.393 1_554 S
C514 H506 0.950 . S
C514 C512 1.391 . S
C514 C515 1.400 . S
C515 C514 1.400 . S
C515 C516 1.398 1_554 S
C515 C521 1.491 1_554 S
C516 H507 0.950 . S
C516 C515 1.398 1_556 S
C516 C517 1.391 . S
C517 H505 0.950 . S
C517 C513 1.393 1_556 S
C517 C516 1.391 . S
C518 H508 0.950 . S
C518 C519 1.386 . S
C518 C520 1.391 . S
C519 C518 1.386 . S
C519 C523 1.393 . S
C520 H509 0.950 . S
C520 C518 1.391 . S
C520 C521 1.400 . S
C521 C515 1.491 1_556 S
C521 C520 1.400 . S
C521 C522 1.398 1_556 S
C522 H510 0.950 . S
C522 C521 1.398 1_554 S
C522 C523 1.391 1_554 S
C523 H511 0.950 1_556 S
C523 C519 1.393 . S
C523 C522 1.391 1_556 S
H524 C532 0.950 . S
H525 C537 0.950 . S
H526 C534 0.950 . S
H527 C536 0.950 1_556 S
H528 C538 0.950 . S
H529 C540 0.950 . S
H530 C542 0.950 . S
H531 C543 0.950 . S
C532 H524 0.950 . S
C532 C533 1.386 . S
C532 C534 1.391 . S
C533 C532 1.386 . S
C533 C537 1.393 . S
C534 H526 0.950 . S
C534 C532 1.391 . S
C534 C535 1.400 . S
C535 C534 1.400 . S
C535 C536 1.398 . S
C535 C541 1.493 . S
C536 H527 0.950 1_554 S
C536 C535 1.398 . S
C536 C537 1.391 . S
C537 H525 0.950 . S
C537 C533 1.393 . S
C537 C536 1.391 . S
C538 H528 0.950 . S
C538 C539 1.386 . S
C538 C540 1.391 . S
C539 C538 1.386 . S
C539 C543 1.393 . S
C540 H529 0.950 . S
C540 C538 1.391 . S
C540 C541 1.398 1_556 S
C541 C535 1.493 . S
C541 C540 1.398 1_554 S
C541 C542 1.398 . S
C542 H530 0.950 . S
C542 C541 1.398 . S
C542 C543 1.391 1_554 S
C543 H531 0.950 . S
C543 C539 1.393 . S
C543 C542 1.391 1_556 S
H544 C552 0.950 . S
H545 C557 0.950 . S
H546 C554 0.950 . S
H547 C556 0.950 . S
H548 C558 0.950 . S
H549 C560 0.950 . S
H550 C562 0.950 . S
H551 C563 0.950 . S
C552 H544 0.950 . S
C552 C553 1.386 . S
C552 C554 1.391 . S
C553 C552 1.386 . S
C553 C557 1.393 . S
C554 H546 0.950 . S
C554 C552 1.391 . S
C554 C555 1.400 . S
C555 C554 1.400 . S
C555 C556 1.398 . S
C555 C561 1.491 . S
C556 H547 0.950 . S
C556 C555 1.398 . S
C556 C557 1.391 . S
C557 H545 0.950 . S
C557 C553 1.393 . S
C557 C556 1.391 . S
C558 H548 0.950 . S
C558 C559 1.386 . S
C558 C560 1.391 . S
C559 C558 1.386 . S
C559 C563 1.393 . S
C560 H549 0.950 . S
C560 C558 1.391 . S
C560 C561 1.400 . S
C561 C555 1.491 . S
C561 C560 1.400 . S
C561 C562 1.398 . S
C562 H550 0.950 . S
C562 C561 1.398 . S
C562 C563 1.391 . S
C563 H551 0.950 . S
C563 C559 1.393 . S
C563 C562 1.391 . S
H564 C572 0.950 . S
H565 C577 0.950 . S
H566 C574 0.950 . S
H567 C576 0.950 . S
H568 C578 0.950 . S
H569 C580 0.950 . S
H570 C582 0.950 . S
H571 C583 0.950 . S
C572 H564 0.950 . S
C572 C573 1.359 1_565 S
C572 C574 1.391 . S
C573 C572 1.359 1_545 S
C573 C577 1.418 . S
C574 H566 0.950 . S
C574 C572 1.391 . S
C574 C575 1.400 1_565 S
C575 C574 1.400 1_545 S
C575 C576 1.398 . S
C575 C581 1.491 . S
C576 H567 0.950 . S
C576 C575 1.398 . S
C576 C577 1.391 . S
C577 H565 0.950 . S
C577 C573 1.418 . S
C577 C576 1.391 . S
C578 H568 0.950 . S
C578 C579 1.386 . S
C578 C580 1.391 . S
C579 C578 1.386 . S
C579 C583 1.393 1_545 S
C580 H569 0.950 . S
C580 C578 1.391 . S
C580 C581 1.400 . S
C581 C575 1.491 . S
C581 C580 1.400 . S
C581 C582 1.398 1_545 S
C582 H570 0.950 . S
C582 C581 1.398 1_565 S
C582 C583 1.391 . S
C583 H571 0.950 . S
C583 C579 1.393 1_565 S
C583 C582 1.391 . S
H584 C592 0.950 . S
H585 C597 0.950 . S
H586 C594 0.950 . S
H587 C596 0.950 . S
H588 C598 0.950 . S
H589 C600 0.950 . S
H590 C602 0.950 . S
H591 C603 0.950 . S
C592 H584 0.950 . S
C592 C593 1.386 . S
C592 C594 1.391 . S
C593 C592 1.386 . S
C593 C597 1.393 . S
C594 H586 0.950 . S
C594 C592 1.391 . S
C594 C595 1.400 . S
C595 C594 1.400 . S
C595 C596 1.398 . S
C595 C601 1.491 . S
C596 H587 0.950 . S
C596 C595 1.398 . S
C596 C597 1.391 . S
C597 H585 0.950 . S
C597 C593 1.393 . S
C597 C596 1.391 . S
C598 H588 0.950 . S
C598 C599 1.386 1_554 S
C598 C600 1.391 . S
C599 C598 1.386 1_556 S
C599 C603 1.393 . S
C600 H589 0.950 . S
C600 C598 1.391 . S
C600 C601 1.400 . S
C601 C595 1.491 . S
C601 C600 1.400 . S
C601 C602 1.398 . S
C602 H590 0.950 . S
C602 C601 1.398 . S
C602 C603 1.391 1_554 S
C603 H591 0.950 . S
C603 C599 1.393 . S
C603 C602 1.391 1_556 S
H604 C612 0.950 . S
H605 C617 0.950 . S
H606 C614 0.950 . S
H607 C616 0.950 . S
H608 C618 0.950 . S
H609 C620 0.950 . S
H610 C622 0.950 1_556 S
H611 C623 0.950 . S
C612 H604 0.950 . S
C612 C613 1.386 . S
C612 C614 1.391 . S
C613 C612 1.386 . S
C613 C617 1.393 . S
C614 H606 0.950 . S
C614 C612 1.391 . S
C614 C615 1.400 . S
C615 C614 1.400 . S
C615 C616 1.398 . S
C615 C621 1.491 . S
C616 H607 0.950 . S
C616 C615 1.398 . S
C616 C617 1.391 . S
C617 H605 0.950 . S
C617 C613 1.393 . S
C617 C616 1.391 . S
C618 H608 0.950 . S
C618 C619 1.386 1_554 S
C618 C620 1.391 . S
C619 C618 1.386 1_556 S
C619 C623 1.393 . S
C620 H609 0.950 . S
C620 C618 1.391 . S
C620 C621 1.400 . S
C621 C615 1.491 . S
C621 C620 1.400 . S
C621 C622 1.398 . S
C622 H610 0.950 1_554 S
C622 C621 1.398 . S
C622 C623 1.391 1_554 S
C623 H611 0.950 . S
C623 C619 1.393 . S
C623 C622 1.391 1_556 S
H624 C632 0.950 . S
H625 C637 0.950 . S
H626 C634 0.950 . S
H627 C636 0.950 . S
H628 C638 0.950 . S
H629 C640 0.950 . S
H630 C642 0.950 1_455 S
H631 C643 0.950 1_455 S
C632 H624 0.950 . S
C632 C633 1.386 . S
C632 C634 1.391 . S
C633 C632 1.386 . S
C633 C637 1.393 . S
C634 H626 0.950 . S
C634 C632 1.391 . S
C634 C635 1.400 . S
C635 C634 1.400 . S
C635 C636 1.398 . S
C635 C641 1.491 . S
C636 H627 0.950 . S
C636 C635 1.398 . S
C636 C637 1.391 . S
C637 H625 0.950 . S
C637 C633 1.393 . S
C637 C636 1.391 . S
C638 H628 0.950 . S
C638 C639 1.386 . S
C638 C640 1.391 . S
C639 C638 1.386 . S
C639 C643 1.393 . S
C640 H629 0.950 . S
C640 C638 1.391 . S
C640 C641 1.400 . S
C641 C635 1.491 . S
C641 C640 1.400 . S
C641 C642 1.398 . S
C642 H630 0.950 1_655 S
C642 C641 1.398 . S
C642 C643 1.391 . S
C643 H631 0.950 1_655 S
C643 C639 1.393 . S
C643 C642 1.391 . S
H644 C652 0.950 . S
H645 C657 0.950 . S
H646 C654 0.950 . S
H647 C656 0.950 . S
H648 C658 0.950 . S
H649 C660 0.950 . S
H650 C662 0.950 . S
H651 C663 0.961 . S
C652 H644 0.950 . S
C652 C653 1.386 1_545 S
C652 C654 1.391 . S
C653 C652 1.386 1_565 S
C653 C657 1.393 . S
C654 H646 0.950 . S
C654 C652 1.391 . S
C654 C655 1.400 1_545 S
C655 C654 1.400 1_565 S
C655 C656 1.398 . S
C655 C661 1.491 . S
C656 H647 0.950 . S
C656 C655 1.398 . S
C656 C657 1.391 . S
C657 H645 0.950 . S
C657 C653 1.393 . S
C657 C656 1.391 . S
C658 H648 0.950 . S
C658 C659 1.386 . S
C658 C660 1.391 . S
C659 C658 1.386 . S
C659 C663 1.385 1_565 S
C660 H649 0.950 . S
C660 C658 1.391 . S
C660 C661 1.400 . S
C661 C655 1.491 . S
C661 C660 1.400 . S
C661 C662 1.398 1_565 S
C662 H650 0.950 . S
C662 C661 1.398 1_545 S
C662 C663 1.389 . S
C663 H651 0.961 . S
C663 C659 1.385 1_545 S
C663 C662 1.389 . S
H664 C672 0.950 . S
H665 C677 0.950 . S
H666 C674 0.950 . S
H667 C676 0.950 . S
H668 C678 0.950 . S
H669 C680 0.950 . S
H670 C682 0.950 . S
H671 C683 0.950 . S
C672 H664 0.950 . S
C672 C673 1.386 . S
C672 C674 1.391 . S
C673 C672 1.386 . S
C673 C677 1.393 . S
C674 H666 0.950 . S
C674 C672 1.391 . S
C674 C675 1.400 . S
C675 C674 1.400 . S
C675 C676 1.398 . S
C675 C681 1.491 . S
C676 H667 0.950 . S
C676 C675 1.398 . S
C676 C677 1.391 . S
C677 H665 0.950 . S
C677 C673 1.393 . S
C677 C676 1.391 . S
C678 H668 0.950 . S
C678 C679 1.386 . S
C678 C680 1.391 . S
C679 C678 1.386 . S
C679 C683 1.393 . S
C680 H669 0.950 . S
C680 C678 1.391 . S
C680 C681 1.400 . S
C681 C675 1.491 . S
C681 C680 1.400 . S
C681 C682 1.398 . S
C682 H670 0.950 . S
C682 C681 1.398 . S
C682 C683 1.391 . S
C683 H671 0.950 . S
C683 C679 1.393 . S
C683 C682 1.391 . S
H684 C692 0.950 . S
H685 C697 0.950 . S
H686 C694 0.950 . S
H687 C696 0.950 . S
H688 C698 0.950 . S
H689 C700 0.950 . S
H690 C702 0.950 . S
H691 C703 0.950 . S
C692 H684 0.950 . S
C692 C693 1.386 . S
C692 C694 1.391 . S
C693 C692 1.386 . S
C693 C697 1.393 . S
C694 H686 0.950 . S
C694 C692 1.391 . S
C694 C695 1.400 . S
C695 C694 1.400 . S
C695 C696 1.398 . S
C695 C701 1.491 . S
C696 H687 0.950 . S
C696 C695 1.398 . S
C696 C697 1.391 . S
C697 H685 0.950 . S
C697 C693 1.393 . S
C697 C696 1.391 . S
C698 H688 0.950 . S
C698 C699 1.386 . S
C698 C700 1.391 . S
C699 C698 1.386 . S
C699 C703 1.393 . S
C700 H689 0.950 . S
C700 C698 1.391 . S
C700 C701 1.400 . S
C701 C695 1.491 . S
C701 C700 1.400 . S
C701 C702 1.398 . S
C702 H690 0.950 . S
C702 C701 1.398 . S
C702 C703 1.391 . S
C703 H691 0.950 . S
C703 C699 1.393 . S
C703 C702 1.391 . S
C233 N80 1.694 . S
C239 C114 1.697 . S
C259 C144 1.816 . S
C253 N93 1.798 . S
C279 N178 1.352 . S
C273 N54 1.406 . S
C299 N208 1.392 . S
C293 N67 1.406 . S
C319 C105 1.702 . S
C313 N28 1.701 . S
C333 N41 1.811 . S
C339 C135 1.821 . S
C353 N2 1.403 . S
C359 N170 1.350 . S
C373 N15 1.419 . S
C379 N200 1.391 . S
C399 C120 0.359 . S
C393 N70 0.373 . S
C419 C150 0.751 . S
C413 N83 0.752 1_545 S
C439 C191 1.038 . S
C433 N96 1.046 . S
C453 N57 0.580 . S
C459 C221 0.568 . S
C473 N18 0.428 . S
C479 C131 0.406 1_455 S
C499 C161 0.751 . S
C493 N31 0.752 . S
C519 C180 1.028 . S
C513 N44 1.035 . S
C533 N5 0.570 . S
C539 C210 0.591 . S
C553 N66 1.481 . S
C559 N110 1.467 . S
C573 N79 1.473 1_545 S
C579 N140 1.429 . S
C599 C165 1.653 . S
C593 N92 1.649 . S
C619 C195 1.597 . S
C613 N53 1.596 . S
C633 N14 1.493 . S
C639 N118 1.458 . S
C659 N148 1.417 . S
C653 N27 1.459 . S
C679 C174 1.652 . S
C673 N40 1.654 . S
C693 N1 1.594 . S
C699 C204 1.597 . S
