# Generated by pormake.
# Topology ssb, (4,4)-cn, num edge types: 1
# Building blocks:
#     Node 0, Type 0, BuildingBlock: AZAVOO_clean_linker_0, # of connection points: 4
#     Node 1, Type 0, BuildingBlock: AZAVOO_clean_linker_0, # of connection points: 4
#     Node 2, Type 0, BuildingBlock: AZAVOO_clean_linker_0, # of connection points: 4
#     Node 3, Type 0, BuildingBlock: AZAVOO_clean_linker_0, # of connection points: 4
#     Node 4, Type 0, BuildingBlock: AZAVOO_clean_linker_0, # of connection points: 4
#     Node 5, Type 0, BuildingBlock: AZAVOO_clean_linker_0, # of connection points: 4
#     Node 6, Type 0, BuildingBlock: AZAVOO_clean_linker_0, # of connection points: 4
#     Node 7, Type 0, BuildingBlock: AZAVOO_clean_linker_0, # of connection points: 4
#     Node 8, Type 1, BuildingBlock: KOZSID_clean_sbu_0, # of connection points: 4
#     Node 9, Type 1, BuildingBlock: KOZSID_clean_sbu_0, # of connection points: 4
#     Node 10, Type 1, BuildingBlock: KOZSID_clean_sbu_0, # of connection points: 4
#     Node 11, Type 1, BuildingBlock: KOZSID_clean_sbu_0, # of connection points: 4
#     Node 12, Type 1, BuildingBlock: KOZSID_clean_sbu_0, # of connection points: 4
#     Node 13, Type 1, BuildingBlock: KOZSID_clean_sbu_0, # of connection points: 4
#     Node 14, Type 1, BuildingBlock: KOZSID_clean_sbu_0, # of connection points: 4
#     Node 15, Type 1, BuildingBlock: KOZSID_clean_sbu_0, # of connection points: 4
#     Edge 16, Type (0, 1), BuildingBlock: TEMPAE_clean_linker_10, # of connection points: 2
#     Edge 17, Type (0, 1), BuildingBlock: TEMPAE_clean_linker_10, # of connection points: 2
#     Edge 18, Type (0, 1), BuildingBlock: TEMPAE_clean_linker_10, # of connection points: 2
#     Edge 19, Type (0, 1), BuildingBlock: TEMPAE_clean_linker_10, # of connection points: 2
#     Edge 20, Type (0, 1), BuildingBlock: TEMPAE_clean_linker_10, # of connection points: 2
#     Edge 21, Type (0, 1), BuildingBlock: TEMPAE_clean_linker_10, # of connection points: 2
#     Edge 22, Type (0, 1), BuildingBlock: TEMPAE_clean_linker_10, # of connection points: 2
#     Edge 23, Type (0, 1), BuildingBlock: TEMPAE_clean_linker_10, # of connection points: 2
#     Edge 24, Type (0, 1), BuildingBlock: TEMPAE_clean_linker_10, # of connection points: 2
#     Edge 25, Type (0, 1), BuildingBlock: TEMPAE_clean_linker_10, # of connection points: 2
#     Edge 26, Type (0, 1), BuildingBlock: TEMPAE_clean_linker_10, # of connection points: 2
#     Edge 27, Type (0, 1), BuildingBlock: TEMPAE_clean_linker_10, # of connection points: 2
#     Edge 28, Type (0, 1), BuildingBlock: TEMPAE_clean_linker_10, # of connection points: 2
#     Edge 29, Type (0, 1), BuildingBlock: TEMPAE_clean_linker_10, # of connection points: 2
#     Edge 30, Type (0, 1), BuildingBlock: TEMPAE_clean_linker_10, # of connection points: 2
#     Edge 31, Type (0, 1), BuildingBlock: TEMPAE_clean_linker_10, # of connection points: 2
#     Edge 32, Type (0, 1), BuildingBlock: TEMPAE_clean_linker_10, # of connection points: 2
#     Edge 33, Type (0, 1), BuildingBlock: TEMPAE_clean_linker_10, # of connection points: 2
#     Edge 34, Type (0, 1), BuildingBlock: TEMPAE_clean_linker_10, # of connection points: 2
#     Edge 35, Type (0, 1), BuildingBlock: TEMPAE_clean_linker_10, # of connection points: 2
#     Edge 36, Type (0, 1), BuildingBlock: TEMPAE_clean_linker_10, # of connection points: 2
#     Edge 37, Type (0, 1), BuildingBlock: TEMPAE_clean_linker_10, # of connection points: 2
#     Edge 38, Type (0, 1), BuildingBlock: TEMPAE_clean_linker_10, # of connection points: 2
#     Edge 39, Type (0, 1), BuildingBlock: TEMPAE_clean_linker_10, # of connection points: 2
#     Edge 40, Type (0, 1), BuildingBlock: TEMPAE_clean_linker_10, # of connection points: 2
#     Edge 41, Type (0, 1), BuildingBlock: TEMPAE_clean_linker_10, # of connection points: 2
#     Edge 42, Type (0, 1), BuildingBlock: TEMPAE_clean_linker_10, # of connection points: 2
#     Edge 43, Type (0, 1), BuildingBlock: TEMPAE_clean_linker_10, # of connection points: 2
#     Edge 44, Type (0, 1), BuildingBlock: TEMPAE_clean_linker_10, # of connection points: 2
#     Edge 45, Type (0, 1), BuildingBlock: TEMPAE_clean_linker_10, # of connection points: 2
#     Edge 46, Type (0, 1), BuildingBlock: TEMPAE_clean_linker_10, # of connection points: 2
#     Edge 47, Type (0, 1), BuildingBlock: TEMPAE_clean_linker_10, # of connection points: 2
# Relax obj value: 0.046
# Max RMSD: 0.293
# Mean RMSD: 0.109
data_MOF--net-ssb--node1-KOZSID_clean_sbu_0--node2-AZAVOO_clean_linker_0--edge1-TEMPAE_clean_linker_10
_symmetry_space_group_name_H-M    P1
_symmetry_Int_Tables_number       1
_symmetry_cell_setting            triclinic
loop_
_symmetry_equiv_pos_as_xyz
'x, y, z'
_cell_length_a     60.773193
_cell_length_b     62.44899
_cell_length_c     44.740859
_cell_angle_alpha  94.915584
_cell_angle_beta   94.755671
_cell_angle_gamma 90.266692
loop_
_atom_site_label
_atom_site_type_symbol
_atom_site_fract_x
_atom_site_fract_y
_atom_site_fract_z
_atom_type_partial_charge
H0 H 0.13885 0.48303 0.28855 0.0
H1 H 0.34945 0.39692 0.1164 0.0
H2 H 0.23855 0.39612 0.3327 0.0
H3 H 0.21009 0.39235 0.36771 0.0
H4 H 0.163 0.37213 0.29275 0.0
H5 H 0.19166 0.37557 0.25802 0.0
H6 H 0.22138 0.43553 0.3002 0.0
H7 H 0.18873 0.45806 0.30379 0.0
H8 H 0.16445 0.43335 0.21377 0.0
H9 H 0.19708 0.41069 0.21063 0.0
H10 H 0.24664 0.45441 0.2512 0.0
H11 H 0.24305 0.48458 0.21996 0.0
H12 H 0.24013 0.4401 0.14005 0.0
H13 H 0.24196 0.41007 0.1716 0.0
H14 H 0.29467 0.43168 0.23416 0.0
H15 H 0.32382 0.43707 0.20083 0.0
H16 H 0.30388 0.37793 0.14788 0.0
H17 H 0.27455 0.37297 0.18098 0.0
H18 H 0.31135 0.39143 0.26632 0.0
H19 H 0.34362 0.37205 0.25031 0.0
H20 H 0.30151 0.31877 0.21251 0.0
H21 H 0.26915 0.33897 0.22717 0.0
H22 H 0.28367 0.37166 0.31632 0.0
H23 H 0.28853 0.34106 0.3469 0.0
H24 H 0.23228 0.30917 0.29615 0.0
H25 H 0.22738 0.34002 0.2661 0.0
O26 O 0.15164 0.47399 0.28663 0.0
O27 O 0.13998 0.46093 0.24018 0.0
O28 O 0.34639 0.42652 0.15614 0.0
O29 O 0.33768 0.39551 0.12943 0.0
C30 C 0.23385 0.39008 0.27163 0.0
C31 C 0.23121 0.4075 0.2533 0.0
C32 C 0.24714 0.41151 0.23305 0.0
C33 C 0.2657 0.39802 0.23132 0.0
C34 C 0.26842 0.38076 0.24994 0.0
C35 C 0.25246 0.37665 0.26999 0.0
C36 C 0.21711 0.38615 0.29288 0.0
C37 C 0.22215 0.39061 0.32394 0.0
C38 C 0.20587 0.38862 0.34383 0.0
C39 C 0.1843 0.38206 0.33293 0.0
C40 C 0.17951 0.37703 0.30182 0.0
C41 C 0.19579 0.37907 0.28197 0.0
C42 C 0.21156 0.42146 0.25519 0.0
C43 C 0.20895 0.43496 0.28132 0.0
C44 C 0.19031 0.44785 0.28328 0.0
C45 C 0.17397 0.44751 0.25907 0.0
C46 C 0.17672 0.434 0.23283 0.0
C47 C 0.19535 0.42108 0.23094 0.0
C48 C 0.24456 0.42994 0.2138 0.0
C49 C 0.24487 0.45118 0.22694 0.0
C50 C 0.24313 0.46847 0.20894 0.0
C51 C 0.24145 0.46497 0.17727 0.0
C52 C 0.24104 0.44359 0.16424 0.0
C53 C 0.24236 0.42632 0.18228 0.0
C54 C 0.28253 0.40192 0.21002 0.0
C55 C 0.29648 0.42005 0.21515 0.0
C56 C 0.31317 0.42303 0.19616 0.0
C57 C 0.31625 0.40786 0.17176 0.0
C58 C 0.30201 0.38988 0.16648 0.0
C59 C 0.28525 0.387 0.18536 0.0
C60 C 0.28794 0.36674 0.24746 0.0
C61 C 0.30918 0.37536 0.25521 0.0
C62 C 0.32763 0.36416 0.24617 0.0
C63 C 0.32515 0.34395 0.22966 0.0
C64 C 0.30394 0.33451 0.22456 0.0
C65 C 0.28546 0.34588 0.23324 0.0
C66 C 0.25514 0.35814 0.28898 0.0
C67 C 0.27239 0.35806 0.31186 0.0
C68 C 0.2752 0.34048 0.32921 0.0
C69 C 0.26083 0.32254 0.32404 0.0
C70 C 0.24348 0.32277 0.30112 0.0
C71 C 0.24068 0.34037 0.28382 0.0
C72 C 0.15416 0.46118 0.26126 0.0
C73 C 0.33434 0.41062 0.15202 0.0
H74 H 0.63764 0.15509 0.30456 0.0
H75 H 0.8225 0.24399 0.52934 0.0
H76 H 0.72059 0.23283 0.27816 0.0
H77 H 0.69171 0.23588 0.23724 0.0
H78 H 0.66906 0.29417 0.28366 0.0
H79 H 0.69808 0.29103 0.32436 0.0
H80 H 0.72316 0.1993 0.32843 0.0
H81 H 0.69099 0.1755 0.31619 0.0
H82 H 0.64815 0.22819 0.34028 0.0
H83 H 0.68048 0.25174 0.3528 0.0
H84 H 0.76375 0.2033 0.38172 0.0
H85 H 0.75759 0.1748 0.41459 0.0
H86 H 0.69816 0.20607 0.44109 0.0
H87 H 0.70482 0.23503 0.40902 0.0
H88 H 0.79977 0.23712 0.38023 0.0
H89 H 0.82578 0.23257 0.42394 0.0
H90 H 0.7764 0.25536 0.48294 0.0
H91 H 0.75067 0.26009 0.43902 0.0
H92 H 0.7968 0.26657 0.3281 0.0
H93 H 0.8323 0.28565 0.33935 0.0
H94 H 0.80757 0.31885 0.41821 0.0
H95 H 0.77214 0.29968 0.40681 0.0
H96 H 0.75608 0.27198 0.2787 0.0
H97 H 0.76219 0.30329 0.25071 0.0
H98 H 0.74944 0.34534 0.32914 0.0
H99 H 0.74271 0.31405 0.35645 0.0
O100 O 0.65014 0.16475 0.30967 0.0
O101 O 0.62884 0.19241 0.32215 0.0
O102 O 0.83743 0.23421 0.48035 0.0
O103 O 0.81257 0.24567 0.51166 0.0
C104 C 0.72732 0.2585 0.33029 0.0
C105 C 0.72373 0.24168 0.34857 0.0
C106 C 0.73877 0.23862 0.37362 0.0
C107 C 0.75769 0.252 0.37994 0.0
C108 C 0.76143 0.26856 0.36132 0.0
C109 C 0.74597 0.27214 0.337 0.0
C110 C 0.71138 0.26171 0.30416 0.0
C111 C 0.70953 0.24637 0.27926 0.0
C112 C 0.69296 0.24806 0.25607 0.0
C113 C 0.67804 0.26518 0.25735 0.0
C114 C 0.68044 0.28091 0.2819 0.0
C115 C 0.69698 0.27916 0.30515 0.0
C116 C 0.70414 0.22723 0.34145 0.0
C117 C 0.70682 0.20563 0.33116 0.0
C118 C 0.68841 0.1921 0.32413 0.0
C119 C 0.66699 0.19995 0.32721 0.0
C120 C 0.6644 0.22163 0.33761 0.0
C121 C 0.68283 0.23513 0.34471 0.0
C122 C 0.73479 0.22124 0.39313 0.0
C123 C 0.74952 0.2041 0.39483 0.0
C124 C 0.74599 0.18788 0.4135 0.0
C125 C 0.72744 0.18839 0.43025 0.0
C126 C 0.7125 0.20536 0.4282 0.0
C127 C 0.71628 0.22182 0.40996 0.0
C128 C 0.77338 0.24899 0.40649 0.0
C129 C 0.79466 0.24121 0.40262 0.0
C130 C 0.80944 0.23857 0.42762 0.0
C131 C 0.80316 0.24361 0.45695 0.0
C132 C 0.78177 0.25133 0.46069 0.0
C133 C 0.76703 0.25402 0.43566 0.0
C134 C 0.78201 0.2817 0.36673 0.0
C135 C 0.79899 0.27819 0.34756 0.0
C136 C 0.81922 0.289 0.35406 0.0
C137 C 0.82266 0.30368 0.37966 0.0
C138 C 0.80528 0.30778 0.39818 0.0
C139 C 0.78513 0.29679 0.39182 0.0
C140 C 0.74897 0.29083 0.31951 0.0
C141 C 0.75441 0.28798 0.28962 0.0
C142 C 0.75804 0.30584 0.27381 0.0
C143 C 0.75629 0.32676 0.28776 0.0
C144 C 0.7506 0.32945 0.31765 0.0
C145 C 0.74692 0.31163 0.33335 0.0
C146 C 0.64746 0.18555 0.31957 0.0
C147 C 0.81881 0.24085 0.4836 0.0
H148 H 0.6604 0.90364 0.32405 0.0
H149 H 0.68931 0.67581 0.17844 0.0
H150 H 0.75591 0.83706 0.34373 0.0
H151 H 0.75645 0.86505 0.38565 0.0
H152 H 0.73316 0.81873 0.44253 0.0
H153 H 0.73254 0.79086 0.40036 0.0
H154 H 0.72039 0.83447 0.28994 0.0
H155 H 0.69756 0.86636 0.29724 0.0
H156 H 0.66872 0.83858 0.37045 0.0
H157 H 0.69146 0.80666 0.36262 0.0
H158 H 0.72323 0.79649 0.24131 0.0
H159 H 0.69502 0.80647 0.20282 0.0
H160 H 0.64405 0.79191 0.26005 0.0
H161 H 0.67247 0.78186 0.2985 0.0
H162 H 0.75308 0.75675 0.24399 0.0
H163 H 0.74521 0.72886 0.20256 0.0
H164 H 0.68687 0.70984 0.24331 0.0
H165 H 0.6951 0.73765 0.28479 0.0
H166 H 0.78794 0.7562 0.29093 0.0
H167 H 0.80423 0.72157 0.2753 0.0
H168 H 0.75246 0.68864 0.31452 0.0
H169 H 0.73611 0.72322 0.32933 0.0
H170 H 0.78904 0.80378 0.33699 0.0
H171 H 0.82461 0.80278 0.36626 0.0
H172 H 0.80149 0.74924 0.41084 0.0
H173 H 0.76574 0.75026 0.3809 0.0
O174 O 0.66915 0.89081 0.3214 0.0
O175 O 0.65494 0.87587 0.35898 0.0
O176 O 0.72293 0.69743 0.17448 0.0
O177 O 0.69272 0.68707 0.19443 0.0
C178 C 0.73987 0.79617 0.3425 0.0
C179 C 0.72165 0.7991 0.32155 0.0
C180 C 0.71719 0.78404 0.29642 0.0
C181 C 0.73007 0.7654 0.29319 0.0
C182 C 0.74813 0.7623 0.31436 0.0
C183 C 0.75357 0.77812 0.33835 0.0
C184 C 0.74415 0.81198 0.36906 0.0
C185 C 0.7514 0.83289 0.36545 0.0
C186 C 0.75171 0.84882 0.38939 0.0
C187 C 0.74465 0.8441 0.41727 0.0
C188 C 0.73842 0.82287 0.42119 0.0
C189 C 0.73827 0.80691 0.39728 0.0
C190 C 0.70749 0.81827 0.32568 0.0
C191 C 0.70901 0.83526 0.30739 0.0
C192 C 0.696 0.85348 0.31168 0.0
C193 C 0.68131 0.85503 0.33445 0.0
C194 C 0.67985 0.8379 0.35271 0.0
C195 C 0.69281 0.81967 0.34831 0.0
C196 C 0.69983 0.78846 0.27258 0.0
C197 C 0.70596 0.79527 0.24537 0.0
C198 C 0.68988 0.8011 0.22358 0.0
C199 C 0.66739 0.80009 0.22859 0.0
C200 C 0.66126 0.79273 0.2556 0.0
C201 C 0.67741 0.78705 0.27752 0.0
C202 C 0.72472 0.74911 0.26741 0.0
C203 C 0.73863 0.74652 0.24392 0.0
C204 C 0.73408 0.7306 0.22029 0.0
C205 C 0.71543 0.71707 0.21967 0.0
C206 C 0.70138 0.71995 0.24311 0.0
C207 C 0.70599 0.73585 0.26677 0.0
C208 C 0.76084 0.74215 0.31115 0.0
C209 C 0.78053 0.7415 0.29684 0.0
C210 C 0.78978 0.72172 0.28793 0.0
C211 C 0.77942 0.70236 0.29327 0.0
C212 C 0.76057 0.70325 0.30956 0.0
C213 C 0.75134 0.72296 0.31832 0.0
C214 C 0.77482 0.77718 0.35695 0.0
C215 C 0.79159 0.79192 0.35322 0.0
C216 C 0.81186 0.79138 0.37009 0.0
C217 C 0.8158 0.77606 0.39112 0.0
C218 C 0.79897 0.76117 0.39472 0.0
C219 C 0.77857 0.76175 0.37776 0.0
C220 C 0.66764 0.87448 0.3391 0.0
C221 C 0.71066 0.69997 0.19479 0.0
H222 H 0.3474 0.98262 0.26636 0.0
H223 H 0.26414 0.77348 0.07701 0.0
H224 H 0.264 0.90072 0.30351 0.0
H225 H 0.26187 0.93367 0.33672 0.0
H226 H 0.21582 0.95964 0.27053 0.0
H227 H 0.21722 0.92606 0.23833 0.0
H228 H 0.30271 0.89903 0.26087 0.0
H229 H 0.32634 0.93123 0.26822 0.0
H230 H 0.27855 0.96463 0.21267 0.0
H231 H 0.25517 0.93224 0.20539 0.0
H232 H 0.30703 0.85844 0.22028 0.0
H233 H 0.33966 0.85962 0.19195 0.0
H234 H 0.30373 0.89745 0.12796 0.0
H235 H 0.27142 0.89676 0.15725 0.0
H236 H 0.27256 0.82011 0.21748 0.0
H237 H 0.27835 0.78889 0.18216 0.0
H238 H 0.25148 0.82403 0.10855 0.0
H239 H 0.24551 0.85502 0.14422 0.0
H240 H 0.2381 0.82434 0.25944 0.0
H241 H 0.22461 0.78744 0.24569 0.0
H242 H 0.19048 0.80798 0.16466 0.0
H243 H 0.20398 0.84464 0.17856 0.0
H244 H 0.2346 0.87022 0.30418 0.0
H245 H 0.20478 0.86371 0.33596 0.0
H246 H 0.15715 0.86567 0.25906 0.0
H247 H 0.18709 0.87271 0.22749 0.0
O248 O 0.33789 0.97002 0.26296 0.0
O249 O 0.3128 0.98648 0.23426 0.0
O250 O 0.27696 0.76871 0.12985 0.0
O251 O 0.26231 0.78569 0.0914 0.0
C252 C 0.24481 0.89274 0.24684 0.0
C253 C 0.26279 0.89402 0.22893 0.0
C254 C 0.26734 0.87667 0.20819 0.0
C255 C 0.25377 0.85815 0.20507 0.0
C256 C 0.23571 0.85691 0.22289 0.0
C257 C 0.23128 0.87413 0.24398 0.0
C258 C 0.24062 0.91103 0.26874 0.0
C259 C 0.25296 0.91331 0.29669 0.0
C260 C 0.25194 0.93227 0.31539 0.0
C261 C 0.23892 0.94946 0.30612 0.0
C262 C 0.22582 0.94668 0.27857 0.0
C263 C 0.22661 0.92755 0.26009 0.0
C264 C 0.2773 0.91338 0.2326 0.0
C265 C 0.29746 0.9133 0.25021 0.0
C266 C 0.31088 0.93172 0.25441 0.0
C267 C 0.30432 0.95052 0.24107 0.0
C268 C 0.28409 0.95043 0.22328 0.0
C269 C 0.27072 0.93198 0.21906 0.0
C270 C 0.28695 0.87748 0.19073 0.0
C271 C 0.30629 0.867 0.20016 0.0
C272 C 0.32483 0.86759 0.18381 0.0
C273 C 0.32431 0.87853 0.15753 0.0
C274 C 0.30482 0.8891 0.14825 0.0
C275 C 0.28631 0.88863 0.1648 0.0
C276 C 0.25861 0.83977 0.18336 0.0
C277 C 0.26802 0.82103 0.1937 0.0
C278 C 0.2713 0.80324 0.17348 0.0
C279 C 0.26537 0.80396 0.14251 0.0
C280 C 0.25622 0.82292 0.13224 0.0
C281 C 0.25288 0.84068 0.15251 0.0
C282 C 0.22216 0.83698 0.21978 0.0
C283 C 0.2269 0.82099 0.23943 0.0
C284 C 0.21926 0.79997 0.23152 0.0
C285 C 0.2067 0.79485 0.20399 0.0
C286 C 0.19994 0.81148 0.18614 0.0
C287 C 0.2077 0.83241 0.19395 0.0
C288 C 0.21299 0.87216 0.26361 0.0
C289 C 0.21769 0.86979 0.29436 0.0
C290 C 0.20067 0.866 0.31243 0.0
C291 C 0.17868 0.86418 0.29993 0.0
C292 C 0.17397 0.86688 0.2692 0.0
C293 C 0.191 0.87097 0.25122 0.0
C294 C 0.31852 0.97012 0.2458 0.0
C295 C 0.26862 0.78503 0.12098 0.0
H296 H 0.40618 0.97781 0.73307 0.0
H297 H 0.17139 0.94322 0.59582 0.0
H298 H 0.33463 0.88125 0.73816 0.0
H299 H 0.36677 0.87609 0.77348 0.0
H300 H 0.33122 0.90395 0.84673 0.0
H301 H 0.29904 0.90902 0.8111 0.0
H302 H 0.3312 0.91989 0.69534 0.0
H303 H 0.36487 0.94203 0.70307 0.0
H304 H 0.34436 0.96886 0.78858 0.0
H305 H 0.31066 0.94679 0.78039 0.0
H306 H 0.28983 0.92251 0.65154 0.0
H307 H 0.29233 0.95362 0.62187 0.0
H308 H 0.28018 0.99595 0.70014 0.0
H309 H 0.27767 0.9648 0.72954 0.0
H310 H 0.25166 0.88326 0.65502 0.0
H311 H 0.22321 0.88871 0.61447 0.0
H312 H 0.20631 0.94913 0.66121 0.0
H313 H 0.2346 0.94334 0.7018 0.0
H314 H 0.25426 0.84889 0.70887 0.0
H315 H 0.21977 0.82872 0.69819 0.0
H316 H 0.18366 0.88747 0.7164 0.0
H317 H 0.21812 0.90645 0.7312 0.0
H318 H 0.29793 0.84925 0.74252 0.0
H319 H 0.29327 0.81852 0.77183 0.0
H320 H 0.24627 0.85453 0.82297 0.0
H321 H 0.25044 0.88481 0.79252 0.0
O322 O 0.3927 0.9693 0.73038 0.0
O323 O 0.38141 0.98259 0.77416 0.0
O324 O 0.19196 0.90939 0.58856 0.0
O325 O 0.18278 0.94069 0.61151 0.0
C326 C 0.29615 0.90046 0.7502 0.0
C327 C 0.2983 0.91809 0.73272 0.0
C328 C 0.28139 0.92253 0.71063 0.0
C329 C 0.26229 0.90926 0.70605 0.0
C330 C 0.25967 0.89213 0.72448 0.0
C331 C 0.27676 0.88759 0.74645 0.0
C332 C 0.31458 0.89544 0.77217 0.0
C333 C 0.33371 0.88594 0.7619 0.0
C334 C 0.35198 0.88298 0.78207 0.0
C335 C 0.35147 0.88967 0.81281 0.0
C336 C 0.33208 0.89881 0.82312 0.0
C337 C 0.3137 0.90157 0.80292 0.0
C338 C 0.31854 0.93176 0.73731 0.0
C339 C 0.33398 0.93064 0.71565 0.0
C340 C 0.35321 0.94326 0.72016 0.0
C341 C 0.35733 0.9572 0.74647 0.0
C342 C 0.34172 0.95829 0.76809 0.0
C343 C 0.32249 0.94569 0.76351 0.0
C344 C 0.28353 0.94138 0.69269 0.0
C345 C 0.28777 0.93852 0.66225 0.0
C346 C 0.28929 0.9563 0.6454 0.0
C347 C 0.28638 0.97727 0.65862 0.0
C348 C 0.28225 0.98003 0.6892 0.0
C349 C 0.28094 0.96227 0.70607 0.0
C350 C 0.24525 0.91294 0.68127 0.0
C351 C 0.24179 0.89766 0.65644 0.0
C352 C 0.22554 0.90082 0.63332 0.0
C353 C 0.21249 0.91938 0.63459 0.0
C354 C 0.21608 0.93469 0.65949 0.0
C355 C 0.23229 0.93147 0.68265 0.0
C356 C 0.23879 0.87923 0.72068 0.0
C357 C 0.23885 0.85716 0.71164 0.0
C358 C 0.21896 0.84573 0.70488 0.0
C359 C 0.19853 0.85633 0.70568 0.0
C360 C 0.19872 0.87835 0.71586 0.0
C361 C 0.21856 0.88947 0.72389 0.0
C362 C 0.27451 0.86927 0.76533 0.0
C363 C 0.28669 0.85049 0.76014 0.0
C364 C 0.28406 0.83296 0.77709 0.0
C365 C 0.26936 0.83389 0.79993 0.0
C366 C 0.25743 0.85296 0.80529 0.0
C367 C 0.25991 0.8704 0.78807 0.0
C368 C 0.37783 0.97049 0.75128 0.0
C369 C 0.19516 0.92277 0.61012 0.0
H370 H 0.19848 0.50325 0.84281 0.0
H371 H 0.2624 0.30618 0.60717 0.0
H372 H 0.31417 0.43537 0.81981 0.0
H373 H 0.31348 0.46447 0.85971 0.0
H374 H 0.25901 0.43312 0.89527 0.0
H375 H 0.25988 0.40393 0.85515 0.0
H376 H 0.26877 0.45184 0.79232 0.0
H377 H 0.24327 0.47848 0.81244 0.0
H378 H 0.19653 0.42764 0.82228 0.0
H379 H 0.22241 0.40109 0.80261 0.0
H380 H 0.24381 0.43271 0.73288 0.0
H381 H 0.20884 0.43623 0.70285 0.0
H382 H 0.19603 0.36822 0.70617 0.0
H383 H 0.22952 0.36564 0.73906 0.0
H384 H 0.27751 0.39863 0.69336 0.0
H385 H 0.27398 0.37912 0.64329 0.0
H386 H 0.26528 0.31961 0.68398 0.0
H387 H 0.26843 0.33934 0.73377 0.0
H388 H 0.3241 0.38419 0.72429 0.0
H389 H 0.34253 0.35552 0.69542 0.0
H390 H 0.32198 0.30984 0.75513 0.0
H391 H 0.30358 0.33857 0.78382 0.0
H392 H 0.34237 0.39814 0.79363 0.0
H393 H 0.37323 0.38537 0.82616 0.0
H394 H 0.32687 0.35476 0.87759 0.0
H395 H 0.29621 0.36746 0.84494 0.0
O396 O 0.20816 0.49244 0.83452 0.0
O397 O 0.18484 0.46571 0.83967 0.0
O398 O 0.26949 0.34515 0.6069 0.0
O399 O 0.26364 0.31434 0.62664 0.0
C400 C 0.2828 0.40457 0.80522 0.0
C401 C 0.26373 0.40836 0.78599 0.0
C402 C 0.26021 0.39669 0.75748 0.0
C403 C 0.27641 0.38217 0.74761 0.0
C404 C 0.29562 0.37874 0.76667 0.0
C405 C 0.29848 0.38943 0.7958 0.0
C406 C 0.28685 0.41777 0.83435 0.0
C407 C 0.30274 0.43429 0.83699 0.0
C408 C 0.3023 0.45093 0.85982 0.0
C409 C 0.28592 0.45124 0.88028 0.0
C410 C 0.27159 0.43342 0.87952 0.0
C411 C 0.27215 0.41671 0.85677 0.0
C412 C 0.24743 0.42455 0.79604 0.0
C413 C 0.25298 0.4465 0.79873 0.0
C414 C 0.23838 0.46168 0.81023 0.0
C415 C 0.21787 0.45519 0.81901 0.0
C416 C 0.21221 0.43318 0.81576 0.0
C417 C 0.22689 0.41799 0.8044 0.0
C418 C 0.23924 0.39893 0.73834 0.0
C419 C 0.23319 0.41869 0.72753 0.0
C420 C 0.2133 0.42056 0.70989 0.0
C421 C 0.19933 0.40253 0.70189 0.0
C422 C 0.20583 0.38267 0.71235 0.0
C423 C 0.22527 0.38102 0.73081 0.0
C424 C 0.27332 0.3704 0.71717 0.0
C425 C 0.27468 0.38141 0.69136 0.0
C426 C 0.27274 0.37021 0.66283 0.0
C427 C 0.2694 0.34778 0.65965 0.0
C428 C 0.26785 0.33685 0.6856 0.0
C429 C 0.26971 0.34808 0.71408 0.0
C430 C 0.31228 0.36334 0.75582 0.0
C431 C 0.32437 0.36815 0.73183 0.0
C432 C 0.3348 0.35179 0.71534 0.0
C433 C 0.33337 0.33046 0.7228 0.0
C434 C 0.32345 0.32617 0.74899 0.0
C435 C 0.31291 0.34254 0.7654 0.0
C436 C 0.31712 0.38369 0.81699 0.0
C437 C 0.33894 0.38887 0.81214 0.0
C438 C 0.35649 0.38162 0.83072 0.0
C439 C 0.35242 0.36895 0.85424 0.0
C440 C 0.33048 0.36426 0.85941 0.0
C441 C 0.31298 0.37164 0.84099 0.0
C442 C 0.20257 0.47135 0.83168 0.0
C443 C 0.26752 0.33577 0.62944 0.0
H444 H 0.89197 0.3809 0.92021 0.0
H445 H 0.81258 0.22249 0.64752 0.0
H446 H 0.81714 0.29194 0.91473 0.0
H447 H 0.81736 0.31937 0.95718 0.0
H448 H 0.76074 0.34906 0.91334 0.0
H449 H 0.7604 0.32123 0.87135 0.0
H450 H 0.85247 0.29938 0.86683 0.0
H451 H 0.87474 0.33005 0.89025 0.0
H452 H 0.81983 0.37218 0.8722 0.0
H453 H 0.7979 0.34143 0.84843 0.0
H454 H 0.85202 0.27173 0.79851 0.0
H455 H 0.87684 0.28716 0.76539 0.0
H456 H 0.83398 0.34198 0.75895 0.0
H457 H 0.80875 0.32581 0.79042 0.0
H458 H 0.82015 0.23042 0.79779 0.0
H459 H 0.82654 0.21009 0.75012 0.0
H460 H 0.7976 0.26144 0.70159 0.0
H461 H 0.79106 0.28148 0.74942 0.0
H462 H 0.78742 0.22454 0.84871 0.0
H463 H 0.77172 0.18955 0.82837 0.0
H464 H 0.73837 0.21939 0.75391 0.0
H465 H 0.75406 0.25436 0.77451 0.0
H466 H 0.77662 0.26085 0.90657 0.0
H467 H 0.74284 0.25659 0.93217 0.0
H468 H 0.7037 0.27244 0.85215 0.0
H469 H 0.73732 0.2768 0.82697 0.0
O470 O 0.8831 0.3691 0.91012 0.0
O471 O 0.85423 0.38997 0.90079 0.0
O472 O 0.82493 0.20422 0.69271 0.0
O473 O 0.81029 0.23021 0.66669 0.0
C474 C 0.79274 0.29219 0.86124 0.0
C475 C 0.80958 0.29923 0.8443 0.0
C476 C 0.8131 0.28834 0.81621 0.0
C477 C 0.80087 0.26946 0.80599 0.0
C478 C 0.78416 0.26226 0.82311 0.0
C479 C 0.7795 0.27414 0.85015 0.0
C480 C 0.78881 0.30468 0.88999 0.0
C481 C 0.8043 0.30391 0.91488 0.0
C482 C 0.80457 0.31975 0.93888 0.0
C483 C 0.78936 0.33665 0.93833 0.0
C484 C 0.77263 0.33624 0.91454 0.0
C485 C 0.77235 0.32032 0.89055 0.0
C486 C 0.82356 0.31818 0.85615 0.0
C487 C 0.84539 0.31529 0.86767 0.0
C488 C 0.85802 0.33282 0.88116 0.0
C489 C 0.849 0.35355 0.88331 0.0
C490 C 0.82725 0.35643 0.87106 0.0
C491 C 0.81469 0.3389 0.85748 0.0
C492 C 0.8286 0.29765 0.79679 0.0
C493 C 0.84799 0.28699 0.78973 0.0
C494 C 0.86224 0.29595 0.77108 0.0
C495 C 0.8574 0.31583 0.75949 0.0
C496 C 0.83805 0.32651 0.76703 0.0
C497 C 0.82372 0.31741 0.78528 0.0
C498 C 0.80519 0.25742 0.77702 0.0
C499 C 0.8152 0.23723 0.77683 0.0
C500 C 0.81885 0.22567 0.74958 0.0
C501 C 0.81258 0.23415 0.72203 0.0
C502 C 0.80263 0.25445 0.72238 0.0
C503 C 0.79894 0.26596 0.74965 0.0
C504 C 0.77198 0.24192 0.81298 0.0
C505 C 0.77638 0.22357 0.82833 0.0
C506 C 0.76754 0.20362 0.8166 0.0
C507 C 0.75398 0.20175 0.78945 0.0
C508 C 0.74865 0.22038 0.77496 0.0
C509 C 0.75764 0.24032 0.78661 0.0
C510 C 0.75939 0.26914 0.86494 0.0
C511 C 0.76071 0.26317 0.89455 0.0
C512 C 0.74146 0.26079 0.90911 0.0
C513 C 0.72066 0.26417 0.89412 0.0
C514 C 0.71945 0.2694 0.86412 0.0
C515 C 0.73864 0.27193 0.84972 0.0
C516 C 0.8622 0.37202 0.89852 0.0
C517 C 0.81635 0.2219 0.69301 0.0
H518 H 0.9476 0.6833 0.82385 0.0
H519 H 0.73947 0.699 0.98397 0.0
H520 H 0.87211 0.77139 0.82436 0.0
H521 H 0.89463 0.77718 0.78292 0.0
H522 H 0.84026 0.75519 0.71904 0.0
H523 H 0.81808 0.74879 0.76081 0.0
H524 H 0.87758 0.73684 0.87138 0.0
H525 H 0.91054 0.71661 0.85922 0.0
H526 H 0.87586 0.68971 0.77605 0.0
H527 H 0.84294 0.70983 0.78866 0.0
H528 H 0.84257 0.73493 0.92113 0.0
H529 H 0.84965 0.70538 0.95293 0.0
H530 H 0.83368 0.65971 0.87584 0.0
H531 H 0.82569 0.68944 0.84453 0.0
H532 H 0.80301 0.76768 0.92225 0.0
H533 H 0.7825 0.75873 0.96442 0.0
H534 H 0.76263 0.69795 0.91578 0.0
H535 H 0.78295 0.70723 0.87362 0.0
H536 H 0.79584 0.80237 0.87321 0.0
H537 H 0.76221 0.82126 0.88618 0.0
H538 H 0.72415 0.76295 0.86033 0.0
H539 H 0.75759 0.74463 0.84613 0.0
H540 H 0.8327 0.80362 0.82417 0.0
H541 H 0.81887 0.83453 0.79833 0.0
H542 H 0.75929 0.79885 0.76625 0.0
H543 H 0.77348 0.76773 0.7914 0.0
O544 O 0.93435 0.69108 0.82827 0.0
O545 O 0.91582 0.67779 0.78573 0.0
O546 O 0.75812 0.73453 0.99151 0.0
O547 O 0.74764 0.70298 0.96758 0.0
C548 C 0.83078 0.75412 0.82086 0.0
C549 C 0.83797 0.73722 0.83825 0.0
C550 C 0.82613 0.73209 0.86256 0.0
C551 C 0.80696 0.74361 0.86936 0.0
C552 C 0.79961 0.76034 0.85182 0.0
C553 C 0.81156 0.76561 0.82758 0.0
C554 C 0.84351 0.75961 0.79557 0.0
C555 C 0.86504 0.76796 0.8014 0.0
C556 C 0.87782 0.77137 0.77769 0.0
C557 C 0.86925 0.76659 0.74766 0.0
C558 C 0.84743 0.75876 0.74191 0.0
C559 C 0.83467 0.75529 0.76569 0.0
C560 C 0.8579 0.7248 0.8309 0.0
C561 C 0.87712 0.72649 0.85062 0.0
C562 C 0.89593 0.71496 0.84357 0.0
C563 C 0.89584 0.70156 0.81664 0.0
C564 C 0.8765 0.6999 0.79696 0.0
C565 C 0.85769 0.71139 0.80407 0.0
C566 C 0.83344 0.71427 0.88067 0.0
C567 C 0.84087 0.71852 0.91111 0.0
C568 C 0.84507 0.70163 0.92914 0.0
C569 C 0.8421 0.6802 0.91691 0.0
C570 C 0.8358 0.67605 0.88598 0.0
C571 C 0.83142 0.69296 0.86803 0.0
C572 C 0.79448 0.7381 0.89493 0.0
C573 C 0.79414 0.75248 0.92073 0.0
C574 C 0.78246 0.74731 0.94479 0.0
C575 C 0.77093 0.7276 0.94348 0.0
C576 C 0.77133 0.71324 0.91754 0.0
C577 C 0.78296 0.71847 0.89346 0.0
C578 C 0.77916 0.77212 0.85879 0.0
C579 C 0.78016 0.79381 0.87002 0.0
C580 C 0.76097 0.80451 0.87764 0.0
C581 C 0.74044 0.79364 0.87435 0.0
C582 C 0.73956 0.77195 0.86271 0.0
C583 C 0.75869 0.76136 0.85487 0.0
C584 C 0.80406 0.78349 0.80968 0.0
C585 C 0.81687 0.80234 0.81106 0.0
C586 C 0.80896 0.81993 0.7964 0.0
C587 C 0.788 0.819 0.78053 0.0
C588 C 0.77541 0.79995 0.77861 0.0
C589 C 0.7835 0.78224 0.79285 0.0
C590 C 0.91588 0.6894 0.80918 0.0
C591 C 0.75855 0.722 0.96902 0.0
C592 C 0.03665 0.41274 0.5715 0.0
C593 C 0.03916 0.43479 0.57818 0.0
C594 C 0.01995 0.44389 0.56732 0.0
C595 C 0.00695 0.42702 0.55431 0.0
N596 N 0.0168 0.4079 0.5563 0.0
Co597 Co 0.00501 0.3796 0.53812 0.0
N598 N 0.98323 0.39333 0.51037 0.0
C599 C 0.97699 0.41403 0.51328 0.0
C600 C 0.96108 0.41894 0.49146 0.0
C601 C 0.95673 0.40008 0.47398 0.0
C602 C 0.97031 0.38462 0.48616 0.0
N603 N 0.99345 0.35115 0.52014 0.0
C604 C 0.98022 0.34599 0.49465 0.0
C605 C 0.97639 0.32393 0.49038 0.0
C606 C 0.98689 0.31517 0.51462 0.0
C607 C 0.99672 0.33222 0.53214 0.0
N608 N 0.02657 0.36598 0.56604 0.0
C609 C 0.02545 0.34583 0.57433 0.0
C610 C 0.04252 0.34122 0.59475 0.0
C611 C 0.05514 0.35964 0.59953 0.0
C612 C 0.04507 0.37443 0.58148 0.0
N613 N 0.98342 0.37971 0.56812 0.0
C614 C 0.95481 0.3723 0.61182 0.0
C615 C 0.97572 0.38146 0.62014 0.0
C616 C 0.9898 0.38506 0.59789 0.0
C617 C 0.94789 0.36852 0.58124 0.0
C618 C 0.96236 0.3725 0.55978 0.0
N619 N 0.02672 0.37927 0.50838 0.0
C620 C 0.05584 0.36112 0.4836 0.0
C621 C 0.06019 0.37951 0.46915 0.0
C622 C 0.04704 0.39762 0.47418 0.0
C623 C 0.03039 0.39717 0.49385 0.0
C624 C 0.03905 0.36132 0.50302 0.0
H625 H 0.02081 0.41144 0.49776 0.0
H626 H 0.03631 0.34702 0.51411 0.0
H627 H 0.00622 0.39116 0.60486 0.0
H628 H 0.95677 0.36874 0.53651 0.0
C629 C 0.9881 0.42883 0.53461 0.0
C630 C 0.05282 0.3966 0.58054 0.0
C631 C 0.96797 0.36151 0.47694 0.0
C632 C 0.01096 0.33079 0.55812 0.0
H633 H 0.05341 0.44352 0.58917 0.0
H634 H 0.01652 0.46088 0.56721 0.0
H635 H 0.95366 0.43441 0.48842 0.0
H636 H 0.94443 0.39785 0.45504 0.0
H637 H 0.96626 0.3152 0.47226 0.0
H638 H 0.98743 0.29835 0.5188 0.0
H639 H 0.04598 0.32601 0.60397 0.0
H640 H 0.07006 0.3619 0.61448 0.0
H641 H 0.98159 0.3847 0.64363 0.0
H642 H 0.93164 0.36186 0.57395 0.0
H643 H 0.06535 0.34664 0.47997 0.0
H644 H 0.04993 0.41224 0.46362 0.0
C645 C 0.70502 0.04296 0.67285 0.0
C646 C 0.68477 0.04788 0.68374 0.0
C647 C 0.66985 0.03333 0.6692 0.0
C648 C 0.68178 0.02042 0.6503 0.0
N649 N 0.70348 0.0257 0.65218 0.0
Co650 Co 0.72668 0.01163 0.62804 0.0
N651 N 0.70409 0.99308 0.60252 0.0
C652 C 0.68196 0.9934 0.60414 0.0
C653 C 0.67065 0.9789 0.58368 0.0
C654 C 0.68648 0.96867 0.56808 0.0
C655 C 0.70664 0.97756 0.57999 0.0
N656 N 0.75007 0.9969 0.60495 0.0
C657 C 0.74836 0.98051 0.58295 0.0
C658 C 0.76889 0.97457 0.57367 0.0
C659 C 0.78415 0.98735 0.59083 0.0
C660 C 0.77215 1.00035 0.60946 0.0
N661 N 0.74914 0.031 0.65238 0.0
C662 C 0.7712 0.03137 0.65014 0.0
C663 C 0.78221 0.0472 0.66872 0.0
C664 C 0.76616 0.05798 0.68318 0.0
C665 C 0.74622 0.04804 0.67244 0.0
N666 N 0.73043 0.98951 0.65732 0.0
C667 C 0.73729 0.95428 0.69186 0.0
C668 C 0.75444 0.96869 0.68914 0.0
C669 C 0.75068 0.98605 0.67189 0.0
C670 C 0.71636 0.95842 0.67862 0.0
C671 C 0.71324 0.9762 0.66193 0.0
N672 N 0.72296 0.03355 0.59875 0.0
C673 C 0.73867 0.05677 0.56551 0.0
C674 C 0.71811 0.06583 0.55894 0.0
C675 C 0.69993 0.0584 0.57223 0.0
C676 C 0.70266 0.04214 0.59169 0.0
C677 C 0.74075 0.04087 0.58553 0.0
H678 H 0.68815 0.0369 0.60093 0.0
H679 H 0.75696 0.03494 0.59023 0.0
H680 H 0.76464 0.996 0.67003 0.0
H681 H 0.69689 0.97847 0.65243 0.0
C682 C 0.67259 0.00583 0.62717 0.0
C683 C 0.72492 0.056 0.68096 0.0
C684 C 0.7278 0.9699 0.57037 0.0
C685 C 0.78104 0.01664 0.6303 0.0
H686 H 0.68097 0.06111 0.69964 0.0
H687 H 0.65219 0.03301 0.67088 0.0
H688 H 0.65305 0.97563 0.58112 0.0
H689 H 0.68354 0.95573 0.55049 0.0
H690 H 0.77249 0.96224 0.5563 0.0
H691 H 0.80188 0.98728 0.58974 0.0
H692 H 0.79976 0.05072 0.67107 0.0
H693 H 0.76877 0.07185 0.69936 0.0
H694 H 0.77095 0.96605 0.69915 0.0
H695 H 0.70252 0.94781 0.68074 0.0
H696 H 0.7532 0.06231 0.55581 0.0
H697 H 0.68369 0.06502 0.56748 0.0
C698 C 0.04742 0.82976 0.5663 0.0
C699 C 0.04969 0.85107 0.57809 0.0
C700 C 0.03792 0.86319 0.55837 0.0
C701 C 0.02874 0.84871 0.53598 0.0
N702 N 0.03374 0.8282 0.54073 0.0
Co703 Co 0.02245 0.8023 0.51538 0.0
N704 N 0.99854 0.81875 0.49558 0.0
C705 C 0.99786 0.84016 0.49431 0.0
C706 C 0.97863 0.84667 0.47953 0.0
C707 C 0.96655 0.82815 0.47115 0.0
C708 C 0.97918 0.8114 0.48137 0.0
N709 N 0.01101 0.77655 0.48994 0.0
C710 C 0.99053 0.77279 0.47632 0.0
C711 C 0.9889 0.75247 0.46113 0.0
C712 C 0.00929 0.74326 0.46561 0.0
C713 C 0.02211 0.75847 0.48322 0.0
N714 N 0.04646 0.78567 0.53484 0.0
C715 C 0.05397 0.76661 0.5236 0.0
C716 C 0.07167 0.75942 0.54084 0.0
C717 C 0.07571 0.77503 0.56412 0.0
C718 C 0.0601 0.79096 0.55993 0.0
N719 N 0.00307 0.79587 0.54616 0.0
C720 C 0.97308 0.78648 0.58744 0.0
C721 C 0.98667 0.77045 0.57543 0.0
C722 C 0.00151 0.77546 0.55472 0.0
C723 C 0.97515 0.80736 0.57881 0.0
C724 C 0.99029 0.81173 0.55835 0.0
N725 N 0.04179 0.80886 0.48447 0.0
C726 C 0.0773 0.81999 0.47096 0.0
C727 C 0.06938 0.8191 0.44062 0.0
C728 C 0.04736 0.81291 0.43259 0.0
C729 C 0.03388 0.8077 0.45483 0.0
C730 C 0.06325 0.81495 0.49249 0.0
H731 H 0.01702 0.80283 0.44807 0.0
H732 H 0.06979 0.81617 0.51568 0.0
H733 H 0.01147 0.76277 0.54527 0.0
H734 H 0.99141 0.82794 0.55208 0.0
C735 C 0.01267 0.85345 0.5132 0.0
C736 C 0.06054 0.81193 0.5778 0.0
C737 C 0.97291 0.78864 0.47671 0.0
C738 C 0.04246 0.75489 0.49896 0.0
H739 H 0.05921 0.85732 0.5985 0.0
H740 H 0.03571 0.88042 0.56069 0.0
H741 H 0.97336 0.86298 0.47689 0.0
H742 H 0.95025 0.82712 0.45934 0.0
H743 H 0.9745 0.74506 0.44844 0.0
H744 H 0.0138 0.72702 0.45831 0.0
H745 H 0.08044 0.74451 0.53714 0.0
H746 H 0.0891 0.77488 0.5816 0.0
H747 H 0.98553 0.75408 0.58151 0.0
H748 H 0.96523 0.8203 0.58797 0.0
H749 H 0.09416 0.82496 0.47812 0.0
H750 H 0.04067 0.81191 0.4093 0.0
C751 C 0.30892 0.11422 0.52416 0.0
C752 C 0.32845 0.10277 0.52443 0.0
C753 C 0.34157 0.11223 0.50589 0.0
C754 C 0.32932 0.12877 0.49527 0.0
N755 N 0.30929 0.13069 0.50625 0.0
Co756 Co 0.28557 0.15146 0.49466 0.0
N757 N 0.3046 0.16496 0.46661 0.0
C758 C 0.32583 0.16016 0.46223 0.0
C759 C 0.33512 0.17285 0.44302 0.0
C760 C 0.31894 0.1868 0.43487 0.0
C761 C 0.30058 0.18169 0.44948 0.0
N762 N 0.26141 0.17144 0.48195 0.0
C763 C 0.26112 0.18695 0.46244 0.0
C764 C 0.24061 0.19661 0.45946 0.0
C765 C 0.22759 0.18711 0.47808 0.0
C766 C 0.24075 0.17214 0.49113 0.0
N767 N 0.2669 0.13872 0.52378 0.0
C768 C 0.24656 0.14512 0.53068 0.0
C769 C 0.23787 0.1335 0.55163 0.0
C770 C 0.25353 0.11869 0.55842 0.0
C771 C 0.27089 0.12208 0.541 0.0
N772 N 0.2972 0.17301 0.52742 0.0
C773 C 0.31342 0.20361 0.57418 0.0
C774 C 0.29085 0.20175 0.56527 0.0
C775 C 0.28317 0.18642 0.54229 0.0
C776 C 0.32776 0.1899 0.5591 0.0
C777 C 0.31938 0.17493 0.53589 0.0
N778 N 0.27403 0.12977 0.46218 0.0
C779 C 0.24572 0.1039 0.44232 0.0
C780 C 0.25992 0.09423 0.42242 0.0
C781 C 0.28075 0.10345 0.42126 0.0
C782 C 0.28746 0.12109 0.44126 0.0
C783 C 0.25294 0.12176 0.46154 0.0
H784 H 0.30382 0.12695 0.44004 0.0
H785 H 0.24137 0.1284 0.47629 0.0
H786 H 0.26579 0.18584 0.53692 0.0
H787 H 0.33121 0.16512 0.52519 0.0
C788 C 0.33628 0.14305 0.47551 0.0
C789 C 0.29035 0.1085 0.54072 0.0
C790 C 0.2799 0.1935 0.44684 0.0
C791 C 0.23498 0.16015 0.51431 0.0
H792 H 0.33268 0.0889 0.53658 0.0
H793 H 0.35802 0.10752 0.50061 0.0
H794 H 0.35168 0.17205 0.4358 0.0
H795 H 0.32053 0.19939 0.41998 0.0
H796 H 0.23569 0.20946 0.44567 0.0
H797 H 0.21074 0.19108 0.48225 0.0
H798 H 0.22172 0.13505 0.56007 0.0
H799 H 0.25212 0.10641 0.57385 0.0
H800 H 0.27903 0.2123 0.57565 0.0
H801 H 0.34538 0.19056 0.56526 0.0
H802 H 0.22925 0.09745 0.44344 0.0
H803 H 0.29222 0.09645 0.406 0.0
C804 C 0.55731 0.8676 0.05759 0.0
C805 C 0.56884 0.88415 0.07499 0.0
C806 C 0.56528 0.90231 0.06048 0.0
C807 C 0.55197 0.89586 0.03507 0.0
N808 N 0.54658 0.87469 0.0326 0.0
Co809 Co 0.52884 0.85831 0.99816 0.0
N810 N 0.52352 0.88507 0.97694 0.0
C811 C 0.53123 0.90511 0.98602 0.0
C812 C 0.52297 0.92049 0.96818 0.0
C813 C 0.50865 0.90972 0.9469 0.0
C814 C 0.50914 0.88831 0.95299 0.0
N815 N 0.51155 0.84187 0.96346 0.0
C816 C 0.49916 0.84931 0.94015 0.0
C817 C 0.48909 0.83273 0.92118 0.0
C818 C 0.4948 0.81409 0.93355 0.0
C819 C 0.50804 0.82038 0.95917 0.0
N820 N 0.53346 0.83161 0.01965 0.0
C821 C 0.52557 0.81162 0.01035 0.0
C822 C 0.53107 0.79664 0.03026 0.0
C823 C 0.54335 0.80765 0.05357 0.0
C824 C 0.54477 0.82878 0.04636 0.0
N825 N 0.5013 0.86382 0.01828 0.0
C826 C 0.46177 0.87175 0.04568 0.0
C827 C 0.4653 0.852 0.02988 0.0
C828 C 0.4851 0.84834 0.01669 0.0
C829 C 0.47831 0.88751 0.0476 0.0
C830 C 0.49775 0.8833 0.03359 0.0
N831 N 0.55654 0.85274 0.978 0.0
C832 C 0.58179 0.82758 0.95538 0.0
C833 C 0.59729 0.8439 0.95357 0.0
C834 C 0.59169 0.86489 0.96326 0.0
C835 C 0.57137 0.86892 0.97515 0.0
C836 C 0.56182 0.83229 0.9676 0.0
H837 H 0.56824 0.88522 0.98227 0.0
H838 H 0.5511 0.81898 0.96868 0.0
H839 H 0.48691 0.83284 0.00531 0.0
H840 H 0.50963 0.89606 0.0353 0.0
C841 C 0.54435 0.90925 0.01306 0.0
C842 C 0.55785 0.84529 0.06502 0.0
C843 C 0.49449 0.87185 0.93712 0.0
C844 C 0.51431 0.80711 0.98194 0.0
H845 H 0.57908 0.8832 0.09578 0.0
H846 H 0.57187 0.91827 0.06742 0.0
H847 H 0.52611 0.93765 0.97122 0.0
H848 H 0.4984 0.91692 0.92962 0.0
H849 H 0.47783 0.83412 0.9014 0.0
H850 H 0.48882 0.79804 0.92589 0.0
H851 H 0.52706 0.77964 0.02782 0.0
H852 H 0.55079 0.80082 0.07337 0.0
H853 H 0.453 0.83925 0.02818 0.0
H854 H 0.47616 0.90309 0.05954 0.0
H855 H 0.58501 0.81111 0.94745 0.0
H856 H 0.60311 0.87814 0.96241 0.0
C857 C 0.20875 0.67046 0.02454 0.0
C858 C 0.18653 0.67577 0.02321 0.0
C859 C 0.17759 0.66865 0.99488 0.0
C860 C 0.19475 0.65943 0.9805 0.0
N861 N 0.21382 0.66018 0.99823 0.0
Co862 Co 0.24258 0.64932 0.98639 0.0
N863 N 0.22816 0.63074 0.9525 0.0
C864 C 0.20778 0.6329 0.93909 0.0
C865 C 0.20238 0.61656 0.91701 0.0
C866 C 0.22052 0.60343 0.91682 0.0
C867 C 0.23592 0.61259 0.93884 0.0
N868 N 0.27121 0.63839 0.97426 0.0
C869 C 0.27526 0.61953 0.95885 0.0
C870 C 0.29764 0.61707 0.95595 0.0
C871 C 0.30787 0.63529 0.9704 0.0
C872 C 0.29113 0.64773 0.98121 0.0
N873 N 0.25722 0.66794 0.02013 0.0
C874 C 0.27856 0.6743 0.02294 0.0
C875 C 0.28391 0.68731 0.04887 0.0
C876 C 0.2647 0.68936 0.06295 0.0
C877 C 0.24858 0.6775 0.04467 0.0
N878 N 0.24085 0.62593 0.01267 0.0
C879 C 0.23939 0.59101 0.04797 0.0
C880 C 0.25883 0.6031 0.04774 0.0
C881 C 0.25915 0.62056 0.03024 0.0
C882 C 0.22056 0.59701 0.03053 0.0
C883 C 0.22167 0.6144 0.0129 0.0
N884 N 0.24448 0.6728 0.96014 0.0
C885 C 0.24097 0.7104 0.9524 0.0
C886 C 0.24914 0.70703 0.92396 0.0
C887 C 0.25449 0.68591 0.91387 0.0
C888 C 0.2519 0.66907 0.93214 0.0
C889 C 0.23893 0.69323 0.97009 0.0
H890 H 0.25623 0.65304 0.9238 0.0
H891 H 0.233 0.69658 0.99203 0.0
H892 H 0.27435 0.62957 0.03061 0.0
H893 H 0.2071 0.61836 0.99912 0.0
C894 C 0.19292 0.64708 0.95259 0.0
C895 C 0.22496 0.67731 0.04975 0.0
C896 C 0.25792 0.60428 0.94642 0.0
C897 C 0.29363 0.66498 0.00356 0.0
H898 H 0.17779 0.68417 0.0407 0.0
H899 H 0.16049 0.66953 0.98618 0.0
H900 H 0.18666 0.61372 0.90399 0.0
H901 H 0.2221 0.58871 0.90258 0.0
H902 H 0.30567 0.60347 0.945 0.0
H903 H 0.32546 0.63836 0.97425 0.0
H904 H 0.29999 0.69393 0.05711 0.0
H905 H 0.26275 0.69871 0.08405 0.0
H906 H 0.27368 0.59916 0.06117 0.0
H907 H 0.20523 0.58801 0.02997 0.0
H908 H 0.23607 0.72622 0.9611 0.0
H909 H 0.26108 0.68236 0.89227 0.0
C910 C 0.49167 0.32821 0.00303 0.0
C911 C 0.49108 0.34976 0.99754 0.0
C912 C 0.50576 0.36027 0.01851 0.0
C913 C 0.51444 0.34461 0.03548 0.0
N914 N 0.50646 0.32464 0.02636 0.0
Co915 Co 0.51387 0.29729 0.04528 0.0
N916 N 0.53446 0.31301 0.07728 0.0
C917 C 0.53931 0.33431 0.08047 0.0
C918 C 0.55459 0.34026 0.10399 0.0
C919 C 0.56008 0.32163 0.1164 0.0
C920 C 0.54771 0.30534 0.09966 0.0
N921 N 0.52102 0.27 0.0645 0.0
C922 C 0.53552 0.26649 0.08821 0.0
C923 C 0.53572 0.24504 0.09413 0.0
C924 C 0.52099 0.23454 0.07315 0.0
C925 C 0.51264 0.25012 0.05575 0.0
N926 N 0.49353 0.28157 0.01294 0.0
C927 C 0.48926 0.26017 0.00912 0.0
C928 C 0.47422 0.25422 0.98528 0.0
C929 C 0.46833 0.27295 0.97331 0.0
C930 C 0.48018 0.28929 0.99064 0.0
N931 N 0.53895 0.29239 0.01989 0.0
C932 C 0.57731 0.28431 0.98972 0.0
C933 C 0.56216 0.26785 0.99232 0.0
C934 C 0.54321 0.27223 0.00723 0.0
C935 C 0.57245 0.30507 0.0013 0.0
C936 C 0.55329 0.30873 0.01607 0.0
N937 N 0.48893 0.30208 0.07091 0.0
C938 C 0.4562 0.28906 0.09115 0.0
C939 C 0.45393 0.30862 0.10817 0.0
C940 C 0.46943 0.3249 0.10602 0.0
C941 C 0.48653 0.32137 0.08728 0.0
C942 C 0.47369 0.28614 0.07295 0.0
H943 H 0.49763 0.33449 0.08647 0.0
H944 H 0.47448 0.27085 0.06068 0.0
H945 H 0.53248 0.25894 0.00865 0.0
H946 H 0.55072 0.32483 0.02476 0.0
C947 C 0.52959 0.34826 0.06061 0.0
C948 C 0.47728 0.31195 0.98613 0.0
C949 C 0.54989 0.28276 0.1051 0.0
C950 C 0.49824 0.24635 0.02979 0.0
H951 H 0.48081 0.35715 0.98043 0.0
H952 H 0.50937 0.37735 0.02142 0.0
H953 H 0.56122 0.35619 0.11095 0.0
H954 H 0.57212 0.32017 0.13532 0.0
H955 H 0.5458 0.23772 0.11149 0.0
H956 H 0.51725 0.21748 0.07041 0.0
H957 H 0.46777 0.23826 0.97808 0.0
H958 H 0.45625 0.27447 0.95445 0.0
H959 H 0.56496 0.25158 0.98304 0.0
H960 H 0.58369 0.31838 0.99982 0.0
H961 H 0.4444 0.27606 0.09152 0.0
H962 H 0.46858 0.3403 0.11897 0.0
C963 C 0.79006 0.55304 0.16987 0.0
C964 C 0.77023 0.56306 0.17517 0.0
C965 C 0.75453 0.55329 0.15493 0.0
C966 C 0.7656 0.53788 0.13862 0.0
N967 N 0.7874 0.53702 0.14745 0.0
Co968 Co 0.80972 0.51714 0.12988 0.0
N969 N 0.78714 0.50445 0.09785 0.0
C970 C 0.76581 0.51036 0.09318 0.0
C971 C 0.75419 0.49839 0.06998 0.0
C972 C 0.76887 0.4838 0.05933 0.0
C973 C 0.78874 0.48777 0.07669 0.0
N974 N 0.83187 0.4968 0.1128 0.0
C975 C 0.82905 0.48052 0.09071 0.0
C976 C 0.84859 0.46965 0.08659 0.0
C977 C 0.86422 0.4791 0.10727 0.0
C978 C 0.8534 0.49515 0.12271 0.0
N979 N 0.83241 0.5303 0.16141 0.0
C980 C 0.85398 0.52508 0.16533 0.0
C981 C 0.86574 0.53778 0.18769 0.0
C982 C 0.8509 0.55225 0.19836 0.0
C983 C 0.83088 0.54745 0.18187 0.0
N984 N 0.80199 0.49516 0.15679 0.0
C985 C 0.79156 0.46 0.18839 0.0
C986 C 0.81327 0.46755 0.18932 0.0
C987 C 0.81807 0.48507 0.17352 0.0
C988 C 0.77501 0.47103 0.17281 0.0
C989 C 0.78053 0.48854 0.15749 0.0
N990 N 0.81747 0.53897 0.10278 0.0
C991 C 0.84468 0.55767 0.07794 0.0
C992 C 0.82831 0.57012 0.06452 0.0
C993 C 0.80645 0.56676 0.0705 0.0
C994 C 0.80144 0.55119 0.08945 0.0
C995 C 0.83895 0.54237 0.09699 0.0
H996 H 0.78446 0.54933 0.09291 0.0
H997 H 0.8522 0.53357 0.10682 0.0
H998 H 0.83498 0.48977 0.17456 0.0
H999 H 0.76718 0.4961 0.14584 0.0
C1000 C 0.75652 0.52558 0.11299 0.0
C1001 C 0.81114 0.56021 0.18545 0.0
C1002 C 0.80817 0.47438 0.07362 0.0
C1003 C 0.86285 0.50866 0.14696 0.0
H1004 H 0.76754 0.57648 0.19138 0.0
H1005 H 0.73728 0.55747 0.15172 0.0
H1006 H 0.73686 0.49953 0.06254 0.0
H1007 H 0.76508 0.47121 0.04147 0.0
H1008 H 0.85118 0.45609 0.07057 0.0
H1009 H 0.88134 0.47458 0.11094 0.0
H1010 H 0.88314 0.53695 0.19486 0.0
H1011 H 0.85447 0.56515 0.21586 0.0
H1012 H 0.82662 0.45951 0.20127 0.0
H1013 H 0.75787 0.46604 0.17216 0.0
H1014 H 0.86188 0.55989 0.07405 0.0
H1015 H 0.79319 0.57589 0.06023 0.0
C1016 C 0.16434 0.39811 0.37599 0.0
C1017 C 0.16664 0.3812 0.35377 0.0
C1018 C 0.14724 0.39795 0.39518 0.0
C1019 C 0.13212 0.38045 0.39209 0.0
C1020 C 0.13448 0.36322 0.36992 0.0
C1021 C 0.15171 0.36382 0.35097 0.0
C1022 C 0.14518 0.41665 0.41849 0.0
C1023 C 0.11875 0.34421 0.36612 0.0
C1024 C 0.09904 0.37092 0.45812 0.0
C1025 C 0.07861 0.37985 0.44939 0.0
C1026 C 0.1166 0.37099 0.43968 0.0
C1027 C 0.11367 0.38026 0.41188 0.0
C1028 C 0.09313 0.38939 0.40298 0.0
C1029 C 0.07583 0.38907 0.42186 0.0
C1030 C 0.1383 0.36118 0.44998 0.0
C1031 C 0.08941 0.39942 0.37347 0.0
H1032 H 0.17567 0.41172 0.37795 0.0
H1033 H 0.15358 0.35063 0.33403 0.0
H1034 H 0.12905 0.42457 0.41431 0.0
H1035 H 0.14564 0.41084 0.44128 0.0
H1036 H 0.15856 0.42882 0.41835 0.0
H1037 H 0.12304 0.332 0.34804 0.0
H1038 H 0.11884 0.33644 0.38753 0.0
H1039 H 0.10167 0.34969 0.36063 0.0
H1040 H 0.10139 0.36408 0.47961 0.0
H1041 H 0.06001 0.3958 0.41488 0.0
H1042 H 0.15169 0.37347 0.45171 0.0
H1043 H 0.14263 0.3481 0.43319 0.0
H1044 H 0.13783 0.35452 0.47217 0.0
H1045 H 0.10157 0.41262 0.37265 0.0
H1046 H 0.07252 0.40598 0.36998 0.0
H1047 H 0.09199 0.38729 0.35451 0.0
C1048 C 0.74068 0.16606 0.47131 0.0
C1049 C 0.72384 0.1712 0.44995 0.0
C1050 C 0.73794 0.14923 0.48946 0.0
C1051 C 0.71803 0.13708 0.48567 0.0
C1052 C 0.70084 0.14241 0.46437 0.0
C1053 C 0.70389 0.1596 0.44687 0.0
C1054 C 0.7565 0.14424 0.51232 0.0
C1055 C 0.67954 0.12958 0.45946 0.0
C1056 C 0.72411 0.08093 0.51056 0.0
C1057 C 0.71596 0.08341 0.53898 0.0
C1058 C 0.72391 0.09807 0.49233 0.0
C1059 C 0.71576 0.11821 0.50315 0.0
C1060 C 0.70694 0.12062 0.53154 0.0
C1061 C 0.70699 0.10307 0.54908 0.0
C1062 C 0.7331 0.09482 0.46194 0.0
C1063 C 0.69843 0.14196 0.54396 0.0
H1064 H 0.75601 0.17525 0.47379 0.0
H1065 H 0.69096 0.1636 0.43014 0.0
H1066 H 0.75029 0.1441 0.53494 0.0
H1067 H 0.763 0.128 0.50634 0.0
H1068 H 0.77034 0.15606 0.51367 0.0
H1069 H 0.66746 0.13639 0.44291 0.0
H1070 H 0.68301 0.11278 0.45117 0.0
H1071 H 0.67188 0.12897 0.48103 0.0
H1072 H 0.73088 0.0656 0.50278 0.0
H1073 H 0.70086 0.10493 0.57123 0.0
H1074 H 0.74843 0.10455 0.46207 0.0
H1075 H 0.72113 0.1004 0.44424 0.0
H1076 H 0.73698 0.07772 0.4558 0.0
H1077 H 0.71226 0.15379 0.54804 0.0
H1078 H 0.69072 0.14075 0.56543 0.0
H1079 H 0.68609 0.14836 0.52743 0.0
C1080 C 0.84829 0.79495 0.41998 0.0
C1081 C 0.83767 0.77562 0.40855 0.0
C1082 C 0.86999 0.79516 0.4333 0.0
C1083 C 0.8813 0.77554 0.43558 0.0
C1084 C 0.87029 0.75586 0.42562 0.0
C1085 C 0.84858 0.75613 0.4121 0.0
C1086 C 0.88113 0.8165 0.44368 0.0
C1087 C 0.88175 0.73462 0.42802 0.0
C1088 C 0.94336 0.78106 0.43527 0.0
C1089 C 0.94995 0.78246 0.46604 0.0
C1090 C 0.92108 0.77785 0.42497 0.0
C1091 C 0.90517 0.77595 0.44606 0.0
C1092 C 0.91201 0.77644 0.47717 0.0
C1093 C 0.93442 0.77987 0.48684 0.0
C1094 C 0.91446 0.77761 0.39165 0.0
C1095 C 0.8956 0.77425 0.5003 0.0
H1096 H 0.83977 0.81002 0.41789 0.0
H1097 H 0.84051 0.74114 0.40321 0.0
H1098 H 0.88803 0.81655 0.46743 0.0
H1099 H 0.89513 0.81907 0.4299 0.0
H1100 H 0.86965 0.83021 0.44182 0.0
H1101 H 0.87018 0.72075 0.42252 0.0
H1102 H 0.89495 0.73321 0.41228 0.0
H1103 H 0.88975 0.73368 0.45107 0.0
H1104 H 0.95557 0.78326 0.4194 0.0
H1105 H 0.93976 0.78109 0.51067 0.0
H1106 H 0.90423 0.79185 0.38726 0.0
H1107 H 0.90427 0.76312 0.38379 0.0
H1108 H 0.92898 0.77783 0.37814 0.0
H1109 H 0.88493 0.78862 0.50143 0.0
H1110 H 0.90384 0.77265 0.5231 0.0
H1111 H 0.88468 0.76005 0.49373 0.0
C1112 C 0.26069 0.97849 0.33772 0.0
C1113 C 0.24027 0.97067 0.32405 0.0
C1114 C 0.26258 0.99873 0.35386 0.0
C1115 C 0.24367 0.01172 0.3559 0.0
C1116 C 0.223 0.00403 0.34216 0.0
C1117 C 0.2215 0.98352 0.32657 0.0
C1118 C 0.28489 0.00628 0.36848 0.0
C1119 C 0.20254 0.01757 0.34366 0.0
C1120 C 0.24679 0.05625 0.41927 0.0
C1121 C 0.25376 0.07374 0.40468 0.0
C1122 C 0.24291 0.03603 0.4035 0.0
C1123 C 0.24573 0.03342 0.37231 0.0
C1124 C 0.25196 0.05126 0.35725 0.0
C1125 C 0.25615 0.07121 0.37373 0.0
C1126 C 0.23674 0.0173 0.42046 0.0
C1127 C 0.25478 0.04915 0.32392 0.0
H1128 H 0.27539 0.96895 0.33533 0.0
H1129 H 0.20562 0.97754 0.31634 0.0
H1130 H 0.29023 0.02088 0.35843 0.0
H1131 H 0.28381 0.01071 0.39286 0.0
H1132 H 0.29776 0.99385 0.36582 0.0
H1133 H 0.18774 0.0093 0.33159 0.0
H1134 H 0.1992 0.02164 0.36747 0.0
H1135 H 0.20516 0.03294 0.33366 0.0
H1136 H 0.24523 0.05819 0.44332 0.0
H1137 H 0.26147 0.08481 0.3625 0.0
H1138 H 0.25006 0.0052 0.41995 0.0
H1139 H 0.22147 0.0093 0.40952 0.0
H1140 H 0.23413 0.02227 0.44434 0.0
H1141 H 0.26886 0.03847 0.3193 0.0
H1142 H 0.25789 0.06491 0.31518 0.0
H1143 H 0.23982 0.04165 0.31128 0.0
C1144 C 0.17723 0.82864 0.66996 0.0
C1145 C 0.17736 0.84523 0.69335 0.0
C1146 C 0.15739 0.82041 0.65501 0.0
C1147 C 0.13716 0.82969 0.66243 0.0
C1148 C 0.13694 0.84545 0.68706 0.0
C1149 C 0.15696 0.85254 0.70275 0.0
C1150 C 0.15827 0.80279 0.62982 0.0
C1151 C 0.11578 0.85618 0.69525 0.0
C1152 C 0.09566 0.8319 0.59494 0.0
C1153 C 0.07955 0.81699 0.60057 0.0
C1154 C 0.11391 0.83677 0.6156 0.0
C1155 C 0.11696 0.82537 0.64163 0.0
C1156 C 0.10114 0.80971 0.64699 0.0
C1157 C 0.08232 0.80602 0.62664 0.0
C1158 C 0.12999 0.85406 0.60937 0.0
C1159 C 0.1045 0.79634 0.6735 0.0
H1160 H 0.19258 0.82271 0.66199 0.0
H1161 H 0.15653 0.86457 0.72159 0.0
H1162 H 0.1446 0.791 0.63017 0.0
H1163 H 0.15639 0.80985 0.60784 0.0
H1164 H 0.17421 0.79415 0.63128 0.0
H1165 H 0.11803 0.86644 0.71685 0.0
H1166 H 0.10987 0.86642 0.6772 0.0
H1167 H 0.10266 0.84407 0.69696 0.0
H1168 H 0.09393 0.83985 0.57427 0.0
H1169 H 0.07008 0.79412 0.63057 0.0
H1170 H 0.14602 0.84676 0.60443 0.0
H1171 H 0.13309 0.86572 0.62946 0.0
H1172 H 0.12388 0.86297 0.58995 0.0
H1173 H 0.11937 0.78628 0.6711 0.0
H1174 H 0.09012 0.78562 0.67535 0.0
H1175 H 0.1075 0.80679 0.69478 0.0
C1176 C 0.34894 0.29409 0.7093 0.0
C1177 C 0.33793 0.31249 0.7005 0.0
C1178 C 0.34951 0.27554 0.68927 0.0
C1179 C 0.33836 0.27537 0.66017 0.0
C1180 C 0.32838 0.29434 0.65067 0.0
C1181 C 0.32838 0.31269 0.67092 0.0
C1182 C 0.36087 0.25579 0.69987 0.0
C1183 C 0.31613 0.29481 0.61994 0.0
C1184 C 0.34132 0.23171 0.59637 0.0
C1185 C 0.32172 0.22012 0.59849 0.0
C1186 C 0.3479 0.24889 0.61761 0.0
C1187 C 0.33432 0.25487 0.64106 0.0
C1188 C 0.31516 0.24256 0.64421 0.0
C1189 C 0.30929 0.22519 0.62314 0.0
C1190 C 0.36874 0.26132 0.61401 0.0
C1191 C 0.30011 0.2485 0.66879 0.0
H1192 H 0.35641 0.29397 0.73215 0.0
H1193 H 0.31951 0.32676 0.66418 0.0
H1194 H 0.34829 0.244 0.70497 0.0
H1195 H 0.37048 0.24794 0.68202 0.0
H1196 H 0.37211 0.25965 0.72051 0.0
H1197 H 0.31114 0.31132 0.61504 0.0
H1198 H 0.32646 0.2882 0.60214 0.0
H1199 H 0.30105 0.28456 0.61866 0.0
H1200 H 0.35106 0.228 0.57741 0.0
H1201 H 0.29452 0.21591 0.62553 0.0
H1202 H 0.37836 0.26486 0.63608 0.0
H1203 H 0.36438 0.27693 0.6051 0.0
H1204 H 0.37937 0.25245 0.59824 0.0
H1205 H 0.30964 0.24984 0.69112 0.0
H1206 H 0.28653 0.23657 0.66911 0.0
H1207 H 0.29271 0.26443 0.66547 0.0
C1208 C 0.86328 0.33557 0.71433 0.0
C1209 C 0.87222 0.32528 0.73918 0.0
C1210 C 0.87695 0.34442 0.69476 0.0
C1211 C 0.90012 0.34261 0.69983 0.0
C1212 C 0.9093 0.33238 0.72492 0.0
C1213 C 0.89523 0.32394 0.74442 0.0
C1214 C 0.86657 0.3553 0.66827 0.0
C1215 C 0.93396 0.32997 0.73083 0.0
C1216 C 0.93236 0.34398 0.63119 0.0
C1217 C 0.94095 0.36499 0.63468 0.0
C1218 C 0.91936 0.33641 0.65253 0.0
C1219 C 0.91463 0.3503 0.6778 0.0
C1220 C 0.92333 0.37154 0.68154 0.0
C1221 C 0.93659 0.3786 0.65998 0.0
C1222 C 0.91065 0.31356 0.64798 0.0
C1223 C 0.91834 0.38686 0.70802 0.0
H1224 H 0.84552 0.33637 0.70979 0.0
H1225 H 0.90228 0.31632 0.76382 0.0
H1226 H 0.87378 0.37164 0.66803 0.0
H1227 H 0.87013 0.34605 0.64696 0.0
H1228 H 0.84838 0.35669 0.66871 0.0
H1229 H 0.93848 0.32216 0.75183 0.0
H1230 H 0.94049 0.32019 0.71171 0.0
H1231 H 0.94225 0.34594 0.73253 0.0
H1232 H 0.93608 0.33333 0.61186 0.0
H1233 H 0.94323 0.39486 0.66259 0.0
H1234 H 0.89234 0.31351 0.64584 0.0
H1235 H 0.91597 0.3048 0.66785 0.0
H1236 H 0.91644 0.30466 0.62758 0.0
H1237 H 0.90026 0.38933 0.70779 0.0
H1238 H 0.92663 0.40274 0.70785 0.0
H1239 H 0.92372 0.37991 0.7294 0.0
C1240 C 0.75806 0.84567 0.77347 0.0
C1241 C 0.77898 0.83817 0.76701 0.0
C1242 C 0.74971 0.86446 0.762 0.0
C1243 C 0.76251 0.87575 0.74335 0.0
C1244 C 0.78349 0.86798 0.73632 0.0
C1245 C 0.79156 0.84933 0.74846 0.0
C1246 C 0.72741 0.87246 0.77027 0.0
C1247 C 0.79746 0.87945 0.71613 0.0
C1248 C 0.7353 0.91443 0.69139 0.0
C1249 C 0.74173 0.9343 0.7066 0.0
C1250 C 0.74152 0.89517 0.70344 0.0
C1251 C 0.75422 0.8959 0.73149 0.0
C1252 C 0.76 0.91595 0.7475 0.0
C1253 C 0.75382 0.93496 0.73471 0.0
C1254 C 0.7353 0.87407 0.68558 0.0
C1255 C 0.77325 0.91732 0.77769 0.0
H1256 H 0.74848 0.8371 0.78814 0.0
H1257 H 0.80768 0.84338 0.74337 0.0
H1258 H 0.72922 0.88871 0.7824 0.0
H1259 H 0.71629 0.87393 0.74962 0.0
H1260 H 0.71944 0.86164 0.78474 0.0
H1261 H 0.81306 0.87087 0.71207 0.0
H1262 H 0.78806 0.88108 0.69412 0.0
H1263 H 0.80165 0.89591 0.72642 0.0
H1264 H 0.72618 0.91397 0.66945 0.0
H1265 H 0.75865 0.95038 0.74649 0.0
H1266 H 0.72676 0.86338 0.69958 0.0
H1267 H 0.75046 0.86574 0.67894 0.0
H1268 H 0.72441 0.87628 0.66491 0.0
H1269 H 0.76533 0.90738 0.79329 0.0
H1270 H 0.77497 0.93409 0.78817 0.0
H1271 H 0.79 0.91082 0.77499 0.0
C1272 C 0.88329 0.75341 0.69827 0.0
C1273 C 0.88333 0.76921 0.72256 0.0
C1274 C 0.8972 0.75525 0.67506 0.0
C1275 C 0.91155 0.77327 0.67625 0.0
C1276 C 0.9115 0.78938 0.70052 0.0
C1277 C 0.89736 0.78718 0.72333 0.0
C1278 C 0.89676 0.73778 0.6495 0.0
C1279 C 0.92654 0.80887 0.70253 0.0
C1280 C 0.96316 0.77005 0.63372 0.0
C1281 C 0.95688 0.78171 0.60905 0.0
C1282 C 0.9484 0.76679 0.65547 0.0
C1283 C 0.92683 0.77526 0.65231 0.0
C1284 C 0.92019 0.78644 0.62692 0.0
C1285 C 0.93533 0.78958 0.60563 0.0
C1286 C 0.9561 0.75484 0.6823 0.0
C1287 C 0.89726 0.79549 0.62256 0.0
H1288 H 0.87271 0.73933 0.69773 0.0
H1289 H 0.89726 0.79959 0.7418 0.0
H1290 H 0.89329 0.74478 0.62765 0.0
H1291 H 0.91316 0.7301 0.64911 0.0
H1292 H 0.88412 0.72517 0.65139 0.0
H1293 H 0.92442 0.81998 0.72281 0.0
H1294 H 0.94402 0.80376 0.70315 0.0
H1295 H 0.92323 0.81779 0.68226 0.0
H1296 H 0.97986 0.76407 0.6365 0.0
H1297 H 0.93034 0.79832 0.58631 0.0
H1298 H 0.94462 0.7413 0.68444 0.0
H1299 H 0.95602 0.76576 0.7032 0.0
H1300 H 0.97301 0.7484 0.6807 0.0
H1301 H 0.88469 0.78269 0.62356 0.0
H1302 H 0.89431 0.80269 0.60074 0.0
H1303 H 0.89477 0.80805 0.64103 0.0
C1304 C 0.30428 0.99826 0.62139 0.0
C1305 C 0.2874 0.99621 0.64059 0.0
C1306 C 0.30553 0.01622 0.60459 0.0
C1307 C 0.2894 0.03246 0.60679 0.0
C1308 C 0.27222 0.03038 0.62594 0.0
C1309 C 0.27148 0.01236 0.64266 0.0
C1310 C 0.32422 0.01789 0.58466 0.0
C1311 C 0.25456 0.04719 0.62874 0.0
C1312 C 0.30216 0.08883 0.58574 0.0
C1313 C 0.29102 0.08871 0.55709 0.0
C1314 C 0.30204 0.07053 0.60201 0.0
C1315 C 0.29049 0.05171 0.58923 0.0
C1316 C 0.27946 0.05153 0.56 0.0
C1317 C 0.27981 0.07009 0.54431 0.0
C1318 C 0.31396 0.07146 0.63307 0.0
C1319 C 0.26702 0.03184 0.54548 0.0
H1320 H 0.31676 0.98595 0.6199 0.0
H1321 H 0.25823 0.01076 0.65714 0.0
H1322 H 0.31752 0.01909 0.56104 0.0
H1323 H 0.33406 0.03274 0.59179 0.0
H1324 H 0.33539 0.00388 0.58533 0.0
H1325 H 0.2422 0.04311 0.64436 0.0
H1326 H 0.26221 0.06299 0.63699 0.0
H1327 H 0.24585 0.04903 0.60632 0.0
H1328 H 0.31073 0.10336 0.59553 0.0
H1329 H 0.27117 0.07015 0.52212 0.0
H1330 H 0.32614 0.05831 0.63426 0.0
H1331 H 0.30199 0.06903 0.64994 0.0
H1332 H 0.32272 0.08704 0.6394 0.0
H1333 H 0.27814 0.0178 0.5446 0.0
H1334 H 0.25995 0.03407 0.52226 0.0
H1335 H 0.25339 0.02794 0.5592 0.0
C1336 C 0.15997 0.39101 0.68673 0.0
C1337 C 0.17809 0.40426 0.68288 0.0
C1338 C 0.14028 0.39155 0.66818 0.0
C1339 C 0.13813 0.40643 0.64602 0.0
C1340 C 0.15594 0.42042 0.64258 0.0
C1341 C 0.17584 0.41889 0.66062 0.0
C1342 C 0.12182 0.376 0.67216 0.0
C1343 C 0.15397 0.43698 0.61985 0.0
C1344 C 0.09357 0.39228 0.58294 0.0
C1345 C 0.07527 0.40258 0.59444 0.0
C1346 C 0.11446 0.39413 0.59885 0.0
C1347 C 0.11715 0.40708 0.62652 0.0
C1348 C 0.09898 0.41863 0.63721 0.0
C1349 C 0.0781 0.41576 0.62145 0.0
C1350 C 0.13319 0.38094 0.58718 0.0
C1351 C 0.10129 0.4331 0.66614 0.0
H1352 H 0.16104 0.38012 0.70436 0.0
H1353 H 0.18968 0.42904 0.65694 0.0
H1354 H 0.10721 0.38496 0.67946 0.0
H1355 H 0.11668 0.36673 0.6504 0.0
H1356 H 0.12668 0.36449 0.68908 0.0
H1357 H 0.16883 0.44755 0.62124 0.0
H1358 H 0.15148 0.42889 0.59675 0.0
H1359 H 0.13932 0.44713 0.62344 0.0
H1360 H 0.09121 0.38177 0.5623 0.0
H1361 H 0.06384 0.42309 0.63099 0.0
H1362 H 0.13728 0.3681 0.60233 0.0
H1363 H 0.14823 0.39104 0.58708 0.0
H1364 H 0.12894 0.3733 0.56405 0.0
H1365 H 0.10285 0.42318 0.6856 0.0
H1366 H 0.08679 0.4437 0.66848 0.0
H1367 H 0.11641 0.44326 0.66725 0.0
C1368 C 0.72504 0.17632 0.76316 0.0
C1369 C 0.74691 0.18026 0.77508 0.0
C1370 C 0.71862 0.15624 0.7483 0.0
C1371 C 0.73454 0.1399 0.74492 0.0
C1372 C 0.75659 0.14379 0.75714 0.0
C1373 C 0.76246 0.16387 0.77218 0.0
C1374 C 0.69492 0.15257 0.7359 0.0
C1375 C 0.77414 0.12691 0.75367 0.0
C1376 C 0.7204 0.08067 0.7271 0.0
C1377 C 0.72378 0.07788 0.69647 0.0
C1378 C 0.72254 0.1011 0.74289 0.0
C1379 C 0.72859 0.11896 0.72768 0.0
C1380 C 0.73112 0.11625 0.69639 0.0
C1381 C 0.72862 0.09571 0.68114 0.0
C1382 C 0.71947 0.10337 0.77613 0.0
C1383 C 0.73774 0.13479 0.67937 0.0
H1384 H 0.71297 0.18895 0.76553 0.0
H1385 H 0.77945 0.16699 0.78094 0.0
H1386 H 0.69408 0.14959 0.71102 0.0
H1387 H 0.68808 0.13807 0.74467 0.0
H1388 H 0.68434 0.1665 0.74178 0.0
H1389 H 0.79043 0.13239 0.76488 0.0
H1390 H 0.76914 0.11204 0.76335 0.0
H1391 H 0.77603 0.12266 0.72943 0.0
H1392 H 0.71688 0.06675 0.73888 0.0
H1393 H 0.73136 0.09336 0.65744 0.0
H1394 H 0.70868 0.11719 0.78165 0.0
H1395 H 0.73569 0.10662 0.78907 0.0
H1396 H 0.71216 0.08864 0.78372 0.0
H1397 H 0.72679 0.14869 0.68359 0.0
H1398 H 0.7371 0.1304 0.65471 0.0
H1399 H 0.75482 0.14009 0.68742 0.0
C1400 C 0.84699 0.33551 0.39739 0.0
C1401 C 0.84475 0.31351 0.38835 0.0
C1402 C 0.86759 0.34451 0.40849 0.0
C1403 C 0.88624 0.33107 0.41107 0.0
C1404 C 0.8842 0.309 0.40088 0.0
C1405 C 0.86349 0.30051 0.38949 0.0
C1406 C 0.86917 0.36817 0.41873 0.0
C1407 C 0.90362 0.29408 0.40365 0.0
C1408 C 0.94425 0.35478 0.42823 0.0
C1409 C 0.94712 0.35394 0.45946 0.0
C1410 C 0.92433 0.3477 0.41204 0.0
C1411 C 0.90718 0.33947 0.42757 0.0
C1412 C 0.91009 0.33878 0.4592 0.0
C1413 C 0.92995 0.34622 0.47475 0.0
C1414 C 0.92164 0.34898 0.37842 0.0
C1415 C 0.89234 0.32997 0.47663 0.0
H1416 H 0.83254 0.34562 0.39622 0.0
H1417 H 0.86175 0.28344 0.3828 0.0
H1418 H 0.87198 0.37031 0.44363 0.0
H1419 H 0.88341 0.37569 0.40945 0.0
H1420 H 0.85392 0.37685 0.4118 0.0
H1421 H 0.89977 0.27782 0.39229 0.0
H1422 H 0.91805 0.3008 0.39385 0.0
H1423 H 0.9085 0.29246 0.4278 0.0
H1424 H 0.95754 0.36098 0.41661 0.0
H1425 H 0.93219 0.34584 0.499 0.0
H1426 H 0.9068 0.35846 0.37227 0.0
H1427 H 0.91904 0.33262 0.36683 0.0
H1428 H 0.93624 0.35646 0.36989 0.0
H1429 H 0.87698 0.33932 0.47337 0.0
H1430 H 0.89733 0.33047 0.50114 0.0
H1431 H 0.88838 0.31306 0.46808 0.0
C1432 C 0.75909 0.87713 0.44873 0.0
C1433 C 0.74237 0.86157 0.44144 0.0
C1434 C 0.75654 0.89436 0.47044 0.0
C1435 C 0.73671 0.89615 0.48496 0.0
C1436 C 0.71986 0.88037 0.4779 0.0
C1437 C 0.72293 0.86323 0.45628 0.0
C1438 C 0.77497 0.91077 0.47759 0.0
C1439 C 0.69842 0.88182 0.49273 0.0
C1440 C 0.73738 0.93146 0.55855 0.0
C1441 C 0.72872 0.9506 0.54872 0.0
C1442 C 0.73988 0.9135 0.53808 0.0
C1443 C 0.73344 0.91479 0.50713 0.0
C1444 C 0.72425 0.93404 0.49726 0.0
C1445 C 0.72209 0.9518 0.51823 0.0
C1446 C 0.74981 0.89331 0.54947 0.0
C1447 C 0.71703 0.93598 0.46451 0.0
H1448 H 0.7742 0.87581 0.43745 0.0
H1449 H 0.70981 0.85142 0.45037 0.0
H1450 H 0.76905 0.92682 0.47192 0.0
H1451 H 0.78014 0.91205 0.50206 0.0
H1452 H 0.78961 0.90668 0.46501 0.0
H1453 H 0.6872 0.86795 0.48527 0.0
H1454 H 0.70174 0.88254 0.51755 0.0
H1455 H 0.68981 0.89683 0.48741 0.0
H1456 H 0.74254 0.93072 0.58223 0.0
H1457 H 0.71552 0.96675 0.51081 0.0
H1458 H 0.76537 0.88964 0.53883 0.0
H1459 H 0.73839 0.87946 0.5431 0.0
H1460 H 0.75346 0.89478 0.57431 0.0
H1461 H 0.73144 0.93393 0.45089 0.0
H1462 H 0.70943 0.95178 0.46072 0.0
H1463 H 0.70491 0.92307 0.4561 0.0
C1464 C 0.15936 0.86923 0.34723 0.0
C1465 C 0.16091 0.85848 0.3187 0.0
C1466 C 0.14342 0.86314 0.36594 0.0
C1467 C 0.12892 0.84568 0.35601 0.0
C1468 C 0.13019 0.83498 0.327 0.0
C1469 C 0.14611 0.84161 0.30861 0.0
C1470 C 0.14239 0.87512 0.39657 0.0
C1471 C 0.11521 0.81613 0.31578 0.0
C1472 C 0.10539 0.81653 0.41743 0.0
C1473 C 0.08407 0.82496 0.4177 0.0
C1474 C 0.11996 0.82277 0.39697 0.0
C1475 C 0.11312 0.83803 0.37655 0.0
C1476 C 0.09149 0.84637 0.37642 0.0
C1477 C 0.07714 0.83961 0.3969 0.0
C1478 C 0.14277 0.81325 0.3975 0.0
C1479 C 0.08371 0.86284 0.35521 0.0
H1480 H 0.17068 0.8824 0.35494 0.0
H1481 H 0.14746 0.83312 0.28667 0.0
H1482 H 0.12539 0.88092 0.39932 0.0
H1483 H 0.14652 0.86413 0.41437 0.0
H1484 H 0.15397 0.88909 0.40019 0.0
H1485 H 0.11768 0.81015 0.2922 0.0
H1486 H 0.11838 0.80278 0.33036 0.0
H1487 H 0.09768 0.8207 0.31705 0.0
H1488 H 0.11066 0.80502 0.43331 0.0
H1489 H 0.06072 0.84629 0.39728 0.0
H1490 H 0.15538 0.82613 0.40365 0.0
H1491 H 0.14582 0.80588 0.37478 0.0
H1492 H 0.14514 0.80084 0.4138 0.0
H1493 H 0.09409 0.8776 0.3599 0.0
H1494 H 0.06618 0.86723 0.35732 0.0
H1495 H 0.08557 0.85661 0.33159 0.0
C1496 C 0.28525 0.29619 0.35039 0.0
C1497 C 0.26397 0.30362 0.3423 0.0
C1498 C 0.28843 0.27837 0.36745 0.0
C1499 C 0.26992 0.26756 0.37661 0.0
C1500 C 0.24841 0.27494 0.36853 0.0
C1501 C 0.24571 0.29285 0.35158 0.0
C1502 C 0.31164 0.27107 0.3756 0.0
C1503 C 0.22822 0.2639 0.37782 0.0
C1504 C 0.27614 0.20973 0.39729 0.0
C1505 C 0.278 0.2125 0.42878 0.0
C1506 C 0.27365 0.2275 0.38002 0.0
C1507 C 0.27302 0.24853 0.39465 0.0
C1508 C 0.27507 0.25133 0.42656 0.0
C1509 C 0.27749 0.23326 0.44323 0.0
C1510 C 0.27146 0.22376 0.34612 0.0
C1511 C 0.27458 0.27341 0.44308 0.0
H1512 H 0.29948 0.30413 0.34302 0.0
H1513 H 0.22922 0.29859 0.3459 0.0
H1514 H 0.31475 0.27133 0.40041 0.0
H1515 H 0.31369 0.25424 0.36619 0.0
H1516 H 0.3243 0.28132 0.36706 0.0
H1517 H 0.21264 0.27149 0.36956 0.0
H1518 H 0.22784 0.24674 0.36897 0.0
H1519 H 0.2289 0.26434 0.40272 0.0
H1520 H 0.27645 0.19361 0.38622 0.0
H1521 H 0.27891 0.2353 0.46763 0.0
H1522 H 0.28459 0.23277 0.33656 0.0
H1523 H 0.25537 0.22989 0.33708 0.0
H1524 H 0.27259 0.20647 0.33822 0.0
H1525 H 0.28782 0.28371 0.43608 0.0
H1526 H 0.27678 0.27288 0.46791 0.0
H1527 H 0.25861 0.28118 0.43719 0.0
C1528 C 0.72086 0.81799 0.91091 0.0
C1529 C 0.72012 0.80444 0.88411 0.0
C1530 C 0.70148 0.82666 0.92179 0.0
C1531 C 0.68084 0.82146 0.90571 0.0
C1532 C 0.68005 0.8085 0.87809 0.0
C1533 C 0.69969 0.80027 0.86754 0.0
C1534 C 0.70303 0.84064 0.95116 0.0
C1535 C 0.65836 0.80253 0.86029 0.0
C1536 C 0.63011 0.82 0.94954 0.0
C1537 C 0.61916 0.83881 0.94212 0.0
C1538 C 0.65025 0.81434 0.93805 0.0
C1539 C 0.65995 0.82796 0.91897 0.0
C1540 C 0.64936 0.84728 0.91201 0.0
C1541 C 0.62903 0.85244 0.92356 0.0
C1542 C 0.66099 0.79357 0.94601 0.0
C1543 C 0.65934 0.86231 0.89201 0.0
H1544 H 0.7365 0.82118 0.92404 0.0
H1545 H 0.69899 0.79022 0.8465 0.0
H1546 H 0.69341 0.85554 0.94874 0.0
H1547 H 0.69581 0.83194 0.96869 0.0
H1548 H 0.72037 0.84514 0.95913 0.0
H1549 H 0.66067 0.79348 0.83832 0.0
H1550 H 0.64836 0.79247 0.87347 0.0
H1551 H 0.64873 0.81718 0.8561 0.0
H1552 H 0.62292 0.80963 0.96443 0.0
H1553 H 0.62065 0.86692 0.91751 0.0
H1554 H 0.67784 0.79685 0.95699 0.0
H1555 H 0.66267 0.78288 0.92522 0.0
H1556 H 0.65139 0.78487 0.96135 0.0
H1557 H 0.67652 0.86667 0.90085 0.0
H1558 H 0.64971 0.87729 0.89019 0.0
H1559 H 0.66011 0.85416 0.86911 0.0
C1560 C 0.24559 0.80999 0.82716 0.0
C1561 C 0.2664 0.81504 0.81789 0.0
C1562 C 0.24261 0.79243 0.84419 0.0
C1563 C 0.26077 0.77925 0.85183 0.0
C1564 C 0.28176 0.78406 0.84231 0.0
C1565 C 0.28435 0.80193 0.82575 0.0
C1566 C 0.22 0.78803 0.85413 0.0
C1567 C 0.30153 0.77034 0.84973 0.0
C1568 C 0.25878 0.74587 0.91904 0.0
C1569 C 0.25226 0.72548 0.90528 0.0
C1570 C 0.26141 0.76347 0.90198 0.0
C1571 C 0.2579 0.76066 0.8702 0.0
C1572 C 0.25163 0.74012 0.85606 0.0
C1573 C 0.24872 0.72287 0.87372 0.0
C1574 C 0.2679 0.78512 0.91804 0.0
C1575 C 0.24797 0.73636 0.82222 0.0
H1576 H 0.23147 0.81965 0.82085 0.0
H1577 H 0.3006 0.80577 0.81926 0.0
H1578 H 0.21417 0.77174 0.84497 0.0
H1579 H 0.22085 0.78838 0.87904 0.0
H1580 H 0.20763 0.79992 0.84668 0.0
H1581 H 0.31653 0.77574 0.83976 0.0
H1582 H 0.30511 0.77079 0.87449 0.0
H1583 H 0.29792 0.75335 0.84132 0.0
H1584 H 0.26207 0.74813 0.94328 0.0
H1585 H 0.24339 0.70737 0.8627 0.0
H1586 H 0.2554 0.79724 0.91196 0.0
H1587 H 0.28388 0.79054 0.9108 0.0
H1588 H 0.26951 0.78478 0.94291 0.0
H1589 H 0.23441 0.74665 0.81377 0.0
H1590 H 0.24374 0.71933 0.81461 0.0
H1591 H 0.26306 0.74094 0.81179 0.0
C1592 C 0.37071 0.33841 0.87873 0.0
C1593 C 0.37095 0.36011 0.87287 0.0
C1594 C 0.38801 0.32977 0.89647 0.0
C1595 C 0.4059 0.3432 0.9088 0.0
C1596 C 0.4063 0.36511 0.90282 0.0
C1597 C 0.38885 0.37328 0.88479 0.0
C1598 C 0.38711 0.3063 0.90213 0.0
C1599 C 0.42503 0.37995 0.91578 0.0
C1600 C 0.43978 0.32735 0.97838 0.0
C1601 C 0.45857 0.31884 0.966 0.0
C1602 C 0.42239 0.33516 0.95995 0.0
C1603 C 0.42398 0.33445 0.92847 0.0
C1604 C 0.44294 0.32562 0.91589 0.0
C1605 C 0.46009 0.31791 0.93491 0.0
C1606 C 0.40244 0.34442 0.97418 0.0
C1607 C 0.44522 0.32459 0.88246 0.0
H1608 H 0.35704 0.32812 0.86916 0.0
H1609 H 0.38898 0.3901 0.88046 0.0
H1610 H 0.40204 0.29805 0.8945 0.0
H1611 H 0.387 0.30469 0.92662 0.0
H1612 H 0.37226 0.29793 0.89035 0.0
H1613 H 0.42302 0.39648 0.90863 0.0
H1614 H 0.42606 0.38082 0.94073 0.0
H1615 H 0.44096 0.37355 0.90867 0.0
H1616 H 0.43887 0.32809 0.00255 0.0
H1617 H 0.47483 0.31141 0.92562 0.0
H1618 H 0.38727 0.33572 0.96417 0.0
H1619 H 0.40055 0.36151 0.96955 0.0
H1620 H 0.40364 0.34344 0.99894 0.0
H1621 H 0.43105 0.31555 0.87003 0.0
H1622 H 0.46077 0.31676 0.87623 0.0
H1623 H 0.44492 0.34106 0.87491 0.0
C1624 C 0.77412 0.36597 0.97252 0.0
C1625 C 0.79235 0.35571 0.96063 0.0
C1626 C 0.7768 0.38496 0.99174 0.0
C1627 C 0.79822 0.39384 0.99934 0.0
C1628 C 0.81673 0.38335 0.98788 0.0
C1629 C 0.81356 0.36449 0.96857 0.0
C1630 C 0.75666 0.39577 0.00342 0.0
C1631 C 0.83984 0.3923 0.99545 0.0
C1632 C 0.80363 0.45363 0.02311 0.0
C1633 C 0.80631 0.45373 0.05447 0.0
C1634 C 0.80091 0.43422 0.00488 0.0
C1635 C 0.80123 0.41451 0.01844 0.0
C1636 C 0.8044 0.4146 0.05018 0.0
C1637 C 0.80684 0.43428 0.06786 0.0
C1638 C 0.79746 0.4348 0.97114 0.0
C1639 C 0.80512 0.39395 0.06544 0.0
H1640 H 0.75772 0.35921 0.96661 0.0
H1641 H 0.8277 0.35697 0.95894 0.0
H1642 H 0.75841 0.39775 0.02838 0.0
H1643 H 0.7551 0.41208 0.99545 0.0
H1644 H 0.74121 0.38655 0.99596 0.0
H1645 H 0.85254 0.38163 0.98587 0.0
H1646 H 0.84121 0.40826 0.98658 0.0
H1647 H 0.8435 0.39465 0.02022 0.0
H1648 H 0.80335 0.46879 0.01295 0.0
H1649 H 0.80898 0.43454 0.0922 0.0
H1650 H 0.78141 0.42705 0.96268 0.0
H1651 H 0.81056 0.42556 0.96012 0.0
H1652 H 0.79761 0.45145 0.9642 0.0
H1653 H 0.78931 0.38497 0.05997 0.0
H1654 H 0.80807 0.3968 0.0903 0.0
H1655 H 0.8184 0.38354 0.05694 0.0
C1656 C 0.65389 0.2858 0.22217 0.0
C1657 C 0.65952 0.26622 0.23375 0.0
C1658 C 0.63593 0.28712 0.20063 0.0
C1659 C 0.62331 0.26839 0.19046 0.0
C1660 C 0.62905 0.24852 0.20181 0.0
C1661 C 0.64709 0.24767 0.22335 0.0
C1662 C 0.63035 0.30859 0.18893 0.0
C1663 C 0.61592 0.22825 0.19154 0.0
C1664 C 0.56508 0.27815 0.15753 0.0
C1665 C 0.56787 0.27641 0.12674 0.0
C1666 C 0.58288 0.27486 0.17858 0.0
C1667 C 0.60385 0.2698 0.16837 0.0
C1668 C 0.60645 0.26727 0.13709 0.0
C1669 C 0.58834 0.27067 0.11657 0.0
C1670 C 0.57947 0.27766 0.21172 0.0
C1671 C 0.62851 0.26184 0.12536 0.0
H1672 H 0.6636 0.30011 0.2299 0.0
H1673 H 0.65119 0.23255 0.23255 0.0
H1674 H 0.63064 0.30743 0.16408 0.0
H1675 H 0.6134 0.31322 0.19415 0.0
H1676 H 0.64201 0.32155 0.19883 0.0
H1677 H 0.62294 0.21397 0.2019 0.0
H1678 H 0.59863 0.23021 0.19743 0.0
H1679 H 0.6154 0.22519 0.16669 0.0
H1680 H 0.54914 0.28276 0.16509 0.0
H1681 H 0.5903 0.26952 0.09261 0.0
H1682 H 0.58924 0.29172 0.2225 0.0
H1683 H 0.58545 0.26335 0.22291 0.0
H1684 H 0.56185 0.28017 0.21582 0.0
H1685 H 0.64041 0.27523 0.1323 0.0
H1686 H 0.62737 0.25897 0.10042 0.0
H1687 H 0.63533 0.2473 0.13519 0.0
C1688 C 0.8094 0.67646 0.27968 0.0
C1689 C 0.78689 0.68139 0.27958 0.0
C1690 C 0.81634 0.65689 0.26574 0.0
C1691 C 0.80039 0.642 0.25131 0.0
C1692 C 0.77767 0.64689 0.25125 0.0
C1693 C 0.77122 0.6665 0.26529 0.0
C1694 C 0.8407 0.6522 0.2662 0.0
C1695 C 0.76012 0.63152 0.23594 0.0
C1696 C 0.81236 0.60015 0.18851 0.0
C1697 C 0.8124 0.58133 0.20333 0.0
C1698 C 0.80987 0.62027 0.20429 0.0
C1699 C 0.80717 0.62143 0.23555 0.0
C1700 C 0.80837 0.60245 0.25083 0.0
C1701 C 0.81093 0.58254 0.23445 0.0
C1702 C 0.80873 0.64008 0.18716 0.0
C1703 C 0.80554 0.603 0.28408 0.0
H1704 H 0.82156 0.68788 0.29077 0.0
H1705 H 0.75383 0.67039 0.26449 0.0
H1706 H 0.84427 0.63693 0.27653 0.0
H1707 H 0.84568 0.6501 0.24284 0.0
H1708 H 0.85098 0.66524 0.27892 0.0
H1709 H 0.74315 0.63757 0.23847 0.0
H1710 H 0.76243 0.62882 0.21157 0.0
H1711 H 0.76162 0.6157 0.24544 0.0
H1712 H 0.81337 0.599 0.16434 0.0
H1713 H 0.8108 0.56782 0.24566 0.0
H1714 H 0.81954 0.65303 0.19902 0.0
H1715 H 0.79159 0.64619 0.18587 0.0
H1716 H 0.8137 0.63679 0.16387 0.0
H1717 H 0.8162 0.61573 0.29677 0.0
H1718 H 0.80955 0.58737 0.29321 0.0
H1719 H 0.78818 0.60693 0.28807 0.0
C1720 C 0.35682 0.86023 0.13596 0.0
C1721 C 0.34401 0.87874 0.13985 0.0
C1722 C 0.37575 0.86023 0.12005 0.0
C1723 C 0.38192 0.87911 0.10731 0.0
C1724 C 0.3689 0.89777 0.11068 0.0
C1725 C 0.35017 0.8974 0.12705 0.0
C1726 C 0.38924 0.84001 0.11704 0.0
C1727 C 0.37487 0.91815 0.09719 0.0
C1728 C 0.44209 0.88323 0.09116 0.0
C1729 C 0.44115 0.87551 0.06074 0.0
C1730 C 0.42283 0.88503 0.10644 0.0
C1731 C 0.40216 0.87926 0.09076 0.0
C1732 C 0.40106 0.87232 0.05969 0.0
C1733 C 0.42061 0.87036 0.0451 0.0
C1734 C 0.42471 0.89227 0.13964 0.0
C1735 C 0.3793 0.86639 0.04206 0.0
H1736 H 0.35197 0.84561 0.14523 0.0
H1737 H 0.34054 0.91186 0.13022 0.0
H1738 H 0.39001 0.83451 0.09291 0.0
H1739 H 0.40643 0.84337 0.12674 0.0
H1740 H 0.38232 0.82674 0.12855 0.0
H1741 H 0.36258 0.93102 0.1009 0.0
H1742 H 0.39128 0.92416 0.10721 0.0
H1743 H 0.37609 0.91484 0.07262 0.0
H1744 H 0.45799 0.88707 0.1033 0.0
H1745 H 0.41988 0.86463 0.02146 0.0
H1746 H 0.41958 0.87894 0.15252 0.0
H1747 H 0.41349 0.90588 0.14428 0.0
H1748 H 0.44181 0.89733 0.14812 0.0
H1749 H 0.37224 0.85187 0.05048 0.0
H1750 H 0.38109 0.86307 0.01759 0.0
H1751 H 0.36729 0.87954 0.04527 0.0
C1752 C 0.25228 0.50265 0.16734 0.0
C1753 C 0.24047 0.4835 0.15797 0.0
C1754 C 0.2516 0.52014 0.14948 0.0
C1755 C 0.2392 0.51842 0.12112 0.0
C1756 C 0.22738 0.49915 0.11136 0.0
C1757 C 0.22795 0.48206 0.12997 0.0
C1758 C 0.26424 0.54048 0.16093 0.0
C1759 C 0.21421 0.49651 0.08111 0.0
C1760 C 0.22224 0.56986 0.0855 0.0
C1761 C 0.23893 0.57216 0.06613 0.0
C1762 C 0.22212 0.55247 0.10353 0.0
C1763 C 0.2388 0.53673 0.10164 0.0
C1764 C 0.25539 0.53875 0.08155 0.0
C1765 C 0.25543 0.55658 0.06439 0.0
C1766 C 0.20439 0.55118 0.12505 0.0
C1767 C 0.27315 0.5221 0.0782 0.0
H1768 H 0.26239 0.50395 0.18853 0.0
H1769 H 0.21841 0.46761 0.12257 0.0
H1770 H 0.27714 0.54359 0.14564 0.0
H1771 H 0.25296 0.5544 0.16114 0.0
H1772 H 0.27231 0.53961 0.184 0.0
H1773 H 0.2064 0.48033 0.07643 0.0
H1774 H 0.20108 0.50877 0.08011 0.0
H1775 H 0.22508 0.49914 0.06298 0.0
H1776 H 0.20958 0.58197 0.0871 0.0
H1777 H 0.26827 0.55824 0.04927 0.0
H1778 H 0.21208 0.55147 0.14847 0.0
H1779 H 0.19508 0.53579 0.12016 0.0
H1780 H 0.19256 0.56464 0.12374 0.0
H1781 H 0.28341 0.52164 0.09982 0.0
H1782 H 0.2841 0.52541 0.0604 0.0
H1783 H 0.26554 0.50592 0.07258 0.0
C1784 C 0.34101 0.32516 0.18482 0.0
C1785 C 0.34412 0.33424 0.2147 0.0
C1786 C 0.35901 0.31885 0.16864 0.0
C1787 C 0.3807 0.32204 0.18248 0.0
C1788 C 0.38397 0.33023 0.21302 0.0
C1789 C 0.36562 0.33608 0.22885 0.0
C1790 C 0.35484 0.30989 0.13621 0.0
C1791 C 0.40687 0.33395 0.22848 0.0
C1792 C 0.42819 0.29551 0.14399 0.0
C1793 C 0.43541 0.3121 0.12773 0.0
C1794 C 0.41044 0.29848 0.16203 0.0
C1795 C 0.39987 0.31862 0.16417 0.0
C1796 C 0.40723 0.33551 0.14817 0.0
C1797 C 0.42478 0.332 0.12999 0.0
C1798 C 0.40285 0.28004 0.1785 0.0
C1799 C 0.39639 0.35727 0.14999 0.0
H1800 H 0.32454 0.32396 0.17345 0.0
H1801 H 0.36816 0.34275 0.25206 0.0
H1802 H 0.36021 0.32182 0.12122 0.0
H1803 H 0.36459 0.29513 0.13195 0.0
H1804 H 0.33711 0.306 0.12996 0.0
H1805 H 0.40658 0.33863 0.25297 0.0
H1806 H 0.41693 0.31927 0.22542 0.0
H1807 H 0.41527 0.34694 0.21814 0.0
H1808 H 0.4365 0.28018 0.14277 0.0
H1809 H 0.42995 0.34479 0.11713 0.0
H1810 H 0.38535 0.27596 0.17104 0.0
H1811 H 0.40368 0.28478 0.20304 0.0
H1812 H 0.41294 0.26543 0.17463 0.0
H1813 H 0.37884 0.35564 0.14099 0.0
H1814 H 0.4047 0.36896 0.13715 0.0
H1815 H 0.39662 0.36392 0.17382 0.0
C1816 C 0.74741 0.36393 0.27416 0.0
C1817 C 0.76088 0.3458 0.27158 0.0
C1818 C 0.7522 0.38249 0.26032 0.0
C1819 C 0.77082 0.38285 0.24337 0.0
C1820 C 0.78426 0.36449 0.24022 0.0
C1821 C 0.77914 0.34616 0.25443 0.0
C1822 C 0.73747 0.40178 0.26409 0.0
C1823 C 0.80422 0.36431 0.2222 0.0
C1824 C 0.77231 0.42451 0.18683 0.0
C1825 C 0.78625 0.44032 0.20264 0.0
C1826 C 0.76727 0.40563 0.19974 0.0
C1827 C 0.77634 0.40257 0.22919 0.0
C1828 C 0.79047 0.41844 0.24526 0.0
C1829 C 0.79532 0.43714 0.23172 0.0
C1830 C 0.75228 0.38895 0.18187 0.0
C1831 C 0.80033 0.41573 0.2768 0.0
H1832 H 0.73309 0.36359 0.28704 0.0
H1833 H 0.78975 0.33228 0.2527 0.0
H1834 H 0.74725 0.41578 0.27506 0.0
H1835 H 0.73062 0.40623 0.24173 0.0
H1836 H 0.72355 0.39881 0.27785 0.0
H1837 H 0.81255 0.3485 0.2212 0.0
H1838 H 0.7993 0.36826 0.19889 0.0
H1839 H 0.81627 0.37681 0.23235 0.0
H1840 H 0.76558 0.4268 0.16413 0.0
H1841 H 0.80599 0.44942 0.24403 0.0
H1842 H 0.73748 0.38626 0.19407 0.0
H1843 H 0.76095 0.37338 0.17933 0.0
H1844 H 0.74678 0.39373 0.15911 0.0
H1845 H 0.78696 0.41408 0.29193 0.0
H1846 H 0.81116 0.4295 0.28609 0.0
H1847 H 0.81015 0.4008 0.27699 0.0
C1848 C 0.65325 0.82654 0.19301 0.0
C1849 C 0.65046 0.80709 0.20582 0.0
C1850 C 0.63772 0.83321 0.17087 0.0
C1851 C 0.61906 0.82001 0.16116 0.0
C1852 C 0.61602 0.80046 0.17425 0.0
C1853 C 0.63173 0.79428 0.19659 0.0
C1854 C 0.64139 0.85427 0.15767 0.0
C1855 C 0.59641 0.78589 0.16424 0.0
C1856 C 0.56975 0.84487 0.11984 0.0
C1857 C 0.57344 0.83889 0.08984 0.0
C1858 C 0.58449 0.83885 0.14339 0.0
C1859 C 0.60311 0.82635 0.13659 0.0
C1860 C 0.60671 0.82011 0.10621 0.0
C1861 C 0.59183 0.82655 0.08315 0.0
C1862 C 0.58024 0.84595 0.17549 0.0
C1863 C 0.62629 0.80668 0.09806 0.0
H1864 H 0.66758 0.83661 0.20046 0.0
H1865 H 0.62964 0.77917 0.20634 0.0
H1866 H 0.64327 0.85131 0.13321 0.0
H1867 H 0.62684 0.86474 0.1602 0.0
H1868 H 0.65631 0.86304 0.16853 0.0
H1869 H 0.59619 0.7715 0.17719 0.0
H1870 H 0.58084 0.79479 0.16689 0.0
H1871 H 0.5967 0.78049 0.14 0.0
H1872 H 0.55538 0.85434 0.12477 0.0
H1873 H 0.5945 0.82196 0.05981 0.0
H1874 H 0.59445 0.85567 0.18653 0.0
H1875 H 0.57864 0.83171 0.18841 0.0
H1876 H 0.56503 0.85564 0.17692 0.0
H1877 H 0.64185 0.81536 0.10648 0.0
H1878 H 0.62641 0.80283 0.07337 0.0
H1879 H 0.62615 0.79142 0.10904 0.0
C1880 C 0.18524 0.76462 0.17445 0.0
C1881 C 0.20484 0.77236 0.19057 0.0
C1882 C 0.18516 0.74582 0.15485 0.0
C1883 C 0.20523 0.73491 0.15098 0.0
C1884 C 0.22454 0.74155 0.16936 0.0
C1885 C 0.22407 0.76015 0.18908 0.0
C1886 C 0.16409 0.73884 0.13629 0.0
C1887 C 0.24631 0.73042 0.16582 0.0
C1888 C 0.21128 0.68331 0.101 0.0
C1889 C 0.21757 0.69162 0.0749 0.0
C1890 C 0.20592 0.6972 0.12569 0.0
C1891 C 0.2073 0.71971 0.12404 0.0
C1892 C 0.21282 0.728 0.09706 0.0
C1893 C 0.2177 0.7138 0.07272 0.0
C1894 C 0.1996 0.6878 0.15378 0.0
C1895 C 0.21448 0.7519 0.0943 0.0
H1896 H 0.17031 0.77396 0.17579 0.0
H1897 H 0.23933 0.7662 0.20124 0.0
H1898 H 0.16437 0.74446 0.11347 0.0
H1899 H 0.16246 0.72106 0.13368 0.0
H1900 H 0.14933 0.74567 0.14653 0.0
H1901 H 0.25939 0.73662 0.18328 0.0
H1902 H 0.24435 0.71287 0.16707 0.0
H1903 H 0.25191 0.73284 0.14335 0.0
H1904 H 0.21103 0.66606 0.10228 0.0
H1905 H 0.2224 0.71999 0.0522 0.0
H1906 H 0.18546 0.69654 0.16302 0.0
H1907 H 0.21369 0.6895 0.17125 0.0
H1908 H 0.19516 0.67047 0.14947 0.0
H1909 H 0.19834 0.75951 0.0978 0.0
H1910 H 0.21949 0.75562 0.07197 0.0
H1911 H 0.2267 0.75936 0.11197 0.0
C1912 C 0.37908 0.90542 0.85343 0.0
C1913 C 0.37145 0.88779 0.83371 0.0
C1914 C 0.39882 0.90431 0.87188 0.0
C1915 C 0.41105 0.88507 0.87069 0.0
C1916 C 0.40311 0.86706 0.85135 0.0
C1917 C 0.38345 0.86868 0.83299 0.0
C1918 C 0.40685 0.92387 0.89209 0.0
C1919 C 0.41557 0.84617 0.84973 0.0
C1920 C 0.47267 0.88536 0.89296 0.0
C1921 C 0.47326 0.87762 0.9214 0.0
C1922 C 0.45243 0.88864 0.87661 0.0
C1923 C 0.43246 0.88381 0.88903 0.0
C1924 C 0.43307 0.87651 0.91819 0.0
C1925 C 0.45354 0.87348 0.93404 0.0
C1926 C 0.45243 0.89655 0.84566 0.0
C1927 C 0.41219 0.87113 0.93218 0.0
H1928 H 0.36995 0.9203 0.85377 0.0
H1929 H 0.37744 0.85497 0.81796 0.0
H1930 H 0.4096 0.91975 0.91573 0.0
H1931 H 0.42294 0.92942 0.88534 0.0
H1932 H 0.39501 0.93735 0.89118 0.0
H1933 H 0.40675 0.83346 0.8343 0.0
H1934 H 0.43211 0.8488 0.84179 0.0
H1935 H 0.41817 0.8403 0.87245 0.0
H1936 H 0.48805 0.88827 0.88323 0.0
H1937 H 0.45421 0.86734 0.95606 0.0
H1938 H 0.44157 0.9107 0.8439 0.0
H1939 H 0.44572 0.8838 0.82849 0.0
H1940 H 0.46926 0.90107 0.84023 0.0
H1941 H 0.40059 0.88478 0.93158 0.0
H1942 H 0.41549 0.86722 0.9559 0.0
H1943 H 0.40379 0.85712 0.919 0.0
C1944 C 0.29899 0.48422 0.91296 0.0
C1945 C 0.28154 0.4715 0.89846 0.0
C1946 C 0.29533 0.50528 0.92498 0.0
C1947 C 0.27379 0.51379 0.92215 0.0
C1948 C 0.25589 0.50049 0.90952 0.0
C1949 C 0.25999 0.47951 0.89775 0.0
C1950 C 0.31468 0.51885 0.93915 0.0
C1951 C 0.23261 0.50886 0.90668 0.0
C1952 C 0.26106 0.56751 0.96331 0.0
C1953 C 0.26265 0.58129 0.94052 0.0
C1954 C 0.26468 0.5454 0.95785 0.0
C1955 C 0.27031 0.53715 0.92902 0.0
C1956 C 0.27212 0.55122 0.90606 0.0
C1957 C 0.26823 0.5732 0.91213 0.0
C1958 C 0.2626 0.5311 0.98305 0.0
C1959 C 0.27788 0.54302 0.87496 0.0
H1960 H 0.31562 0.47798 0.91384 0.0
H1961 H 0.24644 0.46988 0.88627 0.0
H1962 H 0.31788 0.53192 0.92471 0.0
H1963 H 0.31084 0.5265 0.96139 0.0
H1964 H 0.32996 0.5093 0.94219 0.0
H1965 H 0.22027 0.4958 0.89988 0.0
H1966 H 0.22845 0.51722 0.92835 0.0
H1967 H 0.23126 0.52073 0.88955 0.0
H1968 H 0.25676 0.57403 0.98529 0.0
H1969 H 0.26937 0.58409 0.89468 0.0
H1970 H 0.25577 0.51501 0.97458 0.0
H1971 H 0.25186 0.53839 -1e-05 0.0
H1972 H 0.27921 0.52884 0.99454 0.0
H1973 H 0.29398 0.53469 0.87644 0.0
H1974 H 0.27891 0.55613 0.85983 0.0
H1975 H 0.26525 0.53112 0.86466 0.0
C1976 C 0.68091 0.25408 0.89579 0.0
C1977 C 0.70027 0.26382 0.91011 0.0
C1978 C 0.66086 0.25587 0.90918 0.0
C1979 C 0.6602 0.26771 0.9375 0.0
C1980 C 0.67987 0.27684 0.95261 0.0
C1981 C 0.6997 0.27476 0.93872 0.0
C1982 C 0.64026 0.24575 0.89251 0.0
C1983 C 0.6798 0.28958 0.98285 0.0
C1984 C 0.60621 0.29378 0.95615 0.0
C1985 C 0.59827 0.27976 0.97572 0.0
C1986 C 0.62631 0.28996 0.94345 0.0
C1987 C 0.63873 0.27166 0.95049 0.0
C1988 C 0.63074 0.25735 0.97005 0.0
C1989 C 0.6106 0.26158 0.98246 0.0
C1990 C 0.63429 0.30555 0.92258 0.0
C1991 C 0.64358 0.23772 0.97811 0.0
H1992 H 0.68137 0.24539 0.87382 0.0
H1993 H 0.71457 0.28252 0.94971 0.0
H1994 H 0.63186 0.23547 0.90722 0.0
H1995 H 0.62853 0.25851 0.88625 0.0
H1996 H 0.64385 0.23584 0.8717 0.0
H1997 H 0.69672 0.29429 0.99257 0.0
H1998 H 0.67001 0.30438 0.98044 0.0
H1999 H 0.67183 0.28013 0.99895 0.0
H2000 H 0.59662 0.3077 0.9506 0.0
H2001 H 0.60469 0.25085 0.99792 0.0
H2002 H 0.63659 0.29702 0.90029 0.0
H2003 H 0.65057 0.31244 0.93176 0.0
H2004 H 0.62261 0.31895 0.91931 0.0
H2005 H 0.64663 0.22748 0.95738 0.0
H2006 H 0.63482 0.22793 0.99311 0.0
H2007 H 0.65994 0.24265 0.98955 0.0
C2008 C 0.86009 0.66255 0.96077 0.0
C2009 C 0.84359 0.66244 0.9369 0.0
C2010 C 0.86007 0.6471 0.98175 0.0
C2011 C 0.84321 0.63118 0.97862 0.0
C2012 C 0.82707 0.63045 0.95387 0.0
C2013 C 0.8274 0.64614 0.93338 0.0
C2014 C 0.87755 0.64832 0.00789 0.0
C2015 C 0.80883 0.61366 0.94975 0.0
C2016 C 0.84761 0.58116 0.02098 0.0
C2017 C 0.83378 0.58635 0.04403 0.0
C2018 C 0.85147 0.59588 -3e-05 0.0
C2019 C 0.84132 0.61623 0.00229 0.0
C2020 C 0.82802 0.62183 0.02622 0.0
C2021 C 0.82437 0.60678 0.04678 0.0
C2022 C 0.86565 0.58936 0.97464 0.0
C2023 C 0.81706 0.64347 0.02956 0.0
H2024 H 0.8728 0.67497 0.96336 0.0
H2025 H 0.81439 0.64615 0.91528 0.0
H2026 H 0.86978 0.65244 0.02919 0.0
H2027 H 0.88552 0.63249 0.00969 0.0
H2028 H 0.8905 0.66058 0.00575 0.0
H2029 H 0.79864 0.61428 0.92806 0.0
H2030 H 0.81587 0.59734 0.95063 0.0
H2031 H 0.79789 0.61613 0.96837 0.0
H2032 H 0.85478 0.56529 0.01874 0.0
H2033 H 0.81394 0.6109 0.06489 0.0
H2034 H 0.87852 0.60179 0.97314 0.0
H2035 H 0.8553 0.58802 0.95293 0.0
H2036 H 0.87384 0.57371 0.9775 0.0
H2037 H 0.82949 0.65656 0.02974 0.0
H2038 H 0.8084 0.64579 0.0505 0.0
H2039 H 0.80485 0.64508 0.01003 0.0
loop_
_geom_bond_atom_site_label_1
_geom_bond_atom_site_label_2
_geom_bond_distance
_geom_bond_site_symmetry_2
_ccdc_geom_bond_type
H0 O26 0.856 . S
H1 O29 0.854 . S
H2 C37 0.930 . S
H3 C38 0.930 . S
H4 C40 0.930 . S
H5 C41 0.930 . S
H6 C43 0.931 . S
H7 C44 0.930 . S
H8 C46 0.930 . S
H9 C47 0.929 . S
H10 C49 0.930 . S
H11 C50 0.931 . S
H12 C52 0.930 . S
H13 C53 0.929 . S
H14 C55 0.931 . S
H15 C56 0.930 . S
H16 C58 0.930 . S
H17 C59 0.932 . S
H18 C61 0.930 . S
H19 C62 0.929 . S
H20 C64 0.931 . S
H21 C65 0.930 . S
H22 C67 0.929 . S
H23 C68 0.931 . S
H24 C70 0.930 . S
H25 C71 0.929 . S
O26 H0 0.856 . S
O26 C72 1.300 . S
O27 C72 1.209 . S
O28 C73 1.199 . S
O29 H1 0.854 . S
O29 C73 1.297 . S
C30 C31 1.404 . S
C30 C35 1.397 . S
C30 C36 1.492 . S
C31 C30 1.404 . S
C31 C32 1.396 . S
C31 C42 1.492 . S
C32 C31 1.396 . S
C32 C33 1.397 . S
C32 C48 1.509 . S
C33 C32 1.397 . S
C33 C34 1.412 . S
C33 C54 1.485 . S
C34 C33 1.412 . S
C34 C35 1.388 . S
C34 C60 1.490 . S
C35 C30 1.397 . S
C35 C34 1.388 . S
C35 C66 1.519 . S
C36 C30 1.492 . S
C36 C37 1.363 . S
C36 C41 1.390 . S
C37 H2 0.930 . S
C37 C36 1.363 . S
C37 C38 1.372 . S
C38 H3 0.930 . S
C38 C37 1.372 . S
C38 C39 1.383 . S
C39 C38 1.383 . S
C39 C40 1.395 . S
C40 H4 0.930 . S
C40 C39 1.395 . S
C40 C41 1.362 . S
C41 H5 0.930 . S
C41 C36 1.390 . S
C41 C40 1.362 . S
C42 C31 1.492 . S
C42 C43 1.377 . S
C42 C47 1.397 . S
C43 H6 0.931 . S
C43 C42 1.377 . S
C43 C44 1.376 . S
C44 H7 0.930 . S
C44 C43 1.376 . S
C44 C45 1.376 . S
C45 C44 1.376 . S
C45 C46 1.378 . S
C45 C72 1.486 . S
C46 H8 0.930 . S
C46 C45 1.378 . S
C46 C47 1.376 . S
C47 H9 0.929 . S
C47 C42 1.397 . S
C47 C46 1.376 . S
C48 C32 1.509 . S
C48 C49 1.391 . S
C48 C53 1.386 . S
C49 H10 0.930 . S
C49 C48 1.391 . S
C49 C50 1.375 . S
C50 H11 0.931 . S
C50 C49 1.375 . S
C50 C51 1.375 . S
C51 C50 1.375 . S
C51 C52 1.361 . S
C52 H12 0.930 . S
C52 C51 1.361 . S
C52 C53 1.399 . S
C53 H13 0.929 . S
C53 C48 1.386 . S
C53 C52 1.399 . S
C54 C33 1.485 . S
C54 C55 1.394 . S
C54 C59 1.360 . S
C55 H14 0.931 . S
C55 C54 1.394 . S
C55 C56 1.372 . S
C56 H15 0.930 . S
C56 C55 1.372 . S
C56 C57 1.397 . S
C57 C56 1.397 . S
C57 C58 1.390 . S
C57 C73 1.476 . S
C58 H16 0.930 . S
C58 C57 1.390 . S
C58 C59 1.366 . S
C59 H17 0.932 . S
C59 C54 1.360 . S
C59 C58 1.366 . S
C60 C34 1.490 . S
C60 C61 1.380 . S
C60 C65 1.386 . S
C61 H18 0.930 . S
C61 C60 1.380 . S
C61 C62 1.381 . S
C62 H19 0.929 . S
C62 C61 1.381 . S
C62 C63 1.371 . S
C63 C62 1.371 . S
C63 C64 1.380 . S
C64 H20 0.931 . S
C64 C63 1.380 . S
C64 C65 1.387 . S
C65 H21 0.930 . S
C65 C60 1.386 . S
C65 C64 1.387 . S
C66 C35 1.519 . S
C66 C67 1.377 . S
C66 C71 1.361 . S
C67 H22 0.929 . S
C67 C66 1.377 . S
C67 C68 1.386 . S
C68 H23 0.931 . S
C68 C67 1.386 . S
C68 C69 1.363 . S
C69 C68 1.363 . S
C69 C70 1.385 . S
C70 H24 0.930 . S
C70 C69 1.385 . S
C70 C71 1.396 . S
C71 H25 0.929 . S
C71 C66 1.361 . S
C71 C70 1.396 . S
C72 O26 1.300 . S
C72 O27 1.209 . S
C72 C45 1.486 . S
C73 O28 1.199 . S
C73 O29 1.297 . S
C73 C57 1.476 . S
H74 O100 0.856 . S
H75 O103 0.854 . S
H76 C111 0.930 . S
H77 C112 0.930 . S
H78 C114 0.930 . S
H79 C115 0.930 . S
H80 C117 0.931 . S
H81 C118 0.930 . S
H82 C120 0.930 . S
H83 C121 0.929 . S
H84 C123 0.930 . S
H85 C124 0.931 . S
H86 C126 0.930 . S
H87 C127 0.929 . S
H88 C129 0.931 . S
H89 C130 0.930 . S
H90 C132 0.930 . S
H91 C133 0.932 . S
H92 C135 0.930 . S
H93 C136 0.929 . S
H94 C138 0.931 . S
H95 C139 0.930 . S
H96 C141 0.929 . S
H97 C142 0.931 . S
H98 C144 0.930 . S
H99 C145 0.929 . S
O100 H74 0.856 . S
O100 C146 1.300 . S
O101 C146 1.209 . S
O102 C147 1.199 . S
O103 H75 0.854 . S
O103 C147 1.297 . S
C104 C105 1.404 . S
C104 C109 1.397 . S
C104 C110 1.492 . S
C105 C104 1.404 . S
C105 C106 1.396 . S
C105 C116 1.492 . S
C106 C105 1.396 . S
C106 C107 1.397 . S
C106 C122 1.509 . S
C107 C106 1.397 . S
C107 C108 1.412 . S
C107 C128 1.485 . S
C108 C107 1.412 . S
C108 C109 1.388 . S
C108 C134 1.490 . S
C109 C104 1.397 . S
C109 C108 1.388 . S
C109 C140 1.519 . S
C110 C104 1.492 . S
C110 C111 1.363 . S
C110 C115 1.390 . S
C111 H76 0.930 . S
C111 C110 1.363 . S
C111 C112 1.372 . S
C112 H77 0.930 . S
C112 C111 1.372 . S
C112 C113 1.383 . S
C113 C112 1.383 . S
C113 C114 1.395 . S
C114 H78 0.930 . S
C114 C113 1.395 . S
C114 C115 1.362 . S
C115 H79 0.930 . S
C115 C110 1.390 . S
C115 C114 1.362 . S
C116 C105 1.492 . S
C116 C117 1.377 . S
C116 C121 1.397 . S
C117 H80 0.931 . S
C117 C116 1.377 . S
C117 C118 1.376 . S
C118 H81 0.930 . S
C118 C117 1.376 . S
C118 C119 1.376 . S
C119 C118 1.376 . S
C119 C120 1.378 . S
C119 C146 1.486 . S
C120 H82 0.930 . S
C120 C119 1.378 . S
C120 C121 1.376 . S
C121 H83 0.929 . S
C121 C116 1.397 . S
C121 C120 1.376 . S
C122 C106 1.509 . S
C122 C123 1.391 . S
C122 C127 1.386 . S
C123 H84 0.930 . S
C123 C122 1.391 . S
C123 C124 1.375 . S
C124 H85 0.931 . S
C124 C123 1.375 . S
C124 C125 1.375 . S
C125 C124 1.375 . S
C125 C126 1.361 . S
C126 H86 0.930 . S
C126 C125 1.361 . S
C126 C127 1.399 . S
C127 H87 0.929 . S
C127 C122 1.386 . S
C127 C126 1.399 . S
C128 C107 1.485 . S
C128 C129 1.394 . S
C128 C133 1.360 . S
C129 H88 0.931 . S
C129 C128 1.394 . S
C129 C130 1.372 . S
C130 H89 0.930 . S
C130 C129 1.372 . S
C130 C131 1.397 . S
C131 C130 1.397 . S
C131 C132 1.390 . S
C131 C147 1.476 . S
C132 H90 0.930 . S
C132 C131 1.390 . S
C132 C133 1.366 . S
C133 H91 0.932 . S
C133 C128 1.360 . S
C133 C132 1.366 . S
C134 C108 1.490 . S
C134 C135 1.380 . S
C134 C139 1.386 . S
C135 H92 0.930 . S
C135 C134 1.380 . S
C135 C136 1.381 . S
C136 H93 0.929 . S
C136 C135 1.381 . S
C136 C137 1.371 . S
C137 C136 1.371 . S
C137 C138 1.380 . S
C138 H94 0.931 . S
C138 C137 1.380 . S
C138 C139 1.387 . S
C139 H95 0.930 . S
C139 C134 1.386 . S
C139 C138 1.387 . S
C140 C109 1.519 . S
C140 C141 1.377 . S
C140 C145 1.361 . S
C141 H96 0.929 . S
C141 C140 1.377 . S
C141 C142 1.386 . S
C142 H97 0.931 . S
C142 C141 1.386 . S
C142 C143 1.363 . S
C143 C142 1.363 . S
C143 C144 1.385 . S
C144 H98 0.930 . S
C144 C143 1.385 . S
C144 C145 1.396 . S
C145 H99 0.929 . S
C145 C140 1.361 . S
C145 C144 1.396 . S
C146 O100 1.300 . S
C146 O101 1.209 . S
C146 C119 1.486 . S
C147 O102 1.199 . S
C147 O103 1.297 . S
C147 C131 1.476 . S
H148 O174 0.856 . S
H149 O177 0.854 . S
H150 C185 0.930 . S
H151 C186 0.930 . S
H152 C188 0.930 . S
H153 C189 0.930 . S
H154 C191 0.931 . S
H155 C192 0.930 . S
H156 C194 0.930 . S
H157 C195 0.929 . S
H158 C197 0.930 . S
H159 C198 0.931 . S
H160 C200 0.930 . S
H161 C201 0.929 . S
H162 C203 0.931 . S
H163 C204 0.930 . S
H164 C206 0.930 . S
H165 C207 0.932 . S
H166 C209 0.930 . S
H167 C210 0.929 . S
H168 C212 0.931 . S
H169 C213 0.930 . S
H170 C215 0.929 . S
H171 C216 0.931 . S
H172 C218 0.930 . S
H173 C219 0.929 . S
O174 H148 0.856 . S
O174 C220 1.300 . S
O175 C220 1.209 . S
O176 C221 1.199 . S
O177 H149 0.854 . S
O177 C221 1.297 . S
C178 C179 1.404 . S
C178 C183 1.397 . S
C178 C184 1.492 . S
C179 C178 1.404 . S
C179 C180 1.396 . S
C179 C190 1.492 . S
C180 C179 1.396 . S
C180 C181 1.397 . S
C180 C196 1.509 . S
C181 C180 1.397 . S
C181 C182 1.412 . S
C181 C202 1.485 . S
C182 C181 1.412 . S
C182 C183 1.388 . S
C182 C208 1.490 . S
C183 C178 1.397 . S
C183 C182 1.388 . S
C183 C214 1.519 . S
C184 C178 1.492 . S
C184 C185 1.363 . S
C184 C189 1.390 . S
C185 H150 0.930 . S
C185 C184 1.363 . S
C185 C186 1.372 . S
C186 H151 0.930 . S
C186 C185 1.372 . S
C186 C187 1.383 . S
C187 C186 1.383 . S
C187 C188 1.395 . S
C188 H152 0.930 . S
C188 C187 1.395 . S
C188 C189 1.362 . S
C189 H153 0.930 . S
C189 C184 1.390 . S
C189 C188 1.362 . S
C190 C179 1.492 . S
C190 C191 1.377 . S
C190 C195 1.397 . S
C191 H154 0.931 . S
C191 C190 1.377 . S
C191 C192 1.376 . S
C192 H155 0.930 . S
C192 C191 1.376 . S
C192 C193 1.376 . S
C193 C192 1.376 . S
C193 C194 1.378 . S
C193 C220 1.486 . S
C194 H156 0.930 . S
C194 C193 1.378 . S
C194 C195 1.376 . S
C195 H157 0.929 . S
C195 C190 1.397 . S
C195 C194 1.376 . S
C196 C180 1.509 . S
C196 C197 1.391 . S
C196 C201 1.386 . S
C197 H158 0.930 . S
C197 C196 1.391 . S
C197 C198 1.375 . S
C198 H159 0.931 . S
C198 C197 1.375 . S
C198 C199 1.375 . S
C199 C198 1.375 . S
C199 C200 1.361 . S
C200 H160 0.930 . S
C200 C199 1.361 . S
C200 C201 1.399 . S
C201 H161 0.929 . S
C201 C196 1.386 . S
C201 C200 1.399 . S
C202 C181 1.485 . S
C202 C203 1.394 . S
C202 C207 1.360 . S
C203 H162 0.931 . S
C203 C202 1.394 . S
C203 C204 1.372 . S
C204 H163 0.930 . S
C204 C203 1.372 . S
C204 C205 1.397 . S
C205 C204 1.397 . S
C205 C206 1.390 . S
C205 C221 1.476 . S
C206 H164 0.930 . S
C206 C205 1.390 . S
C206 C207 1.366 . S
C207 H165 0.932 . S
C207 C202 1.360 . S
C207 C206 1.366 . S
C208 C182 1.490 . S
C208 C209 1.380 . S
C208 C213 1.386 . S
C209 H166 0.930 . S
C209 C208 1.380 . S
C209 C210 1.381 . S
C210 H167 0.929 . S
C210 C209 1.381 . S
C210 C211 1.371 . S
C211 C210 1.371 . S
C211 C212 1.380 . S
C212 H168 0.931 . S
C212 C211 1.380 . S
C212 C213 1.387 . S
C213 H169 0.930 . S
C213 C208 1.386 . S
C213 C212 1.387 . S
C214 C183 1.519 . S
C214 C215 1.377 . S
C214 C219 1.361 . S
C215 H170 0.929 . S
C215 C214 1.377 . S
C215 C216 1.386 . S
C216 H171 0.931 . S
C216 C215 1.386 . S
C216 C217 1.363 . S
C217 C216 1.363 . S
C217 C218 1.385 . S
C218 H172 0.930 . S
C218 C217 1.385 . S
C218 C219 1.396 . S
C219 H173 0.929 . S
C219 C214 1.361 . S
C219 C218 1.396 . S
C220 O174 1.300 . S
C220 O175 1.209 . S
C220 C193 1.486 . S
C221 O176 1.199 . S
C221 O177 1.297 . S
C221 C205 1.476 . S
H222 O248 0.856 1_545 S
H223 O251 0.854 . S
H224 C259 0.930 . S
H225 C260 0.930 . S
H226 C262 0.930 . S
H227 C263 0.930 . S
H228 C265 0.931 . S
H229 C266 0.930 . S
H230 C268 0.930 . S
H231 C269 0.929 . S
H232 C271 0.930 . S
H233 C272 0.931 . S
H234 C274 0.930 . S
H235 C275 0.929 . S
H236 C277 0.931 . S
H237 C278 0.930 . S
H238 C280 0.930 . S
H239 C281 0.932 . S
H240 C283 0.930 . S
H241 C284 0.929 . S
H242 C286 0.931 . S
H243 C287 0.930 . S
H244 C289 0.929 . S
H245 C290 0.931 . S
H246 C292 0.930 . S
H247 C293 0.929 . S
O248 H222 0.856 1_565 S
O248 C294 1.300 . S
O249 C294 1.209 1_545 S
O250 C295 1.199 . S
O251 H223 0.854 . S
O251 C295 1.297 . S
C252 C253 1.404 . S
C252 C257 1.397 . S
C252 C258 1.492 . S
C253 C252 1.404 . S
C253 C254 1.396 . S
C253 C264 1.492 . S
C254 C253 1.396 . S
C254 C255 1.397 . S
C254 C270 1.509 . S
C255 C254 1.397 . S
C255 C256 1.412 . S
C255 C276 1.485 . S
C256 C255 1.412 . S
C256 C257 1.388 . S
C256 C282 1.490 . S
C257 C252 1.397 . S
C257 C256 1.388 . S
C257 C288 1.519 . S
C258 C252 1.492 . S
C258 C259 1.363 . S
C258 C263 1.390 . S
C259 H224 0.930 . S
C259 C258 1.363 . S
C259 C260 1.372 . S
C260 H225 0.930 . S
C260 C259 1.372 . S
C260 C261 1.383 . S
C261 C260 1.383 . S
C261 C262 1.395 . S
C262 H226 0.930 . S
C262 C261 1.395 . S
C262 C263 1.362 . S
C263 H227 0.930 . S
C263 C258 1.390 . S
C263 C262 1.362 . S
C264 C253 1.492 . S
C264 C265 1.377 . S
C264 C269 1.397 . S
C265 H228 0.931 . S
C265 C264 1.377 . S
C265 C266 1.376 . S
C266 H229 0.930 . S
C266 C265 1.376 . S
C266 C267 1.376 . S
C267 C266 1.376 . S
C267 C268 1.378 . S
C267 C294 1.486 . S
C268 H230 0.930 . S
C268 C267 1.378 . S
C268 C269 1.376 . S
C269 H231 0.929 . S
C269 C264 1.397 . S
C269 C268 1.376 . S
C270 C254 1.509 . S
C270 C271 1.391 . S
C270 C275 1.386 . S
C271 H232 0.930 . S
C271 C270 1.391 . S
C271 C272 1.375 . S
C272 H233 0.931 . S
C272 C271 1.375 . S
C272 C273 1.375 . S
C273 C272 1.375 . S
C273 C274 1.361 . S
C274 H234 0.930 . S
C274 C273 1.361 . S
C274 C275 1.399 . S
C275 H235 0.929 . S
C275 C270 1.386 . S
C275 C274 1.399 . S
C276 C255 1.485 . S
C276 C277 1.394 . S
C276 C281 1.360 . S
C277 H236 0.931 . S
C277 C276 1.394 . S
C277 C278 1.372 . S
C278 H237 0.930 . S
C278 C277 1.372 . S
C278 C279 1.397 . S
C279 C278 1.397 . S
C279 C280 1.390 . S
C279 C295 1.476 . S
C280 H238 0.930 . S
C280 C279 1.390 . S
C280 C281 1.366 . S
C281 H239 0.932 . S
C281 C276 1.360 . S
C281 C280 1.366 . S
C282 C256 1.490 . S
C282 C283 1.380 . S
C282 C287 1.386 . S
C283 H240 0.930 . S
C283 C282 1.380 . S
C283 C284 1.381 . S
C284 H241 0.929 . S
C284 C283 1.381 . S
C284 C285 1.371 . S
C285 C284 1.371 . S
C285 C286 1.380 . S
C286 H242 0.931 . S
C286 C285 1.380 . S
C286 C287 1.387 . S
C287 H243 0.930 . S
C287 C282 1.386 . S
C287 C286 1.387 . S
C288 C257 1.519 . S
C288 C289 1.377 . S
C288 C293 1.361 . S
C289 H244 0.929 . S
C289 C288 1.377 . S
C289 C290 1.386 . S
C290 H245 0.931 . S
C290 C289 1.386 . S
C290 C291 1.363 . S
C291 C290 1.363 . S
C291 C292 1.385 . S
C292 H246 0.930 . S
C292 C291 1.385 . S
C292 C293 1.396 . S
C293 H247 0.929 . S
C293 C288 1.361 . S
C293 C292 1.396 . S
C294 O248 1.300 . S
C294 O249 1.209 1_565 S
C294 C267 1.486 . S
C295 O250 1.199 . S
C295 O251 1.297 . S
C295 C279 1.476 . S
H296 O322 0.856 . S
H297 O325 0.854 . S
H298 C333 0.930 . S
H299 C334 0.930 . S
H300 C336 0.930 . S
H301 C337 0.930 . S
H302 C339 0.931 . S
H303 C340 0.930 . S
H304 C342 0.930 . S
H305 C343 0.929 . S
H306 C345 0.930 . S
H307 C346 0.931 . S
H308 C348 0.930 . S
H309 C349 0.929 . S
H310 C351 0.931 . S
H311 C352 0.930 . S
H312 C354 0.930 . S
H313 C355 0.932 . S
H314 C357 0.930 . S
H315 C358 0.929 . S
H316 C360 0.931 . S
H317 C361 0.930 . S
H318 C363 0.929 . S
H319 C364 0.931 . S
H320 C366 0.930 . S
H321 C367 0.929 . S
O322 H296 0.856 . S
O322 C368 1.300 . S
O323 C368 1.209 . S
O324 C369 1.199 . S
O325 H297 0.854 . S
O325 C369 1.297 . S
C326 C327 1.404 . S
C326 C331 1.397 . S
C326 C332 1.492 . S
C327 C326 1.404 . S
C327 C328 1.396 . S
C327 C338 1.492 . S
C328 C327 1.396 . S
C328 C329 1.397 . S
C328 C344 1.509 . S
C329 C328 1.397 . S
C329 C330 1.412 . S
C329 C350 1.485 . S
C330 C329 1.412 . S
C330 C331 1.388 . S
C330 C356 1.490 . S
C331 C326 1.397 . S
C331 C330 1.388 . S
C331 C362 1.519 . S
C332 C326 1.492 . S
C332 C333 1.363 . S
C332 C337 1.390 . S
C333 H298 0.930 . S
C333 C332 1.363 . S
C333 C334 1.372 . S
C334 H299 0.930 . S
C334 C333 1.372 . S
C334 C335 1.383 . S
C335 C334 1.383 . S
C335 C336 1.395 . S
C336 H300 0.930 . S
C336 C335 1.395 . S
C336 C337 1.362 . S
C337 H301 0.930 . S
C337 C332 1.390 . S
C337 C336 1.362 . S
C338 C327 1.492 . S
C338 C339 1.377 . S
C338 C343 1.397 . S
C339 H302 0.931 . S
C339 C338 1.377 . S
C339 C340 1.376 . S
C340 H303 0.930 . S
C340 C339 1.376 . S
C340 C341 1.376 . S
C341 C340 1.376 . S
C341 C342 1.378 . S
C341 C368 1.486 . S
C342 H304 0.930 . S
C342 C341 1.378 . S
C342 C343 1.376 . S
C343 H305 0.929 . S
C343 C338 1.397 . S
C343 C342 1.376 . S
C344 C328 1.509 . S
C344 C345 1.391 . S
C344 C349 1.386 . S
C345 H306 0.930 . S
C345 C344 1.391 . S
C345 C346 1.375 . S
C346 H307 0.931 . S
C346 C345 1.375 . S
C346 C347 1.375 . S
C347 C346 1.375 . S
C347 C348 1.361 . S
C348 H308 0.930 . S
C348 C347 1.361 . S
C348 C349 1.399 . S
C349 H309 0.929 . S
C349 C344 1.386 . S
C349 C348 1.399 . S
C350 C329 1.485 . S
C350 C351 1.394 . S
C350 C355 1.360 . S
C351 H310 0.931 . S
C351 C350 1.394 . S
C351 C352 1.372 . S
C352 H311 0.930 . S
C352 C351 1.372 . S
C352 C353 1.397 . S
C353 C352 1.397 . S
C353 C354 1.390 . S
C353 C369 1.476 . S
C354 H312 0.930 . S
C354 C353 1.390 . S
C354 C355 1.366 . S
C355 H313 0.932 . S
C355 C350 1.360 . S
C355 C354 1.366 . S
C356 C330 1.490 . S
C356 C357 1.380 . S
C356 C361 1.386 . S
C357 H314 0.930 . S
C357 C356 1.380 . S
C357 C358 1.381 . S
C358 H315 0.929 . S
C358 C357 1.381 . S
C358 C359 1.371 . S
C359 C358 1.371 . S
C359 C360 1.380 . S
C360 H316 0.931 . S
C360 C359 1.380 . S
C360 C361 1.387 . S
C361 H317 0.930 . S
C361 C356 1.386 . S
C361 C360 1.387 . S
C362 C331 1.519 . S
C362 C363 1.377 . S
C362 C367 1.361 . S
C363 H318 0.929 . S
C363 C362 1.377 . S
C363 C364 1.386 . S
C364 H319 0.931 . S
C364 C363 1.386 . S
C364 C365 1.363 . S
C365 C364 1.363 . S
C365 C366 1.385 . S
C366 H320 0.930 . S
C366 C365 1.385 . S
C366 C367 1.396 . S
C367 H321 0.929 . S
C367 C362 1.361 . S
C367 C366 1.396 . S
C368 O322 1.300 . S
C368 O323 1.209 . S
C368 C341 1.486 . S
C369 O324 1.199 . S
C369 O325 1.297 . S
C369 C353 1.476 . S
H370 O396 0.856 . S
H371 O399 0.854 . S
H372 C407 0.930 . S
H373 C408 0.930 . S
H374 C410 0.930 . S
H375 C411 0.930 . S
H376 C413 0.931 . S
H377 C414 0.930 . S
H378 C416 0.930 . S
H379 C417 0.929 . S
H380 C419 0.930 . S
H381 C420 0.931 . S
H382 C422 0.930 . S
H383 C423 0.929 . S
H384 C425 0.931 . S
H385 C426 0.930 . S
H386 C428 0.930 . S
H387 C429 0.932 . S
H388 C431 0.930 . S
H389 C432 0.929 . S
H390 C434 0.931 . S
H391 C435 0.930 . S
H392 C437 0.929 . S
H393 C438 0.931 . S
H394 C440 0.930 . S
H395 C441 0.929 . S
O396 H370 0.856 . S
O396 C442 1.300 . S
O397 C442 1.209 . S
O398 C443 1.199 . S
O399 H371 0.854 . S
O399 C443 1.297 . S
C400 C401 1.404 . S
C400 C405 1.397 . S
C400 C406 1.492 . S
C401 C400 1.404 . S
C401 C402 1.396 . S
C401 C412 1.492 . S
C402 C401 1.396 . S
C402 C403 1.397 . S
C402 C418 1.509 . S
C403 C402 1.397 . S
C403 C404 1.412 . S
C403 C424 1.485 . S
C404 C403 1.412 . S
C404 C405 1.388 . S
C404 C430 1.490 . S
C405 C400 1.397 . S
C405 C404 1.388 . S
C405 C436 1.519 . S
C406 C400 1.492 . S
C406 C407 1.363 . S
C406 C411 1.390 . S
C407 H372 0.930 . S
C407 C406 1.363 . S
C407 C408 1.372 . S
C408 H373 0.930 . S
C408 C407 1.372 . S
C408 C409 1.383 . S
C409 C408 1.383 . S
C409 C410 1.395 . S
C410 H374 0.930 . S
C410 C409 1.395 . S
C410 C411 1.362 . S
C411 H375 0.930 . S
C411 C406 1.390 . S
C411 C410 1.362 . S
C412 C401 1.492 . S
C412 C413 1.377 . S
C412 C417 1.397 . S
C413 H376 0.931 . S
C413 C412 1.377 . S
C413 C414 1.376 . S
C414 H377 0.930 . S
C414 C413 1.376 . S
C414 C415 1.376 . S
C415 C414 1.376 . S
C415 C416 1.378 . S
C415 C442 1.486 . S
C416 H378 0.930 . S
C416 C415 1.378 . S
C416 C417 1.376 . S
C417 H379 0.929 . S
C417 C412 1.397 . S
C417 C416 1.376 . S
C418 C402 1.509 . S
C418 C419 1.391 . S
C418 C423 1.386 . S
C419 H380 0.930 . S
C419 C418 1.391 . S
C419 C420 1.375 . S
C420 H381 0.931 . S
C420 C419 1.375 . S
C420 C421 1.375 . S
C421 C420 1.375 . S
C421 C422 1.361 . S
C422 H382 0.930 . S
C422 C421 1.361 . S
C422 C423 1.399 . S
C423 H383 0.929 . S
C423 C418 1.386 . S
C423 C422 1.399 . S
C424 C403 1.485 . S
C424 C425 1.394 . S
C424 C429 1.360 . S
C425 H384 0.931 . S
C425 C424 1.394 . S
C425 C426 1.372 . S
C426 H385 0.930 . S
C426 C425 1.372 . S
C426 C427 1.397 . S
C427 C426 1.397 . S
C427 C428 1.390 . S
C427 C443 1.476 . S
C428 H386 0.930 . S
C428 C427 1.390 . S
C428 C429 1.366 . S
C429 H387 0.932 . S
C429 C424 1.360 . S
C429 C428 1.366 . S
C430 C404 1.490 . S
C430 C431 1.380 . S
C430 C435 1.386 . S
C431 H388 0.930 . S
C431 C430 1.380 . S
C431 C432 1.381 . S
C432 H389 0.929 . S
C432 C431 1.381 . S
C432 C433 1.371 . S
C433 C432 1.371 . S
C433 C434 1.380 . S
C434 H390 0.931 . S
C434 C433 1.380 . S
C434 C435 1.387 . S
C435 H391 0.930 . S
C435 C430 1.386 . S
C435 C434 1.387 . S
C436 C405 1.519 . S
C436 C437 1.377 . S
C436 C441 1.361 . S
C437 H392 0.929 . S
C437 C436 1.377 . S
C437 C438 1.386 . S
C438 H393 0.931 . S
C438 C437 1.386 . S
C438 C439 1.363 . S
C439 C438 1.363 . S
C439 C440 1.385 . S
C440 H394 0.930 . S
C440 C439 1.385 . S
C440 C441 1.396 . S
C441 H395 0.929 . S
C441 C436 1.361 . S
C441 C440 1.396 . S
C442 O396 1.300 . S
C442 O397 1.209 . S
C442 C415 1.486 . S
C443 O398 1.199 . S
C443 O399 1.297 . S
C443 C427 1.476 . S
H444 O470 0.856 . S
H445 O473 0.854 . S
H446 C481 0.930 . S
H447 C482 0.930 . S
H448 C484 0.930 . S
H449 C485 0.930 . S
H450 C487 0.931 . S
H451 C488 0.930 . S
H452 C490 0.930 . S
H453 C491 0.929 . S
H454 C493 0.930 . S
H455 C494 0.931 . S
H456 C496 0.930 . S
H457 C497 0.929 . S
H458 C499 0.931 . S
H459 C500 0.930 . S
H460 C502 0.930 . S
H461 C503 0.932 . S
H462 C505 0.930 . S
H463 C506 0.929 . S
H464 C508 0.931 . S
H465 C509 0.930 . S
H466 C511 0.929 . S
H467 C512 0.931 . S
H468 C514 0.930 . S
H469 C515 0.929 . S
O470 H444 0.856 . S
O470 C516 1.300 . S
O471 C516 1.209 . S
O472 C517 1.199 . S
O473 H445 0.854 . S
O473 C517 1.297 . S
C474 C475 1.404 . S
C474 C479 1.397 . S
C474 C480 1.492 . S
C475 C474 1.404 . S
C475 C476 1.396 . S
C475 C486 1.492 . S
C476 C475 1.396 . S
C476 C477 1.397 . S
C476 C492 1.509 . S
C477 C476 1.397 . S
C477 C478 1.412 . S
C477 C498 1.485 . S
C478 C477 1.412 . S
C478 C479 1.388 . S
C478 C504 1.490 . S
C479 C474 1.397 . S
C479 C478 1.388 . S
C479 C510 1.519 . S
C480 C474 1.492 . S
C480 C481 1.363 . S
C480 C485 1.390 . S
C481 H446 0.930 . S
C481 C480 1.363 . S
C481 C482 1.372 . S
C482 H447 0.930 . S
C482 C481 1.372 . S
C482 C483 1.383 . S
C483 C482 1.383 . S
C483 C484 1.395 . S
C484 H448 0.930 . S
C484 C483 1.395 . S
C484 C485 1.362 . S
C485 H449 0.930 . S
C485 C480 1.390 . S
C485 C484 1.362 . S
C486 C475 1.492 . S
C486 C487 1.377 . S
C486 C491 1.397 . S
C487 H450 0.931 . S
C487 C486 1.377 . S
C487 C488 1.376 . S
C488 H451 0.930 . S
C488 C487 1.376 . S
C488 C489 1.376 . S
C489 C488 1.376 . S
C489 C490 1.378 . S
C489 C516 1.486 . S
C490 H452 0.930 . S
C490 C489 1.378 . S
C490 C491 1.376 . S
C491 H453 0.929 . S
C491 C486 1.397 . S
C491 C490 1.376 . S
C492 C476 1.509 . S
C492 C493 1.391 . S
C492 C497 1.386 . S
C493 H454 0.930 . S
C493 C492 1.391 . S
C493 C494 1.375 . S
C494 H455 0.931 . S
C494 C493 1.375 . S
C494 C495 1.375 . S
C495 C494 1.375 . S
C495 C496 1.361 . S
C496 H456 0.930 . S
C496 C495 1.361 . S
C496 C497 1.399 . S
C497 H457 0.929 . S
C497 C492 1.386 . S
C497 C496 1.399 . S
C498 C477 1.485 . S
C498 C499 1.394 . S
C498 C503 1.360 . S
C499 H458 0.931 . S
C499 C498 1.394 . S
C499 C500 1.372 . S
C500 H459 0.930 . S
C500 C499 1.372 . S
C500 C501 1.397 . S
C501 C500 1.397 . S
C501 C502 1.390 . S
C501 C517 1.476 . S
C502 H460 0.930 . S
C502 C501 1.390 . S
C502 C503 1.366 . S
C503 H461 0.932 . S
C503 C498 1.360 . S
C503 C502 1.366 . S
C504 C478 1.490 . S
C504 C505 1.380 . S
C504 C509 1.386 . S
C505 H462 0.930 . S
C505 C504 1.380 . S
C505 C506 1.381 . S
C506 H463 0.929 . S
C506 C505 1.381 . S
C506 C507 1.371 . S
C507 C506 1.371 . S
C507 C508 1.380 . S
C508 H464 0.931 . S
C508 C507 1.380 . S
C508 C509 1.387 . S
C509 H465 0.930 . S
C509 C504 1.386 . S
C509 C508 1.387 . S
C510 C479 1.519 . S
C510 C511 1.377 . S
C510 C515 1.361 . S
C511 H466 0.929 . S
C511 C510 1.377 . S
C511 C512 1.386 . S
C512 H467 0.931 . S
C512 C511 1.386 . S
C512 C513 1.363 . S
C513 C512 1.363 . S
C513 C514 1.385 . S
C514 H468 0.930 . S
C514 C513 1.385 . S
C514 C515 1.396 . S
C515 H469 0.929 . S
C515 C510 1.361 . S
C515 C514 1.396 . S
C516 O470 1.300 . S
C516 O471 1.209 . S
C516 C489 1.486 . S
C517 O472 1.199 . S
C517 O473 1.297 . S
C517 C501 1.476 . S
H518 O544 0.856 . S
H519 O547 0.854 . S
H520 C555 0.930 . S
H521 C556 0.930 . S
H522 C558 0.930 . S
H523 C559 0.930 . S
H524 C561 0.931 . S
H525 C562 0.930 . S
H526 C564 0.930 . S
H527 C565 0.929 . S
H528 C567 0.930 . S
H529 C568 0.931 . S
H530 C570 0.930 . S
H531 C571 0.929 . S
H532 C573 0.931 . S
H533 C574 0.930 . S
H534 C576 0.930 . S
H535 C577 0.932 . S
H536 C579 0.930 . S
H537 C580 0.929 . S
H538 C582 0.931 . S
H539 C583 0.930 . S
H540 C585 0.929 . S
H541 C586 0.931 . S
H542 C588 0.930 . S
H543 C589 0.929 . S
O544 H518 0.856 . S
O544 C590 1.300 . S
O545 C590 1.209 . S
O546 C591 1.199 . S
O547 H519 0.854 . S
O547 C591 1.297 . S
C548 C549 1.404 . S
C548 C553 1.397 . S
C548 C554 1.492 . S
C549 C548 1.404 . S
C549 C550 1.396 . S
C549 C560 1.492 . S
C550 C549 1.396 . S
C550 C551 1.397 . S
C550 C566 1.509 . S
C551 C550 1.397 . S
C551 C552 1.412 . S
C551 C572 1.485 . S
C552 C551 1.412 . S
C552 C553 1.388 . S
C552 C578 1.490 . S
C553 C548 1.397 . S
C553 C552 1.388 . S
C553 C584 1.519 . S
C554 C548 1.492 . S
C554 C555 1.363 . S
C554 C559 1.390 . S
C555 H520 0.930 . S
C555 C554 1.363 . S
C555 C556 1.372 . S
C556 H521 0.930 . S
C556 C555 1.372 . S
C556 C557 1.383 . S
C557 C556 1.383 . S
C557 C558 1.395 . S
C558 H522 0.930 . S
C558 C557 1.395 . S
C558 C559 1.362 . S
C559 H523 0.930 . S
C559 C554 1.390 . S
C559 C558 1.362 . S
C560 C549 1.492 . S
C560 C561 1.377 . S
C560 C565 1.397 . S
C561 H524 0.931 . S
C561 C560 1.377 . S
C561 C562 1.376 . S
C562 H525 0.930 . S
C562 C561 1.376 . S
C562 C563 1.376 . S
C563 C562 1.376 . S
C563 C564 1.378 . S
C563 C590 1.486 . S
C564 H526 0.930 . S
C564 C563 1.378 . S
C564 C565 1.376 . S
C565 H527 0.929 . S
C565 C560 1.397 . S
C565 C564 1.376 . S
C566 C550 1.509 . S
C566 C567 1.391 . S
C566 C571 1.386 . S
C567 H528 0.930 . S
C567 C566 1.391 . S
C567 C568 1.375 . S
C568 H529 0.931 . S
C568 C567 1.375 . S
C568 C569 1.375 . S
C569 C568 1.375 . S
C569 C570 1.361 . S
C570 H530 0.930 . S
C570 C569 1.361 . S
C570 C571 1.399 . S
C571 H531 0.929 . S
C571 C566 1.386 . S
C571 C570 1.399 . S
C572 C551 1.485 . S
C572 C573 1.394 . S
C572 C577 1.360 . S
C573 H532 0.931 . S
C573 C572 1.394 . S
C573 C574 1.372 . S
C574 H533 0.930 . S
C574 C573 1.372 . S
C574 C575 1.397 . S
C575 C574 1.397 . S
C575 C576 1.390 . S
C575 C591 1.476 . S
C576 H534 0.930 . S
C576 C575 1.390 . S
C576 C577 1.366 . S
C577 H535 0.932 . S
C577 C572 1.360 . S
C577 C576 1.366 . S
C578 C552 1.490 . S
C578 C579 1.380 . S
C578 C583 1.386 . S
C579 H536 0.930 . S
C579 C578 1.380 . S
C579 C580 1.381 . S
C580 H537 0.929 . S
C580 C579 1.381 . S
C580 C581 1.371 . S
C581 C580 1.371 . S
C581 C582 1.380 . S
C582 H538 0.931 . S
C582 C581 1.380 . S
C582 C583 1.387 . S
C583 H539 0.930 . S
C583 C578 1.386 . S
C583 C582 1.387 . S
C584 C553 1.519 . S
C584 C585 1.377 . S
C584 C589 1.361 . S
C585 H540 0.929 . S
C585 C584 1.377 . S
C585 C586 1.386 . S
C586 H541 0.931 . S
C586 C585 1.386 . S
C586 C587 1.363 . S
C587 C586 1.363 . S
C587 C588 1.385 . S
C588 H542 0.930 . S
C588 C587 1.385 . S
C588 C589 1.396 . S
C589 H543 0.929 . S
C589 C584 1.361 . S
C589 C588 1.396 . S
C590 O544 1.300 . S
C590 O545 1.209 . S
C590 C563 1.486 . S
C591 O546 1.199 . S
C591 O547 1.297 . S
C591 C575 1.476 . S
C592 C593 1.443 . S
C592 N596 1.376 . S
C592 C630 1.389 . S
C593 C592 1.443 . S
C593 C594 1.340 . S
C593 H633 0.951 . S
C594 C593 1.340 . S
C594 C595 1.439 . S
C594 H634 0.950 . S
C595 C594 1.439 . S
C595 N596 1.374 . S
C595 C629 1.395 1_455 S
N596 C592 1.376 . S
N596 C595 1.374 . S
N596 Co597 2.026 . S
Co597 N596 2.026 . S
Co597 N598 1.966 1_455 S
Co597 N603 1.991 1_455 S
Co597 N608 2.024 . S
Co597 N613 2.254 1_455 S
Co597 N619 2.311 . S
N598 Co597 1.966 1_655 S
N598 C599 1.376 . S
N598 C602 1.383 . S
C599 N598 1.376 . S
C599 C600 1.446 . S
C599 C629 1.391 . S
C600 C599 1.446 . S
C600 C601 1.339 . S
C600 H635 0.949 . S
C601 C600 1.339 . S
C601 C602 1.439 . S
C601 H636 0.950 . S
C602 N598 1.383 . S
C602 C601 1.439 . S
C602 C631 1.392 . S
N603 Co597 1.991 1_655 S
N603 C604 1.376 . S
N603 C607 1.374 . S
C604 N603 1.376 . S
C604 C605 1.443 . S
C604 C631 1.389 . S
C605 C604 1.443 . S
C605 C606 1.340 . S
C605 H637 0.951 . S
C606 C605 1.340 . S
C606 C607 1.439 . S
C606 H638 0.950 . S
C607 N603 1.374 . S
C607 C606 1.439 . S
C607 C632 1.395 1_655 S
N608 Co597 2.024 . S
N608 C609 1.376 . S
N608 C612 1.383 . S
C609 N608 1.376 . S
C609 C610 1.446 . S
C609 C632 1.391 . S
C610 C609 1.446 . S
C610 C611 1.339 . S
C610 H639 0.949 . S
C611 C610 1.339 . S
C611 C612 1.439 . S
C611 H640 0.950 . S
C612 N608 1.383 . S
C612 C611 1.439 . S
C612 C630 1.392 . S
N613 Co597 2.254 1_655 S
N613 C616 1.332 . S
N613 C618 1.332 . S
C614 C615 1.386 . S
C614 C617 1.388 . S
C615 C614 1.386 . S
C615 C616 1.382 . S
C615 H641 0.950 . S
C616 N613 1.332 . S
C616 C615 1.382 . S
C616 H627 0.952 . S
C617 C614 1.388 . S
C617 C618 1.382 . S
C617 H642 0.950 . S
C618 N613 1.332 . S
C618 C617 1.382 . S
C618 H628 0.948 . S
N619 Co597 2.311 . S
N619 C623 1.332 . S
N619 C624 1.332 . S
C620 C621 1.388 . S
C620 C624 1.382 . S
C620 H643 0.950 . S
C621 C620 1.388 . S
C621 C622 1.386 . S
C622 C621 1.386 . S
C622 C623 1.382 . S
C622 H644 0.950 . S
C623 N619 1.332 . S
C623 C622 1.382 . S
C623 H625 0.952 . S
C624 N619 1.332 . S
C624 C620 1.382 . S
C624 H626 0.948 . S
H625 C623 0.952 . S
H626 C624 0.948 . S
H627 C616 0.952 . S
H628 C618 0.948 . S
C629 C595 1.395 1_655 S
C629 C599 1.391 . S
C630 C592 1.389 . S
C630 C612 1.392 . S
C631 C602 1.392 . S
C631 C604 1.389 . S
C632 C607 1.395 1_455 S
C632 C609 1.391 . S
H633 C593 0.951 . S
H634 C594 0.950 . S
H635 C600 0.949 . S
H636 C601 0.950 . S
H637 C605 0.951 . S
H638 C606 0.950 . S
H639 C610 0.949 . S
H640 C611 0.950 . S
H641 C615 0.950 . S
H642 C617 0.950 . S
H643 C620 0.950 . S
H644 C622 0.950 . S
C645 C646 1.443 . S
C645 N649 1.376 . S
C645 C683 1.389 . S
C646 C645 1.443 . S
C646 C647 1.340 . S
C646 H686 0.951 . S
C647 C646 1.340 . S
C647 C648 1.439 . S
C647 H687 0.950 . S
C648 C647 1.439 . S
C648 N649 1.374 . S
C648 C682 1.395 . S
N649 C645 1.376 . S
N649 C648 1.374 . S
N649 Co650 2.008 . S
Co650 N649 2.008 . S
Co650 N651 1.995 1_545 S
Co650 N656 2.008 1_545 S
Co650 N661 1.995 . S
Co650 N666 2.282 1_545 S
Co650 N672 2.282 . S
N651 Co650 1.995 1_565 S
N651 C652 1.376 . S
N651 C655 1.383 . S
C652 N651 1.376 . S
C652 C653 1.446 . S
C652 C682 1.391 1_565 S
C653 C652 1.446 . S
C653 C654 1.339 . S
C653 H688 0.949 . S
C654 C653 1.339 . S
C654 C655 1.439 . S
C654 H689 0.950 . S
C655 N651 1.383 . S
C655 C654 1.439 . S
C655 C684 1.392 . S
N656 Co650 2.008 1_565 S
N656 C657 1.376 . S
N656 C660 1.374 . S
C657 N656 1.376 . S
C657 C658 1.443 . S
C657 C684 1.389 . S
C658 C657 1.443 . S
C658 C659 1.340 . S
C658 H690 0.951 . S
C659 C658 1.340 . S
C659 C660 1.439 . S
C659 H691 0.950 . S
C660 N656 1.374 . S
C660 C659 1.439 . S
C660 C685 1.395 1_565 S
N661 Co650 1.995 . S
N661 C662 1.376 . S
N661 C665 1.383 . S
C662 N661 1.376 . S
C662 C663 1.446 . S
C662 C685 1.391 . S
C663 C662 1.446 . S
C663 C664 1.339 . S
C663 H692 0.949 . S
C664 C663 1.339 . S
C664 C665 1.439 . S
C664 H693 0.950 . S
C665 N661 1.383 . S
C665 C664 1.439 . S
C665 C683 1.392 . S
N666 Co650 2.282 1_565 S
N666 C669 1.332 . S
N666 C671 1.332 . S
C667 C668 1.386 . S
C667 C670 1.388 . S
C668 C667 1.386 . S
C668 C669 1.382 . S
C668 H694 0.950 . S
C669 N666 1.332 . S
C669 C668 1.382 . S
C669 H680 0.952 . S
C670 C667 1.388 . S
C670 C671 1.382 . S
C670 H695 0.950 . S
C671 N666 1.332 . S
C671 C670 1.382 . S
C671 H681 0.948 . S
N672 Co650 2.282 . S
N672 C676 1.332 . S
N672 C677 1.332 . S
C673 C674 1.388 . S
C673 C677 1.382 . S
C673 H696 0.950 . S
C674 C673 1.388 . S
C674 C675 1.386 . S
C675 C674 1.386 . S
C675 C676 1.382 . S
C675 H697 0.950 . S
C676 N672 1.332 . S
C676 C675 1.382 . S
C676 H678 0.952 . S
C677 N672 1.332 . S
C677 C673 1.382 . S
C677 H679 0.948 . S
H678 C676 0.952 . S
H679 C677 0.948 . S
H680 C669 0.952 . S
H681 C671 0.948 . S
C682 C648 1.395 . S
C682 C652 1.391 1_545 S
C683 C645 1.389 . S
C683 C665 1.392 . S
C684 C655 1.392 . S
C684 C657 1.389 . S
C685 C660 1.395 1_545 S
C685 C662 1.391 . S
H686 C646 0.951 . S
H687 C647 0.950 . S
H688 C653 0.949 . S
H689 C654 0.950 . S
H690 C658 0.951 . S
H691 C659 0.950 . S
H692 C663 0.949 . S
H693 C664 0.950 . S
H694 C668 0.950 . S
H695 C670 0.950 . S
H696 C673 0.950 . S
H697 C675 0.950 . S
C698 C699 1.443 . S
C698 N702 1.376 . S
C698 C736 1.389 . S
C699 C698 1.443 . S
C699 C700 1.340 . S
C699 H739 0.951 . S
C700 C699 1.340 . S
C700 C701 1.439 . S
C700 H740 0.950 . S
C701 C700 1.439 . S
C701 N702 1.374 . S
C701 C735 1.395 . S
N702 C698 1.376 . S
N702 C701 1.374 . S
N702 Co703 2.008 . S
Co703 N702 2.008 . S
Co703 N704 1.995 . S
Co703 N709 2.008 . S
Co703 N714 1.995 . S
Co703 N719 2.282 . S
Co703 N725 2.282 . S
N704 Co703 1.995 . S
N704 C705 1.376 . S
N704 C708 1.383 1_455 S
C705 N704 1.376 . S
C705 C706 1.446 1_455 S
C705 C735 1.391 . S
C706 C705 1.446 1_655 S
C706 C707 1.339 . S
C706 H741 0.949 . S
C707 C706 1.339 . S
C707 C708 1.439 . S
C707 H742 0.950 . S
C708 N704 1.383 1_655 S
C708 C707 1.439 . S
C708 C737 1.392 . S
N709 Co703 2.008 . S
N709 C710 1.376 1_455 S
N709 C713 1.374 . S
C710 N709 1.376 1_655 S
C710 C711 1.443 . S
C710 C737 1.389 . S
C711 C710 1.443 . S
C711 C712 1.340 1_655 S
C711 H743 0.951 . S
C712 C711 1.340 1_455 S
C712 C713 1.439 . S
C712 H744 0.950 . S
C713 N709 1.374 . S
C713 C712 1.439 . S
C713 C738 1.395 . S
N714 Co703 1.995 . S
N714 C715 1.376 . S
N714 C718 1.383 . S
C715 N714 1.376 . S
C715 C716 1.446 . S
C715 C738 1.391 . S
C716 C715 1.446 . S
C716 C717 1.339 . S
C716 H745 0.949 . S
C717 C716 1.339 . S
C717 C718 1.439 . S
C717 H746 0.950 . S
C718 N714 1.383 . S
C718 C717 1.439 . S
C718 C736 1.392 . S
N719 Co703 2.282 . S
N719 C722 1.332 . S
N719 C724 1.332 1_455 S
C720 C721 1.386 . S
C720 C723 1.388 . S
C721 C720 1.386 . S
C721 C722 1.382 1_655 S
C721 H747 0.950 . S
C722 N719 1.332 . S
C722 C721 1.382 1_455 S
C722 H733 0.952 . S
C723 C720 1.388 . S
C723 C724 1.382 . S
C723 H748 0.950 . S
C724 N719 1.332 1_655 S
C724 C723 1.382 . S
C724 H734 0.948 . S
N725 Co703 2.282 . S
N725 C729 1.332 . S
N725 C730 1.332 . S
C726 C727 1.388 . S
C726 C730 1.382 . S
C726 H749 0.950 . S
C727 C726 1.388 . S
C727 C728 1.386 . S
C728 C727 1.386 . S
C728 C729 1.382 . S
C728 H750 0.950 . S
C729 N725 1.332 . S
C729 C728 1.382 . S
C729 H731 0.952 . S
C730 N725 1.332 . S
C730 C726 1.382 . S
C730 H732 0.948 . S
H731 C729 0.952 . S
H732 C730 0.948 . S
H733 C722 0.952 . S
H734 C724 0.948 . S
C735 C701 1.395 . S
C735 C705 1.391 . S
C736 C698 1.389 . S
C736 C718 1.392 . S
C737 C708 1.392 . S
C737 C710 1.389 . S
C738 C713 1.395 . S
C738 C715 1.391 . S
H739 C699 0.951 . S
H740 C700 0.950 . S
H741 C706 0.949 . S
H742 C707 0.950 . S
H743 C711 0.951 . S
H744 C712 0.950 . S
H745 C716 0.949 . S
H746 C717 0.950 . S
H747 C721 0.950 . S
H748 C723 0.950 . S
H749 C726 0.950 . S
H750 C728 0.950 . S
C751 C752 1.443 . S
C751 N755 1.376 . S
C751 C789 1.389 . S
C752 C751 1.443 . S
C752 C753 1.340 . S
C752 H792 0.951 . S
C753 C752 1.340 . S
C753 C754 1.439 . S
C753 H793 0.950 . S
C754 C753 1.439 . S
C754 N755 1.374 . S
C754 C788 1.395 . S
N755 C751 1.376 . S
N755 C754 1.374 . S
N755 Co756 2.008 . S
Co756 N755 2.008 . S
Co756 N757 1.995 . S
Co756 N762 2.008 . S
Co756 N767 1.995 . S
Co756 N772 2.282 . S
Co756 N778 2.282 . S
N757 Co756 1.995 . S
N757 C758 1.376 . S
N757 C761 1.383 . S
C758 N757 1.376 . S
C758 C759 1.446 . S
C758 C788 1.391 . S
C759 C758 1.446 . S
C759 C760 1.339 . S
C759 H794 0.949 . S
C760 C759 1.339 . S
C760 C761 1.439 . S
C760 H795 0.950 . S
C761 N757 1.383 . S
C761 C760 1.439 . S
C761 C790 1.392 . S
N762 Co756 2.008 . S
N762 C763 1.376 . S
N762 C766 1.374 . S
C763 N762 1.376 . S
C763 C764 1.443 . S
C763 C790 1.389 . S
C764 C763 1.443 . S
C764 C765 1.340 . S
C764 H796 0.951 . S
C765 C764 1.340 . S
C765 C766 1.439 . S
C765 H797 0.950 . S
C766 N762 1.374 . S
C766 C765 1.439 . S
C766 C791 1.395 . S
N767 Co756 1.995 . S
N767 C768 1.376 . S
N767 C771 1.383 . S
C768 N767 1.376 . S
C768 C769 1.446 . S
C768 C791 1.391 . S
C769 C768 1.446 . S
C769 C770 1.339 . S
C769 H798 0.949 . S
C770 C769 1.339 . S
C770 C771 1.439 . S
C770 H799 0.950 . S
C771 N767 1.383 . S
C771 C770 1.439 . S
C771 C789 1.392 . S
N772 Co756 2.282 . S
N772 C775 1.332 . S
N772 C777 1.332 . S
C773 C774 1.386 . S
C773 C776 1.388 . S
C774 C773 1.386 . S
C774 C775 1.382 . S
C774 H800 0.950 . S
C775 N772 1.332 . S
C775 C774 1.382 . S
C775 H786 0.952 . S
C776 C773 1.388 . S
C776 C777 1.382 . S
C776 H801 0.950 . S
C777 N772 1.332 . S
C777 C776 1.382 . S
C777 H787 0.948 . S
N778 Co756 2.282 . S
N778 C782 1.332 . S
N778 C783 1.332 . S
C779 C780 1.388 . S
C779 C783 1.382 . S
C779 H802 0.950 . S
C780 C779 1.388 . S
C780 C781 1.386 . S
C781 C780 1.386 . S
C781 C782 1.382 . S
C781 H803 0.950 . S
C782 N778 1.332 . S
C782 C781 1.382 . S
C782 H784 0.952 . S
C783 N778 1.332 . S
C783 C779 1.382 . S
C783 H785 0.948 . S
H784 C782 0.952 . S
H785 C783 0.948 . S
H786 C775 0.952 . S
H787 C777 0.948 . S
C788 C754 1.395 . S
C788 C758 1.391 . S
C789 C751 1.389 . S
C789 C771 1.392 . S
C790 C761 1.392 . S
C790 C763 1.389 . S
C791 C766 1.395 . S
C791 C768 1.391 . S
H792 C752 0.951 . S
H793 C753 0.950 . S
H794 C759 0.949 . S
H795 C760 0.950 . S
H796 C764 0.951 . S
H797 C765 0.950 . S
H798 C769 0.949 . S
H799 C770 0.950 . S
H800 C774 0.950 . S
H801 C776 0.950 . S
H802 C779 0.950 . S
H803 C781 0.950 . S
C804 C805 1.443 . S
C804 N808 1.376 . S
C804 C842 1.389 . S
C805 C804 1.443 . S
C805 C806 1.340 . S
C805 H845 0.951 . S
C806 C805 1.340 . S
C806 C807 1.439 . S
C806 H846 0.950 . S
C807 C806 1.439 . S
C807 N808 1.374 . S
C807 C841 1.395 . S
N808 C804 1.376 . S
N808 C807 1.374 . S
N808 Co809 2.008 . S
Co809 N808 2.008 . S
Co809 N810 1.995 1_554 S
Co809 N815 2.008 1_554 S
Co809 N820 1.995 . S
Co809 N825 2.282 . S
Co809 N831 2.282 1_554 S
N810 Co809 1.995 1_556 S
N810 C811 1.376 . S
N810 C814 1.383 . S
C811 N810 1.376 . S
C811 C812 1.446 . S
C811 C841 1.391 1_556 S
C812 C811 1.446 . S
C812 C813 1.339 . S
C812 H847 0.949 . S
C813 C812 1.339 . S
C813 C814 1.439 . S
C813 H848 0.950 . S
C814 N810 1.383 . S
C814 C813 1.439 . S
C814 C843 1.392 . S
N815 Co809 2.008 1_556 S
N815 C816 1.376 . S
N815 C819 1.374 . S
C816 N815 1.376 . S
C816 C817 1.443 . S
C816 C843 1.389 . S
C817 C816 1.443 . S
C817 C818 1.340 . S
C817 H849 0.951 . S
C818 C817 1.340 . S
C818 C819 1.439 . S
C818 H850 0.950 . S
C819 N815 1.374 . S
C819 C818 1.439 . S
C819 C844 1.395 1_556 S
N820 Co809 1.995 . S
N820 C821 1.376 . S
N820 C824 1.383 . S
C821 N820 1.376 . S
C821 C822 1.446 . S
C821 C844 1.391 . S
C822 C821 1.446 . S
C822 C823 1.339 . S
C822 H851 0.949 . S
C823 C822 1.339 . S
C823 C824 1.439 . S
C823 H852 0.950 . S
C824 N820 1.383 . S
C824 C823 1.439 . S
C824 C842 1.392 . S
N825 Co809 2.282 . S
N825 C828 1.332 . S
N825 C830 1.332 . S
C826 C827 1.386 . S
C826 C829 1.388 . S
C827 C826 1.386 . S
C827 C828 1.382 . S
C827 H853 0.950 . S
C828 N825 1.332 . S
C828 C827 1.382 . S
C828 H839 0.952 . S
C829 C826 1.388 . S
C829 C830 1.382 . S
C829 H854 0.950 . S
C830 N825 1.332 . S
C830 C829 1.382 . S
C830 H840 0.948 . S
N831 Co809 2.282 1_556 S
N831 C835 1.332 . S
N831 C836 1.332 . S
C832 C833 1.388 . S
C832 C836 1.382 . S
C832 H855 0.950 . S
C833 C832 1.388 . S
C833 C834 1.386 . S
C834 C833 1.386 . S
C834 C835 1.382 . S
C834 H856 0.950 . S
C835 N831 1.332 . S
C835 C834 1.382 . S
C835 H837 0.952 . S
C836 N831 1.332 . S
C836 C832 1.382 . S
C836 H838 0.948 . S
H837 C835 0.952 . S
H838 C836 0.948 . S
H839 C828 0.952 . S
H840 C830 0.948 . S
C841 C807 1.395 . S
C841 C811 1.391 1_554 S
C842 C804 1.389 . S
C842 C824 1.392 . S
C843 C814 1.392 . S
C843 C816 1.389 . S
C844 C819 1.395 1_554 S
C844 C821 1.391 . S
H845 C805 0.951 . S
H846 C806 0.950 . S
H847 C812 0.949 . S
H848 C813 0.950 . S
H849 C817 0.951 . S
H850 C818 0.950 . S
H851 C822 0.949 . S
H852 C823 0.950 . S
H853 C827 0.950 . S
H854 C829 0.950 . S
H855 C832 0.950 . S
H856 C834 0.950 . S
C857 C858 1.443 . S
C857 N861 1.376 . S
C857 C895 1.389 . S
C858 C857 1.443 . S
C858 C859 1.340 . S
C858 H898 0.951 . S
C859 C858 1.340 . S
C859 C860 1.439 . S
C859 H899 0.950 . S
C860 C859 1.439 . S
C860 N861 1.374 . S
C860 C894 1.395 1_554 S
N861 C857 1.376 . S
N861 C860 1.374 . S
N861 Co862 2.008 . S
Co862 N861 2.008 . S
Co862 N863 1.995 1_554 S
Co862 N868 2.008 1_554 S
Co862 N873 1.995 . S
Co862 N878 2.282 . S
Co862 N884 2.282 1_554 S
N863 Co862 1.995 1_556 S
N863 C864 1.376 . S
N863 C867 1.383 . S
C864 N863 1.376 . S
C864 C865 1.446 . S
C864 C894 1.391 . S
C865 C864 1.446 . S
C865 C866 1.339 . S
C865 H900 0.949 . S
C866 C865 1.339 . S
C866 C867 1.439 . S
C866 H901 0.950 . S
C867 N863 1.383 . S
C867 C866 1.439 . S
C867 C896 1.392 . S
N868 Co862 2.008 1_556 S
N868 C869 1.376 . S
N868 C872 1.374 1_556 S
C869 N868 1.376 . S
C869 C870 1.443 . S
C869 C896 1.389 . S
C870 C869 1.443 . S
C870 C871 1.340 . S
C870 H902 0.951 . S
C871 C870 1.340 . S
C871 C872 1.439 1_556 S
C871 H903 0.950 1_556 S
C872 N868 1.374 1_554 S
C872 C871 1.439 1_554 S
C872 C897 1.395 . S
N873 Co862 1.995 . S
N873 C874 1.376 . S
N873 C877 1.383 . S
C874 N873 1.376 . S
C874 C875 1.446 . S
C874 C897 1.391 . S
C875 C874 1.446 . S
C875 C876 1.339 . S
C875 H904 0.949 . S
C876 C875 1.339 . S
C876 C877 1.439 . S
C876 H905 0.950 . S
C877 N873 1.383 . S
C877 C876 1.439 . S
C877 C895 1.392 . S
N878 Co862 2.282 . S
N878 C881 1.332 . S
N878 C883 1.332 . S
C879 C880 1.386 . S
C879 C882 1.388 . S
C880 C879 1.386 . S
C880 C881 1.382 . S
C880 H906 0.950 . S
C881 N878 1.332 . S
C881 C880 1.382 . S
C881 H892 0.952 . S
C882 C879 1.388 . S
C882 C883 1.382 . S
C882 H907 0.950 . S
C883 N878 1.332 . S
C883 C882 1.382 . S
C883 H893 0.948 . S
N884 Co862 2.282 1_556 S
N884 C888 1.332 . S
N884 C889 1.332 . S
C885 C886 1.388 . S
C885 C889 1.382 . S
C885 H908 0.950 . S
C886 C885 1.388 . S
C886 C887 1.386 . S
C887 C886 1.386 . S
C887 C888 1.382 . S
C887 H909 0.950 . S
C888 N884 1.332 . S
C888 C887 1.382 . S
C888 H890 0.952 . S
C889 N884 1.332 . S
C889 C885 1.382 . S
C889 H891 0.948 . S
H890 C888 0.952 . S
H891 C889 0.948 . S
H892 C881 0.952 . S
H893 C883 0.948 . S
C894 C860 1.395 1_556 S
C894 C864 1.391 . S
C895 C857 1.389 . S
C895 C877 1.392 . S
C896 C867 1.392 . S
C896 C869 1.389 . S
C897 C872 1.395 . S
C897 C874 1.391 . S
H898 C858 0.951 . S
H899 C859 0.950 . S
H900 C865 0.949 . S
H901 C866 0.950 . S
H902 C870 0.951 . S
H903 C871 0.950 1_554 S
H904 C875 0.949 . S
H905 C876 0.950 . S
H906 C880 0.950 . S
H907 C882 0.950 . S
H908 C885 0.950 . S
H909 C887 0.950 . S
C910 C911 1.443 . S
C910 N914 1.376 . S
C910 C948 1.389 1_554 S
C911 C910 1.443 . S
C911 C912 1.340 . S
C911 H951 0.951 1_554 S
C912 C911 1.340 . S
C912 C913 1.439 . S
C912 H952 0.950 . S
C913 C912 1.439 . S
C913 N914 1.374 . S
C913 C947 1.395 . S
N914 C910 1.376 . S
N914 C913 1.374 . S
N914 Co915 2.008 . S
Co915 N914 2.008 . S
Co915 N916 1.995 . S
Co915 N921 2.008 . S
Co915 N926 1.995 . S
Co915 N931 2.282 . S
Co915 N937 2.282 . S
N916 Co915 1.995 . S
N916 C917 1.376 . S
N916 C920 1.383 . S
C917 N916 1.376 . S
C917 C918 1.446 . S
C917 C947 1.391 . S
C918 C917 1.446 . S
C918 C919 1.339 . S
C918 H953 0.949 . S
C919 C918 1.339 . S
C919 C920 1.439 . S
C919 H954 0.950 . S
C920 N916 1.383 . S
C920 C919 1.439 . S
C920 C949 1.392 . S
N921 Co915 2.008 . S
N921 C922 1.376 . S
N921 C925 1.374 . S
C922 N921 1.376 . S
C922 C923 1.443 . S
C922 C949 1.389 . S
C923 C922 1.443 . S
C923 C924 1.340 . S
C923 H955 0.951 . S
C924 C923 1.340 . S
C924 C925 1.439 . S
C924 H956 0.950 . S
C925 N921 1.374 . S
C925 C924 1.439 . S
C925 C950 1.395 . S
N926 Co915 1.995 . S
N926 C927 1.376 . S
N926 C930 1.383 1_554 S
C927 N926 1.376 . S
C927 C928 1.446 1_554 S
C927 C950 1.391 . S
C928 C927 1.446 1_556 S
C928 C929 1.339 . S
C928 H957 0.949 . S
C929 C928 1.339 . S
C929 C930 1.439 . S
C929 H958 0.950 . S
C930 N926 1.383 1_556 S
C930 C929 1.439 . S
C930 C948 1.392 . S
N931 Co915 2.282 . S
N931 C934 1.332 . S
N931 C936 1.332 . S
C932 C933 1.386 . S
C932 C935 1.388 1_556 S
C933 C932 1.386 . S
C933 C934 1.382 1_556 S
C933 H959 0.950 . S
C934 N931 1.332 . S
C934 C933 1.382 1_554 S
C934 H945 0.952 1_554 S
C935 C932 1.388 1_554 S
C935 C936 1.382 . S
C935 H960 0.950 . S
C936 N931 1.332 . S
C936 C935 1.382 . S
C936 H946 0.948 . S
N937 Co915 2.282 . S
N937 C941 1.332 . S
N937 C942 1.332 . S
C938 C939 1.388 . S
C938 C942 1.382 . S
C938 H961 0.950 . S
C939 C938 1.388 . S
C939 C940 1.386 . S
C940 C939 1.386 . S
C940 C941 1.382 . S
C940 H962 0.950 . S
C941 N937 1.332 . S
C941 C940 1.382 . S
C941 H943 0.952 . S
C942 N937 1.332 . S
C942 C938 1.382 . S
C942 H944 0.948 . S
H943 C941 0.952 . S
H944 C942 0.948 . S
H945 C934 0.952 1_556 S
H946 C936 0.948 . S
C947 C913 1.395 . S
C947 C917 1.391 . S
C948 C910 1.389 1_556 S
C948 C930 1.392 . S
C949 C920 1.392 . S
C949 C922 1.389 . S
C950 C925 1.395 . S
C950 C927 1.391 . S
H951 C911 0.951 1_556 S
H952 C912 0.950 . S
H953 C918 0.949 . S
H954 C919 0.950 . S
H955 C923 0.951 . S
H956 C924 0.950 . S
H957 C928 0.949 . S
H958 C929 0.950 . S
H959 C933 0.950 . S
H960 C935 0.950 . S
H961 C938 0.950 . S
H962 C940 0.950 . S
C963 C964 1.443 . S
C963 N967 1.376 . S
C963 C1001 1.389 . S
C964 C963 1.443 . S
C964 C965 1.340 . S
C964 H1004 0.951 . S
C965 C964 1.340 . S
C965 C966 1.439 . S
C965 H1005 0.950 . S
C966 C965 1.439 . S
C966 N967 1.374 . S
C966 C1000 1.395 . S
N967 C963 1.376 . S
N967 C966 1.374 . S
N967 Co968 2.008 . S
Co968 N967 2.008 . S
Co968 N969 1.995 . S
Co968 N974 2.008 . S
Co968 N979 1.995 . S
Co968 N984 2.282 . S
Co968 N990 2.282 . S
N969 Co968 1.995 . S
N969 C970 1.376 . S
N969 C973 1.383 . S
C970 N969 1.376 . S
C970 C971 1.446 . S
C970 C1000 1.391 . S
C971 C970 1.446 . S
C971 C972 1.339 . S
C971 H1006 0.949 . S
C972 C971 1.339 . S
C972 C973 1.439 . S
C972 H1007 0.950 . S
C973 N969 1.383 . S
C973 C972 1.439 . S
C973 C1002 1.392 . S
N974 Co968 2.008 . S
N974 C975 1.376 . S
N974 C978 1.374 . S
C975 N974 1.376 . S
C975 C976 1.443 . S
C975 C1002 1.389 . S
C976 C975 1.443 . S
C976 C977 1.340 . S
C976 H1008 0.951 . S
C977 C976 1.340 . S
C977 C978 1.439 . S
C977 H1009 0.950 . S
C978 N974 1.374 . S
C978 C977 1.439 . S
C978 C1003 1.395 . S
N979 Co968 1.995 . S
N979 C980 1.376 . S
N979 C983 1.383 . S
C980 N979 1.376 . S
C980 C981 1.446 . S
C980 C1003 1.391 . S
C981 C980 1.446 . S
C981 C982 1.339 . S
C981 H1010 0.949 . S
C982 C981 1.339 . S
C982 C983 1.439 . S
C982 H1011 0.950 . S
C983 N979 1.383 . S
C983 C982 1.439 . S
C983 C1001 1.392 . S
N984 Co968 2.282 . S
N984 C987 1.332 . S
N984 C989 1.332 . S
C985 C986 1.386 . S
C985 C988 1.388 . S
C986 C985 1.386 . S
C986 C987 1.382 . S
C986 H1012 0.950 . S
C987 N984 1.332 . S
C987 C986 1.382 . S
C987 H998 0.952 . S
C988 C985 1.388 . S
C988 C989 1.382 . S
C988 H1013 0.950 . S
C989 N984 1.332 . S
C989 C988 1.382 . S
C989 H999 0.948 . S
N990 Co968 2.282 . S
N990 C994 1.332 . S
N990 C995 1.332 . S
C991 C992 1.388 . S
C991 C995 1.382 . S
C991 H1014 0.950 . S
C992 C991 1.388 . S
C992 C993 1.386 . S
C993 C992 1.386 . S
C993 C994 1.382 . S
C993 H1015 0.950 . S
C994 N990 1.332 . S
C994 C993 1.382 . S
C994 H996 0.952 . S
C995 N990 1.332 . S
C995 C991 1.382 . S
C995 H997 0.948 . S
H996 C994 0.952 . S
H997 C995 0.948 . S
H998 C987 0.952 . S
H999 C989 0.948 . S
C1000 C966 1.395 . S
C1000 C970 1.391 . S
C1001 C963 1.389 . S
C1001 C983 1.392 . S
C1002 C973 1.392 . S
C1002 C975 1.389 . S
C1003 C978 1.395 . S
C1003 C980 1.391 . S
H1004 C964 0.951 . S
H1005 C965 0.950 . S
H1006 C971 0.949 . S
H1007 C972 0.950 . S
H1008 C976 0.951 . S
H1009 C977 0.950 . S
H1010 C981 0.949 . S
H1011 C982 0.950 . S
H1012 C986 0.950 . S
H1013 C988 0.950 . S
H1014 C991 0.950 . S
H1015 C993 0.950 . S
C1016 C1017 1.391 . S
C1016 C1018 1.394 . S
C1016 H1032 0.931 . S
C1017 C1016 1.391 . S
C1017 C1021 1.376 . S
C1018 C1016 1.394 . S
C1018 C1019 1.369 . S
C1018 C1022 1.531 . S
C1019 C1018 1.369 . S
C1019 C1020 1.410 . S
C1019 C1027 1.503 . S
C1020 C1019 1.410 . S
C1020 C1021 1.392 . S
C1020 C1023 1.511 . S
C1021 C1017 1.376 . S
C1021 C1020 1.392 . S
C1021 H1033 0.929 . S
C1022 C1018 1.531 . S
C1022 H1034 0.960 . S
C1022 H1035 0.962 . S
C1022 H1036 0.960 . S
C1023 C1020 1.511 . S
C1023 H1037 0.961 . S
C1023 H1038 0.961 . S
C1023 H1039 0.961 . S
C1024 C1025 1.370 . S
C1024 C1026 1.363 . S
C1024 H1040 0.931 . S
C1025 C1024 1.370 . S
C1025 C1029 1.408 . S
C1026 C1024 1.363 . S
C1026 C1027 1.370 . S
C1026 C1030 1.524 . S
C1027 C1019 1.503 . S
C1027 C1026 1.370 . S
C1027 C1028 1.403 . S
C1028 C1027 1.403 . S
C1028 C1029 1.404 . S
C1028 C1031 1.539 . S
C1029 C1025 1.408 . S
C1029 C1028 1.404 . S
C1029 H1041 0.930 . S
C1030 C1026 1.524 . S
C1030 H1042 0.956 . S
C1030 H1043 0.961 . S
C1030 H1044 0.961 . S
C1031 C1028 1.539 . S
C1031 H1045 0.958 . S
C1031 H1046 0.961 . S
C1031 H1047 0.960 . S
H1032 C1016 0.931 . S
H1033 C1021 0.929 . S
H1034 C1022 0.960 . S
H1035 C1022 0.962 . S
H1036 C1022 0.960 . S
H1037 C1023 0.961 . S
H1038 C1023 0.961 . S
H1039 C1023 0.961 . S
H1040 C1024 0.931 . S
H1041 C1029 0.930 . S
H1042 C1030 0.956 . S
H1043 C1030 0.961 . S
H1044 C1030 0.961 . S
H1045 C1031 0.958 . S
H1046 C1031 0.961 . S
H1047 C1031 0.960 . S
C1048 C1049 1.391 . S
C1048 C1050 1.394 . S
C1048 H1064 0.931 . S
C1049 C1048 1.391 . S
C1049 C1053 1.376 . S
C1050 C1048 1.394 . S
C1050 C1051 1.369 . S
C1050 C1054 1.531 . S
C1051 C1050 1.369 . S
C1051 C1052 1.410 . S
C1051 C1059 1.503 . S
C1052 C1051 1.410 . S
C1052 C1053 1.392 . S
C1052 C1055 1.511 . S
C1053 C1049 1.376 . S
C1053 C1052 1.392 . S
C1053 H1065 0.929 . S
C1054 C1050 1.531 . S
C1054 H1066 0.960 . S
C1054 H1067 0.962 . S
C1054 H1068 0.960 . S
C1055 C1052 1.511 . S
C1055 H1069 0.961 . S
C1055 H1070 0.961 . S
C1055 H1071 0.961 . S
C1056 C1057 1.370 . S
C1056 C1058 1.363 . S
C1056 H1072 0.931 . S
C1057 C1056 1.370 . S
C1057 C1061 1.408 . S
C1058 C1056 1.363 . S
C1058 C1059 1.370 . S
C1058 C1062 1.524 . S
C1059 C1051 1.503 . S
C1059 C1058 1.370 . S
C1059 C1060 1.403 . S
C1060 C1059 1.403 . S
C1060 C1061 1.404 . S
C1060 C1063 1.539 . S
C1061 C1057 1.408 . S
C1061 C1060 1.404 . S
C1061 H1073 0.930 . S
C1062 C1058 1.524 . S
C1062 H1074 0.956 . S
C1062 H1075 0.961 . S
C1062 H1076 0.961 . S
C1063 C1060 1.539 . S
C1063 H1077 0.958 . S
C1063 H1078 0.961 . S
C1063 H1079 0.960 . S
H1064 C1048 0.931 . S
H1065 C1053 0.929 . S
H1066 C1054 0.960 . S
H1067 C1054 0.962 . S
H1068 C1054 0.960 . S
H1069 C1055 0.961 . S
H1070 C1055 0.961 . S
H1071 C1055 0.961 . S
H1072 C1056 0.931 . S
H1073 C1061 0.930 . S
H1074 C1062 0.956 . S
H1075 C1062 0.961 . S
H1076 C1062 0.961 . S
H1077 C1063 0.958 . S
H1078 C1063 0.961 . S
H1079 C1063 0.960 . S
C1080 C1081 1.391 . S
C1080 C1082 1.394 . S
C1080 H1096 0.931 . S
C1081 C1080 1.391 . S
C1081 C1085 1.376 . S
C1082 C1080 1.394 . S
C1082 C1083 1.369 . S
C1082 C1086 1.531 . S
C1083 C1082 1.369 . S
C1083 C1084 1.410 . S
C1083 C1091 1.503 . S
C1084 C1083 1.410 . S
C1084 C1085 1.392 . S
C1084 C1087 1.511 . S
C1085 C1081 1.376 . S
C1085 C1084 1.392 . S
C1085 H1097 0.929 . S
C1086 C1082 1.531 . S
C1086 H1098 0.960 . S
C1086 H1099 0.962 . S
C1086 H1100 0.960 . S
C1087 C1084 1.511 . S
C1087 H1101 0.961 . S
C1087 H1102 0.961 . S
C1087 H1103 0.961 . S
C1088 C1089 1.370 . S
C1088 C1090 1.363 . S
C1088 H1104 0.931 . S
C1089 C1088 1.370 . S
C1089 C1093 1.408 . S
C1090 C1088 1.363 . S
C1090 C1091 1.370 . S
C1090 C1094 1.524 . S
C1091 C1083 1.503 . S
C1091 C1090 1.370 . S
C1091 C1092 1.403 . S
C1092 C1091 1.403 . S
C1092 C1093 1.404 . S
C1092 C1095 1.539 . S
C1093 C1089 1.408 . S
C1093 C1092 1.404 . S
C1093 H1105 0.930 . S
C1094 C1090 1.524 . S
C1094 H1106 0.956 . S
C1094 H1107 0.961 . S
C1094 H1108 0.961 . S
C1095 C1092 1.539 . S
C1095 H1109 0.958 . S
C1095 H1110 0.961 . S
C1095 H1111 0.960 . S
H1096 C1080 0.931 . S
H1097 C1085 0.929 . S
H1098 C1086 0.960 . S
H1099 C1086 0.962 . S
H1100 C1086 0.960 . S
H1101 C1087 0.961 . S
H1102 C1087 0.961 . S
H1103 C1087 0.961 . S
H1104 C1088 0.931 . S
H1105 C1093 0.930 . S
H1106 C1094 0.956 . S
H1107 C1094 0.961 . S
H1108 C1094 0.961 . S
H1109 C1095 0.958 . S
H1110 C1095 0.961 . S
H1111 C1095 0.960 . S
C1112 C1113 1.391 . S
C1112 C1114 1.394 . S
C1112 H1128 0.931 . S
C1113 C1112 1.391 . S
C1113 C1117 1.376 . S
C1114 C1112 1.394 . S
C1114 C1115 1.369 1_565 S
C1114 C1118 1.531 . S
C1115 C1114 1.369 1_545 S
C1115 C1116 1.410 . S
C1115 C1123 1.503 . S
C1116 C1115 1.410 . S
C1116 C1117 1.392 1_545 S
C1116 C1119 1.511 . S
C1117 C1113 1.376 . S
C1117 C1116 1.392 1_565 S
C1117 H1129 0.929 . S
C1118 C1114 1.531 . S
C1118 H1130 0.960 1_565 S
C1118 H1131 0.962 . S
C1118 H1132 0.960 . S
C1119 C1116 1.511 . S
C1119 H1133 0.961 . S
C1119 H1134 0.961 . S
C1119 H1135 0.961 . S
C1120 C1121 1.370 . S
C1120 C1122 1.363 . S
C1120 H1136 0.931 . S
C1121 C1120 1.370 . S
C1121 C1125 1.408 . S
C1122 C1120 1.363 . S
C1122 C1123 1.370 . S
C1122 C1126 1.524 1_545 S
C1123 C1115 1.503 . S
C1123 C1122 1.370 . S
C1123 C1124 1.403 . S
C1124 C1123 1.403 . S
C1124 C1125 1.404 . S
C1124 C1127 1.539 . S
C1125 C1121 1.408 . S
C1125 C1124 1.404 . S
C1125 H1137 0.930 . S
C1126 C1122 1.524 1_565 S
C1126 H1138 0.956 . S
C1126 H1139 0.961 . S
C1126 H1140 0.961 1_565 S
C1127 C1124 1.539 . S
C1127 H1141 0.958 . S
C1127 H1142 0.961 . S
C1127 H1143 0.960 . S
H1128 C1112 0.931 . S
H1129 C1117 0.929 . S
H1130 C1118 0.960 1_545 S
H1131 C1118 0.962 . S
H1132 C1118 0.960 . S
H1133 C1119 0.961 . S
H1134 C1119 0.961 . S
H1135 C1119 0.961 . S
H1136 C1120 0.931 . S
H1137 C1125 0.930 . S
H1138 C1126 0.956 . S
H1139 C1126 0.961 . S
H1140 C1126 0.961 1_545 S
H1141 C1127 0.958 . S
H1142 C1127 0.961 . S
H1143 C1127 0.960 . S
C1144 C1145 1.391 . S
C1144 C1146 1.394 . S
C1144 H1160 0.931 . S
C1145 C1144 1.391 . S
C1145 C1149 1.376 . S
C1146 C1144 1.394 . S
C1146 C1147 1.369 . S
C1146 C1150 1.531 . S
C1147 C1146 1.369 . S
C1147 C1148 1.410 . S
C1147 C1155 1.503 . S
C1148 C1147 1.410 . S
C1148 C1149 1.392 . S
C1148 C1151 1.511 . S
C1149 C1145 1.376 . S
C1149 C1148 1.392 . S
C1149 H1161 0.929 . S
C1150 C1146 1.531 . S
C1150 H1162 0.960 . S
C1150 H1163 0.962 . S
C1150 H1164 0.960 . S
C1151 C1148 1.511 . S
C1151 H1165 0.961 . S
C1151 H1166 0.961 . S
C1151 H1167 0.961 . S
C1152 C1153 1.370 . S
C1152 C1154 1.363 . S
C1152 H1168 0.931 . S
C1153 C1152 1.370 . S
C1153 C1157 1.408 . S
C1154 C1152 1.363 . S
C1154 C1155 1.370 . S
C1154 C1158 1.524 . S
C1155 C1147 1.503 . S
C1155 C1154 1.370 . S
C1155 C1156 1.403 . S
C1156 C1155 1.403 . S
C1156 C1157 1.404 . S
C1156 C1159 1.539 . S
C1157 C1153 1.408 . S
C1157 C1156 1.404 . S
C1157 H1169 0.930 . S
C1158 C1154 1.524 . S
C1158 H1170 0.956 . S
C1158 H1171 0.961 . S
C1158 H1172 0.961 . S
C1159 C1156 1.539 . S
C1159 H1173 0.958 . S
C1159 H1174 0.961 . S
C1159 H1175 0.960 . S
H1160 C1144 0.931 . S
H1161 C1149 0.929 . S
H1162 C1150 0.960 . S
H1163 C1150 0.962 . S
H1164 C1150 0.960 . S
H1165 C1151 0.961 . S
H1166 C1151 0.961 . S
H1167 C1151 0.961 . S
H1168 C1152 0.931 . S
H1169 C1157 0.930 . S
H1170 C1158 0.956 . S
H1171 C1158 0.961 . S
H1172 C1158 0.961 . S
H1173 C1159 0.958 . S
H1174 C1159 0.961 . S
H1175 C1159 0.960 . S
C1176 C1177 1.391 . S
C1176 C1178 1.394 . S
C1176 H1192 0.931 . S
C1177 C1176 1.391 . S
C1177 C1181 1.376 . S
C1178 C1176 1.394 . S
C1178 C1179 1.369 . S
C1178 C1182 1.531 . S
C1179 C1178 1.369 . S
C1179 C1180 1.410 . S
C1179 C1187 1.503 . S
C1180 C1179 1.410 . S
C1180 C1181 1.392 . S
C1180 C1183 1.511 . S
C1181 C1177 1.376 . S
C1181 C1180 1.392 . S
C1181 H1193 0.929 . S
C1182 C1178 1.531 . S
C1182 H1194 0.960 . S
C1182 H1195 0.962 . S
C1182 H1196 0.960 . S
C1183 C1180 1.511 . S
C1183 H1197 0.961 . S
C1183 H1198 0.961 . S
C1183 H1199 0.961 . S
C1184 C1185 1.370 . S
C1184 C1186 1.363 . S
C1184 H1200 0.931 . S
C1185 C1184 1.370 . S
C1185 C1189 1.408 . S
C1186 C1184 1.363 . S
C1186 C1187 1.370 . S
C1186 C1190 1.524 . S
C1187 C1179 1.503 . S
C1187 C1186 1.370 . S
C1187 C1188 1.403 . S
C1188 C1187 1.403 . S
C1188 C1189 1.404 . S
C1188 C1191 1.539 . S
C1189 C1185 1.408 . S
C1189 C1188 1.404 . S
C1189 H1201 0.930 . S
C1190 C1186 1.524 . S
C1190 H1202 0.956 . S
C1190 H1203 0.961 . S
C1190 H1204 0.961 . S
C1191 C1188 1.539 . S
C1191 H1205 0.958 . S
C1191 H1206 0.961 . S
C1191 H1207 0.960 . S
H1192 C1176 0.931 . S
H1193 C1181 0.929 . S
H1194 C1182 0.960 . S
H1195 C1182 0.962 . S
H1196 C1182 0.960 . S
H1197 C1183 0.961 . S
H1198 C1183 0.961 . S
H1199 C1183 0.961 . S
H1200 C1184 0.931 . S
H1201 C1189 0.930 . S
H1202 C1190 0.956 . S
H1203 C1190 0.961 . S
H1204 C1190 0.961 . S
H1205 C1191 0.958 . S
H1206 C1191 0.961 . S
H1207 C1191 0.960 . S
C1208 C1209 1.391 . S
C1208 C1210 1.394 . S
C1208 H1224 0.931 . S
C1209 C1208 1.391 . S
C1209 C1213 1.376 . S
C1210 C1208 1.394 . S
C1210 C1211 1.369 . S
C1210 C1214 1.531 . S
C1211 C1210 1.369 . S
C1211 C1212 1.410 . S
C1211 C1219 1.503 . S
C1212 C1211 1.410 . S
C1212 C1213 1.392 . S
C1212 C1215 1.511 . S
C1213 C1209 1.376 . S
C1213 C1212 1.392 . S
C1213 H1225 0.929 . S
C1214 C1210 1.531 . S
C1214 H1226 0.960 . S
C1214 H1227 0.962 . S
C1214 H1228 0.960 . S
C1215 C1212 1.511 . S
C1215 H1229 0.961 . S
C1215 H1230 0.961 . S
C1215 H1231 0.961 . S
C1216 C1217 1.370 . S
C1216 C1218 1.363 . S
C1216 H1232 0.931 . S
C1217 C1216 1.370 . S
C1217 C1221 1.408 . S
C1218 C1216 1.363 . S
C1218 C1219 1.370 . S
C1218 C1222 1.524 . S
C1219 C1211 1.503 . S
C1219 C1218 1.370 . S
C1219 C1220 1.403 . S
C1220 C1219 1.403 . S
C1220 C1221 1.404 . S
C1220 C1223 1.539 . S
C1221 C1217 1.408 . S
C1221 C1220 1.404 . S
C1221 H1233 0.930 . S
C1222 C1218 1.524 . S
C1222 H1234 0.956 . S
C1222 H1235 0.961 . S
C1222 H1236 0.961 . S
C1223 C1220 1.539 . S
C1223 H1237 0.958 . S
C1223 H1238 0.961 . S
C1223 H1239 0.960 . S
H1224 C1208 0.931 . S
H1225 C1213 0.929 . S
H1226 C1214 0.960 . S
H1227 C1214 0.962 . S
H1228 C1214 0.960 . S
H1229 C1215 0.961 . S
H1230 C1215 0.961 . S
H1231 C1215 0.961 . S
H1232 C1216 0.931 . S
H1233 C1221 0.930 . S
H1234 C1222 0.956 . S
H1235 C1222 0.961 . S
H1236 C1222 0.961 . S
H1237 C1223 0.958 . S
H1238 C1223 0.961 . S
H1239 C1223 0.960 . S
C1240 C1241 1.391 . S
C1240 C1242 1.394 . S
C1240 H1256 0.931 . S
C1241 C1240 1.391 . S
C1241 C1245 1.376 . S
C1242 C1240 1.394 . S
C1242 C1243 1.369 . S
C1242 C1246 1.531 . S
C1243 C1242 1.369 . S
C1243 C1244 1.410 . S
C1243 C1251 1.503 . S
C1244 C1243 1.410 . S
C1244 C1245 1.392 . S
C1244 C1247 1.511 . S
C1245 C1241 1.376 . S
C1245 C1244 1.392 . S
C1245 H1257 0.929 . S
C1246 C1242 1.531 . S
C1246 H1258 0.960 . S
C1246 H1259 0.962 . S
C1246 H1260 0.960 . S
C1247 C1244 1.511 . S
C1247 H1261 0.961 . S
C1247 H1262 0.961 . S
C1247 H1263 0.961 . S
C1248 C1249 1.370 . S
C1248 C1250 1.363 . S
C1248 H1264 0.931 . S
C1249 C1248 1.370 . S
C1249 C1253 1.408 . S
C1250 C1248 1.363 . S
C1250 C1251 1.370 . S
C1250 C1254 1.524 . S
C1251 C1243 1.503 . S
C1251 C1250 1.370 . S
C1251 C1252 1.403 . S
C1252 C1251 1.403 . S
C1252 C1253 1.404 . S
C1252 C1255 1.539 . S
C1253 C1249 1.408 . S
C1253 C1252 1.404 . S
C1253 H1265 0.930 . S
C1254 C1250 1.524 . S
C1254 H1266 0.956 . S
C1254 H1267 0.961 . S
C1254 H1268 0.961 . S
C1255 C1252 1.539 . S
C1255 H1269 0.958 . S
C1255 H1270 0.961 . S
C1255 H1271 0.960 . S
H1256 C1240 0.931 . S
H1257 C1245 0.929 . S
H1258 C1246 0.960 . S
H1259 C1246 0.962 . S
H1260 C1246 0.960 . S
H1261 C1247 0.961 . S
H1262 C1247 0.961 . S
H1263 C1247 0.961 . S
H1264 C1248 0.931 . S
H1265 C1253 0.930 . S
H1266 C1254 0.956 . S
H1267 C1254 0.961 . S
H1268 C1254 0.961 . S
H1269 C1255 0.958 . S
H1270 C1255 0.961 . S
H1271 C1255 0.960 . S
C1272 C1273 1.391 . S
C1272 C1274 1.394 . S
C1272 H1288 0.931 . S
C1273 C1272 1.391 . S
C1273 C1277 1.376 . S
C1274 C1272 1.394 . S
C1274 C1275 1.369 . S
C1274 C1278 1.531 . S
C1275 C1274 1.369 . S
C1275 C1276 1.410 . S
C1275 C1283 1.503 . S
C1276 C1275 1.410 . S
C1276 C1277 1.392 . S
C1276 C1279 1.511 . S
C1277 C1273 1.376 . S
C1277 C1276 1.392 . S
C1277 H1289 0.929 . S
C1278 C1274 1.531 . S
C1278 H1290 0.960 . S
C1278 H1291 0.962 . S
C1278 H1292 0.960 . S
C1279 C1276 1.511 . S
C1279 H1293 0.961 . S
C1279 H1294 0.961 . S
C1279 H1295 0.961 . S
C1280 C1281 1.370 . S
C1280 C1282 1.363 . S
C1280 H1296 0.931 . S
C1281 C1280 1.370 . S
C1281 C1285 1.408 . S
C1282 C1280 1.363 . S
C1282 C1283 1.370 . S
C1282 C1286 1.524 . S
C1283 C1275 1.503 . S
C1283 C1282 1.370 . S
C1283 C1284 1.403 . S
C1284 C1283 1.403 . S
C1284 C1285 1.404 . S
C1284 C1287 1.539 . S
C1285 C1281 1.408 . S
C1285 C1284 1.404 . S
C1285 H1297 0.930 . S
C1286 C1282 1.524 . S
C1286 H1298 0.956 . S
C1286 H1299 0.961 . S
C1286 H1300 0.961 . S
C1287 C1284 1.539 . S
C1287 H1301 0.958 . S
C1287 H1302 0.961 . S
C1287 H1303 0.960 . S
H1288 C1272 0.931 . S
H1289 C1277 0.929 . S
H1290 C1278 0.960 . S
H1291 C1278 0.962 . S
H1292 C1278 0.960 . S
H1293 C1279 0.961 . S
H1294 C1279 0.961 . S
H1295 C1279 0.961 . S
H1296 C1280 0.931 . S
H1297 C1285 0.930 . S
H1298 C1286 0.956 . S
H1299 C1286 0.961 . S
H1300 C1286 0.961 . S
H1301 C1287 0.958 . S
H1302 C1287 0.961 . S
H1303 C1287 0.960 . S
C1304 C1305 1.391 1_545 S
C1304 C1306 1.394 . S
C1304 H1320 0.931 . S
C1305 C1304 1.391 1_565 S
C1305 C1309 1.376 . S
C1306 C1304 1.394 . S
C1306 C1307 1.369 . S
C1306 C1310 1.531 . S
C1307 C1306 1.369 . S
C1307 C1308 1.410 . S
C1307 C1315 1.503 . S
C1308 C1307 1.410 . S
C1308 C1309 1.392 1_545 S
C1308 C1311 1.511 . S
C1309 C1305 1.376 . S
C1309 C1308 1.392 1_565 S
C1309 H1321 0.929 . S
C1310 C1306 1.531 . S
C1310 H1322 0.960 . S
C1310 H1323 0.962 . S
C1310 H1324 0.960 . S
C1311 C1308 1.511 . S
C1311 H1325 0.961 . S
C1311 H1326 0.961 . S
C1311 H1327 0.961 . S
C1312 C1313 1.370 . S
C1312 C1314 1.363 . S
C1312 H1328 0.931 . S
C1313 C1312 1.370 . S
C1313 C1317 1.408 . S
C1314 C1312 1.363 . S
C1314 C1315 1.370 . S
C1314 C1318 1.524 . S
C1315 C1307 1.503 . S
C1315 C1314 1.370 . S
C1315 C1316 1.403 . S
C1316 C1315 1.403 . S
C1316 C1317 1.404 . S
C1316 C1319 1.539 . S
C1317 C1313 1.408 . S
C1317 C1316 1.404 . S
C1317 H1329 0.930 . S
C1318 C1314 1.524 . S
C1318 H1330 0.956 . S
C1318 H1331 0.961 . S
C1318 H1332 0.961 . S
C1319 C1316 1.539 . S
C1319 H1333 0.958 . S
C1319 H1334 0.961 . S
C1319 H1335 0.960 . S
H1320 C1304 0.931 . S
H1321 C1309 0.929 . S
H1322 C1310 0.960 . S
H1323 C1310 0.962 . S
H1324 C1310 0.960 . S
H1325 C1311 0.961 . S
H1326 C1311 0.961 . S
H1327 C1311 0.961 . S
H1328 C1312 0.931 . S
H1329 C1317 0.930 . S
H1330 C1318 0.956 . S
H1331 C1318 0.961 . S
H1332 C1318 0.961 . S
H1333 C1319 0.958 . S
H1334 C1319 0.961 . S
H1335 C1319 0.960 . S
C1336 C1337 1.391 . S
C1336 C1338 1.394 . S
C1336 H1352 0.931 . S
C1337 C1336 1.391 . S
C1337 C1341 1.376 . S
C1338 C1336 1.394 . S
C1338 C1339 1.369 . S
C1338 C1342 1.531 . S
C1339 C1338 1.369 . S
C1339 C1340 1.410 . S
C1339 C1347 1.503 . S
C1340 C1339 1.410 . S
C1340 C1341 1.392 . S
C1340 C1343 1.511 . S
C1341 C1337 1.376 . S
C1341 C1340 1.392 . S
C1341 H1353 0.929 . S
C1342 C1338 1.531 . S
C1342 H1354 0.960 . S
C1342 H1355 0.962 . S
C1342 H1356 0.960 . S
C1343 C1340 1.511 . S
C1343 H1357 0.961 . S
C1343 H1358 0.961 . S
C1343 H1359 0.961 . S
C1344 C1345 1.370 . S
C1344 C1346 1.363 . S
C1344 H1360 0.931 . S
C1345 C1344 1.370 . S
C1345 C1349 1.408 . S
C1346 C1344 1.363 . S
C1346 C1347 1.370 . S
C1346 C1350 1.524 . S
C1347 C1339 1.503 . S
C1347 C1346 1.370 . S
C1347 C1348 1.403 . S
C1348 C1347 1.403 . S
C1348 C1349 1.404 . S
C1348 C1351 1.539 . S
C1349 C1345 1.408 . S
C1349 C1348 1.404 . S
C1349 H1361 0.930 . S
C1350 C1346 1.524 . S
C1350 H1362 0.956 . S
C1350 H1363 0.961 . S
C1350 H1364 0.961 . S
C1351 C1348 1.539 . S
C1351 H1365 0.958 . S
C1351 H1366 0.961 . S
C1351 H1367 0.960 . S
H1352 C1336 0.931 . S
H1353 C1341 0.929 . S
H1354 C1342 0.960 . S
H1355 C1342 0.962 . S
H1356 C1342 0.960 . S
H1357 C1343 0.961 . S
H1358 C1343 0.961 . S
H1359 C1343 0.961 . S
H1360 C1344 0.931 . S
H1361 C1349 0.930 . S
H1362 C1350 0.956 . S
H1363 C1350 0.961 . S
H1364 C1350 0.961 . S
H1365 C1351 0.958 . S
H1366 C1351 0.961 . S
H1367 C1351 0.960 . S
C1368 C1369 1.391 . S
C1368 C1370 1.394 . S
C1368 H1384 0.931 . S
C1369 C1368 1.391 . S
C1369 C1373 1.376 . S
C1370 C1368 1.394 . S
C1370 C1371 1.369 . S
C1370 C1374 1.531 . S
C1371 C1370 1.369 . S
C1371 C1372 1.410 . S
C1371 C1379 1.503 . S
C1372 C1371 1.410 . S
C1372 C1373 1.392 . S
C1372 C1375 1.511 . S
C1373 C1369 1.376 . S
C1373 C1372 1.392 . S
C1373 H1385 0.929 . S
C1374 C1370 1.531 . S
C1374 H1386 0.960 . S
C1374 H1387 0.962 . S
C1374 H1388 0.960 . S
C1375 C1372 1.511 . S
C1375 H1389 0.961 . S
C1375 H1390 0.961 . S
C1375 H1391 0.961 . S
C1376 C1377 1.370 . S
C1376 C1378 1.363 . S
C1376 H1392 0.931 . S
C1377 C1376 1.370 . S
C1377 C1381 1.408 . S
C1378 C1376 1.363 . S
C1378 C1379 1.370 . S
C1378 C1382 1.524 . S
C1379 C1371 1.503 . S
C1379 C1378 1.370 . S
C1379 C1380 1.403 . S
C1380 C1379 1.403 . S
C1380 C1381 1.404 . S
C1380 C1383 1.539 . S
C1381 C1377 1.408 . S
C1381 C1380 1.404 . S
C1381 H1393 0.930 . S
C1382 C1378 1.524 . S
C1382 H1394 0.956 . S
C1382 H1395 0.961 . S
C1382 H1396 0.961 . S
C1383 C1380 1.539 . S
C1383 H1397 0.958 . S
C1383 H1398 0.961 . S
C1383 H1399 0.960 . S
H1384 C1368 0.931 . S
H1385 C1373 0.929 . S
H1386 C1374 0.960 . S
H1387 C1374 0.962 . S
H1388 C1374 0.960 . S
H1389 C1375 0.961 . S
H1390 C1375 0.961 . S
H1391 C1375 0.961 . S
H1392 C1376 0.931 . S
H1393 C1381 0.930 . S
H1394 C1382 0.956 . S
H1395 C1382 0.961 . S
H1396 C1382 0.961 . S
H1397 C1383 0.958 . S
H1398 C1383 0.961 . S
H1399 C1383 0.960 . S
C1400 C1401 1.391 . S
C1400 C1402 1.394 . S
C1400 H1416 0.931 . S
C1401 C1400 1.391 . S
C1401 C1405 1.376 . S
C1402 C1400 1.394 . S
C1402 C1403 1.369 . S
C1402 C1406 1.531 . S
C1403 C1402 1.369 . S
C1403 C1404 1.410 . S
C1403 C1411 1.503 . S
C1404 C1403 1.410 . S
C1404 C1405 1.392 . S
C1404 C1407 1.511 . S
C1405 C1401 1.376 . S
C1405 C1404 1.392 . S
C1405 H1417 0.929 . S
C1406 C1402 1.531 . S
C1406 H1418 0.960 . S
C1406 H1419 0.962 . S
C1406 H1420 0.960 . S
C1407 C1404 1.511 . S
C1407 H1421 0.961 . S
C1407 H1422 0.961 . S
C1407 H1423 0.961 . S
C1408 C1409 1.370 . S
C1408 C1410 1.363 . S
C1408 H1424 0.931 . S
C1409 C1408 1.370 . S
C1409 C1413 1.408 . S
C1410 C1408 1.363 . S
C1410 C1411 1.370 . S
C1410 C1414 1.524 . S
C1411 C1403 1.503 . S
C1411 C1410 1.370 . S
C1411 C1412 1.403 . S
C1412 C1411 1.403 . S
C1412 C1413 1.404 . S
C1412 C1415 1.539 . S
C1413 C1409 1.408 . S
C1413 C1412 1.404 . S
C1413 H1425 0.930 . S
C1414 C1410 1.524 . S
C1414 H1426 0.956 . S
C1414 H1427 0.961 . S
C1414 H1428 0.961 . S
C1415 C1412 1.539 . S
C1415 H1429 0.958 . S
C1415 H1430 0.961 . S
C1415 H1431 0.960 . S
H1416 C1400 0.931 . S
H1417 C1405 0.929 . S
H1418 C1406 0.960 . S
H1419 C1406 0.962 . S
H1420 C1406 0.960 . S
H1421 C1407 0.961 . S
H1422 C1407 0.961 . S
H1423 C1407 0.961 . S
H1424 C1408 0.931 . S
H1425 C1413 0.930 . S
H1426 C1414 0.956 . S
H1427 C1414 0.961 . S
H1428 C1414 0.961 . S
H1429 C1415 0.958 . S
H1430 C1415 0.961 . S
H1431 C1415 0.960 . S
C1432 C1433 1.391 . S
C1432 C1434 1.394 . S
C1432 H1448 0.931 . S
C1433 C1432 1.391 . S
C1433 C1437 1.376 . S
C1434 C1432 1.394 . S
C1434 C1435 1.369 . S
C1434 C1438 1.531 . S
C1435 C1434 1.369 . S
C1435 C1436 1.410 . S
C1435 C1443 1.503 . S
C1436 C1435 1.410 . S
C1436 C1437 1.392 . S
C1436 C1439 1.511 . S
C1437 C1433 1.376 . S
C1437 C1436 1.392 . S
C1437 H1449 0.929 . S
C1438 C1434 1.531 . S
C1438 H1450 0.960 . S
C1438 H1451 0.962 . S
C1438 H1452 0.960 . S
C1439 C1436 1.511 . S
C1439 H1453 0.961 . S
C1439 H1454 0.961 . S
C1439 H1455 0.961 . S
C1440 C1441 1.370 . S
C1440 C1442 1.363 . S
C1440 H1456 0.931 . S
C1441 C1440 1.370 . S
C1441 C1445 1.408 . S
C1442 C1440 1.363 . S
C1442 C1443 1.370 . S
C1442 C1446 1.524 . S
C1443 C1435 1.503 . S
C1443 C1442 1.370 . S
C1443 C1444 1.403 . S
C1444 C1443 1.403 . S
C1444 C1445 1.404 . S
C1444 C1447 1.539 . S
C1445 C1441 1.408 . S
C1445 C1444 1.404 . S
C1445 H1457 0.930 . S
C1446 C1442 1.524 . S
C1446 H1458 0.956 . S
C1446 H1459 0.961 . S
C1446 H1460 0.961 . S
C1447 C1444 1.539 . S
C1447 H1461 0.958 . S
C1447 H1462 0.961 . S
C1447 H1463 0.960 . S
H1448 C1432 0.931 . S
H1449 C1437 0.929 . S
H1450 C1438 0.960 . S
H1451 C1438 0.962 . S
H1452 C1438 0.960 . S
H1453 C1439 0.961 . S
H1454 C1439 0.961 . S
H1455 C1439 0.961 . S
H1456 C1440 0.931 . S
H1457 C1445 0.930 . S
H1458 C1446 0.956 . S
H1459 C1446 0.961 . S
H1460 C1446 0.961 . S
H1461 C1447 0.958 . S
H1462 C1447 0.961 . S
H1463 C1447 0.960 . S
C1464 C1465 1.391 . S
C1464 C1466 1.394 . S
C1464 H1480 0.931 . S
C1465 C1464 1.391 . S
C1465 C1469 1.376 . S
C1466 C1464 1.394 . S
C1466 C1467 1.369 . S
C1466 C1470 1.531 . S
C1467 C1466 1.369 . S
C1467 C1468 1.410 . S
C1467 C1475 1.503 . S
C1468 C1467 1.410 . S
C1468 C1469 1.392 . S
C1468 C1471 1.511 . S
C1469 C1465 1.376 . S
C1469 C1468 1.392 . S
C1469 H1481 0.929 . S
C1470 C1466 1.531 . S
C1470 H1482 0.960 . S
C1470 H1483 0.962 . S
C1470 H1484 0.960 . S
C1471 C1468 1.511 . S
C1471 H1485 0.961 . S
C1471 H1486 0.961 . S
C1471 H1487 0.961 . S
C1472 C1473 1.370 . S
C1472 C1474 1.363 . S
C1472 H1488 0.931 . S
C1473 C1472 1.370 . S
C1473 C1477 1.408 . S
C1474 C1472 1.363 . S
C1474 C1475 1.370 . S
C1474 C1478 1.524 . S
C1475 C1467 1.503 . S
C1475 C1474 1.370 . S
C1475 C1476 1.403 . S
C1476 C1475 1.403 . S
C1476 C1477 1.404 . S
C1476 C1479 1.539 . S
C1477 C1473 1.408 . S
C1477 C1476 1.404 . S
C1477 H1489 0.930 . S
C1478 C1474 1.524 . S
C1478 H1490 0.956 . S
C1478 H1491 0.961 . S
C1478 H1492 0.961 . S
C1479 C1476 1.539 . S
C1479 H1493 0.958 . S
C1479 H1494 0.961 . S
C1479 H1495 0.960 . S
H1480 C1464 0.931 . S
H1481 C1469 0.929 . S
H1482 C1470 0.960 . S
H1483 C1470 0.962 . S
H1484 C1470 0.960 . S
H1485 C1471 0.961 . S
H1486 C1471 0.961 . S
H1487 C1471 0.961 . S
H1488 C1472 0.931 . S
H1489 C1477 0.930 . S
H1490 C1478 0.956 . S
H1491 C1478 0.961 . S
H1492 C1478 0.961 . S
H1493 C1479 0.958 . S
H1494 C1479 0.961 . S
H1495 C1479 0.960 . S
C1496 C1497 1.391 . S
C1496 C1498 1.394 . S
C1496 H1512 0.931 . S
C1497 C1496 1.391 . S
C1497 C1501 1.376 . S
C1498 C1496 1.394 . S
C1498 C1499 1.369 . S
C1498 C1502 1.531 . S
C1499 C1498 1.369 . S
C1499 C1500 1.410 . S
C1499 C1507 1.503 . S
C1500 C1499 1.410 . S
C1500 C1501 1.392 . S
C1500 C1503 1.511 . S
C1501 C1497 1.376 . S
C1501 C1500 1.392 . S
C1501 H1513 0.929 . S
C1502 C1498 1.531 . S
C1502 H1514 0.960 . S
C1502 H1515 0.962 . S
C1502 H1516 0.960 . S
C1503 C1500 1.511 . S
C1503 H1517 0.961 . S
C1503 H1518 0.961 . S
C1503 H1519 0.961 . S
C1504 C1505 1.370 . S
C1504 C1506 1.363 . S
C1504 H1520 0.931 . S
C1505 C1504 1.370 . S
C1505 C1509 1.408 . S
C1506 C1504 1.363 . S
C1506 C1507 1.370 . S
C1506 C1510 1.524 . S
C1507 C1499 1.503 . S
C1507 C1506 1.370 . S
C1507 C1508 1.403 . S
C1508 C1507 1.403 . S
C1508 C1509 1.404 . S
C1508 C1511 1.539 . S
C1509 C1505 1.408 . S
C1509 C1508 1.404 . S
C1509 H1521 0.930 . S
C1510 C1506 1.524 . S
C1510 H1522 0.956 . S
C1510 H1523 0.961 . S
C1510 H1524 0.961 . S
C1511 C1508 1.539 . S
C1511 H1525 0.958 . S
C1511 H1526 0.961 . S
C1511 H1527 0.960 . S
H1512 C1496 0.931 . S
H1513 C1501 0.929 . S
H1514 C1502 0.960 . S
H1515 C1502 0.962 . S
H1516 C1502 0.960 . S
H1517 C1503 0.961 . S
H1518 C1503 0.961 . S
H1519 C1503 0.961 . S
H1520 C1504 0.931 . S
H1521 C1509 0.930 . S
H1522 C1510 0.956 . S
H1523 C1510 0.961 . S
H1524 C1510 0.961 . S
H1525 C1511 0.958 . S
H1526 C1511 0.961 . S
H1527 C1511 0.960 . S
C1528 C1529 1.391 . S
C1528 C1530 1.394 . S
C1528 H1544 0.931 . S
C1529 C1528 1.391 . S
C1529 C1533 1.376 . S
C1530 C1528 1.394 . S
C1530 C1531 1.369 . S
C1530 C1534 1.531 . S
C1531 C1530 1.369 . S
C1531 C1532 1.410 . S
C1531 C1539 1.503 . S
C1532 C1531 1.410 . S
C1532 C1533 1.392 . S
C1532 C1535 1.511 . S
C1533 C1529 1.376 . S
C1533 C1532 1.392 . S
C1533 H1545 0.929 . S
C1534 C1530 1.531 . S
C1534 H1546 0.960 . S
C1534 H1547 0.962 . S
C1534 H1548 0.960 . S
C1535 C1532 1.511 . S
C1535 H1549 0.961 . S
C1535 H1550 0.961 . S
C1535 H1551 0.961 . S
C1536 C1537 1.370 . S
C1536 C1538 1.363 . S
C1536 H1552 0.931 . S
C1537 C1536 1.370 . S
C1537 C1541 1.408 . S
C1538 C1536 1.363 . S
C1538 C1539 1.370 . S
C1538 C1542 1.524 . S
C1539 C1531 1.503 . S
C1539 C1538 1.370 . S
C1539 C1540 1.403 . S
C1540 C1539 1.403 . S
C1540 C1541 1.404 . S
C1540 C1543 1.539 . S
C1541 C1537 1.408 . S
C1541 C1540 1.404 . S
C1541 H1553 0.930 . S
C1542 C1538 1.524 . S
C1542 H1554 0.956 . S
C1542 H1555 0.961 . S
C1542 H1556 0.961 . S
C1543 C1540 1.539 . S
C1543 H1557 0.958 . S
C1543 H1558 0.961 . S
C1543 H1559 0.960 . S
H1544 C1528 0.931 . S
H1545 C1533 0.929 . S
H1546 C1534 0.960 . S
H1547 C1534 0.962 . S
H1548 C1534 0.960 . S
H1549 C1535 0.961 . S
H1550 C1535 0.961 . S
H1551 C1535 0.961 . S
H1552 C1536 0.931 . S
H1553 C1541 0.930 . S
H1554 C1542 0.956 . S
H1555 C1542 0.961 . S
H1556 C1542 0.961 . S
H1557 C1543 0.958 . S
H1558 C1543 0.961 . S
H1559 C1543 0.960 . S
C1560 C1561 1.391 . S
C1560 C1562 1.394 . S
C1560 H1576 0.931 . S
C1561 C1560 1.391 . S
C1561 C1565 1.376 . S
C1562 C1560 1.394 . S
C1562 C1563 1.369 . S
C1562 C1566 1.531 . S
C1563 C1562 1.369 . S
C1563 C1564 1.410 . S
C1563 C1571 1.503 . S
C1564 C1563 1.410 . S
C1564 C1565 1.392 . S
C1564 C1567 1.511 . S
C1565 C1561 1.376 . S
C1565 C1564 1.392 . S
C1565 H1577 0.929 . S
C1566 C1562 1.531 . S
C1566 H1578 0.960 . S
C1566 H1579 0.962 . S
C1566 H1580 0.960 . S
C1567 C1564 1.511 . S
C1567 H1581 0.961 . S
C1567 H1582 0.961 . S
C1567 H1583 0.961 . S
C1568 C1569 1.370 . S
C1568 C1570 1.363 . S
C1568 H1584 0.931 . S
C1569 C1568 1.370 . S
C1569 C1573 1.408 . S
C1570 C1568 1.363 . S
C1570 C1571 1.370 . S
C1570 C1574 1.524 . S
C1571 C1563 1.503 . S
C1571 C1570 1.370 . S
C1571 C1572 1.403 . S
C1572 C1571 1.403 . S
C1572 C1573 1.404 . S
C1572 C1575 1.539 . S
C1573 C1569 1.408 . S
C1573 C1572 1.404 . S
C1573 H1585 0.930 . S
C1574 C1570 1.524 . S
C1574 H1586 0.956 . S
C1574 H1587 0.961 . S
C1574 H1588 0.961 . S
C1575 C1572 1.539 . S
C1575 H1589 0.958 . S
C1575 H1590 0.961 . S
C1575 H1591 0.960 . S
H1576 C1560 0.931 . S
H1577 C1565 0.929 . S
H1578 C1566 0.960 . S
H1579 C1566 0.962 . S
H1580 C1566 0.960 . S
H1581 C1567 0.961 . S
H1582 C1567 0.961 . S
H1583 C1567 0.961 . S
H1584 C1568 0.931 . S
H1585 C1573 0.930 . S
H1586 C1574 0.956 . S
H1587 C1574 0.961 . S
H1588 C1574 0.961 . S
H1589 C1575 0.958 . S
H1590 C1575 0.961 . S
H1591 C1575 0.960 . S
C1592 C1593 1.391 . S
C1592 C1594 1.394 . S
C1592 H1608 0.931 . S
C1593 C1592 1.391 . S
C1593 C1597 1.376 . S
C1594 C1592 1.394 . S
C1594 C1595 1.369 . S
C1594 C1598 1.531 . S
C1595 C1594 1.369 . S
C1595 C1596 1.410 . S
C1595 C1603 1.503 . S
C1596 C1595 1.410 . S
C1596 C1597 1.392 . S
C1596 C1599 1.511 . S
C1597 C1593 1.376 . S
C1597 C1596 1.392 . S
C1597 H1609 0.929 . S
C1598 C1594 1.531 . S
C1598 H1610 0.960 . S
C1598 H1611 0.962 . S
C1598 H1612 0.960 . S
C1599 C1596 1.511 . S
C1599 H1613 0.961 . S
C1599 H1614 0.961 . S
C1599 H1615 0.961 . S
C1600 C1601 1.370 . S
C1600 C1602 1.363 . S
C1600 H1616 0.931 . S
C1601 C1600 1.370 . S
C1601 C1605 1.408 . S
C1602 C1600 1.363 . S
C1602 C1603 1.370 . S
C1602 C1606 1.524 . S
C1603 C1595 1.503 . S
C1603 C1602 1.370 . S
C1603 C1604 1.403 . S
C1604 C1603 1.403 . S
C1604 C1605 1.404 . S
C1604 C1607 1.539 . S
C1605 C1601 1.408 . S
C1605 C1604 1.404 . S
C1605 H1617 0.930 . S
C1606 C1602 1.524 . S
C1606 H1618 0.956 . S
C1606 H1619 0.961 . S
C1606 H1620 0.961 . S
C1607 C1604 1.539 . S
C1607 H1621 0.958 . S
C1607 H1622 0.961 . S
C1607 H1623 0.960 . S
H1608 C1592 0.931 . S
H1609 C1597 0.929 . S
H1610 C1598 0.960 . S
H1611 C1598 0.962 . S
H1612 C1598 0.960 . S
H1613 C1599 0.961 . S
H1614 C1599 0.961 . S
H1615 C1599 0.961 . S
H1616 C1600 0.931 . S
H1617 C1605 0.930 . S
H1618 C1606 0.956 . S
H1619 C1606 0.961 . S
H1620 C1606 0.961 . S
H1621 C1607 0.958 . S
H1622 C1607 0.961 . S
H1623 C1607 0.960 . S
C1624 C1625 1.391 . S
C1624 C1626 1.394 1_556 S
C1624 H1640 0.931 . S
C1625 C1624 1.391 . S
C1625 C1629 1.376 . S
C1626 C1624 1.394 1_554 S
C1626 C1627 1.369 . S
C1626 C1630 1.531 . S
C1627 C1626 1.369 . S
C1627 C1628 1.410 1_554 S
C1627 C1635 1.503 . S
C1628 C1627 1.410 1_556 S
C1628 C1629 1.392 . S
C1628 C1631 1.511 . S
C1629 C1625 1.376 . S
C1629 C1628 1.392 . S
C1629 H1641 0.929 . S
C1630 C1626 1.531 . S
C1630 H1642 0.960 . S
C1630 H1643 0.962 . S
C1630 H1644 0.960 . S
C1631 C1628 1.511 . S
C1631 H1645 0.961 . S
C1631 H1646 0.961 . S
C1631 H1647 0.961 1_556 S
C1632 C1633 1.370 . S
C1632 C1634 1.363 . S
C1632 H1648 0.931 . S
C1633 C1632 1.370 . S
C1633 C1637 1.408 . S
C1634 C1632 1.363 . S
C1634 C1635 1.370 . S
C1634 C1638 1.524 1_554 S
C1635 C1627 1.503 . S
C1635 C1634 1.370 . S
C1635 C1636 1.403 . S
C1636 C1635 1.403 . S
C1636 C1637 1.404 . S
C1636 C1639 1.539 . S
C1637 C1633 1.408 . S
C1637 C1636 1.404 . S
C1637 H1649 0.930 . S
C1638 C1634 1.524 1_556 S
C1638 H1650 0.956 . S
C1638 H1651 0.961 . S
C1638 H1652 0.961 . S
C1639 C1636 1.539 . S
C1639 H1653 0.958 . S
C1639 H1654 0.961 . S
C1639 H1655 0.960 . S
H1640 C1624 0.931 . S
H1641 C1629 0.929 . S
H1642 C1630 0.960 . S
H1643 C1630 0.962 . S
H1644 C1630 0.960 . S
H1645 C1631 0.961 . S
H1646 C1631 0.961 . S
H1647 C1631 0.961 1_554 S
H1648 C1632 0.931 . S
H1649 C1637 0.930 . S
H1650 C1638 0.956 . S
H1651 C1638 0.961 . S
H1652 C1638 0.961 . S
H1653 C1639 0.958 . S
H1654 C1639 0.961 . S
H1655 C1639 0.960 . S
C1656 C1657 1.391 . S
C1656 C1658 1.394 . S
C1656 H1672 0.931 . S
C1657 C1656 1.391 . S
C1657 C1661 1.376 . S
C1658 C1656 1.394 . S
C1658 C1659 1.369 . S
C1658 C1662 1.531 . S
C1659 C1658 1.369 . S
C1659 C1660 1.410 . S
C1659 C1667 1.503 . S
C1660 C1659 1.410 . S
C1660 C1661 1.392 . S
C1660 C1663 1.511 . S
C1661 C1657 1.376 . S
C1661 C1660 1.392 . S
C1661 H1673 0.929 . S
C1662 C1658 1.531 . S
C1662 H1674 0.960 . S
C1662 H1675 0.962 . S
C1662 H1676 0.960 . S
C1663 C1660 1.511 . S
C1663 H1677 0.961 . S
C1663 H1678 0.961 . S
C1663 H1679 0.961 . S
C1664 C1665 1.370 . S
C1664 C1666 1.363 . S
C1664 H1680 0.931 . S
C1665 C1664 1.370 . S
C1665 C1669 1.408 . S
C1666 C1664 1.363 . S
C1666 C1667 1.370 . S
C1666 C1670 1.524 . S
C1667 C1659 1.503 . S
C1667 C1666 1.370 . S
C1667 C1668 1.403 . S
C1668 C1667 1.403 . S
C1668 C1669 1.404 . S
C1668 C1671 1.539 . S
C1669 C1665 1.408 . S
C1669 C1668 1.404 . S
C1669 H1681 0.930 . S
C1670 C1666 1.524 . S
C1670 H1682 0.956 . S
C1670 H1683 0.961 . S
C1670 H1684 0.961 . S
C1671 C1668 1.539 . S
C1671 H1685 0.958 . S
C1671 H1686 0.961 . S
C1671 H1687 0.960 . S
H1672 C1656 0.931 . S
H1673 C1661 0.929 . S
H1674 C1662 0.960 . S
H1675 C1662 0.962 . S
H1676 C1662 0.960 . S
H1677 C1663 0.961 . S
H1678 C1663 0.961 . S
H1679 C1663 0.961 . S
H1680 C1664 0.931 . S
H1681 C1669 0.930 . S
H1682 C1670 0.956 . S
H1683 C1670 0.961 . S
H1684 C1670 0.961 . S
H1685 C1671 0.958 . S
H1686 C1671 0.961 . S
H1687 C1671 0.960 . S
C1688 C1689 1.391 . S
C1688 C1690 1.394 . S
C1688 H1704 0.931 . S
C1689 C1688 1.391 . S
C1689 C1693 1.376 . S
C1690 C1688 1.394 . S
C1690 C1691 1.369 . S
C1690 C1694 1.531 . S
C1691 C1690 1.369 . S
C1691 C1692 1.410 . S
C1691 C1699 1.503 . S
C1692 C1691 1.410 . S
C1692 C1693 1.392 . S
C1692 C1695 1.511 . S
C1693 C1689 1.376 . S
C1693 C1692 1.392 . S
C1693 H1705 0.929 . S
C1694 C1690 1.531 . S
C1694 H1706 0.960 . S
C1694 H1707 0.962 . S
C1694 H1708 0.960 . S
C1695 C1692 1.511 . S
C1695 H1709 0.961 . S
C1695 H1710 0.961 . S
C1695 H1711 0.961 . S
C1696 C1697 1.370 . S
C1696 C1698 1.363 . S
C1696 H1712 0.931 . S
C1697 C1696 1.370 . S
C1697 C1701 1.408 . S
C1698 C1696 1.363 . S
C1698 C1699 1.370 . S
C1698 C1702 1.524 . S
C1699 C1691 1.503 . S
C1699 C1698 1.370 . S
C1699 C1700 1.403 . S
C1700 C1699 1.403 . S
C1700 C1701 1.404 . S
C1700 C1703 1.539 . S
C1701 C1697 1.408 . S
C1701 C1700 1.404 . S
C1701 H1713 0.930 . S
C1702 C1698 1.524 . S
C1702 H1714 0.956 . S
C1702 H1715 0.961 . S
C1702 H1716 0.961 . S
C1703 C1700 1.539 . S
C1703 H1717 0.958 . S
C1703 H1718 0.961 . S
C1703 H1719 0.960 . S
H1704 C1688 0.931 . S
H1705 C1693 0.929 . S
H1706 C1694 0.960 . S
H1707 C1694 0.962 . S
H1708 C1694 0.960 . S
H1709 C1695 0.961 . S
H1710 C1695 0.961 . S
H1711 C1695 0.961 . S
H1712 C1696 0.931 . S
H1713 C1701 0.930 . S
H1714 C1702 0.956 . S
H1715 C1702 0.961 . S
H1716 C1702 0.961 . S
H1717 C1703 0.958 . S
H1718 C1703 0.961 . S
H1719 C1703 0.960 . S
C1720 C1721 1.391 . S
C1720 C1722 1.394 . S
C1720 H1736 0.931 . S
C1721 C1720 1.391 . S
C1721 C1725 1.376 . S
C1722 C1720 1.394 . S
C1722 C1723 1.369 . S
C1722 C1726 1.531 . S
C1723 C1722 1.369 . S
C1723 C1724 1.410 . S
C1723 C1731 1.503 . S
C1724 C1723 1.410 . S
C1724 C1725 1.392 . S
C1724 C1727 1.511 . S
C1725 C1721 1.376 . S
C1725 C1724 1.392 . S
C1725 H1737 0.929 . S
C1726 C1722 1.531 . S
C1726 H1738 0.960 . S
C1726 H1739 0.962 . S
C1726 H1740 0.960 . S
C1727 C1724 1.511 . S
C1727 H1741 0.961 . S
C1727 H1742 0.961 . S
C1727 H1743 0.961 . S
C1728 C1729 1.370 . S
C1728 C1730 1.363 . S
C1728 H1744 0.931 . S
C1729 C1728 1.370 . S
C1729 C1733 1.408 . S
C1730 C1728 1.363 . S
C1730 C1731 1.370 . S
C1730 C1734 1.524 . S
C1731 C1723 1.503 . S
C1731 C1730 1.370 . S
C1731 C1732 1.403 . S
C1732 C1731 1.403 . S
C1732 C1733 1.404 . S
C1732 C1735 1.539 . S
C1733 C1729 1.408 . S
C1733 C1732 1.404 . S
C1733 H1745 0.930 . S
C1734 C1730 1.524 . S
C1734 H1746 0.956 . S
C1734 H1747 0.961 . S
C1734 H1748 0.961 . S
C1735 C1732 1.539 . S
C1735 H1749 0.958 . S
C1735 H1750 0.961 . S
C1735 H1751 0.960 . S
H1736 C1720 0.931 . S
H1737 C1725 0.929 . S
H1738 C1726 0.960 . S
H1739 C1726 0.962 . S
H1740 C1726 0.960 . S
H1741 C1727 0.961 . S
H1742 C1727 0.961 . S
H1743 C1727 0.961 . S
H1744 C1728 0.931 . S
H1745 C1733 0.930 . S
H1746 C1734 0.956 . S
H1747 C1734 0.961 . S
H1748 C1734 0.961 . S
H1749 C1735 0.958 . S
H1750 C1735 0.961 . S
H1751 C1735 0.960 . S
C1752 C1753 1.391 . S
C1752 C1754 1.394 . S
C1752 H1768 0.931 . S
C1753 C1752 1.391 . S
C1753 C1757 1.376 . S
C1754 C1752 1.394 . S
C1754 C1755 1.369 . S
C1754 C1758 1.531 . S
C1755 C1754 1.369 . S
C1755 C1756 1.410 . S
C1755 C1763 1.503 . S
C1756 C1755 1.410 . S
C1756 C1757 1.392 . S
C1756 C1759 1.511 . S
C1757 C1753 1.376 . S
C1757 C1756 1.392 . S
C1757 H1769 0.929 . S
C1758 C1754 1.531 . S
C1758 H1770 0.960 . S
C1758 H1771 0.962 . S
C1758 H1772 0.960 . S
C1759 C1756 1.511 . S
C1759 H1773 0.961 . S
C1759 H1774 0.961 . S
C1759 H1775 0.961 . S
C1760 C1761 1.370 . S
C1760 C1762 1.363 . S
C1760 H1776 0.931 . S
C1761 C1760 1.370 . S
C1761 C1765 1.408 . S
C1762 C1760 1.363 . S
C1762 C1763 1.370 . S
C1762 C1766 1.524 . S
C1763 C1755 1.503 . S
C1763 C1762 1.370 . S
C1763 C1764 1.403 . S
C1764 C1763 1.403 . S
C1764 C1765 1.404 . S
C1764 C1767 1.539 . S
C1765 C1761 1.408 . S
C1765 C1764 1.404 . S
C1765 H1777 0.930 . S
C1766 C1762 1.524 . S
C1766 H1778 0.956 . S
C1766 H1779 0.961 . S
C1766 H1780 0.961 . S
C1767 C1764 1.539 . S
C1767 H1781 0.958 . S
C1767 H1782 0.961 . S
C1767 H1783 0.960 . S
H1768 C1752 0.931 . S
H1769 C1757 0.929 . S
H1770 C1758 0.960 . S
H1771 C1758 0.962 . S
H1772 C1758 0.960 . S
H1773 C1759 0.961 . S
H1774 C1759 0.961 . S
H1775 C1759 0.961 . S
H1776 C1760 0.931 . S
H1777 C1765 0.930 . S
H1778 C1766 0.956 . S
H1779 C1766 0.961 . S
H1780 C1766 0.961 . S
H1781 C1767 0.958 . S
H1782 C1767 0.961 . S
H1783 C1767 0.960 . S
C1784 C1785 1.391 . S
C1784 C1786 1.394 . S
C1784 H1800 0.931 . S
C1785 C1784 1.391 . S
C1785 C1789 1.376 . S
C1786 C1784 1.394 . S
C1786 C1787 1.369 . S
C1786 C1790 1.531 . S
C1787 C1786 1.369 . S
C1787 C1788 1.410 . S
C1787 C1795 1.503 . S
C1788 C1787 1.410 . S
C1788 C1789 1.392 . S
C1788 C1791 1.511 . S
C1789 C1785 1.376 . S
C1789 C1788 1.392 . S
C1789 H1801 0.929 . S
C1790 C1786 1.531 . S
C1790 H1802 0.960 . S
C1790 H1803 0.962 . S
C1790 H1804 0.960 . S
C1791 C1788 1.511 . S
C1791 H1805 0.961 . S
C1791 H1806 0.961 . S
C1791 H1807 0.961 . S
C1792 C1793 1.370 . S
C1792 C1794 1.363 . S
C1792 H1808 0.931 . S
C1793 C1792 1.370 . S
C1793 C1797 1.408 . S
C1794 C1792 1.363 . S
C1794 C1795 1.370 . S
C1794 C1798 1.524 . S
C1795 C1787 1.503 . S
C1795 C1794 1.370 . S
C1795 C1796 1.403 . S
C1796 C1795 1.403 . S
C1796 C1797 1.404 . S
C1796 C1799 1.539 . S
C1797 C1793 1.408 . S
C1797 C1796 1.404 . S
C1797 H1809 0.930 . S
C1798 C1794 1.524 . S
C1798 H1810 0.956 . S
C1798 H1811 0.961 . S
C1798 H1812 0.961 . S
C1799 C1796 1.539 . S
C1799 H1813 0.958 . S
C1799 H1814 0.961 . S
C1799 H1815 0.960 . S
H1800 C1784 0.931 . S
H1801 C1789 0.929 . S
H1802 C1790 0.960 . S
H1803 C1790 0.962 . S
H1804 C1790 0.960 . S
H1805 C1791 0.961 . S
H1806 C1791 0.961 . S
H1807 C1791 0.961 . S
H1808 C1792 0.931 . S
H1809 C1797 0.930 . S
H1810 C1798 0.956 . S
H1811 C1798 0.961 . S
H1812 C1798 0.961 . S
H1813 C1799 0.958 . S
H1814 C1799 0.961 . S
H1815 C1799 0.960 . S
C1816 C1817 1.391 . S
C1816 C1818 1.394 . S
C1816 H1832 0.931 . S
C1817 C1816 1.391 . S
C1817 C1821 1.376 . S
C1818 C1816 1.394 . S
C1818 C1819 1.369 . S
C1818 C1822 1.531 . S
C1819 C1818 1.369 . S
C1819 C1820 1.410 . S
C1819 C1827 1.503 . S
C1820 C1819 1.410 . S
C1820 C1821 1.392 . S
C1820 C1823 1.511 . S
C1821 C1817 1.376 . S
C1821 C1820 1.392 . S
C1821 H1833 0.929 . S
C1822 C1818 1.531 . S
C1822 H1834 0.960 . S
C1822 H1835 0.962 . S
C1822 H1836 0.960 . S
C1823 C1820 1.511 . S
C1823 H1837 0.961 . S
C1823 H1838 0.961 . S
C1823 H1839 0.961 . S
C1824 C1825 1.370 . S
C1824 C1826 1.363 . S
C1824 H1840 0.931 . S
C1825 C1824 1.370 . S
C1825 C1829 1.408 . S
C1826 C1824 1.363 . S
C1826 C1827 1.370 . S
C1826 C1830 1.524 . S
C1827 C1819 1.503 . S
C1827 C1826 1.370 . S
C1827 C1828 1.403 . S
C1828 C1827 1.403 . S
C1828 C1829 1.404 . S
C1828 C1831 1.539 . S
C1829 C1825 1.408 . S
C1829 C1828 1.404 . S
C1829 H1841 0.930 . S
C1830 C1826 1.524 . S
C1830 H1842 0.956 . S
C1830 H1843 0.961 . S
C1830 H1844 0.961 . S
C1831 C1828 1.539 . S
C1831 H1845 0.958 . S
C1831 H1846 0.961 . S
C1831 H1847 0.960 . S
H1832 C1816 0.931 . S
H1833 C1821 0.929 . S
H1834 C1822 0.960 . S
H1835 C1822 0.962 . S
H1836 C1822 0.960 . S
H1837 C1823 0.961 . S
H1838 C1823 0.961 . S
H1839 C1823 0.961 . S
H1840 C1824 0.931 . S
H1841 C1829 0.930 . S
H1842 C1830 0.956 . S
H1843 C1830 0.961 . S
H1844 C1830 0.961 . S
H1845 C1831 0.958 . S
H1846 C1831 0.961 . S
H1847 C1831 0.960 . S
C1848 C1849 1.391 . S
C1848 C1850 1.394 . S
C1848 H1864 0.931 . S
C1849 C1848 1.391 . S
C1849 C1853 1.376 . S
C1850 C1848 1.394 . S
C1850 C1851 1.369 . S
C1850 C1854 1.531 . S
C1851 C1850 1.369 . S
C1851 C1852 1.410 . S
C1851 C1859 1.503 . S
C1852 C1851 1.410 . S
C1852 C1853 1.392 . S
C1852 C1855 1.511 . S
C1853 C1849 1.376 . S
C1853 C1852 1.392 . S
C1853 H1865 0.929 . S
C1854 C1850 1.531 . S
C1854 H1866 0.960 . S
C1854 H1867 0.962 . S
C1854 H1868 0.960 . S
C1855 C1852 1.511 . S
C1855 H1869 0.961 . S
C1855 H1870 0.961 . S
C1855 H1871 0.961 . S
C1856 C1857 1.370 . S
C1856 C1858 1.363 . S
C1856 H1872 0.931 . S
C1857 C1856 1.370 . S
C1857 C1861 1.408 . S
C1858 C1856 1.363 . S
C1858 C1859 1.370 . S
C1858 C1862 1.524 . S
C1859 C1851 1.503 . S
C1859 C1858 1.370 . S
C1859 C1860 1.403 . S
C1860 C1859 1.403 . S
C1860 C1861 1.404 . S
C1860 C1863 1.539 . S
C1861 C1857 1.408 . S
C1861 C1860 1.404 . S
C1861 H1873 0.930 . S
C1862 C1858 1.524 . S
C1862 H1874 0.956 . S
C1862 H1875 0.961 . S
C1862 H1876 0.961 . S
C1863 C1860 1.539 . S
C1863 H1877 0.958 . S
C1863 H1878 0.961 . S
C1863 H1879 0.960 . S
H1864 C1848 0.931 . S
H1865 C1853 0.929 . S
H1866 C1854 0.960 . S
H1867 C1854 0.962 . S
H1868 C1854 0.960 . S
H1869 C1855 0.961 . S
H1870 C1855 0.961 . S
H1871 C1855 0.961 . S
H1872 C1856 0.931 . S
H1873 C1861 0.930 . S
H1874 C1862 0.956 . S
H1875 C1862 0.961 . S
H1876 C1862 0.961 . S
H1877 C1863 0.958 . S
H1878 C1863 0.961 . S
H1879 C1863 0.960 . S
C1880 C1881 1.391 . S
C1880 C1882 1.394 . S
C1880 H1896 0.931 . S
C1881 C1880 1.391 . S
C1881 C1885 1.376 . S
C1882 C1880 1.394 . S
C1882 C1883 1.369 . S
C1882 C1886 1.531 . S
C1883 C1882 1.369 . S
C1883 C1884 1.410 . S
C1883 C1891 1.503 . S
C1884 C1883 1.410 . S
C1884 C1885 1.392 . S
C1884 C1887 1.511 . S
C1885 C1881 1.376 . S
C1885 C1884 1.392 . S
C1885 H1897 0.929 . S
C1886 C1882 1.531 . S
C1886 H1898 0.960 . S
C1886 H1899 0.962 . S
C1886 H1900 0.960 . S
C1887 C1884 1.511 . S
C1887 H1901 0.961 . S
C1887 H1902 0.961 . S
C1887 H1903 0.961 . S
C1888 C1889 1.370 . S
C1888 C1890 1.363 . S
C1888 H1904 0.931 . S
C1889 C1888 1.370 . S
C1889 C1893 1.408 . S
C1890 C1888 1.363 . S
C1890 C1891 1.370 . S
C1890 C1894 1.524 . S
C1891 C1883 1.503 . S
C1891 C1890 1.370 . S
C1891 C1892 1.403 . S
C1892 C1891 1.403 . S
C1892 C1893 1.404 . S
C1892 C1895 1.539 . S
C1893 C1889 1.408 . S
C1893 C1892 1.404 . S
C1893 H1905 0.930 . S
C1894 C1890 1.524 . S
C1894 H1906 0.956 . S
C1894 H1907 0.961 . S
C1894 H1908 0.961 . S
C1895 C1892 1.539 . S
C1895 H1909 0.958 . S
C1895 H1910 0.961 . S
C1895 H1911 0.960 . S
H1896 C1880 0.931 . S
H1897 C1885 0.929 . S
H1898 C1886 0.960 . S
H1899 C1886 0.962 . S
H1900 C1886 0.960 . S
H1901 C1887 0.961 . S
H1902 C1887 0.961 . S
H1903 C1887 0.961 . S
H1904 C1888 0.931 . S
H1905 C1893 0.930 . S
H1906 C1894 0.956 . S
H1907 C1894 0.961 . S
H1908 C1894 0.961 . S
H1909 C1895 0.958 . S
H1910 C1895 0.961 . S
H1911 C1895 0.960 . S
C1912 C1913 1.391 . S
C1912 C1914 1.394 . S
C1912 H1928 0.931 . S
C1913 C1912 1.391 . S
C1913 C1917 1.376 . S
C1914 C1912 1.394 . S
C1914 C1915 1.369 . S
C1914 C1918 1.531 . S
C1915 C1914 1.369 . S
C1915 C1916 1.410 . S
C1915 C1923 1.503 . S
C1916 C1915 1.410 . S
C1916 C1917 1.392 . S
C1916 C1919 1.511 . S
C1917 C1913 1.376 . S
C1917 C1916 1.392 . S
C1917 H1929 0.929 . S
C1918 C1914 1.531 . S
C1918 H1930 0.960 . S
C1918 H1931 0.962 . S
C1918 H1932 0.960 . S
C1919 C1916 1.511 . S
C1919 H1933 0.961 . S
C1919 H1934 0.961 . S
C1919 H1935 0.961 . S
C1920 C1921 1.370 . S
C1920 C1922 1.363 . S
C1920 H1936 0.931 . S
C1921 C1920 1.370 . S
C1921 C1925 1.408 . S
C1922 C1920 1.363 . S
C1922 C1923 1.370 . S
C1922 C1926 1.524 . S
C1923 C1915 1.503 . S
C1923 C1922 1.370 . S
C1923 C1924 1.403 . S
C1924 C1923 1.403 . S
C1924 C1925 1.404 . S
C1924 C1927 1.539 . S
C1925 C1921 1.408 . S
C1925 C1924 1.404 . S
C1925 H1937 0.930 . S
C1926 C1922 1.524 . S
C1926 H1938 0.956 . S
C1926 H1939 0.961 . S
C1926 H1940 0.961 . S
C1927 C1924 1.539 . S
C1927 H1941 0.958 . S
C1927 H1942 0.961 . S
C1927 H1943 0.960 . S
H1928 C1912 0.931 . S
H1929 C1917 0.929 . S
H1930 C1918 0.960 . S
H1931 C1918 0.962 . S
H1932 C1918 0.960 . S
H1933 C1919 0.961 . S
H1934 C1919 0.961 . S
H1935 C1919 0.961 . S
H1936 C1920 0.931 . S
H1937 C1925 0.930 . S
H1938 C1926 0.956 . S
H1939 C1926 0.961 . S
H1940 C1926 0.961 . S
H1941 C1927 0.958 . S
H1942 C1927 0.961 . S
H1943 C1927 0.960 . S
C1944 C1945 1.391 . S
C1944 C1946 1.394 . S
C1944 H1960 0.931 . S
C1945 C1944 1.391 . S
C1945 C1949 1.376 . S
C1946 C1944 1.394 . S
C1946 C1947 1.369 . S
C1946 C1950 1.531 . S
C1947 C1946 1.369 . S
C1947 C1948 1.410 . S
C1947 C1955 1.503 . S
C1948 C1947 1.410 . S
C1948 C1949 1.392 . S
C1948 C1951 1.511 . S
C1949 C1945 1.376 . S
C1949 C1948 1.392 . S
C1949 H1961 0.929 . S
C1950 C1946 1.531 . S
C1950 H1962 0.960 . S
C1950 H1963 0.962 . S
C1950 H1964 0.960 . S
C1951 C1948 1.511 . S
C1951 H1965 0.961 . S
C1951 H1966 0.961 . S
C1951 H1967 0.961 . S
C1952 C1953 1.370 . S
C1952 C1954 1.363 . S
C1952 H1968 0.931 . S
C1953 C1952 1.370 . S
C1953 C1957 1.408 . S
C1954 C1952 1.363 . S
C1954 C1955 1.370 . S
C1954 C1958 1.524 . S
C1955 C1947 1.503 . S
C1955 C1954 1.370 . S
C1955 C1956 1.403 . S
C1956 C1955 1.403 . S
C1956 C1957 1.404 . S
C1956 C1959 1.539 . S
C1957 C1953 1.408 . S
C1957 C1956 1.404 . S
C1957 H1969 0.930 . S
C1958 C1954 1.524 . S
C1958 H1970 0.956 . S
C1958 H1971 0.961 . S
C1958 H1972 0.961 . S
C1959 C1956 1.539 . S
C1959 H1973 0.958 . S
C1959 H1974 0.961 . S
C1959 H1975 0.960 . S
H1960 C1944 0.931 . S
H1961 C1949 0.929 . S
H1962 C1950 0.960 . S
H1963 C1950 0.962 . S
H1964 C1950 0.960 . S
H1965 C1951 0.961 . S
H1966 C1951 0.961 . S
H1967 C1951 0.961 . S
H1968 C1952 0.931 . S
H1969 C1957 0.930 . S
H1970 C1958 0.956 . S
H1971 C1958 0.961 . S
H1972 C1958 0.961 . S
H1973 C1959 0.958 . S
H1974 C1959 0.961 . S
H1975 C1959 0.960 . S
C1976 C1977 1.391 . S
C1976 C1978 1.394 . S
C1976 H1992 0.931 . S
C1977 C1976 1.391 . S
C1977 C1981 1.376 . S
C1978 C1976 1.394 . S
C1978 C1979 1.369 . S
C1978 C1982 1.531 . S
C1979 C1978 1.369 . S
C1979 C1980 1.410 . S
C1979 C1987 1.503 . S
C1980 C1979 1.410 . S
C1980 C1981 1.392 . S
C1980 C1983 1.511 . S
C1981 C1977 1.376 . S
C1981 C1980 1.392 . S
C1981 H1993 0.929 . S
C1982 C1978 1.531 . S
C1982 H1994 0.960 . S
C1982 H1995 0.962 . S
C1982 H1996 0.960 . S
C1983 C1980 1.511 . S
C1983 H1997 0.961 . S
C1983 H1998 0.961 . S
C1983 H1999 0.961 . S
C1984 C1985 1.370 . S
C1984 C1986 1.363 . S
C1984 H2000 0.931 . S
C1985 C1984 1.370 . S
C1985 C1989 1.408 . S
C1986 C1984 1.363 . S
C1986 C1987 1.370 . S
C1986 C1990 1.524 . S
C1987 C1979 1.503 . S
C1987 C1986 1.370 . S
C1987 C1988 1.403 . S
C1988 C1987 1.403 . S
C1988 C1989 1.404 . S
C1988 C1991 1.539 1_556 S
C1989 C1985 1.408 . S
C1989 C1988 1.404 . S
C1989 H2001 0.930 1_556 S
C1990 C1986 1.524 . S
C1990 H2002 0.956 . S
C1990 H2003 0.961 . S
C1990 H2004 0.961 . S
C1991 C1988 1.539 1_554 S
C1991 H2005 0.958 . S
C1991 H2006 0.961 . S
C1991 H2007 0.960 . S
H1992 C1976 0.931 . S
H1993 C1981 0.929 . S
H1994 C1982 0.960 . S
H1995 C1982 0.962 . S
H1996 C1982 0.960 . S
H1997 C1983 0.961 . S
H1998 C1983 0.961 . S
H1999 C1983 0.961 . S
H2000 C1984 0.931 . S
H2001 C1989 0.930 1_554 S
H2002 C1990 0.956 . S
H2003 C1990 0.961 . S
H2004 C1990 0.961 . S
H2005 C1991 0.958 . S
H2006 C1991 0.961 . S
H2007 C1991 0.960 . S
C2008 C2009 1.391 . S
C2008 C2010 1.394 . S
C2008 H2024 0.931 . S
C2009 C2008 1.391 . S
C2009 C2013 1.376 . S
C2010 C2008 1.394 . S
C2010 C2011 1.369 . S
C2010 C2014 1.531 . S
C2011 C2010 1.369 . S
C2011 C2012 1.410 . S
C2011 C2019 1.503 1_556 S
C2012 C2011 1.410 . S
C2012 C2013 1.392 . S
C2012 C2015 1.511 . S
C2013 C2009 1.376 . S
C2013 C2012 1.392 . S
C2013 H2025 0.929 . S
C2014 C2010 1.531 . S
C2014 H2026 0.960 1_556 S
C2014 H2027 0.962 . S
C2014 H2028 0.960 . S
C2015 C2012 1.511 . S
C2015 H2029 0.961 . S
C2015 H2030 0.961 . S
C2015 H2031 0.961 . S
C2016 C2017 1.370 . S
C2016 C2018 1.363 1_554 S
C2016 H2032 0.931 . S
C2017 C2016 1.370 . S
C2017 C2021 1.408 . S
C2018 C2016 1.363 1_556 S
C2018 C2019 1.370 1_556 S
C2018 C2022 1.524 . S
C2019 C2011 1.503 1_554 S
C2019 C2018 1.370 1_554 S
C2019 C2020 1.403 . S
C2020 C2019 1.403 . S
C2020 C2021 1.404 . S
C2020 C2023 1.539 . S
C2021 C2017 1.408 . S
C2021 C2020 1.404 . S
C2021 H2033 0.930 . S
C2022 C2018 1.524 . S
C2022 H2034 0.956 . S
C2022 H2035 0.961 . S
C2022 H2036 0.961 . S
C2023 C2020 1.539 . S
C2023 H2037 0.958 . S
C2023 H2038 0.961 . S
C2023 H2039 0.960 . S
H2024 C2008 0.931 . S
H2025 C2013 0.929 . S
H2026 C2014 0.960 1_554 S
H2027 C2014 0.962 . S
H2028 C2014 0.960 . S
H2029 C2015 0.961 . S
H2030 C2015 0.961 . S
H2031 C2015 0.961 . S
H2032 C2016 0.931 . S
H2033 C2021 0.930 . S
H2034 C2022 0.956 . S
H2035 C2022 0.961 . S
H2036 C2022 0.961 . S
H2037 C2023 0.958 . S
H2038 C2023 0.961 . S
H2039 C2023 0.960 . S
C1025 C621 1.665 . S
C1017 C39 1.600 . S
C1057 C674 1.442 . S
C1049 C125 1.443 . S
C1089 C737 2.255 . S
C1081 C217 2.183 . S
C1121 C780 1.746 . S
C1113 C261 1.631 . S
C1145 C359 1.477 . S
C1153 C736 1.476 . S
C1185 C773 1.239 . S
C1177 C433 1.162 . S
C1217 C614 1.511 . S
C1209 C495 1.499 . S
C1249 C667 1.453 . S
C1241 C587 1.448 . S
C1281 C720 1.746 . S
C1273 C557 1.750 . S
C1313 C789 1.385 . S
C1305 C347 1.380 . S
C1345 C630 1.123 . S
C1337 C421 1.129 . S
C1377 C683 1.832 . S
C1369 C507 1.763 . S
C1409 C631 1.475 . S
C1401 C137 1.464 . S
C1441 C684 1.942 . S
C1433 C187 1.861 . S
C1473 C727 2.559 . S
C1465 C291 2.517 . S
C1505 C790 2.256 . S
C1497 C69 2.266 . S
C1537 C833 1.381 . S
C1529 C581 1.388 . S
C1561 C365 2.204 . S
C1569 C886 2.189 . S
C1593 C439 2.619 . S
C1601 C948 2.602 . S
C1625 C483 1.663 . S
C1633 C1002 1.702 . S
C1657 C113 1.758 . S
C1665 C949 1.786 . S
C1689 C211 1.860 . S
C1697 C1001 1.904 . S
C1721 C273 1.324 . S
C1729 C826 1.343 . S
C1761 C879 1.233 . S
C1753 C51 1.235 . S
C1793 C939 1.438 . S
C1785 C63 1.386 . S
C1817 C143 1.547 . S
C1825 C985 1.575 . S
C1849 C199 1.878 . S
C1857 C842 1.934 . S
C1881 C285 1.074 . S
C1889 C895 1.188 . S
C1921 C843 1.621 . S
C1913 C335 1.581 . S
C1953 C896 2.033 . S
C1945 C409 1.857 . S
C1977 C513 1.984 . S
C1985 C932 1.978 . S
C2017 C992 1.415 . S
C2009 C569 1.385 . S
