# Generated by pormake.
# Topology nom, (4,4)-cn, num edge types: 1
# Building blocks:
#     Node 0, Type 0, BuildingBlock: MUDLON_clean_linker_0, # of connection points: 4
#     Node 1, Type 0, BuildingBlock: MUDLON_clean_linker_0, # of connection points: 4
#     Node 2, Type 0, BuildingBlock: MUDLON_clean_linker_0, # of connection points: 4
#     Node 3, Type 0, BuildingBlock: MUDLON_clean_linker_0, # of connection points: 4
#     Node 4, Type 0, BuildingBlock: MUDLON_clean_linker_0, # of connection points: 4
#     Node 5, Type 0, BuildingBlock: MUDLON_clean_linker_0, # of connection points: 4
#     Node 6, Type 1, BuildingBlock: TATPOV_clean_sbu_0, # of connection points: 4
#     Node 7, Type 1, BuildingBlock: TATPOV_clean_sbu_0, # of connection points: 4
#     Node 8, Type 1, BuildingBlock: TATPOV_clean_sbu_0, # of connection points: 4
#     Node 9, Type 1, BuildingBlock: TATPOV_clean_sbu_0, # of connection points: 4
#     Node 10, Type 1, BuildingBlock: TATPOV_clean_sbu_0, # of connection points: 4
#     Node 11, Type 1, BuildingBlock: TATPOV_clean_sbu_0, # of connection points: 4
#     Edge 12, Type (0, 1), BuildingBlock: OJICUG_clean_linker_0, # of connection points: 2
#     Edge 13, Type (0, 1), BuildingBlock: OJICUG_clean_linker_0, # of connection points: 2
#     Edge 14, Type (0, 1), BuildingBlock: OJICUG_clean_linker_0, # of connection points: 2
#     Edge 15, Type (0, 1), BuildingBlock: OJICUG_clean_linker_0, # of connection points: 2
#     Edge 16, Type (0, 1), BuildingBlock: OJICUG_clean_linker_0, # of connection points: 2
#     Edge 17, Type (0, 1), BuildingBlock: OJICUG_clean_linker_0, # of connection points: 2
#     Edge 18, Type (0, 1), BuildingBlock: OJICUG_clean_linker_0, # of connection points: 2
#     Edge 19, Type (0, 1), BuildingBlock: OJICUG_clean_linker_0, # of connection points: 2
#     Edge 20, Type (0, 1), BuildingBlock: OJICUG_clean_linker_0, # of connection points: 2
#     Edge 21, Type (0, 1), BuildingBlock: OJICUG_clean_linker_0, # of connection points: 2
#     Edge 22, Type (0, 1), BuildingBlock: OJICUG_clean_linker_0, # of connection points: 2
#     Edge 23, Type (0, 1), BuildingBlock: OJICUG_clean_linker_0, # of connection points: 2
#     Edge 24, Type (0, 1), BuildingBlock: OJICUG_clean_linker_0, # of connection points: 2
#     Edge 25, Type (0, 1), BuildingBlock: OJICUG_clean_linker_0, # of connection points: 2
#     Edge 26, Type (0, 1), BuildingBlock: OJICUG_clean_linker_0, # of connection points: 2
#     Edge 27, Type (0, 1), BuildingBlock: OJICUG_clean_linker_0, # of connection points: 2
#     Edge 28, Type (0, 1), BuildingBlock: OJICUG_clean_linker_0, # of connection points: 2
#     Edge 29, Type (0, 1), BuildingBlock: OJICUG_clean_linker_0, # of connection points: 2
#     Edge 30, Type (0, 1), BuildingBlock: OJICUG_clean_linker_0, # of connection points: 2
#     Edge 31, Type (0, 1), BuildingBlock: OJICUG_clean_linker_0, # of connection points: 2
#     Edge 32, Type (0, 1), BuildingBlock: OJICUG_clean_linker_0, # of connection points: 2
#     Edge 33, Type (0, 1), BuildingBlock: OJICUG_clean_linker_0, # of connection points: 2
#     Edge 34, Type (0, 1), BuildingBlock: OJICUG_clean_linker_0, # of connection points: 2
#     Edge 35, Type (0, 1), BuildingBlock: OJICUG_clean_linker_0, # of connection points: 2
# Relax obj value: 0.024
# Max RMSD: 0.121
# Mean RMSD: 0.105
data_MOF--net-nom--node1-TATPOV_clean_sbu_0--node2-MUDLON_clean_linker_0--edge1-OJICUG_clean_linker_0
_symmetry_space_group_name_H-M    P1
_symmetry_Int_Tables_number       1
_symmetry_cell_setting            triclinic
loop_
_symmetry_equiv_pos_as_xyz
'x, y, z'
_cell_length_a     47.77629
_cell_length_b     49.099191
_cell_length_c     47.960816
_cell_angle_alpha  91.058466
_cell_angle_beta   90.569758
_cell_angle_gamma 120.53013
loop_
_atom_site_label
_atom_site_type_symbol
_atom_site_fract_x
_atom_site_fract_y
_atom_site_fract_z
_atom_type_partial_charge
H0 H 0.17582 0.54248 0.30767 0.0
N1 N 0.12534 0.54122 0.33158 0.0
H2 H 0.2142 0.58193 0.27614 0.0
H3 H 0.11805 0.58707 0.30616 0.0
H4 H 0.15755 0.62827 0.27734 0.0
H5 H 0.13113 0.59629 0.35329 0.0
H6 H 0.15134 0.61931 0.39921 0.0
H7 H 0.14147 0.51649 0.37332 0.0
H8 H 0.16103 0.53925 0.4204 0.0
H9 H 0.09465 0.48297 0.30973 0.0
H10 H 0.07817 0.55676 0.34011 0.0
H11 H 0.03633 0.44896 0.29955 0.0
H12 H 0.02043 0.52347 0.32951 0.0
H13 H 0.84683 0.3568 0.25592 0.0
H14 H 0.82869 0.35617 0.20784 0.0
H15 H 0.88682 0.45838 0.20828 0.0
H16 H 0.90648 0.4584 0.255 0.0
H17 H 0.88232 0.46088 0.29491 0.0
H18 H 0.84407 0.46728 0.32291 0.0
H19 H 0.80437 0.37201 0.35206 0.0
H20 H 0.84183 0.36516 0.3222 0.0
H21 H 0.93571 0.41165 0.25812 0.0
H22 H 0.99374 0.44422 0.26825 0.0
H23 H 0.97364 0.47555 0.3462 0.0
N24 N 0.88599 0.40713 0.2883 0.0
H25 H 0.9161 0.44375 0.33626 0.0
C26 C 0.14455 0.56216 0.30989 0.0
C27 C 0.17143 0.56079 0.30046 0.0
C28 C 0.19358 0.58371 0.28274 0.0
C29 C 0.18978 0.60914 0.27468 0.0
C30 C 0.16157 0.60922 0.28281 0.0
C31 C 0.13895 0.58572 0.29982 0.0
C32 C 0.13487 0.55448 0.35957 0.0
C33 C 0.13732 0.58335 0.36757 0.0
C34 C 0.14873 0.59652 0.39419 0.0
C35 C 0.15779 0.58115 0.41361 0.0
C36 C 0.15462 0.55191 0.40585 0.0
C37 C 0.14326 0.53877 0.37907 0.0
C38 C 0.0909 0.52229 0.32575 0.0
C39 C 0.07847 0.49184 0.31409 0.0
C40 C 0.04523 0.47257 0.30815 0.0
C41 C 0.02372 0.4835 0.31378 0.0
C42 C 0.03627 0.51416 0.32532 0.0
C43 C 0.06948 0.53337 0.33125 0.0
C44 C 0.87765 0.40751 0.25924 0.0
C45 C 0.85595 0.37894 0.24533 0.0
C46 C 0.8454 0.37871 0.21795 0.0
C47 C 0.85604 0.40723 0.20401 0.0
C48 C 0.87839 0.43583 0.21792 0.0
C49 C 0.88929 0.43597 0.24502 0.0
C50 C 0.86456 0.41217 0.30599 0.0
C51 C 0.86512 0.44113 0.30688 0.0
C52 C 0.84353 0.44498 0.32348 0.0
C53 C 0.82109 0.42021 0.33992 0.0
C54 C 0.82099 0.39147 0.33941 0.0
C55 C 0.84246 0.38752 0.32251 0.0
C56 C 0.92067 0.42653 0.29515 0.0
C57 C 0.94359 0.426 0.27716 0.0
C58 C 0.97691 0.44436 0.28314 0.0
C59 C 0.98832 0.46311 0.30772 0.0
C60 C 0.96565 0.46228 0.32658 0.0
C61 C 0.93236 0.44398 0.32064 0.0
H62 H 0.48918 0.87341 0.47226 0.0
N63 N 0.48423 0.91818 0.4464 0.0
H64 H 0.45069 0.83465 0.50413 0.0
H65 H 0.43304 0.91959 0.47014 0.0
H66 H 0.39251 0.87926 0.49937 0.0
H67 H 0.42432 0.9017 0.4237 0.0
H68 H 0.4036 0.87935 0.37767 0.0
H69 H 0.51552 0.90754 0.40582 0.0
H70 H 0.49499 0.88588 0.35855 0.0
H71 H 0.53475 0.95395 0.48005 0.0
H72 H 0.46629 0.95886 0.42406 0.0
H73 H 0.56125 0.01082 0.48927 0.0
H74 H 0.49401 0.01556 0.43123 0.0
H75 H 0.64166 0.19539 0.51995 0.0
H76 H 0.63794 0.21092 0.56786 0.0
H77 H 0.53739 0.1357 0.56892 0.0
H78 H 0.5407 0.12189 0.52099 0.0
H79 H 0.54607 0.16613 0.48454 0.0
H80 H 0.54749 0.20877 0.45795 0.0
H81 H 0.63913 0.22918 0.42329 0.0
H82 H 0.63712 0.18606 0.4496 0.0
H83 H 0.62157 0.11623 0.48323 0.0
H84 H 0.59526 0.05986 0.47133 0.0
H85 H 0.50331 0.05632 0.46124 0.0
N86 N 0.59426 0.15146 0.48746 0.0
H87 H 0.53041 0.11286 0.47096 0.0
C88 C 0.46356 0.89878 0.46825 0.0
C89 C 0.46846 0.87511 0.47876 0.0
C90 C 0.44607 0.85269 0.49667 0.0
C91 C 0.41761 0.85287 0.50381 0.0
C92 C 0.41394 0.87804 0.49462 0.0
C93 C 0.43697 0.90105 0.47745 0.0
C94 C 0.47163 0.90612 0.41853 0.0
C95 C 0.44007 0.89827 0.40995 0.0
C96 C 0.42828 0.8858 0.38325 0.0
C97 C 0.44768 0.88098 0.36431 0.0
C98 C 0.47934 0.88908 0.37274 0.0
C99 C 0.49116 0.90158 0.39961 0.0
C100 C 0.49881 0.95189 0.45118 0.0
C101 C 0.52569 0.96735 0.4695 0.0
C102 C 0.54104 0.99998 0.47445 0.0
C103 C 0.53017 0.01816 0.46074 0.0
C104 C 0.50297 0.00253 0.4425 0.0
C105 C 0.48717 0.96978 0.43808 0.0
C106 C 0.59175 0.1574 0.5167 0.0
C107 C 0.61895 0.18214 0.53071 0.0
C108 C 0.61678 0.19083 0.55816 0.0
C109 C 0.58728 0.17466 0.57234 0.0
C110 C 0.56033 0.14915 0.55855 0.0
C111 C 0.56236 0.14088 0.53098 0.0
C112 C 0.59168 0.17301 0.46905 0.0
C113 C 0.56606 0.17925 0.4707 0.0
C114 C 0.56703 0.20383 0.45565 0.0
C115 C 0.59355 0.22257 0.43866 0.0
C116 C 0.61816 0.21504 0.43591 0.0
C117 C 0.61717 0.1905 0.45098 0.0
C118 C 0.57807 0.11874 0.47824 0.0
C119 C 0.59583 0.10323 0.478 0.0
C120 C 0.58057 0.07088 0.47155 0.0
C121 C 0.54689 0.05312 0.46572 0.0
C122 C 0.52929 0.06903 0.46525 0.0
C123 C 0.54478 0.10154 0.47105 0.0
H124 H 0.47059 0.65913 0.65096 0.0
N125 N 0.46967 0.60754 0.66726 0.0
H126 H 0.42833 0.66233 0.62474 0.0
H127 H 0.41719 0.55767 0.63984 0.0
H128 H 0.37477 0.56062 0.6135 0.0
H129 H 0.41221 0.56387 0.6903 0.0
H130 H 0.39726 0.56198 0.73867 0.0
H131 H 0.50545 0.64694 0.70901 0.0
H132 H 0.49041 0.64511 0.75816 0.0
H133 H 0.526 0.62831 0.6423 0.0
H134 H 0.4456 0.54407 0.67528 0.0
H135 H 0.55464 0.5996 0.63357 0.0
H136 H 0.47449 0.51586 0.66817 0.0
H137 H 0.65165 0.515 0.62606 0.0
H138 H 0.67026 0.50762 0.58056 0.0
H139 H 0.5708 0.45624 0.54987 0.0
H140 H 0.55251 0.46372 0.595 0.0
H141 H 0.54286 0.43051 0.63329 0.0
H142 H 0.53602 0.38579 0.6594 0.0
H143 H 0.61491 0.44919 0.71537 0.0
H144 H 0.62183 0.4943 0.68867 0.0
H145 H 0.61317 0.55267 0.65539 0.0
H146 H 0.58258 0.58002 0.65945 0.0
H147 H 0.49423 0.49296 0.63646 0.0
N148 N 0.59086 0.49253 0.64178 0.0
H149 H 0.52467 0.46569 0.63402 0.0
C150 C 0.44716 0.60834 0.64748 0.0
C151 C 0.45013 0.63763 0.64221 0.0
C152 C 0.42595 0.63937 0.62719 0.0
C153 C 0.39805 0.61168 0.61717 0.0
C154 C 0.39579 0.58233 0.62125 0.0
C155 C 0.42019 0.58065 0.63617 0.0
C156 C 0.46017 0.6056 0.69595 0.0
C157 C 0.42965 0.58166 0.70479 0.0
C158 C 0.42114 0.58047 0.73261 0.0
C159 C 0.4428 0.60323 0.75225 0.0
C160 C 0.47324 0.6273 0.74344 0.0
C161 C 0.48187 0.62833 0.71551 0.0
C162 C 0.48388 0.58868 0.65967 0.0
C163 C 0.51448 0.6036 0.64751 0.0
C164 C 0.53093 0.58721 0.64287 0.0
C165 C 0.51716 0.55547 0.65058 0.0
C166 C 0.48583 0.54017 0.66175 0.0
C167 C 0.46927 0.55648 0.66607 0.0
C168 C 0.60082 0.49 0.61406 0.0
C169 C 0.63399 0.50249 0.60935 0.0
C170 C 0.64452 0.49826 0.58342 0.0
C171 C 0.62192 0.48115 0.56176 0.0
C172 C 0.58871 0.46913 0.56632 0.0
C173 C 0.57824 0.47359 0.59217 0.0
C174 C 0.5829 0.46598 0.6591 0.0
C175 C 0.5582 0.4351 0.65153 0.0
C176 C 0.55425 0.40937 0.6666 0.0
C177 C 0.57497 0.41389 0.68947 0.0
C178 C 0.59877 0.44491 0.6977 0.0
C179 C 0.6026 0.47067 0.68264 0.0
C180 C 0.57145 0.50725 0.64439 0.0
C181 C 0.58716 0.53956 0.6514 0.0
C182 C 0.56964 0.55518 0.65336 0.0
C183 C 0.53586 0.53882 0.64804 0.0
C184 C 0.52011 0.50631 0.641 0.0
C185 C 0.53765 0.49064 0.63938 0.0
H186 H 0.17209 0.64801 0.81472 0.0
N187 N 0.11697 0.60157 0.7924 0.0
H188 H 0.21253 0.64343 0.84228 0.0
H189 H 0.10913 0.54669 0.81423 0.0
H190 H 0.14812 0.54196 0.84351 0.0
H191 H 0.14691 0.57473 0.76378 0.0
H192 H 0.17428 0.59192 0.71972 0.0
H193 H 0.11345 0.64105 0.75732 0.0
H194 H 0.13797 0.65632 0.71171 0.0
H195 H 0.07877 0.61247 0.82448 0.0
H196 H 0.07756 0.54386 0.7664 0.0
H197 H 0.02017 0.57893 0.83019 0.0
H198 H 0.01867 0.50987 0.77205 0.0
H199 H 0.85196 0.50952 0.84256 0.0
H200 H 0.83023 0.4999 0.88972 0.0
H201 H 0.8507 0.4241 0.89725 0.0
H202 H 0.87233 0.43393 0.85016 0.0
H203 H 0.86751 0.42046 0.80253 0.0
H204 H 0.82164 0.37816 0.77545 0.0
H205 H 0.78824 0.44274 0.75619 0.0
H206 H 0.83379 0.48453 0.78349 0.0
H207 H 0.92413 0.50263 0.85628 0.0
H208 H 0.9819 0.52829 0.85025 0.0
H209 H 0.96716 0.51048 0.76139 0.0
N210 N 0.87639 0.47914 0.81506 0.0
H211 H 0.90857 0.48376 0.76716 0.0
C212 C 0.13757 0.59791 0.81241 0.0
C213 C 0.16661 0.62487 0.82134 0.0
C214 C 0.18962 0.62214 0.83728 0.0
C215 C 0.18386 0.59225 0.84511 0.0
C216 C 0.15385 0.56532 0.8374 0.0
C217 C 0.13116 0.56803 0.82089 0.0
C218 C 0.12886 0.60736 0.76428 0.0
C219 C 0.14496 0.59267 0.75262 0.0
C220 C 0.1604 0.60236 0.72707 0.0
C221 C 0.15913 0.62615 0.71209 0.0
C222 C 0.14078 0.63892 0.72295 0.0
C223 C 0.12622 0.62989 0.74887 0.0
C224 C 0.08242 0.58081 0.79501 0.0
C225 C 0.06575 0.59008 0.81303 0.0
C226 C 0.03236 0.57076 0.81637 0.0
C227 C 0.01481 0.54161 0.8017 0.0
C228 C 0.03151 0.53227 0.7835 0.0
C229 C 0.06511 0.55164 0.78027 0.0
C230 C 0.86363 0.4725 0.84287 0.0
C231 C 0.85166 0.49083 0.85445 0.0
C232 C 0.83941 0.48536 0.88136 0.0
C233 C 0.83882 0.46126 0.89721 0.0
C234 C 0.85045 0.44255 0.88542 0.0
C235 C 0.86279 0.44813 0.8585 0.0
C236 C 0.85375 0.45557 0.79522 0.0
C237 C 0.85051 0.42553 0.79218 0.0
C238 C 0.82431 0.40142 0.77672 0.0
C239 C 0.8012 0.40706 0.76383 0.0
C240 C 0.80576 0.43767 0.76557 0.0
C241 C 0.83171 0.46159 0.78118 0.0
C242 C 0.91074 0.48946 0.81232 0.0
C243 C 0.93258 0.50278 0.83542 0.0
C244 C 0.9661 0.51814 0.83199 0.0
C245 C 0.97915 0.52155 0.80536 0.0
C246 C 0.95781 0.50781 0.78227 0.0
C247 C 0.92411 0.49232 0.78566 0.0
H248 H 0.53815 0.16586 0.98974 0.0
N249 N 0.54809 0.12409 0.96283 0.0
H250 H 0.57832 0.21333 0.01576 0.0
H251 H 0.60909 0.13744 0.9785 0.0
H252 H 0.65001 0.18554 0.0037 0.0
H253 H 0.60249 0.15519 0.93113 0.0
H254 H 0.60521 0.17614 0.88534 0.0
H255 H 0.49829 0.1124 0.92938 0.0
H256 H 0.50023 0.13062 0.88204 0.0
H257 H 0.50279 0.08569 0.99708 0.0
H258 H 0.57372 0.09028 0.93966 0.0
H259 H 0.4819 0.02931 0.00271 0.0
H260 H 0.55267 0.03339 0.94492 0.0
H261 H 0.37579 0.87145 1e-05 0.0
H262 H 0.35617 0.84679 0.04506 0.0
H263 H 0.45017 0.85757 0.06326 0.0
H264 H 0.46916 0.88151 0.01808 0.0
H265 H 0.48325 0.87941 0.9717 0.0
H266 H 0.47773 0.83274 0.94681 0.0
H267 H 0.38183 0.80865 0.91753 0.0
H268 H 0.38742 0.85487 0.94278 0.0
H269 H 0.46197 0.93525 0.02331 0.0
H270 H 0.49668 0.99155 0.02077 0.0
H271 H 0.49892 0.98347 0.93126 0.0
N272 N 0.43424 0.89236 0.97884 0.0
H273 H 0.46432 0.92618 0.93346 0.0
C274 C 0.57071 0.14841 0.98206 0.0
C275 C 0.56232 0.16969 0.99337 0.0
C276 C 0.5854 0.19692 0.00794 0.0
C277 C 0.61758 0.20358 0.01128 0.0
C278 C 0.62544 0.18111 0.00154 0.0
C279 C 0.60213 0.15364 0.98709 0.0
C280 C 0.55013 0.13298 0.9341 0.0
C281 C 0.58005 0.1499 0.92074 0.0
C282 C 0.5815 0.16154 0.89413 0.0
C283 C 0.55297 0.15562 0.87981 0.0
C284 C 0.52288 0.13673 0.8926 0.0
C285 C 0.52159 0.12588 0.91955 0.0
C286 C 0.53951 0.09201 0.96791 0.0
C287 C 0.51418 0.07452 0.98608 0.0
C288 C 0.50239 0.04235 0.98929 0.0
C289 C 0.51565 0.02688 0.97423 0.0
C290 C 0.54186 0.04466 0.95663 0.0
C291 C 0.55395 0.07712 0.95369 0.0
C292 C 0.42379 0.87834 0.00575 0.0
C293 C 0.39203 0.8684 0.0138 0.0
C294 C 0.38097 0.85446 0.03955 0.0
C295 C 0.40163 0.85026 0.05781 0.0
C296 C 0.43346 0.85997 0.04954 0.0
C297 C 0.4444 0.87373 0.02371 0.0
C298 C 0.43545 0.87028 0.95932 0.0
C299 C 0.46133 0.86437 0.9595 0.0
C300 C 0.45811 0.83769 0.94532 0.0
C301 C 0.4292 0.81683 0.93046 0.0
C302 C 0.40451 0.82433 0.92857 0.0
C303 C 0.40763 0.85072 0.94295 0.0
C304 C 0.46068 0.92519 0.97853 0.0
C305 C 0.47064 0.94469 0.00298 0.0
C306 C 0.49044 0.97744 0.00162 0.0
C307 C 0.5004 0.992 0.97585 0.0
C308 C 0.492 0.97288 0.95151 0.0
C309 C 0.47216 0.93995 0.95282 0.0
H310 H 0.54272 0.3883 0.15789 0.0
N311 N 0.53761 0.43729 0.17451 0.0
H312 H 0.58478 0.38883 0.12911 0.0
H313 H 0.58204 0.48761 0.14377 0.0
H314 H 0.62314 0.48805 0.11412 0.0
H315 H 0.59791 0.48029 0.19611 0.0
H316 H 0.61838 0.48164 0.24296 0.0
H317 H 0.50534 0.39968 0.21619 0.0
H318 H 0.52552 0.40134 0.26383 0.0
H319 H 0.47857 0.41578 0.15274 0.0
H320 H 0.56215 0.50063 0.18617 0.0
H321 H 0.44974 0.44479 0.14678 0.0
H322 H 0.5335 0.52949 0.18071 0.0
H323 H 0.36313 0.51543 0.1206 0.0
H324 H 0.34961 0.52137 0.07256 0.0
H325 H 0.44472 0.60471 0.06572 0.0
H326 H 0.45754 0.59906 0.11371 0.0
H327 H 0.47064 0.61178 0.1611 0.0
H328 H 0.46997 0.65483 0.18679 0.0
H329 H 0.36938 0.59176 0.20652 0.0
H330 H 0.3702 0.54888 0.18051 0.0
H331 H 0.39638 0.49681 0.17095 0.0
H332 H 0.42636 0.46896 0.17695 0.0
H333 H 0.51198 0.54901 0.1442 0.0
N334 N 0.41748 0.55299 0.14943 0.0
H335 H 0.48204 0.57663 0.13857 0.0
C336 C 0.55898 0.43771 0.15318 0.0
C337 C 0.5598 0.40997 0.14788 0.0
C338 C 0.58385 0.41034 0.13131 0.0
C339 C 0.60762 0.43859 0.11943 0.0
C340 C 0.60563 0.46602 0.12337 0.0
C341 C 0.58174 0.46569 0.1402 0.0
C342 C 0.54999 0.43965 0.20256 0.0
C343 C 0.58182 0.46301 0.21068 0.0
C344 C 0.59345 0.46392 0.23765 0.0
C345 C 0.57355 0.44165 0.2572 0.0
C346 C 0.54156 0.41862 0.24918 0.0
C347 C 0.52994 0.41771 0.2221 0.0
C348 C 0.52239 0.45582 0.16986 0.0
C349 C 0.4907 0.44066 0.15866 0.0
C350 C 0.47424 0.4572 0.15551 0.0
C351 C 0.4893 0.48939 0.16347 0.0
C352 C 0.52134 0.50478 0.1742 0.0
C353 C 0.53771 0.48818 0.17745 0.0
C354 C 0.41123 0.55658 0.12073 0.0
C355 C 0.38102 0.53483 0.10858 0.0
C356 C 0.37345 0.53823 0.08115 0.0
C357 C 0.39611 0.56355 0.06531 0.0
C358 C 0.42657 0.5852 0.07747 0.0
C359 C 0.43407 0.58179 0.10493 0.0
C360 C 0.42021 0.57709 0.16865 0.0
C361 C 0.44861 0.60697 0.1713 0.0
C362 C 0.44821 0.63165 0.18599 0.0
C363 C 0.41957 0.62674 0.1985 0.0
C364 C 0.39193 0.59625 0.19738 0.0
C365 C 0.39228 0.57175 0.1825 0.0
C366 C 0.43687 0.53876 0.15453 0.0
C367 C 0.42172 0.50838 0.16538 0.0
C368 C 0.43878 0.49245 0.16852 0.0
C369 C 0.47148 0.50672 0.16086 0.0
C370 C 0.48689 0.53751 0.15051 0.0
C371 C 0.46973 0.55338 0.14728 0.0
Zn372 Zn 0.69177 0.47474 0.40124 0.0
Zn373 Zn 0.65178 0.41128 0.40668 0.0
O374 O 0.69582 0.41681 0.3965 0.0
O375 O 0.72955 0.468 0.39341 0.0
O376 O 0.6257 0.36463 0.41387 0.0
O377 O 0.68233 0.48262 0.4406 0.0
O378 O 0.64891 0.43134 0.44371 0.0
C379 C 0.7241 0.43992 0.39192 0.0
C380 C 0.63667 0.44417 0.36126 0.0
O381 O 0.62961 0.41879 0.37365 0.0
O382 O 0.66117 0.4703 0.36926 0.0
C383 C 0.62606 0.34447 0.39708 0.0
O384 O 0.64169 0.35418 0.37361 0.0
C385 C 0.66205 0.45923 0.45436 0.0
Zn386 Zn 0.2377 0.70393 0.55652 0.0
Zn387 Zn 0.27087 0.67267 0.56187 0.0
O388 O 0.30449 0.7186 0.55299 0.0
O389 O 0.27922 0.74548 0.5501 0.0
O390 O 0.30043 0.65505 0.56778 0.0
O391 O 0.22141 0.69196 0.59563 0.0
O392 O 0.24545 0.66381 0.59837 0.0
C393 C 0.30515 0.7445 0.54905 0.0
C394 C 0.22003 0.65153 0.51579 0.0
O395 O 0.24187 0.64846 0.5283 0.0
O396 O 0.21391 0.6727 0.52389 0.0
C397 C 0.29334 0.62987 0.5804 0.0
O398 O 0.26387 0.61226 0.58986 0.0
C399 C 0.22746 0.67339 0.60887 0.0
Zn400 Zn 0.5409 0.23265 0.72541 0.0
Zn401 Zn 0.60694 0.26413 0.73179 0.0
O402 O 0.595 0.29875 0.72821 0.0
O403 O 0.5417 0.27415 0.72388 0.0
O404 O 0.65537 0.28975 0.739 0.0
O405 O 0.53691 0.21197 0.7625 0.0
O406 O 0.59035 0.23589 0.7658 0.0
C407 C 0.56894 0.29963 0.72517 0.0
C408 C 0.57553 0.22083 0.68104 0.0
O409 O 0.60101 0.23971 0.69529 0.0
O410 O 0.54771 0.21414 0.68946 0.0
C411 C 0.67357 0.31216 0.72315 0.0
O412 O 0.6606 0.31737 0.70109 0.0
C413 C 0.56243 0.21699 0.77539 0.0
Zn414 Zn 0.33422 0.55904 0.89773 0.0
Zn415 Zn 0.36562 0.62267 0.90622 0.0
O416 O 0.31878 0.61115 0.89685 0.0
O417 O 0.29312 0.55969 0.88847 0.0
O418 O 0.38863 0.66983 0.91375 0.0
O419 O 0.34532 0.55388 0.93722 0.0
O420 O 0.3719 0.60568 0.94319 0.0
C421 C 0.29298 0.58542 0.88981 0.0
C422 C 0.38628 0.59348 0.85956 0.0
O423 O 0.38902 0.61762 0.87256 0.0
O424 O 0.36536 0.5659 0.86686 0.0
C425 C 0.3882 0.68844 0.89588 0.0
O426 O 0.37303 0.67668 0.87179 0.0
C427 C 0.36245 0.57827 0.95253 0.0
Zn428 Zn 0.78727 0.46031 0.06644 0.0
Zn429 Zn 0.748 0.39748 0.05536 0.0
O430 O 0.71653 0.4124 0.06625 0.0
O431 O 0.74768 0.46296 0.07735 0.0
O432 O 0.71697 0.35158 0.04499 0.0
O433 O 0.80202 0.46661 0.02658 0.0
O434 O 0.77232 0.41517 0.01882 0.0
C435 C 0.71965 0.43852 0.07487 0.0
C436 C 0.80021 0.42026 0.10155 0.0
O437 O 0.77571 0.39775 0.08858 0.0
O438 O 0.81057 0.44874 0.09527 0.0
C439 C 0.71782 0.32738 0.05279 0.0
O440 O 0.74134 0.33097 0.06968 0.0
C441 C 0.79228 0.44275 0.0103 0.0
Zn442 Zn 0.329 0.79062 0.22031 0.0
Zn443 Zn 0.3673 0.76418 0.21719 0.0
O444 O 0.32231 0.72793 0.2267 0.0
O445 O 0.28954 0.74716 0.2269 0.0
O446 O 0.39236 0.74165 0.21317 0.0
O447 O 0.34146 0.806 0.18103 0.0
O448 O 0.37175 0.78405 0.17906 0.0
C449 C 0.29408 0.72406 0.22956 0.0
C450 C 0.38281 0.81507 0.26146 0.0
O451 O 0.38945 0.79571 0.24955 0.0
O452 O 0.35871 0.81714 0.25303 0.0
C453 C 0.39045 0.72258 0.23165 0.0
O454 O 0.37372 0.71954 0.25414 0.0
C455 C 0.36047 0.79986 0.16773 0.0
C456 C 0.24908 0.646 0.26546 0.0
C457 C 0.21632 0.63675 0.26018 0.0
H458 H 0.29907 0.68038 0.25952 0.0
C459 C 0.20956 0.65564 0.24277 0.0
H460 H 0.25565 0.63279 0.27918 0.0
C461 C 0.23477 0.68378 0.23233 0.0
C462 C 0.26729 0.69317 0.23834 0.0
H463 H 0.18479 0.64906 0.23752 0.0
H464 H 0.22882 0.69831 0.21973 0.0
C465 C 0.27419 0.6736 0.25437 0.0
C466 C 0.59073 0.27215 0.44182 0.0
C467 C 0.59735 0.2517 0.42609 0.0
H468 H 0.59434 0.31734 0.44495 0.0
C469 C 0.61042 0.26079 0.39943 0.0
H470 H 0.581 0.26608 0.46255 0.0
C471 C 0.61825 0.29035 0.38937 0.0
C472 C 0.6133 0.31149 0.40579 0.0
H473 H 0.61538 0.24538 0.38664 0.0
H474 H 0.62934 0.29705 0.36916 0.0
C475 C 0.5986 0.30169 0.43179 0.0
C476 C 0.37638 0.63798 0.58647 0.0
C477 C 0.37053 0.61358 0.60463 0.0
H478 H 0.35664 0.66205 0.56436 0.0
C479 C 0.33844 0.59276 0.6127 0.0
H480 H 0.40074 0.65413 0.57954 0.0
C481 C 0.31306 0.59724 0.60395 0.0
C482 C 0.31923 0.62262 0.58693 0.0
H483 H 0.33315 0.5739 0.62689 0.0
H484 H 0.28884 0.58149 0.61138 0.0
C485 C 0.35104 0.64243 0.57771 0.0
C486 C 0.75286 0.35215 0.7649 0.0
C487 C 0.77077 0.38075 0.75095 0.0
H488 H 0.70814 0.30802 0.76707 0.0
C489 C 0.75767 0.38515 0.72623 0.0
H490 H 0.76213 0.34814 0.78414 0.0
C491 C 0.72666 0.36218 0.71647 0.0
C492 C 0.708 0.33438 0.73131 0.0
H493 H 0.77105 0.40679 0.71486 0.0
H494 H 0.71688 0.36681 0.69786 0.0
C495 C 0.72179 0.32925 0.75521 0.0
C496 C 0.42988 0.76659 0.93651 0.0
C497 C 0.42297 0.78564 0.91962 0.0
H498 H 0.42428 0.72098 0.94234 0.0
C499 C 0.40691 0.77323 0.89376 0.0
H500 H 0.44187 0.77531 0.9567 0.0
C501 C 0.39674 0.74202 0.88553 0.0
C502 C 0.40217 0.72247 0.9031 0.0
H503 H 0.40148 0.78742 0.88019 0.0
H504 H 0.38363 0.73293 0.86583 0.0
C505 C 0.41952 0.73533 0.92838 0.0
C506 C 0.63211 0.41405 0.08899 0.0
C507 C 0.63584 0.43993 0.10519 0.0
H508 H 0.65556 0.39331 0.06665 0.0
C509 C 0.66727 0.46626 0.10949 0.0
H510 H 0.60825 0.39361 0.08482 0.0
C511 C 0.69434 0.46626 0.09873 0.0
C512 C 0.6907 0.43981 0.08365 0.0
H513 H 0.67124 0.48642 0.12219 0.0
H514 H 0.71822 0.48657 0.10317 0.0
C515 C 0.65924 0.41394 0.07845 0.0
C516 C 0.38542 0.79484 0.51436 0.0
C517 C 0.39072 0.82563 0.51847 0.0
H518 H 0.35476 0.7454 0.52125 0.0
C519 C 0.36859 0.8295 0.53489 0.0
H520 H 0.40117 0.7904 0.5014 0.0
C521 C 0.34111 0.80324 0.54544 0.0
C522 C 0.33563 0.77262 0.54056 0.0
H523 H 0.37207 0.85273 0.53926 0.0
H524 H 0.32397 0.80686 0.55719 0.0
C525 C 0.35851 0.76878 0.52558 0.0
C526 C 0.60212 0.38572 0.70874 0.0
C527 C 0.57344 0.38612 0.70285 0.0
H528 H 0.62325 0.35814 0.72057 0.0
C529 C 0.54334 0.35875 0.70738 0.0
H530 H 0.62571 0.40631 0.70524 0.0
C531 C 0.54191 0.33106 0.71601 0.0
C532 C 0.57057 0.33011 0.72031 0.0
H533 H 0.52083 0.35847 0.70347 0.0
H534 H 0.51828 0.31009 0.71832 0.0
C535 C 0.60071 0.35801 0.71739 0.0
C536 C 0.21372 0.56298 0.85276 0.0
C537 C 0.21001 0.58906 0.85917 0.0
H538 H 0.2424 0.54124 0.85768 0.0
C539 C 0.23286 0.61295 0.87755 0.0
H540 H 0.19719 0.5444 0.8383 0.0
C541 C 0.25948 0.61151 0.88809 0.0
C542 C 0.26347 0.58583 0.88097 0.0
H543 H 0.23053 0.63306 0.88352 0.0
H544 H 0.27713 0.63067 0.90155 0.0
C545 C 0.2399 0.56125 0.86374 0.0
C546 C 0.66805 0.23816 0.04078 0.0
C547 C 0.64317 0.23501 0.02268 0.0
H548 H 0.71113 0.2698 0.0647 0.0
C549 C 0.64325 0.26245 0.01466 0.0
H550 H 0.6686 0.21747 0.04743 0.0
C551 C 0.66739 0.29223 0.02453 0.0
C552 C 0.69225 0.29548 0.04266 0.0
H553 H 0.62491 0.26102 0.00026 0.0
H554 H 0.6666 0.31275 0.01774 0.0
C555 C 0.69233 0.26811 0.05073 0.0
C556 C 0.40017 0.65088 0.23441 0.0
C557 C 0.41708 0.65373 0.20981 0.0
H558 H 0.37893 0.67072 0.2609 0.0
C559 C 0.42838 0.68122 0.19425 0.0
H560 H 0.39145 0.63008 0.24694 0.0
C561 C 0.42112 0.70443 0.20214 0.0
C562 C 0.40256 0.70071 0.22584 0.0
H563 H 0.44122 0.68398 0.17506 0.0
H564 H 0.42892 0.72466 0.18901 0.0
C565 C 0.39312 0.67423 0.24243 0.0
C566 C 0.80569 0.45366 0.36891 0.0
C567 C 0.79711 0.42416 0.35647 0.0
H568 H 0.78941 0.4818 0.38991 0.0
C569 C 0.76484 0.39909 0.35838 0.0
H570 H 0.83046 0.4733 0.36852 0.0
C571 C 0.74147 0.40382 0.37123 0.0
C572 C 0.74973 0.43382 0.38213 0.0
H573 H 0.7572 0.37614 0.34884 0.0
H574 H 0.7166 0.38431 0.37141 0.0
C575 C 0.78222 0.4585 0.38139 0.0
C576 C 0.19855 0.59585 0.45301 0.0
C577 C 0.17179 0.59651 0.44131 0.0
H578 H 0.23475 0.61264 0.48575 0.0
C579 C 0.15978 0.61369 0.45543 0.0
H580 H 0.20865 0.58314 0.44256 0.0
C581 C 0.17503 0.63096 0.47991 0.0
C582 C 0.20247 0.63122 0.49106 0.0
H583 H 0.13879 0.61417 0.44734 0.0
H584 H 0.16552 0.64446 0.4899 0.0
C585 C 0.21366 0.61294 0.47769 0.0
C586 C 0.61009 0.19761 0.62036 0.0
C587 C 0.58408 0.1853 0.6008 0.0
H588 H 0.62785 0.21855 0.66106 0.0
C589 C 0.55508 0.18406 0.60833 0.0
H590 H 0.63261 0.19851 0.61549 0.0
C591 C 0.55215 0.19488 0.6346 0.0
C592 C 0.57832 0.20774 0.65389 0.0
H593 H 0.53476 0.17546 0.5937 0.0
H594 H 0.52958 0.19393 0.63949 0.0
C595 C 0.60731 0.20891 0.64656 0.0
C596 C 0.41659 0.57277 0.79482 0.0
C597 C 0.43282 0.60193 0.78156 0.0
H598 H 0.38962 0.54734 0.83 0.0
C599 C 0.43696 0.62913 0.79566 0.0
H600 H 0.4136 0.55153 0.78466 0.0
C601 C 0.42326 0.62679 0.82181 0.0
C602 C 0.40524 0.59721 0.83425 0.0
H603 H 0.44931 0.6519 0.78588 0.0
H604 H 0.42552 0.64789 0.83162 0.0
C605 C 0.40296 0.57043 0.82085 0.0
C606 C 0.80652 0.42558 0.93591 0.0
C607 C 0.82681 0.45624 0.92617 0.0
H608 H 0.77948 0.39718 0.97006 0.0
C609 C 0.83573 0.48228 0.94434 0.0
H610 H 0.79903 0.40506 0.92231 0.0
C611 C 0.82457 0.47781 0.9716 0.0
C612 C 0.80412 0.44718 0.98136 0.0
H613 H 0.85171 0.50618 0.9376 0.0
H614 H 0.83201 0.49846 0.98501 0.0
C615 C 0.79521 0.42109 0.96321 0.0
C616 C 0.39916 0.81556 0.09675 0.0
C617 C 0.39029 0.83648 0.08564 0.0
H618 H 0.39667 0.78749 0.13131 0.0
C619 C 0.37095 0.84466 0.10154 0.0
H620 H 0.41364 0.80841 0.08489 0.0
C621 C 0.36094 0.83242 0.12799 0.0
C622 C 0.37017 0.81184 0.13926 0.0
H623 H 0.36408 0.86108 0.09381 0.0
H624 H 0.34635 0.83952 0.13976 0.0
C625 C 0.38928 0.80342 0.1233 0.0
C626 C 0.60776 0.47081 0.29949 0.0
C627 C 0.5868 0.44196 0.28542 0.0
H628 H 0.63972 0.49412 0.3345 0.0
C629 C 0.58026 0.4136 0.29775 0.0
H630 H 0.61277 0.49304 0.29085 0.0
C631 C 0.59547 0.41418 0.323 0.0
C632 C 0.61765 0.44315 0.33633 0.0
H633 H 0.56443 0.39098 0.28734 0.0
H634 H 0.59077 0.39199 0.3315 0.0
C635 C 0.62308 0.47141 0.32459 0.0
C636 C 0.41386 0.87464 0.32169 0.0
C637 C 0.43414 0.86654 0.33631 0.0
H638 H 0.38185 0.86485 0.28664 0.0
C639 C 0.43948 0.84304 0.32484 0.0
H640 H 0.4098 0.89312 0.32962 0.0
C641 C 0.42372 0.82704 0.29995 0.0
C642 C 0.40216 0.83411 0.28613 0.0
H643 H 0.45476 0.83607 0.33567 0.0
H644 H 0.42751 0.80836 0.29211 0.0
C645 C 0.39794 0.85852 0.29697 0.0
C646 C 0.6164 0.44517 0.52168 0.0
C647 C 0.63283 0.47538 0.53462 0.0
H648 H 0.61295 0.41625 0.48639 0.0
C649 C 0.65957 0.50001 0.52139 0.0
H650 H 0.59596 0.42564 0.53159 0.0
C651 C 0.66931 0.49468 0.49548 0.0
C652 C 0.65268 0.46452 0.48238 0.0
H653 H 0.67256 0.52357 0.53081 0.0
H654 H 0.68975 0.51428 0.48564 0.0
C655 C 0.6263 0.43976 0.4959 0.0
C656 C 0.18999 0.67009 0.67855 0.0
C657 C 0.17762 0.63836 0.68583 0.0
H658 H 0.21514 0.70582 0.64849 0.0
C659 C 0.18348 0.61876 0.66793 0.0
H660 H 0.18713 0.68639 0.69203 0.0
C661 C 0.20091 0.6305 0.64346 0.0
C662 C 0.21208 0.66181 0.63596 0.0
H663 H 0.17404 0.59411 0.67237 0.0
H664 H 0.20457 0.61475 0.62989 0.0
C665 C 0.20652 0.68148 0.65373 0.0
C666 C 0.57999 0.17676 0.83381 0.0
C667 C 0.55474 0.17023 0.85234 0.0
H668 H 0.60253 0.1972 0.79525 0.0
C669 C 0.53182 0.17896 0.84483 0.0
H670 H 0.5977 0.16983 0.83833 0.0
C671 C 0.53403 0.19363 0.81962 0.0
C672 C 0.55972 0.20079 0.80166 0.0
H673 H 0.51247 0.1752 0.85865 0.0
H674 H 0.5161 0.20016 0.81452 0.0
C675 C 0.58271 0.19229 0.80897 0.0
C676 C 0.39686 0.59762 0.02654 0.0
C677 C 0.38787 0.56747 0.0363 0.0
H678 H 0.39587 0.62473 0.9925 0.0
C679 C 0.3707 0.54103 0.01821 0.0
H680 H 0.40975 0.61843 0.04008 0.0
C681 C 0.36252 0.54459 0.99106 0.0
C682 C 0.37139 0.57471 0.98131 0.0
H683 H 0.36382 0.51754 0.02495 0.0
H684 H 0.34929 0.52367 0.97769 0.0
C685 C 0.38874 0.60121 -0.00068 0.0
C686 C 0.81014 0.38588 0.16821 0.0
C687 C 0.84279 0.40763 0.17579 0.0
H688 H 0.77122 0.37249 0.13842 0.0
C689 C 0.862 0.43129 0.15693 0.0
H690 H 0.79439 0.36753 0.18219 0.0
C691 C 0.84838 0.4346 0.13227 0.0
C692 C 0.81547 0.41381 0.12545 0.0
H693 H 0.88747 0.44785 0.16147 0.0
H694 H 0.86349 0.45388 0.11877 0.0
C695 C 0.79673 0.38876 0.14314 0.0
loop_
_geom_bond_atom_site_label_1
_geom_bond_atom_site_label_2
_geom_bond_distance
_geom_bond_site_symmetry_2
_ccdc_geom_bond_type
H0 C27 0.929 . S
N1 C26 1.433 . S
N1 C32 1.435 . S
N1 C38 1.423 . S
H2 C28 0.930 . S
H3 C31 0.931 . S
H4 C30 0.929 . S
H5 C33 0.930 . S
H6 C34 0.932 . S
H7 C37 0.929 . S
H8 C36 0.931 . S
H9 C39 0.929 . S
H10 C43 0.932 . S
H11 C40 0.931 . S
H12 C42 0.929 . S
H13 C45 0.929 . S
H14 C46 0.930 . S
H15 C48 0.929 . S
H16 C49 0.931 . S
H17 C51 0.930 . S
H18 C52 0.932 . S
H19 C54 0.931 . S
H20 C55 0.929 . S
H21 C57 0.929 . S
H22 C58 0.931 . S
H23 C60 0.929 . S
N24 C44 1.433 . S
N24 C50 1.435 . S
N24 C56 1.423 . S
H25 C61 0.932 . S
C26 N1 1.433 . S
C26 C27 1.363 . S
C26 C31 1.370 . S
C27 H0 0.929 . S
C27 C26 1.363 . S
C27 C28 1.385 . S
C28 H2 0.930 . S
C28 C27 1.385 . S
C28 C29 1.357 . S
C29 C28 1.357 . S
C29 C30 1.406 . S
C30 H4 0.929 . S
C30 C29 1.406 . S
C30 C31 1.391 . S
C31 H3 0.931 . S
C31 C26 1.370 . S
C31 C30 1.391 . S
C32 N1 1.435 . S
C32 C33 1.358 . S
C32 C37 1.371 . S
C33 H5 0.930 . S
C33 C32 1.358 . S
C33 C34 1.405 . S
C34 H6 0.932 . S
C34 C33 1.405 . S
C34 C35 1.383 . S
C35 C34 1.383 . S
C35 C36 1.393 . S
C36 H8 0.931 . S
C36 C35 1.393 . S
C36 C37 1.382 . S
C37 H7 0.929 . S
C37 C32 1.371 . S
C37 C36 1.382 . S
C38 N1 1.423 . S
C38 C39 1.362 . S
C38 C43 1.388 . S
C39 H9 0.929 . S
C39 C38 1.362 . S
C39 C40 1.376 . S
C40 H11 0.931 . S
C40 C39 1.376 . S
C40 C41 1.396 . S
C41 C40 1.396 . S
C41 C42 1.348 . S
C41 C59 1.472 1_455 S
C42 H12 0.929 . S
C42 C41 1.348 . S
C42 C43 1.443 . S
C43 H10 0.932 . S
C43 C38 1.388 . S
C43 C42 1.443 . S
C44 N24 1.433 . S
C44 C45 1.363 . S
C44 C49 1.370 . S
C45 H13 0.929 . S
C45 C44 1.363 . S
C45 C46 1.385 . S
C46 H14 0.930 . S
C46 C45 1.385 . S
C46 C47 1.357 . S
C47 C46 1.357 . S
C47 C48 1.406 . S
C48 H15 0.929 . S
C48 C47 1.406 . S
C48 C49 1.391 . S
C49 H16 0.931 . S
C49 C44 1.370 . S
C49 C48 1.391 . S
C50 N24 1.435 . S
C50 C51 1.358 . S
C50 C55 1.371 . S
C51 H17 0.930 . S
C51 C50 1.358 . S
C51 C52 1.405 . S
C52 H18 0.932 . S
C52 C51 1.405 . S
C52 C53 1.383 . S
C53 C52 1.383 . S
C53 C54 1.393 . S
C54 H19 0.931 . S
C54 C53 1.393 . S
C54 C55 1.382 . S
C55 H20 0.929 . S
C55 C50 1.371 . S
C55 C54 1.382 . S
C56 N24 1.423 . S
C56 C57 1.362 . S
C56 C61 1.388 . S
C57 H21 0.929 . S
C57 C56 1.362 . S
C57 C58 1.376 . S
C58 H22 0.931 . S
C58 C57 1.376 . S
C58 C59 1.396 . S
C59 C41 1.472 1_655 S
C59 C58 1.396 . S
C59 C60 1.348 . S
C60 H23 0.929 . S
C60 C59 1.348 . S
C60 C61 1.443 . S
C61 H25 0.932 . S
C61 C56 1.388 . S
C61 C60 1.443 . S
H62 C89 0.929 . S
N63 C88 1.433 . S
N63 C94 1.435 . S
N63 C100 1.423 . S
H64 C90 0.930 . S
H65 C93 0.931 . S
H66 C92 0.929 . S
H67 C95 0.930 . S
H68 C96 0.932 . S
H69 C99 0.929 . S
H70 C98 0.931 . S
H71 C101 0.929 . S
H72 C105 0.932 . S
H73 C102 0.931 . S
H74 C104 0.929 1_545 S
H75 C107 0.929 . S
H76 C108 0.930 . S
H77 C110 0.929 . S
H78 C111 0.931 . S
H79 C113 0.930 . S
H80 C114 0.932 . S
H81 C116 0.931 . S
H82 C117 0.929 . S
H83 C119 0.929 . S
H84 C120 0.931 . S
H85 C122 0.929 . S
N86 C106 1.433 . S
N86 C112 1.435 . S
N86 C118 1.423 . S
H87 C123 0.932 . S
C88 N63 1.433 . S
C88 C89 1.363 . S
C88 C93 1.370 . S
C89 H62 0.929 . S
C89 C88 1.363 . S
C89 C90 1.385 . S
C90 H64 0.930 . S
C90 C89 1.385 . S
C90 C91 1.357 . S
C91 C90 1.357 . S
C91 C92 1.406 . S
C92 H66 0.929 . S
C92 C91 1.406 . S
C92 C93 1.391 . S
C93 H65 0.931 . S
C93 C88 1.370 . S
C93 C92 1.391 . S
C94 N63 1.435 . S
C94 C95 1.358 . S
C94 C99 1.371 . S
C95 H67 0.930 . S
C95 C94 1.358 . S
C95 C96 1.405 . S
C96 H68 0.932 . S
C96 C95 1.405 . S
C96 C97 1.383 . S
C97 C96 1.383 . S
C97 C98 1.393 . S
C98 H70 0.931 . S
C98 C97 1.393 . S
C98 C99 1.382 . S
C99 H69 0.929 . S
C99 C94 1.371 . S
C99 C98 1.382 . S
C100 N63 1.423 . S
C100 C101 1.362 . S
C100 C105 1.388 . S
C101 H71 0.929 . S
C101 C100 1.362 . S
C101 C102 1.376 . S
C102 H73 0.931 . S
C102 C101 1.376 . S
C102 C103 1.396 1_565 S
C103 C102 1.396 1_545 S
C103 C104 1.348 1_545 S
C103 C121 1.472 . S
C104 H74 0.929 1_565 S
C104 C103 1.348 1_565 S
C104 C105 1.443 . S
C105 H72 0.932 . S
C105 C100 1.388 . S
C105 C104 1.443 . S
C106 N86 1.433 . S
C106 C107 1.363 . S
C106 C111 1.370 . S
C107 H75 0.929 . S
C107 C106 1.363 . S
C107 C108 1.385 . S
C108 H76 0.930 . S
C108 C107 1.385 . S
C108 C109 1.357 . S
C109 C108 1.357 . S
C109 C110 1.406 . S
C110 H77 0.929 . S
C110 C109 1.406 . S
C110 C111 1.391 . S
C111 H78 0.931 . S
C111 C106 1.370 . S
C111 C110 1.391 . S
C112 N86 1.435 . S
C112 C113 1.358 . S
C112 C117 1.371 . S
C113 H79 0.930 . S
C113 C112 1.358 . S
C113 C114 1.405 . S
C114 H80 0.932 . S
C114 C113 1.405 . S
C114 C115 1.383 . S
C115 C114 1.383 . S
C115 C116 1.393 . S
C116 H81 0.931 . S
C116 C115 1.393 . S
C116 C117 1.382 . S
C117 H82 0.929 . S
C117 C112 1.371 . S
C117 C116 1.382 . S
C118 N86 1.423 . S
C118 C119 1.362 . S
C118 C123 1.388 . S
C119 H83 0.929 . S
C119 C118 1.362 . S
C119 C120 1.376 . S
C120 H84 0.931 . S
C120 C119 1.376 . S
C120 C121 1.396 . S
C121 C103 1.472 . S
C121 C120 1.396 . S
C121 C122 1.348 . S
C122 H85 0.929 . S
C122 C121 1.348 . S
C122 C123 1.443 . S
C123 H87 0.932 . S
C123 C118 1.388 . S
C123 C122 1.443 . S
H124 C151 0.929 . S
N125 C150 1.433 . S
N125 C156 1.435 . S
N125 C162 1.423 . S
H126 C152 0.930 . S
H127 C155 0.931 . S
H128 C154 0.929 . S
H129 C157 0.930 . S
H130 C158 0.932 . S
H131 C161 0.929 . S
H132 C160 0.931 . S
H133 C163 0.929 . S
H134 C167 0.932 . S
H135 C164 0.931 . S
H136 C166 0.929 . S
H137 C169 0.929 . S
H138 C170 0.930 . S
H139 C172 0.929 . S
H140 C173 0.931 . S
H141 C175 0.930 . S
H142 C176 0.932 . S
H143 C178 0.931 . S
H144 C179 0.929 . S
H145 C181 0.929 . S
H146 C182 0.931 . S
H147 C184 0.929 . S
N148 C168 1.433 . S
N148 C174 1.435 . S
N148 C180 1.423 . S
H149 C185 0.932 . S
C150 N125 1.433 . S
C150 C151 1.363 . S
C150 C155 1.370 . S
C151 H124 0.929 . S
C151 C150 1.363 . S
C151 C152 1.385 . S
C152 H126 0.930 . S
C152 C151 1.385 . S
C152 C153 1.357 . S
C153 C152 1.357 . S
C153 C154 1.406 . S
C154 H128 0.929 . S
C154 C153 1.406 . S
C154 C155 1.391 . S
C155 H127 0.931 . S
C155 C150 1.370 . S
C155 C154 1.391 . S
C156 N125 1.435 . S
C156 C157 1.358 . S
C156 C161 1.371 . S
C157 H129 0.930 . S
C157 C156 1.358 . S
C157 C158 1.405 . S
C158 H130 0.932 . S
C158 C157 1.405 . S
C158 C159 1.383 . S
C159 C158 1.383 . S
C159 C160 1.393 . S
C160 H132 0.931 . S
C160 C159 1.393 . S
C160 C161 1.382 . S
C161 H131 0.929 . S
C161 C156 1.371 . S
C161 C160 1.382 . S
C162 N125 1.423 . S
C162 C163 1.362 . S
C162 C167 1.388 . S
C163 H133 0.929 . S
C163 C162 1.362 . S
C163 C164 1.376 . S
C164 H135 0.931 . S
C164 C163 1.376 . S
C164 C165 1.396 . S
C165 C164 1.396 . S
C165 C166 1.348 . S
C165 C183 1.472 . S
C166 H136 0.929 . S
C166 C165 1.348 . S
C166 C167 1.443 . S
C167 H134 0.932 . S
C167 C162 1.388 . S
C167 C166 1.443 . S
C168 N148 1.433 . S
C168 C169 1.363 . S
C168 C173 1.370 . S
C169 H137 0.929 . S
C169 C168 1.363 . S
C169 C170 1.385 . S
C170 H138 0.930 . S
C170 C169 1.385 . S
C170 C171 1.357 . S
C171 C170 1.357 . S
C171 C172 1.406 . S
C172 H139 0.929 . S
C172 C171 1.406 . S
C172 C173 1.391 . S
C173 H140 0.931 . S
C173 C168 1.370 . S
C173 C172 1.391 . S
C174 N148 1.435 . S
C174 C175 1.358 . S
C174 C179 1.371 . S
C175 H141 0.930 . S
C175 C174 1.358 . S
C175 C176 1.405 . S
C176 H142 0.932 . S
C176 C175 1.405 . S
C176 C177 1.383 . S
C177 C176 1.383 . S
C177 C178 1.393 . S
C178 H143 0.931 . S
C178 C177 1.393 . S
C178 C179 1.382 . S
C179 H144 0.929 . S
C179 C174 1.371 . S
C179 C178 1.382 . S
C180 N148 1.423 . S
C180 C181 1.362 . S
C180 C185 1.388 . S
C181 H145 0.929 . S
C181 C180 1.362 . S
C181 C182 1.376 . S
C182 H146 0.931 . S
C182 C181 1.376 . S
C182 C183 1.396 . S
C183 C165 1.472 . S
C183 C182 1.396 . S
C183 C184 1.348 . S
C184 H147 0.929 . S
C184 C183 1.348 . S
C184 C185 1.443 . S
C185 H149 0.932 . S
C185 C180 1.388 . S
C185 C184 1.443 . S
H186 C213 0.929 . S
N187 C212 1.433 . S
N187 C218 1.435 . S
N187 C224 1.423 . S
H188 C214 0.930 . S
H189 C217 0.931 . S
H190 C216 0.929 . S
H191 C219 0.930 . S
H192 C220 0.932 . S
H193 C223 0.929 . S
H194 C222 0.931 . S
H195 C225 0.929 . S
H196 C229 0.932 . S
H197 C226 0.931 . S
H198 C228 0.929 . S
H199 C231 0.929 . S
H200 C232 0.930 . S
H201 C234 0.929 . S
H202 C235 0.931 . S
H203 C237 0.930 . S
H204 C238 0.932 . S
H205 C240 0.931 . S
H206 C241 0.929 . S
H207 C243 0.929 . S
H208 C244 0.931 . S
H209 C246 0.929 . S
N210 C230 1.433 . S
N210 C236 1.435 . S
N210 C242 1.423 . S
H211 C247 0.932 . S
C212 N187 1.433 . S
C212 C213 1.363 . S
C212 C217 1.370 . S
C213 H186 0.929 . S
C213 C212 1.363 . S
C213 C214 1.385 . S
C214 H188 0.930 . S
C214 C213 1.385 . S
C214 C215 1.357 . S
C215 C214 1.357 . S
C215 C216 1.406 . S
C216 H190 0.929 . S
C216 C215 1.406 . S
C216 C217 1.391 . S
C217 H189 0.931 . S
C217 C212 1.370 . S
C217 C216 1.391 . S
C218 N187 1.435 . S
C218 C219 1.358 . S
C218 C223 1.371 . S
C219 H191 0.930 . S
C219 C218 1.358 . S
C219 C220 1.405 . S
C220 H192 0.932 . S
C220 C219 1.405 . S
C220 C221 1.383 . S
C221 C220 1.383 . S
C221 C222 1.393 . S
C222 H194 0.931 . S
C222 C221 1.393 . S
C222 C223 1.382 . S
C223 H193 0.929 . S
C223 C218 1.371 . S
C223 C222 1.382 . S
C224 N187 1.423 . S
C224 C225 1.362 . S
C224 C229 1.388 . S
C225 H195 0.929 . S
C225 C224 1.362 . S
C225 C226 1.376 . S
C226 H197 0.931 . S
C226 C225 1.376 . S
C226 C227 1.396 . S
C227 C226 1.396 . S
C227 C228 1.348 . S
C227 C245 1.472 1_455 S
C228 H198 0.929 . S
C228 C227 1.348 . S
C228 C229 1.443 . S
C229 H196 0.932 . S
C229 C224 1.388 . S
C229 C228 1.443 . S
C230 N210 1.433 . S
C230 C231 1.363 . S
C230 C235 1.370 . S
C231 H199 0.929 . S
C231 C230 1.363 . S
C231 C232 1.385 . S
C232 H200 0.930 . S
C232 C231 1.385 . S
C232 C233 1.357 . S
C233 C232 1.357 . S
C233 C234 1.406 . S
C234 H201 0.929 . S
C234 C233 1.406 . S
C234 C235 1.391 . S
C235 H202 0.931 . S
C235 C230 1.370 . S
C235 C234 1.391 . S
C236 N210 1.435 . S
C236 C237 1.358 . S
C236 C241 1.371 . S
C237 H203 0.930 . S
C237 C236 1.358 . S
C237 C238 1.405 . S
C238 H204 0.932 . S
C238 C237 1.405 . S
C238 C239 1.383 . S
C239 C238 1.383 . S
C239 C240 1.393 . S
C240 H205 0.931 . S
C240 C239 1.393 . S
C240 C241 1.382 . S
C241 H206 0.929 . S
C241 C236 1.371 . S
C241 C240 1.382 . S
C242 N210 1.423 . S
C242 C243 1.362 . S
C242 C247 1.388 . S
C243 H207 0.929 . S
C243 C242 1.362 . S
C243 C244 1.376 . S
C244 H208 0.931 . S
C244 C243 1.376 . S
C244 C245 1.396 . S
C245 C227 1.472 1_655 S
C245 C244 1.396 . S
C245 C246 1.348 . S
C246 H209 0.929 . S
C246 C245 1.348 . S
C246 C247 1.443 . S
C247 H211 0.932 . S
C247 C242 1.388 . S
C247 C246 1.443 . S
H248 C275 0.929 . S
N249 C274 1.433 . S
N249 C280 1.435 . S
N249 C286 1.423 . S
H250 C276 0.930 . S
H251 C279 0.931 . S
H252 C278 0.929 . S
H253 C281 0.930 . S
H254 C282 0.932 . S
H255 C285 0.929 . S
H256 C284 0.931 . S
H257 C287 0.929 . S
H258 C291 0.932 . S
H259 C288 0.931 . S
H260 C290 0.929 . S
H261 C293 0.929 . S
H262 C294 0.930 . S
H263 C296 0.929 . S
H264 C297 0.931 . S
H265 C299 0.944 . S
H266 C300 0.932 . S
H267 C302 0.931 . S
H268 C303 0.929 . S
H269 C305 0.929 . S
H270 C306 0.926 1_554 S
H271 C308 0.929 . S
N272 C292 1.433 . S
N272 C298 1.435 1_554 S
N272 C304 1.423 1_554 S
H273 C309 0.932 . S
C274 N249 1.433 . S
C274 C275 1.363 . S
C274 C279 1.370 . S
C275 H248 0.929 . S
C275 C274 1.363 . S
C275 C276 1.385 . S
C276 H250 0.930 . S
C276 C275 1.385 . S
C276 C277 1.357 1_556 S
C277 C276 1.357 1_554 S
C277 C278 1.406 . S
C278 H252 0.929 . S
C278 C277 1.406 . S
C278 C279 1.391 1_554 S
C279 H251 0.931 . S
C279 C274 1.370 . S
C279 C278 1.391 1_556 S
C280 N249 1.435 . S
C280 C281 1.358 . S
C280 C285 1.371 . S
C281 H253 0.930 . S
C281 C280 1.358 . S
C281 C282 1.405 . S
C282 H254 0.932 . S
C282 C281 1.405 . S
C282 C283 1.383 . S
C283 C282 1.383 . S
C283 C284 1.393 . S
C284 H256 0.931 . S
C284 C283 1.393 . S
C284 C285 1.382 . S
C285 H255 0.929 . S
C285 C280 1.371 . S
C285 C284 1.382 . S
C286 N249 1.423 . S
C286 C287 1.362 . S
C286 C291 1.388 . S
C287 H257 0.929 . S
C287 C286 1.362 . S
C287 C288 1.376 . S
C288 H259 0.931 . S
C288 C287 1.376 . S
C288 C289 1.396 . S
C289 C288 1.396 . S
C289 C290 1.348 . S
C289 C307 1.472 1_545 S
C290 H260 0.929 . S
C290 C289 1.348 . S
C290 C291 1.443 . S
C291 H258 0.932 . S
C291 C286 1.388 . S
C291 C290 1.443 . S
C292 N272 1.433 . S
C292 C293 1.363 . S
C292 C297 1.370 . S
C293 H261 0.929 . S
C293 C292 1.363 . S
C293 C294 1.385 . S
C294 H262 0.930 . S
C294 C293 1.385 . S
C294 C295 1.357 . S
C295 C294 1.357 . S
C295 C296 1.406 . S
C296 H263 0.929 . S
C296 C295 1.406 . S
C296 C297 1.391 . S
C297 H264 0.931 . S
C297 C292 1.370 . S
C297 C296 1.391 . S
C298 N272 1.435 1_556 S
C298 C299 1.354 1_556 S
C298 C303 1.371 . S
C299 H265 0.944 . S
C299 C298 1.354 1_554 S
C299 C300 1.396 1_554 S
C300 H266 0.932 . S
C300 C299 1.396 1_556 S
C300 C301 1.383 . S
C301 C300 1.383 . S
C301 C302 1.393 . S
C302 H267 0.931 . S
C302 C301 1.393 . S
C302 C303 1.382 . S
C303 H268 0.929 . S
C303 C298 1.371 . S
C303 C302 1.382 . S
C304 N272 1.423 1_556 S
C304 C305 1.362 1_556 S
C304 C309 1.388 . S
C305 H269 0.929 . S
C305 C304 1.362 1_554 S
C305 C306 1.371 1_554 S
C306 H270 0.926 1_556 S
C306 C305 1.371 1_556 S
C306 C307 1.406 . S
C307 C289 1.472 1_565 S
C307 C306 1.406 . S
C307 C308 1.348 . S
C308 H271 0.929 . S
C308 C307 1.348 . S
C308 C309 1.443 . S
C309 H273 0.932 . S
C309 C304 1.388 . S
C309 C308 1.443 . S
H310 C337 0.929 . S
N311 C336 1.433 . S
N311 C342 1.435 . S
N311 C348 1.423 . S
H312 C338 0.930 . S
H313 C341 0.931 . S
H314 C340 0.929 . S
H315 C343 0.930 . S
H316 C344 0.932 . S
H317 C347 0.929 . S
H318 C346 0.931 . S
H319 C349 0.929 . S
H320 C353 0.932 . S
H321 C350 0.931 . S
H322 C352 0.929 . S
H323 C355 0.929 . S
H324 C356 0.930 . S
H325 C358 0.929 . S
H326 C359 0.931 . S
H327 C361 0.930 . S
H328 C362 0.932 . S
H329 C364 0.931 . S
H330 C365 0.929 . S
H331 C367 0.929 . S
H332 C368 0.931 . S
H333 C370 0.929 . S
N334 C354 1.433 . S
N334 C360 1.435 . S
N334 C366 1.423 . S
H335 C371 0.932 . S
C336 N311 1.433 . S
C336 C337 1.363 . S
C336 C341 1.370 . S
C337 H310 0.929 . S
C337 C336 1.363 . S
C337 C338 1.385 . S
C338 H312 0.930 . S
C338 C337 1.385 . S
C338 C339 1.357 . S
C339 C338 1.357 . S
C339 C340 1.406 . S
C340 H314 0.929 . S
C340 C339 1.406 . S
C340 C341 1.391 . S
C341 H313 0.931 . S
C341 C336 1.370 . S
C341 C340 1.391 . S
C342 N311 1.435 . S
C342 C343 1.358 . S
C342 C347 1.371 . S
C343 H315 0.930 . S
C343 C342 1.358 . S
C343 C344 1.405 . S
C344 H316 0.932 . S
C344 C343 1.405 . S
C344 C345 1.383 . S
C345 C344 1.383 . S
C345 C346 1.393 . S
C346 H318 0.931 . S
C346 C345 1.393 . S
C346 C347 1.382 . S
C347 H317 0.929 . S
C347 C342 1.371 . S
C347 C346 1.382 . S
C348 N311 1.423 . S
C348 C349 1.362 . S
C348 C353 1.388 . S
C349 H319 0.929 . S
C349 C348 1.362 . S
C349 C350 1.376 . S
C350 H321 0.931 . S
C350 C349 1.376 . S
C350 C351 1.396 . S
C351 C350 1.396 . S
C351 C352 1.348 . S
C351 C369 1.472 . S
C352 H322 0.929 . S
C352 C351 1.348 . S
C352 C353 1.443 . S
C353 H320 0.932 . S
C353 C348 1.388 . S
C353 C352 1.443 . S
C354 N334 1.433 . S
C354 C355 1.363 . S
C354 C359 1.370 . S
C355 H323 0.929 . S
C355 C354 1.363 . S
C355 C356 1.385 . S
C356 H324 0.930 . S
C356 C355 1.385 . S
C356 C357 1.357 . S
C357 C356 1.357 . S
C357 C358 1.406 . S
C358 H325 0.929 . S
C358 C357 1.406 . S
C358 C359 1.391 . S
C359 H326 0.931 . S
C359 C354 1.370 . S
C359 C358 1.391 . S
C360 N334 1.435 . S
C360 C361 1.358 . S
C360 C365 1.371 . S
C361 H327 0.930 . S
C361 C360 1.358 . S
C361 C362 1.405 . S
C362 H328 0.932 . S
C362 C361 1.405 . S
C362 C363 1.383 . S
C363 C362 1.383 . S
C363 C364 1.393 . S
C364 H329 0.931 . S
C364 C363 1.393 . S
C364 C365 1.382 . S
C365 H330 0.929 . S
C365 C360 1.371 . S
C365 C364 1.382 . S
C366 N334 1.423 . S
C366 C367 1.362 . S
C366 C371 1.388 . S
C367 H331 0.929 . S
C367 C366 1.362 . S
C367 C368 1.376 . S
C368 H332 0.931 . S
C368 C367 1.376 . S
C368 C369 1.396 . S
C369 C351 1.472 . S
C369 C368 1.396 . S
C369 C370 1.348 . S
C370 H333 0.929 . S
C370 C369 1.348 . S
C370 C371 1.443 . S
C371 H335 0.932 . S
C371 C366 1.388 . S
C371 C370 1.443 . S
Zn372 O375 2.031 . S
Zn372 O377 2.049 . S
Zn372 O382 2.067 . S
Zn373 O374 1.962 . S
Zn373 O376 1.986 . S
Zn373 O378 1.996 . S
Zn373 O381 1.943 . S
O374 Zn373 1.962 . S
O374 C379 1.254 . S
O375 Zn372 2.031 . S
O375 C379 1.269 . S
O376 Zn373 1.986 . S
O376 C383 1.262 . S
O377 Zn372 2.049 . S
O377 C385 1.260 . S
O378 Zn373 1.996 . S
O378 C385 1.257 . S
C379 O374 1.254 . S
C379 O375 1.269 . S
C380 O381 1.249 . S
C380 O382 1.270 . S
O381 Zn373 1.943 . S
O381 C380 1.249 . S
O382 Zn372 2.067 . S
O382 C380 1.270 . S
C383 O376 1.262 . S
C383 O384 1.232 . S
O384 C383 1.232 . S
C385 O377 1.260 . S
C385 O378 1.257 . S
Zn386 O389 2.031 . S
Zn386 O391 2.049 . S
Zn386 O396 2.067 . S
Zn387 O388 1.962 . S
Zn387 O390 1.986 . S
Zn387 O392 1.996 . S
Zn387 O395 1.943 . S
O388 Zn387 1.962 . S
O388 C393 1.254 . S
O389 Zn386 2.031 . S
O389 C393 1.269 . S
O390 Zn387 1.986 . S
O390 C397 1.262 . S
O391 Zn386 2.049 . S
O391 C399 1.260 . S
O392 Zn387 1.996 . S
O392 C399 1.257 . S
C393 O388 1.254 . S
C393 O389 1.269 . S
C394 O395 1.249 . S
C394 O396 1.270 . S
O395 Zn387 1.943 . S
O395 C394 1.249 . S
O396 Zn386 2.067 . S
O396 C394 1.270 . S
C397 O390 1.262 . S
C397 O398 1.232 . S
O398 C397 1.232 . S
C399 O391 1.260 . S
C399 O392 1.257 . S
Zn400 O403 2.031 . S
Zn400 O405 2.049 . S
Zn400 O410 2.067 . S
Zn401 O402 1.962 . S
Zn401 O404 1.986 . S
Zn401 O406 1.996 . S
Zn401 O409 1.943 . S
O402 Zn401 1.962 . S
O402 C407 1.254 . S
O403 Zn400 2.031 . S
O403 C407 1.269 . S
O404 Zn401 1.986 . S
O404 C411 1.262 . S
O405 Zn400 2.049 . S
O405 C413 1.260 . S
O406 Zn401 1.996 . S
O406 C413 1.257 . S
C407 O402 1.254 . S
C407 O403 1.269 . S
C408 O409 1.249 . S
C408 O410 1.270 . S
O409 Zn401 1.943 . S
O409 C408 1.249 . S
O410 Zn400 2.067 . S
O410 C408 1.270 . S
C411 O404 1.262 . S
C411 O412 1.232 . S
O412 C411 1.232 . S
C413 O405 1.260 . S
C413 O406 1.257 . S
Zn414 O417 2.031 . S
Zn414 O419 2.049 . S
Zn414 O424 2.067 . S
Zn415 O416 1.962 . S
Zn415 O418 1.986 . S
Zn415 O420 1.996 . S
Zn415 O423 1.943 . S
O416 Zn415 1.962 . S
O416 C421 1.254 . S
O417 Zn414 2.031 . S
O417 C421 1.269 . S
O418 Zn415 1.986 . S
O418 C425 1.262 . S
O419 Zn414 2.049 . S
O419 C427 1.260 . S
O420 Zn415 1.996 . S
O420 C427 1.257 . S
C421 O416 1.254 . S
C421 O417 1.269 . S
C422 O423 1.249 . S
C422 O424 1.270 . S
O423 Zn415 1.943 . S
O423 C422 1.249 . S
O424 Zn414 2.067 . S
O424 C422 1.270 . S
C425 O418 1.262 . S
C425 O426 1.232 . S
O426 C425 1.232 . S
C427 O419 1.260 . S
C427 O420 1.257 . S
Zn428 O431 2.031 . S
Zn428 O433 2.049 . S
Zn428 O438 2.067 . S
Zn429 O430 1.962 . S
Zn429 O432 1.986 . S
Zn429 O434 1.996 . S
Zn429 O437 1.943 . S
O430 Zn429 1.962 . S
O430 C435 1.254 . S
O431 Zn428 2.031 . S
O431 C435 1.269 . S
O432 Zn429 1.986 . S
O432 C439 1.262 . S
O433 Zn428 2.049 . S
O433 C441 1.260 . S
O434 Zn429 1.996 . S
O434 C441 1.257 . S
C435 O430 1.254 . S
C435 O431 1.269 . S
C436 O437 1.249 . S
C436 O438 1.270 . S
O437 Zn429 1.943 . S
O437 C436 1.249 . S
O438 Zn428 2.067 . S
O438 C436 1.270 . S
C439 O432 1.262 . S
C439 O440 1.232 . S
O440 C439 1.232 . S
C441 O433 1.260 . S
C441 O434 1.257 . S
Zn442 O445 2.031 . S
Zn442 O447 2.049 . S
Zn442 O452 2.067 . S
Zn443 O444 1.962 . S
Zn443 O446 1.986 . S
Zn443 O448 1.996 . S
Zn443 O451 1.943 . S
O444 Zn443 1.962 . S
O444 C449 1.254 . S
O445 Zn442 2.031 . S
O445 C449 1.269 . S
O446 Zn443 1.986 . S
O446 C453 1.262 . S
O447 Zn442 2.049 . S
O447 C455 1.260 . S
O448 Zn443 1.996 . S
O448 C455 1.257 . S
C449 O444 1.254 . S
C449 O445 1.269 . S
C450 O451 1.249 . S
C450 O452 1.270 . S
O451 Zn443 1.943 . S
O451 C450 1.249 . S
O452 Zn442 2.067 . S
O452 C450 1.270 . S
C453 O446 1.262 . S
C453 O454 1.232 . S
O454 C453 1.232 . S
C455 O447 1.260 . S
C455 O448 1.257 . S
C456 C457 1.387 . S
C456 H460 0.950 . S
C456 C465 1.390 . S
C457 C456 1.387 . S
C457 C459 1.387 . S
H458 C465 0.950 . S
C459 C457 1.387 . S
C459 C461 1.390 . S
C459 H463 0.950 . S
H460 C456 0.950 . S
C461 C459 1.390 . S
C461 C462 1.387 . S
C461 H464 0.950 . S
C462 C461 1.387 . S
C462 C465 1.387 . S
H463 C459 0.950 . S
H464 C461 0.950 . S
C465 C456 1.390 . S
C465 H458 0.950 . S
C465 C462 1.387 . S
C466 C467 1.387 . S
C466 H470 0.950 . S
C466 C475 1.390 . S
C467 C466 1.387 . S
C467 C469 1.387 . S
H468 C475 0.950 . S
C469 C467 1.387 . S
C469 C471 1.390 . S
C469 H473 0.950 . S
H470 C466 0.950 . S
C471 C469 1.390 . S
C471 C472 1.387 . S
C471 H474 0.950 . S
C472 C471 1.387 . S
C472 C475 1.387 . S
H473 C469 0.950 . S
H474 C471 0.950 . S
C475 C466 1.390 . S
C475 H468 0.950 . S
C475 C472 1.387 . S
C476 C477 1.387 . S
C476 H480 0.950 . S
C476 C485 1.390 . S
C477 C476 1.387 . S
C477 C479 1.387 . S
H478 C485 0.950 . S
C479 C477 1.387 . S
C479 C481 1.390 . S
C479 H483 0.950 . S
H480 C476 0.950 . S
C481 C479 1.390 . S
C481 C482 1.387 . S
C481 H484 0.950 . S
C482 C481 1.387 . S
C482 C485 1.387 . S
H483 C479 0.950 . S
H484 C481 0.950 . S
C485 C476 1.390 . S
C485 H478 0.950 . S
C485 C482 1.387 . S
C486 C487 1.387 . S
C486 H490 0.950 . S
C486 C495 1.390 . S
C487 C486 1.387 . S
C487 C489 1.387 . S
H488 C495 0.950 . S
C489 C487 1.387 . S
C489 C491 1.390 . S
C489 H493 0.950 . S
H490 C486 0.950 . S
C491 C489 1.390 . S
C491 C492 1.387 . S
C491 H494 0.950 . S
C492 C491 1.387 . S
C492 C495 1.387 . S
H493 C489 0.950 . S
H494 C491 0.950 . S
C495 C486 1.390 . S
C495 H488 0.950 . S
C495 C492 1.387 . S
C496 C497 1.387 . S
C496 H500 0.950 . S
C496 C505 1.390 . S
C497 C496 1.387 . S
C497 C499 1.387 . S
H498 C505 0.950 . S
C499 C497 1.387 . S
C499 C501 1.390 . S
C499 H503 0.950 . S
H500 C496 0.950 . S
C501 C499 1.390 . S
C501 C502 1.387 . S
C501 H504 0.950 . S
C502 C501 1.387 . S
C502 C505 1.387 . S
H503 C499 0.950 . S
H504 C501 0.950 . S
C505 C496 1.390 . S
C505 H498 0.950 . S
C505 C502 1.387 . S
C506 C507 1.387 . S
C506 H510 0.950 . S
C506 C515 1.390 . S
C507 C506 1.387 . S
C507 C509 1.387 . S
H508 C515 0.950 . S
C509 C507 1.387 . S
C509 C511 1.390 . S
C509 H513 0.950 . S
H510 C506 0.950 . S
C511 C509 1.390 . S
C511 C512 1.387 . S
C511 H514 0.950 . S
C512 C511 1.387 . S
C512 C515 1.387 . S
H513 C509 0.950 . S
H514 C511 0.950 . S
C515 C506 1.390 . S
C515 H508 0.950 . S
C515 C512 1.387 . S
C516 C517 1.387 . S
C516 H520 0.950 . S
C516 C525 1.390 . S
C517 C516 1.387 . S
C517 C519 1.387 . S
H518 C525 0.950 . S
C519 C517 1.387 . S
C519 C521 1.390 . S
C519 H523 0.950 . S
H520 C516 0.950 . S
C521 C519 1.390 . S
C521 C522 1.387 . S
C521 H524 0.950 . S
C522 C521 1.387 . S
C522 C525 1.387 . S
H523 C519 0.950 . S
H524 C521 0.950 . S
C525 C516 1.390 . S
C525 H518 0.950 . S
C525 C522 1.387 . S
C526 C527 1.387 . S
C526 H530 0.950 . S
C526 C535 1.390 . S
C527 C526 1.387 . S
C527 C529 1.387 . S
H528 C535 0.950 . S
C529 C527 1.387 . S
C529 C531 1.390 . S
C529 H533 0.950 . S
H530 C526 0.950 . S
C531 C529 1.390 . S
C531 C532 1.387 . S
C531 H534 0.950 . S
C532 C531 1.387 . S
C532 C535 1.387 . S
H533 C529 0.950 . S
H534 C531 0.950 . S
C535 C526 1.390 . S
C535 H528 0.950 . S
C535 C532 1.387 . S
C536 C537 1.387 . S
C536 H540 0.950 . S
C536 C545 1.390 . S
C537 C536 1.387 . S
C537 C539 1.387 . S
H538 C545 0.950 . S
C539 C537 1.387 . S
C539 C541 1.390 . S
C539 H543 0.950 . S
H540 C536 0.950 . S
C541 C539 1.390 . S
C541 C542 1.387 . S
C541 H544 0.950 . S
C542 C541 1.387 . S
C542 C545 1.387 . S
H543 C539 0.950 . S
H544 C541 0.950 . S
C545 C536 1.390 . S
C545 H538 0.950 . S
C545 C542 1.387 . S
C546 C547 1.387 . S
C546 H550 0.950 . S
C546 C555 1.390 . S
C547 C546 1.387 . S
C547 C549 1.387 . S
H548 C555 0.950 . S
C549 C547 1.387 . S
C549 C551 1.390 . S
C549 H553 0.950 . S
H550 C546 0.950 . S
C551 C549 1.390 . S
C551 C552 1.387 . S
C551 H554 0.950 . S
C552 C551 1.387 . S
C552 C555 1.387 . S
H553 C549 0.950 . S
H554 C551 0.950 . S
C555 C546 1.390 . S
C555 H548 0.950 . S
C555 C552 1.387 . S
C556 C557 1.387 . S
C556 H560 0.950 . S
C556 C565 1.390 . S
C557 C556 1.387 . S
C557 C559 1.387 . S
H558 C565 0.950 . S
C559 C557 1.387 . S
C559 C561 1.390 . S
C559 H563 0.950 . S
H560 C556 0.950 . S
C561 C559 1.390 . S
C561 C562 1.387 . S
C561 H564 0.950 . S
C562 C561 1.387 . S
C562 C565 1.387 . S
H563 C559 0.950 . S
H564 C561 0.950 . S
C565 C556 1.390 . S
C565 H558 0.950 . S
C565 C562 1.387 . S
C566 C567 1.387 . S
C566 H570 0.950 . S
C566 C575 1.390 . S
C567 C566 1.387 . S
C567 C569 1.387 . S
H568 C575 0.950 . S
C569 C567 1.387 . S
C569 C571 1.390 . S
C569 H573 0.950 . S
H570 C566 0.950 . S
C571 C569 1.390 . S
C571 C572 1.387 . S
C571 H574 0.950 . S
C572 C571 1.387 . S
C572 C575 1.387 . S
H573 C569 0.950 . S
H574 C571 0.950 . S
C575 C566 1.390 . S
C575 H568 0.950 . S
C575 C572 1.387 . S
C576 C577 1.387 . S
C576 H580 0.950 . S
C576 C585 1.390 . S
C577 C576 1.387 . S
C577 C579 1.387 . S
H578 C585 0.950 . S
C579 C577 1.387 . S
C579 C581 1.390 . S
C579 H583 0.950 . S
H580 C576 0.950 . S
C581 C579 1.390 . S
C581 C582 1.387 . S
C581 H584 0.950 . S
C582 C581 1.387 . S
C582 C585 1.387 . S
H583 C579 0.950 . S
H584 C581 0.950 . S
C585 C576 1.390 . S
C585 H578 0.950 . S
C585 C582 1.387 . S
C586 C587 1.387 . S
C586 H590 0.950 . S
C586 C595 1.390 . S
C587 C586 1.387 . S
C587 C589 1.387 . S
H588 C595 0.950 . S
C589 C587 1.387 . S
C589 C591 1.390 . S
C589 H593 0.950 . S
H590 C586 0.950 . S
C591 C589 1.390 . S
C591 C592 1.387 . S
C591 H594 0.950 . S
C592 C591 1.387 . S
C592 C595 1.387 . S
H593 C589 0.950 . S
H594 C591 0.950 . S
C595 C586 1.390 . S
C595 H588 0.950 . S
C595 C592 1.387 . S
C596 C597 1.387 . S
C596 H600 0.950 . S
C596 C605 1.390 . S
C597 C596 1.387 . S
C597 C599 1.387 . S
H598 C605 0.950 . S
C599 C597 1.387 . S
C599 C601 1.390 . S
C599 H603 0.950 . S
H600 C596 0.950 . S
C601 C599 1.390 . S
C601 C602 1.387 . S
C601 H604 0.950 . S
C602 C601 1.387 . S
C602 C605 1.387 . S
H603 C599 0.950 . S
H604 C601 0.950 . S
C605 C596 1.390 . S
C605 H598 0.950 . S
C605 C602 1.387 . S
C606 C607 1.387 . S
C606 H610 0.950 . S
C606 C615 1.390 . S
C607 C606 1.387 . S
C607 C609 1.387 . S
H608 C615 0.950 . S
C609 C607 1.387 . S
C609 C611 1.390 . S
C609 H613 0.950 . S
H610 C606 0.950 . S
C611 C609 1.390 . S
C611 C612 1.387 . S
C611 H614 0.950 1_556 S
C612 C611 1.387 . S
C612 C615 1.387 . S
H613 C609 0.950 . S
H614 C611 0.950 1_554 S
C615 C606 1.390 . S
C615 H608 0.950 . S
C615 C612 1.387 . S
C616 C617 1.387 . S
C616 H620 0.950 . S
C616 C625 1.390 . S
C617 C616 1.387 . S
C617 C619 1.387 . S
H618 C625 0.950 . S
C619 C617 1.387 . S
C619 C621 1.390 . S
C619 H623 0.950 . S
H620 C616 0.950 . S
C621 C619 1.390 . S
C621 C622 1.387 . S
C621 H624 0.950 . S
C622 C621 1.387 . S
C622 C625 1.387 . S
H623 C619 0.950 . S
H624 C621 0.950 . S
C625 C616 1.390 . S
C625 H618 0.950 . S
C625 C622 1.387 . S
C626 C627 1.387 . S
C626 H630 0.950 . S
C626 C635 1.390 . S
C627 C626 1.387 . S
C627 C629 1.387 . S
H628 C635 0.950 . S
C629 C627 1.387 . S
C629 C631 1.390 . S
C629 H633 0.950 . S
H630 C626 0.950 . S
C631 C629 1.390 . S
C631 C632 1.387 . S
C631 H634 0.950 . S
C632 C631 1.387 . S
C632 C635 1.387 . S
H633 C629 0.950 . S
H634 C631 0.950 . S
C635 C626 1.390 . S
C635 H628 0.950 . S
C635 C632 1.387 . S
C636 C637 1.387 . S
C636 H640 0.950 . S
C636 C645 1.390 . S
C637 C636 1.387 . S
C637 C639 1.387 . S
H638 C645 0.950 . S
C639 C637 1.387 . S
C639 C641 1.390 . S
C639 H643 0.950 . S
H640 C636 0.950 . S
C641 C639 1.390 . S
C641 C642 1.387 . S
C641 H644 0.950 . S
C642 C641 1.387 . S
C642 C645 1.387 . S
H643 C639 0.950 . S
H644 C641 0.950 . S
C645 C636 1.390 . S
C645 H638 0.950 . S
C645 C642 1.387 . S
C646 C647 1.387 . S
C646 H650 0.950 . S
C646 C655 1.390 . S
C647 C646 1.387 . S
C647 C649 1.387 . S
H648 C655 0.950 . S
C649 C647 1.387 . S
C649 C651 1.390 . S
C649 H653 0.950 . S
H650 C646 0.950 . S
C651 C649 1.390 . S
C651 C652 1.387 . S
C651 H654 0.950 . S
C652 C651 1.387 . S
C652 C655 1.387 . S
H653 C649 0.950 . S
H654 C651 0.950 . S
C655 C646 1.390 . S
C655 H648 0.950 . S
C655 C652 1.387 . S
C656 C657 1.387 . S
C656 H660 0.950 . S
C656 C665 1.390 . S
C657 C656 1.387 . S
C657 C659 1.387 . S
H658 C665 0.950 . S
C659 C657 1.387 . S
C659 C661 1.390 . S
C659 H663 0.950 . S
H660 C656 0.950 . S
C661 C659 1.390 . S
C661 C662 1.387 . S
C661 H664 0.950 . S
C662 C661 1.387 . S
C662 C665 1.387 . S
H663 C659 0.950 . S
H664 C661 0.950 . S
C665 C656 1.390 . S
C665 H658 0.950 . S
C665 C662 1.387 . S
C666 C667 1.387 . S
C666 H670 0.950 . S
C666 C675 1.390 . S
C667 C666 1.387 . S
C667 C669 1.387 . S
H668 C675 0.950 . S
C669 C667 1.387 . S
C669 C671 1.390 . S
C669 H673 0.950 . S
H670 C666 0.950 . S
C671 C669 1.390 . S
C671 C672 1.387 . S
C671 H674 0.950 . S
C672 C671 1.387 . S
C672 C675 1.387 . S
H673 C669 0.950 . S
H674 C671 0.950 . S
C675 C666 1.390 . S
C675 H668 0.950 . S
C675 C672 1.387 . S
C676 C677 1.387 . S
C676 H680 0.950 . S
C676 C685 1.370 1_554 S
C677 C676 1.387 . S
C677 C679 1.387 1_554 S
H678 C685 0.941 1_554 S
C679 C677 1.387 1_556 S
C679 C681 1.390 . S
C679 H683 0.950 . S
H680 C676 0.950 . S
C681 C679 1.390 . S
C681 C682 1.387 . S
C681 H684 0.950 . S
C682 C681 1.387 . S
C682 C685 1.417 . S
H683 C679 0.950 . S
H684 C681 0.950 . S
C685 C676 1.370 1_556 S
C685 H678 0.941 1_556 S
C685 C682 1.417 . S
C686 C687 1.387 . S
C686 H690 0.950 . S
C686 C695 1.390 . S
C687 C686 1.387 . S
C687 C689 1.387 . S
H688 C695 0.950 . S
C689 C687 1.387 . S
C689 C691 1.390 . S
C689 H693 0.950 . S
H690 C686 0.950 . S
C691 C689 1.390 . S
C691 C692 1.387 . S
C691 H694 0.950 . S
C692 C691 1.387 . S
C692 C695 1.387 . S
H693 C689 0.950 . S
H694 C691 0.950 . S
C695 C686 1.390 . S
C695 H688 0.950 . S
C695 C692 1.387 . S
C462 C449 1.654 . S
C457 C29 1.567 . S
C467 C115 1.487 . S
C472 C383 1.453 . S
C477 C153 1.430 . S
C482 C397 1.480 . S
C487 C239 1.511 . S
C492 C411 1.469 . S
C502 C425 1.586 . S
C497 C301 1.615 . S
C507 C339 1.764 . S
C512 C435 1.869 . S
C517 C91 1.561 . S
C522 C393 1.648 . S
C527 C177 1.654 . S
C532 C407 1.678 . S
C537 C215 1.611 . S
C542 C421 1.700 . S
C552 C439 1.842 . S
C547 C277 1.788 . S
C562 C453 1.539 . S
C557 C363 1.551 . S
C572 C379 1.562 . S
C567 C53 1.554 . S
C577 C35 1.586 . S
C582 C394 1.551 . S
C587 C109 1.451 . S
C592 C408 1.512 . S
C602 C422 1.520 . S
C597 C159 1.543 . S
C607 C233 1.572 . S
C612 C441 1.664 1_556 S
C622 C455 1.460 . S
C617 C295 1.361 . S
C632 C380 1.377 . S
C627 C345 1.405 . S
C642 C450 1.416 . S
C637 C97 1.440 . S
C647 C171 1.266 . S
C652 C385 1.346 . S
C662 C399 1.474 . S
C657 C221 1.466 . S
C667 C283 1.366 . S
C672 C413 1.347 . S
C677 C357 1.381 . S
C682 C427 1.506 . S
C687 C47 1.609 . S
C692 C436 1.664 . S
