# Generated by pormake.
# Topology eea, (3,6)-cn, num edge types: 1
# Building blocks:
#     Node 0, Type 0, BuildingBlock: BETDAH_clean_linker_0, # of connection points: 3
#     Node 1, Type 0, BuildingBlock: BETDAH_clean_linker_0, # of connection points: 3
#     Node 2, Type 0, BuildingBlock: BETDAH_clean_linker_0, # of connection points: 3
#     Node 3, Type 0, BuildingBlock: BETDAH_clean_linker_0, # of connection points: 3
#     Node 4, Type 0, BuildingBlock: BETDAH_clean_linker_0, # of connection points: 3
#     Node 5, Type 0, BuildingBlock: BETDAH_clean_linker_0, # of connection points: 3
#     Node 6, Type 0, BuildingBlock: BETDAH_clean_linker_0, # of connection points: 3
#     Node 7, Type 0, BuildingBlock: BETDAH_clean_linker_0, # of connection points: 3
#     Node 8, Type 0, BuildingBlock: BETDAH_clean_linker_0, # of connection points: 3
#     Node 9, Type 0, BuildingBlock: BETDAH_clean_linker_0, # of connection points: 3
#     Node 10, Type 0, BuildingBlock: BETDAH_clean_linker_0, # of connection points: 3
#     Node 11, Type 0, BuildingBlock: BETDAH_clean_linker_0, # of connection points: 3
#     Node 12, Type 0, BuildingBlock: BETDAH_clean_linker_0, # of connection points: 3
#     Node 13, Type 0, BuildingBlock: BETDAH_clean_linker_0, # of connection points: 3
#     Node 14, Type 0, BuildingBlock: BETDAH_clean_linker_0, # of connection points: 3
#     Node 15, Type 0, BuildingBlock: BETDAH_clean_linker_0, # of connection points: 3
#     Node 16, Type 0, BuildingBlock: BETDAH_clean_linker_0, # of connection points: 3
#     Node 17, Type 0, BuildingBlock: BETDAH_clean_linker_0, # of connection points: 3
#     Node 18, Type 1, BuildingBlock: KUMJIN_clean_sbu_0, # of connection points: 6
#     Node 19, Type 1, BuildingBlock: KUMJIN_clean_sbu_0, # of connection points: 6
#     Node 20, Type 1, BuildingBlock: KUMJIN_clean_sbu_0, # of connection points: 6
#     Node 21, Type 1, BuildingBlock: KUMJIN_clean_sbu_0, # of connection points: 6
#     Node 22, Type 1, BuildingBlock: KUMJIN_clean_sbu_0, # of connection points: 6
#     Node 23, Type 1, BuildingBlock: KUMJIN_clean_sbu_0, # of connection points: 6
#     Node 24, Type 1, BuildingBlock: KUMJIN_clean_sbu_0, # of connection points: 6
#     Node 25, Type 1, BuildingBlock: KUMJIN_clean_sbu_0, # of connection points: 6
#     Node 26, Type 1, BuildingBlock: KUMJIN_clean_sbu_0, # of connection points: 6
#     Edge 27, Type (0, 1), BuildingBlock: AJUNOK_clean_linker_0, # of connection points: 2
#     Edge 28, Type (0, 1), BuildingBlock: AJUNOK_clean_linker_0, # of connection points: 2
#     Edge 29, Type (0, 1), BuildingBlock: AJUNOK_clean_linker_0, # of connection points: 2
#     Edge 30, Type (0, 1), BuildingBlock: AJUNOK_clean_linker_0, # of connection points: 2
#     Edge 31, Type (0, 1), BuildingBlock: AJUNOK_clean_linker_0, # of connection points: 2
#     Edge 32, Type (0, 1), BuildingBlock: AJUNOK_clean_linker_0, # of connection points: 2
#     Edge 33, Type (0, 1), BuildingBlock: AJUNOK_clean_linker_0, # of connection points: 2
#     Edge 34, Type (0, 1), BuildingBlock: AJUNOK_clean_linker_0, # of connection points: 2
#     Edge 35, Type (0, 1), BuildingBlock: AJUNOK_clean_linker_0, # of connection points: 2
#     Edge 36, Type (0, 1), BuildingBlock: AJUNOK_clean_linker_0, # of connection points: 2
#     Edge 37, Type (0, 1), BuildingBlock: AJUNOK_clean_linker_0, # of connection points: 2
#     Edge 38, Type (0, 1), BuildingBlock: AJUNOK_clean_linker_0, # of connection points: 2
#     Edge 39, Type (0, 1), BuildingBlock: AJUNOK_clean_linker_0, # of connection points: 2
#     Edge 40, Type (0, 1), BuildingBlock: AJUNOK_clean_linker_0, # of connection points: 2
#     Edge 41, Type (0, 1), BuildingBlock: AJUNOK_clean_linker_0, # of connection points: 2
#     Edge 42, Type (0, 1), BuildingBlock: AJUNOK_clean_linker_0, # of connection points: 2
#     Edge 43, Type (0, 1), BuildingBlock: AJUNOK_clean_linker_0, # of connection points: 2
#     Edge 44, Type (0, 1), BuildingBlock: AJUNOK_clean_linker_0, # of connection points: 2
#     Edge 45, Type (0, 1), BuildingBlock: AJUNOK_clean_linker_0, # of connection points: 2
#     Edge 46, Type (0, 1), BuildingBlock: AJUNOK_clean_linker_0, # of connection points: 2
#     Edge 47, Type (0, 1), BuildingBlock: AJUNOK_clean_linker_0, # of connection points: 2
#     Edge 48, Type (0, 1), BuildingBlock: AJUNOK_clean_linker_0, # of connection points: 2
#     Edge 49, Type (0, 1), BuildingBlock: AJUNOK_clean_linker_0, # of connection points: 2
#     Edge 50, Type (0, 1), BuildingBlock: AJUNOK_clean_linker_0, # of connection points: 2
#     Edge 51, Type (0, 1), BuildingBlock: AJUNOK_clean_linker_0, # of connection points: 2
#     Edge 52, Type (0, 1), BuildingBlock: AJUNOK_clean_linker_0, # of connection points: 2
#     Edge 53, Type (0, 1), BuildingBlock: AJUNOK_clean_linker_0, # of connection points: 2
#     Edge 54, Type (0, 1), BuildingBlock: AJUNOK_clean_linker_0, # of connection points: 2
#     Edge 55, Type (0, 1), BuildingBlock: AJUNOK_clean_linker_0, # of connection points: 2
#     Edge 56, Type (0, 1), BuildingBlock: AJUNOK_clean_linker_0, # of connection points: 2
#     Edge 57, Type (0, 1), BuildingBlock: AJUNOK_clean_linker_0, # of connection points: 2
#     Edge 58, Type (0, 1), BuildingBlock: AJUNOK_clean_linker_0, # of connection points: 2
#     Edge 59, Type (0, 1), BuildingBlock: AJUNOK_clean_linker_0, # of connection points: 2
#     Edge 60, Type (0, 1), BuildingBlock: AJUNOK_clean_linker_0, # of connection points: 2
#     Edge 61, Type (0, 1), BuildingBlock: AJUNOK_clean_linker_0, # of connection points: 2
#     Edge 62, Type (0, 1), BuildingBlock: AJUNOK_clean_linker_0, # of connection points: 2
#     Edge 63, Type (0, 1), BuildingBlock: AJUNOK_clean_linker_0, # of connection points: 2
#     Edge 64, Type (0, 1), BuildingBlock: AJUNOK_clean_linker_0, # of connection points: 2
#     Edge 65, Type (0, 1), BuildingBlock: AJUNOK_clean_linker_0, # of connection points: 2
#     Edge 66, Type (0, 1), BuildingBlock: AJUNOK_clean_linker_0, # of connection points: 2
#     Edge 67, Type (0, 1), BuildingBlock: AJUNOK_clean_linker_0, # of connection points: 2
#     Edge 68, Type (0, 1), BuildingBlock: AJUNOK_clean_linker_0, # of connection points: 2
#     Edge 69, Type (0, 1), BuildingBlock: AJUNOK_clean_linker_0, # of connection points: 2
#     Edge 70, Type (0, 1), BuildingBlock: AJUNOK_clean_linker_0, # of connection points: 2
#     Edge 71, Type (0, 1), BuildingBlock: AJUNOK_clean_linker_0, # of connection points: 2
#     Edge 72, Type (0, 1), BuildingBlock: AJUNOK_clean_linker_0, # of connection points: 2
#     Edge 73, Type (0, 1), BuildingBlock: AJUNOK_clean_linker_0, # of connection points: 2
#     Edge 74, Type (0, 1), BuildingBlock: AJUNOK_clean_linker_0, # of connection points: 2
#     Edge 75, Type (0, 1), BuildingBlock: AJUNOK_clean_linker_0, # of connection points: 2
#     Edge 76, Type (0, 1), BuildingBlock: AJUNOK_clean_linker_0, # of connection points: 2
#     Edge 77, Type (0, 1), BuildingBlock: AJUNOK_clean_linker_0, # of connection points: 2
#     Edge 78, Type (0, 1), BuildingBlock: AJUNOK_clean_linker_0, # of connection points: 2
#     Edge 79, Type (0, 1), BuildingBlock: AJUNOK_clean_linker_0, # of connection points: 2
#     Edge 80, Type (0, 1), BuildingBlock: AJUNOK_clean_linker_0, # of connection points: 2
# Relax obj value: 0.024
# Max RMSD: 0.183
# Mean RMSD: 0.130
data_MOF--net-eea--node1-KUMJIN_clean_sbu_0--node2-BETDAH_clean_linker_0--edge1-AJUNOK_clean_linker_0
_symmetry_space_group_name_H-M    P1
_symmetry_Int_Tables_number       1
_symmetry_cell_setting            triclinic
loop_
_symmetry_equiv_pos_as_xyz
'x, y, z'
_cell_length_a     39.728022
_cell_length_b     41.014628
_cell_length_c     51.928871
_cell_angle_alpha  89.85092
_cell_angle_beta   89.976438
_cell_angle_gamma 119.85204
loop_
_atom_site_label
_atom_site_type_symbol
_atom_site_fract_x
_atom_site_fract_y
_atom_site_fract_z
_atom_type_partial_charge
H0 H 0.26966 0.06302 0.44266 0.0
H1 H 0.29101 0.17539 0.42892 0.0
H2 H 0.24288 0.09295 0.36915 0.0
C3 C 0.267 0.08306 0.43045 0.0
C4 C 0.25247 0.0726 0.4053 0.0
C5 C 0.28035 0.11986 0.43945 0.0
C6 C 0.27975 0.14662 0.42268 0.0
C7 C 0.26665 0.13675 0.39728 0.0
C8 C 0.25297 0.09999 0.38882 0.0
N9 N 0.27149 0.16424 0.3789 0.0
C10 C 0.25521 0.18716 0.38123 0.0
H11 H 0.96684 0.20278 0.43845 0.0
H12 H 0.8743 0.08736 0.43757 0.0
H13 H 0.95484 0.132 0.37429 0.0
C14 C 0.95116 0.17586 0.42882 0.0
C15 C 0.96445 0.17127 0.40477 0.0
C16 C 0.91893 0.1458 0.44106 0.0
C17 C 0.89924 0.11071 0.42851 0.0
C18 C 0.91241 0.10581 0.40438 0.0
C19 C 0.94503 0.136 0.39288 0.0
N20 N 0.89496 0.07077 0.39136 0.0
C21 C 0.85707 0.04138 0.39446 0.0
H22 H 0.81118 0.75825 0.44157 0.0
H23 H 0.92727 0.77655 0.43146 0.0
H24 H 0.87721 0.81591 0.37433 0.0
C25 C 0.83782 0.76957 0.43049 0.0
C26 C 0.84053 0.78802 0.40705 0.0
C27 C 0.86878 0.76516 0.43969 0.0
C28 C 0.9031 0.77941 0.42468 0.0
C29 C 0.90619 0.79779 0.401 0.0
C30 C 0.87493 0.80212 0.39261 0.0
N31 N 0.93968 0.81236 0.38475 0.0
C32 C 0.97345 0.81012 0.388 0.0
H33 H 0.0607 0.25698 0.60368 0.0
H34 H 0.15948 0.24033 0.61187 0.0
H35 H 0.07474 0.20664 0.67245 0.0
C36 C 0.07686 0.24678 0.61457 0.0
C37 C 0.06283 0.23049 0.63899 0.0
C38 C 0.11143 0.25008 0.60418 0.0
C39 C 0.13286 0.23789 0.61933 0.0
C40 C 0.1197 0.22232 0.64406 0.0
C41 C 0.08471 0.21858 0.65344 0.0
N42 N 0.14017 0.20996 0.66042 0.0
C43 C 0.17532 0.2107 0.65591 0.0
H44 H 0.73992 0.80104 0.60321 0.0
H45 H 0.73365 0.90132 0.61846 0.0
H46 H 0.77914 0.85856 0.6756 0.0
C47 C 0.74571 0.8245 0.61557 0.0
C48 C 0.76283 0.82752 0.63987 0.0
C49 C 0.73447 0.85064 0.60757 0.0
C50 C 0.74118 0.88039 0.62426 0.0
C51 C 0.7561 0.88225 0.64904 0.0
C52 C 0.76686 0.85605 0.65659 0.0
N53 N 0.75793 0.90826 0.66765 0.0
C54 C 0.76866 0.94542 0.66254 0.0
H55 H 0.2012 0.95106 0.60293 0.0
H56 H 0.08914 0.85082 0.61104 0.0
H57 H 0.12716 0.9398 0.66656 0.0
C58 C 0.17402 0.93495 0.6132 0.0
C59 C 0.16767 0.94978 0.63587 0.0
C60 C 0.14592 0.89943 0.60373 0.0
C61 C 0.1108 0.87841 0.61767 0.0
C62 C 0.10428 0.89317 0.64051 0.0
C63 C 0.13267 0.9286 0.64917 0.0
N64 N 0.06992 0.87422 0.65567 0.0
C65 C 0.03895 0.83781 0.65287 0.0
H66 H 0.9277 0.38893 0.7746 0.0
H67 H 0.94414 0.50016 0.76312 0.0
H68 H 0.89771 0.41901 0.70233 0.0
C69 C 0.92504 0.40923 0.76264 0.0
C70 C 0.9111 0.39938 0.73737 0.0
C71 C 0.93711 0.44547 0.77231 0.0
C72 C 0.93363 0.47169 0.75649 0.0
C73 C 0.91947 0.46192 0.73119 0.0
C74 C 0.90849 0.42604 0.72186 0.0
N75 N 0.92016 0.48867 0.71356 0.0
C76 C 0.90639 0.51317 0.71869 0.0
H77 H 0.62519 0.54612 0.77158 0.0
H78 H 0.53575 0.42963 0.76831 0.0
H79 H 0.62595 0.47518 0.71105 0.0
C80 C 0.61176 0.51914 0.76197 0.0
C81 C 0.62904 0.51482 0.73949 0.0
C82 C 0.57789 0.48872 0.77252 0.0
C83 C 0.5617 0.45331 0.76045 0.0
C84 C 0.57932 0.44849 0.73835 0.0
C85 C 0.61288 0.47915 0.72823 0.0
N86 N 0.56504 0.4132 0.72601 0.0
C87 C 0.52725 0.38312 0.72735 0.0
H88 H 0.48385 0.10359 0.7781 0.0
H89 H 0.59797 0.11885 0.76409 0.0
H90 H 0.5422 0.15098 0.70641 0.0
C91 C 0.50883 0.11242 0.76565 0.0
C92 C 0.5088 0.12708 0.74106 0.0
C93 C 0.54107 0.10989 0.77454 0.0
C94 C 0.57348 0.12165 0.75797 0.0
C95 C 0.5741 0.13672 0.7334 0.0
C96 C 0.54185 0.13964 0.72536 0.0
N97 N 0.60621 0.14934 0.71605 0.0
C98 C 0.63979 0.14669 0.7191 0.0
H99 H 0.72659 0.58765 0.93644 0.0
H100 H 0.82599 0.5729 0.94738 0.0
H101 H 0.73807 0.53749 1.00612 0.0
C102 C 0.74241 0.57757 0.94782 0.0
C103 C 0.72761 0.56144 0.97217 0.0
C104 C 0.77762 0.58147 0.9383 0.0
C105 C 0.7987 0.56969 0.95412 0.0
C106 C 0.78453 0.55391 0.97867 0.0
C107 C 0.74884 0.54948 0.98722 0.0
N108 N 0.8052 0.54287 0.99585 0.0
C109 C 0.84005 0.54302 0.99148 0.0
H110 H 0.42115 0.13978 0.93381 0.0
H111 H 0.41971 0.24269 0.94777 0.0
H112 H 0.46485 0.19897 1.00507 0.0
C113 C 0.4276 0.16354 0.94607 0.0
C114 C 0.44469 0.16643 0.97026 0.0
C115 C 0.41818 0.19076 0.93778 0.0
C116 C 0.4275 0.22195 0.95368 0.0
C117 C 0.44436 0.22476 0.97801 0.0
C118 C 0.45275 0.19704 0.98605 0.0
N119 N 0.45051 0.2532 0.99592 0.0
C120 C 0.45706 0.28887 0.98981 0.0
H121 H 0.85872 0.2769 0.93688 0.0
H122 H 0.75896 0.16691 0.94874 0.0
H123 H 0.80049 0.24694 1.01019 0.0
C124 C 0.83568 0.25685 0.94926 0.0
C125 C 0.83238 0.26736 0.97449 0.0
C126 C 0.81007 0.22049 0.9398 0.0
C127 C 0.77873 0.19506 0.9555 0.0
C128 C 0.77487 0.20536 0.98078 0.0
C129 C 0.80246 0.24067 0.99019 0.0
N130 N 0.74558 0.18066 0.99828 0.0
C131 C 0.70983 0.14951 0.99234 0.0
H132 H 0.58784 0.71942 0.11045 0.0
H133 H 0.61809 0.83467 0.09766 0.0
H134 H 0.57189 0.75525 0.03582 0.0
C135 C 0.58912 0.74118 0.09789 0.0
C136 C 0.57758 0.73266 0.07206 0.0
C137 C 0.6048 0.77807 0.10723 0.0
C138 C 0.60515 0.80587 0.09107 0.0
C139 C 0.59242 0.79725 0.06544 0.0
C140 C 0.57924 0.76093 0.05604 0.0
N141 N 0.59918 0.82592 0.04754 0.0
C142 C 0.58306 0.84905 0.04941 0.0
H143 H 0.28806 0.86942 0.10771 0.0
H144 H 0.19039 0.75757 0.09794 0.0
H145 H 0.27649 0.80824 0.0383 0.0
C146 C 0.2725 0.84385 0.09659 0.0
C147 C 0.28686 0.842 0.0722 0.0
C148 C 0.23794 0.81339 0.10641 0.0
C149 C 0.2173 0.781 0.09097 0.0
C150 C 0.23122 0.7793 0.06631 0.0
C151 C 0.26604 0.80962 0.05734 0.0
N152 N 0.21074 0.7486 0.04924 0.0
C153 C 0.17908 0.71354 0.05504 0.0
H154 H 0.13986 0.41916 0.10434 0.0
H155 H 0.25471 0.4354 0.09254 0.0
H156 H 0.20157 0.47026 0.0344 0.0
C157 C 0.16575 0.42935 0.09259 0.0
C158 C 0.16676 0.44509 0.06833 0.0
C159 C 0.19733 0.42606 0.10177 0.0
C160 C 0.2305 0.43832 0.0859 0.0
C161 C 0.23225 0.45456 0.06153 0.0
C162 C 0.2004 0.45807 0.05316 0.0
N163 N 0.26479 0.46741 0.04451 0.0
C164 C 0.29964 0.46727 0.04836 0.0
H165 H 0.3954 0.92189 0.27042 0.0
H166 H 0.48938 0.89827 0.27922 0.0
H167 H 0.4026 0.86549 0.33829 0.0
C168 C 0.4101 0.91024 0.28142 0.0
C169 C 0.39451 0.89313 0.30547 0.0
C170 C 0.44461 0.91278 0.27158 0.0
C171 C 0.46349 0.89757 0.28649 0.0
C172 C 0.44855 0.88082 0.31068 0.0
C173 C 0.41396 0.87835 0.31968 0.0
N174 N 0.46692 0.86603 0.32684 0.0
C175 C 0.50277 0.86789 0.32327 0.0
H176 H 0.08182 0.47454 0.26779 0.0
H177 H 0.10306 0.58758 0.27911 0.0
H178 H 0.14365 0.53752 0.3345 0.0
C179 C 0.09422 0.50029 0.27886 0.0
C180 C 0.114 0.50266 0.30186 0.0
C181 C 0.08954 0.53057 0.27042 0.0
C182 C 0.10527 0.56358 0.2855 0.0
C183 C 0.1241 0.56553 0.30888 0.0
C184 C 0.1283 0.53523 0.31673 0.0
N185 N 0.13931 0.59709 0.32544 0.0
C186 C 0.14077 0.63111 0.32086 0.0
H187 H 0.52937 0.61389 0.26478 0.0
H188 H 0.42415 0.50856 0.27797 0.0
H189 H 0.47301 0.58994 0.33862 0.0
C190 C 0.50581 0.59532 0.27737 0.0
C191 C 0.50481 0.60665 0.30278 0.0
C192 C 0.47718 0.5599 0.26814 0.0
C193 C 0.44625 0.53592 0.28468 0.0
C194 C 0.44459 0.5473 0.31006 0.0
C195 C 0.47408 0.58214 0.31884 0.0
N196 N 0.41501 0.52455 0.32806 0.0
C197 C 0.37948 0.49259 0.32303 0.0
Eu198 Eu 0.4786 0.97621 0.98672 0.0
C199 C 0.5622 0.10407 0.06654 0.0
C200 C 0.62918 0.11853 0.06569 0.0
C201 C 0.61396 0.16776 0.07521 0.0
C202 C 0.58923 0.09268 0.0628 0.0
C203 C 0.57417 0.14154 0.07336 0.0
C204 C 0.64142 0.15628 0.07137 0.0
C205 C 0.5066 0.12362 0.07816 0.0
N206 N 0.52405 0.078 0.06485 0.0
C207 C 0.4962 0.08677 0.07152 0.0
C208 C 0.54576 0.15126 0.07878 0.0
Eu209 Eu 0.50847 0.01671 0.05217 0.0
N210 N 0.57642 0.056 0.05738 0.0
C211 C 0.60191 0.0428 0.05636 0.0
C212 C 0.65556 0.1055 0.06333 0.0
C213 C 0.6418 0.06737 0.05899 0.0
H214 H 0.46588 0.06546 0.07094 0.0
H215 H 0.66191 0.05688 0.05748 0.0
H216 H 0.672 0.17661 0.07339 0.0
H217 H 0.48443 0.13067 0.08281 0.0
H218 H 0.59193 0.01351 0.05284 0.0
H219 H 0.32185 0.92535 0.98972 0.0
H220 H 0.68648 0.12448 0.06529 0.0
H221 H 0.5198 0.93303 0.95553 0.0
H222 H 0.3909 0.9727 0.98745 0.0
H223 H 0.50418 0.86835 0.94454 0.0
H224 H 0.62375 0.19676 0.08019 0.0
H225 H 0.30155 0.85778 0.98778 0.0
H226 H 0.31999 0.80827 0.98029 0.0
H227 H 0.55377 0.17975 0.08406 0.0
H228 H 0.36999 0.79258 0.96783 0.0
N229 N 0.41051 0.93321 0.98582 0.0
C230 C 0.38289 0.94371 0.9868 0.0
C231 C 0.33211 0.87865 0.98691 0.0
C232 C 0.36026 0.8681 0.98329 0.0
C233 C 0.34344 0.91672 0.98793 0.0
C234 C 0.39971 0.89644 0.98242 0.0
H235 H 0.43862 0.81491 0.95372 0.0
N236 N 0.4647 0.91598 0.97225 0.0
C237 C 0.48251 0.87326 0.95352 0.0
C238 C 0.42776 0.88754 0.97547 0.0
C239 C 0.49133 0.90979 0.9598 0.0
C240 C 0.44553 0.84317 0.95881 0.0
C241 C 0.41724 0.85021 0.96918 0.0
O242 O 0.49942 0.02408 0.95986 0.0
O243 O 0.52567 0.02016 1.01074 0.0
O244 O 0.50194 0.05783 0.02589 0.0
O245 O 0.45633 0.01641 0.99656 0.0
O246 O 0.54275 0.99569 0.98266 0.0
O247 O 0.46749 0.96833 0.94507 0.0
O248 O 0.47558 0.0037 0.08829 0.0
O249 O 0.46167 0.96994 0.02877 0.0
O250 O 0.50198 0.94202 1.00628 0.0
O251 O 0.52422 0.97084 0.04648 0.0
O252 O 0.44483 0.99768 0.05465 0.0
O253 O 0.52455 0.99489 0.08586 0.0
C254 C 0.55499 0.02106 1.0004 0.0
C255 C 0.51549 0.0145 0.91755 0.0
C256 C 0.54049 0.04374 0.87513 0.0
C257 C 0.51261 0.03292 0.89518 0.0
C258 C 0.57051 0.03524 0.87768 0.0
C259 C 0.54591 0.00653 0.91926 0.0
C260 C 0.57312 0.01682 0.89952 0.0
C261 C 0.4749 0.04959 1.00811 0.0
C262 C 0.48727 0.0038 0.93917 0.0
C263 C 0.37851 0.82151 0.97213 0.0
C264 C 0.35004 0.83045 0.97921 0.0
C265 C 0.43255 0.97006 0.03872 0.0
C266 C 0.50829 0.00775 0.12738 0.0
C267 C 0.49406 0.9832 0.14899 0.0
C268 C 0.5043 0.99739 0.17442 0.0
C269 C 0.52794 0.0365 0.1776 0.0
C270 C 0.53245 0.04636 0.13143 0.0
C271 C 0.542 0.06057 0.15635 0.0
C272 C 0.51883 0.94538 0.02889 0.0
C273 C 0.49729 0.99342 0.1007 0.0
H274 H 0.48925 0.03922 0.89353 0.0
H275 H 0.59189 0.04254 0.86254 0.0
H276 H 0.54874 0.9922 0.93581 0.0
H277 H 0.59637 0.01039 0.90113 0.0
H278 H 0.47544 0.95329 0.146 0.0
H279 H 0.53528 0.0487 0.19666 0.0
H280 H 0.54365 0.06561 0.1153 0.0
H281 H 0.56027 0.09052 0.15924 0.0
Eu282 Eu 0.02485 0.49718 0.99197 0.0
C283 C 0.88944 0.44239 0.0723 0.0
C284 C 0.86788 0.48796 0.06863 0.0
C285 C 0.82245 0.42403 0.08215 0.0
C286 C 0.89718 0.47826 0.06626 0.0
C287 C 0.85234 0.4152 0.08118 0.0
C288 C 0.83018 0.46034 0.0758 0.0
C289 C 0.87799 0.37371 0.08947 0.0
N290 N 0.91903 0.43492 0.07132 0.0
C291 C 0.91423 0.40158 0.08049 0.0
C292 C 0.84678 0.38039 0.08959 0.0
Eu293 Eu 0.97973 0.48342 0.05614 0.0
N294 N 0.93408 0.50439 0.05995 0.0
C295 C 0.94442 0.54143 0.05808 0.0
C296 C 0.87775 0.52546 0.06482 0.0
C297 C 0.91636 0.55244 0.06005 0.0
H298 H 0.93825 0.39625 0.08044 0.0
H299 H 0.92454 0.5817 0.05776 0.0
H300 H 0.80718 0.46715 0.07741 0.0
H301 H 0.87414 0.3471 0.09628 0.0
H302 H 0.97413 0.56256 0.0543 0.0
H303 H 0.07524 0.39506 0.98919 0.0
H304 H 0.85609 0.53406 0.06638 0.0
H305 H 0.07158 0.58734 0.97295 0.0
H306 H 0.02706 0.41596 0.992 0.0
H307 H 0.13834 0.63692 0.9619 0.0
H308 H 0.79359 0.40334 0.08853 0.0
H309 H 0.14471 0.44165 0.98297 0.0
H310 H 0.19613 0.50883 0.97534 0.0
H311 H 0.81874 0.35879 0.0966 0.0
H312 H 0.2133 0.5746 0.96775 0.0
N313 N 0.06868 0.47405 0.98793 0.0
C314 C 0.05714 0.43665 0.98908 0.0
C315 C 0.12362 0.45103 0.98411 0.0
C316 C 0.13498 0.4891 0.98149 0.0
C317 C 0.08444 0.42464 0.98754 0.0
C318 C 0.10641 0.49985 0.98334 0.0
H319 H 0.19184 0.62247 0.96223 0.0
N320 N 0.08756 0.54579 0.98008 0.0
C321 C 0.13252 0.60893 0.96683 0.0
C322 C 0.11617 0.53687 0.97927 0.0
C323 C 0.0948 0.58084 0.97302 0.0
C324 C 0.16265 0.60067 0.96709 0.0
C325 C 0.1546 0.56415 0.97298 0.0
O326 O 0.01096 0.5138 0.95524 0.0
O327 O 0.9756 0.49519 0.01438 0.0
O328 O 0.93824 0.43301 0.03215 0.0
O329 O 0.97913 0.43532 0.99893 0.0
O330 O 1.0025 0.5384 0.98801 0.0
O331 O 1.00695 0.45947 0.95872 0.0
O332 O 0.99839 0.4715 0.09289 0.0
O333 O 0.02789 0.48447 0.03332 0.0
O334 O 0.0672 0.54328 0.0182 0.0
O335 O 0.02446 0.54541 0.04784 0.0
O336 O 1.00273 0.44278 0.06062 0.0
O337 O 0.99913 0.52403 0.08773 0.0
C338 C 0.97434 0.52276 1.00429 0.0
C339 C 0.02353 0.48929 0.91783 0.0
C340 C 0.01942 0.48679 0.87075 0.0
C341 C 1.00129 0.48016 0.89511 0.0
C342 C 0.06002 0.50288 0.86962 0.0
C343 C 0.06385 0.50488 0.91608 0.0
C344 C 0.08197 0.51175 0.89212 0.0
C345 C 0.94621 0.41768 1.01227 0.0
C346 C 1.00473 0.48345 0.94323 0.0
C347 C 0.18349 0.55394 0.97221 0.0
C348 C 0.17371 0.51649 0.97652 0.0
C349 C 0.02974 0.45733 0.04347 0.0
C350 C 0.98829 0.49864 0.12992 0.0
C351 C 0.0129 0.50919 0.15154 0.0
C352 C 0.99756 0.50433 0.17671 0.0
C353 C 0.95712 0.48807 0.17973 0.0
C354 C 0.94827 0.48344 0.13352 0.0
C355 C 0.93282 0.47807 0.15829 0.0
C356 C 0.05908 0.56047 0.03664 0.0
C357 C 1.00437 0.50248 0.10378 0.0
H358 H 0.97002 0.46743 0.89644 0.0
H359 H 0.07487 0.50864 0.85125 0.0
H360 H 0.08137 0.51182 0.9332 0.0
H361 H 0.11316 0.52398 0.89098 0.0
H362 H 0.04389 0.52118 0.14875 0.0
H363 H 0.94408 0.48246 0.1987 0.0
H364 H 0.92894 0.47539 0.11722 0.0
H365 H 0.9018 0.46575 0.1609 0.0
Eu366 Eu 0.52863 0.50432 0.05084 0.0
C367 C 0.45239 0.56206 0.9714 0.0
C368 C 0.38428 0.51493 0.9725 0.0
C369 C 0.40355 0.57994 0.96287 0.0
C370 C 0.42367 0.52531 0.97537 0.0
C371 C 0.44275 0.58971 0.96456 0.0
C372 C 0.37435 0.54259 0.96683 0.0
C373 C 0.51123 0.6338 0.95951 0.0
N374 N 0.48987 0.57042 0.97299 0.0
C375 C 0.51927 0.60532 0.9662 0.0
C376 C 0.47281 0.62609 0.959 0.0
Eu377 Eu 0.50166 0.52169 0.98627 0.0
N378 N 0.43434 0.49935 0.98078 0.0
C379 C 0.40715 0.46202 0.98149 0.0
C380 C 0.35614 0.47694 0.97474 0.0
C381 C 0.3677 0.45031 0.97881 0.0
H382 H 0.54905 0.61146 0.96677 0.0
H383 H 0.34624 0.42075 0.98007 0.0
H384 H 0.34423 0.53523 0.96487 0.0
H385 H 0.53466 0.66165 0.95479 0.0
H386 H 0.41549 0.44107 0.98479 0.0
H387 H 0.68636 0.59196 0.05566 0.0
H388 H 0.32556 0.46781 0.97275 0.0
H389 H 0.47219 0.41372 0.0683 0.0
H390 H 0.61904 0.57831 0.05017 0.0
H391 H 0.47939 0.35965 0.0812 0.0
H392 H 0.39553 0.60084 0.95791 0.0
H393 H 0.69951 0.54031 0.0656 0.0
H394 H 0.67339 0.47188 0.07556 0.0
H395 H 0.46662 0.64815 0.95372 0.0
H396 H 0.61715 0.40885 0.08275 0.0
N397 N 0.59408 0.51978 0.05673 0.0
C398 C 0.62426 0.55572 0.05491 0.0
C399 C 0.66983 0.53426 0.06336 0.0
C400 C 0.63868 0.49769 0.06643 0.0
C401 C 0.66254 0.56349 0.05785 0.0
C402 C 0.60061 0.49132 0.06312 0.0
H403 H 0.54479 0.36685 0.0851 0.0
N404 N 0.53294 0.45123 0.06447 0.0
C405 C 0.50486 0.38659 0.0773 0.0
C406 C 0.56907 0.45598 0.06726 0.0
C407 C 0.50092 0.41737 0.07004 0.0
C408 C 0.54183 0.39075 0.07946 0.0
C409 C 0.57454 0.42584 0.07468 0.0
O410 O 0.49617 0.49198 0.08701 0.0
O411 O 0.48362 0.50892 0.02749 0.0
O412 O 0.51225 0.57065 1.01209 0.0
O413 O 0.55204 0.56674 0.0435 0.0
O414 O 0.46316 0.46546 0.05361 0.0
O415 O 0.55129 0.54326 0.08335 0.0
O416 O 0.53268 0.5386 0.94942 0.0
O417 O 0.54748 0.5188 1.00962 0.0
O418 O 0.52442 0.45913 0.02446 0.0
O419 O 0.48194 0.45934 0.9937 0.0
O420 O 0.56639 0.56198 0.98322 0.0
O421 O 0.4849 0.48209 0.95425 0.0
C422 C 0.45286 0.48207 0.03694 0.0
C423 C 0.53195 0.51698 0.12526 0.0
C424 C 0.523 0.51931 0.17191 0.0
C425 C 0.51413 0.52423 0.14631 0.0
C426 C 0.54967 0.50664 0.17587 0.0
C427 C 0.55836 0.5044 0.12985 0.0
C428 C 0.56708 0.49924 0.15503 0.0
C429 C 0.53734 0.58525 0.03132 0.0
C430 C 0.52237 0.52208 0.09862 0.0
C431 C 0.61236 0.43173 0.07726 0.0
C432 C 0.64437 0.46759 0.07313 0.0
C433 C 0.57769 0.54631 1.00001 0.0
C434 C 0.49709 0.50782 0.9121 0.0
C435 C 0.51661 0.50447 0.89043 0.0
C436 C 0.50416 0.50626 0.86526 0.0
C437 C 0.47146 0.51068 0.86223 0.0
C438 C 0.4649 0.5127 0.90849 0.0
C439 C 0.45213 0.51397 0.88368 0.0
C440 C 0.49971 0.44323 1.00534 0.0
C441 C 0.51059 0.50642 0.93833 0.0
H442 H 0.49317 0.53329 0.1427 0.0
H443 H 0.55758 0.50298 0.19518 0.0
H444 H 0.57224 0.49859 0.11399 0.0
H445 H 0.58761 0.48962 0.15843 0.0
H446 H 0.54169 0.50098 0.89316 0.0
H447 H 0.46057 0.51126 0.84322 0.0
H448 H 0.44956 0.51536 0.92485 0.0
H449 H 0.42707 0.51745 0.88106 0.0
Eu450 Eu 0.15218 0.31266 0.3181 0.0
C451 C 0.22733 0.44099 0.40006 0.0
C452 C 0.29555 0.46009 0.39807 0.0
C453 C 0.27595 0.50577 0.40916 0.0
C454 C 0.25618 0.43235 0.39532 0.0
C455 C 0.23681 0.47751 0.4078 0.0
C456 C 0.30529 0.49708 0.40428 0.0
C457 C 0.1685 0.45435 0.41503 0.0
N458 N 0.18991 0.41296 0.39886 0.0
C459 C 0.16064 0.41856 0.40742 0.0
C460 C 0.20672 0.48414 0.41481 0.0
Eu461 Eu 0.17835 0.35362 0.38426 0.0
N462 N 0.2457 0.39628 0.38954 0.0
C463 C 0.27306 0.38539 0.38852 0.0
C464 C 0.32385 0.44954 0.39534 0.0
C465 C 0.31248 0.41188 0.39104 0.0
H466 H 0.13104 0.39556 0.40749 0.0
H467 H 0.33408 0.40324 0.38948 0.0
H468 H 0.33538 0.51887 0.40613 0.0
H469 H 0.1451 0.45893 0.42106 0.0
H470 H 0.26489 0.3565 0.38503 0.0
H471 H 0.99736 0.26868 0.31947 0.0
H472 H 0.3544 0.47 0.39723 0.0
H473 H 0.19311 0.26755 0.29061 0.0
H474 H 0.06738 0.31366 0.32027 0.0
H475 H 0.17529 0.20278 0.2777 0.0
H476 H 0.28384 0.53413 0.41474 0.0
H477 H 0.97368 0.20086 0.31345 0.0
H478 H 0.98908 0.14958 0.304 0.0
H479 H 0.21278 0.5118 0.42086 0.0
H480 H 0.03771 0.13147 0.29258 0.0
N481 N 0.08387 0.27192 0.31528 0.0
C482 C 0.05777 0.28431 0.31739 0.0
C483 C 1.0046 0.22055 0.3137 0.0
C484 C 0.03141 0.2084 0.3097 0.0
C485 C 0.01785 0.25881 0.317 0.0
C486 C 0.07134 0.23521 0.31032 0.0
H487 H 0.10725 0.15129 0.28213 0.0
N488 N 0.13631 0.25213 0.30333 0.0
C489 C 0.15343 0.20852 0.28536 0.0
C490 C 0.09853 0.22495 0.30416 0.0
C491 C 0.16345 0.24505 0.29269 0.0
C492 C 0.11503 0.17954 0.28795 0.0
C493 C 0.08681 0.18772 0.29687 0.0
O494 O 0.18593 0.32991 0.28227 0.0
O495 O 0.19634 0.35868 0.34279 0.0
O496 O 0.16723 0.39382 0.36048 0.0
O497 O 0.13526 0.35748 0.32427 0.0
O498 O 0.217 0.33591 0.31562 0.0
O499 O 0.13332 0.33257 0.28488 0.0
O500 O 0.14354 0.33512 0.41972 0.0
O501 O 0.13475 0.30686 0.35976 0.0
O502 O 0.1685 0.27516 0.34031 0.0
O503 O 0.19822 0.31072 0.37737 0.0
O504 O 0.11374 0.33101 0.38538 0.0
O505 O 0.19677 0.33367 0.41775 0.0
C506 C 0.22693 0.36139 0.33308 0.0
C507 C 0.15282 0.32441 0.24325 0.0
C508 C 0.16011 0.33761 0.19671 0.0
C509 C 0.16845 0.35017 0.22252 0.0
C510 C 0.13614 0.29887 0.19221 0.0
C511 C 0.12885 0.28608 0.23808 0.0
C512 C 0.12069 0.27346 0.2127 0.0
C513 C 0.14716 0.38762 0.33889 0.0
C514 C 0.16211 0.33762 0.27014 0.0
C515 C 0.04727 0.16037 0.29773 0.0
C516 C 0.01959 0.17069 0.3042 0.0
C517 C 0.104 0.30426 0.36897 0.0
C518 C 0.17674 0.34247 0.45909 0.0
C519 C 0.16131 0.31785 0.48055 0.0
C520 C 0.16988 0.33198 0.5061 0.0
C521 C 0.19389 0.371 0.50947 0.0
C522 C 0.20075 0.38105 0.46335 0.0
C523 C 0.20915 0.39515 0.48834 0.0
C524 C 0.18911 0.28197 0.36171 0.0
C525 C 0.16764 0.3282 0.4323 0.0
H526 H 0.1873 0.37978 0.22652 0.0
H527 H 0.12874 0.28823 0.17275 0.0
H528 H 0.11646 0.26592 0.25365 0.0
H529 H 0.10211 0.2438 0.20888 0.0
H530 H 0.14323 0.28794 0.47733 0.0
H531 H 0.20067 0.38305 0.52859 0.0
H532 H 0.21301 0.40035 0.44733 0.0
H533 H 0.22756 0.42505 0.49137 0.0
Eu534 Eu 0.69689 0.83608 0.32495 0.0
C535 C 0.55611 0.77278 0.39882 0.0
C536 C 0.53475 0.81871 0.39719 0.0
C537 C 0.48779 0.7528 0.40457 0.0
C538 C 0.5645 0.80954 0.39543 0.0
C539 C 0.51783 0.74415 0.40412 0.0
C540 C 0.49623 0.79002 0.40109 0.0
C541 C 0.54241 0.70142 0.41079 0.0
N542 N 0.58583 0.76544 0.39857 0.0
C543 C 0.57991 0.73082 0.40562 0.0
C544 C 0.51113 0.70796 0.40966 0.0
Eu545 Eu 0.64807 0.81621 0.38825 0.0
N546 N 0.60202 0.8366 0.39175 0.0
C547 C 0.6122 0.87368 0.39168 0.0
C548 C 0.54475 0.85654 0.39568 0.0
C549 C 0.58373 0.88418 0.39338 0.0
H550 H 0.60407 0.72568 0.40636 0.0
H551 H 0.59185 0.91358 0.39267 0.0
H552 H 0.47293 0.79647 0.40215 0.0
H553 H 0.53765 0.67376 0.41564 0.0
H554 H 0.64216 0.89531 0.38964 0.0
H555 H 0.76252 0.74624 0.3264 0.0
H556 H 0.52275 0.86475 0.39688 0.0
H557 H 0.7351 0.92326 0.3009 0.0
H558 H 0.7093 0.76055 0.3272 0.0
H559 H 0.79954 0.97686 0.28965 0.0
H560 H 0.45811 0.73111 0.40829 0.0
H561 H 0.83036 0.79762 0.32115 0.0
H562 H 0.8767 0.86618 0.31286 0.0
H563 H 0.48212 0.68519 0.4138 0.0
H564 H 0.88686 0.92919 0.30288 0.0
N565 N 0.74624 0.8195 0.32279 0.0
C566 C 0.73855 0.7832 0.32452 0.0
C567 C 0.807 0.80404 0.32133 0.0
C568 C 0.81447 0.84088 0.31784 0.0
C569 C 0.76876 0.77497 0.3242 0.0
C570 C 0.783 0.8477 0.31842 0.0
H571 H 0.85815 0.97059 0.29369 0.0
N572 N 0.75733 0.88772 0.31207 0.0
C573 C 0.79697 0.9507 0.29634 0.0
C574 C 0.78877 0.88305 0.31296 0.0
C575 C 0.76056 0.92032 0.30268 0.0
C576 C 0.82999 0.94709 0.29873 0.0
C577 C 0.82607 0.9127 0.3066 0.0
O578 O 0.67851 0.84809 0.28815 0.0
O579 O 0.64563 0.83011 0.34692 0.0
O580 O 0.61005 0.76844 0.36139 0.0
O581 O 0.65547 0.77305 0.33117 0.0
O582 O 0.67005 0.87358 0.32067 0.0
O583 O 0.68328 0.79821 0.2921 0.0
O584 O 0.66218 0.79876 0.42453 0.0
O585 O 0.70009 0.82329 0.36666 0.0
O586 O 0.73379 0.88684 0.34934 0.0
O587 O 0.69312 0.879 0.38441 0.0
O588 O 0.67371 0.77789 0.39147 0.0
O589 O 0.66125 0.85094 0.42285 0.0
C590 C 0.64226 0.85665 0.33707 0.0
C591 C 0.69538 0.82679 0.25098 0.0
C592 C 0.69054 0.82301 0.20405 0.0
C593 C 0.67268 0.81564 0.22846 0.0
C594 C 0.73131 0.84261 0.20252 0.0
C595 C 0.73595 0.84561 0.24896 0.0
C596 C 0.75377 0.8537 0.22484 0.0
C597 C 0.62093 0.75429 0.34236 0.0
C598 C 0.67663 0.81925 0.27643 0.0
C599 C 0.85788 0.90664 0.30738 0.0
C600 C 0.85209 0.87077 0.31303 0.0
C601 C 0.70294 0.79631 0.3763 0.0
C602 C 0.64613 0.81855 0.46283 0.0
C603 C 0.66837 0.82992 0.48558 0.0
C604 C 0.65016 0.81966 0.50995 0.0
C605 C 0.60944 0.79719 0.51099 0.0
C606 C 0.6056 0.7973 0.46452 0.0
C607 C 0.58742 0.78656 0.48847 0.0
C608 C 0.72485 0.89912 0.37032 0.0
C609 C 0.66549 0.82735 0.43752 0.0
H610 H 0.64129 0.80072 0.22995 0.0
H611 H 0.74582 0.84932 0.184 0.0
H612 H 0.75386 0.85409 0.26598 0.0
H613 H 0.78512 0.86851 0.22344 0.0
H614 H 0.69971 0.84665 0.48426 0.0
H615 H 0.59449 0.78728 0.52922 0.0
H616 H 0.58801 0.78851 0.44738 0.0
H617 H 0.55614 0.76951 0.48957 0.0
Eu618 Eu 0.19873 0.8422 0.38767 0.0
C619 C 0.12631 0.90185 0.30651 0.0
C620 C 0.05759 0.85708 0.30923 0.0
C621 C 0.07937 0.92204 0.29762 0.0
C622 C 0.0966 0.86595 0.31167 0.0
C623 C 0.1181 0.93014 0.29878 0.0
C624 C 0.04914 0.88554 0.30285 0.0
C625 C 0.18675 0.97112 0.29149 0.0
N626 N 0.16328 0.90851 0.30752 0.0
C627 C 0.19334 0.94203 0.29909 0.0
C628 C 0.14901 0.96533 0.29168 0.0
Eu629 Eu 0.17271 0.85897 0.32251 0.0
N630 N 0.10586 0.83918 0.31766 0.0
C631 C 0.07755 0.80232 0.31925 0.0
C632 C 0.02833 0.81967 0.31249 0.0
C633 C 0.0384 0.79207 0.31705 0.0
H634 H 0.2226 0.94671 0.299 0.0
H635 H 0.01605 0.76293 0.31909 0.0
H636 H 0.01935 0.87938 0.30121 0.0
H637 H 0.21077 0.99795 0.28549 0.0
H638 H 0.08488 0.7808 0.3231 0.0
H639 H 0.35438 0.94278 0.39166 0.0
H640 H 0.998 0.81169 0.31085 0.0
H641 H 0.15094 0.75207 0.4064 0.0
H642 H 0.285 0.9229 0.38821 0.0
H643 H 0.16545 0.70176 0.41803 0.0
H644 H 0.07246 0.9435 0.29202 0.0
H645 H 0.37477 0.89547 0.39877 0.0
H646 H 0.3559 0.82807 0.40697 0.0
H647 H 0.14393 0.98783 0.28565 0.0
H648 H 0.30458 0.76258 0.4143 0.0
N649 N 0.26597 0.86464 0.3927 0.0
C650 C 0.29331 0.90189 0.39145 0.0
C651 C 0.34417 0.88652 0.3973 0.0
C652 C 0.3159 0.84862 0.39999 0.0
C653 C 0.33278 0.91332 0.39337 0.0
C654 C 0.27649 0.83845 0.39773 0.0
H655 H 0.23352 0.71532 0.41881 0.0
N656 N 0.21009 0.79309 0.40024 0.0
C657 C 0.18883 0.72967 0.41337 0.0
C658 C 0.24768 0.80157 0.4017 0.0
C659 C 0.1807 0.75815 0.40688 0.0
C660 C 0.2273 0.73742 0.41374 0.0
C661 C 0.25734 0.77385 0.40822 0.0
O662 O 0.1641 0.8253 0.423 0.0
O663 O 0.15411 0.84646 0.36384 0.0
O664 O 0.1846 0.90979 0.34627 0.0
O665 O 0.21717 0.90384 0.3821 0.0
O666 O 0.13359 0.80193 0.38932 0.0
O667 O 0.2184 0.87766 0.42221 0.0
O668 O 0.20585 0.87155 0.28659 0.0
O669 O 0.218 0.85615 0.34654 0.0
O670 O 0.19418 0.79656 0.36152 0.0
O671 O 0.15241 0.79666 0.33018 0.0
O672 O 0.23737 0.89938 0.32021 0.0
O673 O 0.15181 0.81951 0.2902 0.0
C674 C 0.12339 0.8192 0.37304 0.0
C675 C 0.19651 0.8467 0.46273 0.0
C676 C 0.18904 0.84921 0.50961 0.0
C677 C 0.18315 0.85818 0.48425 0.0
C678 C 0.20832 0.82849 0.51281 0.0
C679 C 0.21595 0.8265 0.46669 0.0
C680 C 0.22171 0.81741 0.49157 0.0
C681 C 0.20537 0.92277 0.36756 0.0
C682 C 0.1887 0.85444 0.43622 0.0
C683 C 0.29655 0.78355 0.40956 0.0
C684 C 0.32578 0.82085 0.4054 0.0
C685 C 0.24841 0.88377 0.33724 0.0
C686 C 0.17044 0.84576 0.24837 0.0
C687 C 0.18508 0.83497 0.22727 0.0
C688 C 0.17671 0.84061 0.2017 0.0
C689 C 0.15313 0.85687 0.19785 0.0
C690 C 0.14692 0.86169 0.24387 0.0
C691 C 0.13832 0.86715 0.21875 0.0
C692 C 0.1699 0.78057 0.34217 0.0
C693 C 0.18048 0.84108 0.27496 0.0
H694 H 0.16872 0.87438 0.4812 0.0
H695 H 0.21298 0.82068 0.53186 0.0
H696 H 0.22646 0.8175 0.45055 0.0
H697 H 0.23653 0.80157 0.49442 0.0
H698 H 0.20263 0.82199 0.23084 0.0
H699 H 0.14649 0.86215 0.17858 0.0
H700 H 0.1353 0.87001 0.25977 0.0
H701 H 0.1203 0.87967 0.21543 0.0
Eu702 Eu 0.82017 0.64985 0.65536 0.0
C703 C 0.89547 0.78023 0.73626 0.0
C704 C 0.96388 0.80046 0.73337 0.0
C705 C 0.94345 0.84537 0.74496 0.0
C706 C 0.92462 0.77222 0.73113 0.0
C707 C 0.90447 0.81665 0.74391 0.0
C708 C 0.97313 0.83729 0.73966 0.0
C709 C 0.83604 0.79264 0.75131 0.0
N710 N 0.85825 0.75175 0.73535 0.0
C711 C 0.82867 0.75698 0.74377 0.0
C712 C 0.87407 0.82277 0.75105 0.0
Eu713 Eu 0.84735 0.69262 0.72073 0.0
N714 N 0.91458 0.73627 0.72539 0.0
C715 C 0.94239 0.72604 0.72372 0.0
C716 C 0.99259 0.79057 0.73 0.0
C717 C 0.98175 0.75306 0.72559 0.0
H718 H 0.79922 0.73377 0.74397 0.0
H719 H 1.00367 0.74493 0.72346 0.0
H720 H 1.00311 0.85945 0.7412 0.0
H721 H 0.8124 0.79686 0.75734 0.0
H722 H 0.93457 0.69728 0.72012 0.0
H723 H 0.6644 0.59982 0.65181 0.0
H724 H 0.02308 0.81144 0.73145 0.0
H725 H 0.86802 0.60671 0.6354 0.0
H726 H 0.73377 0.64691 0.65524 0.0
H727 H 0.85382 0.54302 0.62258 0.0
H728 H 0.95097 0.87364 0.75053 0.0
H729 H 0.64417 0.53301 0.64427 0.0
H730 H 0.66326 0.48421 0.63517 0.0
H731 H 0.87975 0.85033 0.75703 0.0
H732 H 0.71478 0.46883 0.62681 0.0
N733 N 0.75291 0.60716 0.65053 0.0
C734 C 0.72551 0.61794 0.65188 0.0
C735 C 0.67474 0.55359 0.6458 0.0
C736 C 0.70309 0.54314 0.64278 0.0
C737 C 0.68605 0.59128 0.64996 0.0
C738 C 0.74247 0.571 0.64511 0.0
H739 H 0.78587 0.49073 0.62152 0.0
N740 N 0.80884 0.59019 0.64195 0.0
C741 C 0.83036 0.54802 0.62766 0.0
C742 C 0.77135 0.56228 0.64053 0.0
C743 C 0.8383 0.584 0.63485 0.0
C744 C 0.79197 0.51857 0.62712 0.0
C745 C 0.76184 0.52557 0.63333 0.0
O746 O 0.85398 0.66675 0.61959 0.0
O747 O 0.86468 0.69632 0.67935 0.0
O748 O 0.83592 0.73215 0.69628 0.0
O749 O 0.80159 0.69361 0.66133 0.0
O750 O 0.88507 0.67235 0.65322 0.0
O751 O 0.80113 0.66924 0.62193 0.0
O752 O 0.81302 0.67289 0.75628 0.0
O753 O 0.80234 0.64652 0.69661 0.0
O754 O 0.82713 0.60917 0.68124 0.0
O755 O 0.8676 0.65002 0.71304 0.0
O756 O 0.78295 0.67156 0.72257 0.0
O757 O 0.86677 0.67249 0.75361 0.0
C758 C 0.89523 0.69875 0.66998 0.0
C759 C 0.8211 0.66107 0.58038 0.0
C760 C 0.82924 0.67384 0.53377 0.0
C761 C 0.83666 0.68674 0.55954 0.0
C762 C 0.80534 0.63507 0.52939 0.0
C763 C 0.79766 0.62264 0.5753 0.0
C764 C 0.78979 0.60981 0.54996 0.0
C765 C 0.81429 0.72456 0.67527 0.0
C766 C 0.8301 0.67434 0.60731 0.0
C767 C 0.72268 0.49732 0.63202 0.0
C768 C 0.69335 0.50608 0.6368 0.0
C769 C 0.77214 0.64529 0.70565 0.0
C770 C 0.84658 0.67969 0.79532 0.0
C771 C 0.83138 0.6543 0.81636 0.0
C772 C 0.83923 0.66752 0.84212 0.0
C773 C 0.86257 0.70649 0.84612 0.0
C774 C 0.86985 0.7182 0.80016 0.0
C775 C 0.87774 0.73144 0.82538 0.0
C776 C 0.85151 0.61737 0.70073 0.0
C777 C 0.83759 0.66617 0.7684 0.0
H778 H 0.85486 0.7165 0.56337 0.0
H779 H 0.79815 0.62425 0.50996 0.0
H780 H 0.78543 0.60255 0.59094 0.0
H781 H 0.77146 0.58009 0.54622 0.0
H782 H 0.81391 0.62446 0.81261 0.0
H783 H 0.86878 0.7179 0.86543 0.0
H784 H 0.88182 0.73809 0.7844 0.0
H785 H 0.89557 0.76129 0.8289 0.0
Eu786 Eu 0.36621 0.17408 0.65878 0.0
C787 C 0.22766 0.11918 0.73606 0.0
C788 C 0.20822 0.16627 0.73191 0.0
C789 C 0.16033 0.10205 0.74321 0.0
C790 C 0.23692 0.15563 0.73048 0.0
C791 C 0.18949 0.09218 0.74319 0.0
C792 C 0.16969 0.13906 0.73757 0.0
C793 C 0.2127 0.04898 0.7524 0.0
N794 N 0.25658 0.11076 0.73618 0.0
C795 C 0.25012 0.07683 0.74535 0.0
C796 C 0.1821 0.05649 0.75093 0.0
Eu797 Eu 0.31877 0.15842 0.72252 0.0
N798 N 0.27446 0.18122 0.72522 0.0
C799 C 0.28587 0.21856 0.72349 0.0
C800 C 0.21938 0.20416 0.72846 0.0
C801 C 0.2585 0.23051 0.72474 0.0
H802 H 0.27373 0.0709 0.74635 0.0
H803 H 0.26758 0.26001 0.72263 0.0
H804 H 0.14716 0.14659 0.7384 0.0
H805 H 0.2075 0.02178 0.75894 0.0
H806 H 0.31591 0.23926 0.72038 0.0
H807 H 0.40151 0.06075 0.66154 0.0
H808 H 0.19823 0.21348 0.72934 0.0
H809 H 0.42095 0.26085 0.63503 0.0
H810 H 0.35869 0.08786 0.66115 0.0
H811 H 0.49011 0.30539 0.62533 0.0
H812 H 0.13072 0.08158 0.74832 0.0
H813 H 0.47257 0.10202 0.65784 0.0
H814 H 0.52925 0.16681 0.65085 0.0
H815 H 0.15316 0.03494 0.75653 0.0
H816 H 0.55355 0.23365 0.64117 0.0
N817 N 0.40479 0.14457 0.65765 0.0
C818 C 0.38949 0.10647 0.65925 0.0
C819 C 0.45384 0.11421 0.65752 0.0
C820 C 0.46917 0.15292 0.65427 0.0
C821 C 0.41376 0.09083 0.65953 0.0
C822 C 0.44352 0.16739 0.65416 0.0
H823 H 0.53909 0.28546 0.63113 0.0
N824 N 0.43135 0.21725 0.6474 0.0
C825 C 0.48135 0.27734 0.6322 0.0
C826 C 0.45727 0.20498 0.64902 0.0
C827 C 0.44233 0.25215 0.63769 0.0
C828 C 0.50891 0.26601 0.63557 0.0
C829 C 0.4969 0.22916 0.64348 0.0
O830 O 0.35945 0.19441 0.6212 0.0
O831 O 0.31627 0.17098 0.68077 0.0
O832 O 0.27844 0.10744 0.69859 0.0
O833 O 0.31694 0.11361 0.66271 0.0
O834 O 0.34225 0.21399 0.65421 0.0
O835 O 0.34579 0.13665 0.62562 0.0
O836 O 0.33353 0.1432 0.75959 0.0
O837 O 0.36914 0.16207 0.70059 0.0
O838 O 0.40504 0.22493 0.68268 0.0
O839 O 0.36458 0.22051 0.71693 0.0
O840 O 0.34176 0.11805 0.72633 0.0
O841 O 0.33755 0.19734 0.75496 0.0
C842 C 0.31396 0.19782 0.67041 0.0
C843 C 0.36692 0.16438 0.58468 0.0
C844 C 0.36158 0.15778 0.53787 0.0
C845 C 0.34505 0.15718 0.56201 0.0
C846 C 0.40054 0.16635 0.53683 0.0
C847 C 0.40558 0.17259 0.58322 0.0
C848 C 0.42231 0.17371 0.55937 0.0
C849 C 0.28528 0.09471 0.67693 0.0
C850 C 0.34873 0.16255 0.60967 0.0
C851 C 0.5229 0.21539 0.64499 0.0
C852 C 0.50906 0.17732 0.65044 0.0
C853 C 0.37057 0.13457 0.71059 0.0
C854 C 0.32354 0.17047 0.79666 0.0
C855 C 0.34624 0.17555 0.81872 0.0
C856 C 0.32999 0.17089 0.8435 0.0
C857 C 0.29102 0.16181 0.84588 0.0
C858 C 0.28471 0.16133 0.79949 0.0
C859 C 0.26862 0.15714 0.82401 0.0
C860 C 0.39675 0.23897 0.70302 0.0
C861 C 0.34051 0.17425 0.77087 0.0
H862 H 0.3153 0.15129 0.5632 0.0
H863 H 0.41401 0.16678 0.5186 0.0
H864 H 0.42273 0.17791 0.60047 0.0
H865 H 0.45218 0.18001 0.55835 0.0
H866 H 0.37623 0.18244 0.8166 0.0
H867 H 0.27794 0.15853 0.86472 0.0
H868 H 0.26688 0.15748 0.78278 0.0
H869 H 0.23865 0.15016 0.82606 0.0
Eu870 Eu 0.86044 0.16857 0.72171 0.0
C871 C 0.78973 0.225 0.63933 0.0
C872 C 0.72105 0.17993 0.64302 0.0
C873 C 0.74207 0.24444 0.6307 0.0
C874 C 0.7602 0.18893 0.6452 0.0
C875 C 0.78086 0.25272 0.63117 0.0
C876 C 0.71223 0.20813 0.63662 0.0
C877 C 0.84879 0.29325 0.62128 0.0
N878 N 0.82694 0.23217 0.63959 0.0
C879 C 0.8561 0.26483 0.62933 0.0
C880 C 0.81111 0.28747 0.6227 0.0
Eu881 Eu 0.83724 0.18416 0.65624 0.0
N882 N 0.76957 0.16209 0.65122 0.0
C883 C 0.74106 0.12516 0.65255 0.0
C884 C 0.69184 0.14258 0.64641 0.0
C885 C 0.70194 0.11499 0.65061 0.0
H886 H 0.88525 0.26937 0.62811 0.0
H887 H 0.67957 0.08583 0.65257 0.0
H888 H 0.68235 0.20179 0.6353 0.0
H889 H 0.87218 0.31955 0.61396 0.0
H890 H 0.74765 0.10314 0.65591 0.0
H891 H 0.01494 0.27322 0.72516 0.0
H892 H 0.66148 0.13459 0.64498 0.0
H893 H 0.81555 0.07994 0.74318 0.0
H894 H 0.945 0.25086 0.72138 0.0
H895 H 0.83239 0.03243 0.75815 0.0
H896 H 0.73477 0.26555 0.62486 0.0
H897 H 0.03769 0.22795 0.73352 0.0
H898 H 0.0212 0.16166 0.74354 0.0
H899 H 0.80547 0.30946 0.6163 0.0
H900 H 0.97153 0.0962 0.75293 0.0
N901 N 0.92811 0.1932 0.72655 0.0
C902 C 0.9544 0.23073 0.72504 0.0
C903 C 1.00688 0.21792 0.73179 0.0
C904 C 0.97963 0.17981 0.73508 0.0
C905 C 0.99416 0.24357 0.72716 0.0
C906 C 0.93989 0.16818 0.73243 0.0
H907 H 0.90114 0.04815 0.75933 0.0
N908 N 0.87406 0.1214 0.73549 0.0
C909 C 0.85505 0.06002 0.75216 0.0
C910 C 0.91201 0.13118 0.73717 0.0
C911 C 0.84561 0.08687 0.7437 0.0
C912 C 0.89389 0.06899 0.75276 0.0
C913 C 0.92298 0.10503 0.74544 0.0
O914 O 0.82626 0.15014 0.75723 0.0
O915 O 0.81678 0.1736 0.69721 0.0
O916 O 0.85468 0.23867 0.67746 0.0
O917 O 0.87566 0.22949 0.7176 0.0
O918 O 0.79513 0.12954 0.72317 0.0
O919 O 0.87892 0.20395 0.75625 0.0
O920 O 0.86277 0.15947 0.63079 0.0
O921 O 0.88291 0.18282 0.68085 0.0
O922 O 0.85111 0.1194 0.69708 0.0
O923 O 0.81147 0.12146 0.66488 0.0
O924 O 0.90064 0.22865 0.65672 0.0
O925 O 0.82967 0.18238 0.61427 0.0
C926 C 0.7857 0.14695 0.70649 0.0
C927 C 0.85913 0.17275 0.79674 0.0
C928 C 0.85301 0.17553 0.84364 0.0
C929 C 0.84482 0.18281 0.81845 0.0
C930 C 0.87515 0.15759 0.84658 0.0
C931 C 0.8815 0.15539 0.80039 0.0
C932 C 0.88924 0.14769 0.82515 0.0
C933 C 0.86965 0.25017 0.70067 0.0
C934 C 0.85003 0.17974 0.7704 0.0
C935 C 0.96252 0.11604 0.747 0.0
C936 C 0.9908 0.15333 0.74169 0.0
C937 C 0.91269 0.21219 0.67239 0.0
C938 C 0.88135 0.18645 0.58917 0.0
C939 C 0.87629 0.16984 0.56462 0.0
C940 C 0.90427 0.18829 0.54507 0.0
C941 C 0.93743 0.22295 0.55052 0.0
C942 C 0.91475 0.22118 0.59392 0.0
C943 C 0.94264 0.23912 0.57479 0.0
C944 C 0.82633 0.10372 0.67789 0.0
C945 C 0.85162 0.16796 0.60955 0.0
H946 H 0.82809 0.19685 0.81572 0.0
H947 H 0.88169 0.15129 0.86558 0.0
H948 H 0.89301 0.14774 0.78415 0.0
H949 H 0.9064 0.13408 0.82774 0.0
H950 H 0.85053 0.14316 0.56063 0.0
H951 H 0.95949 0.23749 0.53592 0.0
H952 H 0.91943 0.23474 0.61232 0.0
H953 H 0.96833 0.26583 0.57875 0.0
C954 C 0.35433 0.86959 0.05386 0.0
C955 C 0.32308 0.87432 0.06181 0.0
C956 C 0.38944 0.90031 0.04519 0.0
C957 C 0.3941 0.93658 0.04367 0.0
H958 H 0.352 0.84218 0.05511 0.0
H959 H 0.41338 0.89584 0.04037 0.0
S960 S 0.31976 0.96299 0.05944 0.0
N961 N 0.29827 0.91751 0.06578 0.0
N962 N 0.36383 0.97497 0.04928 0.0
C963 C 0.36257 0.94128 0.05065 0.0
C964 C 0.32714 0.91022 0.05967 0.0
C965 C 0.13571 0.48202 0.05151 0.0
C966 C 0.13222 0.44739 0.05903 0.0
C967 C 0.10272 0.48505 0.04543 0.0
C968 C 0.06507 0.45353 0.04612 0.0
H969 H 0.16397 0.50721 0.05129 0.0
H970 H 0.10658 0.51241 0.04094 0.0
S971 S 0.04046 0.3559 0.06194 0.0
N972 N 0.08812 0.38052 0.06498 0.0
N973 N 0.02666 0.38629 0.05345 0.0
C974 C 0.06145 0.41864 0.05269 0.0
C975 C 0.09482 0.41554 0.05902 0.0
C976 C 0.53507 0.67528 0.04551 0.0
C977 C 0.56806 0.69559 0.06109 0.0
C978 C 0.52593 0.64015 0.0352 0.0
C979 C 0.54926 0.62392 0.04027 0.0
H980 H 0.51589 0.68636 0.04159 0.0
H981 H 0.49999 0.62535 0.02363 0.0
S982 S 0.64225 0.66877 0.07651 0.0
N983 N 0.62656 0.6991 0.07838 0.0
N984 N 0.60911 0.63315 0.05975 0.0
C985 C 0.5832 0.64485 0.05493 0.0
C986 C 0.59262 0.6806 0.06517 0.0
C987 C 0.90055 0.32269 0.97814 0.0
C988 C 0.86088 0.30561 0.98469 0.0
C989 C 0.92771 0.35852 0.98733 0.0
C990 C 0.91677 0.37882 1.00393 0.0
H991 H 0.91094 0.3082 0.96592 0.0
H992 H 0.95766 0.37024 0.98138 0.0
S993 S 0.81647 0.34701 0.02694 0.0
N994 N 0.81194 0.31274 1.00815 0.0
N995 N 0.86317 0.37842 0.02682 0.0
C996 C 0.87735 0.36175 1.01106 0.0
C997 C 0.84946 0.3257 1.00113 0.0
C998 C 0.65915 0.5232 0.99006 0.0
C999 C 0.69051 0.55817 0.98211 0.0
C1000 C 0.62303 0.51941 0.9973 0.0
C1001 C 0.61715 0.55057 0.99734 0.0
H1002 H 0.66207 0.49832 0.98969 0.0
H1003 H 0.59923 0.49177 1.00194 0.0
S1004 S 0.69127 0.64896 0.98166 0.0
N1005 N 0.71398 0.62493 0.97712 0.0
N1006 N 0.64684 0.61796 0.99093 0.0
C1007 C 0.6489 0.58585 0.99075 0.0
C1008 C 0.68533 0.58964 0.98316 0.0
C1009 C 0.48865 0.14527 0.98963 0.0
C1010 C 0.45193 0.13639 0.97998 0.0
C1011 C 0.49563 0.11716 0.99935 0.0
C1012 C 0.4661 0.07921 0.99982 0.0
H1013 H 0.51226 0.1741 0.98935 0.0
H1014 H 0.52456 0.12512 1.00601 0.0
S1015 S 0.36342 0.04246 0.98064 0.0
N1016 N 0.38492 0.08776 0.97384 0.0
N1017 N 0.39768 0.03526 0.99256 0.0
C1018 C 0.42891 0.07038 0.99124 0.0
C1019 C 0.42192 0.09887 0.98118 0.0
C1020 C 0.6389 0.12205 0.99778 0.0
C1021 C 0.67088 0.11726 0.99241 0.0
C1022 C 0.60137 0.09087 1.00085 0.0
C1023 C 0.59482 0.05392 0.99906 0.0
H1024 H 0.64297 0.15005 1.00002 0.0
H1025 H 0.57742 0.09574 1.00461 0.0
S1026 S 0.66912 0.02668 0.98528 0.0
N1027 N 0.69373 0.07313 0.98538 0.0
N1028 N 0.62348 0.01462 0.99106 0.0
C1029 C 0.62663 0.049 0.99332 0.0
C1030 C 0.66467 0.08066 0.99019 0.0
C1031 C 0.91179 0.56846 0.99319 0.0
C1032 C 0.87377 0.53774 0.99286 0.0
C1033 C 0.94398 0.56318 0.99697 0.0
C1034 C 0.93928 0.52712 1.00132 0.0
H1035 H 0.9167 0.59675 0.99081 0.0
H1036 H 0.9728 0.58762 0.99701 0.0
S1037 S 0.84548 0.43764 0.99993 0.0
N1038 N 0.83321 0.4702 0.99566 0.0
N1039 N 0.89322 0.46012 1.00282 0.0
C1040 C 0.9013 0.49624 1.0004 0.0
C1041 C 0.86872 0.50165 0.99627 0.0
C1042 C 0.44233 0.34064 0.98521 0.0
C1043 C 0.46912 0.32834 0.98951 0.0
C1044 C 0.45289 0.37849 0.98913 0.0
C1045 C 0.4903 0.40478 0.9979 0.0
H1046 H 0.41278 0.32073 0.97971 0.0
H1047 H 0.43113 0.38675 0.98648 0.0
S1048 S 0.5715 0.38629 1.00982 0.0
N1049 N 0.5348 0.34511 1.00129 0.0
N1050 N 0.55482 0.41595 1.00874 0.0
C1051 C 0.51761 0.39274 1.00119 0.0
C1052 C 0.50692 0.35451 0.99699 0.0
C1053 C 0.10976 0.66331 0.05738 0.0
C1054 C 0.14916 0.67434 0.05436 0.0
C1055 C 0.08056 0.62594 0.05262 0.0
C1056 C 0.08997 0.59877 0.0442 0.0
H1057 H 0.10143 0.68387 0.06263 0.0
H1058 H 0.05047 0.6187 0.05452 0.0
S1059 S 0.18953 0.61374 0.03537 0.0
N1060 N 0.19633 0.65528 0.04406 0.0
N1061 N 0.14206 0.58555 0.0349 0.0
C1062 C 0.12952 0.60957 0.04201 0.0
C1063 C 0.15898 0.64728 0.04713 0.0
C1064 C 0.3436 0.44006 0.0471 0.0
C1065 C 0.33841 0.47153 0.04671 0.0
C1066 C 0.38067 0.44393 0.04357 0.0
C1067 C 0.41387 0.47929 0.03892 0.0
H1068 H 0.31885 0.41223 0.04996 0.0
H1069 H 0.38333 0.4189 0.04419 0.0
S1070 S 0.41562 0.57062 0.0376 0.0
N1071 N 0.36943 0.53923 0.04217 0.0
N1072 N 0.43882 0.54661 0.03597 0.0
C1073 C 0.40893 0.51099 0.03897 0.0
C1074 C 0.37126 0.50703 0.04265 0.0
C1075 C 0.54671 0.8806 0.06384 0.0
C1076 C 0.56761 0.8738 0.04485 0.0
C1077 C 0.53106 0.90409 0.05864 0.0
C1078 C 0.53542 0.92082 0.03421 0.0
H1079 H 0.54235 0.86766 0.08267 0.0
H1080 H 0.51499 0.90875 0.07365 0.0
S1081 S 0.59061 0.91371 0.97897 0.0
N1082 N 0.59361 0.88672 1.00144 0.0
N1083 N 0.56467 0.9309 0.99174 0.0
C1084 C 0.55697 0.91458 0.01539 0.0
C1085 C 0.57295 0.89099 0.02072 0.0
C1086 C 1.00086 0.23866 0.39059 0.0
C1087 C 0.99886 0.20352 0.3924 0.0
C1088 C 0.03432 0.27047 0.38143 0.0
C1089 C 0.0672 0.26853 0.37359 0.0
H1090 H 0.9766 0.24179 0.39686 0.0
H1091 H 0.03492 0.29718 0.38118 0.0
S1092 S 0.07692 0.18313 0.37438 0.0
N1093 N 0.03248 0.16844 0.38509 0.0
N1094 N 0.09559 0.22842 0.36831 0.0
C1095 C 0.06528 0.23337 0.37464 0.0
C1096 C 0.03103 0.20082 0.38384 0.0
C1097 C 0.76974 0.75888 0.39577 0.0
C1098 C 0.80669 0.79119 0.39735 0.0
C1099 C 0.737 0.76103 0.38796 0.0
C1100 C 0.73959 0.79554 0.38133 0.0
H1101 H 0.76603 0.73163 0.4008 0.0
H1102 H 0.70916 0.73535 0.38743 0.0
S1103 S 0.82918 0.88889 0.38359 0.0
N1104 N 0.8438 0.85905 0.39203 0.0
N1105 N 0.78212 0.86314 0.37814 0.0
C1106 C 0.77634 0.82815 0.38286 0.0
C1107 C 0.80988 0.82593 0.39056 0.0
C1108 C 0.24901 0.02824 0.37065 0.0
C1109 C 0.23878 0.03379 0.39565 0.0
C1110 C 0.23707 0.99208 0.36124 0.0
C1111 C 0.21509 0.9603 0.37665 0.0
H1112 H 0.26713 0.05205 0.3584 0.0
H1113 H 0.24617 0.98906 0.34215 0.0
S1114 S 0.17788 0.95842 0.44236 0.0
N1115 N 0.20255 0.0035 0.43472 0.0
N1116 N 0.1819 0.93581 0.41734 0.0
C1117 C 0.20417 0.96511 0.40141 0.0
C1118 C 0.21561 0.00179 0.41085 0.0
C1119 C 0.52495 0.66536 0.32868 0.0
C1120 C 0.53546 0.64401 0.31281 0.0
C1121 C 0.55283 0.70026 0.3386 0.0
C1122 C 0.59251 0.71606 0.33266 0.0
H1123 H 0.49476 0.65527 0.33331 0.0
H1124 H 0.5429 0.71518 0.35074 0.0
S1125 S 0.6361 0.67039 0.29388 0.0
N1126 N 0.5891 0.64002 0.29349 0.0
N1127 N 0.64111 0.70646 0.31089 0.0
C1128 C 0.60359 0.69487 0.31709 0.0
C1129 C 0.57523 0.65881 0.30743 0.0
C1130 C 0.32666 0.85701 0.32472 0.0
C1131 C 0.35835 0.89134 0.31608 0.0
C1132 C 0.29161 0.85461 0.33314 0.0
C1133 C 0.28717 0.88662 0.33372 0.0
H1134 H 0.32843 0.83152 0.32403 0.0
H1135 H 0.26744 0.82733 0.3382 0.0
S1136 S 0.36285 0.98386 0.31665 0.0
N1137 N 0.3838 0.95845 0.31112 0.0
N1138 N 0.31864 0.95407 0.327 0.0
C1139 C 0.31931 0.92127 0.32643 0.0
C1140 C 0.35465 0.92363 0.31767 0.0
C1141 C 0.11404 0.45982 0.33652 0.0
C1142 C 0.1207 0.47177 0.31058 0.0
C1143 C 0.12301 0.43285 0.34575 0.0
C1144 C 0.13875 0.41673 0.32934 0.0
H1145 H 0.10178 0.47145 0.34981 0.0
H1146 H 0.11694 0.42412 0.36569 0.0
S1147 S 0.16416 0.43983 0.26039 0.0
N1148 N 0.14569 0.46641 0.26902 0.0
N1149 N 0.16216 0.41555 0.28632 0.0
C1150 C 0.14565 0.42841 0.30345 0.0
C1151 C 0.13667 0.45592 0.29407 0.0
C1152 C 0.33553 0.42371 0.32344 0.0
C1153 C 0.34074 0.46013 0.32395 0.0
C1154 C 0.29853 0.39207 0.32688 0.0
C1155 C 0.26565 0.39579 0.33156 0.0
H1156 H 0.36022 0.41965 0.32066 0.0
H1157 H 0.29566 0.36439 0.32619 0.0
S1158 S 0.26407 0.48544 0.33309 0.0
N1159 N 0.31026 0.49844 0.32855 0.0
N1160 N 0.24072 0.43906 0.33459 0.0
C1161 C 0.27055 0.43219 0.33156 0.0
C1162 C 0.30819 0.46437 0.32797 0.0
C1163 C 0.57475 0.89684 0.32634 0.0
C1164 C 0.53772 0.86473 0.32514 0.0
C1165 C 0.60818 0.89374 0.33043 0.0
C1166 C 0.60577 0.85852 0.33417 0.0
H1167 H 0.5779 0.92453 0.32437 0.0
H1168 H 0.63619 0.91922 0.3311 0.0
S1169 S 0.5154 0.76593 0.33062 0.0
N1170 N 0.50054 0.79672 0.32673 0.0
N1171 N 0.563 0.7908 0.33404 0.0
C1172 C 0.56883 0.82625 0.3323 0.0
C1173 C 0.53492 0.82943 0.32801 0.0
C1174 C 0.18228 0.69524 0.33565 0.0
C1175 C 0.14857 0.66928 0.32277 0.0
C1176 C 0.18913 0.73136 0.34116 0.0
C1177 C 0.1624 0.74287 0.33406 0.0
H1178 H 0.2031 0.68726 0.34218 0.0
H1179 H 0.21548 0.75018 0.35143 0.0
S1180 S 0.07014 0.685 0.29874 0.0
N1181 N 0.08864 0.65699 0.30218 0.0
N1182 N 0.10137 0.72529 0.31231 0.0
C1183 C 0.12903 0.71732 0.32029 0.0
C1184 C 0.12206 0.6803 0.31477 0.0
C1185 C 0.80046 0.00219 0.36758 0.0
C1186 C 0.81956 0.00795 0.39127 0.0
C1187 C 0.76809 0.96735 0.36155 0.0
C1188 C 0.75369 0.93718 0.37906 0.0
H1189 H 0.81168 0.02419 0.35309 0.0
H1190 H 0.75493 0.96367 0.34277 0.0
S1191 S 0.79254 0.93855 0.44415 0.0
N1192 N 0.82124 0.98135 0.43273 0.0
N1193 N 0.75995 0.9158 0.42152 0.0
C1194 C 0.77139 0.94319 0.40335 0.0
C1195 C 0.80461 0.97864 0.40941 0.0
C1196 C 0.01528 0.78066 0.38603 0.0
C1197 C 0.01146 0.81292 0.38565 0.0
C1198 C 0.05156 0.78311 0.38169 0.0
C1199 C 0.08522 0.81777 0.37626 0.0
H1200 H 0.99006 0.75332 0.38947 0.0
H1201 H 0.0532 0.75753 0.38225 0.0
S1202 S 0.09056 0.91074 0.37448 0.0
N1203 N 0.0443 0.88063 0.38023 0.0
N1204 N 0.11217 0.88533 0.37246 0.0
C1205 C 0.08166 0.85026 0.37631 0.0
C1206 C 0.04483 0.84776 0.38081 0.0
C1207 C 0.23493 0.2211 0.35232 0.0
C1208 C 0.23833 0.21081 0.37751 0.0
C1209 C 0.21872 0.24394 0.34748 0.0
C1210 C 0.2052 0.25718 0.36765 0.0
H1211 H 0.24513 0.21163 0.33618 0.0
H1212 H 0.21782 0.25206 0.32782 0.0
S1213 S 0.20728 0.23745 0.43724 0.0
N1214 N 0.22699 0.21496 0.42299 0.0
N1215 N 0.19612 0.25796 0.41396 0.0
C1216 C 0.20854 0.24704 0.39306 0.0
C1217 C 0.22512 0.22368 0.39797 0.0
C1218 C 0.69647 0.54407 0.72042 0.0
C1219 C 0.66412 0.54742 0.72785 0.0
C1220 C 0.73084 0.57529 0.71133 0.0
C1221 C 0.73395 0.61089 0.7092 0.0
H1222 H 0.69585 0.51752 0.72269 0.0
H1223 H 0.75565 0.57192 0.70723 0.0
S1224 S 0.65613 0.63352 0.72225 0.0
N1225 N 0.63627 0.58841 0.72941 0.0
N1226 N 0.7009 0.64695 0.71287 0.0
C1227 C 0.70124 0.6141 0.71518 0.0
C1228 C 0.66634 0.58244 0.72432 0.0
C1229 C 0.47682 0.16264 0.7231 0.0
C1230 C 0.47388 0.1286 0.73166 0.0
C1231 C 0.44368 0.16458 0.71552 0.0
C1232 C 0.40648 0.13234 0.71554 0.0
H1233 H 0.50479 0.18817 0.72298 0.0
H1234 H 0.44714 0.1916 0.71008 0.0
S1235 S 0.38353 0.03598 0.73408 0.0
N1236 N 0.43088 0.06175 0.73835 0.0
N1237 N 0.36916 0.06521 0.7238 0.0
C1238 C 0.40346 0.09811 0.72341 0.0
C1239 C 0.43695 0.09623 0.73139 0.0
C1240 C 0.87736 0.32925 0.74213 0.0
C1241 C 0.90019 0.36152 0.7271 0.0
C1242 C 0.86747 0.29334 0.73326 0.0
C1243 C 0.87961 0.28827 0.70891 0.0
H1244 H 0.86693 0.33175 0.76089 0.0
H1245 H 0.84996 0.26928 0.7455 0.0
S1246 S 0.94235 0.36323 0.6629 0.0
N1247 N 0.93657 0.38593 0.68719 0.0
N1248 N 0.91719 0.31819 0.67049 0.0
C1249 C 0.90247 0.32005 0.69369 0.0
C1250 C 0.91294 0.35673 0.70279 0.0
C1251 C 0.20736 0.99161 0.67244 0.0
C1252 C 0.19758 0.98719 0.64604 0.0
C1253 C 0.23531 0.02653 0.68251 0.0
C1254 C 0.25475 0.05827 0.66653 0.0
H1255 H 0.19369 0.96773 0.68539 0.0
H1256 H 0.2424 0.02842 0.70276 0.0
S1257 S 0.23715 0.06304 0.59679 0.0
N1258 N 0.20772 0.01863 0.60466 0.0
N1259 N 0.2604 0.08385 0.62348 0.0
C1260 C 0.24474 0.05449 0.64028 0.0
C1261 C 0.21618 0.01909 0.63006 0.0
C1262 C 0.01796 0.2559 0.6498 0.0
C1263 C 0.02517 0.22559 0.64936 0.0
C1264 C 0.98226 0.25136 0.65859 0.0
C1265 C 0.95185 0.21626 0.66717 0.0
H1266 H 0.04006 0.28339 0.64316 0.0
H1267 H 0.97809 0.27553 0.6581 0.0
S1268 S 0.95536 0.12756 0.66852 0.0
N1269 N 0.99869 0.15914 0.65797 0.0
N1270 N 0.93135 0.15027 0.67346 0.0
C1271 C 0.95872 0.18572 0.6668 0.0
C1272 C 0.99535 0.19051 0.65822 0.0
C1273 C 0.76915 0.78698 0.67392 0.0
C1274 C 0.77597 0.8008 0.64838 0.0
C1275 C 0.78262 0.76318 0.68281 0.0
C1276 C 0.8029 0.75185 0.66642 0.0
H1277 H 0.75286 0.79426 0.68715 0.0
H1278 H 0.77611 0.75273 0.7024 0.0
S1279 S 0.8301 0.7807 0.59844 0.0
N1280 N 0.80627 0.8023 0.60728 0.0
N1281 N 0.83007 0.75638 0.62384 0.0
C1282 C 0.80993 0.76518 0.64094 0.0
C1283 C 0.7968 0.78988 0.63195 0.0
C1284 C 0.9689 0.80278 0.66239 0.0
C1285 C 1.00309 0.80243 0.65596 0.0
C1286 C 0.93418 0.76924 0.66758 0.0
C1287 C 0.93266 0.73424 0.66678 0.0
H1288 H 0.96902 0.82921 0.66362 0.0
H1289 H 0.90836 0.77076 0.672 0.0
S1290 S 0.01475 0.71857 0.6516 0.0
N1291 N 0.03374 0.76465 0.64956 0.0
N1292 N 0.96856 0.70148 0.65915 0.0
C1293 C 0.96679 0.73368 0.66033 0.0
C1294 C 1.00209 0.76784 0.65509 0.0
C1295 C 0.24736 0.23857 0.65712 0.0
C1296 C 0.20995 0.20685 0.65753 0.0
C1297 C 0.28064 0.23521 0.66133 0.0
C1298 C 0.27777 0.20016 0.66677 0.0
H1299 H 0.25093 0.26623 0.65391 0.0
H1300 H 0.30888 0.26042 0.66086 0.0
S1301 S 0.18627 0.10823 0.66804 0.0
N1302 N 0.17194 0.13915 0.66254 0.0
N1303 N 0.23404 0.13279 0.67013 0.0
C1304 C 0.24043 0.16818 0.66649 0.0
C1305 C 0.20667 0.1716 0.66208 0.0
C1306 C 0.76228 0.00209 0.65637 0.0
C1307 C 0.78461 0.98559 0.66318 0.0
C1308 C 0.77648 0.04069 0.66038 0.0
C1309 C 0.81307 0.0637 0.67177 0.0
H1310 H 0.7334 0.98497 0.64856 0.0
H1311 H 0.75801 0.05211 0.65534 0.0
S1312 S 0.88312 0.03304 0.69119 0.0
N1313 N 0.84526 0.99453 0.68026 0.0
N1314 N 0.87185 0.06658 0.68829 0.0
C1315 C 0.83582 0.04718 0.67793 0.0
C1316 C 0.82156 0.00821 0.67351 0.0
C1317 C 0.4756 0.34095 0.69804 0.0
C1318 C 0.49057 0.34917 0.72313 0.0
C1319 C 0.44387 0.30572 0.69201 0.0
C1320 C 0.42605 0.27748 0.71084 0.0
H1321 H 0.48942 0.3614 0.68273 0.0
H1322 H 0.43367 0.30035 0.67234 0.0
S1323 S 0.45333 0.28594 0.77979 0.0
N1324 N 0.48457 0.32723 0.76724 0.0
N1325 N 0.42464 0.26083 0.75594 0.0
C1326 C 0.43966 0.28603 0.73631 0.0
C1327 C 0.47217 0.32195 0.74243 0.0
C1328 C 0.71104 0.17994 0.71122 0.0
C1329 C 0.67644 0.14658 0.71725 0.0
C1330 C 0.74626 0.18003 0.70736 0.0
C1331 C 0.74806 0.14662 0.7091 0.0
H1332 H 0.71082 0.20613 0.70921 0.0
H1333 H 0.77223 0.20642 0.70303 0.0
S1334 S 0.66537 0.05184 0.72405 0.0
N1335 N 0.64609 0.07943 0.72456 0.0
N1336 N 0.7119 0.0794 0.71743 0.0
C1337 C 0.7136 0.11322 0.71534 0.0
C1338 C 0.67786 0.11319 0.71923 0.0
C1339 C 0.91419 0.57654 0.72288 0.0
C1340 C 0.89049 0.53807 0.71788 0.0
C1341 C 0.90083 0.60193 0.71816 0.0
C1342 C 0.86357 0.58966 0.7079 0.0
H1343 H 0.94363 0.58725 0.72965 0.0
H1344 H 0.92044 0.63151 0.72161 0.0
S1345 S 0.7895 0.4908 0.69368 0.0
N1346 N 0.82761 0.48832 0.70373 0.0
N1347 N 0.80227 0.53574 0.69489 0.0
C1348 C 0.83921 0.55088 0.70377 0.0
C1349 C 0.85277 0.52514 0.70874 0.0
C1350 C 0.43625 0.92646 0.22488 0.0
C1351 C 0.46094 0.93208 0.24606 0.0
C1352 C 0.45051 0.94615 0.2014 0.0
C1353 C 0.49016 0.97254 0.19798 0.0
H1354 H 0.40541 0.90691 0.22652 0.0
H1355 H 0.43006 0.94164 0.18615 0.0
S1356 S 0.56777 0.99626 0.24644 0.0
N1357 N 0.5276 0.96562 0.26134 0.0
N1358 N 0.55432 0.0011 0.21727 0.0
C1359 C 0.51537 0.97731 0.21859 0.0
C1360 C 0.50087 0.95752 0.2425 0.0
C1361 C 0.07367 0.51013 0.22416 0.0
C1362 C 0.06786 0.52705 0.24604 0.0
C1363 C 0.05178 0.50397 0.20161 0.0
C1364 C 0.02314 0.51454 0.1999 0.0
H1365 H 0.0951 0.50114 0.22451 0.0
H1366 H 0.05656 0.48976 0.18568 0.0
S1367 S 0.99819 0.56232 0.25094 0.0
N1368 N 0.03182 0.55525 0.26413 0.0
N1369 N 0.99222 0.54542 0.22144 0.0
C1370 C 0.01806 0.53283 0.22125 0.0
C1371 C 0.04005 0.53873 0.24432 0.0
C1372 C 0.48107 0.51275 0.23923 0.0
C1373 C 0.48215 0.54738 0.24203 0.0
C1374 C 0.49259 0.50324 0.21614 0.0
C1375 C 0.50562 0.52787 0.19477 0.0
H1376 H 0.47317 0.49362 0.25543 0.0
H1377 H 0.49235 0.47674 0.21528 0.0
S1378 S 0.50988 0.62028 0.19121 0.0
N1379 N 0.49365 0.60479 0.22055 0.0
N1380 N 0.51634 0.58748 0.17755 0.0
C1381 C 0.50476 0.56167 0.19685 0.0
C1382 C 0.49288 0.57129 0.22035 0.0
C1383 C 0.98556 0.44687 0.80374 0.0
C1384 C 0.95688 0.45636 0.79785 0.0
C1385 C 1.0049 0.45632 0.82742 0.0
C1386 C 0.99664 0.47584 0.84634 0.0
H1387 H 0.99356 0.43233 0.78977 0.0
H1388 H 0.02661 0.4482 0.83092 0.0
S1389 S 0.92405 0.50733 0.84073 0.0
N1390 N 0.92077 0.48603 0.81312 0.0
N1391 N 0.95789 0.50462 0.85754 0.0
C1392 C 0.96795 0.48546 0.84084 0.0
C1393 C 0.94809 0.47573 0.8166 0.0
C1394 C 0.54914 0.46859 0.81704 0.0
C1395 C 0.5597 0.49399 0.79622 0.0
C1396 C 0.53219 0.47323 0.83955 0.0
C1397 C 0.52469 0.50322 0.84203 0.0
H1398 H 0.55425 0.44503 0.816 0.0
H1399 H 0.52415 0.45274 0.8549 0.0
S1400 S 0.54722 0.57782 0.79335 0.0
N1401 N 0.56135 0.55029 0.77973 0.0
N1402 N 0.53023 0.55931 0.82198 0.0
C1403 C 0.53545 0.52898 0.82147 0.0
C1404 C 0.55276 0.52433 0.79864 0.0
C1405 C 0.50722 0.06217 0.81029 0.0
C1406 C 0.54049 0.09475 0.80108 0.0
C1407 C 0.50651 0.04683 0.83479 0.0
C1408 C 0.53906 0.06336 0.85111 0.0
H1409 H 0.48182 0.04772 0.79817 0.0
H1410 H 0.48087 0.02101 0.84056 0.0
S1411 S 0.6316 0.1513 0.83785 0.0
N1412 N 0.60548 0.1448 0.81164 0.0
N1413 N 0.60431 0.11578 0.85719 0.0
C1414 C 0.57188 0.09668 0.84259 0.0
C1415 C 0.57258 0.11234 0.81776 0.0
C1416 C 0.16542 0.29432 0.57436 0.0
C1417 C 0.1259 0.26773 0.57803 0.0
C1418 C 0.17936 0.31353 0.55082 0.0
C1419 C 0.15457 0.30725 0.52965 0.0
H1420 H 0.18573 0.30138 0.59011 0.0
H1421 H 0.20994 0.33415 0.54939 0.0
S1422 S 0.04899 0.23825 0.52818 0.0
N1423 N 0.06255 0.23398 0.55747 0.0
N1424 N 0.08854 0.27095 0.5137 0.0
C1425 C 0.11522 0.27971 0.53266 0.0
C1426 C 0.10097 0.25994 0.55668 0.0
C1427 C 0.72672 0.83475 0.56022 0.0
C1428 C 0.71417 0.84559 0.58234 0.0
C1429 C 0.70667 0.82753 0.53673 0.0
C1430 C 0.67325 0.83096 0.53431 0.0
H1431 H 0.7521 0.83144 0.56108 0.0
H1432 H 0.71683 0.81813 0.52056 0.0
S1433 S 0.62938 0.86058 0.58585 0.0
N1434 N 0.66614 0.85979 0.6 0.0
N1435 N 0.63019 0.84862 0.55564 0.0
C1436 C 0.66124 0.84313 0.556 0.0
C1437 C 0.68124 0.8499 0.58 0.0
C1438 C 0.19166 0.88808 0.57678 0.0
C1439 C 0.15484 0.88479 0.57973 0.0
C1440 C 0.20231 0.87705 0.55405 0.0
C1441 C 0.17667 0.86199 0.53305 0.0
H1442 H 0.21266 0.89936 0.59225 0.0
H1443 H 0.23119 0.88064 0.55291 0.0
S1444 S 0.07647 0.8469 0.53076 0.0
N1445 N 0.09257 0.86541 0.55946 0.0
N1446 N 0.11222 0.84374 0.51695 0.0
C1447 C 0.1396 0.8583 0.5357 0.0
C1448 C 0.12872 0.86967 0.55897 0.0
C1449 C 0.61802 0.80881 0.15098 0.0
C1450 C 0.62553 0.78829 0.1324 0.0
C1451 C 0.63828 0.81909 0.17452 0.0
C1452 C 0.66714 0.8097 0.18006 0.0
H1453 H 0.59636 0.81692 0.1473 0.0
H1454 H 0.63201 0.83526 0.1882 0.0
S1455 S 0.69779 0.75625 0.1379 0.0
N1456 N 0.66419 0.75937 0.12118 0.0
N1457 N 0.70137 0.77792 0.16536 0.0
C1458 C 0.67458 0.78891 0.16174 0.0
C1459 C 0.65405 0.77845 0.13794 0.0
C1460 C 0.18293 0.8063 0.13446 0.0
C1461 C 0.22232 0.81674 0.13196 0.0
C1462 C 0.16833 0.81287 0.15733 0.0
C1463 C 0.1924 0.83027 0.17878 0.0
H1464 H 0.16338 0.79416 0.1183 0.0
H1465 H 0.13791 0.80481 0.158 0.0
S1466 S 0.29718 0.86023 0.18303 0.0
N1467 N 0.28454 0.84255 0.1538 0.0
N1468 N 0.25752 0.85629 0.19627 0.0
C1469 C 0.23156 0.83956 0.1769 0.0
C1470 C 0.2464 0.83259 0.15364 0.0
C1471 C 0.19968 0.37673 0.12959 0.0
C1472 C 0.1939 0.4078 0.12744 0.0
C1473 C 0.19034 0.35529 0.15241 0.0
C1474 C 0.17509 0.36411 0.17417 0.0
H1475 H 0.20972 0.36779 0.1131 0.0
H1476 H 0.19411 0.33089 0.15276 0.0
S1477 S 0.15813 0.44505 0.17936 0.0
N1478 N 0.17502 0.44823 0.14985 0.0
N1479 N 0.157 0.40775 0.1924 0.0
C1480 C 0.17116 0.39633 0.17271 0.0
C1481 C 0.18058 0.41811 0.14946 0.0
C1482 C 0.83265 0.62764 0.90995 0.0
C1483 C 0.79329 0.59995 0.91256 0.0
C1484 C 0.84734 0.64799 0.88687 0.0
C1485 C 0.82346 0.64182 0.86518 0.0
H1486 H 0.85215 0.63469 0.92618 0.0
H1487 H 0.87771 0.6694 0.88623 0.0
S1488 S 0.71893 0.57005 0.86096 0.0
N1489 N 0.73136 0.56518 0.89045 0.0
N1490 N 0.75857 0.60432 0.8476 0.0
C1491 C 0.78438 0.61315 0.86715 0.0
C1492 C 0.76942 0.59219 0.89065 0.0
C1493 C 0.40918 0.21358 0.8946 0.0
C1494 C 0.39613 0.18506 0.91343 0.0
C1495 C 0.38827 0.20851 0.87166 0.0
C1496 C 0.35322 0.17501 0.86699 0.0
H1497 H 0.43581 0.23992 0.89758 0.0
H1498 H 0.39912 0.23124 0.85774 0.0
S1499 S 0.30658 0.09179 0.91011 0.0
N1500 N 0.34595 0.12215 0.92576 0.0
N1501 N 0.30686 0.11272 0.88284 0.0
C1502 C 0.34003 0.14629 0.88561 0.0
C1503 C 0.36141 0.15128 0.90876 0.0
C1504 C 0.85766 0.21723 0.90979 0.0
C1505 C 0.81926 0.2088 0.91466 0.0
C1506 C 0.86809 0.20706 0.88666 0.0
C1507 C 0.84069 0.18788 0.86718 0.0
H1508 H 0.87998 0.23147 0.92419 0.0
H1509 H 0.89807 0.21422 0.88407 0.0
S1510 S 0.73621 0.15939 0.86986 0.0
N1511 N 0.75366 0.18056 0.8977 0.0
N1512 N 0.77322 0.16091 0.85423 0.0
C1513 C 0.80217 0.17949 0.87156 0.0
C1514 C 0.79144 0.18984 0.89531 0.0
C1515 C 0.33504 0.16335 0.46822 0.0
C1516 C 0.2984 0.13095 0.46544 0.0
C1517 C 0.35472 0.17225 0.49183 0.0
C1518 C 0.33855 0.14921 0.51369 0.0
H1519 H 0.34933 0.1813 0.45177 0.0
H1520 H 0.38314 0.19716 0.49289 0.0
S1521 S 0.24229 0.06233 0.51704 0.0
N1522 N 0.24566 0.07694 0.487 0.0
N1523 N 0.28308 0.09309 0.53118 0.0
C1524 C 0.30138 0.11736 0.51141 0.0
C1525 C 0.28128 0.10834 0.48735 0.0
C1526 C 0.90537 0.18446 0.47222 0.0
C1527 C 0.90753 0.1518 0.46729 0.0
C1528 C 0.90177 0.19471 0.49738 0.0
C1529 C 0.89985 0.1726 0.51869 0.0
H1530 H 0.90806 0.20312 0.45655 0.0
H1531 H 0.90208 0.22101 0.50029 0.0
S1532 S 0.90189 0.08332 0.5164 0.0
N1533 N 0.90561 0.09643 0.48593 0.0
N1534 N 0.89833 0.11562 0.53323 0.0
C1535 C 0.89969 0.13879 0.51403 0.0
C1536 C 0.9036 0.12839 0.48833 0.0
C1537 C 0.8478 0.75267 0.48641 0.0
C1538 C 0.86396 0.74471 0.46472 0.0
C1539 C 0.83862 0.73103 0.50916 0.0
C1540 C 0.84482 0.70019 0.51117 0.0
H1541 H 0.84136 0.7754 0.4856 0.0
H1542 H 0.82495 0.73749 0.52486 0.0
S1543 S 0.88932 0.66912 0.46098 0.0
N1544 N 0.8877 0.70483 0.44753 0.0
N1545 N 0.87101 0.66467 0.49017 0.0
C1546 C 0.86258 0.69298 0.4901 0.0
C1547 C 0.87206 0.71509 0.46699 0.0
loop_
_geom_bond_atom_site_label_1
_geom_bond_atom_site_label_2
_geom_bond_distance
_geom_bond_site_symmetry_2
_ccdc_geom_bond_type
H0 C3 0.929 . S
H1 C6 0.929 . S
H2 C8 0.930 . S
C3 H0 0.929 . S
C3 C4 1.398 . S
C3 C5 1.396 . S
C4 C3 1.398 . S
C4 C8 1.407 . S
C5 C3 1.396 . S
C5 C6 1.394 . S
C6 H1 0.929 . S
C6 C5 1.394 . S
C6 C7 1.382 . S
C7 C6 1.382 . S
C7 C8 1.392 . S
C7 N9 1.420 . S
C8 H2 0.930 . S
C8 C4 1.407 . S
C8 C7 1.392 . S
N9 C7 1.420 . S
N9 C10 1.244 . S
C10 N9 1.244 . S
H11 C14 0.929 . S
H12 C17 0.929 . S
H13 C19 0.930 . S
C14 H11 0.929 . S
C14 C15 1.398 . S
C14 C16 1.396 . S
C15 C14 1.398 . S
C15 C19 1.407 . S
C16 C14 1.396 . S
C16 C17 1.394 . S
C17 H12 0.929 . S
C17 C16 1.394 . S
C17 C18 1.382 . S
C18 C17 1.382 . S
C18 C19 1.392 . S
C18 N20 1.420 . S
C19 H13 0.930 . S
C19 C15 1.407 . S
C19 C18 1.392 . S
N20 C18 1.420 . S
N20 C21 1.244 . S
C21 N20 1.244 . S
H22 C25 0.929 . S
H23 C28 0.929 . S
H24 C30 0.930 . S
C25 H22 0.929 . S
C25 C26 1.398 . S
C25 C27 1.396 . S
C26 C25 1.398 . S
C26 C30 1.407 . S
C27 C25 1.396 . S
C27 C28 1.394 . S
C28 H23 0.929 . S
C28 C27 1.394 . S
C28 C29 1.382 . S
C29 C28 1.382 . S
C29 C30 1.392 . S
C29 N31 1.420 . S
C30 H24 0.930 . S
C30 C26 1.407 . S
C30 C29 1.392 . S
N31 C29 1.420 . S
N31 C32 1.244 . S
C32 N31 1.244 . S
H33 C36 0.929 . S
H34 C39 0.929 . S
H35 C41 0.930 . S
C36 H33 0.929 . S
C36 C37 1.398 . S
C36 C38 1.396 . S
C37 C36 1.398 . S
C37 C41 1.407 . S
C38 C36 1.396 . S
C38 C39 1.394 . S
C39 H34 0.929 . S
C39 C38 1.394 . S
C39 C40 1.382 . S
C40 C39 1.382 . S
C40 C41 1.392 . S
C40 N42 1.420 . S
C41 H35 0.930 . S
C41 C37 1.407 . S
C41 C40 1.392 . S
N42 C40 1.420 . S
N42 C43 1.244 . S
C43 N42 1.244 . S
H44 C47 0.929 . S
H45 C50 0.929 . S
H46 C52 0.930 . S
C47 H44 0.929 . S
C47 C48 1.398 . S
C47 C49 1.396 . S
C48 C47 1.398 . S
C48 C52 1.407 . S
C49 C47 1.396 . S
C49 C50 1.394 . S
C50 H45 0.929 . S
C50 C49 1.394 . S
C50 C51 1.382 . S
C51 C50 1.382 . S
C51 C52 1.392 . S
C51 N53 1.420 . S
C52 H46 0.930 . S
C52 C48 1.407 . S
C52 C51 1.392 . S
N53 C51 1.420 . S
N53 C54 1.244 . S
C54 N53 1.244 . S
H55 C58 0.929 . S
H56 C61 0.929 . S
H57 C63 0.930 . S
C58 H55 0.929 . S
C58 C59 1.398 . S
C58 C60 1.396 . S
C59 C58 1.398 . S
C59 C63 1.407 . S
C60 C58 1.396 . S
C60 C61 1.394 . S
C61 H56 0.929 . S
C61 C60 1.394 . S
C61 C62 1.382 . S
C62 C61 1.382 . S
C62 C63 1.392 . S
C62 N64 1.420 . S
C63 H57 0.930 . S
C63 C59 1.407 . S
C63 C62 1.392 . S
N64 C62 1.420 . S
N64 C65 1.244 . S
C65 N64 1.244 . S
H66 C69 0.929 . S
H67 C72 0.929 . S
H68 C74 0.930 . S
C69 H66 0.929 . S
C69 C70 1.398 . S
C69 C71 1.396 . S
C70 C69 1.398 . S
C70 C74 1.407 . S
C71 C69 1.396 . S
C71 C72 1.394 . S
C72 H67 0.929 . S
C72 C71 1.394 . S
C72 C73 1.382 . S
C73 C72 1.382 . S
C73 C74 1.392 . S
C73 N75 1.420 . S
C74 H68 0.930 . S
C74 C70 1.407 . S
C74 C73 1.392 . S
N75 C73 1.420 . S
N75 C76 1.244 . S
C76 N75 1.244 . S
H77 C80 0.929 . S
H78 C83 0.929 . S
H79 C85 0.930 . S
C80 H77 0.929 . S
C80 C81 1.398 . S
C80 C82 1.396 . S
C81 C80 1.398 . S
C81 C85 1.407 . S
C82 C80 1.396 . S
C82 C83 1.394 . S
C83 H78 0.929 . S
C83 C82 1.394 . S
C83 C84 1.382 . S
C84 C83 1.382 . S
C84 C85 1.392 . S
C84 N86 1.420 . S
C85 H79 0.930 . S
C85 C81 1.407 . S
C85 C84 1.392 . S
N86 C84 1.420 . S
N86 C87 1.244 . S
C87 N86 1.244 . S
H88 C91 0.929 . S
H89 C94 0.929 . S
H90 C96 0.930 . S
C91 H88 0.929 . S
C91 C92 1.398 . S
C91 C93 1.396 . S
C92 C91 1.398 . S
C92 C96 1.407 . S
C93 C91 1.396 . S
C93 C94 1.394 . S
C94 H89 0.929 . S
C94 C93 1.394 . S
C94 C95 1.382 . S
C95 C94 1.382 . S
C95 C96 1.392 . S
C95 N97 1.420 . S
C96 H90 0.930 . S
C96 C92 1.407 . S
C96 C95 1.392 . S
N97 C95 1.420 . S
N97 C98 1.244 . S
C98 N97 1.244 . S
H99 C102 0.929 . S
H100 C105 0.929 . S
H101 C107 0.930 . S
C102 H99 0.929 . S
C102 C103 1.398 . S
C102 C104 1.396 . S
C103 C102 1.398 . S
C103 C107 1.407 . S
C104 C102 1.396 . S
C104 C105 1.394 . S
C105 H100 0.929 . S
C105 C104 1.394 . S
C105 C106 1.382 . S
C106 C105 1.382 . S
C106 C107 1.392 . S
C106 N108 1.420 . S
C107 H101 0.930 . S
C107 C103 1.407 . S
C107 C106 1.392 . S
N108 C106 1.420 . S
N108 C109 1.244 . S
C109 N108 1.244 . S
H110 C113 0.929 . S
H111 C116 0.929 . S
H112 C118 0.930 . S
C113 H110 0.929 . S
C113 C114 1.398 . S
C113 C115 1.396 . S
C114 C113 1.398 . S
C114 C118 1.407 . S
C115 C113 1.396 . S
C115 C116 1.394 . S
C116 H111 0.929 . S
C116 C115 1.394 . S
C116 C117 1.382 . S
C117 C116 1.382 . S
C117 C118 1.392 . S
C117 N119 1.420 . S
C118 H112 0.930 . S
C118 C114 1.407 . S
C118 C117 1.392 . S
N119 C117 1.420 . S
N119 C120 1.244 . S
C120 N119 1.244 . S
H121 C124 0.929 . S
H122 C127 0.929 . S
H123 C129 0.930 . S
C124 H121 0.929 . S
C124 C125 1.398 . S
C124 C126 1.396 . S
C125 C124 1.398 . S
C125 C129 1.407 . S
C126 C124 1.396 . S
C126 C127 1.394 . S
C127 H122 0.929 . S
C127 C126 1.394 . S
C127 C128 1.382 . S
C128 C127 1.382 . S
C128 C129 1.392 . S
C128 N130 1.420 . S
C129 H123 0.930 . S
C129 C125 1.407 . S
C129 C128 1.392 . S
N130 C128 1.420 . S
N130 C131 1.244 . S
C131 N130 1.244 . S
H132 C135 0.929 . S
H133 C138 0.929 . S
H134 C140 0.930 . S
C135 H132 0.929 . S
C135 C136 1.398 . S
C135 C137 1.396 . S
C136 C135 1.398 . S
C136 C140 1.407 . S
C137 C135 1.396 . S
C137 C138 1.394 . S
C138 H133 0.929 . S
C138 C137 1.394 . S
C138 C139 1.382 . S
C139 C138 1.382 . S
C139 C140 1.392 . S
C139 N141 1.420 . S
C140 H134 0.930 . S
C140 C136 1.407 . S
C140 C139 1.392 . S
N141 C139 1.420 . S
N141 C142 1.244 . S
C142 N141 1.244 . S
H143 C146 0.929 . S
H144 C149 0.929 . S
H145 C151 0.930 . S
C146 H143 0.929 . S
C146 C147 1.398 . S
C146 C148 1.396 . S
C147 C146 1.398 . S
C147 C151 1.407 . S
C148 C146 1.396 . S
C148 C149 1.394 . S
C149 H144 0.929 . S
C149 C148 1.394 . S
C149 C150 1.382 . S
C150 C149 1.382 . S
C150 C151 1.392 . S
C150 N152 1.420 . S
C151 H145 0.930 . S
C151 C147 1.407 . S
C151 C150 1.392 . S
N152 C150 1.420 . S
N152 C153 1.244 . S
C153 N152 1.244 . S
H154 C157 0.929 . S
H155 C160 0.929 . S
H156 C162 0.930 . S
C157 H154 0.929 . S
C157 C158 1.398 . S
C157 C159 1.396 . S
C158 C157 1.398 . S
C158 C162 1.407 . S
C159 C157 1.396 . S
C159 C160 1.394 . S
C160 H155 0.929 . S
C160 C159 1.394 . S
C160 C161 1.382 . S
C161 C160 1.382 . S
C161 C162 1.392 . S
C161 N163 1.420 . S
C162 H156 0.930 . S
C162 C158 1.407 . S
C162 C161 1.392 . S
N163 C161 1.420 . S
N163 C164 1.244 . S
C164 N163 1.244 . S
H165 C168 0.929 . S
H166 C171 0.929 . S
H167 C173 0.930 . S
C168 H165 0.929 . S
C168 C169 1.398 . S
C168 C170 1.396 . S
C169 C168 1.398 . S
C169 C173 1.407 . S
C170 C168 1.396 . S
C170 C171 1.394 . S
C171 H166 0.929 . S
C171 C170 1.394 . S
C171 C172 1.382 . S
C172 C171 1.382 . S
C172 C173 1.392 . S
C172 N174 1.420 . S
C173 H167 0.930 . S
C173 C169 1.407 . S
C173 C172 1.392 . S
N174 C172 1.420 . S
N174 C175 1.244 . S
C175 N174 1.244 . S
H176 C179 0.929 . S
H177 C182 0.929 . S
H178 C184 0.930 . S
C179 H176 0.929 . S
C179 C180 1.398 . S
C179 C181 1.396 . S
C180 C179 1.398 . S
C180 C184 1.407 . S
C181 C179 1.396 . S
C181 C182 1.394 . S
C182 H177 0.929 . S
C182 C181 1.394 . S
C182 C183 1.382 . S
C183 C182 1.382 . S
C183 C184 1.392 . S
C183 N185 1.420 . S
C184 H178 0.930 . S
C184 C180 1.407 . S
C184 C183 1.392 . S
N185 C183 1.420 . S
N185 C186 1.244 . S
C186 N185 1.244 . S
H187 C190 0.929 . S
H188 C193 0.929 . S
H189 C195 0.930 . S
C190 H187 0.929 . S
C190 C191 1.398 . S
C190 C192 1.396 . S
C191 C190 1.398 . S
C191 C195 1.407 . S
C192 C190 1.396 . S
C192 C193 1.394 . S
C193 H188 0.929 . S
C193 C192 1.394 . S
C193 C194 1.382 . S
C194 C193 1.382 . S
C194 C195 1.392 . S
C194 N196 1.420 . S
C195 H189 0.930 . S
C195 C191 1.407 . S
C195 C194 1.392 . S
N196 C194 1.420 . S
N196 C197 1.244 . S
C197 N196 1.244 . S
Eu198 N229 2.657 . S
Eu198 N236 2.609 . S
Eu198 O242 2.558 . S
Eu198 O243 2.612 1_566 S
Eu198 O245 2.339 1_565 S
Eu198 O246 2.563 1_565 S
Eu198 O247 2.419 1_565 S
Eu198 O249 2.380 1_556 S
Eu198 O250 2.432 . S
Eu198 C262 2.848 . S
C199 C202 1.429 . S
C199 C203 1.411 . S
C199 N206 1.377 . S
C200 C202 1.420 . S
C200 C204 1.423 . S
C200 C212 1.392 . S
C201 C203 1.420 . S
C201 C204 1.351 . S
C201 H224 0.931 . S
C202 C199 1.429 . S
C202 C200 1.420 . S
C202 N210 1.362 . S
C203 C199 1.411 . S
C203 C201 1.420 . S
C203 C208 1.395 . S
C204 C200 1.423 . S
C204 C201 1.351 . S
C204 H216 0.930 . S
C205 C207 1.400 . S
C205 C208 1.386 . S
C205 H217 0.930 . S
N206 C199 1.377 . S
N206 C207 1.321 . S
N206 Eu209 2.609 . S
C207 C205 1.400 . S
C207 N206 1.321 . S
C207 H214 0.930 . S
C208 C203 1.395 . S
C208 C205 1.386 . S
C208 H227 0.930 . S
Eu209 N206 2.609 . S
Eu209 N210 2.657 . S
Eu209 O243 2.380 . S
Eu209 O244 2.432 . S
Eu209 O248 2.558 . S
Eu209 O249 2.612 1_545 S
Eu209 O251 2.339 1_545 S
Eu209 O252 2.563 1_545 S
Eu209 O253 2.419 1_545 S
Eu209 C273 2.848 . S
N210 C202 1.362 . S
N210 Eu209 2.657 . S
N210 C211 1.334 . S
C211 N210 1.334 . S
C211 C213 1.413 . S
C211 H218 0.929 . S
C212 C200 1.392 . S
C212 C213 1.367 . S
C212 H220 0.930 . S
C213 C211 1.413 . S
C213 C212 1.367 . S
C213 H215 0.930 . S
H214 C207 0.930 . S
H215 C213 0.930 . S
H216 C204 0.930 . S
H217 C205 0.930 . S
H218 C211 0.929 . S
H219 C233 0.930 . S
H220 C212 0.930 . S
H221 C239 0.930 . S
H222 C230 0.929 . S
H223 C237 0.930 . S
H224 C201 0.931 . S
H225 C231 0.930 . S
H226 C264 0.930 . S
H227 C208 0.930 . S
H228 C263 0.931 . S
N229 Eu198 2.657 . S
N229 C230 1.334 . S
N229 C234 1.362 . S
C230 H222 0.929 . S
C230 N229 1.334 . S
C230 C233 1.413 . S
C231 H225 0.930 . S
C231 C232 1.392 . S
C231 C233 1.367 . S
C232 C231 1.392 . S
C232 C234 1.420 . S
C232 C264 1.423 . S
C233 H219 0.930 . S
C233 C230 1.413 . S
C233 C231 1.367 . S
C234 N229 1.362 . S
C234 C232 1.420 . S
C234 C238 1.429 . S
H235 C240 0.930 . S
N236 Eu198 2.609 . S
N236 C238 1.377 . S
N236 C239 1.321 . S
C237 H223 0.930 . S
C237 C239 1.400 . S
C237 C240 1.386 . S
C238 C234 1.429 . S
C238 N236 1.377 . S
C238 C241 1.411 . S
C239 H221 0.930 . S
C239 N236 1.321 . S
C239 C237 1.400 . S
C240 H235 0.930 . S
C240 C237 1.386 . S
C240 C241 1.395 . S
C241 C238 1.411 . S
C241 C240 1.395 . S
C241 C263 1.420 . S
O242 Eu198 2.558 . S
O242 C262 1.257 . S
O243 Eu198 2.612 1_544 S
O243 Eu209 2.380 . S
O243 C254 1.276 1_554 S
O244 Eu209 2.432 . S
O244 C261 1.264 1_554 S
O245 Eu198 2.339 1_545 S
O245 C261 1.254 . S
O246 Eu198 2.563 1_545 S
O246 C254 1.235 . S
O247 Eu198 2.419 1_545 S
O247 C262 1.249 1_545 S
O248 Eu209 2.558 . S
O248 C273 1.257 . S
O249 Eu198 2.380 1_554 S
O249 Eu209 2.612 1_565 S
O249 C265 1.276 . S
O250 Eu198 2.432 . S
O250 C272 1.264 1_556 S
O251 Eu209 2.339 1_565 S
O251 C272 1.254 . S
O252 Eu209 2.563 1_565 S
O252 C265 1.235 . S
O253 Eu209 2.419 1_565 S
O253 C273 1.249 1_565 S
C254 O243 1.276 1_556 S
C254 O246 1.235 . S
C255 C257 1.393 . S
C255 C259 1.395 1_545 S
C255 C262 1.492 1_545 S
C256 C257 1.392 . S
C256 C258 1.386 . S
C257 C255 1.393 . S
C257 C256 1.392 . S
C257 H274 0.930 . S
C258 C256 1.386 . S
C258 C260 1.395 1_545 S
C258 H275 0.930 . S
C259 C255 1.395 1_565 S
C259 C260 1.379 . S
C259 H276 0.930 . S
C260 C258 1.395 1_565 S
C260 C259 1.379 . S
C260 H277 0.930 . S
C261 O244 1.264 1_556 S
C261 O245 1.254 . S
C262 Eu198 2.848 . S
C262 O242 1.257 . S
C262 O247 1.249 1_565 S
C262 C255 1.492 1_565 S
C263 H228 0.931 . S
C263 C241 1.420 . S
C263 C264 1.351 . S
C264 H226 0.930 . S
C264 C232 1.423 . S
C264 C263 1.351 . S
C265 O249 1.276 . S
C265 O252 1.235 . S
C266 C267 1.393 1_545 S
C266 C270 1.395 . S
C266 C273 1.492 . S
C267 C266 1.393 1_565 S
C267 C268 1.392 . S
C267 H278 0.930 . S
C268 C267 1.392 . S
C268 C269 1.386 . S
C269 C268 1.386 . S
C269 C271 1.395 1_565 S
C269 H279 0.930 . S
C270 C266 1.395 . S
C270 C271 1.379 . S
C270 H280 0.930 . S
C271 C269 1.395 1_545 S
C271 C270 1.379 . S
C271 H281 0.930 . S
C272 O250 1.264 1_554 S
C272 O251 1.254 . S
C273 Eu209 2.848 . S
C273 O248 1.257 . S
C273 O253 1.249 1_545 S
C273 C266 1.492 . S
H274 C257 0.930 . S
H275 C258 0.930 . S
H276 C259 0.930 . S
H277 C260 0.930 . S
H278 C267 0.930 . S
H279 C269 0.930 . S
H280 C270 0.930 . S
H281 C271 0.930 . S
Eu282 N313 2.657 . S
Eu282 N320 2.609 . S
Eu282 O326 2.558 . S
Eu282 O327 2.612 1_456 S
Eu282 O329 2.339 1_455 S
Eu282 O330 2.563 1_455 S
Eu282 O331 2.419 1_455 S
Eu282 O333 2.380 1_556 S
Eu282 O334 2.432 . S
Eu282 C346 2.848 . S
C283 C286 1.429 . S
C283 C287 1.411 . S
C283 N290 1.377 . S
C284 C286 1.420 . S
C284 C288 1.423 . S
C284 C296 1.392 . S
C285 C287 1.420 . S
C285 C288 1.351 . S
C285 H308 0.931 . S
C286 C283 1.429 . S
C286 C284 1.420 . S
C286 N294 1.362 . S
C287 C283 1.411 . S
C287 C285 1.420 . S
C287 C292 1.395 . S
C288 C284 1.423 . S
C288 C285 1.351 . S
C288 H300 0.930 . S
C289 C291 1.400 . S
C289 C292 1.386 . S
C289 H301 0.930 . S
N290 C283 1.377 . S
N290 C291 1.321 . S
N290 Eu293 2.609 . S
C291 C289 1.400 . S
C291 N290 1.321 . S
C291 H298 0.930 . S
C292 C287 1.395 . S
C292 C289 1.386 . S
C292 H311 0.930 . S
Eu293 N290 2.609 . S
Eu293 N294 2.657 . S
Eu293 O327 2.380 . S
Eu293 O328 2.432 . S
Eu293 O332 2.558 . S
Eu293 O333 2.612 1_655 S
Eu293 O335 2.339 1_655 S
Eu293 O336 2.563 1_655 S
Eu293 O337 2.419 1_655 S
Eu293 C357 2.848 . S
N294 C286 1.362 . S
N294 Eu293 2.657 . S
N294 C295 1.334 . S
C295 N294 1.334 . S
C295 C297 1.413 . S
C295 H302 0.929 . S
C296 C284 1.392 . S
C296 C297 1.367 . S
C296 H304 0.930 . S
C297 C295 1.413 . S
C297 C296 1.367 . S
C297 H299 0.930 . S
H298 C291 0.930 . S
H299 C297 0.930 . S
H300 C288 0.930 . S
H301 C289 0.930 . S
H302 C295 0.929 . S
H303 C317 0.930 . S
H304 C296 0.930 . S
H305 C323 0.930 . S
H306 C314 0.929 . S
H307 C321 0.930 . S
H308 C285 0.931 . S
H309 C315 0.930 . S
H310 C348 0.930 . S
H311 C292 0.930 . S
H312 C347 0.931 . S
N313 Eu282 2.657 . S
N313 C314 1.334 . S
N313 C318 1.362 . S
C314 H306 0.929 . S
C314 N313 1.334 . S
C314 C317 1.413 . S
C315 H309 0.930 . S
C315 C316 1.392 . S
C315 C317 1.367 . S
C316 C315 1.392 . S
C316 C318 1.420 . S
C316 C348 1.423 . S
C317 H303 0.930 . S
C317 C314 1.413 . S
C317 C315 1.367 . S
C318 N313 1.362 . S
C318 C316 1.420 . S
C318 C322 1.429 . S
H319 C324 0.930 . S
N320 Eu282 2.609 . S
N320 C322 1.377 . S
N320 C323 1.321 . S
C321 H307 0.930 . S
C321 C323 1.400 . S
C321 C324 1.386 . S
C322 C318 1.429 . S
C322 N320 1.377 . S
C322 C325 1.411 . S
C323 H305 0.930 . S
C323 N320 1.321 . S
C323 C321 1.400 . S
C324 H319 0.930 . S
C324 C321 1.386 . S
C324 C325 1.395 . S
C325 C322 1.411 . S
C325 C324 1.395 . S
C325 C347 1.420 . S
O326 Eu282 2.558 . S
O326 C346 1.257 . S
O327 Eu282 2.612 1_654 S
O327 Eu293 2.380 . S
O327 C338 1.276 1_554 S
O328 Eu293 2.432 . S
O328 C345 1.264 1_554 S
O329 Eu282 2.339 1_655 S
O329 C345 1.254 . S
O330 Eu282 2.563 1_655 S
O330 C338 1.235 . S
O331 Eu282 2.419 1_655 S
O331 C346 1.249 1_655 S
O332 Eu293 2.558 . S
O332 C357 1.257 . S
O333 Eu282 2.380 1_554 S
O333 Eu293 2.612 1_455 S
O333 C349 1.276 . S
O334 Eu282 2.432 . S
O334 C356 1.264 1_556 S
O335 Eu293 2.339 1_455 S
O335 C356 1.254 . S
O336 Eu293 2.563 1_455 S
O336 C349 1.235 . S
O337 Eu293 2.419 1_455 S
O337 C357 1.249 1_455 S
C338 O327 1.276 1_556 S
C338 O330 1.235 . S
C339 C341 1.393 1_455 S
C339 C343 1.395 . S
C339 C346 1.492 . S
C340 C341 1.392 . S
C340 C342 1.386 . S
C341 C339 1.393 1_655 S
C341 C340 1.392 . S
C341 H358 0.930 . S
C342 C340 1.386 . S
C342 C344 1.395 1_655 S
C342 H359 0.930 . S
C343 C339 1.395 . S
C343 C344 1.379 . S
C343 H360 0.930 . S
C344 C342 1.395 1_455 S
C344 C343 1.379 . S
C344 H361 0.930 . S
C345 O328 1.264 1_556 S
C345 O329 1.254 . S
C346 Eu282 2.848 . S
C346 O326 1.257 . S
C346 O331 1.249 1_455 S
C346 C339 1.492 . S
C347 H312 0.931 . S
C347 C325 1.420 . S
C347 C348 1.351 . S
C348 H310 0.930 . S
C348 C316 1.423 . S
C348 C347 1.351 . S
C349 O333 1.276 . S
C349 O336 1.235 . S
C350 C351 1.409 . S
C350 C354 1.386 1_455 S
C350 C357 1.486 1_455 S
C351 C350 1.409 . S
C351 C352 1.392 . S
C351 H362 0.930 . S
C352 C351 1.392 . S
C352 C353 1.386 . S
C353 C352 1.386 . S
C353 C355 1.395 1_455 S
C353 H363 0.930 . S
C354 C350 1.386 1_655 S
C354 C355 1.379 . S
C354 H364 0.930 . S
C355 C353 1.395 1_655 S
C355 C354 1.379 . S
C355 H365 0.930 . S
C356 O334 1.264 1_554 S
C356 O335 1.254 . S
C357 Eu293 2.848 . S
C357 O332 1.257 . S
C357 O337 1.249 1_655 S
C357 C350 1.486 1_655 S
H358 C341 0.930 . S
H359 C342 0.930 . S
H360 C343 0.930 . S
H361 C344 0.930 . S
H362 C351 0.930 . S
H363 C353 0.930 . S
H364 C354 0.930 . S
H365 C355 0.930 . S
Eu366 N397 2.657 . S
Eu366 N404 2.609 . S
Eu366 O410 2.558 . S
Eu366 O411 2.612 . S
Eu366 O413 2.339 . S
Eu366 O414 2.563 . S
Eu366 O415 2.419 . S
Eu366 O417 2.380 . S
Eu366 O418 2.432 . S
Eu366 C430 2.848 . S
C367 C370 1.429 . S
C367 C371 1.411 . S
C367 N374 1.377 . S
C368 C370 1.420 . S
C368 C372 1.423 . S
C368 C380 1.392 . S
C369 C371 1.420 . S
C369 C372 1.351 . S
C369 H392 0.931 . S
C370 C367 1.429 . S
C370 C368 1.420 . S
C370 N378 1.362 . S
C371 C367 1.411 . S
C371 C369 1.420 . S
C371 C376 1.395 . S
C372 C368 1.423 . S
C372 C369 1.351 . S
C372 H384 0.930 . S
C373 C375 1.400 . S
C373 C376 1.386 . S
C373 H385 0.930 . S
N374 C367 1.377 . S
N374 C375 1.321 . S
N374 Eu377 2.609 . S
C375 C373 1.400 . S
C375 N374 1.321 . S
C375 H382 0.930 . S
C376 C371 1.395 . S
C376 C373 1.386 . S
C376 H395 0.930 . S
Eu377 N374 2.609 . S
Eu377 N378 2.657 . S
Eu377 O411 2.380 1_556 S
Eu377 O412 2.432 . S
Eu377 O416 2.558 . S
Eu377 O417 2.612 1_556 S
Eu377 O419 2.339 . S
Eu377 O420 2.563 . S
Eu377 O421 2.419 . S
Eu377 C441 2.848 . S
N378 C370 1.362 . S
N378 Eu377 2.657 . S
N378 C379 1.334 . S
C379 N378 1.334 . S
C379 C381 1.413 . S
C379 H386 0.929 . S
C380 C368 1.392 . S
C380 C381 1.367 . S
C380 H388 0.930 . S
C381 C379 1.413 . S
C381 C380 1.367 . S
C381 H383 0.930 . S
H382 C375 0.930 . S
H383 C381 0.930 . S
H384 C372 0.930 . S
H385 C373 0.930 . S
H386 C379 0.929 . S
H387 C401 0.930 . S
H388 C380 0.930 . S
H389 C407 0.930 . S
H390 C398 0.929 . S
H391 C405 0.930 . S
H392 C369 0.931 . S
H393 C399 0.930 . S
H394 C432 0.930 . S
H395 C376 0.930 . S
H396 C431 0.931 . S
N397 Eu366 2.657 . S
N397 C398 1.334 . S
N397 C402 1.362 . S
C398 H390 0.929 . S
C398 N397 1.334 . S
C398 C401 1.413 . S
C399 H393 0.930 . S
C399 C400 1.392 . S
C399 C401 1.367 . S
C400 C399 1.392 . S
C400 C402 1.420 . S
C400 C432 1.423 . S
C401 H387 0.930 . S
C401 C398 1.413 . S
C401 C399 1.367 . S
C402 N397 1.362 . S
C402 C400 1.420 . S
C402 C406 1.429 . S
H403 C408 0.930 . S
N404 Eu366 2.609 . S
N404 C406 1.377 . S
N404 C407 1.321 . S
C405 H391 0.930 . S
C405 C407 1.400 . S
C405 C408 1.386 . S
C406 C402 1.429 . S
C406 N404 1.377 . S
C406 C409 1.411 . S
C407 H389 0.930 . S
C407 N404 1.321 . S
C407 C405 1.400 . S
C408 H403 0.930 . S
C408 C405 1.386 . S
C408 C409 1.395 . S
C409 C406 1.411 . S
C409 C408 1.395 . S
C409 C431 1.420 . S
O410 Eu366 2.558 . S
O410 C430 1.257 . S
O411 Eu366 2.612 . S
O411 Eu377 2.380 1_554 S
O411 C422 1.276 . S
O412 Eu377 2.432 . S
O412 C429 1.264 1_556 S
O413 Eu366 2.339 . S
O413 C429 1.254 . S
O414 Eu366 2.563 . S
O414 C422 1.235 . S
O415 Eu366 2.419 . S
O415 C430 1.249 . S
O416 Eu377 2.558 . S
O416 C441 1.257 . S
O417 Eu366 2.380 . S
O417 Eu377 2.612 1_554 S
O417 C433 1.276 1_554 S
O418 Eu366 2.432 . S
O418 C440 1.264 1_554 S
O419 Eu377 2.339 . S
O419 C440 1.254 . S
O420 Eu377 2.563 . S
O420 C433 1.235 . S
O421 Eu377 2.419 . S
O421 C441 1.249 . S
C422 O411 1.276 . S
C422 O414 1.235 . S
C423 C425 1.393 . S
C423 C427 1.395 . S
C423 C430 1.492 . S
C424 C425 1.392 . S
C424 C426 1.386 . S
C425 C423 1.393 . S
C425 C424 1.392 . S
C425 H442 0.930 . S
C426 C424 1.386 . S
C426 C428 1.395 . S
C426 H443 0.930 . S
C427 C423 1.395 . S
C427 C428 1.379 . S
C427 H444 0.930 . S
C428 C426 1.395 . S
C428 C427 1.379 . S
C428 H445 0.930 . S
C429 O412 1.264 1_554 S
C429 O413 1.254 . S
C430 Eu366 2.848 . S
C430 O410 1.257 . S
C430 O415 1.249 . S
C430 C423 1.492 . S
C431 H396 0.931 . S
C431 C409 1.420 . S
C431 C432 1.351 . S
C432 H394 0.930 . S
C432 C400 1.423 . S
C432 C431 1.351 . S
C433 O417 1.276 1_556 S
C433 O420 1.235 . S
C434 C435 1.393 . S
C434 C438 1.395 . S
C434 C441 1.492 . S
C435 C434 1.393 . S
C435 C436 1.392 . S
C435 H446 0.930 . S
C436 C435 1.392 . S
C436 C437 1.386 . S
C437 C436 1.386 . S
C437 C439 1.395 . S
C437 H447 0.930 . S
C438 C434 1.395 . S
C438 C439 1.379 . S
C438 H448 0.930 . S
C439 C437 1.395 . S
C439 C438 1.379 . S
C439 H449 0.930 . S
C440 O418 1.264 1_556 S
C440 O419 1.254 . S
C441 Eu377 2.848 . S
C441 O416 1.257 . S
C441 O421 1.249 . S
C441 C434 1.492 . S
H442 C425 0.930 . S
H443 C426 0.930 . S
H444 C427 0.930 . S
H445 C428 0.930 . S
H446 C435 0.930 . S
H447 C437 0.930 . S
H448 C438 0.930 . S
H449 C439 0.930 . S
Eu450 N481 2.657 . S
Eu450 N488 2.609 . S
Eu450 O494 2.558 . S
Eu450 O495 2.612 . S
Eu450 O497 2.339 . S
Eu450 O498 2.563 . S
Eu450 O499 2.419 . S
Eu450 O501 2.380 . S
Eu450 O502 2.432 . S
Eu450 C514 2.848 . S
C451 C454 1.429 . S
C451 C455 1.411 . S
C451 N458 1.377 . S
C452 C454 1.420 . S
C452 C456 1.423 . S
C452 C464 1.392 . S
C453 C455 1.420 . S
C453 C456 1.351 . S
C453 H476 0.931 . S
C454 C451 1.429 . S
C454 C452 1.420 . S
C454 N462 1.362 . S
C455 C451 1.411 . S
C455 C453 1.420 . S
C455 C460 1.395 . S
C456 C452 1.423 . S
C456 C453 1.351 . S
C456 H468 0.930 . S
C457 C459 1.400 . S
C457 C460 1.386 . S
C457 H469 0.930 . S
N458 C451 1.377 . S
N458 C459 1.321 . S
N458 Eu461 2.609 . S
C459 C457 1.400 . S
C459 N458 1.321 . S
C459 H466 0.930 . S
C460 C455 1.395 . S
C460 C457 1.386 . S
C460 H479 0.930 . S
Eu461 N458 2.609 . S
Eu461 N462 2.657 . S
Eu461 O495 2.380 . S
Eu461 O496 2.432 . S
Eu461 O500 2.558 . S
Eu461 O501 2.612 . S
Eu461 O503 2.339 . S
Eu461 O504 2.563 . S
Eu461 O505 2.419 . S
Eu461 C525 2.848 . S
N462 C454 1.362 . S
N462 Eu461 2.657 . S
N462 C463 1.334 . S
C463 N462 1.334 . S
C463 C465 1.413 . S
C463 H470 0.929 . S
C464 C452 1.392 . S
C464 C465 1.367 . S
C464 H472 0.930 . S
C465 C463 1.413 . S
C465 C464 1.367 . S
C465 H467 0.930 . S
H466 C459 0.930 . S
H467 C465 0.930 . S
H468 C456 0.930 . S
H469 C457 0.930 . S
H470 C463 0.929 . S
H471 C485 0.930 . S
H472 C464 0.930 . S
H473 C491 0.930 . S
H474 C482 0.929 . S
H475 C489 0.930 . S
H476 C453 0.931 . S
H477 C483 0.930 . S
H478 C516 0.930 . S
H479 C460 0.930 . S
H480 C515 0.931 . S
N481 Eu450 2.657 . S
N481 C482 1.334 . S
N481 C486 1.362 . S
C482 H474 0.929 . S
C482 N481 1.334 . S
C482 C485 1.413 1_455 S
C483 H477 0.930 . S
C483 C484 1.392 . S
C483 C485 1.367 . S
C484 C483 1.392 . S
C484 C486 1.420 1_655 S
C484 C516 1.423 . S
C485 H471 0.930 . S
C485 C482 1.413 1_655 S
C485 C483 1.367 . S
C486 N481 1.362 . S
C486 C484 1.420 1_455 S
C486 C490 1.429 . S
H487 C492 0.930 . S
N488 Eu450 2.609 . S
N488 C490 1.377 . S
N488 C491 1.321 . S
C489 H475 0.930 . S
C489 C491 1.400 . S
C489 C492 1.386 . S
C490 C486 1.429 . S
C490 N488 1.377 . S
C490 C493 1.411 . S
C491 H473 0.930 . S
C491 N488 1.321 . S
C491 C489 1.400 . S
C492 H487 0.930 . S
C492 C489 1.386 . S
C492 C493 1.395 . S
C493 C490 1.411 . S
C493 C492 1.395 . S
C493 C515 1.420 1_455 S
O494 Eu450 2.558 . S
O494 C514 1.257 . S
O495 Eu450 2.612 . S
O495 Eu461 2.380 . S
O495 C506 1.276 . S
O496 Eu461 2.432 . S
O496 C513 1.264 . S
O497 Eu450 2.339 . S
O497 C513 1.254 . S
O498 Eu450 2.563 . S
O498 C506 1.235 . S
O499 Eu450 2.419 . S
O499 C514 1.249 . S
O500 Eu461 2.558 . S
O500 C525 1.257 . S
O501 Eu450 2.380 . S
O501 Eu461 2.612 . S
O501 C517 1.276 . S
O502 Eu450 2.432 . S
O502 C524 1.264 . S
O503 Eu461 2.339 . S
O503 C524 1.254 . S
O504 Eu461 2.563 . S
O504 C517 1.235 . S
O505 Eu461 2.419 . S
O505 C525 1.249 . S
C506 O495 1.276 . S
C506 O498 1.235 . S
C507 C509 1.393 . S
C507 C511 1.395 . S
C507 C514 1.492 . S
C508 C509 1.392 . S
C508 C510 1.386 . S
C509 C507 1.393 . S
C509 C508 1.392 . S
C509 H526 0.930 . S
C510 C508 1.386 . S
C510 C512 1.395 . S
C510 H527 0.930 . S
C511 C507 1.395 . S
C511 C512 1.379 . S
C511 H528 0.930 . S
C512 C510 1.395 . S
C512 C511 1.379 . S
C512 H529 0.930 . S
C513 O496 1.264 . S
C513 O497 1.254 . S
C514 Eu450 2.848 . S
C514 O494 1.257 . S
C514 O499 1.249 . S
C514 C507 1.492 . S
C515 H480 0.931 . S
C515 C493 1.420 1_655 S
C515 C516 1.351 . S
C516 H478 0.930 . S
C516 C484 1.423 . S
C516 C515 1.351 . S
C517 O501 1.276 . S
C517 O504 1.235 . S
C518 C519 1.393 . S
C518 C522 1.395 . S
C518 C525 1.492 . S
C519 C518 1.393 . S
C519 C520 1.392 . S
C519 H530 0.930 . S
C520 C519 1.392 . S
C520 C521 1.386 . S
C521 C520 1.386 . S
C521 C523 1.395 . S
C521 H531 0.930 . S
C522 C518 1.395 . S
C522 C523 1.379 . S
C522 H532 0.930 . S
C523 C521 1.395 . S
C523 C522 1.379 . S
C523 H533 0.930 . S
C524 O502 1.264 . S
C524 O503 1.254 . S
C525 Eu461 2.848 . S
C525 O500 1.257 . S
C525 O505 1.249 . S
C525 C518 1.492 . S
H526 C509 0.930 . S
H527 C510 0.930 . S
H528 C511 0.930 . S
H529 C512 0.930 . S
H530 C519 0.930 . S
H531 C521 0.930 . S
H532 C522 0.930 . S
H533 C523 0.930 . S
Eu534 N565 2.657 . S
Eu534 N572 2.609 . S
Eu534 O578 2.558 . S
Eu534 O579 2.612 . S
Eu534 O581 2.339 . S
Eu534 O582 2.563 . S
Eu534 O583 2.419 . S
Eu534 O585 2.380 . S
Eu534 O586 2.432 . S
Eu534 C598 2.848 . S
C535 C538 1.429 . S
C535 C539 1.411 . S
C535 N542 1.377 . S
C536 C538 1.420 . S
C536 C540 1.423 . S
C536 C548 1.392 . S
C537 C539 1.420 . S
C537 C540 1.351 . S
C537 H560 0.931 . S
C538 C535 1.429 . S
C538 C536 1.420 . S
C538 N546 1.362 . S
C539 C535 1.411 . S
C539 C537 1.420 . S
C539 C544 1.395 . S
C540 C536 1.423 . S
C540 C537 1.351 . S
C540 H552 0.930 . S
C541 C543 1.400 . S
C541 C544 1.386 . S
C541 H553 0.930 . S
N542 C535 1.377 . S
N542 C543 1.321 . S
N542 Eu545 2.609 . S
C543 C541 1.400 . S
C543 N542 1.321 . S
C543 H550 0.930 . S
C544 C539 1.395 . S
C544 C541 1.386 . S
C544 H563 0.930 . S
Eu545 N542 2.609 . S
Eu545 N546 2.657 . S
Eu545 O579 2.380 . S
Eu545 O580 2.432 . S
Eu545 O584 2.558 . S
Eu545 O585 2.612 . S
Eu545 O587 2.339 . S
Eu545 O588 2.563 . S
Eu545 O589 2.419 . S
Eu545 C609 2.848 . S
N546 C538 1.362 . S
N546 Eu545 2.657 . S
N546 C547 1.334 . S
C547 N546 1.334 . S
C547 C549 1.413 . S
C547 H554 0.929 . S
C548 C536 1.392 . S
C548 C549 1.367 . S
C548 H556 0.930 . S
C549 C547 1.413 . S
C549 C548 1.367 . S
C549 H551 0.930 . S
H550 C543 0.930 . S
H551 C549 0.930 . S
H552 C540 0.930 . S
H553 C541 0.930 . S
H554 C547 0.929 . S
H555 C569 0.930 . S
H556 C548 0.930 . S
H557 C575 0.930 . S
H558 C566 0.929 . S
H559 C573 0.930 . S
H560 C537 0.931 . S
H561 C567 0.930 . S
H562 C600 0.930 . S
H563 C544 0.930 . S
H564 C599 0.931 . S
N565 Eu534 2.657 . S
N565 C566 1.334 . S
N565 C570 1.362 . S
C566 H558 0.929 . S
C566 N565 1.334 . S
C566 C569 1.413 . S
C567 H561 0.930 . S
C567 C568 1.392 . S
C567 C569 1.367 . S
C568 C567 1.392 . S
C568 C570 1.420 . S
C568 C600 1.423 . S
C569 H555 0.930 . S
C569 C566 1.413 . S
C569 C567 1.367 . S
C570 N565 1.362 . S
C570 C568 1.420 . S
C570 C574 1.429 . S
H571 C576 0.930 . S
N572 Eu534 2.609 . S
N572 C574 1.377 . S
N572 C575 1.321 . S
C573 H559 0.930 . S
C573 C575 1.400 . S
C573 C576 1.386 . S
C574 C570 1.429 . S
C574 N572 1.377 . S
C574 C577 1.411 . S
C575 H557 0.930 . S
C575 N572 1.321 . S
C575 C573 1.400 . S
C576 H571 0.930 . S
C576 C573 1.386 . S
C576 C577 1.395 . S
C577 C574 1.411 . S
C577 C576 1.395 . S
C577 C599 1.420 . S
O578 Eu534 2.558 . S
O578 C598 1.257 . S
O579 Eu534 2.612 . S
O579 Eu545 2.380 . S
O579 C590 1.276 . S
O580 Eu545 2.432 . S
O580 C597 1.264 . S
O581 Eu534 2.339 . S
O581 C597 1.254 . S
O582 Eu534 2.563 . S
O582 C590 1.235 . S
O583 Eu534 2.419 . S
O583 C598 1.249 . S
O584 Eu545 2.558 . S
O584 C609 1.257 . S
O585 Eu534 2.380 . S
O585 Eu545 2.612 . S
O585 C601 1.276 . S
O586 Eu534 2.432 . S
O586 C608 1.264 . S
O587 Eu545 2.339 . S
O587 C608 1.254 . S
O588 Eu545 2.563 . S
O588 C601 1.235 . S
O589 Eu545 2.419 . S
O589 C609 1.249 . S
C590 O579 1.276 . S
C590 O582 1.235 . S
C591 C593 1.393 . S
C591 C595 1.395 . S
C591 C598 1.492 . S
C592 C593 1.392 . S
C592 C594 1.386 . S
C593 C591 1.393 . S
C593 C592 1.392 . S
C593 H610 0.930 . S
C594 C592 1.386 . S
C594 C596 1.395 . S
C594 H611 0.930 . S
C595 C591 1.395 . S
C595 C596 1.379 . S
C595 H612 0.930 . S
C596 C594 1.395 . S
C596 C595 1.379 . S
C596 H613 0.930 . S
C597 O580 1.264 . S
C597 O581 1.254 . S
C598 Eu534 2.848 . S
C598 O578 1.257 . S
C598 O583 1.249 . S
C598 C591 1.492 . S
C599 H564 0.931 . S
C599 C577 1.420 . S
C599 C600 1.351 . S
C600 H562 0.930 . S
C600 C568 1.423 . S
C600 C599 1.351 . S
C601 O585 1.276 . S
C601 O588 1.235 . S
C602 C603 1.393 . S
C602 C606 1.395 . S
C602 C609 1.492 . S
C603 C602 1.393 . S
C603 C604 1.392 . S
C603 H614 0.930 . S
C604 C603 1.392 . S
C604 C605 1.386 . S
C605 C604 1.386 . S
C605 C607 1.395 . S
C605 H615 0.930 . S
C606 C602 1.395 . S
C606 C607 1.379 . S
C606 H616 0.930 . S
C607 C605 1.395 . S
C607 C606 1.379 . S
C607 H617 0.930 . S
C608 O586 1.264 . S
C608 O587 1.254 . S
C609 Eu545 2.848 . S
C609 O584 1.257 . S
C609 O589 1.249 . S
C609 C602 1.492 . S
H610 C593 0.930 . S
H611 C594 0.930 . S
H612 C595 0.930 . S
H613 C596 0.930 . S
H614 C603 0.930 . S
H615 C605 0.930 . S
H616 C606 0.930 . S
H617 C607 0.930 . S
Eu618 N649 2.657 . S
Eu618 N656 2.609 . S
Eu618 O662 2.558 . S
Eu618 O663 2.612 . S
Eu618 O665 2.339 . S
Eu618 O666 2.563 . S
Eu618 O667 2.419 . S
Eu618 O669 2.380 . S
Eu618 O670 2.432 . S
Eu618 C682 2.848 . S
C619 C622 1.429 . S
C619 C623 1.411 . S
C619 N626 1.377 . S
C620 C622 1.420 . S
C620 C624 1.423 . S
C620 C632 1.392 . S
C621 C623 1.420 . S
C621 C624 1.351 . S
C621 H644 0.931 . S
C622 C619 1.429 . S
C622 C620 1.420 . S
C622 N630 1.362 . S
C623 C619 1.411 . S
C623 C621 1.420 . S
C623 C628 1.395 . S
C624 C620 1.423 . S
C624 C621 1.351 . S
C624 H636 0.930 . S
C625 C627 1.400 . S
C625 C628 1.386 . S
C625 H637 0.930 . S
N626 C619 1.377 . S
N626 C627 1.321 . S
N626 Eu629 2.609 . S
C627 C625 1.400 . S
C627 N626 1.321 . S
C627 H634 0.930 . S
C628 C623 1.395 . S
C628 C625 1.386 . S
C628 H647 0.930 . S
Eu629 N626 2.609 . S
Eu629 N630 2.657 . S
Eu629 O663 2.380 . S
Eu629 O664 2.432 . S
Eu629 O668 2.558 . S
Eu629 O669 2.612 . S
Eu629 O671 2.339 . S
Eu629 O672 2.563 . S
Eu629 O673 2.419 . S
Eu629 C693 2.848 . S
N630 C622 1.362 . S
N630 Eu629 2.657 . S
N630 C631 1.334 . S
C631 N630 1.334 . S
C631 C633 1.413 . S
C631 H638 0.929 . S
C632 C620 1.392 . S
C632 C633 1.367 . S
C632 H640 0.930 . S
C633 C631 1.413 . S
C633 C632 1.367 . S
C633 H635 0.930 . S
H634 C627 0.930 . S
H635 C633 0.930 . S
H636 C624 0.930 . S
H637 C625 0.930 . S
H638 C631 0.929 . S
H639 C653 0.930 . S
H640 C632 0.930 . S
H641 C659 0.930 . S
H642 C650 0.929 . S
H643 C657 0.930 . S
H644 C621 0.931 . S
H645 C651 0.930 . S
H646 C684 0.930 . S
H647 C628 0.930 . S
H648 C683 0.931 . S
N649 Eu618 2.657 . S
N649 C650 1.334 . S
N649 C654 1.362 . S
C650 H642 0.929 . S
C650 N649 1.334 . S
C650 C653 1.413 . S
C651 H645 0.930 . S
C651 C652 1.392 . S
C651 C653 1.367 . S
C652 C651 1.392 . S
C652 C654 1.420 . S
C652 C684 1.423 . S
C653 H639 0.930 . S
C653 C650 1.413 . S
C653 C651 1.367 . S
C654 N649 1.362 . S
C654 C652 1.420 . S
C654 C658 1.429 . S
H655 C660 0.930 . S
N656 Eu618 2.609 . S
N656 C658 1.377 . S
N656 C659 1.321 . S
C657 H643 0.930 . S
C657 C659 1.400 . S
C657 C660 1.386 . S
C658 C654 1.429 . S
C658 N656 1.377 . S
C658 C661 1.411 . S
C659 H641 0.930 . S
C659 N656 1.321 . S
C659 C657 1.400 . S
C660 H655 0.930 . S
C660 C657 1.386 . S
C660 C661 1.395 . S
C661 C658 1.411 . S
C661 C660 1.395 . S
C661 C683 1.420 . S
O662 Eu618 2.558 . S
O662 C682 1.257 . S
O663 Eu618 2.612 . S
O663 Eu629 2.380 . S
O663 C674 1.276 . S
O664 Eu629 2.432 . S
O664 C681 1.264 . S
O665 Eu618 2.339 . S
O665 C681 1.254 . S
O666 Eu618 2.563 . S
O666 C674 1.235 . S
O667 Eu618 2.419 . S
O667 C682 1.249 . S
O668 Eu629 2.558 . S
O668 C693 1.257 . S
O669 Eu618 2.380 . S
O669 Eu629 2.612 . S
O669 C685 1.276 . S
O670 Eu618 2.432 . S
O670 C692 1.264 . S
O671 Eu629 2.339 . S
O671 C692 1.254 . S
O672 Eu629 2.563 . S
O672 C685 1.235 . S
O673 Eu629 2.419 . S
O673 C693 1.249 . S
C674 O663 1.276 . S
C674 O666 1.235 . S
C675 C677 1.393 . S
C675 C679 1.395 . S
C675 C682 1.492 . S
C676 C677 1.392 . S
C676 C678 1.386 . S
C677 C675 1.393 . S
C677 C676 1.392 . S
C677 H694 0.930 . S
C678 C676 1.386 . S
C678 C680 1.395 . S
C678 H695 0.930 . S
C679 C675 1.395 . S
C679 C680 1.379 . S
C679 H696 0.930 . S
C680 C678 1.395 . S
C680 C679 1.379 . S
C680 H697 0.930 . S
C681 O664 1.264 . S
C681 O665 1.254 . S
C682 Eu618 2.848 . S
C682 O662 1.257 . S
C682 O667 1.249 . S
C682 C675 1.492 . S
C683 H648 0.931 . S
C683 C661 1.420 . S
C683 C684 1.351 . S
C684 H646 0.930 . S
C684 C652 1.423 . S
C684 C683 1.351 . S
C685 O669 1.276 . S
C685 O672 1.235 . S
C686 C687 1.393 . S
C686 C690 1.395 . S
C686 C693 1.492 . S
C687 C686 1.393 . S
C687 C688 1.392 . S
C687 H698 0.930 . S
C688 C687 1.392 . S
C688 C689 1.386 . S
C689 C688 1.386 . S
C689 C691 1.395 . S
C689 H699 0.930 . S
C690 C686 1.395 . S
C690 C691 1.379 . S
C690 H700 0.930 . S
C691 C689 1.395 . S
C691 C690 1.379 . S
C691 H701 0.930 . S
C692 O670 1.264 . S
C692 O671 1.254 . S
C693 Eu629 2.848 . S
C693 O668 1.257 . S
C693 O673 1.249 . S
C693 C686 1.492 . S
H694 C677 0.930 . S
H695 C678 0.930 . S
H696 C679 0.930 . S
H697 C680 0.930 . S
H698 C687 0.930 . S
H699 C689 0.930 . S
H700 C690 0.930 . S
H701 C691 0.930 . S
Eu702 N733 2.657 . S
Eu702 N740 2.609 . S
Eu702 O746 2.558 . S
Eu702 O747 2.612 . S
Eu702 O749 2.339 . S
Eu702 O750 2.563 . S
Eu702 O751 2.419 . S
Eu702 O753 2.380 . S
Eu702 O754 2.432 . S
Eu702 C766 2.848 . S
C703 C706 1.429 . S
C703 C707 1.411 . S
C703 N710 1.377 . S
C704 C706 1.420 . S
C704 C708 1.423 . S
C704 C716 1.392 . S
C705 C707 1.420 . S
C705 C708 1.351 . S
C705 H728 0.931 . S
C706 C703 1.429 . S
C706 C704 1.420 . S
C706 N714 1.362 . S
C707 C703 1.411 . S
C707 C705 1.420 . S
C707 C712 1.395 . S
C708 C704 1.423 . S
C708 C705 1.351 . S
C708 H720 0.930 . S
C709 C711 1.400 . S
C709 C712 1.386 . S
C709 H721 0.930 . S
N710 C703 1.377 . S
N710 C711 1.321 . S
N710 Eu713 2.609 . S
C711 C709 1.400 . S
C711 N710 1.321 . S
C711 H718 0.930 . S
C712 C707 1.395 . S
C712 C709 1.386 . S
C712 H731 0.930 . S
Eu713 N710 2.609 . S
Eu713 N714 2.657 . S
Eu713 O747 2.380 . S
Eu713 O748 2.432 . S
Eu713 O752 2.558 . S
Eu713 O753 2.612 . S
Eu713 O755 2.339 . S
Eu713 O756 2.563 . S
Eu713 O757 2.419 . S
Eu713 C777 2.848 . S
N714 C706 1.362 . S
N714 Eu713 2.657 . S
N714 C715 1.334 . S
C715 N714 1.334 . S
C715 C717 1.413 . S
C715 H722 0.929 . S
C716 C704 1.392 . S
C716 C717 1.367 . S
C716 H724 0.930 . S
C717 C715 1.413 . S
C717 C716 1.367 . S
C717 H719 0.930 . S
H718 C711 0.930 . S
H719 C717 0.930 . S
H720 C708 0.930 . S
H721 C709 0.930 . S
H722 C715 0.929 . S
H723 C737 0.930 . S
H724 C716 0.930 . S
H725 C743 0.930 . S
H726 C734 0.929 . S
H727 C741 0.930 . S
H728 C705 0.931 . S
H729 C735 0.930 . S
H730 C768 0.930 . S
H731 C712 0.930 . S
H732 C767 0.931 . S
N733 Eu702 2.657 . S
N733 C734 1.334 . S
N733 C738 1.362 . S
C734 H726 0.929 . S
C734 N733 1.334 . S
C734 C737 1.413 . S
C735 H729 0.930 . S
C735 C736 1.392 . S
C735 C737 1.367 . S
C736 C735 1.392 . S
C736 C738 1.420 . S
C736 C768 1.423 . S
C737 H723 0.930 . S
C737 C734 1.413 . S
C737 C735 1.367 . S
C738 N733 1.362 . S
C738 C736 1.420 . S
C738 C742 1.429 . S
H739 C744 0.930 . S
N740 Eu702 2.609 . S
N740 C742 1.377 . S
N740 C743 1.321 . S
C741 H727 0.930 . S
C741 C743 1.400 . S
C741 C744 1.386 . S
C742 C738 1.429 . S
C742 N740 1.377 . S
C742 C745 1.411 . S
C743 H725 0.930 . S
C743 N740 1.321 . S
C743 C741 1.400 . S
C744 H739 0.930 . S
C744 C741 1.386 . S
C744 C745 1.395 . S
C745 C742 1.411 . S
C745 C744 1.395 . S
C745 C767 1.420 . S
O746 Eu702 2.558 . S
O746 C766 1.257 . S
O747 Eu702 2.612 . S
O747 Eu713 2.380 . S
O747 C758 1.276 . S
O748 Eu713 2.432 . S
O748 C765 1.264 . S
O749 Eu702 2.339 . S
O749 C765 1.254 . S
O750 Eu702 2.563 . S
O750 C758 1.235 . S
O751 Eu702 2.419 . S
O751 C766 1.249 . S
O752 Eu713 2.558 . S
O752 C777 1.257 . S
O753 Eu702 2.380 . S
O753 Eu713 2.612 . S
O753 C769 1.276 . S
O754 Eu702 2.432 . S
O754 C776 1.264 . S
O755 Eu713 2.339 . S
O755 C776 1.254 . S
O756 Eu713 2.563 . S
O756 C769 1.235 . S
O757 Eu713 2.419 . S
O757 C777 1.249 . S
C758 O747 1.276 . S
C758 O750 1.235 . S
C759 C761 1.393 . S
C759 C763 1.395 . S
C759 C766 1.492 . S
C760 C761 1.392 . S
C760 C762 1.386 . S
C761 C759 1.393 . S
C761 C760 1.392 . S
C761 H778 0.930 . S
C762 C760 1.386 . S
C762 C764 1.395 . S
C762 H779 0.930 . S
C763 C759 1.395 . S
C763 C764 1.379 . S
C763 H780 0.930 . S
C764 C762 1.395 . S
C764 C763 1.379 . S
C764 H781 0.930 . S
C765 O748 1.264 . S
C765 O749 1.254 . S
C766 Eu702 2.848 . S
C766 O746 1.257 . S
C766 O751 1.249 . S
C766 C759 1.492 . S
C767 H732 0.931 . S
C767 C745 1.420 . S
C767 C768 1.351 . S
C768 H730 0.930 . S
C768 C736 1.423 . S
C768 C767 1.351 . S
C769 O753 1.276 . S
C769 O756 1.235 . S
C770 C771 1.393 . S
C770 C774 1.395 . S
C770 C777 1.492 . S
C771 C770 1.393 . S
C771 C772 1.392 . S
C771 H782 0.930 . S
C772 C771 1.392 . S
C772 C773 1.386 . S
C773 C772 1.386 . S
C773 C775 1.395 . S
C773 H783 0.930 . S
C774 C770 1.395 . S
C774 C775 1.379 . S
C774 H784 0.930 . S
C775 C773 1.395 . S
C775 C774 1.379 . S
C775 H785 0.930 . S
C776 O754 1.264 . S
C776 O755 1.254 . S
C777 Eu713 2.848 . S
C777 O752 1.257 . S
C777 O757 1.249 . S
C777 C770 1.492 . S
H778 C761 0.930 . S
H779 C762 0.930 . S
H780 C763 0.930 . S
H781 C764 0.930 . S
H782 C771 0.930 . S
H783 C773 0.930 . S
H784 C774 0.930 . S
H785 C775 0.930 . S
Eu786 N817 2.657 . S
Eu786 N824 2.609 . S
Eu786 O830 2.558 . S
Eu786 O831 2.612 . S
Eu786 O833 2.339 . S
Eu786 O834 2.563 . S
Eu786 O835 2.419 . S
Eu786 O837 2.380 . S
Eu786 O838 2.432 . S
Eu786 C850 2.848 . S
C787 C790 1.429 . S
C787 C791 1.411 . S
C787 N794 1.377 . S
C788 C790 1.420 . S
C788 C792 1.423 . S
C788 C800 1.392 . S
C789 C791 1.420 . S
C789 C792 1.351 . S
C789 H812 0.931 . S
C790 C787 1.429 . S
C790 C788 1.420 . S
C790 N798 1.362 . S
C791 C787 1.411 . S
C791 C789 1.420 . S
C791 C796 1.395 . S
C792 C788 1.423 . S
C792 C789 1.351 . S
C792 H804 0.930 . S
C793 C795 1.400 . S
C793 C796 1.386 . S
C793 H805 0.930 . S
N794 C787 1.377 . S
N794 C795 1.321 . S
N794 Eu797 2.609 . S
C795 C793 1.400 . S
C795 N794 1.321 . S
C795 H802 0.930 . S
C796 C791 1.395 . S
C796 C793 1.386 . S
C796 H815 0.930 . S
Eu797 N794 2.609 . S
Eu797 N798 2.657 . S
Eu797 O831 2.380 . S
Eu797 O832 2.432 . S
Eu797 O836 2.558 . S
Eu797 O837 2.612 . S
Eu797 O839 2.339 . S
Eu797 O840 2.563 . S
Eu797 O841 2.419 . S
Eu797 C861 2.848 . S
N798 C790 1.362 . S
N798 Eu797 2.657 . S
N798 C799 1.334 . S
C799 N798 1.334 . S
C799 C801 1.413 . S
C799 H806 0.929 . S
C800 C788 1.392 . S
C800 C801 1.367 . S
C800 H808 0.930 . S
C801 C799 1.413 . S
C801 C800 1.367 . S
C801 H803 0.930 . S
H802 C795 0.930 . S
H803 C801 0.930 . S
H804 C792 0.930 . S
H805 C793 0.930 . S
H806 C799 0.929 . S
H807 C821 0.930 . S
H808 C800 0.930 . S
H809 C827 0.930 . S
H810 C818 0.929 . S
H811 C825 0.930 . S
H812 C789 0.931 . S
H813 C819 0.930 . S
H814 C852 0.930 . S
H815 C796 0.930 . S
H816 C851 0.931 . S
N817 Eu786 2.657 . S
N817 C818 1.334 . S
N817 C822 1.362 . S
C818 H810 0.929 . S
C818 N817 1.334 . S
C818 C821 1.413 . S
C819 H813 0.930 . S
C819 C820 1.392 . S
C819 C821 1.367 . S
C820 C819 1.392 . S
C820 C822 1.420 . S
C820 C852 1.423 . S
C821 H807 0.930 . S
C821 C818 1.413 . S
C821 C819 1.367 . S
C822 N817 1.362 . S
C822 C820 1.420 . S
C822 C826 1.429 . S
H823 C828 0.930 . S
N824 Eu786 2.609 . S
N824 C826 1.377 . S
N824 C827 1.321 . S
C825 H811 0.930 . S
C825 C827 1.400 . S
C825 C828 1.386 . S
C826 C822 1.429 . S
C826 N824 1.377 . S
C826 C829 1.411 . S
C827 H809 0.930 . S
C827 N824 1.321 . S
C827 C825 1.400 . S
C828 H823 0.930 . S
C828 C825 1.386 . S
C828 C829 1.395 . S
C829 C826 1.411 . S
C829 C828 1.395 . S
C829 C851 1.420 . S
O830 Eu786 2.558 . S
O830 C850 1.257 . S
O831 Eu786 2.612 . S
O831 Eu797 2.380 . S
O831 C842 1.276 . S
O832 Eu797 2.432 . S
O832 C849 1.264 . S
O833 Eu786 2.339 . S
O833 C849 1.254 . S
O834 Eu786 2.563 . S
O834 C842 1.235 . S
O835 Eu786 2.419 . S
O835 C850 1.249 . S
O836 Eu797 2.558 . S
O836 C861 1.257 . S
O837 Eu786 2.380 . S
O837 Eu797 2.612 . S
O837 C853 1.276 . S
O838 Eu786 2.432 . S
O838 C860 1.264 . S
O839 Eu797 2.339 . S
O839 C860 1.254 . S
O840 Eu797 2.563 . S
O840 C853 1.235 . S
O841 Eu797 2.419 . S
O841 C861 1.249 . S
C842 O831 1.276 . S
C842 O834 1.235 . S
C843 C845 1.393 . S
C843 C847 1.395 . S
C843 C850 1.492 . S
C844 C845 1.392 . S
C844 C846 1.386 . S
C845 C843 1.393 . S
C845 C844 1.392 . S
C845 H862 0.930 . S
C846 C844 1.386 . S
C846 C848 1.395 . S
C846 H863 0.930 . S
C847 C843 1.395 . S
C847 C848 1.379 . S
C847 H864 0.930 . S
C848 C846 1.395 . S
C848 C847 1.379 . S
C848 H865 0.930 . S
C849 O832 1.264 . S
C849 O833 1.254 . S
C850 Eu786 2.848 . S
C850 O830 1.257 . S
C850 O835 1.249 . S
C850 C843 1.492 . S
C851 H816 0.931 . S
C851 C829 1.420 . S
C851 C852 1.351 . S
C852 H814 0.930 . S
C852 C820 1.423 . S
C852 C851 1.351 . S
C853 O837 1.276 . S
C853 O840 1.235 . S
C854 C855 1.393 . S
C854 C858 1.395 . S
C854 C861 1.492 . S
C855 C854 1.393 . S
C855 C856 1.392 . S
C855 H866 0.930 . S
C856 C855 1.392 . S
C856 C857 1.386 . S
C857 C856 1.386 . S
C857 C859 1.395 . S
C857 H867 0.930 . S
C858 C854 1.395 . S
C858 C859 1.379 . S
C858 H868 0.930 . S
C859 C857 1.395 . S
C859 C858 1.379 . S
C859 H869 0.930 . S
C860 O838 1.264 . S
C860 O839 1.254 . S
C861 Eu797 2.848 . S
C861 O836 1.257 . S
C861 O841 1.249 . S
C861 C854 1.492 . S
H862 C845 0.930 . S
H863 C846 0.930 . S
H864 C847 0.930 . S
H865 C848 0.930 . S
H866 C855 0.930 . S
H867 C857 0.930 . S
H868 C858 0.930 . S
H869 C859 0.930 . S
Eu870 N901 2.657 . S
Eu870 N908 2.609 . S
Eu870 O914 2.558 . S
Eu870 O915 2.612 . S
Eu870 O917 2.339 . S
Eu870 O918 2.563 . S
Eu870 O919 2.419 . S
Eu870 O921 2.380 . S
Eu870 O922 2.432 . S
Eu870 C934 2.848 . S
C871 C874 1.429 . S
C871 C875 1.411 . S
C871 N878 1.377 . S
C872 C874 1.420 . S
C872 C876 1.423 . S
C872 C884 1.392 . S
C873 C875 1.420 . S
C873 C876 1.351 . S
C873 H896 0.931 . S
C874 C871 1.429 . S
C874 C872 1.420 . S
C874 N882 1.362 . S
C875 C871 1.411 . S
C875 C873 1.420 . S
C875 C880 1.395 . S
C876 C872 1.423 . S
C876 C873 1.351 . S
C876 H888 0.930 . S
C877 C879 1.400 . S
C877 C880 1.386 . S
C877 H889 0.930 . S
N878 C871 1.377 . S
N878 C879 1.321 . S
N878 Eu881 2.609 . S
C879 C877 1.400 . S
C879 N878 1.321 . S
C879 H886 0.930 . S
C880 C875 1.395 . S
C880 C877 1.386 . S
C880 H899 0.930 . S
Eu881 N878 2.609 . S
Eu881 N882 2.657 . S
Eu881 O915 2.380 . S
Eu881 O916 2.432 . S
Eu881 O920 2.558 . S
Eu881 O921 2.612 . S
Eu881 O923 2.339 . S
Eu881 O924 2.563 . S
Eu881 O925 2.419 . S
Eu881 C945 2.848 . S
N882 C874 1.362 . S
N882 Eu881 2.657 . S
N882 C883 1.334 . S
C883 N882 1.334 . S
C883 C885 1.413 . S
C883 H890 0.929 . S
C884 C872 1.392 . S
C884 C885 1.367 . S
C884 H892 0.930 . S
C885 C883 1.413 . S
C885 C884 1.367 . S
C885 H887 0.930 . S
H886 C879 0.930 . S
H887 C885 0.930 . S
H888 C876 0.930 . S
H889 C877 0.930 . S
H890 C883 0.929 . S
H891 C905 0.930 . S
H892 C884 0.930 . S
H893 C911 0.930 . S
H894 C902 0.929 . S
H895 C909 0.930 . S
H896 C873 0.931 . S
H897 C903 0.930 . S
H898 C936 0.930 . S
H899 C880 0.930 . S
H900 C935 0.931 . S
N901 Eu870 2.657 . S
N901 C902 1.334 . S
N901 C906 1.362 . S
C902 H894 0.929 . S
C902 N901 1.334 . S
C902 C905 1.413 1_655 S
C903 H897 0.930 . S
C903 C904 1.392 . S
C903 C905 1.367 . S
C904 C903 1.392 . S
C904 C906 1.420 1_455 S
C904 C936 1.423 . S
C905 H891 0.930 . S
C905 C902 1.413 1_455 S
C905 C903 1.367 . S
C906 N901 1.362 . S
C906 C904 1.420 1_655 S
C906 C910 1.429 . S
H907 C912 0.930 . S
N908 Eu870 2.609 . S
N908 C910 1.377 . S
N908 C911 1.321 . S
C909 H895 0.930 . S
C909 C911 1.400 . S
C909 C912 1.386 . S
C910 C906 1.429 . S
C910 N908 1.377 . S
C910 C913 1.411 . S
C911 H893 0.930 . S
C911 N908 1.321 . S
C911 C909 1.400 . S
C912 H907 0.930 . S
C912 C909 1.386 . S
C912 C913 1.395 . S
C913 C910 1.411 . S
C913 C912 1.395 . S
C913 C935 1.420 1_655 S
O914 Eu870 2.558 . S
O914 C934 1.257 . S
O915 Eu870 2.612 . S
O915 Eu881 2.380 . S
O915 C926 1.276 . S
O916 Eu881 2.432 . S
O916 C933 1.264 . S
O917 Eu870 2.339 . S
O917 C933 1.254 . S
O918 Eu870 2.563 . S
O918 C926 1.235 . S
O919 Eu870 2.419 . S
O919 C934 1.249 . S
O920 Eu881 2.558 . S
O920 C945 1.257 . S
O921 Eu870 2.380 . S
O921 Eu881 2.612 . S
O921 C937 1.276 . S
O922 Eu870 2.432 . S
O922 C944 1.264 . S
O923 Eu881 2.339 . S
O923 C944 1.254 . S
O924 Eu881 2.563 . S
O924 C937 1.235 . S
O925 Eu881 2.419 . S
O925 C945 1.249 . S
C926 O915 1.276 . S
C926 O918 1.235 . S
C927 C929 1.393 . S
C927 C931 1.395 . S
C927 C934 1.492 . S
C928 C929 1.392 . S
C928 C930 1.386 . S
C929 C927 1.393 . S
C929 C928 1.392 . S
C929 H946 0.930 . S
C930 C928 1.386 . S
C930 C932 1.395 . S
C930 H947 0.930 . S
C931 C927 1.395 . S
C931 C932 1.379 . S
C931 H948 0.930 . S
C932 C930 1.395 . S
C932 C931 1.379 . S
C932 H949 0.930 . S
C933 O916 1.264 . S
C933 O917 1.254 . S
C934 Eu870 2.848 . S
C934 O914 1.257 . S
C934 O919 1.249 . S
C934 C927 1.492 . S
C935 H900 0.931 . S
C935 C913 1.420 1_455 S
C935 C936 1.351 . S
C936 H898 0.930 . S
C936 C904 1.423 . S
C936 C935 1.351 . S
C937 O921 1.276 . S
C937 O924 1.235 . S
C938 C939 1.393 . S
C938 C942 1.395 . S
C938 C945 1.492 . S
C939 C938 1.393 . S
C939 C940 1.392 . S
C939 H950 0.930 . S
C940 C939 1.392 . S
C940 C941 1.386 . S
C941 C940 1.386 . S
C941 C943 1.395 . S
C941 H951 0.930 . S
C942 C938 1.395 . S
C942 C943 1.379 . S
C942 H952 0.930 . S
C943 C941 1.395 . S
C943 C942 1.379 . S
C943 H953 0.930 . S
C944 O922 1.264 . S
C944 O923 1.254 . S
C945 Eu881 2.848 . S
C945 O920 1.257 . S
C945 O925 1.249 . S
C945 C938 1.492 . S
H946 C929 0.930 . S
H947 C930 0.930 . S
H948 C931 0.930 . S
H949 C932 0.930 . S
H950 C939 0.930 . S
H951 C941 0.930 . S
H952 C942 0.930 . S
H953 C943 0.930 . S
C954 C955 1.369 . S
C954 C956 1.419 . S
C954 H958 0.930 . S
C955 C954 1.369 . S
C955 C964 1.429 . S
C956 C954 1.419 . S
C956 C957 1.363 . S
C956 H959 0.929 . S
C957 C956 1.363 . S
C957 C963 1.428 . S
H958 C954 0.930 . S
H959 C956 0.929 . S
S960 N961 1.613 . S
S960 N962 1.610 . S
N961 S960 1.613 . S
N961 C964 1.350 . S
N962 S960 1.610 . S
N962 C963 1.351 . S
C963 C957 1.428 . S
C963 N962 1.351 . S
C963 C964 1.434 . S
C964 C955 1.429 . S
C964 N961 1.350 . S
C964 C963 1.434 . S
C965 C966 1.369 . S
C965 C967 1.419 . S
C965 H969 0.930 . S
C966 C965 1.369 . S
C966 C975 1.429 . S
C967 C965 1.419 . S
C967 C968 1.363 . S
C967 H970 0.929 . S
C968 C967 1.363 . S
C968 C974 1.428 . S
H969 C965 0.930 . S
H970 C967 0.929 . S
S971 N972 1.613 1_556 S
S971 N973 1.610 . S
N972 S971 1.613 1_554 S
N972 C975 1.350 . S
N973 S971 1.610 . S
N973 C974 1.351 1_556 S
C974 C968 1.428 . S
C974 N973 1.351 1_554 S
C974 C975 1.434 . S
C975 C966 1.429 . S
C975 N972 1.350 . S
C975 C974 1.434 . S
C976 C977 1.369 . S
C976 C978 1.419 . S
C976 H980 0.930 . S
C977 C976 1.369 . S
C977 C986 1.429 . S
C978 C976 1.419 . S
C978 C979 1.363 . S
C978 H981 0.937 . S
C979 C978 1.363 . S
C979 C985 1.428 . S
H980 C976 0.930 . S
H981 C978 0.937 . S
S982 N983 1.613 . S
S982 N984 1.610 . S
N983 S982 1.613 . S
N983 C986 1.350 . S
N984 S982 1.610 . S
N984 C985 1.351 . S
C985 C979 1.428 . S
C985 N984 1.351 . S
C985 C986 1.434 . S
C986 C977 1.429 . S
C986 N983 1.350 . S
C986 C985 1.434 . S
C987 C988 1.369 . S
C987 C989 1.419 . S
C987 H991 0.930 . S
C988 C987 1.369 . S
C988 C997 1.429 . S
C989 C987 1.419 . S
C989 C990 1.363 . S
C989 H992 0.929 . S
C990 C989 1.363 . S
C990 C996 1.428 1_556 S
H991 C987 0.930 . S
H992 C989 0.929 . S
S993 N994 1.613 . S
S993 N995 1.610 . S
N994 S993 1.613 . S
N994 C997 1.350 1_554 S
N995 S993 1.610 . S
N995 C996 1.351 . S
C996 C990 1.428 1_554 S
C996 N995 1.351 . S
C996 C997 1.434 1_554 S
C997 C988 1.429 . S
C997 N994 1.350 1_556 S
C997 C996 1.434 1_556 S
C998 C999 1.369 . S
C998 C1000 1.419 . S
C998 H1002 0.930 . S
C999 C998 1.369 . S
C999 C1008 1.429 . S
C1000 C998 1.419 . S
C1000 C1001 1.363 . S
C1000 H1003 0.929 . S
C1001 C1000 1.363 . S
C1001 C1007 1.428 . S
H1002 C998 0.930 . S
H1003 C1000 0.929 . S
S1004 N1005 1.613 1_554 S
S1004 N1006 1.610 . S
N1005 S1004 1.613 1_556 S
N1005 C1008 1.350 . S
N1006 S1004 1.610 . S
N1006 C1007 1.351 1_554 S
C1007 C1001 1.428 . S
C1007 N1006 1.351 1_556 S
C1007 C1008 1.434 . S
C1008 C999 1.429 . S
C1008 N1005 1.350 . S
C1008 C1007 1.434 . S
C1009 C1010 1.369 . S
C1009 C1011 1.419 . S
C1009 H1013 0.930 . S
C1010 C1009 1.369 . S
C1010 C1019 1.429 . S
C1011 C1009 1.419 . S
C1011 C1012 1.363 . S
C1011 H1014 0.929 1_556 S
C1012 C1011 1.363 . S
C1012 C1018 1.428 . S
H1013 C1009 0.930 . S
H1014 C1011 0.929 1_554 S
S1015 N1016 1.613 . S
S1015 N1017 1.610 . S
N1016 S1015 1.613 . S
N1016 C1019 1.350 . S
N1017 S1015 1.610 . S
N1017 C1018 1.351 . S
C1018 C1012 1.428 . S
C1018 N1017 1.351 . S
C1018 C1019 1.434 . S
C1019 C1010 1.429 . S
C1019 N1016 1.350 . S
C1019 C1018 1.434 . S
C1020 C1021 1.369 . S
C1020 C1022 1.419 . S
C1020 H1024 0.930 . S
C1021 C1020 1.369 . S
C1021 C1030 1.429 . S
C1022 C1020 1.419 . S
C1022 C1023 1.363 . S
C1022 H1025 0.929 . S
C1023 C1022 1.363 . S
C1023 C1029 1.428 . S
H1024 C1020 0.930 . S
H1025 C1022 0.929 . S
S1026 N1027 1.613 . S
S1026 N1028 1.610 . S
N1027 S1026 1.613 . S
N1027 C1030 1.350 . S
N1028 S1026 1.610 . S
N1028 C1029 1.351 . S
C1029 C1023 1.428 . S
C1029 N1028 1.351 . S
C1029 C1030 1.434 . S
C1030 C1021 1.429 . S
C1030 N1027 1.350 . S
C1030 C1029 1.434 . S
C1031 C1032 1.369 . S
C1031 C1033 1.419 . S
C1031 H1035 0.930 . S
C1032 C1031 1.369 . S
C1032 C1041 1.429 . S
C1033 C1031 1.419 . S
C1033 C1034 1.363 . S
C1033 H1036 0.929 . S
C1034 C1033 1.363 . S
C1034 C1040 1.428 . S
H1035 C1031 0.930 . S
H1036 C1033 0.929 . S
S1037 N1038 1.613 . S
S1037 N1039 1.610 . S
N1038 S1037 1.613 . S
N1038 C1041 1.350 1_554 S
N1039 S1037 1.610 . S
N1039 C1040 1.351 1_554 S
C1040 C1034 1.428 . S
C1040 N1039 1.351 1_556 S
C1040 C1041 1.434 . S
C1041 C1032 1.429 . S
C1041 N1038 1.350 1_556 S
C1041 C1040 1.434 . S
C1042 C1043 1.369 . S
C1042 C1044 1.419 . S
C1042 H1046 0.930 . S
C1043 C1042 1.369 . S
C1043 C1052 1.429 . S
C1044 C1042 1.419 . S
C1044 C1045 1.363 . S
C1044 H1047 0.929 . S
C1045 C1044 1.363 . S
C1045 C1051 1.428 . S
H1046 C1042 0.930 . S
H1047 C1044 0.929 . S
S1048 N1049 1.613 . S
S1048 N1050 1.610 . S
N1049 S1048 1.613 . S
N1049 C1052 1.350 1_554 S
N1050 S1048 1.610 . S
N1050 C1051 1.351 1_554 S
C1051 C1045 1.428 . S
C1051 N1050 1.351 1_556 S
C1051 C1052 1.434 . S
C1052 C1043 1.429 . S
C1052 N1049 1.350 1_556 S
C1052 C1051 1.434 . S
C1053 C1054 1.369 . S
C1053 C1055 1.419 . S
C1053 H1057 0.930 . S
C1054 C1053 1.369 . S
C1054 C1063 1.429 . S
C1055 C1053 1.419 . S
C1055 C1056 1.363 . S
C1055 H1058 0.929 . S
C1056 C1055 1.363 . S
C1056 C1062 1.428 . S
H1057 C1053 0.930 . S
H1058 C1055 0.929 . S
S1059 N1060 1.613 1_556 S
S1059 N1061 1.610 . S
N1060 S1059 1.613 1_554 S
N1060 C1063 1.350 . S
N1061 S1059 1.610 . S
N1061 C1062 1.351 1_556 S
C1062 C1056 1.428 . S
C1062 N1061 1.351 1_554 S
C1062 C1063 1.434 . S
C1063 C1054 1.429 . S
C1063 N1060 1.350 . S
C1063 C1062 1.434 . S
C1064 C1065 1.369 . S
C1064 C1066 1.419 . S
C1064 H1068 0.930 . S
C1065 C1064 1.369 . S
C1065 C1074 1.429 . S
C1066 C1064 1.419 . S
C1066 C1067 1.363 . S
C1066 H1069 0.929 . S
C1067 C1066 1.363 . S
C1067 C1073 1.428 . S
H1068 C1064 0.930 . S
H1069 C1066 0.929 . S
S1070 N1071 1.613 1_556 S
S1070 N1072 1.610 . S
N1071 S1070 1.613 1_554 S
N1071 C1074 1.350 . S
N1072 S1070 1.610 . S
N1072 C1073 1.351 1_556 S
C1073 C1067 1.428 . S
C1073 N1072 1.351 1_554 S
C1073 C1074 1.434 . S
C1074 C1065 1.429 . S
C1074 N1071 1.350 . S
C1074 C1073 1.434 . S
C1075 C1076 1.369 . S
C1075 C1077 1.419 . S
C1075 H1079 0.930 . S
C1076 C1075 1.369 . S
C1076 C1085 1.429 . S
C1077 C1075 1.419 . S
C1077 C1078 1.363 . S
C1077 H1080 0.929 . S
C1078 C1077 1.363 . S
C1078 C1084 1.428 . S
H1079 C1075 0.930 . S
H1080 C1077 0.929 . S
S1081 N1082 1.634 . S
S1081 N1083 1.617 . S
N1082 S1081 1.634 . S
N1082 C1085 1.350 . S
N1083 S1081 1.617 . S
N1083 C1084 1.351 . S
C1084 C1078 1.428 . S
C1084 N1083 1.351 . S
C1084 C1085 1.434 . S
C1085 C1076 1.429 . S
C1085 N1082 1.350 . S
C1085 C1084 1.434 . S
C1086 C1087 1.369 . S
C1086 C1088 1.419 1_655 S
C1086 H1090 0.930 . S
C1087 C1086 1.369 . S
C1087 C1096 1.429 . S
C1088 C1086 1.419 1_455 S
C1088 C1089 1.363 . S
C1088 H1091 0.929 . S
C1089 C1088 1.363 . S
C1089 C1095 1.428 . S
H1090 C1086 0.930 . S
H1091 C1088 0.929 . S
S1092 N1093 1.613 1_455 S
S1092 N1094 1.610 . S
N1093 S1092 1.613 1_655 S
N1093 C1096 1.350 . S
N1094 S1092 1.610 . S
N1094 C1095 1.351 . S
C1095 C1089 1.428 . S
C1095 N1094 1.351 . S
C1095 C1096 1.434 1_455 S
C1096 C1087 1.429 . S
C1096 N1093 1.350 . S
C1096 C1095 1.434 1_655 S
C1097 C1098 1.369 . S
C1097 C1099 1.419 . S
C1097 H1101 0.930 . S
C1098 C1097 1.369 . S
C1098 C1107 1.429 . S
C1099 C1097 1.419 . S
C1099 C1100 1.363 . S
C1099 H1102 0.929 . S
C1100 C1099 1.363 . S
C1100 C1106 1.428 . S
H1101 C1097 0.930 . S
H1102 C1099 0.929 . S
S1103 N1104 1.613 . S
S1103 N1105 1.610 . S
N1104 S1103 1.613 . S
N1104 C1107 1.350 . S
N1105 S1103 1.610 . S
N1105 C1106 1.351 . S
C1106 C1100 1.428 . S
C1106 N1105 1.351 . S
C1106 C1107 1.434 . S
C1107 C1098 1.429 . S
C1107 N1104 1.350 . S
C1107 C1106 1.434 . S
C1108 C1109 1.369 . S
C1108 C1110 1.419 . S
C1108 H1112 0.930 . S
C1109 C1108 1.369 . S
C1109 C1118 1.429 . S
C1110 C1108 1.419 . S
C1110 C1111 1.363 1_545 S
C1110 H1113 0.929 . S
C1111 C1110 1.363 1_565 S
C1111 C1117 1.428 . S
H1112 C1108 0.930 . S
H1113 C1110 0.929 . S
S1114 N1115 1.613 1_565 S
S1114 N1116 1.610 . S
N1115 S1114 1.613 1_545 S
N1115 C1118 1.350 . S
N1116 S1114 1.610 . S
N1116 C1117 1.351 . S
C1117 C1111 1.428 . S
C1117 N1116 1.351 . S
C1117 C1118 1.434 1_565 S
C1118 C1109 1.429 . S
C1118 N1115 1.350 . S
C1118 C1117 1.434 1_545 S
C1119 C1120 1.369 . S
C1119 C1121 1.419 . S
C1119 H1123 0.930 . S
C1120 C1119 1.369 . S
C1120 C1129 1.429 . S
C1121 C1119 1.419 . S
C1121 C1122 1.363 . S
C1121 H1124 0.929 . S
C1122 C1121 1.363 . S
C1122 C1128 1.428 . S
H1123 C1119 0.930 . S
H1124 C1121 0.929 . S
S1125 N1126 1.613 . S
S1125 N1127 1.610 . S
N1126 S1125 1.613 . S
N1126 C1129 1.350 . S
N1127 S1125 1.610 . S
N1127 C1128 1.351 . S
C1128 C1122 1.428 . S
C1128 N1127 1.351 . S
C1128 C1129 1.434 . S
C1129 C1120 1.429 . S
C1129 N1126 1.350 . S
C1129 C1128 1.434 . S
C1130 C1131 1.369 . S
C1130 C1132 1.419 . S
C1130 H1134 0.930 . S
C1131 C1130 1.369 . S
C1131 C1140 1.429 . S
C1132 C1130 1.419 . S
C1132 C1133 1.363 . S
C1132 H1135 0.929 . S
C1133 C1132 1.363 . S
C1133 C1139 1.428 . S
H1134 C1130 0.930 . S
H1135 C1132 0.929 . S
S1136 N1137 1.613 . S
S1136 N1138 1.610 . S
N1137 S1136 1.613 . S
N1137 C1140 1.350 . S
N1138 S1136 1.610 . S
N1138 C1139 1.351 . S
C1139 C1133 1.428 . S
C1139 N1138 1.351 . S
C1139 C1140 1.434 . S
C1140 C1131 1.429 . S
C1140 N1137 1.350 . S
C1140 C1139 1.434 . S
C1141 C1142 1.369 . S
C1141 C1143 1.419 . S
C1141 H1145 0.930 . S
C1142 C1141 1.369 . S
C1142 C1151 1.429 . S
C1143 C1141 1.419 . S
C1143 C1144 1.363 . S
C1143 H1146 0.929 . S
C1144 C1143 1.363 . S
C1144 C1150 1.428 . S
H1145 C1141 0.930 . S
H1146 C1143 0.929 . S
S1147 N1148 1.613 . S
S1147 N1149 1.610 . S
N1148 S1147 1.613 . S
N1148 C1151 1.350 . S
N1149 S1147 1.610 . S
N1149 C1150 1.351 . S
C1150 C1144 1.428 . S
C1150 N1149 1.351 . S
C1150 C1151 1.434 . S
C1151 C1142 1.429 . S
C1151 N1148 1.350 . S
C1151 C1150 1.434 . S
C1152 C1153 1.369 . S
C1152 C1154 1.419 . S
C1152 H1156 0.930 . S
C1153 C1152 1.369 . S
C1153 C1162 1.429 . S
C1154 C1152 1.419 . S
C1154 C1155 1.363 . S
C1154 H1157 0.929 . S
C1155 C1154 1.363 . S
C1155 C1161 1.428 . S
H1156 C1152 0.930 . S
H1157 C1154 0.929 . S
S1158 N1159 1.613 . S
S1158 N1160 1.610 . S
N1159 S1158 1.613 . S
N1159 C1162 1.350 . S
N1160 S1158 1.610 . S
N1160 C1161 1.351 . S
C1161 C1155 1.428 . S
C1161 N1160 1.351 . S
C1161 C1162 1.434 . S
C1162 C1153 1.429 . S
C1162 N1159 1.350 . S
C1162 C1161 1.434 . S
C1163 C1164 1.369 . S
C1163 C1165 1.419 . S
C1163 H1167 0.930 . S
C1164 C1163 1.369 . S
C1164 C1173 1.429 . S
C1165 C1163 1.419 . S
C1165 C1166 1.363 . S
C1165 H1168 0.929 . S
C1166 C1165 1.363 . S
C1166 C1172 1.428 . S
H1167 C1163 0.930 . S
H1168 C1165 0.929 . S
S1169 N1170 1.613 . S
S1169 N1171 1.610 . S
N1170 S1169 1.613 . S
N1170 C1173 1.350 . S
N1171 S1169 1.610 . S
N1171 C1172 1.351 . S
C1172 C1166 1.428 . S
C1172 N1171 1.351 . S
C1172 C1173 1.434 . S
C1173 C1164 1.429 . S
C1173 N1170 1.350 . S
C1173 C1172 1.434 . S
C1174 C1175 1.369 . S
C1174 C1176 1.419 . S
C1174 H1178 0.930 . S
C1175 C1174 1.369 . S
C1175 C1184 1.429 . S
C1176 C1174 1.419 . S
C1176 C1177 1.363 . S
C1176 H1179 0.929 . S
C1177 C1176 1.363 . S
C1177 C1183 1.428 . S
H1178 C1174 0.930 . S
H1179 C1176 0.929 . S
S1180 N1181 1.613 . S
S1180 N1182 1.610 . S
N1181 S1180 1.613 . S
N1181 C1184 1.350 . S
N1182 S1180 1.610 . S
N1182 C1183 1.351 . S
C1183 C1177 1.428 . S
C1183 N1182 1.351 . S
C1183 C1184 1.434 . S
C1184 C1175 1.429 . S
C1184 N1181 1.350 . S
C1184 C1183 1.434 . S
C1185 C1186 1.369 . S
C1185 C1187 1.419 . S
C1185 H1189 0.930 . S
C1186 C1185 1.369 . S
C1186 C1195 1.429 . S
C1187 C1185 1.419 . S
C1187 C1188 1.363 . S
C1187 H1190 0.929 . S
C1188 C1187 1.363 . S
C1188 C1194 1.428 . S
H1189 C1185 0.930 . S
H1190 C1187 0.929 . S
S1191 N1192 1.613 . S
S1191 N1193 1.610 . S
N1192 S1191 1.613 . S
N1192 C1195 1.350 . S
N1193 S1191 1.610 . S
N1193 C1194 1.351 . S
C1194 C1188 1.428 . S
C1194 N1193 1.351 . S
C1194 C1195 1.434 . S
C1195 C1186 1.429 . S
C1195 N1192 1.350 . S
C1195 C1194 1.434 . S
C1196 C1197 1.369 . S
C1196 C1198 1.419 . S
C1196 H1200 0.930 . S
C1197 C1196 1.369 . S
C1197 C1206 1.429 . S
C1198 C1196 1.419 . S
C1198 C1199 1.363 . S
C1198 H1201 0.929 . S
C1199 C1198 1.363 . S
C1199 C1205 1.428 . S
H1200 C1196 0.930 . S
H1201 C1198 0.929 . S
S1202 N1203 1.613 . S
S1202 N1204 1.610 . S
N1203 S1202 1.613 . S
N1203 C1206 1.350 . S
N1204 S1202 1.610 . S
N1204 C1205 1.351 . S
C1205 C1199 1.428 . S
C1205 N1204 1.351 . S
C1205 C1206 1.434 . S
C1206 C1197 1.429 . S
C1206 N1203 1.350 . S
C1206 C1205 1.434 . S
C1207 C1208 1.369 . S
C1207 C1209 1.419 . S
C1207 H1211 0.930 . S
C1208 C1207 1.369 . S
C1208 C1217 1.429 . S
C1209 C1207 1.419 . S
C1209 C1210 1.363 . S
C1209 H1212 0.929 . S
C1210 C1209 1.363 . S
C1210 C1216 1.428 . S
H1211 C1207 0.930 . S
H1212 C1209 0.929 . S
S1213 N1214 1.613 . S
S1213 N1215 1.610 . S
N1214 S1213 1.613 . S
N1214 C1217 1.350 . S
N1215 S1213 1.610 . S
N1215 C1216 1.351 . S
C1216 C1210 1.428 . S
C1216 N1215 1.351 . S
C1216 C1217 1.434 . S
C1217 C1208 1.429 . S
C1217 N1214 1.350 . S
C1217 C1216 1.434 . S
C1218 C1219 1.369 . S
C1218 C1220 1.419 . S
C1218 H1222 0.930 . S
C1219 C1218 1.369 . S
C1219 C1228 1.429 . S
C1220 C1218 1.419 . S
C1220 C1221 1.363 . S
C1220 H1223 0.929 . S
C1221 C1220 1.363 . S
C1221 C1227 1.428 . S
H1222 C1218 0.930 . S
H1223 C1220 0.929 . S
S1224 N1225 1.613 . S
S1224 N1226 1.610 . S
N1225 S1224 1.613 . S
N1225 C1228 1.350 . S
N1226 S1224 1.610 . S
N1226 C1227 1.351 . S
C1227 C1221 1.428 . S
C1227 N1226 1.351 . S
C1227 C1228 1.434 . S
C1228 C1219 1.429 . S
C1228 N1225 1.350 . S
C1228 C1227 1.434 . S
C1229 C1230 1.369 . S
C1229 C1231 1.419 . S
C1229 H1233 0.930 . S
C1230 C1229 1.369 . S
C1230 C1239 1.429 . S
C1231 C1229 1.419 . S
C1231 C1232 1.363 . S
C1231 H1234 0.929 . S
C1232 C1231 1.363 . S
C1232 C1238 1.428 . S
H1233 C1229 0.930 . S
H1234 C1231 0.929 . S
S1235 N1236 1.613 . S
S1235 N1237 1.610 . S
N1236 S1235 1.613 . S
N1236 C1239 1.350 . S
N1237 S1235 1.610 . S
N1237 C1238 1.351 . S
C1238 C1232 1.428 . S
C1238 N1237 1.351 . S
C1238 C1239 1.434 . S
C1239 C1230 1.429 . S
C1239 N1236 1.350 . S
C1239 C1238 1.434 . S
C1240 C1241 1.369 . S
C1240 C1242 1.419 . S
C1240 H1244 0.930 . S
C1241 C1240 1.369 . S
C1241 C1250 1.429 . S
C1242 C1240 1.419 . S
C1242 C1243 1.363 . S
C1242 H1245 0.929 . S
C1243 C1242 1.363 . S
C1243 C1249 1.428 . S
H1244 C1240 0.930 . S
H1245 C1242 0.929 . S
S1246 N1247 1.613 . S
S1246 N1248 1.610 . S
N1247 S1246 1.613 . S
N1247 C1250 1.350 . S
N1248 S1246 1.610 . S
N1248 C1249 1.351 . S
C1249 C1243 1.428 . S
C1249 N1248 1.351 . S
C1249 C1250 1.434 . S
C1250 C1241 1.429 . S
C1250 N1247 1.350 . S
C1250 C1249 1.434 . S
C1251 C1252 1.369 . S
C1251 C1253 1.419 . S
C1251 H1255 0.930 . S
C1252 C1251 1.369 . S
C1252 C1261 1.429 1_565 S
C1253 C1251 1.419 . S
C1253 C1254 1.363 1_565 S
C1253 H1256 0.929 . S
C1254 C1253 1.363 1_545 S
C1254 C1260 1.428 . S
H1255 C1251 0.930 . S
H1256 C1253 0.929 . S
S1257 N1258 1.613 . S
S1257 N1259 1.610 . S
N1258 S1257 1.613 . S
N1258 C1261 1.350 . S
N1259 S1257 1.610 . S
N1259 C1260 1.351 . S
C1260 C1254 1.428 . S
C1260 N1259 1.351 . S
C1260 C1261 1.434 . S
C1261 C1252 1.429 1_545 S
C1261 N1258 1.350 . S
C1261 C1260 1.434 . S
C1262 C1263 1.369 . S
C1262 C1264 1.419 1_455 S
C1262 H1266 0.930 . S
C1263 C1262 1.369 . S
C1263 C1272 1.429 . S
C1264 C1262 1.419 1_655 S
C1264 C1265 1.363 . S
C1264 H1267 0.929 . S
C1265 C1264 1.363 . S
C1265 C1271 1.428 . S
H1266 C1262 0.930 . S
H1267 C1264 0.929 . S
S1268 N1269 1.613 1_655 S
S1268 N1270 1.610 . S
N1269 S1268 1.613 1_455 S
N1269 C1272 1.350 . S
N1270 S1268 1.610 . S
N1270 C1271 1.351 . S
C1271 C1265 1.428 . S
C1271 N1270 1.351 . S
C1271 C1272 1.434 1_655 S
C1272 C1263 1.429 . S
C1272 N1269 1.350 . S
C1272 C1271 1.434 1_455 S
C1273 C1274 1.369 . S
C1273 C1275 1.419 . S
C1273 H1277 0.930 . S
C1274 C1273 1.369 . S
C1274 C1283 1.429 . S
C1275 C1273 1.419 . S
C1275 C1276 1.363 . S
C1275 H1278 0.929 . S
C1276 C1275 1.363 . S
C1276 C1282 1.428 . S
H1277 C1273 0.930 . S
H1278 C1275 0.929 . S
S1279 N1280 1.613 . S
S1279 N1281 1.610 . S
N1280 S1279 1.613 . S
N1280 C1283 1.350 . S
N1281 S1279 1.610 . S
N1281 C1282 1.351 . S
C1282 C1276 1.428 . S
C1282 N1281 1.351 . S
C1282 C1283 1.434 . S
C1283 C1274 1.429 . S
C1283 N1280 1.350 . S
C1283 C1282 1.434 . S
C1284 C1285 1.369 . S
C1284 C1286 1.419 . S
C1284 H1288 0.930 . S
C1285 C1284 1.369 . S
C1285 C1294 1.429 . S
C1286 C1284 1.419 . S
C1286 C1287 1.363 . S
C1286 H1289 0.929 . S
C1287 C1286 1.363 . S
C1287 C1293 1.428 . S
H1288 C1284 0.930 . S
H1289 C1286 0.929 . S
S1290 N1291 1.613 . S
S1290 N1292 1.610 . S
N1291 S1290 1.613 . S
N1291 C1294 1.350 . S
N1292 S1290 1.610 . S
N1292 C1293 1.351 . S
C1293 C1287 1.428 . S
C1293 N1292 1.351 . S
C1293 C1294 1.434 . S
C1294 C1285 1.429 . S
C1294 N1291 1.350 . S
C1294 C1293 1.434 . S
C1295 C1296 1.369 . S
C1295 C1297 1.419 . S
C1295 H1299 0.930 . S
C1296 C1295 1.369 . S
C1296 C1305 1.429 . S
C1297 C1295 1.419 . S
C1297 C1298 1.363 . S
C1297 H1300 0.929 . S
C1298 C1297 1.363 . S
C1298 C1304 1.428 . S
H1299 C1295 0.930 . S
H1300 C1297 0.929 . S
S1301 N1302 1.613 . S
S1301 N1303 1.610 . S
N1302 S1301 1.613 . S
N1302 C1305 1.350 . S
N1303 S1301 1.610 . S
N1303 C1304 1.351 . S
C1304 C1298 1.428 . S
C1304 N1303 1.351 . S
C1304 C1305 1.434 . S
C1305 C1296 1.429 . S
C1305 N1302 1.350 . S
C1305 C1304 1.434 . S
C1306 C1307 1.369 . S
C1306 C1308 1.419 . S
C1306 H1310 0.930 . S
C1307 C1306 1.369 . S
C1307 C1316 1.429 . S
C1308 C1306 1.419 . S
C1308 C1309 1.363 . S
C1308 H1311 0.929 . S
C1309 C1308 1.363 . S
C1309 C1315 1.428 . S
H1310 C1306 0.930 . S
H1311 C1308 0.929 . S
S1312 N1313 1.613 . S
S1312 N1314 1.610 . S
N1313 S1312 1.613 . S
N1313 C1316 1.350 . S
N1314 S1312 1.610 . S
N1314 C1315 1.351 . S
C1315 C1309 1.428 . S
C1315 N1314 1.351 . S
C1315 C1316 1.434 . S
C1316 C1307 1.429 . S
C1316 N1313 1.350 . S
C1316 C1315 1.434 . S
C1317 C1318 1.369 . S
C1317 C1319 1.419 . S
C1317 H1321 0.930 . S
C1318 C1317 1.369 . S
C1318 C1327 1.429 . S
C1319 C1317 1.419 . S
C1319 C1320 1.363 . S
C1319 H1322 0.929 . S
C1320 C1319 1.363 . S
C1320 C1326 1.428 . S
H1321 C1317 0.930 . S
H1322 C1319 0.929 . S
S1323 N1324 1.613 . S
S1323 N1325 1.610 . S
N1324 S1323 1.613 . S
N1324 C1327 1.350 . S
N1325 S1323 1.610 . S
N1325 C1326 1.351 . S
C1326 C1320 1.428 . S
C1326 N1325 1.351 . S
C1326 C1327 1.434 . S
C1327 C1318 1.429 . S
C1327 N1324 1.350 . S
C1327 C1326 1.434 . S
C1328 C1329 1.369 . S
C1328 C1330 1.419 . S
C1328 H1332 0.930 . S
C1329 C1328 1.369 . S
C1329 C1338 1.429 . S
C1330 C1328 1.419 . S
C1330 C1331 1.363 . S
C1330 H1333 0.929 . S
C1331 C1330 1.363 . S
C1331 C1337 1.428 . S
H1332 C1328 0.930 . S
H1333 C1330 0.929 . S
S1334 N1335 1.613 . S
S1334 N1336 1.610 . S
N1335 S1334 1.613 . S
N1335 C1338 1.350 . S
N1336 S1334 1.610 . S
N1336 C1337 1.351 . S
C1337 C1331 1.428 . S
C1337 N1336 1.351 . S
C1337 C1338 1.434 . S
C1338 C1329 1.429 . S
C1338 N1335 1.350 . S
C1338 C1337 1.434 . S
C1339 C1340 1.369 . S
C1339 C1341 1.419 . S
C1339 H1343 0.930 . S
C1340 C1339 1.369 . S
C1340 C1349 1.429 . S
C1341 C1339 1.419 . S
C1341 C1342 1.363 . S
C1341 H1344 0.929 . S
C1342 C1341 1.363 . S
C1342 C1348 1.428 . S
H1343 C1339 0.930 . S
H1344 C1341 0.929 . S
S1345 N1346 1.613 . S
S1345 N1347 1.610 . S
N1346 S1345 1.613 . S
N1346 C1349 1.350 . S
N1347 S1345 1.610 . S
N1347 C1348 1.351 . S
C1348 C1342 1.428 . S
C1348 N1347 1.351 . S
C1348 C1349 1.434 . S
C1349 C1340 1.429 . S
C1349 N1346 1.350 . S
C1349 C1348 1.434 . S
C1350 C1351 1.369 . S
C1350 C1352 1.419 . S
C1350 H1354 0.930 . S
C1351 C1350 1.369 . S
C1351 C1360 1.429 . S
C1352 C1350 1.419 . S
C1352 C1353 1.363 . S
C1352 H1355 0.929 . S
C1353 C1352 1.363 . S
C1353 C1359 1.428 . S
H1354 C1350 0.930 . S
H1355 C1352 0.929 . S
S1356 N1357 1.613 . S
S1356 N1358 1.610 . S
N1357 S1356 1.613 . S
N1357 C1360 1.350 . S
N1358 S1356 1.610 . S
N1358 C1359 1.351 . S
C1359 C1353 1.428 . S
C1359 N1358 1.351 . S
C1359 C1360 1.434 . S
C1360 C1351 1.429 . S
C1360 N1357 1.350 . S
C1360 C1359 1.434 . S
C1361 C1362 1.369 . S
C1361 C1363 1.419 . S
C1361 H1365 0.930 . S
C1362 C1361 1.369 . S
C1362 C1371 1.429 . S
C1363 C1361 1.419 . S
C1363 C1364 1.363 . S
C1363 H1366 0.929 . S
C1364 C1363 1.363 . S
C1364 C1370 1.428 . S
H1365 C1361 0.930 . S
H1366 C1363 0.929 . S
S1367 N1368 1.613 1_655 S
S1367 N1369 1.610 1_655 S
N1368 S1367 1.613 1_455 S
N1368 C1371 1.350 . S
N1369 S1367 1.610 1_455 S
N1369 C1370 1.351 . S
C1370 C1364 1.428 . S
C1370 N1369 1.351 . S
C1370 C1371 1.434 . S
C1371 C1362 1.429 . S
C1371 N1368 1.350 . S
C1371 C1370 1.434 . S
C1372 C1373 1.369 . S
C1372 C1374 1.419 . S
C1372 H1376 0.930 . S
C1373 C1372 1.369 . S
C1373 C1382 1.429 . S
C1374 C1372 1.419 . S
C1374 C1375 1.363 . S
C1374 H1377 0.929 . S
C1375 C1374 1.363 . S
C1375 C1381 1.428 . S
H1376 C1372 0.930 . S
H1377 C1374 0.929 . S
S1378 N1379 1.613 . S
S1378 N1380 1.610 . S
N1379 S1378 1.613 . S
N1379 C1382 1.350 . S
N1380 S1378 1.610 . S
N1380 C1381 1.351 . S
C1381 C1375 1.428 . S
C1381 N1380 1.351 . S
C1381 C1382 1.434 . S
C1382 C1373 1.429 . S
C1382 N1379 1.350 . S
C1382 C1381 1.434 . S
C1383 C1384 1.369 . S
C1383 C1385 1.419 . S
C1383 H1387 0.930 . S
C1384 C1383 1.369 . S
C1384 C1393 1.429 . S
C1385 C1383 1.419 . S
C1385 C1386 1.363 . S
C1385 H1388 0.929 . S
C1386 C1385 1.363 . S
C1386 C1392 1.428 . S
H1387 C1383 0.930 . S
H1388 C1385 0.929 . S
S1389 N1390 1.613 . S
S1389 N1391 1.610 . S
N1390 S1389 1.613 . S
N1390 C1393 1.350 . S
N1391 S1389 1.610 . S
N1391 C1392 1.351 . S
C1392 C1386 1.428 . S
C1392 N1391 1.351 . S
C1392 C1393 1.434 . S
C1393 C1384 1.429 . S
C1393 N1390 1.350 . S
C1393 C1392 1.434 . S
C1394 C1395 1.369 . S
C1394 C1396 1.419 . S
C1394 H1398 0.930 . S
C1395 C1394 1.369 . S
C1395 C1404 1.429 . S
C1396 C1394 1.419 . S
C1396 C1397 1.363 . S
C1396 H1399 0.929 . S
C1397 C1396 1.363 . S
C1397 C1403 1.428 . S
H1398 C1394 0.930 . S
H1399 C1396 0.929 . S
S1400 N1401 1.613 . S
S1400 N1402 1.610 . S
N1401 S1400 1.613 . S
N1401 C1404 1.350 . S
N1402 S1400 1.610 . S
N1402 C1403 1.351 . S
C1403 C1397 1.428 . S
C1403 N1402 1.351 . S
C1403 C1404 1.434 . S
C1404 C1395 1.429 . S
C1404 N1401 1.350 . S
C1404 C1403 1.434 . S
C1405 C1406 1.369 . S
C1405 C1407 1.419 . S
C1405 H1409 0.930 . S
C1406 C1405 1.369 . S
C1406 C1415 1.429 . S
C1407 C1405 1.419 . S
C1407 C1408 1.363 . S
C1407 H1410 0.929 . S
C1408 C1407 1.363 . S
C1408 C1414 1.428 . S
H1409 C1405 0.930 . S
H1410 C1407 0.929 . S
S1411 N1412 1.613 . S
S1411 N1413 1.610 . S
N1412 S1411 1.613 . S
N1412 C1415 1.350 . S
N1413 S1411 1.610 . S
N1413 C1414 1.351 . S
C1414 C1408 1.428 . S
C1414 N1413 1.351 . S
C1414 C1415 1.434 . S
C1415 C1406 1.429 . S
C1415 N1412 1.350 . S
C1415 C1414 1.434 . S
C1416 C1417 1.369 . S
C1416 C1418 1.419 . S
C1416 H1420 0.930 . S
C1417 C1416 1.369 . S
C1417 C1426 1.429 . S
C1418 C1416 1.419 . S
C1418 C1419 1.363 . S
C1418 H1421 0.929 . S
C1419 C1418 1.363 . S
C1419 C1425 1.428 . S
H1420 C1416 0.930 . S
H1421 C1418 0.929 . S
S1422 N1423 1.613 . S
S1422 N1424 1.610 . S
N1423 S1422 1.613 . S
N1423 C1426 1.350 . S
N1424 S1422 1.610 . S
N1424 C1425 1.351 . S
C1425 C1419 1.428 . S
C1425 N1424 1.351 . S
C1425 C1426 1.434 . S
C1426 C1417 1.429 . S
C1426 N1423 1.350 . S
C1426 C1425 1.434 . S
C1427 C1428 1.369 . S
C1427 C1429 1.419 . S
C1427 H1431 0.930 . S
C1428 C1427 1.369 . S
C1428 C1437 1.429 . S
C1429 C1427 1.419 . S
C1429 C1430 1.363 . S
C1429 H1432 0.929 . S
C1430 C1429 1.363 . S
C1430 C1436 1.428 . S
H1431 C1427 0.930 . S
H1432 C1429 0.929 . S
S1433 N1434 1.613 . S
S1433 N1435 1.610 . S
N1434 S1433 1.613 . S
N1434 C1437 1.350 . S
N1435 S1433 1.610 . S
N1435 C1436 1.351 . S
C1436 C1430 1.428 . S
C1436 N1435 1.351 . S
C1436 C1437 1.434 . S
C1437 C1428 1.429 . S
C1437 N1434 1.350 . S
C1437 C1436 1.434 . S
C1438 C1439 1.369 . S
C1438 C1440 1.419 . S
C1438 H1442 0.930 . S
C1439 C1438 1.369 . S
C1439 C1448 1.429 . S
C1440 C1438 1.419 . S
C1440 C1441 1.363 . S
C1440 H1443 0.929 . S
C1441 C1440 1.363 . S
C1441 C1447 1.428 . S
H1442 C1438 0.930 . S
H1443 C1440 0.929 . S
S1444 N1445 1.613 . S
S1444 N1446 1.610 . S
N1445 S1444 1.613 . S
N1445 C1448 1.350 . S
N1446 S1444 1.610 . S
N1446 C1447 1.351 . S
C1447 C1441 1.428 . S
C1447 N1446 1.351 . S
C1447 C1448 1.434 . S
C1448 C1439 1.429 . S
C1448 N1445 1.350 . S
C1448 C1447 1.434 . S
C1449 C1450 1.369 . S
C1449 C1451 1.419 . S
C1449 H1453 0.930 . S
C1450 C1449 1.369 . S
C1450 C1459 1.429 . S
C1451 C1449 1.419 . S
C1451 C1452 1.363 . S
C1451 H1454 0.929 . S
C1452 C1451 1.363 . S
C1452 C1458 1.428 . S
H1453 C1449 0.930 . S
H1454 C1451 0.929 . S
S1455 N1456 1.613 . S
S1455 N1457 1.610 . S
N1456 S1455 1.613 . S
N1456 C1459 1.350 . S
N1457 S1455 1.610 . S
N1457 C1458 1.351 . S
C1458 C1452 1.428 . S
C1458 N1457 1.351 . S
C1458 C1459 1.434 . S
C1459 C1450 1.429 . S
C1459 N1456 1.350 . S
C1459 C1458 1.434 . S
C1460 C1461 1.369 . S
C1460 C1462 1.419 . S
C1460 H1464 0.930 . S
C1461 C1460 1.369 . S
C1461 C1470 1.429 . S
C1462 C1460 1.419 . S
C1462 C1463 1.363 . S
C1462 H1465 0.929 . S
C1463 C1462 1.363 . S
C1463 C1469 1.428 . S
H1464 C1460 0.930 . S
H1465 C1462 0.929 . S
S1466 N1467 1.613 . S
S1466 N1468 1.610 . S
N1467 S1466 1.613 . S
N1467 C1470 1.350 . S
N1468 S1466 1.610 . S
N1468 C1469 1.351 . S
C1469 C1463 1.428 . S
C1469 N1468 1.351 . S
C1469 C1470 1.434 . S
C1470 C1461 1.429 . S
C1470 N1467 1.350 . S
C1470 C1469 1.434 . S
C1471 C1472 1.369 . S
C1471 C1473 1.419 . S
C1471 H1475 0.930 . S
C1472 C1471 1.369 . S
C1472 C1481 1.429 . S
C1473 C1471 1.419 . S
C1473 C1474 1.363 . S
C1473 H1476 0.929 . S
C1474 C1473 1.363 . S
C1474 C1480 1.428 . S
H1475 C1471 0.930 . S
H1476 C1473 0.929 . S
S1477 N1478 1.613 . S
S1477 N1479 1.610 . S
N1478 S1477 1.613 . S
N1478 C1481 1.350 . S
N1479 S1477 1.610 . S
N1479 C1480 1.351 . S
C1480 C1474 1.428 . S
C1480 N1479 1.351 . S
C1480 C1481 1.434 . S
C1481 C1472 1.429 . S
C1481 N1478 1.350 . S
C1481 C1480 1.434 . S
C1482 C1483 1.369 . S
C1482 C1484 1.419 . S
C1482 H1486 0.930 . S
C1483 C1482 1.369 . S
C1483 C1492 1.429 . S
C1484 C1482 1.419 . S
C1484 C1485 1.363 . S
C1484 H1487 0.929 . S
C1485 C1484 1.363 . S
C1485 C1491 1.428 . S
H1486 C1482 0.930 . S
H1487 C1484 0.929 . S
S1488 N1489 1.613 . S
S1488 N1490 1.610 . S
N1489 S1488 1.613 . S
N1489 C1492 1.350 . S
N1490 S1488 1.610 . S
N1490 C1491 1.351 . S
C1491 C1485 1.428 . S
C1491 N1490 1.351 . S
C1491 C1492 1.434 . S
C1492 C1483 1.429 . S
C1492 N1489 1.350 . S
C1492 C1491 1.434 . S
C1493 C1494 1.369 . S
C1493 C1495 1.419 . S
C1493 H1497 0.930 . S
C1494 C1493 1.369 . S
C1494 C1503 1.429 . S
C1495 C1493 1.419 . S
C1495 C1496 1.363 . S
C1495 H1498 0.929 . S
C1496 C1495 1.363 . S
C1496 C1502 1.428 . S
H1497 C1493 0.930 . S
H1498 C1495 0.929 . S
S1499 N1500 1.613 . S
S1499 N1501 1.610 . S
N1500 S1499 1.613 . S
N1500 C1503 1.350 . S
N1501 S1499 1.610 . S
N1501 C1502 1.351 . S
C1502 C1496 1.428 . S
C1502 N1501 1.351 . S
C1502 C1503 1.434 . S
C1503 C1494 1.429 . S
C1503 N1500 1.350 . S
C1503 C1502 1.434 . S
C1504 C1505 1.369 . S
C1504 C1506 1.419 . S
C1504 H1508 0.930 . S
C1505 C1504 1.369 . S
C1505 C1514 1.429 . S
C1506 C1504 1.419 . S
C1506 C1507 1.363 . S
C1506 H1509 0.929 . S
C1507 C1506 1.363 . S
C1507 C1513 1.428 . S
H1508 C1504 0.930 . S
H1509 C1506 0.929 . S
S1510 N1511 1.613 . S
S1510 N1512 1.610 . S
N1511 S1510 1.613 . S
N1511 C1514 1.350 . S
N1512 S1510 1.610 . S
N1512 C1513 1.351 . S
C1513 C1507 1.428 . S
C1513 N1512 1.351 . S
C1513 C1514 1.434 . S
C1514 C1505 1.429 . S
C1514 N1511 1.350 . S
C1514 C1513 1.434 . S
C1515 C1516 1.369 . S
C1515 C1517 1.419 . S
C1515 H1519 0.930 . S
C1516 C1515 1.369 . S
C1516 C1525 1.429 . S
C1517 C1515 1.419 . S
C1517 C1518 1.363 . S
C1517 H1520 0.929 . S
C1518 C1517 1.363 . S
C1518 C1524 1.428 . S
H1519 C1515 0.930 . S
H1520 C1517 0.929 . S
S1521 N1522 1.613 . S
S1521 N1523 1.610 . S
N1522 S1521 1.613 . S
N1522 C1525 1.350 . S
N1523 S1521 1.610 . S
N1523 C1524 1.351 . S
C1524 C1518 1.428 . S
C1524 N1523 1.351 . S
C1524 C1525 1.434 . S
C1525 C1516 1.429 . S
C1525 N1522 1.350 . S
C1525 C1524 1.434 . S
C1526 C1527 1.369 . S
C1526 C1528 1.419 . S
C1526 H1530 0.930 . S
C1527 C1526 1.369 . S
C1527 C1536 1.429 . S
C1528 C1526 1.419 . S
C1528 C1529 1.363 . S
C1528 H1531 0.929 . S
C1529 C1528 1.363 . S
C1529 C1535 1.428 . S
H1530 C1526 0.930 . S
H1531 C1528 0.929 . S
S1532 N1533 1.613 . S
S1532 N1534 1.610 . S
N1533 S1532 1.613 . S
N1533 C1536 1.350 . S
N1534 S1532 1.610 . S
N1534 C1535 1.351 . S
C1535 C1529 1.428 . S
C1535 N1534 1.351 . S
C1535 C1536 1.434 . S
C1536 C1527 1.429 . S
C1536 N1533 1.350 . S
C1536 C1535 1.434 . S
C1537 C1538 1.369 . S
C1537 C1539 1.419 . S
C1537 H1541 0.930 . S
C1538 C1537 1.369 . S
C1538 C1547 1.429 . S
C1539 C1537 1.419 . S
C1539 C1540 1.363 . S
C1539 H1542 0.929 . S
C1540 C1539 1.363 . S
C1540 C1546 1.428 . S
H1541 C1537 0.930 . S
H1542 C1539 0.929 . S
S1543 N1544 1.613 . S
S1543 N1545 1.610 . S
N1544 S1543 1.613 . S
N1544 C1547 1.350 . S
N1545 S1543 1.610 . S
N1545 C1546 1.351 . S
C1546 C1540 1.428 . S
C1546 N1545 1.351 . S
C1546 C1547 1.434 . S
C1547 C1538 1.429 . S
C1547 N1544 1.350 . S
C1547 C1546 1.434 . S
C955 C147 1.472 . S
C957 C265 1.418 . S
C966 C158 1.499 . S
C968 C349 1.452 . S
C977 C136 1.467 . S
C979 C429 1.468 . S
C988 C125 1.460 . S
C990 C345 1.460 . S
C1001 C433 1.410 . S
C999 C103 1.464 . S
C1010 C114 1.435 . S
C1012 C261 1.433 . S
C1023 C254 1.456 . S
C1021 C131 1.513 . S
C1034 C338 1.487 . S
C1032 C109 1.536 . S
C1043 C120 1.529 . S
C1045 C440 1.483 . S
C1054 C153 1.506 . S
C1056 C356 1.460 . S
C1065 C164 1.495 . S
C1067 C422 1.440 . S
C1078 C272 1.437 . S
C1076 C142 1.489 . S
C1089 C517 1.420 . S
C1087 C15 1.474 . S
C1098 C26 1.499 . S
C1100 C601 1.451 . S
C1109 C4 1.469 . S
C1111 C681 1.470 . S
C1120 C191 1.456 . S
C1122 C597 1.459 . S
C1131 C169 1.462 . S
C1133 C685 1.407 . S
C1142 C180 1.436 . S
C1144 C513 1.436 . S
C1153 C197 1.511 . S
C1155 C506 1.459 . S
C1164 C175 1.533 . S
C1166 C590 1.485 . S
C1177 C692 1.482 . S
C1175 C186 1.525 . S
C1186 C21 1.501 1_565 S
C1188 C608 1.462 . S
C1199 C674 1.440 . S
C1197 C32 1.495 1_455 S
C1208 C10 1.487 . S
C1210 C524 1.445 . S
C1221 C769 1.419 . S
C1219 C81 1.473 . S
C1230 C92 1.495 . S
C1232 C853 1.445 . S
C1243 C933 1.467 . S
C1241 C70 1.470 . S
C1254 C849 1.461 . S
C1252 C59 1.458 . S
C1265 C937 1.410 . S
C1263 C37 1.465 . S
C1274 C48 1.436 . S
C1276 C765 1.436 . S
C1285 C65 1.516 1_655 S
C1287 C758 1.461 . S
C1296 C43 1.535 . S
C1298 C842 1.486 . S
C1309 C944 1.483 . S
C1307 C54 1.529 1_545 S
C1318 C87 1.502 . S
C1320 C860 1.464 . S
C1329 C98 1.490 . S
C1331 C926 1.433 . S
C1340 C76 1.488 . S
C1342 C776 1.444 . S
C1351 C170 1.570 . S
C1353 C268 1.466 . S
C1364 C352 1.474 . S
C1362 C181 1.611 . S
C1373 C192 1.566 . S
C1375 C424 1.389 . S
C1384 C71 1.583 . S
C1386 C340 1.376 . S
C1395 C82 1.576 . S
C1397 C436 1.454 . S
C1408 C256 1.379 . S
C1406 C93 1.539 . S
C1417 C38 1.569 . S
C1419 C520 1.474 . S
C1428 C49 1.611 . S
C1430 C604 1.474 . S
C1439 C60 1.570 . S
C1441 C676 1.381 . S
C1450 C137 1.577 . S
C1452 C592 1.383 . S
C1463 C688 1.460 . S
C1461 C148 1.581 . S
C1472 C159 1.537 . S
C1474 C508 1.380 . S
C1483 C104 1.571 . S
C1485 C772 1.475 . S
C1494 C115 1.610 . S
C1496 C856 1.476 . S
C1507 C928 1.387 . S
C1505 C126 1.569 . S
C1516 C5 1.579 . S
C1518 C844 1.385 . S
C1527 C16 1.581 . S
C1529 C940 1.460 . S
C1538 C27 1.538 . S
C1540 C760 1.368 . S
