# Generated by pormake.
# Topology nom, (4,4)-cn, num edge types: 1
# Building blocks:
#     Node 0, Type 0, BuildingBlock: NAHDIM_clean_linker_0, # of connection points: 4
#     Node 1, Type 0, BuildingBlock: NAHDIM_clean_linker_0, # of connection points: 4
#     Node 2, Type 0, BuildingBlock: NAHDIM_clean_linker_0, # of connection points: 4
#     Node 3, Type 0, BuildingBlock: NAHDIM_clean_linker_0, # of connection points: 4
#     Node 4, Type 0, BuildingBlock: NAHDIM_clean_linker_0, # of connection points: 4
#     Node 5, Type 0, BuildingBlock: NAHDIM_clean_linker_0, # of connection points: 4
#     Node 6, Type 1, BuildingBlock: UXUYUI_clean_sbu_0, # of connection points: 4
#     Node 7, Type 1, BuildingBlock: UXUYUI_clean_sbu_0, # of connection points: 4
#     Node 8, Type 1, BuildingBlock: UXUYUI_clean_sbu_0, # of connection points: 4
#     Node 9, Type 1, BuildingBlock: UXUYUI_clean_sbu_0, # of connection points: 4
#     Node 10, Type 1, BuildingBlock: UXUYUI_clean_sbu_0, # of connection points: 4
#     Node 11, Type 1, BuildingBlock: UXUYUI_clean_sbu_0, # of connection points: 4
#     Edge 12, Type (0, 1), BuildingBlock: AJUNOK_clean_linker_0, # of connection points: 2
#     Edge 13, Type (0, 1), BuildingBlock: AJUNOK_clean_linker_0, # of connection points: 2
#     Edge 14, Type (0, 1), BuildingBlock: AJUNOK_clean_linker_0, # of connection points: 2
#     Edge 15, Type (0, 1), BuildingBlock: AJUNOK_clean_linker_0, # of connection points: 2
#     Edge 16, Type (0, 1), BuildingBlock: AJUNOK_clean_linker_0, # of connection points: 2
#     Edge 17, Type (0, 1), BuildingBlock: AJUNOK_clean_linker_0, # of connection points: 2
#     Edge 18, Type (0, 1), BuildingBlock: AJUNOK_clean_linker_0, # of connection points: 2
#     Edge 19, Type (0, 1), BuildingBlock: AJUNOK_clean_linker_0, # of connection points: 2
#     Edge 20, Type (0, 1), BuildingBlock: AJUNOK_clean_linker_0, # of connection points: 2
#     Edge 21, Type (0, 1), BuildingBlock: AJUNOK_clean_linker_0, # of connection points: 2
#     Edge 22, Type (0, 1), BuildingBlock: AJUNOK_clean_linker_0, # of connection points: 2
#     Edge 23, Type (0, 1), BuildingBlock: AJUNOK_clean_linker_0, # of connection points: 2
#     Edge 24, Type (0, 1), BuildingBlock: AJUNOK_clean_linker_0, # of connection points: 2
#     Edge 25, Type (0, 1), BuildingBlock: AJUNOK_clean_linker_0, # of connection points: 2
#     Edge 26, Type (0, 1), BuildingBlock: AJUNOK_clean_linker_0, # of connection points: 2
#     Edge 27, Type (0, 1), BuildingBlock: AJUNOK_clean_linker_0, # of connection points: 2
#     Edge 28, Type (0, 1), BuildingBlock: AJUNOK_clean_linker_0, # of connection points: 2
#     Edge 29, Type (0, 1), BuildingBlock: AJUNOK_clean_linker_0, # of connection points: 2
#     Edge 30, Type (0, 1), BuildingBlock: AJUNOK_clean_linker_0, # of connection points: 2
#     Edge 31, Type (0, 1), BuildingBlock: AJUNOK_clean_linker_0, # of connection points: 2
#     Edge 32, Type (0, 1), BuildingBlock: AJUNOK_clean_linker_0, # of connection points: 2
#     Edge 33, Type (0, 1), BuildingBlock: AJUNOK_clean_linker_0, # of connection points: 2
#     Edge 34, Type (0, 1), BuildingBlock: AJUNOK_clean_linker_0, # of connection points: 2
#     Edge 35, Type (0, 1), BuildingBlock: AJUNOK_clean_linker_0, # of connection points: 2
# Relax obj value: 0.085
# Max RMSD: 0.156
# Mean RMSD: 0.138
data_MOF--net-nom--node1-UXUYUI_clean_sbu_0--node2-NAHDIM_clean_linker_0--edge1-AJUNOK_clean_linker_0
_symmetry_space_group_name_H-M    P1
_symmetry_Int_Tables_number       1
_symmetry_cell_setting            triclinic
loop_
_symmetry_equiv_pos_as_xyz
'x, y, z'
_cell_length_a     56.477701
_cell_length_b     56.486329
_cell_length_c     68.890238
_cell_angle_alpha  90.097838
_cell_angle_beta   90.094272
_cell_angle_gamma 119.99172
loop_
_atom_site_label
_atom_site_type_symbol
_atom_site_fract_x
_atom_site_fract_y
_atom_site_fract_z
_atom_type_partial_charge
C0 C 0.16166 0.61719 0.23383 0.0
C1 C 0.17636 0.6171 0.25251 0.0
C2 C 0.13871 0.59958 0.27573 0.0
C3 C 0.13262 0.57231 0.2773 0.0
C4 C 0.10709 0.55202 0.2842 0.0
C5 C 0.08722 0.55913 0.28945 0.0
C6 C 0.09363 0.58674 0.28838 0.0
C7 C 0.11954 0.60669 0.28186 0.0
C8 C 0.10124 0.52293 0.28569 0.0
C9 C 0.07288 0.5951 0.2936 0.0
C10 C 0.98292 0.43482 0.19107 0.0
C11 C 0.96816 0.44947 0.19862 0.0
C12 C 0.9705 0.45494 0.23356 0.0
C13 C 0.97469 0.48139 0.23603 0.0
C14 C 0.98794 0.49675 0.25267 0.0
C15 C 0.99754 0.48548 0.2669 0.0
C16 C 0.99276 0.45849 0.26455 0.0
C17 C 0.97873 0.44336 0.24805 0.0
C18 C 0.99206 0.52515 0.25486 0.0
C19 C 0.00322 0.4459 0.27911 0.0
C20 C 0.88841 0.43616 0.37005 0.0
C21 C 0.89926 0.46363 0.36479 0.0
C22 C 0.92753 0.48071 0.36242 0.0
C23 C 0.94518 0.46995 0.36519 0.0
C24 C 0.93435 0.44258 0.37136 0.0
C25 C 0.90603 0.42611 0.37396 0.0
C26 C 0.93847 0.51009 0.35655 0.0
C27 C 0.95258 0.4305 0.37458 0.0
C28 C 0.13867 0.60208 0.42094 0.0
C29 C 0.12531 0.5739 0.43054 0.0
C30 C 0.07834 0.55205 0.41948 0.0
C31 C 0.06166 0.56285 0.41454 0.0
C32 C 0.04259 0.55148 0.39933 0.0
C33 C 0.03978 0.52834 0.38927 0.0
C34 C 0.0556 0.51643 0.39501 0.0
C35 C 0.07488 0.52857 0.40999 0.0
C36 C 0.02595 0.56458 0.3937 0.0
C37 C 0.05241 0.4911 0.38516 0.0
C38 C 0.05919 0.53753 0.29483 0.0
C39 C 0.04147 0.52212 0.27981 0.0
C40 C 0.01429 0.50248 0.28349 0.0
C41 C 0.0041 0.4987 0.30265 0.0
C42 C 0.9764 0.48059 0.30673 0.0
C43 C 0.96668 0.47679 0.32567 0.0
C44 C 0.98435 0.49072 0.34129 0.0
C45 C 0.9747 0.48693 0.36062 0.0
C46 C 0.99312 0.4997 0.3759 0.0
C47 C 0.02099 0.51698 0.37238 0.0
C48 C 0.03071 0.52247 0.35306 0.0
C49 C 0.0583 0.54113 0.3489 0.0
C50 C 0.06768 0.54622 0.32984 0.0
C51 C 0.04992 0.53258 0.31424 0.0
C52 C 0.02213 0.51342 0.31812 0.0
C53 C 0.01239 0.50889 0.3375 0.0
C54 C 0.82398 0.38995 0.35078 0.0
C55 C 0.84149 0.41873 0.35912 0.0
O56 O 0.16284 0.61956 0.2685 0.0
O57 O 0.09773 0.56465 0.43338 0.0
O58 O 0.86107 0.41881 0.37134 0.0
O59 O 0.95874 0.44033 0.21723 0.0
H60 H 0.17657 0.59759 0.25323 0.0
H61 H 0.1405 0.59947 0.23371 0.0
H62 H 0.16063 0.63629 0.23277 0.0
H63 H 0.17252 0.61553 0.22093 0.0
H64 H 0.14774 0.56675 0.27339 0.0
H65 H 0.12462 0.62786 0.28083 0.0
H66 H 0.08623 0.51031 0.27432 0.0
H67 H 0.11996 0.5214 0.28376 0.0
H68 H 0.09206 0.51418 0.30001 0.0
H69 H 0.0803 0.61697 0.29038 0.0
H70 H 0.05354 0.58236 0.2855 0.0
H71 H 0.06815 0.59166 0.30932 0.0
H72 H 0.98326 0.47178 0.19882 0.0
H73 H 0.99105 0.44209 0.17626 0.0
H74 H 0.00035 0.43918 0.2008 0.0
H75 H 0.96879 0.41236 0.19061 0.0
H76 H 0.96762 0.48996 0.22491 0.0
H77 H 0.97511 0.42278 0.24598 0.0
H78 H 0.01392 0.5404 0.25241 0.0
H79 H 0.97954 0.52912 0.24432 0.0
H80 H 0.98676 0.52825 0.26981 0.0
H81 H 0.0008 0.42619 0.27389 0.0
H82 H 0.02517 0.46011 0.2823 0.0
H83 H 0.99179 0.44211 0.2929 0.0
H84 H 0.85142 0.4325 0.34652 0.0
H85 H 0.88566 0.47171 0.36249 0.0
H86 H 0.8974 0.40497 0.37833 0.0
H87 H 0.94584 0.51292 0.34134 0.0
H88 H 0.92267 0.51627 0.35754 0.0
H89 H 0.95612 0.52389 0.36588 0.0
H90 H 0.94082 0.40854 0.37859 0.0
H91 H 0.96445 0.43266 0.36121 0.0
H92 H 0.96746 0.44188 0.38635 0.0
H93 H 0.12789 0.5597 0.42072 0.0
H94 H 0.16078 0.60984 0.41844 0.0
H95 H 0.12886 0.60067 0.40666 0.0
H96 H 0.13633 0.61689 0.43022 0.0
H97 H 0.06431 0.5808 0.42219 0.0
H98 H 0.08719 0.51969 0.41435 0.0
H99 H 0.02869 0.56975 0.37801 0.0
H100 H 0.00392 0.54989 0.39609 0.0
H101 H 0.03173 0.58344 0.40219 0.0
H102 H 0.06341 0.48231 0.39302 0.0
H103 H 0.03044 0.47531 0.38406 0.0
H104 H 0.06064 0.49625 0.37019 0.0
H105 H 0.04901 0.52541 0.26501 0.0
H106 H 0.96192 0.46928 0.29529 0.0
H107 H 0.94516 0.46256 0.32793 0.0
H108 H 0.98568 0.49607 0.39073 0.0
H109 H 0.07292 0.55217 0.36033 0.0
H110 H 0.08909 0.5608 0.32749 0.0
H111 H 0.81355 0.37489 0.36259 0.0
H112 H 0.80832 0.38931 0.34066 0.0
H113 H 0.83711 0.38395 0.3426 0.0
C114 C 0.4582 0.85912 0.57695 0.0
C115 C 0.44189 0.85459 0.55811 0.0
C116 C 0.45394 0.9013 0.5486 0.0
C117 C 0.48103 0.90987 0.54303 0.0
C118 C 0.49858 0.93678 0.5369 0.0
C119 C 0.48891 0.95551 0.53626 0.0
C120 C 0.46157 0.94688 0.54145 0.0
C121 C 0.44444 0.91984 0.54754 0.0
C122 C 0.52763 0.94537 0.53138 0.0
C123 C 0.45062 0.96636 0.54086 0.0
C124 C 0.61353 0.06679 0.63345 0.0
C125 C 0.59751 0.08043 0.62648 0.0
C126 C 0.58957 0.07584 0.59173 0.0
C127 C 0.56241 0.06983 0.58993 0.0
C128 C 0.54671 0.05565 0.57363 0.0
C129 C 0.5584 0.04698 0.55905 0.0
C130 C 0.58598 0.05335 0.56083 0.0
C131 C 0.60139 0.0683 0.57698 0.0
C132 C 0.5176 0.04972 0.57209 0.0
C133 C 0.59906 0.04385 0.54595 0.0
C134 C 0.60846 0.15559 0.45609 0.0
C135 C 0.58123 0.14584 0.46159 0.0
C136 C 0.56318 0.11773 0.46387 0.0
C137 C 0.57278 0.09915 0.4609 0.0
C138 C 0.59992 0.10891 0.45453 0.0
C139 C 0.61731 0.13708 0.45193 0.0
C140 C 0.53406 0.10795 0.46989 0.0
C141 C 0.6108 0.0897 0.4511 0.0
C142 C 0.44303 0.90706 0.40337 0.0
C143 C 0.47078 0.92126 0.39313 0.0
C144 C 0.4915 0.96742 0.40579 0.0
C145 C 0.48033 0.98374 0.41086 0.0
C146 C 0.49097 0.00216 0.42649 0.0
C147 C 0.51381 0.00475 0.43686 0.0
C148 C 0.52603 0.98923 0.43109 0.0
C149 C 0.51457 0.97053 0.4157 0.0
C150 C 0.47754 0.01849 0.43213 0.0
C151 C 0.55115 0.99229 0.44121 0.0
C152 C 0.50781 0.98449 0.53113 0.0
C153 C 0.52303 0.00235 0.54613 0.0
C154 C 0.54141 0.02993 0.54254 0.0
C155 C 0.54432 0.04024 0.52346 0.0
C156 C 0.56171 0.06809 0.51942 0.0
C157 C 0.56514 0.07785 0.5005 0.0
C158 C 0.55127 0.06013 0.48489 0.0
C159 C 0.55496 0.06978 0.46557 0.0
C160 C 0.54204 0.05138 0.4503 0.0
C161 C 0.52491 0.02349 0.45381 0.0
C162 C 0.51978 0.01369 0.47313 0.0
C163 C 0.50151 0.98602 0.47728 0.0
C164 C 0.49723 0.97645 0.49629 0.0
C165 C 0.51132 0.99412 0.51184 0.0
C166 C 0.52959 0.02215 0.50801 0.0
C167 C 0.53344 0.03202 0.48867 0.0
C168 C 0.65743 0.22036 0.47428 0.0
C169 C 0.62793 0.20262 0.46728 0.0
O170 O 0.43644 0.87569 0.55529 0.0
O171 O 0.47977 0.94891 0.39124 0.0
O172 O 0.62674 0.1827 0.45487 0.0
O173 O 0.60483 0.08913 0.60751 0.0
H174 H 0.45414 0.85391 0.54577 0.0
H175 H 0.47836 0.87811 0.57608 0.0
H176 H 0.44701 0.86094 0.58958 0.0
H177 H 0.46187 0.84177 0.57942 0.0
H178 H 0.48889 0.89594 0.54361 0.0
H179 H 0.42355 0.91311 0.55176 0.0
H180 H 0.542 0.96169 0.5414 0.0
H181 H 0.53178 0.92812 0.53192 0.0
H182 H 0.53191 0.95398 0.51648 0.0
H183 H 0.42865 0.9563 0.54483 0.0
H184 H 0.46248 0.98361 0.55104 0.0
H185 H 0.45323 0.9751 0.52607 0.0
H186 H 0.57537 0.06481 0.62728 0.0
H187 H 0.60774 0.05937 0.64858 0.0
H188 H 0.6088 0.04898 0.62401 0.0
H189 H 0.63589 0.08137 0.63288 0.0
H190 H 0.55361 0.07636 0.60124 0.0
H191 H 0.62251 0.07332 0.57853 0.0
H192 H 0.51354 0.05478 0.55734 0.0
H193 H 0.50345 0.02758 0.57449 0.0
H194 H 0.51297 0.06138 0.58297 0.0
H195 H 0.6191 0.04689 0.55097 0.0
H196 H 0.58542 0.02186 0.54254 0.0
H197 H 0.60241 0.05551 0.53231 0.0
H198 H 0.61531 0.19299 0.48044 0.0
H199 H 0.57411 0.16018 0.46415 0.0
H200 H 0.63828 0.14489 0.44739 0.0
H201 H 0.53116 0.10079 0.48516 0.0
H202 H 0.52873 0.12436 0.46882 0.0
H203 H 0.51967 0.0904 0.46071 0.0
H204 H 0.63282 0.10072 0.4472 0.0
H205 H 0.60798 0.07737 0.46434 0.0
H206 H 0.5991 0.0753 0.43917 0.0
H207 H 0.48548 0.91831 0.40214 0.0
H208 H 0.43555 0.88484 0.40491 0.0
H209 H 0.44501 0.91584 0.41813 0.0
H210 H 0.42772 0.90984 0.39505 0.0
H211 H 0.46271 0.98137 0.40289 0.0
H212 H 0.52378 0.95856 0.41126 0.0
H213 H 0.47233 0.01569 0.44781 0.0
H214 H 0.49204 0.04056 0.42974 0.0
H215 H 0.45865 0.01251 0.4236 0.0
H216 H 0.56033 0.9817 0.43329 0.0
H217 H 0.56679 0.01425 0.44275 0.0
H218 H 0.5456 0.98352 0.45601 0.0
H219 H 0.52084 0.99455 0.5608 0.0
H220 H 0.57295 0.08264 0.53084 0.0
H221 H 0.57903 0.09945 0.49828 0.0
H222 H 0.54566 0.05882 0.43548 0.0
H223 H 0.49029 0.97145 0.46586 0.0
H224 H 0.48299 0.95495 0.49862 0.0
H225 H 0.6713 0.23054 0.46181 0.0
H226 H 0.65902 0.23622 0.48461 0.0
H227 H 0.66424 0.20745 0.48187 0.0
C228 C 0.60061 0.40003 0.71661 0.0
C229 C 0.60049 0.42542 0.71098 0.0
C230 C 0.57147 0.44593 0.71365 0.0
C231 C 0.58956 0.47071 0.70447 0.0
C232 C 0.58126 0.48961 0.69965 0.0
C233 C 0.55407 0.48318 0.70347 0.0
C234 C 0.53581 0.45818 0.71262 0.0
C235 C 0.54493 0.44009 0.71785 0.0
C236 C 0.60161 0.51647 0.69053 0.0
C237 C 0.50664 0.45054 0.71685 0.0
C238 C 0.57466 0.61243 0.8019 0.0
C239 C 0.54619 0.59455 0.79319 0.0
C240 C 0.54166 0.58796 0.7583 0.0
C241 C 0.51974 0.56111 0.75699 0.0
C242 C 0.51654 0.54494 0.74061 0.0
C243 C 0.53603 0.55576 0.72546 0.0
C244 C 0.5578 0.58316 0.72661 0.0
C245 C 0.55993 0.5991 0.74288 0.0
C246 C 0.49273 0.5161 0.73978 0.0
C247 C 0.57939 0.59537 0.71103 0.0
C248 C 0.47137 0.60069 0.62181 0.0
C249 C 0.45425 0.57408 0.62866 0.0
C250 C 0.46438 0.55619 0.63157 0.0
C251 C 0.4923 0.56532 0.62785 0.0
C252 C 0.50932 0.59183 0.62028 0.0
C253 C 0.49844 0.60904 0.61708 0.0
C254 C 0.44538 0.52769 0.63892 0.0
C255 C 0.53913 0.60224 0.61607 0.0
C256 C 0.55412 0.43335 0.57152 0.0
C257 C 0.56608 0.46084 0.56103 0.0
C258 C 0.53994 0.48086 0.57368 0.0
C259 C 0.51261 0.46986 0.57909 0.0
C260 C 0.50525 0.48122 0.59448 0.0
C261 C 0.52576 0.50455 0.60428 0.0
C262 C 0.55332 0.51658 0.59815 0.0
C263 C 0.56012 0.5045 0.58297 0.0
C264 C 0.47569 0.468 0.60052 0.0
C265 C 0.57564 0.54212 0.60771 0.0
C266 C 0.54479 0.50273 0.69822 0.0
C267 C 0.54379 0.51926 0.71292 0.0
C268 C 0.53489 0.53788 0.70919 0.0
C269 C 0.52635 0.53989 0.69025 0.0
C270 C 0.51622 0.55755 0.6861 0.0
C271 C 0.50868 0.55999 0.66728 0.0
C272 C 0.51103 0.54488 0.65188 0.0
C273 C 0.5039 0.54756 0.63263 0.0
C274 C 0.50819 0.5336 0.61751 0.0
C275 C 0.51871 0.51628 0.62113 0.0
C276 C 0.52412 0.51186 0.64044 0.0
C277 C 0.53278 0.49304 0.64477 0.0
C278 C 0.53889 0.48949 0.66374 0.0
C279 C 0.53734 0.50519 0.67903 0.0
C280 C 0.52813 0.52388 0.67505 0.0
C281 C 0.52094 0.52676 0.6558 0.0
C282 C 0.45627 0.65127 0.63746 0.0
C283 C 0.44427 0.62117 0.63196 0.0
O284 O 0.57882 0.42724 0.71873 0.0
O285 O 0.5463 0.46844 0.5594 0.0
O286 O 0.46246 0.61883 0.61972 0.0
O287 O 0.54588 0.60333 0.77445 0.0
H288 H 0.62058 0.44451 0.71281 0.0
H289 H 0.58652 0.39126 0.72945 0.0
H290 H 0.59378 0.37905 0.69038 0.0
H291 H 0.61986 0.4072 0.72539 0.0
H292 H 0.61027 0.47566 0.70128 0.0
H293 H 0.53116 0.42096 0.72497 0.0
H294 H 0.6013 0.5337 0.69808 0.0
H295 H 0.62277 0.51992 0.69096 0.0
H296 H 0.59593 0.51674 0.67514 0.0
H297 H 0.49417 0.42904 0.7218 0.0
H298 H 0.50642 0.46418 0.72837 0.0
H299 H 0.49694 0.4534 0.7037 0.0
H300 H 0.54242 0.57321 0.79296 0.0
H301 H 0.57558 0.60558 0.81686 0.0
H302 H 0.59011 0.61081 0.79291 0.0
H303 H 0.57995 0.6342 0.80237 0.0
H304 H 0.50524 0.55282 0.76882 0.0
H305 H 0.57664 0.61998 0.74405 0.0
H306 H 0.50012 0.50166 0.74305 0.0
H307 H 0.47666 0.51272 0.75049 0.0
H308 H 0.4835 0.51125 0.72503 0.0
H309 H 0.5968 0.61557 0.71537 0.0
H310 H 0.58737 0.58142 0.70761 0.0
H311 H 0.57025 0.5981 0.69756 0.0
H312 H 0.44194 0.60987 0.64571 0.0
H313 H 0.43298 0.56729 0.63169 0.0
H314 H 0.51133 0.62953 0.61153 0.0
H315 H 0.45078 0.526 0.65415 0.0
H316 H 0.42363 0.52248 0.63848 0.0
H317 H 0.44768 0.51245 0.63015 0.0
H318 H 0.55004 0.62402 0.61155 0.0
H319 H 0.54939 0.60003 0.62915 0.0
H320 H 0.54096 0.58981 0.6043 0.0
H321 H 0.58365 0.47616 0.56982 0.0
H322 H 0.56974 0.42696 0.57283 0.0
H323 H 0.54758 0.43522 0.58637 0.0
H324 H 0.53609 0.41729 0.56354 0.0
H325 H 0.49715 0.45183 0.57158 0.0
H326 H 0.58115 0.51369 0.57823 0.0
H327 H 0.4738 0.46316 0.61625 0.0
H328 H 0.46809 0.4825 0.59815 0.0
H329 H 0.46247 0.44893 0.59225 0.0
H330 H 0.59521 0.55093 0.5996 0.0
H331 H 0.56936 0.55782 0.6089 0.0
H332 H 0.57923 0.53721 0.62264 0.0
H333 H 0.55027 0.51776 0.72749 0.0
H334 H 0.51409 0.56975 0.69735 0.0
H335 H 0.50129 0.57412 0.66494 0.0
H336 H 0.50369 0.53659 0.60269 0.0
H337 H 0.5348 0.48076 0.63352 0.0
H338 H 0.54531 0.47462 0.6662 0.0
H339 H 0.45929 0.66386 0.62432 0.0
H340 H 0.44249 0.65384 0.64766 0.0
H341 H 0.47637 0.65885 0.64473 0.0
C342 C 0.18844 0.61497 0.90304 0.0
C343 C 0.18948 0.59844 0.88563 0.0
C344 C 0.14126 0.56551 0.87813 0.0
C345 C 0.1338 0.58474 0.87221 0.0
C346 C 0.10684 0.57635 0.86651 0.0
C347 C 0.08721 0.54816 0.86606 0.0
C348 C 0.09502 0.52873 0.87109 0.0
C349 C 0.12184 0.53773 0.87732 0.0
C350 C 0.09917 0.59764 0.86143 0.0
C351 C 0.07488 0.49845 0.87043 0.0
C352 C 0.92113 0.46676 0.97007 0.0
C353 C 0.9403 0.47049 0.95398 0.0
C354 C 0.96262 0.49952 0.92601 0.0
C355 C 0.96967 0.48132 0.91735 0.0
C356 C 0.98535 0.48839 0.90037 0.0
C357 C 0.99468 0.51442 0.89202 0.0
C358 C 0.98757 0.53279 0.9006 0.0
C359 C 0.97139 0.52496 0.91741 0.0
C360 C 0.99218 0.4681 0.89148 0.0
C361 C 0.99725 0.56072 0.89206 0.0
C362 C 0.88301 0.46767 0.79328 0.0
C363 C 0.89554 0.45167 0.79482 0.0
C364 C 0.92411 0.46394 0.79529 0.0
C365 C 0.94037 0.49276 0.79428 0.0
C366 C 0.92778 0.50875 0.79149 0.0
C367 C 0.89915 0.49589 0.79081 0.0
C368 C 0.93692 0.4462 0.7976 0.0
C369 C 0.94453 0.53947 0.79012 0.0
C370 C 0.13291 0.57173 0.73737 0.0
C371 C 0.11638 0.57821 0.72281 0.0
C372 C 0.071 0.54952 0.73641 0.0
C373 C 0.05477 0.52185 0.74094 0.0
C374 C 0.03659 0.51342 0.75667 0.0
C375 C 0.0341 0.53321 0.76773 0.0
C376 C 0.04935 0.56113 0.76248 0.0
C377 C 0.06782 0.56902 0.74697 0.0
C378 C 0.02053 0.48347 0.76175 0.0
C379 C 0.04637 0.58269 0.77339 0.0
C380 C 0.05814 0.53898 0.86168 0.0
C381 C 0.04037 0.53265 0.8774 0.0
C382 C 0.01244 0.52251 0.87458 0.0
C383 C 0.00178 0.51876 0.85554 0.0
C384 C 0.97371 0.50817 0.85219 0.0
C385 C 0.96335 0.50415 0.83341 0.0
C386 C 0.98065 0.51059 0.81722 0.0
C387 C 0.97019 0.50614 0.79806 0.0
C388 C 0.98802 0.51368 0.78228 0.0
C389 C 0.01617 0.52491 0.78509 0.0
C390 C 0.02686 0.52836 0.80415 0.0
C391 C 0.05485 0.53822 0.80753 0.0
C392 C 0.06515 0.5416 0.82633 0.0
C393 C 0.04792 0.53556 0.8425 0.0
C394 C 0.01962 0.52544 0.83944 0.0
C395 C 0.00906 0.52154 0.82026 0.0
C396 C 0.82371 0.44585 0.8201 0.0
C397 C 0.83845 0.43566 0.80684 0.0
O398 O 0.16653 0.57263 0.88508 0.0
O399 O 0.08963 0.55673 0.72192 0.0
O400 O 0.85549 0.45654 0.79439 0.0
O401 O 0.94754 0.49328 0.94256 0.0
H402 H 0.19044 0.60962 0.87209 0.0
H403 H 0.17129 0.61907 0.90153 0.0
H404 H 0.18556 0.60384 0.91687 0.0
H405 H 0.20769 0.63498 0.90393 0.0
H406 H 0.1486 0.60633 0.87236 0.0
H407 H 0.12778 0.52301 0.88175 0.0
H408 H 0.08189 0.59495 0.87065 0.0
H409 H 0.11649 0.61881 0.86338 0.0
H410 H 0.09223 0.59499 0.84609 0.0
H411 H 0.08527 0.48616 0.87093 0.0
H412 H 0.0611 0.49287 0.88314 0.0
H413 H 0.06212 0.49296 0.8571 0.0
H414 H 0.95835 0.46862 0.95833 0.0
H415 H 0.93301 0.46926 0.98379 0.0
H416 H 0.92143 0.48677 0.97171 0.0
H417 H 0.88578 0.43021 0.96272 0.0
H418 H 0.96302 0.46149 0.92373 0.0
H419 H 0.96581 0.53886 0.92411 0.0
H420 H 0.98777 0.46602 0.87565 0.0
H421 H 0.01432 0.47565 0.89338 0.0
H422 H 0.98058 0.44759 0.89826 0.0
H423 H 0.99068 0.57296 0.90081 0.0
H424 H 0.01991 0.57205 0.89108 0.0
H425 H 0.98908 0.55856 0.8771 0.0
H426 H 0.85059 0.43001 0.81661 0.0
H427 H 0.88301 0.42965 0.79588 0.0
H428 H 0.8892 0.50795 0.78924 0.0
H429 H 0.94611 0.44933 0.8123 0.0
H430 H 0.92178 0.42414 0.79574 0.0
H431 H 0.95359 0.45211 0.78686 0.0
H432 H 0.93168 0.54893 0.78746 0.0
H433 H 0.95617 0.54792 0.80382 0.0
H434 H 0.95962 0.54534 0.77818 0.0
H435 H 0.11666 0.5971 0.7277 0.0
H436 H 0.15448 0.58865 0.73785 0.0
H437 H 0.1242 0.56933 0.75216 0.0
H438 H 0.13249 0.55247 0.73331 0.0
H439 H 0.05713 0.50694 0.73252 0.0
H440 H 0.07949 0.59039 0.74306 0.0
H441 H 0.02383 0.48052 0.77725 0.0
H442 H 0.99837 0.47589 0.75974 0.0
H443 H 0.0263 0.47092 0.75262 0.0
H444 H 0.05665 0.60275 0.76587 0.0
H445 H 0.02441 0.57615 0.77527 0.0
H446 H 0.05553 0.58544 0.78807 0.0
H447 H 0.04832 0.53512 0.89207 0.0
H448 H 0.95941 0.50278 0.86407 0.0
H449 H 0.94155 0.49595 0.83177 0.0
H450 H 0.97987 0.51062 0.76764 0.0
H451 H 0.06911 0.54327 0.79565 0.0
H452 H 0.08682 0.54912 0.82805 0.0
H453 H 0.80998 0.42944 0.83025 0.0
H454 H 0.83894 0.46353 0.82881 0.0
H455 H 0.81142 0.45251 0.81151 0.0
C456 C 0.44491 0.8671 0.90896 0.0
C457 C 0.44834 0.85813 0.9293 0.0
C458 C 0.47868 0.90283 0.94451 0.0
C459 C 0.45895 0.91089 0.94677 0.0
C460 C 0.46651 0.93744 0.95298 0.0
C461 C 0.4943 0.95627 0.95697 0.0
C462 C 0.51408 0.94802 0.95518 0.0
C463 C 0.50592 0.9213 0.9491 0.0
C464 C 0.4449 0.94553 0.95502 0.0
C465 C 0.54393 0.96759 0.95928 0.0
C466 C 0.56319 0.11957 0.85269 0.0
C467 C 0.55958 0.09928 0.86793 0.0
C468 C 0.53616 0.08069 0.89864 0.0
C469 C 0.55374 0.07123 0.90477 0.0
C470 C 0.54844 0.05579 0.92177 0.0
C471 C 0.52461 0.04888 0.93263 0.0
C472 C 0.50669 0.05812 0.92643 0.0
C473 C 0.51302 0.07435 0.90969 0.0
C474 C 0.56821 0.04654 0.92793 0.0
C475 C 0.48067 0.05049 0.93728 0.0
C476 C 0.57154 0.15706 0.03727 0.0
C477 C 0.58893 0.14755 0.03104 0.0
C478 C 0.57897 0.11947 0.02848 0.0
C479 C 0.55088 0.10072 0.03167 0.0
C480 C 0.53357 0.1103 0.03856 0.0
C481 C 0.54432 0.1384 0.0416 0.0
C482 C 0.59838 0.10994 0.02205 0.0
C483 C 0.50357 0.09099 0.04223 0.0
C484 C 0.48902 0.90929 0.08845 0.0
C485 C 0.47769 0.92429 0.10042 0.0
C486 C 0.50302 0.97016 0.08736 0.0
C487 C 0.5301 0.98606 0.08131 0.0
C488 C 0.53687 0.00417 0.06565 0.0
C489 C 0.51604 0.00687 0.05624 0.0
C490 C 0.48878 0.9918 0.063 0.0
C491 C 0.48253 0.97343 0.07843 0.0
C492 C 0.56616 0.02002 0.05891 0.0
C493 C 0.46622 0.99496 0.05383 0.0
C494 C 0.50296 0.98504 0.96192 0.0
C495 C 0.50787 0.00305 0.94658 0.0
C496 C 0.51797 0.03089 0.94989 0.0
C497 C 0.52312 0.04115 0.96911 0.0
C498 C 0.53374 0.06909 0.97301 0.0
C499 C 0.53872 0.07895 0.99197 0.0
C500 C 0.53381 0.06134 0.00778 0.0
C501 C 0.53938 0.07128 0.02709 0.0
C502 C 0.53365 0.05311 0.04248 0.0
C503 C 0.52263 0.02512 0.03915 0.0
C504 C 0.51759 0.01489 0.01991 0.0
C505 C 0.5073 0.98698 0.01599 0.0
C506 C 0.50234 0.97711 0.99703 0.0
C507 C 0.50753 0.99478 0.98125 0.0
C508 C 0.51776 0.02297 0.98485 0.0
C509 C 0.52305 0.03308 0.0042 0.0
C510 C 0.58587 0.22254 0.02178 0.0
C511 C 0.59796 0.2043 0.02656 0.0
O512 O 0.47259 0.87776 0.93774 0.0
O513 O 0.49716 0.95179 0.10184 0.0
O514 O 0.5804 0.1841 0.03921 0.0
O515 O 0.5408 0.09576 0.88221 0.0
H516 H 0.43087 0.85501 0.93853 0.0
H517 H 0.44353 0.88598 0.90979 0.0
H518 H 0.46253 0.87121 0.89957 0.0
H519 H 0.42581 0.8509 0.90209 0.0
H520 H 0.43767 0.89681 0.94356 0.0
H521 H 0.52095 0.91486 0.94746 0.0
H522 H 0.44841 0.96133 0.94405 0.0
H523 H 0.42391 0.92791 0.953 0.0
H524 H 0.44634 0.95464 0.96958 0.0
H525 H 0.55686 0.95822 0.95663 0.0
H526 H 0.55134 0.98599 0.94999 0.0
H527 H 0.54655 0.97449 0.97463 0.0
H528 H 0.5566 0.07941 0.86235 0.0
H529 H 0.60384 0.15053 0.85644 0.0
H530 H 0.55552 0.10735 0.83888 0.0
H531 H 0.54541 0.12324 0.85414 0.0
H532 H 0.57174 0.07583 0.89642 0.0
H533 H 0.49953 0.08165 0.90488 0.0
H534 H 0.57244 0.04981 0.94375 0.0
H535 H 0.55897 0.02433 0.92497 0.0
H536 H 0.5879 0.05748 0.91999 0.0
H537 H 0.46748 0.0567 0.92938 0.0
H538 H 0.4689 0.02807 0.93974 0.0
H539 H 0.48573 0.06061 0.95172 0.0
H540 H 0.59934 0.19497 0.01264 0.0
H541 H 0.61026 0.16205 0.02827 0.0
H542 H 0.53124 0.14605 0.04668 0.0
H543 H 0.59458 0.10382 0.00654 0.0
H544 H 0.62009 0.12623 0.02368 0.0
H545 H 0.59495 0.09181 0.03056 0.0
H546 H 0.49242 0.10197 0.04583 0.0
H547 H 0.49392 0.07795 0.02925 0.0
H548 H 0.50124 0.07727 0.0545 0.0
H549 H 0.45917 0.92182 0.09286 0.0
H550 H 0.47365 0.88717 0.0874 0.0
H551 H 0.49383 0.91773 0.07351 0.0
H552 H 0.508 0.91168 0.09517 0.0
H553 H 0.54579 0.98357 0.08852 0.0
H554 H 0.4617 0.96184 0.08362 0.0
H555 H 0.56729 0.01639 0.04318 0.0
H556 H 0.57405 0.04223 0.06094 0.0
H557 H 0.57962 0.01432 0.06698 0.0
H558 H 0.44687 0.98428 0.06219 0.0
H559 H 0.47251 0.01694 0.05271 0.0
H560 H 0.46226 0.9864 0.0389 0.0
H561 H 0.50443 0.99538 0.93179 0.0
H562 H 0.53827 0.08367 0.96143 0.0
H563 H 0.54661 0.10062 0.99404 0.0
H564 H 0.53765 0.06083 0.05726 0.0
H565 H 0.50305 0.97243 0.02755 0.0
H566 H 0.4944 0.95543 0.99487 0.0
H567 H 0.58406 0.23258 0.03515 0.0
H568 H 0.59887 0.23853 0.01114 0.0
H569 H 0.56518 0.21001 0.01532 0.0
C570 C 0.58774 0.41721 0.08851 0.0
C571 C 0.60474 0.43219 0.10655 0.0
C572 C 0.59179 0.46691 0.11394 0.0
C573 C 0.56468 0.44863 0.11954 0.0
C574 C 0.54713 0.45828 0.12518 0.0
C575 C 0.55704 0.48674 0.12567 0.0
C576 C 0.58455 0.50519 0.12071 0.0
C577 C 0.60146 0.49498 0.11474 0.0
C578 C 0.51784 0.43805 0.13027 0.0
C579 C 0.59598 0.5357 0.12133 0.0
C580 C 0.47377 0.56906 0.02167 0.0
C581 C 0.48922 0.56567 0.03795 0.0
C582 C 0.48235 0.53734 0.06642 0.0
C583 C 0.50783 0.55543 0.07488 0.0
C584 C 0.51648 0.54846 0.09193 0.0
C585 C 0.49958 0.52269 0.10056 0.0
C586 C 0.47384 0.50449 0.09222 0.0
C587 C 0.46546 0.5122 0.07532 0.0
C588 C 0.54392 0.56854 0.10056 0.0
C589 C 0.45539 0.47681 0.10103 0.0
C590 C 0.43721 0.56969 0.20298 0.0
C591 C 0.46514 0.58607 0.1989 0.0
C592 C 0.48191 0.57443 0.19706 0.0
C593 C 0.47034 0.5458 0.19905 0.0
C594 C 0.44243 0.52945 0.20403 0.0
C595 C 0.42629 0.54175 0.20621 0.0
C596 C 0.51185 0.59264 0.19253 0.0
C597 C 0.42947 0.49892 0.20642 0.0
C598 C 0.59464 0.4786 0.25615 0.0
C599 C 0.56827 0.46628 0.2681 0.0
C600 C 0.54766 0.49189 0.25565 0.0
C601 C 0.55894 0.51932 0.25049 0.0
C602 C 0.54835 0.52702 0.23483 0.0
C603 C 0.52542 0.50674 0.22452 0.0
C604 C 0.51301 0.47907 0.23043 0.0
C605 C 0.52445 0.47192 0.24585 0.0
C606 C 0.56202 0.5567 0.22902 0.0
C607 C 0.48785 0.45704 0.22033 0.0
C608 C 0.53829 0.49723 0.1303 0.0
C609 C 0.52662 0.50368 0.11477 0.0
C610 C 0.50948 0.51452 0.11787 0.0
C611 C 0.5034 0.51875 0.13702 0.0
C612 C 0.48626 0.52965 0.14066 0.0
C613 C 0.48066 0.53404 0.15956 0.0
C614 C 0.49218 0.52792 0.17556 0.0
C615 C 0.48705 0.53284 0.19482 0.0
C616 C 0.49813 0.52575 0.2104 0.0
C617 C 0.51478 0.51431 0.20731 0.0
C618 C 0.52092 0.51011 0.18813 0.0
C619 C 0.53851 0.49971 0.18445 0.0
C620 C 0.54427 0.4955 0.16554 0.0
C621 C 0.5326 0.50144 0.14958 0.0
C622 C 0.51501 0.51217 0.15293 0.0
C623 C 0.50932 0.51668 0.17222 0.0
C624 C 0.39307 0.58966 0.18242 0.0
C625 C 0.42135 0.60012 0.19144 0.0
O626 O 0.60919 0.45861 0.10737 0.0
O627 O 0.55958 0.48518 0.27007 0.0
O628 O 0.42025 0.58017 0.20373 0.0
O629 O 0.47351 0.54337 0.04975 0.0
H630 H 0.59324 0.42071 0.1196 0.0
H631 H 0.56691 0.41443 0.08947 0.0
H632 H 0.59737 0.42889 0.07508 0.0
H633 H 0.58567 0.39663 0.08732 0.0
H634 H 0.55681 0.42683 0.11926 0.0
H635 H 0.6224 0.50894 0.11051 0.0
H636 H 0.50381 0.44142 0.12086 0.0
H637 H 0.513 0.41652 0.12856 0.0
H638 H 0.51379 0.44127 0.14553 0.0
H639 H 0.6186 0.54721 0.11995 0.0
H640 H 0.58715 0.54167 0.10919 0.0
H641 H 0.59023 0.54175 0.1351 0.0
H642 H 0.50895 0.56708 0.03372 0.0
H643 H 0.48291 0.56592 0.00808 0.0
H644 H 0.4539 0.54915 0.02031 0.0
H645 H 0.47556 0.6061 0.0282 0.0
H646 H 0.52115 0.57505 0.06828 0.0
H647 H 0.44582 0.49839 0.06877 0.0
H648 H 0.54187 0.57122 0.11632 0.0
H649 H 0.55807 0.5604 0.0989 0.0
H650 H 0.5532 0.58885 0.09343 0.0
H651 H 0.43623 0.46478 0.09256 0.0
H652 H 0.4663 0.46506 0.10185 0.0
H653 H 0.45001 0.47937 0.11608 0.0
H654 H 0.43566 0.60377 0.17922 0.0
H655 H 0.4738 0.60791 0.1971 0.0
H656 H 0.40477 0.52942 0.20966 0.0
H657 H 0.51578 0.58907 0.17732 0.0
H658 H 0.51846 0.61465 0.19425 0.0
H659 H 0.52454 0.58764 0.20214 0.0
H660 H 0.40724 0.48898 0.20953 0.0
H661 H 0.43243 0.48977 0.19301 0.0
H662 H 0.43962 0.4944 0.2185 0.0
H663 H 0.55243 0.44784 0.26031 0.0
H664 H 0.60192 0.46369 0.25469 0.0
H665 H 0.59082 0.48375 0.24135 0.0
H666 H 0.61091 0.49753 0.26315 0.0
H667 H 0.57668 0.53459 0.25837 0.0
H668 H 0.51515 0.45077 0.25033 0.0
H669 H 0.56737 0.55886 0.21337 0.0
H670 H 0.54762 0.56447 0.2312 0.0
H671 H 0.58087 0.56964 0.23759 0.0
H672 H 0.47855 0.43735 0.22831 0.0
H673 H 0.47233 0.46351 0.21872 0.0
H674 H 0.49338 0.45363 0.20556 0.0
H675 H 0.53134 0.50067 0.10002 0.0
H676 H 0.47696 0.5349 0.12893 0.0
H677 H 0.46721 0.54235 0.16144 0.0
H678 H 0.4938 0.52926 0.22513 0.0
H679 H 0.54812 0.49479 0.19615 0.0
H680 H 0.55799 0.4875 0.16359 0.0
H681 H 0.3776 0.58539 0.19386 0.0
H682 H 0.39338 0.60497 0.17216 0.0
H683 H 0.38692 0.57046 0.17424 0.0
Li684 Li 0.63444 0.41582 0.43236 0.0
Li685 Li 0.62773 0.37303 0.41644 0.0
Li686 Li 0.66985 0.41573 0.41186 0.0
Li687 Li 0.62797 0.40881 0.3957 0.0
C688 C 0.67613 0.40253 0.44838 0.0
N689 N 0.72092 0.41637 0.47181 0.0
C690 C 0.68204 0.38244 0.45442 0.0
C691 C 0.6929 0.42962 0.45429 0.0
C692 C 0.70481 0.38986 0.46626 0.0
C693 C 0.71548 0.43621 0.46612 0.0
C694 C 0.57614 0.36984 0.42256 0.0
C695 C 0.52882 0.33871 0.41483 0.0
N696 N 0.52333 0.33356 0.43407 0.0
C697 C 0.57003 0.36439 0.44227 0.0
C698 C 0.55538 0.35708 0.40872 0.0
C699 C 0.5432 0.34593 0.44779 0.0
C700 C 0.61232 0.44393 0.45274 0.0
N701 N 0.6254 0.42936 0.4547 0.0
C702 C 0.62172 0.4296 0.48922 0.0
C703 C 0.6303 0.42223 0.47245 0.0
C704 C 0.60764 0.44412 0.48767 0.0
C705 C 0.60319 0.45159 0.46917 0.0
H706 H 0.60846 0.44905 0.43839 0.0
H707 H 0.64012 0.41007 0.4736 0.0
C708 C 0.63614 0.32957 0.41603 0.0
N709 N 0.61596 0.33523 0.42008 0.0
C710 C 0.63356 0.30463 0.42127 0.0
C711 C 0.58848 0.29068 0.43365 0.0
C712 C 0.59203 0.31614 0.42822 0.0
C713 C 0.60989 0.28513 0.43081 0.0
H714 H 0.65496 0.34507 0.40964 0.0
H715 H 0.57616 0.32089 0.43128 0.0
C716 C 0.67456 0.46709 0.4056 0.0
N717 N 0.71353 0.51923 0.39458 0.0
C718 C 0.68089 0.4732 0.38598 0.0
C719 C 0.68787 0.48749 0.41961 0.0
C720 C 0.70069 0.49969 0.38071 0.0
C721 C 0.70758 0.51372 0.41375 0.0
C722 C 0.63988 0.36914 0.37787 0.0
C723 C 0.65943 0.36532 0.36816 0.0
C724 C 0.61222 0.35269 0.37326 0.0
C725 C 0.65092 0.34506 0.3539 0.0
C726 C 0.60454 0.33266 0.3589 0.0
N727 N 0.62388 0.32929 0.3496 0.0
C728 C 0.71158 0.40542 0.40877 0.0
C729 C 0.72827 0.4524 0.40274 0.0
C730 C 0.73648 0.40795 0.40347 0.0
N731 N 0.70765 0.42723 0.40794 0.0
C732 C 0.75366 0.45585 0.39714 0.0
C733 C 0.75767 0.4332 0.39702 0.0
H734 H 0.69487 0.38567 0.41279 0.0
H735 H 0.72492 0.46957 0.40222 0.0
C736 C 0.59622 0.4267 0.37551 0.0
N737 N 0.61376 0.41698 0.3733 0.0
C738 C 0.58684 0.43446 0.35927 0.0
C739 C 0.61334 0.42152 0.33886 0.0
C740 C 0.62246 0.41437 0.35546 0.0
C741 C 0.59554 0.43195 0.34069 0.0
H742 H 0.58986 0.42878 0.38992 0.0
H743 H 0.63696 0.40729 0.35411 0.0
O744 O 0.65407 0.39573 0.43666 0.0
O745 O 0.60216 0.38813 0.41684 0.0
O746 O 0.65497 0.44145 0.41106 0.0
O747 O 0.64785 0.38869 0.39201 0.0
H748 H 0.6692 0.36136 0.45 0.0
H749 H 0.68855 0.44537 0.4497 0.0
H750 H 0.70968 0.37455 0.47104 0.0
H751 H 0.72868 0.45711 0.47078 0.0
H752 H 0.51255 0.32861 0.40428 0.0
H753 H 0.58586 0.37404 0.45316 0.0
H754 H 0.55971 0.36141 0.39343 0.0
H755 H 0.53818 0.3414 0.46298 0.0
H756 H 0.62525 0.42323 0.50323 0.0
H757 H 0.59259 0.463 0.46744 0.0
H758 H 0.65066 0.30134 0.4189 0.0
H759 H 0.56966 0.27594 0.44063 0.0
H760 H 0.67079 0.45763 0.37497 0.0
H761 H 0.68296 0.48312 0.43484 0.0
H762 H 0.70589 0.50471 0.36559 0.0
H763 H 0.7181 0.52972 0.42442 0.0
H764 H 0.68093 0.37787 0.37162 0.0
H765 H 0.59689 0.35535 0.38073 0.0
H766 H 0.66581 0.34186 0.34625 0.0
H767 H 0.58319 0.31977 0.35517 0.0
H768 H 0.7386 0.38991 0.40343 0.0
H769 H 0.76968 0.47576 0.39245 0.0
H770 H 0.57301 0.44234 0.36117 0.0
H771 H 0.62068 0.41961 0.32475 0.0
Li772 Li 0.23498 0.62343 0.59647 0.0
Li773 Li 0.27167 0.61676 0.58122 0.0
Li774 Li 0.27151 0.65885 0.57735 0.0
Li775 Li 0.23751 0.61893 0.5601 0.0
C776 C 0.2925 0.66388 0.61288 0.0
N777 N 0.32939 0.70858 0.63441 0.0
C778 C 0.31785 0.66691 0.61793 0.0
C779 C 0.28579 0.68343 0.61894 0.0
C780 C 0.33624 0.68969 0.62879 0.0
C781 C 0.30476 0.70593 0.62975 0.0
C782 C 0.22279 0.56664 0.58908 0.0
C783 C 0.20322 0.51778 0.58671 0.0
N784 N 0.20586 0.51655 0.60625 0.0
C785 C 0.2253 0.56492 0.60914 0.0
C786 C 0.2116 0.54291 0.57775 0.0
C787 C 0.2166 0.53939 0.61755 0.0
C788 C 0.18373 0.60004 0.61567 0.0
N789 N 0.21129 0.61508 0.6181 0.0
C790 C 0.20616 0.61786 0.65228 0.0
C791 C 0.22268 0.62393 0.63593 0.0
C792 C 0.17766 0.60227 0.65028 0.0
C793 C 0.16638 0.59328 0.63171 0.0
H794 H 0.17529 0.59319 0.60129 0.0
H795 H 0.24464 0.63541 0.63751 0.0
C796 C 0.32304 0.62374 0.57927 0.0
N797 N 0.29748 0.60464 0.58491 0.0
C798 C 0.3456 0.62151 0.58465 0.0
C799 C 0.31509 0.57865 0.60027 0.0
C800 C 0.29299 0.58184 0.59468 0.0
C801 C 0.3419 0.59928 0.59594 0.0
H802 H 0.32613 0.64172 0.57163 0.0
H803 H 0.27259 0.56677 0.59895 0.0
C804 C 0.22577 0.6657 0.5732 0.0
N805 N 0.21311 0.70666 0.56854 0.0
C806 C 0.22511 0.67531 0.55464 0.0
C807 C 0.2197 0.67666 0.58937 0.0
C808 C 0.21873 0.6961 0.55259 0.0
C809 C 0.21346 0.69745 0.58671 0.0
C810 C 0.28452 0.62651 0.54214 0.0
C811 C 0.30493 0.64319 0.52904 0.0
C812 C 0.27113 0.59812 0.53993 0.0
C813 C 0.31155 0.63117 0.51383 0.0
C814 C 0.27834 0.58688 0.52453 0.0
N815 N 0.29822 0.60349 0.51191 0.0
C816 C 0.32366 0.70027 0.57403 0.0
C817 C 0.29393 0.71847 0.57272 0.0
C818 C 0.34629 0.72601 0.57114 0.0
N819 N 0.29809 0.69683 0.57464 0.0
C820 C 0.31612 0.74471 0.56946 0.0
C821 C 0.34267 0.74857 0.56826 0.0
H822 H 0.32643 0.68283 0.57575 0.0
H823 H 0.27358 0.71553 0.57346 0.0
C824 C 0.1902 0.58569 0.53742 0.0
N825 N 0.21642 0.60676 0.53699 0.0
C826 C 0.1743 0.57788 0.52051 0.0
C827 C 0.21288 0.61333 0.50311 0.0
C828 C 0.22787 0.62065 0.52034 0.0
C829 C 0.18575 0.59175 0.50309 0.0
H830 H 0.18157 0.57524 0.55095 0.0
H831 H 0.24853 0.63778 0.52052 0.0
O832 O 0.2743 0.64182 0.60213 0.0
O833 O 0.23072 0.5913 0.58052 0.0
O834 O 0.23145 0.64504 0.57549 0.0
O835 O 0.27784 0.63812 0.55703 0.0
H836 H 0.32325 0.65182 0.61357 0.0
H837 H 0.26624 0.68134 0.61518 0.0
H838 H 0.35596 0.69232 0.63277 0.0
H839 H 0.29991 0.72131 0.63443 0.0
H840 H 0.19458 0.49925 0.57812 0.0
H841 H 0.23429 0.58311 0.61809 0.0
H842 H 0.20939 0.54391 0.56221 0.0
H843 H 0.21852 0.53775 0.63305 0.0
H844 H 0.21557 0.6249 0.66641 0.0
H845 H 0.14445 0.58138 0.62963 0.0
H846 H 0.36586 0.63799 0.58106 0.0
H847 H 0.31132 0.56084 0.60857 0.0
H848 H 0.22959 0.66688 0.54198 0.0
H849 H 0.21973 0.66913 0.6038 0.0
H850 H 0.21825 0.70383 0.53833 0.0
H851 H 0.20881 0.70621 0.59909 0.0
H852 H 0.3155 0.66522 0.5306 0.0
H853 H 0.25535 0.5849 0.54994 0.0
H854 H 0.32728 0.64383 0.50356 0.0
H855 H 0.26812 0.56494 0.52262 0.0
H856 H 0.36646 0.72818 0.57109 0.0
H857 H 0.31251 0.76167 0.56749 0.0
H858 H 0.15334 0.56123 0.52099 0.0
H859 H 0.22216 0.62484 0.49002 0.0
Li860 Li 0.66438 0.26985 0.74988 0.0
Li861 Li 0.62117 0.23523 0.76333 0.0
Li862 Li 0.63277 0.23405 0.72831 0.0
Li863 Li 0.62227 0.26863 0.73952 0.0
C864 C 0.67343 0.22984 0.7577 0.0
N865 N 0.72058 0.2306 0.76941 0.0
C866 C 0.67872 0.22911 0.77744 0.0
C867 C 0.69192 0.23069 0.7439 0.0
C868 C 0.70273 0.22958 0.78307 0.0
C869 C 0.7157 0.23113 0.75011 0.0
C870 C 0.62396 0.28235 0.77839 0.0
C871 C 0.58088 0.27536 0.79047 0.0
N872 N 0.59453 0.29664 0.80298 0.0
C873 C 0.63756 0.30418 0.79132 0.0
C874 C 0.59538 0.26782 0.7779 0.0
C875 C 0.62232 0.31107 0.80366 0.0
C876 C 0.72019 0.31096 0.74424 0.0
N877 N 0.70094 0.29475 0.75735 0.0
C878 C 0.73043 0.31976 0.78373 0.0
C879 C 0.70572 0.29844 0.77676 0.0
C880 C 0.75023 0.33764 0.77056 0.0
C881 C 0.74525 0.33258 0.75058 0.0
H882 H 0.71567 0.308 0.72891 0.0
H883 H 0.68975 0.28563 0.78684 0.0
C884 C 0.59264 0.18545 0.78265 0.0
N885 N 0.60569 0.21293 0.78554 0.0
C886 C 0.58596 0.16778 0.79845 0.0
C887 C 0.60477 0.20693 0.81992 0.0
C888 C 0.61145 0.22389 0.80371 0.0
C889 C 0.59275 0.17862 0.81728 0.0
H890 H 0.58881 0.17738 0.76802 0.0
H891 H 0.6227 0.2458 0.80563 0.0
C892 C 0.66147 0.27907 0.70465 0.0
N893 N 0.67734 0.28909 0.66624 0.0
C894 C 0.64865 0.28844 0.69192 0.0
C895 C 0.68245 0.27495 0.69788 0.0
C896 C 0.65696 0.29335 0.67254 0.0
C897 C 0.69014 0.28008 0.67839 0.0
C898 C 0.57462 0.21786 0.72886 0.0
C899 C 0.57631 0.22439 0.70918 0.0
C900 C 0.54914 0.20065 0.7372 0.0
C901 C 0.55238 0.21351 0.6981 0.0
C902 C 0.52567 0.19023 0.72565 0.0
N903 N 0.52776 0.19681 0.7065 0.0
C904 C 0.6252 0.18454 0.71429 0.0
C905 C 0.62669 0.21345 0.68887 0.0
C906 C 0.62064 0.16399 0.70098 0.0
N907 N 0.62816 0.20871 0.70809 0.0
C908 C 0.62251 0.19361 0.67505 0.0
C909 C 0.61937 0.16852 0.6811 0.0
H910 H 0.62611 0.18113 0.72965 0.0
H911 H 0.62829 0.23237 0.68415 0.0
C912 C 0.63026 0.31966 0.73476 0.0
N913 N 0.61008 0.29327 0.73256 0.0
C914 C 0.6267 0.34091 0.72806 0.0
C915 C 0.58119 0.30758 0.71746 0.0
C916 C 0.5855 0.28686 0.72464 0.0
C917 C 0.60231 0.33493 0.71866 0.0
H918 H 0.6495 0.3241 0.74129 0.0
H919 H 0.56955 0.26579 0.72333 0.0
O920 O 0.65028 0.22984 0.75191 0.0
O921 O 0.63869 0.27552 0.76619 0.0
O922 O 0.65365 0.27423 0.72367 0.0
O923 O 0.5977 0.2282 0.74003 0.0
H924 H 0.66455 0.22841 0.78829 0.0
H925 H 0.68793 0.23099 0.72856 0.0
H926 H 0.70719 0.22917 0.79831 0.0
H927 H 0.73027 0.23189 0.7396 0.0
H928 H 0.55876 0.26429 0.79027 0.0
H929 H 0.65969 0.31565 0.79182 0.0
H930 H 0.58448 0.25091 0.76797 0.0
H931 H 0.63258 0.3279 0.81378 0.0
H932 H 0.7334 0.32314 0.79924 0.0
H933 H 0.76016 0.34578 0.73999 0.0
H934 H 0.57644 0.14599 0.7959 0.0
H935 H 0.61077 0.21606 0.83421 0.0
H936 H 0.63239 0.29176 0.69689 0.0
H937 H 0.69253 0.26766 0.70752 0.0
H938 H 0.64717 0.30052 0.66251 0.0
H939 H 0.70626 0.27685 0.67293 0.0
H940 H 0.5958 0.23817 0.70266 0.0
H941 H 0.54755 0.19547 0.75245 0.0
H942 H 0.55336 0.21848 0.68286 0.0
H943 H 0.50579 0.17693 0.73191 0.0
H944 H 0.61823 0.14481 0.70615 0.0
H945 H 0.62116 0.19759 0.65983 0.0
H946 H 0.64304 0.36172 0.73014 0.0
H947 H 0.56199 0.30208 0.71039 0.0
Li948 Li 0.41403 0.61886 0.92911 0.0
Li949 Li 0.42174 0.66176 0.91225 0.0
Li950 Li 0.38248 0.61916 0.90588 0.0
Li951 Li 0.42477 0.62609 0.89323 0.0
C952 C 0.36877 0.63177 0.93882 0.0
N953 N 0.31721 0.61705 0.95234 0.0
C954 C 0.35994 0.65089 0.93913 0.0
C955 C 0.3515 0.60525 0.94556 0.0
C956 C 0.33376 0.64302 0.94597 0.0
C957 C 0.32548 0.5982 0.9523 0.0
C958 C 0.47144 0.66342 0.9254 0.0
C959 C 0.5207 0.68905 0.92641 0.0
N960 N 0.51971 0.69411 0.94561 0.0
C961 C 0.47088 0.66894 0.94513 0.0
C962 C 0.49652 0.67353 0.91594 0.0
C963 C 0.49552 0.68445 0.9551 0.0
C964 C 0.44207 0.59878 0.95041 0.0
N965 N 0.42236 0.60577 0.95192 0.0
C966 C 0.42194 0.60176 0.98645 0.0
C967 C 0.41184 0.6069 0.96941 0.0
C968 C 0.44332 0.59597 0.98535 0.0
C969 C 0.45297 0.59381 0.96708 0.0
H970 H 0.45025 0.5984 0.9363 0.0
H971 H 0.39666 0.61318 0.97023 0.0
C972 C 0.41537 0.70622 0.90675 0.0
N973 N 0.43331 0.69965 0.91479 0.0
C974 C 0.4192 0.73241 0.90884 0.0
C975 C 0.4605 0.74517 0.92705 0.0
C976 C 0.45585 0.71857 0.92458 0.0
C977 C 0.44177 0.75216 0.91933 0.0
H978 H 0.39765 0.69083 0.89907 0.0
H979 H 0.46991 0.71305 0.93084 0.0
C980 C 0.37654 0.56843 0.90099 0.0
N981 N 0.33566 0.518 0.88833 0.0
C982 C 0.36935 0.56422 0.88136 0.0
C983 C 0.36315 0.54702 0.91418 0.0
C984 C 0.34855 0.53856 0.87525 0.0
C985 C 0.34248 0.52165 0.90749 0.0
C986 C 0.42018 0.66478 0.87212 0.0
C987 C 0.40648 0.66754 0.85614 0.0
C988 C 0.44862 0.68096 0.87343 0.0
C989 C 0.4215 0.68639 0.84166 0.0
C990 C 0.46289 0.69958 0.85865 0.0
N991 N 0.44916 0.70188 0.84321 0.0
C992 C 0.34185 0.62781 0.89367 0.0
C993 C 0.32284 0.58118 0.90207 0.0
C994 C 0.31602 0.6243 0.89034 0.0
N995 N 0.34488 0.6066 0.89972 0.0
C996 C 0.29645 0.57655 0.89843 0.0
C997 C 0.29278 0.59848 0.89286 0.0
H998 H 0.35961 0.64785 0.89214 0.0
H999 H 0.32549 0.56465 0.90725 0.0
C1000 C 0.4639 0.61414 0.87972 0.0
N1001 N 0.44384 0.61897 0.87358 0.0
C1002 C 0.47909 0.60875 0.86631 0.0
C1003 C 0.45265 0.61335 0.84045 0.0
C1004 C 0.43783 0.61851 0.8544 0.0
C1005 C 0.47346 0.60824 0.84641 0.0
H1006 H 0.46812 0.61456 0.89507 0.0
H1007 H 0.42155 0.62212 0.84994 0.0
O1008 O 0.39401 0.63882 0.93165 0.0
O1009 O 0.44763 0.64762 0.91544 0.0
O1010 O 0.39695 0.59326 0.90726 0.0
O1011 O 0.40557 0.64631 0.88633 0.0
H1012 H 0.37307 0.6715 0.934 0.0
H1013 H 0.35796 0.59015 0.94524 0.0
H1014 H 0.32658 0.65754 0.94618 0.0
H1015 H 0.3118 0.57768 0.9574 0.0
H1016 H 0.54026 0.69702 0.91927 0.0
H1017 H 0.45165 0.66157 0.95262 0.0
H1018 H 0.49729 0.66939 0.90068 0.0
H1019 H 0.49541 0.68887 0.97038 0.0
H1020 H 0.41424 0.60394 0.00033 0.0
H1021 H 0.46916 0.58896 0.96568 0.0
H1022 H 0.40444 0.73709 0.90252 0.0
H1023 H 0.47802 0.7598 0.93541 0.0
H1024 H 0.37961 0.58064 0.871 0.0
H1025 H 0.36863 0.55002 0.92942 0.0
H1026 H 0.34264 0.53499 0.86011 0.0
H1027 H 0.33185 0.50489 0.91752 0.0
H1028 H 0.38446 0.65518 0.85494 0.0
H1029 H 0.45961 0.67923 0.88567 0.0
H1030 H 0.41116 0.68871 0.8292 0.0
H1031 H 0.4849 0.71221 0.85947 0.0
H1032 H 0.31429 0.64192 0.88637 0.0
H1033 H 0.27919 0.55614 0.90015 0.0
H1034 H 0.49531 0.60538 0.87143 0.0
H1035 H 0.44777 0.61309 0.82521 0.0
Li1036 Li 0.77679 0.41179 0.08457 0.0
Li1037 Li 0.8121 0.40405 0.09699 0.0
Li1038 Li 0.80959 0.41358 0.06112 0.0
Li1039 Li 0.77435 0.36925 0.07689 0.0
C1040 C 0.82063 0.46203 0.09077 0.0
N1041 N 0.82782 0.51109 0.1046 0.0
C1042 C 0.81621 0.46483 0.11037 0.0
C1043 C 0.82886 0.48415 0.0782 0.0
C1044 C 0.81989 0.48981 0.11708 0.0
C1045 C 0.83237 0.50881 0.08548 0.0
C1046 C 0.76695 0.36859 0.11936 0.0
C1047 C 0.76465 0.33118 0.13767 0.0
N1048 N 0.75554 0.339 0.15332 0.0
C1049 C 0.75737 0.37615 0.13557 0.0
C1050 C 0.77048 0.34585 0.12034 0.0
C1051 C 0.7518 0.36098 0.15263 0.0
C1052 C 0.72737 0.4018 0.09751 0.0
N1053 N 0.75119 0.42332 0.09121 0.0
C1054 C 0.73197 0.4526 0.09311 0.0
C1055 C 0.7539 0.44848 0.08887 0.0
C1056 C 0.7071 0.43055 0.09959 0.0
C1057 C 0.70498 0.40488 0.10164 0.0
H1058 H 0.72544 0.38185 0.09869 0.0
H1059 H 0.77263 0.46514 0.08322 0.0
C1060 C 0.86257 0.41433 0.11074 0.0
N1061 N 0.83804 0.41056 0.11681 0.0
C1062 C 0.88356 0.42078 0.12407 0.0
C1063 C 0.85361 0.41913 0.14973 0.0
C1064 C 0.83321 0.41288 0.13586 0.0
C1065 C 0.87924 0.42349 0.1438 0.0
H1066 H 0.86591 0.41265 0.09546 0.0
H1067 H 0.81379 0.41045 0.14027 0.0
C1068 C 0.75148 0.40066 0.05121 0.0
N1069 N 0.71467 0.41565 0.03795 0.0
C1070 C 0.72355 0.38154 0.05071 0.0
C1071 C 0.76073 0.42735 0.04485 0.0
C1072 C 0.70525 0.38954 0.04399 0.0
C1073 C 0.74179 0.43453 0.03821 0.0
C1074 C 0.82208 0.36575 0.06905 0.0
C1075 C 0.82624 0.36182 0.04959 0.0
C1076 C 0.82636 0.35094 0.0835 0.0
C1077 C 0.83429 0.34281 0.04489 0.0
C1078 C 0.83435 0.33208 0.0782 0.0
N1079 N 0.83811 0.32844 0.05917 0.0
C1080 C 0.85806 0.43485 0.04042 0.0
C1081 C 0.81997 0.42693 0.02108 0.0
C1082 C 0.87432 0.44059 0.02392 0.0
N1083 N 0.83131 0.42761 0.03865 0.0
C1084 C 0.83564 0.43291 0.00422 0.0
C1085 C 0.86288 0.43897 0.00556 0.0
H1086 H 0.86635 0.43482 0.05458 0.0
H1087 H 0.79848 0.42044 0.02005 0.0
C1088 C 0.72342 0.32419 0.08017 0.0
N1089 N 0.74824 0.33194 0.07225 0.0
C1090 C 0.70048 0.29989 0.07443 0.0
C1091 C 0.72939 0.29064 0.05368 0.0
C1092 C 0.7518 0.31548 0.0596 0.0
C1093 C 0.70308 0.28321 0.06045 0.0
H1094 H 0.72111 0.33787 0.08995 0.0
H1095 H 0.77161 0.32216 0.05328 0.0
O1096 O 0.81728 0.43784 0.08393 0.0
O1097 O 0.77254 0.38334 0.10261 0.0
O1098 O 0.76965 0.3935 0.05831 0.0
O1099 O 0.81458 0.38454 0.07395 0.0
H1100 H 0.80978 0.44783 0.12024 0.0
H1101 H 0.83242 0.48224 0.06298 0.0
H1102 H 0.81641 0.49227 0.1322 0.0
H1103 H 0.83866 0.52611 0.07593 0.0
H1104 H 0.76733 0.31355 0.13866 0.0
H1105 H 0.75448 0.3937 0.13499 0.0
H1106 H 0.77748 0.33952 0.10784 0.0
H1107 H 0.74451 0.36668 0.16533 0.0
H1108 H 0.73431 0.47267 0.09109 0.0
H1109 H 0.68593 0.38705 0.10578 0.0
H1110 H 0.90299 0.42368 0.11901 0.0
H1111 H 0.84966 0.42121 0.16484 0.0
H1112 H 0.71605 0.36081 0.05558 0.0
H1113 H 0.78228 0.44247 0.04536 0.0
H1114 H 0.68356 0.375 0.04362 0.0
H1115 H 0.74863 0.45517 0.03338 0.0
H1116 H 0.82309 0.37317 0.03823 0.0
H1117 H 0.82373 0.35411 0.09865 0.0
H1118 H 0.83748 0.33947 0.02988 0.0
H1119 H 0.83766 0.32043 0.08923 0.0
H1120 H 0.8954 0.44557 0.02551 0.0
H1121 H 0.82606 0.43113 0.99025 0.0
H1122 H 0.68065 0.29517 0.07994 0.0
H1123 H 0.73244 0.27805 0.04327 0.0
Li1124 Li 0.42189 0.80608 0.26483 0.0
Li1125 Li 0.38207 0.77362 0.248 0.0
Li1126 Li 0.42195 0.77056 0.24413 0.0
Li1127 Li 0.41794 0.80834 0.22847 0.0
C1128 C 0.41399 0.75945 0.28307 0.0
N1129 N 0.43883 0.74648 0.31251 0.0
C1130 C 0.39815 0.74019 0.29712 0.0
C1131 C 0.44251 0.77207 0.28399 0.0
C1132 C 0.41109 0.73393 0.31189 0.0
C1133 C 0.45466 0.76524 0.29899 0.0
C1134 C 0.37597 0.81765 0.25438 0.0
C1135 C 0.34415 0.833 0.24687 0.0
N1136 N 0.33299 0.82511 0.26484 0.0
C1137 C 0.36433 0.80983 0.2728 0.0
C1138 C 0.36594 0.82943 0.24131 0.0
C1139 C 0.34255 0.81371 0.27779 0.0
C1140 C 0.45475 0.85481 0.28599 0.0
N1141 N 0.43519 0.82804 0.28758 0.0
C1142 C 0.43156 0.8331 0.3217 0.0
C1143 C 0.42349 0.81705 0.30495 0.0
C1144 C 0.45136 0.86086 0.32046 0.0
C1145 C 0.46312 0.87178 0.30238 0.0
H1146 H 0.46341 0.86308 0.27193 0.0
H1147 H 0.40739 0.79596 0.30577 0.0
C1148 C 0.33702 0.72503 0.25841 0.0
N1149 N 0.34343 0.74943 0.25029 0.0
C1150 C 0.30997 0.70396 0.25925 0.0
C1151 C 0.29622 0.7335 0.24365 0.0
C1152 C 0.32367 0.75412 0.24313 0.0
C1153 C 0.28924 0.70788 0.25145 0.0
H1154 H 0.35308 0.72163 0.2637 0.0
H1155 H 0.32918 0.77337 0.2363 0.0
C1156 C 0.47294 0.81872 0.23481 0.0
N1157 N 0.5212 0.83504 0.2151 0.0
C1158 C 0.47237 0.81084 0.2155 0.0
C1159 C 0.49801 0.83488 0.24411 0.0
C1160 C 0.49701 0.81934 0.20577 0.0
C1161 C 0.5222 0.8429 0.2339 0.0
C1162 C 0.37358 0.75441 0.21274 0.0
C1163 C 0.36131 0.72602 0.21097 0.0
C1164 C 0.36111 0.76789 0.20423 0.0
C1165 C 0.33662 0.71156 0.20086 0.0
C1166 C 0.33652 0.75272 0.19414 0.0
N1167 N 0.32485 0.7251 0.19272 0.0
C1168 C 0.41107 0.71812 0.24306 0.0
C1169 C 0.45726 0.74795 0.23442 0.0
C1170 C 0.41305 0.69542 0.23771 0.0
N1171 N 0.43259 0.74374 0.24062 0.0
C1172 C 0.46022 0.72569 0.22893 0.0
C1173 C 0.43757 0.69908 0.22986 0.0
H1174 H 0.39181 0.71543 0.24825 0.0
H1175 H 0.47434 0.76845 0.23306 0.0
C1176 C 0.44051 0.85934 0.20873 0.0
N1177 N 0.42831 0.83177 0.20646 0.0
C1178 C 0.44888 0.87643 0.19247 0.0
C1179 C 0.43169 0.83637 0.17196 0.0
C1180 C 0.42395 0.82015 0.18855 0.0
C1181 C 0.44442 0.86486 0.17382 0.0
H1182 H 0.44388 0.86801 0.22317 0.0
H1183 H 0.41475 0.79824 0.18714 0.0
O1184 O 0.40141 0.76563 0.26854 0.0
O1185 O 0.39722 0.81395 0.24917 0.0
O1186 O 0.44916 0.81096 0.24461 0.0
O1187 O 0.39736 0.76891 0.22306 0.0
H1188 H 0.37607 0.73025 0.29665 0.0
H1189 H 0.45521 0.78696 0.27331 0.0
H1190 H 0.39906 0.7191 0.32287 0.0
H1191 H 0.47668 0.77486 0.29987 0.0
H1192 H 0.33608 0.842 0.2369 0.0
H1193 H 0.37184 0.80058 0.28302 0.0
H1194 H 0.37483 0.83561 0.227 0.0
H1195 H 0.33321 0.80762 0.29196 0.0
H1196 H 0.42184 0.82414 0.3354 0.0
H1197 H 0.47846 0.89316 0.30096 0.0
H1198 H 0.30534 0.68463 0.26568 0.0
H1199 H 0.28075 0.7372 0.23741 0.0
H1200 H 0.45313 0.79793 0.20821 0.0
H1201 H 0.49874 0.84113 0.25907 0.0
H1202 H 0.49689 0.81334 0.19084 0.0
H1203 H 0.54177 0.85537 0.24093 0.0
H1204 H 0.37062 0.7152 0.21738 0.0
H1205 H 0.37004 0.78979 0.20574 0.0
H1206 H 0.32682 0.68957 0.19949 0.0
H1207 H 0.32658 0.76288 0.1876 0.0
H1208 H 0.39507 0.67531 0.23866 0.0
H1209 H 0.4797 0.7293 0.22343 0.0
H1210 H 0.45853 0.89835 0.19441 0.0
H1211 H 0.42821 0.82678 0.15781 0.0
C1212 C 0.21233 0.66682 0.25866 0.0
C1213 C 0.20568 0.6405 0.25219 0.0
C1214 C 0.23935 0.68863 0.25819 0.0
C1215 C 0.26062 0.68498 0.25106 0.0
H1216 H 0.19658 0.67056 0.26423 0.0
H1217 H 0.24368 0.70837 0.26371 0.0
S1218 S 0.2535 0.62133 0.22985 0.0
N1219 N 0.22227 0.61283 0.23678 0.0
N1220 N 0.27292 0.65388 0.23567 0.0
C1221 C 0.2541 0.65914 0.2438 0.0
C1222 C 0.22667 0.63695 0.24433 0.0
C1223 C 0.62377 0.22651 0.43733 0.0
C1224 C 0.61845 0.22029 0.45719 0.0
C1225 C 0.61909 0.24618 0.42857 0.0
C1226 C 0.60931 0.2607 0.43935 0.0
H1227 H 0.6326 0.2169 0.42865 0.0
H1228 H 0.62424 0.25086 0.41338 0.0
S1229 S 0.59203 0.25191 0.49178 0.0
N1230 N 0.60219 0.22967 0.48724 0.0
N1231 N 0.59407 0.26714 0.47091 0.0
C1232 C 0.60306 0.25404 0.45906 0.0
C1233 C 0.6076 0.23384 0.46794 0.0
C1234 C 0.41465 0.6135 0.60213 0.0
C1235 C 0.41662 0.61067 0.62228 0.0
C1236 C 0.38987 0.6079 0.5935 0.0
C1237 C 0.3662 0.59969 0.6047 0.0
H1238 H 0.43259 0.62108 0.59302 0.0
H1239 H 0.38953 0.61109 0.57802 0.0
S1240 S 0.3606 0.58916 0.65805 0.0
N1241 N 0.39266 0.59842 0.6531 0.0
N1242 N 0.34631 0.58869 0.63702 0.0
C1243 C 0.36769 0.59595 0.62477 0.0
C1244 C 0.39285 0.60139 0.63351 0.0
C1245 C 0.81138 0.38449 0.80187 0.0
C1246 C 0.81792 0.41073 0.7955 0.0
C1247 C 0.79019 0.3609 0.7932 0.0
C1248 C 0.77472 0.36265 0.77784 0.0
H1249 H 0.82224 0.38217 0.81402 0.0
H1250 H 0.78548 0.34113 0.79885 0.0
S1251 S 0.78339 0.42642 0.75584 0.0
N1252 N 0.80727 0.43703 0.77279 0.0
N1253 N 0.7673 0.39271 0.75662 0.0
C1254 C 0.7814 0.38872 0.77103 0.0
C1255 C 0.80296 0.41274 0.77986 0.0
C1256 C 0.42387 0.80669 0.9319 0.0
C1257 C 0.44813 0.83123 0.92791 0.0
C1258 C 0.42225 0.78133 0.92943 0.0
C1259 C 0.44478 0.77945 0.92275 0.0
H1260 H 0.40583 0.80708 0.93675 0.0
H1261 H 0.4031 0.76299 0.93267 0.0
S1262 S 0.51274 0.83739 0.90949 0.0
N1263 N 0.4951 0.85198 0.91653 0.0
N1264 N 0.49194 0.80415 0.91183 0.0
C1265 C 0.46922 0.80374 0.91876 0.0
C1266 C 0.47089 0.82964 0.92126 0.0
C1267 C 0.6506 0.44711 0.09072 0.0
C1268 C 0.63222 0.43346 0.10601 0.0
C1269 C 0.67525 0.44694 0.08912 0.0
C1270 C 0.6827 0.43349 0.10291 0.0
H1271 H 0.64557 0.45745 0.07963 0.0
H1272 H 0.68807 0.4566 0.07661 0.0
S1273 S 0.64399 0.39849 0.14734 0.0
N1274 N 0.62451 0.40838 0.1362 0.0
N1275 N 0.67131 0.40899 0.13357 0.0
C1276 C 0.66535 0.42123 0.1189 0.0
C1277 C 0.64006 0.42105 0.12038 0.0
C1278 C 0.3944 0.82449 0.57194 0.0
C1279 C 0.41519 0.82762 0.55912 0.0
C1280 C 0.37059 0.79908 0.5744 0.0
C1281 C 0.36669 0.77585 0.56414 0.0
H1282 H 0.39689 0.84171 0.5805 0.0
H1283 H 0.35557 0.79744 0.58489 0.0
S1284 S 0.41358 0.77363 0.52742 0.0
N1285 N 0.42951 0.80553 0.53527 0.0
N1286 N 0.38447 0.7581 0.53943 0.0
C1287 C 0.38677 0.77895 0.5507 0.0
C1288 C 0.41108 0.80471 0.54832 0.0
C1289 C 0.5617 0.38098 0.69737 0.0
C1290 C 0.5946 0.4133 0.69242 0.0
C1291 C 0.56578 0.35385 0.70801 0.0
C1292 C 0.59945 0.35704 0.70961 0.0
H1293 H 0.54225 0.38037 0.69766 0.0
H1294 H 0.54804 0.3359 0.71363 0.0
S1295 S 0.67237 0.42218 0.68946 0.0
N1296 N 0.65186 0.435 0.68403 0.0
N1297 N 0.6551 0.39069 0.6993 0.0
C1298 C 0.6294 0.38623 0.69948 0.0
C1299 C 0.6274 0.41382 0.68888 0.0
C1300 C 0.23604 0.60941 0.87333 0.0
C1301 C 0.21482 0.59565 0.88679 0.0
C1302 C 0.26056 0.60905 0.8749 0.0
C1303 C 0.26515 0.59531 0.89021 0.0
H1304 H 0.23389 0.62099 0.86162 0.0
H1305 H 0.27631 0.62015 0.86421 0.0
S1306 S 0.21554 0.55504 0.92887 0.0
N1307 N 0.19921 0.5663 0.91522 0.0
N1308 N 0.24596 0.56701 0.91891 0.0
C1309 C 0.24379 0.58078 0.90349 0.0
C1310 C 0.21854 0.58069 0.90164 0.0
C1311 C 0.63013 0.22443 0.05555 0.0
C1312 C 0.6263 0.22137 0.0353 0.0
C1313 C 0.65556 0.24318 0.06358 0.0
C1314 C 0.67803 0.26007 0.05172 0.0
H1315 H 0.6132 0.2129 0.06532 0.0
H1316 H 0.65736 0.24518 0.07923 0.0
S1317 S 0.67855 0.25996 0.99779 0.0
N1318 N 0.64724 0.23612 0.0036 0.0
N1319 N 0.69466 0.27224 0.0186 0.0
C1320 C 0.67465 0.25667 0.03145 0.0
C1321 C 0.64888 0.23724 0.0233 0.0
C1322 C 0.42176 0.62616 0.22168 0.0
C1323 C 0.43 0.62658 0.20234 0.0
C1324 C 0.42593 0.65007 0.23093 0.0
C1325 C 0.43814 0.67528 0.22113 0.0
H1326 H 0.41109 0.60705 0.22952 0.0
H1327 H 0.41858 0.64862 0.24564 0.0
S1328 S 0.46333 0.68735 0.17036 0.0
N1329 N 0.45143 0.6544 0.17386 0.0
N1330 N 0.45869 0.69922 0.19106 0.0
C1331 C 0.44722 0.67615 0.202 0.0
C1332 C 0.44315 0.65183 0.19264 0.0
C1333 C 0.81556 0.41863 0.38921 0.0
C1334 C 0.82352 0.42719 0.36995 0.0
C1335 C 0.79553 0.42238 0.39837 0.0
C1336 C 0.7825 0.43461 0.38858 0.0
H1337 H 0.82403 0.40792 0.397 0.0
H1338 H 0.78935 0.41461 0.41296 0.0
S1339 S 0.79607 0.4608 0.33812 0.0
N1340 N 0.81724 0.449 0.34159 0.0
N1341 N 0.77932 0.45571 0.35872 0.0
C1342 C 0.79093 0.44414 0.3696 0.0
C1343 C 0.81139 0.44038 0.36028 0.0
C1344 C 0.13046 0.58158 0.46715 0.0
C1345 C 0.13948 0.57569 0.44969 0.0
C1346 C 0.14494 0.58564 0.48456 0.0
C1347 C 0.1693 0.58463 0.48504 0.0
H1348 H 0.11238 0.5836 0.46733 0.0
H1349 H 0.13759 0.5906 0.4976 0.0
S1350 S 0.20167 0.5699 0.44356 0.0
N1351 N 0.17422 0.5688 0.43416 0.0
N1352 N 0.20157 0.57684 0.46685 0.0
C1353 C 0.17845 0.57858 0.46781 0.0
C1354 C 0.16357 0.57411 0.45016 0.0
C1355 C 0.58561 0.09985 0.65544 0.0
C1356 C 0.60315 0.10424 0.63967 0.0
C1357 C 0.59099 0.12075 0.66875 0.0
C1358 C 0.6141 0.14685 0.66678 0.0
H1359 H 0.56767 0.07997 0.65762 0.0
H1360 H 0.5769 0.11649 0.68065 0.0
S1361 S 0.66755 0.16863 0.62898 0.0
N1362 N 0.64551 0.13646 0.62355 0.0
N1363 N 0.65524 0.17584 0.64842 0.0
C1364 C 0.63195 0.15157 0.65122 0.0
C1365 C 0.62665 0.13022 0.63776 0.0
C1366 C 0.52034 0.61838 0.80395 0.0
C1367 C 0.52493 0.59614 0.80567 0.0
C1368 C 0.50288 0.62163 0.81676 0.0
C1369 C 0.48979 0.60305 0.83197 0.0
H1370 H 0.53082 0.63374 0.7929 0.0
H1371 H 0.50039 0.63934 0.81518 0.0
S1372 S 0.49415 0.54097 0.84243 0.0
N1373 N 0.51434 0.55492 0.82353 0.0
N1374 N 0.48155 0.56106 0.84756 0.0
C1375 C 0.49377 0.58049 0.83365 0.0
C1376 C 0.51138 0.57708 0.82056 0.0
C1377 C 0.89193 0.45818 0.94405 0.0
C1378 C 0.91768 0.44668 0.94664 0.0
C1379 C 0.87441 0.45716 0.96637 0.0
C1380 C 0.87833 0.44085 0.98792 0.0
H1381 H 0.89145 0.46946 0.93153 0.0
H1382 H 0.86148 0.46621 0.96677 0.0
S1383 S 0.9239 0.40184 0.99241 0.0
N1384 N 0.93189 0.41251 0.96925 0.0
N1385 N 0.90194 0.4105 0.0023 0.0
C1386 C 0.89806 0.42367 0.98751 0.0
C1387 C 0.91597 0.4236 0.9664 0.0
C1388 C 0.44215 0.89101 0.12362 0.0
C1389 C 0.46943 0.91151 0.12042 0.0
C1390 C 0.43412 0.8766 0.14114 0.0
C1391 C 0.45305 0.88212 0.15618 0.0
H1392 H 0.42696 0.88561 0.11229 0.0
H1393 H 0.41298 0.86071 0.14284 0.0
S1394 S 0.52708 0.933 0.15508 0.0
N1395 N 0.51556 0.93608 0.13373 0.0
N1396 N 0.50027 0.90912 0.16678 0.0
C1397 C 0.48031 0.90273 0.15335 0.0
C1398 C 0.48857 0.9173 0.13542 0.0
C1399 C 0.56784 0.43061 0.29032 0.0
C1400 C 0.57316 0.45757 0.28784 0.0
C1401 C 0.57453 0.42232 0.30763 0.0
C1402 C 0.58672 0.44065 0.32317 0.0
H1403 H 0.55896 0.41592 0.27858 0.0
H1404 H 0.57044 0.40148 0.3088 0.0
S1405 S 0.60615 0.51376 0.324 0.0
N1406 N 0.59235 0.50286 0.30233 0.0
N1407 N 0.60442 0.487 0.33501 0.0
C1408 C 0.59201 0.46758 0.32104 0.0
C1409 C 0.58547 0.47615 0.30332 0.0
C1410 C 0.47327 0.8861 0.37193 0.0
C1411 C 0.46834 0.90814 0.37342 0.0
C1412 C 0.46849 0.87141 0.35458 0.0
C1413 C 0.45873 0.87829 0.338 0.0
H1414 H 0.48025 0.87972 0.38447 0.0
H1415 H 0.47203 0.85424 0.35419 0.0
S1416 S 0.44144 0.93332 0.33418 0.0
N1417 N 0.4522 0.93544 0.35677 0.0
N1418 N 0.44384 0.9081 0.32403 0.0
C1419 C 0.45398 0.90038 0.33911 0.0
C1420 C 0.45851 0.91517 0.35686 0.0
C1421 C 0.60434 0.46692 0.53893 0.0
C1422 C 0.57653 0.4588 0.54116 0.0
C1423 C 0.61437 0.46284 0.52141 0.0
C1424 C 0.59698 0.45047 0.50541 0.0
H1425 H 0.6184 0.47596 0.551 0.0
H1426 H 0.63585 0.46906 0.52046 0.0
S1427 S 0.52236 0.42456 0.50375 0.0
N1428 N 0.53162 0.4372 0.52588 0.0
N1429 N 0.55059 0.42971 0.49289 0.0
C1430 C 0.5692 0.4425 0.50729 0.0
C1431 C 0.55893 0.4465 0.52519 0.0
C1432 C 0.14878 0.61068 0.69774 0.0
C1433 C 0.12974 0.58362 0.70297 0.0
C1434 C 0.16364 0.61652 0.68045 0.0
C1435 C 0.16007 0.59555 0.66768 0.0
H1436 H 0.15265 0.62747 0.70731 0.0
H1437 H 0.17831 0.63763 0.67714 0.0
S1438 S 0.11374 0.52123 0.6748 0.0
N1439 N 0.10879 0.53553 0.69413 0.0
N1440 N 0.13658 0.54667 0.66147 0.0
C1441 C 0.141 0.56843 0.67257 0.0
C1442 C 0.12598 0.56241 0.69028 0.0
C1443 C 0.58243 0.14918 0.8787 0.0
C1444 C 0.58653 0.11901 0.87284 0.0
C1445 C 0.582 0.16827 0.85768 0.0
C1446 C 0.59059 0.16112 0.83377 0.0
H1447 H 0.57559 0.15181 0.89277 0.0
H1448 H 0.57693 0.18425 0.85948 0.0
S1449 S 0.61415 0.10408 0.82064 0.0
N1450 N 0.60829 0.09716 0.84453 0.0
N1451 N 0.60895 0.12973 0.81357 0.0
C1452 C 0.60146 0.13625 0.83034 0.0
C1453 C 0.6025 0.11653 0.84998 0.0
C1454 C 0.45376 0.57896 0.04736 0.0
C1455 C 0.49087 0.58993 0.04476 0.0
C1456 C 0.43708 0.57937 0.02492 0.0
C1457 C 0.45709 0.59469 0.00314 0.0
H1458 H 0.44209 0.56824 0.06005 0.0
H1459 H 0.41512 0.5705 0.02458 0.0
S1460 S 0.54157 0.63264 0.99834 0.0
N1461 N 0.53907 0.6228 0.02171 0.0
N1462 N 0.51092 0.62398 0.98844 0.0
C1463 C 0.494 0.6115 0.0034 0.0
C1464 C 0.51213 0.61211 0.02463 0.0
C1465 C 0.91864 0.42077 0.18761 0.0
C1466 C 0.94468 0.44406 0.18517 0.0
C1467 C 0.89737 0.41461 0.17442 0.0
C1468 C 0.90154 0.4311 0.15808 0.0
H1469 H 0.91476 0.40701 0.19964 0.0
H1470 H 0.87773 0.3964 0.17673 0.0
S1471 S 0.96566 0.49417 0.14498 0.0
N1472 N 0.97325 0.48359 0.16514 0.0
N1473 N 0.9333 0.47184 0.14032 0.0
C1474 C 0.92735 0.45438 0.15546 0.0
C1475 C 0.94891 0.46083 0.16897 0.0
loop_
_geom_bond_atom_site_label_1
_geom_bond_atom_site_label_2
_geom_bond_distance
_geom_bond_site_symmetry_2
_ccdc_geom_bond_type
C0 C1 1.560 . S
C0 H61 0.959 . S
C0 H62 0.959 . S
C0 H63 0.960 . S
C1 C0 1.560 . S
C1 O56 1.426 . S
C1 H60 0.980 . S
C2 C3 1.407 . S
C2 C7 1.418 . S
C2 O56 1.334 . S
C3 C2 1.407 . S
C3 C4 1.360 . S
C3 H64 0.929 . S
C4 C3 1.360 . S
C4 C5 1.401 . S
C4 C8 1.527 . S
C5 C4 1.401 . S
C5 C6 1.405 . S
C5 C38 1.587 . S
C6 C5 1.405 . S
C6 C7 1.332 . S
C6 C9 1.496 . S
C7 C2 1.418 . S
C7 C6 1.332 . S
C7 H65 0.929 . S
C8 C4 1.527 . S
C8 H66 0.959 . S
C8 H67 0.961 . S
C8 H68 0.961 . S
C9 C6 1.496 . S
C9 H69 0.960 . S
C9 H70 0.960 . S
C9 H71 0.961 . S
C10 C11 1.517 . S
C10 H73 0.961 . S
C10 H74 0.960 . S
C10 H75 0.959 . S
C11 C10 1.517 . S
C11 O59 1.468 . S
C11 H72 0.980 . S
C12 C13 1.349 . S
C12 C17 1.367 . S
C12 O59 1.408 . S
C13 C12 1.349 . S
C13 C14 1.407 . S
C13 H76 0.930 . S
C14 C13 1.407 . S
C14 C15 1.449 1_655 S
C14 C18 1.535 1_655 S
C15 C14 1.449 1_455 S
C15 C16 1.384 1_455 S
C15 C40 1.553 . S
C16 C15 1.384 1_655 S
C16 C17 1.364 . S
C16 C19 1.450 1_655 S
C17 C12 1.367 . S
C17 C16 1.364 . S
C17 H77 0.931 . S
C18 C14 1.535 1_455 S
C18 H78 0.959 . S
C18 H79 0.961 . S
C18 H80 0.959 1_455 S
C19 C16 1.450 1_455 S
C19 H81 0.960 . S
C19 H82 0.960 . S
C19 H83 0.960 1_455 S
C20 C21 1.309 . S
C20 C25 1.304 . S
C20 O58 1.435 . S
C21 C20 1.309 . S
C21 C22 1.476 . S
C21 H85 0.930 . S
C22 C21 1.476 . S
C22 C23 1.400 . S
C22 C26 1.567 . S
C23 C22 1.400 . S
C23 C24 1.373 . S
C23 C45 1.432 . S
C24 C23 1.373 . S
C24 C25 1.339 . S
C24 C27 1.530 . S
C25 C20 1.304 . S
C25 C24 1.339 . S
C25 H86 0.930 . S
C26 C22 1.567 . S
C26 H87 0.961 . S
C26 H88 0.960 . S
C26 H89 0.958 . S
C27 C24 1.530 . S
C27 H90 0.961 . S
C27 H91 0.960 . S
C27 H92 0.960 . S
C28 C29 1.530 . S
C28 H94 0.961 . S
C28 H95 0.961 . S
C28 H96 0.959 . S
C29 C28 1.530 . S
C29 O57 1.412 . S
C29 H93 0.980 . S
C30 C31 1.288 . S
C30 C35 1.377 . S
C30 O57 1.393 . S
C31 C30 1.288 . S
C31 C32 1.369 . S
C31 H97 0.932 . S
C32 C31 1.369 . S
C32 C33 1.398 . S
C32 C36 1.527 . S
C33 C32 1.398 . S
C33 C34 1.380 . S
C33 C47 1.497 . S
C34 C33 1.380 . S
C34 C35 1.383 . S
C34 C37 1.603 . S
C35 C30 1.377 . S
C35 C34 1.383 . S
C35 H98 0.929 . S
C36 C32 1.527 . S
C36 H99 0.961 . S
C36 H100 0.959 . S
C36 H101 0.959 . S
C37 C34 1.603 . S
C37 H102 0.960 . S
C37 H103 0.962 . S
C37 H104 0.961 . S
C38 C5 1.587 . S
C38 C39 1.360 . S
C38 C51 1.412 . S
C39 C38 1.360 . S
C39 C40 1.365 . S
C39 H105 0.929 . S
C40 C15 1.553 . S
C40 C39 1.365 . S
C40 C41 1.404 . S
C41 C40 1.404 . S
C41 C42 1.395 1_455 S
C41 C52 1.451 . S
C42 C41 1.395 1_655 S
C42 C43 1.322 . S
C42 H106 0.930 . S
C43 C42 1.322 . S
C43 C44 1.459 . S
C43 H107 0.929 . S
C44 C43 1.459 . S
C44 C45 1.445 . S
C44 C53 1.395 1_655 S
C45 C23 1.432 . S
C45 C44 1.445 . S
C45 C46 1.388 . S
C46 C45 1.388 . S
C46 C47 1.408 1_655 S
C46 H108 0.944 . S
C47 C33 1.497 . S
C47 C46 1.408 1_455 S
C47 C48 1.360 . S
C48 C47 1.360 . S
C48 C49 1.401 . S
C48 C53 1.446 . S
C49 C48 1.401 . S
C49 C50 1.347 . S
C49 H109 0.929 . S
C50 C49 1.347 . S
C50 C51 1.455 . S
C50 H110 0.930 . S
C51 C38 1.412 . S
C51 C50 1.455 . S
C51 C52 1.331 . S
C52 C41 1.451 . S
C52 C51 1.331 . S
C52 C53 1.497 . S
C53 C44 1.395 1_455 S
C53 C48 1.446 . S
C53 C52 1.497 . S
C54 C55 1.582 . S
C54 H111 0.962 . S
C54 H112 0.959 . S
C54 H113 0.958 . S
C55 C54 1.582 . S
C55 O58 1.458 . S
C55 H84 0.980 . S
O56 C1 1.426 . S
O56 C2 1.334 . S
O57 C29 1.412 . S
O57 C30 1.393 . S
O58 C20 1.435 . S
O58 C55 1.458 . S
O59 C11 1.468 . S
O59 C12 1.408 . S
H60 C1 0.980 . S
H61 C0 0.959 . S
H62 C0 0.959 . S
H63 C0 0.960 . S
H64 C3 0.929 . S
H65 C7 0.929 . S
H66 C8 0.959 . S
H67 C8 0.961 . S
H68 C8 0.961 . S
H69 C9 0.960 . S
H70 C9 0.960 . S
H71 C9 0.961 . S
H72 C11 0.980 . S
H73 C10 0.961 . S
H74 C10 0.960 . S
H75 C10 0.959 . S
H76 C13 0.930 . S
H77 C17 0.931 . S
H78 C18 0.959 . S
H79 C18 0.961 . S
H80 C18 0.959 1_655 S
H81 C19 0.960 . S
H82 C19 0.960 . S
H83 C19 0.960 1_655 S
H84 C55 0.980 . S
H85 C21 0.930 . S
H86 C25 0.930 . S
H87 C26 0.961 . S
H88 C26 0.960 . S
H89 C26 0.958 . S
H90 C27 0.961 . S
H91 C27 0.960 . S
H92 C27 0.960 . S
H93 C29 0.980 . S
H94 C28 0.961 . S
H95 C28 0.961 . S
H96 C28 0.959 . S
H97 C31 0.932 . S
H98 C35 0.929 . S
H99 C36 0.961 . S
H100 C36 0.959 . S
H101 C36 0.959 . S
H102 C37 0.960 . S
H103 C37 0.962 . S
H104 C37 0.961 . S
H105 C39 0.929 . S
H106 C42 0.930 . S
H107 C43 0.929 . S
H108 C46 0.944 . S
H109 C49 0.929 . S
H110 C50 0.930 . S
H111 C54 0.962 . S
H112 C54 0.959 . S
H113 C54 0.958 . S
C114 C115 1.560 . S
C114 H175 0.959 . S
C114 H176 0.959 . S
C114 H177 0.960 . S
C115 C114 1.560 . S
C115 O170 1.426 . S
C115 H174 0.980 . S
C116 C117 1.407 . S
C116 C121 1.418 . S
C116 O170 1.334 . S
C117 C116 1.407 . S
C117 C118 1.360 . S
C117 H178 0.929 . S
C118 C117 1.360 . S
C118 C119 1.401 . S
C118 C122 1.527 . S
C119 C118 1.401 . S
C119 C120 1.405 . S
C119 C152 1.587 . S
C120 C119 1.405 . S
C120 C121 1.332 . S
C120 C123 1.496 . S
C121 C116 1.418 . S
C121 C120 1.332 . S
C121 H179 0.929 . S
C122 C118 1.527 . S
C122 H180 0.959 . S
C122 H181 0.961 . S
C122 H182 0.961 . S
C123 C120 1.496 . S
C123 H183 0.960 . S
C123 H184 0.960 . S
C123 H185 0.961 . S
C124 C125 1.517 . S
C124 H187 0.961 . S
C124 H188 0.960 . S
C124 H189 0.959 . S
C125 C124 1.517 . S
C125 O173 1.468 . S
C125 H186 0.980 . S
C126 C127 1.349 . S
C126 C131 1.367 . S
C126 O173 1.408 . S
C127 C126 1.349 . S
C127 C128 1.407 . S
C127 H190 0.930 . S
C128 C127 1.407 . S
C128 C129 1.449 . S
C128 C132 1.535 . S
C129 C128 1.449 . S
C129 C130 1.384 . S
C129 C154 1.553 . S
C130 C129 1.384 . S
C130 C131 1.364 . S
C130 C133 1.450 . S
C131 C126 1.367 . S
C131 C130 1.364 . S
C131 H191 0.931 . S
C132 C128 1.535 . S
C132 H192 0.959 . S
C132 H193 0.961 . S
C132 H194 0.959 . S
C133 C130 1.450 . S
C133 H195 0.960 . S
C133 H196 0.960 . S
C133 H197 0.960 . S
C134 C135 1.309 . S
C134 C139 1.304 . S
C134 O172 1.435 . S
C135 C134 1.309 . S
C135 C136 1.476 . S
C135 H199 0.930 . S
C136 C135 1.476 . S
C136 C137 1.400 . S
C136 C140 1.567 . S
C137 C136 1.400 . S
C137 C138 1.373 . S
C137 C159 1.432 . S
C138 C137 1.373 . S
C138 C139 1.339 . S
C138 C141 1.530 . S
C139 C134 1.304 . S
C139 C138 1.339 . S
C139 H200 0.930 . S
C140 C136 1.567 . S
C140 H201 0.961 . S
C140 H202 0.960 . S
C140 H203 0.958 . S
C141 C138 1.530 . S
C141 H204 0.961 . S
C141 H205 0.960 . S
C141 H206 0.960 . S
C142 C143 1.530 . S
C142 H208 0.961 . S
C142 H209 0.961 . S
C142 H210 0.959 . S
C143 C142 1.530 . S
C143 O171 1.412 . S
C143 H207 0.980 . S
C144 C145 1.288 . S
C144 C149 1.377 . S
C144 O171 1.393 . S
C145 C144 1.288 . S
C145 C146 1.369 . S
C145 H211 0.932 . S
C146 C145 1.369 . S
C146 C147 1.381 . S
C146 C150 1.527 1_565 S
C147 C146 1.381 . S
C147 C148 1.413 . S
C147 C161 1.483 1_565 S
C148 C147 1.413 . S
C148 C149 1.383 . S
C148 C151 1.603 . S
C149 C144 1.377 . S
C149 C148 1.383 . S
C149 H212 0.929 . S
C150 C146 1.527 1_545 S
C150 H213 0.961 . S
C150 H214 0.959 . S
C150 H215 0.959 . S
C151 C148 1.603 . S
C151 H216 0.960 . S
C151 H217 0.962 1_565 S
C151 H218 0.961 . S
C152 C119 1.587 . S
C152 C153 1.360 . S
C152 C165 1.412 . S
C153 C152 1.360 . S
C153 C154 1.365 1_565 S
C153 H219 0.929 . S
C154 C129 1.553 . S
C154 C153 1.365 1_545 S
C154 C155 1.404 . S
C155 C154 1.404 . S
C155 C156 1.395 . S
C155 C166 1.451 . S
C156 C155 1.395 . S
C156 C157 1.322 . S
C156 H220 0.930 . S
C157 C156 1.322 . S
C157 C158 1.459 . S
C157 H221 0.929 . S
C158 C157 1.459 . S
C158 C159 1.445 . S
C158 C167 1.395 . S
C159 C137 1.432 . S
C159 C158 1.445 . S
C159 C160 1.370 . S
C160 C159 1.370 . S
C160 C161 1.438 . S
C160 H222 0.930 . S
C161 C147 1.483 1_545 S
C161 C160 1.438 . S
C161 C162 1.360 . S
C162 C161 1.360 . S
C162 C163 1.401 1_545 S
C162 C167 1.446 . S
C163 C162 1.401 1_565 S
C163 C164 1.347 . S
C163 H223 0.929 . S
C164 C163 1.347 . S
C164 C165 1.455 . S
C164 H224 0.930 . S
C165 C152 1.412 . S
C165 C164 1.455 . S
C165 C166 1.331 1_565 S
C166 C155 1.451 . S
C166 C165 1.331 1_545 S
C166 C167 1.497 . S
C167 C158 1.395 . S
C167 C162 1.446 . S
C167 C166 1.497 . S
C168 C169 1.582 . S
C168 H225 0.962 . S
C168 H226 0.959 . S
C168 H227 0.958 . S
C169 C168 1.582 . S
C169 O172 1.458 . S
C169 H198 0.980 . S
O170 C115 1.426 . S
O170 C116 1.334 . S
O171 C143 1.412 . S
O171 C144 1.393 . S
O172 C134 1.435 . S
O172 C169 1.458 . S
O173 C125 1.468 . S
O173 C126 1.408 . S
H174 C115 0.980 . S
H175 C114 0.959 . S
H176 C114 0.959 . S
H177 C114 0.960 . S
H178 C117 0.929 . S
H179 C121 0.929 . S
H180 C122 0.959 . S
H181 C122 0.961 . S
H182 C122 0.961 . S
H183 C123 0.960 . S
H184 C123 0.960 . S
H185 C123 0.961 . S
H186 C125 0.980 . S
H187 C124 0.961 . S
H188 C124 0.960 . S
H189 C124 0.959 . S
H190 C127 0.930 . S
H191 C131 0.931 . S
H192 C132 0.959 . S
H193 C132 0.961 . S
H194 C132 0.959 . S
H195 C133 0.960 . S
H196 C133 0.960 . S
H197 C133 0.960 . S
H198 C169 0.980 . S
H199 C135 0.930 . S
H200 C139 0.930 . S
H201 C140 0.961 . S
H202 C140 0.960 . S
H203 C140 0.958 . S
H204 C141 0.961 . S
H205 C141 0.960 . S
H206 C141 0.960 . S
H207 C143 0.980 . S
H208 C142 0.961 . S
H209 C142 0.961 . S
H210 C142 0.959 . S
H211 C145 0.932 . S
H212 C149 0.929 . S
H213 C150 0.961 . S
H214 C150 0.959 . S
H215 C150 0.959 . S
H216 C151 0.960 . S
H217 C151 0.962 1_545 S
H218 C151 0.961 . S
H219 C153 0.929 . S
H220 C156 0.930 . S
H221 C157 0.929 . S
H222 C160 0.930 . S
H223 C163 0.929 . S
H224 C164 0.930 . S
H225 C168 0.962 . S
H226 C168 0.959 . S
H227 C168 0.958 . S
C228 C229 1.560 . S
C228 H289 0.959 . S
C228 H290 0.959 . S
C228 H291 0.960 . S
C229 C228 1.560 . S
C229 O284 1.426 . S
C229 H288 0.980 . S
C230 C231 1.407 . S
C230 C235 1.418 . S
C230 O284 1.334 . S
C231 C230 1.407 . S
C231 C232 1.360 . S
C231 H292 0.929 . S
C232 C231 1.360 . S
C232 C233 1.401 . S
C232 C236 1.527 . S
C233 C232 1.401 . S
C233 C234 1.405 . S
C233 C266 1.587 . S
C234 C233 1.405 . S
C234 C235 1.332 . S
C234 C237 1.496 . S
C235 C230 1.418 . S
C235 C234 1.332 . S
C235 H293 0.929 . S
C236 C232 1.527 . S
C236 H294 0.959 . S
C236 H295 0.961 . S
C236 H296 0.961 . S
C237 C234 1.496 . S
C237 H297 0.960 . S
C237 H298 0.960 . S
C237 H299 0.961 . S
C238 C239 1.517 . S
C238 H301 0.961 . S
C238 H302 0.960 . S
C238 H303 0.959 . S
C239 C238 1.517 . S
C239 O287 1.468 . S
C239 H300 0.980 . S
C240 C241 1.349 . S
C240 C245 1.367 . S
C240 O287 1.408 . S
C241 C240 1.349 . S
C241 C242 1.407 . S
C241 H304 0.930 . S
C242 C241 1.407 . S
C242 C243 1.449 . S
C242 C246 1.535 . S
C243 C242 1.449 . S
C243 C244 1.384 . S
C243 C268 1.553 . S
C244 C243 1.384 . S
C244 C245 1.364 . S
C244 C247 1.450 . S
C245 C240 1.367 . S
C245 C244 1.364 . S
C245 H305 0.931 . S
C246 C242 1.535 . S
C246 H306 0.959 . S
C246 H307 0.961 . S
C246 H308 0.959 . S
C247 C244 1.450 . S
C247 H309 0.960 . S
C247 H310 0.960 . S
C247 H311 0.960 . S
C248 C249 1.309 . S
C248 C253 1.304 . S
C248 O286 1.435 . S
C249 C248 1.309 . S
C249 C250 1.476 . S
C249 H313 0.930 . S
C250 C249 1.476 . S
C250 C251 1.400 . S
C250 C254 1.567 . S
C251 C250 1.400 . S
C251 C252 1.373 . S
C251 C273 1.432 . S
C252 C251 1.373 . S
C252 C253 1.339 . S
C252 C255 1.530 . S
C253 C248 1.304 . S
C253 C252 1.339 . S
C253 H314 0.930 . S
C254 C250 1.567 . S
C254 H315 0.961 . S
C254 H316 0.960 . S
C254 H317 0.958 . S
C255 C252 1.530 . S
C255 H318 0.961 . S
C255 H319 0.960 . S
C255 H320 0.960 . S
C256 C257 1.530 . S
C256 H322 0.961 . S
C256 H323 0.961 . S
C256 H324 0.959 . S
C257 C256 1.530 . S
C257 O285 1.412 . S
C257 H321 0.980 . S
C258 C259 1.288 . S
C258 C263 1.377 . S
C258 O285 1.393 . S
C259 C258 1.288 . S
C259 C260 1.369 . S
C259 H325 0.932 . S
C260 C259 1.369 . S
C260 C261 1.398 . S
C260 C264 1.527 . S
C261 C260 1.398 . S
C261 C262 1.380 . S
C261 C275 1.497 . S
C262 C261 1.380 . S
C262 C263 1.383 . S
C262 C265 1.603 . S
C263 C258 1.377 . S
C263 C262 1.383 . S
C263 H326 0.929 . S
C264 C260 1.527 . S
C264 H327 0.961 . S
C264 H328 0.959 . S
C264 H329 0.959 . S
C265 C262 1.603 . S
C265 H330 0.960 . S
C265 H331 0.962 . S
C265 H332 0.961 . S
C266 C233 1.587 . S
C266 C267 1.360 . S
C266 C279 1.412 . S
C267 C266 1.360 . S
C267 C268 1.365 . S
C267 H333 0.929 . S
C268 C243 1.553 . S
C268 C267 1.365 . S
C268 C269 1.404 . S
C269 C268 1.404 . S
C269 C270 1.395 . S
C269 C280 1.451 . S
C270 C269 1.395 . S
C270 C271 1.322 . S
C270 H334 0.930 . S
C271 C270 1.322 . S
C271 C272 1.459 . S
C271 H335 0.929 . S
C272 C271 1.459 . S
C272 C273 1.445 . S
C272 C281 1.395 . S
C273 C251 1.432 . S
C273 C272 1.445 . S
C273 C274 1.370 . S
C274 C273 1.370 . S
C274 C275 1.438 . S
C274 H336 0.930 . S
C275 C261 1.497 . S
C275 C274 1.438 . S
C275 C276 1.360 . S
C276 C275 1.360 . S
C276 C277 1.401 . S
C276 C281 1.446 . S
C277 C276 1.401 . S
C277 C278 1.347 . S
C277 H337 0.929 . S
C278 C277 1.347 . S
C278 C279 1.455 . S
C278 H338 0.930 . S
C279 C266 1.412 . S
C279 C278 1.455 . S
C279 C280 1.331 . S
C280 C269 1.451 . S
C280 C279 1.331 . S
C280 C281 1.497 . S
C281 C272 1.395 . S
C281 C276 1.446 . S
C281 C280 1.497 . S
C282 C283 1.582 . S
C282 H339 0.962 . S
C282 H340 0.959 . S
C282 H341 0.958 . S
C283 C282 1.582 . S
C283 O286 1.458 . S
C283 H312 0.980 . S
O284 C229 1.426 . S
O284 C230 1.334 . S
O285 C257 1.412 . S
O285 C258 1.393 . S
O286 C248 1.435 . S
O286 C283 1.458 . S
O287 C239 1.468 . S
O287 C240 1.408 . S
H288 C229 0.980 . S
H289 C228 0.959 . S
H290 C228 0.959 . S
H291 C228 0.960 . S
H292 C231 0.929 . S
H293 C235 0.929 . S
H294 C236 0.959 . S
H295 C236 0.961 . S
H296 C236 0.961 . S
H297 C237 0.960 . S
H298 C237 0.960 . S
H299 C237 0.961 . S
H300 C239 0.980 . S
H301 C238 0.961 . S
H302 C238 0.960 . S
H303 C238 0.959 . S
H304 C241 0.930 . S
H305 C245 0.931 . S
H306 C246 0.959 . S
H307 C246 0.961 . S
H308 C246 0.959 . S
H309 C247 0.960 . S
H310 C247 0.960 . S
H311 C247 0.960 . S
H312 C283 0.980 . S
H313 C249 0.930 . S
H314 C253 0.930 . S
H315 C254 0.961 . S
H316 C254 0.960 . S
H317 C254 0.958 . S
H318 C255 0.961 . S
H319 C255 0.960 . S
H320 C255 0.960 . S
H321 C257 0.980 . S
H322 C256 0.961 . S
H323 C256 0.961 . S
H324 C256 0.959 . S
H325 C259 0.932 . S
H326 C263 0.929 . S
H327 C264 0.961 . S
H328 C264 0.959 . S
H329 C264 0.959 . S
H330 C265 0.960 . S
H331 C265 0.962 . S
H332 C265 0.961 . S
H333 C267 0.929 . S
H334 C270 0.930 . S
H335 C271 0.929 . S
H336 C274 0.930 . S
H337 C277 0.929 . S
H338 C278 0.930 . S
H339 C282 0.962 . S
H340 C282 0.959 . S
H341 C282 0.958 . S
C342 C343 1.560 . S
C342 H403 0.959 . S
C342 H404 0.959 . S
C342 H405 0.960 . S
C343 C342 1.560 . S
C343 O398 1.426 . S
C343 H402 0.980 . S
C344 C345 1.407 . S
C344 C349 1.418 . S
C344 O398 1.334 . S
C345 C344 1.407 . S
C345 C346 1.360 . S
C345 H406 0.929 . S
C346 C345 1.360 . S
C346 C347 1.401 . S
C346 C350 1.527 . S
C347 C346 1.401 . S
C347 C348 1.405 . S
C347 C380 1.587 . S
C348 C347 1.405 . S
C348 C349 1.332 . S
C348 C351 1.496 . S
C349 C344 1.418 . S
C349 C348 1.332 . S
C349 H407 0.929 . S
C350 C346 1.527 . S
C350 H408 0.959 . S
C350 H409 0.961 . S
C350 H410 0.961 . S
C351 C348 1.496 . S
C351 H411 0.960 . S
C351 H412 0.960 . S
C351 H413 0.961 . S
C352 C353 1.517 . S
C352 H415 0.961 . S
C352 H416 0.960 . S
C352 H417 0.959 . S
C353 C352 1.517 . S
C353 O401 1.468 . S
C353 H414 0.980 . S
C354 C355 1.349 . S
C354 C359 1.367 . S
C354 O401 1.408 . S
C355 C354 1.349 . S
C355 C356 1.442 . S
C355 H418 0.930 . S
C356 C355 1.442 . S
C356 C357 1.459 1_655 S
C356 C360 1.500 1_655 S
C357 C356 1.459 1_455 S
C357 C358 1.384 1_455 S
C357 C382 1.553 . S
C358 C357 1.384 1_655 S
C358 C359 1.364 . S
C358 C361 1.450 1_655 S
C359 C354 1.367 . S
C359 C358 1.364 . S
C359 H419 0.931 . S
C360 C356 1.500 1_455 S
C360 H420 0.959 . S
C360 H421 0.961 . S
C360 H422 0.959 1_455 S
C361 C358 1.450 1_455 S
C361 H423 0.960 . S
C361 H424 0.960 . S
C361 H425 0.960 1_455 S
C362 C363 1.309 . S
C362 C367 1.304 . S
C362 O400 1.435 . S
C363 C362 1.309 . S
C363 C364 1.476 . S
C363 H427 0.930 . S
C364 C363 1.476 . S
C364 C365 1.400 . S
C364 C368 1.567 . S
C365 C364 1.400 . S
C365 C366 1.373 . S
C365 C387 1.432 . S
C366 C365 1.373 . S
C366 C367 1.339 . S
C366 C369 1.530 . S
C367 C362 1.304 . S
C367 C366 1.339 . S
C367 H428 0.930 . S
C368 C364 1.567 . S
C368 H429 0.961 . S
C368 H430 0.960 . S
C368 H431 0.958 . S
C369 C366 1.530 . S
C369 H432 0.961 . S
C369 H433 0.960 . S
C369 H434 0.960 . S
C370 C371 1.530 . S
C370 H436 0.961 . S
C370 H437 0.961 . S
C370 H438 0.959 . S
C371 C370 1.530 . S
C371 O399 1.412 . S
C371 H435 0.980 . S
C372 C373 1.288 . S
C372 C377 1.377 . S
C372 O399 1.393 . S
C373 C372 1.288 . S
C373 C374 1.369 . S
C373 H439 0.932 . S
C374 C373 1.369 . S
C374 C375 1.398 . S
C374 C378 1.527 . S
C375 C374 1.398 . S
C375 C376 1.380 . S
C375 C389 1.497 . S
C376 C375 1.380 . S
C376 C377 1.383 . S
C376 C379 1.603 . S
C377 C372 1.377 . S
C377 C376 1.383 . S
C377 H440 0.929 . S
C378 C374 1.527 . S
C378 H441 0.961 . S
C378 H442 0.959 . S
C378 H443 0.959 . S
C379 C376 1.603 . S
C379 H444 0.960 . S
C379 H445 0.962 . S
C379 H446 0.961 . S
C380 C347 1.587 . S
C380 C381 1.360 . S
C380 C393 1.412 . S
C381 C380 1.360 . S
C381 C382 1.365 . S
C381 H447 0.929 . S
C382 C357 1.553 . S
C382 C381 1.365 . S
C382 C383 1.404 . S
C383 C382 1.404 . S
C383 C384 1.395 1_455 S
C383 C394 1.451 . S
C384 C383 1.395 1_655 S
C384 C385 1.322 . S
C384 H448 0.930 . S
C385 C384 1.322 . S
C385 C386 1.459 . S
C385 H449 0.929 . S
C386 C385 1.459 . S
C386 C387 1.445 . S
C386 C395 1.395 1_655 S
C387 C365 1.432 . S
C387 C386 1.445 . S
C387 C388 1.402 . S
C388 C387 1.402 . S
C388 C389 1.393 1_655 S
C388 H450 0.946 . S
C389 C375 1.497 . S
C389 C388 1.393 1_455 S
C389 C390 1.360 . S
C390 C389 1.360 . S
C390 C391 1.401 . S
C390 C395 1.446 . S
C391 C390 1.401 . S
C391 C392 1.347 . S
C391 H451 0.929 . S
C392 C391 1.347 . S
C392 C393 1.455 . S
C392 H452 0.930 . S
C393 C380 1.412 . S
C393 C392 1.455 . S
C393 C394 1.331 . S
C394 C383 1.451 . S
C394 C393 1.331 . S
C394 C395 1.497 . S
C395 C386 1.395 1_455 S
C395 C390 1.446 . S
C395 C394 1.497 . S
C396 C397 1.582 . S
C396 H453 0.962 . S
C396 H454 0.959 . S
C396 H455 0.958 . S
C397 C396 1.582 . S
C397 O400 1.458 . S
C397 H426 0.980 . S
O398 C343 1.426 . S
O398 C344 1.334 . S
O399 C371 1.412 . S
O399 C372 1.393 . S
O400 C362 1.435 . S
O400 C397 1.458 . S
O401 C353 1.468 . S
O401 C354 1.408 . S
H402 C343 0.980 . S
H403 C342 0.959 . S
H404 C342 0.959 . S
H405 C342 0.960 . S
H406 C345 0.929 . S
H407 C349 0.929 . S
H408 C350 0.959 . S
H409 C350 0.961 . S
H410 C350 0.961 . S
H411 C351 0.960 . S
H412 C351 0.960 . S
H413 C351 0.961 . S
H414 C353 0.980 . S
H415 C352 0.961 . S
H416 C352 0.960 . S
H417 C352 0.959 . S
H418 C355 0.930 . S
H419 C359 0.931 . S
H420 C360 0.959 . S
H421 C360 0.961 . S
H422 C360 0.959 1_655 S
H423 C361 0.960 . S
H424 C361 0.960 . S
H425 C361 0.960 1_655 S
H426 C397 0.980 . S
H427 C363 0.930 . S
H428 C367 0.930 . S
H429 C368 0.961 . S
H430 C368 0.960 . S
H431 C368 0.958 . S
H432 C369 0.961 . S
H433 C369 0.960 . S
H434 C369 0.960 . S
H435 C371 0.980 . S
H436 C370 0.961 . S
H437 C370 0.961 . S
H438 C370 0.959 . S
H439 C373 0.932 . S
H440 C377 0.929 . S
H441 C378 0.961 . S
H442 C378 0.959 . S
H443 C378 0.959 . S
H444 C379 0.960 . S
H445 C379 0.962 . S
H446 C379 0.961 . S
H447 C381 0.929 . S
H448 C384 0.930 . S
H449 C385 0.929 . S
H450 C388 0.946 . S
H451 C391 0.929 . S
H452 C392 0.930 . S
H453 C396 0.962 . S
H454 C396 0.959 . S
H455 C396 0.958 . S
C456 C457 1.560 . S
C456 H517 0.959 . S
C456 H518 0.959 . S
C456 H519 0.960 . S
C457 C456 1.560 . S
C457 O512 1.426 . S
C457 H516 0.980 . S
C458 C459 1.407 . S
C458 C463 1.418 . S
C458 O512 1.334 . S
C459 C458 1.407 . S
C459 C460 1.360 . S
C459 H520 0.929 . S
C460 C459 1.360 . S
C460 C461 1.401 . S
C460 C464 1.527 . S
C461 C460 1.401 . S
C461 C462 1.405 . S
C461 C494 1.587 . S
C462 C461 1.405 . S
C462 C463 1.332 . S
C462 C465 1.496 . S
C463 C458 1.418 . S
C463 C462 1.332 . S
C463 H521 0.929 . S
C464 C460 1.527 . S
C464 H522 0.959 . S
C464 H523 0.961 . S
C464 H524 0.961 . S
C465 C462 1.496 . S
C465 H525 0.960 . S
C465 H526 0.960 . S
C465 H527 0.961 . S
C466 C467 1.517 . S
C466 H529 0.961 . S
C466 H530 0.960 . S
C466 H531 0.959 . S
C467 C466 1.517 . S
C467 O515 1.468 . S
C467 H528 0.980 . S
C468 C469 1.349 . S
C468 C473 1.367 . S
C468 O515 1.408 . S
C469 C468 1.349 . S
C469 C470 1.407 . S
C469 H532 0.930 . S
C470 C469 1.407 . S
C470 C471 1.449 . S
C470 C474 1.535 . S
C471 C470 1.449 . S
C471 C472 1.384 . S
C471 C496 1.553 . S
C472 C471 1.384 . S
C472 C473 1.364 . S
C472 C475 1.450 . S
C473 C468 1.367 . S
C473 C472 1.364 . S
C473 H533 0.931 . S
C474 C470 1.535 . S
C474 H534 0.959 . S
C474 H535 0.961 . S
C474 H536 0.959 . S
C475 C472 1.450 . S
C475 H537 0.960 . S
C475 H538 0.960 . S
C475 H539 0.960 . S
C476 C477 1.309 . S
C476 C481 1.304 . S
C476 O514 1.435 . S
C477 C476 1.309 . S
C477 C478 1.476 . S
C477 H541 0.930 . S
C478 C477 1.476 . S
C478 C479 1.400 . S
C478 C482 1.567 . S
C479 C478 1.400 . S
C479 C480 1.373 . S
C479 C501 1.432 . S
C480 C479 1.373 . S
C480 C481 1.339 . S
C480 C483 1.530 . S
C481 C476 1.304 . S
C481 C480 1.339 . S
C481 H542 0.930 . S
C482 C478 1.567 . S
C482 H543 0.961 . S
C482 H544 0.960 . S
C482 H545 0.958 . S
C483 C480 1.530 . S
C483 H546 0.961 . S
C483 H547 0.960 . S
C483 H548 0.960 . S
C484 C485 1.530 . S
C484 H550 0.961 . S
C484 H551 0.961 . S
C484 H552 0.959 . S
C485 C484 1.530 . S
C485 O513 1.412 . S
C485 H549 0.980 . S
C486 C487 1.288 . S
C486 C491 1.377 . S
C486 O513 1.393 . S
C487 C486 1.288 . S
C487 C488 1.369 . S
C487 H553 0.932 . S
C488 C487 1.369 . S
C488 C489 1.415 . S
C488 C492 1.527 1_565 S
C489 C488 1.415 . S
C489 C490 1.383 . S
C489 C503 1.480 1_565 S
C490 C489 1.383 . S
C490 C491 1.383 . S
C490 C493 1.603 . S
C491 C486 1.377 . S
C491 C490 1.383 . S
C491 H554 0.929 . S
C492 C488 1.527 1_545 S
C492 H555 0.961 . S
C492 H556 0.959 . S
C492 H557 0.959 . S
C493 C490 1.603 . S
C493 H558 0.960 . S
C493 H559 0.962 1_565 S
C493 H560 0.961 . S
C494 C461 1.587 . S
C494 C495 1.360 . S
C494 C507 1.412 . S
C495 C494 1.360 . S
C495 C496 1.365 1_565 S
C495 H561 0.929 . S
C496 C471 1.553 . S
C496 C495 1.365 1_545 S
C496 C497 1.404 . S
C497 C496 1.404 . S
C497 C498 1.395 . S
C497 C508 1.451 . S
C498 C497 1.395 . S
C498 C499 1.322 . S
C498 H562 0.930 . S
C499 C498 1.322 . S
C499 C500 1.459 1_556 S
C499 H563 0.929 . S
C500 C499 1.459 1_554 S
C500 C501 1.445 . S
C500 C509 1.396 . S
C501 C479 1.432 . S
C501 C500 1.445 . S
C501 C502 1.370 . S
C502 C501 1.370 . S
C502 C503 1.438 . S
C502 H564 0.930 . S
C503 C489 1.480 1_545 S
C503 C502 1.438 . S
C503 C504 1.360 . S
C504 C503 1.360 . S
C504 C505 1.401 1_545 S
C504 C509 1.452 . S
C505 C504 1.401 1_565 S
C505 C506 1.347 1_554 S
C505 H565 0.929 . S
C506 C505 1.347 1_556 S
C506 C507 1.455 . S
C506 H566 0.930 . S
C507 C494 1.412 . S
C507 C506 1.455 . S
C507 C508 1.331 1_565 S
C508 C497 1.451 . S
C508 C507 1.331 1_545 S
C508 C509 1.489 1_556 S
C509 C500 1.396 . S
C509 C504 1.452 . S
C509 C508 1.489 1_554 S
C510 C511 1.582 . S
C510 H567 0.962 . S
C510 H568 0.959 . S
C510 H569 0.958 . S
C511 C510 1.582 . S
C511 O514 1.458 . S
C511 H540 0.980 . S
O512 C457 1.426 . S
O512 C458 1.334 . S
O513 C485 1.412 . S
O513 C486 1.393 . S
O514 C476 1.435 . S
O514 C511 1.458 . S
O515 C467 1.468 . S
O515 C468 1.408 . S
H516 C457 0.980 . S
H517 C456 0.959 . S
H518 C456 0.959 . S
H519 C456 0.960 . S
H520 C459 0.929 . S
H521 C463 0.929 . S
H522 C464 0.959 . S
H523 C464 0.961 . S
H524 C464 0.961 . S
H525 C465 0.960 . S
H526 C465 0.960 . S
H527 C465 0.961 . S
H528 C467 0.980 . S
H529 C466 0.961 . S
H530 C466 0.960 . S
H531 C466 0.959 . S
H532 C469 0.930 . S
H533 C473 0.931 . S
H534 C474 0.959 . S
H535 C474 0.961 . S
H536 C474 0.959 . S
H537 C475 0.960 . S
H538 C475 0.960 . S
H539 C475 0.960 . S
H540 C511 0.980 . S
H541 C477 0.930 . S
H542 C481 0.930 . S
H543 C482 0.961 . S
H544 C482 0.960 . S
H545 C482 0.958 . S
H546 C483 0.961 . S
H547 C483 0.960 . S
H548 C483 0.960 . S
H549 C485 0.980 . S
H550 C484 0.961 . S
H551 C484 0.961 . S
H552 C484 0.959 . S
H553 C487 0.932 . S
H554 C491 0.929 . S
H555 C492 0.961 . S
H556 C492 0.959 . S
H557 C492 0.959 . S
H558 C493 0.960 . S
H559 C493 0.962 1_545 S
H560 C493 0.961 . S
H561 C495 0.929 . S
H562 C498 0.930 . S
H563 C499 0.929 . S
H564 C502 0.930 . S
H565 C505 0.929 . S
H566 C506 0.930 . S
H567 C510 0.962 . S
H568 C510 0.959 . S
H569 C510 0.958 . S
C570 C571 1.560 . S
C570 H631 0.959 . S
C570 H632 0.959 . S
C570 H633 0.960 . S
C571 C570 1.560 . S
C571 O626 1.426 . S
C571 H630 0.980 . S
C572 C573 1.407 . S
C572 C577 1.418 . S
C572 O626 1.334 . S
C573 C572 1.407 . S
C573 C574 1.360 . S
C573 H634 0.929 . S
C574 C573 1.360 . S
C574 C575 1.401 . S
C574 C578 1.527 . S
C575 C574 1.401 . S
C575 C576 1.405 . S
C575 C608 1.587 . S
C576 C575 1.405 . S
C576 C577 1.332 . S
C576 C579 1.496 . S
C577 C572 1.418 . S
C577 C576 1.332 . S
C577 H635 0.929 . S
C578 C574 1.527 . S
C578 H636 0.959 . S
C578 H637 0.961 . S
C578 H638 0.961 . S
C579 C576 1.496 . S
C579 H639 0.960 . S
C579 H640 0.960 . S
C579 H641 0.961 . S
C580 C581 1.517 . S
C580 H643 0.961 . S
C580 H644 0.960 . S
C580 H645 0.959 . S
C581 C580 1.517 . S
C581 O629 1.468 . S
C581 H642 0.980 . S
C582 C583 1.349 . S
C582 C587 1.367 . S
C582 O629 1.408 . S
C583 C582 1.349 . S
C583 C584 1.407 . S
C583 H646 0.930 . S
C584 C583 1.407 . S
C584 C585 1.449 . S
C584 C588 1.535 . S
C585 C584 1.449 . S
C585 C586 1.384 . S
C585 C610 1.553 . S
C586 C585 1.384 . S
C586 C587 1.364 . S
C586 C589 1.450 . S
C587 C582 1.367 . S
C587 C586 1.364 . S
C587 H647 0.931 . S
C588 C584 1.535 . S
C588 H648 0.959 . S
C588 H649 0.961 . S
C588 H650 0.959 . S
C589 C586 1.450 . S
C589 H651 0.960 . S
C589 H652 0.960 . S
C589 H653 0.960 . S
C590 C591 1.309 . S
C590 C595 1.304 . S
C590 O628 1.435 . S
C591 C590 1.309 . S
C591 C592 1.476 . S
C591 H655 0.930 . S
C592 C591 1.476 . S
C592 C593 1.400 . S
C592 C596 1.567 . S
C593 C592 1.400 . S
C593 C594 1.373 . S
C593 C615 1.432 . S
C594 C593 1.373 . S
C594 C595 1.339 . S
C594 C597 1.530 . S
C595 C590 1.304 . S
C595 C594 1.339 . S
C595 H656 0.930 . S
C596 C592 1.567 . S
C596 H657 0.961 . S
C596 H658 0.960 . S
C596 H659 0.958 . S
C597 C594 1.530 . S
C597 H660 0.961 . S
C597 H661 0.960 . S
C597 H662 0.960 . S
C598 C599 1.530 . S
C598 H664 0.961 . S
C598 H665 0.961 . S
C598 H666 0.959 . S
C599 C598 1.530 . S
C599 O627 1.412 . S
C599 H663 0.980 . S
C600 C601 1.288 . S
C600 C605 1.377 . S
C600 O627 1.393 . S
C601 C600 1.288 . S
C601 C602 1.369 . S
C601 H667 0.932 . S
C602 C601 1.369 . S
C602 C603 1.398 . S
C602 C606 1.527 . S
C603 C602 1.398 . S
C603 C604 1.380 . S
C603 C617 1.497 . S
C604 C603 1.380 . S
C604 C605 1.383 . S
C604 C607 1.603 . S
C605 C600 1.377 . S
C605 C604 1.383 . S
C605 H668 0.929 . S
C606 C602 1.527 . S
C606 H669 0.961 . S
C606 H670 0.959 . S
C606 H671 0.959 . S
C607 C604 1.603 . S
C607 H672 0.960 . S
C607 H673 0.962 . S
C607 H674 0.961 . S
C608 C575 1.587 . S
C608 C609 1.360 . S
C608 C621 1.412 . S
C609 C608 1.360 . S
C609 C610 1.365 . S
C609 H675 0.929 . S
C610 C585 1.553 . S
C610 C609 1.365 . S
C610 C611 1.404 . S
C611 C610 1.404 . S
C611 C612 1.395 . S
C611 C622 1.451 . S
C612 C611 1.395 . S
C612 C613 1.322 . S
C612 H676 0.930 . S
C613 C612 1.322 . S
C613 C614 1.459 . S
C613 H677 0.929 . S
C614 C613 1.459 . S
C614 C615 1.445 . S
C614 C623 1.395 . S
C615 C593 1.432 . S
C615 C614 1.445 . S
C615 C616 1.370 . S
C616 C615 1.370 . S
C616 C617 1.438 . S
C616 H678 0.930 . S
C617 C603 1.497 . S
C617 C616 1.438 . S
C617 C618 1.360 . S
C618 C617 1.360 . S
C618 C619 1.401 . S
C618 C623 1.446 . S
C619 C618 1.401 . S
C619 C620 1.347 . S
C619 H679 0.929 . S
C620 C619 1.347 . S
C620 C621 1.455 . S
C620 H680 0.930 . S
C621 C608 1.412 . S
C621 C620 1.455 . S
C621 C622 1.331 . S
C622 C611 1.451 . S
C622 C621 1.331 . S
C622 C623 1.497 . S
C623 C614 1.395 . S
C623 C618 1.446 . S
C623 C622 1.497 . S
C624 C625 1.582 . S
C624 H681 0.962 . S
C624 H682 0.959 . S
C624 H683 0.958 . S
C625 C624 1.582 . S
C625 O628 1.458 . S
C625 H654 0.980 . S
O626 C571 1.426 . S
O626 C572 1.334 . S
O627 C599 1.412 . S
O627 C600 1.393 . S
O628 C590 1.435 . S
O628 C625 1.458 . S
O629 C581 1.468 . S
O629 C582 1.408 . S
H630 C571 0.980 . S
H631 C570 0.959 . S
H632 C570 0.959 . S
H633 C570 0.960 . S
H634 C573 0.929 . S
H635 C577 0.929 . S
H636 C578 0.959 . S
H637 C578 0.961 . S
H638 C578 0.961 . S
H639 C579 0.960 . S
H640 C579 0.960 . S
H641 C579 0.961 . S
H642 C581 0.980 . S
H643 C580 0.961 . S
H644 C580 0.960 . S
H645 C580 0.959 . S
H646 C583 0.930 . S
H647 C587 0.931 . S
H648 C588 0.959 . S
H649 C588 0.961 . S
H650 C588 0.959 . S
H651 C589 0.960 . S
H652 C589 0.960 . S
H653 C589 0.960 . S
H654 C625 0.980 . S
H655 C591 0.930 . S
H656 C595 0.930 . S
H657 C596 0.961 . S
H658 C596 0.960 . S
H659 C596 0.958 . S
H660 C597 0.961 . S
H661 C597 0.960 . S
H662 C597 0.960 . S
H663 C599 0.980 . S
H664 C598 0.961 . S
H665 C598 0.961 . S
H666 C598 0.959 . S
H667 C601 0.932 . S
H668 C605 0.929 . S
H669 C606 0.961 . S
H670 C606 0.959 . S
H671 C606 0.959 . S
H672 C607 0.960 . S
H673 C607 0.962 . S
H674 C607 0.961 . S
H675 C609 0.929 . S
H676 C612 0.930 . S
H677 C613 0.929 . S
H678 C616 0.930 . S
H679 C619 0.929 . S
H680 C620 0.930 . S
H681 C624 0.962 . S
H682 C624 0.959 . S
H683 C624 0.958 . S
Li684 N701 1.990 . S
Li684 O744 1.956 . S
Li684 O745 1.970 . S
Li684 O746 1.961 . S
Li685 N709 1.990 . S
Li685 O744 1.970 . S
Li685 O745 1.956 . S
Li685 O747 1.961 . S
Li686 N731 1.990 . S
Li686 O744 1.961 . S
Li686 O746 1.956 . S
Li686 O747 1.970 . S
Li687 N737 1.990 . S
Li687 O745 1.961 . S
Li687 O746 1.970 . S
Li687 O747 1.956 . S
C688 C690 1.348 . S
C688 C691 1.356 . S
C688 O744 1.325 . S
N689 C692 1.314 . S
N689 C693 1.279 . S
C690 C688 1.348 . S
C690 C692 1.353 . S
C690 H748 0.929 . S
C691 C688 1.356 . S
C691 C693 1.358 . S
C691 H749 0.930 . S
C692 N689 1.314 . S
C692 C690 1.353 . S
C692 H750 0.930 . S
C693 N689 1.279 . S
C693 C691 1.358 . S
C693 H751 0.930 . S
C694 C697 1.348 . S
C694 C698 1.356 . S
C694 O745 1.325 . S
C695 N696 1.279 . S
C695 C698 1.358 . S
C695 H752 0.930 . S
N696 C695 1.279 . S
N696 C699 1.314 . S
C697 C694 1.348 . S
C697 C699 1.353 . S
C697 H753 0.929 . S
C698 C694 1.356 . S
C698 C695 1.358 . S
C698 H754 0.930 . S
C699 N696 1.314 . S
C699 C697 1.353 . S
C699 H755 0.930 . S
C700 N701 1.314 . S
C700 C705 1.353 . S
C700 H706 0.930 . S
N701 Li684 1.990 . S
N701 C700 1.314 . S
N701 C703 1.279 . S
C702 C703 1.358 . S
C702 C704 1.356 . S
C702 H756 0.930 . S
C703 N701 1.279 . S
C703 C702 1.358 . S
C703 H707 0.930 . S
C704 C702 1.356 . S
C704 C705 1.348 . S
C705 C700 1.353 . S
C705 C704 1.348 . S
C705 H757 0.929 . S
H706 C700 0.930 . S
H707 C703 0.930 . S
C708 N709 1.314 . S
C708 C710 1.353 . S
C708 H714 0.930 . S
N709 Li685 1.990 . S
N709 C708 1.314 . S
N709 C712 1.279 . S
C710 C708 1.353 . S
C710 C713 1.348 . S
C710 H758 0.929 . S
C711 C712 1.358 . S
C711 C713 1.356 . S
C711 H759 0.930 . S
C712 N709 1.279 . S
C712 C711 1.358 . S
C712 H715 0.930 . S
C713 C710 1.348 . S
C713 C711 1.356 . S
H714 C708 0.930 . S
H715 C712 0.930 . S
C716 C718 1.348 . S
C716 C719 1.356 . S
C716 O746 1.325 . S
N717 C720 1.314 . S
N717 C721 1.279 . S
C718 C716 1.348 . S
C718 C720 1.353 . S
C718 H760 0.929 . S
C719 C716 1.356 . S
C719 C721 1.358 . S
C719 H761 0.930 . S
C720 N717 1.314 . S
C720 C718 1.353 . S
C720 H762 0.930 . S
C721 N717 1.279 . S
C721 C719 1.358 . S
C721 H763 0.930 . S
C722 C723 1.348 . S
C722 C724 1.356 . S
C722 O747 1.325 . S
C723 C722 1.348 . S
C723 C725 1.353 . S
C723 H764 0.929 . S
C724 C722 1.356 . S
C724 C726 1.358 . S
C724 H765 0.930 . S
C725 C723 1.353 . S
C725 N727 1.314 . S
C725 H766 0.930 . S
C726 C724 1.358 . S
C726 N727 1.279 . S
C726 H767 0.930 . S
N727 C725 1.314 . S
N727 C726 1.279 . S
C728 C730 1.353 . S
C728 N731 1.314 . S
C728 H734 0.930 . S
C729 N731 1.279 . S
C729 C732 1.358 . S
C729 H735 0.930 . S
C730 C728 1.353 . S
C730 C733 1.348 . S
C730 H768 0.929 . S
N731 Li686 1.990 . S
N731 C728 1.314 . S
N731 C729 1.279 . S
C732 C729 1.358 . S
C732 C733 1.356 . S
C732 H769 0.930 . S
C733 C730 1.348 . S
C733 C732 1.356 . S
H734 C728 0.930 . S
H735 C729 0.930 . S
C736 N737 1.314 . S
C736 C738 1.353 . S
C736 H742 0.930 . S
N737 Li687 1.990 . S
N737 C736 1.314 . S
N737 C740 1.279 . S
C738 C736 1.353 . S
C738 C741 1.348 . S
C738 H770 0.929 . S
C739 C740 1.358 . S
C739 C741 1.356 . S
C739 H771 0.930 . S
C740 N737 1.279 . S
C740 C739 1.358 . S
C740 H743 0.930 . S
C741 C738 1.348 . S
C741 C739 1.356 . S
H742 C736 0.930 . S
H743 C740 0.930 . S
O744 Li684 1.956 . S
O744 Li685 1.970 . S
O744 Li686 1.961 . S
O744 C688 1.325 . S
O745 Li684 1.970 . S
O745 Li685 1.956 . S
O745 Li687 1.961 . S
O745 C694 1.325 . S
O746 Li684 1.961 . S
O746 Li686 1.956 . S
O746 Li687 1.970 . S
O746 C716 1.325 . S
O747 Li685 1.961 . S
O747 Li686 1.970 . S
O747 Li687 1.956 . S
O747 C722 1.325 . S
H748 C690 0.929 . S
H749 C691 0.930 . S
H750 C692 0.930 . S
H751 C693 0.930 . S
H752 C695 0.930 . S
H753 C697 0.929 . S
H754 C698 0.930 . S
H755 C699 0.930 . S
H756 C702 0.930 . S
H757 C705 0.929 . S
H758 C710 0.929 . S
H759 C711 0.930 . S
H760 C718 0.929 . S
H761 C719 0.930 . S
H762 C720 0.930 . S
H763 C721 0.930 . S
H764 C723 0.929 . S
H765 C724 0.930 . S
H766 C725 0.930 . S
H767 C726 0.930 . S
H768 C730 0.929 . S
H769 C732 0.930 . S
H770 C738 0.929 . S
H771 C739 0.930 . S
Li772 N789 1.990 . S
Li772 O832 1.956 . S
Li772 O833 1.970 . S
Li772 O834 1.961 . S
Li773 N797 1.990 . S
Li773 O832 1.970 . S
Li773 O833 1.956 . S
Li773 O835 1.961 . S
Li774 N819 1.990 . S
Li774 O832 1.961 . S
Li774 O834 1.956 . S
Li774 O835 1.970 . S
Li775 N825 1.990 . S
Li775 O833 1.961 . S
Li775 O834 1.970 . S
Li775 O835 1.956 . S
C776 C778 1.348 . S
C776 C779 1.356 . S
C776 O832 1.325 . S
N777 C780 1.314 . S
N777 C781 1.279 . S
C778 C776 1.348 . S
C778 C780 1.353 . S
C778 H836 0.929 . S
C779 C776 1.356 . S
C779 C781 1.358 . S
C779 H837 0.930 . S
C780 N777 1.314 . S
C780 C778 1.353 . S
C780 H838 0.930 . S
C781 N777 1.279 . S
C781 C779 1.358 . S
C781 H839 0.930 . S
C782 C785 1.348 . S
C782 C786 1.356 . S
C782 O833 1.325 . S
C783 N784 1.279 . S
C783 C786 1.358 . S
C783 H840 0.930 . S
N784 C783 1.279 . S
N784 C787 1.314 . S
C785 C782 1.348 . S
C785 C787 1.353 . S
C785 H841 0.929 . S
C786 C782 1.356 . S
C786 C783 1.358 . S
C786 H842 0.930 . S
C787 N784 1.314 . S
C787 C785 1.353 . S
C787 H843 0.930 . S
C788 N789 1.314 . S
C788 C793 1.353 . S
C788 H794 0.930 . S
N789 Li772 1.990 . S
N789 C788 1.314 . S
N789 C791 1.279 . S
C790 C791 1.358 . S
C790 C792 1.356 . S
C790 H844 0.930 . S
C791 N789 1.279 . S
C791 C790 1.358 . S
C791 H795 0.930 . S
C792 C790 1.356 . S
C792 C793 1.348 . S
C793 C788 1.353 . S
C793 C792 1.348 . S
C793 H845 0.929 . S
H794 C788 0.930 . S
H795 C791 0.930 . S
C796 N797 1.314 . S
C796 C798 1.353 . S
C796 H802 0.930 . S
N797 Li773 1.990 . S
N797 C796 1.314 . S
N797 C800 1.279 . S
C798 C796 1.353 . S
C798 C801 1.348 . S
C798 H846 0.929 . S
C799 C800 1.358 . S
C799 C801 1.356 . S
C799 H847 0.930 . S
C800 N797 1.279 . S
C800 C799 1.358 . S
C800 H803 0.930 . S
C801 C798 1.348 . S
C801 C799 1.356 . S
H802 C796 0.930 . S
H803 C800 0.930 . S
C804 C806 1.348 . S
C804 C807 1.356 . S
C804 O834 1.325 . S
N805 C808 1.314 . S
N805 C809 1.279 . S
C806 C804 1.348 . S
C806 C808 1.353 . S
C806 H848 0.929 . S
C807 C804 1.356 . S
C807 C809 1.358 . S
C807 H849 0.930 . S
C808 N805 1.314 . S
C808 C806 1.353 . S
C808 H850 0.930 . S
C809 N805 1.279 . S
C809 C807 1.358 . S
C809 H851 0.930 . S
C810 C811 1.348 . S
C810 C812 1.356 . S
C810 O835 1.325 . S
C811 C810 1.348 . S
C811 C813 1.353 . S
C811 H852 0.929 . S
C812 C810 1.356 . S
C812 C814 1.358 . S
C812 H853 0.930 . S
C813 C811 1.353 . S
C813 N815 1.314 . S
C813 H854 0.930 . S
C814 C812 1.358 . S
C814 N815 1.279 . S
C814 H855 0.930 . S
N815 C813 1.314 . S
N815 C814 1.279 . S
C816 C818 1.353 . S
C816 N819 1.314 . S
C816 H822 0.930 . S
C817 N819 1.279 . S
C817 C820 1.358 . S
C817 H823 0.930 . S
C818 C816 1.353 . S
C818 C821 1.348 . S
C818 H856 0.929 . S
N819 Li774 1.990 . S
N819 C816 1.314 . S
N819 C817 1.279 . S
C820 C817 1.358 . S
C820 C821 1.356 . S
C820 H857 0.930 . S
C821 C818 1.348 . S
C821 C820 1.356 . S
H822 C816 0.930 . S
H823 C817 0.930 . S
C824 N825 1.314 . S
C824 C826 1.353 . S
C824 H830 0.930 . S
N825 Li775 1.990 . S
N825 C824 1.314 . S
N825 C828 1.279 . S
C826 C824 1.353 . S
C826 C829 1.348 . S
C826 H858 0.929 . S
C827 C828 1.358 . S
C827 C829 1.356 . S
C827 H859 0.930 . S
C828 N825 1.279 . S
C828 C827 1.358 . S
C828 H831 0.930 . S
C829 C826 1.348 . S
C829 C827 1.356 . S
H830 C824 0.930 . S
H831 C828 0.930 . S
O832 Li772 1.956 . S
O832 Li773 1.970 . S
O832 Li774 1.961 . S
O832 C776 1.325 . S
O833 Li772 1.970 . S
O833 Li773 1.956 . S
O833 Li775 1.961 . S
O833 C782 1.325 . S
O834 Li772 1.961 . S
O834 Li774 1.956 . S
O834 Li775 1.970 . S
O834 C804 1.325 . S
O835 Li773 1.961 . S
O835 Li774 1.970 . S
O835 Li775 1.956 . S
O835 C810 1.325 . S
H836 C778 0.929 . S
H837 C779 0.930 . S
H838 C780 0.930 . S
H839 C781 0.930 . S
H840 C783 0.930 . S
H841 C785 0.929 . S
H842 C786 0.930 . S
H843 C787 0.930 . S
H844 C790 0.930 . S
H845 C793 0.929 . S
H846 C798 0.929 . S
H847 C799 0.930 . S
H848 C806 0.929 . S
H849 C807 0.930 . S
H850 C808 0.930 . S
H851 C809 0.930 . S
H852 C811 0.929 . S
H853 C812 0.930 . S
H854 C813 0.930 . S
H855 C814 0.930 . S
H856 C818 0.929 . S
H857 C820 0.930 . S
H858 C826 0.929 . S
H859 C827 0.930 . S
Li860 N877 1.990 . S
Li860 O920 1.956 . S
Li860 O921 1.970 . S
Li860 O922 1.961 . S
Li861 N885 1.990 . S
Li861 O920 1.970 . S
Li861 O921 1.956 . S
Li861 O923 1.961 . S
Li862 N907 1.990 . S
Li862 O920 1.961 . S
Li862 O922 1.956 . S
Li862 O923 1.970 . S
Li863 N913 1.990 . S
Li863 O921 1.961 . S
Li863 O922 1.970 . S
Li863 O923 1.956 . S
C864 C866 1.348 . S
C864 C867 1.356 . S
C864 O920 1.325 . S
N865 C868 1.314 . S
N865 C869 1.279 . S
C866 C864 1.348 . S
C866 C868 1.353 . S
C866 H924 0.929 . S
C867 C864 1.356 . S
C867 C869 1.358 . S
C867 H925 0.930 . S
C868 N865 1.314 . S
C868 C866 1.353 . S
C868 H926 0.930 . S
C869 N865 1.279 . S
C869 C867 1.358 . S
C869 H927 0.930 . S
C870 C873 1.348 . S
C870 C874 1.356 . S
C870 O921 1.325 . S
C871 N872 1.279 . S
C871 C874 1.358 . S
C871 H928 0.930 . S
N872 C871 1.279 . S
N872 C875 1.314 . S
C873 C870 1.348 . S
C873 C875 1.353 . S
C873 H929 0.929 . S
C874 C870 1.356 . S
C874 C871 1.358 . S
C874 H930 0.930 . S
C875 N872 1.314 . S
C875 C873 1.353 . S
C875 H931 0.930 . S
C876 N877 1.314 . S
C876 C881 1.353 . S
C876 H882 0.930 . S
N877 Li860 1.990 . S
N877 C876 1.314 . S
N877 C879 1.279 . S
C878 C879 1.358 . S
C878 C880 1.356 . S
C878 H932 0.930 . S
C879 N877 1.279 . S
C879 C878 1.358 . S
C879 H883 0.930 . S
C880 C878 1.356 . S
C880 C881 1.348 . S
C881 C876 1.353 . S
C881 C880 1.348 . S
C881 H933 0.929 . S
H882 C876 0.930 . S
H883 C879 0.930 . S
C884 N885 1.314 . S
C884 C886 1.353 . S
C884 H890 0.930 . S
N885 Li861 1.990 . S
N885 C884 1.314 . S
N885 C888 1.279 . S
C886 C884 1.353 . S
C886 C889 1.348 . S
C886 H934 0.929 . S
C887 C888 1.358 . S
C887 C889 1.356 . S
C887 H935 0.930 . S
C888 N885 1.279 . S
C888 C887 1.358 . S
C888 H891 0.930 . S
C889 C886 1.348 . S
C889 C887 1.356 . S
H890 C884 0.930 . S
H891 C888 0.930 . S
C892 C894 1.348 . S
C892 C895 1.356 . S
C892 O922 1.325 . S
N893 C896 1.314 . S
N893 C897 1.279 . S
C894 C892 1.348 . S
C894 C896 1.353 . S
C894 H936 0.929 . S
C895 C892 1.356 . S
C895 C897 1.358 . S
C895 H937 0.930 . S
C896 N893 1.314 . S
C896 C894 1.353 . S
C896 H938 0.930 . S
C897 N893 1.279 . S
C897 C895 1.358 . S
C897 H939 0.930 . S
C898 C899 1.348 . S
C898 C900 1.356 . S
C898 O923 1.325 . S
C899 C898 1.348 . S
C899 C901 1.353 . S
C899 H940 0.929 . S
C900 C898 1.356 . S
C900 C902 1.358 . S
C900 H941 0.930 . S
C901 C899 1.353 . S
C901 N903 1.314 . S
C901 H942 0.930 . S
C902 C900 1.358 . S
C902 N903 1.279 . S
C902 H943 0.930 . S
N903 C901 1.314 . S
N903 C902 1.279 . S
C904 C906 1.353 . S
C904 N907 1.314 . S
C904 H910 0.930 . S
C905 N907 1.279 . S
C905 C908 1.358 . S
C905 H911 0.930 . S
C906 C904 1.353 . S
C906 C909 1.348 . S
C906 H944 0.929 . S
N907 Li862 1.990 . S
N907 C904 1.314 . S
N907 C905 1.279 . S
C908 C905 1.358 . S
C908 C909 1.356 . S
C908 H945 0.930 . S
C909 C906 1.348 . S
C909 C908 1.356 . S
H910 C904 0.930 . S
H911 C905 0.930 . S
C912 N913 1.314 . S
C912 C914 1.353 . S
C912 H918 0.930 . S
N913 Li863 1.990 . S
N913 C912 1.314 . S
N913 C916 1.279 . S
C914 C912 1.353 . S
C914 C917 1.348 . S
C914 H946 0.929 . S
C915 C916 1.358 . S
C915 C917 1.356 . S
C915 H947 0.930 . S
C916 N913 1.279 . S
C916 C915 1.358 . S
C916 H919 0.930 . S
C917 C914 1.348 . S
C917 C915 1.356 . S
H918 C912 0.930 . S
H919 C916 0.930 . S
O920 Li860 1.956 . S
O920 Li861 1.970 . S
O920 Li862 1.961 . S
O920 C864 1.325 . S
O921 Li860 1.970 . S
O921 Li861 1.956 . S
O921 Li863 1.961 . S
O921 C870 1.325 . S
O922 Li860 1.961 . S
O922 Li862 1.956 . S
O922 Li863 1.970 . S
O922 C892 1.325 . S
O923 Li861 1.961 . S
O923 Li862 1.970 . S
O923 Li863 1.956 . S
O923 C898 1.325 . S
H924 C866 0.929 . S
H925 C867 0.930 . S
H926 C868 0.930 . S
H927 C869 0.930 . S
H928 C871 0.930 . S
H929 C873 0.929 . S
H930 C874 0.930 . S
H931 C875 0.930 . S
H932 C878 0.930 . S
H933 C881 0.929 . S
H934 C886 0.929 . S
H935 C887 0.930 . S
H936 C894 0.929 . S
H937 C895 0.930 . S
H938 C896 0.930 . S
H939 C897 0.930 . S
H940 C899 0.929 . S
H941 C900 0.930 . S
H942 C901 0.930 . S
H943 C902 0.930 . S
H944 C906 0.929 . S
H945 C908 0.930 . S
H946 C914 0.929 . S
H947 C915 0.930 . S
Li948 N965 1.990 . S
Li948 O1008 1.956 . S
Li948 O1009 1.970 . S
Li948 O1010 1.961 . S
Li949 N973 1.990 . S
Li949 O1008 1.970 . S
Li949 O1009 1.956 . S
Li949 O1011 1.961 . S
Li950 N995 1.990 . S
Li950 O1008 1.961 . S
Li950 O1010 1.956 . S
Li950 O1011 1.970 . S
Li951 N1001 1.990 . S
Li951 O1009 1.961 . S
Li951 O1010 1.970 . S
Li951 O1011 1.956 . S
C952 C954 1.348 . S
C952 C955 1.356 . S
C952 O1008 1.325 . S
N953 C956 1.314 . S
N953 C957 1.279 . S
C954 C952 1.348 . S
C954 C956 1.353 . S
C954 H1012 0.929 . S
C955 C952 1.356 . S
C955 C957 1.358 . S
C955 H1013 0.930 . S
C956 N953 1.314 . S
C956 C954 1.353 . S
C956 H1014 0.930 . S
C957 N953 1.279 . S
C957 C955 1.358 . S
C957 H1015 0.930 . S
C958 C961 1.348 . S
C958 C962 1.356 . S
C958 O1009 1.325 . S
C959 N960 1.279 . S
C959 C962 1.358 . S
C959 H1016 0.930 . S
N960 C959 1.279 . S
N960 C963 1.314 . S
C961 C958 1.348 . S
C961 C963 1.353 . S
C961 H1017 0.929 . S
C962 C958 1.356 . S
C962 C959 1.358 . S
C962 H1018 0.930 . S
C963 N960 1.314 . S
C963 C961 1.353 . S
C963 H1019 0.930 . S
C964 N965 1.314 . S
C964 C969 1.353 . S
C964 H970 0.930 . S
N965 Li948 1.990 . S
N965 C964 1.314 . S
N965 C967 1.279 . S
C966 C967 1.358 . S
C966 C968 1.356 . S
C966 H1020 0.895 1_556 S
C967 N965 1.279 . S
C967 C966 1.358 . S
C967 H971 0.930 . S
C968 C966 1.356 . S
C968 C969 1.348 . S
C969 C964 1.353 . S
C969 C968 1.348 . S
C969 H1021 0.929 . S
H970 C964 0.930 . S
H971 C967 0.930 . S
C972 N973 1.314 . S
C972 C974 1.353 . S
C972 H978 0.930 . S
N973 Li949 1.990 . S
N973 C972 1.314 . S
N973 C976 1.279 . S
C974 C972 1.353 . S
C974 C977 1.348 . S
C974 H1022 0.929 . S
C975 C976 1.358 . S
C975 C977 1.356 . S
C975 H1023 0.930 . S
C976 N973 1.279 . S
C976 C975 1.358 . S
C976 H979 0.930 . S
C977 C974 1.348 . S
C977 C975 1.356 . S
H978 C972 0.930 . S
H979 C976 0.930 . S
C980 C982 1.348 . S
C980 C983 1.356 . S
C980 O1010 1.325 . S
N981 C984 1.314 . S
N981 C985 1.279 . S
C982 C980 1.348 . S
C982 C984 1.353 . S
C982 H1024 0.929 . S
C983 C980 1.356 . S
C983 C985 1.358 . S
C983 H1025 0.930 . S
C984 N981 1.314 . S
C984 C982 1.353 . S
C984 H1026 0.930 . S
C985 N981 1.279 . S
C985 C983 1.358 . S
C985 H1027 0.930 . S
C986 C987 1.348 . S
C986 C988 1.356 . S
C986 O1011 1.325 . S
C987 C986 1.348 . S
C987 C989 1.353 . S
C987 H1028 0.929 . S
C988 C986 1.356 . S
C988 C990 1.358 . S
C988 H1029 0.930 . S
C989 C987 1.353 . S
C989 N991 1.314 . S
C989 H1030 0.930 . S
C990 C988 1.358 . S
C990 N991 1.279 . S
C990 H1031 0.930 . S
N991 C989 1.314 . S
N991 C990 1.279 . S
C992 C994 1.353 . S
C992 N995 1.314 . S
C992 H998 0.930 . S
C993 N995 1.279 . S
C993 C996 1.358 . S
C993 H999 0.930 . S
C994 C992 1.353 . S
C994 C997 1.348 . S
C994 H1032 0.929 . S
N995 Li950 1.990 . S
N995 C992 1.314 . S
N995 C993 1.279 . S
C996 C993 1.358 . S
C996 C997 1.356 . S
C996 H1033 0.930 . S
C997 C994 1.348 . S
C997 C996 1.356 . S
H998 C992 0.930 . S
H999 C993 0.930 . S
C1000 N1001 1.314 . S
C1000 C1002 1.353 . S
C1000 H1006 0.930 . S
N1001 Li951 1.990 . S
N1001 C1000 1.314 . S
N1001 C1004 1.279 . S
C1002 C1000 1.353 . S
C1002 C1005 1.348 . S
C1002 H1034 0.929 . S
C1003 C1004 1.358 . S
C1003 C1005 1.356 . S
C1003 H1035 0.930 . S
C1004 N1001 1.279 . S
C1004 C1003 1.358 . S
C1004 H1007 0.930 . S
C1005 C1002 1.348 . S
C1005 C1003 1.356 . S
H1006 C1000 0.930 . S
H1007 C1004 0.930 . S
O1008 Li948 1.956 . S
O1008 Li949 1.970 . S
O1008 Li950 1.961 . S
O1008 C952 1.325 . S
O1009 Li948 1.970 . S
O1009 Li949 1.956 . S
O1009 Li951 1.961 . S
O1009 C958 1.325 . S
O1010 Li948 1.961 . S
O1010 Li950 1.956 . S
O1010 Li951 1.970 . S
O1010 C980 1.325 . S
O1011 Li949 1.961 . S
O1011 Li950 1.970 . S
O1011 Li951 1.956 . S
O1011 C986 1.325 . S
H1012 C954 0.929 . S
H1013 C955 0.930 . S
H1014 C956 0.930 . S
H1015 C957 0.930 . S
H1016 C959 0.930 . S
H1017 C961 0.929 . S
H1018 C962 0.930 . S
H1019 C963 0.930 . S
H1020 C966 0.895 1_554 S
H1021 C969 0.929 . S
H1022 C974 0.929 . S
H1023 C975 0.930 . S
H1024 C982 0.929 . S
H1025 C983 0.930 . S
H1026 C984 0.930 . S
H1027 C985 0.930 . S
H1028 C987 0.929 . S
H1029 C988 0.930 . S
H1030 C989 0.930 . S
H1031 C990 0.930 . S
H1032 C994 0.929 . S
H1033 C996 0.930 . S
H1034 C1002 0.929 . S
H1035 C1003 0.930 . S
Li1036 N1053 1.990 . S
Li1036 O1096 1.956 . S
Li1036 O1097 1.970 . S
Li1036 O1098 1.961 . S
Li1037 N1061 1.990 . S
Li1037 O1096 1.970 . S
Li1037 O1097 1.956 . S
Li1037 O1099 1.961 . S
Li1038 N1083 1.990 . S
Li1038 O1096 1.961 . S
Li1038 O1098 1.956 . S
Li1038 O1099 1.970 . S
Li1039 N1089 1.990 . S
Li1039 O1097 1.961 . S
Li1039 O1098 1.970 . S
Li1039 O1099 1.956 . S
C1040 C1042 1.348 . S
C1040 C1043 1.356 . S
C1040 O1096 1.325 . S
N1041 C1044 1.314 . S
N1041 C1045 1.279 . S
C1042 C1040 1.348 . S
C1042 C1044 1.353 . S
C1042 H1100 0.929 . S
C1043 C1040 1.356 . S
C1043 C1045 1.358 . S
C1043 H1101 0.930 . S
C1044 N1041 1.314 . S
C1044 C1042 1.353 . S
C1044 H1102 0.930 . S
C1045 N1041 1.279 . S
C1045 C1043 1.358 . S
C1045 H1103 0.930 . S
C1046 C1049 1.348 . S
C1046 C1050 1.356 . S
C1046 O1097 1.325 . S
C1047 N1048 1.279 . S
C1047 C1050 1.358 . S
C1047 H1104 0.930 . S
N1048 C1047 1.279 . S
N1048 C1051 1.314 . S
C1049 C1046 1.348 . S
C1049 C1051 1.353 . S
C1049 H1105 0.929 . S
C1050 C1046 1.356 . S
C1050 C1047 1.358 . S
C1050 H1106 0.930 . S
C1051 N1048 1.314 . S
C1051 C1049 1.353 . S
C1051 H1107 0.930 . S
C1052 N1053 1.314 . S
C1052 C1057 1.353 . S
C1052 H1058 0.930 . S
N1053 Li1036 1.990 . S
N1053 C1052 1.314 . S
N1053 C1055 1.279 . S
C1054 C1055 1.358 . S
C1054 C1056 1.356 . S
C1054 H1108 0.930 . S
C1055 N1053 1.279 . S
C1055 C1054 1.358 . S
C1055 H1059 0.930 . S
C1056 C1054 1.356 . S
C1056 C1057 1.348 . S
C1057 C1052 1.353 . S
C1057 C1056 1.348 . S
C1057 H1109 0.929 . S
H1058 C1052 0.930 . S
H1059 C1055 0.930 . S
C1060 N1061 1.314 . S
C1060 C1062 1.353 . S
C1060 H1066 0.930 . S
N1061 Li1037 1.990 . S
N1061 C1060 1.314 . S
N1061 C1064 1.279 . S
C1062 C1060 1.353 . S
C1062 C1065 1.348 . S
C1062 H1110 0.929 . S
C1063 C1064 1.358 . S
C1063 C1065 1.356 . S
C1063 H1111 0.930 . S
C1064 N1061 1.279 . S
C1064 C1063 1.358 . S
C1064 H1067 0.930 . S
C1065 C1062 1.348 . S
C1065 C1063 1.356 . S
H1066 C1060 0.930 . S
H1067 C1064 0.930 . S
C1068 C1070 1.348 . S
C1068 C1071 1.356 . S
C1068 O1098 1.325 . S
N1069 C1072 1.314 . S
N1069 C1073 1.279 . S
C1070 C1068 1.348 . S
C1070 C1072 1.353 . S
C1070 H1112 0.929 . S
C1071 C1068 1.356 . S
C1071 C1073 1.358 . S
C1071 H1113 0.930 . S
C1072 N1069 1.314 . S
C1072 C1070 1.353 . S
C1072 H1114 0.930 . S
C1073 N1069 1.279 . S
C1073 C1071 1.358 . S
C1073 H1115 0.930 . S
C1074 C1075 1.348 . S
C1074 C1076 1.356 . S
C1074 O1099 1.325 . S
C1075 C1074 1.348 . S
C1075 C1077 1.353 . S
C1075 H1116 0.929 . S
C1076 C1074 1.356 . S
C1076 C1078 1.358 . S
C1076 H1117 0.930 . S
C1077 C1075 1.353 . S
C1077 N1079 1.314 . S
C1077 H1118 0.930 . S
C1078 C1076 1.358 . S
C1078 N1079 1.279 . S
C1078 H1119 0.930 . S
N1079 C1077 1.314 . S
N1079 C1078 1.279 . S
C1080 C1082 1.353 . S
C1080 N1083 1.314 . S
C1080 H1086 0.930 . S
C1081 N1083 1.279 . S
C1081 C1084 1.398 . S
C1081 H1087 0.930 . S
C1082 C1080 1.353 . S
C1082 C1085 1.348 . S
C1082 H1120 0.929 . S
N1083 Li1038 1.990 . S
N1083 C1080 1.314 . S
N1083 C1081 1.279 . S
C1084 C1081 1.398 . S
C1084 C1085 1.361 . S
C1084 H1121 0.885 1_554 S
C1085 C1082 1.348 . S
C1085 C1084 1.361 . S
H1086 C1080 0.930 . S
H1087 C1081 0.930 . S
C1088 N1089 1.314 . S
C1088 C1090 1.353 . S
C1088 H1094 0.930 . S
N1089 Li1039 1.990 . S
N1089 C1088 1.314 . S
N1089 C1092 1.279 . S
C1090 C1088 1.353 . S
C1090 C1093 1.348 . S
C1090 H1122 0.929 . S
C1091 C1092 1.358 . S
C1091 C1093 1.356 . S
C1091 H1123 0.930 . S
C1092 N1089 1.279 . S
C1092 C1091 1.358 . S
C1092 H1095 0.930 . S
C1093 C1090 1.348 . S
C1093 C1091 1.356 . S
H1094 C1088 0.930 . S
H1095 C1092 0.930 . S
O1096 Li1036 1.956 . S
O1096 Li1037 1.970 . S
O1096 Li1038 1.961 . S
O1096 C1040 1.325 . S
O1097 Li1036 1.970 . S
O1097 Li1037 1.956 . S
O1097 Li1039 1.961 . S
O1097 C1046 1.325 . S
O1098 Li1036 1.961 . S
O1098 Li1038 1.956 . S
O1098 Li1039 1.970 . S
O1098 C1068 1.325 . S
O1099 Li1037 1.961 . S
O1099 Li1038 1.970 . S
O1099 Li1039 1.956 . S
O1099 C1074 1.325 . S
H1100 C1042 0.929 . S
H1101 C1043 0.930 . S
H1102 C1044 0.930 . S
H1103 C1045 0.930 . S
H1104 C1047 0.930 . S
H1105 C1049 0.929 . S
H1106 C1050 0.930 . S
H1107 C1051 0.930 . S
H1108 C1054 0.930 . S
H1109 C1057 0.929 . S
H1110 C1062 0.929 . S
H1111 C1063 0.930 . S
H1112 C1070 0.929 . S
H1113 C1071 0.930 . S
H1114 C1072 0.930 . S
H1115 C1073 0.930 . S
H1116 C1075 0.929 . S
H1117 C1076 0.930 . S
H1118 C1077 0.930 . S
H1119 C1078 0.930 . S
H1120 C1082 0.929 . S
H1121 C1084 0.885 1_556 S
H1122 C1090 0.929 . S
H1123 C1091 0.930 . S
Li1124 N1141 1.990 . S
Li1124 O1184 1.956 . S
Li1124 O1185 1.970 . S
Li1124 O1186 1.961 . S
Li1125 N1149 1.990 . S
Li1125 O1184 1.970 . S
Li1125 O1185 1.956 . S
Li1125 O1187 1.961 . S
Li1126 N1171 1.990 . S
Li1126 O1184 1.961 . S
Li1126 O1186 1.956 . S
Li1126 O1187 1.970 . S
Li1127 N1177 1.990 . S
Li1127 O1185 1.961 . S
Li1127 O1186 1.970 . S
Li1127 O1187 1.956 . S
C1128 C1130 1.348 . S
C1128 C1131 1.356 . S
C1128 O1184 1.325 . S
N1129 C1132 1.314 . S
N1129 C1133 1.279 . S
C1130 C1128 1.348 . S
C1130 C1132 1.353 . S
C1130 H1188 0.929 . S
C1131 C1128 1.356 . S
C1131 C1133 1.358 . S
C1131 H1189 0.930 . S
C1132 N1129 1.314 . S
C1132 C1130 1.353 . S
C1132 H1190 0.930 . S
C1133 N1129 1.279 . S
C1133 C1131 1.358 . S
C1133 H1191 0.930 . S
C1134 C1137 1.348 . S
C1134 C1138 1.356 . S
C1134 O1185 1.325 . S
C1135 N1136 1.279 . S
C1135 C1138 1.358 . S
C1135 H1192 0.930 . S
N1136 C1135 1.279 . S
N1136 C1139 1.314 . S
C1137 C1134 1.348 . S
C1137 C1139 1.353 . S
C1137 H1193 0.929 . S
C1138 C1134 1.356 . S
C1138 C1135 1.358 . S
C1138 H1194 0.930 . S
C1139 N1136 1.314 . S
C1139 C1137 1.353 . S
C1139 H1195 0.930 . S
C1140 N1141 1.314 . S
C1140 C1145 1.353 . S
C1140 H1146 0.930 . S
N1141 Li1124 1.990 . S
N1141 C1140 1.314 . S
N1141 C1143 1.279 . S
C1142 C1143 1.358 . S
C1142 C1144 1.356 . S
C1142 H1196 0.930 . S
C1143 N1141 1.279 . S
C1143 C1142 1.358 . S
C1143 H1147 0.930 . S
C1144 C1142 1.356 . S
C1144 C1145 1.348 . S
C1145 C1140 1.353 . S
C1145 C1144 1.348 . S
C1145 H1197 0.929 . S
H1146 C1140 0.930 . S
H1147 C1143 0.930 . S
C1148 N1149 1.314 . S
C1148 C1150 1.353 . S
C1148 H1154 0.930 . S
N1149 Li1125 1.990 . S
N1149 C1148 1.314 . S
N1149 C1152 1.279 . S
C1150 C1148 1.353 . S
C1150 C1153 1.348 . S
C1150 H1198 0.929 . S
C1151 C1152 1.358 . S
C1151 C1153 1.356 . S
C1151 H1199 0.930 . S
C1152 N1149 1.279 . S
C1152 C1151 1.358 . S
C1152 H1155 0.930 . S
C1153 C1150 1.348 . S
C1153 C1151 1.356 . S
H1154 C1148 0.930 . S
H1155 C1152 0.930 . S
C1156 C1158 1.348 . S
C1156 C1159 1.356 . S
C1156 O1186 1.325 . S
N1157 C1160 1.314 . S
N1157 C1161 1.279 . S
C1158 C1156 1.348 . S
C1158 C1160 1.353 . S
C1158 H1200 0.929 . S
C1159 C1156 1.356 . S
C1159 C1161 1.358 . S
C1159 H1201 0.930 . S
C1160 N1157 1.314 . S
C1160 C1158 1.353 . S
C1160 H1202 0.930 . S
C1161 N1157 1.279 . S
C1161 C1159 1.358 . S
C1161 H1203 0.930 . S
C1162 C1163 1.348 . S
C1162 C1164 1.356 . S
C1162 O1187 1.325 . S
C1163 C1162 1.348 . S
C1163 C1165 1.353 . S
C1163 H1204 0.929 . S
C1164 C1162 1.356 . S
C1164 C1166 1.358 . S
C1164 H1205 0.930 . S
C1165 C1163 1.353 . S
C1165 N1167 1.314 . S
C1165 H1206 0.930 . S
C1166 C1164 1.358 . S
C1166 N1167 1.279 . S
C1166 H1207 0.930 . S
N1167 C1165 1.314 . S
N1167 C1166 1.279 . S
C1168 C1170 1.353 . S
C1168 N1171 1.314 . S
C1168 H1174 0.930 . S
C1169 N1171 1.279 . S
C1169 C1172 1.358 . S
C1169 H1175 0.930 . S
C1170 C1168 1.353 . S
C1170 C1173 1.348 . S
C1170 H1208 0.929 . S
N1171 Li1126 1.990 . S
N1171 C1168 1.314 . S
N1171 C1169 1.279 . S
C1172 C1169 1.358 . S
C1172 C1173 1.356 . S
C1172 H1209 0.930 . S
C1173 C1170 1.348 . S
C1173 C1172 1.356 . S
H1174 C1168 0.930 . S
H1175 C1169 0.930 . S
C1176 N1177 1.314 . S
C1176 C1178 1.353 . S
C1176 H1182 0.930 . S
N1177 Li1127 1.990 . S
N1177 C1176 1.314 . S
N1177 C1180 1.279 . S
C1178 C1176 1.353 . S
C1178 C1181 1.348 . S
C1178 H1210 0.929 . S
C1179 C1180 1.358 . S
C1179 C1181 1.356 . S
C1179 H1211 0.930 . S
C1180 N1177 1.279 . S
C1180 C1179 1.358 . S
C1180 H1183 0.930 . S
C1181 C1178 1.348 . S
C1181 C1179 1.356 . S
H1182 C1176 0.930 . S
H1183 C1180 0.930 . S
O1184 Li1124 1.956 . S
O1184 Li1125 1.970 . S
O1184 Li1126 1.961 . S
O1184 C1128 1.325 . S
O1185 Li1124 1.970 . S
O1185 Li1125 1.956 . S
O1185 Li1127 1.961 . S
O1185 C1134 1.325 . S
O1186 Li1124 1.961 . S
O1186 Li1126 1.956 . S
O1186 Li1127 1.970 . S
O1186 C1156 1.325 . S
O1187 Li1125 1.961 . S
O1187 Li1126 1.970 . S
O1187 Li1127 1.956 . S
O1187 C1162 1.325 . S
H1188 C1130 0.929 . S
H1189 C1131 0.930 . S
H1190 C1132 0.930 . S
H1191 C1133 0.930 . S
H1192 C1135 0.930 . S
H1193 C1137 0.929 . S
H1194 C1138 0.930 . S
H1195 C1139 0.930 . S
H1196 C1142 0.930 . S
H1197 C1145 0.929 . S
H1198 C1150 0.929 . S
H1199 C1151 0.930 . S
H1200 C1158 0.929 . S
H1201 C1159 0.930 . S
H1202 C1160 0.930 . S
H1203 C1161 0.930 . S
H1204 C1163 0.929 . S
H1205 C1164 0.930 . S
H1206 C1165 0.930 . S
H1207 C1166 0.930 . S
H1208 C1170 0.929 . S
H1209 C1172 0.930 . S
H1210 C1178 0.929 . S
H1211 C1179 0.930 . S
C1212 C1213 1.369 . S
C1212 C1214 1.419 . S
C1212 H1216 0.930 . S
C1213 C1212 1.369 . S
C1213 C1222 1.429 . S
C1214 C1212 1.419 . S
C1214 C1215 1.363 . S
C1214 H1217 0.929 . S
C1215 C1214 1.363 . S
C1215 C1221 1.428 . S
H1216 C1212 0.930 . S
H1217 C1214 0.929 . S
S1218 N1219 1.613 . S
S1218 N1220 1.610 . S
N1219 S1218 1.613 . S
N1219 C1222 1.350 . S
N1220 S1218 1.610 . S
N1220 C1221 1.351 . S
C1221 C1215 1.428 . S
C1221 N1220 1.351 . S
C1221 C1222 1.434 . S
C1222 C1213 1.429 . S
C1222 N1219 1.350 . S
C1222 C1221 1.434 . S
C1223 C1224 1.369 . S
C1223 C1225 1.419 . S
C1223 H1227 0.930 . S
C1224 C1223 1.369 . S
C1224 C1233 1.429 . S
C1225 C1223 1.419 . S
C1225 C1226 1.363 . S
C1225 H1228 0.929 . S
C1226 C1225 1.363 . S
C1226 C1232 1.428 . S
H1227 C1223 0.930 . S
H1228 C1225 0.929 . S
S1229 N1230 1.613 . S
S1229 N1231 1.610 . S
N1230 S1229 1.613 . S
N1230 C1233 1.350 . S
N1231 S1229 1.610 . S
N1231 C1232 1.351 . S
C1232 C1226 1.428 . S
C1232 N1231 1.351 . S
C1232 C1233 1.434 . S
C1233 C1224 1.429 . S
C1233 N1230 1.350 . S
C1233 C1232 1.434 . S
C1234 C1235 1.369 . S
C1234 C1236 1.419 . S
C1234 H1238 0.930 . S
C1235 C1234 1.369 . S
C1235 C1244 1.429 . S
C1236 C1234 1.419 . S
C1236 C1237 1.363 . S
C1236 H1239 0.929 . S
C1237 C1236 1.363 . S
C1237 C1243 1.428 . S
H1238 C1234 0.930 . S
H1239 C1236 0.929 . S
S1240 N1241 1.613 . S
S1240 N1242 1.610 . S
N1241 S1240 1.613 . S
N1241 C1244 1.350 . S
N1242 S1240 1.610 . S
N1242 C1243 1.351 . S
C1243 C1237 1.428 . S
C1243 N1242 1.351 . S
C1243 C1244 1.434 . S
C1244 C1235 1.429 . S
C1244 N1241 1.350 . S
C1244 C1243 1.434 . S
C1245 C1246 1.369 . S
C1245 C1247 1.419 . S
C1245 H1249 0.930 . S
C1246 C1245 1.369 . S
C1246 C1255 1.429 . S
C1247 C1245 1.419 . S
C1247 C1248 1.363 . S
C1247 H1250 0.929 . S
C1248 C1247 1.363 . S
C1248 C1254 1.428 . S
H1249 C1245 0.930 . S
H1250 C1247 0.929 . S
S1251 N1252 1.613 . S
S1251 N1253 1.610 . S
N1252 S1251 1.613 . S
N1252 C1255 1.350 . S
N1253 S1251 1.610 . S
N1253 C1254 1.351 . S
C1254 C1248 1.428 . S
C1254 N1253 1.351 . S
C1254 C1255 1.434 . S
C1255 C1246 1.429 . S
C1255 N1252 1.350 . S
C1255 C1254 1.434 . S
C1256 C1257 1.369 . S
C1256 C1258 1.419 . S
C1256 H1260 0.930 . S
C1257 C1256 1.369 . S
C1257 C1266 1.429 . S
C1258 C1256 1.419 . S
C1258 C1259 1.363 . S
C1258 H1261 0.929 . S
C1259 C1258 1.363 . S
C1259 C1265 1.428 . S
H1260 C1256 0.930 . S
H1261 C1258 0.929 . S
S1262 N1263 1.613 . S
S1262 N1264 1.610 . S
N1263 S1262 1.613 . S
N1263 C1266 1.350 . S
N1264 S1262 1.610 . S
N1264 C1265 1.351 . S
C1265 C1259 1.428 . S
C1265 N1264 1.351 . S
C1265 C1266 1.434 . S
C1266 C1257 1.429 . S
C1266 N1263 1.350 . S
C1266 C1265 1.434 . S
C1267 C1268 1.369 . S
C1267 C1269 1.419 . S
C1267 H1271 0.930 . S
C1268 C1267 1.369 . S
C1268 C1277 1.429 . S
C1269 C1267 1.419 . S
C1269 C1270 1.363 . S
C1269 H1272 0.929 . S
C1270 C1269 1.363 . S
C1270 C1276 1.428 . S
H1271 C1267 0.930 . S
H1272 C1269 0.929 . S
S1273 N1274 1.613 . S
S1273 N1275 1.610 . S
N1274 S1273 1.613 . S
N1274 C1277 1.350 . S
N1275 S1273 1.610 . S
N1275 C1276 1.351 . S
C1276 C1270 1.428 . S
C1276 N1275 1.351 . S
C1276 C1277 1.434 . S
C1277 C1268 1.429 . S
C1277 N1274 1.350 . S
C1277 C1276 1.434 . S
C1278 C1279 1.369 . S
C1278 C1280 1.419 . S
C1278 H1282 0.930 . S
C1279 C1278 1.369 . S
C1279 C1288 1.429 . S
C1280 C1278 1.419 . S
C1280 C1281 1.363 . S
C1280 H1283 0.929 . S
C1281 C1280 1.363 . S
C1281 C1287 1.428 . S
H1282 C1278 0.930 . S
H1283 C1280 0.929 . S
S1284 N1285 1.613 . S
S1284 N1286 1.610 . S
N1285 S1284 1.613 . S
N1285 C1288 1.350 . S
N1286 S1284 1.610 . S
N1286 C1287 1.351 . S
C1287 C1281 1.428 . S
C1287 N1286 1.351 . S
C1287 C1288 1.434 . S
C1288 C1279 1.429 . S
C1288 N1285 1.350 . S
C1288 C1287 1.434 . S
C1289 C1290 1.369 . S
C1289 C1291 1.419 . S
C1289 H1293 0.930 . S
C1290 C1289 1.369 . S
C1290 C1299 1.429 . S
C1291 C1289 1.419 . S
C1291 C1292 1.363 . S
C1291 H1294 0.929 . S
C1292 C1291 1.363 . S
C1292 C1298 1.428 . S
H1293 C1289 0.930 . S
H1294 C1291 0.929 . S
S1295 N1296 1.613 . S
S1295 N1297 1.610 . S
N1296 S1295 1.613 . S
N1296 C1299 1.350 . S
N1297 S1295 1.610 . S
N1297 C1298 1.351 . S
C1298 C1292 1.428 . S
C1298 N1297 1.351 . S
C1298 C1299 1.434 . S
C1299 C1290 1.429 . S
C1299 N1296 1.350 . S
C1299 C1298 1.434 . S
C1300 C1301 1.369 . S
C1300 C1302 1.419 . S
C1300 H1304 0.930 . S
C1301 C1300 1.369 . S
C1301 C1310 1.429 . S
C1302 C1300 1.419 . S
C1302 C1303 1.363 . S
C1302 H1305 0.929 . S
C1303 C1302 1.363 . S
C1303 C1309 1.428 . S
H1304 C1300 0.930 . S
H1305 C1302 0.929 . S
S1306 N1307 1.613 . S
S1306 N1308 1.610 . S
N1307 S1306 1.613 . S
N1307 C1310 1.350 . S
N1308 S1306 1.610 . S
N1308 C1309 1.351 . S
C1309 C1303 1.428 . S
C1309 N1308 1.351 . S
C1309 C1310 1.434 . S
C1310 C1301 1.429 . S
C1310 N1307 1.350 . S
C1310 C1309 1.434 . S
C1311 C1312 1.369 . S
C1311 C1313 1.419 . S
C1311 H1315 0.930 . S
C1312 C1311 1.369 . S
C1312 C1321 1.429 . S
C1313 C1311 1.419 . S
C1313 C1314 1.363 . S
C1313 H1316 0.929 . S
C1314 C1313 1.363 . S
C1314 C1320 1.428 . S
H1315 C1311 0.930 . S
H1316 C1313 0.929 . S
S1317 N1318 1.613 . S
S1317 N1319 1.610 . S
N1318 S1317 1.613 . S
N1318 C1321 1.350 . S
N1319 S1317 1.610 . S
N1319 C1320 1.351 . S
C1320 C1314 1.428 . S
C1320 N1319 1.351 . S
C1320 C1321 1.434 . S
C1321 C1312 1.429 . S
C1321 N1318 1.350 . S
C1321 C1320 1.434 . S
C1322 C1323 1.369 . S
C1322 C1324 1.419 . S
C1322 H1326 0.930 . S
C1323 C1322 1.369 . S
C1323 C1332 1.429 . S
C1324 C1322 1.419 . S
C1324 C1325 1.363 . S
C1324 H1327 0.929 . S
C1325 C1324 1.363 . S
C1325 C1331 1.428 . S
H1326 C1322 0.930 . S
H1327 C1324 0.929 . S
S1328 N1329 1.613 . S
S1328 N1330 1.610 . S
N1329 S1328 1.613 . S
N1329 C1332 1.350 . S
N1330 S1328 1.610 . S
N1330 C1331 1.351 . S
C1331 C1325 1.428 . S
C1331 N1330 1.351 . S
C1331 C1332 1.434 . S
C1332 C1323 1.429 . S
C1332 N1329 1.350 . S
C1332 C1331 1.434 . S
C1333 C1334 1.369 . S
C1333 C1335 1.419 . S
C1333 H1337 0.930 . S
C1334 C1333 1.369 . S
C1334 C1343 1.429 . S
C1335 C1333 1.419 . S
C1335 C1336 1.363 . S
C1335 H1338 0.929 . S
C1336 C1335 1.363 . S
C1336 C1342 1.428 . S
H1337 C1333 0.930 . S
H1338 C1335 0.929 . S
S1339 N1340 1.613 . S
S1339 N1341 1.610 . S
N1340 S1339 1.613 . S
N1340 C1343 1.350 . S
N1341 S1339 1.610 . S
N1341 C1342 1.351 . S
C1342 C1336 1.428 . S
C1342 N1341 1.351 . S
C1342 C1343 1.434 . S
C1343 C1334 1.429 . S
C1343 N1340 1.350 . S
C1343 C1342 1.434 . S
C1344 C1345 1.369 . S
C1344 C1346 1.419 . S
C1344 H1348 0.930 . S
C1345 C1344 1.369 . S
C1345 C1354 1.429 . S
C1346 C1344 1.419 . S
C1346 C1347 1.363 . S
C1346 H1349 0.929 . S
C1347 C1346 1.363 . S
C1347 C1353 1.428 . S
H1348 C1344 0.930 . S
H1349 C1346 0.929 . S
S1350 N1351 1.613 . S
S1350 N1352 1.610 . S
N1351 S1350 1.613 . S
N1351 C1354 1.350 . S
N1352 S1350 1.610 . S
N1352 C1353 1.351 . S
C1353 C1347 1.428 . S
C1353 N1352 1.351 . S
C1353 C1354 1.434 . S
C1354 C1345 1.429 . S
C1354 N1351 1.350 . S
C1354 C1353 1.434 . S
C1355 C1356 1.369 . S
C1355 C1357 1.419 . S
C1355 H1359 0.930 . S
C1356 C1355 1.369 . S
C1356 C1365 1.429 . S
C1357 C1355 1.419 . S
C1357 C1358 1.363 . S
C1357 H1360 0.929 . S
C1358 C1357 1.363 . S
C1358 C1364 1.428 . S
H1359 C1355 0.930 . S
H1360 C1357 0.929 . S
S1361 N1362 1.613 . S
S1361 N1363 1.610 . S
N1362 S1361 1.613 . S
N1362 C1365 1.350 . S
N1363 S1361 1.610 . S
N1363 C1364 1.351 . S
C1364 C1358 1.428 . S
C1364 N1363 1.351 . S
C1364 C1365 1.434 . S
C1365 C1356 1.429 . S
C1365 N1362 1.350 . S
C1365 C1364 1.434 . S
C1366 C1367 1.369 . S
C1366 C1368 1.419 . S
C1366 H1370 0.930 . S
C1367 C1366 1.369 . S
C1367 C1376 1.429 . S
C1368 C1366 1.419 . S
C1368 C1369 1.363 . S
C1368 H1371 0.929 . S
C1369 C1368 1.363 . S
C1369 C1375 1.428 . S
H1370 C1366 0.930 . S
H1371 C1368 0.929 . S
S1372 N1373 1.613 . S
S1372 N1374 1.610 . S
N1373 S1372 1.613 . S
N1373 C1376 1.350 . S
N1374 S1372 1.610 . S
N1374 C1375 1.351 . S
C1375 C1369 1.428 . S
C1375 N1374 1.351 . S
C1375 C1376 1.434 . S
C1376 C1367 1.429 . S
C1376 N1373 1.350 . S
C1376 C1375 1.434 . S
C1377 C1378 1.369 . S
C1377 C1379 1.419 . S
C1377 H1381 0.930 . S
C1378 C1377 1.369 . S
C1378 C1387 1.429 . S
C1379 C1377 1.419 . S
C1379 C1380 1.363 . S
C1379 H1382 0.929 . S
C1380 C1379 1.363 . S
C1380 C1386 1.428 . S
H1381 C1377 0.930 . S
H1382 C1379 0.929 . S
S1383 N1384 1.613 . S
S1383 N1385 1.610 . S
N1384 S1383 1.613 . S
N1384 C1387 1.350 . S
N1385 S1383 1.610 . S
N1385 C1386 1.351 . S
C1386 C1380 1.428 . S
C1386 N1385 1.351 . S
C1386 C1387 1.434 . S
C1387 C1378 1.429 . S
C1387 N1384 1.350 . S
C1387 C1386 1.434 . S
C1388 C1389 1.369 . S
C1388 C1390 1.419 . S
C1388 H1392 0.930 . S
C1389 C1388 1.369 . S
C1389 C1398 1.429 . S
C1390 C1388 1.419 . S
C1390 C1391 1.363 . S
C1390 H1393 0.929 . S
C1391 C1390 1.363 . S
C1391 C1397 1.428 . S
H1392 C1388 0.930 . S
H1393 C1390 0.929 . S
S1394 N1395 1.613 . S
S1394 N1396 1.610 . S
N1395 S1394 1.613 . S
N1395 C1398 1.350 . S
N1396 S1394 1.610 . S
N1396 C1397 1.351 . S
C1397 C1391 1.428 . S
C1397 N1396 1.351 . S
C1397 C1398 1.434 . S
C1398 C1389 1.429 . S
C1398 N1395 1.350 . S
C1398 C1397 1.434 . S
C1399 C1400 1.369 . S
C1399 C1401 1.419 . S
C1399 H1403 0.930 . S
C1400 C1399 1.369 . S
C1400 C1409 1.429 . S
C1401 C1399 1.419 . S
C1401 C1402 1.363 . S
C1401 H1404 0.929 . S
C1402 C1401 1.363 . S
C1402 C1408 1.428 . S
H1403 C1399 0.930 . S
H1404 C1401 0.929 . S
S1405 N1406 1.613 . S
S1405 N1407 1.610 . S
N1406 S1405 1.613 . S
N1406 C1409 1.350 . S
N1407 S1405 1.610 . S
N1407 C1408 1.351 . S
C1408 C1402 1.428 . S
C1408 N1407 1.351 . S
C1408 C1409 1.434 . S
C1409 C1400 1.429 . S
C1409 N1406 1.350 . S
C1409 C1408 1.434 . S
C1410 C1411 1.369 . S
C1410 C1412 1.419 . S
C1410 H1414 0.930 . S
C1411 C1410 1.369 . S
C1411 C1420 1.429 . S
C1412 C1410 1.419 . S
C1412 C1413 1.363 . S
C1412 H1415 0.929 . S
C1413 C1412 1.363 . S
C1413 C1419 1.428 . S
H1414 C1410 0.930 . S
H1415 C1412 0.929 . S
S1416 N1417 1.613 . S
S1416 N1418 1.610 . S
N1417 S1416 1.613 . S
N1417 C1420 1.350 . S
N1418 S1416 1.610 . S
N1418 C1419 1.351 . S
C1419 C1413 1.428 . S
C1419 N1418 1.351 . S
C1419 C1420 1.434 . S
C1420 C1411 1.429 . S
C1420 N1417 1.350 . S
C1420 C1419 1.434 . S
C1421 C1422 1.369 . S
C1421 C1423 1.419 . S
C1421 H1425 0.930 . S
C1422 C1421 1.369 . S
C1422 C1431 1.429 . S
C1423 C1421 1.419 . S
C1423 C1424 1.363 . S
C1423 H1426 0.929 . S
C1424 C1423 1.363 . S
C1424 C1430 1.428 . S
H1425 C1421 0.930 . S
H1426 C1423 0.929 . S
S1427 N1428 1.613 . S
S1427 N1429 1.610 . S
N1428 S1427 1.613 . S
N1428 C1431 1.350 . S
N1429 S1427 1.610 . S
N1429 C1430 1.351 . S
C1430 C1424 1.428 . S
C1430 N1429 1.351 . S
C1430 C1431 1.434 . S
C1431 C1422 1.429 . S
C1431 N1428 1.350 . S
C1431 C1430 1.434 . S
C1432 C1433 1.369 . S
C1432 C1434 1.419 . S
C1432 H1436 0.930 . S
C1433 C1432 1.369 . S
C1433 C1442 1.429 . S
C1434 C1432 1.419 . S
C1434 C1435 1.363 . S
C1434 H1437 0.929 . S
C1435 C1434 1.363 . S
C1435 C1441 1.428 . S
H1436 C1432 0.930 . S
H1437 C1434 0.929 . S
S1438 N1439 1.613 . S
S1438 N1440 1.610 . S
N1439 S1438 1.613 . S
N1439 C1442 1.350 . S
N1440 S1438 1.610 . S
N1440 C1441 1.351 . S
C1441 C1435 1.428 . S
C1441 N1440 1.351 . S
C1441 C1442 1.434 . S
C1442 C1433 1.429 . S
C1442 N1439 1.350 . S
C1442 C1441 1.434 . S
C1443 C1444 1.369 . S
C1443 C1445 1.419 . S
C1443 H1447 0.930 . S
C1444 C1443 1.369 . S
C1444 C1453 1.429 . S
C1445 C1443 1.419 . S
C1445 C1446 1.363 . S
C1445 H1448 0.929 . S
C1446 C1445 1.363 . S
C1446 C1452 1.428 . S
H1447 C1443 0.930 . S
H1448 C1445 0.929 . S
S1449 N1450 1.613 . S
S1449 N1451 1.610 . S
N1450 S1449 1.613 . S
N1450 C1453 1.350 . S
N1451 S1449 1.610 . S
N1451 C1452 1.351 . S
C1452 C1446 1.428 . S
C1452 N1451 1.351 . S
C1452 C1453 1.434 . S
C1453 C1444 1.429 . S
C1453 N1450 1.350 . S
C1453 C1452 1.434 . S
C1454 C1455 1.369 . S
C1454 C1456 1.419 . S
C1454 H1458 0.930 . S
C1455 C1454 1.369 . S
C1455 C1464 1.429 . S
C1456 C1454 1.419 . S
C1456 C1457 1.363 . S
C1456 H1459 0.929 . S
C1457 C1456 1.363 . S
C1457 C1463 1.428 . S
H1458 C1454 0.930 . S
H1459 C1456 0.929 . S
S1460 N1461 1.613 . S
S1460 N1462 1.610 1_554 S
N1461 S1460 1.613 . S
N1461 C1464 1.350 . S
N1462 S1460 1.610 1_556 S
N1462 C1463 1.351 1_556 S
C1463 C1457 1.428 . S
C1463 N1462 1.351 1_554 S
C1463 C1464 1.434 . S
C1464 C1455 1.429 . S
C1464 N1461 1.350 . S
C1464 C1463 1.434 . S
C1465 C1466 1.369 . S
C1465 C1467 1.419 . S
C1465 H1469 0.930 . S
C1466 C1465 1.369 . S
C1466 C1475 1.429 . S
C1467 C1465 1.419 . S
C1467 C1468 1.363 . S
C1467 H1470 0.929 . S
C1468 C1467 1.363 . S
C1468 C1474 1.428 . S
H1469 C1465 0.930 . S
H1470 C1467 0.929 . S
S1471 N1472 1.613 . S
S1471 N1473 1.610 . S
N1472 S1471 1.613 . S
N1472 C1475 1.350 . S
N1473 S1471 1.610 . S
N1473 C1474 1.351 . S
C1474 C1468 1.428 . S
C1474 N1473 1.351 . S
C1474 C1475 1.434 . S
C1475 C1466 1.429 . S
C1475 N1472 1.350 . S
C1475 C1474 1.434 . S
C1215 C1153 1.953 . S
C1213 C1 1.365 . S
C1224 C169 2.034 . S
C1226 C713 2.081 . S
C1235 C283 2.008 . S
C1237 C801 2.053 . S
C1246 C397 1.890 . S
C1248 C880 1.927 . S
C1259 C977 1.817 . S
C1257 C457 1.250 . S
C1268 C571 1.268 . S
C1270 C1056 1.827 . S
C1279 C115 1.377 . S
C1281 C821 1.950 . S
C1290 C229 1.266 . S
C1292 C917 1.829 . S
C1301 C343 1.249 . S
C1303 C997 1.817 . S
C1314 C1093 1.927 . S
C1312 C511 1.888 . S
C1325 C1173 2.057 . S
C1323 C625 2.011 . S
C1336 C733 2.079 . S
C1334 C55 2.031 . S
C1345 C29 1.163 . S
C1347 C829 1.441 . S
C1356 C125 0.906 . S
C1358 C909 1.511 . S
C1369 C1005 1.445 . S
C1367 C239 0.867 . S
C1378 C353 0.900 . S
C1380 C1085 1.432 1_556 S
C1391 C1181 1.372 . S
C1389 C485 1.094 . S
C1402 C741 1.439 . S
C1400 C599 1.152 . S
C1413 C1144 1.440 . S
C1411 C143 1.172 . S
C1422 C257 1.151 . S
C1424 C704 1.439 . S
C1435 C792 1.371 . S
C1433 C371 1.076 . S
C1444 C467 0.877 . S
C1446 C889 1.434 . S
C1455 C581 0.877 . S
C1457 C968 1.444 1_554 S
C1466 C11 0.903 . S
C1468 C1065 1.510 . S
