# Generated by pormake.
# Topology dag, (6,3)-cn, num edge types: 1
# Building blocks:
#     Node 0, Type 0, BuildingBlock: OJICUG_clean_sbu_0, # of connection points: 6
#     Node 1, Type 0, BuildingBlock: OJICUG_clean_sbu_0, # of connection points: 6
#     Node 2, Type 0, BuildingBlock: OJICUG_clean_sbu_0, # of connection points: 6
#     Node 3, Type 0, BuildingBlock: OJICUG_clean_sbu_0, # of connection points: 6
#     Node 4, Type 1, BuildingBlock: KAKCAD_clean_linker_0, # of connection points: 3
#     Node 5, Type 1, BuildingBlock: KAKCAD_clean_linker_0, # of connection points: 3
#     Node 6, Type 1, BuildingBlock: KAKCAD_clean_linker_0, # of connection points: 3
#     Node 7, Type 1, BuildingBlock: KAKCAD_clean_linker_0, # of connection points: 3
#     Node 8, Type 1, BuildingBlock: KAKCAD_clean_linker_0, # of connection points: 3
#     Node 9, Type 1, BuildingBlock: KAKCAD_clean_linker_0, # of connection points: 3
#     Node 10, Type 1, BuildingBlock: KAKCAD_clean_linker_0, # of connection points: 3
#     Node 11, Type 1, BuildingBlock: KAKCAD_clean_linker_0, # of connection points: 3
#     Edge 12, Type (0, 1), BuildingBlock: EZIPEK_clean_linker_0, # of connection points: 2
#     Edge 13, Type (0, 1), BuildingBlock: EZIPEK_clean_linker_0, # of connection points: 2
#     Edge 14, Type (0, 1), BuildingBlock: EZIPEK_clean_linker_0, # of connection points: 2
#     Edge 15, Type (0, 1), BuildingBlock: EZIPEK_clean_linker_0, # of connection points: 2
#     Edge 16, Type (0, 1), BuildingBlock: EZIPEK_clean_linker_0, # of connection points: 2
#     Edge 17, Type (0, 1), BuildingBlock: EZIPEK_clean_linker_0, # of connection points: 2
#     Edge 18, Type (0, 1), BuildingBlock: EZIPEK_clean_linker_0, # of connection points: 2
#     Edge 19, Type (0, 1), BuildingBlock: EZIPEK_clean_linker_0, # of connection points: 2
#     Edge 20, Type (0, 1), BuildingBlock: EZIPEK_clean_linker_0, # of connection points: 2
#     Edge 21, Type (0, 1), BuildingBlock: EZIPEK_clean_linker_0, # of connection points: 2
#     Edge 22, Type (0, 1), BuildingBlock: EZIPEK_clean_linker_0, # of connection points: 2
#     Edge 23, Type (0, 1), BuildingBlock: EZIPEK_clean_linker_0, # of connection points: 2
#     Edge 24, Type (0, 1), BuildingBlock: EZIPEK_clean_linker_0, # of connection points: 2
#     Edge 25, Type (0, 1), BuildingBlock: EZIPEK_clean_linker_0, # of connection points: 2
#     Edge 26, Type (0, 1), BuildingBlock: EZIPEK_clean_linker_0, # of connection points: 2
#     Edge 27, Type (0, 1), BuildingBlock: EZIPEK_clean_linker_0, # of connection points: 2
#     Edge 28, Type (0, 1), BuildingBlock: EZIPEK_clean_linker_0, # of connection points: 2
#     Edge 29, Type (0, 1), BuildingBlock: EZIPEK_clean_linker_0, # of connection points: 2
#     Edge 30, Type (0, 1), BuildingBlock: EZIPEK_clean_linker_0, # of connection points: 2
#     Edge 31, Type (0, 1), BuildingBlock: EZIPEK_clean_linker_0, # of connection points: 2
#     Edge 32, Type (0, 1), BuildingBlock: EZIPEK_clean_linker_0, # of connection points: 2
#     Edge 33, Type (0, 1), BuildingBlock: EZIPEK_clean_linker_0, # of connection points: 2
#     Edge 34, Type (0, 1), BuildingBlock: EZIPEK_clean_linker_0, # of connection points: 2
#     Edge 35, Type (0, 1), BuildingBlock: EZIPEK_clean_linker_0, # of connection points: 2
# Relax obj value: 0.252
# Max RMSD: 0.199
# Mean RMSD: 0.164
data_MOF--net-dag--node1-OJICUG_clean_sbu_0--node2-KAKCAD_clean_linker_0--edge1-EZIPEK_clean_linker_0
_symmetry_space_group_name_H-M    P1
_symmetry_Int_Tables_number       1
_symmetry_cell_setting            triclinic
loop_
_symmetry_equiv_pos_as_xyz
'x, y, z'
_cell_length_a     34.543762
_cell_length_b     36.186047
_cell_length_c     35.552567
_cell_angle_alpha  95.240152
_cell_angle_beta   90.205729
_cell_angle_gamma 89.998489
loop_
_atom_site_label
_atom_site_type_symbol
_atom_site_fract_x
_atom_site_fract_y
_atom_site_fract_z
_atom_type_partial_charge
Sc0 Sc 0.12306 0.84544 0.04481 0.0
Sc1 Sc 0.15281 0.75208 0.03606 0.0
Sc2 Sc 0.21473 0.82243 0.07889 0.0
O3 O 0.16363 0.80661 0.0532 0.0
C4 C 0.2 0.8889 0.02718 0.0
C5 C 0.11659 0.7924 0.96831 0.0
C6 C 0.24181 0.76038 0.01475 0.0
C7 C 0.07066 0.77905 0.06852 0.0
C8 C 0.15547 0.87453 0.12658 0.0
C9 C 0.19454 0.74734 0.11552 0.0
O10 O 0.16429 0.8816 0.0222 0.0
O11 O 0.13152 0.76392 0.98106 0.0
O12 O 0.24821 0.78924 0.03712 0.0
O13 O 0.07722 0.81328 0.06605 0.0
O14 O 0.18738 0.85713 0.1236 0.0
O15 O 0.17245 0.73408 0.08898 0.0
O16 O 0.13003 0.87319 0.10062 0.0
O17 O 0.09495 0.75359 0.05894 0.0
O18 O 0.21221 0.77809 0.11517 0.0
O19 O 0.11146 0.82289 0.98822 0.0
O20 O 0.22216 0.87024 0.047 0.0
O21 O 0.20926 0.74406 0.01154 0.0
Sc22 Sc 0.7141 0.67993 0.45929 0.0
Sc23 Sc 0.65167 0.74429 0.50996 0.0
Sc24 Sc 0.62652 0.64963 0.49574 0.0
O25 O 0.66407 0.69139 0.48832 0.0
C26 C 0.65429 0.62589 0.41225 0.0
C27 C 0.68559 0.75492 0.42806 0.0
C28 C 0.56849 0.71592 0.48165 0.0
C29 C 0.74266 0.74058 0.52393 0.0
C30 C 0.70869 0.61165 0.50891 0.0
C31 C 0.62342 0.69672 0.57594 0.0
O32 O 0.68642 0.64297 0.41602 0.0
O33 O 0.66647 0.76638 0.45737 0.0
O34 O 0.57679 0.68171 0.48174 0.0
O35 O 0.74886 0.71503 0.49786 0.0
O36 O 0.67195 0.61306 0.51082 0.0
O37 O 0.63441 0.7273 0.56439 0.0
O38 O 0.72877 0.6349 0.49262 0.0
O39 O 0.70926 0.75337 0.53235 0.0
O40 O 0.61997 0.66687 0.5545 0.0
O41 O 0.70371 0.72423 0.42438 0.0
O42 O 0.62885 0.62717 0.43796 0.0
O43 O 0.59244 0.7419 0.49052 0.0
Sc44 Sc 0.84666 0.25388 0.0091 0.0
Sc45 Sc 0.79041 0.18319 0.96001 0.0
Sc46 Sc 0.87368 0.16002 0.00957 0.0
O47 O 0.83685 0.19907 0.99299 0.0
C48 C 0.93129 0.22464 0.98899 0.0
C49 C 0.81713 0.25544 0.92373 0.0
C50 C 0.85592 0.12825 0.92517 0.0
C51 C 0.75556 0.24738 0.01812 0.0
C52 C 0.87203 0.21569 0.08344 0.0
C53 C 0.7915 0.12082 0.01685 0.0
O54 O 0.90608 0.25035 0.99013 0.0
O55 O 0.80228 0.22331 0.92121 0.0
O56 O 0.87778 0.13211 0.95398 0.0
O57 O 0.7878 0.26185 0.02893 0.0
O58 O 0.87442 0.18324 0.06696 0.0
O59 O 0.77337 0.14106 0.99539 0.0
O60 O 0.86385 0.24416 0.06637 0.0
O61 O 0.75244 0.2206 0.99255 0.0
O62 O 0.82748 0.12401 0.024 0.0
O63 O 0.83203 0.27099 0.9539 0.0
O64 O 0.92376 0.19177 0.99675 0.0
O65 O 0.8231 0.14386 0.92341 0.0
Sc66 Sc 0.36758 0.33442 0.52874 0.0
Sc67 Sc 0.28812 0.31013 0.5827 0.0
Sc68 Sc 0.3442 0.24001 0.53315 0.0
O69 O 0.33318 0.29486 0.54801 0.0
C70 C 0.36628 0.2754 0.45675 0.0
C71 C 0.28341 0.37014 0.52296 0.0
C72 C 0.25254 0.24321 0.52787 0.0
C73 C 0.35173 0.36958 0.61266 0.0
C74 C 0.42824 0.27343 0.55147 0.0
C75 C 0.31991 0.23982 0.61976 0.0
O76 O 0.36864 0.30838 0.47212 0.0
O77 O 0.26749 0.35071 0.54663 0.0
O78 O 0.28469 0.22975 0.51565 0.0
O79 O 0.37202 0.36568 0.5829 0.0
O80 O 0.40439 0.24646 0.55022 0.0
O81 O 0.30464 0.27181 0.62234 0.0
O82 O 0.41918 0.30572 0.54302 0.0
O83 O 0.32048 0.35193 0.61668 0.0
O84 O 0.33304 0.22383 0.58915 0.0
O85 O 0.31887 0.36723 0.51359 0.0
O86 O 0.35771 0.24793 0.47496 0.0
O87 O 0.24999 0.27029 0.55318 0.0
C88 C 0.96087 0.21014 0.25095 0.0
C89 C 0.93547 0.18923 0.22648 0.0
C90 C 0.98344 0.19263 0.27692 0.0
C91 C 0.98031 0.1541 0.27932 0.0
C92 C 0.95176 0.13425 0.2575 0.0
C93 C 0.92984 0.15157 0.23112 0.0
C94 C 0.0094 0.13385 0.30081 0.0
C95 C 0.02514 0.14953 0.33519 0.0
C96 C 0.05482 0.13126 0.35348 0.0
C97 C 0.0681 0.09667 0.33741 0.0
C98 C 0.05317 0.08075 0.30294 0.0
C99 C 0.02391 0.09959 0.28493 0.0
C100 C 0.07016 0.04607 0.28405 0.0
C101 C 0.11039 0.03983 0.28511 0.0
C102 C 0.04666 0.02008 0.26274 0.0
C103 C 0.06318 0.98984 0.24136 0.0
C104 C 0.10341 0.98477 0.2413 0.0
C105 C 0.07441 0.14932 0.38766 0.0
C106 C 0.08531 0.18668 0.38921 0.0
C107 C 0.08625 0.12844 0.41696 0.0
C108 C 0.10864 0.14442 0.44697 0.0
C109 C 0.11853 0.18257 0.45 0.0
C110 C 0.10751 0.20274 0.41929 0.0
C111 C 0.1268 0.00927 0.26419 0.0
H112 H 0.96541 0.23933 0.24787 0.0
H113 H 0.00507 0.20886 0.29317 0.0
H114 H 0.94766 0.10481 0.25943 0.0
H115 H 0.91002 0.13507 0.21282 0.0
H116 H 0.01453 0.17602 0.34766 0.0
H117 H 0.01386 0.08847 0.25729 0.0
H118 H 0.09117 0.08266 0.35115 0.0
H119 H 0.12952 0.05941 0.30071 0.0
H120 H 0.01554 0.02355 0.26187 0.0
H121 H 0.04471 0.97103 0.22396 0.0
H122 H 0.07836 0.20316 0.36613 0.0
H123 H 0.07915 0.09922 0.41621 0.0
H124 H 0.15794 0.00572 0.26438 0.0
H125 H 0.11734 0.23076 0.41697 0.0
H126 H 0.11908 0.12549 0.46626 0.0
C127 C 0.3804 0.50563 0.74615 0.0
C128 C 0.40602 0.47867 0.73012 0.0
C129 C 0.39422 0.5353 0.77034 0.0
C130 C 0.43397 0.5385 0.77894 0.0
C131 C 0.45925 0.51035 0.76419 0.0
C132 C 0.44537 0.48066 0.73992 0.0
C133 C 0.44918 0.57308 0.79963 0.0
C134 C 0.42831 0.59125 0.82963 0.0
C135 C 0.43826 0.62739 0.84447 0.0
C136 C 0.47098 0.64455 0.83025 0.0
C137 C 0.49283 0.62639 0.80084 0.0
C138 C 0.48177 0.5906 0.78593 0.0
C139 C 0.52301 0.64642 0.78102 0.0
C140 C 0.51549 0.68228 0.77047 0.0
C141 C 0.55619 0.62752 0.76673 0.0
C142 C 0.57855 0.64214 0.73899 0.0
C143 C 0.56818 0.67595 0.72544 0.0
C144 C 0.41209 0.64846 0.87178 0.0
C145 C 0.37168 0.64488 0.86753 0.0
C146 C 0.42686 0.67315 0.90128 0.0
C147 C 0.40172 0.69364 0.92595 0.0
C148 C 0.36155 0.68943 0.92165 0.0
C149 C 0.34672 0.66498 0.89236 0.0
C150 C 0.53801 0.69698 0.74287 0.0
H151 H 0.34997 0.50452 0.73866 0.0
H152 H 0.37402 0.55673 0.78066 0.0
H153 H 0.48994 0.51188 0.77053 0.0
H154 H 0.46548 0.46 0.7277 0.0
H155 H 0.40338 0.57762 0.84057 0.0
H156 H 0.49669 0.5776 0.76142 0.0
H157 H 0.47832 0.67276 0.84066 0.0
H158 H 0.49009 0.69751 0.78073 0.0
H159 H 0.56305 0.60012 0.77483 0.0
H160 H 0.60174 0.62557 0.72575 0.0
H161 H 0.35919 0.62699 0.84457 0.0
H162 H 0.45778 0.67644 0.90546 0.0
H163 H 0.52953 0.72303 0.73248 0.0
H164 H 0.31573 0.66169 0.88857 0.0
H165 H 0.41351 0.71248 0.94854 0.0
C166 C 0.88409 0.76579 0.12153 0.0
C167 C 0.91552 0.78834 0.11362 0.0
C168 C 0.84778 0.78175 0.12967 0.0
C169 C 0.84268 0.82043 0.13024 0.0
C170 C 0.8746 0.84268 0.12269 0.0
C171 C 0.91051 0.82676 0.1143 0.0
C172 C 0.80487 0.83824 0.13999 0.0
C173 C 0.78296 0.82741 0.17019 0.0
C174 C 0.74958 0.8473 0.18266 0.0
C175 C 0.73864 0.87877 0.16456 0.0
C176 C 0.76102 0.89036 0.13498 0.0
C177 C 0.7929 0.86905 0.12187 0.0
C178 C 0.75499 0.92707 0.12076 0.0
C179 C 0.71848 0.93854 0.10868 0.0
C180 C 0.78702 0.95068 0.11848 0.0
C181 C 0.78321 0.98419 0.1027 0.0
C182 C 0.7473 0.99492 0.08904 0.0
C183 C 0.72926 0.83723 0.21711 0.0
C184 C 0.72728 0.79988 0.22502 0.0
C185 C 0.71505 0.86484 0.24408 0.0
C186 C 0.70125 0.8554 0.27887 0.0
C187 C 0.70264 0.81843 0.28766 0.0
C188 C 0.71466 0.79066 0.26011 0.0
C189 C 0.71464 0.97242 0.09275 0.0
H190 H 0.88771 0.73604 0.12134 0.0
H191 H 0.82373 0.76391 0.13538 0.0
H192 H 0.87209 0.8726 0.12396 0.0
H193 H 0.93466 0.84455 0.10867 0.0
H194 H 0.79346 0.8049 0.18554 0.0
H195 H 0.80958 0.87766 0.09841 0.0
H196 H 0.7139 0.89523 0.17446 0.0
H197 H 0.69337 0.92086 0.1104 0.0
H198 H 0.8153 0.94291 0.12844 0.0
H199 H 0.80858 0.00143 0.10027 0.0
H200 H 0.73675 0.77776 0.20455 0.0
H201 H 0.71632 0.89391 0.23928 0.0
H202 H 0.68669 0.98057 0.08236 0.0
H203 H 0.71524 0.76185 0.26615 0.0
H204 H 0.69151 0.87711 0.29968 0.0
C205 C 0.6022 0.27793 0.63539 0.0
C206 C 0.58792 0.27899 0.5985 0.0
C207 C 0.6398 0.2901 0.64446 0.0
C208 C 0.66409 0.30274 0.61656 0.0
C209 C 0.65065 0.30044 0.57896 0.0
C210 C 0.61282 0.28906 0.57011 0.0
C211 C 0.7014 0.32182 0.62707 0.0
C212 C 0.72444 0.31096 0.65677 0.0
C213 C 0.75711 0.33184 0.66943 0.0
C214 C 0.76781 0.36287 0.65075 0.0
C215 C 0.74513 0.37435 0.62105 0.0
C216 C 0.71192 0.35369 0.60973 0.0
C217 C 0.75323 0.40983 0.60421 0.0
C218 C 0.76705 0.4412 0.62671 0.0
C219 C 0.74342 0.4137 0.5663 0.0
C220 C 0.74366 0.44852 0.55241 0.0
C221 C 0.7548 0.48007 0.57575 0.0
C222 C 0.77688 0.32379 0.70495 0.0
C223 C 0.78535 0.3529 0.73282 0.0
C224 C 0.78334 0.28698 0.71312 0.0
C225 C 0.79555 0.27938 0.74912 0.0
C226 C 0.80157 0.30843 0.7774 0.0
C227 C 0.79761 0.34525 0.76878 0.0
C228 C 0.76839 0.47591 0.61237 0.0
H229 H 0.58337 0.27008 0.65763 0.0
H230 H 0.64883 0.29167 0.67374 0.0
H231 H 0.66884 0.30892 0.55654 0.0
H232 H 0.60242 0.28968 0.54139 0.0
H233 H 0.71592 0.28719 0.67123 0.0
H234 H 0.69271 0.36379 0.58884 0.0
H235 H 0.79336 0.37853 0.66003 0.0
H236 H 0.77472 0.43956 0.65605 0.0
H237 H 0.73397 0.39005 0.54767 0.0
H238 H 0.73372 0.45105 0.52382 0.0
H239 H 0.78025 0.38152 0.72762 0.0
H240 H 0.77754 0.26403 0.69213 0.0
H241 H 0.77757 0.49994 0.63063 0.0
H242 H 0.80199 0.36794 0.79044 0.0
H243 H 0.79853 0.25079 0.75544 0.0
C244 C 0.59929 0.50842 0.26211 0.0
C245 C 0.60504 0.51234 0.30135 0.0
C246 C 0.58416 0.47527 0.24452 0.0
C247 C 0.5747 0.44576 0.26603 0.0
C248 C 0.58098 0.44997 0.30529 0.0
C249 C 0.59591 0.48293 0.32273 0.0
C250 C 0.55921 0.41014 0.24806 0.0
C251 C 0.57563 0.39322 0.21485 0.0
C252 C 0.56393 0.35751 0.20016 0.0
C253 C 0.53546 0.33866 0.21936 0.0
C254 C 0.51893 0.35526 0.25281 0.0
C255 C 0.53019 0.39138 0.26614 0.0
C256 C 0.4923 0.33446 0.27597 0.0
C257 C 0.46169 0.31277 0.25964 0.0
C258 C 0.49724 0.33708 0.3154 0.0
C259 C 0.47141 0.31987 0.33813 0.0
C260 C 0.44019 0.29934 0.32207 0.0
C261 C 0.5838 0.33913 0.16646 0.0
C262 C 0.59399 0.35937 0.13621 0.0
C263 C 0.59581 0.30214 0.16579 0.0
C264 C 0.61697 0.28564 0.13533 0.0
C265 C 0.62563 0.3049 0.1034 0.0
C266 C 0.61531 0.34294 0.10583 0.0
C267 C 0.43576 0.29522 0.28261 0.0
H268 H 0.60641 0.53094 0.24527 0.0
H269 H 0.57958 0.47283 0.21424 0.0
H270 H 0.57492 0.42752 0.32257 0.0
H271 H 0.60053 0.48548 0.35302 0.0
H272 H 0.59909 0.40703 0.2016 0.0
H273 H 0.51687 0.4047 0.29141 0.0
H274 H 0.52704 0.31073 0.20894 0.0
H275 H 0.45725 0.31017 0.22935 0.0
H276 H 0.52109 0.35269 0.32883 0.0
H277 H 0.47555 0.32293 0.36849 0.0
H278 H 0.58618 0.38838 0.13632 0.0
H279 H 0.59036 0.28628 0.18963 0.0
H280 H 0.41195 0.27912 0.26978 0.0
H281 H 0.62459 0.36139 0.0856 0.0
H282 H 0.62775 0.25805 0.13826 0.0
C283 C 0.10827 0.23005 0.91568 0.0
C284 C 0.09291 0.22639 0.95156 0.0
C285 C 0.14631 0.21923 0.90746 0.0
C286 C 0.17005 0.20525 0.93525 0.0
C287 C 0.15549 0.20509 0.9722 0.0
C288 C 0.11713 0.21525 0.98018 0.0
C289 C 0.20723 0.18627 0.92419 0.0
C290 C 0.22914 0.19757 0.89408 0.0
C291 C 0.25783 0.1744 0.87654 0.0
C292 C 0.26712 0.14108 0.89199 0.0
C293 C 0.24749 0.13068 0.92383 0.0
C294 C 0.21751 0.1532 0.93956 0.0
C295 C 0.25402 0.09393 0.93782 0.0
C296 C 0.25067 0.06152 0.91304 0.0
C297 C 0.25838 0.09089 0.97671 0.0
C298 C 0.25675 0.05619 0.99085 0.0
C299 C 0.25015 0.02415 0.96634 0.0
C300 C 0.27415 0.18272 0.83953 0.0
C301 C 0.25039 0.19883 0.81322 0.0
C302 C 0.3123 0.17265 0.82903 0.0
C303 C 0.32597 0.17803 0.79289 0.0
C304 C 0.30196 0.19425 0.76707 0.0
C305 C 0.26428 0.20483 0.77763 0.0
C306 C 0.24853 0.02682 0.92726 0.0
H307 H 0.08993 0.23871 0.8933 0.0
H308 H 0.15597 0.21944 0.87856 0.0
H309 H 0.17312 0.19543 0.99456 0.0
H310 H 0.10578 0.21263 0.00818 0.0
H311 H 0.22241 0.22372 0.88298 0.0
H312 H 0.20025 0.1432 0.96191 0.0
H313 H 0.28832 0.1223 0.8784 0.0
H314 H 0.24692 0.06321 0.88298 0.0
H315 H 0.2611 0.11552 0.99628 0.0
H316 H 0.25791 0.05456 0.02111 0.0
H317 H 0.22051 0.20586 0.81953 0.0
H318 H 0.33151 0.16042 0.84858 0.0
H319 H 0.24316 0.00236 0.90802 0.0
H320 H 0.24523 0.21704 0.75787 0.0
H321 H 0.35512 0.16952 0.78503 0.0
C322 C 0.37924 0.72644 0.43656 0.0
C323 C 0.41116 0.70356 0.44211 0.0
C324 C 0.34331 0.7106 0.42619 0.0
C325 C 0.33901 0.67177 0.42143 0.0
C326 C 0.37124 0.6492 0.42725 0.0
C327 C 0.40689 0.66497 0.43754 0.0
C328 C 0.30184 0.65422 0.40867 0.0
C329 C 0.28121 0.667 0.37842 0.0
C330 C 0.2496 0.64676 0.36219 0.0
C331 C 0.23822 0.6137 0.377 0.0
C332 C 0.25855 0.60086 0.40742 0.0
C333 C 0.28957 0.62171 0.42361 0.0
C334 C 0.25097 0.56376 0.41999 0.0
C335 C 0.21395 0.55342 0.43156 0.0
C336 C 0.28206 0.53908 0.42239 0.0
C337 C 0.27685 0.50557 0.4379 0.0
C338 C 0.24049 0.49606 0.45131 0.0
C339 C 0.23231 0.65793 0.32682 0.0
C340 C 0.22364 0.69539 0.32323 0.0
C341 C 0.22882 0.63196 0.29504 0.0
C342 C 0.21902 0.64364 0.25986 0.0
C343 C 0.21234 0.68133 0.25615 0.0
C344 C 0.21364 0.70699 0.28812 0.0
C345 C 0.20874 0.51965 0.44735 0.0
H346 H 0.38228 0.75635 0.43991 0.0
H347 H 0.31897 0.72863 0.4219 0.0
H348 H 0.3692 0.61924 0.42294 0.0
H349 H 0.4314 0.64701 0.44146 0.0
H350 H 0.29153 0.69122 0.36564 0.0
H351 H 0.30525 0.61168 0.44713 0.0
H352 H 0.21481 0.59721 0.36385 0.0
H353 H 0.1896 0.57206 0.42985 0.0
H354 H 0.31073 0.54618 0.41305 0.0
H355 H 0.30156 0.48753 0.44063 0.0
H356 H 0.22597 0.71588 0.34733 0.0
H357 H 0.23582 0.60301 0.29692 0.0
H358 H 0.18047 0.51253 0.45763 0.0
H359 H 0.20852 0.7362 0.28555 0.0
H360 H 0.21821 0.62361 0.23529 0.0
C361 C 0.06992 0.84968 0.81057 0.0
C362 C 0.05752 0.81538 0.82146 0.0
C363 C 0.05012 0.86642 0.78234 0.0
C364 C 0.01724 0.84933 0.76492 0.0
C365 C 0.00726 0.8133 0.77347 0.0
C366 C 0.02747 0.79634 0.80137 0.0
C367 C 0.99046 0.87099 0.74247 0.0
C368 C 0.96974 0.85388 0.71152 0.0
C369 C 0.94033 0.87313 0.69397 0.0
C370 C 0.93297 0.91037 0.7068 0.0
C371 C 0.95246 0.92755 0.73835 0.0
C372 C 0.98157 0.90786 0.75556 0.0
C373 C 0.93839 0.96344 0.75707 0.0
C374 C 0.96445 0.98975 0.77429 0.0
C375 C 0.89837 0.96947 0.76187 0.0
C376 C 0.88484 -0.00026 0.78525 0.0
C377 C 0.91102 0.02449 0.80422 0.0
C378 C 0.91419 0.85326 0.66554 0.0
C379 C 0.92825 0.8253 0.63892 0.0
C380 C 0.87418 0.86086 0.66636 0.0
C381 C 0.84897 0.84116 0.64129 0.0
C382 C 0.86304 0.81304 0.61531 0.0
C383 C 0.90279 0.80515 0.61416 0.0
C384 C 0.95084 0.02007 0.79775 0.0
H385 H 0.09326 0.86463 0.82566 0.0
H386 H 0.0591 0.89378 0.77578 0.0
H387 H 0.98202 0.79935 0.76087 0.0
H388 H 0.01757 0.76981 0.80952 0.0
H389 H 0.9752 0.82498 0.70239 0.0
H390 H 0.99516 0.92027 0.78118 0.0
H391 H 0.91077 0.92566 0.69322 0.0
H392 H 0.99539 0.98604 0.77086 0.0
H393 H 0.87748 0.94953 0.74956 0.0
H394 H 0.85402 0.00268 0.79027 0.0
H395 H 0.95885 0.81891 0.63729 0.0
H396 H 0.86201 0.88137 0.68707 0.0
H397 H 0.97138 0.03895 0.81239 0.0
H398 H 0.91399 0.78342 0.59416 0.0
H399 H 0.81827 0.8473 0.64267 0.0
C400 C 0.12797 0.89003 0.19137 0.0
C401 C 0.14897 0.90095 0.16008 0.0
C402 C 0.14207 0.96624 0.18306 0.0
C403 C 0.12119 0.95566 0.2147 0.0
N404 N 0.10112 0.9079 0.25349 0.0
N405 N 0.18676 0.94741 0.13265 0.0
C406 C 0.11625 0.91756 0.22029 0.0
C407 C 0.15957 0.93845 0.15811 0.0
N408 N 0.11891 0.85347 0.193 0.0
N409 N 0.14328 0.0026 0.17545 0.0
H410 H 0.20061 0.92744 0.11438 0.0
H411 H 0.19833 0.97395 0.13225 0.0
H412 H 0.13002 0.02399 0.19235 0.0
H413 H 0.15438 0.01115 0.15046 0.0
H414 H 0.10003 0.84389 0.21269 0.0
H415 H 0.12954 0.83263 0.17353 0.0
H416 H 0.09975 0.88074 0.2608 0.0
H417 H 0.0926 0.92751 0.27523 0.0
C418 C 0.63403 0.70331 0.6466 0.0
C419 C 0.609 0.69602 0.61501 0.0
C420 C 0.55818 0.67521 0.65593 0.0
C421 C 0.58218 0.68454 0.68787 0.0
N422 N 0.64032 0.71244 0.71498 0.0
N423 N 0.54448 0.68348 0.59064 0.0
C424 C 0.61936 0.70023 0.68363 0.0
C425 C 0.57021 0.68462 0.62006 0.0
N426 N 0.67213 0.71136 0.64109 0.0
N427 N 0.52464 0.65568 0.65947 0.0
H428 H 0.55208 0.68978 0.56363 0.0
H429 H 0.51481 0.67972 0.59381 0.0
H430 H 0.51444 0.64787 0.68514 0.0
H431 H 0.5086 0.64421 0.63643 0.0
H432 H 0.69285 0.71293 0.66252 0.0
H433 H 0.68369 0.71399 0.61443 0.0
H434 H 0.66598 0.72741 0.714 0.0
H435 H 0.63043 0.70998 0.74235 0.0
C436 C 0.76367 0.09465 0.07354 0.0
C437 C 0.77014 0.09138 0.03399 0.0
C438 C 0.7504 0.02619 0.02929 0.0
C439 C 0.74578 0.02901 0.06907 0.0
N440 N 0.73748 0.0667 0.12765 0.0
N441 N 0.76066 0.05772 0.97283 0.0
C442 C 0.74872 0.06373 0.09068 0.0
C443 C 0.7601 0.05842 0.01135 0.0
N444 N 0.77322 0.12684 0.09473 0.0
N445 N 0.74821 0.99222 0.00908 0.0
H446 H 0.76913 0.08032 0.95862 0.0
H447 H 0.74993 0.03577 0.95483 0.0
H448 H 0.73994 0.9682 0.02105 0.0
H449 H 0.75643 0.98734 0.98093 0.0
H450 H 0.77341 0.12975 0.12412 0.0
H451 H 0.78279 0.15048 0.0828 0.0
H452 H 0.73594 0.09173 0.1445 0.0
H453 H 0.72633 0.04419 0.14052 0.0
C454 C 0.49463 0.24354 0.55041 0.0
C455 C 0.46749 0.26922 0.56759 0.0
C456 C 0.51888 0.30008 0.60616 0.0
C457 C 0.54596 0.27366 0.59017 0.0
N458 N 0.55818 0.21533 0.55385 0.0
N459 N 0.45167 0.3137 0.62003 0.0
C460 C 0.53333 0.24373 0.56444 0.0
C461 C 0.479 0.29476 0.59822 0.0
N462 N 0.48412 0.22033 0.51963 0.0
N463 N 0.53123 0.33156 0.62696 0.0
H464 H 0.42202 0.30985 0.61553 0.0
H465 H 0.45832 0.33003 0.64489 0.0
H466 H 0.5603 0.33768 0.63239 0.0
H467 H 0.51279 0.35346 0.63567 0.0
H468 H 0.5038 0.20422 0.50318 0.0
H469 H 0.45599 0.21895 0.50899 0.0
H470 H 0.54968 0.19105 0.53799 0.0
H471 H 0.58657 0.21461 0.56392 0.0
C472 C 0.67089 0.57144 0.36566 0.0
C473 C 0.64613 0.6018 0.37707 0.0
C474 C 0.5966 0.57708 0.33199 0.0
C475 C 0.62125 0.54673 0.32109 0.0
N476 N 0.68525 0.52059 0.31852 0.0
N477 N 0.59067 0.63893 0.36383 0.0
C478 C 0.65971 0.54603 0.33477 0.0
C479 C 0.61067 0.6064 0.35771 0.0
N480 N 0.7034 0.56494 0.38607 0.0
N481 N 0.55917 0.57693 0.3194 0.0
H482 H 0.60055 0.66092 0.38234 0.0
H483 H 0.56653 0.6454 0.34808 0.0
H484 H 0.5482 0.5564 0.29973 0.0
H485 H 0.5384 0.59592 0.33004 0.0
H486 H 0.71981 0.5408 0.38167 0.0
H487 H 0.71237 0.58204 0.40957 0.0
H488 H 0.71472 0.52084 0.32485 0.0
H489 H 0.67755 0.50153 0.2959 0.0
C490 C 0.98498 0.20624 0.94505 0.0
C491 C 0.97075 0.23131 0.97473 0.0
C492 C 0.03539 0.25925 0.98247 0.0
C493 C 0.05053 0.22971 0.95788 0.0
N494 N 0.04014 0.17172 0.9196 0.0
N495 N 0.98222 0.28216 0.02238 0.0
C496 C 0.02542 0.20244 0.93989 0.0
C497 C 0.99575 0.25838 0.99335 0.0
N498 N 0.95965 0.18644 0.92141 0.0
N499 N 0.05877 0.28835 0.99485 0.0
H500 H 0.95315 0.28386 0.02992 0.0
H501 H 0.00012 0.299 0.04026 0.0
H502 H 0.08786 0.28971 0.98732 0.0
H503 H 0.04865 0.3125 0.00979 0.0
H504 H 0.9683 0.17024 0.89716 0.0
H505 H 0.92969 0.18958 0.92374 0.0
H506 H 0.02311 0.14919 0.90945 0.0
H507 H 0.0697 0.16693 0.91594 0.0
C508 C 0.25388 0.43331 0.5295 0.0
C509 C 0.26057 0.39951 0.50698 0.0
C510 C 0.23695 0.42732 0.45096 0.0
C511 C 0.23769 0.46246 0.47196 0.0
N512 N 0.24512 0.49995 0.5311 0.0
N513 N 0.25591 0.36247 0.44741 0.0
C514 C 0.24466 0.46565 0.51146 0.0
C515 C 0.2507 0.39581 0.46807 0.0
N516 N 0.25719 0.43463 0.56794 0.0
N517 N 0.22359 0.42458 0.41459 0.0
H518 H 0.26436 0.33866 0.45973 0.0
H519 H 0.25311 0.35847 0.41819 0.0
H520 H 0.21335 0.44757 0.40185 0.0
H521 H 0.21963 0.39958 0.39813 0.0
H522 H 0.24915 0.45744 0.58619 0.0
H523 H 0.26522 0.41181 0.58207 0.0
H524 H 0.2551 0.50498 0.55875 0.0
H525 H 0.23705 0.52404 0.51907 0.0
C526 C 0.06084 0.79687 0.92488 0.0
C527 C 0.10085 0.78994 0.92943 0.0
C528 C 0.11003 0.78997 0.86107 0.0
C529 C 0.07151 0.80294 0.85775 0.0
N530 N 0.01154 0.8238 0.88768 0.0
N531 N 0.16466 0.78163 0.90267 0.0
C532 C 0.04703 0.80731 0.88987 0.0
C533 C 0.12578 0.78638 0.89767 0.0
N534 N 0.03599 0.79343 0.95421 0.0
N535 N 0.13133 0.781 0.82924 0.0
H536 H 0.17706 0.77844 0.92897 0.0
H537 H 0.18491 0.78314 0.88126 0.0
H538 H 0.12044 0.78351 0.80217 0.0
H539 H 0.15832 0.7682 0.82944 0.0
H540 H 0.00598 0.79426 0.95141 0.0
H541 H 0.04528 0.78609 0.98045 0.0
H542 H 0.99462 0.83162 0.91126 0.0
H543 H 0.00026 0.83288 0.86291 0.0
C544 C 0.87925 0.11519 0.85844 0.0
C545 C 0.86843 0.10201 0.89331 0.0
C546 C 0.88878 0.03915 0.87063 0.0
C547 C 0.89691 0.05166 0.83481 0.0
N548 N 0.8956 0.09992 0.79244 0.0
N549 N 0.85595 0.05084 0.93057 0.0
C550 C 0.89091 0.08926 0.82805 0.0
C551 C 0.87126 0.06379 0.89884 0.0
N552 N 0.87974 0.15251 0.8549 0.0
N553 N 0.89889 0.00398 0.87807 0.0
H554 H 0.84284 0.06802 0.95199 0.0
H555 H 0.85308 0.02274 0.9342 0.0
H556 H 0.91148 0.9848 0.85808 0.0
H557 H 0.89784 0.99473 0.90494 0.0
H558 H 0.89137 0.16419 0.83176 0.0
H559 H 0.87094 0.17221 0.87643 0.0
H560 H 0.88775 0.12595 0.78468 0.0
H561 H 0.90491 0.08174 0.76981 0.0
C562 C 0.35776 0.29195 0.39086 0.0
C563 C 0.37646 0.26955 0.41605 0.0
C564 C 0.42597 0.25341 0.36814 0.0
C565 C 0.41271 0.28283 0.34785 0.0
N566 N 0.36486 0.32965 0.3384 0.0
N567 N 0.42797 0.22681 0.42809 0.0
C568 C 0.37768 0.30139 0.3582 0.0
C569 C 0.40987 0.24874 0.40414 0.0
N570 N 0.32105 0.30425 0.39862 0.0
N571 N 0.45456 0.2306 0.35311 0.0
H572 H 0.41661 0.22135 0.45404 0.0
H573 H 0.45525 0.21523 0.42297 0.0
H574 H 0.46666 0.23385 0.32673 0.0
H575 H 0.46346 0.20664 0.36481 0.0
H576 H 0.30446 0.31835 0.38004 0.0
H577 H 0.30593 0.2966 0.42208 0.0
H578 H 0.34216 0.3472 0.34735 0.0
H579 H 0.37826 0.33676 0.31384 0.0
C580 C 0.24948 0.92368 0.99124 0.0
C581 C 0.21471 0.92347 0.01258 0.0
C582 C 0.202 0.98775 -0.00015 0.0
C583 C 0.23847 0.98922 0.98198 0.0
N584 N 0.29986 0.96074 0.9655 0.0
N585 N 0.16371 0.95916 0.04561 0.0
C586 C 0.26315 0.95779 0.97911 0.0
C587 C 0.19265 0.95662 0.01933 0.0
N588 N 0.26848 0.89123 0.98107 0.0
N589 N 0.17554 0.01553 0.99717 0.0
H590 H 0.15635 0.9377 0.06184 0.0
H591 H 0.14987 0.98404 0.05437 0.0
H592 H 0.1807 0.03868 0.98247 0.0
H593 H 0.14699 0.0137 0.00623 0.0
H594 H 0.29149 0.88915 0.96214 0.0
H595 H 0.25921 0.8657 0.98895 0.0
H596 H 0.32061 0.93996 0.96641 0.0
H597 H 0.31056 0.98524 0.95612 0.0
C598 C 0.50049 0.73286 0.49921 0.0
C599 C 0.52863 0.72538 0.47071 0.0
C600 C 0.47777 0.71958 0.42243 0.0
C601 C 0.44998 0.71907 0.45161 0.0
N602 N 0.43341 0.72677 0.51762 0.0
N603 N 0.54581 0.71752 0.40513 0.0
C604 C 0.4608 0.72699 0.49 0.0
C605 C 0.51773 0.72106 0.43213 0.0
N606 N 0.51188 0.74562 0.53488 0.0
N607 N 0.46565 0.71814 0.38567 0.0
H608 H 0.57503 0.72106 0.4119 0.0
H609 H 0.54062 0.71078 0.3765 0.0
H610 H 0.43641 0.71719 0.37815 0.0
H611 H 0.48393 0.72049 0.36285 0.0
H612 H 0.4927 0.75436 0.55639 0.0
H613 H 0.54085 0.75069 0.54197 0.0
H614 H 0.43994 0.72773 0.5463 0.0
H615 H 0.40391 0.72385 0.51166 0.0
C616 C 0.36813 0.43506 0.63588 0.0
C617 C 0.3645 0.39736 0.64338 0.0
C618 C 0.38494 0.41351 0.70903 0.0
C619 C 0.39209 0.45036 0.70035 0.0
N620 N 0.39684 0.49506 0.65417 0.0
N621 N 0.37432 0.34936 0.68528 0.0
C622 C 0.38548 0.46082 0.66337 0.0
C623 C 0.37409 0.38619 0.67955 0.0
N624 N 0.35352 0.44659 0.6031 0.0
N625 N 0.38766 0.40488 0.74559 0.0
H626 H 0.36641 0.32863 0.6644 0.0
H627 H 0.3852 0.33908 0.7096 0.0
H628 H 0.39614 0.4241 0.76776 0.0
H629 H 0.37873 0.37961 0.75445 0.0
H630 H 0.35138 0.4744 0.59798 0.0
H631 H 0.34009 0.42872 0.58237 0.0
H632 H 0.3968 0.50268 0.62662 0.0
H633 H 0.40955 0.51488 0.67352 0.0
C634 C 0.00382 0.75333 0.05855 0.0
C635 C 0.03259 0.76921 0.08362 0.0
C636 C 0.98387 0.78069 0.13308 0.0
C637 C 0.95463 0.77297 0.10555 0.0
N638 N 0.9356 0.75109 0.04213 0.0
N639 N 0.05109 0.79661 0.14539 0.0
C640 C 0.9642 0.75813 0.06847 0.0
C641 C 0.02301 0.78186 0.12137 0.0
N642 N 0.01429 0.73444 0.02512 0.0
N643 N 0.97385 0.78749 0.17021 0.0
H644 H 0.08024 0.79671 0.13797 0.0
H645 H 0.04537 0.81033 0.1718 0.0
H646 H 0.94515 0.78666 0.17919 0.0
H647 H 0.99388 0.79043 0.19224 0.0
H648 H 0.99482 0.71957 0.00716 0.0
H649 H 0.04304 0.73079 0.01684 0.0
H650 H 0.94088 0.74487 0.01344 0.0
H651 H 0.90626 0.7534 0.04871 0.0
C652 C 0.75506 0.55725 0.5104 0.0
C653 C 0.72821 0.58249 0.52893 0.0
C654 C 0.72168 0.54238 0.58025 0.0
C655 C 0.74913 0.51745 0.56233 0.0
N656 N 0.80008 0.50667 0.51655 0.0
N657 N 0.69821 0.60556 0.5876 0.0
C658 C 0.76857 0.52678 0.52942 0.0
C659 C 0.71566 0.57718 0.56597 0.0
N660 N 0.76604 0.56084 0.47405 0.0
N661 N 0.6993 0.53211 0.60917 0.0
H662 H 0.69476 0.63197 0.57842 0.0
H663 H 0.6914 0.60409 0.61596 0.0
H664 H 0.70103 0.50618 0.61959 0.0
H665 H 0.67621 0.54806 0.62029 0.0
H666 H 0.78154 0.54051 0.45782 0.0
H667 H 0.7576 0.58286 0.45905 0.0
H668 H 0.81761 0.51423 0.49474 0.0
H669 H 0.81092 0.48454 0.53027 0.0
C670 C 0.92672 0.22347 0.12865 0.0
C671 C 0.88625 0.22027 0.12287 0.0
C672 C 0.87787 0.20823 0.1891 0.0
C673 C 0.91866 0.20484 0.1927 0.0
N674 N 0.98211 0.20481 0.1639 0.0
N675 N 0.8226 0.20944 0.14662 0.0
C676 C 0.94327 0.21198 0.16221 0.0
C677 C 0.8615 0.21307 0.15301 0.0
N678 N 0.94943 0.23659 0.10144 0.0
N679 N 0.85502 0.20689 0.22022 0.0
H680 H 0.80987 0.21455 0.12092 0.0
H681 H 0.80334 0.19985 0.16598 0.0
H682 H 0.86643 0.20361 0.24693 0.0
H683 H 0.82539 0.21216 0.22027 0.0
H684 H 0.97861 0.24316 0.10544 0.0
H685 H 0.9381 0.24428 0.07612 0.0
H686 H 0.00049 0.20524 0.1408 0.0
H687 H 0.99573 0.1951 0.18725 0.0
C688 C 0.23613 0.71686 0.16159 0.0
C689 C 0.19867 0.72699 0.14961 0.0
C690 C 0.16987 0.70071 0.20428 0.0
C691 C 0.20751 0.69469 0.21833 0.0
N692 N 0.27685 0.69998 0.21293 0.0
N693 N 0.13012 0.73358 0.16221 0.0
C694 C 0.24079 0.7034 0.1976 0.0
C695 C 0.16548 0.71994 0.17145 0.0
N696 N 0.26712 0.7192 0.13809 0.0
N697 N 0.13837 0.68783 0.22226 0.0
H698 H 0.12554 0.74829 0.13877 0.0
H699 H 0.10589 0.73315 0.17951 0.0
H700 H 0.14061 0.67426 0.24684 0.0
H701 H 0.11043 0.68776 0.21115 0.0
H702 H 0.29429 0.70829 0.14333 0.0
H703 H 0.26497 0.72929 0.11165 0.0
H704 H 0.3019 0.71022 0.2014 0.0
H705 H 0.28163 0.68915 0.23875 0.0
C706 C 0.78454 0.74403 0.58142 0.0
C707 C 0.77618 0.75636 0.54559 0.0
C708 C 0.82978 0.80091 0.55265 0.0
C709 C 0.83543 0.79135 0.59012 0.0
N710 N 0.81862 0.75491 0.64121 0.0
N711 N 0.78999 0.79533 0.49591 0.0
C712 C 0.81306 0.76301 0.60473 0.0
C713 C 0.79886 0.78422 0.53068 0.0
N714 N 0.76592 0.71349 0.59253 0.0
N715 N 0.85411 0.82587 0.53822 0.0
H716 H 0.76913 0.78205 0.47823 0.0
H717 H 0.802 0.81835 0.48488 0.0
H718 H 0.87608 0.83969 0.55402 0.0
H719 H 0.85425 0.83155 0.51008 0.0
H720 H 0.77304 0.70071 0.61667 0.0
H721 H 0.74496 0.69893 0.57595 0.0
H722 H 0.8003 0.73799 0.65524 0.0
H723 H 0.84082 0.76659 0.65837 0.0
C724 C 0.69624 0.23655 0.05582 0.0
C725 C 0.71937 0.26121 0.03654 0.0
C726 C 0.66749 0.30728 0.0438 0.0
C727 C 0.64984 0.28662 0.07107 0.0
N728 N 0.63141 0.22325 0.07602 0.0
N729 N 0.72606 0.32041 0.01059 0.0
C730 C 0.65934 0.24845 0.06936 0.0
C731 C 0.7048 0.29677 0.03009 0.0
N732 N 0.71001 0.20242 0.06272 0.0
N733 N 0.6459 0.33175 0.02565 0.0
H734 H 0.75305 0.31346 -0.00102 0.0
H735 H 0.71777 0.34784 0.00837 0.0
H736 H 0.61598 0.33367 0.02953 0.0
H737 H 0.65623 0.34524 0.00302 0.0
H738 H 0.69559 0.18509 0.0799 0.0
H739 H 0.73732 0.19285 0.05408 0.0
H740 H 0.63557 0.19464 0.07173 0.0
H741 H 0.60277 0.2314 0.08122 0.0
C742 C 0.29636 0.1922 0.66126 0.0
C743 C 0.32271 0.22084 0.65465 0.0
C744 C 0.34176 0.2272 0.72117 0.0
C745 C 0.31471 0.19912 0.72807 0.0
N746 N 0.27565 0.14719 0.70355 0.0
N747 N 0.3794 0.25604 0.67439 0.0
C748 C 0.29524 0.17892 0.69757 0.0
C749 C 0.34846 0.23514 0.68341 0.0
N750 N 0.271 0.17919 0.63359 0.0
N751 N 0.35914 0.24788 0.75059 0.0
H752 H 0.38515 0.26154 0.64664 0.0
H753 H 0.4012 0.2646 0.69357 0.0
H754 H 0.35496 0.24307 0.77875 0.0
H755 H 0.37556 0.27148 0.74718 0.0
H756 H 0.24808 0.16145 0.63811 0.0
H757 H 0.27145 0.18805 0.60652 0.0
H758 H 0.26357 0.12953 0.68187 0.0
H759 H 0.27482 0.13669 0.72993 0.0
C760 C 0.7087 0.80756 0.39321 0.0
C761 C 0.68415 0.7765 0.39486 0.0
C762 C 0.66287 0.78233 0.33002 0.0
C763 C 0.69307 0.80816 0.326 0.0
N764 N 0.74852 0.84208 0.35304 0.0
N765 N 0.63951 0.73205 0.36413 0.0
C766 C 0.71674 0.82043 0.35752 0.0
C767 C 0.66141 0.76338 0.36313 0.0
N768 N 0.72466 0.82442 0.42553 0.0
N769 N 0.63555 0.77618 0.30227 0.0
H770 H 0.63741 0.71767 0.38813 0.0
H771 H 0.62574 0.71889 0.34045 0.0
H772 H 0.63552 0.79032 0.27796 0.0
H773 H 0.61093 0.76005 0.30511 0.0
H774 H 0.74022 0.84915 0.42632 0.0
H775 H 0.71877 0.8158 0.45211 0.0
H776 H 0.76894 0.84829 0.37431 0.0
H777 H 0.75664 0.85107 0.32721 0.0
C778 C 0.84814 0.2747 0.86507 0.0
C779 C 0.81575 0.27558 0.88954 0.0
C780 C 0.77488 0.30042 0.8415 0.0
C781 C 0.80733 0.29997 0.81704 0.0
N782 N 0.87604 0.29376 0.80724 0.0
N783 N 0.751 0.29606 0.90503 0.0
C784 C 0.84444 0.28939 0.82944 0.0
C785 C 0.77999 0.29078 0.879 0.0
N786 N 0.88181 0.25832 0.87524 0.0
N787 N 0.73881 0.30822 0.82827 0.0
H788 H 0.75377 0.28865 0.93259 0.0
H789 H 0.72563 0.31055 0.9005 0.0
H790 H 0.73374 0.31585 0.80111 0.0
H791 H 0.71342 0.30464 0.8432 0.0
H792 H 0.90496 0.25264 0.85696 0.0
H793 H 0.88587 0.24843 0.90164 0.0
H794 H 0.90441 0.28993 0.81603 0.0
H795 H 0.87405 0.30412 0.78085 0.0
C796 C 0.18908 0.25236 0.49551 0.0
C797 C 0.21568 0.22802 0.51138 0.0
C798 C 0.16631 0.17928 0.50552 0.0
C799 C 0.14452 0.20044 0.48135 0.0
N800 N 0.12183 0.26309 0.48083 0.0
N801 N 0.22889 0.16739 0.53224 0.0
C802 C 0.15178 0.23908 0.4844 0.0
C803 C 0.2042 0.19112 0.5165 0.0
N804 N 0.19994 0.28754 0.48914 0.0
N805 N 0.14829 0.15286 0.52411 0.0
H806 H 0.25656 0.17503 0.54173 0.0
H807 H 0.22258 0.13931 0.53323 0.0
H808 H 0.11819 0.15008 0.52338 0.0
H809 H 0.16191 0.13867 0.5447 0.0
H810 H 0.18275 0.30489 0.47422 0.0
H811 H 0.22748 0.29809 0.49555 0.0
H812 H 0.12451 0.29177 0.48632 0.0
H813 H 0.09342 0.25358 0.4769 0.0
C814 C 0.28651 0.76029 0.95942 0.0
C815 C 0.27426 0.74382 0.9921 0.0
C816 C 0.32385 0.6955 0.98177 0.0
C817 C 0.33429 0.71036 0.94769 0.0
N818 N 0.32623 0.75578 0.90281 0.0
N819 N 0.27739 0.69385 0.03254 0.0
C820 C 0.31601 0.7427 0.93631 0.0
C821 C 0.292 0.71099 0.00289 0.0
N822 N 0.26939 0.7924 0.95033 0.0
N823 N 0.34466 0.66669 0.994 0.0
H824 H 0.25444 0.70457 0.04906 0.0
H825 H 0.28596 0.6677 0.03932 0.0
H826 H 0.36734 0.65379 0.97863 0.0
H827 H 0.34153 0.65721 0.02058 0.0
H828 H 0.27918 0.80824 0.92932 0.0
H829 H 0.24558 0.80416 0.96487 0.0
H830 H 0.31169 0.77679 0.89051 0.0
H831 H 0.34899 0.74462 0.88623 0.0
loop_
_geom_bond_atom_site_label_1
_geom_bond_atom_site_label_2
_geom_bond_distance
_geom_bond_site_symmetry_2
_ccdc_geom_bond_type
Sc0 O3 2.025 . S
Sc0 O10 2.105 . S
Sc0 O13 2.105 . S
Sc0 O16 2.105 . S
Sc0 O19 2.105 1_554 S
Sc1 O3 2.025 . S
Sc1 O11 2.105 1_554 S
Sc1 O15 2.105 . S
Sc1 O17 2.105 . S
Sc1 O21 2.105 . S
Sc2 O3 2.025 . S
Sc2 O12 2.105 . S
Sc2 O14 2.105 . S
Sc2 O18 2.105 . S
Sc2 O20 2.105 . S
O3 Sc0 2.025 . S
O3 Sc1 2.025 . S
O3 Sc2 2.025 . S
C4 O10 1.268 . S
C4 O20 1.268 . S
C5 O11 1.268 . S
C5 O19 1.268 . S
C6 O12 1.268 . S
C6 O21 1.268 . S
C7 O13 1.268 . S
C7 O17 1.268 . S
C8 O14 1.268 . S
C8 O16 1.268 . S
C9 O15 1.268 . S
C9 O18 1.268 . S
O10 Sc0 2.105 . S
O10 C4 1.268 . S
O11 Sc1 2.105 1_556 S
O11 C5 1.268 . S
O12 Sc2 2.105 . S
O12 C6 1.268 . S
O13 Sc0 2.105 . S
O13 C7 1.268 . S
O14 Sc2 2.105 . S
O14 C8 1.268 . S
O15 Sc1 2.105 . S
O15 C9 1.268 . S
O16 Sc0 2.105 . S
O16 C8 1.268 . S
O17 Sc1 2.105 . S
O17 C7 1.268 . S
O18 Sc2 2.105 . S
O18 C9 1.268 . S
O19 Sc0 2.105 1_556 S
O19 C5 1.268 . S
O20 Sc2 2.105 . S
O20 C4 1.268 . S
O21 Sc1 2.105 . S
O21 C6 1.268 . S
Sc22 O25 2.025 . S
Sc22 O32 2.105 . S
Sc22 O35 2.105 . S
Sc22 O38 2.105 . S
Sc22 O41 2.105 . S
Sc23 O25 2.025 . S
Sc23 O33 2.105 . S
Sc23 O37 2.105 . S
Sc23 O39 2.105 . S
Sc23 O43 2.105 . S
Sc24 O25 2.025 . S
Sc24 O34 2.105 . S
Sc24 O36 2.105 . S
Sc24 O40 2.105 . S
Sc24 O42 2.105 . S
O25 Sc22 2.025 . S
O25 Sc23 2.025 . S
O25 Sc24 2.025 . S
C26 O32 1.268 . S
C26 O42 1.268 . S
C27 O33 1.268 . S
C27 O41 1.268 . S
C28 O34 1.268 . S
C28 O43 1.268 . S
C29 O35 1.268 . S
C29 O39 1.268 . S
C30 O36 1.268 . S
C30 O38 1.268 . S
C31 O37 1.268 . S
C31 O40 1.268 . S
O32 Sc22 2.105 . S
O32 C26 1.268 . S
O33 Sc23 2.105 . S
O33 C27 1.268 . S
O34 Sc24 2.105 . S
O34 C28 1.268 . S
O35 Sc22 2.105 . S
O35 C29 1.268 . S
O36 Sc24 2.105 . S
O36 C30 1.268 . S
O37 Sc23 2.105 . S
O37 C31 1.268 . S
O38 Sc22 2.105 . S
O38 C30 1.268 . S
O39 Sc23 2.105 . S
O39 C29 1.268 . S
O40 Sc24 2.105 . S
O40 C31 1.268 . S
O41 Sc22 2.105 . S
O41 C27 1.268 . S
O42 Sc24 2.105 . S
O42 C26 1.268 . S
O43 Sc23 2.105 . S
O43 C28 1.268 . S
Sc44 O47 2.026 . S
Sc44 O54 2.105 1_554 S
Sc44 O57 2.105 . S
Sc44 O60 2.105 . S
Sc44 O63 2.105 1_554 S
Sc45 O47 2.024 1_556 S
Sc45 O55 2.105 . S
Sc45 O59 2.105 1_556 S
Sc45 O61 2.105 1_556 S
Sc45 O65 2.105 . S
Sc46 O47 2.026 . S
Sc46 O56 2.105 1_554 S
Sc46 O58 2.105 . S
Sc46 O62 2.105 . S
Sc46 O64 2.105 1_554 S
O47 Sc44 2.026 . S
O47 Sc45 2.024 1_554 S
O47 Sc46 2.026 . S
C48 O54 1.268 . S
C48 O64 1.268 . S
C49 O55 1.268 . S
C49 O63 1.268 . S
C50 O56 1.268 . S
C50 O65 1.268 . S
C51 O57 1.268 . S
C51 O61 1.268 . S
C52 O58 1.268 . S
C52 O60 1.268 . S
C53 O59 1.268 . S
C53 O62 1.268 . S
O54 Sc44 2.105 1_556 S
O54 C48 1.268 . S
O55 Sc45 2.105 . S
O55 C49 1.268 . S
O56 Sc46 2.105 1_556 S
O56 C50 1.268 . S
O57 Sc44 2.105 . S
O57 C51 1.268 . S
O58 Sc46 2.105 . S
O58 C52 1.268 . S
O59 Sc45 2.105 1_554 S
O59 C53 1.268 . S
O60 Sc44 2.105 . S
O60 C52 1.268 . S
O61 Sc45 2.105 1_554 S
O61 C51 1.268 . S
O62 Sc46 2.105 . S
O62 C53 1.268 . S
O63 Sc44 2.105 1_556 S
O63 C49 1.268 . S
O64 Sc46 2.105 1_556 S
O64 C48 1.268 . S
O65 Sc45 2.105 . S
O65 C50 1.268 . S
Sc66 O69 2.025 . S
Sc66 O76 2.105 . S
Sc66 O79 2.105 . S
Sc66 O82 2.105 . S
Sc66 O85 2.105 . S
Sc67 O69 2.025 . S
Sc67 O77 2.105 . S
Sc67 O81 2.105 . S
Sc67 O83 2.105 . S
Sc67 O87 2.105 . S
Sc68 O69 2.025 . S
Sc68 O78 2.105 . S
Sc68 O80 2.105 . S
Sc68 O84 2.105 . S
Sc68 O86 2.105 . S
O69 Sc66 2.025 . S
O69 Sc67 2.025 . S
O69 Sc68 2.025 . S
C70 O76 1.268 . S
C70 O86 1.268 . S
C71 O77 1.268 . S
C71 O85 1.268 . S
C72 O78 1.268 . S
C72 O87 1.268 . S
C73 O79 1.268 . S
C73 O83 1.268 . S
C74 O80 1.268 . S
C74 O82 1.268 . S
C75 O81 1.268 . S
C75 O84 1.268 . S
O76 Sc66 2.105 . S
O76 C70 1.268 . S
O77 Sc67 2.105 . S
O77 C71 1.268 . S
O78 Sc68 2.105 . S
O78 C72 1.268 . S
O79 Sc66 2.105 . S
O79 C73 1.268 . S
O80 Sc68 2.105 . S
O80 C74 1.268 . S
O81 Sc67 2.105 . S
O81 C75 1.268 . S
O82 Sc66 2.105 . S
O82 C74 1.268 . S
O83 Sc67 2.105 . S
O83 C73 1.268 . S
O84 Sc68 2.105 . S
O84 C75 1.268 . S
O85 Sc66 2.105 . S
O85 C71 1.268 . S
O86 Sc68 2.105 . S
O86 C70 1.268 . S
O87 Sc67 2.105 . S
O87 C72 1.268 . S
C88 C89 1.386 . S
C88 C90 1.397 . S
C88 H112 0.931 . S
C89 C88 1.386 . S
C89 C93 1.397 . S
C90 C88 1.397 . S
C90 C91 1.384 . S
C90 H113 0.930 1_655 S
C91 C90 1.384 . S
C91 C92 1.377 . S
C91 C94 1.481 1_655 S
C92 C91 1.377 . S
C92 C93 1.389 . S
C92 H114 0.929 . S
C93 C89 1.397 . S
C93 C92 1.389 . S
C93 H115 0.931 . S
C94 C91 1.481 1_455 S
C94 C95 1.387 . S
C94 C99 1.390 . S
C95 C94 1.387 . S
C95 C96 1.401 . S
C95 H116 0.930 . S
C96 C95 1.401 . S
C96 C97 1.376 . S
C96 C105 1.511 . S
C97 C96 1.376 . S
C97 C98 1.392 . S
C97 H118 0.931 . S
C98 C97 1.392 . S
C98 C99 1.361 . S
C98 C100 1.500 . S
C99 C94 1.390 . S
C99 C98 1.361 . S
C99 H117 0.931 . S
C100 C98 1.500 . S
C100 C101 1.371 . S
C100 C102 1.365 . S
C101 C100 1.371 . S
C101 C111 1.386 . S
C101 H119 0.931 . S
C102 C100 1.365 . S
C102 C103 1.409 1_545 S
C102 H120 0.929 . S
C103 C102 1.409 1_565 S
C103 C104 1.380 . S
C103 H121 0.930 . S
C104 C103 1.380 . S
C104 C111 1.357 1_565 S
C105 C96 1.511 . S
C105 C106 1.341 . S
C105 C107 1.371 . S
C106 C105 1.341 . S
C106 C110 1.394 . S
C106 H122 0.930 . S
C107 C105 1.371 . S
C107 C108 1.392 . S
C107 H123 0.931 . S
C108 C107 1.392 . S
C108 C109 1.331 . S
C108 H126 0.932 . S
C109 C108 1.331 . S
C109 C110 1.336 . S
C110 C106 1.394 . S
C110 C109 1.336 . S
C110 H125 0.929 . S
C111 C101 1.386 . S
C111 C104 1.357 1_545 S
C111 H124 0.928 1_545 S
H112 C88 0.931 . S
H113 C90 0.930 1_455 S
H114 C92 0.929 . S
H115 C93 0.931 . S
H116 C95 0.930 . S
H117 C99 0.931 . S
H118 C97 0.931 . S
H119 C101 0.931 . S
H120 C102 0.929 . S
H121 C103 0.930 . S
H122 C106 0.930 . S
H123 C107 0.931 . S
H124 C111 0.928 1_565 S
H125 C110 0.929 . S
H126 C108 0.932 . S
C127 C128 1.386 . S
C127 C129 1.397 . S
C127 H151 0.931 . S
C128 C127 1.386 . S
C128 C132 1.397 . S
C129 C127 1.397 . S
C129 C130 1.384 . S
C129 H152 0.930 . S
C130 C129 1.384 . S
C130 C131 1.377 . S
C130 C133 1.481 . S
C131 C130 1.377 . S
C131 C132 1.389 . S
C131 H153 0.929 . S
C132 C128 1.397 . S
C132 C131 1.389 . S
C132 H154 0.931 . S
C133 C130 1.481 . S
C133 C134 1.387 . S
C133 C138 1.390 . S
C134 C133 1.387 . S
C134 C135 1.401 . S
C134 H155 0.930 . S
C135 C134 1.401 . S
C135 C136 1.376 . S
C135 C144 1.511 . S
C136 C135 1.376 . S
C136 C137 1.392 . S
C136 H157 0.931 . S
C137 C136 1.392 . S
C137 C138 1.361 . S
C137 C139 1.500 . S
C138 C133 1.390 . S
C138 C137 1.361 . S
C138 H156 0.931 . S
C139 C137 1.500 . S
C139 C140 1.371 . S
C139 C141 1.365 . S
C140 C139 1.371 . S
C140 C150 1.386 . S
C140 H158 0.931 . S
C141 C139 1.365 . S
C141 C142 1.409 . S
C141 H159 0.929 . S
C142 C141 1.409 . S
C142 C143 1.380 . S
C142 H160 0.930 . S
C143 C142 1.380 . S
C143 C150 1.357 . S
C144 C135 1.511 . S
C144 C145 1.341 . S
C144 C146 1.371 . S
C145 C144 1.341 . S
C145 C149 1.394 . S
C145 H161 0.930 . S
C146 C144 1.371 . S
C146 C147 1.392 . S
C146 H162 0.931 . S
C147 C146 1.392 . S
C147 C148 1.331 . S
C147 H165 0.932 . S
C148 C147 1.331 . S
C148 C149 1.336 . S
C149 C145 1.394 . S
C149 C148 1.336 . S
C149 H164 0.929 . S
C150 C140 1.386 . S
C150 C143 1.357 . S
C150 H163 0.928 . S
H151 C127 0.931 . S
H152 C129 0.930 . S
H153 C131 0.929 . S
H154 C132 0.931 . S
H155 C134 0.930 . S
H156 C138 0.931 . S
H157 C136 0.931 . S
H158 C140 0.931 . S
H159 C141 0.929 . S
H160 C142 0.930 . S
H161 C145 0.930 . S
H162 C146 0.931 . S
H163 C150 0.928 . S
H164 C149 0.929 . S
H165 C147 0.932 . S
C166 C167 1.386 . S
C166 C168 1.397 . S
C166 H190 0.931 . S
C167 C166 1.386 . S
C167 C171 1.397 . S
C168 C166 1.397 . S
C168 C169 1.384 . S
C168 H191 0.930 . S
C169 C168 1.384 . S
C169 C170 1.377 . S
C169 C172 1.481 . S
C170 C169 1.377 . S
C170 C171 1.389 . S
C170 H192 0.929 . S
C171 C167 1.397 . S
C171 C170 1.389 . S
C171 H193 0.931 . S
C172 C169 1.481 . S
C172 C173 1.387 . S
C172 C177 1.390 . S
C173 C172 1.387 . S
C173 C174 1.401 . S
C173 H194 0.930 . S
C174 C173 1.401 . S
C174 C175 1.376 . S
C174 C183 1.511 . S
C175 C174 1.376 . S
C175 C176 1.392 . S
C175 H196 0.931 . S
C176 C175 1.392 . S
C176 C177 1.361 . S
C176 C178 1.500 . S
C177 C172 1.390 . S
C177 C176 1.361 . S
C177 H195 0.931 . S
C178 C176 1.500 . S
C178 C179 1.371 . S
C178 C180 1.365 . S
C179 C178 1.371 . S
C179 C189 1.386 . S
C179 H197 0.931 . S
C180 C178 1.365 . S
C180 C181 1.409 . S
C180 H198 0.929 . S
C181 C180 1.409 . S
C181 C182 1.380 . S
C181 H199 0.930 . S
C182 C181 1.380 . S
C182 C189 1.357 . S
C183 C174 1.511 . S
C183 C184 1.341 . S
C183 C185 1.371 . S
C184 C183 1.341 . S
C184 C188 1.394 . S
C184 H200 0.930 . S
C185 C183 1.371 . S
C185 C186 1.392 . S
C185 H201 0.931 . S
C186 C185 1.392 . S
C186 C187 1.331 . S
C186 H204 0.932 . S
C187 C186 1.331 . S
C187 C188 1.336 . S
C188 C184 1.394 . S
C188 C187 1.336 . S
C188 H203 0.929 . S
C189 C179 1.386 . S
C189 C182 1.357 . S
C189 H202 0.928 . S
H190 C166 0.931 . S
H191 C168 0.930 . S
H192 C170 0.929 . S
H193 C171 0.931 . S
H194 C173 0.930 . S
H195 C177 0.931 . S
H196 C175 0.931 . S
H197 C179 0.931 . S
H198 C180 0.929 . S
H199 C181 0.930 . S
H200 C184 0.930 . S
H201 C185 0.931 . S
H202 C189 0.928 . S
H203 C188 0.929 . S
H204 C186 0.932 . S
C205 C206 1.386 . S
C205 C207 1.397 . S
C205 H229 0.931 . S
C206 C205 1.386 . S
C206 C210 1.397 . S
C207 C205 1.397 . S
C207 C208 1.384 . S
C207 H230 0.930 . S
C208 C207 1.384 . S
C208 C209 1.377 . S
C208 C211 1.481 . S
C209 C208 1.377 . S
C209 C210 1.389 . S
C209 H231 0.929 . S
C210 C206 1.397 . S
C210 C209 1.389 . S
C210 H232 0.931 . S
C211 C208 1.481 . S
C211 C212 1.387 . S
C211 C216 1.390 . S
C212 C211 1.387 . S
C212 C213 1.401 . S
C212 H233 0.930 . S
C213 C212 1.401 . S
C213 C214 1.376 . S
C213 C222 1.511 . S
C214 C213 1.376 . S
C214 C215 1.392 . S
C214 H235 0.931 . S
C215 C214 1.392 . S
C215 C216 1.361 . S
C215 C217 1.500 . S
C216 C211 1.390 . S
C216 C215 1.361 . S
C216 H234 0.931 . S
C217 C215 1.500 . S
C217 C218 1.371 . S
C217 C219 1.365 . S
C218 C217 1.371 . S
C218 C228 1.386 . S
C218 H236 0.931 . S
C219 C217 1.365 . S
C219 C220 1.409 . S
C219 H237 0.929 . S
C220 C219 1.409 . S
C220 C221 1.380 . S
C220 H238 0.930 . S
C221 C220 1.380 . S
C221 C228 1.357 . S
C222 C213 1.511 . S
C222 C223 1.341 . S
C222 C224 1.371 . S
C223 C222 1.341 . S
C223 C227 1.394 . S
C223 H239 0.930 . S
C224 C222 1.371 . S
C224 C225 1.392 . S
C224 H240 0.931 . S
C225 C224 1.392 . S
C225 C226 1.331 . S
C225 H243 0.932 . S
C226 C225 1.331 . S
C226 C227 1.336 . S
C227 C223 1.394 . S
C227 C226 1.336 . S
C227 H242 0.929 . S
C228 C218 1.386 . S
C228 C221 1.357 . S
C228 H241 0.928 . S
H229 C205 0.931 . S
H230 C207 0.930 . S
H231 C209 0.929 . S
H232 C210 0.931 . S
H233 C212 0.930 . S
H234 C216 0.931 . S
H235 C214 0.931 . S
H236 C218 0.931 . S
H237 C219 0.929 . S
H238 C220 0.930 . S
H239 C223 0.930 . S
H240 C224 0.931 . S
H241 C228 0.928 . S
H242 C227 0.929 . S
H243 C225 0.932 . S
C244 C245 1.386 . S
C244 C246 1.397 . S
C244 H268 0.931 . S
C245 C244 1.386 . S
C245 C249 1.397 . S
C246 C244 1.397 . S
C246 C247 1.384 . S
C246 H269 0.930 . S
C247 C246 1.384 . S
C247 C248 1.377 . S
C247 C250 1.481 . S
C248 C247 1.377 . S
C248 C249 1.389 . S
C248 H270 0.929 . S
C249 C245 1.397 . S
C249 C248 1.389 . S
C249 H271 0.931 . S
C250 C247 1.481 . S
C250 C251 1.387 . S
C250 C255 1.390 . S
C251 C250 1.387 . S
C251 C252 1.401 . S
C251 H272 0.930 . S
C252 C251 1.401 . S
C252 C253 1.376 . S
C252 C261 1.511 . S
C253 C252 1.376 . S
C253 C254 1.392 . S
C253 H274 0.931 . S
C254 C253 1.392 . S
C254 C255 1.361 . S
C254 C256 1.500 . S
C255 C250 1.390 . S
C255 C254 1.361 . S
C255 H273 0.931 . S
C256 C254 1.500 . S
C256 C257 1.371 . S
C256 C258 1.365 . S
C257 C256 1.371 . S
C257 C267 1.386 . S
C257 H275 0.931 . S
C258 C256 1.365 . S
C258 C259 1.409 . S
C258 H276 0.929 . S
C259 C258 1.409 . S
C259 C260 1.380 . S
C259 H277 0.930 . S
C260 C259 1.380 . S
C260 C267 1.357 . S
C261 C252 1.511 . S
C261 C262 1.341 . S
C261 C263 1.371 . S
C262 C261 1.341 . S
C262 C266 1.394 . S
C262 H278 0.930 . S
C263 C261 1.371 . S
C263 C264 1.392 . S
C263 H279 0.931 . S
C264 C263 1.392 . S
C264 C265 1.331 . S
C264 H282 0.932 . S
C265 C264 1.331 . S
C265 C266 1.336 . S
C266 C262 1.394 . S
C266 C265 1.336 . S
C266 H281 0.929 . S
C267 C257 1.386 . S
C267 C260 1.357 . S
C267 H280 0.928 . S
H268 C244 0.931 . S
H269 C246 0.930 . S
H270 C248 0.929 . S
H271 C249 0.931 . S
H272 C251 0.930 . S
H273 C255 0.931 . S
H274 C253 0.931 . S
H275 C257 0.931 . S
H276 C258 0.929 . S
H277 C259 0.930 . S
H278 C262 0.930 . S
H279 C263 0.931 . S
H280 C267 0.928 . S
H281 C266 0.929 . S
H282 C264 0.932 . S
C283 C284 1.386 . S
C283 C285 1.397 . S
C283 H307 0.931 . S
C284 C283 1.386 . S
C284 C288 1.397 . S
C285 C283 1.397 . S
C285 C286 1.384 . S
C285 H308 0.930 . S
C286 C285 1.384 . S
C286 C287 1.377 . S
C286 C289 1.481 . S
C287 C286 1.377 . S
C287 C288 1.389 . S
C287 H309 0.929 . S
C288 C284 1.397 . S
C288 C287 1.389 . S
C288 H310 0.931 . S
C289 C286 1.481 . S
C289 C290 1.387 . S
C289 C294 1.390 . S
C290 C289 1.387 . S
C290 C291 1.401 . S
C290 H311 0.930 . S
C291 C290 1.401 . S
C291 C292 1.376 . S
C291 C300 1.511 . S
C292 C291 1.376 . S
C292 C293 1.392 . S
C292 H313 0.931 . S
C293 C292 1.392 . S
C293 C294 1.361 . S
C293 C295 1.500 . S
C294 C289 1.390 . S
C294 C293 1.361 . S
C294 H312 0.931 . S
C295 C293 1.500 . S
C295 C296 1.371 . S
C295 C297 1.365 . S
C296 C295 1.371 . S
C296 C306 1.386 . S
C296 H314 0.931 . S
C297 C295 1.365 . S
C297 C298 1.409 . S
C297 H315 0.929 . S
C298 C297 1.409 . S
C298 C299 1.380 . S
C298 H316 0.930 . S
C299 C298 1.380 . S
C299 C306 1.357 . S
C300 C291 1.511 . S
C300 C301 1.341 . S
C300 C302 1.371 . S
C301 C300 1.341 . S
C301 C305 1.394 . S
C301 H317 0.930 . S
C302 C300 1.371 . S
C302 C303 1.392 . S
C302 H318 0.931 . S
C303 C302 1.392 . S
C303 C304 1.331 . S
C303 H321 0.932 . S
C304 C303 1.331 . S
C304 C305 1.336 . S
C305 C301 1.394 . S
C305 C304 1.336 . S
C305 H320 0.929 . S
C306 C296 1.386 . S
C306 C299 1.357 . S
C306 H319 0.928 . S
H307 C283 0.931 . S
H308 C285 0.930 . S
H309 C287 0.929 . S
H310 C288 0.931 . S
H311 C290 0.930 . S
H312 C294 0.931 . S
H313 C292 0.931 . S
H314 C296 0.931 . S
H315 C297 0.929 . S
H316 C298 0.930 . S
H317 C301 0.930 . S
H318 C302 0.931 . S
H319 C306 0.928 . S
H320 C305 0.929 . S
H321 C303 0.932 . S
C322 C323 1.386 . S
C322 C324 1.397 . S
C322 H346 0.931 . S
C323 C322 1.386 . S
C323 C327 1.397 . S
C324 C322 1.397 . S
C324 C325 1.384 . S
C324 H347 0.930 . S
C325 C324 1.384 . S
C325 C326 1.377 . S
C325 C328 1.481 . S
C326 C325 1.377 . S
C326 C327 1.389 . S
C326 H348 0.929 . S
C327 C323 1.397 . S
C327 C326 1.389 . S
C327 H349 0.931 . S
C328 C325 1.481 . S
C328 C329 1.387 . S
C328 C333 1.390 . S
C329 C328 1.387 . S
C329 C330 1.401 . S
C329 H350 0.930 . S
C330 C329 1.401 . S
C330 C331 1.376 . S
C330 C339 1.511 . S
C331 C330 1.376 . S
C331 C332 1.392 . S
C331 H352 0.931 . S
C332 C331 1.392 . S
C332 C333 1.361 . S
C332 C334 1.500 . S
C333 C328 1.390 . S
C333 C332 1.361 . S
C333 H351 0.931 . S
C334 C332 1.500 . S
C334 C335 1.371 . S
C334 C336 1.365 . S
C335 C334 1.371 . S
C335 C345 1.386 . S
C335 H353 0.931 . S
C336 C334 1.365 . S
C336 C337 1.409 . S
C336 H354 0.929 . S
C337 C336 1.409 . S
C337 C338 1.380 . S
C337 H355 0.930 . S
C338 C337 1.380 . S
C338 C345 1.357 . S
C339 C330 1.511 . S
C339 C340 1.341 . S
C339 C341 1.371 . S
C340 C339 1.341 . S
C340 C344 1.394 . S
C340 H356 0.930 . S
C341 C339 1.371 . S
C341 C342 1.392 . S
C341 H357 0.931 . S
C342 C341 1.392 . S
C342 C343 1.331 . S
C342 H360 0.932 . S
C343 C342 1.331 . S
C343 C344 1.336 . S
C344 C340 1.394 . S
C344 C343 1.336 . S
C344 H359 0.929 . S
C345 C335 1.386 . S
C345 C338 1.357 . S
C345 H358 0.928 . S
H346 C322 0.931 . S
H347 C324 0.930 . S
H348 C326 0.929 . S
H349 C327 0.931 . S
H350 C329 0.930 . S
H351 C333 0.931 . S
H352 C331 0.931 . S
H353 C335 0.931 . S
H354 C336 0.929 . S
H355 C337 0.930 . S
H356 C340 0.930 . S
H357 C341 0.931 . S
H358 C345 0.928 . S
H359 C344 0.929 . S
H360 C342 0.932 . S
C361 C362 1.386 . S
C361 C363 1.397 . S
C361 H385 0.931 . S
C362 C361 1.386 . S
C362 C366 1.397 . S
C363 C361 1.397 . S
C363 C364 1.384 . S
C363 H386 0.930 . S
C364 C363 1.384 . S
C364 C365 1.377 . S
C364 C367 1.481 1_455 S
C365 C364 1.377 . S
C365 C366 1.389 . S
C365 H387 0.929 1_455 S
C366 C362 1.397 . S
C366 C365 1.389 . S
C366 H388 0.931 . S
C367 C364 1.481 1_655 S
C367 C368 1.387 . S
C367 C372 1.390 . S
C368 C367 1.387 . S
C368 C369 1.401 . S
C368 H389 0.930 . S
C369 C368 1.401 . S
C369 C370 1.376 . S
C369 C378 1.511 . S
C370 C369 1.376 . S
C370 C371 1.392 . S
C370 H391 0.931 . S
C371 C370 1.392 . S
C371 C372 1.361 . S
C371 C373 1.500 . S
C372 C367 1.390 . S
C372 C371 1.361 . S
C372 H390 0.931 . S
C373 C371 1.500 . S
C373 C374 1.371 . S
C373 C375 1.365 . S
C374 C373 1.371 . S
C374 C384 1.386 1_565 S
C374 H392 0.931 . S
C375 C373 1.365 . S
C375 C376 1.410 . S
C375 H393 0.929 . S
C376 C375 1.410 . S
C376 C377 1.380 1_565 S
C376 H394 0.929 1_565 S
C377 C376 1.380 1_545 S
C377 C384 1.357 . S
C378 C369 1.511 . S
C378 C379 1.341 . S
C378 C380 1.371 . S
C379 C378 1.341 . S
C379 C383 1.394 . S
C379 H395 0.930 . S
C380 C378 1.371 . S
C380 C381 1.392 . S
C380 H396 0.931 . S
C381 C380 1.392 . S
C381 C382 1.331 . S
C381 H399 0.932 . S
C382 C381 1.331 . S
C382 C383 1.336 . S
C383 C379 1.394 . S
C383 C382 1.336 . S
C383 H398 0.929 . S
C384 C374 1.386 1_545 S
C384 C377 1.357 . S
C384 H397 0.928 . S
H385 C361 0.931 . S
H386 C363 0.930 . S
H387 C365 0.929 1_655 S
H388 C366 0.931 . S
H389 C368 0.930 . S
H390 C372 0.931 . S
H391 C370 0.931 . S
H392 C374 0.931 . S
H393 C375 0.929 . S
H394 C376 0.929 1_545 S
H395 C379 0.930 . S
H396 C380 0.931 . S
H397 C384 0.928 . S
H398 C383 0.929 . S
H399 C381 0.932 . S
C400 C401 1.363 . S
C400 C406 1.379 . S
C400 N408 1.356 . S
C401 C400 1.363 . S
C401 C407 1.363 . S
C402 C403 1.363 . S
C402 C407 1.379 . S
C402 N409 1.356 . S
C403 C402 1.363 . S
C403 C406 1.363 . S
N404 C406 1.356 . S
N404 H416 0.984 . S
N404 H417 0.985 . S
N405 C407 1.356 . S
N405 H410 0.984 . S
N405 H411 0.985 . S
C406 C400 1.379 . S
C406 C403 1.363 . S
C406 N404 1.356 . S
C407 C401 1.363 . S
C407 C402 1.379 . S
C407 N405 1.356 . S
N408 C400 1.356 . S
N408 H414 0.984 . S
N408 H415 0.984 . S
N409 C402 1.356 . S
N409 H412 0.984 . S
N409 H413 0.985 1_565 S
H410 N405 0.984 . S
H411 N405 0.985 . S
H412 N409 0.984 . S
H413 N409 0.985 1_545 S
H414 N408 0.984 . S
H415 N408 0.984 . S
H416 N404 0.984 . S
H417 N404 0.985 . S
C418 C419 1.363 . S
C418 C424 1.379 . S
C418 N426 1.356 . S
C419 C418 1.363 . S
C419 C425 1.363 . S
C420 C421 1.363 . S
C420 C425 1.379 . S
C420 N427 1.356 . S
C421 C420 1.363 . S
C421 C424 1.363 . S
N422 C424 1.356 . S
N422 H434 0.984 . S
N422 H435 0.985 . S
N423 C425 1.356 . S
N423 H428 0.984 . S
N423 H429 0.985 . S
C424 C418 1.379 . S
C424 C421 1.363 . S
C424 N422 1.356 . S
C425 C419 1.363 . S
C425 C420 1.379 . S
C425 N423 1.356 . S
N426 C418 1.356 . S
N426 H432 0.984 . S
N426 H433 0.984 . S
N427 C420 1.356 . S
N427 H430 0.984 . S
N427 H431 0.985 . S
H428 N423 0.984 . S
H429 N423 0.985 . S
H430 N427 0.984 . S
H431 N427 0.985 . S
H432 N426 0.984 . S
H433 N426 0.984 . S
H434 N422 0.984 . S
H435 N422 0.985 . S
C436 C437 1.363 . S
C436 C442 1.379 . S
C436 N444 1.356 . S
C437 C436 1.363 . S
C437 C443 1.363 . S
C438 C439 1.363 . S
C438 C443 1.379 . S
C438 N445 1.356 . S
C439 C438 1.363 . S
C439 C442 1.363 . S
N440 C442 1.356 . S
N440 H452 0.984 . S
N440 H453 0.985 1_545 S
N441 C443 1.356 . S
N441 H446 0.984 . S
N441 H447 0.985 1_554 S
C442 C436 1.379 . S
C442 C439 1.363 . S
C442 N440 1.356 . S
C443 C437 1.363 . S
C443 C438 1.379 . S
C443 N441 1.356 . S
N444 C436 1.356 . S
N444 H450 0.984 . S
N444 H451 0.984 . S
N445 C438 1.356 . S
N445 H448 0.984 1_545 S
N445 H449 0.985 . S
H446 N441 0.984 . S
H447 N441 0.985 1_556 S
H448 N445 0.984 1_565 S
H449 N445 0.985 . S
H450 N444 0.984 . S
H451 N444 0.984 . S
H452 N440 0.984 . S
H453 N440 0.985 1_565 S
C454 C455 1.363 . S
C454 C460 1.379 . S
C454 N462 1.356 . S
C455 C454 1.363 . S
C455 C461 1.363 . S
C456 C457 1.363 . S
C456 C461 1.379 . S
C456 N463 1.356 . S
C457 C456 1.363 . S
C457 C460 1.363 . S
N458 C460 1.356 . S
N458 H470 0.984 . S
N458 H471 0.985 . S
N459 C461 1.356 . S
N459 H464 0.984 . S
N459 H465 0.985 . S
C460 C454 1.379 . S
C460 C457 1.363 . S
C460 N458 1.356 . S
C461 C455 1.363 . S
C461 C456 1.379 . S
C461 N459 1.356 . S
N462 C454 1.356 . S
N462 H468 0.984 . S
N462 H469 0.984 . S
N463 C456 1.356 . S
N463 H466 0.984 . S
N463 H467 0.985 . S
H464 N459 0.984 . S
H465 N459 0.985 . S
H466 N463 0.984 . S
H467 N463 0.985 . S
H468 N462 0.984 . S
H469 N462 0.984 . S
H470 N458 0.984 . S
H471 N458 0.985 . S
C472 C473 1.363 . S
C472 C478 1.379 . S
C472 N480 1.356 . S
C473 C472 1.363 . S
C473 C479 1.363 . S
C474 C475 1.363 . S
C474 C479 1.379 . S
C474 N481 1.356 . S
C475 C474 1.363 . S
C475 C478 1.363 . S
N476 C478 1.356 . S
N476 H488 0.984 . S
N476 H489 0.985 . S
N477 C479 1.356 . S
N477 H482 0.984 . S
N477 H483 0.985 . S
C478 C472 1.379 . S
C478 C475 1.363 . S
C478 N476 1.356 . S
C479 C473 1.363 . S
C479 C474 1.379 . S
C479 N477 1.356 . S
N480 C472 1.356 . S
N480 H486 0.984 . S
N480 H487 0.984 . S
N481 C474 1.356 . S
N481 H484 0.984 . S
N481 H485 0.985 . S
H482 N477 0.984 . S
H483 N477 0.985 . S
H484 N481 0.984 . S
H485 N481 0.985 . S
H486 N480 0.984 . S
H487 N480 0.984 . S
H488 N476 0.984 . S
H489 N476 0.985 . S
C490 C491 1.363 1_455 S
C490 C496 1.379 . S
C490 N498 1.356 1_455 S
C491 C490 1.363 1_655 S
C491 C497 1.363 . S
C492 C493 1.363 . S
C492 C497 1.379 1_455 S
C492 N499 1.356 . S
C493 C492 1.363 . S
C493 C496 1.363 . S
N494 C496 1.356 . S
N494 H506 0.984 . S
N494 H507 0.985 . S
N495 C497 1.356 . S
N495 H500 0.984 . S
N495 H501 0.985 1_556 S
C496 C490 1.379 . S
C496 C493 1.363 . S
C496 N494 1.356 . S
C497 C491 1.363 . S
C497 C492 1.379 1_655 S
C497 N495 1.356 . S
N498 C490 1.356 1_655 S
N498 H504 0.984 . S
N498 H505 0.984 . S
N499 C492 1.356 . S
N499 H502 0.984 . S
N499 H503 0.985 . S
H500 N495 0.984 . S
H501 N495 0.985 1_554 S
H502 N499 0.984 . S
H503 N499 0.985 . S
H504 N498 0.984 . S
H505 N498 0.984 . S
H506 N494 0.984 . S
H507 N494 0.985 . S
C508 C509 1.363 . S
C508 C514 1.379 . S
C508 N516 1.356 . S
C509 C508 1.363 . S
C509 C515 1.363 . S
C510 C511 1.363 . S
C510 C515 1.379 . S
C510 N517 1.356 . S
C511 C510 1.363 . S
C511 C514 1.363 . S
N512 C514 1.356 . S
N512 H524 0.984 . S
N512 H525 0.985 . S
N513 C515 1.356 . S
N513 H518 0.984 . S
N513 H519 0.985 . S
C514 C508 1.379 . S
C514 C511 1.363 . S
C514 N512 1.356 . S
C515 C509 1.363 . S
C515 C510 1.379 . S
C515 N513 1.356 . S
N516 C508 1.356 . S
N516 H522 0.984 . S
N516 H523 0.984 . S
N517 C510 1.356 . S
N517 H520 0.984 . S
N517 H521 0.985 . S
H518 N513 0.984 . S
H519 N513 0.985 . S
H520 N517 0.984 . S
H521 N517 0.985 . S
H522 N516 0.984 . S
H523 N516 0.984 . S
H524 N512 0.984 . S
H525 N512 0.985 . S
C526 C527 1.363 . S
C526 C532 1.379 . S
C526 N534 1.356 . S
C527 C526 1.363 . S
C527 C533 1.363 . S
C528 C529 1.363 . S
C528 C533 1.379 . S
C528 N535 1.356 . S
C529 C528 1.363 . S
C529 C532 1.363 . S
N530 C532 1.356 . S
N530 H542 0.984 . S
N530 H543 0.985 . S
N531 C533 1.356 . S
N531 H536 0.984 . S
N531 H537 0.985 . S
C532 C526 1.379 . S
C532 C529 1.363 . S
C532 N530 1.356 . S
C533 C527 1.363 . S
C533 C528 1.379 . S
C533 N531 1.356 . S
N534 C526 1.356 . S
N534 H540 0.984 . S
N534 H541 0.984 . S
N535 C528 1.356 . S
N535 H538 0.984 . S
N535 H539 0.985 . S
H536 N531 0.984 . S
H537 N531 0.985 . S
H538 N535 0.984 . S
H539 N535 0.985 . S
H540 N534 0.984 . S
H541 N534 0.984 . S
H542 N530 0.984 . S
H543 N530 0.985 . S
C544 C545 1.363 . S
C544 C550 1.379 . S
C544 N552 1.356 . S
C545 C544 1.363 . S
C545 C551 1.363 . S
C546 C547 1.363 . S
C546 C551 1.379 . S
C546 N553 1.356 . S
C547 C546 1.363 . S
C547 C550 1.363 . S
N548 C550 1.356 . S
N548 H560 0.984 . S
N548 H561 0.985 . S
N549 C551 1.356 . S
N549 H554 0.984 . S
N549 H555 0.985 . S
C550 C544 1.379 . S
C550 C547 1.363 . S
C550 N548 1.356 . S
C551 C545 1.363 . S
C551 C546 1.379 . S
C551 N549 1.356 . S
N552 C544 1.356 . S
N552 H558 0.984 . S
N552 H559 0.984 . S
N553 C546 1.356 . S
N553 H556 0.984 . S
N553 H557 0.985 . S
H554 N549 0.984 . S
H555 N549 0.985 . S
H556 N553 0.984 . S
H557 N553 0.985 . S
H558 N552 0.984 . S
H559 N552 0.984 . S
H560 N548 0.984 . S
H561 N548 0.985 . S
C562 C563 1.363 . S
C562 C568 1.379 . S
C562 N570 1.356 . S
C563 C562 1.363 . S
C563 C569 1.363 . S
C564 C565 1.363 . S
C564 C569 1.379 . S
C564 N571 1.356 . S
C565 C564 1.363 . S
C565 C568 1.363 . S
N566 C568 1.356 . S
N566 H578 0.984 . S
N566 H579 0.985 . S
N567 C569 1.356 . S
N567 H572 0.984 . S
N567 H573 0.985 . S
C568 C562 1.379 . S
C568 C565 1.363 . S
C568 N566 1.356 . S
C569 C563 1.363 . S
C569 C564 1.379 . S
C569 N567 1.356 . S
N570 C562 1.356 . S
N570 H576 0.984 . S
N570 H577 0.984 . S
N571 C564 1.356 . S
N571 H574 0.984 . S
N571 H575 0.985 . S
H572 N567 0.984 . S
H573 N567 0.985 . S
H574 N571 0.984 . S
H575 N571 0.985 . S
H576 N570 0.984 . S
H577 N570 0.984 . S
H578 N566 0.984 . S
H579 N566 0.985 . S
C580 C581 1.363 . S
C580 C586 1.379 . S
C580 N588 1.356 . S
C581 C580 1.363 . S
C581 C587 1.367 . S
C582 C583 1.363 . S
C582 C587 1.385 . S
C582 N589 1.356 1_565 S
C583 C582 1.363 . S
C583 C586 1.363 . S
N584 C586 1.356 . S
N584 H596 0.984 . S
N584 H597 0.985 . S
N585 C587 1.346 1_554 S
N585 H590 0.984 . S
N585 H591 0.985 . S
C586 C580 1.379 . S
C586 C583 1.363 . S
C586 N584 1.356 . S
C587 C581 1.367 . S
C587 C582 1.385 . S
C587 N585 1.346 1_556 S
N588 C580 1.356 . S
N588 H594 0.984 . S
N588 H595 0.984 . S
N589 C582 1.356 1_545 S
N589 H592 0.984 . S
N589 H593 0.985 1_556 S
H590 N585 0.984 . S
H591 N585 0.985 . S
H592 N589 0.984 . S
H593 N589 0.985 1_554 S
H594 N588 0.984 . S
H595 N588 0.984 . S
H596 N584 0.984 . S
H597 N584 0.985 . S
C598 C599 1.363 . S
C598 C604 1.379 . S
C598 N606 1.356 . S
C599 C598 1.363 . S
C599 C605 1.363 . S
C600 C601 1.363 . S
C600 C605 1.379 . S
C600 N607 1.356 . S
C601 C600 1.363 . S
C601 C604 1.363 . S
N602 C604 1.356 . S
N602 H614 0.984 . S
N602 H615 0.985 . S
N603 C605 1.356 . S
N603 H608 0.984 . S
N603 H609 0.985 . S
C604 C598 1.379 . S
C604 C601 1.363 . S
C604 N602 1.356 . S
C605 C599 1.363 . S
C605 C600 1.379 . S
C605 N603 1.356 . S
N606 C598 1.356 . S
N606 H612 0.984 . S
N606 H613 0.984 . S
N607 C600 1.356 . S
N607 H610 0.984 . S
N607 H611 0.985 . S
H608 N603 0.984 . S
H609 N603 0.985 . S
H610 N607 0.984 . S
H611 N607 0.985 . S
H612 N606 0.984 . S
H613 N606 0.984 . S
H614 N602 0.984 . S
H615 N602 0.985 . S
C616 C617 1.363 . S
C616 C622 1.379 . S
C616 N624 1.356 . S
C617 C616 1.363 . S
C617 C623 1.363 . S
C618 C619 1.363 . S
C618 C623 1.379 . S
C618 N625 1.356 . S
C619 C618 1.363 . S
C619 C622 1.363 . S
N620 C622 1.356 . S
N620 H632 0.984 . S
N620 H633 0.985 . S
N621 C623 1.356 . S
N621 H626 0.984 . S
N621 H627 0.985 . S
C622 C616 1.379 . S
C622 C619 1.363 . S
C622 N620 1.356 . S
C623 C617 1.363 . S
C623 C618 1.379 . S
C623 N621 1.356 . S
N624 C616 1.356 . S
N624 H630 0.984 . S
N624 H631 0.984 . S
N625 C618 1.356 . S
N625 H628 0.984 . S
N625 H629 0.985 . S
H626 N621 0.984 . S
H627 N621 0.985 . S
H628 N625 0.984 . S
H629 N625 0.985 . S
H630 N624 0.984 . S
H631 N624 0.984 . S
H632 N620 0.984 . S
H633 N620 0.985 . S
C634 C635 1.363 1_655 S
C634 C640 1.379 . S
C634 N642 1.356 1_655 S
C635 C634 1.363 1_455 S
C635 C641 1.363 . S
C636 C637 1.363 . S
C636 C641 1.379 1_655 S
C636 N643 1.356 . S
C637 C636 1.363 . S
C637 C640 1.363 . S
N638 C640 1.356 . S
N638 H650 0.984 . S
N638 H651 0.985 . S
N639 C641 1.356 . S
N639 H644 0.984 . S
N639 H645 0.985 . S
C640 C634 1.379 . S
C640 C637 1.363 . S
C640 N638 1.356 . S
C641 C635 1.363 . S
C641 C636 1.379 1_455 S
C641 N639 1.356 . S
N642 C634 1.356 1_455 S
N642 H648 0.984 . S
N642 H649 0.984 . S
N643 C636 1.356 . S
N643 H646 0.984 . S
N643 H647 0.985 . S
H644 N639 0.984 . S
H645 N639 0.985 . S
H646 N643 0.984 . S
H647 N643 0.985 . S
H648 N642 0.984 . S
H649 N642 0.984 . S
H650 N638 0.984 . S
H651 N638 0.985 . S
C652 C653 1.363 . S
C652 C658 1.379 . S
C652 N660 1.356 . S
C653 C652 1.363 . S
C653 C659 1.363 . S
C654 C655 1.363 . S
C654 C659 1.379 . S
C654 N661 1.356 . S
C655 C654 1.363 . S
C655 C658 1.363 . S
N656 C658 1.356 . S
N656 H668 0.984 . S
N656 H669 0.985 . S
N657 C659 1.356 . S
N657 H662 0.984 . S
N657 H663 0.985 . S
C658 C652 1.379 . S
C658 C655 1.363 . S
C658 N656 1.356 . S
C659 C653 1.363 . S
C659 C654 1.379 . S
C659 N657 1.356 . S
N660 C652 1.356 . S
N660 H666 0.984 . S
N660 H667 0.984 . S
N661 C654 1.356 . S
N661 H664 0.984 . S
N661 H665 0.985 . S
H662 N657 0.984 . S
H663 N657 0.985 . S
H664 N661 0.984 . S
H665 N661 0.985 . S
H666 N660 0.984 . S
H667 N660 0.984 . S
H668 N656 0.984 . S
H669 N656 0.985 . S
C670 C671 1.363 . S
C670 C676 1.379 . S
C670 N678 1.356 . S
C671 C670 1.363 . S
C671 C677 1.363 . S
C672 C673 1.363 . S
C672 C677 1.379 . S
C672 N679 1.356 . S
C673 C672 1.363 . S
C673 C676 1.363 . S
N674 C676 1.356 . S
N674 H686 0.984 . S
N674 H687 0.985 . S
N675 C677 1.356 . S
N675 H680 0.984 . S
N675 H681 0.985 . S
C676 C670 1.379 . S
C676 C673 1.363 . S
C676 N674 1.356 . S
C677 C671 1.363 . S
C677 C672 1.379 . S
C677 N675 1.356 . S
N678 C670 1.356 . S
N678 H684 0.984 . S
N678 H685 0.984 . S
N679 C672 1.356 . S
N679 H682 0.984 . S
N679 H683 0.985 . S
H680 N675 0.984 . S
H681 N675 0.985 . S
H682 N679 0.984 . S
H683 N679 0.985 . S
H684 N678 0.984 . S
H685 N678 0.984 . S
H686 N674 0.984 . S
H687 N674 0.985 . S
C688 C689 1.363 . S
C688 C694 1.379 . S
C688 N696 1.356 . S
C689 C688 1.363 . S
C689 C695 1.363 . S
C690 C691 1.363 . S
C690 C695 1.379 . S
C690 N697 1.356 . S
C691 C690 1.363 . S
C691 C694 1.363 . S
N692 C694 1.356 . S
N692 H704 0.984 . S
N692 H705 0.985 . S
N693 C695 1.356 . S
N693 H698 0.984 . S
N693 H699 0.985 . S
C694 C688 1.379 . S
C694 C691 1.363 . S
C694 N692 1.356 . S
C695 C689 1.363 . S
C695 C690 1.379 . S
C695 N693 1.356 . S
N696 C688 1.356 . S
N696 H702 0.984 . S
N696 H703 0.984 . S
N697 C690 1.356 . S
N697 H700 0.984 . S
N697 H701 0.985 . S
H698 N693 0.984 . S
H699 N693 0.985 . S
H700 N697 0.984 . S
H701 N697 0.985 . S
H702 N696 0.984 . S
H703 N696 0.984 . S
H704 N692 0.984 . S
H705 N692 0.985 . S
C706 C707 1.363 . S
C706 C712 1.379 . S
C706 N714 1.356 . S
C707 C706 1.363 . S
C707 C713 1.363 . S
C708 C709 1.363 . S
C708 C713 1.379 . S
C708 N715 1.356 . S
C709 C708 1.363 . S
C709 C712 1.363 . S
N710 C712 1.356 . S
N710 H722 0.984 . S
N710 H723 0.985 . S
N711 C713 1.356 . S
N711 H716 0.984 . S
N711 H717 0.985 . S
C712 C706 1.379 . S
C712 C709 1.363 . S
C712 N710 1.356 . S
C713 C707 1.363 . S
C713 C708 1.379 . S
C713 N711 1.356 . S
N714 C706 1.356 . S
N714 H720 0.984 . S
N714 H721 0.984 . S
N715 C708 1.356 . S
N715 H718 0.984 . S
N715 H719 0.985 . S
H716 N711 0.984 . S
H717 N711 0.985 . S
H718 N715 0.984 . S
H719 N715 0.985 . S
H720 N714 0.984 . S
H721 N714 0.984 . S
H722 N710 0.984 . S
H723 N710 0.985 . S
C724 C725 1.363 . S
C724 C730 1.379 . S
C724 N732 1.356 . S
C725 C724 1.363 . S
C725 C731 1.363 . S
C726 C727 1.363 . S
C726 C731 1.379 . S
C726 N733 1.356 . S
C727 C726 1.363 . S
C727 C730 1.363 . S
N728 C730 1.356 . S
N728 H740 0.984 . S
N728 H741 0.985 . S
N729 C731 1.356 . S
N729 H734 0.984 . S
N729 H735 0.985 . S
C730 C724 1.379 . S
C730 C727 1.363 . S
C730 N728 1.356 . S
C731 C725 1.363 . S
C731 C726 1.379 . S
C731 N729 1.356 . S
N732 C724 1.356 . S
N732 H738 0.984 . S
N732 H739 0.984 . S
N733 C726 1.356 . S
N733 H736 0.984 . S
N733 H737 0.985 . S
H734 N729 0.984 . S
H735 N729 0.985 . S
H736 N733 0.984 . S
H737 N733 0.985 . S
H738 N732 0.984 . S
H739 N732 0.984 . S
H740 N728 0.984 . S
H741 N728 0.985 . S
C742 C743 1.363 . S
C742 C748 1.379 . S
C742 N750 1.356 . S
C743 C742 1.363 . S
C743 C749 1.363 . S
C744 C745 1.363 . S
C744 C749 1.379 . S
C744 N751 1.356 . S
C745 C744 1.363 . S
C745 C748 1.363 . S
N746 C748 1.356 . S
N746 H758 0.984 . S
N746 H759 0.985 . S
N747 C749 1.356 . S
N747 H752 0.984 . S
N747 H753 0.985 . S
C748 C742 1.379 . S
C748 C745 1.363 . S
C748 N746 1.356 . S
C749 C743 1.363 . S
C749 C744 1.379 . S
C749 N747 1.356 . S
N750 C742 1.356 . S
N750 H756 0.984 . S
N750 H757 0.984 . S
N751 C744 1.356 . S
N751 H754 0.984 . S
N751 H755 0.985 . S
H752 N747 0.984 . S
H753 N747 0.985 . S
H754 N751 0.984 . S
H755 N751 0.985 . S
H756 N750 0.984 . S
H757 N750 0.984 . S
H758 N746 0.984 . S
H759 N746 0.985 . S
C760 C761 1.363 . S
C760 C766 1.379 . S
C760 N768 1.356 . S
C761 C760 1.363 . S
C761 C767 1.363 . S
C762 C763 1.363 . S
C762 C767 1.379 . S
C762 N769 1.356 . S
C763 C762 1.363 . S
C763 C766 1.363 . S
N764 C766 1.356 . S
N764 H776 0.984 . S
N764 H777 0.985 . S
N765 C767 1.356 . S
N765 H770 0.984 . S
N765 H771 0.985 . S
C766 C760 1.379 . S
C766 C763 1.363 . S
C766 N764 1.356 . S
C767 C761 1.363 . S
C767 C762 1.379 . S
C767 N765 1.356 . S
N768 C760 1.356 . S
N768 H774 0.984 . S
N768 H775 0.984 . S
N769 C762 1.356 . S
N769 H772 0.984 . S
N769 H773 0.985 . S
H770 N765 0.984 . S
H771 N765 0.985 . S
H772 N769 0.984 . S
H773 N769 0.985 . S
H774 N768 0.984 . S
H775 N768 0.984 . S
H776 N764 0.984 . S
H777 N764 0.985 . S
C778 C779 1.363 . S
C778 C784 1.379 . S
C778 N786 1.356 . S
C779 C778 1.363 . S
C779 C785 1.363 . S
C780 C781 1.363 . S
C780 C785 1.379 . S
C780 N787 1.356 . S
C781 C780 1.363 . S
C781 C784 1.363 . S
N782 C784 1.356 . S
N782 H794 0.984 . S
N782 H795 0.985 . S
N783 C785 1.356 . S
N783 H788 0.984 . S
N783 H789 0.985 . S
C784 C778 1.379 . S
C784 C781 1.363 . S
C784 N782 1.356 . S
C785 C779 1.363 . S
C785 C780 1.379 . S
C785 N783 1.356 . S
N786 C778 1.356 . S
N786 H792 0.984 . S
N786 H793 0.984 . S
N787 C780 1.356 . S
N787 H790 0.984 . S
N787 H791 0.985 . S
H788 N783 0.984 . S
H789 N783 0.985 . S
H790 N787 0.984 . S
H791 N787 0.985 . S
H792 N786 0.984 . S
H793 N786 0.984 . S
H794 N782 0.984 . S
H795 N782 0.985 . S
C796 C797 1.363 . S
C796 C802 1.379 . S
C796 N804 1.356 . S
C797 C796 1.363 . S
C797 C803 1.363 . S
C798 C799 1.363 . S
C798 C803 1.379 . S
C798 N805 1.356 . S
C799 C798 1.363 . S
C799 C802 1.363 . S
N800 C802 1.356 . S
N800 H812 0.984 . S
N800 H813 0.985 . S
N801 C803 1.356 . S
N801 H806 0.984 . S
N801 H807 0.985 . S
C802 C796 1.379 . S
C802 C799 1.363 . S
C802 N800 1.356 . S
C803 C797 1.363 . S
C803 C798 1.379 . S
C803 N801 1.356 . S
N804 C796 1.356 . S
N804 H810 0.984 . S
N804 H811 0.984 . S
N805 C798 1.356 . S
N805 H808 0.984 . S
N805 H809 0.985 . S
H806 N801 0.984 . S
H807 N801 0.985 . S
H808 N805 0.984 . S
H809 N805 0.985 . S
H810 N804 0.984 . S
H811 N804 0.984 . S
H812 N800 0.984 . S
H813 N800 0.985 . S
C814 C815 1.363 . S
C814 C820 1.379 . S
C814 N822 1.356 . S
C815 C814 1.363 . S
C815 C821 1.363 1_556 S
C816 C817 1.381 . S
C816 C821 1.374 1_556 S
C816 N823 1.347 1_556 S
C817 C816 1.381 . S
C817 C820 1.363 . S
N818 C820 1.356 . S
N818 H830 0.984 . S
N818 H831 0.985 . S
N819 C821 1.356 . S
N819 H824 0.984 . S
N819 H825 0.985 . S
C820 C814 1.379 . S
C820 C817 1.363 . S
C820 N818 1.356 . S
C821 C815 1.363 1_554 S
C821 C816 1.374 1_554 S
C821 N819 1.356 . S
N822 C814 1.356 . S
N822 H828 0.984 . S
N822 H829 0.984 . S
N823 C816 1.347 1_554 S
N823 H826 0.984 . S
N823 H827 0.985 . S
H824 N819 0.984 . S
H825 N819 0.985 . S
H826 N823 0.984 . S
H827 N823 0.985 . S
H828 N822 0.984 . S
H829 N822 0.984 . S
H830 N818 0.984 . S
H831 N818 0.985 . S
C401 C8 1.772 . S
C403 C104 1.638 . S
C419 C31 1.793 . S
C421 C143 1.595 . S
C437 C53 1.994 . S
C439 C182 1.807 1_545 S
C457 C206 1.528 . S
C455 C74 1.557 . S
C475 C245 1.639 . S
C473 C26 1.766 . S
C491 C48 1.563 . S
C493 C284 1.532 . S
C509 C71 1.990 . S
C511 C338 1.801 . S
C527 C5 1.792 . S
C529 C362 1.601 . S
C545 C50 1.772 . S
C547 C377 1.632 . S
C565 C260 1.589 . S
C563 C70 1.793 . S
C583 C299 1.813 1_565 S
C581 C4 1.995 1_556 S
C599 C28 1.557 . S
C601 C323 1.537 . S
C619 C128 1.628 . S
C617 C73 1.766 . S
C635 C7 1.562 . S
C637 C167 1.540 . S
C655 C221 1.806 . S
C653 C30 1.989 . S
C673 C89 1.590 . S
C671 C52 1.792 . S
C691 C343 1.640 . S
C689 C9 1.744 . S
C709 C382 1.478 . S
C707 C29 1.497 . S
C725 C51 1.493 . S
C727 C265 1.480 . S
C745 C304 1.622 . S
C743 C75 1.752 . S
C763 C187 1.647 . S
C761 C27 1.752 . S
C779 C49 1.744 . S
C781 C226 1.616 . S
C799 C109 1.459 . S
C797 C72 1.497 . S
C817 C148 1.462 . S
C815 C6 1.493 1_556 S
