# Generated by pormake.
# Topology nom, (4,4)-cn, num edge types: 1
# Building blocks:
#     Node 0, Type 0, BuildingBlock: GIZVER_clean_linker_0, # of connection points: 4
#     Node 1, Type 0, BuildingBlock: GIZVER_clean_linker_0, # of connection points: 4
#     Node 2, Type 0, BuildingBlock: GIZVER_clean_linker_0, # of connection points: 4
#     Node 3, Type 0, BuildingBlock: GIZVER_clean_linker_0, # of connection points: 4
#     Node 4, Type 0, BuildingBlock: GIZVER_clean_linker_0, # of connection points: 4
#     Node 5, Type 0, BuildingBlock: GIZVER_clean_linker_0, # of connection points: 4
#     Node 6, Type 1, BuildingBlock: KUFVIS_clean_sbu_0, # of connection points: 4
#     Node 7, Type 1, BuildingBlock: KUFVIS_clean_sbu_0, # of connection points: 4
#     Node 8, Type 1, BuildingBlock: KUFVIS_clean_sbu_0, # of connection points: 4
#     Node 9, Type 1, BuildingBlock: KUFVIS_clean_sbu_0, # of connection points: 4
#     Node 10, Type 1, BuildingBlock: KUFVIS_clean_sbu_0, # of connection points: 4
#     Node 11, Type 1, BuildingBlock: KUFVIS_clean_sbu_0, # of connection points: 4
#     Edge 12, Type (0, 1), BuildingBlock: ZUJKAS_clean_linker_0, # of connection points: 2
#     Edge 13, Type (0, 1), BuildingBlock: ZUJKAS_clean_linker_0, # of connection points: 2
#     Edge 14, Type (0, 1), BuildingBlock: ZUJKAS_clean_linker_0, # of connection points: 2
#     Edge 15, Type (0, 1), BuildingBlock: ZUJKAS_clean_linker_0, # of connection points: 2
#     Edge 16, Type (0, 1), BuildingBlock: ZUJKAS_clean_linker_0, # of connection points: 2
#     Edge 17, Type (0, 1), BuildingBlock: ZUJKAS_clean_linker_0, # of connection points: 2
#     Edge 18, Type (0, 1), BuildingBlock: ZUJKAS_clean_linker_0, # of connection points: 2
#     Edge 19, Type (0, 1), BuildingBlock: ZUJKAS_clean_linker_0, # of connection points: 2
#     Edge 20, Type (0, 1), BuildingBlock: ZUJKAS_clean_linker_0, # of connection points: 2
#     Edge 21, Type (0, 1), BuildingBlock: ZUJKAS_clean_linker_0, # of connection points: 2
#     Edge 22, Type (0, 1), BuildingBlock: ZUJKAS_clean_linker_0, # of connection points: 2
#     Edge 23, Type (0, 1), BuildingBlock: ZUJKAS_clean_linker_0, # of connection points: 2
#     Edge 24, Type (0, 1), BuildingBlock: ZUJKAS_clean_linker_0, # of connection points: 2
#     Edge 25, Type (0, 1), BuildingBlock: ZUJKAS_clean_linker_0, # of connection points: 2
#     Edge 26, Type (0, 1), BuildingBlock: ZUJKAS_clean_linker_0, # of connection points: 2
#     Edge 27, Type (0, 1), BuildingBlock: ZUJKAS_clean_linker_0, # of connection points: 2
#     Edge 28, Type (0, 1), BuildingBlock: ZUJKAS_clean_linker_0, # of connection points: 2
#     Edge 29, Type (0, 1), BuildingBlock: ZUJKAS_clean_linker_0, # of connection points: 2
#     Edge 30, Type (0, 1), BuildingBlock: ZUJKAS_clean_linker_0, # of connection points: 2
#     Edge 31, Type (0, 1), BuildingBlock: ZUJKAS_clean_linker_0, # of connection points: 2
#     Edge 32, Type (0, 1), BuildingBlock: ZUJKAS_clean_linker_0, # of connection points: 2
#     Edge 33, Type (0, 1), BuildingBlock: ZUJKAS_clean_linker_0, # of connection points: 2
#     Edge 34, Type (0, 1), BuildingBlock: ZUJKAS_clean_linker_0, # of connection points: 2
#     Edge 35, Type (0, 1), BuildingBlock: ZUJKAS_clean_linker_0, # of connection points: 2
# Relax obj value: 0.005
# Max RMSD: 0.071
# Mean RMSD: 0.051
data_MOF--net-nom--node1-KUFVIS_clean_sbu_0--node2-GIZVER_clean_linker_0--edge1-ZUJKAS_clean_linker_0
_symmetry_space_group_name_H-M    P1
_symmetry_Int_Tables_number       1
_symmetry_cell_setting            triclinic
loop_
_symmetry_equiv_pos_as_xyz
'x, y, z'
_cell_length_a     59.21224
_cell_length_b     59.782164
_cell_length_c     59.675238
_cell_angle_alpha  90.502538
_cell_angle_beta   90.491231
_cell_angle_gamma 120.05154
loop_
_atom_site_label
_atom_site_type_symbol
_atom_site_fract_x
_atom_site_fract_y
_atom_site_fract_z
_atom_type_partial_charge
H0 H 0.98105 0.56446 0.34336 0.0
H1 H 1.00938 0.57259 0.27599 0.0
H2 H 0.93632 0.50655 0.29317 0.0
H3 H 0.0151 0.60605 0.33068 0.0
H4 H 0.02317 0.61071 0.30179 0.0
H5 H 0.03961 0.59485 0.35692 0.0
H6 H 0.11471 0.60925 0.33556 0.0
H7 H 0.05873 0.60475 0.28675 0.0
C8 C 0.97912 0.55666 0.32655 0.0
C9 C 0.95668 0.53314 0.32046 0.0
C10 C 0.99845 0.57085 0.31063 0.0
C11 C 0.9952 0.56125 0.28854 0.0
C12 C 0.97299 0.53782 0.28228 0.0
C13 C 0.95419 0.52378 0.2984 0.0
C14 C 0.02037 0.59785 0.31616 0.0
C15 C 0.04587 0.59873 0.32118 0.0
C16 C 0.05296 0.59754 0.34353 0.0
C17 C 0.07797 0.60181 0.34875 0.0
C18 C 0.0953 0.60572 0.33142 0.0
C19 C 0.08858 0.6066 0.30901 0.0
C20 C 0.06379 0.60321 0.30393 0.0
H21 H 0.42619 0.97777 0.50839 0.0
H22 H 0.45193 1.00374 0.44135 0.0
H23 H 0.44258 0.93138 0.46362 0.0
H24 H 0.42063 0.012 0.49222 0.0
H25 H 0.42727 0.01977 0.46341 0.0
H26 H 0.45544 0.03361 0.52115 0.0
H27 H 0.51834 0.10839 0.50371 0.0
H28 H 0.46938 0.05572 0.45174 0.0
C29 C 0.43345 0.97542 0.49245 0.0
C30 C 0.43489 0.953 0.4882 0.0
C31 C 0.44022 0.99419 0.47572 0.0
C32 C 0.44791 0.98998 0.45459 0.0
C33 C 0.44888 0.96737 0.45007 0.0
C34 C 0.44305 0.94943 0.4672 0.0
C35 C 0.43553 0.01664 0.47911 0.0
C36 C 0.46015 0.04141 0.48564 0.0
C37 C 0.46708 0.04733 0.50846 0.0
C38 C 0.48778 0.07166 0.51496 0.0
C39 C 0.50251 0.0895 0.49855 0.0
C40 C 0.49629 0.08397 0.47573 0.0
C41 C 0.47492 0.05986 0.46929 0.0
H42 H 0.45637 0.49404 0.62669 0.0
H43 H 0.47035 0.48439 0.69596 0.0
H44 H 0.46287 0.54935 0.67647 0.0
H45 H 0.44627 0.45148 0.64103 0.0
H46 H 0.45205 0.44766 0.66966 0.0
H47 H 0.48231 0.46847 0.61372 0.0
H48 H 0.54464 0.45426 0.63015 0.0
H49 H 0.49316 0.4516 0.68174 0.0
C50 C 0.46046 0.50129 0.64382 0.0
C51 C 0.46032 0.52414 0.64944 0.0
C52 C 0.46452 0.48702 0.6605 0.0
C53 C 0.46836 0.49583 0.68293 0.0
C54 C 0.4681 0.51852 0.68875 0.0
C55 C 0.46461 0.5327 0.67184 0.0
C56 C 0.46066 0.46055 0.65506 0.0
C57 C 0.48574 0.46136 0.6487 0.0
C58 C 0.49361 0.46505 0.6262 0.0
C59 C 0.51509 0.46283 0.61955 0.0
C60 C 0.52902 0.45742 0.63561 0.0
C61 C 0.52125 0.4531 0.65805 0.0
C62 C 0.49972 0.45545 0.66458 0.0
H63 H 0.9816 0.45802 0.79267 0.0
H64 H 0.01416 0.48546 0.85884 0.0
H65 H 0.93637 0.46875 0.84289 0.0
H66 H 0.02148 0.46036 0.80236 0.0
H67 H 0.02758 0.45945 0.83142 0.0
H68 H 0.04766 0.49902 0.78102 0.0
H69 H 0.11861 0.55831 0.81228 0.0
H70 H 0.06062 0.49785 0.85199 0.0
C71 C 0.98034 0.46499 0.80917 0.0
C72 C 0.95661 0.46271 0.81595 0.0
C73 C 1.00157 0.47379 0.82443 0.0
C74 C 0.99873 0.48044 0.84655 0.0
C75 C 0.97534 0.47903 0.85318 0.0
C76 C 0.95484 0.47094 0.83756 0.0
C77 C 0.02501 0.47128 0.81843 0.0
C78 C 0.05008 0.497 0.81701 0.0
C79 C 0.05923 0.50839 0.79596 0.0
C80 C 0.08437 0.53007 0.79397 0.0
C81 C 0.09922 0.54157 0.81352 0.0
C82 C 0.09105 0.52984 0.83432 0.0
C83 C 0.0664 0.50765 0.8361 0.0
H84 H 0.57925 0.06018 0.01364 0.0
H85 H 0.58038 0.04653 0.94274 0.0
H86 H 0.58264 0.11561 0.96658 0.0
H87 H 0.59207 0.02935 -0.00122 0.0
H88 H 0.59023 0.02236 0.96957 0.0
H89 H 0.55183 0.00998 0.02183 0.0
H90 H 0.49089 0.93614 -0.00269 0.0
H91 H 0.55109 0.987 0.95304 0.0
C92 C 0.57859 0.06563 0.99648 0.0
C93 C 0.58017 0.08946 0.99217 0.0
C94 C 0.57775 0.04956 0.97865 0.0
C95 C 0.57917 0.05793 0.95641 0.0
C96 C 0.58153 0.08207 0.95201 0.0
C97 C 0.58062 0.0969 0.96992 0.0
C98 C 0.57988 0.02588 0.98343 0.0
C99 C 0.55361 1.00194 0.98672 0.0
C100 C 0.54223 0.9964 0.00807 0.0
C101 C 0.51947 0.9727 0.01203 0.0
C102 C 0.50766 0.955 0.99419 0.0
C103 C 0.51895 0.95994 0.97299 0.0
C104 C 0.54184 0.98352 0.96922 0.0
H105 H 0.59349 0.55232 0.12734 0.0
H106 H 0.56913 0.55118 0.19536 0.0
H107 H 0.58207 0.49076 0.17063 0.0
H108 H 0.59863 0.59166 0.14569 0.0
H109 H 0.58898 0.59117 0.17395 0.0
H110 H 0.56441 0.57282 0.11476 0.0
H111 H 0.49917 0.58383 0.12616 0.0
H112 H 0.5474 0.58703 0.18171 0.0
C113 C 0.58709 0.54261 0.14323 0.0
C114 C 0.58726 0.51951 0.14674 0.0
C115 C 0.57995 0.55386 0.1606 0.0
C116 C 0.57347 0.54197 0.18166 0.0
C117 C 0.57413 0.51911 0.18545 0.0
C118 C 0.58029 0.5077 0.16766 0.0
C119 C 0.58283 0.58026 0.15774 0.0
C120 C 0.55792 0.57872 0.14935 0.0
C121 C 0.5518 0.57536 0.12629 0.0
C122 C 0.53034 0.57679 0.11793 0.0
C123 C 0.51472 0.58113 0.13284 0.0
C124 C 0.52077 0.58513 0.15582 0.0
C125 C 0.54222 0.58346 0.16406 0.0
Mn126 Mn 0.64133 0.38812 0.40916 0.0
Mn127 Mn 0.66948 0.44982 0.42863 0.0
C128 C 0.61895 0.40035 0.43346 0.0
C129 C 0.63245 0.34537 0.41146 0.0
C130 C 0.64413 0.4333 0.38264 0.0
O131 O 0.67985 0.40226 0.40174 0.0
O132 O 0.6959 0.44253 0.41568 0.0
C133 C 0.6997 0.44425 0.46579 0.0
N134 N 0.68213 0.45102 0.45844 0.0
C135 C 0.67777 0.46419 0.49561 0.0
C136 C 0.69592 0.45748 0.50356 0.0
C137 C 0.70686 0.44738 0.48859 0.0
C138 C 0.67126 0.46046 0.47274 0.0
H139 H 0.70818 0.43652 0.45433 0.0
C140 C 0.69883 0.425 0.40599 0.0
O141 O 0.6306 0.35504 0.39261 0.0
O142 O 0.64076 0.36094 0.42873 0.0
N143 N 0.64692 0.46037 0.44188 0.0
C144 C 0.62972 0.46591 0.43152 0.0
C145 C 0.61743 0.47665 0.44407 0.0
C146 C 0.62323 0.48194 0.46704 0.0
C147 C 0.64111 0.47627 0.4773 0.0
C148 C 0.65298 0.46586 0.46389 0.0
H149 H 0.62549 0.46226 0.4138 0.0
O150 O 0.60653 0.37991 0.42079 0.0
O151 O 0.64427 0.41284 0.43208 0.0
O152 O 0.63785 0.40958 0.38415 0.0
O153 O 0.65625 0.45007 0.39819 0.0
C154 C 0.6476 0.48051 0.50031 0.0
C155 C 0.66578 0.4743 0.50949 0.0
H156 H 0.70154 0.45993 0.52112 0.0
H157 H 0.72082 0.44209 0.4946 0.0
H158 H 0.60367 0.48101 0.43603 0.0
H159 H 0.61396 0.49051 0.47662 0.0
H160 H 0.63857 0.48835 0.51113 0.0
H161 H 0.67045 0.47743 0.52724 0.0
Mn162 Mn 0.27177 0.64675 0.56161 0.0
Mn163 Mn 0.24106 0.58359 0.5463 0.0
C164 C 0.23487 0.62947 0.53849 0.0
C165 C 0.30317 0.69022 0.55637 0.0
C166 C 0.23321 0.60233 0.59121 0.0
O167 O 0.29928 0.63668 0.56928 0.0
O168 O 0.27639 0.59491 0.55864 0.0
C169 C 0.27574 0.58866 0.50884 0.0
N170 N 0.25136 0.58059 0.5167 0.0
C171 C 0.23167 0.56037 0.48131 0.0
C172 C 0.25656 0.56839 0.47282 0.0
C173 C 0.2787 0.58275 0.48661 0.0
C174 C 0.22999 0.56729 0.50343 0.0
H175 H 0.29277 0.59941 0.51948 0.0
C176 C 0.297 0.61439 0.56673 0.0
O177 O 0.29341 0.68162 0.57592 0.0
O178 O 0.29551 0.67336 0.54006 0.0
N179 N 0.20664 0.56916 0.53386 0.0
C180 C 0.18411 0.5633 0.54451 0.0
C181 C 0.16011 0.54857 0.53322 0.0
C182 C 0.1595 0.5396 0.51128 0.0
C183 C 0.18295 0.54601 0.50059 0.0
C184 C 0.20627 0.56081 0.51267 0.0
H185 H 0.18442 0.56964 0.56156 0.0
O186 O 0.24218 0.65058 0.54997 0.0
O187 O 0.24969 0.61924 0.54032 0.0
O188 O 0.24955 0.62625 0.58834 0.0
O189 O 0.2287 0.58481 0.57659 0.0
C190 C 0.1841 0.53809 0.47852 0.0
C191 C 0.20846 0.54559 0.46876 0.0
H192 H 0.2589 0.56361 0.45577 0.0
H193 H 0.29797 0.58903 0.48019 0.0
H194 H 0.14211 0.54381 0.54153 0.0
H195 H 0.1409 0.52786 0.50278 0.0
H196 H 0.16638 0.52641 0.46881 0.0
H197 H 0.2091 0.53971 0.45167 0.0
Mn198 Mn 0.6451 0.26806 0.72259 0.0
Mn199 Mn 0.67795 0.23879 0.70437 0.0
C200 C 0.62424 0.23151 0.69952 0.0
C201 C 0.6331 0.29974 0.71902 0.0
C202 C 0.6551 0.23124 0.75086 0.0
O203 O 0.68314 0.29522 0.72946 0.0
O204 O 0.70262 0.27462 0.71462 0.0
C205 C 0.70197 0.27115 0.66464 0.0
N206 N 0.68749 0.24742 0.67386 0.0
C207 C 0.68516 0.22611 0.63885 0.0
C208 C 0.7002 0.25031 0.62897 0.0
C209 C 0.70845 0.27293 0.64189 0.0
C210 C 0.67885 0.22557 0.66145 0.0
H211 H 0.7086 0.28856 0.6746 0.0
C212 C 0.70348 0.29433 0.72405 0.0
O213 O 0.63256 0.2894 0.73819 0.0
O214 O 0.64116 0.29207 0.70202 0.0
N215 N 0.65734 0.20398 0.69364 0.0
C216 C 0.64229 0.18222 0.70554 0.0
C217 C 0.63265 0.1579 0.69519 0.0
C218 C 0.63901 0.1562 0.67287 0.0
C219 C 0.65435 0.17886 0.66088 0.0
C220 C 0.66328 0.20254 0.67205 0.0
H221 H 0.63788 0.18339 0.72287 0.0
O222 O 0.61094 0.23883 0.71161 0.0
O223 O 0.64949 0.24635 0.7005 0.0
O224 O 0.64524 0.24581 0.74852 0.0
O225 O 0.66836 0.22805 0.73568 0.0
C226 C 0.66132 0.1789 0.63835 0.0
C227 C 0.67635 0.20249 0.62723 0.0
H228 H 0.7055 0.25175 0.6115 0.0
H229 H 0.72 0.29168 0.63438 0.0
H230 H 0.6207 0.1405 0.7045 0.0
H231 H 0.6319 0.13737 0.66508 0.0
H232 H 0.65498 0.16088 0.62932 0.0
H233 H 0.68117 0.20226 0.60979 0.0
Mn234 Mn 0.40701 0.6554 0.91064 0.0
Mn235 Mn 0.37816 0.59492 0.9312 0.0
C236 C 0.43076 0.64323 0.93341 0.0
C237 C 0.41597 0.69812 0.9132 0.0
C238 C 0.3972 0.60789 0.88336 0.0
O239 O 0.36815 0.64172 0.90496 0.0
O240 O 0.35106 0.60403 0.92336 0.0
C241 C 0.35806 0.6047 0.97323 0.0
N242 N 0.37228 0.59577 0.96256 0.0
C243 C 0.38286 0.58301 -0.00256 0.0
C244 C 0.36803 0.59177 0.00878 0.0
C245 C 0.3557 0.60279 0.99663 0.0
C246 C 0.38458 0.58553 0.97413 0.0
H247 H 0.34871 0.61332 0.96395 0.0
C248 C 0.34883 0.62128 0.91262 0.0
O249 O 0.41634 0.68772 0.89412 0.0
O250 O 0.40977 0.68351 0.93066 0.0
N251 N 0.40162 0.58312 0.93978 0.0
C252 C 0.41588 0.57637 0.92641 0.0
C253 C 0.42931 0.56491 0.93593 0.0
C254 C 0.42778 0.56029 0.95905 0.0
C255 C 0.41312 0.56749 0.9725 0.0
C256 C 0.3998 0.57847 0.96201 0.0
H257 H 0.41685 0.57949 0.90858 0.0
O258 O 0.44259 0.66324 0.9207 0.0
O259 O 0.4054 0.63149 0.93304 0.0
O260 O 0.40738 0.63233 0.88539 0.0
O261 O 0.38439 0.59216 0.89894 0.0
C262 C 0.41123 0.56427 0.9959 0.0
C263 C 0.39627 0.57219 0.00838 0.0
H264 H 0.36617 0.59033 0.02683 0.0
H265 H 0.34441 0.60979 0.00527 0.0
H266 H 0.44064 0.55944 0.92545 0.0
H267 H 0.43786 0.55109 0.96626 0.0
H268 H 0.42148 0.55601 0.00448 0.0
H269 H 0.39527 0.56997 0.0264 0.0
Mn270 Mn 0.77164 0.39921 0.07084 0.0
Mn271 Mn 0.80414 0.36862 0.08659 0.0
C272 C 0.80819 0.42028 0.0939 0.0
C273 C 0.73854 0.40919 0.07575 0.0
C274 C 0.81144 0.39422 0.04162 0.0
O275 O 0.74542 0.36149 0.0633 0.0
O276 O 0.76894 0.34349 0.07449 0.0
C277 C 0.77002 0.33972 0.12429 0.0
N278 N 0.79423 0.35618 0.11634 0.0
C279 C 0.8141 0.35887 0.15235 0.0
C280 C 0.7894 0.34181 0.16089 0.0
C281 C 0.76726 0.33228 0.14681 0.0
C282 C 0.81562 0.36565 0.12979 0.0
H283 H 0.75295 0.33232 0.11353 0.0
C284 C 0.7481 0.34186 0.06632 0.0
O285 O 0.74875 0.41067 0.05627 0.0
O286 O 0.747 0.40116 0.09219 0.0
N287 N 0.83847 0.38971 0.09897 0.0
C288 C 0.86077 0.40656 0.08831 0.0
C289 C 0.88471 0.41773 0.10003 0.0
C290 C 0.8855 0.41129 0.12249 0.0
C291 C 0.86234 0.39388 0.1331 0.0
C292 C 0.83911 0.38308 0.12048 0.0
H293 H 0.86034 0.41135 0.07097 0.0
O294 O 0.80002 0.43319 0.08238 0.0
O295 O 0.79431 0.39515 0.0922 0.0
O296 O 0.79464 0.40141 0.04444 0.0
O297 O 0.81614 0.38145 0.05614 0.0
C298 C 0.86136 0.38698 0.15573 0.0
C299 C 0.83723 0.3696 0.16539 0.0
H300 H 0.78719 0.33603 0.17825 0.0
H301 H 0.74812 0.3192 0.15329 0.0
H302 H 0.90253 0.43119 0.09174 0.0
H303 H 0.90401 0.41992 0.13149 0.0
H304 H 0.879 0.39515 0.16593 0.0
H305 H 0.83667 0.36468 0.18288 0.0
Mn306 Mn 0.39193 0.7731 0.23323 0.0
Mn307 Mn 0.4551 0.80573 0.25066 0.0
C308 C 0.40616 0.80784 0.25802 0.0
C309 C 0.34862 0.73981 0.23648 0.0
C310 C 0.43687 0.81458 0.20577 0.0
O311 O 0.4047 0.74813 0.22465 0.0
O312 O 0.44609 0.77178 0.23719 0.0
C313 C 0.45056 0.77031 0.28698 0.0
N314 N 0.45774 0.79457 0.27998 0.0
C315 C 0.47453 0.8126 0.31665 0.0
C316 C 0.46746 0.78783 0.32423 0.0
C317 C 0.45533 0.76658 0.30934 0.0
C318 C 0.46921 0.8151 0.2942 0.0
H319 H 0.44128 0.75393 0.27559 0.0
C320 C 0.42748 0.75135 0.22801 0.0
O321 O 0.35777 0.75111 0.21754 0.0
O322 O 0.36495 0.74708 0.25329 0.0
N323 N 0.46728 0.83894 0.26436 0.0
C324 C 0.47205 0.86138 0.2546 0.0
C325 C 0.4842 0.8845 0.26721 0.0
C326 C 0.49152 0.88434 0.28965 0.0
C327 C 0.48647 0.86104 0.29931 0.0
C328 C 0.47465 0.83867 0.28583 0.0
H329 H 0.46675 0.86168 0.23729 0.0
O330 O 0.38517 0.80012 0.24595 0.0
O331 O 0.41814 0.79468 0.25571 0.0
O332 O 0.41288 0.79749 0.20787 0.0
O333 O 0.4543 0.81903 0.22067 0.0
C334 C 0.49247 0.85909 0.32185 0.0
C335 C 0.48637 0.83486 0.33055 0.0
H336 H 0.4711 0.78488 0.34147 0.0
H337 H 0.44972 0.74739 0.31508 0.0
H338 H 0.48801 0.90242 0.25965 0.0
H339 H 0.50088 0.9022 0.29934 0.0
H340 H 0.5015 0.87605 0.33271 0.0
H341 H 0.49077 0.83354 0.34798 0.0
H342 H 0.10496 0.64549 0.27865 0.0
H343 H 0.14596 0.66484 0.25796 0.0
H344 H 0.16062 0.60524 0.28161 0.0
H345 H 0.11955 0.58564 0.30181 0.0
H346 H 0.19197 0.6844 0.28047 0.0
H347 H 0.18595 0.61281 0.21788 0.0
H348 H 0.15736 0.61063 0.23061 0.0
H349 H 0.17622 0.59909 0.24514 0.0
C350 C 0.1164 0.63592 0.27862 0.0
C351 C 0.10911 0.61409 0.29186 0.0
C352 C 0.13993 0.6471 0.26695 0.0
C353 C 0.15639 0.63647 0.26813 0.0
C354 C 0.14812 0.61357 0.28004 0.0
H355 H 0.32366 0.71582 0.27483 0.0
H356 H 0.2766 0.69001 0.2806 0.0
C357 C 0.12469 0.60245 0.2917 0.0
C358 C 0.18366 0.65119 0.26002 0.0
H359 H 0.22936 0.64574 0.2295 0.0
C360 C 0.2 0.67606 0.26904 0.0
C361 C 0.19422 0.64041 0.24507 0.0
C362 C 0.17744 0.61436 0.23394 0.0
C363 C 0.2267 0.68998 0.26425 0.0
C364 C 0.23754 0.67862 0.25032 0.0
C365 C 0.22108 0.65424 0.24048 0.0
C366 C 0.26602 0.69184 0.24615 0.0
C367 C 0.24317 0.71672 0.27431 0.0
C368 C 0.27571 0.70054 0.22467 0.0
C369 C 0.30266 0.71527 0.22129 0.0
C370 C 0.32038 0.72142 0.23933 0.0
C371 C 0.31058 0.71155 0.26059 0.0
C372 C 0.28368 0.69689 0.26395 0.0
H373 H 0.23106 0.72509 0.27982 0.0
H374 H 0.25395 0.71565 0.28919 0.0
H375 H 0.25768 0.72996 0.26212 0.0
H376 H 0.26242 0.69674 0.21069 0.0
H377 H 0.30956 0.72252 0.20469 0.0
H378 H 0.54896 0.11303 0.47109 0.0
H379 H 0.57281 0.1552 0.4533 0.0
H380 H 0.50044 0.14566 0.42689 0.0
H381 H 0.4764 0.10349 0.44503 0.0
H382 H 0.57727 0.17673 0.40971 0.0
H383 H 0.52786 0.20809 0.47088 0.0
H384 H 0.52695 0.17756 0.47294 0.0
H385 H 0.50661 0.1815 0.45271 0.0
C386 C 0.53822 0.11959 0.46091 0.0
C387 C 0.51081 0.10509 0.45959 0.0
C388 C 0.55187 0.1437 0.45076 0.0
C389 C 0.53837 0.15382 0.43917 0.0
C390 C 0.51121 0.13835 0.43605 0.0
H391 H 0.61013 0.30745 0.37901 0.0
H392 H 0.58854 0.26065 0.38416 0.0
C393 C 0.49751 0.11414 0.4462 0.0
C394 C 0.55236 0.18154 0.43293 0.0
H395 H 0.55775 0.23963 0.44674 0.0
C396 C 0.57289 0.19049 0.41763 0.0
C397 C 0.54697 0.19955 0.44366 0.0
C398 C 0.52607 0.19135 0.46111 0.0
C399 C 0.58813 0.21696 0.41276 0.0
C400 C 0.58256 0.23488 0.42337 0.0
C401 C 0.56197 0.22587 0.43858 0.0
C402 C 0.59808 0.2632 0.41951 0.0
C403 C 0.61055 0.22563 0.39683 0.0
C404 C 0.61077 0.28027 0.43762 0.0
C405 C 0.62303 0.30702 0.43476 0.0
C406 C 0.62276 0.3173 0.41373 0.0
C407 C 0.61084 0.3002 0.39542 0.0
C408 C 0.59855 0.2734 0.3983 0.0
H409 H 0.61602 0.21054 0.39422 0.0
H410 H 0.60479 0.22982 0.38034 0.0
H411 H 0.62793 0.24358 0.40315 0.0
H412 H 0.61062 0.27285 0.45416 0.0
H413 H 0.63197 0.31961 0.44923 0.0
H414 H 0.41848 0.50206 0.62047 0.0
H415 H 0.39833 0.5238 0.60132 0.0
H416 H 0.46166 0.59776 0.62364 0.0
H417 H 0.48199 0.5761 0.64277 0.0
H418 H 0.41342 0.58955 0.63614 0.0
H419 H 0.41198 0.56775 0.54567 0.0
H420 H 0.39981 0.53948 0.56262 0.0
H421 H 0.4334 0.56459 0.56553 0.0
C422 C 0.42867 0.52299 0.62055 0.0
C423 C 0.45181 0.53734 0.63319 0.0
C424 C 0.41707 0.53543 0.60963 0.0
C425 C 0.4285 0.56246 0.61098 0.0
C426 C 0.45248 0.57691 0.62237 0.0
H427 H 0.34673 0.64991 0.58216 0.0
H428 H 0.38221 0.64148 0.59189 0.0
C429 C 0.46409 0.5645 0.63325 0.0
C430 C 0.41384 0.57515 0.60304 0.0
H431 H 0.3812 0.58027 0.55774 0.0
C432 C 0.40676 0.58797 0.6189 0.0
C433 C 0.4052 0.5731 0.58057 0.0
C434 C 0.4132 0.56071 0.56256 0.0
C435 C 0.38999 0.5974 0.61321 0.0
C436 C 0.38041 0.59434 0.59093 0.0
C437 C 0.3885 0.58259 0.57484 0.0
C438 C 0.35974 0.60041 0.58453 0.0
C439 C 0.38146 0.60917 0.63139 0.0
C440 C 0.33558 0.58033 0.57678 0.0
C441 C 0.31549 0.58507 0.57113 0.0
C442 C 0.31894 0.61011 0.57304 0.0
C443 C 0.34329 0.63038 0.58065 0.0
C444 C 0.36356 0.62557 0.58628 0.0
H445 H 0.38679 0.60574 0.64839 0.0
H446 H 0.39107 0.63035 0.629 0.0
H447 H 0.36002 0.60117 0.63053 0.0
H448 H 0.33211 0.56077 0.57533 0.0
H449 H 0.29713 0.56887 0.56532 0.0
H450 H 0.91067 0.42327 0.83008 0.0
H451 H 0.86971 0.39904 0.80924 0.0
H452 H 0.90593 0.44322 0.75025 0.0
H453 H 0.94749 0.46814 0.77136 0.0
H454 H 0.85272 0.43556 0.76315 0.0
H455 H 0.85736 0.34523 0.75811 0.0
H456 H 0.86402 0.35994 0.78556 0.0
H457 H 0.8859 0.37657 0.76308 0.0
C458 C 0.90997 0.42805 0.81271 0.0
C459 C 0.93224 0.44782 0.8024 0.0
C460 C 0.88656 0.41406 0.80081 0.0
C461 C 0.88482 0.4193 0.77824 0.0
C462 C 0.90694 0.43896 0.76771 0.0
H463 H 0.74853 0.3067 0.70272 0.0
H464 H 0.79271 0.3401 0.71291 0.0
C465 C 0.93063 0.45302 0.77969 0.0
C466 C 0.85971 0.40366 0.76601 0.0
H467 H 0.81579 0.34127 0.75145 0.0
C468 C 0.84472 0.41501 0.7602 0.0
C469 C 0.84943 0.37692 0.76216 0.0
C470 C 0.86506 0.36392 0.76735 0.0
C471 C 0.81923 0.40003 0.75136 0.0
C472 C 0.80844 0.373 0.74861 0.0
C473 C 0.82391 0.36194 0.75369 0.0
C474 C 0.78117 0.35549 0.74067 0.0
C475 C 0.80412 0.41325 0.74508 0.0
C476 C 0.75976 0.35332 0.75257 0.0
C477 C 0.73422 0.33424 0.7466 0.0
C478 C 0.72978 0.31675 0.72892 0.0
C479 C 0.75123 0.31965 0.71659 0.0
C480 C 0.77656 0.33881 0.72236 0.0
H481 H 0.81734 0.43412 0.74185 0.0
H482 H 0.79168 0.40409 0.72995 0.0
H483 H 0.79129 0.41169 0.75913 0.0
H484 H 0.76282 0.36559 0.76706 0.0
H485 H 0.71813 0.3324 0.75648 0.0
H486 H 0.54394 0.93541 0.95799 0.0
H487 H 0.52385 0.89259 0.94035 0.0
H488 H 0.45088 0.89205 0.93413 0.0
H489 H 0.47078 0.93439 0.95306 0.0
H490 H 0.44213 0.85097 0.95302 0.0
H491 H 0.50282 0.85988 0.88057 0.0
H492 H 0.52321 0.87238 0.90509 0.0
H493 H 0.50569 0.88787 0.89497 0.0
C494 C 0.52391 0.92654 0.95204 0.0
C495 C 0.50896 0.93824 0.95659 0.0
C496 C 0.51239 0.90203 0.94188 0.0
C497 C 0.48583 0.88901 0.93556 0.0
C498 C 0.47138 0.90161 0.93877 0.0
H499 H 0.42148 0.73136 0.87957 0.0
H500 H 0.43541 0.7774 0.88319 0.0
C501 C 0.48277 0.92588 0.94938 0.0
C502 C 0.47243 0.86117 0.92873 0.0
H503 H 0.47926 0.81712 0.897 0.0
C504 C 0.45003 0.84371 0.94042 0.0
C505 C 0.48225 0.85142 0.91206 0.0
C506 C 0.50464 0.86897 0.89731 0.0
C507 C 0.43805 0.81692 0.93674 0.0
C508 C 0.44933 0.80708 0.92158 0.0
C509 C 0.47087 0.82453 0.90899 0.0
C510 C 0.43983 0.77889 0.91932 0.0
C511 C 0.41337 0.79952 0.94918 0.0
C512 C 0.43781 0.76435 0.93835 0.0
C513 C 0.42943 0.73802 0.93636 0.0
C514 C 0.42349 0.72571 0.91522 0.0
C515 C 0.42582 0.74028 0.89611 0.0
C516 C 0.43385 0.76661 0.89815 0.0
H517 H 0.40237 0.80961 0.95308 0.0
H518 H 0.40038 0.78165 0.93939 0.0
H519 H 0.41851 0.79404 0.96535 0.0
H520 H 0.44315 0.77347 0.95479 0.0
H521 H 0.42822 0.72744 0.95138 0.0
H522 H 0.56347 0.47304 0.12459 0.0
H523 H 0.58521 0.45266 0.10539 0.0
H524 H 0.65953 0.52228 0.11571 0.0
H525 H 0.63757 0.54303 0.13366 0.0
H526 H 0.65992 0.50017 0.07766 0.0
H527 H 0.62123 0.42529 0.14322 0.0
H528 H 0.59613 0.4255 0.12638 0.0
H529 H 0.61679 0.45295 0.14411 0.0
C530 C 0.58432 0.48418 0.12199 0.0
C531 C 0.5989 0.50957 0.13044 0.0
C532 C 0.5968 0.47244 0.11136 0.0
C533 C 0.62414 0.4856 0.10979 0.0
C534 C 0.63845 0.51162 0.11683 0.0
H535 H 0.72493 0.42138 0.11553 0.0
H536 H 0.69624 0.43911 0.12167 0.0
C537 C 0.62591 0.52354 0.12698 0.0
C538 C 0.63815 0.4719 0.10263 0.0
H539 H 0.64687 0.42111 0.11548 0.0
C540 C 0.65701 0.48281 0.08586 0.0
C541 C 0.6347 0.44948 0.1136 0.0
C542 C 0.61633 0.43775 0.13297 0.0
C543 C 0.6728 0.4723 0.08008 0.0
C544 C 0.66899 0.4496 0.09078 0.0
C545 C 0.6497 0.43837 0.10715 0.0
C546 C 0.68597 0.43822 0.08661 0.0
C547 C 0.69421 0.48639 0.06336 0.0
C548 C 0.68953 0.43132 0.06489 0.0
C549 C 0.70639 0.42159 0.0613 0.0
C550 C 0.71946 0.41793 0.07943 0.0
C551 C 0.71509 0.42389 0.10121 0.0
C552 C 0.69867 0.43406 0.10473 0.0
H553 H 0.69913 0.50683 0.06159 0.0
H554 H 0.7122 0.48616 0.06832 0.0
H555 H 0.68759 0.47679 0.04669 0.0
H556 H 0.67935 0.43352 0.05068 0.0
H557 H 0.7092 0.41694 0.04434 0.0
H558 H 0.4611 0.93312 0.51048 0.0
H559 H 0.44187 0.89067 0.52814 0.0
H560 H 0.36488 0.87933 0.51582 0.0
H561 H 0.38423 0.92233 0.49934 0.0
H562 H 0.36513 0.85722 0.55357 0.0
H563 H 0.41237 0.82787 0.48899 0.0
H564 H 0.43542 0.85397 0.50657 0.0
H565 H 0.41365 0.8586 0.48845 0.0
C566 C 0.44013 0.92186 0.51231 0.0
C567 C 0.42411 0.93098 0.50376 0.0
C568 C 0.42911 0.89743 0.52204 0.0
C569 C 0.40185 0.88132 0.52264 0.0
C570 C 0.38594 0.89123 0.51545 0.0
H571 H 0.31559 0.71484 0.51627 0.0
H572 H 0.34025 0.7613 0.5098 0.0
C573 C 0.39698 0.91587 0.50615 0.0
C574 C 0.3898 0.85367 0.52921 0.0
H575 H 0.38828 0.79707 0.51636 0.0
C576 C 0.37025 0.84408 0.54547 0.0
C577 C 0.39606 0.83631 0.51836 0.0
C578 C 0.41531 0.8446 0.49947 0.0
C579 C 0.35666 0.81772 0.55101 0.0
C580 C 0.36342 0.80051 0.54058 0.0
C581 C 0.38321 0.8102 0.52454 0.0
C582 C 0.34918 0.77214 0.54487 0.0
C583 C 0.33444 0.8085 0.56725 0.0
C584 C 0.34638 0.7625 0.5667 0.0
C585 C 0.33186 0.73584 0.57046 0.0
C586 C 0.32041 0.71824 0.55242 0.0
C587 C 0.32421 0.72785 0.53054 0.0
C588 C 0.33831 0.75447 0.52682 0.0
H589 H 0.32705 0.82226 0.5686 0.0
H590 H 0.31796 0.78928 0.56212 0.0
H591 H 0.34141 0.80687 0.58414 0.0
H592 H 0.35525 0.77556 0.58087 0.0
H593 H 0.32947 0.72903 0.58751 0.0
H594 H 0.57321 0.46992 0.66417 0.0
H595 H 0.59223 0.44553 0.68043 0.0
H596 H 0.5161 0.38716 0.70205 0.0
H597 H 0.49682 0.41113 0.68525 0.0
H598 H 0.59335 0.42434 0.72226 0.0
H599 H 0.53745 0.34847 0.65747 0.0
H600 H 0.54029 0.37994 0.65685 0.0
H601 H 0.51802 0.35587 0.67571 0.0
C602 C 0.5606 0.45216 0.67283 0.0
C603 C 0.53346 0.44229 0.67315 0.0
C604 C 0.5715 0.43826 0.68214 0.0
C605 C 0.5555 0.41422 0.69197 0.0
C606 C 0.52874 0.40544 0.69416 0.0
H607 H 0.6121 0.31684 0.75099 0.0
H608 H 0.59382 0.34527 0.74586 0.0
C609 C 0.51779 0.41934 0.68479 0.0
C610 C 0.56646 0.39734 0.69772 0.0
H611 H 0.56384 0.34089 0.68233 0.0
C612 C 0.5868 0.406 0.71367 0.0
C613 C 0.55824 0.37365 0.68615 0.0
C614 C 0.53747 0.36395 0.66794 0.0
C615 C 0.59911 0.39157 0.71839 0.0
C616 C 0.59063 0.36773 0.707 0.0
C617 C 0.57024 0.35909 0.69112 0.0
C618 C 0.60307 0.3517 0.71066 0.0
C619 C 0.62159 0.40236 0.73498 0.0
C620 C 0.61412 0.34559 0.69256 0.0
C621 C 0.6244 0.3292 0.6954 0.0
C622 C 0.62377 0.31846 0.71641 0.0
C623 C 0.61304 0.32489 0.73462 0.0
C624 C 0.6027 0.34127 0.73174 0.0
H625 H 0.62979 0.42341 0.73801 0.0
H626 H 0.61465 0.39244 0.75121 0.0
H627 H 0.63742 0.39905 0.72905 0.0
H628 H 0.61457 0.35333 0.67611 0.0
H629 H 0.63248 0.32464 0.68102 0.0
H630 H 0.11271 0.573 0.86146 0.0
H631 H 0.15436 0.59064 0.88218 0.0
H632 H 0.15863 0.52279 0.86399 0.0
H633 H 0.11633 0.50455 0.84497 0.0
H634 H 0.18012 0.53801 0.90199 0.0
H635 H 0.21988 0.62491 0.84885 0.0
H636 H 0.19424 0.62176 0.8666 0.0
H637 H 0.18736 0.59799 0.84484 0.0
C638 C 0.12215 0.56152 0.86281 0.0
C639 C 0.11131 0.53733 0.85195 0.0
C640 C 0.14619 0.5718 0.87419 0.0
C641 C 0.16026 0.55855 0.87395 0.0
C642 C 0.1484 0.53357 0.86438 0.0
H643 H 0.32724 0.62387 0.87296 0.0
H644 H 0.28123 0.6097 0.86531 0.0
C645 C 0.1241 0.52302 0.85362 0.0
C646 C 0.18788 0.57094 0.88215 0.0
H647 H 0.24861 0.62354 0.87552 0.0
C648 C 0.19507 0.55675 0.89621 0.0
C649 C 0.20762 0.59524 0.87432 0.0
C650 C 0.20198 0.61074 0.85765 0.0
C651 C 0.22128 0.56562 0.90207 0.0
C652 C 0.24092 0.59025 0.8948 0.0
C653 C 0.23365 0.6048 0.88128 0.0
C654 C 0.26921 0.60061 0.89984 0.0
C655 C 0.22756 0.5477 0.91491 0.0
C656 C 0.27813 0.60108 0.92183 0.0
C657 C 0.3042 0.60835 0.92604 0.0
C658 C 0.32215 0.61647 0.9085 0.0
C659 C 0.31375 0.61778 0.88676 0.0
C660 C 0.28745 0.60966 0.88242 0.0
H661 H 0.2119 0.52719 0.91283 0.0
H662 H 0.24618 0.54936 0.90937 0.0
H663 H 0.22925 0.55263 0.93304 0.0
H664 H 0.26484 0.59532 0.93574 0.0
H665 H 0.3103 0.60746 0.943 0.0
H666 H 0.61935 0.10638 0.02327 0.0
H667 H 0.63982 0.14821 0.0427 0.0
H668 H 0.57781 0.16062 0.01954 0.0
H669 H 0.55737 0.11876 -0.00013 0.0
H670 H 0.62511 0.19758 0.00556 0.0
H671 H 0.63119 0.18468 0.09656 0.0
H672 H 0.64217 0.16658 0.08044 0.0
H673 H 0.60864 0.15874 0.07816 0.0
C674 C 0.60938 0.11741 0.02326 0.0
C675 C 0.5868 0.10935 0.01001 0.0
C676 C 0.62115 0.14143 0.03435 0.0
C677 C 0.61038 0.15763 0.0326 0.0
C678 C 0.58648 0.14847 0.02113 0.0
H679 H 0.69787 0.32759 0.05295 0.0
H680 H 0.66142 0.28364 0.04597 0.0
C681 C 0.57475 0.12451 0.01 0.0
C682 C 0.6262 0.18537 0.03922 0.0
H683 H 0.66331 0.22601 0.08186 0.0
C684 C 0.63301 0.20388 0.02238 0.0
C685 C 0.63661 0.19357 0.0611 0.0
C686 C 0.62906 0.17484 0.08014 0.0
C687 C 0.6511 0.23011 0.02648 0.0
C688 C 0.66238 0.23814 0.04814 0.0
C689 C 0.65471 0.21982 0.06524 0.0
C690 C 0.6839 0.26491 0.05284 0.0
C691 C 0.6591 0.24872 0.00728 0.0
C692 C 0.70848 0.26894 0.05932 0.0
C693 C 0.72923 0.29389 0.06337 0.0
C694 C 0.72594 0.31553 0.06109 0.0
C695 C 0.70121 0.31145 0.05466 0.0
C696 C 0.68034 0.28634 0.05065 0.0
H697 H 0.65239 0.23856 0.99081 0.0
H698 H 0.65039 0.26126 0.00944 0.0
H699 H 0.68064 0.26134 0.00701 0.0
H700 H 0.7117 0.25272 0.06106 0.0
H701 H 0.7479 0.29613 0.06835 0.0
H702 H 0.54272 0.62648 0.18477 0.0
H703 H 0.52197 0.64963 0.20023 0.0
H704 H 0.44775 0.59134 0.17273 0.0
H705 H 0.46829 0.56775 0.15763 0.0
H706 H 0.49817 0.66805 0.17002 0.0
H707 H 0.42846 0.6068 0.23513 0.0
H708 H 0.45544 0.60288 0.22639 0.0
H709 H 0.42675 0.59088 0.20893 0.0
C710 C 0.5218 0.618 0.1828 0.0
C711 C 0.50717 0.5953 0.16991 0.0
C712 C 0.50999 0.63138 0.19148 0.0
C713 C 0.48331 0.62222 0.18764 0.0
C714 C 0.46828 0.59862 0.17616 0.0
H715 H 0.39518 0.70419 0.20699 0.0
H716 H 0.40632 0.67104 0.19628 0.0
C717 C 0.48008 0.58523 0.16744 0.0
C718 C 0.47223 0.63908 0.1929 0.0
H719 H 0.42728 0.64439 0.22465 0.0
C720 C 0.48268 0.66285 0.18198 0.0
C721 C 0.45168 0.63206 0.20818 0.0
C722 C 0.43996 0.60686 0.2205 0.0
C723 C 0.47349 0.67999 0.18618 0.0
C724 C 0.45359 0.67343 0.20202 0.0
C725 C 0.44253 0.64933 0.2125 0.0
C726 C 0.44592 0.69248 0.20922 0.0
C727 C 0.48528 0.70511 0.17367 0.0
C728 C 0.46432 0.71519 0.22033 0.0
C729 C 0.45813 0.73403 0.22636 0.0
C730 C 0.43326 0.73065 0.22154 0.0
C731 C 0.41455 0.70753 0.21083 0.0
C732 C 0.42083 0.68855 0.20477 0.0
H733 H 0.49474 0.7041 0.15799 0.0
H734 H 0.47025 0.71036 0.16938 0.0
H735 H 0.5004 0.72077 0.18444 0.0
H736 H 0.48365 0.71843 0.22422 0.0
H737 H 0.47306 0.75134 0.2348 0.0
H738 H 0.92529 0.48112 0.32713 0.0
H739 H 0.88211 0.4596 0.34411 0.0
H740 H 0.89294 0.53361 0.36495 0.0
H741 H 0.93569 0.55532 0.34729 0.0
H742 H 0.86096 0.45815 0.38622 0.0
H743 H 0.82884 0.50476 0.32349 0.0
H744 H 0.85948 0.50526 0.32153 0.0
H745 H 0.85642 0.52741 0.34014 0.0
C746 C 0.91863 0.49281 0.33561 0.0
C747 C 0.93381 0.51999 0.33552 0.0
C748 C 0.89397 0.48046 0.34536 0.0
C749 C 0.884 0.49502 0.35526 0.0
C750 C 0.90001 0.52201 0.35693 0.0
H751 H 0.74327 0.47123 0.41355 0.0
H752 H 0.78724 0.48494 0.40126 0.0
C753 C 0.92464 0.5344 0.34709 0.0
C754 C 0.85626 0.48225 0.36221 0.0
H755 H 0.7992 0.48209 0.35258 0.0
C756 C 0.84739 0.46323 0.37877 0.0
C757 C 0.83841 0.48854 0.35217 0.0
C758 C 0.84614 0.5074 0.33318 0.0
C759 C 0.82145 0.4512 0.38622 0.0
C760 C 0.80401 0.45829 0.37677 0.0
C761 C 0.81268 0.47676 0.35982 0.0
C762 C 0.77729 0.44849 0.38537 0.0
C763 C 0.81296 0.43162 0.40462 0.0
C764 C 0.75697 0.42323 0.38057 0.0
C765 C 0.73141 0.41519 0.3875 0.0
C766 C 0.72585 0.43233 0.39932 0.0
C767 C 0.74656 0.45741 0.4044 0.0
C768 C 0.77186 0.46537 0.39743 0.0
H769 H 0.82939 0.42963 0.41142 0.0
H770 H 0.80434 0.43724 0.4185 0.0
H771 H 0.79763 0.4125 0.39803 0.0
H772 H 0.76077 0.40998 0.37108 0.0
H773 H 0.71602 0.39576 0.3833 0.0
H774 H 0.05538 0.56787 0.38313 0.0
H775 H 0.07482 0.57019 0.42033 0.0
H776 H 0.14135 0.6437 0.40374 0.0
H777 H 0.12196 0.6416 0.367 0.0
H778 H 0.12182 0.57167 0.42529 0.0
H779 H 0.12736 0.65686 0.46776 0.0
H780 H 0.10611 0.641 0.44386 0.0
H781 H 0.14015 0.66391 0.43995 0.0
C782 C 0.07381 0.58477 0.38775 0.0
C783 C 0.08732 0.60444 0.37223 0.0
C784 C 0.08491 0.58608 0.4089 0.0
C785 C 0.1094 0.60728 0.41488 0.0
C786 C 0.12223 0.62745 0.39972 0.0
H787 H 0.23599 0.61843 0.4944 0.0
H788 H 0.2029 0.61007 0.46557 0.0
C789 C 0.11127 0.62608 0.37864 0.0
C790 C 0.12329 0.60698 0.43554 0.0
H791 H 0.15732 0.64358 0.48117 0.0
C792 C 0.12921 0.58716 0.43774 0.0
C793 C 0.13283 0.62712 0.4518 0.0
C794 C 0.12607 0.64829 0.45087 0.0
C795 C 0.14533 0.58747 0.45522 0.0
C796 C 0.15616 0.60835 0.47084 0.0
C797 C 0.14927 0.62763 0.46916 0.0
C798 C 0.17529 0.61111 0.48857 0.0
C799 C 0.15033 0.56525 0.45686 0.0
C800 C 0.17115 0.61498 0.51108 0.0
C801 C 0.19023 0.62007 0.52748 0.0
C802 C 0.21359 0.62094 0.52175 0.0
C803 C 0.2177 0.61688 0.49933 0.0
C804 C 0.19875 0.61205 0.48287 0.0
H805 H 0.1351 0.54773 0.44786 0.0
H806 H 0.16943 0.57069 0.44933 0.0
H807 H 0.15075 0.56047 0.47462 0.0
H808 H 0.15336 0.61458 0.51589 0.0
H809 H 0.18688 0.62362 0.54463 0.0
H810 H 0.49978 0.04898 0.54918 0.0
H811 H 0.51717 0.06805 0.5865 0.0
H812 H 0.50666 0.1326 0.57076 0.0
H813 H 0.4891 0.11353 0.53391 0.0
H814 H 0.56194 0.11434 0.59049 0.0
H815 H 0.48399 0.12037 0.63543 0.0
H816 H 0.47736 0.09911 0.61152 0.0
H817 H 0.48782 0.13274 0.6076 0.0
C818 C 0.50043 0.06678 0.55408 0.0
C819 C 0.49333 0.07993 0.53876 0.0
C820 C 0.51038 0.07769 0.57531 0.0
C821 C 0.51296 0.10163 0.58151 0.0
C822 C 0.50433 0.11388 0.56661 0.0
H823 H 0.63266 0.23086 0.65486 0.0
H824 H 0.606 0.19655 0.62759 0.0
C825 C 0.49455 0.10309 0.54548 0.0
C826 C 0.52832 0.11593 0.60172 0.0
H827 H 0.52832 0.15139 0.64688 0.0
C828 C 0.55444 0.12204 0.60307 0.0
C829 C 0.51854 0.1259 0.61817 0.0
C830 C 0.4903 0.11897 0.61825 0.0
C831 C 0.57137 0.1388 0.61978 0.0
C832 C 0.56213 0.15013 0.63546 0.0
C833 C 0.53561 0.143 0.63476 0.0
C834 C 0.57971 0.17005 0.6522 0.0
C835 C 0.59896 0.14402 0.62053 0.0
C836 C 0.5737 0.16688 0.67508 0.0
C837 C 0.58884 0.18659 0.6906 0.0
C838 C 0.6105 0.20966 0.68358 0.0
C839 C 0.61666 0.21283 0.66076 0.0
C840 C 0.60141 0.1932 0.6452 0.0
H841 H 0.60102 0.12881 0.61151 0.0
H842 H 0.61197 0.16278 0.61252 0.0
H843 H 0.60531 0.14494 0.63812 0.0
H844 H 0.55696 0.14934 0.68089 0.0
H845 H 0.58344 0.18396 0.70809 0.0
H846 H 0.49474 0.56651 0.70833 0.0
H847 H 0.48443 0.58003 0.74379 0.0
H848 H 0.42826 0.50068 0.75787 0.0
H849 H 0.43826 0.48704 0.7223 0.0
H850 H 0.4311 0.56817 0.75001 0.0
H851 H 0.46677 0.53151 0.81919 0.0
H852 H 0.48021 0.53697 0.79137 0.0
H853 H 0.44905 0.50912 0.79665 0.0
C854 C 0.48072 0.55187 0.71929 0.0
C855 C 0.46721 0.52573 0.71248 0.0
C856 C 0.47484 0.55962 0.7395 0.0
C857 C 0.45557 0.54136 0.7534 0.0
C858 C 0.44344 0.51504 0.7475 0.0
H859 H 0.37899 0.55704 0.87177 0.0
H860 H 0.39169 0.54029 0.83969 0.0
C861 C 0.44926 0.50726 0.72721 0.0
C862 C 0.44581 0.55017 0.77233 0.0
H863 H 0.44063 0.54957 0.82927 0.0
C864 C 0.43326 0.56421 0.76737 0.0
C865 C 0.44833 0.5446 0.79486 0.0
C866 C 0.46196 0.52987 0.80099 0.0
C867 C 0.42307 0.57281 0.78434 0.0
C868 C 0.42607 0.56778 0.80696 0.0
C869 C 0.43837 0.55345 0.81192 0.0
C870 C 0.41727 0.57786 0.82574 0.0
C871 C 0.40873 0.58677 0.7778 0.0
C872 C 0.4273 0.60454 0.82849 0.0
C873 C 0.4199 0.6142 0.84666 0.0
C874 C 0.40255 0.59738 0.8627 0.0
C875 C 0.39227 0.57059 0.85973 0.0
C876 C 0.39961 0.56095 0.84145 0.0
H877 H 0.40117 0.58203 0.76027 0.0
H878 H 0.39212 0.58186 0.78909 0.0
H879 H 0.42236 0.60793 0.77897 0.0
H880 H 0.44139 0.61801 0.81686 0.0
H881 H 0.42846 0.63493 0.84847 0.0
H882 H 0.95476 0.50687 0.87122 0.0
H883 H 0.93143 0.49787 0.90663 0.0
H884 H 0.95742 0.44438 0.92373 0.0
H885 H 0.98081 0.45338 0.88837 0.0
H886 H 0.89119 0.44705 0.91243 0.0
H887 H 0.96098 0.47933 0.98437 0.0
H888 H 0.97049 0.4923 0.9566 0.0
H889 H 0.96662 0.46129 0.96311 0.0
C890 C 0.95639 0.49404 0.88299 0.0
C891 C 0.96953 0.48077 0.87705 0.0
C892 C 0.94297 0.48881 0.90315 0.0
C893 C 0.94262 0.47041 0.91779 0.0
C894 C 0.95773 0.45894 0.91285 0.0
H895 H 0.84703 0.38062 0.02783 0.0
H896 H 0.87811 0.39919 -0.00259 0.0
C897 C 0.97121 0.46418 0.89266 0.0
C898 C 0.92325 0.46013 0.93599 0.0
H899 H 0.91633 0.44988 0.99232 0.0
C900 C 0.89668 0.44793 0.92995 0.0
C901 C 0.93046 0.46097 0.95874 0.0
C902 C 0.95869 0.47436 0.96619 0.0
C903 C 0.87709 0.43605 0.94596 0.0
C904 C 0.88426 0.43688 0.96875 0.0
C905 C 0.91086 0.44924 0.97483 0.0
C906 C 0.86446 0.42485 0.98651 0.0
C907 C 0.84893 0.42199 0.93817 0.0
C908 C 0.84625 0.43291 0.99037 0.0
C909 C 0.82821 0.42212 0.00762 0.0
C910 C 0.82823 0.40327 0.02157 0.0
C911 C 0.84632 0.395 0.01741 0.0
C912 C 0.86424 0.40571 9e-05 0.0
H913 H 0.84702 0.417 0.92001 0.0
H914 H 0.83731 0.40395 0.94768 0.0
H915 H 0.84045 0.43464 0.94094 0.0
H916 H 0.84638 0.44801 0.98039 0.0
H917 H 0.81484 0.42922 0.01046 0.0
H918 H 0.54866 0.97651 0.04908 0.0
H919 H 0.53272 0.95269 0.08396 0.0
H920 H 0.45338 0.92436 0.06174 0.0
H921 H 0.46917 0.94821 0.02682 0.0
H922 H 0.49676 0.94897 0.11881 0.0
H923 H 0.46055 0.85888 0.06766 0.0
H924 H 0.48287 0.89042 0.05686 0.0
H925 H 0.44882 0.88009 0.05922 0.0
C926 C 0.52784 0.96595 0.05194 0.0
C927 C 0.51015 0.96404 0.03511 0.0
C928 C 0.51876 0.9522 0.07182 0.0
C929 C 0.49189 0.93633 0.07516 0.0
C930 C 0.4742 0.93612 0.05926 0.0
H931 H 0.40562 0.81492 0.17163 0.0
H932 H 0.41838 0.84503 0.14052 0.0
C933 C 0.48324 0.94983 0.03938 0.0
C934 C 0.48249 0.91823 0.09418 0.0
H935 H 0.45272 0.85401 0.10641 0.0
C936 C 0.48707 0.92821 0.11615 0.0
C937 C 0.46992 0.89115 0.0906 0.0
C938 C 0.46538 0.87939 0.06735 0.0
C939 C 0.47917 0.91177 0.1347 0.0
C940 C 0.4669 0.88469 0.13111 0.0
C941 C 0.46211 0.87475 0.10912 0.0
C942 C 0.4593 0.86632 0.14992 0.0
C943 C 0.48368 0.92353 0.15793 0.0
C944 C 0.47817 0.86784 0.1652 0.0
C945 C 0.47098 0.85066 0.183 0.0
C946 C 0.44474 0.83139 0.18581 0.0
C947 C 0.42599 0.82946 0.17005 0.0
C948 C 0.43322 0.84672 0.15227 0.0
H949 H 0.4862 0.94323 0.15764 0.0
H950 H 0.46721 0.91131 0.16908 0.0
H951 H 0.50174 0.92513 0.16522 0.0
H952 H 0.49852 0.88236 0.16337 0.0
H953 H 0.48601 0.85272 0.1947 0.0
H954 H 0.59818 0.54707 0.22346 0.0
H955 H 0.60483 0.53045 0.25871 0.0
H956 H 0.55517 0.45238 0.2345 0.0
H957 H 0.54823 0.46884 0.19919 0.0
H958 H 0.57069 0.49355 0.29209 0.0
H959 H 0.62868 0.46013 0.24396 0.0
H960 H 0.6196 0.48248 0.23268 0.0
H961 H 0.59595 0.44865 0.23387 0.0
C962 C 0.58793 0.52637 0.22591 0.0
C963 C 0.57286 0.50925 0.20845 0.0
C964 C 0.59191 0.51691 0.24602 0.0
C965 C 0.58094 0.49022 0.24897 0.0
C966 C 0.56418 0.47306 0.23234 0.0
H967 H 0.61429 0.40323 0.3471 0.0
H968 H 0.59769 0.41645 0.31527 0.0
C969 C 0.56019 0.48249 0.21224 0.0
C970 C 0.589 0.48052 0.26844 0.0
H971 H 0.6242 0.45155 0.28258 0.0
C972 C 0.58232 0.4843 0.29007 0.0
C973 C 0.60423 0.46852 0.26567 0.0
C974 C 0.61277 0.46483 0.24284 0.0
C975 C 0.59029 0.47615 0.30906 0.0
C976 C 0.60585 0.46448 0.30631 0.0
C977 C 0.61228 0.46049 0.28464 0.0
C978 C 0.61605 0.45661 0.32567 0.0
C979 C 0.58165 0.47977 0.33186 0.0
C980 C 0.63241 0.47493 0.34181 0.0
C981 C 0.64196 0.46747 0.36004 0.0
C982 C 0.63554 0.44153 0.36242 0.0
C983 C 0.61968 0.42336 0.34586 0.0
C984 C 0.61008 0.43086 0.32766 0.0
H985 H 0.5641 0.48191 0.33065 0.0
H986 H 0.57723 0.46322 0.34286 0.0
H987 H 0.59756 0.49759 0.3399 0.0
H988 H 0.63785 0.49505 0.34029 0.0
H989 H 0.65421 0.48205 0.37237 0.0
H990 H 0.42516 0.97094 0.41187 0.0
H991 H 0.42106 0.94901 0.37594 0.0
H992 H 0.47318 0.92366 0.4002 0.0
H993 H 0.47781 0.9459 0.43606 0.0
H994 H 0.46426 0.94759 0.3439 0.0
H995 H 0.39363 0.85829 0.38801 0.0
H996 H 0.40077 0.89009 0.39714 0.0
H997 H 0.42403 0.87979 0.40217 0.0
C998 C 0.43657 0.96158 0.40928 0.0
C999 C 0.45167 0.95997 0.42686 0.0
C1000 C 0.43406 0.94893 0.38879 0.0
C1001 C 0.4466 0.93456 0.38563 0.0
C1002 C 0.46328 0.9346 0.40245 0.0
H1003 H 0.4188 0.80586 0.30142 0.0
H1004 H 0.43001 0.83856 0.33082 0.0
C1005 C 0.46586 0.94727 0.4229 0.0
C1006 C 0.43984 0.91698 0.36604 0.0
H1007 H 0.4037 0.85338 0.35106 0.0
C1008 C 0.45109 0.92695 0.34531 0.0
C1009 C 0.42239 0.89023 0.36806 0.0
C1010 C 0.40929 0.8788 0.38997 0.0
C1011 C 0.44611 0.91061 0.32656 0.0
C1012 C 0.42899 0.88355 0.32864 0.0
C1013 C 0.41716 0.87391 0.34939 0.0
C1014 C 0.42351 0.86452 0.31007 0.0
C1015 C 0.45976 0.92283 0.30507 0.0
C1016 C 0.41577 0.86776 0.28856 0.0
C1017 C 0.41072 0.8496 0.27146 0.0
C1018 C 0.41278 0.82762 0.27568 0.0
C1019 C 0.41868 0.82344 0.29746 0.0
C1020 C 0.42459 0.84195 0.31435 0.0
H1021 H 0.47874 0.9407 0.30844 0.0
H1022 H 0.46336 0.90956 0.29474 0.0
H1023 H 0.44738 0.92835 0.2952 0.0
H1024 H 0.41342 0.8842 0.28498 0.0
H1025 H 0.4051 0.85266 0.25494 0.0
H1026 H 0.56192 0.49021 0.59894 0.0
H1027 H 0.57368 0.48015 0.56245 0.0
H1028 H 0.49352 0.42136 0.55043 0.0
H1029 H 0.48161 0.43156 0.58683 0.0
H1030 H 0.53412 0.40551 0.55111 0.0
H1031 H 0.55631 0.48685 0.4941 0.0
H1032 H 0.56868 0.49547 0.52241 0.0
H1033 H 0.53411 0.4786 0.51725 0.0
C1034 C 0.54669 0.47582 0.58812 0.0
C1035 C 0.52086 0.46174 0.59559 0.0
C1036 C 0.5534 0.47008 0.56732 0.0
C1037 C 0.53444 0.45006 0.55378 0.0
C1038 C 0.50836 0.43701 0.56061 0.0
H1039 H 0.57626 0.40534 0.42682 0.0
H1040 H 0.55226 0.41486 0.45522 0.0
C1041 C 0.50157 0.44297 0.5813 0.0
C1042 C 0.54256 0.4405 0.53426 0.0
H1043 H 0.57008 0.45748 0.48275 0.0
C1044 C 0.54189 0.4168 0.53609 0.0
C1045 C 0.55236 0.45513 0.51466 0.0
C1046 C 0.55281 0.48037 0.51176 0.0
C1047 C 0.5519 0.40787 0.51921 0.0
C1048 C 0.56305 0.42318 0.50009 0.0
C1049 C 0.56228 0.44615 0.49769 0.0
C1050 C 0.57675 0.41637 0.483 0.0
C1051 C 0.55048 0.38214 0.52206 0.0
C1052 C 0.59843 0.41404 0.4892 0.0
C1053 C 0.61211 0.40874 0.47304 0.0
C1054 C 0.60469 0.40623 0.45038 0.0
C1055 C 0.58258 0.40775 0.44421 0.0
C1056 C 0.56892 0.41316 0.46037 0.0
H1057 H 0.53444 0.36944 0.53341 0.0
H1058 H 0.54746 0.37196 0.5057 0.0
H1059 H 0.56907 0.38535 0.52964 0.0
H1060 H 0.6051 0.41685 0.50649 0.0
H1061 H 0.62868 0.40689 0.47821 0.0
H1062 H 0.1342 0.54289 0.78414 0.0
H1063 H 0.15616 0.55553 0.74862 0.0
H1064 H 0.08582 0.54536 0.71692 0.0
H1065 H 0.06375 0.53397 0.75326 0.0
H1066 H 0.14494 0.52705 0.71148 0.0
H1067 H 0.14019 0.61582 0.69408 0.0
H1068 H 0.13275 0.60073 0.72116 0.0
H1069 H 0.10929 0.58717 0.69854 0.0
C1070 C 0.12343 0.54405 0.76987 0.0
C1071 C 0.09729 0.53804 0.7718 0.0
C1072 C 0.13602 0.55098 0.74941 0.0
C1073 C 0.12283 0.55175 0.73011 0.0
C1074 C 0.09659 0.54544 0.7317 0.0
H1075 H 0.19053 0.55535 0.59985 0.0
H1076 H 0.16254 0.54299 0.63238 0.0
C1077 C 0.08392 0.53868 0.75241 0.0
C1078 C 0.13676 0.55818 0.70845 0.0
H1079 H 0.15995 0.60267 0.66673 0.0
C1080 C 0.14811 0.54353 0.70164 0.0
C1081 C 0.14116 0.57987 0.69578 0.0
C1082 C 0.13043 0.59699 0.70279 0.0
C1083 C 0.16418 0.55022 0.68286 0.0
C1084 C 0.16835 0.57171 0.67 0.0
C1085 C 0.15667 0.58616 0.67657 0.0
C1086 C 0.18508 0.57965 0.64988 0.0
C1087 C 0.17734 0.53476 0.67758 0.0
C1088 C 0.20673 0.6047 0.6485 0.0
C1089 C 0.22267 0.61207 0.62964 0.0
C1090 C 0.2173 0.59446 0.61181 0.0
C1091 C 0.19553 0.56939 0.6133 0.0
C1092 C 0.17948 0.5622 0.63198 0.0
H1093 H 0.17841 0.52431 0.69249 0.0
H1094 H 0.16589 0.52012 0.66437 0.0
H1095 H 0.19742 0.54734 0.6714 0.0
H1096 H 0.21139 0.61853 0.6621 0.0
H1097 H 0.23915 0.63155 0.62904 0.0
H1098 H 0.61948 0.13094 0.94279 0.0
H1099 H 0.63053 0.15238 0.90693 0.0
H1100 H 0.57333 0.08173 0.87388 0.0
H1101 H 0.56113 0.06018 0.91038 0.0
H1102 H 0.6499 0.14332 0.87015 0.0
H1103 H 0.55312 0.13308 0.85072 0.0
H1104 H 0.56128 0.12601 0.87794 0.0
H1105 H 0.55297 0.10332 0.85509 0.0
C1106 C 0.60886 0.11995 0.92799 0.0
C1107 C 0.58889 0.094 0.92953 0.0
C1108 C 0.61544 0.13222 0.90742 0.0
C1109 C 0.60248 0.11886 0.88773 0.0
C1110 C 0.58318 0.09261 0.88894 0.0
H1111 H 0.66494 0.19189 0.759 0.0
H1112 H 0.65178 0.16347 0.79112 0.0
C1113 C 0.57639 0.08025 0.90973 0.0
C1114 C 0.60962 0.13296 0.86622 0.0
H1115 H 0.58631 0.15491 0.82441 0.0
C1116 C 0.63596 0.14571 0.86005 0.0
C1117 C 0.59148 0.13638 0.85326 0.0
C1118 C 0.56316 0.12419 0.85961 0.0
C1119 C 0.6448 0.16226 0.84165 0.0
C1120 C 0.62664 0.16553 0.82856 0.0
C1121 C 0.6002 0.15236 0.83443 0.0
C1122 C 0.63476 0.18295 0.809 0.0
C1123 C 0.67369 0.1769 0.83705 0.0
C1124 C 0.62908 0.2031 0.80805 0.0
C1125 C 0.63623 0.21924 0.78946 0.0
C1126 C 0.64927 0.21559 0.77144 0.0
C1127 C 0.65516 0.19552 0.7726 0.0
C1128 C 0.64773 0.17924 0.79105 0.0
H1129 H 0.68542 0.1781 0.85212 0.0
H1130 H 0.67801 0.16668 0.82363 0.0
H1131 H 0.68009 0.19683 0.83142 0.0
H1132 H 0.61905 0.20632 0.82171 0.0
H1133 H 0.63129 0.2344 0.78914 0.0
H1134 H 0.48511 0.54975 0.09373 0.0
H1135 H 0.47587 0.56074 0.05666 0.0
H1136 H 0.55677 0.61939 0.05069 0.0
H1137 H 0.56609 0.60847 0.08783 0.0
H1138 H 0.52097 0.63756 0.04784 0.0
H1139 H 0.49231 0.55393 0.99043 0.0
H1140 H 0.47686 0.54522 0.01723 0.0
H1141 H 0.51166 0.55925 0.01562 0.0
C1142 C 0.50107 0.56433 0.08413 0.0
C1143 C 0.5263 0.57824 0.09358 0.0
C1144 C 0.49581 0.57055 0.06295 0.0
C1145 C 0.51567 0.59081 0.05092 0.0
C1146 C 0.54124 0.60357 0.05967 0.0
H1147 H 0.4706 0.63435 0.92467 0.0
H1148 H 0.49575 0.62453 0.95191 0.0
C1149 C 0.54657 0.59719 0.08079 0.0
C1150 C 0.50882 0.6011 0.03113 0.0
H1151 H 0.47844 0.58382 0.97999 0.0
C1152 C 0.5119 0.62591 0.03287 0.0
C1153 C 0.49734 0.58604 0.01154 0.0
C1154 C 0.49454 0.55971 0.00843 0.0
C1155 C 0.50236 0.63545 0.01612 0.0
C1156 C 0.48916 0.61962 -0.00275 0.0
C1157 C 0.48778 0.59558 0.99477 0.0
C1158 C 0.47507 0.62682 0.98078 0.0
C1159 C 0.50629 0.66228 0.01894 0.0
C1160 C 0.45514 0.63132 0.98798 0.0
C1161 C 0.44082 0.63679 0.9725 0.0
C1162 C 0.4458 0.63728 0.94955 0.0
C1163 C 0.46618 0.63355 0.94232 0.0
C1164 C 0.4805 0.62798 0.95782 0.0
H1165 H 0.52376 0.6747 0.02956 0.0
H1166 H 0.50853 0.6717 0.00251 0.0
H1167 H 0.48908 0.66104 0.02738 0.0
H1168 H 0.45024 0.63004 0.00554 0.0
H1169 H 0.42562 0.64032 0.97842 0.0
H1170 H 0.97456 0.56714 0.24695 0.0
H1171 H 0.9531 0.55108 0.2103 0.0
H1172 H 0.93445 0.47391 0.22763 0.0
H1173 H 0.95595 0.48981 0.26425 0.0
H1174 H 0.9536 0.50364 0.17477 0.0
H1175 H 0.86593 0.49016 0.22038 0.0
H1176 H 0.89799 0.51715 0.22672 0.0
H1177 H 0.89001 0.48524 0.23471 0.0
C1178 C 0.96685 0.54696 0.24258 0.0
C1179 C 0.96677 0.52966 0.25845 0.0
C1180 C 0.95452 0.53782 0.22171 0.0
C1181 C 0.94218 0.51136 0.21645 0.0
C1182 C 0.94399 0.49442 0.23147 0.0
H1183 H 0.8086 0.40813 0.13746 0.0
H1184 H 0.84332 0.43122 0.16537 0.0
C1185 C 0.95621 0.5035 0.25234 0.0
C1186 C 0.92403 0.50073 0.1971 0.0
H1187 H 0.8597 0.4748 0.18338 0.0
C1188 C 0.93304 0.49732 0.17647 0.0
C1189 C 0.89741 0.49284 0.19954 0.0
C1190 C 0.88704 0.49648 0.22147 0.0
C1191 C 0.91579 0.48528 0.15822 0.0
C1192 C 0.8888 0.47657 0.16081 0.0
C1193 C 0.88018 0.48096 0.18139 0.0
C1194 C 0.86874 0.46189 0.14308 0.0
C1195 C 0.9269 0.4818 0.13669 0.0
C1196 C 0.87115 0.47132 0.12121 0.0
C1197 C 0.85173 0.45737 0.10501 0.0
C1198 C 0.82942 0.43399 0.11049 0.0
C1199 C 0.82631 0.42532 0.13256 0.0
C1200 C 0.84599 0.4388 0.14858 0.0
H1201 H 0.94459 0.48026 0.13991 0.0
H1202 H 0.91261 0.46447 0.12712 0.0
H1203 H 0.93273 0.49896 0.1261 0.0
H1204 H 0.88786 0.48959 0.11671 0.0
H1205 H 0.85403 0.46492 0.08823 0.0
loop_
_geom_bond_atom_site_label_1
_geom_bond_atom_site_label_2
_geom_bond_distance
_geom_bond_site_symmetry_2
_ccdc_geom_bond_type
H0 C8 0.930 . S
H1 C11 0.930 . S
H2 C13 0.930 . S
H3 C14 0.970 . S
H4 C14 0.970 . S
H5 C16 0.930 . S
H6 C18 0.930 . S
H7 C20 0.930 . S
C8 H0 0.930 . S
C8 C9 1.382 . S
C8 C10 1.426 . S
C9 C8 1.382 . S
C9 C13 1.389 . S
C10 C8 1.426 . S
C10 C11 1.375 . S
C10 C14 1.532 1_655 S
C11 H1 0.930 . S
C11 C10 1.375 . S
C11 C12 1.416 . S
C12 C11 1.416 . S
C12 C13 1.371 . S
C13 H2 0.930 . S
C13 C9 1.389 . S
C13 C12 1.371 . S
C14 H3 0.970 . S
C14 H4 0.970 . S
C14 C10 1.532 1_455 S
C14 C15 1.499 . S
C15 C14 1.499 . S
C15 C16 1.370 . S
C15 C20 1.415 . S
C16 H5 0.930 . S
C16 C15 1.370 . S
C16 C17 1.407 . S
C17 C16 1.407 . S
C17 C18 1.365 . S
C18 H6 0.930 . S
C18 C17 1.365 . S
C18 C19 1.393 . S
C19 C18 1.393 . S
C19 C20 1.387 . S
C20 H7 0.930 . S
C20 C15 1.415 . S
C20 C19 1.387 . S
H21 C29 0.930 . S
H22 C32 0.930 . S
H23 C34 0.930 . S
H24 C35 0.970 . S
H25 C35 0.970 . S
H26 C37 0.930 . S
H27 C39 0.930 . S
H28 C41 0.930 . S
C29 H21 0.930 . S
C29 C30 1.382 . S
C29 C31 1.426 . S
C30 C29 1.382 . S
C30 C34 1.389 . S
C31 C29 1.426 . S
C31 C32 1.375 . S
C31 C35 1.532 1_565 S
C32 H22 0.930 . S
C32 C31 1.375 . S
C32 C33 1.416 . S
C33 C32 1.416 . S
C33 C34 1.371 . S
C34 H23 0.930 . S
C34 C30 1.389 . S
C34 C33 1.371 . S
C35 H24 0.970 . S
C35 H25 0.970 . S
C35 C31 1.532 1_545 S
C35 C36 1.499 . S
C36 C35 1.499 . S
C36 C37 1.370 . S
C36 C41 1.415 . S
C37 H26 0.930 . S
C37 C36 1.370 . S
C37 C38 1.407 . S
C38 C37 1.407 . S
C38 C39 1.365 . S
C39 H27 0.930 . S
C39 C38 1.365 . S
C39 C40 1.393 . S
C40 C39 1.393 . S
C40 C41 1.387 . S
C41 H28 0.930 . S
C41 C36 1.415 . S
C41 C40 1.387 . S
H42 C50 0.930 . S
H43 C53 0.930 . S
H44 C55 0.930 . S
H45 C56 0.970 . S
H46 C56 0.970 . S
H47 C58 0.930 . S
H48 C60 0.930 . S
H49 C62 0.930 . S
C50 H42 0.930 . S
C50 C51 1.382 . S
C50 C52 1.426 . S
C51 C50 1.382 . S
C51 C55 1.389 . S
C52 C50 1.426 . S
C52 C53 1.375 . S
C52 C56 1.532 . S
C53 H43 0.930 . S
C53 C52 1.375 . S
C53 C54 1.416 . S
C54 C53 1.416 . S
C54 C55 1.371 . S
C55 H44 0.930 . S
C55 C51 1.389 . S
C55 C54 1.371 . S
C56 H45 0.970 . S
C56 H46 0.970 . S
C56 C52 1.532 . S
C56 C57 1.499 . S
C57 C56 1.499 . S
C57 C58 1.370 . S
C57 C62 1.415 . S
C58 H47 0.930 . S
C58 C57 1.370 . S
C58 C59 1.407 . S
C59 C58 1.407 . S
C59 C60 1.365 . S
C60 H48 0.930 . S
C60 C59 1.365 . S
C60 C61 1.393 . S
C61 C60 1.393 . S
C61 C62 1.387 . S
C62 H49 0.930 . S
C62 C57 1.415 . S
C62 C61 1.387 . S
H63 C71 0.930 . S
H64 C74 0.930 . S
H65 C76 0.930 . S
H66 C77 0.970 . S
H67 C77 0.970 . S
H68 C79 0.930 . S
H69 C81 0.930 . S
H70 C83 0.930 . S
C71 H63 0.930 . S
C71 C72 1.382 . S
C71 C73 1.426 . S
C72 C71 1.382 . S
C72 C76 1.389 . S
C73 C71 1.426 . S
C73 C74 1.375 . S
C73 C77 1.532 1_655 S
C74 H64 0.930 . S
C74 C73 1.375 . S
C74 C75 1.416 . S
C75 C74 1.416 . S
C75 C76 1.371 . S
C76 H65 0.930 . S
C76 C72 1.389 . S
C76 C75 1.371 . S
C77 H66 0.970 . S
C77 H67 0.970 . S
C77 C73 1.532 1_455 S
C77 C78 1.499 . S
C78 C77 1.499 . S
C78 C79 1.370 . S
C78 C83 1.415 . S
C79 H68 0.930 . S
C79 C78 1.370 . S
C79 C80 1.407 . S
C80 C79 1.407 . S
C80 C81 1.365 . S
C81 H69 0.930 . S
C81 C80 1.365 . S
C81 C82 1.393 . S
C82 C81 1.393 . S
C82 C83 1.387 . S
C83 H70 0.930 . S
C83 C78 1.415 . S
C83 C82 1.387 . S
H84 C92 0.930 . S
H85 C95 0.930 . S
H86 C97 0.930 . S
H87 C98 0.970 1_554 S
H88 C98 0.970 . S
H89 C100 0.930 1_545 S
H90 C102 0.930 . S
H91 C104 0.930 . S
C92 H84 0.930 . S
C92 C93 1.382 1_554 S
C92 C94 1.426 1_554 S
C93 C92 1.382 1_556 S
C93 C97 1.389 . S
C94 C92 1.426 1_556 S
C94 C95 1.375 . S
C94 C98 1.532 . S
C95 H85 0.930 . S
C95 C94 1.375 . S
C95 C96 1.416 . S
C96 C95 1.416 . S
C96 C97 1.371 . S
C97 H86 0.930 . S
C97 C93 1.389 . S
C97 C96 1.371 . S
C98 H87 0.970 1_556 S
C98 H88 0.970 . S
C98 C94 1.532 . S
C98 C99 1.499 1_545 S
C99 C98 1.499 1_565 S
C99 C100 1.370 1_556 S
C99 C104 1.415 . S
C100 H89 0.930 1_565 S
C100 C99 1.370 1_554 S
C100 C101 1.407 . S
C101 C100 1.407 . S
C101 C102 1.365 . S
C102 H90 0.930 . S
C102 C101 1.365 . S
C102 C103 1.393 1_554 S
C103 C102 1.393 1_556 S
C103 C104 1.387 . S
C104 H91 0.930 . S
C104 C99 1.415 . S
C104 C103 1.387 . S
H105 C113 0.930 . S
H106 C116 0.930 . S
H107 C118 0.930 . S
H108 C119 0.970 . S
H109 C119 0.970 . S
H110 C121 0.930 . S
H111 C123 0.930 . S
H112 C125 0.930 . S
C113 H105 0.930 . S
C113 C114 1.382 . S
C113 C115 1.426 . S
C114 C113 1.382 . S
C114 C118 1.389 . S
C115 C113 1.426 . S
C115 C116 1.375 . S
C115 C119 1.532 . S
C116 H106 0.930 . S
C116 C115 1.375 . S
C116 C117 1.416 . S
C117 C116 1.416 . S
C117 C118 1.371 . S
C118 H107 0.930 . S
C118 C114 1.389 . S
C118 C117 1.371 . S
C119 H108 0.970 . S
C119 H109 0.970 . S
C119 C115 1.532 . S
C119 C120 1.499 . S
C120 C119 1.499 . S
C120 C121 1.370 . S
C120 C125 1.415 . S
C121 H110 0.930 . S
C121 C120 1.370 . S
C121 C122 1.407 . S
C122 C121 1.407 . S
C122 C123 1.365 . S
C123 H111 0.930 . S
C123 C122 1.365 . S
C123 C124 1.393 . S
C124 C123 1.393 . S
C124 C125 1.387 . S
C125 H112 0.930 . S
C125 C120 1.415 . S
C125 C124 1.387 . S
Mn126 O131 2.095 . S
Mn126 O141 2.162 . S
Mn126 O142 2.297 . S
Mn126 O150 2.385 . S
Mn126 O151 2.209 . S
Mn126 O152 2.094 . S
Mn127 O132 2.121 . S
Mn127 N134 2.257 . S
Mn127 N143 2.282 . S
Mn127 O151 2.215 . S
Mn127 O153 2.117 . S
C128 O150 1.234 . S
C128 O151 1.283 . S
C129 O141 1.281 . S
C129 O142 1.236 . S
C130 O152 1.240 . S
C130 O153 1.264 . S
O131 Mn126 2.095 . S
O131 C140 1.250 . S
O132 Mn127 2.121 . S
O132 C140 1.258 . S
C133 N134 1.326 . S
C133 C137 1.460 . S
C133 H139 0.929 . S
N134 Mn127 2.257 . S
N134 C133 1.326 . S
N134 C138 1.362 . S
C135 C136 1.258 . S
C135 C138 1.431 . S
C135 C155 1.449 . S
C136 C135 1.258 . S
C136 C137 1.477 . S
C136 H156 0.931 . S
C137 C133 1.460 . S
C137 C136 1.477 . S
C137 H157 0.930 . S
C138 N134 1.362 . S
C138 C135 1.431 . S
C138 C148 1.476 . S
H139 C133 0.929 . S
C140 O131 1.250 . S
C140 O132 1.258 . S
O141 Mn126 2.162 . S
O141 C129 1.281 . S
O142 Mn126 2.297 . S
O142 C129 1.236 . S
N143 Mn127 2.282 . S
N143 C144 1.328 . S
N143 C148 1.318 . S
C144 N143 1.328 . S
C144 C145 1.457 . S
C144 H149 0.929 . S
C145 C144 1.457 . S
C145 C146 1.291 . S
C145 H158 0.931 . S
C146 C145 1.291 . S
C146 C147 1.373 . S
C146 H159 0.929 . S
C147 C146 1.373 . S
C147 C148 1.396 . S
C147 C154 1.403 . S
C148 C138 1.476 . S
C148 N143 1.318 . S
C148 C147 1.396 . S
H149 C144 0.929 . S
O150 Mn126 2.385 . S
O150 C128 1.234 . S
O151 Mn126 2.209 . S
O151 Mn127 2.215 . S
O151 C128 1.283 . S
O152 Mn126 2.094 . S
O152 C130 1.240 . S
O153 Mn127 2.117 . S
O153 C130 1.264 . S
C154 C147 1.403 . S
C154 C155 1.399 . S
C154 H160 0.929 . S
C155 C135 1.449 . S
C155 C154 1.399 . S
C155 H161 0.930 . S
H156 C136 0.931 . S
H157 C137 0.930 . S
H158 C145 0.931 . S
H159 C146 0.929 . S
H160 C154 0.929 . S
H161 C155 0.930 . S
Mn162 O167 2.095 . S
Mn162 O177 2.162 . S
Mn162 O178 2.297 . S
Mn162 O186 2.385 . S
Mn162 O187 2.209 . S
Mn162 O188 2.094 . S
Mn163 O168 2.121 . S
Mn163 N170 2.257 . S
Mn163 N179 2.282 . S
Mn163 O187 2.215 . S
Mn163 O189 2.117 . S
C164 O186 1.234 . S
C164 O187 1.283 . S
C165 O177 1.281 . S
C165 O178 1.236 . S
C166 O188 1.240 . S
C166 O189 1.264 . S
O167 Mn162 2.095 . S
O167 C176 1.250 . S
O168 Mn163 2.121 . S
O168 C176 1.258 . S
C169 N170 1.326 . S
C169 C173 1.460 . S
C169 H175 0.929 . S
N170 Mn163 2.257 . S
N170 C169 1.326 . S
N170 C174 1.362 . S
C171 C172 1.258 . S
C171 C174 1.431 . S
C171 C191 1.449 . S
C172 C171 1.258 . S
C172 C173 1.477 . S
C172 H192 0.931 . S
C173 C169 1.460 . S
C173 C172 1.477 . S
C173 H193 0.930 . S
C174 N170 1.362 . S
C174 C171 1.431 . S
C174 C184 1.476 . S
H175 C169 0.929 . S
C176 O167 1.250 . S
C176 O168 1.258 . S
O177 Mn162 2.162 . S
O177 C165 1.281 . S
O178 Mn162 2.297 . S
O178 C165 1.236 . S
N179 Mn163 2.282 . S
N179 C180 1.328 . S
N179 C184 1.318 . S
C180 N179 1.328 . S
C180 C181 1.457 . S
C180 H185 0.929 . S
C181 C180 1.457 . S
C181 C182 1.291 . S
C181 H194 0.931 . S
C182 C181 1.291 . S
C182 C183 1.373 . S
C182 H195 0.929 . S
C183 C182 1.373 . S
C183 C184 1.396 . S
C183 C190 1.403 . S
C184 C174 1.476 . S
C184 N179 1.318 . S
C184 C183 1.396 . S
H185 C180 0.929 . S
O186 Mn162 2.385 . S
O186 C164 1.234 . S
O187 Mn162 2.209 . S
O187 Mn163 2.215 . S
O187 C164 1.283 . S
O188 Mn162 2.094 . S
O188 C166 1.240 . S
O189 Mn163 2.117 . S
O189 C166 1.264 . S
C190 C183 1.403 . S
C190 C191 1.399 . S
C190 H196 0.929 . S
C191 C171 1.449 . S
C191 C190 1.399 . S
C191 H197 0.930 . S
H192 C172 0.931 . S
H193 C173 0.930 . S
H194 C181 0.931 . S
H195 C182 0.929 . S
H196 C190 0.929 . S
H197 C191 0.930 . S
Mn198 O203 2.095 . S
Mn198 O213 2.162 . S
Mn198 O214 2.297 . S
Mn198 O222 2.385 . S
Mn198 O223 2.209 . S
Mn198 O224 2.094 . S
Mn199 O204 2.121 . S
Mn199 N206 2.257 . S
Mn199 N215 2.282 . S
Mn199 O223 2.215 . S
Mn199 O225 2.117 . S
C200 O222 1.234 . S
C200 O223 1.283 . S
C201 O213 1.281 . S
C201 O214 1.236 . S
C202 O224 1.240 . S
C202 O225 1.264 . S
O203 Mn198 2.095 . S
O203 C212 1.250 . S
O204 Mn199 2.121 . S
O204 C212 1.258 . S
C205 N206 1.326 . S
C205 C209 1.460 . S
C205 H211 0.929 . S
N206 Mn199 2.257 . S
N206 C205 1.326 . S
N206 C210 1.362 . S
C207 C208 1.258 . S
C207 C210 1.431 . S
C207 C227 1.449 . S
C208 C207 1.258 . S
C208 C209 1.477 . S
C208 H228 0.931 . S
C209 C205 1.460 . S
C209 C208 1.477 . S
C209 H229 0.930 . S
C210 N206 1.362 . S
C210 C207 1.431 . S
C210 C220 1.476 . S
H211 C205 0.929 . S
C212 O203 1.250 . S
C212 O204 1.258 . S
O213 Mn198 2.162 . S
O213 C201 1.281 . S
O214 Mn198 2.297 . S
O214 C201 1.236 . S
N215 Mn199 2.282 . S
N215 C216 1.328 . S
N215 C220 1.318 . S
C216 N215 1.328 . S
C216 C217 1.457 . S
C216 H221 0.929 . S
C217 C216 1.457 . S
C217 C218 1.291 . S
C217 H230 0.931 . S
C218 C217 1.291 . S
C218 C219 1.373 . S
C218 H231 0.929 . S
C219 C218 1.373 . S
C219 C220 1.396 . S
C219 C226 1.403 . S
C220 C210 1.476 . S
C220 N215 1.318 . S
C220 C219 1.396 . S
H221 C216 0.929 . S
O222 Mn198 2.385 . S
O222 C200 1.234 . S
O223 Mn198 2.209 . S
O223 Mn199 2.215 . S
O223 C200 1.283 . S
O224 Mn198 2.094 . S
O224 C202 1.240 . S
O225 Mn199 2.117 . S
O225 C202 1.264 . S
C226 C219 1.403 . S
C226 C227 1.399 . S
C226 H232 0.929 . S
C227 C207 1.449 . S
C227 C226 1.399 . S
C227 H233 0.930 . S
H228 C208 0.931 . S
H229 C209 0.930 . S
H230 C217 0.931 . S
H231 C218 0.929 . S
H232 C226 0.929 . S
H233 C227 0.930 . S
Mn234 O239 2.095 . S
Mn234 O249 2.162 . S
Mn234 O250 2.297 . S
Mn234 O258 2.385 . S
Mn234 O259 2.209 . S
Mn234 O260 2.094 . S
Mn235 O240 2.121 . S
Mn235 N242 2.257 . S
Mn235 N251 2.282 . S
Mn235 O259 2.215 . S
Mn235 O261 2.117 . S
C236 O258 1.234 . S
C236 O259 1.283 . S
C237 O249 1.281 . S
C237 O250 1.236 . S
C238 O260 1.240 . S
C238 O261 1.264 . S
O239 Mn234 2.095 . S
O239 C248 1.250 . S
O240 Mn235 2.121 . S
O240 C248 1.258 . S
C241 N242 1.326 . S
C241 C245 1.460 . S
C241 H247 0.929 . S
N242 Mn235 2.257 . S
N242 C241 1.326 . S
N242 C246 1.362 . S
C243 C244 1.258 . S
C243 C246 1.431 . S
C243 C263 1.449 . S
C244 C243 1.258 . S
C244 C245 1.477 . S
C244 H264 0.931 . S
C245 C241 1.460 . S
C245 C244 1.477 . S
C245 H265 0.930 . S
C246 N242 1.362 . S
C246 C243 1.431 . S
C246 C256 1.476 . S
H247 C241 0.929 . S
C248 O239 1.250 . S
C248 O240 1.258 . S
O249 Mn234 2.162 . S
O249 C237 1.281 . S
O250 Mn234 2.297 . S
O250 C237 1.236 . S
N251 Mn235 2.282 . S
N251 C252 1.328 . S
N251 C256 1.318 . S
C252 N251 1.328 . S
C252 C253 1.457 . S
C252 H257 0.929 . S
C253 C252 1.457 . S
C253 C254 1.291 . S
C253 H266 0.931 . S
C254 C253 1.291 . S
C254 C255 1.373 . S
C254 H267 0.929 . S
C255 C254 1.373 . S
C255 C256 1.396 . S
C255 C262 1.403 . S
C256 C246 1.476 . S
C256 N251 1.318 . S
C256 C255 1.396 . S
H257 C252 0.929 . S
O258 Mn234 2.385 . S
O258 C236 1.234 . S
O259 Mn234 2.209 . S
O259 Mn235 2.215 . S
O259 C236 1.283 . S
O260 Mn234 2.094 . S
O260 C238 1.240 . S
O261 Mn235 2.117 . S
O261 C238 1.264 . S
C262 C255 1.403 . S
C262 C263 1.399 . S
C262 H268 0.929 . S
C263 C243 1.449 . S
C263 C262 1.399 . S
C263 H269 0.930 . S
H264 C244 0.931 . S
H265 C245 0.930 . S
H266 C253 0.931 . S
H267 C254 0.929 . S
H268 C262 0.929 . S
H269 C263 0.930 . S
Mn270 O275 2.095 . S
Mn270 O285 2.162 . S
Mn270 O286 2.297 . S
Mn270 O294 2.385 . S
Mn270 O295 2.209 . S
Mn270 O296 2.094 . S
Mn271 O276 2.121 . S
Mn271 N278 2.257 . S
Mn271 N287 2.282 . S
Mn271 O295 2.215 . S
Mn271 O297 2.117 . S
C272 O294 1.234 . S
C272 O295 1.283 . S
C273 O285 1.281 . S
C273 O286 1.236 . S
C274 O296 1.240 . S
C274 O297 1.264 . S
O275 Mn270 2.095 . S
O275 C284 1.250 . S
O276 Mn271 2.121 . S
O276 C284 1.258 . S
C277 N278 1.326 . S
C277 C281 1.460 . S
C277 H283 0.929 . S
N278 Mn271 2.257 . S
N278 C277 1.326 . S
N278 C282 1.362 . S
C279 C280 1.258 . S
C279 C282 1.431 . S
C279 C299 1.449 . S
C280 C279 1.258 . S
C280 C281 1.477 . S
C280 H300 0.931 . S
C281 C277 1.460 . S
C281 C280 1.477 . S
C281 H301 0.930 . S
C282 N278 1.362 . S
C282 C279 1.431 . S
C282 C292 1.476 . S
H283 C277 0.929 . S
C284 O275 1.250 . S
C284 O276 1.258 . S
O285 Mn270 2.162 . S
O285 C273 1.281 . S
O286 Mn270 2.297 . S
O286 C273 1.236 . S
N287 Mn271 2.282 . S
N287 C288 1.328 . S
N287 C292 1.318 . S
C288 N287 1.328 . S
C288 C289 1.457 . S
C288 H293 0.929 . S
C289 C288 1.457 . S
C289 C290 1.291 . S
C289 H302 0.931 . S
C290 C289 1.291 . S
C290 C291 1.373 . S
C290 H303 0.929 . S
C291 C290 1.373 . S
C291 C292 1.396 . S
C291 C298 1.403 . S
C292 C282 1.476 . S
C292 N287 1.318 . S
C292 C291 1.396 . S
H293 C288 0.929 . S
O294 Mn270 2.385 . S
O294 C272 1.234 . S
O295 Mn270 2.209 . S
O295 Mn271 2.215 . S
O295 C272 1.283 . S
O296 Mn270 2.094 . S
O296 C274 1.240 . S
O297 Mn271 2.117 . S
O297 C274 1.264 . S
C298 C291 1.403 . S
C298 C299 1.399 . S
C298 H304 0.929 . S
C299 C279 1.449 . S
C299 C298 1.399 . S
C299 H305 0.930 . S
H300 C280 0.931 . S
H301 C281 0.930 . S
H302 C289 0.931 . S
H303 C290 0.929 . S
H304 C298 0.929 . S
H305 C299 0.930 . S
Mn306 O311 2.095 . S
Mn306 O321 2.162 . S
Mn306 O322 2.297 . S
Mn306 O330 2.385 . S
Mn306 O331 2.209 . S
Mn306 O332 2.094 . S
Mn307 O312 2.121 . S
Mn307 N314 2.257 . S
Mn307 N323 2.282 . S
Mn307 O331 2.215 . S
Mn307 O333 2.117 . S
C308 O330 1.234 . S
C308 O331 1.283 . S
C309 O321 1.281 . S
C309 O322 1.236 . S
C310 O332 1.240 . S
C310 O333 1.264 . S
O311 Mn306 2.095 . S
O311 C320 1.250 . S
O312 Mn307 2.121 . S
O312 C320 1.258 . S
C313 N314 1.326 . S
C313 C317 1.460 . S
C313 H319 0.929 . S
N314 Mn307 2.257 . S
N314 C313 1.326 . S
N314 C318 1.362 . S
C315 C316 1.258 . S
C315 C318 1.431 . S
C315 C335 1.449 . S
C316 C315 1.258 . S
C316 C317 1.477 . S
C316 H336 0.931 . S
C317 C313 1.460 . S
C317 C316 1.477 . S
C317 H337 0.930 . S
C318 N314 1.362 . S
C318 C315 1.431 . S
C318 C328 1.476 . S
H319 C313 0.929 . S
C320 O311 1.250 . S
C320 O312 1.258 . S
O321 Mn306 2.162 . S
O321 C309 1.281 . S
O322 Mn306 2.297 . S
O322 C309 1.236 . S
N323 Mn307 2.282 . S
N323 C324 1.328 . S
N323 C328 1.318 . S
C324 N323 1.328 . S
C324 C325 1.457 . S
C324 H329 0.929 . S
C325 C324 1.457 . S
C325 C326 1.291 . S
C325 H338 0.931 . S
C326 C325 1.291 . S
C326 C327 1.373 . S
C326 H339 0.929 . S
C327 C326 1.373 . S
C327 C328 1.396 . S
C327 C334 1.403 . S
C328 C318 1.476 . S
C328 N323 1.318 . S
C328 C327 1.396 . S
H329 C324 0.929 . S
O330 Mn306 2.385 . S
O330 C308 1.234 . S
O331 Mn306 2.209 . S
O331 Mn307 2.215 . S
O331 C308 1.283 . S
O332 Mn306 2.094 . S
O332 C310 1.240 . S
O333 Mn307 2.117 . S
O333 C310 1.264 . S
C334 C327 1.403 . S
C334 C335 1.399 . S
C334 H340 0.929 . S
C335 C315 1.449 . S
C335 C334 1.399 . S
C335 H341 0.930 . S
H336 C316 0.931 . S
H337 C317 0.930 . S
H338 C325 0.931 . S
H339 C326 0.929 . S
H340 C334 0.929 . S
H341 C335 0.930 . S
H342 C350 0.929 . S
H343 C352 0.930 . S
H344 C354 0.930 . S
H345 C357 0.929 . S
H346 C360 0.930 . S
H347 C362 0.960 . S
H348 C362 0.960 . S
H349 C362 0.960 . S
C350 H342 0.929 . S
C350 C351 1.377 . S
C350 C352 1.384 . S
C351 C350 1.377 . S
C351 C357 1.390 . S
C352 H343 0.930 . S
C352 C350 1.384 . S
C352 C353 1.372 . S
C353 C352 1.372 . S
C353 C354 1.400 . S
C353 C358 1.490 . S
C354 H344 0.930 . S
C354 C353 1.400 . S
C354 C357 1.386 . S
H355 C371 0.930 . S
H356 C372 0.931 . S
C357 H345 0.929 . S
C357 C351 1.390 . S
C357 C354 1.386 . S
C358 C353 1.490 . S
C358 C360 1.395 . S
C358 C361 1.403 . S
H359 C365 0.930 . S
C360 H346 0.930 . S
C360 C358 1.395 . S
C360 C363 1.403 . S
C361 C358 1.403 . S
C361 C362 1.524 . S
C361 C365 1.400 . S
C362 H347 0.960 . S
C362 H348 0.960 . S
C362 H349 0.960 . S
C362 C361 1.524 . S
C363 C360 1.403 . S
C363 C364 1.392 . S
C363 C367 1.495 . S
C364 C363 1.392 . S
C364 C365 1.385 . S
C364 C366 1.478 . S
C365 H359 0.930 . S
C365 C361 1.400 . S
C365 C364 1.385 . S
C366 C364 1.478 . S
C366 C368 1.381 . S
C366 C372 1.383 . S
C367 C363 1.495 . S
C367 H373 0.959 . S
C367 H374 0.961 . S
C367 H375 0.960 . S
C368 C366 1.381 . S
C368 C369 1.394 . S
C368 H376 0.930 . S
C369 C368 1.394 . S
C369 C370 1.383 . S
C369 H377 0.929 . S
C370 C369 1.383 . S
C370 C371 1.377 . S
C371 H355 0.930 . S
C371 C370 1.377 . S
C371 C372 1.379 . S
C372 H356 0.931 . S
C372 C366 1.383 . S
C372 C371 1.379 . S
H373 C367 0.959 . S
H374 C367 0.961 . S
H375 C367 0.960 . S
H376 C368 0.930 . S
H377 C369 0.929 . S
H378 C386 0.929 . S
H379 C388 0.930 . S
H380 C390 0.930 . S
H381 C393 0.929 . S
H382 C396 0.930 . S
H383 C398 0.960 . S
H384 C398 0.960 . S
H385 C398 0.960 . S
C386 H378 0.929 . S
C386 C387 1.377 . S
C386 C388 1.384 . S
C387 C386 1.377 . S
C387 C393 1.390 . S
C388 H379 0.930 . S
C388 C386 1.384 . S
C388 C389 1.372 . S
C389 C388 1.372 . S
C389 C390 1.400 . S
C389 C394 1.490 . S
C390 H380 0.930 . S
C390 C389 1.400 . S
C390 C393 1.386 . S
H391 C407 0.930 . S
H392 C408 0.931 . S
C393 H381 0.929 . S
C393 C387 1.390 . S
C393 C390 1.386 . S
C394 C389 1.490 . S
C394 C396 1.395 . S
C394 C397 1.403 . S
H395 C401 0.930 . S
C396 H382 0.930 . S
C396 C394 1.395 . S
C396 C399 1.403 . S
C397 C394 1.403 . S
C397 C398 1.524 . S
C397 C401 1.400 . S
C398 H383 0.960 . S
C398 H384 0.960 . S
C398 H385 0.960 . S
C398 C397 1.524 . S
C399 C396 1.403 . S
C399 C400 1.392 . S
C399 C403 1.495 . S
C400 C399 1.392 . S
C400 C401 1.385 . S
C400 C402 1.478 . S
C401 H395 0.930 . S
C401 C397 1.400 . S
C401 C400 1.385 . S
C402 C400 1.478 . S
C402 C404 1.381 . S
C402 C408 1.383 . S
C403 C399 1.495 . S
C403 H409 0.959 . S
C403 H410 0.961 . S
C403 H411 0.960 . S
C404 C402 1.381 . S
C404 C405 1.394 . S
C404 H412 0.930 . S
C405 C404 1.394 . S
C405 C406 1.383 . S
C405 H413 0.929 . S
C406 C405 1.383 . S
C406 C407 1.377 . S
C407 H391 0.930 . S
C407 C406 1.377 . S
C407 C408 1.379 . S
C408 H392 0.931 . S
C408 C402 1.383 . S
C408 C407 1.379 . S
H409 C403 0.959 . S
H410 C403 0.961 . S
H411 C403 0.960 . S
H412 C404 0.930 . S
H413 C405 0.929 . S
H414 C422 0.929 . S
H415 C424 0.930 . S
H416 C426 0.930 . S
H417 C429 0.929 . S
H418 C432 0.930 . S
H419 C434 0.960 . S
H420 C434 0.960 . S
H421 C434 0.960 . S
C422 H414 0.929 . S
C422 C423 1.377 . S
C422 C424 1.384 . S
C423 C422 1.377 . S
C423 C429 1.390 . S
C424 H415 0.930 . S
C424 C422 1.384 . S
C424 C425 1.372 . S
C425 C424 1.372 . S
C425 C426 1.400 . S
C425 C430 1.490 . S
C426 H416 0.930 . S
C426 C425 1.400 . S
C426 C429 1.386 . S
H427 C443 0.930 . S
H428 C444 0.931 . S
C429 H417 0.929 . S
C429 C423 1.390 . S
C429 C426 1.386 . S
C430 C425 1.490 . S
C430 C432 1.395 . S
C430 C433 1.403 . S
H431 C437 0.930 . S
C432 H418 0.930 . S
C432 C430 1.395 . S
C432 C435 1.403 . S
C433 C430 1.403 . S
C433 C434 1.524 . S
C433 C437 1.400 . S
C434 H419 0.960 . S
C434 H420 0.960 . S
C434 H421 0.960 . S
C434 C433 1.524 . S
C435 C432 1.403 . S
C435 C436 1.392 . S
C435 C439 1.495 . S
C436 C435 1.392 . S
C436 C437 1.385 . S
C436 C438 1.478 . S
C437 H431 0.930 . S
C437 C433 1.400 . S
C437 C436 1.385 . S
C438 C436 1.478 . S
C438 C440 1.381 . S
C438 C444 1.383 . S
C439 C435 1.495 . S
C439 H445 0.959 . S
C439 H446 0.961 . S
C439 H447 0.960 . S
C440 C438 1.381 . S
C440 C441 1.394 . S
C440 H448 0.930 . S
C441 C440 1.394 . S
C441 C442 1.383 . S
C441 H449 0.929 . S
C442 C441 1.383 . S
C442 C443 1.377 . S
C443 H427 0.930 . S
C443 C442 1.377 . S
C443 C444 1.379 . S
C444 H428 0.931 . S
C444 C438 1.383 . S
C444 C443 1.379 . S
H445 C439 0.959 . S
H446 C439 0.961 . S
H447 C439 0.960 . S
H448 C440 0.930 . S
H449 C441 0.929 . S
H450 C458 0.929 . S
H451 C460 0.930 . S
H452 C462 0.930 . S
H453 C465 0.929 . S
H454 C468 0.930 . S
H455 C470 0.960 . S
H456 C470 0.960 . S
H457 C470 0.960 . S
C458 H450 0.929 . S
C458 C459 1.377 . S
C458 C460 1.384 . S
C459 C458 1.377 . S
C459 C465 1.390 . S
C460 H451 0.930 . S
C460 C458 1.384 . S
C460 C461 1.372 . S
C461 C460 1.372 . S
C461 C462 1.400 . S
C461 C466 1.490 . S
C462 H452 0.930 . S
C462 C461 1.400 . S
C462 C465 1.386 . S
H463 C479 0.930 . S
H464 C480 0.931 . S
C465 H453 0.929 . S
C465 C459 1.390 . S
C465 C462 1.386 . S
C466 C461 1.490 . S
C466 C468 1.395 . S
C466 C469 1.403 . S
H467 C473 0.930 . S
C468 H454 0.930 . S
C468 C466 1.395 . S
C468 C471 1.403 . S
C469 C466 1.403 . S
C469 C470 1.524 . S
C469 C473 1.400 . S
C470 H455 0.960 . S
C470 H456 0.960 . S
C470 H457 0.960 . S
C470 C469 1.524 . S
C471 C468 1.403 . S
C471 C472 1.392 . S
C471 C475 1.495 . S
C472 C471 1.392 . S
C472 C473 1.385 . S
C472 C474 1.478 . S
C473 H467 0.930 . S
C473 C469 1.400 . S
C473 C472 1.385 . S
C474 C472 1.478 . S
C474 C476 1.381 . S
C474 C480 1.383 . S
C475 C471 1.495 . S
C475 H481 0.959 . S
C475 H482 0.961 . S
C475 H483 0.960 . S
C476 C474 1.381 . S
C476 C477 1.394 . S
C476 H484 0.930 . S
C477 C476 1.394 . S
C477 C478 1.383 . S
C477 H485 0.929 . S
C478 C477 1.383 . S
C478 C479 1.377 . S
C479 H463 0.930 . S
C479 C478 1.377 . S
C479 C480 1.379 . S
C480 H464 0.931 . S
C480 C474 1.383 . S
C480 C479 1.379 . S
H481 C475 0.959 . S
H482 C475 0.961 . S
H483 C475 0.960 . S
H484 C476 0.930 . S
H485 C477 0.929 . S
H486 C494 0.929 1_554 S
H487 C496 0.930 . S
H488 C498 0.930 . S
H489 C501 0.929 . S
H490 C504 0.930 . S
H491 C506 0.960 . S
H492 C506 0.960 . S
H493 C506 0.960 . S
C494 H486 0.929 1_556 S
C494 C495 1.377 . S
C494 C496 1.384 . S
C495 C494 1.377 . S
C495 C501 1.390 . S
C496 H487 0.930 . S
C496 C494 1.384 . S
C496 C497 1.372 . S
C497 C496 1.372 . S
C497 C498 1.400 . S
C497 C502 1.490 . S
C498 H488 0.930 . S
C498 C497 1.400 . S
C498 C501 1.386 . S
H499 C515 0.930 . S
H500 C516 0.931 . S
C501 H489 0.929 . S
C501 C495 1.390 . S
C501 C498 1.386 . S
C502 C497 1.490 . S
C502 C504 1.395 . S
C502 C505 1.403 . S
H503 C509 0.930 . S
C504 H490 0.930 . S
C504 C502 1.395 . S
C504 C507 1.403 . S
C505 C502 1.403 . S
C505 C506 1.524 . S
C505 C509 1.400 . S
C506 H491 0.960 . S
C506 H492 0.960 . S
C506 H493 0.960 . S
C506 C505 1.524 . S
C507 C504 1.403 . S
C507 C508 1.392 . S
C507 C511 1.495 . S
C508 C507 1.392 . S
C508 C509 1.385 . S
C508 C510 1.478 . S
C509 H503 0.930 . S
C509 C505 1.400 . S
C509 C508 1.385 . S
C510 C508 1.478 . S
C510 C512 1.381 . S
C510 C516 1.383 . S
C511 C507 1.495 . S
C511 H517 0.959 . S
C511 H518 0.961 . S
C511 H519 0.960 . S
C512 C510 1.381 . S
C512 C513 1.394 . S
C512 H520 0.930 . S
C513 C512 1.394 . S
C513 C514 1.383 . S
C513 H521 0.929 . S
C514 C513 1.383 . S
C514 C515 1.377 . S
C515 H499 0.930 . S
C515 C514 1.377 . S
C515 C516 1.379 . S
C516 H500 0.931 . S
C516 C510 1.383 . S
C516 C515 1.379 . S
H517 C511 0.959 . S
H518 C511 0.961 . S
H519 C511 0.960 . S
H520 C512 0.930 . S
H521 C513 0.929 . S
H522 C530 0.929 . S
H523 C532 0.930 . S
H524 C534 0.930 . S
H525 C537 0.929 . S
H526 C540 0.930 . S
H527 C542 0.960 . S
H528 C542 0.960 . S
H529 C542 0.960 . S
C530 H522 0.929 . S
C530 C531 1.377 . S
C530 C532 1.384 . S
C531 C530 1.377 . S
C531 C537 1.390 . S
C532 H523 0.930 . S
C532 C530 1.384 . S
C532 C533 1.372 . S
C533 C532 1.372 . S
C533 C534 1.400 . S
C533 C538 1.490 . S
C534 H524 0.930 . S
C534 C533 1.400 . S
C534 C537 1.386 . S
H535 C551 0.930 . S
H536 C552 0.931 . S
C537 H525 0.929 . S
C537 C531 1.390 . S
C537 C534 1.386 . S
C538 C533 1.490 . S
C538 C540 1.395 . S
C538 C541 1.403 . S
H539 C545 0.930 . S
C540 H526 0.930 . S
C540 C538 1.395 . S
C540 C543 1.403 . S
C541 C538 1.403 . S
C541 C542 1.524 . S
C541 C545 1.400 . S
C542 H527 0.960 . S
C542 H528 0.960 . S
C542 H529 0.960 . S
C542 C541 1.524 . S
C543 C540 1.403 . S
C543 C544 1.392 . S
C543 C547 1.495 . S
C544 C543 1.392 . S
C544 C545 1.385 . S
C544 C546 1.478 . S
C545 H539 0.930 . S
C545 C541 1.400 . S
C545 C544 1.385 . S
C546 C544 1.478 . S
C546 C548 1.381 . S
C546 C552 1.383 . S
C547 C543 1.495 . S
C547 H553 0.959 . S
C547 H554 0.961 . S
C547 H555 0.960 . S
C548 C546 1.381 . S
C548 C549 1.394 . S
C548 H556 0.930 . S
C549 C548 1.394 . S
C549 C550 1.383 . S
C549 H557 0.929 . S
C550 C549 1.383 . S
C550 C551 1.377 . S
C551 H535 0.930 . S
C551 C550 1.377 . S
C551 C552 1.379 . S
C552 H536 0.931 . S
C552 C546 1.383 . S
C552 C551 1.379 . S
H553 C547 0.959 . S
H554 C547 0.961 . S
H555 C547 0.960 . S
H556 C548 0.930 . S
H557 C549 0.929 . S
H558 C566 0.929 . S
H559 C568 0.930 . S
H560 C570 0.930 . S
H561 C573 0.929 . S
H562 C576 0.930 . S
H563 C578 0.960 . S
H564 C578 0.960 . S
H565 C578 0.960 . S
C566 H558 0.929 . S
C566 C567 1.377 . S
C566 C568 1.384 . S
C567 C566 1.377 . S
C567 C573 1.390 . S
C568 H559 0.930 . S
C568 C566 1.384 . S
C568 C569 1.372 . S
C569 C568 1.372 . S
C569 C570 1.400 . S
C569 C574 1.490 . S
C570 H560 0.930 . S
C570 C569 1.400 . S
C570 C573 1.386 . S
H571 C587 0.930 . S
H572 C588 0.931 . S
C573 H561 0.929 . S
C573 C567 1.390 . S
C573 C570 1.386 . S
C574 C569 1.490 . S
C574 C576 1.395 . S
C574 C577 1.403 . S
H575 C581 0.930 . S
C576 H562 0.930 . S
C576 C574 1.395 . S
C576 C579 1.403 . S
C577 C574 1.403 . S
C577 C578 1.524 . S
C577 C581 1.400 . S
C578 H563 0.960 . S
C578 H564 0.960 . S
C578 H565 0.960 . S
C578 C577 1.524 . S
C579 C576 1.403 . S
C579 C580 1.392 . S
C579 C583 1.495 . S
C580 C579 1.392 . S
C580 C581 1.385 . S
C580 C582 1.478 . S
C581 H575 0.930 . S
C581 C577 1.400 . S
C581 C580 1.385 . S
C582 C580 1.478 . S
C582 C584 1.381 . S
C582 C588 1.383 . S
C583 C579 1.495 . S
C583 H589 0.959 . S
C583 H590 0.961 . S
C583 H591 0.960 . S
C584 C582 1.381 . S
C584 C585 1.394 . S
C584 H592 0.930 . S
C585 C584 1.394 . S
C585 C586 1.383 . S
C585 H593 0.929 . S
C586 C585 1.383 . S
C586 C587 1.377 . S
C587 H571 0.930 . S
C587 C586 1.377 . S
C587 C588 1.379 . S
C588 H572 0.931 . S
C588 C582 1.383 . S
C588 C587 1.379 . S
H589 C583 0.959 . S
H590 C583 0.961 . S
H591 C583 0.960 . S
H592 C584 0.930 . S
H593 C585 0.929 . S
H594 C602 0.929 . S
H595 C604 0.930 . S
H596 C606 0.930 . S
H597 C609 0.929 . S
H598 C612 0.930 . S
H599 C614 0.960 . S
H600 C614 0.960 . S
H601 C614 0.960 . S
C602 H594 0.929 . S
C602 C603 1.377 . S
C602 C604 1.384 . S
C603 C602 1.377 . S
C603 C609 1.390 . S
C604 H595 0.930 . S
C604 C602 1.384 . S
C604 C605 1.372 . S
C605 C604 1.372 . S
C605 C606 1.400 . S
C605 C610 1.490 . S
C606 H596 0.930 . S
C606 C605 1.400 . S
C606 C609 1.386 . S
H607 C623 0.930 . S
H608 C624 0.931 . S
C609 H597 0.929 . S
C609 C603 1.390 . S
C609 C606 1.386 . S
C610 C605 1.490 . S
C610 C612 1.395 . S
C610 C613 1.403 . S
H611 C617 0.930 . S
C612 H598 0.930 . S
C612 C610 1.395 . S
C612 C615 1.403 . S
C613 C610 1.403 . S
C613 C614 1.524 . S
C613 C617 1.400 . S
C614 H599 0.960 . S
C614 H600 0.960 . S
C614 H601 0.960 . S
C614 C613 1.524 . S
C615 C612 1.403 . S
C615 C616 1.392 . S
C615 C619 1.495 . S
C616 C615 1.392 . S
C616 C617 1.385 . S
C616 C618 1.478 . S
C617 H611 0.930 . S
C617 C613 1.400 . S
C617 C616 1.385 . S
C618 C616 1.478 . S
C618 C620 1.381 . S
C618 C624 1.383 . S
C619 C615 1.495 . S
C619 H625 0.959 . S
C619 H626 0.961 . S
C619 H627 0.960 . S
C620 C618 1.381 . S
C620 C621 1.394 . S
C620 H628 0.930 . S
C621 C620 1.394 . S
C621 C622 1.383 . S
C621 H629 0.929 . S
C622 C621 1.383 . S
C622 C623 1.377 . S
C623 H607 0.930 . S
C623 C622 1.377 . S
C623 C624 1.379 . S
C624 H608 0.931 . S
C624 C618 1.383 . S
C624 C623 1.379 . S
H625 C619 0.959 . S
H626 C619 0.961 . S
H627 C619 0.960 . S
H628 C620 0.930 . S
H629 C621 0.929 . S
H630 C638 0.929 . S
H631 C640 0.930 . S
H632 C642 0.930 . S
H633 C645 0.929 . S
H634 C648 0.930 . S
H635 C650 0.960 . S
H636 C650 0.960 . S
H637 C650 0.960 . S
C638 H630 0.929 . S
C638 C639 1.377 . S
C638 C640 1.384 . S
C639 C638 1.377 . S
C639 C645 1.390 . S
C640 H631 0.930 . S
C640 C638 1.384 . S
C640 C641 1.372 . S
C641 C640 1.372 . S
C641 C642 1.400 . S
C641 C646 1.490 . S
C642 H632 0.930 . S
C642 C641 1.400 . S
C642 C645 1.386 . S
H643 C659 0.930 . S
H644 C660 0.931 . S
C645 H633 0.929 . S
C645 C639 1.390 . S
C645 C642 1.386 . S
C646 C641 1.490 . S
C646 C648 1.395 . S
C646 C649 1.403 . S
H647 C653 0.930 . S
C648 H634 0.930 . S
C648 C646 1.395 . S
C648 C651 1.403 . S
C649 C646 1.403 . S
C649 C650 1.524 . S
C649 C653 1.400 . S
C650 H635 0.960 . S
C650 H636 0.960 . S
C650 H637 0.960 . S
C650 C649 1.524 . S
C651 C648 1.403 . S
C651 C652 1.392 . S
C651 C655 1.495 . S
C652 C651 1.392 . S
C652 C653 1.385 . S
C652 C654 1.478 . S
C653 H647 0.930 . S
C653 C649 1.400 . S
C653 C652 1.385 . S
C654 C652 1.478 . S
C654 C656 1.381 . S
C654 C660 1.383 . S
C655 C651 1.495 . S
C655 H661 0.959 . S
C655 H662 0.961 . S
C655 H663 0.960 . S
C656 C654 1.381 . S
C656 C657 1.394 . S
C656 H664 0.930 . S
C657 C656 1.394 . S
C657 C658 1.383 . S
C657 H665 0.929 . S
C658 C657 1.383 . S
C658 C659 1.377 . S
C659 H643 0.930 . S
C659 C658 1.377 . S
C659 C660 1.379 . S
C660 H644 0.931 . S
C660 C654 1.383 . S
C660 C659 1.379 . S
H661 C655 0.959 . S
H662 C655 0.961 . S
H663 C655 0.960 . S
H664 C656 0.930 . S
H665 C657 0.929 . S
H666 C674 0.929 . S
H667 C676 0.930 . S
H668 C678 0.930 . S
H669 C681 0.929 . S
H670 C684 0.930 . S
H671 C686 0.960 . S
H672 C686 0.960 . S
H673 C686 0.960 . S
C674 H666 0.929 . S
C674 C675 1.377 1_556 S
C674 C676 1.384 . S
C675 C674 1.377 1_554 S
C675 C681 1.390 . S
C676 H667 0.930 . S
C676 C674 1.384 . S
C676 C677 1.372 1_556 S
C677 C676 1.372 1_554 S
C677 C678 1.400 . S
C677 C682 1.490 . S
C678 H668 0.930 . S
C678 C677 1.400 . S
C678 C681 1.386 . S
H679 C695 0.930 . S
H680 C696 0.931 . S
C681 H669 0.929 . S
C681 C675 1.390 . S
C681 C678 1.386 . S
C682 C677 1.490 . S
C682 C684 1.395 . S
C682 C685 1.403 . S
H683 C689 0.930 . S
C684 H670 0.930 . S
C684 C682 1.395 . S
C684 C687 1.403 . S
C685 C682 1.403 . S
C685 C686 1.524 . S
C685 C689 1.400 . S
C686 H671 0.960 . S
C686 H672 0.960 . S
C686 H673 0.960 . S
C686 C685 1.524 . S
C687 C684 1.403 . S
C687 C688 1.392 . S
C687 C691 1.495 . S
C688 C687 1.392 . S
C688 C689 1.385 . S
C688 C690 1.478 . S
C689 H683 0.930 . S
C689 C685 1.400 . S
C689 C688 1.385 . S
C690 C688 1.478 . S
C690 C692 1.381 . S
C690 C696 1.383 . S
C691 C687 1.495 . S
C691 H697 0.959 . S
C691 H698 0.961 . S
C691 H699 0.960 . S
C692 C690 1.381 . S
C692 C693 1.394 . S
C692 H700 0.930 . S
C693 C692 1.394 . S
C693 C694 1.383 . S
C693 H701 0.929 . S
C694 C693 1.383 . S
C694 C695 1.377 . S
C695 H679 0.930 . S
C695 C694 1.377 . S
C695 C696 1.379 . S
C696 H680 0.931 . S
C696 C690 1.383 . S
C696 C695 1.379 . S
H697 C691 0.959 . S
H698 C691 0.961 . S
H699 C691 0.960 . S
H700 C692 0.930 . S
H701 C693 0.929 . S
H702 C710 0.929 . S
H703 C712 0.930 . S
H704 C714 0.930 . S
H705 C717 0.929 . S
H706 C720 0.930 . S
H707 C722 0.960 . S
H708 C722 0.960 . S
H709 C722 0.960 . S
C710 H702 0.929 . S
C710 C711 1.377 . S
C710 C712 1.384 . S
C711 C710 1.377 . S
C711 C717 1.390 . S
C712 H703 0.930 . S
C712 C710 1.384 . S
C712 C713 1.372 . S
C713 C712 1.372 . S
C713 C714 1.400 . S
C713 C718 1.490 . S
C714 H704 0.930 . S
C714 C713 1.400 . S
C714 C717 1.386 . S
H715 C731 0.930 . S
H716 C732 0.931 . S
C717 H705 0.929 . S
C717 C711 1.390 . S
C717 C714 1.386 . S
C718 C713 1.490 . S
C718 C720 1.395 . S
C718 C721 1.403 . S
H719 C725 0.930 . S
C720 H706 0.930 . S
C720 C718 1.395 . S
C720 C723 1.403 . S
C721 C718 1.403 . S
C721 C722 1.524 . S
C721 C725 1.400 . S
C722 H707 0.960 . S
C722 H708 0.960 . S
C722 H709 0.960 . S
C722 C721 1.524 . S
C723 C720 1.403 . S
C723 C724 1.392 . S
C723 C727 1.495 . S
C724 C723 1.392 . S
C724 C725 1.385 . S
C724 C726 1.478 . S
C725 H719 0.930 . S
C725 C721 1.400 . S
C725 C724 1.385 . S
C726 C724 1.478 . S
C726 C728 1.381 . S
C726 C732 1.383 . S
C727 C723 1.495 . S
C727 H733 0.959 . S
C727 H734 0.961 . S
C727 H735 0.960 . S
C728 C726 1.381 . S
C728 C729 1.394 . S
C728 H736 0.930 . S
C729 C728 1.394 . S
C729 C730 1.383 . S
C729 H737 0.929 . S
C730 C729 1.383 . S
C730 C731 1.377 . S
C731 H715 0.930 . S
C731 C730 1.377 . S
C731 C732 1.379 . S
C732 H716 0.931 . S
C732 C726 1.383 . S
C732 C731 1.379 . S
H733 C727 0.959 . S
H734 C727 0.961 . S
H735 C727 0.960 . S
H736 C728 0.930 . S
H737 C729 0.929 . S
H738 C746 0.929 . S
H739 C748 0.930 . S
H740 C750 0.930 . S
H741 C753 0.929 . S
H742 C756 0.930 . S
H743 C758 0.960 . S
H744 C758 0.960 . S
H745 C758 0.960 . S
C746 H738 0.929 . S
C746 C747 1.377 . S
C746 C748 1.384 . S
C747 C746 1.377 . S
C747 C753 1.390 . S
C748 H739 0.930 . S
C748 C746 1.384 . S
C748 C749 1.372 . S
C749 C748 1.372 . S
C749 C750 1.400 . S
C749 C754 1.490 . S
C750 H740 0.930 . S
C750 C749 1.400 . S
C750 C753 1.386 . S
H751 C767 0.930 . S
H752 C768 0.931 . S
C753 H741 0.929 . S
C753 C747 1.390 . S
C753 C750 1.386 . S
C754 C749 1.490 . S
C754 C756 1.395 . S
C754 C757 1.403 . S
H755 C761 0.930 . S
C756 H742 0.930 . S
C756 C754 1.395 . S
C756 C759 1.403 . S
C757 C754 1.403 . S
C757 C758 1.524 . S
C757 C761 1.400 . S
C758 H743 0.960 . S
C758 H744 0.960 . S
C758 H745 0.960 . S
C758 C757 1.524 . S
C759 C756 1.403 . S
C759 C760 1.392 . S
C759 C763 1.495 . S
C760 C759 1.392 . S
C760 C761 1.385 . S
C760 C762 1.478 . S
C761 H755 0.930 . S
C761 C757 1.400 . S
C761 C760 1.385 . S
C762 C760 1.478 . S
C762 C764 1.381 . S
C762 C768 1.383 . S
C763 C759 1.495 . S
C763 H769 0.959 . S
C763 H770 0.961 . S
C763 H771 0.960 . S
C764 C762 1.381 . S
C764 C765 1.394 . S
C764 H772 0.930 . S
C765 C764 1.394 . S
C765 C766 1.383 . S
C765 H773 0.929 . S
C766 C765 1.383 . S
C766 C767 1.377 . S
C767 H751 0.930 . S
C767 C766 1.377 . S
C767 C768 1.379 . S
C768 H752 0.931 . S
C768 C762 1.383 . S
C768 C767 1.379 . S
H769 C763 0.959 . S
H770 C763 0.961 . S
H771 C763 0.960 . S
H772 C764 0.930 . S
H773 C765 0.929 . S
H774 C782 0.929 . S
H775 C784 0.930 . S
H776 C786 0.930 . S
H777 C789 0.929 . S
H778 C792 0.930 . S
H779 C794 0.960 . S
H780 C794 0.960 . S
H781 C794 0.960 . S
C782 H774 0.929 . S
C782 C783 1.377 . S
C782 C784 1.384 . S
C783 C782 1.377 . S
C783 C789 1.390 . S
C784 H775 0.930 . S
C784 C782 1.384 . S
C784 C785 1.372 . S
C785 C784 1.372 . S
C785 C786 1.400 . S
C785 C790 1.490 . S
C786 H776 0.930 . S
C786 C785 1.400 . S
C786 C789 1.386 . S
H787 C803 0.930 . S
H788 C804 0.931 . S
C789 H777 0.929 . S
C789 C783 1.390 . S
C789 C786 1.386 . S
C790 C785 1.490 . S
C790 C792 1.395 . S
C790 C793 1.403 . S
H791 C797 0.930 . S
C792 H778 0.930 . S
C792 C790 1.395 . S
C792 C795 1.403 . S
C793 C790 1.403 . S
C793 C794 1.524 . S
C793 C797 1.400 . S
C794 H779 0.960 . S
C794 H780 0.960 . S
C794 H781 0.960 . S
C794 C793 1.524 . S
C795 C792 1.403 . S
C795 C796 1.392 . S
C795 C799 1.495 . S
C796 C795 1.392 . S
C796 C797 1.385 . S
C796 C798 1.478 . S
C797 H791 0.930 . S
C797 C793 1.400 . S
C797 C796 1.385 . S
C798 C796 1.478 . S
C798 C800 1.381 . S
C798 C804 1.383 . S
C799 C795 1.495 . S
C799 H805 0.959 . S
C799 H806 0.961 . S
C799 H807 0.960 . S
C800 C798 1.381 . S
C800 C801 1.394 . S
C800 H808 0.930 . S
C801 C800 1.394 . S
C801 C802 1.383 . S
C801 H809 0.929 . S
C802 C801 1.383 . S
C802 C803 1.377 . S
C803 H787 0.930 . S
C803 C802 1.377 . S
C803 C804 1.379 . S
C804 H788 0.931 . S
C804 C798 1.383 . S
C804 C803 1.379 . S
H805 C799 0.959 . S
H806 C799 0.961 . S
H807 C799 0.960 . S
H808 C800 0.930 . S
H809 C801 0.929 . S
H810 C818 0.929 . S
H811 C820 0.930 . S
H812 C822 0.930 . S
H813 C825 0.929 . S
H814 C828 0.930 . S
H815 C830 0.960 . S
H816 C830 0.960 . S
H817 C830 0.960 . S
C818 H810 0.929 . S
C818 C819 1.377 . S
C818 C820 1.384 . S
C819 C818 1.377 . S
C819 C825 1.390 . S
C820 H811 0.930 . S
C820 C818 1.384 . S
C820 C821 1.372 . S
C821 C820 1.372 . S
C821 C822 1.400 . S
C821 C826 1.490 . S
C822 H812 0.930 . S
C822 C821 1.400 . S
C822 C825 1.386 . S
H823 C839 0.930 . S
H824 C840 0.931 . S
C825 H813 0.929 . S
C825 C819 1.390 . S
C825 C822 1.386 . S
C826 C821 1.490 . S
C826 C828 1.395 . S
C826 C829 1.403 . S
H827 C833 0.930 . S
C828 H814 0.930 . S
C828 C826 1.395 . S
C828 C831 1.403 . S
C829 C826 1.403 . S
C829 C830 1.524 . S
C829 C833 1.400 . S
C830 H815 0.960 . S
C830 H816 0.960 . S
C830 H817 0.960 . S
C830 C829 1.524 . S
C831 C828 1.403 . S
C831 C832 1.392 . S
C831 C835 1.495 . S
C832 C831 1.392 . S
C832 C833 1.385 . S
C832 C834 1.478 . S
C833 H827 0.930 . S
C833 C829 1.400 . S
C833 C832 1.385 . S
C834 C832 1.478 . S
C834 C836 1.381 . S
C834 C840 1.383 . S
C835 C831 1.495 . S
C835 H841 0.959 . S
C835 H842 0.961 . S
C835 H843 0.960 . S
C836 C834 1.381 . S
C836 C837 1.394 . S
C836 H844 0.930 . S
C837 C836 1.394 . S
C837 C838 1.383 . S
C837 H845 0.929 . S
C838 C837 1.383 . S
C838 C839 1.377 . S
C839 H823 0.930 . S
C839 C838 1.377 . S
C839 C840 1.379 . S
C840 H824 0.931 . S
C840 C834 1.383 . S
C840 C839 1.379 . S
H841 C835 0.959 . S
H842 C835 0.961 . S
H843 C835 0.960 . S
H844 C836 0.930 . S
H845 C837 0.929 . S
H846 C854 0.929 . S
H847 C856 0.930 . S
H848 C858 0.930 . S
H849 C861 0.929 . S
H850 C864 0.930 . S
H851 C866 0.960 . S
H852 C866 0.960 . S
H853 C866 0.960 . S
C854 H846 0.929 . S
C854 C855 1.377 . S
C854 C856 1.384 . S
C855 C854 1.377 . S
C855 C861 1.390 . S
C856 H847 0.930 . S
C856 C854 1.384 . S
C856 C857 1.372 . S
C857 C856 1.372 . S
C857 C858 1.400 . S
C857 C862 1.490 . S
C858 H848 0.930 . S
C858 C857 1.400 . S
C858 C861 1.386 . S
H859 C875 0.930 . S
H860 C876 0.931 . S
C861 H849 0.929 . S
C861 C855 1.390 . S
C861 C858 1.386 . S
C862 C857 1.490 . S
C862 C864 1.395 . S
C862 C865 1.403 . S
H863 C869 0.930 . S
C864 H850 0.930 . S
C864 C862 1.395 . S
C864 C867 1.403 . S
C865 C862 1.403 . S
C865 C866 1.524 . S
C865 C869 1.400 . S
C866 H851 0.960 . S
C866 H852 0.960 . S
C866 H853 0.960 . S
C866 C865 1.524 . S
C867 C864 1.403 . S
C867 C868 1.392 . S
C867 C871 1.495 . S
C868 C867 1.392 . S
C868 C869 1.385 . S
C868 C870 1.478 . S
C869 H863 0.930 . S
C869 C865 1.400 . S
C869 C868 1.385 . S
C870 C868 1.478 . S
C870 C872 1.381 . S
C870 C876 1.383 . S
C871 C867 1.495 . S
C871 H877 0.959 . S
C871 H878 0.961 . S
C871 H879 0.960 . S
C872 C870 1.381 . S
C872 C873 1.394 . S
C872 H880 0.930 . S
C873 C872 1.394 . S
C873 C874 1.383 . S
C873 H881 0.929 . S
C874 C873 1.383 . S
C874 C875 1.377 . S
C875 H859 0.930 . S
C875 C874 1.377 . S
C875 C876 1.379 . S
C876 H860 0.931 . S
C876 C870 1.383 . S
C876 C875 1.379 . S
H877 C871 0.959 . S
H878 C871 0.961 . S
H879 C871 0.960 . S
H880 C872 0.930 . S
H881 C873 0.929 . S
H882 C890 0.929 . S
H883 C892 0.930 . S
H884 C894 0.930 . S
H885 C897 0.929 . S
H886 C900 0.930 . S
H887 C902 0.960 . S
H888 C902 0.960 . S
H889 C902 0.960 . S
C890 H882 0.929 . S
C890 C891 1.377 . S
C890 C892 1.384 . S
C891 C890 1.377 . S
C891 C897 1.390 . S
C892 H883 0.930 . S
C892 C890 1.384 . S
C892 C893 1.372 . S
C893 C892 1.372 . S
C893 C894 1.400 . S
C893 C898 1.490 . S
C894 H884 0.930 . S
C894 C893 1.400 . S
C894 C897 1.386 . S
H895 C911 0.930 . S
H896 C912 0.931 . S
C897 H885 0.929 . S
C897 C891 1.390 . S
C897 C894 1.386 . S
C898 C893 1.490 . S
C898 C900 1.395 . S
C898 C901 1.403 . S
H899 C905 0.930 . S
C900 H886 0.930 . S
C900 C898 1.395 . S
C900 C903 1.403 . S
C901 C898 1.403 . S
C901 C902 1.524 . S
C901 C905 1.400 . S
C902 H887 0.960 . S
C902 H888 0.960 . S
C902 H889 0.960 . S
C902 C901 1.524 . S
C903 C900 1.403 . S
C903 C904 1.392 . S
C903 C907 1.495 . S
C904 C903 1.392 . S
C904 C905 1.385 . S
C904 C906 1.478 . S
C905 H899 0.930 . S
C905 C901 1.400 . S
C905 C904 1.385 . S
C906 C904 1.478 . S
C906 C908 1.381 . S
C906 C912 1.383 . S
C907 C903 1.495 . S
C907 H913 0.959 . S
C907 H914 0.961 . S
C907 H915 0.960 . S
C908 C906 1.381 . S
C908 C909 1.394 . S
C908 H916 0.930 . S
C909 C908 1.394 . S
C909 C910 1.383 1_556 S
C909 H917 0.929 . S
C910 C909 1.383 1_554 S
C910 C911 1.377 . S
C911 H895 0.930 . S
C911 C910 1.377 . S
C911 C912 1.379 1_554 S
C912 H896 0.931 . S
C912 C906 1.383 . S
C912 C911 1.379 1_556 S
H913 C907 0.959 . S
H914 C907 0.961 . S
H915 C907 0.960 . S
H916 C908 0.930 . S
H917 C909 0.929 . S
H918 C926 0.929 . S
H919 C928 0.930 . S
H920 C930 0.930 . S
H921 C933 0.929 . S
H922 C936 0.930 . S
H923 C938 0.960 . S
H924 C938 0.960 . S
H925 C938 0.960 . S
C926 H918 0.929 . S
C926 C927 1.377 . S
C926 C928 1.384 . S
C927 C926 1.377 . S
C927 C933 1.390 . S
C928 H919 0.930 . S
C928 C926 1.384 . S
C928 C929 1.372 . S
C929 C928 1.372 . S
C929 C930 1.400 . S
C929 C934 1.490 . S
C930 H920 0.930 . S
C930 C929 1.400 . S
C930 C933 1.386 . S
H931 C947 0.930 . S
H932 C948 0.931 . S
C933 H921 0.929 . S
C933 C927 1.390 . S
C933 C930 1.386 . S
C934 C929 1.490 . S
C934 C936 1.395 . S
C934 C937 1.403 . S
H935 C941 0.930 . S
C936 H922 0.930 . S
C936 C934 1.395 . S
C936 C939 1.403 . S
C937 C934 1.403 . S
C937 C938 1.524 . S
C937 C941 1.400 . S
C938 H923 0.960 . S
C938 H924 0.960 . S
C938 H925 0.960 . S
C938 C937 1.524 . S
C939 C936 1.403 . S
C939 C940 1.392 . S
C939 C943 1.495 . S
C940 C939 1.392 . S
C940 C941 1.385 . S
C940 C942 1.478 . S
C941 H935 0.930 . S
C941 C937 1.400 . S
C941 C940 1.385 . S
C942 C940 1.478 . S
C942 C944 1.381 . S
C942 C948 1.383 . S
C943 C939 1.495 . S
C943 H949 0.959 . S
C943 H950 0.961 . S
C943 H951 0.960 . S
C944 C942 1.381 . S
C944 C945 1.394 . S
C944 H952 0.930 . S
C945 C944 1.394 . S
C945 C946 1.383 . S
C945 H953 0.929 . S
C946 C945 1.383 . S
C946 C947 1.377 . S
C947 H931 0.930 . S
C947 C946 1.377 . S
C947 C948 1.379 . S
C948 H932 0.931 . S
C948 C942 1.383 . S
C948 C947 1.379 . S
H949 C943 0.959 . S
H950 C943 0.961 . S
H951 C943 0.960 . S
H952 C944 0.930 . S
H953 C945 0.929 . S
H954 C962 0.929 . S
H955 C964 0.930 . S
H956 C966 0.930 . S
H957 C969 0.929 . S
H958 C972 0.930 . S
H959 C974 0.960 . S
H960 C974 0.960 . S
H961 C974 0.960 . S
C962 H954 0.929 . S
C962 C963 1.377 . S
C962 C964 1.384 . S
C963 C962 1.377 . S
C963 C969 1.390 . S
C964 H955 0.930 . S
C964 C962 1.384 . S
C964 C965 1.372 . S
C965 C964 1.372 . S
C965 C966 1.400 . S
C965 C970 1.490 . S
C966 H956 0.930 . S
C966 C965 1.400 . S
C966 C969 1.386 . S
H967 C983 0.930 . S
H968 C984 0.931 . S
C969 H957 0.929 . S
C969 C963 1.390 . S
C969 C966 1.386 . S
C970 C965 1.490 . S
C970 C972 1.395 . S
C970 C973 1.403 . S
H971 C977 0.930 . S
C972 H958 0.930 . S
C972 C970 1.395 . S
C972 C975 1.403 . S
C973 C970 1.403 . S
C973 C974 1.524 . S
C973 C977 1.400 . S
C974 H959 0.960 . S
C974 H960 0.960 . S
C974 H961 0.960 . S
C974 C973 1.524 . S
C975 C972 1.403 . S
C975 C976 1.392 . S
C975 C979 1.495 . S
C976 C975 1.392 . S
C976 C977 1.385 . S
C976 C978 1.478 . S
C977 H971 0.930 . S
C977 C973 1.400 . S
C977 C976 1.385 . S
C978 C976 1.478 . S
C978 C980 1.381 . S
C978 C984 1.383 . S
C979 C975 1.495 . S
C979 H985 0.959 . S
C979 H986 0.961 . S
C979 H987 0.960 . S
C980 C978 1.381 . S
C980 C981 1.394 . S
C980 H988 0.930 . S
C981 C980 1.394 . S
C981 C982 1.383 . S
C981 H989 0.929 . S
C982 C981 1.383 . S
C982 C983 1.377 . S
C983 H967 0.930 . S
C983 C982 1.377 . S
C983 C984 1.379 . S
C984 H968 0.931 . S
C984 C978 1.383 . S
C984 C983 1.379 . S
H985 C979 0.959 . S
H986 C979 0.961 . S
H987 C979 0.960 . S
H988 C980 0.930 . S
H989 C981 0.929 . S
H990 C998 0.929 . S
H991 C1000 0.930 . S
H992 C1002 0.930 . S
H993 C1005 0.929 . S
H994 C1008 0.930 . S
H995 C1010 0.960 . S
H996 C1010 0.960 . S
H997 C1010 0.960 . S
C998 H990 0.929 . S
C998 C999 1.377 . S
C998 C1000 1.384 . S
C999 C998 1.377 . S
C999 C1005 1.390 . S
C1000 H991 0.930 . S
C1000 C998 1.384 . S
C1000 C1001 1.372 . S
C1001 C1000 1.372 . S
C1001 C1002 1.400 . S
C1001 C1006 1.490 . S
C1002 H992 0.930 . S
C1002 C1001 1.400 . S
C1002 C1005 1.386 . S
H1003 C1019 0.930 . S
H1004 C1020 0.931 . S
C1005 H993 0.929 . S
C1005 C999 1.390 . S
C1005 C1002 1.386 . S
C1006 C1001 1.490 . S
C1006 C1008 1.395 . S
C1006 C1009 1.403 . S
H1007 C1013 0.930 . S
C1008 H994 0.930 . S
C1008 C1006 1.395 . S
C1008 C1011 1.403 . S
C1009 C1006 1.403 . S
C1009 C1010 1.524 . S
C1009 C1013 1.400 . S
C1010 H995 0.960 . S
C1010 H996 0.960 . S
C1010 H997 0.960 . S
C1010 C1009 1.524 . S
C1011 C1008 1.403 . S
C1011 C1012 1.392 . S
C1011 C1015 1.495 . S
C1012 C1011 1.392 . S
C1012 C1013 1.385 . S
C1012 C1014 1.478 . S
C1013 H1007 0.930 . S
C1013 C1009 1.400 . S
C1013 C1012 1.385 . S
C1014 C1012 1.478 . S
C1014 C1016 1.381 . S
C1014 C1020 1.383 . S
C1015 C1011 1.495 . S
C1015 H1021 0.959 . S
C1015 H1022 0.961 . S
C1015 H1023 0.960 . S
C1016 C1014 1.381 . S
C1016 C1017 1.394 . S
C1016 H1024 0.930 . S
C1017 C1016 1.394 . S
C1017 C1018 1.383 . S
C1017 H1025 0.929 . S
C1018 C1017 1.383 . S
C1018 C1019 1.377 . S
C1019 H1003 0.930 . S
C1019 C1018 1.377 . S
C1019 C1020 1.379 . S
C1020 H1004 0.931 . S
C1020 C1014 1.383 . S
C1020 C1019 1.379 . S
H1021 C1015 0.959 . S
H1022 C1015 0.961 . S
H1023 C1015 0.960 . S
H1024 C1016 0.930 . S
H1025 C1017 0.929 . S
H1026 C1034 0.929 . S
H1027 C1036 0.930 . S
H1028 C1038 0.930 . S
H1029 C1041 0.929 . S
H1030 C1044 0.930 . S
H1031 C1046 0.960 . S
H1032 C1046 0.960 . S
H1033 C1046 0.960 . S
C1034 H1026 0.929 . S
C1034 C1035 1.377 . S
C1034 C1036 1.384 . S
C1035 C1034 1.377 . S
C1035 C1041 1.390 . S
C1036 H1027 0.930 . S
C1036 C1034 1.384 . S
C1036 C1037 1.372 . S
C1037 C1036 1.372 . S
C1037 C1038 1.400 . S
C1037 C1042 1.490 . S
C1038 H1028 0.930 . S
C1038 C1037 1.400 . S
C1038 C1041 1.386 . S
H1039 C1055 0.930 . S
H1040 C1056 0.931 . S
C1041 H1029 0.929 . S
C1041 C1035 1.390 . S
C1041 C1038 1.386 . S
C1042 C1037 1.490 . S
C1042 C1044 1.395 . S
C1042 C1045 1.403 . S
H1043 C1049 0.930 . S
C1044 H1030 0.930 . S
C1044 C1042 1.395 . S
C1044 C1047 1.403 . S
C1045 C1042 1.403 . S
C1045 C1046 1.524 . S
C1045 C1049 1.400 . S
C1046 H1031 0.960 . S
C1046 H1032 0.960 . S
C1046 H1033 0.960 . S
C1046 C1045 1.524 . S
C1047 C1044 1.403 . S
C1047 C1048 1.392 . S
C1047 C1051 1.495 . S
C1048 C1047 1.392 . S
C1048 C1049 1.385 . S
C1048 C1050 1.478 . S
C1049 H1043 0.930 . S
C1049 C1045 1.400 . S
C1049 C1048 1.385 . S
C1050 C1048 1.478 . S
C1050 C1052 1.381 . S
C1050 C1056 1.383 . S
C1051 C1047 1.495 . S
C1051 H1057 0.959 . S
C1051 H1058 0.961 . S
C1051 H1059 0.960 . S
C1052 C1050 1.381 . S
C1052 C1053 1.394 . S
C1052 H1060 0.930 . S
C1053 C1052 1.394 . S
C1053 C1054 1.383 . S
C1053 H1061 0.929 . S
C1054 C1053 1.383 . S
C1054 C1055 1.377 . S
C1055 H1039 0.930 . S
C1055 C1054 1.377 . S
C1055 C1056 1.379 . S
C1056 H1040 0.931 . S
C1056 C1050 1.383 . S
C1056 C1055 1.379 . S
H1057 C1051 0.959 . S
H1058 C1051 0.961 . S
H1059 C1051 0.960 . S
H1060 C1052 0.930 . S
H1061 C1053 0.929 . S
H1062 C1070 0.929 . S
H1063 C1072 0.930 . S
H1064 C1074 0.930 . S
H1065 C1077 0.929 . S
H1066 C1080 0.930 . S
H1067 C1082 0.960 . S
H1068 C1082 0.960 . S
H1069 C1082 0.960 . S
C1070 H1062 0.929 . S
C1070 C1071 1.377 . S
C1070 C1072 1.384 . S
C1071 C1070 1.377 . S
C1071 C1077 1.390 . S
C1072 H1063 0.930 . S
C1072 C1070 1.384 . S
C1072 C1073 1.372 . S
C1073 C1072 1.372 . S
C1073 C1074 1.400 . S
C1073 C1078 1.490 . S
C1074 H1064 0.930 . S
C1074 C1073 1.400 . S
C1074 C1077 1.386 . S
H1075 C1091 0.930 . S
H1076 C1092 0.931 . S
C1077 H1065 0.929 . S
C1077 C1071 1.390 . S
C1077 C1074 1.386 . S
C1078 C1073 1.490 . S
C1078 C1080 1.395 . S
C1078 C1081 1.403 . S
H1079 C1085 0.930 . S
C1080 H1066 0.930 . S
C1080 C1078 1.395 . S
C1080 C1083 1.403 . S
C1081 C1078 1.403 . S
C1081 C1082 1.524 . S
C1081 C1085 1.400 . S
C1082 H1067 0.960 . S
C1082 H1068 0.960 . S
C1082 H1069 0.960 . S
C1082 C1081 1.524 . S
C1083 C1080 1.403 . S
C1083 C1084 1.392 . S
C1083 C1087 1.495 . S
C1084 C1083 1.392 . S
C1084 C1085 1.385 . S
C1084 C1086 1.478 . S
C1085 H1079 0.930 . S
C1085 C1081 1.400 . S
C1085 C1084 1.385 . S
C1086 C1084 1.478 . S
C1086 C1088 1.381 . S
C1086 C1092 1.383 . S
C1087 C1083 1.495 . S
C1087 H1093 0.959 . S
C1087 H1094 0.961 . S
C1087 H1095 0.960 . S
C1088 C1086 1.381 . S
C1088 C1089 1.394 . S
C1088 H1096 0.930 . S
C1089 C1088 1.394 . S
C1089 C1090 1.383 . S
C1089 H1097 0.929 . S
C1090 C1089 1.383 . S
C1090 C1091 1.377 . S
C1091 H1075 0.930 . S
C1091 C1090 1.377 . S
C1091 C1092 1.379 . S
C1092 H1076 0.931 . S
C1092 C1086 1.383 . S
C1092 C1091 1.379 . S
H1093 C1087 0.959 . S
H1094 C1087 0.961 . S
H1095 C1087 0.960 . S
H1096 C1088 0.930 . S
H1097 C1089 0.929 . S
H1098 C1106 0.929 . S
H1099 C1108 0.930 . S
H1100 C1110 0.930 . S
H1101 C1113 0.929 . S
H1102 C1116 0.930 . S
H1103 C1118 0.960 . S
H1104 C1118 0.960 . S
H1105 C1118 0.960 . S
C1106 H1098 0.929 . S
C1106 C1107 1.377 . S
C1106 C1108 1.384 . S
C1107 C1106 1.377 . S
C1107 C1113 1.390 . S
C1108 H1099 0.930 . S
C1108 C1106 1.384 . S
C1108 C1109 1.372 . S
C1109 C1108 1.372 . S
C1109 C1110 1.400 . S
C1109 C1114 1.490 . S
C1110 H1100 0.930 . S
C1110 C1109 1.400 . S
C1110 C1113 1.386 . S
H1111 C1127 0.930 . S
H1112 C1128 0.931 . S
C1113 H1101 0.929 . S
C1113 C1107 1.390 . S
C1113 C1110 1.386 . S
C1114 C1109 1.490 . S
C1114 C1116 1.395 . S
C1114 C1117 1.403 . S
H1115 C1121 0.930 . S
C1116 H1102 0.930 . S
C1116 C1114 1.395 . S
C1116 C1119 1.403 . S
C1117 C1114 1.403 . S
C1117 C1118 1.524 . S
C1117 C1121 1.400 . S
C1118 H1103 0.960 . S
C1118 H1104 0.960 . S
C1118 H1105 0.960 . S
C1118 C1117 1.524 . S
C1119 C1116 1.403 . S
C1119 C1120 1.392 . S
C1119 C1123 1.495 . S
C1120 C1119 1.392 . S
C1120 C1121 1.385 . S
C1120 C1122 1.478 . S
C1121 H1115 0.930 . S
C1121 C1117 1.400 . S
C1121 C1120 1.385 . S
C1122 C1120 1.478 . S
C1122 C1124 1.381 . S
C1122 C1128 1.383 . S
C1123 C1119 1.495 . S
C1123 H1129 0.959 . S
C1123 H1130 0.961 . S
C1123 H1131 0.960 . S
C1124 C1122 1.381 . S
C1124 C1125 1.394 . S
C1124 H1132 0.930 . S
C1125 C1124 1.394 . S
C1125 C1126 1.383 . S
C1125 H1133 0.929 . S
C1126 C1125 1.383 . S
C1126 C1127 1.377 . S
C1127 H1111 0.930 . S
C1127 C1126 1.377 . S
C1127 C1128 1.379 . S
C1128 H1112 0.931 . S
C1128 C1122 1.383 . S
C1128 C1127 1.379 . S
H1129 C1123 0.959 . S
H1130 C1123 0.961 . S
H1131 C1123 0.960 . S
H1132 C1124 0.930 . S
H1133 C1125 0.929 . S
H1134 C1142 0.929 . S
H1135 C1144 0.930 . S
H1136 C1146 0.930 . S
H1137 C1149 0.929 . S
H1138 C1152 0.930 . S
H1139 C1154 0.960 . S
H1140 C1154 0.960 . S
H1141 C1154 0.960 . S
C1142 H1134 0.929 . S
C1142 C1143 1.377 . S
C1142 C1144 1.384 . S
C1143 C1142 1.377 . S
C1143 C1149 1.390 . S
C1144 H1135 0.930 . S
C1144 C1142 1.384 . S
C1144 C1145 1.372 . S
C1145 C1144 1.372 . S
C1145 C1146 1.400 . S
C1145 C1150 1.490 . S
C1146 H1136 0.930 . S
C1146 C1145 1.400 . S
C1146 C1149 1.386 . S
H1147 C1163 0.930 . S
H1148 C1164 0.936 . S
C1149 H1137 0.929 . S
C1149 C1143 1.390 . S
C1149 C1146 1.386 . S
C1150 C1145 1.490 . S
C1150 C1152 1.395 . S
C1150 C1153 1.403 . S
H1151 C1157 0.930 1_556 S
C1152 H1138 0.930 . S
C1152 C1150 1.395 . S
C1152 C1155 1.403 . S
C1153 C1150 1.403 . S
C1153 C1154 1.524 . S
C1153 C1157 1.400 . S
C1154 H1139 0.960 . S
C1154 H1140 0.960 . S
C1154 H1141 0.960 . S
C1154 C1153 1.524 . S
C1155 C1152 1.403 . S
C1155 C1156 1.392 . S
C1155 C1159 1.495 . S
C1156 C1155 1.392 . S
C1156 C1157 1.385 . S
C1156 C1158 1.478 1_554 S
C1157 H1151 0.930 1_554 S
C1157 C1153 1.400 . S
C1157 C1156 1.385 . S
C1158 C1156 1.478 1_556 S
C1158 C1160 1.381 . S
C1158 C1164 1.383 . S
C1159 C1155 1.495 . S
C1159 H1165 0.959 . S
C1159 H1166 0.961 . S
C1159 H1167 0.960 . S
C1160 C1158 1.381 . S
C1160 C1161 1.394 . S
C1160 H1168 0.930 . S
C1161 C1160 1.394 . S
C1161 C1162 1.383 . S
C1161 H1169 0.929 . S
C1162 C1161 1.383 . S
C1162 C1163 1.377 . S
C1163 H1147 0.930 . S
C1163 C1162 1.377 . S
C1163 C1164 1.379 . S
C1164 H1148 0.936 . S
C1164 C1158 1.383 . S
C1164 C1163 1.379 . S
H1165 C1159 0.959 . S
H1166 C1159 0.961 . S
H1167 C1159 0.960 . S
H1168 C1160 0.930 . S
H1169 C1161 0.929 . S
H1170 C1178 0.929 . S
H1171 C1180 0.930 . S
H1172 C1182 0.930 . S
H1173 C1185 0.929 . S
H1174 C1188 0.930 . S
H1175 C1190 0.960 . S
H1176 C1190 0.960 . S
H1177 C1190 0.960 . S
C1178 H1170 0.929 . S
C1178 C1179 1.377 . S
C1178 C1180 1.384 . S
C1179 C1178 1.377 . S
C1179 C1185 1.390 . S
C1180 H1171 0.930 . S
C1180 C1178 1.384 . S
C1180 C1181 1.372 . S
C1181 C1180 1.372 . S
C1181 C1182 1.400 . S
C1181 C1186 1.490 . S
C1182 H1172 0.930 . S
C1182 C1181 1.400 . S
C1182 C1185 1.386 . S
H1183 C1199 0.930 . S
H1184 C1200 0.931 . S
C1185 H1173 0.929 . S
C1185 C1179 1.390 . S
C1185 C1182 1.386 . S
C1186 C1181 1.490 . S
C1186 C1188 1.395 . S
C1186 C1189 1.403 . S
H1187 C1193 0.930 . S
C1188 H1174 0.930 . S
C1188 C1186 1.395 . S
C1188 C1191 1.403 . S
C1189 C1186 1.403 . S
C1189 C1190 1.524 . S
C1189 C1193 1.400 . S
C1190 H1175 0.960 . S
C1190 H1176 0.960 . S
C1190 H1177 0.960 . S
C1190 C1189 1.524 . S
C1191 C1188 1.403 . S
C1191 C1192 1.392 . S
C1191 C1195 1.495 . S
C1192 C1191 1.392 . S
C1192 C1193 1.385 . S
C1192 C1194 1.478 . S
C1193 H1187 0.930 . S
C1193 C1189 1.400 . S
C1193 C1192 1.385 . S
C1194 C1192 1.478 . S
C1194 C1196 1.381 . S
C1194 C1200 1.383 . S
C1195 C1191 1.495 . S
C1195 H1201 0.959 . S
C1195 H1202 0.961 . S
C1195 H1203 0.960 . S
C1196 C1194 1.381 . S
C1196 C1197 1.394 . S
C1196 H1204 0.930 . S
C1197 C1196 1.394 . S
C1197 C1198 1.383 . S
C1197 H1205 0.929 . S
C1198 C1197 1.383 . S
C1198 C1199 1.377 . S
C1199 H1183 0.930 . S
C1199 C1198 1.377 . S
C1199 C1200 1.379 . S
C1200 H1184 0.931 . S
C1200 C1194 1.383 . S
C1200 C1199 1.379 . S
H1201 C1195 0.959 . S
H1202 C1195 0.961 . S
H1203 C1195 0.960 . S
H1204 C1196 0.930 . S
H1205 C1197 0.929 . S
C370 C309 1.607 . S
C351 C19 1.523 . S
C387 C40 1.545 . S
C406 C129 1.636 . S
C423 C51 1.509 . S
C442 C176 1.583 . S
C459 C72 1.457 . S
C478 C212 1.539 . S
C514 C237 1.585 . S
C495 C103 1.493 . S
C531 C114 1.507 . S
C550 C273 1.605 . S
C567 C30 1.541 . S
C586 C165 1.644 . S
C603 C61 1.495 . S
C622 C201 1.581 . S
C639 C82 1.471 . S
C658 C248 1.478 . S
C694 C284 1.559 . S
C675 C93 1.475 1_554 S
C730 C320 1.521 . S
C711 C124 1.507 . S
C766 C140 1.585 . S
C747 C9 1.497 . S
C783 C17 1.440 . S
C802 C164 1.519 . S
C819 C38 1.452 . S
C838 C200 1.533 . S
C874 C238 1.517 . S
C855 C54 1.433 . S
C891 C75 1.444 . S
C910 C274 1.529 . S
C946 C310 1.479 . S
C927 C101 1.404 . S
C982 C130 1.463 . S
C963 C117 1.382 . S
C1018 C308 1.481 . S
C999 C33 1.410 . S
C1035 C59 1.435 . S
C1054 C128 1.513 . S
C1090 C166 1.500 . S
C1071 C80 1.427 . S
C1107 C96 1.429 . S
C1126 C202 1.511 . S
C1143 C122 1.480 . S
C1162 C236 1.556 . S
C1179 C12 1.447 . S
C1198 C272 1.521 . S
