# Generated by pormake.
# Topology zzz, (3,6)-cn, num edge types: 1
# Building blocks:
#     Node 0, Type 0, BuildingBlock: BELTOD_clean_linker_0, # of connection points: 3
#     Node 1, Type 0, BuildingBlock: BELTOD_clean_linker_0, # of connection points: 3
#     Node 2, Type 0, BuildingBlock: BELTOD_clean_linker_0, # of connection points: 3
#     Node 3, Type 0, BuildingBlock: BELTOD_clean_linker_0, # of connection points: 3
#     Node 4, Type 0, BuildingBlock: BELTOD_clean_linker_0, # of connection points: 3
#     Node 5, Type 0, BuildingBlock: BELTOD_clean_linker_0, # of connection points: 3
#     Node 6, Type 0, BuildingBlock: BELTOD_clean_linker_0, # of connection points: 3
#     Node 7, Type 0, BuildingBlock: BELTOD_clean_linker_0, # of connection points: 3
#     Node 8, Type 1, BuildingBlock: VOLQOD_clean_sbu_1, # of connection points: 6
#     Node 9, Type 1, BuildingBlock: VOLQOD_clean_sbu_1, # of connection points: 6
#     Node 10, Type 1, BuildingBlock: VOLQOD_clean_sbu_1, # of connection points: 6
#     Node 11, Type 1, BuildingBlock: VOLQOD_clean_sbu_1, # of connection points: 6
#     Edge 12, Type (0, 1), BuildingBlock: OJICUG_clean_linker_0, # of connection points: 2
#     Edge 13, Type (0, 1), BuildingBlock: OJICUG_clean_linker_0, # of connection points: 2
#     Edge 14, Type (0, 1), BuildingBlock: OJICUG_clean_linker_0, # of connection points: 2
#     Edge 15, Type (0, 1), BuildingBlock: OJICUG_clean_linker_0, # of connection points: 2
#     Edge 16, Type (0, 1), BuildingBlock: OJICUG_clean_linker_0, # of connection points: 2
#     Edge 17, Type (0, 1), BuildingBlock: OJICUG_clean_linker_0, # of connection points: 2
#     Edge 18, Type (0, 1), BuildingBlock: OJICUG_clean_linker_0, # of connection points: 2
#     Edge 19, Type (0, 1), BuildingBlock: OJICUG_clean_linker_0, # of connection points: 2
#     Edge 20, Type (0, 1), BuildingBlock: OJICUG_clean_linker_0, # of connection points: 2
#     Edge 21, Type (0, 1), BuildingBlock: OJICUG_clean_linker_0, # of connection points: 2
#     Edge 22, Type (0, 1), BuildingBlock: OJICUG_clean_linker_0, # of connection points: 2
#     Edge 23, Type (0, 1), BuildingBlock: OJICUG_clean_linker_0, # of connection points: 2
#     Edge 24, Type (0, 1), BuildingBlock: OJICUG_clean_linker_0, # of connection points: 2
#     Edge 25, Type (0, 1), BuildingBlock: OJICUG_clean_linker_0, # of connection points: 2
#     Edge 26, Type (0, 1), BuildingBlock: OJICUG_clean_linker_0, # of connection points: 2
#     Edge 27, Type (0, 1), BuildingBlock: OJICUG_clean_linker_0, # of connection points: 2
#     Edge 28, Type (0, 1), BuildingBlock: OJICUG_clean_linker_0, # of connection points: 2
#     Edge 29, Type (0, 1), BuildingBlock: OJICUG_clean_linker_0, # of connection points: 2
#     Edge 30, Type (0, 1), BuildingBlock: OJICUG_clean_linker_0, # of connection points: 2
#     Edge 31, Type (0, 1), BuildingBlock: OJICUG_clean_linker_0, # of connection points: 2
#     Edge 32, Type (0, 1), BuildingBlock: OJICUG_clean_linker_0, # of connection points: 2
#     Edge 33, Type (0, 1), BuildingBlock: OJICUG_clean_linker_0, # of connection points: 2
#     Edge 34, Type (0, 1), BuildingBlock: OJICUG_clean_linker_0, # of connection points: 2
#     Edge 35, Type (0, 1), BuildingBlock: OJICUG_clean_linker_0, # of connection points: 2
# Relax obj value: 0.331
# Max RMSD: 0.253
# Mean RMSD: 0.197
data_MOF--net-zzz--node1-VOLQOD_clean_sbu_1--node2-BELTOD_clean_linker_0--edge1-OJICUG_clean_linker_0
_symmetry_space_group_name_H-M    P1
_symmetry_Int_Tables_number       1
_symmetry_cell_setting            triclinic
loop_
_symmetry_equiv_pos_as_xyz
'x, y, z'
_cell_length_a     41.69734
_cell_length_b     41.029635
_cell_length_c     16.206485
_cell_angle_alpha  90.280517
_cell_angle_beta   90.08512
_cell_angle_gamma 92.284322
loop_
_atom_site_label
_atom_site_type_symbol
_atom_site_fract_x
_atom_site_fract_y
_atom_site_fract_z
_atom_type_partial_charge
P0 P 0.77227 0.40389 0.18142 0.0
H1 H 0.78606 0.39793 0.35686 0.0
H2 H 0.81578 0.43321 0.45218 0.0
H3 H 0.81732 0.51066 0.27173 0.0
H4 H 0.78879 0.47402 0.17442 0.0
H5 H 0.73944 0.36813 0.05171 0.0
H6 H 0.69571 0.38041 0.95939 0.0
H7 H 0.6826 0.47095 0.0908 0.0
H8 H 0.72772 0.45887 0.18125 0.0
H9 H 0.83559 0.37688 0.198 0.0
H10 H 0.78303 0.42821 0.01305 0.0
O11 O 0.76611 0.36744 0.22513 0.0
H12 H 0.88333 0.37947 0.1091 0.0
H13 H 0.82982 0.42987 0.9242 0.0
C14 C 0.78483 0.43342 0.25877 0.0
C15 C 0.79191 0.42278 0.33842 0.0
C16 C 0.80893 0.44327 0.39342 0.0
C17 C 0.81923 0.47504 0.37016 0.0
C18 C 0.81027 0.48628 0.2917 0.0
C19 C 0.79351 0.46552 0.23626 0.0
C20 C 0.73684 0.41255 0.12317 0.0
C21 C 0.72693 0.39048 0.06122 0.0
C22 C 0.70177 0.39755 0.00852 0.0
C23 C 0.6854 0.42669 0.01751 0.0
C24 C 0.69495 0.44853 0.0812 0.0
C25 C 0.72058 0.44154 0.13353 0.0
C26 C 0.80552 0.40161 0.11147 0.0
C27 C 0.83404 0.38783 0.13752 0.0
C28 C 0.86121 0.38931 0.08692 0.0
C29 C 0.86001 0.40433 0.0093 0.0
C30 C 0.83115 0.41734 0.98274 0.0
C31 C 0.8043 0.41641 0.03381 0.0
P32 P 0.05077 0.78338 0.18061 0.0
H33 H 0.0524 0.794 0.35916 0.0
H34 H 0.02771 0.83533 0.44362 0.0
H35 H 0.96712 0.86004 0.23872 0.0
H36 H 0.99173 0.81815 0.15449 0.0
H37 H 0.07735 0.74512 0.05056 0.0
H38 H 0.05479 0.70316 0.95785 0.0
H39 H 0.96446 0.70505 0.08734 0.0
H40 H 0.98715 0.74796 0.17979 0.0
H41 H 0.10147 0.83524 0.1833 0.0
H42 H 0.02474 0.8015 0.02159 0.0
O43 O 0.08295 0.77101 0.23118 0.0
H44 H 0.11353 0.88117 0.08989 0.0
H45 H 0.03616 0.84675 0.92996 0.0
C46 C 0.02413 0.80321 0.2503 0.0
C47 C 0.03288 0.80728 0.33329 0.0
C48 C 0.01867 0.83098 0.38169 0.0
C49 C 0.99577 0.85126 0.34739 0.0
C50 C 0.98493 0.84499 0.26647 0.0
C51 C 0.99888 0.82095 0.21845 0.0
C52 C 0.03391 0.74959 0.12179 0.0
C53 C 0.05272 0.73643 0.05939 0.0
C54 C 0.03972 0.71276 0.00588 0.0
C55 C 0.00774 0.70136 0.01461 0.0
C56 C 0.98911 0.71372 0.07907 0.0
C57 C 0.00207 0.73802 0.13202 0.0
C58 C 0.06291 0.81441 0.108 0.0
C59 C 0.08775 0.83729 0.12691 0.0
C60 C 0.09444 0.86358 0.07395 0.0
C61 C 0.07618 0.86729 0.00176 0.0
C62 C 0.05142 0.84411 0.98347 0.0
C63 C 0.04479 0.81811 0.03615 0.0
P64 P 0.77659 0.07703 0.21051 0.0
H65 H 0.79118 0.05905 0.38158 0.0
H66 H 0.76339 0.0218 0.47698 0.0
H67 H 0.70292 0.98591 0.27582 0.0
H68 H 0.7329 0.02053 0.18135 0.0
H69 H 0.81889 0.12074 0.1191 0.0
H70 H 0.86115 0.11215 0.0197 0.0
H71 H 0.8543 0.00845 0.06845 0.0
H72 H 0.81014 0.01739 0.16431 0.0
H73 H 0.7107 0.09376 0.24346 0.0
H74 H 0.76914 0.07716 0.02869 0.0
O75 O 0.784 0.10975 0.27008 0.0
H76 H 0.66263 0.09194 0.1559 0.0
H77 H 0.72163 0.07649 0.94185 0.0
C78 C 0.76336 0.04336 0.27499 0.0
C79 C 0.7726 0.0423 0.358 0.0
C80 C 0.75623 0.02122 0.41279 0.0
C81 C 0.72974 0.0014 0.38582 0.0
C82 C 0.72293 0.00045 0.30048 0.0
C83 C 0.73995 0.02076 0.24568 0.0
C84 C 0.8118 0.06982 0.15008 0.0
C85 C 0.82689 0.09621 0.10943 0.0
C86 C 0.85125 0.09117 0.0525 0.0
C87 C 0.86161 0.05955 0.03584 0.0
C88 C 0.8468 0.03311 0.07849 0.0
C89 C 0.82184 0.03819 0.13445 0.0
C90 C 0.74355 0.08547 0.14303 0.0
C91 C 0.71337 0.09101 0.17734 0.0
C92 C 0.68597 0.08996 0.12748 0.0
C93 C 0.68856 0.08413 0.04234 0.0
C94 C 0.71908 0.08145 0.00719 0.0
C95 C 0.74634 0.08175 0.05723 0.0
P96 P 0.49122 0.71841 0.21671 0.0
H97 H 0.49657 0.7119 0.39578 0.0
H98 H 0.52142 0.67016 0.47734 0.0
H99 H 0.5729 0.63868 0.26189 0.0
H100 H 0.54751 0.68037 0.18015 0.0
H101 H 0.45815 0.77387 0.15586 0.0
H102 H 0.47335 0.81724 0.06027 0.0
H103 H 0.57039 0.78407 0.0553 0.0
H104 H 0.55505 0.74091 0.15379 0.0
H105 H 0.44661 0.66188 0.22735 0.0
H106 H 0.50982 0.70592 0.04543 0.0
O107 O 0.45952 0.72803 0.27336 0.0
H108 H 0.43581 0.61531 0.13473 0.0
H109 H 0.5002 0.65963 0.95477 0.0
C110 C 0.51976 0.69893 0.28157 0.0
C111 C 0.51418 0.69695 0.36665 0.0
C112 C 0.52855 0.67302 0.41347 0.0
C113 C 0.54866 0.65061 0.37569 0.0
C114 C 0.55709 0.65521 0.29243 0.0
C115 C 0.54276 0.67925 0.24575 0.0
C116 C 0.50551 0.75437 0.16273 0.0
C117 C 0.48293 0.77639 0.13617 0.0
C118 C 0.49157 0.80094 0.08045 0.0
C119 C 0.52293 0.8037 0.04885 0.0
C120 C 0.54605 0.78258 0.07861 0.0
C121 C 0.53734 0.75797 0.13506 0.0
C122 C 0.47842 0.68775 0.14268 0.0
C123 C 0.45755 0.6619 0.16679 0.0
C124 C 0.45171 0.63514 0.1142 0.0
C125 C 0.46699 0.63371 0.03697 0.0
C126 C 0.48731 0.66014 0.01268 0.0
C127 C 0.49296 0.6868 0.06494 0.0
P128 P 0.20939 0.4385 0.26508 0.0
H129 H 0.19543 0.4008 0.11422 0.0
H130 H 0.16849 0.41944 0.99027 0.0
H131 H 0.19195 0.51927 0.05869 0.0
H132 H 0.21865 0.5008 0.18225 0.0
H133 H 0.23534 0.41237 0.41571 0.0
H134 H 0.28561 0.42233 0.49049 0.0
H135 H 0.31626 0.49262 0.30592 0.0
H136 H 0.26672 0.48131 0.22972 0.0
H137 H 0.14591 0.45434 0.2051 0.0
H138 H 0.20431 0.47654 0.41975 0.0
O139 O 0.1985 0.39918 0.27557 0.0
H140 H 0.10769 0.49382 0.24876 0.0
H141 H 0.1647 0.51407 0.46792 0.0
C142 C 0.20918 0.44936 0.15771 0.0
C143 C 0.19665 0.42658 0.10012 0.0
C144 C 0.18104 0.43726 0.0294 0.0
C145 C 0.17777 0.47075 0.01632 0.0
C146 C 0.19417 0.49332 0.06792 0.0
C147 C 0.21002 0.48266 0.13793 0.0
C148 C 0.24729 0.44585 0.31676 0.0
C149 C 0.25304 0.42972 0.391 0.0
C150 C 0.28164 0.43579 0.4343 0.0
C151 C 0.30501 0.45842 0.40452 0.0
C152 C 0.299 0.47476 0.33024 0.0
C153 C 0.27042 0.46847 0.28671 0.0
C154 C 0.17846 0.46292 0.30812 0.0
C155 C 0.15035 0.46741 0.26243 0.0
C156 C 0.12829 0.49003 0.28776 0.0
C157 C 0.13326 0.50792 0.36114 0.0
C158 C 0.16059 0.50186 0.4093 0.0
C159 C 0.18312 0.47981 0.38262 0.0
P160 P 0.12243 0.28542 0.18779 0.0
H161 H 0.16894 0.25612 0.07767 0.0
H162 H 0.15999 0.21798 0.96321 0.0
H163 H 0.05967 0.24081 0.95988 0.0
H164 H 0.06904 0.27932 0.07188 0.0
H165 H 0.15355 0.34974 0.21623 0.0
H166 H 0.13295 0.39956 0.2733 0.0
H167 H 0.03626 0.35763 0.25331 0.0
H168 H 0.05702 0.30961 0.18982 0.0
H169 H 0.1182 0.21434 0.18005 0.0
H170 H 0.07849 0.28936 0.33187 0.0
O171 O 0.16056 0.28581 0.21938 0.0
H172 H 0.08427 0.17354 0.24819 0.0
H173 H 0.04184 0.24934 0.39378 0.0
C174 C 0.11966 0.27073 0.08328 0.0
C175 C 0.14536 0.2541 0.04962 0.0
C176 C 0.1401 0.23184 0.98498 0.0
C177 C 0.10898 0.22573 0.95351 0.0
C178 C 0.08401 0.24494 0.982 0.0
C179 C 0.08936 0.26727 0.04622 0.0
C180 C 0.1069 0.32545 0.20183 0.0
C181 C 0.12784 0.35182 0.22174 0.0
C182 C 0.11593 0.38027 0.25563 0.0
C183 C 0.0829 0.38252 0.27233 0.0
C184 C 0.06183 0.35737 0.2426 0.0
C185 C 0.07374 0.32945 0.20606 0.0
C186 C 0.09984 0.25532 0.24733 0.0
C187 C 0.10165 0.22224 0.22675 0.0
C188 C 0.08169 0.19884 0.26511 0.0
C189 C 0.05916 0.20799 0.32474 0.0
C190 C 0.05853 0.2411 0.34787 0.0
C191 C 0.07925 0.26434 0.3111 0.0
P192 P 0.33131 0.06668 0.25497 0.0
H193 H 0.35728 0.11433 0.13642 0.0
H194 H 0.38586 0.10461 0.00866 0.0
H195 H 0.34971 0.00424 0.0097 0.0
H196 H 0.3191 0.0152 0.1331 0.0
H197 H 0.3108 0.04277 0.41418 0.0
H198 H 0.2588 0.033 0.47768 0.0
H199 H 0.21257 0.06463 0.25448 0.0
H200 H 0.26548 0.07253 0.18904 0.0
H201 H 0.39964 0.0694 0.2945 0.0
H202 H 0.32218 0.99658 0.28453 0.0
O203 O 0.34381 0.10312 0.29149 0.0
H204 H 0.43659 0.02762 0.33559 0.0
H205 H 0.35902 0.95467 0.32557 0.0
C206 C 0.33643 0.06532 0.14502 0.0
C207 C 0.3541 0.09073 0.10668 0.0
C208 C 0.3711 0.08486 0.03426 0.0
C209 C 0.3715 0.05318 0.00045 0.0
C210 C 0.3504 0.02894 0.0335 0.0
C211 C 0.33267 0.03516 0.10457 0.0
C212 C 0.29196 0.05754 0.29618 0.0
C213 C 0.28951 0.04691 0.37798 0.0
C214 C 0.25964 0.0418 0.4148 0.0
C215 C 0.23136 0.04832 0.37169 0.0
C216 C 0.23382 0.05896 0.2892 0.0
C217 C 0.26399 0.06362 0.25175 0.0
C218 C 0.35799 0.03632 0.29003 0.0
C219 C 0.39056 0.04449 0.30187 0.0
C220 C 0.41172 0.02048 0.32374 0.0
C221 C 0.40064 0.98785 0.33334 0.0
C222 C 0.36813 0.97962 0.31903 0.0
C223 C 0.34705 0.00362 0.29658 0.0
P224 P 0.4131 0.21278 0.19523 0.0
H225 H 0.37075 0.23657 0.06691 0.0
H226 H 0.38246 0.27567 0.95706 0.0
H227 H 0.48393 0.26302 0.99221 0.0
H228 H 0.47211 0.22412 0.10119 0.0
H229 H 0.39477 0.17146 0.33115 0.0
H230 H 0.4228 0.12875 0.40159 0.0
H231 H 0.49134 0.12622 0.20258 0.0
H232 H 0.46257 0.16874 0.13073 0.0
H233 H 0.39783 0.2787 0.24373 0.0
H234 H 0.47689 0.21505 0.27364 0.0
O235 O 0.37397 0.21406 0.21603 0.0
H236 H 0.42984 0.32331 0.30717 0.0
H237 H 0.50908 0.2595 0.33558 0.0
C238 C 0.42051 0.22695 0.09191 0.0
C239 C 0.39547 0.24099 0.04842 0.0
C240 C 0.4022 0.2638 0.98637 0.0
C241 C 0.43412 0.27294 0.96693 0.0
C242 C 0.45904 0.2564 0.00502 0.0
C243 C 0.45227 0.23367 0.06704 0.0
C244 C 0.42669 0.17355 0.22602 0.0
C245 C 0.4151 0.16095 0.30089 0.0
C246 C 0.43137 0.13681 0.34169 0.0
C247 C 0.45973 0.12492 0.30857 0.0
C248 C 0.46966 0.13521 0.22968 0.0
C249 C 0.45322 0.15953 0.18861 0.0
C250 C 0.4345 0.24326 0.25626 0.0
C251 C 0.42181 0.27414 0.26544 0.0
C252 C 0.44038 0.29975 0.30023 0.0
C253 C 0.47214 0.29498 0.3257 0.0
C254 C 0.48464 0.26388 0.31723 0.0
C255 C 0.46606 0.23832 0.28231 0.0
O256 O 0.10962 0.04047 0.62242 0.0
Zn257 Zn 0.07527 0.04163 0.70933 0.0
O258 O 0.03266 0.03904 0.65607 0.0
Zn259 Zn 0.01055 0.07852 0.68177 0.0
Zn260 Zn 0.03701 0.0348 0.53647 0.0
Zn261 Zn 0.0069 0.0019 0.69694 0.0
O262 O 0.97282 0.06972 0.75602 0.0
O263 O 0.96944 0.01575 0.76762 0.0
O264 O 0.08364 0.0842 0.77131 0.0
O265 O 0.03949 0.11019 0.74207 0.0
O266 O -0.00052 0.10331 0.58061 0.0
O267 O 0.02186 0.07497 0.48053 0.0
O268 O 0.01387 0.99408 0.49311 0.0
O269 O 0.08116 0.00336 0.78565 0.0
O270 O 0.99197 0.97159 0.60505 0.0
O271 O 0.0349 0.97515 0.76718 0.0
C272 C 0.10969 0.03663 0.54436 0.0
C273 C 0.95957 0.0439 0.78591 0.0
C274 C 0.00771 0.10011 0.50553 0.0
C275 C 0.06718 0.10966 0.77457 0.0
C276 C 0.99728 0.97123 0.52766 0.0
C277 C 0.06282 0.97836 0.79862 0.0
O278 O 0.08362 0.03292 0.50379 0.0
O279 O 0.53051 0.0506 0.60352 0.0
Zn280 Zn 0.53833 0.02502 0.70698 0.0
O281 O 0.54409 0.97934 0.67992 0.0
Zn282 Zn 0.50584 0.95375 0.70727 0.0
Zn283 Zn 0.55094 0.97429 0.56203 0.0
Zn284 Zn 0.58079 0.96421 0.73956 0.0
O285 O 0.51727 0.91494 0.77415 0.0
O286 O 0.56965 0.92162 0.79932 0.0
O287 O 0.49851 0.02955 0.77589 0.0
O288 O 0.47465 0.9802 0.77186 0.0
O289 O 0.48318 0.94042 0.60312 0.0
O290 O 0.52238 0.93909 0.51159 0.0
O291 O 0.59722 0.96714 0.53744 0.0
O292 O 0.57548 0.04395 0.77491 0.0
O293 O 0.61905 0.96125 0.6617 0.0
O294 O 0.59431 0.99785 0.82419 0.0
C295 C 0.52986 0.04287 0.52722 0.0
C296 C 0.54301 0.90546 0.80735 0.0
C297 C 0.49297 0.93431 0.53053 0.0
C298 C 0.47517 0.00999 0.79437 0.0
C299 C 0.6215 0.96287 0.58328 0.0
C300 C 0.59293 0.02881 0.82545 0.0
O301 O 0.53741 0.01463 0.50301 0.0
O302 O 0.42748 0.46386 0.65441 0.0
Zn303 Zn 0.46408 0.45972 0.73559 0.0
O304 O 0.50559 0.46224 0.67656 0.0
Zn305 Zn 0.52717 0.42154 0.68973 0.0
Zn306 Zn 0.49878 0.46928 0.55941 0.0
Zn307 Zn 0.53343 0.49779 0.71936 0.0
O308 O 0.56788 0.42777 0.75438 0.0
O309 O 0.57144 0.48083 0.78265 0.0
O310 O 0.45665 0.41595 0.79316 0.0
O311 O 0.49989 0.39018 0.75432 0.0
O312 O 0.53317 0.39782 0.58268 0.0
O313 O 0.50976 0.42996 0.49337 0.0
O314 O 0.52321 0.50914 0.51838 0.0
O315 O 0.46129 0.49718 0.81746 0.0
O316 O 0.54837 0.52902 0.6296 0.0
O317 O 0.50783 0.52452 0.79645 0.0
C318 C 0.42653 0.47026 0.57756 0.0
C319 C 0.58187 0.45217 0.78994 0.0
C320 C 0.52304 0.40343 0.51023 0.0
C321 C 0.47316 0.39044 0.79172 0.0
C322 C 0.54171 0.53058 0.55298 0.0
C323 C 0.48054 0.52152 0.83117 0.0
O324 O 0.45212 0.47427 0.53555 0.0
O325 O 0.93873 0.5484 0.58174 0.0
Zn326 Zn 0.98295 0.5589 0.632 0.0
O327 O 0.00067 0.51992 0.6816 0.0
Zn328 Zn 0.00097 0.52102 0.79955 0.0
Zn329 Zn 0.97858 0.48143 0.6397 0.0
Zn330 Zn 0.04486 0.52166 0.64804 0.0
O331 O 0.04483 0.51229 0.84711 0.0
O332 O 0.07521 0.50918 0.73564 0.0
O333 O 0.98162 0.59405 0.72166 0.0
O334 O 0.98856 0.56539 0.83679 0.0
O335 O 0.97097 0.48575 0.84144 0.0
O336 O 0.9638 0.45218 0.73379 0.0
O337 O 0.0058 0.45994 0.55257 0.0
O338 O 0.01281 0.57132 0.5367 0.0
O339 O 0.05086 0.49108 0.55319 0.0
O340 O 0.05471 0.56781 0.61603 0.0
C341 C 0.92501 0.52064 0.56671 0.0
C342 C 0.07175 0.50728 0.81321 0.0
C343 C 0.96002 0.459 0.81008 0.0
C344 C 0.98304 0.59211 0.80044 0.0
C345 C 0.03357 0.46754 0.5236 0.0
C346 C 0.0431 0.57444 0.54618 0.0
O347 O 0.93807 0.49411 0.58473 0.0
C348 C 0.19756 0.05417 0.49837 0.0
C349 C 0.19985 0.04521 0.41472 0.0
H350 H 0.16777 0.05807 0.6046 0.0
C351 C 0.17204 0.03313 0.37379 0.0
H352 H 0.2182 0.06436 0.53155 0.0
C353 C 0.14273 0.02997 0.41581 0.0
C354 C 0.1407 0.03862 0.49974 0.0
H355 H 0.17296 0.02573 0.30964 0.0
H356 H 0.12171 0.02066 0.38262 0.0
C357 C 0.1685 0.05068 0.5404 0.0
C358 C 0.49267 0.07563 0.33171 0.0
C359 C 0.48033 0.10485 0.36084 0.0
H360 H 0.51814 0.03289 0.36159 0.0
C361 C 0.48728 0.115 0.44206 0.0
H362 H 0.48773 0.06736 0.26924 0.0
C363 C 0.5049 0.09568 0.49452 0.0
C364 C 0.5159 0.06556 0.46723 0.0
H365 H 0.47866 0.13782 0.46551 0.0
H366 H 0.50894 0.10393 0.55739 0.0
C367 C 0.51015 0.05603 0.38463 0.0
C368 C 0.36485 0.46815 0.40572 0.0
C369 C 0.3359 0.4641 0.44947 0.0
H370 H 0.41592 0.47358 0.41157 0.0
C371 C 0.33689 0.46429 0.5363 0.0
H372 H 0.3651 0.46772 0.3389 0.0
C373 C 0.36622 0.46727 0.57821 0.0
C374 C 0.3952 0.47037 0.53427 0.0
H375 H 0.31501 0.46186 0.57201 0.0
H376 H 0.36617 0.46661 0.64506 0.0
C377 C 0.3941 0.47137 0.44755 0.0
C378 C 0.03867 0.41692 0.32874 0.0
C379 C 0.07106 0.40821 0.32953 0.0
H380 H 0.0012 0.44168 0.39088 0.0
C381 C 0.09127 0.4216 0.39205 0.0
H382 H 0.0224 0.40835 0.28057 0.0
C383 C 0.07922 0.44181 0.45315 0.0
C384 C 0.04649 0.44831 0.45517 0.0
H385 H 0.11618 0.41547 0.39684 0.0
H386 H 0.09529 0.45116 0.50108 0.0
C387 C 0.02641 0.43621 0.39176 0.0
C388 C 0.88705 0.02631 0.9229 0.0
C389 C 0.88722 0.05453 0.97303 0.0
H390 H 0.90986 0.00065 0.82453 0.0
C391 C 0.9117 0.07865 0.96091 0.0
H392 H 0.86844 0.00735 0.92927 0.0
C393 C 0.93457 0.07526 0.89912 0.0
C394 C 0.93428 0.04725 0.84899 0.0
H395 H 0.91346 0.10025 -0.00049 0.0
H396 H 0.95298 0.09441 0.89178 0.0
C397 C 0.91057 0.02256 0.86216 0.0
C398 C 0.55892 0.8471 0.98271 0.0
C399 C 0.53048 0.82749 0.98204 0.0
H400 H 0.58545 0.88722 0.92735 0.0
C401 C 0.50821 0.83149 0.91804 0.0
H402 H 0.57656 0.84452 0.03111 0.0
C403 C 0.5132 0.85579 0.85918 0.0
C404 C 0.54071 0.87667 0.86224 0.0
H405 H 0.4865 0.81615 0.91426 0.0
H406 H 0.49496 0.85876 0.81242 0.0
C407 C 0.56401 0.8715 0.92324 0.0
C408 C 0.63798 0.40841 0.93108 0.0
C409 C 0.65863 0.43388 0.96013 0.0
H410 H 0.59827 0.39412 0.85428 0.0
C411 C 0.65389 0.46578 0.93213 0.0
H412 H 0.64027 0.38366 0.95259 0.0
C413 C 0.62917 0.47192 0.87624 0.0
C414 C 0.60896 0.44624 0.84648 0.0
H415 H 0.66955 0.48595 0.95234 0.0
H416 H 0.62604 0.49671 0.85597 0.0
C417 C 0.61373 0.41445 0.8746 0.0
C418 C 0.99925 0.67879 0.8722 0.0
C419 C 0.9949 0.67564 0.95787 0.0
H420 H 0.99808 0.65486 0.75439 0.0
C421 C 0.98189 0.64624 0.98936 0.0
H422 H 0.00904 0.70139 0.84649 0.0
C423 C 0.97591 0.61955 0.93689 0.0
C424 C 0.98241 0.62196 0.85186 0.0
H425 H 0.97839 0.6432 0.05515 0.0
H426 H 0.96768 0.59654 0.96354 0.0
C427 C 0.9928 0.65225 0.8195 0.0
C428 C 0.02894 0.15343 0.32494 0.0
C429 C 0.0382 0.18268 0.3661 0.0
H430 H 0.01137 0.10387 0.33703 0.0
C431 C 0.02971 0.18616 0.44957 0.0
H432 H 0.03368 0.15021 0.25983 0.0
C433 C 0.01538 0.1601 0.49254 0.0
C434 C 0.01012 0.12962 0.45382 0.0
H435 H 0.03632 0.20804 0.48411 0.0
H436 H 0.01167 0.16298 0.5583 0.0
C437 C 0.01548 0.12699 0.36866 0.0
C438 C 0.45433 0.96294 0.33954 0.0
C439 C 0.42243 0.96361 0.36685 0.0
H440 H 0.50227 0.95095 0.36902 0.0
C441 C 0.41304 0.94504 0.43591 0.0
H442 H 0.46198 0.97642 0.28523 0.0
C443 C 0.4361 0.93029 0.48402 0.0
C444 C 0.4688 0.9341 0.46377 0.0
H445 H 0.38852 0.94485 0.45791 0.0
H446 H 0.42873 0.91934 0.54204 0.0
C447 C 0.47735 0.94793 0.38721 0.0
C448 C 0.49008 0.35399 0.33161 0.0
C449 C 0.49162 0.32226 0.36314 0.0
H450 H 0.50006 0.40485 0.35209 0.0
C451 C 0.50987 0.31725 0.4346 0.0
H452 H 0.47701 0.35848 0.27523 0.0
C453 C 0.52352 0.3438 0.47818 0.0
C454 C 0.51896 0.37585 0.45138 0.0
H455 H 0.51168 0.29306 0.46022 0.0
H456 H 0.53527 0.33923 0.5364 0.0
C457 C 0.50367 0.38053 0.37517 0.0
C458 C 0.07637 0.52571 0.37573 0.0
C459 C 0.10944 0.53161 0.38982 0.0
H460 H 0.02869 0.53643 0.41189 0.0
C461 C 0.11928 0.55879 0.43819 0.0
H462 H 0.06765 0.50522 0.33864 0.0
C463 C 0.09675 0.57644 0.48129 0.0
C464 C 0.06397 0.56766 0.47549 0.0
H465 H 0.14449 0.56515 0.44733 0.0
H466 H 0.10515 0.59487 0.52524 0.0
C467 C 0.05382 0.54391 0.41736 0.0
C468 C 0.07685 0.89273 0.86217 0.0
C469 C 0.08065 0.89624 0.94798 0.0
H470 H 0.06796 0.91651 0.74771 0.0
C471 C 0.08412 0.92782 0.9821 0.0
H472 H 0.07488 0.86878 0.83378 0.0
C473 C 0.08098 0.95525 0.93205 0.0
C474 C 0.07403 0.95125 0.84788 0.0
H475 H 0.08691 0.93131 0.04804 0.0
H476 H 0.08156 0.9793 0.96005 0.0
C477 C 0.0731 0.91997 0.81282 0.0
C478 C 0.64014 0.04828 0.01832 0.0
C479 C 0.65988 0.07482 0.99276 0.0
H480 H 0.60351 0.01273 0.98428 0.0
C481 C 0.65482 0.08863 0.91485 0.0
H482 H 0.64387 0.03694 0.07764 0.0
C483 C 0.63126 0.07509 0.86187 0.0
C484 C 0.61322 0.04705 0.88546 0.0
H485 H 0.66996 0.10899 0.89383 0.0
H486 H 0.6286 0.08519 0.80073 0.0
C487 C 0.61727 0.03429 0.96478 0.0
C488 C 0.46472 0.60687 0.89769 0.0
C489 C 0.46416 0.60399 0.98412 0.0
H490 H 0.4706 0.58261 0.78175 0.0
C491 C 0.46451 0.5726 0.01909 0.0
H492 H 0.46369 0.6305 0.86851 0.0
C493 C 0.46755 0.54504 0.9688 0.0
C494 C 0.47061 0.54859 0.88324 0.0
H495 H 0.46442 0.56946 0.08539 0.0
H496 H 0.46954 0.52132 0.99702 0.0
C497 C 0.46837 0.5795 0.8479 0.0
C498 C 0.88899 0.4057 0.87424 0.0
C499 C 0.8894 0.41058 0.96011 0.0
H500 H 0.91175 0.4167 0.75882 0.0
C501 C 0.91621 0.42651 0.99692 0.0
H502 H 0.8686 0.39329 0.84463 0.0
C503 C 0.94068 0.44018 0.94797 0.0
C504 C 0.93892 0.43778 0.86153 0.0
H505 H 0.91703 0.43073 0.06295 0.0
H506 H 0.96 0.4543 0.97757 0.0
C507 C 0.91373 0.41897 0.82528 0.0
C508 C 0.07774 0.19817 0.83857 0.0
C509 C 0.10151 0.19692 0.89983 0.0
H510 H 0.04825 0.17163 0.75153 0.0
C511 C 0.11559 0.1669 0.91551 0.0
H512 H 0.06678 0.22092 0.82385 0.0
C513 C 0.1052 0.1386 0.87324 0.0
C514 C 0.08024 0.13967 0.81527 0.0
H515 H 0.13362 0.16489 0.96318 0.0
H516 H 0.11585 0.11571 0.88826 0.0
C517 C 0.0671 0.16987 0.79718 0.0
C518 C 0.42777 0.05962 0.94504 0.0
C519 C 0.39692 0.04431 0.94032 0.0
H520 H 0.47639 0.06094 0.90261 0.0
C521 C 0.39191 0.0184 0.88383 0.0
H522 H 0.43312 0.07904 0.98895 0.0
C523 C 0.41729 0.00725 0.83635 0.0
C524 C 0.44809 0.02222 0.84276 0.0
H525 H 0.3685 0.00632 0.87696 0.0
H526 H 0.41278 0.9869 0.7945 0.0
C527 C 0.45288 0.04896 0.89621 0.0
C528 C 0.42486 0.33084 0.9259 0.0
C529 C 0.44173 0.30205 0.91521 0.0
H530 H 0.42154 0.38145 0.89576 0.0
C531 C 0.46782 0.30232 0.86062 0.0
H532 H 0.40493 0.33161 0.96852 0.0
C533 C 0.47757 0.33091 0.82001 0.0
C534 C 0.46142 0.36002 0.83268 0.0
H535 H 0.48107 0.2805 0.85024 0.0
H536 H 0.49809 0.3302 0.77923 0.0
C537 C 0.43456 0.35952 0.88487 0.0
C538 C 0.12698 0.49921 0.99624 0.0
C539 C 0.1521 0.48183 0.96184 0.0
H540 H 0.0816 0.52051 0.97641 0.0
C541 C 0.1509 0.47307 0.87821 0.0
H542 H 0.12717 0.50566 0.0612 0.0
C543 C 0.12499 0.48189 0.82943 0.0
C544 C 0.09952 0.49882 0.86421 0.0
H545 H 0.16989 0.45934 0.85091 0.0
H546 H 0.12454 0.47481 0.76494 0.0
C547 C 0.1008 0.50741 0.94805 0.0
C548 C 0.98211 0.88205 0.47618 0.0
C549 C 0.98788 0.88185 0.39082 0.0
H550 H 0.97969 0.91069 0.58648 0.0
C551 C 0.99127 0.91179 0.34922 0.0
H552 H 0.97919 0.85935 0.50968 0.0
C553 C 0.99183 0.94121 0.3931 0.0
C554 C 0.98873 0.94132 0.47944 0.0
H555 H 0.99601 0.91246 0.28353 0.0
H556 H 0.99662 0.96372 0.35989 0.0
C557 C 0.98228 0.91152 0.52002 0.0
C558 C 0.7019 0.99971 0.52448 0.0
C559 C 0.70675 0.98553 0.44613 0.0
H560 H 0.67151 0.00263 0.6306 0.0
C561 C 0.68615 0.95902 0.42214 0.0
H562 H 0.71664 0.02032 0.54592 0.0
C563 C 0.65937 0.94986 0.46986 0.0
C564 C 0.65345 0.96584 0.5446 0.0
H565 H 0.68955 0.94634 0.36433 0.0
H566 H 0.64247 0.93127 0.44654 0.0
C567 C 0.6758 0.98964 0.57353 0.0
C568 C 0.54965 0.58977 0.37625 0.0
C569 C 0.55528 0.61955 0.41822 0.0
H570 H 0.54132 0.5382 0.3859 0.0
C571 C 0.56188 0.61895 0.5033 0.0
H572 H 0.54417 0.58927 0.3109 0.0
C573 C 0.56021 0.58947 0.54655 0.0
C574 C 0.55156 0.5601 0.50558 0.0
H575 H 0.5666 0.64146 0.53718 0.0
H576 H 0.56344 0.59008 0.61288 0.0
C577 C 0.54774 0.56041 0.41946 0.0
C578 C 0.86808 0.51276 0.38823 0.0
C579 C 0.84243 0.49426 0.42361 0.0
H580 H 0.9143 0.53658 0.4074 0.0
C581 C 0.84186 0.49062 0.51002 0.0
H582 H 0.86975 0.5159 0.32209 0.0
C583 C 0.86786 0.50185 0.55829 0.0
C584 C 0.89439 0.51803 0.52171 0.0
H585 H 0.82219 0.47741 0.54005 0.0
H586 H 0.86805 0.49628 0.62358 0.0
C587 C 0.89374 0.52469 0.43702 0.0
loop_
_geom_bond_atom_site_label_1
_geom_bond_atom_site_label_2
_geom_bond_distance
_geom_bond_site_symmetry_2
_ccdc_geom_bond_type
P0 O11 1.490 . S
P0 C14 1.812 . S
P0 C20 1.803 . S
P0 C26 1.819 1_554 S
H1 C15 0.941 . S
H2 C16 0.939 . S
H3 C18 0.940 . S
H4 C19 0.940 . S
H5 C21 0.939 . S
H6 C22 0.942 . S
H7 C24 0.940 . S
H8 C25 0.939 . S
H9 C27 0.941 1_554 S
H10 C31 0.939 . S
O11 P0 1.490 . S
H12 C28 0.939 . S
H13 C30 0.940 . S
C14 P0 1.812 . S
C14 C15 1.389 . S
C14 C19 1.391 . S
C15 H1 0.941 . S
C15 C14 1.389 . S
C15 C16 1.397 . S
C16 H2 0.939 . S
C16 C15 1.397 . S
C16 C17 1.378 . S
C17 C16 1.378 . S
C17 C18 1.378 . S
C18 H3 0.940 . S
C18 C17 1.378 . S
C18 C19 1.396 . S
C19 H4 0.940 . S
C19 C14 1.391 . S
C19 C18 1.396 . S
C20 P0 1.803 . S
C20 C21 1.378 1_554 S
C20 C25 1.400 . S
C21 H5 0.939 . S
C21 C20 1.378 1_556 S
C21 C22 1.361 . S
C22 H6 0.942 . S
C22 C21 1.361 . S
C22 C23 1.369 . S
C23 C22 1.369 . S
C23 C24 1.404 1_556 S
C24 H7 0.940 . S
C24 C23 1.404 1_554 S
C24 C25 1.389 . S
C25 H8 0.939 . S
C25 C20 1.400 . S
C25 C24 1.389 . S
C26 P0 1.819 1_556 S
C26 C27 1.391 . S
C26 C31 1.391 . S
C27 H9 0.941 1_556 S
C27 C26 1.391 . S
C27 C28 1.396 . S
C28 H12 0.939 . S
C28 C27 1.396 . S
C28 C29 1.397 . S
C29 C28 1.397 . S
C29 C30 1.385 . S
C30 H13 0.940 . S
C30 C29 1.385 . S
C30 C31 1.388 . S
C31 H10 0.939 . S
C31 C26 1.391 . S
C31 C30 1.388 . S
P32 O43 1.490 . S
P32 C46 1.812 . S
P32 C52 1.803 . S
P32 C58 1.819 . S
H33 C47 0.941 . S
H34 C48 0.939 . S
H35 C50 0.940 . S
H36 C51 0.940 . S
H37 C53 0.939 . S
H38 C54 0.942 1_556 S
H39 C56 0.940 . S
H40 C57 0.939 . S
H41 C59 0.941 . S
H42 C63 0.939 1_655 S
O43 P32 1.490 . S
H44 C60 0.939 . S
H45 C62 0.940 . S
C46 P32 1.812 . S
C46 C47 1.389 . S
C46 C51 1.391 1_455 S
C47 H33 0.941 . S
C47 C46 1.389 . S
C47 C48 1.397 . S
C48 H34 0.939 . S
C48 C47 1.397 . S
C48 C49 1.378 . S
C49 C48 1.378 . S
C49 C50 1.378 1_455 S
C50 H35 0.940 . S
C50 C49 1.378 1_655 S
C50 C51 1.396 . S
C51 H36 0.940 . S
C51 C46 1.391 1_655 S
C51 C50 1.396 . S
C52 P32 1.803 . S
C52 C53 1.378 . S
C52 C57 1.400 1_455 S
C53 H37 0.939 . S
C53 C52 1.378 . S
C53 C54 1.361 . S
C54 H38 0.942 1_554 S
C54 C53 1.361 . S
C54 C55 1.369 1_455 S
C55 C54 1.369 1_655 S
C55 C56 1.404 . S
C56 H39 0.940 . S
C56 C55 1.404 . S
C56 C57 1.389 . S
C57 H40 0.939 . S
C57 C52 1.400 1_655 S
C57 C56 1.389 . S
C58 P32 1.819 . S
C58 C59 1.391 . S
C58 C63 1.391 1_554 S
C59 H41 0.941 . S
C59 C58 1.391 . S
C59 C60 1.396 1_554 S
C60 H44 0.939 . S
C60 C59 1.396 1_556 S
C60 C61 1.397 . S
C61 C60 1.397 . S
C61 C62 1.385 1_455 S
C62 H45 0.940 . S
C62 C61 1.385 1_655 S
C62 C63 1.388 1_655 S
C63 H42 0.939 1_455 S
C63 C58 1.391 1_556 S
C63 C62 1.388 1_455 S
P64 O75 1.490 . S
P64 C78 1.812 . S
P64 C84 1.803 . S
P64 C90 1.819 1_554 S
H65 C79 0.941 . S
H66 C80 0.939 . S
H67 C82 0.940 . S
H68 C83 0.948 . S
H69 C85 0.939 1_556 S
H70 C86 0.942 . S
H71 C88 0.940 . S
H72 C89 0.939 . S
H73 C91 0.941 1_554 S
H74 C95 0.928 1_565 S
O75 P64 1.490 . S
H76 C92 0.939 . S
H77 C94 0.940 . S
C78 P64 1.812 . S
C78 C79 1.389 . S
C78 C83 1.379 1_545 S
C79 H65 0.941 . S
C79 C78 1.389 . S
C79 C80 1.397 . S
C80 H66 0.939 . S
C80 C79 1.397 . S
C80 C81 1.378 . S
C81 C80 1.378 . S
C81 C82 1.378 1_545 S
C82 H67 0.940 . S
C82 C81 1.378 1_565 S
C82 C83 1.401 . S
C83 H68 0.948 . S
C83 C78 1.379 1_565 S
C83 C82 1.401 . S
C84 P64 1.803 . S
C84 C85 1.378 . S
C84 C89 1.400 1_545 S
C85 H69 0.939 1_554 S
C85 C84 1.378 . S
C85 C86 1.361 1_554 S
C86 H70 0.942 . S
C86 C85 1.361 1_556 S
C86 C87 1.369 1_556 S
C87 C86 1.369 1_554 S
C87 C88 1.404 1_545 S
C88 H71 0.940 . S
C88 C87 1.404 1_565 S
C88 C89 1.389 . S
C89 H72 0.939 . S
C89 C84 1.400 1_565 S
C89 C88 1.389 . S
C90 P64 1.819 1_556 S
C90 C91 1.391 . S
C90 C95 1.391 . S
C91 H73 0.941 1_556 S
C91 C90 1.391 . S
C91 C92 1.396 . S
C92 H76 0.939 . S
C92 C91 1.396 . S
C92 C93 1.397 . S
C93 C92 1.397 . S
C93 C94 1.385 1_545 S
C94 H77 0.940 . S
C94 C93 1.385 1_565 S
C94 C95 1.388 1_565 S
C95 H74 0.928 1_545 S
C95 C90 1.391 . S
C95 C94 1.388 1_545 S
P96 O107 1.490 . S
P96 C110 1.812 . S
P96 C116 1.803 . S
P96 C122 1.819 1_554 S
H97 C111 0.941 . S
H98 C112 0.939 . S
H99 C114 0.940 . S
H100 C115 0.940 . S
H101 C117 0.939 . S
H102 C118 0.942 . S
H103 C120 0.940 . S
H104 C121 0.939 . S
H105 C123 0.941 1_554 S
H106 C127 0.939 . S
O107 P96 1.490 . S
H108 C124 0.939 . S
H109 C126 0.940 . S
C110 P96 1.812 . S
C110 C111 1.389 . S
C110 C115 1.391 . S
C111 H97 0.941 . S
C111 C110 1.389 . S
C111 C112 1.397 . S
C112 H98 0.939 . S
C112 C111 1.397 . S
C112 C113 1.378 . S
C113 C112 1.378 . S
C113 C114 1.378 . S
C114 H99 0.940 . S
C114 C113 1.378 . S
C114 C115 1.396 . S
C115 H100 0.940 . S
C115 C110 1.391 . S
C115 C114 1.396 . S
C116 P96 1.803 . S
C116 C117 1.378 1_554 S
C116 C121 1.400 . S
C117 H101 0.939 . S
C117 C116 1.378 1_556 S
C117 C118 1.361 . S
C118 H102 0.942 . S
C118 C117 1.361 . S
C118 C119 1.369 . S
C119 C118 1.369 . S
C119 C120 1.404 1_556 S
C120 H103 0.940 . S
C120 C119 1.404 1_554 S
C120 C121 1.389 . S
C121 H104 0.939 . S
C121 C116 1.400 . S
C121 C120 1.389 . S
C122 P96 1.819 1_556 S
C122 C123 1.391 . S
C122 C127 1.391 . S
C123 H105 0.941 1_556 S
C123 C122 1.391 . S
C123 C124 1.396 . S
C124 H108 0.939 . S
C124 C123 1.396 . S
C124 C125 1.397 . S
C125 C124 1.397 . S
C125 C126 1.385 . S
C126 H109 0.940 . S
C126 C125 1.385 . S
C126 C127 1.388 . S
C127 H106 0.939 . S
C127 C122 1.391 . S
C127 C126 1.388 . S
P128 O139 1.490 . S
P128 C142 1.812 . S
P128 C148 1.803 . S
P128 C154 1.819 . S
H129 C143 0.941 . S
H130 C144 0.939 1_556 S
H131 C146 0.940 . S
H132 C147 0.940 . S
H133 C149 0.939 . S
H134 C150 0.942 . S
H135 C152 0.940 . S
H136 C153 0.939 . S
H137 C155 0.941 . S
H138 C159 0.939 . S
O139 P128 1.490 . S
H140 C156 0.939 . S
H141 C158 0.940 . S
C142 P128 1.812 . S
C142 C143 1.389 . S
C142 C147 1.391 . S
C143 H129 0.941 . S
C143 C142 1.389 . S
C143 C144 1.397 . S
C144 H130 0.939 1_554 S
C144 C143 1.397 . S
C144 C145 1.378 . S
C145 C144 1.378 . S
C145 C146 1.378 . S
C146 H131 0.940 . S
C146 C145 1.378 . S
C146 C147 1.396 . S
C147 H132 0.940 . S
C147 C142 1.391 . S
C147 C146 1.396 . S
C148 P128 1.803 . S
C148 C149 1.378 . S
C148 C153 1.400 . S
C149 H133 0.939 . S
C149 C148 1.378 . S
C149 C150 1.361 . S
C150 H134 0.942 . S
C150 C149 1.361 . S
C150 C151 1.369 . S
C151 C150 1.369 . S
C151 C152 1.404 . S
C152 H135 0.940 . S
C152 C151 1.404 . S
C152 C153 1.389 . S
C153 H136 0.939 . S
C153 C148 1.400 . S
C153 C152 1.389 . S
C154 P128 1.819 . S
C154 C155 1.391 . S
C154 C159 1.391 . S
C155 H137 0.941 . S
C155 C154 1.391 . S
C155 C156 1.396 . S
C156 H140 0.939 . S
C156 C155 1.396 . S
C156 C157 1.397 . S
C157 C156 1.397 . S
C157 C158 1.385 . S
C158 H141 0.940 . S
C158 C157 1.385 . S
C158 C159 1.388 . S
C159 H138 0.939 . S
C159 C154 1.391 . S
C159 C158 1.388 . S
P160 O171 1.490 . S
P160 C174 1.812 . S
P160 C180 1.803 . S
P160 C186 1.819 . S
H161 C175 0.941 . S
H162 C176 0.939 . S
H163 C178 0.940 . S
H164 C179 0.940 . S
H165 C181 0.939 . S
H166 C182 0.942 . S
H167 C184 0.940 . S
H168 C185 0.939 . S
H169 C187 0.941 . S
H170 C191 0.939 . S
O171 P160 1.490 . S
H172 C188 0.939 . S
H173 C190 0.940 . S
C174 P160 1.812 . S
C174 C175 1.389 . S
C174 C179 1.391 . S
C175 H161 0.941 . S
C175 C174 1.389 . S
C175 C176 1.397 . S
C176 H162 0.939 . S
C176 C175 1.397 . S
C176 C177 1.378 . S
C177 C176 1.378 . S
C177 C178 1.378 . S
C178 H163 0.940 . S
C178 C177 1.378 . S
C178 C179 1.396 . S
C179 H164 0.940 . S
C179 C174 1.391 . S
C179 C178 1.396 . S
C180 P160 1.803 . S
C180 C181 1.378 . S
C180 C185 1.400 . S
C181 H165 0.939 . S
C181 C180 1.378 . S
C181 C182 1.361 . S
C182 H166 0.942 . S
C182 C181 1.361 . S
C182 C183 1.369 . S
C183 C182 1.369 . S
C183 C184 1.404 . S
C184 H167 0.940 . S
C184 C183 1.404 . S
C184 C185 1.389 . S
C185 H168 0.939 . S
C185 C180 1.400 . S
C185 C184 1.389 . S
C186 P160 1.819 . S
C186 C187 1.391 . S
C186 C191 1.391 . S
C187 H169 0.941 . S
C187 C186 1.391 . S
C187 C188 1.396 . S
C188 H172 0.939 . S
C188 C187 1.396 . S
C188 C189 1.397 . S
C189 C188 1.397 . S
C189 C190 1.385 . S
C190 H173 0.940 . S
C190 C189 1.385 . S
C190 C191 1.388 . S
C191 H170 0.939 . S
C191 C186 1.391 . S
C191 C190 1.388 . S
P192 O203 1.490 . S
P192 C206 1.812 . S
P192 C212 1.803 . S
P192 C218 1.819 . S
H193 C207 0.941 . S
H194 C208 0.939 . S
H195 C210 0.940 . S
H196 C211 0.943 . S
H197 C213 0.939 . S
H198 C214 0.942 . S
H199 C216 0.940 . S
H200 C217 0.960 . S
H201 C219 0.941 . S
H202 C223 0.932 1_565 S
O203 P192 1.490 . S
H204 C220 0.939 . S
H205 C222 0.940 . S
C206 P192 1.812 . S
C206 C207 1.389 . S
C206 C211 1.386 1_545 S
C207 H193 0.941 . S
C207 C206 1.389 . S
C207 C208 1.397 . S
C208 H194 0.939 . S
C208 C207 1.397 . S
C208 C209 1.378 . S
C209 C208 1.378 . S
C209 C210 1.378 1_545 S
C210 H195 0.940 . S
C210 C209 1.378 1_565 S
C210 C211 1.399 . S
C211 H196 0.943 . S
C211 C206 1.386 1_565 S
C211 C210 1.399 . S
C212 P192 1.803 . S
C212 C213 1.378 . S
C212 C217 1.368 1_545 S
C213 H197 0.939 . S
C213 C212 1.378 . S
C213 C214 1.361 . S
C214 H198 0.942 . S
C214 C213 1.361 . S
C214 C215 1.369 . S
C215 C214 1.369 . S
C215 C216 1.404 1_545 S
C216 H199 0.940 . S
C216 C215 1.404 1_565 S
C216 C217 1.401 . S
C217 H200 0.960 . S
C217 C212 1.368 1_565 S
C217 C216 1.401 . S
C218 P192 1.819 . S
C218 C219 1.391 . S
C218 C223 1.391 . S
C219 H201 0.941 . S
C219 C218 1.391 . S
C219 C220 1.396 . S
C220 H204 0.939 . S
C220 C219 1.396 . S
C220 C221 1.397 . S
C221 C220 1.397 . S
C221 C222 1.385 1_545 S
C222 H205 0.940 . S
C222 C221 1.385 1_565 S
C222 C223 1.388 1_565 S
C223 H202 0.932 1_545 S
C223 C218 1.391 . S
C223 C222 1.388 1_545 S
P224 O235 1.490 . S
P224 C238 1.812 . S
P224 C244 1.803 . S
P224 C250 1.819 . S
H225 C239 0.941 . S
H226 C240 0.939 1_556 S
H227 C242 0.940 . S
H228 C243 0.940 . S
H229 C245 0.939 . S
H230 C246 0.942 . S
H231 C248 0.940 . S
H232 C249 0.939 . S
H233 C251 0.941 . S
H234 C255 0.939 . S
O235 P224 1.490 . S
H236 C252 0.939 . S
H237 C254 0.940 . S
C238 P224 1.812 . S
C238 C239 1.389 . S
C238 C243 1.391 . S
C239 H225 0.941 . S
C239 C238 1.389 . S
C239 C240 1.397 . S
C240 H226 0.939 1_554 S
C240 C239 1.397 . S
C240 C241 1.378 . S
C241 C240 1.378 . S
C241 C242 1.378 . S
C242 H227 0.940 . S
C242 C241 1.378 . S
C242 C243 1.396 . S
C243 H228 0.940 . S
C243 C238 1.391 . S
C243 C242 1.396 . S
C244 P224 1.803 . S
C244 C245 1.378 . S
C244 C249 1.400 . S
C245 H229 0.939 . S
C245 C244 1.378 . S
C245 C246 1.361 . S
C246 H230 0.942 . S
C246 C245 1.361 . S
C246 C247 1.369 . S
C247 C246 1.369 . S
C247 C248 1.404 . S
C248 H231 0.940 . S
C248 C247 1.404 . S
C248 C249 1.389 . S
C249 H232 0.939 . S
C249 C244 1.400 . S
C249 C248 1.389 . S
C250 P224 1.819 . S
C250 C251 1.391 . S
C250 C255 1.391 . S
C251 H233 0.941 . S
C251 C250 1.391 . S
C251 C252 1.396 . S
C252 H236 0.939 . S
C252 C251 1.396 . S
C252 C253 1.397 . S
C253 C252 1.397 . S
C253 C254 1.385 . S
C254 H237 0.940 . S
C254 C253 1.385 . S
C254 C255 1.388 . S
C255 H234 0.939 . S
C255 C250 1.391 . S
C255 C254 1.388 . S
O256 Zn257 1.953 . S
O256 C272 1.229 . S
Zn257 O256 1.953 . S
Zn257 O258 1.950 . S
Zn257 O264 1.919 1_565 S
Zn257 O269 1.924 . S
O258 Zn257 1.950 . S
O258 Zn259 1.899 1_565 S
O258 Zn260 1.953 . S
O258 Zn261 1.965 . S
Zn259 O258 1.899 1_545 S
Zn259 O262 1.933 1_455 S
Zn259 O265 1.941 . S
Zn259 O266 1.965 . S
Zn260 O258 1.953 . S
Zn260 O267 1.938 1_565 S
Zn260 O268 1.906 . S
Zn260 O278 1.953 . S
Zn261 O258 1.965 . S
Zn261 O263 1.932 1_455 S
Zn261 O270 1.977 1_455 S
Zn261 O271 1.910 . S
O262 Zn259 1.933 1_655 S
O262 C273 1.226 . S
O263 Zn261 1.932 1_655 S
O263 C273 1.307 1_565 S
O264 Zn257 1.919 1_545 S
O264 C275 1.253 . S
O265 Zn259 1.941 . S
O265 C275 1.283 . S
O266 Zn259 1.965 . S
O266 C274 1.303 . S
O267 Zn260 1.938 1_545 S
O267 C274 1.247 . S
O268 Zn260 1.906 . S
O268 C276 1.304 1_455 S
O269 Zn257 1.924 . S
O269 C277 1.311 . S
O270 Zn261 1.977 1_655 S
O270 C276 1.272 . S
O271 Zn261 1.910 . S
O271 C277 1.231 . S
C272 O256 1.229 . S
C272 O278 1.298 . S
C273 O262 1.226 . S
C273 O263 1.307 1_545 S
C274 O266 1.303 . S
C274 O267 1.247 . S
C275 O264 1.253 . S
C275 O265 1.283 . S
C276 O268 1.304 1_655 S
C276 O270 1.272 . S
C277 O269 1.311 . S
C277 O271 1.231 . S
O278 Zn260 1.953 . S
O278 C272 1.298 . S
O279 Zn280 1.953 . S
O279 C295 1.225 . S
Zn280 O279 1.953 . S
Zn280 O281 1.949 . S
Zn280 O287 1.919 . S
Zn280 O292 1.924 . S
O281 Zn280 1.949 . S
O281 Zn282 1.923 1_545 S
O281 Zn283 1.950 . S
O281 Zn284 1.945 1_545 S
Zn282 O281 1.923 1_565 S
Zn282 O285 1.933 . S
Zn282 O288 1.941 . S
Zn282 O289 1.965 . S
Zn283 O281 1.950 . S
Zn283 O290 1.938 . S
Zn283 O291 1.906 1_545 S
Zn283 O301 1.953 . S
Zn284 O281 1.945 1_565 S
Zn284 O286 1.932 . S
Zn284 O293 1.977 . S
Zn284 O294 1.910 1_565 S
O285 Zn282 1.933 . S
O285 C296 1.226 . S
O286 Zn284 1.932 . S
O286 C296 1.307 . S
O287 Zn280 1.919 . S
O287 C298 1.253 . S
O288 Zn282 1.941 . S
O288 C298 1.283 1_565 S
O289 Zn282 1.965 . S
O289 C297 1.303 . S
O290 Zn283 1.938 . S
O290 C297 1.247 1_545 S
O291 Zn283 1.906 1_565 S
O291 C299 1.304 . S
O292 Zn280 1.924 . S
O292 C300 1.311 . S
O293 Zn284 1.977 . S
O293 C299 1.272 . S
O294 Zn284 1.910 1_545 S
O294 C300 1.231 . S
C295 O279 1.225 . S
C295 O301 1.298 . S
C296 O285 1.226 . S
C296 O286 1.307 . S
C297 O289 1.303 . S
C297 O290 1.247 1_565 S
C298 O287 1.253 . S
C298 O288 1.283 1_545 S
C299 O291 1.304 . S
C299 O293 1.272 . S
C300 O292 1.311 . S
C300 O294 1.231 . S
O301 Zn283 1.953 . S
O301 C295 1.298 . S
O302 Zn303 1.953 . S
O302 C318 1.225 . S
Zn303 O302 1.953 . S
Zn303 O304 1.949 . S
Zn303 O310 1.919 . S
Zn303 O315 1.924 . S
O304 Zn303 1.949 . S
O304 Zn305 1.923 . S
O304 Zn306 1.950 . S
O304 Zn307 1.945 . S
Zn305 O304 1.923 . S
Zn305 O308 1.933 . S
Zn305 O311 1.941 . S
Zn305 O312 1.965 . S
Zn306 O304 1.950 . S
Zn306 O313 1.938 . S
Zn306 O314 1.906 . S
Zn306 O324 1.953 . S
Zn307 O304 1.945 . S
Zn307 O309 1.932 . S
Zn307 O316 1.977 . S
Zn307 O317 1.910 . S
O308 Zn305 1.933 . S
O308 C319 1.226 . S
O309 Zn307 1.932 . S
O309 C319 1.307 . S
O310 Zn303 1.919 . S
O310 C321 1.253 . S
O311 Zn305 1.941 . S
O311 C321 1.283 . S
O312 Zn305 1.965 . S
O312 C320 1.303 . S
O313 Zn306 1.938 . S
O313 C320 1.247 . S
O314 Zn306 1.906 . S
O314 C322 1.304 . S
O315 Zn303 1.924 . S
O315 C323 1.311 . S
O316 Zn307 1.977 . S
O316 C322 1.272 . S
O317 Zn307 1.910 . S
O317 C323 1.231 . S
C318 O302 1.225 . S
C318 O324 1.298 . S
C319 O308 1.226 . S
C319 O309 1.307 . S
C320 O312 1.303 . S
C320 O313 1.247 . S
C321 O310 1.253 . S
C321 O311 1.283 . S
C322 O314 1.304 . S
C322 O316 1.272 . S
C323 O315 1.311 . S
C323 O317 1.231 . S
O324 Zn306 1.953 . S
O324 C318 1.298 . S
O325 Zn326 1.953 1_655 S
O325 C341 1.225 . S
Zn326 O325 1.953 1_455 S
Zn326 O327 1.949 . S
Zn326 O333 1.919 . S
Zn326 O338 1.924 . S
O327 Zn326 1.949 . S
O327 Zn328 1.923 . S
O327 Zn329 1.950 1_455 S
O327 Zn330 1.945 . S
Zn328 O327 1.923 . S
Zn328 O331 1.933 . S
Zn328 O334 1.941 1_455 S
Zn328 O335 1.965 1_455 S
Zn329 O327 1.950 1_655 S
Zn329 O336 1.938 . S
Zn329 O337 1.906 1_655 S
Zn329 O347 1.953 . S
Zn330 O327 1.945 . S
Zn330 O332 1.932 . S
Zn330 O339 1.977 . S
Zn330 O340 1.910 . S
O331 Zn328 1.933 . S
O331 C342 1.226 . S
O332 Zn330 1.932 . S
O332 C342 1.307 . S
O333 Zn326 1.919 . S
O333 C344 1.253 . S
O334 Zn328 1.941 1_655 S
O334 C344 1.283 1_655 S
O335 Zn328 1.965 1_655 S
O335 C343 1.303 . S
O336 Zn329 1.938 . S
O336 C343 1.247 . S
O337 Zn329 1.906 1_455 S
O337 C345 1.304 . S
O338 Zn326 1.924 . S
O338 C346 1.311 . S
O339 Zn330 1.977 . S
O339 C345 1.272 . S
O340 Zn330 1.910 . S
O340 C346 1.231 . S
C341 O325 1.225 . S
C341 O347 1.298 . S
C342 O331 1.226 . S
C342 O332 1.307 . S
C343 O335 1.303 . S
C343 O336 1.247 . S
C344 O333 1.253 . S
C344 O334 1.283 1_455 S
C345 O337 1.304 . S
C345 O339 1.272 . S
C346 O338 1.311 . S
C346 O340 1.231 . S
O347 Zn329 1.953 . S
O347 C341 1.298 . S
C348 C349 1.387 1_545 S
C348 H352 0.950 . S
C348 C357 1.390 . S
C349 C348 1.387 1_565 S
C349 C351 1.387 . S
H350 C357 0.950 . S
C351 C349 1.387 . S
C351 C353 1.390 . S
C351 H355 0.950 . S
H352 C348 0.950 . S
C353 C351 1.390 . S
C353 C354 1.387 . S
C353 H356 0.950 . S
C354 C353 1.387 . S
C354 C357 1.387 1_565 S
H355 C351 0.950 . S
H356 C353 0.950 . S
C357 C348 1.390 . S
C357 H350 0.950 . S
C357 C354 1.387 1_545 S
C358 C359 1.387 . S
C358 H362 0.950 . S
C358 C367 1.390 . S
C359 C358 1.387 . S
C359 C361 1.387 . S
H360 C367 0.950 . S
C361 C359 1.387 . S
C361 C363 1.390 . S
C361 H365 0.950 . S
H362 C358 0.950 . S
C363 C361 1.390 . S
C363 C364 1.387 . S
C363 H366 0.950 . S
C364 C363 1.387 . S
C364 C367 1.387 . S
H365 C361 0.950 . S
H366 C363 0.950 . S
C367 C358 1.390 . S
C367 H360 0.950 . S
C367 C364 1.387 . S
C368 C369 1.387 . S
C368 H372 0.950 . S
C368 C377 1.390 . S
C369 C368 1.387 . S
C369 C371 1.387 . S
H370 C377 0.950 . S
C371 C369 1.387 . S
C371 C373 1.390 . S
C371 H375 0.950 . S
H372 C368 0.950 . S
C373 C371 1.390 . S
C373 C374 1.387 . S
C373 H376 0.950 . S
C374 C373 1.387 . S
C374 C377 1.387 . S
H375 C371 0.950 . S
H376 C373 0.950 . S
C377 C368 1.390 . S
C377 H370 0.950 . S
C377 C374 1.387 . S
C378 C379 1.387 . S
C378 H382 0.950 . S
C378 C387 1.390 . S
C379 C378 1.387 . S
C379 C381 1.387 . S
H380 C387 0.950 . S
C381 C379 1.387 . S
C381 C383 1.390 . S
C381 H385 0.950 . S
H382 C378 0.950 . S
C383 C381 1.390 . S
C383 C384 1.387 . S
C383 H386 0.950 . S
C384 C383 1.387 . S
C384 C387 1.387 . S
H385 C381 0.950 . S
H386 C383 0.950 . S
C387 C378 1.390 . S
C387 H380 0.950 . S
C387 C384 1.387 . S
C388 C389 1.387 1_565 S
C388 H392 0.950 . S
C388 C397 1.390 . S
C389 C388 1.387 1_545 S
C389 C391 1.387 . S
H390 C397 0.950 . S
C391 C389 1.387 . S
C391 C393 1.390 . S
C391 H395 0.950 . S
H392 C388 0.950 . S
C393 C391 1.390 . S
C393 C394 1.387 . S
C393 H396 0.950 . S
C394 C393 1.387 . S
C394 C397 1.387 1_545 S
H395 C391 0.950 . S
H396 C393 0.950 . S
C397 C388 1.390 . S
C397 H390 0.950 . S
C397 C394 1.387 1_565 S
C398 C399 1.387 . S
C398 H402 0.950 . S
C398 C407 1.390 . S
C399 C398 1.387 . S
C399 C401 1.387 . S
H400 C407 0.950 . S
C401 C399 1.387 . S
C401 C403 1.390 . S
C401 H405 0.950 . S
H402 C398 0.950 . S
C403 C401 1.390 . S
C403 C404 1.387 . S
C403 H406 0.950 . S
C404 C403 1.387 . S
C404 C407 1.387 . S
H405 C401 0.950 . S
H406 C403 0.950 . S
C407 C398 1.390 . S
C407 H400 0.950 . S
C407 C404 1.387 . S
C408 C409 1.387 . S
C408 H412 0.950 . S
C408 C417 1.390 . S
C409 C408 1.387 . S
C409 C411 1.387 . S
H410 C417 0.950 . S
C411 C409 1.387 . S
C411 C413 1.390 . S
C411 H415 0.950 . S
H412 C408 0.950 . S
C413 C411 1.390 . S
C413 C414 1.387 . S
C413 H416 0.950 . S
C414 C413 1.387 . S
C414 C417 1.387 . S
H415 C411 0.950 . S
H416 C413 0.950 . S
C417 C408 1.390 . S
C417 H410 0.950 . S
C417 C414 1.387 . S
C418 C419 1.387 1_455 S
C418 H422 0.950 . S
C418 C427 1.390 . S
C419 C418 1.387 1_655 S
C419 C421 1.387 . S
H420 C427 0.950 . S
C421 C419 1.387 . S
C421 C423 1.390 . S
C421 H425 0.950 . S
H422 C418 0.950 . S
C423 C421 1.390 . S
C423 C424 1.387 1_655 S
C423 H426 0.950 . S
C424 C423 1.387 1_455 S
C424 C427 1.387 . S
H425 C421 0.950 . S
H426 C423 0.950 . S
C427 C418 1.390 . S
C427 H420 0.950 . S
C427 C424 1.387 . S
C428 C429 1.387 . S
C428 H432 0.950 . S
C428 C437 1.390 . S
C429 C428 1.387 . S
C429 C431 1.387 . S
H430 C437 0.950 . S
C431 C429 1.387 . S
C431 C433 1.390 . S
C431 H435 0.950 . S
H432 C428 0.950 . S
C433 C431 1.390 . S
C433 C434 1.387 . S
C433 H436 0.950 . S
C434 C433 1.387 . S
C434 C437 1.387 . S
H435 C431 0.950 . S
H436 C433 0.950 . S
C437 C428 1.390 . S
C437 H430 0.950 . S
C437 C434 1.387 . S
C438 C439 1.372 1_565 S
C438 H442 0.950 . S
C438 C447 1.390 . S
C439 C438 1.372 1_545 S
C439 C441 1.401 . S
H440 C447 0.950 . S
C441 C439 1.401 . S
C441 C443 1.390 . S
C441 H445 0.950 . S
H442 C438 0.950 . S
C443 C441 1.390 . S
C443 C444 1.387 1_545 S
C443 H446 0.950 . S
C444 C443 1.387 1_565 S
C444 C447 1.387 . S
H445 C441 0.950 . S
H446 C443 0.950 . S
C447 C438 1.390 . S
C447 H440 0.950 . S
C447 C444 1.387 . S
C448 C449 1.387 . S
C448 H452 0.950 . S
C448 C457 1.390 . S
C449 C448 1.387 . S
C449 C451 1.387 . S
H450 C457 0.950 . S
C451 C449 1.387 . S
C451 C453 1.390 . S
C451 H455 0.950 . S
H452 C448 0.950 . S
C453 C451 1.390 . S
C453 C454 1.387 . S
C453 H456 0.950 . S
C454 C453 1.387 . S
C454 C457 1.387 . S
H455 C451 0.950 . S
H456 C453 0.950 . S
C457 C448 1.390 . S
C457 H450 0.950 . S
C457 C454 1.387 . S
C458 C459 1.387 . S
C458 H462 0.950 . S
C458 C467 1.390 . S
C459 C458 1.387 . S
C459 C461 1.387 . S
H460 C467 0.950 . S
C461 C459 1.387 . S
C461 C463 1.390 . S
C461 H465 0.950 . S
H462 C458 0.950 . S
C463 C461 1.390 . S
C463 C464 1.387 . S
C463 H466 0.950 . S
C464 C463 1.387 . S
C464 C467 1.387 . S
H465 C461 0.950 . S
H466 C463 0.950 . S
C467 C458 1.390 . S
C467 H460 0.950 . S
C467 C464 1.387 . S
C468 C469 1.387 . S
C468 H472 0.950 . S
C468 C477 1.390 . S
C469 C468 1.387 . S
C469 C471 1.387 . S
H470 C477 0.950 . S
C471 C469 1.387 . S
C471 C473 1.390 . S
C471 H475 0.950 1_455 S
H472 C468 0.950 . S
C473 C471 1.390 . S
C473 C474 1.387 . S
C473 H476 0.950 . S
C474 C473 1.387 . S
C474 C477 1.387 . S
H475 C471 0.950 1_655 S
H476 C473 0.950 . S
C477 C468 1.390 . S
C477 H470 0.950 . S
C477 C474 1.387 . S
C478 C479 1.387 . S
C478 H482 0.950 . S
C478 C487 1.390 . S
C479 C478 1.387 . S
C479 C481 1.387 . S
H480 C487 0.950 . S
C481 C479 1.387 . S
C481 C483 1.390 . S
C481 H485 0.950 1_545 S
H482 C478 0.950 . S
C483 C481 1.390 . S
C483 C484 1.387 . S
C483 H486 0.950 . S
C484 C483 1.387 . S
C484 C487 1.387 . S
H485 C481 0.950 1_565 S
H486 C483 0.950 . S
C487 C478 1.390 . S
C487 H480 0.950 . S
C487 C484 1.387 . S
C488 C489 1.387 . S
C488 H492 0.950 . S
C488 C497 1.390 . S
C489 C488 1.387 . S
C489 C491 1.387 . S
H490 C497 0.950 . S
C491 C489 1.387 . S
C491 C493 1.390 . S
C491 H495 0.950 . S
H492 C488 0.950 . S
C493 C491 1.390 . S
C493 C494 1.387 . S
C493 H496 0.950 . S
C494 C493 1.387 . S
C494 C497 1.387 . S
H495 C491 0.950 . S
H496 C493 0.950 . S
C497 C488 1.390 . S
C497 H490 0.950 . S
C497 C494 1.387 . S
C498 C499 1.387 . S
C498 H502 0.950 . S
C498 C507 1.390 . S
C499 C498 1.387 . S
C499 C501 1.387 . S
H500 C507 0.950 . S
C501 C499 1.387 . S
C501 C503 1.390 . S
C501 H505 0.950 . S
H502 C498 0.950 . S
C503 C501 1.390 . S
C503 C504 1.387 . S
C503 H506 0.950 . S
C504 C503 1.387 . S
C504 C507 1.387 . S
H505 C501 0.950 . S
H506 C503 0.950 . S
C507 C498 1.390 . S
C507 H500 0.950 . S
C507 C504 1.387 . S
C508 C509 1.387 1_556 S
C508 H512 0.950 . S
C508 C517 1.390 . S
C509 C508 1.387 1_554 S
C509 C511 1.387 . S
H510 C517 0.950 . S
C511 C509 1.387 . S
C511 C513 1.390 . S
C511 H515 0.950 . S
H512 C508 0.950 . S
C513 C511 1.390 . S
C513 C514 1.387 1_554 S
C513 H516 0.950 . S
C514 C513 1.387 1_556 S
C514 C517 1.387 . S
H515 C511 0.950 . S
H516 C513 0.950 . S
C517 C508 1.390 . S
C517 H510 0.950 . S
C517 C514 1.387 . S
C518 C519 1.390 1_545 S
C518 H522 0.950 . S
C518 C527 1.390 . S
C519 C518 1.390 1_565 S
C519 C521 1.384 . S
H520 C527 0.950 . S
C521 C519 1.384 . S
C521 C523 1.390 . S
C521 H525 0.950 . S
H522 C518 0.950 . S
C523 C521 1.390 . S
C523 C524 1.404 . S
C523 H526 0.950 . S
C524 C523 1.404 . S
C524 C527 1.370 1_565 S
H525 C521 0.950 . S
H526 C523 0.950 . S
C527 C518 1.390 . S
C527 H520 0.950 . S
C527 C524 1.370 1_545 S
C528 C529 1.387 . S
C528 H532 0.950 . S
C528 C537 1.390 . S
C529 C528 1.387 . S
C529 C531 1.387 . S
H530 C537 0.950 . S
C531 C529 1.387 . S
C531 C533 1.390 . S
C531 H535 0.950 . S
H532 C528 0.950 . S
C533 C531 1.390 . S
C533 C534 1.387 . S
C533 H536 0.950 . S
C534 C533 1.387 . S
C534 C537 1.387 . S
H535 C531 0.950 . S
H536 C533 0.950 . S
C537 C528 1.390 . S
C537 H530 0.950 . S
C537 C534 1.387 . S
C538 C539 1.387 . S
C538 H542 0.950 1_556 S
C538 C547 1.390 . S
C539 C538 1.387 . S
C539 C541 1.387 . S
H540 C547 0.950 . S
C541 C539 1.387 . S
C541 C543 1.390 . S
C541 H545 0.950 . S
H542 C538 0.950 1_554 S
C543 C541 1.390 . S
C543 C544 1.387 . S
C543 H546 0.950 . S
C544 C543 1.387 . S
C544 C547 1.387 . S
H545 C541 0.950 . S
H546 C543 0.950 . S
C547 C538 1.390 . S
C547 H540 0.950 . S
C547 C544 1.387 . S
C548 C549 1.387 . S
C548 H552 0.950 . S
C548 C557 1.390 . S
C549 C548 1.387 . S
C549 C551 1.387 1_655 S
H550 C557 0.950 . S
C551 C549 1.387 1_455 S
C551 C553 1.390 . S
C551 H555 0.950 . S
H552 C548 0.950 . S
C553 C551 1.390 . S
C553 C554 1.387 1_455 S
C553 H556 0.950 . S
C554 C553 1.387 1_655 S
C554 C557 1.387 . S
H555 C551 0.950 . S
H556 C553 0.950 . S
C557 C548 1.390 . S
C557 H550 0.950 . S
C557 C554 1.387 . S
C558 C559 1.387 1_545 S
C558 H562 0.950 . S
C558 C567 1.390 . S
C559 C558 1.387 1_565 S
C559 C561 1.387 . S
H560 C567 0.950 . S
C561 C559 1.387 . S
C561 C563 1.390 . S
C561 H565 0.950 . S
H562 C558 0.950 . S
C563 C561 1.390 . S
C563 C564 1.387 . S
C563 H566 0.950 . S
C564 C563 1.387 . S
C564 C567 1.387 1_565 S
H565 C561 0.950 . S
H566 C563 0.950 . S
C567 C558 1.390 . S
C567 H560 0.950 . S
C567 C564 1.387 1_545 S
C568 C569 1.387 . S
C568 H572 0.950 . S
C568 C577 1.390 . S
C569 C568 1.387 . S
C569 C571 1.387 . S
H570 C577 0.950 . S
C571 C569 1.387 . S
C571 C573 1.390 . S
C571 H575 0.950 . S
H572 C568 0.950 . S
C573 C571 1.390 . S
C573 C574 1.387 . S
C573 H576 0.950 . S
C574 C573 1.387 . S
C574 C577 1.387 . S
H575 C571 0.950 . S
H576 C573 0.950 . S
C577 C568 1.390 . S
C577 H570 0.950 . S
C577 C574 1.387 . S
C578 C579 1.387 . S
C578 H582 0.950 . S
C578 C587 1.390 . S
C579 C578 1.387 . S
C579 C581 1.387 . S
H580 C587 0.950 . S
C581 C579 1.387 . S
C581 C583 1.390 . S
C581 H585 0.950 . S
H582 C578 0.950 . S
C583 C581 1.390 . S
C583 C584 1.387 . S
C583 H586 0.950 . S
C584 C583 1.387 . S
C584 C587 1.387 . S
H585 C581 0.950 . S
H586 C583 0.950 . S
C587 C578 1.390 . S
C587 H580 0.950 . S
C587 C584 1.387 . S
C349 C215 1.734 1_565 S
C354 C272 1.732 . S
C364 C295 1.867 . S
C359 C247 1.909 . S
C374 C318 1.756 . S
C369 C151 1.714 . S
C384 C345 1.639 . S
C379 C183 1.800 . S
C394 C273 1.637 . S
C389 C87 1.594 1_556 S
C399 C119 1.588 . S
C404 C296 1.684 . S
C409 C23 1.548 . S
C414 C319 1.568 . S
C419 C55 1.659 1_556 S
C424 C344 1.724 . S
C434 C274 0.746 . S
C429 C189 0.744 . S
C444 C297 0.437 . S
C439 C221 0.546 . S
C454 C320 0.607 . S
C449 C253 0.623 . S
C459 C157 0.716 . S
C464 C346 0.731 . S
C469 C61 0.819 . S
C474 C277 0.823 . S
C484 C300 0.795 . S
C479 C93 0.803 . S
C494 C323 0.856 . S
C489 C125 0.843 . S
C499 C29 0.524 . S
C504 C343 0.430 . S
C509 C177 1.891 . S
C514 C275 1.824 . S
C519 C209 1.773 1_566 S
C524 C298 1.794 1_565 S
C534 C321 1.831 . S
C529 C241 1.842 1_556 S
C544 C342 1.692 . S
C539 C145 1.547 1_556 S
C549 C49 1.920 1_655 S
C554 C276 1.846 . S
C564 C299 1.737 . S
C559 C81 1.834 1_565 S
C574 C322 1.741 . S
C569 C113 1.789 . S
C579 C17 1.896 . S
C584 C341 1.953 . S
