# Generated by pormake.
# Topology pto, (3,4)-cn, num edge types: 1
# Building blocks:
#     Node 0, Type 0, BuildingBlock: WUSLED_clean_sbu_0, # of connection points: 3
#     Node 1, Type 0, BuildingBlock: WUSLED_clean_sbu_0, # of connection points: 3
#     Node 2, Type 0, BuildingBlock: WUSLED_clean_sbu_0, # of connection points: 3
#     Node 3, Type 0, BuildingBlock: WUSLED_clean_sbu_0, # of connection points: 3
#     Node 4, Type 0, BuildingBlock: WUSLED_clean_sbu_0, # of connection points: 3
#     Node 5, Type 0, BuildingBlock: WUSLED_clean_sbu_0, # of connection points: 3
#     Node 6, Type 0, BuildingBlock: WUSLED_clean_sbu_0, # of connection points: 3
#     Node 7, Type 0, BuildingBlock: WUSLED_clean_sbu_0, # of connection points: 3
#     Node 8, Type 1, BuildingBlock: NAWXER_clean_linker_0, # of connection points: 4
#     Node 9, Type 1, BuildingBlock: NAWXER_clean_linker_0, # of connection points: 4
#     Node 10, Type 1, BuildingBlock: NAWXER_clean_linker_0, # of connection points: 4
#     Node 11, Type 1, BuildingBlock: NAWXER_clean_linker_0, # of connection points: 4
#     Node 12, Type 1, BuildingBlock: NAWXER_clean_linker_0, # of connection points: 4
#     Node 13, Type 1, BuildingBlock: NAWXER_clean_linker_0, # of connection points: 4
#     Edge 14, Type (0, 1), BuildingBlock: TEMPAE_clean_linker_10, # of connection points: 2
#     Edge 15, Type (0, 1), BuildingBlock: TEMPAE_clean_linker_10, # of connection points: 2
#     Edge 16, Type (0, 1), BuildingBlock: TEMPAE_clean_linker_10, # of connection points: 2
#     Edge 17, Type (0, 1), BuildingBlock: TEMPAE_clean_linker_10, # of connection points: 2
#     Edge 18, Type (0, 1), BuildingBlock: TEMPAE_clean_linker_10, # of connection points: 2
#     Edge 19, Type (0, 1), BuildingBlock: TEMPAE_clean_linker_10, # of connection points: 2
#     Edge 20, Type (0, 1), BuildingBlock: TEMPAE_clean_linker_10, # of connection points: 2
#     Edge 21, Type (0, 1), BuildingBlock: TEMPAE_clean_linker_10, # of connection points: 2
#     Edge 22, Type (0, 1), BuildingBlock: TEMPAE_clean_linker_10, # of connection points: 2
#     Edge 23, Type (0, 1), BuildingBlock: TEMPAE_clean_linker_10, # of connection points: 2
#     Edge 24, Type (0, 1), BuildingBlock: TEMPAE_clean_linker_10, # of connection points: 2
#     Edge 25, Type (0, 1), BuildingBlock: TEMPAE_clean_linker_10, # of connection points: 2
#     Edge 26, Type (0, 1), BuildingBlock: TEMPAE_clean_linker_10, # of connection points: 2
#     Edge 27, Type (0, 1), BuildingBlock: TEMPAE_clean_linker_10, # of connection points: 2
#     Edge 28, Type (0, 1), BuildingBlock: TEMPAE_clean_linker_10, # of connection points: 2
#     Edge 29, Type (0, 1), BuildingBlock: TEMPAE_clean_linker_10, # of connection points: 2
#     Edge 30, Type (0, 1), BuildingBlock: TEMPAE_clean_linker_10, # of connection points: 2
#     Edge 31, Type (0, 1), BuildingBlock: TEMPAE_clean_linker_10, # of connection points: 2
#     Edge 32, Type (0, 1), BuildingBlock: TEMPAE_clean_linker_10, # of connection points: 2
#     Edge 33, Type (0, 1), BuildingBlock: TEMPAE_clean_linker_10, # of connection points: 2
#     Edge 34, Type (0, 1), BuildingBlock: TEMPAE_clean_linker_10, # of connection points: 2
#     Edge 35, Type (0, 1), BuildingBlock: TEMPAE_clean_linker_10, # of connection points: 2
#     Edge 36, Type (0, 1), BuildingBlock: TEMPAE_clean_linker_10, # of connection points: 2
#     Edge 37, Type (0, 1), BuildingBlock: TEMPAE_clean_linker_10, # of connection points: 2
# Relax obj value: 0.000
# Max RMSD: 0.010
# Mean RMSD: 0.005
data_MOF--net-pto--node1-WUSLED_clean_sbu_0--node2-NAWXER_clean_linker_0--edge1-TEMPAE_clean_linker_10
_symmetry_space_group_name_H-M    P1
_symmetry_Int_Tables_number       1
_symmetry_cell_setting            triclinic
loop_
_symmetry_equiv_pos_as_xyz
'x, y, z'
_cell_length_a     52.593994
_cell_length_b     71.503212
_cell_length_c     62.118549
_cell_angle_alpha  89.534693
_cell_angle_beta   90.668663
_cell_angle_gamma 90.588344
loop_
_atom_site_label
_atom_site_type_symbol
_atom_site_fract_x
_atom_site_fract_y
_atom_site_fract_z
_atom_type_partial_charge
C0 C 0.2381 0.22902 0.3419 0.0
C1 C 0.25802 0.21646 0.33873 0.0
C2 C 0.24152 0.19608 0.36708 0.0
C3 C 0.25976 0.20015 0.35126 0.0
C4 C 0.22154 0.20871 0.37007 0.0
C5 C 0.21988 0.22503 0.35759 0.0
U6 U 0.25843 0.25973 0.29451 0.0
O7 O 0.23547 0.27681 0.27216 0.0
O8 O 0.26466 0.29017 0.29254 0.0
C9 C 0.24584 0.2926 0.27873 0.0
C10 C 0.23604 0.24626 0.32896 0.0
C11 C 0.22801 0.30755 0.28396 0.0
C12 C 0.19292 0.31966 0.30464 0.0
C13 C 0.2097 0.30516 0.30003 0.0
C14 C 0.21276 0.33901 0.27725 0.0
C15 C 0.1943 0.33678 0.29331 0.0
C16 C 0.22943 0.32453 0.27264 0.0
C17 C 0.31008 0.24285 0.25671 0.0
C18 C 0.31951 0.25783 0.2224 0.0
C19 C 0.34747 0.23396 0.2368 0.0
C20 C 0.33194 0.232 0.25481 0.0
C21 C 0.34138 0.24681 0.22028 0.0
C22 C 0.30403 0.25589 0.24048 0.0
C23 C 0.29379 0.2403 0.27563 0.0
O24 O 0.25592 0.25754 0.32975 0.0
O25 O 0.22682 0.24411 0.30937 0.0
O26 O 0.26936 0.23813 0.27151 0.0
O27 O 0.29855 0.25164 0.29175 0.0
H28 H 0.2722 0.21929 0.32658 0.0
H29 H 0.2752 0.19062 0.34839 0.0
H30 H 0.20737 0.20611 0.38227 0.0
H31 H 0.20438 0.23458 0.36025 0.0
H32 H 0.17907 0.31755 0.31722 0.0
H33 H 0.20841 0.29213 0.30898 0.0
H34 H 0.2141 0.35188 0.268 0.0
H35 H 0.24343 0.32659 0.26015 0.0
H36 H 0.3141 0.26771 0.20991 0.0
H37 H 0.36437 0.2255 0.23591 0.0
H38 H 0.33698 0.22196 0.26726 0.0
H39 H 0.28723 0.26445 0.24172 0.0
C40 C 0.24189 0.79588 0.67946 0.0
C41 C 0.25708 0.81086 0.6867 0.0
C42 C 0.24611 0.82891 0.65449 0.0
C43 C 0.25913 0.82726 0.67434 0.0
C44 C 0.23097 0.81379 0.64734 0.0
C45 C 0.22889 0.79744 0.65973 0.0
U46 U 0.2613 0.76497 0.72714 0.0
O47 O 0.23795 0.7476 0.74875 0.0
O48 O 0.26697 0.73453 0.72887 0.0
C49 C 0.24804 0.73191 0.74222 0.0
C50 C 0.23946 0.77857 0.69223 0.0
C51 C 0.22998 0.71685 0.73653 0.0
C52 C 0.19207 0.70549 0.71782 0.0
C53 C 0.20925 0.72003 0.72258 0.0
C54 C 0.21644 0.68447 0.74064 0.0
C55 C 0.19547 0.68754 0.72684 0.0
C56 C 0.2335 0.699 0.74543 0.0
C57 C 0.31296 0.78148 0.7664 0.0
C58 C 0.32301 0.76459 0.79949 0.0
C59 C 0.34945 0.79077 0.78826 0.0
C60 C 0.33398 0.79327 0.77003 0.0
C61 C 0.34414 0.77642 0.80324 0.0
C62 C 0.3076 0.76706 0.78118 0.0
C63 C 0.29692 0.78436 0.74714 0.0
O64 O 0.25919 0.76745 0.69183 0.0
O65 O 0.23012 0.78052 0.71161 0.0
O66 O 0.27251 0.78639 0.75071 0.0
O67 O 0.30153 0.77325 0.73093 0.0
H68 H 0.26735 0.80984 0.70188 0.0
H69 H 0.27115 0.83856 0.68019 0.0
H70 H 0.22043 0.81469 0.63229 0.0
H71 H 0.21705 0.78602 0.65392 0.0
H72 H 0.17625 0.70825 0.70698 0.0
H73 H 0.20632 0.73373 0.71546 0.0
H74 H 0.21942 0.67091 0.74808 0.0
H75 H 0.24938 0.69632 0.75625 0.0
H76 H 0.31857 0.75329 0.81059 0.0
H77 H 0.36537 0.80025 0.7908 0.0
H78 H 0.33838 0.80447 0.75878 0.0
H79 H 0.2915 0.75774 0.77855 0.0
C80 C 0.7203 0.78065 0.25989 0.0
C81 C 0.72662 0.76776 0.24394 0.0
C82 C 0.68839 0.77581 0.22347 0.0
C83 C 0.71085 0.76542 0.22583 0.0
C84 C 0.68205 0.78855 0.23965 0.0
C85 C 0.6979 0.79095 0.25767 0.0
U86 U 0.77242 0.76413 0.29858 0.0
O87 O 0.80433 0.77965 0.31339 0.0
O88 O 0.7754 0.76646 0.33383 0.0
C89 C 0.7954 0.77759 0.33296 0.0
C90 C 0.73679 0.78348 0.27891 0.0
C91 C 0.79375 0.79485 0.34556 0.0
C92 C 0.77767 0.82626 0.35049 0.0
C93 C 0.77891 0.8099 0.33833 0.0
C94 C 0.80594 0.81262 0.37725 0.0
C95 C 0.79123 0.82784 0.37009 0.0
C96 C 0.80718 0.7963 0.36508 0.0
C97 C 0.80244 0.71617 0.2892 0.0
C98 C 0.83995 0.70466 0.3081 0.0
C99 C 0.81574 0.68405 0.28463 0.0
C100 C 0.79889 0.69854 0.27992 0.0
C101 C 0.83652 0.68693 0.29873 0.0
C102 C 0.82299 0.71916 0.30342 0.0
C103 C 0.78458 0.73119 0.28363 0.0
O104 O 0.73227 0.77227 0.29532 0.0
O105 O 0.76116 0.78568 0.27501 0.0
O106 O 0.79486 0.74695 0.27677 0.0
O107 O 0.76605 0.73368 0.29729 0.0
H108 H 0.74376 0.75955 0.24547 0.0
H109 H 0.7161 0.75536 0.21376 0.0
H110 H 0.66504 0.7969 0.2382 0.0
H111 H 0.69272 0.80095 0.26984 0.0
H112 H 0.76638 0.83777 0.34439 0.0
H113 H 0.7684 0.809 0.32327 0.0
H114 H 0.81629 0.81323 0.39241 0.0
H115 H 0.81863 0.78477 0.37094 0.0
H116 H 0.85563 0.70727 0.31917 0.0
H117 H 0.81274 0.67067 0.2769 0.0
H118 H 0.78315 0.69601 0.26888 0.0
H119 H 0.82593 0.73269 0.31082 0.0
C120 C 0.75911 0.20983 0.70139 0.0
C121 C 0.74953 0.21235 0.68033 0.0
C122 C 0.76628 0.18218 0.66972 0.0
C123 C 0.75309 0.19868 0.66469 0.0
C124 C 0.77613 0.17977 0.69069 0.0
C125 C 0.77247 0.19339 0.70636 0.0
U126 U 0.77132 0.25664 0.7302 0.0
O127 O 0.74409 0.27635 0.7439 0.0
O128 O 0.77273 0.26303 0.76475 0.0
C129 C 0.75222 0.2734 0.76373 0.0
C130 C 0.75406 0.2236 0.71854 0.0
C131 C 0.73239 0.26973 0.78005 0.0
C132 C 0.71768 0.2541 0.8127 0.0
C133 C 0.73585 0.25639 0.79658 0.0
C134 C 0.69201 0.27818 0.79593 0.0
C135 C 0.69563 0.26509 0.81269 0.0
C136 C 0.71023 0.28052 0.77988 0.0
C137 C 0.82222 0.29049 0.70922 0.0
C138 C 0.82983 0.32115 0.7248 0.0
C139 C 0.85697 0.31006 0.69644 0.0
C140 C 0.84287 0.29341 0.69553 0.0
C141 C 0.85065 0.32414 0.7111 0.0
C142 C 0.81575 0.30443 0.72389 0.0
C143 C 0.80777 0.27282 0.70805 0.0
O144 O 0.7721 0.22593 0.73315 0.0
O145 O 0.7434 0.23939 0.71251 0.0
O146 O 0.78353 0.27435 0.70303 0.0
O147 O 0.81205 0.26091 0.72387 0.0
H148 H 0.73899 0.22476 0.67593 0.0
H149 H 0.74546 0.20102 0.64863 0.0
H150 H 0.78606 0.16711 0.69516 0.0
H151 H 0.77977 0.19091 0.7225 0.0
H152 H 0.72128 0.24408 0.8255 0.0
H153 H 0.7528 0.24793 0.79735 0.0
H154 H 0.67511 0.2867 0.79523 0.0
H155 H 0.7071 0.29099 0.76745 0.0
H156 H 0.82463 0.33162 0.7364 0.0
H157 H 0.87266 0.31201 0.68548 0.0
H158 H 0.84808 0.28279 0.68409 0.0
H159 H 0.79989 0.30235 0.73466 0.0
C160 C 0.8009 0.71485 0.74053 0.0
C161 C 0.8194 0.71758 0.72468 0.0
C162 C 0.83449 0.68575 0.7304 0.0
C163 C 0.83611 0.70315 0.71968 0.0
C164 C 0.81576 0.68314 0.74617 0.0
C165 C 0.79915 0.69755 0.75117 0.0
U166 U 0.77106 0.76303 0.73144 0.0
O167 O 0.73146 0.77184 0.73519 0.0
O168 O 0.76158 0.78446 0.75526 0.0
C169 C 0.737 0.78265 0.75167 0.0
C170 C 0.78347 0.72986 0.74643 0.0
C171 C 0.72114 0.78022 0.77099 0.0
C172 C 0.69174 0.76201 0.79295 0.0
C173 C 0.7072 0.76368 0.77483 0.0
C174 C 0.70439 0.79318 0.80394 0.0
C175 C 0.69003 0.77678 0.80771 0.0
C176 C 0.71968 0.79489 0.78575 0.0
C177 C 0.79066 0.79366 0.68361 0.0
C178 C 0.77123 0.82373 0.67593 0.0
C179 C 0.8048 0.81243 0.65319 0.0
C180 C 0.80655 0.79624 0.66588 0.0
C181 C 0.78706 0.82635 0.658 0.0
C182 C 0.77301 0.8075 0.68863 0.0
C183 C 0.79261 0.77642 0.69655 0.0
O184 O 0.79432 0.74547 0.753 0.0
O185 O 0.76423 0.73262 0.73313 0.0
O186 O 0.7724 0.76546 0.69615 0.0
O187 O 0.80245 0.77841 0.71596 0.0
H188 H 0.82095 0.73086 0.71625 0.0
H189 H 0.85016 0.70555 0.70732 0.0
H190 H 0.81423 0.67004 0.75495 0.0
H191 H 0.78503 0.69524 0.76349 0.0
H192 H 0.68077 0.74925 0.79517 0.0
H193 H 0.70804 0.75208 0.76375 0.0
H194 H 0.70396 0.80471 0.81513 0.0
H195 H 0.73037 0.80774 0.78318 0.0
H196 H 0.7572 0.83407 0.67997 0.0
H197 H 0.81754 0.81412 0.63972 0.0
H198 H 0.82034 0.78572 0.66183 0.0
H199 H 0.76055 0.8057 0.70227 0.0
C200 C 0.71975 0.24022 0.2594 0.0
C201 C 0.7224 0.25605 0.24609 0.0
C202 C 0.68851 0.24445 0.22245 0.0
C203 C 0.7069 0.25815 0.22777 0.0
C204 C 0.68594 0.22866 0.23597 0.0
C205 C 0.70143 0.22658 0.25426 0.0
U206 U 0.77114 0.2577 0.29844 0.0
O207 O 0.77342 0.2554 0.33376 0.0
O208 O 0.80272 0.2426 0.31398 0.0
C209 C 0.79341 0.24453 0.33337 0.0
C210 C 0.73594 0.23773 0.27865 0.0
C211 C 0.79143 0.22724 0.34627 0.0
C212 C 0.77481 0.19573 0.35172 0.0
C213 C 0.77644 0.21208 0.33924 0.0
C214 C 0.803 0.20959 0.37842 0.0
C215 C 0.78806 0.19429 0.37148 0.0
C216 C 0.80466 0.2259 0.36591 0.0
C217 C 0.80149 0.30609 0.28866 0.0
C218 C 0.8392 0.31792 0.30728 0.0
C219 C 0.81469 0.33851 0.28405 0.0
C220 C 0.79781 0.32382 0.27946 0.0
C221 C 0.83565 0.33574 0.29795 0.0
C222 C 0.8222 0.30322 0.30272 0.0
C223 C 0.78368 0.29083 0.28311 0.0
O224 O 0.76037 0.23604 0.275 0.0
O225 O 0.73112 0.24891 0.29476 0.0
O226 O 0.76485 0.28807 0.29653 0.0
O227 O 0.79404 0.27522 0.27665 0.0
H228 H 0.7365 0.26673 0.24985 0.0
H229 H 0.70957 0.27037 0.2176 0.0
H230 H 0.67174 0.21798 0.23255 0.0
H231 H 0.69908 0.21431 0.26442 0.0
H232 H 0.76292 0.18429 0.34603 0.0
H233 H 0.76599 0.21293 0.32413 0.0
H234 H 0.81371 0.20887 0.3934 0.0
H235 H 0.81636 0.23746 0.37155 0.0
H236 H 0.85501 0.31539 0.3182 0.0
H237 H 0.81159 0.35195 0.27637 0.0
H238 H 0.78195 0.32627 0.26854 0.0
H239 H 0.82526 0.28962 0.31006 0.0
C240 C 0.24087 0.22959 0.67907 0.0
C241 C 0.25691 0.2151 0.68592 0.0
C242 C 0.24479 0.19677 0.6544 0.0
C243 C 0.25882 0.1988 0.6737 0.0
C244 C 0.22877 0.2114 0.64767 0.0
C245 C 0.22685 0.22765 0.6599 0.0
U246 U 0.26064 0.2605 0.72636 0.0
O247 O 0.2664 0.29101 0.72775 0.0
O248 O 0.23742 0.27744 0.74784 0.0
C249 C 0.24757 0.2933 0.74115 0.0
C250 C 0.23859 0.2468 0.69168 0.0
C251 C 0.2296 0.30822 0.73544 0.0
C252 C 0.19194 0.31948 0.71652 0.0
C253 C 0.209 0.30506 0.72131 0.0
C254 C 0.21615 0.34035 0.73968 0.0
C255 C 0.19533 0.3373 0.72568 0.0
C256 C 0.23309 0.32595 0.7445 0.0
C257 C 0.31246 0.24444 0.76569 0.0
C258 C 0.32119 0.25965 0.7999 0.0
C259 C 0.35047 0.23672 0.78635 0.0
C260 C 0.33494 0.23427 0.76814 0.0
C261 C 0.34373 0.24938 0.80249 0.0
C262 C 0.30573 0.25725 0.7816 0.0
C263 C 0.2963 0.24151 0.74648 0.0
O264 O 0.22935 0.24461 0.71112 0.0
O265 O 0.25836 0.25818 0.69109 0.0
O266 O 0.30089 0.25279 0.73014 0.0
O267 O 0.2719 0.23908 0.7501 0.0
H268 H 0.26795 0.21641 0.70067 0.0
H269 H 0.27152 0.1879 0.67923 0.0
H270 H 0.21745 0.2102 0.63306 0.0
H271 H 0.21433 0.23869 0.65441 0.0
H272 H 0.17623 0.31674 0.70553 0.0
H273 H 0.20609 0.29146 0.71407 0.0
H274 H 0.21912 0.3538 0.74725 0.0
H275 H 0.24886 0.32862 0.75547 0.0
H276 H 0.31563 0.26965 0.81192 0.0
H277 H 0.36754 0.22846 0.78797 0.0
H278 H 0.34043 0.22433 0.75601 0.0
H279 H 0.28852 0.26535 0.77989 0.0
C280 C 0.20944 0.73297 0.31923 0.0
C281 C 0.21283 0.72061 0.30209 0.0
C282 C 0.18149 0.69908 0.31738 0.0
C283 C 0.19895 0.70381 0.30116 0.0
C284 C 0.17823 0.71157 0.33451 0.0
C285 C 0.19208 0.72835 0.3354 0.0
U286 U 0.25958 0.76684 0.29748 0.0
O287 O 0.25921 0.79752 0.29464 0.0
O288 O 0.28832 0.78383 0.31466 0.0
C289 C 0.27818 0.79971 0.30838 0.0
C290 C 0.22383 0.75068 0.32044 0.0
C291 C 0.27438 0.81354 0.32541 0.0
C292 C 0.25065 0.8256 0.35557 0.0
C293 C 0.25386 0.81212 0.33959 0.0
C294 C 0.28854 0.84188 0.34339 0.0
C295 C 0.26801 0.84063 0.35767 0.0
C296 C 0.29167 0.82846 0.32744 0.0
C297 C 0.29656 0.75392 0.2466 0.0
C298 C 0.3101 0.7697 0.21369 0.0
C299 C 0.33682 0.74606 0.23009 0.0
C300 C 0.31901 0.74344 0.24641 0.0
C301 C 0.33247 0.75911 0.21343 0.0
C302 C 0.29235 0.76716 0.23009 0.0
C303 C 0.27727 0.75011 0.26336 0.0
O304 O 0.2482 0.74908 0.32489 0.0
O305 O 0.21909 0.76278 0.30489 0.0
O306 O 0.2568 0.76054 0.26294 0.0
O307 O 0.28605 0.74702 0.28297 0.0
H308 H 0.22625 0.72394 0.28949 0.0
H309 H 0.20212 0.69442 0.28788 0.0
H310 H 0.1647 0.7085 0.3471 0.0
H311 H 0.18918 0.73777 0.34871 0.0
H312 H 0.23477 0.82416 0.36642 0.0
H313 H 0.24036 0.80063 0.33829 0.0
H314 H 0.30202 0.8534 0.34432 0.0
H315 H 0.30758 0.82979 0.31658 0.0
H316 H 0.30631 0.77998 0.20118 0.0
H317 H 0.3537 0.7375 0.23019 0.0
H318 H 0.32264 0.73297 0.25874 0.0
H319 H 0.27522 0.77543 0.22964 0.0
C320 C 0.97589 0.44889 0.29751 0.0
C321 C 0.95673 0.44585 0.31281 0.0
C322 C 0.99129 0.46493 0.29832 0.0
C323 C 0.98812 0.47818 0.31464 0.0
C324 C 0.95347 0.45923 0.32901 0.0
C325 C 0.9689 0.47526 0.32983 0.0
C326 C 1.00373 0.49558 0.31527 0.0
C327 C 0.05775 0.44789 0.32621 0.0
C328 C 0.07638 0.4463 0.31027 0.0
C329 C 0.04283 0.46394 0.32736 0.0
C330 C 0.04605 0.47865 0.31246 0.0
C331 C 0.07986 0.46122 0.29566 0.0
C332 C 0.06494 0.47723 0.29682 0.0
C333 C 0.03052 0.49582 0.3134 0.0
C334 C 0.05725 0.57684 0.32975 0.0
C335 C 0.07613 0.57972 0.31417 0.0
C336 C 0.04247 0.56047 0.32982 0.0
C337 C 0.04604 0.54671 0.31414 0.0
C338 C 0.07996 0.56576 0.29875 0.0
C339 C 0.06515 0.54939 0.29881 0.0
C340 C 0.03054 0.52925 0.31403 0.0
C341 C 0.97639 0.57585 0.29869 0.0
C342 C 0.95697 0.57818 0.3138 0.0
C343 C 0.9917 0.55998 0.29936 0.0
C344 C 0.98817 0.5462 0.31534 0.0
C345 C 0.95337 0.56429 0.32968 0.0
C346 C 0.96872 0.54842 0.33035 0.0
C347 C 1.00374 0.52901 0.31574 0.0
H348 H 0.97902 0.43884 0.28488 0.0
H349 H 1.00547 0.46708 0.28603 0.0
H350 H 0.93862 0.4575 0.34082 0.0
H351 H 0.96584 0.48541 0.34237 0.0
H352 H 0.05454 0.43665 0.33768 0.0
H353 H 0.02885 0.46487 0.33996 0.0
H354 H 0.09437 0.46063 0.28346 0.0
H355 H 0.06803 0.48849 0.28532 0.0
H356 H 0.05416 0.58712 0.34214 0.0
H357 H 0.0284 0.5585 0.34224 0.0
H358 H 0.09418 0.56758 0.28642 0.0
H359 H 0.0684 0.53892 0.28666 0.0
H360 H 0.97976 0.58631 0.28631 0.0
H361 H 1.00609 0.55839 0.2872 0.0
H362 H 0.93833 0.56549 0.34134 0.0
H363 H 0.9654 0.53786 0.34263 0.0
N364 N 0.99144 0.51219 0.31647 0.0
N365 N 0.04281 0.51265 0.31276 0.0
C366 C 0.97382 0.44655 0.69509 0.0
C367 C 0.95488 0.44395 0.71068 0.0
C368 C 0.98862 0.46292 0.69471 0.0
C369 C 0.98502 0.47693 0.71007 0.0
C370 C 0.95102 0.45816 0.72579 0.0
C371 C 0.96585 0.47451 0.72541 0.0
C372 C 1.00045 0.49442 0.70985 0.0
C373 C 0.055 0.4481 0.72542 0.0
C374 C 0.07431 0.44571 0.71023 0.0
C375 C 0.0396 0.46392 0.72469 0.0
C376 C 0.04292 0.47759 0.70856 0.0
C377 C 0.07771 0.4595 0.6942 0.0
C378 C 0.06228 0.47532 0.69347 0.0
C379 C 0.02724 0.49473 0.70806 0.0
C380 C 0.05469 0.57484 0.72627 0.0
C381 C 0.07379 0.57798 0.71095 0.0
C382 C 0.03935 0.55877 0.72539 0.0
C383 C 0.04254 0.5456 0.70899 0.0
C384 C 0.07705 0.5647 0.69465 0.0
C385 C 0.06168 0.54863 0.69377 0.0
C386 C 0.02703 0.52816 0.70834 0.0
C387 C 0.9727 0.57572 0.69752 0.0
C388 C 0.95381 0.5771 0.71327 0.0
C389 C 0.98783 0.55977 0.69639 0.0
C390 C 0.98458 0.54496 0.71116 0.0
C391 C 0.95029 0.56206 0.72772 0.0
C392 C 0.96543 0.54617 0.72661 0.0
C393 C 1.00025 0.52784 0.71023 0.0
H394 H 0.97738 0.43586 0.68328 0.0
H395 H 1.0028 0.46463 0.68233 0.0
H396 H 0.93632 0.45676 0.73778 0.0
H397 H 0.96247 0.48522 0.73725 0.0
H398 H 0.05177 0.43772 0.73792 0.0
H399 H 0.02529 0.46555 0.7369 0.0
H400 H 0.09267 0.45826 0.68247 0.0
H401 H 0.06544 0.48581 0.68107 0.0
H402 H 0.05158 0.58481 0.73898 0.0
H403 H 0.02521 0.55653 0.7377 0.0
H404 H 0.09186 0.56652 0.68282 0.0
H405 H 0.06474 0.53854 0.68116 0.0
H406 H 0.97596 0.58705 0.68617 0.0
H407 H 1.00197 0.55899 0.68391 0.0
H408 H 0.93558 0.56247 0.73976 0.0
H409 H 0.9623 0.53483 0.73799 0.0
N410 N 0.98808 0.51098 0.71101 0.0
N411 N 0.03942 0.51159 0.7072 0.0
C412 C 0.23315 0.07773 0.4783 0.0
C413 C 0.25106 0.0804 0.46187 0.0
C414 C 0.23373 0.06167 0.49131 0.0
C415 C 0.25245 0.04807 0.48838 0.0
C416 C 0.26957 0.06665 0.45882 0.0
C417 C 0.27018 0.05063 0.47187 0.0
C418 C 0.25286 0.03068 0.50158 0.0
C419 C 0.26839 0.07792 0.54737 0.0
C420 C 0.25032 0.07979 0.56373 0.0
C421 C 0.26862 0.06194 0.53454 0.0
C422 C 0.25053 0.04757 0.53755 0.0
C423 C 0.23257 0.0652 0.56697 0.0
C424 C 0.23276 0.04925 0.55409 0.0
C425 C 0.2507 0.03041 0.52426 0.0
C426 C 0.2697 0.9496 0.54726 0.0
C427 C 0.25117 0.94683 0.56316 0.0
C428 C 0.26975 0.96582 0.5345 0.0
C429 C 0.2511 0.97952 0.53721 0.0
C430 C 0.2328 0.96072 0.56606 0.0
C431 C 0.23287 0.97692 0.5533 0.0
C432 C 0.25111 0.99695 0.5241 0.0
C433 C 0.23635 0.94999 0.47722 0.0
C434 C 0.25463 0.94854 0.46097 0.0
C435 C 0.23596 0.96569 0.49053 0.0
C436 C 0.25408 0.98013 0.48808 0.0
C437 C 0.27262 0.96307 0.4585 0.0
C438 C 0.27224 0.97872 0.47182 0.0
C439 C 0.25345 0.99724 0.50143 0.0
H440 H 0.21833 0.08786 0.4808 0.0
H441 H 0.21928 0.05977 0.50343 0.0
H442 H 0.28376 0.06834 0.44644 0.0
H443 H 0.28465 0.04026 0.46916 0.0
H444 H 0.28227 0.0889 0.54434 0.0
H445 H 0.28305 0.06078 0.52234 0.0
H446 H 0.21868 0.066 0.57966 0.0
H447 H 0.21887 0.03825 0.55696 0.0
H448 H 0.28405 0.93916 0.54453 0.0
H449 H 0.2845 0.9677 0.52263 0.0
H450 H 0.21854 0.9592 0.57841 0.0
H451 H 0.21852 0.9874 0.55591 0.0
H452 H 0.22198 0.9392 0.47932 0.0
H453 H 0.22122 0.96668 0.50249 0.0
H454 H 0.28713 0.96231 0.44632 0.0
H455 H 0.2863 0.98971 0.4695 0.0
N456 N 0.25435 0.01409 0.49113 0.0
N457 N 0.2497 0.01355 0.53456 0.0
C458 C 0.47539 0.78093 0.9397 0.0
C459 C 0.4561 0.76743 0.93645 0.0
C460 C 0.49066 0.78048 0.95827 0.0
C461 C 0.48716 0.7664 0.9739 0.0
C462 C 0.45254 0.75343 0.9522 0.0
C463 C 0.4678 0.753 0.97078 0.0
C464 C 0.50253 0.76621 0.99407 0.0
C465 C 0.55778 0.75535 0.9408 0.0
C466 C 0.57653 0.76937 0.93828 0.0
C467 C 0.54226 0.75499 0.95895 0.0
C468 C 0.54504 0.76871 0.9749 0.0
C469 C 0.57931 0.78301 0.95438 0.0
C470 C 0.56386 0.78258 0.97254 0.0
C471 C 0.52929 0.7682 0.99453 0.0
C472 C 0.55602 0.75522 0.08821 0.0
C473 C 0.57541 0.76877 0.09069 0.0
C474 C 0.54084 0.75485 0.06956 0.0
C475 C 0.54444 0.76823 0.05314 0.0
C476 C 0.57928 0.78188 0.074 0.0
C477 C 0.56402 0.78157 0.05544 0.0
C478 C 0.52893 0.76791 0.03303 0.0
C479 C 0.47394 0.77845 0.08664 0.0
C480 C 0.45431 0.76503 0.08856 0.0
C481 C 0.48956 0.77879 0.06855 0.0
C482 C 0.48621 0.76552 0.05216 0.0
C483 C 0.45073 0.75199 0.07191 0.0
C484 C 0.46645 0.75228 0.05392 0.0
C485 C 0.50212 0.76591 0.03257 0.0
H486 H 0.47872 0.79185 0.92785 0.0
H487 H 0.50496 0.7913 0.96053 0.0
H488 H 0.43761 0.743 0.95035 0.0
H489 H 0.4645 0.74216 0.98275 0.0
H490 H 0.55542 0.74442 0.92896 0.0
H491 H 0.52835 0.74382 0.96067 0.0
H492 H 0.59328 0.79416 0.95286 0.0
H493 H 0.56646 0.79325 0.98469 0.0
H494 H 0.55242 0.74495 0.10075 0.0
H495 H 0.5264 0.74403 0.06794 0.0
H496 H 0.59436 0.79227 0.07514 0.0
H497 H 0.56748 0.79184 0.04286 0.0
H498 H 0.47733 0.78865 0.09915 0.0
H499 H 0.50412 0.78956 0.06732 0.0
H500 H 0.43548 0.74172 0.07259 0.0
H501 H 0.46318 0.74209 0.04135 0.0
N502 N 0.49006 0.76503 0.0131 0.0
N503 N 0.54137 0.76909 0.01397 0.0
C504 C 0.76488 0.07399 0.47931 0.0
C505 C 0.78363 0.07676 0.46359 0.0
C506 C 0.76459 0.05774 0.49201 0.0
C507 C 0.78324 0.04402 0.48948 0.0
C508 C 0.80205 0.06286 0.46089 0.0
C509 C 0.80177 0.04664 0.47363 0.0
C510 C 0.78282 0.02647 0.50241 0.0
C511 C 0.79665 0.07264 0.55055 0.0
C512 C 0.77736 0.07432 0.56592 0.0
C513 C 0.79732 0.0571 0.53701 0.0
C514 C 0.7786 0.043 0.53844 0.0
C515 C 0.75866 0.06015 0.56725 0.0
C516 C 0.75939 0.04462 0.55378 0.0
C517 C 0.77963 0.02601 0.52499 0.0
C518 C 0.79921 0.9454 0.54789 0.0
C519 C 0.78078 0.9426 0.56388 0.0
C520 C 0.79901 0.96152 0.53499 0.0
C521 C 0.78017 0.97509 0.53758 0.0
C522 C 0.76212 0.95631 0.56658 0.0
C523 C 0.76191 0.97241 0.55365 0.0
C524 C 0.78021 0.99258 0.52456 0.0
C525 C 0.76585 0.94585 0.47788 0.0
C526 C 0.7846 0.94396 0.4621 0.0
C527 C 0.76533 0.96173 0.49086 0.0
C528 C 0.78376 0.97596 0.48854 0.0
C529 C 0.80276 0.95837 0.45958 0.0
C530 C 0.80225 0.97423 0.47259 0.0
C531 C 0.78322 0.99302 0.50195 0.0
H532 H 0.75048 0.08442 0.48189 0.0
H533 H 0.7496 0.05584 0.50366 0.0
H534 H 0.81649 0.06438 0.4487 0.0
H535 H 0.81612 0.03615 0.47114 0.0
H536 H 0.8116 0.08311 0.54933 0.0
H537 H 0.81275 0.05594 0.52572 0.0
H538 H 0.74332 0.06109 0.57866 0.0
H539 H 0.74483 0.03387 0.55526 0.0
H540 H 0.81378 0.93509 0.5453 0.0
H541 H 0.81378 0.96346 0.52315 0.0
H542 H 0.74791 0.95476 0.57897 0.0
H543 H 0.74742 0.9828 0.55618 0.0
H544 H 0.75129 0.93519 0.47996 0.0
H545 H 0.75032 0.96298 0.50253 0.0
H546 H 0.81758 0.9573 0.44771 0.0
H547 H 0.81653 0.98509 0.47036 0.0
N548 N 0.7846 0.00995 0.49183 0.0
N549 N 0.77834 1.00909 0.53511 0.0
C550 C 0.47436 0.26927 0.93907 0.0
C551 C 0.45479 0.25588 0.93646 0.0
C552 C 0.48944 0.26947 0.95778 0.0
C553 C 0.48554 0.2561 0.97415 0.0
C554 C 0.45062 0.24277 0.9531 0.0
C555 C 0.46576 0.24293 0.97174 0.0
C556 C 0.50104 0.25619 0.99426 0.0
C557 C 0.55589 0.24495 0.94067 0.0
C558 C 0.57595 0.25801 0.93895 0.0
C559 C 0.54014 0.24482 0.95868 0.0
C560 C 0.5438 0.25802 0.97512 0.0
C561 C 0.57978 0.27102 0.95556 0.0
C562 C 0.56393 0.27097 0.97346 0.0
C563 C 0.52789 0.25778 0.9947 0.0
C564 C 0.55478 0.24224 0.08742 0.0
C565 C 0.57435 0.25554 0.0906 0.0
C566 C 0.53938 0.24287 0.06892 0.0
C567 C 0.54303 0.25694 0.05331 0.0
C568 C 0.57805 0.26952 0.07485 0.0
C569 C 0.56264 0.27014 0.05636 0.0
C570 C 0.52754 0.25737 0.03321 0.0
C571 C 0.47342 0.2681 0.08725 0.0
C572 C 0.45335 0.25504 0.08899 0.0
C573 C 0.48888 0.26843 0.06906 0.0
C574 C 0.48489 0.25547 0.05242 0.0
C575 C 0.44913 0.24231 0.07215 0.0
C576 C 0.46468 0.24257 0.05405 0.0
C577 C 0.5007 0.25582 0.03278 0.0
H578 H 0.47817 0.27953 0.92656 0.0
H579 H 0.50405 0.28016 0.95948 0.0
H580 H 0.43541 0.23249 0.95185 0.0
H581 H 0.4621 0.23265 0.98427 0.0
H582 H 0.55273 0.23455 0.92831 0.0
H583 H 0.52535 0.23423 0.95988 0.0
H584 H 0.59493 0.28135 0.95463 0.0
H585 H 0.56732 0.28117 0.98601 0.0
H586 H 0.55173 0.23106 0.099 0.0
H587 H 0.52491 0.23216 0.06666 0.0
H588 H 0.59277 0.28008 0.07687 0.0
H589 H 0.56596 0.28103 0.04446 0.0
H590 H 0.47686 0.2783 0.09976 0.0
H591 H 0.50372 0.27898 0.06791 0.0
H592 H 0.43396 0.23199 0.07308 0.0
H593 H 0.46104 0.23255 0.04136 0.0
N594 N 0.4886 0.25517 0.01332 0.0
N595 N 0.53999 0.25842 0.01417 0.0
C596 C 0.18544 0.37081 0.29872 0.0
C597 C 0.17651 0.35227 0.29796 0.0
C598 C 0.16875 0.38572 0.30181 0.0
C599 C 0.14243 0.38203 0.30423 0.0
C600 C 0.13335 0.36332 0.30404 0.0
C601 C 0.1505 0.34865 0.30091 0.0
C602 C 0.17923 0.40546 0.30204 0.0
C603 C 0.10543 0.35882 0.30658 0.0
C604 C 0.10246 0.42088 0.32758 0.0
C605 C 0.09234 0.42927 0.3089 0.0
C606 C 0.11838 0.40526 0.32637 0.0
C607 C 0.12437 0.39786 0.30599 0.0
C608 C 0.11382 0.40605 0.28711 0.0
C609 C 0.09795 0.42161 0.2888 0.0
C610 C 0.12924 0.39693 0.34686 0.0
C611 C 0.11965 0.39854 0.26507 0.0
H612 H 0.20557 0.3737 0.29683 0.0
H613 H 0.14341 0.33438 0.30016 0.0
H614 H 0.171 0.41356 0.28838 0.0
H615 H 0.17371 0.41257 0.31707 0.0
H616 H 0.20028 0.40591 0.30081 0.0
H617 H 0.10162 0.34351 0.3073 0.0
H618 H 0.09818 0.36526 0.32146 0.0
H619 H 0.09451 0.36483 0.29284 0.0
H620 H 0.09844 0.42681 0.34317 0.0
H621 H 0.08986 0.42781 0.27431 0.0
H622 H 0.15026 0.39845 0.34696 0.0
H623 H 0.12479 0.38174 0.34771 0.0
H624 H 0.12174 0.40371 0.36147 0.0
H625 H 0.14036 0.39975 0.26207 0.0
H626 H 0.10932 0.40613 0.25203 0.0
H627 H 0.11447 0.38349 0.26423 0.0
C628 C 0.15077 0.67523 0.72269 0.0
C629 C 0.17705 0.67207 0.7223 0.0
C630 C 0.13323 0.66046 0.71985 0.0
C631 C 0.14217 0.64211 0.7165 0.0
C632 C 0.16866 0.63894 0.7155 0.0
C633 C 0.18575 0.65394 0.71842 0.0
C634 C 0.10514 0.66441 0.72105 0.0
C635 C 0.17898 0.61961 0.7118 0.0
C636 C 0.10042 0.60065 0.73233 0.0
C637 C 0.09073 0.59476 0.71234 0.0
C638 C 0.1169 0.61616 0.73391 0.0
C639 C 0.12394 0.62606 0.71503 0.0
C640 C 0.11406 0.62033 0.69481 0.0
C641 C 0.09759 0.60475 0.6937 0.0
C642 C 0.12707 0.62179 0.75578 0.0
C643 C 0.12105 0.63056 0.67433 0.0
H644 H 0.1439 0.68916 0.72589 0.0
H645 H 0.20602 0.65145 0.71775 0.0
H646 H 0.09515 0.65904 0.70651 0.0
H647 H 0.09694 0.65702 0.73517 0.0
H648 H 0.10124 0.67959 0.7225 0.0
H649 H 0.20003 0.61962 0.71052 0.0
H650 H 0.17344 0.61019 0.72526 0.0
H651 H 0.17066 0.61366 0.69682 0.0
H652 H 0.09554 0.59286 0.74678 0.0
H653 H 0.08993 0.60044 0.67822 0.0
H654 H 0.12244 0.6366 0.75896 0.0
H655 H 0.1481 0.62065 0.75615 0.0
H656 H 0.11919 0.61296 0.76895 0.0
H657 H 0.11595 0.64552 0.67552 0.0
H658 H 0.11137 0.62455 0.65993 0.0
H659 H 0.1419 0.62998 0.67196 0.0
C660 C 0.84572 0.65318 0.30661 0.0
C661 C 0.85469 0.67151 0.3032 0.0
C662 C 0.8626 0.63825 0.30945 0.0
C663 C 0.88914 0.6417 0.30887 0.0
C664 C 0.89835 0.66023 0.30603 0.0
C665 C 0.88101 0.67491 0.30324 0.0
C666 C 0.85201 0.61872 0.31259 0.0
C667 C 0.9265 0.66448 0.3053 0.0
C668 C 0.93297 0.60407 0.33138 0.0
C669 C 0.9401 0.59476 0.31261 0.0
C670 C 0.91663 0.6195 0.33042 0.0
C671 C 0.90718 0.62578 0.31021 0.0
C672 C 0.91447 0.61655 0.29121 0.0
C673 C 0.9308 0.60117 0.29263 0.0
C674 C 0.90937 0.62901 0.35103 0.0
C675 C 0.90473 0.62276 0.26935 0.0
H676 H 0.82541 0.65048 0.30695 0.0
H677 H 0.8881 0.689 0.30043 0.0
H678 H 0.85767 0.60977 0.29899 0.0
H679 H 0.85999 0.61239 0.32753 0.0
H680 H 0.83093 0.61851 0.3136 0.0
H681 H 0.93059 0.67973 0.30426 0.0
H682 H 0.93617 0.65873 0.31984 0.0
H683 H 0.93489 0.65761 0.29113 0.0
H684 H 0.94031 0.59935 0.34684 0.0
H685 H 0.9359 0.59391 0.27808 0.0
H686 H 0.88846 0.62819 0.3531 0.0
H687 H 0.91468 0.64406 0.35027 0.0
H688 H 0.9187 0.62263 0.36541 0.0
H689 H 0.8837 0.62146 0.2687 0.0
H690 H 0.91273 0.6144 0.25609 0.0
H691 H 0.90961 0.63771 0.26655 0.0
C692 C 0.89236 0.3415 0.71084 0.0
C693 C 0.86574 0.34185 0.71196 0.0
C694 C 0.90685 0.3581 0.71104 0.0
C695 C 0.89444 0.37552 0.71239 0.0
C696 C 0.8676 0.37599 0.71377 0.0
C697 C 0.85357 0.35916 0.71356 0.0
C698 C 0.93544 0.357 0.70965 0.0
C699 C 0.85367 0.39429 0.71519 0.0
C700 C 0.93342 0.41769 0.73079 0.0
C701 C 0.93916 0.42651 0.71115 0.0
C702 C 0.91874 0.40118 0.73146 0.0
C703 C 0.90958 0.39325 0.71201 0.0
C704 C 0.91519 0.40213 0.69214 0.0
C705 C 0.92989 0.41863 0.69195 0.0
C706 C 0.91322 0.39211 0.75296 0.0
C707 C 0.90572 0.39415 0.67105 0.0
H708 H 0.90193 0.32818 0.70993 0.0
H709 H 0.833 0.35956 0.7142 0.0
H710 H 0.94209 0.36455 0.69506 0.0
H711 H 0.94443 0.36393 0.72377 0.0
H712 H 0.94219 0.34234 0.70902 0.0
H713 H 0.83279 0.39224 0.71666 0.0
H714 H 0.86072 0.40233 0.72928 0.0
H715 H 0.85744 0.40292 0.70063 0.0
H716 H 0.94077 0.42355 0.74568 0.0
H717 H 0.9339 0.4255 0.67673 0.0
H718 H 0.92121 0.37782 0.75352 0.0
H719 H 0.89238 0.3907 0.75514 0.0
H720 H 0.92133 0.40023 0.76664 0.0
H721 H 0.91316 0.37981 0.669 0.0
H722 H 0.91155 0.40282 0.657 0.0
H723 H 0.88466 0.39303 0.67108 0.0
C724 C 0.22148 0.16805 0.38494 0.0
C725 C 0.24332 0.17879 0.38052 0.0
C726 C 0.22278 0.15191 0.39793 0.0
C727 C 0.24649 0.14637 0.40679 0.0
C728 C 0.26864 0.15706 0.40227 0.0
C729 C 0.2668 0.17311 0.38918 0.0
C730 C 0.19876 0.14083 0.40224 0.0
C731 C 0.29425 0.15164 0.41147 0.0
C732 C 0.24577 0.11502 0.45658 0.0
C733 C 0.25019 0.09735 0.44779 0.0
C734 C 0.24468 0.13109 0.44345 0.0
C735 C 0.24804 0.12947 0.42095 0.0
C736 C 0.2526 0.1117 0.41198 0.0
C737 C 0.25363 0.09586 0.42549 0.0
C738 C 0.23989 0.1498 0.45365 0.0
C739 C 0.25617 0.10937 0.38807 0.0
H740 H 0.20334 0.17219 0.37806 0.0
H741 H 0.2837 0.18145 0.38604 0.0
H742 H 0.201 0.1262 0.39682 0.0
H743 H 0.19512 0.14032 0.41979 0.0
H744 H 0.18189 0.14689 0.39394 0.0
H745 H 0.3097 0.16127 0.40617 0.0
H746 H 0.29364 0.15166 0.42931 0.0
H747 H 0.29899 0.13723 0.4065 0.0
H748 H 0.24342 0.11632 0.47381 0.0
H749 H 0.25672 0.08224 0.41853 0.0
H750 H 0.22228 0.15597 0.44678 0.0
H751 H 0.25575 0.15963 0.45001 0.0
H752 H 0.23791 0.14871 0.47141 0.0
H753 H 0.23893 0.11412 0.37923 0.0
H754 H 0.25989 0.09463 0.38366 0.0
H755 H 0.2723 0.11822 0.38254 0.0
C756 C 0.34957 0.77072 0.84297 0.0
C757 C 0.36049 0.77397 0.82276 0.0
C758 C 0.36477 0.76907 0.86163 0.0
C759 C 0.39155 0.77064 0.86004 0.0
C760 C 0.4027 0.77361 0.83964 0.0
C761 C 0.38705 0.77526 0.82127 0.0
C762 C 0.35215 0.76598 0.88309 0.0
C763 C 0.43118 0.77523 0.83725 0.0
C764 C 0.42992 0.78533 0.90944 0.0
C765 C 0.43947 0.76818 0.91691 0.0
C766 C 0.41421 0.7863 0.89104 0.0
C767 C 0.40789 0.76972 0.87978 0.0
C768 C 0.41739 0.75235 0.88725 0.0
C769 C 0.43304 0.75179 0.90574 0.0
C770 C 0.40437 0.80508 0.88366 0.0
C771 C 0.41117 0.73438 0.87564 0.0
H772 H 0.32905 0.7699 0.84428 0.0
H773 H 0.39563 0.7775 0.80567 0.0
H774 H 0.35975 0.75322 0.89103 0.0
H775 H 0.35651 0.77792 0.89385 0.0
H776 H 0.33117 0.76447 0.8815 0.0
H777 H 0.4369 0.77699 0.82018 0.0
H778 H 0.4385 0.78739 0.84652 0.0
H779 H 0.44049 0.76258 0.84397 0.0
H780 H 0.43447 0.79802 0.91817 0.0
H781 H 0.44056 0.73851 0.91128 0.0
H782 H 0.38327 0.80483 0.88325 0.0
H783 H 0.41083 0.80813 0.86705 0.0
H784 H 0.41088 0.81663 0.89429 0.0
H785 H 0.39026 0.73223 0.87478 0.0
H786 H 0.41983 0.72201 0.88365 0.0
H787 H 0.41808 0.73524 0.85885 0.0
C788 C 0.76696 0.85457 0.38567 0.0
C789 C 0.79007 0.84524 0.38308 0.0
C790 C 0.76558 0.8708 0.39819 0.0
C791 C 0.78783 0.87789 0.40842 0.0
C792 C 0.81123 0.86863 0.40576 0.0
C793 C 0.81208 0.85246 0.39311 0.0
C794 C 0.74026 0.88027 0.40064 0.0
C795 C 0.8354 0.87578 0.41633 0.0
C796 C 0.7899 0.92871 0.42615 0.0
C797 C 0.78517 0.92705 0.44828 0.0
C798 C 0.79066 0.91285 0.41297 0.0
C799 C 0.78661 0.89488 0.42211 0.0
C800 C 0.78172 0.89311 0.44441 0.0
C801 C 0.78106 0.90919 0.45721 0.0
C802 C 0.79582 0.91534 0.38925 0.0
C803 C 0.77742 0.87419 0.45479 0.0
H804 H 0.7498 0.84898 0.3782 0.0
H805 H 0.83009 0.84554 0.39093 0.0
H806 H 0.73487 0.88033 0.41785 0.0
H807 H 0.74169 0.89507 0.39525 0.0
H808 H 0.72485 0.87325 0.39125 0.0
H809 H 0.85208 0.86701 0.4126 0.0
H810 H 0.8394 0.89033 0.41094 0.0
H811 H 0.8331 0.87607 0.43406 0.0
H812 H 0.79274 0.94246 0.41907 0.0
H813 H 0.77771 0.90777 0.47434 0.0
H814 H 0.77983 0.90938 0.37963 0.0
H815 H 0.81319 0.90762 0.3849 0.0
H816 H 0.79842 0.93027 0.38462 0.0
H817 H 0.76118 0.86691 0.44682 0.0
H818 H 0.77345 0.87522 0.47227 0.0
H819 H 0.79443 0.86537 0.4527 0.0
C820 C 0.67047 0.24582 0.83921 0.0
C821 C 0.67694 0.26339 0.83049 0.0
C822 C 0.65357 0.24415 0.8565 0.0
C823 C 0.64275 0.26044 0.86524 0.0
C824 C 0.64889 0.27818 0.85632 0.0
C825 C 0.66595 0.27944 0.83914 0.0
C826 C 0.64751 0.22499 0.86558 0.0
C827 C 0.63775 0.29588 0.86517 0.0
C828 C 0.58303 0.25645 0.8991 0.0
C829 C 0.59304 0.258 0.92004 0.0
C830 C 0.59898 0.25701 0.8811 0.0
C831 C 0.6256 0.25904 0.88414 0.0
C832 C 0.63584 0.26028 0.90527 0.0
C833 C 0.61945 0.2598 0.92294 0.0
C834 C 0.58733 0.25578 0.85883 0.0
C835 C 0.66412 0.26228 0.90921 0.0
H836 H 0.67858 0.23332 0.83247 0.0
H837 H 0.6711 0.2931 0.83279 0.0
H838 H 0.65349 0.22425 0.88275 0.0
H839 H 0.62669 0.22238 0.86495 0.0
H840 H 0.65712 0.21369 0.85672 0.0
H841 H 0.64363 0.30851 0.85587 0.0
H842 H 0.61668 0.29492 0.86496 0.0
H843 H 0.6439 0.29767 0.88218 0.0
H844 H 0.56263 0.25522 0.89675 0.0
H845 H 0.62732 0.26072 0.93911 0.0
H846 H 0.59581 0.24406 0.8499 0.0
H847 H 0.59153 0.26881 0.84966 0.0
H848 H 0.56638 0.25368 0.85922 0.0
H849 H 0.67425 0.25053 0.90166 0.0
H850 H 0.6691 0.26253 0.92664 0.0
H851 H 0.67123 0.2754 0.90164 0.0
C852 C 0.25076 0.84539 0.61888 0.0
C853 C 0.2481 0.84635 0.6413 0.0
C854 C 0.25191 0.86169 0.60614 0.0
C855 C 0.25034 0.87941 0.61602 0.0
C856 C 0.24796 0.88049 0.63867 0.0
C857 C 0.2469 0.86396 0.65103 0.0
C858 C 0.25462 0.85994 0.58207 0.0
C859 C 0.24615 0.89911 0.6498 0.0
C860 C 0.27383 0.92221 0.58498 0.0
C861 C 0.25102 0.92956 0.57674 0.0
C862 C 0.2739 0.90594 0.59783 0.0
C863 C 0.25061 0.89679 0.6026 0.0
C864 C 0.22753 0.90414 0.59438 0.0
C865 C 0.22802 0.92041 0.58155 0.0
C866 C 0.2989 0.89856 0.60634 0.0
C867 C 0.20231 0.89477 0.59903 0.0
H868 H 0.25209 0.83185 0.61127 0.0
H869 H 0.24456 0.86481 0.6683 0.0
H870 H 0.238 0.8663 0.57376 0.0
H871 H 0.2718 0.86769 0.57664 0.0
H872 H 0.25609 0.84515 0.57692 0.0
H873 H 0.24512 0.89758 0.66759 0.0
H874 H 0.26286 0.90802 0.64582 0.0
H875 H 0.22898 0.90658 0.64398 0.0
H876 H 0.29165 0.92932 0.5816 0.0
H877 H 0.21035 0.92583 0.57502 0.0
H878 H 0.30169 0.88406 0.60069 0.0
H879 H 0.29871 0.89806 0.62419 0.0
H880 H 0.31535 0.90729 0.60114 0.0
H881 H 0.20219 0.88028 0.59278 0.0
H882 H 0.18604 0.9024 0.59167 0.0
H883 H 0.19944 0.89382 0.61668 0.0
C884 C 0.68235 0.77302 0.18349 0.0
C885 C 0.67177 0.7736 0.2041 0.0
C886 C 0.66682 0.77167 0.165 0.0
C887 C 0.64005 0.77079 0.16717 0.0
C888 C 0.62928 0.77103 0.18795 0.0
C889 C 0.64526 0.77249 0.20615 0.0
C890 C 0.67903 0.77159 0.14313 0.0
C891 C 0.60085 0.76992 0.19095 0.0
C892 C 0.59887 0.78634 0.11975 0.0
C893 C 0.59171 0.7692 0.11049 0.0
C894 C 0.61461 0.78704 0.13814 0.0
C895 C 0.62329 0.77018 0.14767 0.0
C896 C 0.61598 0.75283 0.13855 0.0
C897 C 0.60036 0.75255 0.12005 0.0
C898 C 0.62199 0.80583 0.14735 0.0
C899 C 0.6248 0.73456 0.14828 0.0
H900 H 0.7028 0.77407 0.18178 0.0
H901 H 0.63698 0.77268 0.22205 0.0
H902 H 0.67285 0.759 0.13407 0.0
H903 H 0.6728 0.78398 0.13367 0.0
H904 H 0.70013 0.77178 0.14422 0.0
H905 H 0.59554 0.76966 0.20821 0.0
H906 H 0.59168 0.78212 0.18305 0.0
H907 H 0.59303 0.75717 0.18314 0.0
H908 H 0.59197 0.79927 0.11271 0.0
H909 H 0.59524 0.73925 0.11287 0.0
H910 H 0.643 0.80741 0.14772 0.0
H911 H 0.61538 0.8068 0.1642 0.0
H912 H 0.61384 0.81764 0.13791 0.0
H913 H 0.64586 0.73398 0.14812 0.0
H914 H 0.61703 0.72225 0.13951 0.0
H915 H 0.6189 0.73355 0.16535 0.0
C916 C 0.7481 0.16187 0.64052 0.0
C917 C 0.76897 0.16722 0.65341 0.0
C918 C 0.74995 0.14721 0.62573 0.0
C919 C 0.77327 0.1377 0.62369 0.0
C920 C 0.79456 0.14327 0.63634 0.0
C921 C 0.79213 0.15792 0.6511 0.0
C922 C 0.72676 0.14161 0.61265 0.0
C923 C 0.81981 0.13359 0.6345 0.0
C924 C 0.77049 0.08801 0.60246 0.0
C925 C 0.77688 0.09059 0.58076 0.0
C926 C 0.76941 0.10319 0.61659 0.0
C927 C 0.77504 0.12145 0.60892 0.0
C928 C 0.78187 0.12416 0.58713 0.0
C929 C 0.78265 0.10871 0.57329 0.0
C930 C 0.76205 0.0997 0.63972 0.0
C931 C 0.78809 0.1434 0.57836 0.0
H932 H 0.73006 0.16883 0.6424 0.0
H933 H 0.80841 0.16214 0.66083 0.0
H934 H 0.73115 0.14202 0.59523 0.0
H935 H 0.72113 0.12702 0.61672 0.0
H936 H 0.71032 0.15086 0.61555 0.0
H937 H 0.83478 0.14009 0.64484 0.0
H938 H 0.8177 0.11866 0.63922 0.0
H939 H 0.82624 0.13397 0.61756 0.0
H940 H 0.76648 0.07404 0.6085 0.0
H941 H 0.78734 0.11089 0.55651 0.0
H942 H 0.7447 0.10768 0.6435 0.0
H943 H 0.77741 0.10471 0.65069 0.0
H944 H 0.75834 0.08465 0.64317 0.0
H945 H 0.77128 0.15255 0.57972 0.0
H946 H 0.79388 0.14307 0.56123 0.0
H947 H 0.80369 0.14987 0.58799 0.0
C948 C 0.36314 0.26612 0.19173 0.0
C949 C 0.35767 0.24853 0.20087 0.0
C950 C 0.37855 0.26786 0.17347 0.0
C951 C 0.38886 0.25163 0.16416 0.0
C952 C 0.38341 0.23385 0.17327 0.0
C953 C 0.36784 0.23251 0.19144 0.0
C954 C 0.38389 0.28706 0.16419 0.0
C955 C 0.394 0.21621 0.16381 0.0
C956 C 0.41031 0.25281 0.1059 0.0
C957 C 0.43678 0.25471 0.10824 0.0
C958 C 0.39447 0.25208 0.12393 0.0
C959 C 0.40534 0.25319 0.14485 0.0
C960 C 0.43202 0.2553 0.14732 0.0
C961 C 0.44741 0.25608 0.12899 0.0
C962 C 0.3661 0.24999 0.12061 0.0
C963 C 0.44436 0.2564 0.16935 0.0
H964 H 0.35565 0.27859 0.19904 0.0
H965 H 0.36339 0.21884 0.19812 0.0
H966 H 0.40464 0.28998 0.16456 0.0
H967 H 0.3776 0.28766 0.14709 0.0
H968 H 0.37414 0.29826 0.17313 0.0
H969 H 0.38819 0.20348 0.17294 0.0
H970 H 0.38741 0.21473 0.14687 0.0
H971 H 0.41507 0.21702 0.16365 0.0
H972 H 0.40195 0.25202 0.08989 0.0
H973 H 0.46786 0.25736 0.13092 0.0
H974 H 0.35614 0.26167 0.12846 0.0
H975 H 0.3593 0.23682 0.12826 0.0
H976 H 0.36059 0.24981 0.10329 0.0
H977 H 0.43617 0.26809 0.17854 0.0
H978 H 0.46529 0.2585 0.16852 0.0
H979 H 0.44042 0.24333 0.17853 0.0
C980 C 0.8785 0.67417 0.72309 0.0
C981 C 0.85245 0.67042 0.72554 0.0
C982 C 0.89582 0.65963 0.71988 0.0
C983 C 0.88687 0.64089 0.71912 0.0
C984 C 0.86052 0.63708 0.721 0.0
C985 C 0.84365 0.65186 0.72416 0.0
C986 C 0.92377 0.66427 0.71792 0.0
C987 C 0.85018 0.61731 0.72016 0.0
C988 C 0.92785 0.60257 0.69588 0.0
C989 C 0.9376 0.59401 0.7146 0.0
C990 C 0.91171 0.61807 0.69705 0.0
C991 C 0.90511 0.62517 0.71744 0.0
C992 C 0.91525 0.61681 0.73636 0.0
C993 C 0.93139 0.60139 0.73472 0.0
C994 C 0.90133 0.62662 0.67651 0.0
C995 C 0.90874 0.62397 0.75841 0.0
H996 H 0.88549 0.68843 0.72432 0.0
H997 H 0.8235 0.64888 0.72567 0.0
H998 H 0.93438 0.65815 0.73177 0.0
H999 H 0.93146 0.65803 0.70309 0.0
H1000 H 0.92748 0.67959 0.7175 0.0
H1001 H 0.82909 0.61677 0.72094 0.0
H1002 H 0.85619 0.61045 0.70512 0.0
H1003 H 0.85806 0.60904 0.73383 0.0
H1004 H 0.93233 0.59686 0.68028 0.0
H1005 H 0.93919 0.59508 0.74925 0.0
H1006 H 0.90566 0.64183 0.67601 0.0
H1007 H 0.88033 0.625 0.67597 0.0
H1008 H 0.90928 0.62007 0.66193 0.0
H1009 H 0.91381 0.63903 0.75963 0.0
H1010 H 0.91873 0.61623 0.77151 0.0
H1011 H 0.88794 0.62268 0.76096 0.0
C1012 C 0.84505 0.36951 0.30576 0.0
C1013 C 0.85392 0.35136 0.30225 0.0
C1014 C 0.86201 0.38462 0.30851 0.0
C1015 C 0.88853 0.38155 0.3077 0.0
C1016 C 0.89764 0.36319 0.3047 0.0
C1017 C 0.88023 0.34831 0.30203 0.0
C1018 C 0.85152 0.40395 0.31183 0.0
C1019 C 0.92577 0.35934 0.30371 0.0
C1020 C 0.93025 0.42296 0.29157 0.0
C1021 C 0.93978 0.42905 0.31154 0.0
C1022 C 0.91382 0.40741 0.2901 0.0
C1023 C 0.90665 0.39768 0.30906 0.0
C1024 C 0.91634 0.40364 0.32926 0.0
C1025 C 0.93279 0.41924 0.33026 0.0
C1026 C 0.90386 0.40154 0.26825 0.0
C1027 C 0.9092 0.39361 0.34984 0.0
H1028 H 0.82475 0.37193 0.3063 0.0
H1029 H 0.88724 0.33437 0.29912 0.0
H1030 H 0.85964 0.4101 0.32678 0.0
H1031 H 0.85713 0.41324 0.29827 0.0
H1032 H 0.83045 0.40387 0.31295 0.0
H1033 H 0.9298 0.34417 0.30246 0.0
H1034 H 0.93404 0.36664 0.28956 0.0
H1035 H 0.9356 0.36487 0.31825 0.0
H1036 H 0.93523 0.43061 0.27706 0.0
H1037 H 0.94032 0.42369 0.34572 0.0
H1038 H 0.88283 0.4026 0.26774 0.0
H1039 H 0.90861 0.38671 0.26529 0.0
H1040 H 0.91179 0.41027 0.25501 0.0
H1041 H 0.88831 0.39411 0.35202 0.0
H1042 H 0.91867 0.39981 0.36421 0.0
H1043 H 0.91445 0.37865 0.34891 0.0
C1044 C 0.18591 0.37097 0.71749 0.0
C1045 C 0.17705 0.35265 0.7211 0.0
C1046 C 0.16895 0.38584 0.71459 0.0
C1047 C 0.14243 0.38234 0.71531 0.0
C1048 C 0.13333 0.3638 0.71834 0.0
C1049 C 0.15074 0.34917 0.72118 0.0
C1050 C 0.17944 0.40538 0.71125 0.0
C1051 C 0.10519 0.35949 0.71921 0.0
C1052 C 0.10071 0.42288 0.73144 0.0
C1053 C 0.09126 0.42916 0.71147 0.0
C1054 C 0.1171 0.40754 0.73291 0.0
C1055 C 0.12431 0.39821 0.71393 0.0
C1056 C 0.1147 0.40437 0.69373 0.0
C1057 C 0.09831 0.41976 0.69273 0.0
C1058 C 0.12699 0.40147 0.75476 0.0
C1059 C 0.12187 0.39475 0.67315 0.0
H1060 H 0.20621 0.37372 0.71705 0.0
H1061 H 0.14374 0.33509 0.72414 0.0
H1062 H 0.17132 0.41161 0.69631 0.0
H1063 H 0.17382 0.41439 0.72482 0.0
H1064 H 0.2005 0.40563 0.71014 0.0
H1065 H 0.10118 0.34423 0.72037 0.0
H1066 H 0.09686 0.36641 0.73338 0.0
H1067 H 0.09542 0.36514 0.70467 0.0
H1068 H 0.09568 0.43021 0.74596 0.0
H1069 H 0.09085 0.42438 0.67727 0.0
H1070 H 0.14802 0.40281 0.75531 0.0
H1071 H 0.1222 0.38652 0.75769 0.0
H1072 H 0.11904 0.40987 0.768 0.0
H1073 H 0.14276 0.39561 0.67098 0.0
H1074 H 0.11242 0.40103 0.65877 0.0
H1075 H 0.11663 0.3797 0.67405 0.0
C1076 C 0.16295 0.67046 0.33519 0.0
C1077 C 0.16663 0.68124 0.31647 0.0
C1078 C 0.14855 0.65382 0.3347 0.0
C1079 C 0.13753 0.64776 0.31503 0.0
C1080 C 0.14135 0.65846 0.29604 0.0
C1081 C 0.15585 0.67506 0.29698 0.0
C1082 C 0.14503 0.64276 0.35529 0.0
C1083 C 0.12988 0.65248 0.27475 0.0
C1084 C 0.11809 0.59651 0.31035 0.0
C1085 C 0.09184 0.59719 0.3141 0.0
C1086 C 0.13315 0.61286 0.31045 0.0
C1087 C 0.12173 0.63033 0.31441 0.0
C1088 C 0.09524 0.63112 0.31809 0.0
C1089 C 0.08063 0.61457 0.31788 0.0
C1090 C 0.16133 0.61142 0.30649 0.0
C1091 C 0.08233 0.64948 0.32231 0.0
H1092 H 0.17153 0.67498 0.35024 0.0
H1093 H 0.15835 0.6834 0.2825 0.0
H1094 H 0.1245 0.64159 0.35904 0.0
H1095 H 0.15219 0.62835 0.3533 0.0
H1096 H 0.15509 0.64927 0.3692 0.0
H1097 H 0.13505 0.66216 0.26138 0.0
H1098 H 0.13633 0.63823 0.27071 0.0
H1099 H 0.10885 0.65187 0.27592 0.0
H1100 H 0.12697 0.58313 0.30769 0.0
H1101 H 0.06032 0.61526 0.32047 0.0
H1102 H 0.17216 0.61661 0.32071 0.0
H1103 H 0.16673 0.62036 0.29257 0.0
H1104 H 0.1672 0.59684 0.30326 0.0
H1105 H 0.09075 0.65608 0.33688 0.0
H1106 H 0.06153 0.64774 0.32469 0.0
H1107 H 0.08546 0.65927 0.30863 0.0
C1108 C 0.7865 0.84228 0.62182 0.0
C1109 C 0.78515 0.84351 0.64432 0.0
C1110 C 0.78535 0.85834 0.60869 0.0
C1111 C 0.78272 0.87611 0.61826 0.0
C1112 C 0.78105 0.87745 0.64093 0.0
C1113 C 0.78229 0.86115 0.65368 0.0
C1114 C 0.7871 0.85629 0.58458 0.0
C1115 C 0.77826 0.89614 0.65175 0.0
C1116 C 0.80435 0.91877 0.58611 0.0
C1117 C 0.78123 0.92558 0.57789 0.0
C1118 C 0.80508 0.90276 0.59934 0.0
C1119 C 0.78214 0.8933 0.60453 0.0
C1120 C 0.75873 0.90013 0.59636 0.0
C1121 C 0.75856 0.91617 0.58314 0.0
C1122 C 0.83042 0.89594 0.60776 0.0
C1123 C 0.73388 0.89042 0.60149 0.0
H1124 H 0.78829 0.82869 0.61441 0.0
H1125 H 0.78152 0.86226 0.67105 0.0
H1126 H 0.77002 0.86232 0.57662 0.0
H1127 H 0.80386 0.8642 0.57856 0.0
H1128 H 0.78876 0.84146 0.57965 0.0
H1129 H 0.7766 0.89477 0.6695 0.0
H1130 H 0.79494 0.9052 0.64811 0.0
H1131 H 0.76116 0.90337 0.64535 0.0
H1132 H 0.82191 0.92611 0.58243 0.0
H1133 H 0.74065 0.92119 0.57665 0.0
H1134 H 0.83367 0.88145 0.60226 0.0
H1135 H 0.83044 0.89561 0.62562 0.0
H1136 H 0.84651 0.90493 0.60233 0.0
H1137 H 0.73411 0.87584 0.59552 0.0
H1138 H 0.71728 0.89768 0.59417 0.0
H1139 H 0.73131 0.88967 0.61918 0.0
C1140 C 0.66666 0.23106 0.18979 0.0
C1141 C 0.67206 0.24653 0.2029 0.0
C1142 C 0.65087 0.2327 0.1715 0.0
C1143 C 0.64022 0.25025 0.1661 0.0
C1144 C 0.64573 0.26596 0.17915 0.0
C1145 C 0.66156 0.26392 0.19738 0.0
C1146 C 0.64554 0.21562 0.15797 0.0
C1147 C 0.63475 0.28492 0.17392 0.0
C1148 C 0.61746 0.2577 0.10834 0.0
C1149 C 0.59115 0.25459 0.11006 0.0
C1150 C 0.6336 0.25654 0.12647 0.0
C1151 C 0.62324 0.2521 0.14684 0.0
C1152 C 0.5967 0.24908 0.14873 0.0
C1153 C 0.58099 0.25038 0.13034 0.0
C1154 C 0.66179 0.25984 0.12377 0.0
C1155 C 0.58491 0.24436 0.17017 0.0
H1156 H 0.675 0.21764 0.19372 0.0
H1157 H 0.66538 0.2759 0.20754 0.0
H1158 H 0.62479 0.2127 0.15733 0.0
H1159 H 0.65181 0.21819 0.1412 0.0
H1160 H 0.65532 0.20299 0.16433 0.0
H1161 H 0.64116 0.29579 0.1855 0.0
H1162 H 0.64036 0.28937 0.15748 0.0
H1163 H 0.61368 0.2841 0.17408 0.0
H1164 H 0.62554 0.26071 0.0927 0.0
H1165 H 0.56066 0.24822 0.13187 0.0
H1166 H 0.67234 0.24705 0.12846 0.0
H1167 H 0.66843 0.27122 0.13456 0.0
H1168 H 0.66675 0.26364 0.10695 0.0
H1169 H 0.59306 0.23119 0.17665 0.0
H1170 H 0.56392 0.24267 0.16898 0.0
H1171 H 0.58941 0.25553 0.18195 0.0
C1172 C 0.24676 0.16178 0.6513 0.0
C1173 C 0.24669 0.17947 0.64134 0.0
C1174 C 0.24784 0.14535 0.63909 0.0
C1175 C 0.24892 0.14662 0.61635 0.0
C1176 C 0.24916 0.16442 0.60621 0.0
C1177 C 0.24804 0.18061 0.61881 0.0
C1178 C 0.24746 0.12663 0.65051 0.0
C1179 C 0.25046 0.16638 0.58202 0.0
C1180 C 0.27281 0.10502 0.58481 0.0
C1181 C 0.25 0.09684 0.57738 0.0
C1182 C 0.27275 0.12116 0.59757 0.0
C1183 C 0.24932 0.12932 0.60311 0.0
C1184 C 0.22624 0.12108 0.59577 0.0
C1185 C 0.22686 0.10499 0.58298 0.0
C1186 C 0.29777 0.1295 0.6051 0.0
C1187 C 0.20086 0.12937 0.6013 0.0
H1188 H 0.24544 0.16077 0.66867 0.0
H1189 H 0.24838 0.19422 0.611 0.0
H1190 H 0.2304 0.11849 0.64539 0.0
H1191 H 0.26436 0.11843 0.64603 0.0
H1192 H 0.24725 0.12804 0.6683 0.0
H1193 H 0.2509 0.18123 0.57665 0.0
H1194 H 0.26769 0.15938 0.57603 0.0
H1195 H 0.23376 0.15936 0.57445 0.0
H1196 H 0.29077 0.09868 0.58085 0.0
H1197 H 0.20916 0.09894 0.57708 0.0
H1198 H 0.29845 0.12993 0.62294 0.0
H1199 H 0.29959 0.14413 0.59918 0.0
H1200 H 0.31433 0.12147 0.59941 0.0
H1201 H 0.19892 0.13016 0.61904 0.0
H1202 H 0.18463 0.12107 0.5947 0.0
H1203 H 0.19967 0.14385 0.59486 0.0
C1204 C 0.37708 0.76183 0.19965 0.0
C1205 C 0.35081 0.76118 0.19548 0.0
C1206 C 0.39459 0.76311 0.18276 0.0
C1207 C 0.38562 0.76361 0.16118 0.0
C1208 C 0.35911 0.76317 0.15689 0.0
C1209 C 0.34205 0.76201 0.17408 0.0
C1210 C 0.42269 0.76375 0.18801 0.0
C1211 C 0.34878 0.76353 0.13411 0.0
C1212 C 0.42873 0.78148 0.11655 0.0
C1213 C 0.43735 0.76474 0.10764 0.0
C1214 C 0.41221 0.78134 0.13417 0.0
C1215 C 0.40392 0.76405 0.14304 0.0
C1216 C 0.41271 0.74712 0.13427 0.0
C1217 C 0.42938 0.74767 0.11677 0.0
C1218 C 0.40335 0.7997 0.14312 0.0
C1219 C 0.4043 0.72839 0.14324 0.0
H1220 H 0.38396 0.76141 0.21616 0.0
H1221 H 0.32179 0.76128 0.17074 0.0
H1222 H 0.43213 0.75143 0.18102 0.0
H1223 H 0.43151 0.77641 0.18069 0.0
H1224 H 0.42654 0.76386 0.20563 0.0
H1225 H 0.32766 0.76359 0.13351 0.0
H1226 H 0.35599 0.7761 0.12545 0.0
H1227 H 0.3555 0.75111 0.12531 0.0
H1228 H 0.43448 0.79474 0.10946 0.0
H1229 H 0.43625 0.73466 0.11028 0.0
H1230 H 0.40777 0.8004 0.16061 0.0
H1231 H 0.38241 0.80075 0.14123 0.0
H1232 H 0.41234 0.81193 0.13498 0.0
H1233 H 0.40947 0.72736 0.16057 0.0
H1234 H 0.413 0.71651 0.13469 0.0
H1235 H 0.38331 0.727 0.14197 0.0
C1236 C 0.78396 0.17798 0.40725 0.0
C1237 C 0.78646 0.17692 0.38482 0.0
C1238 C 0.78303 0.16174 0.42011 0.0
C1239 C 0.78467 0.14398 0.41034 0.0
C1240 C 0.78696 0.14279 0.3877 0.0
C1241 C 0.7878 0.15927 0.37522 0.0
C1242 C 0.78041 0.16361 0.44418 0.0
C1243 C 0.78886 0.12412 0.37668 0.0
C1244 C 0.80689 0.10311 0.4451 0.0
C1245 C 0.78387 0.09399 0.44992 0.0
C1246 C 0.80743 0.11931 0.43217 0.0
C1247 C 0.78438 0.12666 0.42387 0.0
C1248 C 0.76107 0.11754 0.42866 0.0
C1249 C 0.76109 0.10132 0.44159 0.0
C1250 C 0.83268 0.12864 0.42748 0.0
C1251 C 0.73609 0.12491 0.42009 0.0
H1252 H 0.78254 0.19155 0.41476 0.0
H1253 H 0.79002 0.15833 0.35794 0.0
H1254 H 0.76321 0.15593 0.44967 0.0
H1255 H 0.79702 0.15724 0.45249 0.0
H1256 H 0.77903 0.17842 0.44924 0.0
H1257 H 0.78998 0.12557 0.3589 0.0
H1258 H 0.80599 0.11667 0.38262 0.0
H1259 H 0.77212 0.11523 0.38065 0.0
H1260 H 0.82454 0.0977 0.45169 0.0
H1261 H 0.74325 0.09423 0.44495 0.0
H1262 H 0.83281 0.14316 0.43366 0.0
H1263 H 0.83556 0.12953 0.40984 0.0
H1264 H 0.84892 0.12102 0.43489 0.0
H1265 H 0.73333 0.13945 0.42563 0.0
H1266 H 0.71962 0.11623 0.42533 0.0
H1267 H 0.73629 0.12532 0.40223 0.0
C1268 C 0.34909 0.25213 0.84255 0.0
C1269 C 0.36002 0.25162 0.82207 0.0
C1270 C 0.36431 0.25343 0.86123 0.0
C1271 C 0.39112 0.25434 0.85939 0.0
C1272 C 0.40223 0.2542 0.83874 0.0
C1273 C 0.38656 0.25279 0.82035 0.0
C1274 C 0.35173 0.25343 0.88295 0.0
C1275 C 0.43071 0.25532 0.83608 0.0
C1276 C 0.43021 0.27229 0.90702 0.0
C1277 C 0.43868 0.25557 0.91656 0.0
C1278 C 0.4148 0.27212 0.88839 0.0
C1279 C 0.40756 0.25482 0.87909 0.0
C1280 C 0.41606 0.23791 0.8886 0.0
C1281 C 0.43155 0.23849 0.90715 0.0
C1282 C 0.40616 0.29045 0.8787 0.0
C1283 C 0.40878 0.21917 0.87918 0.0
H1284 H 0.32861 0.25103 0.84401 0.0
H1285 H 0.39511 0.25266 0.80455 0.0
H1286 H 0.35775 0.24097 0.89239 0.0
H1287 H 0.35783 0.26595 0.89218 0.0
H1288 H 0.33065 0.2533 0.8816 0.0
H1289 H 0.43632 0.25569 0.8189 0.0
H1290 H 0.43841 0.26802 0.84409 0.0
H1291 H 0.43975 0.24307 0.84399 0.0
H1292 H 0.43531 0.28554 0.91433 0.0
H1293 H 0.43831 0.22551 0.91418 0.0
H1294 H 0.38508 0.29103 0.87859 0.0
H1295 H 0.41236 0.29158 0.86173 0.0
H1296 H 0.41376 0.30271 0.88768 0.0
H1297 H 0.38777 0.21763 0.87856 0.0
H1298 H 0.41674 0.2073 0.88863 0.0
H1299 H 0.41565 0.21828 0.86241 0.0
C1300 C 0.24069 0.86268 0.37836 0.0
C1301 C 0.26472 0.85516 0.37443 0.0
C1302 C 0.2377 0.87725 0.39317 0.0
C1303 C 0.25926 0.88446 0.40433 0.0
C1304 C 0.28343 0.87656 0.40087 0.0
C1305 C 0.28586 0.86203 0.386 0.0
C1306 C 0.21161 0.88529 0.3964 0.0
C1307 C 0.30687 0.88377 0.41252 0.0
C1308 C 0.25895 0.93455 0.4243 0.0
C1309 C 0.25484 0.93208 0.44643 0.0
C1310 C 0.26 0.9192 0.41041 0.0
C1311 C 0.25685 0.90086 0.41881 0.0
C1312 C 0.25226 0.89825 0.44106 0.0
C1313 C 0.2513 0.91389 0.4546 0.0
C1314 C 0.26481 0.9226 0.38677 0.0
C1315 C 0.24883 0.87893 0.45062 0.0
H1316 H 0.2243 0.85757 0.36937 0.0
H1317 H 0.30442 0.85608 0.38333 0.0
H1318 H 0.2069 0.88524 0.41377 0.0
H1319 H 0.21137 0.90006 0.3908 0.0
H1320 H 0.19658 0.87739 0.38752 0.0
H1321 H 0.32406 0.87556 0.40878 0.0
H1322 H 0.31045 0.89859 0.40796 0.0
H1323 H 0.30393 0.88332 0.43018 0.0
H1324 H 0.26125 0.94857 0.41779 0.0
H1325 H 0.24833 0.91184 0.4717 0.0
H1326 H 0.24931 0.91623 0.37695 0.0
H1327 H 0.28279 0.91583 0.38211 0.0
H1328 H 0.26617 0.93774 0.3827 0.0
H1329 H 0.23329 0.87135 0.44206 0.0
H1330 H 0.24436 0.87931 0.46805 0.0
H1331 H 0.26645 0.87077 0.44853 0.0
C1332 C 0.67101 0.75829 0.83834 0.0
C1333 C 0.67318 0.7752 0.82681 0.0
C1334 C 0.65518 0.75669 0.85635 0.0
C1335 C 0.64133 0.77241 0.86316 0.0
C1336 C 0.64342 0.7895 0.85163 0.0
C1337 C 0.65917 0.79066 0.83357 0.0
C1338 C 0.65338 0.73819 0.86816 0.0
C1339 C 0.62904 0.80661 0.85842 0.0
C1340 C 0.58332 0.76557 0.89853 0.0
C1341 C 0.59324 0.76973 0.91905 0.0
C1342 C 0.59882 0.76612 0.88026 0.0
C1343 C 0.62485 0.77108 0.88248 0.0
C1344 C 0.63502 0.77518 0.90313 0.0
C1345 C 0.61915 0.77438 0.92114 0.0
C1346 C 0.58728 0.76157 0.85853 0.0
C1347 C 0.66266 0.78057 0.90618 0.0
H1348 H 0.68198 0.74633 0.83346 0.0
H1349 H 0.66031 0.8037 0.82459 0.0
H1350 H 0.66001 0.73988 0.88505 0.0
H1351 H 0.63328 0.73336 0.86867 0.0
H1352 H 0.66488 0.72718 0.86051 0.0
H1353 H 0.63283 0.81888 0.84781 0.0
H1354 H 0.6083 0.80361 0.85819 0.0
H1355 H 0.6344 0.81035 0.87519 0.0
H1356 H 0.56329 0.7622 0.89668 0.0
H1357 H 0.62712 0.77729 0.93694 0.0
H1358 H 0.59791 0.75007 0.85098 0.0
H1359 H 0.58877 0.77393 0.84769 0.0
H1360 H 0.56694 0.75735 0.85962 0.0
H1361 H 0.67499 0.7693 0.90015 0.0
H1362 H 0.66767 0.78321 0.92332 0.0
H1363 H 0.66703 0.79337 0.89666 0.0
loop_
_geom_bond_atom_site_label_1
_geom_bond_atom_site_label_2
_geom_bond_distance
_geom_bond_site_symmetry_2
_ccdc_geom_bond_type
C0 C1 1.264 . S
C0 C5 1.479 . S
C0 C10 1.465 . S
C1 C0 1.264 . S
C1 C3 1.339 . S
C1 H28 0.931 . S
C2 C3 1.395 . S
C2 C4 1.320 . S
C3 C1 1.339 . S
C3 C2 1.395 . S
C3 H29 0.929 . S
C4 C2 1.320 . S
C4 C5 1.405 . S
C4 H30 0.930 . S
C5 C0 1.479 . S
C5 C4 1.405 . S
C5 H31 0.931 . S
U6 O7 2.454 . S
U6 O8 2.458 . S
U6 C9 2.984 . S
U6 C10 2.847 . S
U6 C23 2.882 . S
U6 O24 2.441 . S
U6 O25 2.420 . S
U6 O26 2.455 . S
U6 O27 2.449 . S
O7 U6 2.454 . S
O7 C9 1.353 . S
O8 U6 2.458 . S
O8 C9 1.286 . S
C9 U6 2.984 . S
C9 O7 1.353 . S
C9 O8 1.286 . S
C9 C11 1.363 . S
C10 C0 1.465 . S
C10 U6 2.847 . S
C10 O24 1.249 . S
C10 O25 1.202 . S
C11 C9 1.363 . S
C11 C13 1.408 . S
C11 C16 1.342 . S
C12 C13 1.310 . S
C12 C15 1.461 . S
C12 H32 0.932 . S
C13 C11 1.408 . S
C13 C12 1.310 . S
C13 H33 0.930 . S
C14 C15 1.474 . S
C14 C16 1.285 . S
C14 H34 0.929 . S
C15 C12 1.461 . S
C15 C14 1.474 . S
C16 C11 1.342 . S
C16 C14 1.285 . S
C16 H35 0.930 . S
C17 C20 1.424 . S
C17 C22 1.245 . S
C17 C23 1.428 . S
C18 C21 1.260 . S
C18 C22 1.477 . S
C18 H36 0.932 . S
C19 C20 1.384 . S
C19 C21 1.479 . S
C19 H37 0.929 . S
C20 C17 1.424 . S
C20 C19 1.384 . S
C20 H38 0.928 . S
C21 C18 1.260 . S
C21 C19 1.479 . S
C22 C17 1.245 . S
C22 C18 1.477 . S
C22 H39 0.932 . S
C23 U6 2.882 . S
C23 C17 1.428 . S
C23 O26 1.301 . S
C23 O27 1.282 . S
O24 U6 2.441 . S
O24 C10 1.249 . S
O25 U6 2.420 . S
O25 C10 1.202 . S
O26 U6 2.455 . S
O26 C23 1.301 . S
O27 U6 2.449 . S
O27 C23 1.282 . S
H28 C1 0.931 . S
H29 C3 0.929 . S
H30 C4 0.930 . S
H31 C5 0.931 . S
H32 C12 0.932 . S
H33 C13 0.930 . S
H34 C14 0.929 . S
H35 C16 0.930 . S
H36 C18 0.932 . S
H37 C19 0.929 . S
H38 C20 0.928 . S
H39 C22 0.932 . S
C40 C41 1.264 . S
C40 C45 1.479 . S
C40 C50 1.465 . S
C41 C40 1.264 . S
C41 C43 1.339 . S
C41 H68 0.931 . S
C42 C43 1.395 . S
C42 C44 1.320 . S
C43 C41 1.339 . S
C43 C42 1.395 . S
C43 H69 0.929 . S
C44 C42 1.320 . S
C44 C45 1.405 . S
C44 H70 0.930 . S
C45 C40 1.479 . S
C45 C44 1.405 . S
C45 H71 0.931 . S
U46 O47 2.454 . S
U46 O48 2.458 . S
U46 C49 2.984 . S
U46 C50 2.847 . S
U46 C63 2.882 . S
U46 O64 2.441 . S
U46 O65 2.420 . S
U46 O66 2.455 . S
U46 O67 2.449 . S
O47 U46 2.454 . S
O47 C49 1.353 . S
O48 U46 2.458 . S
O48 C49 1.286 . S
C49 U46 2.984 . S
C49 O47 1.353 . S
C49 O48 1.286 . S
C49 C51 1.363 . S
C50 C40 1.465 . S
C50 U46 2.847 . S
C50 O64 1.249 . S
C50 O65 1.202 . S
C51 C49 1.363 . S
C51 C53 1.408 . S
C51 C56 1.342 . S
C52 C53 1.310 . S
C52 C55 1.461 . S
C52 H72 0.932 . S
C53 C51 1.408 . S
C53 C52 1.310 . S
C53 H73 0.930 . S
C54 C55 1.474 . S
C54 C56 1.285 . S
C54 H74 0.929 . S
C55 C52 1.461 . S
C55 C54 1.474 . S
C56 C51 1.342 . S
C56 C54 1.285 . S
C56 H75 0.930 . S
C57 C60 1.424 . S
C57 C62 1.245 . S
C57 C63 1.428 . S
C58 C61 1.260 . S
C58 C62 1.477 . S
C58 H76 0.932 . S
C59 C60 1.384 . S
C59 C61 1.479 . S
C59 H77 0.929 . S
C60 C57 1.424 . S
C60 C59 1.384 . S
C60 H78 0.928 . S
C61 C58 1.260 . S
C61 C59 1.479 . S
C62 C57 1.245 . S
C62 C58 1.477 . S
C62 H79 0.932 . S
C63 U46 2.882 . S
C63 C57 1.428 . S
C63 O66 1.301 . S
C63 O67 1.282 . S
O64 U46 2.441 . S
O64 C50 1.249 . S
O65 U46 2.420 . S
O65 C50 1.202 . S
O66 U46 2.455 . S
O66 C63 1.301 . S
O67 U46 2.449 . S
O67 C63 1.282 . S
H68 C41 0.931 . S
H69 C43 0.929 . S
H70 C44 0.930 . S
H71 C45 0.931 . S
H72 C52 0.932 . S
H73 C53 0.930 . S
H74 C54 0.929 . S
H75 C56 0.930 . S
H76 C58 0.932 . S
H77 C59 0.929 . S
H78 C60 0.928 . S
H79 C62 0.932 . S
C80 C81 1.264 . S
C80 C85 1.479 . S
C80 C90 1.465 . S
C81 C80 1.264 . S
C81 C83 1.339 . S
C81 H108 0.931 . S
C82 C83 1.395 . S
C82 C84 1.320 . S
C83 C81 1.339 . S
C83 C82 1.395 . S
C83 H109 0.929 . S
C84 C82 1.320 . S
C84 C85 1.405 . S
C84 H110 0.930 . S
C85 C80 1.479 . S
C85 C84 1.405 . S
C85 H111 0.931 . S
U86 O87 2.454 . S
U86 O88 2.458 . S
U86 C89 2.984 . S
U86 C90 2.847 . S
U86 C103 2.882 . S
U86 O104 2.441 . S
U86 O105 2.420 . S
U86 O106 2.455 . S
U86 O107 2.449 . S
O87 U86 2.454 . S
O87 C89 1.353 . S
O88 U86 2.458 . S
O88 C89 1.286 . S
C89 U86 2.984 . S
C89 O87 1.353 . S
C89 O88 1.286 . S
C89 C91 1.363 . S
C90 C80 1.465 . S
C90 U86 2.847 . S
C90 O104 1.249 . S
C90 O105 1.202 . S
C91 C89 1.363 . S
C91 C93 1.408 . S
C91 C96 1.342 . S
C92 C93 1.310 . S
C92 C95 1.461 . S
C92 H112 0.932 . S
C93 C91 1.408 . S
C93 C92 1.310 . S
C93 H113 0.930 . S
C94 C95 1.474 . S
C94 C96 1.285 . S
C94 H114 0.929 . S
C95 C92 1.461 . S
C95 C94 1.474 . S
C96 C91 1.342 . S
C96 C94 1.285 . S
C96 H115 0.930 . S
C97 C100 1.424 . S
C97 C102 1.245 . S
C97 C103 1.428 . S
C98 C101 1.260 . S
C98 C102 1.477 . S
C98 H116 0.932 . S
C99 C100 1.384 . S
C99 C101 1.479 . S
C99 H117 0.929 . S
C100 C97 1.424 . S
C100 C99 1.384 . S
C100 H118 0.928 . S
C101 C98 1.260 . S
C101 C99 1.479 . S
C102 C97 1.245 . S
C102 C98 1.477 . S
C102 H119 0.932 . S
C103 U86 2.882 . S
C103 C97 1.428 . S
C103 O106 1.301 . S
C103 O107 1.282 . S
O104 U86 2.441 . S
O104 C90 1.249 . S
O105 U86 2.420 . S
O105 C90 1.202 . S
O106 U86 2.455 . S
O106 C103 1.301 . S
O107 U86 2.449 . S
O107 C103 1.282 . S
H108 C81 0.931 . S
H109 C83 0.929 . S
H110 C84 0.930 . S
H111 C85 0.931 . S
H112 C92 0.932 . S
H113 C93 0.930 . S
H114 C94 0.929 . S
H115 C96 0.930 . S
H116 C98 0.932 . S
H117 C99 0.929 . S
H118 C100 0.928 . S
H119 C102 0.932 . S
C120 C121 1.264 . S
C120 C125 1.479 . S
C120 C130 1.465 . S
C121 C120 1.264 . S
C121 C123 1.339 . S
C121 H148 0.931 . S
C122 C123 1.395 . S
C122 C124 1.320 . S
C123 C121 1.339 . S
C123 C122 1.395 . S
C123 H149 0.929 . S
C124 C122 1.320 . S
C124 C125 1.405 . S
C124 H150 0.930 . S
C125 C120 1.479 . S
C125 C124 1.405 . S
C125 H151 0.931 . S
U126 O127 2.454 . S
U126 O128 2.458 . S
U126 C129 2.984 . S
U126 C130 2.847 . S
U126 C143 2.882 . S
U126 O144 2.441 . S
U126 O145 2.420 . S
U126 O146 2.455 . S
U126 O147 2.449 . S
O127 U126 2.454 . S
O127 C129 1.353 . S
O128 U126 2.458 . S
O128 C129 1.286 . S
C129 U126 2.984 . S
C129 O127 1.353 . S
C129 O128 1.286 . S
C129 C131 1.363 . S
C130 C120 1.465 . S
C130 U126 2.847 . S
C130 O144 1.249 . S
C130 O145 1.202 . S
C131 C129 1.363 . S
C131 C133 1.408 . S
C131 C136 1.342 . S
C132 C133 1.310 . S
C132 C135 1.461 . S
C132 H152 0.932 . S
C133 C131 1.408 . S
C133 C132 1.310 . S
C133 H153 0.930 . S
C134 C135 1.474 . S
C134 C136 1.285 . S
C134 H154 0.929 . S
C135 C132 1.461 . S
C135 C134 1.474 . S
C136 C131 1.342 . S
C136 C134 1.285 . S
C136 H155 0.930 . S
C137 C140 1.424 . S
C137 C142 1.245 . S
C137 C143 1.428 . S
C138 C141 1.260 . S
C138 C142 1.477 . S
C138 H156 0.932 . S
C139 C140 1.384 . S
C139 C141 1.479 . S
C139 H157 0.929 . S
C140 C137 1.424 . S
C140 C139 1.384 . S
C140 H158 0.928 . S
C141 C138 1.260 . S
C141 C139 1.479 . S
C142 C137 1.245 . S
C142 C138 1.477 . S
C142 H159 0.932 . S
C143 U126 2.882 . S
C143 C137 1.428 . S
C143 O146 1.301 . S
C143 O147 1.282 . S
O144 U126 2.441 . S
O144 C130 1.249 . S
O145 U126 2.420 . S
O145 C130 1.202 . S
O146 U126 2.455 . S
O146 C143 1.301 . S
O147 U126 2.449 . S
O147 C143 1.282 . S
H148 C121 0.931 . S
H149 C123 0.929 . S
H150 C124 0.930 . S
H151 C125 0.931 . S
H152 C132 0.932 . S
H153 C133 0.930 . S
H154 C134 0.929 . S
H155 C136 0.930 . S
H156 C138 0.932 . S
H157 C139 0.929 . S
H158 C140 0.928 . S
H159 C142 0.932 . S
C160 C161 1.264 . S
C160 C165 1.479 . S
C160 C170 1.465 . S
C161 C160 1.264 . S
C161 C163 1.339 . S
C161 H188 0.931 . S
C162 C163 1.395 . S
C162 C164 1.320 . S
C163 C161 1.339 . S
C163 C162 1.395 . S
C163 H189 0.929 . S
C164 C162 1.320 . S
C164 C165 1.405 . S
C164 H190 0.930 . S
C165 C160 1.479 . S
C165 C164 1.405 . S
C165 H191 0.931 . S
U166 O167 2.454 . S
U166 O168 2.458 . S
U166 C169 2.984 . S
U166 C170 2.847 . S
U166 C183 2.882 . S
U166 O184 2.441 . S
U166 O185 2.420 . S
U166 O186 2.455 . S
U166 O187 2.449 . S
O167 U166 2.454 . S
O167 C169 1.353 . S
O168 U166 2.458 . S
O168 C169 1.286 . S
C169 U166 2.984 . S
C169 O167 1.353 . S
C169 O168 1.286 . S
C169 C171 1.363 . S
C170 C160 1.465 . S
C170 U166 2.847 . S
C170 O184 1.249 . S
C170 O185 1.202 . S
C171 C169 1.363 . S
C171 C173 1.408 . S
C171 C176 1.342 . S
C172 C173 1.310 . S
C172 C175 1.461 . S
C172 H192 0.932 . S
C173 C171 1.408 . S
C173 C172 1.310 . S
C173 H193 0.930 . S
C174 C175 1.474 . S
C174 C176 1.285 . S
C174 H194 0.929 . S
C175 C172 1.461 . S
C175 C174 1.474 . S
C176 C171 1.342 . S
C176 C174 1.285 . S
C176 H195 0.930 . S
C177 C180 1.424 . S
C177 C182 1.245 . S
C177 C183 1.428 . S
C178 C181 1.260 . S
C178 C182 1.477 . S
C178 H196 0.932 . S
C179 C180 1.384 . S
C179 C181 1.479 . S
C179 H197 0.929 . S
C180 C177 1.424 . S
C180 C179 1.384 . S
C180 H198 0.928 . S
C181 C178 1.260 . S
C181 C179 1.479 . S
C182 C177 1.245 . S
C182 C178 1.477 . S
C182 H199 0.932 . S
C183 U166 2.882 . S
C183 C177 1.428 . S
C183 O186 1.301 . S
C183 O187 1.282 . S
O184 U166 2.441 . S
O184 C170 1.249 . S
O185 U166 2.420 . S
O185 C170 1.202 . S
O186 U166 2.455 . S
O186 C183 1.301 . S
O187 U166 2.449 . S
O187 C183 1.282 . S
H188 C161 0.931 . S
H189 C163 0.929 . S
H190 C164 0.930 . S
H191 C165 0.931 . S
H192 C172 0.932 . S
H193 C173 0.930 . S
H194 C174 0.929 . S
H195 C176 0.930 . S
H196 C178 0.932 . S
H197 C179 0.929 . S
H198 C180 0.928 . S
H199 C182 0.932 . S
C200 C201 1.264 . S
C200 C205 1.479 . S
C200 C210 1.465 . S
C201 C200 1.264 . S
C201 C203 1.339 . S
C201 H228 0.931 . S
C202 C203 1.395 . S
C202 C204 1.320 . S
C203 C201 1.339 . S
C203 C202 1.395 . S
C203 H229 0.929 . S
C204 C202 1.320 . S
C204 C205 1.405 . S
C204 H230 0.930 . S
C205 C200 1.479 . S
C205 C204 1.405 . S
C205 H231 0.931 . S
U206 O207 2.454 . S
U206 O208 2.458 . S
U206 C209 2.984 . S
U206 C210 2.847 . S
U206 C223 2.882 . S
U206 O224 2.441 . S
U206 O225 2.420 . S
U206 O226 2.455 . S
U206 O227 2.449 . S
O207 U206 2.454 . S
O207 C209 1.353 . S
O208 U206 2.458 . S
O208 C209 1.286 . S
C209 U206 2.984 . S
C209 O207 1.353 . S
C209 O208 1.286 . S
C209 C211 1.363 . S
C210 C200 1.465 . S
C210 U206 2.847 . S
C210 O224 1.249 . S
C210 O225 1.202 . S
C211 C209 1.363 . S
C211 C213 1.408 . S
C211 C216 1.342 . S
C212 C213 1.310 . S
C212 C215 1.461 . S
C212 H232 0.932 . S
C213 C211 1.408 . S
C213 C212 1.310 . S
C213 H233 0.930 . S
C214 C215 1.474 . S
C214 C216 1.285 . S
C214 H234 0.929 . S
C215 C212 1.461 . S
C215 C214 1.474 . S
C216 C211 1.342 . S
C216 C214 1.285 . S
C216 H235 0.930 . S
C217 C220 1.424 . S
C217 C222 1.245 . S
C217 C223 1.428 . S
C218 C221 1.260 . S
C218 C222 1.477 . S
C218 H236 0.932 . S
C219 C220 1.384 . S
C219 C221 1.479 . S
C219 H237 0.929 . S
C220 C217 1.424 . S
C220 C219 1.384 . S
C220 H238 0.928 . S
C221 C218 1.260 . S
C221 C219 1.479 . S
C222 C217 1.245 . S
C222 C218 1.477 . S
C222 H239 0.932 . S
C223 U206 2.882 . S
C223 C217 1.428 . S
C223 O226 1.301 . S
C223 O227 1.282 . S
O224 U206 2.441 . S
O224 C210 1.249 . S
O225 U206 2.420 . S
O225 C210 1.202 . S
O226 U206 2.455 . S
O226 C223 1.301 . S
O227 U206 2.449 . S
O227 C223 1.282 . S
H228 C201 0.931 . S
H229 C203 0.929 . S
H230 C204 0.930 . S
H231 C205 0.931 . S
H232 C212 0.932 . S
H233 C213 0.930 . S
H234 C214 0.929 . S
H235 C216 0.930 . S
H236 C218 0.932 . S
H237 C219 0.929 . S
H238 C220 0.928 . S
H239 C222 0.932 . S
C240 C241 1.264 . S
C240 C245 1.479 . S
C240 C250 1.465 . S
C241 C240 1.264 . S
C241 C243 1.339 . S
C241 H268 0.931 . S
C242 C243 1.395 . S
C242 C244 1.320 . S
C243 C241 1.339 . S
C243 C242 1.395 . S
C243 H269 0.929 . S
C244 C242 1.320 . S
C244 C245 1.405 . S
C244 H270 0.930 . S
C245 C240 1.479 . S
C245 C244 1.405 . S
C245 H271 0.931 . S
U246 O247 2.454 . S
U246 O248 2.458 . S
U246 C249 2.984 . S
U246 C250 2.847 . S
U246 C263 2.882 . S
U246 O264 2.441 . S
U246 O265 2.420 . S
U246 O266 2.455 . S
U246 O267 2.449 . S
O247 U246 2.454 . S
O247 C249 1.353 . S
O248 U246 2.458 . S
O248 C249 1.286 . S
C249 U246 2.984 . S
C249 O247 1.353 . S
C249 O248 1.286 . S
C249 C251 1.363 . S
C250 C240 1.465 . S
C250 U246 2.847 . S
C250 O264 1.249 . S
C250 O265 1.202 . S
C251 C249 1.363 . S
C251 C253 1.408 . S
C251 C256 1.342 . S
C252 C253 1.310 . S
C252 C255 1.461 . S
C252 H272 0.932 . S
C253 C251 1.408 . S
C253 C252 1.310 . S
C253 H273 0.930 . S
C254 C255 1.474 . S
C254 C256 1.285 . S
C254 H274 0.929 . S
C255 C252 1.461 . S
C255 C254 1.474 . S
C256 C251 1.342 . S
C256 C254 1.285 . S
C256 H275 0.930 . S
C257 C260 1.424 . S
C257 C262 1.245 . S
C257 C263 1.428 . S
C258 C261 1.260 . S
C258 C262 1.477 . S
C258 H276 0.932 . S
C259 C260 1.384 . S
C259 C261 1.479 . S
C259 H277 0.929 . S
C260 C257 1.424 . S
C260 C259 1.384 . S
C260 H278 0.928 . S
C261 C258 1.260 . S
C261 C259 1.479 . S
C262 C257 1.245 . S
C262 C258 1.477 . S
C262 H279 0.932 . S
C263 U246 2.882 . S
C263 C257 1.428 . S
C263 O266 1.301 . S
C263 O267 1.282 . S
O264 U246 2.441 . S
O264 C250 1.249 . S
O265 U246 2.420 . S
O265 C250 1.202 . S
O266 U246 2.455 . S
O266 C263 1.301 . S
O267 U246 2.449 . S
O267 C263 1.282 . S
H268 C241 0.931 . S
H269 C243 0.929 . S
H270 C244 0.930 . S
H271 C245 0.931 . S
H272 C252 0.932 . S
H273 C253 0.930 . S
H274 C254 0.929 . S
H275 C256 0.930 . S
H276 C258 0.932 . S
H277 C259 0.929 . S
H278 C260 0.928 . S
H279 C262 0.932 . S
C280 C281 1.264 . S
C280 C285 1.479 . S
C280 C290 1.465 . S
C281 C280 1.264 . S
C281 C283 1.339 . S
C281 H308 0.931 . S
C282 C283 1.395 . S
C282 C284 1.320 . S
C283 C281 1.339 . S
C283 C282 1.395 . S
C283 H309 0.929 . S
C284 C282 1.320 . S
C284 C285 1.405 . S
C284 H310 0.930 . S
C285 C280 1.479 . S
C285 C284 1.405 . S
C285 H311 0.931 . S
U286 O287 2.454 . S
U286 O288 2.458 . S
U286 C289 2.984 . S
U286 C290 2.847 . S
U286 C303 2.882 . S
U286 O304 2.441 . S
U286 O305 2.420 . S
U286 O306 2.455 . S
U286 O307 2.449 . S
O287 U286 2.454 . S
O287 C289 1.353 . S
O288 U286 2.458 . S
O288 C289 1.286 . S
C289 U286 2.984 . S
C289 O287 1.353 . S
C289 O288 1.286 . S
C289 C291 1.363 . S
C290 C280 1.465 . S
C290 U286 2.847 . S
C290 O304 1.249 . S
C290 O305 1.202 . S
C291 C289 1.363 . S
C291 C293 1.408 . S
C291 C296 1.342 . S
C292 C293 1.310 . S
C292 C295 1.461 . S
C292 H312 0.932 . S
C293 C291 1.408 . S
C293 C292 1.310 . S
C293 H313 0.930 . S
C294 C295 1.474 . S
C294 C296 1.285 . S
C294 H314 0.929 . S
C295 C292 1.461 . S
C295 C294 1.474 . S
C296 C291 1.342 . S
C296 C294 1.285 . S
C296 H315 0.930 . S
C297 C300 1.424 . S
C297 C302 1.245 . S
C297 C303 1.428 . S
C298 C301 1.260 . S
C298 C302 1.477 . S
C298 H316 0.932 . S
C299 C300 1.384 . S
C299 C301 1.479 . S
C299 H317 0.929 . S
C300 C297 1.424 . S
C300 C299 1.384 . S
C300 H318 0.928 . S
C301 C298 1.260 . S
C301 C299 1.479 . S
C302 C297 1.245 . S
C302 C298 1.477 . S
C302 H319 0.932 . S
C303 U286 2.882 . S
C303 C297 1.428 . S
C303 O306 1.301 . S
C303 O307 1.282 . S
O304 U286 2.441 . S
O304 C290 1.249 . S
O305 U286 2.420 . S
O305 C290 1.202 . S
O306 U286 2.455 . S
O306 C303 1.301 . S
O307 U286 2.449 . S
O307 C303 1.282 . S
H308 C281 0.931 . S
H309 C283 0.929 . S
H310 C284 0.930 . S
H311 C285 0.931 . S
H312 C292 0.932 . S
H313 C293 0.930 . S
H314 C294 0.929 . S
H315 C296 0.930 . S
H316 C298 0.932 . S
H317 C299 0.929 . S
H318 C300 0.928 . S
H319 C302 0.932 . S
C320 C321 1.384 . S
C320 C322 1.384 . S
C320 H348 0.931 . S
C321 C320 1.384 . S
C321 C324 1.382 . S
C322 C320 1.384 . S
C322 C323 1.381 . S
C322 H349 0.930 . S
C323 C322 1.381 . S
C323 C325 1.381 . S
C323 C326 1.487 . S
C324 C321 1.382 . S
C324 C325 1.387 . S
C324 H350 0.930 . S
C325 C323 1.381 . S
C325 C324 1.387 . S
C325 H351 0.931 . S
C326 C323 1.487 . S
C326 C333 1.399 1_655 S
C326 N364 1.343 . S
C327 C328 1.384 . S
C327 C329 1.384 . S
C327 H352 0.931 . S
C328 C327 1.384 . S
C328 C331 1.382 . S
C329 C327 1.384 . S
C329 C330 1.381 . S
C329 H353 0.930 . S
C330 C329 1.381 . S
C330 C332 1.381 . S
C330 C333 1.487 . S
C331 C328 1.382 . S
C331 C332 1.387 . S
C331 H354 0.930 . S
C332 C330 1.381 . S
C332 C331 1.387 . S
C332 H355 0.931 . S
C333 C326 1.399 1_455 S
C333 C330 1.487 . S
C333 N365 1.343 . S
C334 C335 1.384 . S
C334 C336 1.384 . S
C334 H356 0.931 . S
C335 C334 1.384 . S
C335 C338 1.382 . S
C336 C334 1.384 . S
C336 C337 1.381 . S
C336 H357 0.930 . S
C337 C336 1.381 . S
C337 C339 1.381 . S
C337 C340 1.487 . S
C338 C335 1.382 . S
C338 C339 1.387 . S
C338 H358 0.930 . S
C339 C337 1.381 . S
C339 C338 1.387 . S
C339 H359 0.931 . S
C340 C337 1.487 . S
C340 C347 1.399 1_455 S
C340 N365 1.343 . S
C341 C342 1.384 . S
C341 C343 1.384 . S
C341 H360 0.931 . S
C342 C341 1.384 . S
C342 C345 1.382 . S
C343 C341 1.384 . S
C343 C344 1.381 . S
C343 H361 0.930 . S
C344 C343 1.381 . S
C344 C346 1.381 . S
C344 C347 1.487 . S
C345 C342 1.382 . S
C345 C346 1.387 . S
C345 H362 0.930 . S
C346 C344 1.381 . S
C346 C345 1.387 . S
C346 H363 0.931 . S
C347 C340 1.399 1_655 S
C347 C344 1.487 . S
C347 N364 1.343 . S
H348 C320 0.931 . S
H349 C322 0.930 . S
H350 C324 0.930 . S
H351 C325 0.931 . S
H352 C327 0.931 . S
H353 C329 0.930 . S
H354 C331 0.930 . S
H355 C332 0.931 . S
H356 C334 0.931 . S
H357 C336 0.930 . S
H358 C338 0.930 . S
H359 C339 0.931 . S
H360 C341 0.931 . S
H361 C343 0.930 . S
H362 C345 0.930 . S
H363 C346 0.931 . S
N364 C326 1.343 . S
N364 C347 1.343 . S
N365 C333 1.343 . S
N365 C340 1.343 . S
C366 C367 1.384 . S
C366 C368 1.384 . S
C366 H394 0.931 . S
C367 C366 1.384 . S
C367 C370 1.382 . S
C368 C366 1.384 . S
C368 C369 1.381 . S
C368 H395 0.930 . S
C369 C368 1.381 . S
C369 C371 1.381 . S
C369 C372 1.487 . S
C370 C367 1.382 . S
C370 C371 1.387 . S
C370 H396 0.930 . S
C371 C369 1.381 . S
C371 C370 1.387 . S
C371 H397 0.931 . S
C372 C369 1.487 . S
C372 C379 1.399 1_655 S
C372 N410 1.343 . S
C373 C374 1.384 . S
C373 C375 1.384 . S
C373 H398 0.931 . S
C374 C373 1.384 . S
C374 C377 1.382 . S
C375 C373 1.384 . S
C375 C376 1.381 . S
C375 H399 0.930 . S
C376 C375 1.381 . S
C376 C378 1.381 . S
C376 C379 1.487 . S
C377 C374 1.382 . S
C377 C378 1.387 . S
C377 H400 0.930 . S
C378 C376 1.381 . S
C378 C377 1.387 . S
C378 H401 0.931 . S
C379 C372 1.399 1_455 S
C379 C376 1.487 . S
C379 N411 1.343 . S
C380 C381 1.384 . S
C380 C382 1.384 . S
C380 H402 0.931 . S
C381 C380 1.384 . S
C381 C384 1.382 . S
C382 C380 1.384 . S
C382 C383 1.381 . S
C382 H403 0.930 . S
C383 C382 1.381 . S
C383 C385 1.381 . S
C383 C386 1.487 . S
C384 C381 1.382 . S
C384 C385 1.387 . S
C384 H404 0.930 . S
C385 C383 1.381 . S
C385 C384 1.387 . S
C385 H405 0.931 . S
C386 C383 1.487 . S
C386 C393 1.399 1_455 S
C386 N411 1.343 . S
C387 C388 1.384 . S
C387 C389 1.384 . S
C387 H406 0.931 . S
C388 C387 1.384 . S
C388 C391 1.382 . S
C389 C387 1.384 . S
C389 C390 1.381 . S
C389 H407 0.930 . S
C390 C389 1.381 . S
C390 C392 1.381 . S
C390 C393 1.487 . S
C391 C388 1.382 . S
C391 C392 1.387 . S
C391 H408 0.930 . S
C392 C390 1.381 . S
C392 C391 1.387 . S
C392 H409 0.931 . S
C393 C386 1.399 1_655 S
C393 C390 1.487 . S
C393 N410 1.343 . S
H394 C366 0.931 . S
H395 C368 0.930 . S
H396 C370 0.930 . S
H397 C371 0.931 . S
H398 C373 0.931 . S
H399 C375 0.930 . S
H400 C377 0.930 . S
H401 C378 0.931 . S
H402 C380 0.931 . S
H403 C382 0.930 . S
H404 C384 0.930 . S
H405 C385 0.931 . S
H406 C387 0.931 . S
H407 C389 0.930 . S
H408 C391 0.930 . S
H409 C392 0.931 . S
N410 C372 1.343 . S
N410 C393 1.343 . S
N411 C379 1.343 . S
N411 C386 1.343 . S
C412 C413 1.384 . S
C412 C414 1.384 . S
C412 H440 0.931 . S
C413 C412 1.384 . S
C413 C416 1.382 . S
C414 C412 1.384 . S
C414 C415 1.381 . S
C414 H441 0.930 . S
C415 C414 1.381 . S
C415 C417 1.381 . S
C415 C418 1.487 . S
C416 C413 1.382 . S
C416 C417 1.387 . S
C416 H442 0.930 . S
C417 C415 1.381 . S
C417 C416 1.387 . S
C417 H443 0.931 . S
C418 C415 1.487 . S
C418 C425 1.399 . S
C418 N456 1.343 . S
C419 C420 1.384 . S
C419 C421 1.384 . S
C419 H444 0.931 . S
C420 C419 1.384 . S
C420 C423 1.382 . S
C421 C419 1.384 . S
C421 C422 1.381 . S
C421 H445 0.930 . S
C422 C421 1.381 . S
C422 C424 1.381 . S
C422 C425 1.487 . S
C423 C420 1.382 . S
C423 C424 1.387 . S
C423 H446 0.930 . S
C424 C422 1.381 . S
C424 C423 1.387 . S
C424 H447 0.931 . S
C425 C418 1.399 . S
C425 C422 1.487 . S
C425 N457 1.343 . S
C426 C427 1.384 . S
C426 C428 1.384 . S
C426 H448 0.931 . S
C427 C426 1.384 . S
C427 C430 1.382 . S
C428 C426 1.384 . S
C428 C429 1.381 . S
C428 H449 0.930 . S
C429 C428 1.381 . S
C429 C431 1.381 . S
C429 C432 1.487 . S
C430 C427 1.382 . S
C430 C431 1.387 . S
C430 H450 0.930 . S
C431 C429 1.381 . S
C431 C430 1.387 . S
C431 H451 0.931 . S
C432 C429 1.487 . S
C432 C439 1.399 . S
C432 N457 1.343 1_565 S
C433 C434 1.384 . S
C433 C435 1.384 . S
C433 H452 0.931 . S
C434 C433 1.384 . S
C434 C437 1.382 . S
C435 C433 1.384 . S
C435 C436 1.381 . S
C435 H453 0.930 . S
C436 C435 1.381 . S
C436 C438 1.381 . S
C436 C439 1.487 . S
C437 C434 1.382 . S
C437 C438 1.387 . S
C437 H454 0.930 . S
C438 C436 1.381 . S
C438 C437 1.387 . S
C438 H455 0.931 . S
C439 C432 1.399 . S
C439 C436 1.487 . S
C439 N456 1.343 1_565 S
H440 C412 0.931 . S
H441 C414 0.930 . S
H442 C416 0.930 . S
H443 C417 0.931 . S
H444 C419 0.931 . S
H445 C421 0.930 . S
H446 C423 0.930 . S
H447 C424 0.931 . S
H448 C426 0.931 . S
H449 C428 0.930 . S
H450 C430 0.930 . S
H451 C431 0.931 . S
H452 C433 0.931 . S
H453 C435 0.930 . S
H454 C437 0.930 . S
H455 C438 0.931 . S
N456 C418 1.343 . S
N456 C439 1.343 1_545 S
N457 C425 1.343 . S
N457 C432 1.343 1_545 S
C458 C459 1.384 . S
C458 C460 1.384 . S
C458 H486 0.931 . S
C459 C458 1.384 . S
C459 C462 1.382 . S
C460 C458 1.384 . S
C460 C461 1.381 . S
C460 H487 0.930 . S
C461 C460 1.381 . S
C461 C463 1.381 . S
C461 C464 1.487 . S
C462 C459 1.382 . S
C462 C463 1.387 . S
C462 H488 0.930 . S
C463 C461 1.381 . S
C463 C462 1.387 . S
C463 H489 0.931 . S
C464 C461 1.487 . S
C464 C471 1.399 . S
C464 N502 1.343 1_556 S
C465 C466 1.384 . S
C465 C467 1.384 . S
C465 H490 0.931 . S
C466 C465 1.384 . S
C466 C469 1.382 . S
C467 C465 1.384 . S
C467 C468 1.381 . S
C467 H491 0.930 . S
C468 C467 1.381 . S
C468 C470 1.381 . S
C468 C471 1.487 . S
C469 C466 1.382 . S
C469 C470 1.387 . S
C469 H492 0.930 . S
C470 C468 1.381 . S
C470 C469 1.387 . S
C470 H493 0.931 . S
C471 C464 1.399 . S
C471 C468 1.487 . S
C471 N503 1.343 1_556 S
C472 C473 1.384 . S
C472 C474 1.384 . S
C472 H494 0.931 . S
C473 C472 1.384 . S
C473 C476 1.382 . S
C474 C472 1.384 . S
C474 C475 1.381 . S
C474 H495 0.930 . S
C475 C474 1.381 . S
C475 C477 1.381 . S
C475 C478 1.487 . S
C476 C473 1.382 . S
C476 C477 1.387 . S
C476 H496 0.930 . S
C477 C475 1.381 . S
C477 C476 1.387 . S
C477 H497 0.931 . S
C478 C475 1.487 . S
C478 C485 1.399 . S
C478 N503 1.343 . S
C479 C480 1.384 . S
C479 C481 1.384 . S
C479 H498 0.931 . S
C480 C479 1.384 . S
C480 C483 1.382 . S
C481 C479 1.384 . S
C481 C482 1.381 . S
C481 H499 0.930 . S
C482 C481 1.381 . S
C482 C484 1.381 . S
C482 C485 1.487 . S
C483 C480 1.382 . S
C483 C484 1.387 . S
C483 H500 0.930 . S
C484 C482 1.381 . S
C484 C483 1.387 . S
C484 H501 0.931 . S
C485 C478 1.399 . S
C485 C482 1.487 . S
C485 N502 1.343 . S
H486 C458 0.931 . S
H487 C460 0.930 . S
H488 C462 0.930 . S
H489 C463 0.931 . S
H490 C465 0.931 . S
H491 C467 0.930 . S
H492 C469 0.930 . S
H493 C470 0.931 . S
H494 C472 0.931 . S
H495 C474 0.930 . S
H496 C476 0.930 . S
H497 C477 0.931 . S
H498 C479 0.931 . S
H499 C481 0.930 . S
H500 C483 0.930 . S
H501 C484 0.931 . S
N502 C464 1.343 1_554 S
N502 C485 1.343 . S
N503 C471 1.343 1_554 S
N503 C478 1.343 . S
C504 C505 1.384 . S
C504 C506 1.384 . S
C504 H532 0.931 . S
C505 C504 1.384 . S
C505 C508 1.382 . S
C506 C504 1.384 . S
C506 C507 1.381 . S
C506 H533 0.930 . S
C507 C506 1.381 . S
C507 C509 1.381 . S
C507 C510 1.487 . S
C508 C505 1.382 . S
C508 C509 1.387 . S
C508 H534 0.930 . S
C509 C507 1.381 . S
C509 C508 1.387 . S
C509 H535 0.931 . S
C510 C507 1.487 . S
C510 C517 1.399 . S
C510 N548 1.343 . S
C511 C512 1.384 . S
C511 C513 1.384 . S
C511 H536 0.931 . S
C512 C511 1.384 . S
C512 C515 1.382 . S
C513 C511 1.384 . S
C513 C514 1.381 . S
C513 H537 0.930 . S
C514 C513 1.381 . S
C514 C516 1.381 . S
C514 C517 1.487 . S
C515 C512 1.382 . S
C515 C516 1.387 . S
C515 H538 0.930 . S
C516 C514 1.381 . S
C516 C515 1.387 . S
C516 H539 0.931 . S
C517 C510 1.399 . S
C517 C514 1.487 . S
C517 N549 1.398 . S
C518 C519 1.384 . S
C518 C520 1.384 . S
C518 H540 0.931 . S
C519 C518 1.384 . S
C519 C522 1.382 . S
C520 C518 1.384 . S
C520 C521 1.381 . S
C520 H541 0.930 . S
C521 C520 1.381 . S
C521 C523 1.381 . S
C521 C524 1.487 . S
C522 C519 1.382 . S
C522 C523 1.387 . S
C522 H542 0.930 . S
C523 C521 1.381 . S
C523 C522 1.387 . S
C523 H543 0.931 . S
C524 C521 1.487 . S
C524 C531 1.399 . S
C524 N549 1.288 1_565 S
C525 C526 1.384 . S
C525 C527 1.384 . S
C525 H544 0.931 . S
C526 C525 1.384 . S
C526 C529 1.382 . S
C527 C525 1.384 . S
C527 C528 1.381 . S
C527 H545 0.930 . S
C528 C527 1.381 . S
C528 C530 1.381 . S
C528 C531 1.487 . S
C529 C526 1.382 . S
C529 C530 1.387 . S
C529 H546 0.930 . S
C530 C528 1.381 . S
C530 C529 1.387 . S
C530 H547 0.931 . S
C531 C524 1.399 . S
C531 C528 1.487 . S
C531 N548 1.343 1_565 S
H532 C504 0.931 . S
H533 C506 0.930 . S
H534 C508 0.930 . S
H535 C509 0.931 . S
H536 C511 0.931 . S
H537 C513 0.930 . S
H538 C515 0.930 . S
H539 C516 0.931 . S
H540 C518 0.931 . S
H541 C520 0.930 . S
H542 C522 0.930 . S
H543 C523 0.931 . S
H544 C525 0.931 . S
H545 C527 0.930 . S
H546 C529 0.930 . S
H547 C530 0.931 . S
N548 C510 1.343 . S
N548 C531 1.343 1_545 S
N549 C517 1.398 . S
N549 C524 1.288 1_545 S
C550 C551 1.384 . S
C550 C552 1.384 . S
C550 H578 0.931 . S
C551 C550 1.384 . S
C551 C554 1.382 . S
C552 C550 1.384 . S
C552 C553 1.381 . S
C552 H579 0.930 . S
C553 C552 1.381 . S
C553 C555 1.381 . S
C553 C556 1.487 . S
C554 C551 1.382 . S
C554 C555 1.387 . S
C554 H580 0.930 . S
C555 C553 1.381 . S
C555 C554 1.387 . S
C555 H581 0.931 . S
C556 C553 1.487 . S
C556 C563 1.399 . S
C556 N594 1.343 1_556 S
C557 C558 1.384 . S
C557 C559 1.384 . S
C557 H582 0.931 . S
C558 C557 1.384 . S
C558 C561 1.382 . S
C559 C557 1.384 . S
C559 C560 1.381 . S
C559 H583 0.930 . S
C560 C559 1.381 . S
C560 C562 1.381 . S
C560 C563 1.487 . S
C561 C558 1.382 . S
C561 C562 1.387 . S
C561 H584 0.930 . S
C562 C560 1.381 . S
C562 C561 1.387 . S
C562 H585 0.931 . S
C563 C556 1.399 . S
C563 C560 1.487 . S
C563 N595 1.343 1_556 S
C564 C565 1.384 . S
C564 C566 1.384 . S
C564 H586 0.931 . S
C565 C564 1.384 . S
C565 C568 1.382 . S
C566 C564 1.384 . S
C566 C567 1.381 . S
C566 H587 0.930 . S
C567 C566 1.381 . S
C567 C569 1.381 . S
C567 C570 1.487 . S
C568 C565 1.382 . S
C568 C569 1.387 . S
C568 H588 0.930 . S
C569 C567 1.381 . S
C569 C568 1.387 . S
C569 H589 0.931 . S
C570 C567 1.487 . S
C570 C577 1.399 . S
C570 N595 1.343 . S
C571 C572 1.384 . S
C571 C573 1.384 . S
C571 H590 0.931 . S
C572 C571 1.384 . S
C572 C575 1.382 . S
C573 C571 1.384 . S
C573 C574 1.381 . S
C573 H591 0.930 . S
C574 C573 1.381 . S
C574 C576 1.381 . S
C574 C577 1.487 . S
C575 C572 1.382 . S
C575 C576 1.387 . S
C575 H592 0.930 . S
C576 C574 1.381 . S
C576 C575 1.387 . S
C576 H593 0.931 . S
C577 C570 1.399 . S
C577 C574 1.487 . S
C577 N594 1.343 . S
H578 C550 0.931 . S
H579 C552 0.930 . S
H580 C554 0.930 . S
H581 C555 0.931 . S
H582 C557 0.931 . S
H583 C559 0.930 . S
H584 C561 0.930 . S
H585 C562 0.931 . S
H586 C564 0.931 . S
H587 C566 0.930 . S
H588 C568 0.930 . S
H589 C569 0.931 . S
H590 C571 0.931 . S
H591 C573 0.930 . S
H592 C575 0.930 . S
H593 C576 0.931 . S
N594 C556 1.343 1_554 S
N594 C577 1.343 . S
N595 C563 1.343 1_554 S
N595 C570 1.343 . S
C596 C597 1.391 . S
C596 C598 1.394 . S
C596 H612 0.931 . S
C597 C596 1.391 . S
C597 C601 1.376 . S
C598 C596 1.394 . S
C598 C599 1.369 . S
C598 C602 1.531 . S
C599 C598 1.369 . S
C599 C600 1.410 . S
C599 C607 1.503 . S
C600 C599 1.410 . S
C600 C601 1.392 . S
C600 C603 1.511 . S
C601 C597 1.376 . S
C601 C600 1.392 . S
C601 H613 0.929 . S
C602 C598 1.531 . S
C602 H614 0.960 . S
C602 H615 0.962 . S
C602 H616 0.960 . S
C603 C600 1.511 . S
C603 H617 0.961 . S
C603 H618 0.961 . S
C603 H619 0.961 . S
C604 C605 1.370 . S
C604 C606 1.363 . S
C604 H620 0.931 . S
C605 C604 1.370 . S
C605 C609 1.408 . S
C606 C604 1.363 . S
C606 C607 1.370 . S
C606 C610 1.524 . S
C607 C599 1.503 . S
C607 C606 1.370 . S
C607 C608 1.403 . S
C608 C607 1.403 . S
C608 C609 1.404 . S
C608 C611 1.539 . S
C609 C605 1.408 . S
C609 C608 1.404 . S
C609 H621 0.930 . S
C610 C606 1.524 . S
C610 H622 0.956 . S
C610 H623 0.961 . S
C610 H624 0.961 . S
C611 C608 1.539 . S
C611 H625 0.958 . S
C611 H626 0.961 . S
C611 H627 0.960 . S
H612 C596 0.931 . S
H613 C601 0.929 . S
H614 C602 0.960 . S
H615 C602 0.962 . S
H616 C602 0.960 . S
H617 C603 0.961 . S
H618 C603 0.961 . S
H619 C603 0.961 . S
H620 C604 0.931 . S
H621 C609 0.930 . S
H622 C610 0.956 . S
H623 C610 0.961 . S
H624 C610 0.961 . S
H625 C611 0.958 . S
H626 C611 0.961 . S
H627 C611 0.960 . S
C628 C629 1.391 . S
C628 C630 1.394 . S
C628 H644 0.931 . S
C629 C628 1.391 . S
C629 C633 1.376 . S
C630 C628 1.394 . S
C630 C631 1.369 . S
C630 C634 1.531 . S
C631 C630 1.369 . S
C631 C632 1.410 . S
C631 C639 1.503 . S
C632 C631 1.410 . S
C632 C633 1.392 . S
C632 C635 1.511 . S
C633 C629 1.376 . S
C633 C632 1.392 . S
C633 H645 0.929 . S
C634 C630 1.531 . S
C634 H646 0.960 . S
C634 H647 0.962 . S
C634 H648 0.960 . S
C635 C632 1.511 . S
C635 H649 0.961 . S
C635 H650 0.961 . S
C635 H651 0.961 . S
C636 C637 1.370 . S
C636 C638 1.363 . S
C636 H652 0.931 . S
C637 C636 1.370 . S
C637 C641 1.408 . S
C638 C636 1.363 . S
C638 C639 1.370 . S
C638 C642 1.524 . S
C639 C631 1.503 . S
C639 C638 1.370 . S
C639 C640 1.403 . S
C640 C639 1.403 . S
C640 C641 1.404 . S
C640 C643 1.539 . S
C641 C637 1.408 . S
C641 C640 1.404 . S
C641 H653 0.930 . S
C642 C638 1.524 . S
C642 H654 0.956 . S
C642 H655 0.961 . S
C642 H656 0.961 . S
C643 C640 1.539 . S
C643 H657 0.958 . S
C643 H658 0.961 . S
C643 H659 0.960 . S
H644 C628 0.931 . S
H645 C633 0.929 . S
H646 C634 0.960 . S
H647 C634 0.962 . S
H648 C634 0.960 . S
H649 C635 0.961 . S
H650 C635 0.961 . S
H651 C635 0.961 . S
H652 C636 0.931 . S
H653 C641 0.930 . S
H654 C642 0.956 . S
H655 C642 0.961 . S
H656 C642 0.961 . S
H657 C643 0.958 . S
H658 C643 0.961 . S
H659 C643 0.960 . S
C660 C661 1.391 . S
C660 C662 1.394 . S
C660 H676 0.931 . S
C661 C660 1.391 . S
C661 C665 1.376 . S
C662 C660 1.394 . S
C662 C663 1.369 . S
C662 C666 1.531 . S
C663 C662 1.369 . S
C663 C664 1.410 . S
C663 C671 1.503 . S
C664 C663 1.410 . S
C664 C665 1.392 . S
C664 C667 1.511 . S
C665 C661 1.376 . S
C665 C664 1.392 . S
C665 H677 0.929 . S
C666 C662 1.531 . S
C666 H678 0.960 . S
C666 H679 0.962 . S
C666 H680 0.960 . S
C667 C664 1.511 . S
C667 H681 0.961 . S
C667 H682 0.961 . S
C667 H683 0.961 . S
C668 C669 1.370 . S
C668 C670 1.363 . S
C668 H684 0.931 . S
C669 C668 1.370 . S
C669 C673 1.408 . S
C670 C668 1.363 . S
C670 C671 1.370 . S
C670 C674 1.524 . S
C671 C663 1.503 . S
C671 C670 1.370 . S
C671 C672 1.403 . S
C672 C671 1.403 . S
C672 C673 1.404 . S
C672 C675 1.539 . S
C673 C669 1.408 . S
C673 C672 1.404 . S
C673 H685 0.930 . S
C674 C670 1.524 . S
C674 H686 0.956 . S
C674 H687 0.961 . S
C674 H688 0.961 . S
C675 C672 1.539 . S
C675 H689 0.958 . S
C675 H690 0.961 . S
C675 H691 0.960 . S
H676 C660 0.931 . S
H677 C665 0.929 . S
H678 C666 0.960 . S
H679 C666 0.962 . S
H680 C666 0.960 . S
H681 C667 0.961 . S
H682 C667 0.961 . S
H683 C667 0.961 . S
H684 C668 0.931 . S
H685 C673 0.930 . S
H686 C674 0.956 . S
H687 C674 0.961 . S
H688 C674 0.961 . S
H689 C675 0.958 . S
H690 C675 0.961 . S
H691 C675 0.960 . S
C692 C693 1.391 . S
C692 C694 1.394 . S
C692 H708 0.931 . S
C693 C692 1.391 . S
C693 C697 1.376 . S
C694 C692 1.394 . S
C694 C695 1.369 . S
C694 C698 1.531 . S
C695 C694 1.369 . S
C695 C696 1.410 . S
C695 C703 1.503 . S
C696 C695 1.410 . S
C696 C697 1.392 . S
C696 C699 1.511 . S
C697 C693 1.376 . S
C697 C696 1.392 . S
C697 H709 0.929 . S
C698 C694 1.531 . S
C698 H710 0.960 . S
C698 H711 0.962 . S
C698 H712 0.960 . S
C699 C696 1.511 . S
C699 H713 0.961 . S
C699 H714 0.961 . S
C699 H715 0.961 . S
C700 C701 1.370 . S
C700 C702 1.363 . S
C700 H716 0.931 . S
C701 C700 1.370 . S
C701 C705 1.408 . S
C702 C700 1.363 . S
C702 C703 1.370 . S
C702 C706 1.524 . S
C703 C695 1.503 . S
C703 C702 1.370 . S
C703 C704 1.403 . S
C704 C703 1.403 . S
C704 C705 1.404 . S
C704 C707 1.539 . S
C705 C701 1.408 . S
C705 C704 1.404 . S
C705 H717 0.930 . S
C706 C702 1.524 . S
C706 H718 0.956 . S
C706 H719 0.961 . S
C706 H720 0.961 . S
C707 C704 1.539 . S
C707 H721 0.958 . S
C707 H722 0.961 . S
C707 H723 0.960 . S
H708 C692 0.931 . S
H709 C697 0.929 . S
H710 C698 0.960 . S
H711 C698 0.962 . S
H712 C698 0.960 . S
H713 C699 0.961 . S
H714 C699 0.961 . S
H715 C699 0.961 . S
H716 C700 0.931 . S
H717 C705 0.930 . S
H718 C706 0.956 . S
H719 C706 0.961 . S
H720 C706 0.961 . S
H721 C707 0.958 . S
H722 C707 0.961 . S
H723 C707 0.960 . S
C724 C725 1.391 . S
C724 C726 1.394 . S
C724 H740 0.931 . S
C725 C724 1.391 . S
C725 C729 1.376 . S
C726 C724 1.394 . S
C726 C727 1.369 . S
C726 C730 1.531 . S
C727 C726 1.369 . S
C727 C728 1.410 . S
C727 C735 1.503 . S
C728 C727 1.410 . S
C728 C729 1.392 . S
C728 C731 1.511 . S
C729 C725 1.376 . S
C729 C728 1.392 . S
C729 H741 0.929 . S
C730 C726 1.531 . S
C730 H742 0.960 . S
C730 H743 0.962 . S
C730 H744 0.960 . S
C731 C728 1.511 . S
C731 H745 0.961 . S
C731 H746 0.961 . S
C731 H747 0.961 . S
C732 C733 1.370 . S
C732 C734 1.363 . S
C732 H748 0.931 . S
C733 C732 1.370 . S
C733 C737 1.408 . S
C734 C732 1.363 . S
C734 C735 1.370 . S
C734 C738 1.524 . S
C735 C727 1.503 . S
C735 C734 1.370 . S
C735 C736 1.403 . S
C736 C735 1.403 . S
C736 C737 1.404 . S
C736 C739 1.539 . S
C737 C733 1.408 . S
C737 C736 1.404 . S
C737 H749 0.930 . S
C738 C734 1.524 . S
C738 H750 0.956 . S
C738 H751 0.961 . S
C738 H752 0.961 . S
C739 C736 1.539 . S
C739 H753 0.958 . S
C739 H754 0.961 . S
C739 H755 0.960 . S
H740 C724 0.931 . S
H741 C729 0.929 . S
H742 C730 0.960 . S
H743 C730 0.962 . S
H744 C730 0.960 . S
H745 C731 0.961 . S
H746 C731 0.961 . S
H747 C731 0.961 . S
H748 C732 0.931 . S
H749 C737 0.930 . S
H750 C738 0.956 . S
H751 C738 0.961 . S
H752 C738 0.961 . S
H753 C739 0.958 . S
H754 C739 0.961 . S
H755 C739 0.960 . S
C756 C757 1.391 . S
C756 C758 1.394 . S
C756 H772 0.931 . S
C757 C756 1.391 . S
C757 C761 1.376 . S
C758 C756 1.394 . S
C758 C759 1.369 . S
C758 C762 1.531 . S
C759 C758 1.369 . S
C759 C760 1.410 . S
C759 C767 1.503 . S
C760 C759 1.410 . S
C760 C761 1.392 . S
C760 C763 1.511 . S
C761 C757 1.376 . S
C761 C760 1.392 . S
C761 H773 0.929 . S
C762 C758 1.531 . S
C762 H774 0.960 . S
C762 H775 0.962 . S
C762 H776 0.960 . S
C763 C760 1.511 . S
C763 H777 0.961 . S
C763 H778 0.961 . S
C763 H779 0.961 . S
C764 C765 1.370 . S
C764 C766 1.363 . S
C764 H780 0.931 . S
C765 C764 1.370 . S
C765 C769 1.408 . S
C766 C764 1.363 . S
C766 C767 1.370 . S
C766 C770 1.524 . S
C767 C759 1.503 . S
C767 C766 1.370 . S
C767 C768 1.403 . S
C768 C767 1.403 . S
C768 C769 1.404 . S
C768 C771 1.539 . S
C769 C765 1.408 . S
C769 C768 1.404 . S
C769 H781 0.930 . S
C770 C766 1.524 . S
C770 H782 0.956 . S
C770 H783 0.961 . S
C770 H784 0.961 . S
C771 C768 1.539 . S
C771 H785 0.958 . S
C771 H786 0.961 . S
C771 H787 0.960 . S
H772 C756 0.931 . S
H773 C761 0.929 . S
H774 C762 0.960 . S
H775 C762 0.962 . S
H776 C762 0.960 . S
H777 C763 0.961 . S
H778 C763 0.961 . S
H779 C763 0.961 . S
H780 C764 0.931 . S
H781 C769 0.930 . S
H782 C770 0.956 . S
H783 C770 0.961 . S
H784 C770 0.961 . S
H785 C771 0.958 . S
H786 C771 0.961 . S
H787 C771 0.960 . S
C788 C789 1.391 . S
C788 C790 1.394 . S
C788 H804 0.931 . S
C789 C788 1.391 . S
C789 C793 1.376 . S
C790 C788 1.394 . S
C790 C791 1.369 . S
C790 C794 1.531 . S
C791 C790 1.369 . S
C791 C792 1.410 . S
C791 C799 1.503 . S
C792 C791 1.410 . S
C792 C793 1.392 . S
C792 C795 1.511 . S
C793 C789 1.376 . S
C793 C792 1.392 . S
C793 H805 0.929 . S
C794 C790 1.531 . S
C794 H806 0.960 . S
C794 H807 0.962 . S
C794 H808 0.960 . S
C795 C792 1.511 . S
C795 H809 0.961 . S
C795 H810 0.961 . S
C795 H811 0.961 . S
C796 C797 1.370 . S
C796 C798 1.363 . S
C796 H812 0.931 . S
C797 C796 1.370 . S
C797 C801 1.408 . S
C798 C796 1.363 . S
C798 C799 1.370 . S
C798 C802 1.524 . S
C799 C791 1.503 . S
C799 C798 1.370 . S
C799 C800 1.403 . S
C800 C799 1.403 . S
C800 C801 1.404 . S
C800 C803 1.539 . S
C801 C797 1.408 . S
C801 C800 1.404 . S
C801 H813 0.930 . S
C802 C798 1.524 . S
C802 H814 0.956 . S
C802 H815 0.961 . S
C802 H816 0.961 . S
C803 C800 1.539 . S
C803 H817 0.958 . S
C803 H818 0.961 . S
C803 H819 0.960 . S
H804 C788 0.931 . S
H805 C793 0.929 . S
H806 C794 0.960 . S
H807 C794 0.962 . S
H808 C794 0.960 . S
H809 C795 0.961 . S
H810 C795 0.961 . S
H811 C795 0.961 . S
H812 C796 0.931 . S
H813 C801 0.930 . S
H814 C802 0.956 . S
H815 C802 0.961 . S
H816 C802 0.961 . S
H817 C803 0.958 . S
H818 C803 0.961 . S
H819 C803 0.960 . S
C820 C821 1.391 . S
C820 C822 1.394 . S
C820 H836 0.931 . S
C821 C820 1.391 . S
C821 C825 1.376 . S
C822 C820 1.394 . S
C822 C823 1.369 . S
C822 C826 1.531 . S
C823 C822 1.369 . S
C823 C824 1.410 . S
C823 C831 1.503 . S
C824 C823 1.410 . S
C824 C825 1.392 . S
C824 C827 1.511 . S
C825 C821 1.376 . S
C825 C824 1.392 . S
C825 H837 0.929 . S
C826 C822 1.531 . S
C826 H838 0.960 . S
C826 H839 0.962 . S
C826 H840 0.960 . S
C827 C824 1.511 . S
C827 H841 0.961 . S
C827 H842 0.961 . S
C827 H843 0.961 . S
C828 C829 1.370 . S
C828 C830 1.363 . S
C828 H844 0.931 . S
C829 C828 1.370 . S
C829 C833 1.408 . S
C830 C828 1.363 . S
C830 C831 1.370 . S
C830 C834 1.524 . S
C831 C823 1.503 . S
C831 C830 1.370 . S
C831 C832 1.403 . S
C832 C831 1.403 . S
C832 C833 1.404 . S
C832 C835 1.539 . S
C833 C829 1.408 . S
C833 C832 1.404 . S
C833 H845 0.930 . S
C834 C830 1.524 . S
C834 H846 0.956 . S
C834 H847 0.961 . S
C834 H848 0.961 . S
C835 C832 1.539 . S
C835 H849 0.958 . S
C835 H850 0.961 . S
C835 H851 0.960 . S
H836 C820 0.931 . S
H837 C825 0.929 . S
H838 C826 0.960 . S
H839 C826 0.962 . S
H840 C826 0.960 . S
H841 C827 0.961 . S
H842 C827 0.961 . S
H843 C827 0.961 . S
H844 C828 0.931 . S
H845 C833 0.930 . S
H846 C834 0.956 . S
H847 C834 0.961 . S
H848 C834 0.961 . S
H849 C835 0.958 . S
H850 C835 0.961 . S
H851 C835 0.960 . S
C852 C853 1.391 . S
C852 C854 1.394 . S
C852 H868 0.931 . S
C853 C852 1.391 . S
C853 C857 1.376 . S
C854 C852 1.394 . S
C854 C855 1.369 . S
C854 C858 1.531 . S
C855 C854 1.369 . S
C855 C856 1.410 . S
C855 C863 1.503 . S
C856 C855 1.410 . S
C856 C857 1.392 . S
C856 C859 1.511 . S
C857 C853 1.376 . S
C857 C856 1.392 . S
C857 H869 0.929 . S
C858 C854 1.531 . S
C858 H870 0.960 . S
C858 H871 0.962 . S
C858 H872 0.960 . S
C859 C856 1.511 . S
C859 H873 0.961 . S
C859 H874 0.961 . S
C859 H875 0.961 . S
C860 C861 1.370 . S
C860 C862 1.363 . S
C860 H876 0.931 . S
C861 C860 1.370 . S
C861 C865 1.408 . S
C862 C860 1.363 . S
C862 C863 1.370 . S
C862 C866 1.524 . S
C863 C855 1.503 . S
C863 C862 1.370 . S
C863 C864 1.403 . S
C864 C863 1.403 . S
C864 C865 1.404 . S
C864 C867 1.539 . S
C865 C861 1.408 . S
C865 C864 1.404 . S
C865 H877 0.930 . S
C866 C862 1.524 . S
C866 H878 0.956 . S
C866 H879 0.961 . S
C866 H880 0.961 . S
C867 C864 1.539 . S
C867 H881 0.958 . S
C867 H882 0.961 . S
C867 H883 0.960 . S
H868 C852 0.931 . S
H869 C857 0.929 . S
H870 C858 0.960 . S
H871 C858 0.962 . S
H872 C858 0.960 . S
H873 C859 0.961 . S
H874 C859 0.961 . S
H875 C859 0.961 . S
H876 C860 0.931 . S
H877 C865 0.930 . S
H878 C866 0.956 . S
H879 C866 0.961 . S
H880 C866 0.961 . S
H881 C867 0.958 . S
H882 C867 0.961 . S
H883 C867 0.960 . S
C884 C885 1.391 . S
C884 C886 1.394 . S
C884 H900 0.931 . S
C885 C884 1.391 . S
C885 C889 1.376 . S
C886 C884 1.394 . S
C886 C887 1.369 . S
C886 C890 1.531 . S
C887 C886 1.369 . S
C887 C888 1.410 . S
C887 C895 1.503 . S
C888 C887 1.410 . S
C888 C889 1.392 . S
C888 C891 1.511 . S
C889 C885 1.376 . S
C889 C888 1.392 . S
C889 H901 0.929 . S
C890 C886 1.531 . S
C890 H902 0.960 . S
C890 H903 0.962 . S
C890 H904 0.960 . S
C891 C888 1.511 . S
C891 H905 0.961 . S
C891 H906 0.961 . S
C891 H907 0.961 . S
C892 C893 1.370 . S
C892 C894 1.363 . S
C892 H908 0.931 . S
C893 C892 1.370 . S
C893 C897 1.408 . S
C894 C892 1.363 . S
C894 C895 1.370 . S
C894 C898 1.524 . S
C895 C887 1.503 . S
C895 C894 1.370 . S
C895 C896 1.403 . S
C896 C895 1.403 . S
C896 C897 1.404 . S
C896 C899 1.539 . S
C897 C893 1.408 . S
C897 C896 1.404 . S
C897 H909 0.930 . S
C898 C894 1.524 . S
C898 H910 0.956 . S
C898 H911 0.961 . S
C898 H912 0.961 . S
C899 C896 1.539 . S
C899 H913 0.958 . S
C899 H914 0.961 . S
C899 H915 0.960 . S
H900 C884 0.931 . S
H901 C889 0.929 . S
H902 C890 0.960 . S
H903 C890 0.962 . S
H904 C890 0.960 . S
H905 C891 0.961 . S
H906 C891 0.961 . S
H907 C891 0.961 . S
H908 C892 0.931 . S
H909 C897 0.930 . S
H910 C898 0.956 . S
H911 C898 0.961 . S
H912 C898 0.961 . S
H913 C899 0.958 . S
H914 C899 0.961 . S
H915 C899 0.960 . S
C916 C917 1.391 . S
C916 C918 1.394 . S
C916 H932 0.931 . S
C917 C916 1.391 . S
C917 C921 1.376 . S
C918 C916 1.394 . S
C918 C919 1.369 . S
C918 C922 1.531 . S
C919 C918 1.369 . S
C919 C920 1.410 . S
C919 C927 1.503 . S
C920 C919 1.410 . S
C920 C921 1.392 . S
C920 C923 1.511 . S
C921 C917 1.376 . S
C921 C920 1.392 . S
C921 H933 0.929 . S
C922 C918 1.531 . S
C922 H934 0.960 . S
C922 H935 0.962 . S
C922 H936 0.960 . S
C923 C920 1.511 . S
C923 H937 0.961 . S
C923 H938 0.961 . S
C923 H939 0.961 . S
C924 C925 1.370 . S
C924 C926 1.363 . S
C924 H940 0.931 . S
C925 C924 1.370 . S
C925 C929 1.408 . S
C926 C924 1.363 . S
C926 C927 1.370 . S
C926 C930 1.524 . S
C927 C919 1.503 . S
C927 C926 1.370 . S
C927 C928 1.403 . S
C928 C927 1.403 . S
C928 C929 1.404 . S
C928 C931 1.539 . S
C929 C925 1.408 . S
C929 C928 1.404 . S
C929 H941 0.930 . S
C930 C926 1.524 . S
C930 H942 0.956 . S
C930 H943 0.961 . S
C930 H944 0.961 . S
C931 C928 1.539 . S
C931 H945 0.958 . S
C931 H946 0.961 . S
C931 H947 0.960 . S
H932 C916 0.931 . S
H933 C921 0.929 . S
H934 C922 0.960 . S
H935 C922 0.962 . S
H936 C922 0.960 . S
H937 C923 0.961 . S
H938 C923 0.961 . S
H939 C923 0.961 . S
H940 C924 0.931 . S
H941 C929 0.930 . S
H942 C930 0.956 . S
H943 C930 0.961 . S
H944 C930 0.961 . S
H945 C931 0.958 . S
H946 C931 0.961 . S
H947 C931 0.960 . S
C948 C949 1.391 . S
C948 C950 1.394 . S
C948 H964 0.931 . S
C949 C948 1.391 . S
C949 C953 1.376 . S
C950 C948 1.394 . S
C950 C951 1.369 . S
C950 C954 1.531 . S
C951 C950 1.369 . S
C951 C952 1.410 . S
C951 C959 1.503 . S
C952 C951 1.410 . S
C952 C953 1.392 . S
C952 C955 1.511 . S
C953 C949 1.376 . S
C953 C952 1.392 . S
C953 H965 0.929 . S
C954 C950 1.531 . S
C954 H966 0.960 . S
C954 H967 0.962 . S
C954 H968 0.960 . S
C955 C952 1.511 . S
C955 H969 0.961 . S
C955 H970 0.961 . S
C955 H971 0.961 . S
C956 C957 1.370 . S
C956 C958 1.363 . S
C956 H972 0.931 . S
C957 C956 1.370 . S
C957 C961 1.408 . S
C958 C956 1.363 . S
C958 C959 1.370 . S
C958 C962 1.524 . S
C959 C951 1.503 . S
C959 C958 1.370 . S
C959 C960 1.403 . S
C960 C959 1.403 . S
C960 C961 1.404 . S
C960 C963 1.539 . S
C961 C957 1.408 . S
C961 C960 1.404 . S
C961 H973 0.930 . S
C962 C958 1.524 . S
C962 H974 0.956 . S
C962 H975 0.961 . S
C962 H976 0.961 . S
C963 C960 1.539 . S
C963 H977 0.958 . S
C963 H978 0.961 . S
C963 H979 0.960 . S
H964 C948 0.931 . S
H965 C953 0.929 . S
H966 C954 0.960 . S
H967 C954 0.962 . S
H968 C954 0.960 . S
H969 C955 0.961 . S
H970 C955 0.961 . S
H971 C955 0.961 . S
H972 C956 0.931 . S
H973 C961 0.930 . S
H974 C962 0.956 . S
H975 C962 0.961 . S
H976 C962 0.961 . S
H977 C963 0.958 . S
H978 C963 0.961 . S
H979 C963 0.960 . S
C980 C981 1.391 . S
C980 C982 1.394 . S
C980 H996 0.931 . S
C981 C980 1.391 . S
C981 C985 1.376 . S
C982 C980 1.394 . S
C982 C983 1.369 . S
C982 C986 1.531 . S
C983 C982 1.369 . S
C983 C984 1.410 . S
C983 C991 1.503 . S
C984 C983 1.410 . S
C984 C985 1.392 . S
C984 C987 1.511 . S
C985 C981 1.376 . S
C985 C984 1.392 . S
C985 H997 0.929 . S
C986 C982 1.531 . S
C986 H998 0.960 . S
C986 H999 0.962 . S
C986 H1000 0.960 . S
C987 C984 1.511 . S
C987 H1001 0.961 . S
C987 H1002 0.961 . S
C987 H1003 0.961 . S
C988 C989 1.370 . S
C988 C990 1.363 . S
C988 H1004 0.931 . S
C989 C988 1.370 . S
C989 C993 1.408 . S
C990 C988 1.363 . S
C990 C991 1.370 . S
C990 C994 1.524 . S
C991 C983 1.503 . S
C991 C990 1.370 . S
C991 C992 1.403 . S
C992 C991 1.403 . S
C992 C993 1.404 . S
C992 C995 1.539 . S
C993 C989 1.408 . S
C993 C992 1.404 . S
C993 H1005 0.930 . S
C994 C990 1.524 . S
C994 H1006 0.956 . S
C994 H1007 0.961 . S
C994 H1008 0.961 . S
C995 C992 1.539 . S
C995 H1009 0.958 . S
C995 H1010 0.961 . S
C995 H1011 0.960 . S
H996 C980 0.931 . S
H997 C985 0.929 . S
H998 C986 0.960 . S
H999 C986 0.962 . S
H1000 C986 0.960 . S
H1001 C987 0.961 . S
H1002 C987 0.961 . S
H1003 C987 0.961 . S
H1004 C988 0.931 . S
H1005 C993 0.930 . S
H1006 C994 0.956 . S
H1007 C994 0.961 . S
H1008 C994 0.961 . S
H1009 C995 0.958 . S
H1010 C995 0.961 . S
H1011 C995 0.960 . S
C1012 C1013 1.391 . S
C1012 C1014 1.394 . S
C1012 H1028 0.931 . S
C1013 C1012 1.391 . S
C1013 C1017 1.376 . S
C1014 C1012 1.394 . S
C1014 C1015 1.369 . S
C1014 C1018 1.531 . S
C1015 C1014 1.369 . S
C1015 C1016 1.410 . S
C1015 C1023 1.503 . S
C1016 C1015 1.410 . S
C1016 C1017 1.392 . S
C1016 C1019 1.511 . S
C1017 C1013 1.376 . S
C1017 C1016 1.392 . S
C1017 H1029 0.929 . S
C1018 C1014 1.531 . S
C1018 H1030 0.960 . S
C1018 H1031 0.962 . S
C1018 H1032 0.960 . S
C1019 C1016 1.511 . S
C1019 H1033 0.961 . S
C1019 H1034 0.961 . S
C1019 H1035 0.961 . S
C1020 C1021 1.370 . S
C1020 C1022 1.363 . S
C1020 H1036 0.931 . S
C1021 C1020 1.370 . S
C1021 C1025 1.408 . S
C1022 C1020 1.363 . S
C1022 C1023 1.370 . S
C1022 C1026 1.524 . S
C1023 C1015 1.503 . S
C1023 C1022 1.370 . S
C1023 C1024 1.403 . S
C1024 C1023 1.403 . S
C1024 C1025 1.404 . S
C1024 C1027 1.539 . S
C1025 C1021 1.408 . S
C1025 C1024 1.404 . S
C1025 H1037 0.930 . S
C1026 C1022 1.524 . S
C1026 H1038 0.956 . S
C1026 H1039 0.961 . S
C1026 H1040 0.961 . S
C1027 C1024 1.539 . S
C1027 H1041 0.958 . S
C1027 H1042 0.961 . S
C1027 H1043 0.960 . S
H1028 C1012 0.931 . S
H1029 C1017 0.929 . S
H1030 C1018 0.960 . S
H1031 C1018 0.962 . S
H1032 C1018 0.960 . S
H1033 C1019 0.961 . S
H1034 C1019 0.961 . S
H1035 C1019 0.961 . S
H1036 C1020 0.931 . S
H1037 C1025 0.930 . S
H1038 C1026 0.956 . S
H1039 C1026 0.961 . S
H1040 C1026 0.961 . S
H1041 C1027 0.958 . S
H1042 C1027 0.961 . S
H1043 C1027 0.960 . S
C1044 C1045 1.391 . S
C1044 C1046 1.394 . S
C1044 H1060 0.931 . S
C1045 C1044 1.391 . S
C1045 C1049 1.376 . S
C1046 C1044 1.394 . S
C1046 C1047 1.369 . S
C1046 C1050 1.531 . S
C1047 C1046 1.369 . S
C1047 C1048 1.410 . S
C1047 C1055 1.503 . S
C1048 C1047 1.410 . S
C1048 C1049 1.392 . S
C1048 C1051 1.511 . S
C1049 C1045 1.376 . S
C1049 C1048 1.392 . S
C1049 H1061 0.929 . S
C1050 C1046 1.531 . S
C1050 H1062 0.960 . S
C1050 H1063 0.962 . S
C1050 H1064 0.960 . S
C1051 C1048 1.511 . S
C1051 H1065 0.961 . S
C1051 H1066 0.961 . S
C1051 H1067 0.961 . S
C1052 C1053 1.370 . S
C1052 C1054 1.363 . S
C1052 H1068 0.931 . S
C1053 C1052 1.370 . S
C1053 C1057 1.408 . S
C1054 C1052 1.363 . S
C1054 C1055 1.370 . S
C1054 C1058 1.524 . S
C1055 C1047 1.503 . S
C1055 C1054 1.370 . S
C1055 C1056 1.403 . S
C1056 C1055 1.403 . S
C1056 C1057 1.404 . S
C1056 C1059 1.539 . S
C1057 C1053 1.408 . S
C1057 C1056 1.404 . S
C1057 H1069 0.930 . S
C1058 C1054 1.524 . S
C1058 H1070 0.956 . S
C1058 H1071 0.961 . S
C1058 H1072 0.961 . S
C1059 C1056 1.539 . S
C1059 H1073 0.958 . S
C1059 H1074 0.961 . S
C1059 H1075 0.960 . S
H1060 C1044 0.931 . S
H1061 C1049 0.929 . S
H1062 C1050 0.960 . S
H1063 C1050 0.962 . S
H1064 C1050 0.960 . S
H1065 C1051 0.961 . S
H1066 C1051 0.961 . S
H1067 C1051 0.961 . S
H1068 C1052 0.931 . S
H1069 C1057 0.930 . S
H1070 C1058 0.956 . S
H1071 C1058 0.961 . S
H1072 C1058 0.961 . S
H1073 C1059 0.958 . S
H1074 C1059 0.961 . S
H1075 C1059 0.960 . S
C1076 C1077 1.391 . S
C1076 C1078 1.394 . S
C1076 H1092 0.931 . S
C1077 C1076 1.391 . S
C1077 C1081 1.376 . S
C1078 C1076 1.394 . S
C1078 C1079 1.369 . S
C1078 C1082 1.531 . S
C1079 C1078 1.369 . S
C1079 C1080 1.410 . S
C1079 C1087 1.503 . S
C1080 C1079 1.410 . S
C1080 C1081 1.392 . S
C1080 C1083 1.511 . S
C1081 C1077 1.376 . S
C1081 C1080 1.392 . S
C1081 H1093 0.929 . S
C1082 C1078 1.531 . S
C1082 H1094 0.960 . S
C1082 H1095 0.962 . S
C1082 H1096 0.960 . S
C1083 C1080 1.511 . S
C1083 H1097 0.961 . S
C1083 H1098 0.961 . S
C1083 H1099 0.961 . S
C1084 C1085 1.370 . S
C1084 C1086 1.363 . S
C1084 H1100 0.931 . S
C1085 C1084 1.370 . S
C1085 C1089 1.408 . S
C1086 C1084 1.363 . S
C1086 C1087 1.370 . S
C1086 C1090 1.524 . S
C1087 C1079 1.503 . S
C1087 C1086 1.370 . S
C1087 C1088 1.403 . S
C1088 C1087 1.403 . S
C1088 C1089 1.404 . S
C1088 C1091 1.539 . S
C1089 C1085 1.408 . S
C1089 C1088 1.404 . S
C1089 H1101 0.930 . S
C1090 C1086 1.524 . S
C1090 H1102 0.956 . S
C1090 H1103 0.961 . S
C1090 H1104 0.961 . S
C1091 C1088 1.539 . S
C1091 H1105 0.958 . S
C1091 H1106 0.961 . S
C1091 H1107 0.960 . S
H1092 C1076 0.931 . S
H1093 C1081 0.929 . S
H1094 C1082 0.960 . S
H1095 C1082 0.962 . S
H1096 C1082 0.960 . S
H1097 C1083 0.961 . S
H1098 C1083 0.961 . S
H1099 C1083 0.961 . S
H1100 C1084 0.931 . S
H1101 C1089 0.930 . S
H1102 C1090 0.956 . S
H1103 C1090 0.961 . S
H1104 C1090 0.961 . S
H1105 C1091 0.958 . S
H1106 C1091 0.961 . S
H1107 C1091 0.960 . S
C1108 C1109 1.391 . S
C1108 C1110 1.394 . S
C1108 H1124 0.931 . S
C1109 C1108 1.391 . S
C1109 C1113 1.376 . S
C1110 C1108 1.394 . S
C1110 C1111 1.369 . S
C1110 C1114 1.531 . S
C1111 C1110 1.369 . S
C1111 C1112 1.410 . S
C1111 C1119 1.503 . S
C1112 C1111 1.410 . S
C1112 C1113 1.392 . S
C1112 C1115 1.511 . S
C1113 C1109 1.376 . S
C1113 C1112 1.392 . S
C1113 H1125 0.929 . S
C1114 C1110 1.531 . S
C1114 H1126 0.960 . S
C1114 H1127 0.962 . S
C1114 H1128 0.960 . S
C1115 C1112 1.511 . S
C1115 H1129 0.961 . S
C1115 H1130 0.961 . S
C1115 H1131 0.961 . S
C1116 C1117 1.370 . S
C1116 C1118 1.363 . S
C1116 H1132 0.931 . S
C1117 C1116 1.370 . S
C1117 C1121 1.408 . S
C1118 C1116 1.363 . S
C1118 C1119 1.370 . S
C1118 C1122 1.524 . S
C1119 C1111 1.503 . S
C1119 C1118 1.370 . S
C1119 C1120 1.403 . S
C1120 C1119 1.403 . S
C1120 C1121 1.404 . S
C1120 C1123 1.539 . S
C1121 C1117 1.408 . S
C1121 C1120 1.404 . S
C1121 H1133 0.930 . S
C1122 C1118 1.524 . S
C1122 H1134 0.956 . S
C1122 H1135 0.961 . S
C1122 H1136 0.961 . S
C1123 C1120 1.539 . S
C1123 H1137 0.958 . S
C1123 H1138 0.961 . S
C1123 H1139 0.960 . S
H1124 C1108 0.931 . S
H1125 C1113 0.929 . S
H1126 C1114 0.960 . S
H1127 C1114 0.962 . S
H1128 C1114 0.960 . S
H1129 C1115 0.961 . S
H1130 C1115 0.961 . S
H1131 C1115 0.961 . S
H1132 C1116 0.931 . S
H1133 C1121 0.930 . S
H1134 C1122 0.956 . S
H1135 C1122 0.961 . S
H1136 C1122 0.961 . S
H1137 C1123 0.958 . S
H1138 C1123 0.961 . S
H1139 C1123 0.960 . S
C1140 C1141 1.391 . S
C1140 C1142 1.394 . S
C1140 H1156 0.931 . S
C1141 C1140 1.391 . S
C1141 C1145 1.376 . S
C1142 C1140 1.394 . S
C1142 C1143 1.369 . S
C1142 C1146 1.531 . S
C1143 C1142 1.369 . S
C1143 C1144 1.410 . S
C1143 C1151 1.503 . S
C1144 C1143 1.410 . S
C1144 C1145 1.392 . S
C1144 C1147 1.511 . S
C1145 C1141 1.376 . S
C1145 C1144 1.392 . S
C1145 H1157 0.929 . S
C1146 C1142 1.531 . S
C1146 H1158 0.960 . S
C1146 H1159 0.962 . S
C1146 H1160 0.960 . S
C1147 C1144 1.511 . S
C1147 H1161 0.961 . S
C1147 H1162 0.961 . S
C1147 H1163 0.961 . S
C1148 C1149 1.370 . S
C1148 C1150 1.363 . S
C1148 H1164 0.931 . S
C1149 C1148 1.370 . S
C1149 C1153 1.408 . S
C1150 C1148 1.363 . S
C1150 C1151 1.370 . S
C1150 C1154 1.524 . S
C1151 C1143 1.503 . S
C1151 C1150 1.370 . S
C1151 C1152 1.403 . S
C1152 C1151 1.403 . S
C1152 C1153 1.404 . S
C1152 C1155 1.539 . S
C1153 C1149 1.408 . S
C1153 C1152 1.404 . S
C1153 H1165 0.930 . S
C1154 C1150 1.524 . S
C1154 H1166 0.956 . S
C1154 H1167 0.961 . S
C1154 H1168 0.961 . S
C1155 C1152 1.539 . S
C1155 H1169 0.958 . S
C1155 H1170 0.961 . S
C1155 H1171 0.960 . S
H1156 C1140 0.931 . S
H1157 C1145 0.929 . S
H1158 C1146 0.960 . S
H1159 C1146 0.962 . S
H1160 C1146 0.960 . S
H1161 C1147 0.961 . S
H1162 C1147 0.961 . S
H1163 C1147 0.961 . S
H1164 C1148 0.931 . S
H1165 C1153 0.930 . S
H1166 C1154 0.956 . S
H1167 C1154 0.961 . S
H1168 C1154 0.961 . S
H1169 C1155 0.958 . S
H1170 C1155 0.961 . S
H1171 C1155 0.960 . S
C1172 C1173 1.391 . S
C1172 C1174 1.394 . S
C1172 H1188 0.931 . S
C1173 C1172 1.391 . S
C1173 C1177 1.376 . S
C1174 C1172 1.394 . S
C1174 C1175 1.369 . S
C1174 C1178 1.531 . S
C1175 C1174 1.369 . S
C1175 C1176 1.410 . S
C1175 C1183 1.503 . S
C1176 C1175 1.410 . S
C1176 C1177 1.392 . S
C1176 C1179 1.511 . S
C1177 C1173 1.376 . S
C1177 C1176 1.392 . S
C1177 H1189 0.929 . S
C1178 C1174 1.531 . S
C1178 H1190 0.960 . S
C1178 H1191 0.962 . S
C1178 H1192 0.960 . S
C1179 C1176 1.511 . S
C1179 H1193 0.961 . S
C1179 H1194 0.961 . S
C1179 H1195 0.961 . S
C1180 C1181 1.370 . S
C1180 C1182 1.363 . S
C1180 H1196 0.931 . S
C1181 C1180 1.370 . S
C1181 C1185 1.408 . S
C1182 C1180 1.363 . S
C1182 C1183 1.370 . S
C1182 C1186 1.524 . S
C1183 C1175 1.503 . S
C1183 C1182 1.370 . S
C1183 C1184 1.403 . S
C1184 C1183 1.403 . S
C1184 C1185 1.404 . S
C1184 C1187 1.539 . S
C1185 C1181 1.408 . S
C1185 C1184 1.404 . S
C1185 H1197 0.930 . S
C1186 C1182 1.524 . S
C1186 H1198 0.956 . S
C1186 H1199 0.961 . S
C1186 H1200 0.961 . S
C1187 C1184 1.539 . S
C1187 H1201 0.958 . S
C1187 H1202 0.961 . S
C1187 H1203 0.960 . S
H1188 C1172 0.931 . S
H1189 C1177 0.929 . S
H1190 C1178 0.960 . S
H1191 C1178 0.962 . S
H1192 C1178 0.960 . S
H1193 C1179 0.961 . S
H1194 C1179 0.961 . S
H1195 C1179 0.961 . S
H1196 C1180 0.931 . S
H1197 C1185 0.930 . S
H1198 C1186 0.956 . S
H1199 C1186 0.961 . S
H1200 C1186 0.961 . S
H1201 C1187 0.958 . S
H1202 C1187 0.961 . S
H1203 C1187 0.960 . S
C1204 C1205 1.391 . S
C1204 C1206 1.394 . S
C1204 H1220 0.931 . S
C1205 C1204 1.391 . S
C1205 C1209 1.376 . S
C1206 C1204 1.394 . S
C1206 C1207 1.369 . S
C1206 C1210 1.531 . S
C1207 C1206 1.369 . S
C1207 C1208 1.410 . S
C1207 C1215 1.503 . S
C1208 C1207 1.410 . S
C1208 C1209 1.392 . S
C1208 C1211 1.511 . S
C1209 C1205 1.376 . S
C1209 C1208 1.392 . S
C1209 H1221 0.929 . S
C1210 C1206 1.531 . S
C1210 H1222 0.960 . S
C1210 H1223 0.962 . S
C1210 H1224 0.960 . S
C1211 C1208 1.511 . S
C1211 H1225 0.961 . S
C1211 H1226 0.961 . S
C1211 H1227 0.961 . S
C1212 C1213 1.370 . S
C1212 C1214 1.363 . S
C1212 H1228 0.931 . S
C1213 C1212 1.370 . S
C1213 C1217 1.408 . S
C1214 C1212 1.363 . S
C1214 C1215 1.370 . S
C1214 C1218 1.524 . S
C1215 C1207 1.503 . S
C1215 C1214 1.370 . S
C1215 C1216 1.403 . S
C1216 C1215 1.403 . S
C1216 C1217 1.404 . S
C1216 C1219 1.539 . S
C1217 C1213 1.408 . S
C1217 C1216 1.404 . S
C1217 H1229 0.930 . S
C1218 C1214 1.524 . S
C1218 H1230 0.956 . S
C1218 H1231 0.961 . S
C1218 H1232 0.961 . S
C1219 C1216 1.539 . S
C1219 H1233 0.958 . S
C1219 H1234 0.961 . S
C1219 H1235 0.960 . S
H1220 C1204 0.931 . S
H1221 C1209 0.929 . S
H1222 C1210 0.960 . S
H1223 C1210 0.962 . S
H1224 C1210 0.960 . S
H1225 C1211 0.961 . S
H1226 C1211 0.961 . S
H1227 C1211 0.961 . S
H1228 C1212 0.931 . S
H1229 C1217 0.930 . S
H1230 C1218 0.956 . S
H1231 C1218 0.961 . S
H1232 C1218 0.961 . S
H1233 C1219 0.958 . S
H1234 C1219 0.961 . S
H1235 C1219 0.960 . S
C1236 C1237 1.391 . S
C1236 C1238 1.394 . S
C1236 H1252 0.931 . S
C1237 C1236 1.391 . S
C1237 C1241 1.376 . S
C1238 C1236 1.394 . S
C1238 C1239 1.369 . S
C1238 C1242 1.531 . S
C1239 C1238 1.369 . S
C1239 C1240 1.410 . S
C1239 C1247 1.503 . S
C1240 C1239 1.410 . S
C1240 C1241 1.392 . S
C1240 C1243 1.511 . S
C1241 C1237 1.376 . S
C1241 C1240 1.392 . S
C1241 H1253 0.929 . S
C1242 C1238 1.531 . S
C1242 H1254 0.960 . S
C1242 H1255 0.962 . S
C1242 H1256 0.960 . S
C1243 C1240 1.511 . S
C1243 H1257 0.961 . S
C1243 H1258 0.961 . S
C1243 H1259 0.961 . S
C1244 C1245 1.370 . S
C1244 C1246 1.363 . S
C1244 H1260 0.931 . S
C1245 C1244 1.370 . S
C1245 C1249 1.408 . S
C1246 C1244 1.363 . S
C1246 C1247 1.370 . S
C1246 C1250 1.524 . S
C1247 C1239 1.503 . S
C1247 C1246 1.370 . S
C1247 C1248 1.403 . S
C1248 C1247 1.403 . S
C1248 C1249 1.404 . S
C1248 C1251 1.539 . S
C1249 C1245 1.408 . S
C1249 C1248 1.404 . S
C1249 H1261 0.930 . S
C1250 C1246 1.524 . S
C1250 H1262 0.956 . S
C1250 H1263 0.961 . S
C1250 H1264 0.961 . S
C1251 C1248 1.539 . S
C1251 H1265 0.958 . S
C1251 H1266 0.961 . S
C1251 H1267 0.960 . S
H1252 C1236 0.931 . S
H1253 C1241 0.929 . S
H1254 C1242 0.960 . S
H1255 C1242 0.962 . S
H1256 C1242 0.960 . S
H1257 C1243 0.961 . S
H1258 C1243 0.961 . S
H1259 C1243 0.961 . S
H1260 C1244 0.931 . S
H1261 C1249 0.930 . S
H1262 C1250 0.956 . S
H1263 C1250 0.961 . S
H1264 C1250 0.961 . S
H1265 C1251 0.958 . S
H1266 C1251 0.961 . S
H1267 C1251 0.960 . S
C1268 C1269 1.391 . S
C1268 C1270 1.394 . S
C1268 H1284 0.931 . S
C1269 C1268 1.391 . S
C1269 C1273 1.376 . S
C1270 C1268 1.394 . S
C1270 C1271 1.369 . S
C1270 C1274 1.531 . S
C1271 C1270 1.369 . S
C1271 C1272 1.410 . S
C1271 C1279 1.503 . S
C1272 C1271 1.410 . S
C1272 C1273 1.392 . S
C1272 C1275 1.511 . S
C1273 C1269 1.376 . S
C1273 C1272 1.392 . S
C1273 H1285 0.929 . S
C1274 C1270 1.531 . S
C1274 H1286 0.960 . S
C1274 H1287 0.962 . S
C1274 H1288 0.960 . S
C1275 C1272 1.511 . S
C1275 H1289 0.961 . S
C1275 H1290 0.961 . S
C1275 H1291 0.961 . S
C1276 C1277 1.370 . S
C1276 C1278 1.363 . S
C1276 H1292 0.931 . S
C1277 C1276 1.370 . S
C1277 C1281 1.408 . S
C1278 C1276 1.363 . S
C1278 C1279 1.370 . S
C1278 C1282 1.524 . S
C1279 C1271 1.503 . S
C1279 C1278 1.370 . S
C1279 C1280 1.403 . S
C1280 C1279 1.403 . S
C1280 C1281 1.404 . S
C1280 C1283 1.539 . S
C1281 C1277 1.408 . S
C1281 C1280 1.404 . S
C1281 H1293 0.930 . S
C1282 C1278 1.524 . S
C1282 H1294 0.956 . S
C1282 H1295 0.961 . S
C1282 H1296 0.961 . S
C1283 C1280 1.539 . S
C1283 H1297 0.958 . S
C1283 H1298 0.961 . S
C1283 H1299 0.960 . S
H1284 C1268 0.931 . S
H1285 C1273 0.929 . S
H1286 C1274 0.960 . S
H1287 C1274 0.962 . S
H1288 C1274 0.960 . S
H1289 C1275 0.961 . S
H1290 C1275 0.961 . S
H1291 C1275 0.961 . S
H1292 C1276 0.931 . S
H1293 C1281 0.930 . S
H1294 C1282 0.956 . S
H1295 C1282 0.961 . S
H1296 C1282 0.961 . S
H1297 C1283 0.958 . S
H1298 C1283 0.961 . S
H1299 C1283 0.960 . S
C1300 C1301 1.391 . S
C1300 C1302 1.394 . S
C1300 H1316 0.931 . S
C1301 C1300 1.391 . S
C1301 C1305 1.376 . S
C1302 C1300 1.394 . S
C1302 C1303 1.369 . S
C1302 C1306 1.531 . S
C1303 C1302 1.369 . S
C1303 C1304 1.410 . S
C1303 C1311 1.503 . S
C1304 C1303 1.410 . S
C1304 C1305 1.392 . S
C1304 C1307 1.511 . S
C1305 C1301 1.376 . S
C1305 C1304 1.392 . S
C1305 H1317 0.929 . S
C1306 C1302 1.531 . S
C1306 H1318 0.960 . S
C1306 H1319 0.962 . S
C1306 H1320 0.960 . S
C1307 C1304 1.511 . S
C1307 H1321 0.961 . S
C1307 H1322 0.961 . S
C1307 H1323 0.961 . S
C1308 C1309 1.370 . S
C1308 C1310 1.363 . S
C1308 H1324 0.931 . S
C1309 C1308 1.370 . S
C1309 C1313 1.408 . S
C1310 C1308 1.363 . S
C1310 C1311 1.370 . S
C1310 C1314 1.524 . S
C1311 C1303 1.503 . S
C1311 C1310 1.370 . S
C1311 C1312 1.403 . S
C1312 C1311 1.403 . S
C1312 C1313 1.404 . S
C1312 C1315 1.539 . S
C1313 C1309 1.408 . S
C1313 C1312 1.404 . S
C1313 H1325 0.930 . S
C1314 C1310 1.524 . S
C1314 H1326 0.956 . S
C1314 H1327 0.961 . S
C1314 H1328 0.961 . S
C1315 C1312 1.539 . S
C1315 H1329 0.958 . S
C1315 H1330 0.961 . S
C1315 H1331 0.960 . S
H1316 C1300 0.931 . S
H1317 C1305 0.929 . S
H1318 C1306 0.960 . S
H1319 C1306 0.962 . S
H1320 C1306 0.960 . S
H1321 C1307 0.961 . S
H1322 C1307 0.961 . S
H1323 C1307 0.961 . S
H1324 C1308 0.931 . S
H1325 C1313 0.930 . S
H1326 C1314 0.956 . S
H1327 C1314 0.961 . S
H1328 C1314 0.961 . S
H1329 C1315 0.958 . S
H1330 C1315 0.961 . S
H1331 C1315 0.960 . S
C1332 C1333 1.391 . S
C1332 C1334 1.394 . S
C1332 H1348 0.931 . S
C1333 C1332 1.391 . S
C1333 C1337 1.376 . S
C1334 C1332 1.394 . S
C1334 C1335 1.369 . S
C1334 C1338 1.531 . S
C1335 C1334 1.369 . S
C1335 C1336 1.410 . S
C1335 C1343 1.503 . S
C1336 C1335 1.410 . S
C1336 C1337 1.392 . S
C1336 C1339 1.511 . S
C1337 C1333 1.376 . S
C1337 C1336 1.392 . S
C1337 H1349 0.929 . S
C1338 C1334 1.531 . S
C1338 H1350 0.960 . S
C1338 H1351 0.962 . S
C1338 H1352 0.960 . S
C1339 C1336 1.511 . S
C1339 H1353 0.961 . S
C1339 H1354 0.961 . S
C1339 H1355 0.961 . S
C1340 C1341 1.370 . S
C1340 C1342 1.363 . S
C1340 H1356 0.931 . S
C1341 C1340 1.370 . S
C1341 C1345 1.408 . S
C1342 C1340 1.363 . S
C1342 C1343 1.370 . S
C1342 C1346 1.524 . S
C1343 C1335 1.503 . S
C1343 C1342 1.370 . S
C1343 C1344 1.403 . S
C1344 C1343 1.403 . S
C1344 C1345 1.404 . S
C1344 C1347 1.539 . S
C1345 C1341 1.408 . S
C1345 C1344 1.404 . S
C1345 H1357 0.930 . S
C1346 C1342 1.524 . S
C1346 H1358 0.956 . S
C1346 H1359 0.961 . S
C1346 H1360 0.961 . S
C1347 C1344 1.539 . S
C1347 H1361 0.958 . S
C1347 H1362 0.961 . S
C1347 H1363 0.960 . S
H1348 C1332 0.931 . S
H1349 C1337 0.929 . S
H1350 C1338 0.960 . S
H1351 C1338 0.962 . S
H1352 C1338 0.960 . S
H1353 C1339 0.961 . S
H1354 C1339 0.961 . S
H1355 C1339 0.961 . S
H1356 C1340 0.931 . S
H1357 C1345 0.930 . S
H1358 C1346 0.956 . S
H1359 C1346 0.961 . S
H1360 C1346 0.961 . S
H1361 C1347 0.958 . S
H1362 C1347 0.961 . S
H1363 C1347 0.960 . S
C605 C328 1.533 . S
C597 C15 1.538 . S
C637 C381 1.560 . S
C629 C55 1.552 . S
C669 C342 1.579 . S
C661 C101 1.553 . S
C701 C367 1.598 . S
C693 C141 1.578 . S
C733 C413 1.515 . S
C725 C2 1.495 . S
C765 C459 1.514 . S
C757 C61 1.517 . S
C789 C95 1.627 . S
C797 C526 1.614 . S
C829 C558 1.519 . S
C821 C135 1.510 . S
C861 C427 1.514 . S
C853 C42 1.475 . S
C885 C82 1.531 . S
C893 C473 1.537 . S
C925 C512 1.606 . S
C917 C122 1.622 . S
C957 C572 1.530 . S
C949 C21 1.514 . S
C981 C162 1.591 . S
C989 C388 1.582 . S
C1021 C321 1.579 . S
C1013 C221 1.561 . S
C1045 C255 1.553 . S
C1053 C374 1.560 . S
C1077 C282 1.509 . S
C1085 C335 1.539 . S
C1117 C519 1.607 . S
C1109 C181 1.627 . S
C1149 C565 1.530 . S
C1141 C202 1.513 . S
C1181 C420 1.521 . S
C1173 C242 1.515 . S
C1205 C301 1.507 . S
C1213 C480 1.525 . S
C1245 C505 1.614 . S
C1237 C215 1.626 . S
C1277 C551 1.526 . S
C1269 C261 1.518 . S
C1309 C434 1.509 . S
C1301 C295 1.520 . S
C1333 C175 1.514 . S
C1341 C466 1.526 . S
