# Generated by pormake.
# Topology ctn, (3,4)-cn, num edge types: 1
# Building blocks:
#     Node 0, Type 0, BuildingBlock: BETDIP_clean_linker_0, # of connection points: 3
#     Node 1, Type 0, BuildingBlock: BETDIP_clean_linker_0, # of connection points: 3
#     Node 2, Type 0, BuildingBlock: BETDIP_clean_linker_0, # of connection points: 3
#     Node 3, Type 0, BuildingBlock: BETDIP_clean_linker_0, # of connection points: 3
#     Node 4, Type 0, BuildingBlock: BETDIP_clean_linker_0, # of connection points: 3
#     Node 5, Type 0, BuildingBlock: BETDIP_clean_linker_0, # of connection points: 3
#     Node 6, Type 0, BuildingBlock: BETDIP_clean_linker_0, # of connection points: 3
#     Node 7, Type 0, BuildingBlock: BETDIP_clean_linker_0, # of connection points: 3
#     Node 8, Type 0, BuildingBlock: BETDIP_clean_linker_0, # of connection points: 3
#     Node 9, Type 0, BuildingBlock: BETDIP_clean_linker_0, # of connection points: 3
#     Node 10, Type 0, BuildingBlock: BETDIP_clean_linker_0, # of connection points: 3
#     Node 11, Type 0, BuildingBlock: BETDIP_clean_linker_0, # of connection points: 3
#     Node 12, Type 0, BuildingBlock: BETDIP_clean_linker_0, # of connection points: 3
#     Node 13, Type 0, BuildingBlock: BETDIP_clean_linker_0, # of connection points: 3
#     Node 14, Type 0, BuildingBlock: BETDIP_clean_linker_0, # of connection points: 3
#     Node 15, Type 0, BuildingBlock: BETDIP_clean_linker_0, # of connection points: 3
#     Node 16, Type 1, BuildingBlock: QUQFOY_clean_sbu_1, # of connection points: 4
#     Node 17, Type 1, BuildingBlock: QUQFOY_clean_sbu_1, # of connection points: 4
#     Node 18, Type 1, BuildingBlock: QUQFOY_clean_sbu_1, # of connection points: 4
#     Node 19, Type 1, BuildingBlock: QUQFOY_clean_sbu_1, # of connection points: 4
#     Node 20, Type 1, BuildingBlock: QUQFOY_clean_sbu_1, # of connection points: 4
#     Node 21, Type 1, BuildingBlock: QUQFOY_clean_sbu_1, # of connection points: 4
#     Node 22, Type 1, BuildingBlock: QUQFOY_clean_sbu_1, # of connection points: 4
#     Node 23, Type 1, BuildingBlock: QUQFOY_clean_sbu_1, # of connection points: 4
#     Node 24, Type 1, BuildingBlock: QUQFOY_clean_sbu_1, # of connection points: 4
#     Node 25, Type 1, BuildingBlock: QUQFOY_clean_sbu_1, # of connection points: 4
#     Node 26, Type 1, BuildingBlock: QUQFOY_clean_sbu_1, # of connection points: 4
#     Node 27, Type 1, BuildingBlock: QUQFOY_clean_sbu_1, # of connection points: 4
#     Edge 28, Type (0, 1), BuildingBlock: OJICUG_clean_linker_0, # of connection points: 2
#     Edge 29, Type (0, 1), BuildingBlock: OJICUG_clean_linker_0, # of connection points: 2
#     Edge 30, Type (0, 1), BuildingBlock: OJICUG_clean_linker_0, # of connection points: 2
#     Edge 31, Type (0, 1), BuildingBlock: OJICUG_clean_linker_0, # of connection points: 2
#     Edge 32, Type (0, 1), BuildingBlock: OJICUG_clean_linker_0, # of connection points: 2
#     Edge 33, Type (0, 1), BuildingBlock: OJICUG_clean_linker_0, # of connection points: 2
#     Edge 34, Type (0, 1), BuildingBlock: OJICUG_clean_linker_0, # of connection points: 2
#     Edge 35, Type (0, 1), BuildingBlock: OJICUG_clean_linker_0, # of connection points: 2
#     Edge 36, Type (0, 1), BuildingBlock: OJICUG_clean_linker_0, # of connection points: 2
#     Edge 37, Type (0, 1), BuildingBlock: OJICUG_clean_linker_0, # of connection points: 2
#     Edge 38, Type (0, 1), BuildingBlock: OJICUG_clean_linker_0, # of connection points: 2
#     Edge 39, Type (0, 1), BuildingBlock: OJICUG_clean_linker_0, # of connection points: 2
#     Edge 40, Type (0, 1), BuildingBlock: OJICUG_clean_linker_0, # of connection points: 2
#     Edge 41, Type (0, 1), BuildingBlock: OJICUG_clean_linker_0, # of connection points: 2
#     Edge 42, Type (0, 1), BuildingBlock: OJICUG_clean_linker_0, # of connection points: 2
#     Edge 43, Type (0, 1), BuildingBlock: OJICUG_clean_linker_0, # of connection points: 2
#     Edge 44, Type (0, 1), BuildingBlock: OJICUG_clean_linker_0, # of connection points: 2
#     Edge 45, Type (0, 1), BuildingBlock: OJICUG_clean_linker_0, # of connection points: 2
#     Edge 46, Type (0, 1), BuildingBlock: OJICUG_clean_linker_0, # of connection points: 2
#     Edge 47, Type (0, 1), BuildingBlock: OJICUG_clean_linker_0, # of connection points: 2
#     Edge 48, Type (0, 1), BuildingBlock: OJICUG_clean_linker_0, # of connection points: 2
#     Edge 49, Type (0, 1), BuildingBlock: OJICUG_clean_linker_0, # of connection points: 2
#     Edge 50, Type (0, 1), BuildingBlock: OJICUG_clean_linker_0, # of connection points: 2
#     Edge 51, Type (0, 1), BuildingBlock: OJICUG_clean_linker_0, # of connection points: 2
#     Edge 52, Type (0, 1), BuildingBlock: OJICUG_clean_linker_0, # of connection points: 2
#     Edge 53, Type (0, 1), BuildingBlock: OJICUG_clean_linker_0, # of connection points: 2
#     Edge 54, Type (0, 1), BuildingBlock: OJICUG_clean_linker_0, # of connection points: 2
#     Edge 55, Type (0, 1), BuildingBlock: OJICUG_clean_linker_0, # of connection points: 2
#     Edge 56, Type (0, 1), BuildingBlock: OJICUG_clean_linker_0, # of connection points: 2
#     Edge 57, Type (0, 1), BuildingBlock: OJICUG_clean_linker_0, # of connection points: 2
#     Edge 58, Type (0, 1), BuildingBlock: OJICUG_clean_linker_0, # of connection points: 2
#     Edge 59, Type (0, 1), BuildingBlock: OJICUG_clean_linker_0, # of connection points: 2
#     Edge 60, Type (0, 1), BuildingBlock: OJICUG_clean_linker_0, # of connection points: 2
#     Edge 61, Type (0, 1), BuildingBlock: OJICUG_clean_linker_0, # of connection points: 2
#     Edge 62, Type (0, 1), BuildingBlock: OJICUG_clean_linker_0, # of connection points: 2
#     Edge 63, Type (0, 1), BuildingBlock: OJICUG_clean_linker_0, # of connection points: 2
#     Edge 64, Type (0, 1), BuildingBlock: OJICUG_clean_linker_0, # of connection points: 2
#     Edge 65, Type (0, 1), BuildingBlock: OJICUG_clean_linker_0, # of connection points: 2
#     Edge 66, Type (0, 1), BuildingBlock: OJICUG_clean_linker_0, # of connection points: 2
#     Edge 67, Type (0, 1), BuildingBlock: OJICUG_clean_linker_0, # of connection points: 2
#     Edge 68, Type (0, 1), BuildingBlock: OJICUG_clean_linker_0, # of connection points: 2
#     Edge 69, Type (0, 1), BuildingBlock: OJICUG_clean_linker_0, # of connection points: 2
#     Edge 70, Type (0, 1), BuildingBlock: OJICUG_clean_linker_0, # of connection points: 2
#     Edge 71, Type (0, 1), BuildingBlock: OJICUG_clean_linker_0, # of connection points: 2
#     Edge 72, Type (0, 1), BuildingBlock: OJICUG_clean_linker_0, # of connection points: 2
#     Edge 73, Type (0, 1), BuildingBlock: OJICUG_clean_linker_0, # of connection points: 2
#     Edge 74, Type (0, 1), BuildingBlock: OJICUG_clean_linker_0, # of connection points: 2
#     Edge 75, Type (0, 1), BuildingBlock: OJICUG_clean_linker_0, # of connection points: 2
# Relax obj value: 0.098
# Max RMSD: 0.198
# Mean RMSD: 0.137
data_MOF--net-ctn--node1-QUQFOY_clean_sbu_1--node2-BETDIP_clean_linker_0--edge1-OJICUG_clean_linker_0
_symmetry_space_group_name_H-M    P1
_symmetry_Int_Tables_number       1
_symmetry_cell_setting            triclinic
loop_
_symmetry_equiv_pos_as_xyz
'x, y, z'
_cell_length_a     38.235653
_cell_length_b     38.27379
_cell_length_c     42.812741
_cell_angle_alpha  97.081221
_cell_angle_beta   94.118444
_cell_angle_gamma 98.087847
loop_
_atom_site_label
_atom_site_type_symbol
_atom_site_fract_x
_atom_site_fract_y
_atom_site_fract_z
_atom_type_partial_charge
H0 H 0.0046 0.0731 0.07528 0.0
H1 H 0.07014 0.02849 0.00863 0.0
H2 H 0.05803 0.98541 0.09576 0.0
H3 H 0.07578 0.08344 0.99379 0.0
C4 C 0.04952 0.09072 -0.00412 0.0
C5 C 0.02228 0.05409 0.06907 0.0
C6 C 0.02957 0.02942 0.08953 0.0
C7 C 0.0374 0.05444 0.04029 0.0
C8 C 0.059 0.0289 0.03116 0.0
C9 C 0.0662 0.00358 0.05092 0.0
C10 C 0.05192 0.00446 0.08026 0.0
N11 N 0.02927 0.08002 0.0206 0.0
H12 H 0.22323 0.71148 0.21172 0.0
H13 H 0.33124 0.76409 0.22067 0.0
H14 H 0.30137 0.68079 0.27609 0.0
H15 H 0.30638 0.80884 0.20522 0.0
C16 C 0.28518 0.79597 0.18757 0.0
C17 C 0.25024 0.71442 0.22236 0.0
C18 C 0.25931 0.6925 0.24479 0.0
C19 C 0.2757 0.74094 0.21408 0.0
C20 C 0.31088 0.74487 0.22779 0.0
C21 C 0.32023 0.72354 0.25053 0.0
C22 C 0.29431 0.69736 0.25861 0.0
N23 N 0.26537 0.76273 0.19148 0.0
H24 H 0.94064 0.51351 0.01326 0.0
H25 H -0.0072 0.46561 0.08483 0.0
H26 H 0.95683 0.56646 0.10893 0.0
H27 H 0.96598 0.41413 0.05275 0.0
C28 C 0.97152 0.42198 0.02985 0.0
C29 C 0.95053 0.51452 0.03778 0.0
C30 C 0.94754 0.54395 0.05994 0.0
C31 C 0.9655 0.48576 0.0469 0.0
C32 C 0.97883 0.48672 0.07841 0.0
C33 C 0.97593 0.5157 0.10119 0.0
C34 C 0.95958 0.544 0.09174 0.0
N35 N 0.96832 0.45696 0.02348 0.0
H36 H 0.71764 0.74779 0.20994 0.0
H37 H 0.75067 0.84563 0.27184 0.0
H38 H 0.81257 0.81663 0.1956 0.0
H39 H 0.68983 0.84385 0.26454 0.0
C40 C 0.68259 0.81751 0.27134 0.0
C41 C 0.73691 0.77152 0.21731 0.0
C42 C 0.76608 0.77926 0.19976 0.0
C43 C 0.73123 0.79551 0.24318 0.0
C44 C 0.75547 0.82688 0.25214 0.0
C45 C 0.78477 0.83501 0.23501 0.0
C46 C 0.7903 0.81053 0.2093 0.0
N47 N 0.69985 0.78908 0.25875 0.0
H48 H 0.02467 0.98202 0.45018 0.0
H49 H 0.12576 0.01586 0.50404 0.0
H50 H 0.10489 0.05438 0.41575 0.0
H51 H 0.11166 0.96767 0.52722 0.0
C52 C 0.08297 0.96327 0.52689 0.0
C53 C 0.05122 -0.00304 0.45269 0.0
C54 C 0.06226 0.01799 0.42948 0.0
C55 C 0.0742 -0.00497 0.47921 0.0
C56 C 0.10821 0.01537 0.48298 0.0
C57 C 0.11942 0.03645 0.45992 0.0
C58 C 0.09664 0.0371 0.43299 0.0
N59 N 0.06153 0.97383 0.50224 0.0
H60 H 0.24309 0.79089 0.81682 0.0
H61 H 0.28327 0.70922 0.75841 0.0
H62 H 0.30427 0.72058 0.85983 0.0
H63 H 0.22366 0.70956 0.7335 0.0
C64 C 0.2216 0.73774 0.73492 0.0
C65 C 0.25817 0.76888 0.81482 0.0
C66 C 0.27262 0.75731 0.84206 0.0
C67 C 0.26148 0.75144 0.78486 0.0
C68 C 0.28095 0.72287 0.78171 0.0
C69 C 0.29696 0.71172 0.80871 0.0
C70 C 0.29258 0.72919 0.83882 0.0
N71 N 0.2431 0.76218 0.7586 0.0
H72 H -0.00727 0.64024 0.49019 0.0
H73 H 0.93653 0.53352 0.47127 0.0
H74 H 0.90777 0.60683 0.54592 0.0
H75 H -0.00345 0.52539 0.46169 0.0
C76 C -0.00058 0.54507 0.44541 0.0
C77 C 0.97175 0.62011 0.49524 0.0
C78 C 0.95072 0.62766 0.52004 0.0
C79 C 0.96706 0.58618 0.4779 0.0
C80 C 0.94064 0.5598 0.48489 0.0
C81 C 0.919 0.56728 0.50913 0.0
C82 C 0.92371 0.60139 0.52644 0.0
N83 N 0.98931 0.57905 0.45362 0.0
H84 H 0.80058 0.88735 0.80261 0.0
H85 H 0.85001 0.81483 0.85328 0.0
H86 H 0.7595 0.85717 0.88787 0.0
H87 H 0.89793 0.83446 0.83082 0.0
C88 C 0.88851 0.8411 0.80809 0.0
C89 C 0.80173 0.87244 0.82251 0.0
C90 C 0.77623 0.87395 0.84445 0.0
C91 C 0.82936 0.85257 0.82635 0.0
C92 C 0.8305 0.83253 0.8517 0.0
C93 C 0.80557 0.83399 0.87432 0.0
C94 C 0.77879 0.85533 0.87065 0.0
N95 N 0.85489 0.85256 0.80378 0.0
H96 H 0.32544 0.40417 0.30329 0.0
H97 H 0.37747 0.33317 0.35416 0.0
H98 H 0.27703 0.36007 0.38016 0.0
H99 H 0.42439 0.35212 0.33049 0.0
C100 C 0.41459 0.35961 0.30823 0.0
C101 C 0.32596 0.38753 0.32201 0.0
C102 C 0.29806 0.38465 0.34153 0.0
C103 C 0.35489 0.36954 0.32656 0.0
C104 C 0.35559 0.34773 0.3507 0.0
C105 C 0.32764 0.34408 0.3703 0.0
C106 C 0.29912 0.36305 0.36571 0.0
N107 N 0.38164 0.37257 0.30522 0.0
H108 H 0.42214 0.00688 0.51298 0.0
H109 H 0.47327 0.95942 0.58538 0.0
H110 H 0.44557 0.06457 0.6067 0.0
H111 H 0.4451 0.90715 0.55398 0.0
C112 C 0.45151 0.91503 0.53128 0.0
C113 C 0.43277 0.00861 0.53737 0.0
C114 C 0.43269 0.03967 0.55855 0.0
C115 C 0.44626 0.97937 0.54718 0.0
C116 C 0.46054 0.98116 0.5785 0.0
C117 C 0.46048 0.01174 0.60038 0.0
C118 C 0.44591 0.04078 0.59023 0.0
N119 N 0.44756 0.94962 0.5243 0.0
H120 H 0.22083 0.2521 0.70557 0.0
H121 H 0.26114 0.34029 0.77714 0.0
H122 H 0.31633 0.32152 0.69424 0.0
H123 H 0.20022 0.34422 0.77008 0.0
C124 C 0.1904 0.31704 0.77363 0.0
C125 C 0.24125 0.27432 0.71478 0.0
C126 C 0.27019 0.28337 0.69733 0.0
C127 C 0.23747 0.29529 0.7432 0.0
C128 C 0.26356 0.32456 0.75479 0.0
C129 C 0.29204 0.33438 0.73726 0.0
C130 C 0.29541 0.31328 0.70877 0.0
N131 N 0.20598 0.2886 0.75858 0.0
H132 H 0.72032 0.19129 0.70865 0.0
H133 H 0.82287 0.25522 0.7245 0.0
H134 H 0.79567 0.17246 0.78198 0.0
H135 H 0.77026 0.29786 0.71342 0.0
C136 C 0.76806 0.28128 0.69064 0.0
C137 C 0.74623 0.19744 0.72176 0.0
C138 C 0.75498 0.17834 0.74646 0.0
C139 C 0.77032 0.22556 0.71443 0.0
C140 C 0.80395 0.23423 0.73119 0.0
C141 C 0.81359 0.21483 0.75542 0.0
C142 C 0.78872 0.18722 0.76303 0.0
N143 N 0.76105 0.2437 0.68892 0.0
H144 H 0.50862 0.5709 0.57109 0.0
H145 H 0.58413 0.53537 0.50988 0.0
H146 H 0.56909 0.48982 0.59561 0.0
H147 H 0.58397 0.58903 0.49345 0.0
C148 C 0.55663 0.5935 0.4944 0.0
C149 C 0.5287 0.55413 0.5662 0.0
C150 C 0.53707 0.53046 0.58722 0.0
C151 C 0.54589 0.55641 0.53862 0.0
C152 C 0.57109 0.53399 0.53136 0.0
C153 C 0.57937 0.50948 0.55164 0.0
C154 C 0.56249 0.50825 0.57967 0.0
N155 N 0.53618 0.58072 0.51823 0.0
H156 H 0.5404 0.46508 0.93475 0.0
H157 H 0.64267 0.48567 0.98775 0.0
H158 H 0.62221 0.54364 0.9105 0.0
H159 H 0.62541 0.43406 0.00538 0.0
C160 C 0.59695 0.43287 0.00611 0.0
C161 C 0.5674 0.47899 0.93844 0.0
C162 C 0.57887 0.50472 0.91919 0.0
C163 C 0.59034 0.47128 0.96276 0.0
C164 C 0.62505 0.48997 0.96815 0.0
C165 C 0.63675 0.51592 0.94919 0.0
C166 C 0.61375 0.52266 0.9244 0.0
N167 N 0.57659 0.44687 0.98288 0.0
H168 H 0.74073 0.29904 0.32212 0.0
H169 H 0.77238 0.21494 0.25975 0.0
H170 H 0.80036 0.22428 0.36004 0.0
H171 H 0.75099 0.24891 0.21894 0.0
C172 C 0.72888 0.25594 0.23167 0.0
C173 C 0.75441 0.27608 0.31886 0.0
C174 C 0.77018 0.26364 0.34503 0.0
C175 C 0.75494 0.25882 0.28828 0.0
C176 C 0.77265 0.22905 0.28331 0.0
C177 C 0.78935 0.21653 0.30926 0.0
C178 C 0.788 0.23409 0.33997 0.0
N179 N 0.73396 0.27032 0.26404 0.0
H180 H 0.46933 0.13713 0.98336 0.0
H181 H 0.39713 0.0414 0.94978 0.0
H182 H 0.37918 0.10728 0.03434 0.0
H183 H 0.4576 0.02518 0.94531 0.0
C184 C 0.46539 0.04596 0.9309 0.0
C185 C 0.44516 0.11938 0.9855 0.0
C186 C 0.42504 0.1261 0.01111 0.0
C187 C 0.43536 0.08875 0.96362 0.0
C188 C 0.4045 0.06537 0.9666 0.0
C189 C 0.38398 0.07202 0.99193 0.0
C190 C 0.39429 0.10255 0.01414 0.0
N191 N 0.45789 0.08091 0.93973 0.0
O192 O 0.27224 0.84502 0.98235 0.0
Cd193 Cd 0.26921 0.87878 0.02341 0.0
Cd194 Cd 0.21787 0.89766 0.98884 0.0
O195 O 0.22024 0.85131 0.95996 0.0
O196 O 0.29933 0.8628 0.05691 0.0
O197 O 0.24121 0.8608 0.05775 0.0
C198 C 0.27105 0.8553 0.07093 0.0
C199 C 0.16633 0.91391 0.00742 0.0
C200 C 0.24773 0.83613 0.95992 0.0
C201 C 0.28168 0.95117 0.00451 0.0
O202 O 0.25504 0.94058 0.98453 0.0
O203 O 0.28989 0.93166 0.02496 0.0
O204 O 0.17175 0.91312 0.97796 0.0
O205 O 0.1893 0.90291 0.02607 0.0
O206 O 0.17365 0.55948 0.30142 0.0
Cd207 Cd 0.14986 0.51211 0.31399 0.0
Cd208 Cd 0.09086 0.52988 0.26904 0.0
O209 O 0.13413 0.56548 0.26292 0.0
O210 O 0.18773 0.49851 0.34244 0.0
O211 O 0.16679 0.46654 0.29671 0.0
C212 C 0.18844 0.4711 0.32195 0.0
C213 C 0.0505 0.52193 0.22433 0.0
C214 C 0.16388 0.57545 0.27876 0.0
C215 C 0.07903 0.52286 0.33784 0.0
O216 O 0.06893 0.53207 0.31156 0.0
O217 O 0.1088 0.51234 0.34229 0.0
O218 O 0.05586 0.55097 0.24367 0.0
O219 O 0.06695 0.49619 0.23099 0.0
O220 O 0.78548 0.73326 0.98689 0.0
Cd221 Cd 0.78189 0.69721 0.0193 0.0
Cd222 Cd 0.82592 0.66847 0.98297 0.0
O223 O 0.83185 0.71616 0.96501 0.0
O224 O 0.75246 0.71706 0.05135 0.0
O225 O 0.80768 0.70855 0.06284 0.0
C226 C 0.77871 0.71822 0.07223 0.0
C227 C 0.8707 0.64611 0.00949 0.0
C228 C 0.8094 0.73759 0.96798 0.0
C229 C 0.75688 0.62528 0.98208 0.0
O230 O 0.78293 0.63058 0.96561 0.0
O231 O 0.75379 0.64748 0.00587 0.0
O232 O 0.86887 0.64536 0.97916 0.0
O233 O 0.84829 0.66199 0.02501 0.0
O234 O 0.97173 0.02454 0.29687 0.0
Cd235 Cd 0.93979 0.01978 0.25508 0.0
Cd236 Cd 0.89382 0.04546 0.29795 0.0
O237 O 0.93633 0.04661 0.33019 0.0
O238 O 0.97013 -0.00036 0.2239 0.0
O239 O 0.95108 0.05108 0.22112 0.0
C240 C 0.9682 0.02667 0.20915 0.0
C241 C 0.86381 0.09457 0.299 0.0
C242 C 0.96545 0.03565 0.32484 0.0
C243 C 0.87058 0.97346 0.26233 0.0
O244 O 0.86437 -0.00374 0.28452 0.0
O245 O 0.89764 0.97914 0.24718 0.0
O246 O 0.86094 0.07346 0.32023 0.0
O247 O 0.88439 0.08808 0.27702 0.0
O248 O 0.29803 0.24674 0.48273 0.0
Cd249 Cd 0.28367 0.21114 0.51401 0.0
Cd250 Cd 0.32016 0.16974 0.47766 0.0
O251 O 0.33065 0.21376 0.45477 0.0
O252 O 0.25882 0.2376 0.54611 0.0
O253 O 0.30799 0.2158 0.55789 0.0
C254 C 0.28226 0.2318 0.56721 0.0
C255 C 0.36284 0.14441 0.50425 0.0
C256 C 0.31768 0.24248 0.46022 0.0
C257 C 0.24582 0.14032 0.47946 0.0
O258 O 0.27306 0.13642 0.46495 0.0
O259 O 0.24585 0.16741 0.49975 0.0
O260 O 0.35867 0.14028 0.47374 0.0
O261 O 0.34406 0.16497 0.51972 0.0
O262 O 0.48584 0.52567 0.79357 0.0
Cd263 Cd 0.45085 0.5168 0.75393 0.0
Cd264 Cd 0.40613 0.54363 0.79706 0.0
O265 O 0.44965 0.54294 0.82836 0.0
O266 O 0.47992 0.49759 0.72117 0.0
O267 O 0.45644 0.5467 0.71822 0.0
C268 C 0.47472 0.52353 0.70589 0.0
C269 C 0.37703 0.59352 0.80006 0.0
C270 C 0.47969 0.53478 0.82194 0.0
C271 C 0.38323 0.46988 0.76431 0.0
O272 O 0.37483 0.49537 0.7827 0.0
O273 O 0.41195 0.47358 0.75116 0.0
O274 O 0.37452 0.57196 0.82093 0.0
O275 O 0.39698 0.58723 0.77753 0.0
O276 O 0.78554 0.34231 0.49037 0.0
Cd277 Cd 0.79106 0.37427 0.53305 0.0
Cd278 Cd 0.7419 0.40669 0.50522 0.0
O279 O 0.74048 0.36456 0.46975 0.0
O280 O 0.81047 0.34582 0.56389 0.0
O281 O 0.75878 0.36568 0.56702 0.0
C282 C 0.78218 0.34811 0.57823 0.0
C283 C 0.68938 0.42659 0.5183 0.0
C284 C 0.76227 0.34236 0.46772 0.0
C285 C 0.81503 0.44856 0.52376 0.0
O286 O 0.78429 0.4472 0.50985 0.0
O287 O 0.82357 0.42202 0.53596 0.0
O288 O 0.70148 0.43026 0.49142 0.0
O289 O 0.70639 0.4101 0.53756 0.0
O290 O 0.65906 0.0519 0.80523 0.0
Cd291 Cd 0.63192 0.00563 0.81702 0.0
Cd292 Cd 0.57893 0.02465 0.76715 0.0
O293 O 0.62632 0.0542 0.76108 0.0
O294 O 0.66727 0.99002 0.84672 0.0
O295 O 0.64758 0.95934 0.80012 0.0
C296 C 0.66825 0.96293 0.82591 0.0
C297 C 0.53968 0.0188 0.72171 0.0
C298 C 0.65408 0.06489 0.77968 0.0
C299 C 0.5609 0.0216 0.83542 0.0
O300 O 0.55506 0.03166 0.80861 0.0
O301 O 0.5883 0.00775 0.84216 0.0
O302 O 0.5485 0.04865 0.73967 0.0
O303 O 0.55245 0.99145 0.72986 0.0
O304 O 0.98083 0.28331 0.92919 0.0
Cd305 Cd 0.98435 0.23975 0.89662 0.0
Cd306 Cd 0.01219 0.29226 0.86419 0.0
O307 O 0.00946 0.32487 0.90527 0.0
O308 O 0.97077 0.1999 0.92103 0.0
O309 O 0.02388 0.21117 0.90403 0.0
C310 C 0.00245 0.19239 0.91968 0.0
C311 C 0.0647 0.29778 0.83998 0.0
C312 C -0.00617 0.31563 0.92876 0.0
C313 C 0.94471 0.24845 0.83557 0.0
O314 O 0.96614 0.27686 0.83529 0.0
O315 O 0.94888 0.22849 0.85675 0.0
O316 O 0.04392 0.32152 0.83977 0.0
O317 O 0.05573 0.27053 0.85433 0.0
O318 O 0.47254 0.78019 0.43055 0.0
Cd319 Cd 0.48117 0.73894 0.39744 0.0
Cd320 Cd 0.5118 0.79294 0.37038 0.0
O321 O 0.50629 0.82301 0.4121 0.0
O322 O 0.46974 0.69642 0.4191 0.0
O323 O 0.52347 0.71447 0.40567 0.0
C324 C 0.50267 0.69252 0.41918 0.0
C325 C 0.56499 0.80029 0.34752 0.0
C326 C 0.48682 0.81254 0.43291 0.0
C327 C 0.44697 0.75033 0.33551 0.0
O328 O 0.46779 0.77965 0.33883 0.0
O329 O 0.44966 0.72831 0.35514 0.0
O330 O 0.54455 0.82437 0.34869 0.0
O331 O 0.55573 0.77205 0.36048 0.0
O332 O -0.00034 0.80413 0.70554 0.0
Cd333 Cd 0.03275 0.78835 0.67168 0.0
Cd334 Cd 0.99104 0.82833 0.63754 0.0
O335 O 0.96927 0.83809 0.67944 0.0
O336 O 0.06031 0.75608 0.69287 0.0
O337 O 0.0857 0.80577 0.67752 0.0
C338 C 0.08883 0.77707 0.68978 0.0
C339 C 0.0185 0.87327 0.61215 0.0
C340 C 0.97604 0.82442 0.70434 0.0
C341 C 0.98795 0.75398 0.6104 0.0
O342 O 0.97272 0.78119 0.60937 0.0
O343 O 0.01252 0.75352 0.63184 0.0
O344 O 0.98438 0.86658 0.61142 0.0
O345 O 0.03719 0.85528 0.62872 0.0
O346 O 0.50678 0.30207 0.19724 0.0
Cd347 Cd 0.53331 0.27921 0.16129 0.0
Cd348 Cd 0.49577 0.32086 0.12912 0.0
O349 O 0.47944 0.33869 0.17191 0.0
O350 O 0.56296 0.25093 0.18498 0.0
O351 O 0.58596 0.29425 0.15952 0.0
C352 C 0.59062 0.26976 0.17695 0.0
C353 C 0.5269 0.35831 0.09892 0.0
C354 C 0.48676 0.32593 0.19716 0.0
C355 C 0.48061 0.24406 0.10635 0.0
O356 O 0.46987 0.27375 0.105 0.0
O357 O 0.50628 0.24143 0.12603 0.0
O358 O 0.49313 0.35714 0.10023 0.0
O359 O 0.54336 0.33912 0.11612 0.0
C360 C 0.29282 0.78314 0.89844 0.0
C361 C 0.26562 0.77404 0.87369 0.0
H362 H 0.30842 0.80965 0.94541 0.0
C363 C 0.2316 0.78211 0.87894 0.0
H364 H 0.3193 0.77726 0.8951 0.0
C365 C 0.22537 0.80069 0.9076 0.0
C366 C 0.25298 0.8115 0.93179 0.0
H367 H 0.20985 0.77461 0.8606 0.0
H368 H 0.19912 0.80752 0.91042 0.0
C369 C 0.28655 0.80167 0.92725 0.0
C370 C 0.01448 0.55774 0.39184 0.0
C371 C 0.0183 0.53811 0.41715 0.0
H372 H 0.03032 0.56767 0.34647 0.0
C373 C 0.04067 0.51204 0.41556 0.0
H374 H -0.00298 0.57774 0.39242 0.0
C375 C 0.06018 0.50665 0.38951 0.0
C376 C 0.05681 0.52666 0.36435 0.0
H377 H 0.04379 0.49654 0.43484 0.0
H378 H 0.078 0.48699 0.38911 0.0
C379 C 0.03332 0.55179 0.3655 0.0
C380 C 0.83948 0.80438 0.9137 0.0
C381 C 0.80688 0.81208 0.90085 0.0
H382 H 0.86581 0.77446 0.94475 0.0
C383 C 0.77545 0.79716 0.91254 0.0
H384 H 0.86438 0.8161 0.90616 0.0
C385 C 0.77655 0.77445 0.93565 0.0
C386 C 0.80896 0.76535 0.947 0.0
H387 H 0.74975 0.80177 0.90305 0.0
H388 H 0.75182 0.76257 0.94344 0.0
C389 C 0.84044 0.78082 0.93612 0.0
C390 C 0.00347 0.03021 0.40781 0.0
C391 C 0.0374 0.02208 0.40258 0.0
H392 H 0.95439 0.04167 0.38743 0.0
C393 C 0.04805 0.01962 0.37176 0.0
H394 H -0.00513 0.03282 0.43144 0.0
C395 C 0.02495 0.02471 0.34652 0.0
C396 C 0.99091 0.03279 0.3517 0.0
H397 H 0.07414 0.0134 0.36717 0.0
H398 H 0.03369 0.02214 0.32295 0.0
C399 C 0.98052 0.03572 0.38265 0.0
C400 C 0.30404 0.25532 0.65562 0.0
C401 C 0.27199 0.26532 0.66506 0.0
H402 H 0.33247 0.23664 0.6171 0.0
C403 C 0.243 0.2625 0.64242 0.0
H404 H 0.3268 0.25744 0.67272 0.0
C405 C 0.24642 0.25133 0.61068 0.0
C406 C 0.27878 0.24238 0.60102 0.0
H407 H 0.21819 0.27055 0.64903 0.0
H408 H 0.22379 0.25019 0.59365 0.0
C409 C 0.30733 0.24364 0.62386 0.0
C410 C 0.51129 0.55991 0.6345 0.0
C411 C 0.51941 0.52884 0.61702 0.0
H412 H 0.49038 0.58261 0.6763 0.0
C413 C 0.51121 0.49615 0.62862 0.0
H414 H 0.51757 0.58564 0.62653 0.0
C415 C 0.49659 0.49468 0.6574 0.0
C416 C 0.48902 0.52571 0.675 0.0
H417 H 0.51605 0.47152 0.61549 0.0
H418 H 0.49102 0.46907 0.66579 0.0
C419 C 0.49591 0.55828 0.6631 0.0
C420 C 0.78417 0.28091 0.63533 0.0
C421 C 0.77018 0.29787 0.66149 0.0
H422 H 0.79959 0.28419 0.58855 0.0
C423 C 0.75926 0.33116 0.65996 0.0
H424 H 0.79305 0.25534 0.63612 0.0
C425 C 0.76199 0.34716 0.63238 0.0
C426 C 0.77692 0.3306 0.60655 0.0
H427 H 0.74846 0.34464 0.67999 0.0
H428 H 0.75344 0.37288 0.63156 0.0
C429 C 0.78804 0.29743 0.60825 0.0
C430 C 0.49723 0.04636 0.64822 0.0
C431 C 0.47803 0.01398 0.63295 0.0
H432 H 0.53135 0.07314 0.68828 0.0
C433 C 0.47785 0.98333 0.64821 0.0
H434 H 0.49875 0.07039 0.63713 0.0
C435 C 0.49769 0.98473 0.67719 0.0
C436 C 0.51728 0.01699 0.69192 0.0
H437 H 0.46272 0.95807 0.63762 0.0
H438 H 0.49771 0.96061 0.68805 0.0
C439 C 0.51628 0.04789 0.67749 0.0
C440 C 0.86605 0.19604 0.78402 0.0
C441 C 0.84923 0.22334 0.77325 0.0
H442 H 0.90927 0.18266 0.81249 0.0
C443 C 0.86592 0.25884 0.78108 0.0
H444 H 0.85465 0.16831 0.77763 0.0
C445 C 0.8979 0.26687 0.80024 0.0
C446 C 0.91341 0.23965 0.81241 0.0
H447 H 0.85366 0.28058 0.7735 0.0
H448 H 0.90961 0.29452 0.80669 0.0
C449 C 0.89752 0.20416 0.80377 0.0
C450 C 0.45554 0.85236 0.50952 0.0
C451 C 0.46148 0.88878 0.50668 0.0
H452 H 0.45866 0.79935 0.48813 0.0
C453 C 0.47696 0.90002 0.48016 0.0
H454 H 0.44376 0.84318 0.52989 0.0
C455 C 0.48596 0.87521 0.45664 0.0
C456 C 0.47923 0.83862 0.45895 0.0
H457 H 0.48221 0.92801 0.47752 0.0
H458 H 0.49754 0.88472 0.43632 0.0
C459 C 0.46404 0.82739 0.48567 0.0
C460 C 0.14614 0.27762 0.79962 0.0
C461 C 0.15866 0.31106 0.79098 0.0
H462 H 0.10647 0.24718 0.82249 0.0
C463 C 0.14074 0.33989 0.79921 0.0
H464 H 0.15969 0.25501 0.79369 0.0
C465 C 0.1104 0.33541 0.81529 0.0
C466 C 0.09757 0.30206 0.82389 0.0
H467 H 0.15002 0.36595 0.79291 0.0
H468 H 0.09702 0.35821 0.82102 0.0
C469 C 0.11586 0.27321 0.81619 0.0
C470 C 0.5064 0.62088 0.47206 0.0
C471 C 0.54242 0.61707 0.47346 0.0
H472 H 0.4656 0.6473 0.45348 0.0
C473 C 0.56504 0.63658 0.45526 0.0
H474 H 0.4882 0.6059 0.48555 0.0
C475 C 0.55208 0.66056 0.43684 0.0
C476 C 0.5162 0.66509 0.43614 0.0
H477 H 0.59291 0.63392 0.45588 0.0
H478 H 0.57026 0.67598 0.42366 0.0
C479 C 0.49341 0.64454 0.45353 0.0
C480 C 0.90277 0.85074 0.75321 0.0
C481 C 0.91152 0.83839 0.78188 0.0
H482 H 0.91653 0.8564 0.70638 0.0
C483 C 0.9424 0.82278 0.78542 0.0
H484 H 0.87921 0.86307 0.74982 0.0
C485 C 0.96376 0.81875 0.76045 0.0
C486 C 0.95479 0.83061 0.73153 0.0
H487 H 0.94971 0.81314 0.80737 0.0
H488 H 0.98711 0.80605 0.76372 0.0
C489 C 0.92428 0.84703 0.72834 0.0
C490 C 0.08784 0.92691 0.57109 0.0
C491 C 0.06652 0.94235 0.55025 0.0
H492 H 0.08943 0.89295 0.60724 0.0
C493 C 0.0296 0.93695 0.55149 0.0
H494 H 0.11642 0.93088 0.57068 0.0
C495 C 0.01418 0.91555 0.57248 0.0
C496 C 0.03535 0.89899 0.59259 0.0
H497 H 0.01246 0.94879 0.53593 0.0
H498 H 0.98556 0.91129 0.57233 0.0
C499 C 0.0724 0.90531 0.59204 0.0
C500 C 0.18608 0.78399 0.71843 0.0
C501 C 0.18902 0.74807 0.72036 0.0
H502 H 0.15196 0.82144 0.70672 0.0
C503 C 0.15947 0.72192 0.71066 0.0
H504 H 0.20857 0.80468 0.72572 0.0
C505 C 0.12707 0.73154 0.70057 0.0
C506 C 0.12377 0.76747 0.6993 0.0
H507 H 0.16106 0.69409 0.712 0.0
H508 H 0.10449 0.71078 0.69393 0.0
C509 C 0.15376 0.79358 0.70761 0.0
C510 C -0.0055 0.67007 0.5567 0.0
C511 C 0.96002 0.66122 0.54169 0.0
H512 H 0.03012 0.70624 0.59046 0.0
C513 C 0.93464 0.68348 0.54873 0.0
H514 H 0.01436 0.65302 0.55183 0.0
C515 C 0.94379 0.71436 0.57058 0.0
C516 C 0.97813 0.72267 0.58618 0.0
H517 H 0.90786 0.67695 0.53739 0.0
H518 H 0.92386 0.73119 0.57586 0.0
C519 C 0.00339 0.70033 0.57893 0.0
C520 C 0.81448 0.88767 0.27349 0.0
C521 C 0.80745 0.87041 0.24221 0.0
H522 H 0.83921 0.93442 0.30421 0.0
C523 C 0.82086 0.88804 0.21761 0.0
H524 H 0.80522 0.87478 0.29313 0.0
C525 C 0.84124 0.92169 0.22417 0.0
C526 C 0.84767 0.93889 0.2553 0.0
H527 H 0.81522 0.87623 0.19314 0.0
H528 H 0.8516 0.9345 0.20484 0.0
C529 C 0.83395 0.92181 0.27991 0.0
C530 C 0.83005 0.17945 0.28111 0.0
C531 C 0.80703 0.18432 0.30494 0.0
H532 H 0.86638 0.14727 0.26056 0.0
C533 C 0.80191 0.15874 0.32572 0.0
H534 H 0.8346 0.1988 0.26483 0.0
C535 C 0.82016 0.12962 0.32346 0.0
C536 C 0.84391 0.12513 0.30024 0.0
H537 H 0.7838 0.1613 0.34391 0.0
H538 H 0.81573 0.1107 0.34014 0.0
C539 C 0.84837 0.15009 0.27879 0.0
C540 C 0.32854 0.03035 0.97179 0.0
C541 C 0.35429 0.04481 -0.00323 0.0
H542 H 0.28482 0.98952 0.95486 0.0
C543 C 0.35392 0.03037 0.02533 0.0
H544 H 0.32839 0.0412 0.94958 0.0
C545 C 0.32942 0.00058 0.02825 0.0
C546 C 0.30462 0.98506 0.00278 0.0
H547 H 0.37376 0.04093 0.04481 0.0
H548 H 0.33057 0.98909 0.05014 0.0
C549 C 0.30367 0.00088 0.97486 0.0
C550 C 0.25079 0.40357 0.30645 0.0
C551 C 0.26807 0.40462 0.33674 0.0
H552 H 0.21144 0.42336 0.27805 0.0
C553 C 0.25756 0.42608 0.3623 0.0
H554 H 0.25828 0.38699 0.2864 0.0
C555 C 0.23115 0.44711 0.3575 0.0
C556 C 0.21432 0.44666 0.32711 0.0
H557 H 0.27058 0.42747 0.38584 0.0
H558 H 0.22421 0.46408 0.37756 0.0
C559 C 0.22391 0.42419 0.30171 0.0
C560 C 0.16027 0.08501 0.49341 0.0
C561 C 0.15323 0.061 0.46545 0.0
H562 H 0.19487 0.12917 0.51947 0.0
C563 C 0.17721 0.06255 0.44211 0.0
H564 H 0.14189 0.0846 0.51153 0.0
C565 C 0.20781 0.088 0.44668 0.0
C566 C 0.21431 0.11265 0.47436 0.0
H567 H 0.17212 0.04425 0.42031 0.0
H568 H 0.22591 0.08887 0.42836 0.0
C569 C 0.19038 0.11073 0.49773 0.0
C570 C 0.72705 0.14369 0.78686 0.0
C571 C 0.72913 0.1491 0.75505 0.0
H572 H 0.70205 0.11244 0.81956 0.0
C573 C 0.70658 0.12614 0.73152 0.0
H574 H 0.74346 0.16129 0.8057 0.0
C575 C 0.68229 0.09875 0.73961 0.0
C576 C 0.68047 0.0933 0.77134 0.0
H577 H 0.70789 0.12903 0.70677 0.0
H578 H 0.66517 0.08157 0.72094 0.0
C579 C 0.70323 0.11582 0.79488 0.0
C580 C 0.42639 0.07967 0.51704 0.0
C581 C 0.41896 0.07067 0.547 0.0
H582 H 0.41474 0.11034 0.48019 0.0
C583 C 0.39656 0.08993 0.5646 0.0
H584 H 0.44433 0.06608 0.50323 0.0
C585 C 0.38006 0.1159 0.55155 0.0
C586 C 0.38551 0.12284 0.52062 0.0
H587 H 0.3903 0.08364 0.58773 0.0
H588 H 0.36146 0.12898 0.56495 0.0
C589 C 0.40968 0.10527 0.50392 0.0
C590 C 0.6079 0.47131 0.5119 0.0
C591 C 0.60572 0.48535 0.54353 0.0
H592 H 0.63605 0.44163 0.47919 0.0
C593 C 0.62949 0.47684 0.56713 0.0
H594 H 0.58946 0.47634 0.49316 0.0
C595 C 0.65549 0.45586 0.55913 0.0
C596 C 0.65866 0.44357 0.52735 0.0
H597 H 0.62897 0.48745 0.5917 0.0
H598 H 0.67421 0.4508 0.57765 0.0
C599 C 0.63432 0.45102 0.50388 0.0
C600 C 0.73577 0.2942 0.38517 0.0
C601 C 0.76719 0.28121 0.37751 0.0
H602 H 0.70951 0.32364 0.41967 0.0
C603 C 0.79589 0.28604 0.40083 0.0
H604 H 0.71276 0.29008 0.36811 0.0
C605 C 0.79363 0.30449 0.43069 0.0
C606 C 0.76282 0.31893 0.43773 0.0
H607 H 0.82058 0.27668 0.39573 0.0
H608 H 0.81662 0.30873 0.44781 0.0
C609 C 0.73372 0.31312 0.41483 0.0
C610 C 0.50877 0.01101 0.90629 0.0
C611 C 0.48899 0.03918 0.90593 0.0
H612 H 0.54777 0.98369 0.8844 0.0
C613 C 0.49231 0.06098 0.88195 0.0
H614 H 0.5065 -0.00611 0.92463 0.0
C615 C 0.51523 0.05475 0.85866 0.0
C616 C 0.53577 0.02711 0.8594 0.0
H617 H 0.47709 0.08273 0.88109 0.0
H618 H 0.51742 0.07203 0.84045 0.0
C619 C 0.53238 0.00529 0.88343 0.0
C620 C 0.3142 0.32762 0.42389 0.0
C621 C 0.32741 0.3192 0.39449 0.0
H622 H 0.30096 0.31019 0.46782 0.0
C623 C 0.33933 0.28616 0.38787 0.0
H624 H 0.30536 0.35305 0.43003 0.0
C625 C 0.33741 0.2619 0.40974 0.0
C626 C 0.32312 0.26984 0.43866 0.0
H627 H 0.34911 0.27842 0.36532 0.0
H628 H 0.34605 0.23639 0.40345 0.0
C629 C 0.31194 0.30316 0.44567 0.0
C630 C 0.56442 0.51763 0.8643 0.0
C631 C 0.55405 0.51437 0.89473 0.0
H632 H 0.54912 0.52711 0.81745 0.0
C633 C 0.52003 0.52084 0.90177 0.0
H634 H 0.59055 0.51285 0.85832 0.0
C635 C 0.49642 0.52944 0.87852 0.0
C636 C 0.50629 0.53133 0.8477 0.0
H637 H 0.51166 0.51913 0.92525 0.0
H638 H 0.47004 0.53333 0.88443 0.0
C639 C 0.54072 0.52587 0.84097 0.0
C640 C 0.73875 0.75024 0.14664 0.0
C641 C 0.7686 0.75825 0.16878 0.0
H642 H 0.71867 0.73163 0.09879 0.0
C643 C 0.80154 0.75053 0.1595 0.0
H644 H 0.71314 0.75638 0.15294 0.0
C645 C 0.80482 0.73655 0.12828 0.0
C646 C 0.77526 0.73033 0.1058 0.0
H647 H 0.82495 0.75634 0.17617 0.0
H648 H 0.83067 0.7317 0.12156 0.0
C649 C 0.74206 0.73651 0.11548 0.0
C650 C 0.00345 -0.00315 0.13188 0.0
C651 C 0.0135 0.02922 0.12023 0.0
H652 H 0.98181 0.97092 0.16909 0.0
C653 C 0.00805 0.06113 0.1382 0.0
H654 H 0.00617 0.97164 0.11846 0.0
C655 C -0.00703 0.06055 0.16703 0.0
C656 C 0.98378 0.02816 0.17873 0.0
H657 H 0.01587 0.08663 0.13027 0.0
H658 H 0.98911 0.08543 0.1804 0.0
C659 C 0.9892 -0.00361 0.16089 0.0
C660 C 0.30798 0.83585 0.14988 0.0
C661 C 0.28013 0.81192 0.15826 0.0
H662 H 0.32701 0.86787 0.11531 0.0
C663 C 0.24848 0.80313 0.13829 0.0
H664 H 0.33259 0.843 0.16496 0.0
C665 C 0.24493 0.81805 0.11016 0.0
C666 C 0.27334 0.84112 0.10134 0.0
H667 H 0.22654 0.78485 0.14439 0.0
H668 H 0.22043 0.81082 0.09495 0.0
C669 C 0.30481 0.84995 0.12148 0.0
C670 C 0.00799 0.55001 0.15132 0.0
C671 C 0.99208 0.51724 0.13416 0.0
H672 H 0.0383 0.57698 0.19337 0.0
C673 C -0.00622 0.48589 0.14806 0.0
H674 H 0.0081 0.57467 0.14137 0.0
C675 C 0.01241 0.48718 0.17762 0.0
C676 C 0.02869 0.51993 0.19424 0.0
H677 H 0.98114 0.46021 0.136 0.0
H678 H 0.01414 0.46262 0.1874 0.0
C679 C 0.02565 0.55134 0.18115 0.0
C680 C 0.37166 0.70156 0.27779 0.0
C681 C 0.35611 0.73003 0.26783 0.0
H682 H 0.41245 0.6857 0.30746 0.0
C683 C 0.37328 0.76504 0.27758 0.0
H684 H 0.35976 0.67421 0.26999 0.0
C685 C 0.40403 0.77149 0.29832 0.0
C686 C 0.41779 0.74311 0.31016 0.0
H687 H 0.36197 0.78763 0.27066 0.0
H688 H 0.41582 0.79882 0.30646 0.0
C689 C 0.40192 0.70806 0.29911 0.0
C690 C 0.97272 0.3588 0.00819 0.0
C691 C 0.97838 0.39495 0.00436 0.0
H692 H 0.97297 0.30513 0.98712 0.0
C693 C 0.99029 0.40498 0.97603 0.0
H694 H 0.96365 0.35053 0.02992 0.0
C695 C -0.00399 0.3792 0.95174 0.0
C696 C 0.98956 0.34288 0.95518 0.0
H697 H -0.00483 0.43274 0.97254 0.0
H698 H 0.00487 0.38774 0.93004 0.0
C699 C 0.97802 0.33291 0.98372 0.0
C700 C 0.64304 0.77954 0.30256 0.0
C701 C 0.65369 0.8124 0.29203 0.0
H702 H 0.60654 0.74994 0.32896 0.0
C703 C 0.63645 0.84142 0.30137 0.0
H704 H 0.65614 0.7568 0.29584 0.0
C705 C 0.60832 0.83756 0.32017 0.0
C706 C 0.59694 0.8046 0.33019 0.0
H707 H 0.64442 0.86709 0.29373 0.0
H708 H 0.59517 0.86039 0.32646 0.0
C709 C 0.61485 0.77569 0.32164 0.0
C710 C 0.00219 0.12317 0.97543 0.0
C711 C 0.03691 0.11529 0.9751 0.0
H712 H 0.96404 0.15333 0.95788 0.0
C713 C 0.05983 0.13145 0.95507 0.0
H714 H 0.98378 0.11088 0.99039 0.0
C715 C 0.04854 0.15601 0.93638 0.0
C716 C 0.01401 0.16451 0.93727 0.0
H717 H 0.0867 0.12561 0.95433 0.0
H718 H 0.06698 0.1687 0.92166 0.0
C719 C 0.99084 0.14743 0.95665 0.0
C720 C 0.46337 0.33456 0.28199 0.0
C721 C 0.43481 0.35378 0.28041 0.0
H722 H 0.50227 0.31059 0.25689 0.0
C723 C 0.42489 0.3658 0.25184 0.0
H724 H 0.47154 0.3251 0.30381 0.0
C725 C 0.44258 0.35777 0.22504 0.0
C726 C 0.47032 0.33731 0.22623 0.0
H727 H 0.4031 0.38091 0.24995 0.0
H728 H 0.43381 0.36677 0.20318 0.0
C729 C 0.48087 0.32623 0.25512 0.0
C730 C 0.54296 0.41493 0.03357 0.0
C731 C 0.57929 0.4149 0.03063 0.0
H732 H 0.49812 0.39748 0.05772 0.0
C733 C 0.59881 0.39765 0.05138 0.0
H734 H 0.52723 0.42828 0.01813 0.0
C735 C 0.58206 0.3799 0.07421 0.0
C736 C 0.54554 0.37934 0.07673 0.0
H737 H 0.62692 0.39748 0.04965 0.0
H738 H 0.5976 0.3662 0.0895 0.0
C739 C 0.52629 0.3974 0.05642 0.0
C740 C 0.66352 0.24504 0.22989 0.0
C741 C 0.69388 0.2563 0.21516 0.0
H742 H 0.60718 0.23999 0.229 0.0
C743 C 0.69032 0.27056 0.18664 0.0
H744 H 0.66573 0.23392 0.25192 0.0
C745 C 0.65665 0.27501 0.17383 0.0
C746 C 0.62628 0.26424 0.189 0.0
H747 H 0.71357 0.27962 0.17509 0.0
H748 H 0.65438 0.287 0.15228 0.0
C749 C 0.63005 0.24853 0.21676 0.0
C750 C 0.41792 0.18286 0.04397 0.0
C751 C 0.43821 0.15577 0.03624 0.0
H752 H 0.41571 0.23262 0.0723 0.0
C753 C 0.47155 0.15697 0.05258 0.0
H754 H 0.39205 0.18221 0.0316 0.0
C755 C 0.48474 0.18514 0.07613 0.0
C756 C 0.46505 0.21296 0.08332 0.0
H757 H 0.48742 0.13606 0.04708 0.0
H758 H 0.51079 0.1856 0.08807 0.0
C759 C 0.43144 0.21154 0.06714 0.0
C760 C 0.30253 0.39929 0.75894 0.0
C761 C 0.31606 0.36858 0.74672 0.0
H762 H 0.31318 0.45548 0.77412 0.0
C763 C 0.35212 0.37142 0.74141 0.0
H764 H 0.27473 0.39821 0.76276 0.0
C765 C 0.37385 0.40438 0.74715 0.0
C766 C 0.36012 0.43512 0.75877 0.0
H767 H 0.3635 0.34822 0.73251 0.0
H768 H 0.40145 0.40574 0.74251 0.0
C769 C 0.32443 0.4322 0.76514 0.0
C770 C 0.34072 0.67712 0.78222 0.0
C771 C 0.31726 0.6812 0.80583 0.0
H772 H 0.37826 0.64634 0.7619 0.0
C773 C 0.3136 0.65606 0.82715 0.0
H774 H 0.34437 0.69619 0.76558 0.0
C775 C 0.33319 0.62789 0.82526 0.0
C776 C 0.35683 0.6239 0.80186 0.0
H777 H 0.29528 0.65792 0.84522 0.0
H778 H 0.32958 0.60907 0.84212 0.0
C779 C 0.36031 0.64873 0.78024 0.0
C780 C 0.90313 0.50686 0.52425 0.0
C781 C 0.89247 0.53866 0.51677 0.0
H782 H 0.88683 0.45346 0.53291 0.0
C783 C 0.85635 0.54183 0.51423 0.0
H784 H 0.93099 0.50409 0.52641 0.0
C785 C 0.83102 0.51275 0.51745 0.0
C786 C 0.8416 0.4804 0.5238 0.0
H787 H 0.84773 0.56621 0.5084 0.0
H788 H 0.80318 0.51534 0.51429 0.0
C789 C 0.87791 0.47804 0.52803 0.0
C790 C 0.72796 0.8928 0.81038 0.0
C791 C 0.74713 0.89527 0.84006 0.0
H792 H 0.68749 0.91183 0.78271 0.0
C793 C 0.73881 0.91873 0.86535 0.0
H794 H 0.73358 0.87462 0.79056 0.0
C795 C 0.71256 0.94005 0.86086 0.0
C796 C 0.69382 0.93811 0.83105 0.0
H797 H 0.75328 0.92133 0.88842 0.0
H798 H 0.70733 0.95845 0.88069 0.0
C799 C 0.70141 0.91388 0.80596 0.0
C800 C 0.67899 0.55596 0.98932 0.0
C801 C 0.67084 0.53971 0.95797 0.0
H802 H 0.71272 0.59571 0.0214 0.0
C803 C 0.69328 0.54947 0.93485 0.0
H804 H 0.66194 0.54929 0.00754 0.0
C805 C 0.72258 0.57623 0.94282 0.0
C806 C 0.72936 0.59387 0.97387 0.0
H807 H 0.68752 0.53716 0.91051 0.0
H808 H 0.73884 0.58422 0.92447 0.0
C809 C 0.70787 0.58282 -0.00283 0.0
C810 C 0.23391 0.65653 0.28531 0.0
C811 C 0.23282 0.6642 0.25393 0.0
H812 H 0.2135 0.62196 0.31759 0.0
C813 C 0.20775 0.6432 0.23114 0.0
H814 H 0.25215 0.67277 0.30372 0.0
C815 C 0.18497 0.61465 0.23938 0.0
C816 C 0.18726 0.60619 0.27042 0.0
H817 H 0.20641 0.64808 0.20673 0.0
H818 H 0.16623 0.59858 0.22123 0.0
C819 C 0.21172 0.62751 0.29336 0.0
C820 C 0.93938 0.58612 0.02061 0.0
C821 C 0.93161 0.57429 0.0495 0.0
H822 H 0.92656 0.61858 0.98551 0.0
C823 C 0.90699 0.59015 0.06717 0.0
H824 H 0.95891 0.57512 0.00683 0.0
C825 C 0.88883 0.61559 0.05516 0.0
C826 C 0.89483 0.62541 0.02519 0.0
H827 H 0.90037 0.58158 0.08949 0.0
H828 H 0.86865 0.62595 0.06851 0.0
C829 C 0.92109 0.61127 0.00852 0.0
C830 C 0.08596 0.96058 0.00919 0.0
C831 C 0.08895 0.97656 0.04083 0.0
H832 H 0.10783 0.92774 0.97389 0.0
C833 C 0.11492 0.96778 0.06226 0.0
H834 H 0.06564 0.96598 0.99225 0.0
C835 C 0.13867 0.94517 0.05183 0.0
C836 C 0.13708 0.93124 0.01975 0.0
H837 H 0.11806 0.97972 0.08677 0.0
H838 H 0.15951 0.94035 0.06855 0.0
C839 C 0.10988 0.93835 -0.00127 0.0
loop_
_geom_bond_atom_site_label_1
_geom_bond_atom_site_label_2
_geom_bond_distance
_geom_bond_site_symmetry_2
_ccdc_geom_bond_type
H0 C5 0.930 . S
H1 C8 0.930 . S
H2 C10 0.930 . S
H3 C4 1.016 . S
C4 H3 1.016 . S
C4 N11 1.286 . S
C5 H0 0.930 . S
C5 C6 1.397 . S
C5 C7 1.361 . S
C6 C5 1.397 . S
C6 C10 1.390 . S
C7 C5 1.361 . S
C7 C8 1.393 . S
C7 N11 1.413 . S
C8 H1 0.930 . S
C8 C7 1.393 . S
C8 C9 1.399 . S
C9 C8 1.399 . S
C9 C10 1.381 . S
C10 H2 0.930 . S
C10 C6 1.390 . S
C10 C9 1.381 . S
N11 C4 1.286 . S
N11 C7 1.413 . S
H12 C17 0.930 . S
H13 C20 0.930 . S
H14 C22 0.930 . S
H15 C16 1.016 . S
C16 H15 1.016 . S
C16 N23 1.286 . S
C17 H12 0.930 . S
C17 C18 1.397 . S
C17 C19 1.361 . S
C18 C17 1.397 . S
C18 C22 1.390 . S
C19 C17 1.361 . S
C19 C20 1.393 . S
C19 N23 1.413 . S
C20 H13 0.930 . S
C20 C19 1.393 . S
C20 C21 1.399 . S
C21 C20 1.399 . S
C21 C22 1.381 . S
C22 H14 0.930 . S
C22 C18 1.390 . S
C22 C21 1.381 . S
N23 C16 1.286 . S
N23 C19 1.413 . S
H24 C29 0.930 . S
H25 C32 0.930 . S
H26 C34 0.930 . S
H27 C28 1.016 . S
C28 H27 1.016 . S
C28 N35 1.286 . S
C29 H24 0.930 . S
C29 C30 1.397 . S
C29 C31 1.361 . S
C30 C29 1.397 . S
C30 C34 1.390 . S
C31 C29 1.361 . S
C31 C32 1.393 . S
C31 N35 1.413 . S
C32 H25 0.930 . S
C32 C31 1.393 . S
C32 C33 1.399 . S
C33 C32 1.399 . S
C33 C34 1.381 . S
C34 H26 0.930 . S
C34 C30 1.390 . S
C34 C33 1.381 . S
N35 C28 1.286 . S
N35 C31 1.413 . S
H36 C41 0.930 . S
H37 C44 0.930 . S
H38 C46 0.930 . S
H39 C40 1.016 . S
C40 H39 1.016 . S
C40 N47 1.286 . S
C41 H36 0.930 . S
C41 C42 1.397 . S
C41 C43 1.361 . S
C42 C41 1.397 . S
C42 C46 1.390 . S
C43 C41 1.361 . S
C43 C44 1.393 . S
C43 N47 1.413 . S
C44 H37 0.930 . S
C44 C43 1.393 . S
C44 C45 1.399 . S
C45 C44 1.399 . S
C45 C46 1.381 . S
C46 H38 0.930 . S
C46 C42 1.390 . S
C46 C45 1.381 . S
N47 C40 1.286 . S
N47 C43 1.413 . S
H48 C53 0.930 . S
H49 C56 0.930 . S
H50 C58 0.930 . S
H51 C52 1.016 . S
C52 H51 1.016 . S
C52 N59 1.286 . S
C53 H48 0.930 . S
C53 C54 1.397 . S
C53 C55 1.361 . S
C54 C53 1.397 . S
C54 C58 1.390 1_565 S
C55 C53 1.361 . S
C55 C56 1.393 . S
C55 N59 1.413 . S
C56 H49 0.930 . S
C56 C55 1.393 . S
C56 C57 1.399 1_565 S
C57 C56 1.399 1_545 S
C57 C58 1.381 . S
C58 H50 0.930 . S
C58 C54 1.390 1_545 S
C58 C57 1.381 . S
N59 C52 1.286 . S
N59 C55 1.413 . S
H60 C65 0.930 . S
H61 C68 0.930 . S
H62 C70 0.930 . S
H63 C64 1.016 . S
C64 H63 1.016 . S
C64 N71 1.286 . S
C65 H60 0.930 . S
C65 C66 1.397 . S
C65 C67 1.361 . S
C66 C65 1.397 . S
C66 C70 1.390 . S
C67 C65 1.361 . S
C67 C68 1.393 . S
C67 N71 1.413 . S
C68 H61 0.930 . S
C68 C67 1.393 . S
C68 C69 1.399 . S
C69 C68 1.399 . S
C69 C70 1.381 . S
C70 H62 0.930 . S
C70 C66 1.390 . S
C70 C69 1.381 . S
N71 C64 1.286 . S
N71 C67 1.413 . S
H72 C77 0.930 . S
H73 C80 0.930 . S
H74 C82 0.930 . S
H75 C76 1.016 . S
C76 H75 1.016 . S
C76 N83 1.286 . S
C77 H72 0.930 . S
C77 C78 1.397 . S
C77 C79 1.361 . S
C78 C77 1.397 . S
C78 C82 1.390 . S
C79 C77 1.361 . S
C79 C80 1.393 . S
C79 N83 1.413 . S
C80 H73 0.930 . S
C80 C79 1.393 . S
C80 C81 1.399 . S
C81 C80 1.399 . S
C81 C82 1.381 . S
C82 H74 0.930 . S
C82 C78 1.390 . S
C82 C81 1.381 . S
N83 C76 1.286 . S
N83 C79 1.413 . S
H84 C89 0.930 . S
H85 C92 0.930 . S
H86 C94 0.930 . S
H87 C88 1.016 . S
C88 H87 1.016 . S
C88 N95 1.286 . S
C89 H84 0.930 . S
C89 C90 1.397 . S
C89 C91 1.361 . S
C90 C89 1.397 . S
C90 C94 1.390 . S
C91 C89 1.361 . S
C91 C92 1.393 . S
C91 N95 1.413 . S
C92 H85 0.930 . S
C92 C91 1.393 . S
C92 C93 1.399 . S
C93 C92 1.399 . S
C93 C94 1.381 . S
C94 H86 0.930 . S
C94 C90 1.390 . S
C94 C93 1.381 . S
N95 C88 1.286 . S
N95 C91 1.413 . S
H96 C101 0.930 . S
H97 C104 0.930 . S
H98 C106 0.930 . S
H99 C100 1.016 . S
C100 H99 1.016 . S
C100 N107 1.286 . S
C101 H96 0.930 . S
C101 C102 1.397 . S
C101 C103 1.361 . S
C102 C101 1.397 . S
C102 C106 1.390 . S
C103 C101 1.361 . S
C103 C104 1.393 . S
C103 N107 1.413 . S
C104 H97 0.930 . S
C104 C103 1.393 . S
C104 C105 1.399 . S
C105 C104 1.399 . S
C105 C106 1.381 . S
C106 H98 0.930 . S
C106 C102 1.390 . S
C106 C105 1.381 . S
N107 C100 1.286 . S
N107 C103 1.413 . S
H108 C113 0.930 . S
H109 C116 0.930 . S
H110 C118 0.930 . S
H111 C112 1.016 . S
C112 H111 1.016 . S
C112 N119 1.286 . S
C113 H108 0.930 . S
C113 C114 1.397 . S
C113 C115 1.361 . S
C114 C113 1.397 . S
C114 C118 1.390 . S
C115 C113 1.361 . S
C115 C116 1.393 . S
C115 N119 1.413 . S
C116 H109 0.930 . S
C116 C115 1.393 . S
C116 C117 1.399 . S
C117 C116 1.399 . S
C117 C118 1.381 . S
C118 H110 0.930 . S
C118 C114 1.390 . S
C118 C117 1.381 . S
N119 C112 1.286 . S
N119 C115 1.413 . S
H120 C125 0.930 . S
H121 C128 0.930 . S
H122 C130 0.930 . S
H123 C124 1.016 . S
C124 H123 1.016 . S
C124 N131 1.286 . S
C125 H120 0.930 . S
C125 C126 1.397 . S
C125 C127 1.361 . S
C126 C125 1.397 . S
C126 C130 1.390 . S
C127 C125 1.361 . S
C127 C128 1.393 . S
C127 N131 1.413 . S
C128 H121 0.930 . S
C128 C127 1.393 . S
C128 C129 1.399 . S
C129 C128 1.399 . S
C129 C130 1.381 . S
C130 H122 0.930 . S
C130 C126 1.390 . S
C130 C129 1.381 . S
N131 C124 1.286 . S
N131 C127 1.413 . S
H132 C137 0.930 . S
H133 C140 0.930 . S
H134 C142 0.930 . S
H135 C136 1.016 . S
C136 H135 1.016 . S
C136 N143 1.286 . S
C137 H132 0.930 . S
C137 C138 1.397 . S
C137 C139 1.361 . S
C138 C137 1.397 . S
C138 C142 1.390 . S
C139 C137 1.361 . S
C139 C140 1.393 . S
C139 N143 1.413 . S
C140 H133 0.930 . S
C140 C139 1.393 . S
C140 C141 1.399 . S
C141 C140 1.399 . S
C141 C142 1.381 . S
C142 H134 0.930 . S
C142 C138 1.390 . S
C142 C141 1.381 . S
N143 C136 1.286 . S
N143 C139 1.413 . S
H144 C149 0.930 . S
H145 C152 0.930 . S
H146 C154 0.930 . S
H147 C148 1.016 . S
C148 H147 1.016 . S
C148 N155 1.286 . S
C149 H144 0.930 . S
C149 C150 1.397 . S
C149 C151 1.361 . S
C150 C149 1.397 . S
C150 C154 1.390 . S
C151 C149 1.361 . S
C151 C152 1.393 . S
C151 N155 1.413 . S
C152 H145 0.930 . S
C152 C151 1.393 . S
C152 C153 1.399 . S
C153 C152 1.399 . S
C153 C154 1.381 . S
C154 H146 0.930 . S
C154 C150 1.390 . S
C154 C153 1.381 . S
N155 C148 1.286 . S
N155 C151 1.413 . S
H156 C161 0.930 . S
H157 C164 0.930 . S
H158 C166 0.930 . S
H159 C160 1.016 . S
C160 H159 1.016 . S
C160 N167 1.286 . S
C161 H156 0.930 . S
C161 C162 1.397 . S
C161 C163 1.361 . S
C162 C161 1.397 . S
C162 C166 1.390 . S
C163 C161 1.361 . S
C163 C164 1.393 . S
C163 N167 1.413 . S
C164 H157 0.930 . S
C164 C163 1.393 . S
C164 C165 1.399 . S
C165 C164 1.399 . S
C165 C166 1.381 . S
C166 H158 0.930 . S
C166 C162 1.390 . S
C166 C165 1.381 . S
N167 C160 1.286 . S
N167 C163 1.413 . S
H168 C173 0.930 . S
H169 C176 0.930 . S
H170 C178 0.930 . S
H171 C172 1.016 . S
C172 H171 1.016 . S
C172 N179 1.286 . S
C173 H168 0.930 . S
C173 C174 1.397 . S
C173 C175 1.361 . S
C174 C173 1.397 . S
C174 C178 1.390 . S
C175 C173 1.361 . S
C175 C176 1.393 . S
C175 N179 1.413 . S
C176 H169 0.930 . S
C176 C175 1.393 . S
C176 C177 1.399 . S
C177 C176 1.399 . S
C177 C178 1.381 . S
C178 H170 0.930 . S
C178 C174 1.390 . S
C178 C177 1.381 . S
N179 C172 1.286 . S
N179 C175 1.413 . S
H180 C185 0.930 . S
H181 C188 0.930 . S
H182 C190 0.930 1_554 S
H183 C184 1.016 . S
C184 H183 1.016 . S
C184 N191 1.286 . S
C185 H180 0.930 . S
C185 C186 1.397 . S
C185 C187 1.361 . S
C186 C185 1.397 . S
C186 C190 1.390 . S
C187 C185 1.361 . S
C187 C188 1.393 . S
C187 N191 1.413 . S
C188 H181 0.930 . S
C188 C187 1.393 . S
C188 C189 1.399 . S
C189 C188 1.399 . S
C189 C190 1.381 . S
C190 H182 0.930 1_556 S
C190 C186 1.390 . S
C190 C189 1.381 . S
N191 C184 1.286 . S
N191 C187 1.413 . S
O192 Cd193 2.223 . S
O192 C200 1.315 . S
Cd193 O192 2.223 . S
Cd193 O196 2.297 . S
Cd193 O197 2.439 . S
Cd193 O203 2.240 . S
Cd194 O195 2.240 . S
Cd194 O202 2.223 . S
Cd194 O204 2.297 1_565 S
Cd194 O205 2.439 . S
O195 Cd194 2.240 . S
O195 C200 1.279 . S
O196 Cd193 2.297 . S
O196 C198 1.247 . S
O197 Cd193 2.439 . S
O197 C198 1.208 . S
C198 O196 1.247 . S
C198 O197 1.208 . S
C199 O204 1.247 . S
C199 O205 1.208 1_545 S
C200 O192 1.315 . S
C200 O195 1.279 . S
C201 O202 1.315 . S
C201 O203 1.279 . S
O202 Cd194 2.223 . S
O202 C201 1.315 . S
O203 Cd193 2.240 . S
O203 C201 1.279 . S
O204 Cd194 2.297 1_545 S
O204 C199 1.247 . S
O205 Cd194 2.439 . S
O205 C199 1.208 1_565 S
O206 Cd207 2.223 . S
O206 C214 1.315 . S
Cd207 O206 2.223 . S
Cd207 O210 2.297 . S
Cd207 O211 2.439 . S
Cd207 O217 2.240 . S
Cd208 O209 2.240 . S
Cd208 O216 2.223 . S
Cd208 O218 2.297 . S
Cd208 O219 2.439 . S
O209 Cd208 2.240 . S
O209 C214 1.279 . S
O210 Cd207 2.297 . S
O210 C212 1.247 . S
O211 Cd207 2.439 . S
O211 C212 1.208 . S
C212 O210 1.247 . S
C212 O211 1.208 . S
C213 O218 1.247 . S
C213 O219 1.208 . S
C214 O206 1.315 . S
C214 O209 1.279 . S
C215 O216 1.315 . S
C215 O217 1.279 . S
O216 Cd208 2.223 . S
O216 C215 1.315 . S
O217 Cd207 2.240 . S
O217 C215 1.279 . S
O218 Cd208 2.297 . S
O218 C213 1.247 . S
O219 Cd208 2.439 . S
O219 C213 1.208 . S
O220 Cd221 2.223 1_556 S
O220 C228 1.315 . S
Cd221 O220 2.223 1_554 S
Cd221 O224 2.297 . S
Cd221 O225 2.439 . S
Cd221 O231 2.240 . S
Cd222 O223 2.240 . S
Cd222 O230 2.223 . S
Cd222 O232 2.297 1_556 S
Cd222 O233 2.439 1_556 S
O223 Cd222 2.240 . S
O223 C228 1.279 . S
O224 Cd221 2.297 . S
O224 C226 1.247 . S
O225 Cd221 2.439 . S
O225 C226 1.208 . S
C226 O224 1.247 . S
C226 O225 1.208 . S
C227 O232 1.247 . S
C227 O233 1.208 . S
C228 O220 1.315 . S
C228 O223 1.279 . S
C229 O230 1.315 . S
C229 O231 1.279 1_556 S
O230 Cd222 2.223 . S
O230 C229 1.315 . S
O231 Cd221 2.240 . S
O231 C229 1.279 1_554 S
O232 Cd222 2.297 1_554 S
O232 C227 1.247 . S
O233 Cd222 2.439 1_554 S
O233 C227 1.208 . S
O234 Cd235 2.223 . S
O234 C242 1.315 . S
Cd235 O234 2.223 . S
Cd235 O238 2.297 1_655 S
Cd235 O239 2.439 . S
Cd235 O245 2.240 . S
Cd236 O237 2.240 . S
Cd236 O244 2.223 . S
Cd236 O246 2.297 . S
Cd236 O247 2.439 . S
O237 Cd236 2.240 . S
O237 C242 1.279 . S
O238 Cd235 2.297 1_455 S
O238 C240 1.247 . S
O239 Cd235 2.439 . S
O239 C240 1.208 1_655 S
C240 O238 1.247 . S
C240 O239 1.208 1_455 S
C241 O246 1.247 . S
C241 O247 1.208 . S
C242 O234 1.315 . S
C242 O237 1.279 . S
C243 O244 1.315 . S
C243 O245 1.279 . S
O244 Cd236 2.223 . S
O244 C243 1.315 . S
O245 Cd235 2.240 . S
O245 C243 1.279 . S
O246 Cd236 2.297 . S
O246 C241 1.247 . S
O247 Cd236 2.439 . S
O247 C241 1.208 . S
O248 Cd249 2.223 . S
O248 C256 1.315 . S
Cd249 O248 2.223 . S
Cd249 O252 2.297 . S
Cd249 O253 2.439 . S
Cd249 O259 2.240 . S
Cd250 O251 2.240 . S
Cd250 O258 2.223 . S
Cd250 O260 2.297 . S
Cd250 O261 2.439 . S
O251 Cd250 2.240 . S
O251 C256 1.279 . S
O252 Cd249 2.297 . S
O252 C254 1.247 . S
O253 Cd249 2.439 . S
O253 C254 1.208 . S
C254 O252 1.247 . S
C254 O253 1.208 . S
C255 O260 1.247 . S
C255 O261 1.208 . S
C256 O248 1.315 . S
C256 O251 1.279 . S
C257 O258 1.315 . S
C257 O259 1.279 . S
O258 Cd250 2.223 . S
O258 C257 1.315 . S
O259 Cd249 2.240 . S
O259 C257 1.279 . S
O260 Cd250 2.297 . S
O260 C255 1.247 . S
O261 Cd250 2.439 . S
O261 C255 1.208 . S
O262 Cd263 2.223 . S
O262 C270 1.315 . S
Cd263 O262 2.223 . S
Cd263 O266 2.297 . S
Cd263 O267 2.439 . S
Cd263 O273 2.240 . S
Cd264 O265 2.240 . S
Cd264 O272 2.223 . S
Cd264 O274 2.297 . S
Cd264 O275 2.439 . S
O265 Cd264 2.240 . S
O265 C270 1.279 . S
O266 Cd263 2.297 . S
O266 C268 1.247 . S
O267 Cd263 2.439 . S
O267 C268 1.208 . S
C268 O266 1.247 . S
C268 O267 1.208 . S
C269 O274 1.247 . S
C269 O275 1.208 . S
C270 O262 1.315 . S
C270 O265 1.279 . S
C271 O272 1.315 . S
C271 O273 1.279 . S
O272 Cd264 2.223 . S
O272 C271 1.315 . S
O273 Cd263 2.240 . S
O273 C271 1.279 . S
O274 Cd264 2.297 . S
O274 C269 1.247 . S
O275 Cd264 2.439 . S
O275 C269 1.208 . S
O276 Cd277 2.223 . S
O276 C284 1.315 . S
Cd277 O276 2.223 . S
Cd277 O280 2.297 . S
Cd277 O281 2.439 . S
Cd277 O287 2.240 . S
Cd278 O279 2.240 . S
Cd278 O286 2.223 . S
Cd278 O288 2.297 . S
Cd278 O289 2.439 . S
O279 Cd278 2.240 . S
O279 C284 1.279 . S
O280 Cd277 2.297 . S
O280 C282 1.247 . S
O281 Cd277 2.439 . S
O281 C282 1.208 . S
C282 O280 1.247 . S
C282 O281 1.208 . S
C283 O288 1.247 . S
C283 O289 1.208 . S
C284 O276 1.315 . S
C284 O279 1.279 . S
C285 O286 1.315 . S
C285 O287 1.279 . S
O286 Cd278 2.223 . S
O286 C285 1.315 . S
O287 Cd277 2.240 . S
O287 C285 1.279 . S
O288 Cd278 2.297 . S
O288 C283 1.247 . S
O289 Cd278 2.439 . S
O289 C283 1.208 . S
O290 Cd291 2.223 1_545 S
O290 C298 1.315 . S
Cd291 O290 2.223 1_565 S
Cd291 O294 2.297 . S
Cd291 O295 2.439 . S
Cd291 O301 2.240 1_565 S
Cd292 O293 2.240 . S
Cd292 O300 2.223 . S
Cd292 O302 2.297 . S
Cd292 O303 2.439 1_545 S
O293 Cd292 2.240 . S
O293 C298 1.279 . S
O294 Cd291 2.297 . S
O294 C296 1.247 . S
O295 Cd291 2.439 . S
O295 C296 1.208 . S
C296 O294 1.247 . S
C296 O295 1.208 . S
C297 O302 1.247 1_565 S
C297 O303 1.208 . S
C298 O290 1.315 . S
C298 O293 1.279 . S
C299 O300 1.315 . S
C299 O301 1.279 . S
O300 Cd292 2.223 . S
O300 C299 1.315 . S
O301 Cd291 2.240 1_545 S
O301 C299 1.279 . S
O302 Cd292 2.297 . S
O302 C297 1.247 1_545 S
O303 Cd292 2.439 1_565 S
O303 C297 1.208 . S
O304 Cd305 2.223 . S
O304 C312 1.315 . S
Cd305 O304 2.223 . S
Cd305 O308 2.297 1_655 S
Cd305 O309 2.439 1_655 S
Cd305 O315 2.240 . S
Cd306 O307 2.240 . S
Cd306 O314 2.223 1_455 S
Cd306 O316 2.297 . S
Cd306 O317 2.439 . S
O307 Cd306 2.240 . S
O307 C312 1.279 1_455 S
O308 Cd305 2.297 1_455 S
O308 C310 1.247 . S
O309 Cd305 2.439 1_455 S
O309 C310 1.208 . S
C310 O308 1.247 . S
C310 O309 1.208 . S
C311 O316 1.247 . S
C311 O317 1.208 . S
C312 O304 1.315 . S
C312 O307 1.279 1_655 S
C313 O314 1.315 . S
C313 O315 1.279 . S
O314 Cd306 2.223 1_655 S
O314 C313 1.315 . S
O315 Cd305 2.240 . S
O315 C313 1.279 . S
O316 Cd306 2.297 . S
O316 C311 1.247 . S
O317 Cd306 2.439 . S
O317 C311 1.208 . S
O318 Cd319 2.223 . S
O318 C326 1.315 . S
Cd319 O318 2.223 . S
Cd319 O322 2.297 . S
Cd319 O323 2.439 . S
Cd319 O329 2.240 . S
Cd320 O321 2.240 . S
Cd320 O328 2.223 . S
Cd320 O330 2.297 . S
Cd320 O331 2.439 . S
O321 Cd320 2.240 . S
O321 C326 1.279 . S
O322 Cd319 2.297 . S
O322 C324 1.247 . S
O323 Cd319 2.439 . S
O323 C324 1.208 . S
C324 O322 1.247 . S
C324 O323 1.208 . S
C325 O330 1.247 . S
C325 O331 1.208 . S
C326 O318 1.315 . S
C326 O321 1.279 . S
C327 O328 1.315 . S
C327 O329 1.279 . S
O328 Cd320 2.223 . S
O328 C327 1.315 . S
O329 Cd319 2.240 . S
O329 C327 1.279 . S
O330 Cd320 2.297 . S
O330 C325 1.247 . S
O331 Cd320 2.439 . S
O331 C325 1.208 . S
O332 Cd333 2.223 1_655 S
O332 C340 1.315 . S
Cd333 O332 2.223 1_455 S
Cd333 O336 2.297 . S
Cd333 O337 2.439 . S
Cd333 O343 2.240 . S
Cd334 O335 2.239 1_455 S
Cd334 O342 2.214 1_455 S
Cd334 O344 2.306 . S
Cd334 O345 2.462 . S
O335 Cd334 2.239 1_655 S
O335 C340 1.279 . S
O336 Cd333 2.297 . S
O336 C338 1.247 . S
O337 Cd333 2.439 . S
O337 C338 1.208 . S
C338 O336 1.247 . S
C338 O337 1.208 . S
C339 O344 1.247 . S
C339 O345 1.208 . S
C340 O332 1.315 . S
C340 O335 1.279 . S
C341 O342 1.315 . S
C341 O343 1.279 1_655 S
O342 Cd334 2.214 1_655 S
O342 C341 1.315 . S
O343 Cd333 2.240 . S
O343 C341 1.279 1_455 S
O344 Cd334 2.306 . S
O344 C339 1.247 . S
O345 Cd334 2.462 . S
O345 C339 1.208 . S
O346 Cd347 2.223 . S
O346 C354 1.315 . S
Cd347 O346 2.223 . S
Cd347 O350 2.297 . S
Cd347 O351 2.439 . S
Cd347 O357 2.240 . S
Cd348 O349 2.240 . S
Cd348 O356 2.223 . S
Cd348 O358 2.297 . S
Cd348 O359 2.439 . S
O349 Cd348 2.240 . S
O349 C354 1.279 . S
O350 Cd347 2.297 . S
O350 C352 1.247 . S
O351 Cd347 2.439 . S
O351 C352 1.208 . S
C352 O350 1.247 . S
C352 O351 1.208 . S
C353 O358 1.247 . S
C353 O359 1.208 . S
C354 O346 1.315 . S
C354 O349 1.279 . S
C355 O356 1.315 . S
C355 O357 1.279 . S
O356 Cd348 2.223 . S
O356 C355 1.315 . S
O357 Cd347 2.240 . S
O357 C355 1.279 . S
O358 Cd348 2.297 . S
O358 C353 1.247 . S
O359 Cd348 2.439 . S
O359 C353 1.208 . S
C360 C361 1.387 . S
C360 H364 0.950 . S
C360 C369 1.390 . S
C361 C360 1.387 . S
C361 C363 1.387 . S
H362 C369 0.950 . S
C363 C361 1.387 . S
C363 C365 1.390 . S
C363 H367 0.950 . S
H364 C360 0.950 . S
C365 C363 1.390 . S
C365 C366 1.387 . S
C365 H368 0.950 . S
C366 C365 1.387 . S
C366 C369 1.387 . S
H367 C363 0.950 . S
H368 C365 0.950 . S
C369 C360 1.390 . S
C369 H362 0.950 . S
C369 C366 1.387 . S
C370 C371 1.387 1_455 S
C370 H374 0.953 . S
C370 C379 1.390 . S
C371 C370 1.387 1_655 S
C371 C373 1.387 . S
H372 C379 0.950 . S
C373 C371 1.387 . S
C373 C375 1.390 1_655 S
C373 H377 0.950 . S
H374 C370 0.953 . S
C375 C373 1.390 1_455 S
C375 C376 1.387 . S
C375 H378 0.950 . S
C376 C375 1.387 . S
C376 C379 1.387 . S
H377 C373 0.950 . S
H378 C375 0.950 . S
C379 C370 1.390 . S
C379 H372 0.950 . S
C379 C376 1.387 . S
C380 C381 1.387 . S
C380 H384 0.950 . S
C380 C389 1.390 . S
C381 C380 1.387 . S
C381 C383 1.387 . S
H382 C389 0.950 . S
C383 C381 1.387 . S
C383 C385 1.390 . S
C383 H387 0.950 . S
H384 C380 0.950 . S
C385 C383 1.390 . S
C385 C386 1.387 . S
C385 H388 0.950 . S
C386 C385 1.387 . S
C386 C389 1.387 . S
H387 C383 0.950 . S
H388 C385 0.950 . S
C389 C380 1.390 . S
C389 H382 0.950 . S
C389 C386 1.387 . S
C390 C391 1.387 . S
C390 H394 0.950 . S
C390 C399 1.390 . S
C391 C390 1.387 . S
C391 C393 1.388 1_545 S
H392 C399 0.950 . S
C393 C391 1.388 1_565 S
C393 C395 1.390 . S
C393 H397 0.950 . S
H394 C390 0.950 . S
C395 C393 1.390 . S
C395 C396 1.387 1_565 S
C395 H398 0.950 1_455 S
C396 C395 1.387 1_545 S
C396 C399 1.387 . S
H397 C393 0.950 . S
H398 C395 0.950 1_655 S
C399 C390 1.390 . S
C399 H392 0.950 . S
C399 C396 1.387 . S
C400 C401 1.387 . S
C400 H404 0.950 . S
C400 C409 1.390 . S
C401 C400 1.387 . S
C401 C403 1.387 . S
H402 C409 0.950 . S
C403 C401 1.387 . S
C403 C405 1.390 . S
C403 H407 0.950 . S
H404 C400 0.950 . S
C405 C403 1.390 . S
C405 C406 1.387 . S
C405 H408 0.950 . S
C406 C405 1.387 . S
C406 C409 1.387 . S
H407 C403 0.950 . S
H408 C405 0.950 . S
C409 C400 1.390 . S
C409 H402 0.950 . S
C409 C406 1.387 . S
C410 C411 1.387 . S
C410 H414 0.950 . S
C410 C419 1.390 . S
C411 C410 1.387 . S
C411 C413 1.387 . S
H412 C419 0.950 . S
C413 C411 1.387 . S
C413 C415 1.390 . S
C413 H417 0.950 . S
H414 C410 0.950 . S
C415 C413 1.390 . S
C415 C416 1.387 . S
C415 H418 0.950 . S
C416 C415 1.387 . S
C416 C419 1.387 . S
H417 C413 0.950 . S
H418 C415 0.950 . S
C419 C410 1.390 . S
C419 H412 0.950 . S
C419 C416 1.387 . S
C420 C421 1.387 . S
C420 H424 0.950 . S
C420 C429 1.390 . S
C421 C420 1.387 . S
C421 C423 1.387 . S
H422 C429 0.950 . S
C423 C421 1.387 . S
C423 C425 1.390 . S
C423 H427 0.950 . S
H424 C420 0.950 . S
C425 C423 1.390 . S
C425 C426 1.387 . S
C425 H428 0.950 . S
C426 C425 1.387 . S
C426 C429 1.387 . S
H427 C423 0.950 . S
H428 C425 0.950 . S
C429 C420 1.390 . S
C429 H422 0.950 . S
C429 C426 1.387 . S
C430 C431 1.387 . S
C430 H434 0.950 1_565 S
C430 C439 1.390 . S
C431 C430 1.387 . S
C431 C433 1.387 . S
H432 C439 0.950 1_545 S
C433 C431 1.387 . S
C433 C435 1.390 . S
C433 H437 0.950 . S
H434 C430 0.950 1_545 S
C435 C433 1.390 . S
C435 C436 1.387 . S
C435 H438 0.950 . S
C436 C435 1.387 . S
C436 C439 1.387 . S
H437 C433 0.950 . S
H438 C435 0.950 . S
C439 C430 1.390 . S
C439 H432 0.950 1_565 S
C439 C436 1.387 . S
C440 C441 1.387 . S
C440 H444 0.950 . S
C440 C449 1.390 . S
C441 C440 1.387 . S
C441 C443 1.387 . S
H442 C449 0.950 . S
C443 C441 1.387 . S
C443 C445 1.390 . S
C443 H447 0.950 . S
H444 C440 0.950 . S
C445 C443 1.390 . S
C445 C446 1.387 . S
C445 H448 0.950 . S
C446 C445 1.387 . S
C446 C449 1.387 . S
H447 C443 0.950 . S
H448 C445 0.950 . S
C449 C440 1.390 . S
C449 H442 0.950 . S
C449 C446 1.387 . S
C450 C451 1.387 . S
C450 H454 0.950 . S
C450 C459 1.390 . S
C451 C450 1.387 . S
C451 C453 1.387 . S
H452 C459 0.950 . S
C453 C451 1.387 . S
C453 C455 1.390 . S
C453 H457 0.950 . S
H454 C450 0.950 . S
C455 C453 1.390 . S
C455 C456 1.387 . S
C455 H458 0.950 . S
C456 C455 1.387 . S
C456 C459 1.387 . S
H457 C453 0.950 . S
H458 C455 0.950 . S
C459 C450 1.390 . S
C459 H452 0.950 . S
C459 C456 1.387 . S
C460 C461 1.387 . S
C460 H464 0.950 . S
C460 C469 1.390 . S
C461 C460 1.387 . S
C461 C463 1.387 . S
H462 C469 0.950 . S
C463 C461 1.387 . S
C463 C465 1.390 . S
C463 H467 0.950 . S
H464 C460 0.950 . S
C465 C463 1.390 . S
C465 C466 1.387 . S
C465 H468 0.950 . S
C466 C465 1.387 . S
C466 C469 1.387 . S
H467 C463 0.950 . S
H468 C465 0.950 . S
C469 C460 1.390 . S
C469 H462 0.950 . S
C469 C466 1.387 . S
C470 C471 1.387 . S
C470 H474 0.950 . S
C470 C479 1.390 . S
C471 C470 1.387 . S
C471 C473 1.387 . S
H472 C479 0.950 . S
C473 C471 1.387 . S
C473 C475 1.390 . S
C473 H477 0.950 . S
H474 C470 0.950 . S
C475 C473 1.390 . S
C475 C476 1.387 . S
C475 H478 0.950 . S
C476 C475 1.387 . S
C476 C479 1.387 . S
H477 C473 0.950 . S
H478 C475 0.950 . S
C479 C470 1.390 . S
C479 H472 0.950 . S
C479 C476 1.387 . S
C480 C481 1.387 . S
C480 H484 0.950 . S
C480 C489 1.390 . S
C481 C480 1.387 . S
C481 C483 1.387 . S
H482 C489 0.950 . S
C483 C481 1.387 . S
C483 C485 1.390 . S
C483 H487 0.950 . S
H484 C480 0.950 . S
C485 C483 1.390 . S
C485 C486 1.387 . S
C485 H488 0.950 . S
C486 C485 1.387 . S
C486 C489 1.387 . S
H487 C483 0.950 . S
H488 C485 0.950 . S
C489 C480 1.390 . S
C489 H482 0.950 . S
C489 C486 1.387 . S
C490 C491 1.387 . S
C490 H494 0.950 . S
C490 C499 1.390 . S
C491 C490 1.387 . S
C491 C493 1.387 . S
H492 C499 0.950 . S
C493 C491 1.387 . S
C493 C495 1.390 . S
C493 H497 0.950 . S
H494 C490 0.950 . S
C495 C493 1.390 . S
C495 C496 1.387 . S
C495 H498 0.950 . S
C496 C495 1.387 . S
C496 C499 1.387 . S
H497 C493 0.950 . S
H498 C495 0.950 . S
C499 C490 1.390 . S
C499 H492 0.950 . S
C499 C496 1.387 . S
C500 C501 1.387 . S
C500 H504 0.950 . S
C500 C509 1.390 . S
C501 C500 1.387 . S
C501 C503 1.387 . S
H502 C509 0.950 . S
C503 C501 1.387 . S
C503 C505 1.390 . S
C503 H507 0.950 . S
H504 C500 0.950 . S
C505 C503 1.390 . S
C505 C506 1.387 . S
C505 H508 0.950 . S
C506 C505 1.387 . S
C506 C509 1.387 . S
H507 C503 0.950 . S
H508 C505 0.950 . S
C509 C500 1.390 . S
C509 H502 0.950 . S
C509 C506 1.387 . S
C510 C511 1.387 . S
C510 H514 0.950 . S
C510 C519 1.390 . S
C511 C510 1.387 . S
C511 C513 1.387 . S
H512 C519 0.950 . S
C513 C511 1.387 . S
C513 C515 1.390 . S
C513 H517 0.950 . S
H514 C510 0.950 . S
C515 C513 1.390 . S
C515 C516 1.387 . S
C515 H518 0.950 . S
C516 C515 1.387 . S
C516 C519 1.387 . S
H517 C513 0.950 . S
H518 C515 0.950 . S
C519 C510 1.390 . S
C519 H512 0.950 . S
C519 C516 1.387 . S
C520 C521 1.387 . S
C520 H524 0.950 . S
C520 C529 1.390 . S
C521 C520 1.387 . S
C521 C523 1.387 . S
H522 C529 0.950 . S
C523 C521 1.387 . S
C523 C525 1.390 . S
C523 H527 0.950 . S
H524 C520 0.950 . S
C525 C523 1.390 . S
C525 C526 1.387 . S
C525 H528 0.950 1_565 S
C526 C525 1.387 . S
C526 C529 1.387 . S
H527 C523 0.950 . S
H528 C525 0.950 1_545 S
C529 C520 1.390 . S
C529 H522 0.950 . S
C529 C526 1.387 . S
C530 C531 1.387 . S
C530 H534 0.950 . S
C530 C539 1.390 . S
C531 C530 1.387 . S
C531 C533 1.387 . S
H532 C539 0.950 . S
C533 C531 1.387 . S
C533 C535 1.390 . S
C533 H537 0.950 . S
H534 C530 0.950 . S
C535 C533 1.390 . S
C535 C536 1.387 . S
C535 H538 0.950 . S
C536 C535 1.387 . S
C536 C539 1.387 . S
H537 C533 0.950 . S
H538 C535 0.950 . S
C539 C530 1.390 . S
C539 H532 0.950 . S
C539 C536 1.387 . S
C540 C541 1.387 1_554 S
C540 H544 0.950 . S
C540 C549 1.390 . S
C541 C540 1.387 1_556 S
C541 C543 1.387 . S
H542 C549 0.950 . S
C543 C541 1.387 . S
C543 C545 1.390 1_545 S
C543 H547 0.950 . S
H544 C540 0.950 . S
C545 C543 1.390 1_565 S
C545 C546 1.386 1_566 S
C545 H548 0.950 . S
C546 C545 1.386 1_544 S
C546 C549 1.395 . S
H547 C543 0.950 . S
H548 C545 0.950 . S
C549 C540 1.390 . S
C549 H542 0.950 . S
C549 C546 1.395 . S
C550 C551 1.387 . S
C550 H554 0.950 . S
C550 C559 1.390 . S
C551 C550 1.387 . S
C551 C553 1.387 . S
H552 C559 0.950 . S
C553 C551 1.387 . S
C553 C555 1.390 . S
C553 H557 0.950 . S
H554 C550 0.950 . S
C555 C553 1.390 . S
C555 C556 1.387 . S
C555 H558 0.950 . S
C556 C555 1.387 . S
C556 C559 1.387 . S
H557 C553 0.950 . S
H558 C555 0.950 . S
C559 C550 1.390 . S
C559 H552 0.950 . S
C559 C556 1.387 . S
C560 C561 1.387 . S
C560 H564 0.950 . S
C560 C569 1.390 . S
C561 C560 1.387 . S
C561 C563 1.387 . S
H562 C569 0.950 . S
C563 C561 1.387 . S
C563 C565 1.390 . S
C563 H567 0.950 . S
H564 C560 0.950 . S
C565 C563 1.390 . S
C565 C566 1.387 . S
C565 H568 0.950 . S
C566 C565 1.387 . S
C566 C569 1.387 . S
H567 C563 0.950 . S
H568 C565 0.950 . S
C569 C560 1.390 . S
C569 H562 0.950 . S
C569 C566 1.387 . S
C570 C571 1.387 . S
C570 H574 0.950 . S
C570 C579 1.390 . S
C571 C570 1.387 . S
C571 C573 1.387 . S
H572 C579 0.950 . S
C573 C571 1.387 . S
C573 C575 1.390 . S
C573 H577 0.950 . S
H574 C570 0.950 . S
C575 C573 1.390 . S
C575 C576 1.387 . S
C575 H578 0.950 . S
C576 C575 1.387 . S
C576 C579 1.387 . S
H577 C573 0.950 . S
H578 C575 0.950 . S
C579 C570 1.390 . S
C579 H572 0.950 . S
C579 C576 1.387 . S
C580 C581 1.387 . S
C580 H584 0.948 . S
C580 C589 1.390 . S
C581 C580 1.387 . S
C581 C583 1.387 . S
H582 C589 0.950 . S
C583 C581 1.387 . S
C583 C585 1.390 . S
C583 H587 0.950 . S
H584 C580 0.948 . S
C585 C583 1.390 . S
C585 C586 1.387 . S
C585 H588 0.950 . S
C586 C585 1.387 . S
C586 C589 1.387 . S
H587 C583 0.950 . S
H588 C585 0.950 . S
C589 C580 1.390 . S
C589 H582 0.950 . S
C589 C586 1.387 . S
C590 C591 1.387 . S
C590 H594 0.950 . S
C590 C599 1.390 . S
C591 C590 1.387 . S
C591 C593 1.387 . S
H592 C599 0.950 . S
C593 C591 1.387 . S
C593 C595 1.390 . S
C593 H597 0.950 . S
H594 C590 0.950 . S
C595 C593 1.390 . S
C595 C596 1.387 . S
C595 H598 0.950 . S
C596 C595 1.387 . S
C596 C599 1.387 . S
H597 C593 0.950 . S
H598 C595 0.950 . S
C599 C590 1.390 . S
C599 H592 0.950 . S
C599 C596 1.387 . S
C600 C601 1.387 . S
C600 H604 0.950 . S
C600 C609 1.390 . S
C601 C600 1.387 . S
C601 C603 1.387 . S
H602 C609 0.950 . S
C603 C601 1.387 . S
C603 C605 1.390 . S
C603 H607 0.950 . S
H604 C600 0.950 . S
C605 C603 1.390 . S
C605 C606 1.387 . S
C605 H608 0.950 . S
C606 C605 1.387 . S
C606 C609 1.387 . S
H607 C603 0.950 . S
H608 C605 0.950 . S
C609 C600 1.390 . S
C609 H602 0.950 . S
C609 C606 1.387 . S
C610 C611 1.387 . S
C610 H614 0.950 . S
C610 C619 1.390 . S
C611 C610 1.387 . S
C611 C613 1.387 . S
H612 C619 0.950 . S
C613 C611 1.387 . S
C613 C615 1.390 . S
C613 H617 0.950 . S
H614 C610 0.950 . S
C615 C613 1.390 . S
C615 C616 1.387 . S
C615 H618 0.950 . S
C616 C615 1.387 . S
C616 C619 1.387 . S
H617 C613 0.950 . S
H618 C615 0.950 . S
C619 C610 1.390 . S
C619 H612 0.950 . S
C619 C616 1.387 . S
C620 C621 1.387 . S
C620 H624 0.950 . S
C620 C629 1.390 . S
C621 C620 1.387 . S
C621 C623 1.387 . S
H622 C629 0.950 . S
C623 C621 1.387 . S
C623 C625 1.390 . S
C623 H627 0.950 . S
H624 C620 0.950 . S
C625 C623 1.390 . S
C625 C626 1.387 . S
C625 H628 0.950 . S
C626 C625 1.387 . S
C626 C629 1.387 . S
H627 C623 0.950 . S
H628 C625 0.950 . S
C629 C620 1.390 . S
C629 H622 0.950 . S
C629 C626 1.387 . S
C630 C631 1.387 . S
C630 H634 0.950 . S
C630 C639 1.390 . S
C631 C630 1.387 . S
C631 C633 1.387 . S
H632 C639 0.950 . S
C633 C631 1.387 . S
C633 C635 1.390 . S
C633 H637 0.950 . S
H634 C630 0.950 . S
C635 C633 1.390 . S
C635 C636 1.387 . S
C635 H638 0.950 . S
C636 C635 1.387 . S
C636 C639 1.387 . S
H637 C633 0.950 . S
H638 C635 0.950 . S
C639 C630 1.390 . S
C639 H632 0.950 . S
C639 C636 1.387 . S
C640 C641 1.387 . S
C640 H644 0.950 . S
C640 C649 1.390 . S
C641 C640 1.387 . S
C641 C643 1.387 . S
H642 C649 0.950 . S
C643 C641 1.387 . S
C643 C645 1.390 . S
C643 H647 0.950 . S
H644 C640 0.950 . S
C645 C643 1.390 . S
C645 C646 1.387 . S
C645 H648 0.950 . S
C646 C645 1.387 . S
C646 C649 1.387 . S
H647 C643 0.950 . S
H648 C645 0.950 . S
C649 C640 1.390 . S
C649 H642 0.950 . S
C649 C646 1.387 . S
C650 C651 1.387 . S
C650 H654 0.950 . S
C650 C659 1.390 . S
C651 C650 1.387 . S
C651 C653 1.387 . S
H652 C659 0.950 . S
C653 C651 1.387 . S
C653 C655 1.390 . S
C653 H657 0.950 . S
H654 C650 0.950 . S
C655 C653 1.390 . S
C655 C656 1.387 . S
C655 H658 0.950 . S
C656 C655 1.387 . S
C656 C659 1.387 . S
H657 C653 0.950 . S
H658 C655 0.950 . S
C659 C650 1.390 . S
C659 H652 0.950 . S
C659 C656 1.387 . S
C660 C661 1.387 . S
C660 H664 0.950 . S
C660 C669 1.390 . S
C661 C660 1.387 . S
C661 C663 1.387 . S
H662 C669 0.950 . S
C663 C661 1.387 . S
C663 C665 1.390 . S
C663 H667 0.950 . S
H664 C660 0.950 . S
C665 C663 1.390 . S
C665 C666 1.387 . S
C665 H668 0.950 . S
C666 C665 1.387 . S
C666 C669 1.387 . S
H667 C663 0.950 . S
H668 C665 0.950 . S
C669 C660 1.390 . S
C669 H662 0.950 . S
C669 C666 1.387 . S
C670 C671 1.387 . S
C670 H674 0.950 . S
C670 C679 1.390 . S
C671 C670 1.387 . S
C671 C673 1.387 . S
H672 C679 0.950 1_455 S
C673 C671 1.387 . S
C673 C675 1.390 . S
C673 H677 0.950 . S
H674 C670 0.950 . S
C675 C673 1.390 . S
C675 C676 1.387 1_655 S
C675 H678 0.950 . S
C676 C675 1.387 1_455 S
C676 C679 1.387 1_455 S
H677 C673 0.950 . S
H678 C675 0.950 . S
C679 C670 1.390 . S
C679 H672 0.950 1_655 S
C679 C676 1.387 1_655 S
C680 C681 1.387 . S
C680 H684 0.950 . S
C680 C689 1.390 . S
C681 C680 1.387 . S
C681 C683 1.387 . S
H682 C689 0.950 . S
C683 C681 1.387 . S
C683 C685 1.390 . S
C683 H687 0.950 . S
H684 C680 0.950 . S
C685 C683 1.390 . S
C685 C686 1.387 . S
C685 H688 0.950 . S
C686 C685 1.387 . S
C686 C689 1.387 . S
H687 C683 0.950 . S
H688 C685 0.950 . S
C689 C680 1.390 . S
C689 H682 0.950 . S
C689 C686 1.387 . S
C690 C691 1.394 . S
C690 H694 0.950 . S
C690 C699 1.390 1_554 S
C691 C690 1.394 . S
C691 C693 1.362 1_554 S
H692 C699 0.950 . S
C693 C691 1.362 1_556 S
C693 C695 1.390 . S
C693 H697 0.950 . S
H694 C690 0.950 . S
C695 C693 1.390 . S
C695 C696 1.387 . S
C695 H698 0.950 . S
C696 C695 1.387 . S
C696 C699 1.387 . S
H697 C693 0.950 . S
H698 C695 0.950 . S
C699 C690 1.390 1_556 S
C699 H692 0.950 . S
C699 C696 1.387 . S
C700 C701 1.387 . S
C700 H704 0.950 . S
C700 C709 1.390 . S
C701 C700 1.387 . S
C701 C703 1.387 . S
H702 C709 0.950 . S
C703 C701 1.387 . S
C703 C705 1.390 . S
C703 H707 0.950 . S
H704 C700 0.950 . S
C705 C703 1.390 . S
C705 C706 1.387 . S
C705 H708 0.950 . S
C706 C705 1.387 . S
C706 C709 1.387 . S
H707 C703 0.950 . S
H708 C705 0.950 . S
C709 C700 1.390 . S
C709 H702 0.950 . S
C709 C706 1.387 . S
C710 C711 1.387 . S
C710 H714 0.950 . S
C710 C719 1.390 1_554 S
C711 C710 1.387 . S
C711 C713 1.387 . S
H712 C719 0.950 . S
C713 C711 1.387 . S
C713 C715 1.390 1_554 S
C713 H717 0.950 . S
H714 C710 0.950 . S
C715 C713 1.390 1_556 S
C715 C716 1.387 . S
C715 H718 0.950 . S
C716 C715 1.387 . S
C716 C719 1.387 . S
H717 C713 0.950 . S
H718 C715 0.950 . S
C719 C710 1.390 1_556 S
C719 H712 0.950 . S
C719 C716 1.387 . S
C720 C721 1.387 . S
C720 H724 0.950 . S
C720 C729 1.390 . S
C721 C720 1.387 . S
C721 C723 1.387 . S
H722 C729 0.950 . S
C723 C721 1.387 . S
C723 C725 1.390 . S
C723 H727 0.950 . S
H724 C720 0.950 . S
C725 C723 1.390 . S
C725 C726 1.387 . S
C725 H728 0.950 . S
C726 C725 1.387 . S
C726 C729 1.387 . S
H727 C723 0.950 . S
H728 C725 0.950 . S
C729 C720 1.390 . S
C729 H722 0.950 . S
C729 C726 1.387 . S
C730 C731 1.387 . S
C730 H734 0.950 . S
C730 C739 1.390 1_556 S
C731 C730 1.387 . S
C731 C733 1.387 1_556 S
H732 C739 0.950 . S
C733 C731 1.387 1_554 S
C733 C735 1.390 . S
C733 H737 0.950 . S
H734 C730 0.950 . S
C735 C733 1.390 . S
C735 C736 1.387 . S
C735 H738 0.950 . S
C736 C735 1.387 . S
C736 C739 1.387 . S
H737 C733 0.950 . S
H738 C735 0.950 . S
C739 C730 1.390 1_554 S
C739 H732 0.950 . S
C739 C736 1.387 . S
C740 C741 1.387 . S
C740 H744 0.950 . S
C740 C749 1.390 . S
C741 C740 1.387 . S
C741 C743 1.387 . S
H742 C749 0.950 . S
C743 C741 1.387 . S
C743 C745 1.390 . S
C743 H747 0.950 . S
H744 C740 0.950 . S
C745 C743 1.390 . S
C745 C746 1.387 . S
C745 H748 0.950 . S
C746 C745 1.387 . S
C746 C749 1.387 . S
H747 C743 0.950 . S
H748 C745 0.950 . S
C749 C740 1.390 . S
C749 H742 0.950 . S
C749 C746 1.387 . S
C750 C751 1.387 . S
C750 H754 0.950 1_554 S
C750 C759 1.390 . S
C751 C750 1.387 . S
C751 C753 1.387 . S
H752 C759 0.950 . S
C753 C751 1.387 . S
C753 C755 1.390 . S
C753 H757 0.950 . S
H754 C750 0.950 1_556 S
C755 C753 1.390 . S
C755 C756 1.387 . S
C755 H758 0.950 . S
C756 C755 1.387 . S
C756 C759 1.387 . S
H757 C753 0.950 . S
H758 C755 0.950 . S
C759 C750 1.390 . S
C759 H752 0.950 . S
C759 C756 1.387 . S
C760 C761 1.387 . S
C760 H764 0.950 . S
C760 C769 1.390 . S
C761 C760 1.387 . S
C761 C763 1.387 . S
H762 C769 0.950 . S
C763 C761 1.387 . S
C763 C765 1.390 . S
C763 H767 0.950 . S
H764 C760 0.950 . S
C765 C763 1.390 . S
C765 C766 1.387 . S
C765 H768 0.950 . S
C766 C765 1.387 . S
C766 C769 1.387 . S
H767 C763 0.950 . S
H768 C765 0.950 . S
C769 C760 1.390 . S
C769 H762 0.950 . S
C769 C766 1.387 . S
C770 C771 1.387 . S
C770 H774 0.950 . S
C770 C779 1.390 . S
C771 C770 1.387 . S
C771 C773 1.387 . S
H772 C779 0.950 . S
C773 C771 1.387 . S
C773 C775 1.390 . S
C773 H777 0.950 . S
H774 C770 0.950 . S
C775 C773 1.390 . S
C775 C776 1.387 . S
C775 H778 0.950 . S
C776 C775 1.387 . S
C776 C779 1.387 . S
H777 C773 0.950 . S
H778 C775 0.950 . S
C779 C770 1.390 . S
C779 H772 0.950 . S
C779 C776 1.387 . S
C780 C781 1.387 . S
C780 H784 0.950 . S
C780 C789 1.390 . S
C781 C780 1.387 . S
C781 C783 1.387 . S
H782 C789 0.950 . S
C783 C781 1.387 . S
C783 C785 1.390 . S
C783 H787 0.950 . S
H784 C780 0.950 . S
C785 C783 1.390 . S
C785 C786 1.387 . S
C785 H788 0.950 . S
C786 C785 1.387 . S
C786 C789 1.387 . S
H787 C783 0.950 . S
H788 C785 0.950 . S
C789 C780 1.390 . S
C789 H782 0.950 . S
C789 C786 1.387 . S
C790 C791 1.387 . S
C790 H794 0.950 . S
C790 C799 1.390 . S
C791 C790 1.387 . S
C791 C793 1.387 . S
H792 C799 0.950 . S
C793 C791 1.387 . S
C793 C795 1.390 . S
C793 H797 0.950 . S
H794 C790 0.950 . S
C795 C793 1.390 . S
C795 C796 1.387 . S
C795 H798 0.950 . S
C796 C795 1.387 . S
C796 C799 1.387 . S
H797 C793 0.950 . S
H798 C795 0.950 . S
C799 C790 1.390 . S
C799 H792 0.950 . S
C799 C796 1.387 . S
C800 C801 1.387 . S
C800 H804 0.950 . S
C800 C809 1.390 . S
C801 C800 1.387 . S
C801 C803 1.387 . S
H802 C809 0.950 1_554 S
C803 C801 1.387 . S
C803 C805 1.390 . S
C803 H807 0.950 . S
H804 C800 0.950 . S
C805 C803 1.390 . S
C805 C806 1.387 . S
C805 H808 0.950 . S
C806 C805 1.387 . S
C806 C809 1.387 . S
H807 C803 0.950 . S
H808 C805 0.950 . S
C809 C800 1.390 . S
C809 H802 0.950 1_556 S
C809 C806 1.387 . S
C810 C811 1.387 . S
C810 H814 0.950 . S
C810 C819 1.390 . S
C811 C810 1.387 . S
C811 C813 1.387 . S
H812 C819 0.950 . S
C813 C811 1.387 . S
C813 C815 1.390 . S
C813 H817 0.950 . S
H814 C810 0.950 . S
C815 C813 1.390 . S
C815 C816 1.387 . S
C815 H818 0.950 . S
C816 C815 1.387 . S
C816 C819 1.387 . S
H817 C813 0.950 . S
H818 C815 0.950 . S
C819 C810 1.390 . S
C819 H812 0.950 . S
C819 C816 1.387 . S
C820 C821 1.387 . S
C820 H824 0.950 . S
C820 C829 1.390 . S
C821 C820 1.387 . S
C821 C823 1.387 . S
H822 C829 0.950 . S
C823 C821 1.387 . S
C823 C825 1.390 . S
C823 H827 0.950 . S
H824 C820 0.950 . S
C825 C823 1.390 . S
C825 C826 1.387 . S
C825 H828 0.950 . S
C826 C825 1.387 . S
C826 C829 1.387 . S
H827 C823 0.950 . S
H828 C825 0.950 . S
C829 C820 1.390 . S
C829 H822 0.950 . S
C829 C826 1.387 . S
C830 C831 1.387 . S
C830 H834 0.950 . S
C830 C839 1.390 . S
C831 C830 1.387 . S
C831 C833 1.387 . S
H832 C839 0.950 . S
C833 C831 1.387 . S
C833 C835 1.390 . S
C833 H837 0.950 . S
H834 C830 0.950 . S
C835 C833 1.390 . S
C835 C836 1.387 . S
C835 H838 0.950 . S
C836 C835 1.387 . S
C836 C839 1.387 . S
H837 C833 0.950 . S
H838 C835 0.950 . S
C839 C830 1.390 . S
C839 H832 0.950 . S
C839 C836 1.387 . S
C366 C200 1.758 1_556 S
C361 C66 1.772 . S
C376 C215 1.494 . S
C371 C76 1.512 . S
C381 C93 1.972 . S
C386 C228 1.953 . S
C396 C242 1.460 1_455 S
C391 C54 1.464 1_545 S
C406 C254 1.615 . S
C401 C126 1.732 . S
C416 C268 1.564 . S
C411 C150 1.593 . S
C421 C136 1.414 . S
C426 C282 1.425 . S
C436 C297 1.645 . S
C431 C117 1.727 . S
C441 C141 1.418 . S
C446 C313 1.395 . S
C456 C326 1.419 . S
C451 C112 1.404 . S
C461 C124 1.635 . S
C466 C311 1.549 . S
C476 C324 1.487 . S
C471 C148 1.444 . S
C481 C88 1.613 . S
C486 C340 1.600 . S
C491 C52 1.580 . S
C496 C339 1.581 . S
C501 C64 1.473 . S
C506 C338 1.422 . S
C511 C78 1.414 . S
C516 C341 1.385 . S
C521 C45 1.898 . S
C526 C243 1.880 1_565 S
C531 C177 1.719 . S
C536 C241 1.673 . S
C546 C201 1.382 1_545 S
C541 C189 1.433 . S
C556 C212 1.759 . S
C551 C102 1.802 . S
C561 C57 1.650 . S
C566 C257 1.633 . S
C576 C298 1.816 . S
C571 C138 1.818 . S
C586 C255 1.822 . S
C581 C114 1.843 1_545 S
C596 C283 1.591 . S
C591 C153 1.587 . S
C606 C284 1.758 . S
C601 C174 1.771 . S
C611 C184 1.510 . S
C616 C299 1.490 . S
C621 C105 1.972 . S
C626 C256 1.952 . S
C636 C270 1.462 . S
C631 C162 1.465 . S
C641 C42 1.733 . S
C646 C226 1.619 . S
C656 C240 1.566 . S
C651 C6 1.591 . S
C666 C198 1.425 . S
C661 C16 1.415 . S
C676 C213 1.644 . S
C671 C33 1.727 . S
C681 C21 1.419 . S
C686 C327 1.396 . S
C691 C28 1.424 . S
C696 C312 1.418 . S
C701 C40 1.634 . S
C706 C325 1.548 . S
C711 C4 1.443 . S
C716 C310 1.487 . S
C726 C354 1.600 . S
C721 C100 1.613 . S
C736 C353 1.583 . S
C731 C160 1.580 . S
C746 C352 1.423 . S
C741 C172 1.473 . S
C751 C186 1.414 1_554 S
C756 C355 1.386 . S
C761 C129 1.898 . S
C766 C271 1.879 . S
C776 C269 1.673 . S
C771 C69 1.719 . S
C786 C285 1.390 . S
C781 C81 1.437 . S
C796 C296 1.759 . S
C791 C90 1.802 . S
C801 C165 1.650 . S
C806 C229 1.633 . S
C816 C214 1.816 . S
C811 C18 1.818 . S
C821 C30 1.844 . S
C826 C227 1.823 . S
C836 C199 1.591 . S
C831 C9 1.587 . S
