# Generated by pormake.
# Topology anh, (6,3)-cn, num edge types: 1
# Building blocks:
#     Node 0, Type 0, BuildingBlock: INOVEN_clean_sbu_0, # of connection points: 6
#     Node 1, Type 0, BuildingBlock: INOVEN_clean_sbu_0, # of connection points: 6
#     Node 2, Type 0, BuildingBlock: INOVEN_clean_sbu_0, # of connection points: 6
#     Node 3, Type 1, BuildingBlock: PAMTOO_clean_linker_0, # of connection points: 3
#     Node 4, Type 1, BuildingBlock: PAMTOO_clean_linker_0, # of connection points: 3
#     Node 5, Type 1, BuildingBlock: PAMTOO_clean_linker_0, # of connection points: 3
#     Node 6, Type 1, BuildingBlock: PAMTOO_clean_linker_0, # of connection points: 3
#     Node 7, Type 1, BuildingBlock: PAMTOO_clean_linker_0, # of connection points: 3
#     Node 8, Type 1, BuildingBlock: PAMTOO_clean_linker_0, # of connection points: 3
#     Edge 9, Type (0, 1), BuildingBlock: MIFKUJ_clean_linker_0, # of connection points: 2
#     Edge 10, Type (0, 1), BuildingBlock: MIFKUJ_clean_linker_0, # of connection points: 2
#     Edge 11, Type (0, 1), BuildingBlock: MIFKUJ_clean_linker_0, # of connection points: 2
#     Edge 12, Type (0, 1), BuildingBlock: MIFKUJ_clean_linker_0, # of connection points: 2
#     Edge 13, Type (0, 1), BuildingBlock: MIFKUJ_clean_linker_0, # of connection points: 2
#     Edge 14, Type (0, 1), BuildingBlock: MIFKUJ_clean_linker_0, # of connection points: 2
#     Edge 15, Type (0, 1), BuildingBlock: MIFKUJ_clean_linker_0, # of connection points: 2
#     Edge 16, Type (0, 1), BuildingBlock: MIFKUJ_clean_linker_0, # of connection points: 2
#     Edge 17, Type (0, 1), BuildingBlock: MIFKUJ_clean_linker_0, # of connection points: 2
#     Edge 18, Type (0, 1), BuildingBlock: MIFKUJ_clean_linker_0, # of connection points: 2
#     Edge 19, Type (0, 1), BuildingBlock: MIFKUJ_clean_linker_0, # of connection points: 2
#     Edge 20, Type (0, 1), BuildingBlock: MIFKUJ_clean_linker_0, # of connection points: 2
#     Edge 21, Type (0, 1), BuildingBlock: MIFKUJ_clean_linker_0, # of connection points: 2
#     Edge 22, Type (0, 1), BuildingBlock: MIFKUJ_clean_linker_0, # of connection points: 2
#     Edge 23, Type (0, 1), BuildingBlock: MIFKUJ_clean_linker_0, # of connection points: 2
#     Edge 24, Type (0, 1), BuildingBlock: MIFKUJ_clean_linker_0, # of connection points: 2
#     Edge 25, Type (0, 1), BuildingBlock: MIFKUJ_clean_linker_0, # of connection points: 2
#     Edge 26, Type (0, 1), BuildingBlock: MIFKUJ_clean_linker_0, # of connection points: 2
# Relax obj value: 0.135
# Max RMSD: 0.172
# Mean RMSD: 0.125
data_MOF--net-anh--node1-INOVEN_clean_sbu_0--node2-PAMTOO_clean_linker_0--edge1-MIFKUJ_clean_linker_0
_symmetry_space_group_name_H-M    P1
_symmetry_Int_Tables_number       1
_symmetry_cell_setting            triclinic
loop_
_symmetry_equiv_pos_as_xyz
'x, y, z'
_cell_length_a     40.867444
_cell_length_b     47.069636
_cell_length_c     64.426448
_cell_angle_alpha  88.632569
_cell_angle_beta   93.093029
_cell_angle_gamma 128.5749
loop_
_atom_site_label
_atom_site_type_symbol
_atom_site_fract_x
_atom_site_fract_y
_atom_site_fract_z
_atom_type_partial_charge
Gd0 Gd 0.07897 0.477 0.16038 0.0
Gd1 Gd 1.03831 0.51057 0.1566 0.0
C2 C 0.13647 0.56648 0.15936 0.0
C3 C 0.12938 0.46264 0.15961 0.0
C4 C 0.1747 0.4896 0.15987 0.0
C5 C 0.19853 0.48785 0.17537 0.0
C6 C 0.19382 0.52016 0.14701 0.0
C7 C 0.26138 0.54435 0.16318 0.0
C8 C 0.23695 0.54749 0.14872 0.0
C9 C 0.2415 0.51511 0.17714 0.0
C10 C 0.05182 0.48142 0.19638 0.0
C11 C 0.98113 0.4222 0.15432 0.0
C12 C 0.99273 0.52489 0.16903 0.0
C13 C 0.9488 0.49492 0.17258 0.0
C14 C 0.92062 0.47438 0.15565 0.0
C15 C 0.93651 0.48236 0.19286 0.0
C16 C 0.86583 0.43604 0.17936 0.0
C17 C 0.89536 0.45231 0.1962 0.0
C18 C 0.87957 0.44453 0.15905 0.0
C19 C 0.05257 0.50471 0.11702 0.0
O20 O 0.13547 0.53774 0.1608 0.0
O21 O 0.10205 0.56311 0.15777 0.0
O22 O 0.11358 0.46222 0.17678 0.0
O23 O 0.10882 0.46105 0.14277 0.0
O24 O 1.04472 0.45211 0.18989 0.0
O25 O 0.07123 0.50608 0.18302 0.0
O26 O 0.9827 0.45046 0.15817 0.0
O27 O 1.01539 0.42624 0.15142 0.0
O28 O 1.00329 0.5303 0.14964 0.0
O29 O 1.01935 0.52593 0.18187 0.0
O30 O 1.03535 0.51877 0.12246 0.0
O31 O 0.06229 0.49452 0.13294 0.0
H32 H 0.18395 0.46513 0.18593 0.0
H33 H 0.17562 0.52276 0.13543 0.0
H34 H 0.25155 0.56959 0.13775 0.0
H35 H 0.25935 0.51145 0.1883 0.0
H36 H 0.92969 0.48194 0.13974 0.0
H37 H 0.9583 0.49644 0.20615 0.0
H38 H 0.88523 0.44571 0.212 0.0
H39 H 0.85734 0.4319 0.14579 0.0
Gd40 Gd 0.64909 0.01754 0.48595 0.0
Gd41 Gd 0.59487 0.04355 0.47847 0.0
C42 C 0.54544 0.95755 0.4806 0.0
C43 C 0.67727 0.98338 0.49757 0.0
C44 C 0.65979 0.94485 0.49803 0.0
C45 C 0.6549 0.92638 0.4798 0.0
C46 C 0.64868 0.92641 0.517 0.0
C47 C 0.63076 0.87265 0.49979 0.0
C48 C 0.63424 0.89064 0.51786 0.0
C49 C 0.64039 0.89056 0.48068 0.0
C50 C 0.63811 0.03155 0.44642 0.0
C51 C 0.69716 0.10209 0.48592 0.0
C52 C 0.569 0.07646 0.4613 0.0
C53 C 0.58175 0.11309 0.46527 0.0
C54 C 0.56951 0.12037 0.48306 0.0
C55 C 0.6087 0.14182 0.45185 0.0
C56 C 0.61094 0.18432 0.47395 0.0
C57 C 0.62328 0.17706 0.45619 0.0
C58 C 0.58385 0.15551 0.48731 0.0
C59 C 0.61088 0.04248 0.52007 0.0
O60 O 0.58194 0.96466 0.4856 0.0
O61 O 0.54258 0.98346 0.47558 0.0
O62 O 0.68334 0.9981 0.47924 0.0
O63 O 0.66218 0.99319 0.5105 0.0
O64 O 0.67307 0.03952 0.454 0.0
O65 O 0.61065 0.01554 0.45974 0.0
O66 O 0.66245 0.09427 0.47693 0.0
O67 O 0.69855 0.07676 0.49405 0.0
O68 O 0.54844 0.05199 0.47578 0.0
O69 O 0.59754 0.076 0.45332 0.0
O70 O 0.58824 0.05117 0.51237 0.0
O71 O 0.62337 0.03562 0.50507 0.0
H72 H 0.66313 0.93977 0.46491 0.0
H73 H 0.65193 0.93987 0.53127 0.0
H74 H 0.62666 0.87727 0.53277 0.0
H75 H 0.63845 0.87744 0.46655 0.0
H76 H 0.54894 0.09899 0.4938 0.0
H77 H 0.61893 0.13713 0.43809 0.0
H78 H 0.64441 0.19864 0.44567 0.0
H79 H 0.57297 0.15991 0.5009 0.0
Gd80 Gd 0.68886 0.61084 0.82852 0.0
Gd81 Gd 0.63076 0.53024 0.83099 0.0
C82 C 0.58471 0.56708 0.83204 0.0
C83 C 0.72288 0.677 0.8186 0.0
C84 C 0.70991 0.7001 0.81966 0.0
C85 C 0.72659 0.72617 0.83567 0.0
C86 C 0.6807 0.69627 0.80492 0.0
C87 C 0.6857 0.74453 0.82198 0.0
C88 C 0.66871 0.71821 0.80609 0.0
C89 C 0.71452 0.74806 0.83686 0.0
C90 C 0.6746 0.58446 0.86682 0.0
C91 C 0.73482 0.57378 0.83129 0.0
C92 C 0.5973 0.46423 0.84109 0.0
C93 C 0.60929 0.44056 0.83905 0.0
C94 C 0.61014 0.42848 0.81948 0.0
C95 C 0.62019 0.42991 0.85692 0.0
C96 C 0.63093 0.39437 0.83582 0.0
C97 C 0.63091 0.40707 0.85535 0.0
C98 C 0.62085 0.40566 0.8179 0.0
C99 C 0.64286 0.55588 0.79212 0.0
O100 O 0.62269 0.5975 0.82741 0.0
O101 O 0.58058 0.53709 0.83613 0.0
O102 O 0.7311 0.66818 0.83641 0.0
O103 O 0.70215 0.65002 0.80509 0.0
O104 O 0.71131 0.61291 0.86165 0.0
O105 O 0.64788 0.57307 0.8521 0.0
O106 O 0.69622 0.54342 0.83465 0.0
O107 O 0.73995 0.60402 0.82646 0.0
O108 O 0.58662 0.47269 0.82392 0.0
O109 O 0.62062 0.49165 0.85417 0.0
O110 O 0.60757 0.52688 0.79819 0.0
O111 O 0.67113 0.56818 0.80635 0.0
H112 H 0.74908 0.72972 0.84729 0.0
H113 H 0.66724 0.67651 0.79235 0.0
H114 H 0.64692 0.71517 0.7942 0.0
H115 H 0.72781 0.76781 0.84943 0.0
H116 H 0.60211 0.43628 0.80536 0.0
H117 H 0.62018 0.43916 0.87214 0.0
H118 H 0.63902 0.39923 0.86944 0.0
H119 H 0.62004 0.39601 0.80264 0.0
H120 H 0.63232 0.07989 0.22363 0.0
H121 H 0.52132 0.9678 0.21902 0.0
H122 H 0.57884 0.02866 0.16369 0.0
H123 H 0.4786 0.96401 0.15872 0.0
C124 C 0.4782 0.95111 0.17349 0.0
O125 O 0.51864 0.9639 0.17875 0.0
H126 H 0.46652 0.95868 0.18571 0.0
C127 C 0.60773 0.05626 0.21439 0.0
C128 C 0.60899 0.05847 0.19267 0.0
C129 C 0.57608 0.02403 0.22427 0.0
C130 C 0.54588 0.99318 0.21191 0.0
C131 C 0.54667 0.99472 0.19015 0.0
C132 C 0.57789 0.02761 0.18048 0.0
H133 H 0.60624 0.58257 0.56723 0.0
H134 H 0.62473 0.50177 0.56733 0.0
H135 H 0.61581 0.54474 0.50976 0.0
H136 H 0.5732 0.46799 0.50507 0.0
C137 C 0.58635 0.46375 0.51927 0.0
O138 O 0.6214 0.49687 0.52688 0.0
H139 H 0.56169 0.44996 0.53092 0.0
C140 C 0.61074 0.5654 0.55915 0.0
C141 C 0.61186 0.5672 0.53746 0.0
C142 C 0.61672 0.54295 0.5704 0.0
C143 C 0.61992 0.51944 0.55927 0.0
C144 C 0.61837 0.51947 0.53744 0.0
C145 C 0.61501 0.54372 0.52656 0.0
H146 H 0.0683 0.55165 0.89395 0.0
H147 H 0.16414 0.53967 0.89398 0.0
H148 H 0.12556 0.56309 0.83651 0.0
H149 H 0.22646 0.57048 0.87789 0.0
C150 C 0.22369 0.57286 0.86081 0.0
O151 O 0.18021 0.55131 0.85452 0.0
H152 H 0.23757 0.60173 0.85822 0.0
C153 C 0.09086 0.55218 0.88542 0.0
C154 C 0.09188 0.55749 0.8638 0.0
C155 C 0.11705 0.54644 0.89636 0.0
C156 C 0.14525 0.54532 0.88546 0.0
C157 C 0.15096 0.55279 0.86404 0.0
C158 C 0.12349 0.55886 0.85312 0.0
H159 H 1.01586 0.46899 0.41884 0.0
H160 H 0.14254 0.56641 0.4248 0.0
H161 H 0.08552 0.49878 0.47789 0.0
H162 H 0.14658 0.58152 0.49229 0.0
C163 C 0.15277 0.5895 0.47574 0.0
O164 O 0.15036 0.56297 0.46501 0.0
H165 H 0.12809 0.59125 0.46951 0.0
C166 C 1.04447 0.4861 0.42838 0.0
C167 C 1.04622 0.47708 0.44921 0.0
C168 C 0.07974 0.51624 0.4189 0.0
C169 C 0.11516 0.54233 0.43154 0.0
C170 C 0.11608 0.53688 0.45301 0.0
C171 C 0.08253 0.50363 0.46167 0.0
H172 H 0.62023 0.98316 0.74582 0.0
H173 H 0.62967 0.07963 0.74517 0.0
H174 H 0.63033 0.03329 0.8033 0.0
H175 H 0.58448 0.06196 0.8047 0.0
C176 C 0.59897 0.08188 0.79185 0.0
O177 O 0.63332 0.08561 0.78575 0.0
H178 H 0.57533 0.07155 0.77865 0.0
C179 C 0.62266 1.00434 0.75399 0.0
C180 C 0.62445 1.00482 0.77577 0.0
C181 C 0.62499 0.03137 0.74271 0.0
C182 C 0.62771 0.05842 0.75356 0.0
C183 C 0.62939 0.05894 0.77538 0.0
C184 C 0.62833 0.03243 0.78646 0.0
H185 H 0.62826 0.50826 0.08746 0.0
H186 H 0.50973 0.48218 0.06769 0.0
H187 H 0.53425 0.47051 0.13128 0.0
H188 H 0.46615 0.41039 0.11373 0.0
C189 C 0.45037 0.421 0.10644 0.0
O190 O 0.47818 0.45798 0.10333 0.0
H191 H 0.43488 0.40654 0.09135 0.0
C192 C 0.59867 0.50185 0.091 0.0
C193 C 0.58538 0.49228 0.11127 0.0
C194 C 0.57165 0.49806 0.07497 0.0
C195 C 0.53164 0.48566 0.07967 0.0
C196 C 0.51843 0.47544 0.09979 0.0
C197 C 0.54564 0.48011 0.11584 0.0
H198 H 0.32847 0.57652 0.19153 0.0
H199 H 0.37184 0.55739 0.18976 0.0
H200 H 0.33609 0.53165 0.12462 0.0
H201 H 0.29337 0.55079 0.12621 0.0
H202 H 0.30185 0.46918 0.1574 0.0
H203 H 0.42613 0.58 0.12678 0.0
H204 H 0.47402 0.64694 0.1296 0.0
H205 H 0.51182 0.64096 0.192 0.0
H206 H 0.46364 0.57387 0.18956 0.0
H207 H 0.38044 0.41236 0.09526 0.0
H208 H 0.3584 0.44106 0.11438 0.0
H209 H 0.4333 0.45258 0.16838 0.0
H210 H 0.45715 0.42503 0.1487 0.0
H211 H 0.45033 0.5199 0.15311 0.0
H212 H 0.3334 0.40086 0.17572 0.0
H213 H 0.28468 0.33571 0.16632 0.0
H214 H 0.23031 0.35769 0.11604 0.0
H215 H 0.27883 0.42303 0.12511 0.0
C216 C 0.3324 0.56934 0.17652 0.0
C217 C 0.30547 0.5625 0.1594 0.0
C218 C 0.35631 0.55763 0.17567 0.0
C219 C 0.35472 0.54135 0.15736 0.0
C220 C 0.33616 0.54311 0.13904 0.0
C221 C 0.31253 0.55493 0.13992 0.0
C222 C 0.36647 0.51774 0.1578 0.0
C223 C 0.33429 0.48003 0.15696 0.0
C224 C 0.40861 0.53228 0.15743 0.0
C225 C 0.44201 0.57212 0.15787 0.0
C226 C 0.44532 0.59306 0.14094 0.0
C227 C 0.47219 0.63096 0.14253 0.0
C228 C 0.49611 0.6482 0.16094 0.0
C229 C 0.49346 0.62756 0.17771 0.0
C230 C 0.46649 0.5896 0.17622 0.0
C231 C 0.39006 0.41882 0.11159 0.0
C232 C 0.42009 0.41636 0.12062 0.0
C233 C 0.37821 0.43591 0.12239 0.0
C234 C 0.3947 0.44913 0.14267 0.0
C235 C 0.42076 0.44276 0.15266 0.0
C236 C 0.43325 0.4261 0.14166 0.0
C237 C 0.38564 0.47115 0.15247 0.0
C238 C 0.4181 0.50873 0.15498 0.0
C239 C 0.34353 0.45641 0.15442 0.0
C240 C 0.30928 0.41678 0.15134 0.0
C241 C 0.31036 0.39166 0.16297 0.0
C242 C 0.28304 0.35475 0.15758 0.0
C243 C 0.2543 0.34255 0.14064 0.0
C244 C 0.25235 0.36716 0.12927 0.0
C245 C 0.27953 0.40412 0.13463 0.0
H246 H 0.23366 0.31405 0.13628 0.0
H247 H 0.51656 0.67755 0.16223 0.0
H248 H 0.76017 0.14246 0.51627 0.0
H249 H 0.82235 0.20712 0.51457 0.0
H250 H 0.78382 0.21163 0.45178 0.0
H251 H 0.72133 0.14799 0.45367 0.0
H252 H 0.87201 0.2406 0.45937 0.0
H253 H 0.76771 0.24836 0.48181 0.0
H254 H 0.71333 0.23495 0.50472 0.0
H255 H 0.80362 0.28406 0.55639 0.0
H256 H 0.85846 0.29726 0.5338 0.0
H257 H 0.98772 0.41455 0.42553 0.0
H258 H 0.93101 0.35554 0.43624 0.0
H259 H 0.97021 0.38752 0.5005 0.0
H260 H 1.02431 0.45038 0.48997 0.0
H261 H 0.8875 0.33921 0.49735 0.0
H262 H 0.99513 0.33808 0.46998 0.0
H263 H 1.04496 0.3527 0.44355 0.0
H264 H 0.94331 0.29049 0.3978 0.0
H265 H 0.89296 0.27575 0.42388 0.0
C266 C 0.76516 0.15736 0.50214 0.0
C267 C 0.73594 0.1403 0.48512 0.0
C268 C 0.80048 0.19424 0.50121 0.0
C269 C 0.8076 0.21421 0.48306 0.0
C270 C 0.7789 0.19682 0.46595 0.0
C271 C 0.74319 0.16048 0.46707 0.0
C272 C 0.84508 0.25311 0.48151 0.0
C273 C 0.87555 0.26218 0.46773 0.0
C274 C 0.84982 0.2812 0.49255 0.0
C275 C 0.81702 0.27328 0.5062 0.0
C276 C 0.77586 0.25589 0.49812 0.0
C277 C 0.74498 0.24843 0.51102 0.0
C278 C 0.75497 0.25851 0.53202 0.0
C279 C 0.79591 0.27617 0.54013 0.0
C280 C 0.82691 0.28366 0.52728 0.0
C281 C 0.98413 0.41074 0.44206 0.0
C282 C 1.01132 0.43915 0.45669 0.0
C283 C 0.95176 0.37566 0.4482 0.0
C284 C 0.94699 0.36612 0.46918 0.0
C285 C 0.97346 0.39386 0.48411 0.0
C286 C 1.00498 0.42998 0.47797 0.0
C287 C 0.91465 0.32703 0.47492 0.0
C288 C 0.88491 0.31775 0.48943 0.0
C289 C 0.91014 0.29852 0.46428 0.0
C290 C 0.9403 0.30579 0.44892 0.0
C291 C 0.98342 0.32742 0.45431 0.0
C292 C 1.01176 0.33579 0.43937 0.0
C293 C 0.99731 0.32253 0.41901 0.0
C294 C 0.95446 0.30066 0.41358 0.0
C295 C 0.926 0.29218 0.42846 0.0
H296 H 1.01931 0.3292 0.40745 0.0
H297 H 0.73104 0.25275 0.54199 0.0
H298 H 0.73876 0.81768 0.82971 0.0
H299 H 0.72267 0.85964 0.82708 0.0
H300 H 0.59284 0.77011 0.81197 0.0
H301 H 0.60866 0.7278 0.81473 0.0
H302 H 0.62477 0.82451 0.78431 0.0
H303 H 0.62394 0.81515 0.85903 0.0
H304 H 0.65289 0.81767 0.89415 0.0
H305 H 0.75802 0.92976 0.88569 0.0
H306 H 0.72998 0.9278 0.85042 0.0
H307 H 0.5613 0.93221 0.77661 0.0
H308 H 0.56583 0.88548 0.7899 0.0
H309 H 0.694 0.96918 0.81162 0.0
H310 H 0.68857 0.01583 0.79925 0.0
H311 H 0.65931 0.91543 0.83731 0.0
H312 H 0.66664 0.92614 0.76327 0.0
H313 H 0.64278 0.92664 0.72738 0.0
H314 H 0.53298 0.81552 0.73296 0.0
H315 H 0.55575 0.81458 0.76905 0.0
C316 C 0.7066 0.80678 0.82628 0.0
C317 C 0.67502 0.76942 0.82233 0.0
C318 C 0.69746 0.83083 0.82478 0.0
C319 C 0.65652 0.81798 0.81945 0.0
C320 C 0.62467 0.78058 0.81607 0.0
C321 C 0.63379 0.75649 0.81756 0.0
C322 C 0.64769 0.84386 0.81578 0.0
C323 C 0.63148 0.8439 0.79604 0.0
C324 C 0.65808 0.87008 0.83082 0.0
C325 C 0.67498 0.87124 0.85203 0.0
C326 C 0.65339 0.84026 0.8646 0.0
C327 C 0.66961 0.84161 0.88455 0.0
C328 C 0.7073 0.87384 0.89214 0.0
C329 C 0.72884 0.90481 0.8798 0.0
C330 C 0.71276 0.90361 0.85984 0.0
C331 C 0.58996 0.94043 0.78473 0.0
C332 C 0.62464 0.97732 0.78696 0.0
C333 C 0.5927 0.91385 0.79215 0.0
C334 C 0.63064 0.92382 0.80125 0.0
C335 C 0.66449 0.96083 0.80458 0.0
C336 C 0.66143 0.98743 0.79754 0.0
C337 C 0.63609 0.89592 0.80588 0.0
C338 C 0.652 0.89569 0.82568 0.0
C339 C 0.62627 0.86995 0.79073 0.0
C340 C 0.61267 0.87043 0.76896 0.0
C341 C 0.63724 0.9019 0.7569 0.0
C342 C 0.62392 0.90226 0.73652 0.0
C343 C 0.58633 0.87116 0.72791 0.0
C344 C 0.56203 0.83962 0.73966 0.0
C345 C 0.57512 0.83916 0.76009 0.0
H346 H 0.57609 0.87148 0.71212 0.0
H347 H 0.7198 0.87483 0.90759 0.0
H348 H 0.85935 0.48405 0.19375 0.0
H349 H 0.80451 0.48714 0.18418 0.0
H350 H 0.72693 0.37678 0.16049 0.0
H351 H 0.78606 0.37569 0.16742 0.0
H352 H 0.72694 0.41864 0.13409 0.0
H353 H 0.71054 0.40793 0.2093 0.0
H354 H 0.74068 0.42612 0.24527 0.0
H355 H 0.7896 0.53591 0.2328 0.0
H356 H 0.76028 0.51854 0.19676 0.0
H357 H 0.55807 0.42579 0.12135 0.0
H358 H 0.60121 0.40979 0.1357 0.0
H359 H 0.70558 0.52358 0.14521 0.0
H360 H 0.66268 0.53979 0.1301 0.0
H361 H 0.68509 0.47386 0.17938 0.0
H362 H 0.70912 0.49162 0.10731 0.0
H363 H 0.69193 0.48358 0.06964 0.0
H364 H 0.64184 0.37201 0.07364 0.0
H365 H 0.65727 0.37893 0.11153 0.0
C366 C 0.82993 0.45959 0.18751 0.0
C367 C 0.82626 0.42908 0.18192 0.0
C368 C 0.79836 0.46144 0.18202 0.0
C369 C 0.76077 0.43162 0.17254 0.0
C370 C 0.75554 0.39981 0.16824 0.0
C371 C 0.78865 0.39878 0.17258 0.0
C372 C 0.72946 0.43594 0.16529 0.0
C373 C 0.71653 0.42952 0.14412 0.0
C374 C 0.71811 0.45219 0.17821 0.0
C375 C 0.73288 0.4618 0.20038 0.0
C376 C 0.72743 0.43586 0.21429 0.0
C377 C 0.74455 0.44609 0.23467 0.0
C378 C 0.76694 0.48212 0.24133 0.0
C379 C 0.77209 0.50798 0.22767 0.0
C380 C 0.75507 0.49793 0.2073 0.0
C381 C 0.58982 0.44723 0.12717 0.0
C382 C 0.60731 0.48389 0.12517 0.0
C383 C 0.61441 0.43813 0.13494 0.0
C384 C 0.65629 0.46565 0.14101 0.0
C385 C 0.67315 0.50225 0.14031 0.0
C386 C 0.64878 0.51143 0.13207 0.0
C387 C 0.68228 0.45598 0.1485 0.0
C388 C 0.6943 0.4617 0.16958 0.0
C389 C 0.6935 0.43999 0.13536 0.0
C390 C 0.68349 0.43559 0.1125 0.0
C391 C 0.69358 0.46511 0.10031 0.0
C392 C 0.68431 0.4608 0.07886 0.0
C393 C 0.66558 0.42725 0.06927 0.0
C394 C 0.65612 0.39794 0.08111 0.0
C395 C 0.66502 0.40203 0.10261 0.0
H396 H 0.65858 0.424 0.05265 0.0
H397 H 0.78036 0.49 0.25707 0.0
H398 H 0.5384 0.8955 0.48299 0.0
H399 H 0.47419 0.83228 0.48224 0.0
H400 H 0.4 0.86867 0.47648 0.0
H401 H 0.4639 0.93187 0.47717 0.0
H402 H 0.37087 0.8155 0.50572 0.0
H403 H 0.41295 0.83455 0.43487 0.0
H404 H 0.46181 0.85108 0.40748 0.0
H405 H 0.46764 0.76648 0.4272 0.0
H406 H 0.41927 0.74978 0.45491 0.0
H407 H 0.17024 0.65574 0.47522 0.0
H408 H 0.23833 0.71635 0.47685 0.0
H409 H 0.30039 0.66856 0.47748 0.0
H410 H 0.23189 0.60756 0.47576 0.0
H411 H 0.33885 0.72604 0.45234 0.0
H412 H 0.296 0.70448 0.52174 0.0
H413 H 0.25156 0.68895 0.55116 0.0
H414 H 0.25095 0.77811 0.53661 0.0
H415 H 0.29485 0.79386 0.50689 0.0
C416 C 0.50845 0.89013 0.48153 0.0
C417 C 0.50648 0.91896 0.48008 0.0
C418 C 0.4717 0.85387 0.48102 0.0
C419 C 0.43212 0.84557 0.47914 0.0
C420 C 0.43009 0.87429 0.4779 0.0
C421 C 0.46677 0.9105 0.47823 0.0
C422 C 0.39271 0.80708 0.47873 0.0
C423 C 0.36359 0.79606 0.49388 0.0
C424 C 0.38388 0.78121 0.4638 0.0
C425 C 0.41282 0.79116 0.44709 0.0
C426 C 0.42492 0.81966 0.43347 0.0
C427 C 0.45248 0.82903 0.41787 0.0
C428 C 0.4679 0.8099 0.41564 0.0
C429 C 0.45572 0.78131 0.42897 0.0
C430 C 0.42822 0.77186 0.44462 0.0
C431 C 0.19838 0.65812 0.4754 0.0
C432 C 0.19553 0.62677 0.47481 0.0
C433 C 0.23739 0.69285 0.47657 0.0
C434 C 0.27479 0.69728 0.47749 0.0
C435 C 0.27212 0.66601 0.47674 0.0
C436 C 0.23293 0.63112 0.47566 0.0
C437 C 0.31636 0.73455 0.4791 0.0
C438 C 0.34601 0.74536 0.46423 0.0
C439 C 0.32594 0.76019 0.49446 0.0
C440 C 0.29831 0.75006 0.5119 0.0
C441 C 0.28593 0.72048 0.52463 0.0
C442 C 0.26094 0.71171 0.54141 0.0
C443 C 0.24832 0.73245 0.54571 0.0
C444 C 0.26065 0.76201 0.53323 0.0
C445 C 0.28559 0.77086 0.51641 0.0
H446 H 0.22909 0.72569 0.55876 0.0
H447 H 0.48921 0.81718 0.40354 0.0
H448 H 0.60147 0.33507 0.85996 0.0
H449 H 0.60761 0.28745 0.85467 0.0
H450 H 0.68423 0.34547 0.80243 0.0
H451 H 0.67785 0.39314 0.80756 0.0
H452 H 0.62379 0.27819 0.79183 0.0
H453 H 0.72423 0.33543 0.84923 0.0
H454 H 0.75178 0.36186 0.88446 0.0
H455 H 0.65485 0.25925 0.91108 0.0
H456 H 0.62637 0.2323 0.876 0.0
H457 H 0.65212 0.14801 0.77321 0.0
H458 H 0.66868 0.20585 0.78288 0.0
H459 H 0.58868 0.15432 0.8347 0.0
H460 H 0.57319 0.09671 0.82544 0.0
H461 H 0.65785 0.22167 0.84545 0.0
H462 H 0.55399 0.16678 0.78834 0.0
H463 H 0.52597 0.13989 0.75322 0.0
H464 H 0.62956 0.23887 0.72633 0.0
H465 H 0.6585 0.26618 0.76133 0.0
C466 C 0.62044 0.33813 0.84764 0.0
C467 C 0.63898 0.36779 0.8341 0.0
C468 C 0.62399 0.31087 0.84464 0.0
C469 C 0.64663 0.31292 0.82823 0.0
C470 C 0.66652 0.34323 0.81518 0.0
C471 C 0.66274 0.37039 0.81808 0.0
C472 C 0.64617 0.2819 0.8235 0.0
C473 C 0.63215 0.26638 0.80347 0.0
C474 C 0.65592 0.26577 0.83881 0.0
C475 C 0.67297 0.28191 0.85995 0.0
C476 C 0.70859 0.31856 0.86259 0.0
C477 C 0.72441 0.33363 0.88254 0.0
C478 C 0.70503 0.31227 0.89999 0.0
C479 C 0.66982 0.27577 0.89754 0.0
C480 C 0.65386 0.26058 0.87762 0.0
C481 C 0.63877 0.14928 0.78689 0.0
C482 C 0.61188 0.11808 0.79877 0.0
C483 C 0.64801 0.18223 0.79233 0.0
C484 C 0.62957 0.18435 0.8094 0.0
C485 C 0.6034 0.15338 0.82153 0.0
C486 C 0.59447 0.12048 0.8162 0.0
C487 C 0.63543 0.21813 0.81385 0.0
C488 C 0.65015 0.23395 0.8338 0.0
C489 C 0.62628 0.23461 0.7985 0.0
C490 C 0.60862 0.21837 0.77745 0.0
C491 C 0.57092 0.18272 0.77494 0.0
C492 C 0.55486 0.16742 0.75506 0.0
C493 C 0.57604 0.18762 0.73756 0.0
C494 C 0.61323 0.22323 0.7399 0.0
C495 C 0.62946 0.23864 0.75975 0.0
H496 H 0.56357 0.17572 0.72218 0.0
H497 H 0.71733 0.32398 0.91542 0.0
H498 H 0.5759 0.81212 0.47509 0.0
H499 H 0.56629 0.75503 0.47599 0.0
H500 H 0.65623 0.7965 0.52804 0.0
H501 H 0.66573 0.85309 0.52734 0.0
H502 H 0.67217 0.7707 0.4929 0.0
H503 H 0.56496 0.73768 0.53873 0.0
H504 H 0.50082 0.72629 0.54954 0.0
H505 H 0.42845 0.645 0.50149 0.0
H506 H 0.49241 0.65643 0.49012 0.0
H507 H 0.66498 0.63845 0.54725 0.0
H508 H 0.66326 0.68617 0.53377 0.0
H509 H 0.5614 0.60981 0.49034 0.0
H510 H 0.56238 0.56112 0.50439 0.0
H511 H 0.54576 0.64898 0.51281 0.0
H512 H 0.65801 0.67785 0.47224 0.0
H513 H 0.72421 0.68862 0.46677 0.0
H514 H 0.78954 0.77819 0.51015 0.0
H515 H 0.72371 0.76774 0.51606 0.0
C516 C 0.5932 0.80876 0.48683 0.0
C517 C 0.62146 0.83688 0.5012 0.0
C518 C 0.5876 0.77624 0.48736 0.0
C519 C 0.61066 0.77182 0.50205 0.0
C520 C 0.63821 0.79957 0.5166 0.0
C521 C 0.64336 0.83171 0.51628 0.0
C522 C 0.6083 0.7393 0.50175 0.0
C523 C 0.6445 0.74399 0.49714 0.0
C524 C 0.57187 0.70452 0.50692 0.0
C525 C 0.53363 0.69847 0.51328 0.0
C526 C 0.53552 0.71786 0.53021 0.0
C527 C 0.49916 0.71127 0.53651 0.0
C528 C 0.46061 0.68509 0.52613 0.0
C529 C 0.45836 0.66541 0.50944 0.0
C530 C 0.49467 0.67196 0.50305 0.0
C531 C 0.6425 0.6319 0.53466 0.0
C532 C 0.61357 0.5962 0.52692 0.0
C533 C 0.64178 0.65923 0.52684 0.0
C534 C 0.61257 0.65162 0.51087 0.0
C535 C 0.58436 0.61617 0.50258 0.0
C536 C 0.58506 0.58856 0.51049 0.0
C537 C 0.60997 0.68049 0.50436 0.0
C538 C 0.57293 0.67529 0.50776 0.0
C539 C 0.64596 0.71508 0.49849 0.0
C540 C 0.68586 0.722 0.49457 0.0
C541 C 0.68648 0.6998 0.48064 0.0
C542 C 0.72395 0.70585 0.47747 0.0
C543 C 0.76105 0.73408 0.4881 0.0
C544 C 0.7608 0.75639 0.50189 0.0
C545 C 0.72343 0.75049 0.5051 0.0
H546 H 0.79 0.73866 0.48565 0.0
H547 H 0.43246 0.67993 0.53108 0.0
H548 H 0.82082 0.63003 0.82591 0.0
H549 H 0.88025 0.62905 0.82932 0.0
H550 H 0.79604 0.51531 0.84398 0.0
H551 H 0.73691 0.51656 0.84108 0.0
H552 H 0.8596 0.53808 0.8662 0.0
H553 H 0.85496 0.5595 0.79382 0.0
H554 H 0.85463 0.59088 0.76271 0.0
H555 H 0.9755 0.68873 0.7823 0.0
H556 H 0.97632 0.65803 0.81369 0.0
H557 H 1.00614 0.50276 0.85997 0.0
H558 H 0.94918 0.50601 0.85275 0.0
H559 H 1.03934 0.62055 0.84137 0.0
H560 H 0.0967 0.61686 0.84811 0.0
H561 H 0.9743 0.59962 0.8173 0.0
H562 H 0.97778 0.57345 0.88943 0.0
H563 H 0.9745 0.53955 0.91991 0.0
H564 H 0.84996 0.44679 0.89999 0.0
H565 H 0.85334 0.47965 0.86877 0.0
C566 C 0.81457 0.6046 0.82978 0.0
C567 C 0.77274 0.57335 0.83302 0.0
C568 C 0.84921 0.60392 0.8316 0.0
C569 C 0.84428 0.57186 0.8366 0.0
C570 C 0.80243 0.54078 0.84005 0.0
C571 C 0.76787 0.54147 0.83827 0.0
C572 C 0.88183 0.57055 0.83874 0.0
C573 C 0.88405 0.55117 0.85513 0.0
C574 C 0.91576 0.58804 0.82503 0.0
C575 C 0.91551 0.60658 0.8062 0.0
C576 C 0.88136 0.58778 0.79156 0.0
C577 C 0.88109 0.60543 0.77387 0.0
C578 C 0.91498 0.6418 0.77056 0.0
C579 C 0.94925 0.66057 0.78491 0.0
C580 C 0.94965 0.64305 0.80265 0.0
C581 C 1.01424 0.52863 0.85532 0.0
C582 C 0.05721 0.55918 0.85413 0.0
C583 C 0.981 0.53073 0.85155 0.0
C584 C 0.98824 0.56384 0.8469 0.0
C585 C 1.03122 0.59431 0.84494 0.0
C586 C 0.06468 0.59213 0.84863 0.0
C587 C 0.95166 0.56655 0.84464 0.0
C588 C 0.94973 0.58635 0.8283 0.0
C589 C 0.91749 0.54896 0.85824 0.0
C590 C 0.91602 0.5289 0.87666 0.0
C591 C 0.94992 0.54567 0.8914 0.0
C592 C 0.94797 0.52659 0.90885 0.0
C593 C 0.91185 0.49104 0.91199 0.0
C594 C 0.87788 0.47431 0.89753 0.0
C595 C 0.8799 0.49308 0.8799 0.0
H596 H 0.90989 0.47634 0.92561 0.0
H597 H 0.91472 0.65542 0.75685 0.0
H598 H 0.2121 0.59275 0.17948 0.0
H599 H 0.27561 0.6569 0.18259 0.0
H600 H 0.21433 0.68834 0.1434 0.0
H601 H 0.15141 0.62516 0.14051 0.0
H602 H 0.29434 0.7215 0.13238 0.0
H603 H 0.22071 0.70009 0.19381 0.0
H604 H 0.18733 0.66961 0.22649 0.0
H605 H 0.30439 0.70039 0.25268 0.0
H606 H 0.33837 0.73062 0.21999 0.0
H607 H 0.40807 0.91004 0.14768 0.0
H608 H 0.35538 0.84395 0.14545 0.0
H609 H 0.42618 0.83296 0.19233 0.0
H610 H 0.47823 0.89939 0.19516 0.0
H611 H 0.3471 0.78739 0.20009 0.0
H612 H 0.4212 0.81356 0.13769 0.0
H613 H 0.45124 0.84323 0.1043 0.0
H614 H 0.32958 0.8032 0.07943 0.0
H615 H 0.29891 0.77362 0.11272 0.0
C616 C 0.21252 0.61341 0.17139 0.0
C617 C 0.17675 0.60397 0.15982 0.0
C618 C 0.24863 0.65001 0.17328 0.0
C619 C 0.24962 0.6775 0.16334 0.0
C620 C 0.21436 0.66773 0.15124 0.0
C621 C 0.17834 0.63154 0.14963 0.0
C622 C 0.2869 0.71665 0.16536 0.0
C623 C 0.30585 0.73595 0.14718 0.0
C624 C 0.30232 0.73542 0.18471 0.0
C625 C 0.28195 0.71713 0.20434 0.0
C626 C 0.23924 0.7 0.20645 0.0
C627 C 0.22023 0.68285 0.22499 0.0
C628 C 0.24368 0.68291 0.24162 0.0
C629 C 0.28624 0.70026 0.23976 0.0
C630 C 0.30539 0.71741 0.22123 0.0
C631 C 0.41275 0.89351 0.15726 0.0
C632 C 0.44808 0.90999 0.17108 0.0
C633 C 0.38262 0.85562 0.15594 0.0
C634 C 0.38711 0.83309 0.16831 0.0
C635 C 0.42209 0.84954 0.18241 0.0
C636 C 0.45208 0.88756 0.18389 0.0
C637 C 0.35453 0.79257 0.16699 0.0
C638 C 0.33627 0.77295 0.1853 0.0
C639 C 0.33933 0.77346 0.14769 0.0
C640 C 0.35786 0.79162 0.12775 0.0
C641 C 0.40094 0.81133 0.12515 0.0
C642 C 0.41805 0.82807 0.10623 0.0
C643 C 0.39235 0.82516 0.08977 0.0
C644 C 0.34946 0.80546 0.09219 0.0
C645 C 0.3322 0.78866 0.11106 0.0
H646 H 0.40566 0.83812 0.07513 0.0
H647 H 0.22891 0.66962 0.25597 0.0
H648 H 0.63296 0.21986 0.51145 0.0
H649 H 0.64129 0.27488 0.51856 0.0
H650 H 0.6284 0.28801 0.45293 0.0
H651 H 0.61853 0.23234 0.44565 0.0
H652 H 0.68828 0.35621 0.47702 0.0
H653 H 0.54605 0.24604 0.47466 0.0
H654 H 0.48892 0.18255 0.48358 0.0
H655 H 0.50776 0.21294 0.54801 0.0
H656 H 0.56575 0.27656 0.53952 0.0
H657 H 0.60406 0.45173 0.48151 0.0
H658 H 0.62024 0.41105 0.47365 0.0
H659 H 0.61299 0.38375 0.53857 0.0
H660 H 0.59624 0.42403 0.54635 0.0
H661 H 0.56612 0.32418 0.51415 0.0
H662 H 0.70696 0.43682 0.51531 0.0
H663 H 0.76256 0.5 0.50511 0.0
H664 H 0.74409 0.46546 0.44154 0.0
H665 H 0.68796 0.4021 0.45133 0.0
C666 C 0.63222 0.23457 0.49849 0.0
C667 C 0.62404 0.22117 0.47801 0.0
C668 C 0.63749 0.26622 0.50258 0.0
C669 C 0.63501 0.28517 0.48626 0.0
C670 C 0.63055 0.27376 0.4657 0.0
C671 C 0.62488 0.24188 0.46159 0.0
C672 C 0.63065 0.31325 0.49088 0.0
C673 C 0.66153 0.34933 0.48501 0.0
C674 C 0.59573 0.30408 0.50134 0.0
C675 C 0.56063 0.26595 0.50649 0.0
C676 C 0.53834 0.23911 0.49076 0.0
C677 C 0.50576 0.20311 0.49573 0.0
C678 C 0.49482 0.19369 0.51636 0.0
C679 C 0.51637 0.22027 0.53205 0.0
C680 C 0.54911 0.2563 0.52717 0.0
C681 C 0.60606 0.43704 0.49404 0.0
C682 C 0.59803 0.44018 0.51444 0.0
C683 C 0.61564 0.41412 0.48959 0.0
C684 C 0.61791 0.39445 0.50554 0.0
C685 C 0.61123 0.39857 0.52603 0.0
C686 C 0.60161 0.42143 0.53046 0.0
C687 C 0.6242 0.36758 0.50074 0.0
C688 C 0.59325 0.3314 0.50637 0.0
C689 C 0.65885 0.37676 0.48991 0.0
C690 C 0.69301 0.41475 0.48404 0.0
C691 C 0.71457 0.44272 0.49914 0.0
C692 C 0.74621 0.47857 0.49343 0.0
C693 C 0.75679 0.48675 0.47268 0.0
C694 C 0.73584 0.45908 0.45761 0.0
C695 C 0.70415 0.42319 0.46323 0.0
H696 H 0.78126 0.51452 0.46829 0.0
H697 H 0.46955 0.1658 0.52018 0.0
H698 H 0.57876 0.62325 0.82575 0.0
H699 H 0.51845 0.62238 0.82819 0.0
H700 H 0.44178 0.50952 0.84487 0.0
H701 H 0.50186 0.51017 0.84185 0.0
H702 H 0.39148 0.51408 0.82337 0.0
H703 H 0.48514 0.59378 0.88068 0.0
H704 H 0.55185 0.64725 0.89669 0.0
H705 H 0.54568 0.71781 0.85624 0.0
H706 H 0.47897 0.66473 0.83999 0.0
H707 H 0.21894 0.50907 0.85904 0.0
H708 H 0.27537 0.50548 0.85259 0.0
H709 H 0.35687 0.61919 0.83787 0.0
H710 H 0.30112 0.62254 0.84414 0.0
H711 H 0.40452 0.61335 0.85838 0.0
H712 H 0.3134 0.5381 0.80124 0.0
H713 H 0.25061 0.4872 0.78141 0.0
H714 H 0.25411 0.41099 0.81727 0.0
H715 H 0.31671 0.46143 0.83746 0.0
C716 C 0.54921 0.59807 0.82999 0.0
C717 C 0.54655 0.56684 0.83361 0.0
C718 C 0.51403 0.59763 0.83164 0.0
C719 C 0.47392 0.56602 0.83727 0.0
C720 C 0.47127 0.53471 0.84059 0.0
C721 C 0.50638 0.53512 0.8389 0.0
C722 C 0.43521 0.56524 0.83947 0.0
C723 C 0.39466 0.53571 0.83141 0.0
C724 C 0.43743 0.59348 0.84919 0.0
C725 C 0.47729 0.62531 0.85904 0.0
C726 C 0.49811 0.6207 0.87518 0.0
C727 C 0.53588 0.65093 0.8843 0.0
C728 C 0.55302 0.6859 0.87746 0.0
C729 C 0.53236 0.69072 0.86153 0.0
C730 C 0.49453 0.66059 0.85239 0.0
C731 C 0.24825 0.53308 0.85363 0.0
C732 C 0.25356 0.56588 0.85144 0.0
C733 C 0.28139 0.53115 0.85005 0.0
C734 C 0.32221 0.56208 0.84451 0.0
C735 C 0.32692 0.59444 0.84208 0.0
C736 C 0.29397 0.59623 0.8454 0.0
C737 C 0.36043 0.56206 0.84232 0.0
C738 C 0.40103 0.59152 0.85041 0.0
C739 C 0.35827 0.53399 0.83234 0.0
C740 C 0.31929 0.50354 0.82112 0.0
C741 C 0.30038 0.51047 0.80513 0.0
C742 C 0.26495 0.4817 0.79375 0.0
C743 C 0.24826 0.44588 0.79815 0.0
C744 C 0.26696 0.43874 0.81394 0.0
C745 C 0.30241 0.46741 0.82536 0.0
H746 H 0.22093 0.42366 0.78927 0.0
H747 H 0.58229 0.70925 0.88452 0.0
H748 H 0.97072 0.36385 0.17103 0.0
H749 H 0.90564 0.30296 0.17593 0.0
H750 H 0.83555 0.33456 0.14636 0.0
H751 H 0.90105 0.39679 0.14295 0.0
H752 H 0.79314 0.29193 0.17603 0.0
H753 H 0.86249 0.28084 0.12139 0.0
H754 H 0.92195 0.28826 0.10672 0.0
H755 H 0.92032 0.22415 0.15584 0.0
H756 H 0.86122 0.21669 0.17091 0.0
H757 H 0.60727 0.10507 0.16694 0.0
H758 H 0.66772 0.16708 0.15746 0.0
H759 H 0.75121 0.15211 0.18973 0.0
H760 H 0.69131 0.09058 0.19888 0.0
H761 H 0.7837 0.18612 0.15539 0.0
H762 H 0.71997 0.19803 0.21117 0.0
H763 H 0.66443 0.19203 0.22935 0.0
H764 H 0.65841 0.25489 0.1822 0.0
H765 H 0.7134 0.26068 0.16351 0.0
C766 C 0.94147 0.35775 0.16538 0.0
C767 C 0.94108 0.38488 0.15613 0.0
C768 C 0.90411 0.32273 0.1681 0.0
C769 C 0.86537 0.31331 0.16076 0.0
C770 C 0.86487 0.34072 0.15191 0.0
C771 C 0.90232 0.37626 0.14983 0.0
C772 C 0.8257 0.27504 0.16248 0.0
C773 C 0.79085 0.26885 0.1711 0.0
C774 C 0.82267 0.24452 0.1567 0.0
C775 C 0.85756 0.24834 0.1473 0.0
C776 C 0.87488 0.26838 0.12906 0.0
C777 C 0.90853 0.27261 0.12069 0.0
C778 C 0.92492 0.25672 0.13035 0.0
C779 C 0.9076 0.23644 0.14836 0.0
C780 C 0.87398 0.23214 0.1568 0.0
C781 C 0.63867 0.11489 0.17152 0.0
C782 C 0.64473 0.09304 0.18353 0.0
C783 C 0.67315 0.15044 0.16636 0.0
C784 C 0.71418 0.16465 0.17313 0.0
C785 C 0.72006 0.14203 0.18432 0.0
C786 C 0.68581 0.10679 0.18951 0.0
C787 C 0.75132 0.20303 0.16903 0.0
C788 C 0.78571 0.20922 0.15998 0.0
C789 C 0.75406 0.2334 0.17475 0.0
C790 C 0.72035 0.22927 0.18574 0.0
C791 C 0.70642 0.21015 0.20452 0.0
C792 C 0.67511 0.20688 0.21495 0.0
C793 C 0.65777 0.22293 0.20689 0.0
C794 C 0.67175 0.24233 0.18838 0.0
C795 C 0.70296 0.24559 0.17785 0.0
H796 H 0.63362 0.22045 0.21502 0.0
H797 H 0.95103 0.26008 0.12387 0.0
H798 H 0.06434 0.46114 0.09575 0.0
H799 H 0.0796 0.46557 0.0587 0.0
H800 H 0.08857 0.56181 0.05356 0.0
H801 H 0.07145 0.55631 0.08965 0.0
H802 H 1.04061 0.51912 0.02406 0.0
H803 H 0.1754 0.55897 0.05293 0.0
H804 H 0.22097 0.55108 0.07443 0.0
H805 H 0.17729 0.45702 0.03815 0.0
H806 H 0.13096 0.46403 0.01663 0.0
H807 H 0.11625 0.58761 0.92533 0.0
H808 H 0.11041 0.57926 0.96287 0.0
H809 H 0.10592 0.48568 0.95759 0.0
H810 H 0.11306 0.49472 0.91993 0.0
H811 H 0.14852 0.51975 0.99195 0.0
H812 H 1.0144 0.479 0.96399 0.0
H813 H 0.95991 0.47903 0.94601 0.0
H814 H 0.99874 0.57171 0.9823 0.0
H815 H 0.05384 0.57226 0.00048 0.0
C816 C 0.06997 0.48332 0.08665 0.0
C817 C 0.06618 0.50811 0.09554 0.0
C818 C 0.07892 0.48601 0.06549 0.0
C819 C 0.08528 0.51409 0.0531 0.0
C820 C 0.08338 0.53963 0.06249 0.0
C821 C 0.07358 0.53647 0.08324 0.0
C822 C 0.09068 0.51617 0.03008 0.0
C823 C 0.06485 0.51993 0.01719 0.0
C824 C 0.1208 0.51545 0.02072 0.0
C825 C 0.14942 0.51182 0.03331 0.0
C826 C 0.17535 0.53649 0.04961 0.0
C827 C 0.20132 0.53219 0.06179 0.0
C828 C 0.20194 0.50351 0.05769 0.0
C829 C 0.17673 0.47918 0.04133 0.0
C830 C 0.15064 0.48333 0.02913 0.0
C831 C 0.11392 0.56518 0.93213 0.0
C832 C 0.11466 0.54161 0.9195 0.0
C833 C 0.11047 0.56032 0.95369 0.0
C834 C 0.10668 0.53124 0.96327 0.0
C835 C 0.10861 0.50826 0.95075 0.0
C836 C 0.11265 0.51342 0.92916 0.0
C837 C 0.09961 0.52448 0.98615 0.0
C838 C 0.12468 0.51936 -0.00108 0.0
C839 C 0.06877 0.52402 -0.00439 0.0
C840 C 1.03831 0.52578 0.98347 0.0
C841 C 1.01171 0.49971 0.96791 0.0
C842 C 0.98055 0.49953 0.95776 0.0
C843 C 0.97563 0.52527 0.96308 0.0
C844 C 1.00246 0.5517 0.97827 0.0
C845 C 1.03364 0.55195 0.98849 0.0
H846 H 0.95093 0.5247 0.95554 0.0
H847 H 0.22201 0.50018 0.06717 0.0
H848 H 0.67519 0.08914 0.42029 0.0
H849 H 0.65952 0.08749 0.38262 0.0
H850 H 0.5651 0.97105 0.38483 0.0
H851 H 0.57936 0.97286 0.42252 0.0
H852 H 0.63378 1.00429 0.35323 0.0
H853 H 0.52782 1.00832 0.37975 0.0
H854 H 0.50362 0.03493 0.40035 0.0
H855 H 0.57789 0.13342 0.3655 0.0
H856 H 0.60329 0.10766 0.34498 0.0
H857 H 0.55331 0.9671 0.24987 0.0
H858 H 0.55784 0.96703 0.28772 0.0
H859 H 0.60649 0.07886 0.28922 0.0
H860 H 0.5982 0.07807 0.25154 0.0
H861 H 0.561 0.04837 0.31968 0.0
H862 H 0.67044 0.05061 0.29447 0.0
H863 H 0.70144 0.02991 0.27395 0.0
H864 H 0.63076 0.92825 0.306 0.0
H865 H 0.59888 0.94816 0.32652 0.0
C866 C 0.65094 0.06334 0.41265 0.0
C867 C 0.62842 0.03112 0.42408 0.0
C868 C 0.64197 0.06241 0.39126 0.0
C869 C 0.61118 0.02913 0.38103 0.0
C870 C 0.58885 0.99695 0.3925 0.0
C871 C 0.59693 0.99802 0.41394 0.0
C872 C 0.60325 0.02755 0.35823 0.0
C873 C 0.61743 0.0135 0.34584 0.0
C874 C 0.58323 0.04077 0.34869 0.0
C875 C 0.56796 0.05624 0.36104 0.0
C876 C 0.53946 0.03583 0.37666 0.0
C877 C 0.52542 0.05072 0.38829 0.0
C878 C 0.53935 0.0859 0.3843 0.0
C879 C 0.56724 0.10622 0.36862 0.0
C880 C 0.58147 0.09148 0.35699 0.0
C881 C 0.56402 0.99145 0.25819 0.0
C882 C 0.57603 0.0228 0.24746 0.0
C883 C 0.56728 0.99156 0.27993 0.0
C884 C 0.58379 0.02331 0.29143 0.0
C885 C 0.59412 0.05411 0.2808 0.0
C886 C 0.58992 0.05375 0.25913 0.0
C887 C 0.59138 0.02486 0.31442 0.0
C888 C 0.57734 0.03906 0.32693 0.0
C889 C 0.6126 0.01268 0.32407 0.0
C890 C 0.63198 1.00074 0.31189 0.0
C891 C 0.66132 0.02375 0.29705 0.0
C892 C 0.67906 0.01217 0.28543 0.0
C893 C 0.66799 0.97775 0.28864 0.0
C894 C 0.63925 0.95488 0.30352 0.0
C895 C 0.62136 0.96631 0.31516 0.0
H896 H 0.68175 0.96883 0.27962 0.0
H897 H 0.52841 0.09737 0.3933 0.0
H898 H 0.64751 0.60647 0.76832 0.0
H899 H 0.64955 0.61037 0.73021 0.0
H900 H 0.6562 0.52241 0.72863 0.0
H901 H 0.65488 0.51908 0.76661 0.0
H902 H 0.70438 0.57181 0.70022 0.0
H903 H 0.56331 0.50759 0.72221 0.0
H904 H 0.50789 0.50057 0.7412 0.0
H905 H 0.52779 0.58978 0.70774 0.0
H906 H 0.58388 0.59774 0.68881 0.0
H907 H 0.59456 0.48978 0.59924 0.0
H908 H 0.6046 0.49676 0.63718 0.0
H909 H 0.65791 0.60937 0.63202 0.0
H910 H 0.65207 0.60405 0.59445 0.0
H911 H 0.58118 0.55081 0.66309 0.0
H912 H 0.72534 0.61631 0.64255 0.0
H913 H 0.77861 0.62083 0.623 0.0
H914 H 0.75025 0.52642 0.65383 0.0
H915 H 0.69596 0.52082 0.67317 0.0
C916 C 0.6505 0.58873 0.75974 0.0
C917 C 0.65126 0.56262 0.77008 0.0
C918 C 0.65135 0.59074 0.73806 0.0
C919 C 0.65238 0.56628 0.72659 0.0
C920 C 0.65538 0.5415 0.73716 0.0
C921 C 0.65461 0.53958 0.75877 0.0
C922 C 0.64728 0.56442 0.70362 0.0
C923 C 0.67736 0.56712 0.69216 0.0
C924 C 0.61214 0.55853 0.69305 0.0
C925 C 0.57814 0.55354 0.70428 0.0
C926 C 0.5561 0.52589 0.71902 0.0
C927 C 0.52455 0.52173 0.72976 0.0
C928 C 0.51442 0.54479 0.72572 0.0
C929 C 0.53574 0.57199 0.71089 0.0
C930 C 0.56742 0.57635 0.70015 0.0
C931 C 0.60904 0.51619 0.60609 0.0
C932 C 0.62192 0.54615 0.59355 0.0
C933 C 0.6143 0.51998 0.62777 0.0
C934 C 0.63171 0.55352 0.63721 0.0
C935 C 0.64409 0.58323 0.62491 0.0
C936 C 0.64015 0.57986 0.60335 0.0
C937 C 0.63812 0.55807 0.65997 0.0
C938 C 0.60826 0.55579 0.67128 0.0
C939 C 0.6733 0.56425 0.67043 0.0
C940 C 0.70611 0.56775 0.659 0.0
C941 C 0.73001 0.59618 0.64491 0.0
C942 C 0.76047 0.59901 0.63392 0.0
C943 C 0.76767 0.57382 0.63709 0.0
C944 C 0.74451 0.54582 0.65132 0.0
C945 C 0.71386 0.54278 0.66229 0.0
H946 H 0.79131 0.57607 0.62858 0.0
H947 H 0.48997 0.54151 0.73405 0.0
H948 H 0.66455 0.03303 0.54107 0.0
H949 H 0.67045 0.02683 0.57901 0.0
H950 H 0.56939 0.03102 0.58693 0.0
H951 H 0.56377 0.03746 0.54968 0.0
H952 H 0.63831 0.08118 0.61055 0.0
H953 H 0.55732 0.9536 0.59294 0.0
H954 H 0.542 0.89873 0.57762 0.0
H955 H 0.64899 0.92039 0.61146 0.0
H956 H 0.66549 0.97583 0.62669 0.0
H957 H 0.5793 0.03931 0.71413 0.0
H958 H 0.5804 0.03844 0.67619 0.0
H959 H 0.67481 0.02384 0.68157 0.0
H960 H 0.67292 0.02372 0.71946 0.0
H961 H 0.61969 0.98185 0.65141 0.0
H962 H 0.69881 0.10759 0.67014 0.0
H963 H 0.71171 0.1604 0.6871 0.0
H964 H 0.60751 0.14118 0.65155 0.0
H965 H 0.59355 0.08791 0.63463 0.0
C966 C 0.64334 0.0321 0.55096 0.0
C967 C 0.61397 0.03608 0.54245 0.0
C968 C 0.64663 0.02847 0.57259 0.0
C969 C 0.62042 0.02861 0.58584 0.0
C970 C 0.59015 0.03111 0.57709 0.0
C971 C 0.58706 0.03491 0.55575 0.0
C972 C 0.62619 0.02969 0.60889 0.0
C973 C 0.63401 0.05929 0.61945 0.0
C974 C 0.62207 1.0018 0.62056 0.0
C975 C 0.61315 0.96935 0.61063 0.0
C976 C 0.57808 0.94709 0.59682 0.0
C977 C 0.56905 0.91576 0.58822 0.0
C978 C 0.59464 0.90619 0.59346 0.0
C979 C 0.62932 0.92793 0.60732 0.0
C980 C 0.63855 0.95934 0.61591 0.0
C981 C 0.6004 0.03612 0.70718 0.0
C982 C 0.62611 0.03172 0.71972 0.0
C983 C 0.60107 0.03562 0.68551 0.0
C984 C 0.62818 0.03162 0.67596 0.0
C985 C 0.65362 0.02694 0.68851 0.0
C986 C 0.65256 0.02695 0.71016 0.0
C987 C 0.63028 0.0327 0.65292 0.0
C988 C 0.62443 1.00385 0.64245 0.0
C989 C 0.63625 0.06128 0.64121 0.0
C990 C 0.64499 0.09361 0.65121 0.0
C991 C 0.67851 0.11451 0.66602 0.0
C992 C 0.68601 0.14453 0.67563 0.0
C993 C 0.66041 0.1541 0.67043 0.0
C994 C 0.62731 0.13373 0.65558 0.0
C995 C 0.61961 0.10364 0.64596 0.0
H996 H 0.66626 0.17734 0.67789 0.0
H997 H 0.58749 0.88185 0.58686 0.0
H998 H 0.72808 0.59733 0.89921 0.0
H999 H 0.70839 0.57213 0.9343 0.0
H1000 H 0.57766 0.51071 0.91519 0.0
H1001 H 0.5968 0.53502 0.88024 0.0
H1002 H 0.61138 0.56313 0.94995 0.0
H1003 H 0.59751 0.46082 0.92549 0.0
H1004 H 0.61834 0.42811 0.90873 0.0
H1005 H 0.72308 0.4752 0.95271 0.0
H1006 H 0.70272 0.50807 0.96985 0.0
H1007 H 0.51973 0.45834 0.04114 0.0
H1008 H 0.53836 0.46663 0.0051 0.0
H1009 H 0.66815 0.55077 0.02354 0.0
H1010 H 0.64966 0.54574 0.05951 0.0
H1011 H 0.63205 0.48267 0.98896 0.0
H1012 H 0.64794 0.59114 0.01037 0.0
H1013 H 0.62125 0.61811 0.02834 0.0
H1014 H 0.50889 0.55669 0.9889 0.0
H1015 H 0.53441 0.52838 0.97116 0.0
C1016 C 0.69523 0.57811 0.90253 0.0
C1017 C 0.66391 0.56831 0.88733 0.0
C1018 C 0.68409 0.56359 0.92236 0.0
C1019 C 0.64172 0.53962 0.92697 0.0
C1020 C 0.61045 0.52902 0.91163 0.0
C1021 C 0.62148 0.54305 0.89182 0.0
C1022 C 0.63022 0.52942 0.94841 0.0
C1023 C 0.61555 0.54531 0.95844 0.0
C1024 C 0.63609 0.50641 0.95924 0.0
C1025 C 0.64897 0.48735 0.94875 0.0
C1026 C 0.62531 0.46459 0.93142 0.0
C1027 C 0.63694 0.44592 0.92189 0.0
C1028 C 0.67227 0.44988 0.92949 0.0
C1029 C 0.69584 0.47229 0.94677 0.0
C1030 C 0.68419 0.49085 0.95645 0.0
C1031 C 0.55214 0.47927 0.03762 0.0
C1032 C 0.58306 0.5021 0.05321 0.0
C1033 C 0.56273 0.48321 0.0171 0.0
C1034 C 0.60442 0.5091 0.01207 0.0
C1035 C 0.63581 0.53048 0.02751 0.0
C1036 C 0.62511 0.52755 0.04796 0.0
C1037 C 0.61427 0.51705 0.99038 0.0
C1038 C 0.62821 0.50061 0.98037 0.0
C1039 C 0.60767 0.5395 0.97946 0.0
C1040 C 0.59272 0.55714 0.98972 0.0
C1041 C 0.61726 0.58295 0.00575 0.0
C1042 C 0.60239 0.59853 0.01587 0.0
C1043 C 0.56329 0.58898 0.00983 0.0
C1044 C 0.53908 0.56392 -0.00638 0.0
C1045 C 0.55369 0.54804 0.98356 0.0
H1046 H 0.55185 0.60112 0.01766 0.0
H1047 H 0.68123 0.43542 0.92207 0.0
H1048 H 0.09584 0.54681 0.21697 0.0
H1049 H 0.10077 0.55701 0.25457 0.0
H1050 H 1.01073 0.44141 0.26363 0.0
H1051 H 1.00618 0.43107 0.2261 0.0
H1052 H 0.99691 0.47945 0.28851 0.0
H1053 H 0.1086 0.47923 0.27274 0.0
H1054 H 0.17024 0.49626 0.25482 0.0
H1055 H 0.24032 0.60643 0.27653 0.0
H1056 H 0.17878 0.59014 0.29434 0.0
H1057 H 1.04441 0.45923 0.3919 0.0
H1058 H 1.04003 0.45919 0.3542 0.0
H1059 H 0.11312 0.57569 0.35476 0.0
H1060 H 0.11622 0.57603 0.39305 0.0
H1061 H 0.13618 0.54176 0.32523 0.0
H1062 H 1.01838 0.53419 0.34475 0.0
H1063 H 0.95601 0.50856 0.36486 0.0
H1064 H 0.89613 0.40332 0.33765 0.0
H1065 H 0.95848 0.42818 0.31765 0.0
C1066 C 0.07667 0.52362 0.22695 0.0
C1067 C 1.05079 0.48811 0.21862 0.0
C1068 C 0.07966 0.52946 0.24844 0.0
C1069 C 0.05644 0.49996 0.26197 0.0
C1070 C 1.029 0.4646 0.25353 0.0
C1071 C 1.02648 0.45872 0.23209 0.0
C1072 C 0.06223 0.5058 0.28494 0.0
C1073 C 1.02737 0.49309 0.2965 0.0
C1074 C 0.10193 0.52348 0.29548 0.0
C1075 C 0.13887 0.5336 0.28458 0.0
C1076 C 0.13698 0.5072 0.27347 0.0
C1077 C 0.17194 0.51668 0.26339 0.0
C1078 C 0.20913 0.55244 0.26446 0.0
C1079 C 0.21144 0.57876 0.27566 0.0
C1080 C 0.17653 0.56942 0.28575 0.0
C1081 C 0.05902 0.48497 0.38418 0.0
C1082 C 0.07971 0.5176 0.39568 0.0
C1083 C 0.05679 0.48483 0.36253 0.0
C1084 C 0.07575 0.51733 0.35169 0.0
C1085 C 0.09807 0.55027 0.36291 0.0
C1086 C 0.09988 0.55042 0.38477 0.0
C1087 C 0.0711 0.51607 0.32864 0.0
C1088 C 0.10602 0.5291 0.31712 0.0
C1089 C 1.03126 0.49784 0.31821 0.0
C1090 C 0.99323 0.48304 0.32977 0.0
C1091 C 0.99201 0.50554 0.34313 0.0
C1092 C 0.95665 0.49115 0.35451 0.0
C1093 C 0.92214 0.45433 0.35255 0.0
C1094 C 0.92288 0.43184 0.33915 0.0
C1095 C 0.95821 0.44608 0.32777 0.0
H1096 H 0.89482 0.44323 0.36139 0.0
H1097 H 0.23619 0.55972 0.25668 0.0
loop_
_geom_bond_atom_site_label_1
_geom_bond_atom_site_label_2
_geom_bond_distance
_geom_bond_site_symmetry_2
_ccdc_geom_bond_type
Gd0 C3 2.818 . S
Gd0 O20 2.377 . S
Gd0 O22 2.448 . S
Gd0 O23 2.506 . S
Gd0 O24 2.435 . S
Gd0 O25 2.717 1_455 S
Gd0 O27 2.395 1_455 S
Gd0 O31 2.327 . S
Gd1 C12 2.818 . S
Gd1 O21 2.395 1_655 S
Gd1 O25 2.327 . S
Gd1 O26 2.377 . S
Gd1 O28 2.448 . S
Gd1 O29 2.506 . S
Gd1 O30 2.435 . S
Gd1 O31 2.717 1_655 S
C2 O20 1.240 . S
C2 O21 1.240 . S
C3 Gd0 2.818 . S
C3 C4 1.510 . S
C3 O22 1.249 . S
C3 O23 1.252 . S
C4 C3 1.510 . S
C4 C5 1.404 . S
C4 C6 1.352 . S
C5 C4 1.404 . S
C5 C9 1.389 . S
C5 H32 0.930 . S
C6 C4 1.352 . S
C6 C8 1.374 . S
C6 H33 0.931 . S
C7 C8 1.359 . S
C7 C9 1.364 . S
C8 C6 1.374 . S
C8 C7 1.359 . S
C8 H34 0.931 . S
C9 C5 1.389 . S
C9 C7 1.364 . S
C9 H35 0.931 . S
C10 O24 1.256 . S
C10 O25 1.257 1_455 S
C11 O26 1.240 . S
C11 O27 1.240 . S
C12 Gd1 2.818 . S
C12 C13 1.510 . S
C12 O28 1.249 . S
C12 O29 1.252 . S
C13 C12 1.510 . S
C13 C14 1.404 . S
C13 C15 1.352 . S
C14 C13 1.404 . S
C14 C18 1.389 . S
C14 H36 0.930 . S
C15 C13 1.352 . S
C15 C17 1.374 . S
C15 H37 0.931 . S
C16 C17 1.359 . S
C16 C18 1.364 . S
C17 C15 1.374 . S
C17 C16 1.359 . S
C17 H38 0.931 . S
C18 C14 1.389 . S
C18 C16 1.364 . S
C18 H39 0.931 . S
C19 O30 1.256 1_455 S
C19 O31 1.257 . S
O20 Gd0 2.377 . S
O20 C2 1.240 . S
O21 Gd1 2.395 1_455 S
O21 C2 1.240 . S
O22 Gd0 2.448 . S
O22 C3 1.249 . S
O23 Gd0 2.506 . S
O23 C3 1.252 . S
O24 Gd0 2.435 . S
O24 C10 1.256 . S
O25 Gd0 2.717 1_655 S
O25 Gd1 2.327 . S
O25 C10 1.257 1_655 S
O26 Gd1 2.377 . S
O26 C11 1.240 . S
O27 Gd0 2.395 1_655 S
O27 C11 1.240 . S
O28 Gd1 2.448 . S
O28 C12 1.249 . S
O29 Gd1 2.506 . S
O29 C12 1.252 . S
O30 Gd1 2.435 . S
O30 C19 1.256 1_655 S
O31 Gd0 2.327 . S
O31 Gd1 2.717 1_455 S
O31 C19 1.257 . S
H32 C5 0.930 . S
H33 C6 0.931 . S
H34 C8 0.931 . S
H35 C9 0.931 . S
H36 C14 0.930 . S
H37 C15 0.931 . S
H38 C17 0.931 . S
H39 C18 0.931 . S
Gd40 C43 2.818 1_545 S
Gd40 O60 2.377 1_545 S
Gd40 O62 2.448 1_545 S
Gd40 O63 2.506 1_545 S
Gd40 O64 2.435 . S
Gd40 O65 2.717 . S
Gd40 O67 2.395 . S
Gd40 O71 2.327 . S
Gd41 C52 2.818 . S
Gd41 O61 2.395 1_545 S
Gd41 O65 2.327 . S
Gd41 O66 2.377 . S
Gd41 O68 2.448 . S
Gd41 O69 2.506 . S
Gd41 O70 2.435 . S
Gd41 O71 2.717 . S
C42 O60 1.240 . S
C42 O61 1.240 . S
C43 Gd40 2.818 1_565 S
C43 C44 1.510 . S
C43 O62 1.249 . S
C43 O63 1.252 . S
C44 C43 1.510 . S
C44 C45 1.404 . S
C44 C46 1.352 . S
C45 C44 1.404 . S
C45 C49 1.389 . S
C45 H72 0.930 . S
C46 C44 1.352 . S
C46 C48 1.374 . S
C46 H73 0.931 . S
C47 C48 1.359 . S
C47 C49 1.364 . S
C48 C46 1.374 . S
C48 C47 1.359 . S
C48 H74 0.931 . S
C49 C45 1.389 . S
C49 C47 1.364 . S
C49 H75 0.931 . S
C50 O64 1.256 . S
C50 O65 1.257 . S
C51 O66 1.240 . S
C51 O67 1.240 . S
C52 Gd41 2.818 . S
C52 C53 1.510 . S
C52 O68 1.249 . S
C52 O69 1.252 . S
C53 C52 1.510 . S
C53 C54 1.404 . S
C53 C55 1.352 . S
C54 C53 1.404 . S
C54 C58 1.389 . S
C54 H76 0.930 . S
C55 C53 1.352 . S
C55 C57 1.374 . S
C55 H77 0.931 . S
C56 C57 1.359 . S
C56 C58 1.364 . S
C57 C55 1.374 . S
C57 C56 1.359 . S
C57 H78 0.931 . S
C58 C54 1.389 . S
C58 C56 1.364 . S
C58 H79 0.931 . S
C59 O70 1.256 . S
C59 O71 1.257 . S
O60 Gd40 2.377 1_565 S
O60 C42 1.240 . S
O61 Gd41 2.395 1_565 S
O61 C42 1.240 . S
O62 Gd40 2.448 1_565 S
O62 C43 1.249 . S
O63 Gd40 2.506 1_565 S
O63 C43 1.252 . S
O64 Gd40 2.435 . S
O64 C50 1.256 . S
O65 Gd40 2.717 . S
O65 Gd41 2.327 . S
O65 C50 1.257 . S
O66 Gd41 2.377 . S
O66 C51 1.240 . S
O67 Gd40 2.395 . S
O67 C51 1.240 . S
O68 Gd41 2.448 . S
O68 C52 1.249 . S
O69 Gd41 2.506 . S
O69 C52 1.252 . S
O70 Gd41 2.435 . S
O70 C59 1.256 . S
O71 Gd40 2.327 . S
O71 Gd41 2.717 . S
O71 C59 1.257 . S
H72 C45 0.930 . S
H73 C46 0.931 . S
H74 C48 0.931 . S
H75 C49 0.931 . S
H76 C54 0.930 . S
H77 C55 0.931 . S
H78 C57 0.931 . S
H79 C58 0.931 . S
Gd80 C83 2.818 . S
Gd80 O100 2.377 . S
Gd80 O102 2.448 . S
Gd80 O103 2.506 . S
Gd80 O104 2.435 . S
Gd80 O105 2.717 . S
Gd80 O107 2.395 . S
Gd80 O111 2.327 . S
Gd81 C92 2.818 . S
Gd81 O101 2.395 . S
Gd81 O105 2.327 . S
Gd81 O106 2.377 . S
Gd81 O108 2.448 . S
Gd81 O109 2.506 . S
Gd81 O110 2.435 . S
Gd81 O111 2.717 . S
C82 O100 1.240 . S
C82 O101 1.240 . S
C83 Gd80 2.818 . S
C83 C84 1.510 . S
C83 O102 1.249 . S
C83 O103 1.252 . S
C84 C83 1.510 . S
C84 C85 1.404 . S
C84 C86 1.352 . S
C85 C84 1.404 . S
C85 C89 1.389 . S
C85 H112 0.930 . S
C86 C84 1.352 . S
C86 C88 1.374 . S
C86 H113 0.931 . S
C87 C88 1.359 . S
C87 C89 1.364 . S
C88 C86 1.374 . S
C88 C87 1.359 . S
C88 H114 0.931 . S
C89 C85 1.389 . S
C89 C87 1.364 . S
C89 H115 0.931 . S
C90 O104 1.256 . S
C90 O105 1.257 . S
C91 O106 1.240 . S
C91 O107 1.240 . S
C92 Gd81 2.818 . S
C92 C93 1.510 . S
C92 O108 1.249 . S
C92 O109 1.252 . S
C93 C92 1.510 . S
C93 C94 1.404 . S
C93 C95 1.352 . S
C94 C93 1.404 . S
C94 C98 1.389 . S
C94 H116 0.930 . S
C95 C93 1.352 . S
C95 C97 1.374 . S
C95 H117 0.931 . S
C96 C97 1.359 . S
C96 C98 1.364 . S
C97 C95 1.374 . S
C97 C96 1.359 . S
C97 H118 0.931 . S
C98 C94 1.389 . S
C98 C96 1.364 . S
C98 H119 0.931 . S
C99 O110 1.256 . S
C99 O111 1.257 . S
O100 Gd80 2.377 . S
O100 C82 1.240 . S
O101 Gd81 2.395 . S
O101 C82 1.240 . S
O102 Gd80 2.448 . S
O102 C83 1.249 . S
O103 Gd80 2.506 . S
O103 C83 1.252 . S
O104 Gd80 2.435 . S
O104 C90 1.256 . S
O105 Gd80 2.717 . S
O105 Gd81 2.327 . S
O105 C90 1.257 . S
O106 Gd81 2.377 . S
O106 C91 1.240 . S
O107 Gd80 2.395 . S
O107 C91 1.240 . S
O108 Gd81 2.448 . S
O108 C92 1.249 . S
O109 Gd81 2.506 . S
O109 C92 1.252 . S
O110 Gd81 2.435 . S
O110 C99 1.256 . S
O111 Gd80 2.327 . S
O111 Gd81 2.717 . S
O111 C99 1.257 . S
H112 C85 0.930 . S
H113 C86 0.931 . S
H114 C88 0.931 . S
H115 C89 0.931 . S
H116 C94 0.930 . S
H117 C95 0.931 . S
H118 C97 0.931 . S
H119 C98 0.931 . S
H120 C127 0.929 . S
H121 C130 0.930 . S
H122 C132 0.929 . S
H123 C124 0.969 . S
C124 H123 0.969 . S
C124 O125 1.550 . S
C124 H126 0.973 . S
O125 C124 1.550 . S
O125 C131 1.412 . S
H126 C124 0.973 . S
C127 H120 0.929 . S
C127 C128 1.400 . S
C127 C129 1.364 . S
C128 C127 1.400 . S
C128 C132 1.377 . S
C129 C127 1.364 . S
C129 C130 1.374 1_545 S
C130 H121 0.930 . S
C130 C129 1.374 1_565 S
C130 C131 1.383 . S
C131 O125 1.412 . S
C131 C130 1.383 . S
C131 C132 1.394 1_565 S
C132 H122 0.929 . S
C132 C128 1.377 . S
C132 C131 1.394 1_545 S
H133 C140 0.929 . S
H134 C143 0.930 . S
H135 C145 0.929 . S
H136 C137 0.969 . S
C137 H136 0.969 . S
C137 O138 1.550 . S
C137 H139 0.973 . S
O138 C137 1.550 . S
O138 C144 1.412 . S
H139 C137 0.973 . S
C140 H133 0.929 . S
C140 C141 1.400 . S
C140 C142 1.364 . S
C141 C140 1.400 . S
C141 C145 1.377 . S
C142 C140 1.364 . S
C142 C143 1.374 . S
C143 H134 0.930 . S
C143 C142 1.374 . S
C143 C144 1.383 . S
C144 O138 1.412 . S
C144 C143 1.383 . S
C144 C145 1.394 . S
C145 H135 0.929 . S
C145 C141 1.377 . S
C145 C144 1.394 . S
H146 C153 0.929 . S
H147 C156 0.930 . S
H148 C158 0.929 . S
H149 C150 0.969 . S
C150 H149 0.969 . S
C150 O151 1.550 . S
C150 H152 0.973 . S
O151 C150 1.550 . S
O151 C157 1.412 . S
H152 C150 0.973 . S
C153 H146 0.929 . S
C153 C154 1.400 . S
C153 C155 1.364 . S
C154 C153 1.400 . S
C154 C158 1.377 . S
C155 C153 1.364 . S
C155 C156 1.374 . S
C156 H147 0.930 . S
C156 C155 1.374 . S
C156 C157 1.383 . S
C157 O151 1.412 . S
C157 C156 1.383 . S
C157 C158 1.394 . S
C158 H148 0.929 . S
C158 C154 1.377 . S
C158 C157 1.394 . S
H159 C166 0.929 . S
H160 C169 0.930 . S
H161 C171 0.929 . S
H162 C163 0.969 . S
C163 H162 0.969 . S
C163 O164 1.550 . S
C163 H165 0.973 . S
O164 C163 1.550 . S
O164 C170 1.412 . S
H165 C163 0.973 . S
C166 H159 0.929 . S
C166 C167 1.400 . S
C166 C168 1.364 1_655 S
C167 C166 1.400 . S
C167 C171 1.377 1_655 S
C168 C166 1.364 1_455 S
C168 C169 1.374 . S
C169 H160 0.930 . S
C169 C168 1.374 . S
C169 C170 1.383 . S
C170 O164 1.412 . S
C170 C169 1.383 . S
C170 C171 1.394 . S
C171 H161 0.929 . S
C171 C167 1.377 1_455 S
C171 C170 1.394 . S
H172 C179 0.929 . S
H173 C182 0.930 . S
H174 C184 0.929 . S
H175 C176 0.969 . S
C176 H175 0.969 . S
C176 O177 1.550 . S
C176 H178 0.973 . S
O177 C176 1.550 . S
O177 C183 1.412 . S
H178 C176 0.973 . S
C179 H172 0.929 . S
C179 C180 1.400 . S
C179 C181 1.364 1_565 S
C180 C179 1.400 . S
C180 C184 1.377 1_565 S
C181 C179 1.364 1_545 S
C181 C182 1.374 . S
C182 H173 0.930 . S
C182 C181 1.374 . S
C182 C183 1.383 . S
C183 O177 1.412 . S
C183 C182 1.383 . S
C183 C184 1.394 . S
C184 H174 0.929 . S
C184 C180 1.377 1_545 S
C184 C183 1.394 . S
H185 C192 0.929 . S
H186 C195 0.930 . S
H187 C197 0.929 . S
H188 C189 0.969 . S
C189 H188 0.969 . S
C189 O190 1.550 . S
C189 H191 0.973 . S
O190 C189 1.550 . S
O190 C196 1.412 . S
H191 C189 0.973 . S
C192 H185 0.929 . S
C192 C193 1.400 . S
C192 C194 1.364 . S
C193 C192 1.400 . S
C193 C197 1.377 . S
C194 C192 1.364 . S
C194 C195 1.374 . S
C195 H186 0.930 . S
C195 C194 1.374 . S
C195 C196 1.383 . S
C196 O190 1.412 . S
C196 C195 1.383 . S
C196 C197 1.394 . S
C197 H187 0.929 . S
C197 C193 1.377 . S
C197 C196 1.394 . S
H198 C216 0.951 . S
H199 C218 0.951 . S
H200 C220 0.950 . S
H201 C221 0.950 . S
H202 C223 0.950 . S
H203 C226 0.950 . S
H204 C227 0.950 . S
H205 C229 0.950 . S
H206 C230 0.950 . S
H207 C231 0.951 . S
H208 C233 0.951 . S
H209 C235 0.950 . S
H210 C236 0.950 . S
H211 C238 0.950 . S
H212 C241 0.950 . S
H213 C242 0.950 . S
H214 C244 0.950 . S
H215 C245 0.950 . S
C216 H198 0.951 . S
C216 C217 1.366 . S
C216 C218 1.388 . S
C217 C216 1.366 . S
C217 C221 1.385 . S
C218 H199 0.951 . S
C218 C216 1.388 . S
C218 C219 1.366 . S
C219 C218 1.366 . S
C219 C220 1.414 . S
C219 C222 1.499 . S
C220 H200 0.950 . S
C220 C219 1.414 . S
C220 C221 1.374 . S
C221 H201 0.950 . S
C221 C217 1.385 . S
C221 C220 1.374 . S
C222 C219 1.499 . S
C222 C223 1.373 . S
C222 C224 1.389 . S
C223 H202 0.950 . S
C223 C222 1.373 . S
C223 C239 1.377 . S
C224 C222 1.389 . S
C224 C225 1.524 . S
C224 C238 1.377 . S
C225 C224 1.524 . S
C225 C226 1.397 . S
C225 C230 1.363 . S
C226 H203 0.950 . S
C226 C225 1.397 . S
C226 C227 1.334 . S
C227 H204 0.950 . S
C227 C226 1.334 . S
C227 C228 1.287 . S
C228 C227 1.287 . S
C228 C229 1.524 . S
C228 H247 0.913 . S
C229 H205 0.950 . S
C229 C228 1.524 . S
C229 C230 1.415 . S
C230 H206 0.950 . S
C230 C225 1.363 . S
C230 C229 1.415 . S
C231 H207 0.951 . S
C231 C232 1.366 . S
C231 C233 1.388 . S
C232 C231 1.366 . S
C232 C236 1.385 . S
C233 H208 0.951 . S
C233 C231 1.388 . S
C233 C234 1.366 . S
C234 C233 1.366 . S
C234 C235 1.414 . S
C234 C237 1.499 . S
C235 H209 0.950 . S
C235 C234 1.414 . S
C235 C236 1.374 . S
C236 H210 0.950 . S
C236 C232 1.385 . S
C236 C235 1.374 . S
C237 C234 1.499 . S
C237 C238 1.373 . S
C237 C239 1.389 . S
C238 H211 0.950 . S
C238 C224 1.377 . S
C238 C237 1.373 . S
C239 C223 1.377 . S
C239 C237 1.389 . S
C239 C240 1.524 . S
C240 C239 1.524 . S
C240 C241 1.397 . S
C240 C245 1.363 . S
C241 H212 0.950 . S
C241 C240 1.397 . S
C241 C242 1.334 . S
C242 H213 0.950 . S
C242 C241 1.334 . S
C242 C243 1.287 . S
C243 C242 1.287 . S
C243 C244 1.524 . S
C243 H246 0.999 . S
C244 H214 0.950 . S
C244 C243 1.524 . S
C244 C245 1.415 . S
C245 H215 0.950 . S
C245 C240 1.363 . S
C245 C244 1.415 . S
H246 C243 0.999 . S
H247 C228 0.913 . S
H248 C266 0.951 . S
H249 C268 0.951 . S
H250 C270 0.950 . S
H251 C271 0.950 . S
H252 C273 0.950 . S
H253 C276 0.950 . S
H254 C277 0.950 . S
H255 C279 0.950 . S
H256 C280 0.950 . S
H257 C281 0.951 . S
H258 C283 0.951 . S
H259 C285 0.950 . S
H260 C286 0.950 . S
H261 C288 0.950 . S
H262 C291 0.950 . S
H263 C292 0.950 . S
H264 C294 0.950 . S
H265 C295 0.950 . S
C266 H248 0.951 . S
C266 C267 1.366 . S
C266 C268 1.388 . S
C267 C266 1.366 . S
C267 C271 1.385 . S
C268 H249 0.951 . S
C268 C266 1.388 . S
C268 C269 1.366 . S
C269 C268 1.366 . S
C269 C270 1.414 . S
C269 C272 1.499 . S
C270 H250 0.950 . S
C270 C269 1.414 . S
C270 C271 1.374 . S
C271 H251 0.950 . S
C271 C267 1.385 . S
C271 C270 1.374 . S
C272 C269 1.499 . S
C272 C273 1.373 . S
C272 C274 1.389 . S
C273 H252 0.950 . S
C273 C272 1.373 . S
C273 C289 1.377 . S
C274 C272 1.389 . S
C274 C275 1.524 . S
C274 C288 1.377 . S
C275 C274 1.524 . S
C275 C276 1.397 . S
C275 C280 1.363 . S
C276 H253 0.950 . S
C276 C275 1.397 . S
C276 C277 1.334 . S
C277 H254 0.950 . S
C277 C276 1.334 . S
C277 C278 1.287 . S
C278 C277 1.287 . S
C278 C279 1.524 . S
C278 H297 0.913 . S
C279 H255 0.950 . S
C279 C278 1.524 . S
C279 C280 1.415 . S
C280 H256 0.950 . S
C280 C275 1.363 . S
C280 C279 1.415 . S
C281 H257 0.951 . S
C281 C282 1.366 . S
C281 C283 1.388 . S
C282 C281 1.366 . S
C282 C286 1.385 . S
C283 H258 0.951 . S
C283 C281 1.388 . S
C283 C284 1.366 . S
C284 C283 1.366 . S
C284 C285 1.414 . S
C284 C287 1.499 . S
C285 H259 0.950 . S
C285 C284 1.414 . S
C285 C286 1.374 . S
C286 H260 0.950 . S
C286 C282 1.385 . S
C286 C285 1.374 . S
C287 C284 1.499 . S
C287 C288 1.373 . S
C287 C289 1.389 . S
C288 H261 0.950 . S
C288 C274 1.377 . S
C288 C287 1.373 . S
C289 C273 1.377 . S
C289 C287 1.389 . S
C289 C290 1.524 . S
C290 C289 1.524 . S
C290 C291 1.397 . S
C290 C295 1.363 . S
C291 H262 0.950 . S
C291 C290 1.397 . S
C291 C292 1.334 . S
C292 H263 0.950 . S
C292 C291 1.334 . S
C292 C293 1.287 . S
C293 C292 1.287 . S
C293 C294 1.524 . S
C293 H296 0.999 . S
C294 H264 0.950 . S
C294 C293 1.524 . S
C294 C295 1.415 . S
C295 H265 0.950 . S
C295 C290 1.363 . S
C295 C294 1.415 . S
H296 C293 0.999 . S
H297 C278 0.913 . S
H298 C316 0.951 . S
H299 C318 0.951 . S
H300 C320 0.950 . S
H301 C321 0.950 . S
H302 C323 0.950 . S
H303 C326 0.950 . S
H304 C327 0.950 . S
H305 C329 0.950 . S
H306 C330 0.950 . S
H307 C331 0.951 . S
H308 C333 0.951 . S
H309 C335 0.950 . S
H310 C336 0.950 1_545 S
H311 C338 0.950 . S
H312 C341 0.950 . S
H313 C342 0.950 . S
H314 C344 0.950 . S
H315 C345 0.950 . S
C316 H298 0.951 . S
C316 C317 1.366 . S
C316 C318 1.388 . S
C317 C316 1.366 . S
C317 C321 1.385 . S
C318 H299 0.951 . S
C318 C316 1.388 . S
C318 C319 1.366 . S
C319 C318 1.366 . S
C319 C320 1.414 . S
C319 C322 1.499 . S
C320 H300 0.950 . S
C320 C319 1.414 . S
C320 C321 1.374 . S
C321 H301 0.950 . S
C321 C317 1.385 . S
C321 C320 1.374 . S
C322 C319 1.499 . S
C322 C323 1.373 . S
C322 C324 1.389 . S
C323 H302 0.950 . S
C323 C322 1.373 . S
C323 C339 1.377 . S
C324 C322 1.389 . S
C324 C325 1.524 . S
C324 C338 1.377 . S
C325 C324 1.524 . S
C325 C326 1.397 . S
C325 C330 1.363 . S
C326 H303 0.950 . S
C326 C325 1.397 . S
C326 C327 1.334 . S
C327 H304 0.950 . S
C327 C326 1.334 . S
C327 C328 1.287 . S
C328 C327 1.287 . S
C328 C329 1.524 . S
C328 H347 0.913 . S
C329 H305 0.950 . S
C329 C328 1.524 . S
C329 C330 1.415 . S
C330 H306 0.950 . S
C330 C325 1.363 . S
C330 C329 1.415 . S
C331 H307 0.951 . S
C331 C332 1.366 . S
C331 C333 1.388 . S
C332 C331 1.366 . S
C332 C336 1.385 . S
C333 H308 0.951 . S
C333 C331 1.388 . S
C333 C334 1.366 . S
C334 C333 1.366 . S
C334 C335 1.414 . S
C334 C337 1.499 . S
C335 H309 0.950 . S
C335 C334 1.414 . S
C335 C336 1.374 . S
C336 H310 0.950 1_565 S
C336 C332 1.385 . S
C336 C335 1.374 . S
C337 C334 1.499 . S
C337 C338 1.373 . S
C337 C339 1.389 . S
C338 H311 0.950 . S
C338 C324 1.377 . S
C338 C337 1.373 . S
C339 C323 1.377 . S
C339 C337 1.389 . S
C339 C340 1.524 . S
C340 C339 1.524 . S
C340 C341 1.397 . S
C340 C345 1.363 . S
C341 H312 0.950 . S
C341 C340 1.397 . S
C341 C342 1.334 . S
C342 H313 0.950 . S
C342 C341 1.334 . S
C342 C343 1.287 . S
C343 C342 1.287 . S
C343 C344 1.524 . S
C343 H346 0.999 . S
C344 H314 0.950 . S
C344 C343 1.524 . S
C344 C345 1.415 . S
C345 H315 0.950 . S
C345 C340 1.363 . S
C345 C344 1.415 . S
H346 C343 0.999 . S
H347 C328 0.913 . S
H348 C366 0.951 . S
H349 C368 0.951 . S
H350 C370 0.950 . S
H351 C371 0.950 . S
H352 C373 0.950 . S
H353 C376 0.950 . S
H354 C377 0.950 . S
H355 C379 0.950 . S
H356 C380 0.950 . S
H357 C381 0.951 . S
H358 C383 0.951 . S
H359 C385 0.950 . S
H360 C386 0.950 . S
H361 C388 0.950 . S
H362 C391 0.950 . S
H363 C392 0.950 . S
H364 C394 0.950 . S
H365 C395 0.950 . S
C366 H348 0.951 . S
C366 C367 1.366 . S
C366 C368 1.388 . S
C367 C366 1.366 . S
C367 C371 1.385 . S
C368 H349 0.951 . S
C368 C366 1.388 . S
C368 C369 1.366 . S
C369 C368 1.366 . S
C369 C370 1.414 . S
C369 C372 1.499 . S
C370 H350 0.950 . S
C370 C369 1.414 . S
C370 C371 1.374 . S
C371 H351 0.950 . S
C371 C367 1.385 . S
C371 C370 1.374 . S
C372 C369 1.499 . S
C372 C373 1.373 . S
C372 C374 1.389 . S
C373 H352 0.950 . S
C373 C372 1.373 . S
C373 C389 1.377 . S
C374 C372 1.389 . S
C374 C375 1.524 . S
C374 C388 1.377 . S
C375 C374 1.524 . S
C375 C376 1.397 . S
C375 C380 1.363 . S
C376 H353 0.950 . S
C376 C375 1.397 . S
C376 C377 1.334 . S
C377 H354 0.950 . S
C377 C376 1.334 . S
C377 C378 1.287 . S
C378 C377 1.287 . S
C378 C379 1.524 . S
C378 H397 0.913 . S
C379 H355 0.950 . S
C379 C378 1.524 . S
C379 C380 1.415 . S
C380 H356 0.950 . S
C380 C375 1.363 . S
C380 C379 1.415 . S
C381 H357 0.951 . S
C381 C382 1.366 . S
C381 C383 1.388 . S
C382 C381 1.366 . S
C382 C386 1.385 . S
C383 H358 0.951 . S
C383 C381 1.388 . S
C383 C384 1.366 . S
C384 C383 1.366 . S
C384 C385 1.414 . S
C384 C387 1.499 . S
C385 H359 0.950 . S
C385 C384 1.414 . S
C385 C386 1.374 . S
C386 H360 0.950 . S
C386 C382 1.385 . S
C386 C385 1.374 . S
C387 C384 1.499 . S
C387 C388 1.373 . S
C387 C389 1.389 . S
C388 H361 0.950 . S
C388 C374 1.377 . S
C388 C387 1.373 . S
C389 C373 1.377 . S
C389 C387 1.389 . S
C389 C390 1.524 . S
C390 C389 1.524 . S
C390 C391 1.397 . S
C390 C395 1.363 . S
C391 H362 0.950 . S
C391 C390 1.397 . S
C391 C392 1.334 . S
C392 H363 0.950 . S
C392 C391 1.334 . S
C392 C393 1.287 . S
C393 C392 1.287 . S
C393 C394 1.524 . S
C393 H396 0.999 . S
C394 H364 0.950 . S
C394 C393 1.524 . S
C394 C395 1.415 . S
C395 H365 0.950 . S
C395 C390 1.363 . S
C395 C394 1.415 . S
H396 C393 0.999 . S
H397 C378 0.913 . S
H398 C416 0.951 . S
H399 C418 0.951 . S
H400 C420 0.950 . S
H401 C421 0.950 . S
H402 C423 0.950 . S
H403 C426 0.950 . S
H404 C427 0.950 . S
H405 C429 0.950 . S
H406 C430 0.950 . S
H407 C431 0.951 . S
H408 C433 0.951 . S
H409 C435 0.950 . S
H410 C436 0.950 . S
H411 C438 0.950 . S
H412 C441 0.950 . S
H413 C442 0.950 . S
H414 C444 0.950 . S
H415 C445 0.950 . S
C416 H398 0.951 . S
C416 C417 1.366 . S
C416 C418 1.388 . S
C417 C416 1.366 . S
C417 C421 1.385 . S
C418 H399 0.951 . S
C418 C416 1.388 . S
C418 C419 1.366 . S
C419 C418 1.366 . S
C419 C420 1.414 . S
C419 C422 1.499 . S
C420 H400 0.950 . S
C420 C419 1.414 . S
C420 C421 1.374 . S
C421 H401 0.950 . S
C421 C417 1.385 . S
C421 C420 1.374 . S
C422 C419 1.499 . S
C422 C423 1.373 . S
C422 C424 1.389 . S
C423 H402 0.950 . S
C423 C422 1.373 . S
C423 C439 1.377 . S
C424 C422 1.389 . S
C424 C425 1.524 . S
C424 C438 1.377 . S
C425 C424 1.524 . S
C425 C426 1.397 . S
C425 C430 1.363 . S
C426 H403 0.950 . S
C426 C425 1.397 . S
C426 C427 1.334 . S
C427 H404 0.950 . S
C427 C426 1.334 . S
C427 C428 1.287 . S
C428 C427 1.287 . S
C428 C429 1.524 . S
C428 H447 0.913 . S
C429 H405 0.950 . S
C429 C428 1.524 . S
C429 C430 1.415 . S
C430 H406 0.950 . S
C430 C425 1.363 . S
C430 C429 1.415 . S
C431 H407 0.951 . S
C431 C432 1.366 . S
C431 C433 1.388 . S
C432 C431 1.366 . S
C432 C436 1.385 . S
C433 H408 0.951 . S
C433 C431 1.388 . S
C433 C434 1.366 . S
C434 C433 1.366 . S
C434 C435 1.414 . S
C434 C437 1.499 . S
C435 H409 0.950 . S
C435 C434 1.414 . S
C435 C436 1.374 . S
C436 H410 0.950 . S
C436 C432 1.385 . S
C436 C435 1.374 . S
C437 C434 1.499 . S
C437 C438 1.373 . S
C437 C439 1.389 . S
C438 H411 0.950 . S
C438 C424 1.377 . S
C438 C437 1.373 . S
C439 C423 1.377 . S
C439 C437 1.389 . S
C439 C440 1.524 . S
C440 C439 1.524 . S
C440 C441 1.397 . S
C440 C445 1.363 . S
C441 H412 0.950 . S
C441 C440 1.397 . S
C441 C442 1.334 . S
C442 H413 0.950 . S
C442 C441 1.334 . S
C442 C443 1.287 . S
C443 C442 1.287 . S
C443 C444 1.524 . S
C443 H446 0.999 . S
C444 H414 0.950 . S
C444 C443 1.524 . S
C444 C445 1.415 . S
C445 H415 0.950 . S
C445 C440 1.363 . S
C445 C444 1.415 . S
H446 C443 0.999 . S
H447 C428 0.913 . S
H448 C466 0.951 . S
H449 C468 0.951 . S
H450 C470 0.950 . S
H451 C471 0.950 . S
H452 C473 0.950 . S
H453 C476 0.950 . S
H454 C477 0.950 . S
H455 C479 0.950 . S
H456 C480 0.950 . S
H457 C481 0.951 . S
H458 C483 0.951 . S
H459 C485 0.950 . S
H460 C486 0.950 . S
H461 C488 0.950 . S
H462 C491 0.950 . S
H463 C492 0.950 . S
H464 C494 0.950 . S
H465 C495 0.950 . S
C466 H448 0.951 . S
C466 C467 1.366 . S
C466 C468 1.388 . S
C467 C466 1.366 . S
C467 C471 1.385 . S
C468 H449 0.951 . S
C468 C466 1.388 . S
C468 C469 1.366 . S
C469 C468 1.366 . S
C469 C470 1.414 . S
C469 C472 1.499 . S
C470 H450 0.950 . S
C470 C469 1.414 . S
C470 C471 1.374 . S
C471 H451 0.950 . S
C471 C467 1.385 . S
C471 C470 1.374 . S
C472 C469 1.499 . S
C472 C473 1.373 . S
C472 C474 1.389 . S
C473 H452 0.950 . S
C473 C472 1.373 . S
C473 C489 1.377 . S
C474 C472 1.389 . S
C474 C475 1.524 . S
C474 C488 1.377 . S
C475 C474 1.524 . S
C475 C476 1.397 . S
C475 C480 1.363 . S
C476 H453 0.950 . S
C476 C475 1.397 . S
C476 C477 1.334 . S
C477 H454 0.950 . S
C477 C476 1.334 . S
C477 C478 1.287 . S
C478 C477 1.287 . S
C478 C479 1.524 . S
C478 H497 0.913 . S
C479 H455 0.950 . S
C479 C478 1.524 . S
C479 C480 1.415 . S
C480 H456 0.950 . S
C480 C475 1.363 . S
C480 C479 1.415 . S
C481 H457 0.951 . S
C481 C482 1.366 . S
C481 C483 1.388 . S
C482 C481 1.366 . S
C482 C486 1.385 . S
C483 H458 0.951 . S
C483 C481 1.388 . S
C483 C484 1.366 . S
C484 C483 1.366 . S
C484 C485 1.414 . S
C484 C487 1.499 . S
C485 H459 0.950 . S
C485 C484 1.414 . S
C485 C486 1.374 . S
C486 H460 0.950 . S
C486 C482 1.385 . S
C486 C485 1.374 . S
C487 C484 1.499 . S
C487 C488 1.373 . S
C487 C489 1.389 . S
C488 H461 0.950 . S
C488 C474 1.377 . S
C488 C487 1.373 . S
C489 C473 1.377 . S
C489 C487 1.389 . S
C489 C490 1.524 . S
C490 C489 1.524 . S
C490 C491 1.397 . S
C490 C495 1.363 . S
C491 H462 0.950 . S
C491 C490 1.397 . S
C491 C492 1.334 . S
C492 H463 0.950 . S
C492 C491 1.334 . S
C492 C493 1.287 . S
C493 C492 1.287 . S
C493 C494 1.524 . S
C493 H496 0.999 . S
C494 H464 0.950 . S
C494 C493 1.524 . S
C494 C495 1.415 . S
C495 H465 0.950 . S
C495 C490 1.363 . S
C495 C494 1.415 . S
H496 C493 0.999 . S
H497 C478 0.913 . S
H498 C516 0.951 . S
H499 C518 0.951 . S
H500 C520 0.950 . S
H501 C521 0.950 . S
H502 C523 0.950 . S
H503 C526 0.950 . S
H504 C527 0.950 . S
H505 C529 0.950 . S
H506 C530 0.950 . S
H507 C531 0.951 . S
H508 C533 0.951 . S
H509 C535 0.950 . S
H510 C536 0.950 . S
H511 C538 0.950 . S
H512 C541 0.950 . S
H513 C542 0.950 . S
H514 C544 0.950 . S
H515 C545 0.950 . S
C516 H498 0.951 . S
C516 C517 1.366 . S
C516 C518 1.388 . S
C517 C516 1.366 . S
C517 C521 1.385 . S
C518 H499 0.951 . S
C518 C516 1.388 . S
C518 C519 1.366 . S
C519 C518 1.366 . S
C519 C520 1.414 . S
C519 C522 1.499 . S
C520 H500 0.950 . S
C520 C519 1.414 . S
C520 C521 1.374 . S
C521 H501 0.950 . S
C521 C517 1.385 . S
C521 C520 1.374 . S
C522 C519 1.499 . S
C522 C523 1.373 . S
C522 C524 1.389 . S
C523 H502 0.950 . S
C523 C522 1.373 . S
C523 C539 1.377 . S
C524 C522 1.389 . S
C524 C525 1.524 . S
C524 C538 1.377 . S
C525 C524 1.524 . S
C525 C526 1.397 . S
C525 C530 1.363 . S
C526 H503 0.950 . S
C526 C525 1.397 . S
C526 C527 1.334 . S
C527 H504 0.950 . S
C527 C526 1.334 . S
C527 C528 1.287 . S
C528 C527 1.287 . S
C528 C529 1.524 . S
C528 H547 0.913 . S
C529 H505 0.950 . S
C529 C528 1.524 . S
C529 C530 1.415 . S
C530 H506 0.950 . S
C530 C525 1.363 . S
C530 C529 1.415 . S
C531 H507 0.951 . S
C531 C532 1.366 . S
C531 C533 1.388 . S
C532 C531 1.366 . S
C532 C536 1.385 . S
C533 H508 0.951 . S
C533 C531 1.388 . S
C533 C534 1.366 . S
C534 C533 1.366 . S
C534 C535 1.414 . S
C534 C537 1.499 . S
C535 H509 0.950 . S
C535 C534 1.414 . S
C535 C536 1.374 . S
C536 H510 0.950 . S
C536 C532 1.385 . S
C536 C535 1.374 . S
C537 C534 1.499 . S
C537 C538 1.373 . S
C537 C539 1.389 . S
C538 H511 0.950 . S
C538 C524 1.377 . S
C538 C537 1.373 . S
C539 C523 1.377 . S
C539 C537 1.389 . S
C539 C540 1.524 . S
C540 C539 1.524 . S
C540 C541 1.397 . S
C540 C545 1.363 . S
C541 H512 0.950 . S
C541 C540 1.397 . S
C541 C542 1.334 . S
C542 H513 0.950 . S
C542 C541 1.334 . S
C542 C543 1.287 . S
C543 C542 1.287 . S
C543 C544 1.524 . S
C543 H546 0.999 . S
C544 H514 0.950 . S
C544 C543 1.524 . S
C544 C545 1.415 . S
C545 H515 0.950 . S
C545 C540 1.363 . S
C545 C544 1.415 . S
H546 C543 0.999 . S
H547 C528 0.913 . S
H548 C566 0.951 . S
H549 C568 0.951 . S
H550 C570 0.950 . S
H551 C571 0.950 . S
H552 C573 0.950 . S
H553 C576 0.950 . S
H554 C577 0.950 . S
H555 C579 0.950 . S
H556 C580 0.950 . S
H557 C581 0.951 . S
H558 C583 0.951 . S
H559 C585 0.950 . S
H560 C586 0.950 1_455 S
H561 C588 0.950 . S
H562 C591 0.950 . S
H563 C592 0.950 . S
H564 C594 0.950 . S
H565 C595 0.950 . S
C566 H548 0.951 . S
C566 C567 1.366 . S
C566 C568 1.388 . S
C567 C566 1.366 . S
C567 C571 1.385 . S
C568 H549 0.951 . S
C568 C566 1.388 . S
C568 C569 1.366 . S
C569 C568 1.366 . S
C569 C570 1.414 . S
C569 C572 1.499 . S
C570 H550 0.950 . S
C570 C569 1.414 . S
C570 C571 1.374 . S
C571 H551 0.950 . S
C571 C567 1.385 . S
C571 C570 1.374 . S
C572 C569 1.499 . S
C572 C573 1.373 . S
C572 C574 1.389 . S
C573 H552 0.950 . S
C573 C572 1.373 . S
C573 C589 1.377 . S
C574 C572 1.389 . S
C574 C575 1.524 . S
C574 C588 1.377 . S
C575 C574 1.524 . S
C575 C576 1.397 . S
C575 C580 1.363 . S
C576 H553 0.950 . S
C576 C575 1.397 . S
C576 C577 1.334 . S
C577 H554 0.950 . S
C577 C576 1.334 . S
C577 C578 1.287 . S
C578 C577 1.287 . S
C578 C579 1.524 . S
C578 H597 0.913 . S
C579 H555 0.950 . S
C579 C578 1.524 . S
C579 C580 1.415 . S
C580 H556 0.950 . S
C580 C575 1.363 . S
C580 C579 1.415 . S
C581 H557 0.951 . S
C581 C582 1.366 . S
C581 C583 1.388 . S
C582 C581 1.366 . S
C582 C586 1.385 . S
C583 H558 0.951 . S
C583 C581 1.388 . S
C583 C584 1.366 . S
C584 C583 1.366 . S
C584 C585 1.414 . S
C584 C587 1.499 . S
C585 H559 0.950 . S
C585 C584 1.414 . S
C585 C586 1.374 . S
C586 H560 0.950 1_655 S
C586 C582 1.385 . S
C586 C585 1.374 . S
C587 C584 1.499 . S
C587 C588 1.373 . S
C587 C589 1.389 . S
C588 H561 0.950 . S
C588 C574 1.377 . S
C588 C587 1.373 . S
C589 C573 1.377 . S
C589 C587 1.389 . S
C589 C590 1.524 . S
C590 C589 1.524 . S
C590 C591 1.397 . S
C590 C595 1.363 . S
C591 H562 0.950 . S
C591 C590 1.397 . S
C591 C592 1.334 . S
C592 H563 0.950 . S
C592 C591 1.334 . S
C592 C593 1.287 . S
C593 C592 1.287 . S
C593 C594 1.524 . S
C593 H596 0.999 . S
C594 H564 0.950 . S
C594 C593 1.524 . S
C594 C595 1.415 . S
C595 H565 0.950 . S
C595 C590 1.363 . S
C595 C594 1.415 . S
H596 C593 0.999 . S
H597 C578 0.913 . S
H598 C616 0.951 . S
H599 C618 0.951 . S
H600 C620 0.950 . S
H601 C621 0.950 . S
H602 C623 0.950 . S
H603 C626 0.950 . S
H604 C627 0.950 . S
H605 C629 0.950 . S
H606 C630 0.950 . S
H607 C631 0.951 . S
H608 C633 0.951 . S
H609 C635 0.950 . S
H610 C636 0.950 . S
H611 C638 0.950 . S
H612 C641 0.950 . S
H613 C642 0.950 . S
H614 C644 0.950 . S
H615 C645 0.950 . S
C616 H598 0.951 . S
C616 C617 1.366 . S
C616 C618 1.388 . S
C617 C616 1.366 . S
C617 C621 1.385 . S
C618 H599 0.951 . S
C618 C616 1.388 . S
C618 C619 1.366 . S
C619 C618 1.366 . S
C619 C620 1.414 . S
C619 C622 1.499 . S
C620 H600 0.950 . S
C620 C619 1.414 . S
C620 C621 1.374 . S
C621 H601 0.950 . S
C621 C617 1.385 . S
C621 C620 1.374 . S
C622 C619 1.499 . S
C622 C623 1.373 . S
C622 C624 1.389 . S
C623 H602 0.950 . S
C623 C622 1.373 . S
C623 C639 1.377 . S
C624 C622 1.389 . S
C624 C625 1.524 . S
C624 C638 1.377 . S
C625 C624 1.524 . S
C625 C626 1.397 . S
C625 C630 1.363 . S
C626 H603 0.950 . S
C626 C625 1.397 . S
C626 C627 1.334 . S
C627 H604 0.950 . S
C627 C626 1.334 . S
C627 C628 1.287 . S
C628 C627 1.287 . S
C628 C629 1.524 . S
C628 H647 0.913 . S
C629 H605 0.950 . S
C629 C628 1.524 . S
C629 C630 1.415 . S
C630 H606 0.950 . S
C630 C625 1.363 . S
C630 C629 1.415 . S
C631 H607 0.951 . S
C631 C632 1.366 . S
C631 C633 1.388 . S
C632 C631 1.366 . S
C632 C636 1.385 . S
C633 H608 0.951 . S
C633 C631 1.388 . S
C633 C634 1.366 . S
C634 C633 1.366 . S
C634 C635 1.414 . S
C634 C637 1.499 . S
C635 H609 0.950 . S
C635 C634 1.414 . S
C635 C636 1.374 . S
C636 H610 0.950 . S
C636 C632 1.385 . S
C636 C635 1.374 . S
C637 C634 1.499 . S
C637 C638 1.373 . S
C637 C639 1.389 . S
C638 H611 0.950 . S
C638 C624 1.377 . S
C638 C637 1.373 . S
C639 C623 1.377 . S
C639 C637 1.389 . S
C639 C640 1.524 . S
C640 C639 1.524 . S
C640 C641 1.397 . S
C640 C645 1.363 . S
C641 H612 0.950 . S
C641 C640 1.397 . S
C641 C642 1.334 . S
C642 H613 0.950 . S
C642 C641 1.334 . S
C642 C643 1.287 . S
C643 C642 1.287 . S
C643 C644 1.524 . S
C643 H646 0.999 . S
C644 H614 0.950 . S
C644 C643 1.524 . S
C644 C645 1.415 . S
C645 H615 0.950 . S
C645 C640 1.363 . S
C645 C644 1.415 . S
H646 C643 0.999 . S
H647 C628 0.913 . S
H648 C666 0.951 . S
H649 C668 0.951 . S
H650 C670 0.950 . S
H651 C671 0.950 . S
H652 C673 0.950 . S
H653 C676 0.950 . S
H654 C677 0.950 . S
H655 C679 0.950 . S
H656 C680 0.950 . S
H657 C681 0.951 . S
H658 C683 0.951 . S
H659 C685 0.950 . S
H660 C686 0.950 . S
H661 C688 0.950 . S
H662 C691 0.950 . S
H663 C692 0.950 . S
H664 C694 0.950 . S
H665 C695 0.950 . S
C666 H648 0.951 . S
C666 C667 1.366 . S
C666 C668 1.388 . S
C667 C666 1.366 . S
C667 C671 1.385 . S
C668 H649 0.951 . S
C668 C666 1.388 . S
C668 C669 1.366 . S
C669 C668 1.366 . S
C669 C670 1.414 . S
C669 C672 1.499 . S
C670 H650 0.950 . S
C670 C669 1.414 . S
C670 C671 1.374 . S
C671 H651 0.950 . S
C671 C667 1.385 . S
C671 C670 1.374 . S
C672 C669 1.499 . S
C672 C673 1.373 . S
C672 C674 1.389 . S
C673 H652 0.950 . S
C673 C672 1.373 . S
C673 C689 1.377 . S
C674 C672 1.389 . S
C674 C675 1.524 . S
C674 C688 1.377 . S
C675 C674 1.524 . S
C675 C676 1.397 . S
C675 C680 1.363 . S
C676 H653 0.950 . S
C676 C675 1.397 . S
C676 C677 1.334 . S
C677 H654 0.950 . S
C677 C676 1.334 . S
C677 C678 1.287 . S
C678 C677 1.287 . S
C678 C679 1.524 . S
C678 H697 0.913 . S
C679 H655 0.950 . S
C679 C678 1.524 . S
C679 C680 1.415 . S
C680 H656 0.950 . S
C680 C675 1.363 . S
C680 C679 1.415 . S
C681 H657 0.951 . S
C681 C682 1.366 . S
C681 C683 1.388 . S
C682 C681 1.366 . S
C682 C686 1.385 . S
C683 H658 0.951 . S
C683 C681 1.388 . S
C683 C684 1.366 . S
C684 C683 1.366 . S
C684 C685 1.414 . S
C684 C687 1.499 . S
C685 H659 0.950 . S
C685 C684 1.414 . S
C685 C686 1.374 . S
C686 H660 0.950 . S
C686 C682 1.385 . S
C686 C685 1.374 . S
C687 C684 1.499 . S
C687 C688 1.373 . S
C687 C689 1.389 . S
C688 H661 0.950 . S
C688 C674 1.377 . S
C688 C687 1.373 . S
C689 C673 1.377 . S
C689 C687 1.389 . S
C689 C690 1.524 . S
C690 C689 1.524 . S
C690 C691 1.397 . S
C690 C695 1.363 . S
C691 H662 0.950 . S
C691 C690 1.397 . S
C691 C692 1.334 . S
C692 H663 0.950 . S
C692 C691 1.334 . S
C692 C693 1.287 . S
C693 C692 1.287 . S
C693 C694 1.524 . S
C693 H696 0.999 . S
C694 H664 0.950 . S
C694 C693 1.524 . S
C694 C695 1.415 . S
C695 H665 0.950 . S
C695 C690 1.363 . S
C695 C694 1.415 . S
H696 C693 0.999 . S
H697 C678 0.913 . S
H698 C716 0.951 . S
H699 C718 0.951 . S
H700 C720 0.950 . S
H701 C721 0.950 . S
H702 C723 0.950 . S
H703 C726 0.950 . S
H704 C727 0.950 . S
H705 C729 0.950 . S
H706 C730 0.950 . S
H707 C731 0.951 . S
H708 C733 0.951 . S
H709 C735 0.950 . S
H710 C736 0.950 . S
H711 C738 0.950 . S
H712 C741 0.950 . S
H713 C742 0.950 . S
H714 C744 0.950 . S
H715 C745 0.950 . S
C716 H698 0.951 . S
C716 C717 1.366 . S
C716 C718 1.388 . S
C717 C716 1.366 . S
C717 C721 1.385 . S
C718 H699 0.951 . S
C718 C716 1.388 . S
C718 C719 1.366 . S
C719 C718 1.366 . S
C719 C720 1.414 . S
C719 C722 1.499 . S
C720 H700 0.950 . S
C720 C719 1.414 . S
C720 C721 1.374 . S
C721 H701 0.950 . S
C721 C717 1.385 . S
C721 C720 1.374 . S
C722 C719 1.499 . S
C722 C723 1.373 . S
C722 C724 1.389 . S
C723 H702 0.950 . S
C723 C722 1.373 . S
C723 C739 1.377 . S
C724 C722 1.389 . S
C724 C725 1.524 . S
C724 C738 1.377 . S
C725 C724 1.524 . S
C725 C726 1.397 . S
C725 C730 1.363 . S
C726 H703 0.950 . S
C726 C725 1.397 . S
C726 C727 1.334 . S
C727 H704 0.950 . S
C727 C726 1.334 . S
C727 C728 1.287 . S
C728 C727 1.287 . S
C728 C729 1.524 . S
C728 H747 0.913 . S
C729 H705 0.950 . S
C729 C728 1.524 . S
C729 C730 1.415 . S
C730 H706 0.950 . S
C730 C725 1.363 . S
C730 C729 1.415 . S
C731 H707 0.951 . S
C731 C732 1.366 . S
C731 C733 1.388 . S
C732 C731 1.366 . S
C732 C736 1.385 . S
C733 H708 0.951 . S
C733 C731 1.388 . S
C733 C734 1.366 . S
C734 C733 1.366 . S
C734 C735 1.414 . S
C734 C737 1.499 . S
C735 H709 0.950 . S
C735 C734 1.414 . S
C735 C736 1.374 . S
C736 H710 0.950 . S
C736 C732 1.385 . S
C736 C735 1.374 . S
C737 C734 1.499 . S
C737 C738 1.373 . S
C737 C739 1.389 . S
C738 H711 0.950 . S
C738 C724 1.377 . S
C738 C737 1.373 . S
C739 C723 1.377 . S
C739 C737 1.389 . S
C739 C740 1.524 . S
C740 C739 1.524 . S
C740 C741 1.397 . S
C740 C745 1.363 . S
C741 H712 0.950 . S
C741 C740 1.397 . S
C741 C742 1.334 . S
C742 H713 0.950 . S
C742 C741 1.334 . S
C742 C743 1.287 . S
C743 C742 1.287 . S
C743 C744 1.524 . S
C743 H746 0.999 . S
C744 H714 0.950 . S
C744 C743 1.524 . S
C744 C745 1.415 . S
C745 H715 0.950 . S
C745 C740 1.363 . S
C745 C744 1.415 . S
H746 C743 0.999 . S
H747 C728 0.913 . S
H748 C766 0.951 . S
H749 C768 0.951 . S
H750 C770 0.950 . S
H751 C771 0.950 . S
H752 C773 0.950 . S
H753 C776 0.950 . S
H754 C777 0.950 . S
H755 C779 0.950 . S
H756 C780 0.950 . S
H757 C781 0.951 . S
H758 C783 0.951 . S
H759 C785 0.950 . S
H760 C786 0.950 . S
H761 C788 0.950 . S
H762 C791 0.950 . S
H763 C792 0.950 . S
H764 C794 0.950 . S
H765 C795 0.950 . S
C766 H748 0.951 . S
C766 C767 1.366 . S
C766 C768 1.388 . S
C767 C766 1.366 . S
C767 C771 1.385 . S
C768 H749 0.951 . S
C768 C766 1.388 . S
C768 C769 1.366 . S
C769 C768 1.366 . S
C769 C770 1.414 . S
C769 C772 1.499 . S
C770 H750 0.950 . S
C770 C769 1.414 . S
C770 C771 1.374 . S
C771 H751 0.950 . S
C771 C767 1.385 . S
C771 C770 1.374 . S
C772 C769 1.499 . S
C772 C773 1.373 . S
C772 C774 1.389 . S
C773 H752 0.950 . S
C773 C772 1.373 . S
C773 C789 1.377 . S
C774 C772 1.389 . S
C774 C775 1.524 . S
C774 C788 1.377 . S
C775 C774 1.524 . S
C775 C776 1.397 . S
C775 C780 1.363 . S
C776 H753 0.950 . S
C776 C775 1.397 . S
C776 C777 1.334 . S
C777 H754 0.950 . S
C777 C776 1.334 . S
C777 C778 1.287 . S
C778 C777 1.287 . S
C778 C779 1.524 . S
C778 H797 0.913 . S
C779 H755 0.950 . S
C779 C778 1.524 . S
C779 C780 1.415 . S
C780 H756 0.950 . S
C780 C775 1.363 . S
C780 C779 1.415 . S
C781 H757 0.951 . S
C781 C782 1.366 . S
C781 C783 1.388 . S
C782 C781 1.366 . S
C782 C786 1.385 . S
C783 H758 0.951 . S
C783 C781 1.388 . S
C783 C784 1.366 . S
C784 C783 1.366 . S
C784 C785 1.414 . S
C784 C787 1.499 . S
C785 H759 0.950 . S
C785 C784 1.414 . S
C785 C786 1.374 . S
C786 H760 0.950 . S
C786 C782 1.385 . S
C786 C785 1.374 . S
C787 C784 1.499 . S
C787 C788 1.373 . S
C787 C789 1.389 . S
C788 H761 0.950 . S
C788 C774 1.377 . S
C788 C787 1.373 . S
C789 C773 1.377 . S
C789 C787 1.389 . S
C789 C790 1.524 . S
C790 C789 1.524 . S
C790 C791 1.397 . S
C790 C795 1.363 . S
C791 H762 0.950 . S
C791 C790 1.397 . S
C791 C792 1.334 . S
C792 H763 0.950 . S
C792 C791 1.334 . S
C792 C793 1.287 . S
C793 C792 1.287 . S
C793 C794 1.524 . S
C793 H796 0.999 . S
C794 H764 0.950 . S
C794 C793 1.524 . S
C794 C795 1.415 . S
C795 H765 0.950 . S
C795 C790 1.363 . S
C795 C794 1.415 . S
H796 C793 0.999 . S
H797 C778 0.913 . S
H798 C816 0.951 . S
H799 C818 0.951 . S
H800 C820 0.950 . S
H801 C821 0.950 . S
H802 C823 0.915 1_655 S
H803 C826 0.950 . S
H804 C827 0.950 . S
H805 C829 0.950 . S
H806 C830 0.950 . S
H807 C831 0.951 . S
H808 C833 0.951 . S
H809 C835 0.950 . S
H810 C836 0.950 . S
H811 C838 0.963 . S
H812 C841 0.950 . S
H813 C842 0.950 . S
H814 C844 0.950 . S
H815 C845 0.950 1_454 S
C816 H798 0.951 . S
C816 C817 1.366 . S
C816 C818 1.388 . S
C817 C816 1.366 . S
C817 C821 1.385 . S
C818 H799 0.951 . S
C818 C816 1.388 . S
C818 C819 1.366 . S
C819 C818 1.366 . S
C819 C820 1.414 . S
C819 C822 1.499 . S
C820 H800 0.950 . S
C820 C819 1.414 . S
C820 C821 1.374 . S
C821 H801 0.950 . S
C821 C817 1.385 . S
C821 C820 1.374 . S
C822 C819 1.499 . S
C822 C823 1.373 . S
C822 C824 1.389 . S
C823 H802 0.915 1_455 S
C823 C822 1.373 . S
C823 C839 1.377 . S
C824 C822 1.389 . S
C824 C825 1.524 . S
C824 C838 1.377 . S
C825 C824 1.524 . S
C825 C826 1.397 . S
C825 C830 1.363 . S
C826 H803 0.950 . S
C826 C825 1.397 . S
C826 C827 1.334 . S
C827 H804 0.950 . S
C827 C826 1.334 . S
C827 C828 1.287 . S
C828 C827 1.287 . S
C828 C829 1.524 . S
C828 H847 0.913 . S
C829 H805 0.950 . S
C829 C828 1.524 . S
C829 C830 1.415 . S
C830 H806 0.950 . S
C830 C825 1.363 . S
C830 C829 1.415 . S
C831 H807 0.951 . S
C831 C832 1.366 . S
C831 C833 1.388 . S
C832 C831 1.366 . S
C832 C836 1.385 . S
C833 H808 0.951 . S
C833 C831 1.388 . S
C833 C834 1.366 . S
C834 C833 1.366 . S
C834 C835 1.414 . S
C834 C837 1.499 . S
C835 H809 0.950 . S
C835 C834 1.414 . S
C835 C836 1.374 . S
C836 H810 0.950 . S
C836 C832 1.385 . S
C836 C835 1.374 . S
C837 C834 1.499 . S
C837 C838 1.373 1_556 S
C837 C839 1.389 1_556 S
C838 H811 0.963 . S
C838 C824 1.377 . S
C838 C837 1.373 1_554 S
C839 C823 1.377 . S
C839 C837 1.389 1_554 S
C839 C840 1.524 1_454 S
C840 C839 1.524 1_656 S
C840 C841 1.397 . S
C840 C845 1.363 . S
C841 H812 0.950 . S
C841 C840 1.397 . S
C841 C842 1.334 . S
C842 H813 0.950 . S
C842 C841 1.334 . S
C842 C843 1.287 . S
C843 C842 1.287 . S
C843 C844 1.524 . S
C843 H846 0.999 . S
C844 H814 0.950 . S
C844 C843 1.524 . S
C844 C845 1.415 . S
C845 H815 0.950 1_656 S
C845 C840 1.363 . S
C845 C844 1.415 . S
H846 C843 0.999 . S
H847 C828 0.913 . S
H848 C866 0.951 . S
H849 C868 0.951 . S
H850 C870 0.950 . S
H851 C871 0.950 . S
H852 C873 0.950 1_565 S
H853 C876 0.950 . S
H854 C877 0.950 . S
H855 C879 0.950 . S
H856 C880 0.950 . S
H857 C881 0.951 . S
H858 C883 0.951 . S
H859 C885 0.950 . S
H860 C886 0.950 . S
H861 C888 0.950 . S
H862 C891 0.950 . S
H863 C892 0.950 . S
H864 C894 0.950 . S
H865 C895 0.950 . S
C866 H848 0.951 . S
C866 C867 1.366 . S
C866 C868 1.388 . S
C867 C866 1.366 . S
C867 C871 1.385 1_545 S
C868 H849 0.951 . S
C868 C866 1.388 . S
C868 C869 1.366 . S
C869 C868 1.366 . S
C869 C870 1.414 1_545 S
C869 C872 1.499 . S
C870 H850 0.950 . S
C870 C869 1.414 1_565 S
C870 C871 1.374 . S
C871 H851 0.950 . S
C871 C867 1.385 1_565 S
C871 C870 1.374 . S
C872 C869 1.499 . S
C872 C873 1.373 . S
C872 C874 1.389 . S
C873 H852 0.950 1_545 S
C873 C872 1.373 . S
C873 C889 1.377 . S
C874 C872 1.389 . S
C874 C875 1.524 . S
C874 C888 1.377 . S
C875 C874 1.524 . S
C875 C876 1.397 . S
C875 C880 1.363 . S
C876 H853 0.950 . S
C876 C875 1.397 . S
C876 C877 1.334 . S
C877 H854 0.950 . S
C877 C876 1.334 . S
C877 C878 1.287 . S
C878 C877 1.287 . S
C878 C879 1.524 . S
C878 H897 0.913 . S
C879 H855 0.950 . S
C879 C878 1.524 . S
C879 C880 1.415 . S
C880 H856 0.950 . S
C880 C875 1.363 . S
C880 C879 1.415 . S
C881 H857 0.951 . S
C881 C882 1.366 1_565 S
C881 C883 1.388 . S
C882 C881 1.366 1_545 S
C882 C886 1.385 . S
C883 H858 0.951 . S
C883 C881 1.388 . S
C883 C884 1.366 1_565 S
C884 C883 1.366 1_545 S
C884 C885 1.414 . S
C884 C887 1.499 . S
C885 H859 0.950 . S
C885 C884 1.414 . S
C885 C886 1.374 . S
C886 H860 0.950 . S
C886 C882 1.385 . S
C886 C885 1.374 . S
C887 C884 1.499 . S
C887 C888 1.373 . S
C887 C889 1.389 . S
C888 H861 0.950 . S
C888 C874 1.377 . S
C888 C887 1.373 . S
C889 C873 1.377 . S
C889 C887 1.389 . S
C889 C890 1.524 1_545 S
C890 C889 1.524 1_565 S
C890 C891 1.397 1_565 S
C890 C895 1.363 . S
C891 H862 0.950 . S
C891 C890 1.397 1_545 S
C891 C892 1.334 . S
C892 H863 0.950 . S
C892 C891 1.334 . S
C892 C893 1.287 1_545 S
C893 C892 1.287 1_565 S
C893 C894 1.524 . S
C893 H896 0.999 . S
C894 H864 0.950 . S
C894 C893 1.524 . S
C894 C895 1.415 . S
C895 H865 0.950 . S
C895 C890 1.363 . S
C895 C894 1.415 . S
H896 C893 0.999 . S
H897 C878 0.913 . S
H898 C916 0.951 . S
H899 C918 0.951 . S
H900 C920 0.950 . S
H901 C921 0.950 . S
H902 C923 0.950 . S
H903 C926 0.950 . S
H904 C927 0.950 . S
H905 C929 0.950 . S
H906 C930 0.950 . S
H907 C931 0.951 . S
H908 C933 0.951 . S
H909 C935 0.950 . S
H910 C936 0.950 . S
H911 C938 0.950 . S
H912 C941 0.950 . S
H913 C942 0.950 . S
H914 C944 0.950 . S
H915 C945 0.950 . S
C916 H898 0.951 . S
C916 C917 1.366 . S
C916 C918 1.388 . S
C917 C916 1.366 . S
C917 C921 1.385 . S
C918 H899 0.951 . S
C918 C916 1.388 . S
C918 C919 1.366 . S
C919 C918 1.366 . S
C919 C920 1.414 . S
C919 C922 1.499 . S
C920 H900 0.950 . S
C920 C919 1.414 . S
C920 C921 1.374 . S
C921 H901 0.950 . S
C921 C917 1.385 . S
C921 C920 1.374 . S
C922 C919 1.499 . S
C922 C923 1.373 . S
C922 C924 1.389 . S
C923 H902 0.950 . S
C923 C922 1.373 . S
C923 C939 1.377 . S
C924 C922 1.389 . S
C924 C925 1.524 . S
C924 C938 1.377 . S
C925 C924 1.524 . S
C925 C926 1.397 . S
C925 C930 1.363 . S
C926 H903 0.950 . S
C926 C925 1.397 . S
C926 C927 1.334 . S
C927 H904 0.950 . S
C927 C926 1.334 . S
C927 C928 1.287 . S
C928 C927 1.287 . S
C928 C929 1.524 . S
C928 H947 0.913 . S
C929 H905 0.950 . S
C929 C928 1.524 . S
C929 C930 1.415 . S
C930 H906 0.950 . S
C930 C925 1.363 . S
C930 C929 1.415 . S
C931 H907 0.951 . S
C931 C932 1.366 . S
C931 C933 1.388 . S
C932 C931 1.366 . S
C932 C936 1.385 . S
C933 H908 0.951 . S
C933 C931 1.388 . S
C933 C934 1.366 . S
C934 C933 1.366 . S
C934 C935 1.414 . S
C934 C937 1.499 . S
C935 H909 0.950 . S
C935 C934 1.414 . S
C935 C936 1.374 . S
C936 H910 0.950 . S
C936 C932 1.385 . S
C936 C935 1.374 . S
C937 C934 1.499 . S
C937 C938 1.373 . S
C937 C939 1.389 . S
C938 H911 0.950 . S
C938 C924 1.377 . S
C938 C937 1.373 . S
C939 C923 1.377 . S
C939 C937 1.389 . S
C939 C940 1.524 . S
C940 C939 1.524 . S
C940 C941 1.397 . S
C940 C945 1.363 . S
C941 H912 0.950 . S
C941 C940 1.397 . S
C941 C942 1.334 . S
C942 H913 0.950 . S
C942 C941 1.334 . S
C942 C943 1.287 . S
C943 C942 1.287 . S
C943 C944 1.524 . S
C943 H946 0.999 . S
C944 H914 0.950 . S
C944 C943 1.524 . S
C944 C945 1.415 . S
C945 H915 0.950 . S
C945 C940 1.363 . S
C945 C944 1.415 . S
H946 C943 0.999 . S
H947 C928 0.913 . S
H948 C966 0.951 . S
H949 C968 0.951 . S
H950 C970 0.950 . S
H951 C971 0.950 . S
H952 C973 0.950 . S
H953 C976 0.950 . S
H954 C977 0.950 . S
H955 C979 0.950 . S
H956 C980 0.950 . S
H957 C981 0.951 . S
H958 C983 0.951 . S
H959 C985 0.950 . S
H960 C986 0.950 . S
H961 C988 0.950 . S
H962 C991 0.950 . S
H963 C992 0.950 . S
H964 C994 0.950 . S
H965 C995 0.950 . S
C966 H948 0.951 . S
C966 C967 1.366 . S
C966 C968 1.388 . S
C967 C966 1.366 . S
C967 C971 1.385 . S
C968 H949 0.951 . S
C968 C966 1.388 . S
C968 C969 1.366 . S
C969 C968 1.366 . S
C969 C970 1.414 . S
C969 C972 1.499 . S
C970 H950 0.950 . S
C970 C969 1.414 . S
C970 C971 1.374 . S
C971 H951 0.950 . S
C971 C967 1.385 . S
C971 C970 1.374 . S
C972 C969 1.499 . S
C972 C973 1.373 . S
C972 C974 1.389 1_545 S
C973 H952 0.950 . S
C973 C972 1.373 . S
C973 C989 1.377 . S
C974 C972 1.389 1_565 S
C974 C975 1.524 . S
C974 C988 1.377 . S
C975 C974 1.524 . S
C975 C976 1.397 . S
C975 C980 1.363 . S
C976 H953 0.950 . S
C976 C975 1.397 . S
C976 C977 1.334 . S
C977 H954 0.950 . S
C977 C976 1.334 . S
C977 C978 1.287 . S
C978 C977 1.287 . S
C978 C979 1.524 . S
C978 H997 0.913 . S
C979 H955 0.950 . S
C979 C978 1.524 . S
C979 C980 1.415 . S
C980 H956 0.950 . S
C980 C975 1.363 . S
C980 C979 1.415 . S
C981 H957 0.951 . S
C981 C982 1.366 . S
C981 C983 1.388 . S
C982 C981 1.366 . S
C982 C986 1.385 . S
C983 H958 0.951 . S
C983 C981 1.388 . S
C983 C984 1.366 . S
C984 C983 1.366 . S
C984 C985 1.414 . S
C984 C987 1.499 . S
C985 H959 0.950 . S
C985 C984 1.414 . S
C985 C986 1.374 . S
C986 H960 0.950 . S
C986 C982 1.385 . S
C986 C985 1.374 . S
C987 C984 1.499 . S
C987 C988 1.373 1_545 S
C987 C989 1.389 . S
C988 H961 0.950 . S
C988 C974 1.377 . S
C988 C987 1.373 1_565 S
C989 C973 1.377 . S
C989 C987 1.389 . S
C989 C990 1.524 . S
C990 C989 1.524 . S
C990 C991 1.397 . S
C990 C995 1.363 . S
C991 H962 0.950 . S
C991 C990 1.397 . S
C991 C992 1.334 . S
C992 H963 0.950 . S
C992 C991 1.334 . S
C992 C993 1.287 . S
C993 C992 1.287 . S
C993 C994 1.524 . S
C993 H996 0.999 . S
C994 H964 0.950 . S
C994 C993 1.524 . S
C994 C995 1.415 . S
C995 H965 0.950 . S
C995 C990 1.363 . S
C995 C994 1.415 . S
H996 C993 0.999 . S
H997 C978 0.913 . S
H998 C1016 0.951 . S
H999 C1018 0.951 . S
H1000 C1020 0.950 . S
H1001 C1021 0.950 . S
H1002 C1023 0.950 . S
H1003 C1026 0.950 . S
H1004 C1027 0.950 . S
H1005 C1029 0.950 . S
H1006 C1030 0.950 . S
H1007 C1031 0.951 . S
H1008 C1033 0.951 . S
H1009 C1035 0.950 . S
H1010 C1036 0.950 . S
H1011 C1038 0.950 1_554 S
H1012 C1041 0.950 . S
H1013 C1042 0.950 . S
H1014 C1044 0.936 1_556 S
H1015 C1045 0.950 . S
C1016 H998 0.951 . S
C1016 C1017 1.366 . S
C1016 C1018 1.388 . S
C1017 C1016 1.366 . S
C1017 C1021 1.385 . S
C1018 H999 0.951 . S
C1018 C1016 1.388 . S
C1018 C1019 1.366 . S
C1019 C1018 1.366 . S
C1019 C1020 1.414 . S
C1019 C1022 1.499 . S
C1020 H1000 0.950 . S
C1020 C1019 1.414 . S
C1020 C1021 1.374 . S
C1021 H1001 0.950 . S
C1021 C1017 1.385 . S
C1021 C1020 1.374 . S
C1022 C1019 1.499 . S
C1022 C1023 1.373 . S
C1022 C1024 1.389 . S
C1023 H1002 0.950 . S
C1023 C1022 1.373 . S
C1023 C1039 1.377 . S
C1024 C1022 1.389 . S
C1024 C1025 1.524 . S
C1024 C1038 1.377 . S
C1025 C1024 1.524 . S
C1025 C1026 1.397 . S
C1025 C1030 1.363 . S
C1026 H1003 0.950 . S
C1026 C1025 1.397 . S
C1026 C1027 1.334 . S
C1027 H1004 0.950 . S
C1027 C1026 1.334 . S
C1027 C1028 1.287 . S
C1028 C1027 1.287 . S
C1028 C1029 1.524 . S
C1028 H1047 0.913 . S
C1029 H1005 0.950 . S
C1029 C1028 1.524 . S
C1029 C1030 1.415 . S
C1030 H1006 0.950 . S
C1030 C1025 1.363 . S
C1030 C1029 1.415 . S
C1031 H1007 0.951 . S
C1031 C1032 1.366 . S
C1031 C1033 1.388 . S
C1032 C1031 1.366 . S
C1032 C1036 1.385 . S
C1033 H1008 0.951 . S
C1033 C1031 1.388 . S
C1033 C1034 1.366 . S
C1034 C1033 1.366 . S
C1034 C1035 1.414 . S
C1034 C1037 1.499 . S
C1035 H1009 0.950 . S
C1035 C1034 1.414 . S
C1035 C1036 1.374 . S
C1036 H1010 0.950 . S
C1036 C1032 1.385 . S
C1036 C1035 1.374 . S
C1037 C1034 1.499 . S
C1037 C1038 1.373 1_554 S
C1037 C1039 1.389 1_554 S
C1038 H1011 0.950 1_556 S
C1038 C1024 1.377 . S
C1038 C1037 1.373 1_556 S
C1039 C1023 1.377 . S
C1039 C1037 1.389 1_556 S
C1039 C1040 1.524 1_556 S
C1040 C1039 1.524 1_554 S
C1040 C1041 1.397 . S
C1040 C1045 1.363 1_554 S
C1041 H1012 0.950 . S
C1041 C1040 1.397 . S
C1041 C1042 1.334 . S
C1042 H1013 0.950 . S
C1042 C1041 1.334 . S
C1042 C1043 1.287 . S
C1043 C1042 1.287 . S
C1043 C1044 1.524 . S
C1043 H1046 0.999 . S
C1044 H1014 0.936 1_554 S
C1044 C1043 1.524 . S
C1044 C1045 1.415 1_554 S
C1045 H1015 0.950 . S
C1045 C1040 1.363 1_556 S
C1045 C1044 1.415 1_556 S
H1046 C1043 0.999 . S
H1047 C1028 0.913 . S
H1048 C1066 0.951 . S
H1049 C1068 0.951 . S
H1050 C1070 0.950 . S
H1051 C1071 0.950 . S
H1052 C1073 0.950 . S
H1053 C1076 0.950 . S
H1054 C1077 0.950 . S
H1055 C1079 0.950 . S
H1056 C1080 0.950 . S
H1057 C1081 0.951 . S
H1058 C1083 0.951 . S
H1059 C1085 0.950 . S
H1060 C1086 0.950 . S
H1061 C1088 0.950 . S
H1062 C1091 0.950 . S
H1063 C1092 0.950 . S
H1064 C1094 0.950 . S
H1065 C1095 0.950 . S
C1066 H1048 0.951 . S
C1066 C1067 1.366 1_455 S
C1066 C1068 1.388 . S
C1067 C1066 1.366 1_655 S
C1067 C1071 1.385 . S
C1068 H1049 0.951 . S
C1068 C1066 1.388 . S
C1068 C1069 1.366 . S
C1069 C1068 1.366 . S
C1069 C1070 1.414 1_455 S
C1069 C1072 1.499 . S
C1070 H1050 0.950 . S
C1070 C1069 1.414 1_655 S
C1070 C1071 1.374 . S
C1071 H1051 0.950 . S
C1071 C1067 1.385 . S
C1071 C1070 1.374 . S
C1072 C1069 1.499 . S
C1072 C1073 1.373 1_455 S
C1072 C1074 1.389 . S
C1073 H1052 0.950 . S
C1073 C1072 1.373 1_655 S
C1073 C1089 1.377 . S
C1074 C1072 1.389 . S
C1074 C1075 1.524 . S
C1074 C1088 1.377 . S
C1075 C1074 1.524 . S
C1075 C1076 1.397 . S
C1075 C1080 1.363 . S
C1076 H1053 0.950 . S
C1076 C1075 1.397 . S
C1076 C1077 1.334 . S
C1077 H1054 0.950 . S
C1077 C1076 1.334 . S
C1077 C1078 1.287 . S
C1078 C1077 1.287 . S
C1078 C1079 1.524 . S
C1078 H1097 0.913 . S
C1079 H1055 0.950 . S
C1079 C1078 1.524 . S
C1079 C1080 1.415 . S
C1080 H1056 0.950 . S
C1080 C1075 1.363 . S
C1080 C1079 1.415 . S
C1081 H1057 0.951 . S
C1081 C1082 1.366 1_655 S
C1081 C1083 1.388 . S
C1082 C1081 1.366 1_455 S
C1082 C1086 1.385 . S
C1083 H1058 0.951 . S
C1083 C1081 1.388 . S
C1083 C1084 1.366 1_655 S
C1084 C1083 1.366 1_455 S
C1084 C1085 1.414 . S
C1084 C1087 1.499 . S
C1085 H1059 0.950 . S
C1085 C1084 1.414 . S
C1085 C1086 1.374 . S
C1086 H1060 0.950 . S
C1086 C1082 1.385 . S
C1086 C1085 1.374 . S
C1087 C1084 1.499 . S
C1087 C1088 1.373 . S
C1087 C1089 1.389 1_455 S
C1088 H1061 0.950 . S
C1088 C1074 1.377 . S
C1088 C1087 1.373 . S
C1089 C1073 1.377 . S
C1089 C1087 1.389 1_655 S
C1089 C1090 1.524 . S
C1090 C1089 1.524 . S
C1090 C1091 1.397 . S
C1090 C1095 1.363 . S
C1091 H1062 0.950 . S
C1091 C1090 1.397 . S
C1091 C1092 1.334 . S
C1092 H1063 0.950 . S
C1092 C1091 1.334 . S
C1092 C1093 1.287 . S
C1093 C1092 1.287 . S
C1093 C1094 1.524 . S
C1093 H1096 0.999 . S
C1094 H1064 0.950 . S
C1094 C1093 1.524 . S
C1094 C1095 1.415 . S
C1095 H1065 0.950 . S
C1095 C1090 1.363 . S
C1095 C1094 1.415 . S
H1096 C1093 0.999 . S
H1097 C1078 0.913 . S
C217 C7 0.523 . S
C232 C189 0.577 . S
C267 C51 1.786 . S
C282 C167 1.758 . S
C317 C87 1.102 . S
C332 C180 1.100 . S
C367 C16 0.265 . S
C382 C193 0.180 . S
C432 C163 1.884 . S
C417 C42 2.034 . S
C482 C176 1.257 . S
C467 C96 1.334 . S
C517 C47 1.043 . S
C532 C141 1.038 . S
C567 C91 3.002 . S
C582 C154 2.961 1_655 S
C617 C2 2.033 . S
C632 C124 1.888 . S
C682 C137 1.281 . S
C667 C56 1.350 . S
C732 C150 2.840 . S
C717 C82 3.011 . S
C767 C11 1.789 . S
C782 C128 1.767 . S
C832 C155 1.734 . S
C817 C19 1.691 . S
C867 C50 1.468 . S
C882 C129 1.504 . S
C917 C99 1.531 . S
C932 C142 1.619 . S
C982 C181 1.551 . S
C967 C59 1.481 . S
C1032 C194 1.369 . S
C1017 C90 1.351 . S
C1067 C10 1.447 1_655 S
C1082 C168 1.497 . S
