# Generated by pormake.
# Topology tsx, (6,3)-cn, num edge types: 1
# Building blocks:
#     Node 0, Type 0, BuildingBlock: VOLQOD_clean_sbu_1, # of connection points: 6
#     Node 1, Type 0, BuildingBlock: VOLQOD_clean_sbu_1, # of connection points: 6
#     Node 2, Type 1, BuildingBlock: VETTIZ_charged_linker_0, # of connection points: 3
#     Node 3, Type 1, BuildingBlock: VETTIZ_charged_linker_0, # of connection points: 3
#     Node 4, Type 1, BuildingBlock: VETTIZ_charged_linker_0, # of connection points: 3
#     Node 5, Type 1, BuildingBlock: VETTIZ_charged_linker_0, # of connection points: 3
#     Edge 6, Type (0, 1), None
#     Edge 7, Type (0, 1), None
#     Edge 8, Type (0, 1), None
#     Edge 9, Type (0, 1), None
#     Edge 10, Type (0, 1), None
#     Edge 11, Type (0, 1), None
#     Edge 12, Type (0, 1), None
#     Edge 13, Type (0, 1), None
#     Edge 14, Type (0, 1), None
#     Edge 15, Type (0, 1), None
#     Edge 16, Type (0, 1), None
#     Edge 17, Type (0, 1), None
# Relax obj value: 0.078
# Max RMSD: 0.110
# Mean RMSD: 0.085
data_MOF--net-tsx--node1-VOLQOD_clean_sbu_1--node2-VETTIZ_charged_linker_0--edge1-none
_symmetry_space_group_name_H-M    P1
_symmetry_Int_Tables_number       1
_symmetry_cell_setting            triclinic
loop_
_symmetry_equiv_pos_as_xyz
'x, y, z'
_cell_length_a     13.326858
_cell_length_b     13.493664
_cell_length_c     29.11405
_cell_angle_alpha  91.917989
_cell_angle_beta   89.879827
_cell_angle_gamma 88.78346
loop_
_atom_site_label
_atom_site_type_symbol
_atom_site_fract_x
_atom_site_fract_y
_atom_site_fract_z
_atom_type_partial_charge
O0 O 0.06665 0.99465 0.08639 0.0
Zn1 Zn 0.11612 0.98531 0.02091 0.0
O2 O 1.00424 1.01092 -0.01719 0.0
Zn3 Zn 0.96206 0.89092 0.9519 0.0
Zn4 Zn 0.89607 0.07246 0.01678 0.0
Zn5 Zn 0.04813 0.10177 0.93943 0.0
O6 O 0.95964 0.91779 0.88372 0.0
O7 O 0.08491 0.02539 0.88241 0.0
O8 O 0.19007 0.859 -0.00376 0.0
O9 O 0.07154 0.78564 0.95439 0.0
O10 O 0.83384 0.84092 -0.01717 0.0
O11 O 0.80163 0.96718 0.03232 0.0
O12 O 0.82099 0.17623 -0.02175 0.0
O13 O 0.20835 0.1005 0.02096 0.0
O14 O 0.9331 0.1855 0.92212 0.0
O15 O 0.15363 0.1943 0.96504 0.0
C16 C 1.01207 0.06622 0.1035 0.0
C17 C 0.02785 0.9632 0.86207 0.0
C18 C 0.78325 0.88072 0.01633 0.0
C19 C 0.16022 0.78667 0.9705 0.0
C20 C 0.84851 0.20963 0.93971 0.0
C21 C 0.2113 0.18049 -0.00088 0.0
O22 O 0.95193 0.11676 0.07864 0.0
O23 O 0.56684 0.49463 0.58638 0.0
Zn24 Zn 0.61641 0.48526 0.52091 0.0
O25 O 0.50458 0.51084 0.48278 0.0
Zn26 Zn 0.46242 0.39081 0.4519 0.0
Zn27 Zn 0.39637 0.57239 0.51672 0.0
Zn28 Zn 0.54852 0.60165 0.43939 0.0
O29 O 0.45992 0.41764 0.38372 0.0
O30 O 0.58524 0.52519 0.38237 0.0
O31 O 0.69042 0.35895 0.49625 0.0
O32 O 0.57194 0.28557 0.45438 0.0
O33 O 0.33424 0.34078 0.48285 0.0
O34 O 0.30192 0.46712 0.53228 0.0
O35 O 0.32132 0.67613 0.47815 0.0
O36 O 0.70863 0.60044 0.52096 0.0
O37 O 0.43352 0.68541 0.42206 0.0
O38 O 0.65407 0.69416 0.46498 0.0
C39 C 0.51221 0.56619 0.60347 0.0
C40 C 0.52813 0.46302 0.36205 0.0
C41 C 0.2836 0.38062 0.51633 0.0
C42 C 0.66061 0.28663 0.4705 0.0
C43 C 0.3489 0.70953 0.43962 0.0
C44 C 0.71167 0.68038 0.49909 0.0
O45 O 0.45213 0.61673 0.57858 0.0
C46 C 0.17976 0.77793 0.41414 0.0
C47 C 0.28573 0.77947 0.41375 0.0
C48 C 0.33462 0.84815 0.38637 0.0
C49 C 0.17591 0.90761 0.35854 0.0
C50 C 0.12564 0.8439 0.38621 0.0
C51 C 0.0149 0.87307 0.38889 0.0
H52 H 0.81701 0.33916 0.42015 0.0
C53 C 0.10591 0.98174 0.34227 0.0
C54 C 0.01536 0.97499 0.36652 0.0
H55 H 0.65766 0.082 0.46093 0.0
H56 H 0.77216 0.97501 0.41254 0.0
H57 H 0.07436 0.23056 0.39469 0.0
H58 H 0.85233 0.36708 0.34117 0.0
H59 H 0.80624 0.2604 0.30984 0.0
H60 H 0.92205 0.31778 0.29292 0.0
H61 H 1.00952 0.34886 0.39254 0.0
H62 H 0.07893 0.30084 0.34325 0.0
C63 C 0.97929 0.87093 0.43872 0.0
C64 C 0.95345 0.80087 0.35868 0.0
C65 C 0.10108 0.0556 0.17869 0.0
C66 C 0.01842 0.09026 0.15333 0.0
C67 C 0.93989 0.14329 0.17648 0.0
C68 C 0.94246 0.15875 0.22434 0.0
C69 C 0.02585 0.12437 0.24877 0.0
C70 C 0.10246 0.07158 0.22645 0.0
C71 C 0.17364 0.0249 0.26008 0.0
C72 C 0.11457 0.04461 0.30476 0.0
C73 C 0.03742 0.11398 0.29828 0.0
C74 C 0.27276 0.08177 0.25918 0.0
C75 C 0.19082 0.91346 0.24776 0.0
C76 C 0.81135 0.25938 0.42184 0.0
C77 C 0.73561 0.21801 0.44824 0.0
C78 C 0.72127 0.1145 0.44433 0.0
C79 C 0.78794 0.05272 0.41784 0.0
C80 C 0.86921 0.09502 0.39564 0.0
C81 C 0.87278 0.1973 0.39386 0.0
C82 C 0.93526 0.22838 0.3541 0.0
C83 C 0.96115 0.12798 0.33132 0.0
C84 C 0.93997 0.05116 0.36116 0.0
C85 C 0.03009 0.28016 0.37224 0.0
C86 C 0.87527 0.29701 0.32255 0.0
H87 H 0.3184 0.97169 0.3431 0.0
H88 H 0.14069 0.72837 0.43618 0.0
H89 H 0.87278 0.82362 0.35941 0.0
H90 H 0.96058 0.72406 0.37116 0.0
H91 H 0.97972 0.79986 0.32237 0.0
H92 H 0.03575 0.90246 0.46239 0.0
H93 H 0.96774 0.79358 0.4493 0.0
H94 H 0.90767 0.91066 0.44261 0.0
H95 H 0.16176 1.01415 0.16174 0.0
H96 H 0.87437 0.16862 0.1579 0.0
H97 H 0.87778 0.19175 0.24156 0.0
H98 H 0.30266 0.08283 0.22353 0.0
H99 H 0.33172 0.04677 0.2801 0.0
H100 H 0.2612 0.15987 0.27186 0.0
H101 H 0.11912 0.87307 0.24947 0.0
H102 H 0.24563 0.8788 0.27109 0.0
H103 H 0.22263 0.90228 0.21267 0.0
H104 H 0.41565 0.85346 0.38667 0.0
C105 C 0.2799 0.91389 0.3599 0.0
C106 C 0.13646 0.26878 0.52688 0.0
C107 C 0.21948 0.31935 0.54472 0.0
C108 C 0.24376 0.31143 0.59151 0.0
C109 C 0.111 0.19477 0.60104 0.0
C110 C 0.08245 0.20718 0.55591 0.0
C111 C 0.99565 0.14194 0.54312 0.0
H112 H 0.83314 0.67442 0.57343 0.0
C113 C 0.05454 0.11203 0.61937 0.0
C114 C 0.99172 0.07461 0.58441 0.0
H115 H 0.71394 0.87649 0.47462 0.0
H116 H 0.80529 1.01194 0.51321 0.0
H117 H 0.05904 0.75168 0.60315 0.0
H118 H 0.75446 0.82011 0.64125 0.0
H119 H 0.82331 0.86939 0.68755 0.0
H120 H 0.82906 0.73747 0.67421 0.0
H121 H 0.97213 0.67087 0.62977 0.0
H122 H 0.04582 0.75512 0.66393 0.0
C123 C 0.01875 0.08744 0.49733 0.0
C124 C 0.90032 0.20808 0.5407 0.0
C125 C 0.08075 0.02605 0.78652 0.0
C126 C 0.03501 0.95203 0.81174 0.0
C127 C 0.9914 0.87113 0.78821 0.0
C128 C 0.98773 0.86733 0.74019 0.0
C129 C 0.0252 0.94658 0.7157 0.0
C130 C 0.07381 1.0226 0.73865 0.0
C131 C 0.1104 0.09946 0.70659 0.0
C132 C 0.06243 0.06397 0.66184 0.0
C133 C 0.01516 0.97359 0.6674 0.0
C134 C 0.2269 0.09196 0.70475 0.0
C135 C 0.06858 0.20277 0.72279 0.0
C136 C 0.83233 0.74556 0.55727 0.0
C137 C 0.77416 0.76195 0.51797 0.0
C138 C 0.76482 0.85976 0.50235 0.0
C139 C 0.81848 0.93764 0.52377 0.0
C140 C 0.88378 0.91716 0.55995 0.0
C141 C 0.8823 0.82442 0.57857 0.0
C142 C 0.9193 0.8263 0.62708 0.0
C143 C 0.95965 0.93039 0.63103 0.0
C144 C 0.94223 0.98296 0.59086 0.0
C145 C 1.00348 0.74653 0.6315 0.0
C146 C 0.82754 0.81221 0.65933 0.0
H147 H 0.21427 0.24444 0.65457 0.0
H148 H 0.1153 0.27695 0.49133 0.0
H149 H 0.83236 0.16385 0.53536 0.0
H150 H 0.90634 0.2605 0.51225 0.0
H151 H 0.88924 0.25251 0.57326 0.0
H152 H 0.08679 0.03919 0.50053 0.0
H153 H 0.03144 0.13965 0.46939 0.0
H154 H 0.95448 0.04406 0.48629 0.0
H155 H 0.11662 0.08823 0.8037 0.0
H156 H 0.95851 0.81177 0.80693 0.0
H157 H 0.95475 0.80352 0.72407 0.0
H158 H 0.25688 1.02339 0.72047 0.0
H159 H 0.26145 0.15566 0.72346 0.0
H160 H 0.25558 0.08816 0.66892 0.0
H161 H 0.98688 0.19929 0.73033 0.0
H162 H 0.07695 0.25939 0.69662 0.0
H163 H 0.10696 0.22947 0.75455 0.0
H164 H 0.30659 0.3513 0.60608 0.0
C165 C 0.19063 0.24896 0.61959 0.0
C166 C 0.67936 0.27799 0.91423 0.0
C167 C 0.78532 0.27957 0.91386 0.0
C168 C 0.8342 0.3483 0.8865 0.0
C169 C 0.6755 0.40766 0.85863 0.0
C170 C 0.62523 0.34394 0.88629 0.0
C171 C 0.51448 0.37306 0.88896 0.0
H172 H 0.31652 0.83915 0.92008 0.0
C173 C 0.60548 0.48174 0.84234 0.0
C174 C 0.51492 0.47497 0.86657 0.0
H175 H 0.15726 0.58204 0.96099 0.0
H176 H 0.27172 0.475 0.91259 0.0
H177 H 0.57381 0.73067 0.89461 0.0
H178 H 0.35157 0.86686 0.84105 0.0
H179 H 0.30566 0.76008 0.80974 0.0
H180 H 0.42138 0.81761 0.79283 0.0
H181 H 0.50888 0.84893 0.89239 0.0
H182 H 0.5783 0.80083 0.84312 0.0
C183 C 0.47884 0.37095 0.93878 0.0
C184 C 0.45307 0.30081 0.85875 0.0
C185 C 0.60098 0.55554 0.67872 0.0
C186 C 0.51839 0.59019 0.65331 0.0
C187 C 0.43976 0.64316 0.67641 0.0
C188 C 0.44218 0.65859 0.72427 0.0
C189 C 0.52551 0.62423 0.74876 0.0
C190 C 0.6022 0.57148 0.72648 0.0
C191 C 0.67331 0.52482 0.76015 0.0
C192 C 0.61414 0.54453 0.80479 0.0
C193 C 0.53696 0.61384 0.79827 0.0
C194 C 0.77243 0.58168 0.75929 0.0
C195 C 0.6905 0.41337 0.74784 0.0
C196 C 0.31087 0.75937 0.92179 0.0
C197 C 0.23518 0.71803 0.94824 0.0
C198 C 0.22085 0.61452 0.94436 0.0
C199 C 0.28749 0.55271 0.91787 0.0
C200 C 0.36873 0.59499 0.89563 0.0
C201 C 0.37227 0.69727 0.89382 0.0
C202 C 0.43469 0.72829 0.85403 0.0
C203 C 0.46064 0.62786 0.83129 0.0
C204 C 0.43948 0.55108 0.86116 0.0
C205 C 0.52949 0.78018 0.87213 0.0
C206 C 0.37462 0.79681 0.82245 0.0
H207 H 0.81796 0.47186 0.84324 0.0
H208 H 0.64029 0.2284 0.93626 0.0
H209 H 0.37239 0.32353 0.85946 0.0
H210 H 0.46023 0.22402 0.87124 0.0
H211 H 0.47936 0.29979 0.82243 0.0
H212 H 0.53528 0.4025 0.96245 0.0
H213 H 0.46729 0.29361 0.94937 0.0
H214 H 0.40722 0.41069 0.94266 0.0
H215 H 0.66173 0.51411 0.6618 0.0
H216 H 0.3743 0.66848 0.6578 0.0
H217 H 0.37743 0.69154 0.74146 0.0
H218 H 0.80232 0.58288 0.72363 0.0
H219 H 0.8314 0.54659 0.78017 0.0
H220 H 0.76089 0.65974 0.77203 0.0
H221 H 0.61879 0.37299 0.74951 0.0
H222 H 0.74524 0.37871 0.7712 0.0
H223 H 0.7224 0.40218 0.71277 0.0
H224 H 0.91523 0.35365 0.88682 0.0
C225 C 0.77948 0.41401 0.86002 0.0
C226 C 0.63611 0.76886 0.02689 0.0
C227 C 0.71914 0.81942 0.04472 0.0
C228 C 0.74345 0.81148 0.09151 0.0
C229 C 0.61071 0.69481 0.10104 0.0
C230 C 0.58212 0.70725 0.05592 0.0
C231 C 0.49529 0.64202 0.04314 0.0
H232 H 0.33283 0.17448 0.07344 0.0
C233 C 0.55427 0.61206 0.11937 0.0
C234 C 0.4914 0.57467 0.08443 0.0
H235 H 0.21348 0.37662 -0.02531 0.0
H236 H 0.30488 0.51205 0.01327 0.0
H237 H 0.55874 0.25172 0.10311 0.0
H238 H 0.25421 0.32018 0.1413 0.0
H239 H 0.32315 0.36938 0.1876 0.0
H240 H 0.32884 0.23747 0.17422 0.0
H241 H 0.47187 0.17089 0.12974 0.0
H242 H 0.5456 0.25512 0.16389 0.0
C243 C 0.51834 0.58754 -0.00266 0.0
C244 C 0.39997 0.70817 0.04075 0.0
C245 C 0.58089 0.52589 0.28648 0.0
C246 C 0.53519 0.45187 0.31172 0.0
C247 C 0.49148 0.37102 0.28819 0.0
C248 C 0.48767 0.36726 0.24018 0.0
C249 C 0.52512 0.44652 0.21569 0.0
C250 C 0.57382 0.52249 0.23862 0.0
C251 C 0.61033 0.59939 0.20657 0.0
C252 C 0.56224 0.56396 0.16184 0.0
C253 C 0.51497 0.47358 0.1674 0.0
C254 C 0.72682 0.59186 0.20466 0.0
C255 C 0.56856 0.70268 0.22282 0.0
C256 C 0.33199 0.24564 0.05729 0.0
C257 C 0.27377 0.26205 0.018 0.0
C258 C 0.26439 0.35988 0.00241 0.0
C259 C 0.31808 0.43774 0.02382 0.0
C260 C 0.38342 0.41724 0.05998 0.0
C261 C 0.38197 0.32449 0.07858 0.0
C262 C 0.41904 0.32633 0.12708 0.0
C263 C 0.45939 0.43042 0.13103 0.0
C264 C 0.44192 0.48302 0.09088 0.0
C265 C 0.50322 0.24656 0.13147 0.0
C266 C 0.32732 0.31223 0.15936 0.0
H267 H 0.71402 0.74446 0.15456 0.0
H268 H 0.61492 0.77705 -0.00866 0.0
H269 H 0.332 0.66395 0.03542 0.0
H270 H 0.40596 0.76058 0.01229 0.0
H271 H 0.38894 0.75261 0.07331 0.0
H272 H 0.58638 0.53929 0.00052 0.0
H273 H 0.53099 0.63977 0.9694 0.0
H274 H 0.45405 0.54416 -0.01369 0.0
H275 H 0.61683 0.58805 0.30365 0.0
H276 H 0.4586 0.31165 0.30692 0.0
H277 H 0.45462 0.30349 0.22406 0.0
H278 H 0.75683 0.52324 0.22032 0.0
H279 H 0.76144 0.65551 0.22338 0.0
H280 H 0.75542 0.58814 0.16881 0.0
H281 H 0.4869 0.69919 0.23043 0.0
H282 H 0.57679 0.75933 0.19665 0.0
H283 H 0.60708 0.72937 0.25454 0.0
H284 H 0.8063 0.85134 0.10607 0.0
C285 C 0.69035 0.74899 0.11958 0.0
loop_
_geom_bond_atom_site_label_1
_geom_bond_atom_site_label_2
_geom_bond_distance
_geom_bond_site_symmetry_2
_ccdc_geom_bond_type
O0 Zn1 1.953 . S
O0 C16 1.225 1_565 S
Zn1 O0 1.953 . S
Zn1 O2 1.949 1_565 S
Zn1 O8 1.919 . S
Zn1 O13 1.924 1_565 S
O2 Zn1 1.949 1_545 S
O2 Zn3 1.923 1_444 S
O2 Zn4 1.950 1_455 S
O2 Zn5 1.945 1_554 S
Zn3 O2 1.923 1_666 S
Zn3 O6 1.933 . S
Zn3 O9 1.941 1_655 S
Zn3 O10 1.965 . S
Zn4 O2 1.950 1_655 S
Zn4 O11 1.938 1_545 S
Zn4 O12 1.906 . S
Zn4 O22 1.953 . S
Zn5 O2 1.945 1_556 S
Zn5 O7 1.932 . S
Zn5 O14 1.977 1_455 S
Zn5 O15 1.910 . S
O6 Zn3 1.933 . S
O6 C17 1.226 1_665 S
O7 Zn5 1.932 . S
O7 C17 1.307 . S
O8 Zn1 1.919 . S
O8 C19 1.253 1_554 S
O9 Zn3 1.941 1_455 S
O9 C19 1.283 . S
O10 Zn3 1.965 . S
O10 C18 1.303 1_556 S
O11 Zn4 1.938 1_565 S
O11 C18 1.247 . S
O12 Zn4 1.906 . S
O12 C20 1.304 1_554 S
O13 Zn1 1.924 1_545 S
O13 C21 1.311 . S
O14 Zn5 1.977 1_655 S
O14 C20 1.272 . S
O15 Zn5 1.910 . S
O15 C21 1.231 1_556 S
C16 O0 1.225 1_545 S
C16 O22 1.298 1_455 S
C17 O6 1.226 1_445 S
C17 O7 1.307 . S
C18 O10 1.303 1_554 S
C18 O11 1.247 . S
C19 O8 1.253 1_556 S
C19 O9 1.283 . S
C20 O12 1.304 1_556 S
C20 O14 1.272 . S
C21 O13 1.311 . S
C21 O15 1.231 1_554 S
O22 Zn4 1.953 . S
O22 C16 1.298 1_655 S
O23 Zn24 1.953 . S
O23 C39 1.225 . S
Zn24 O23 1.953 . S
Zn24 O25 1.949 . S
Zn24 O31 1.919 . S
Zn24 O36 1.924 . S
O25 Zn24 1.949 . S
O25 Zn26 1.923 . S
O25 Zn27 1.950 . S
O25 Zn28 1.945 . S
Zn26 O25 1.923 . S
Zn26 O29 1.933 . S
Zn26 O32 1.941 . S
Zn26 O33 1.965 . S
Zn27 O25 1.950 . S
Zn27 O34 1.938 . S
Zn27 O35 1.906 . S
Zn27 O45 1.953 . S
Zn28 O25 1.945 . S
Zn28 O30 1.932 . S
Zn28 O37 1.977 . S
Zn28 O38 1.910 . S
O29 Zn26 1.933 . S
O29 C40 1.226 . S
O30 Zn28 1.932 . S
O30 C40 1.307 . S
O31 Zn24 1.919 . S
O31 C42 1.253 . S
O32 Zn26 1.941 . S
O32 C42 1.283 . S
O33 Zn26 1.965 . S
O33 C41 1.303 . S
O34 Zn27 1.938 . S
O34 C41 1.247 . S
O35 Zn27 1.906 . S
O35 C43 1.304 . S
O36 Zn24 1.924 . S
O36 C44 1.311 . S
O37 Zn28 1.977 . S
O37 C43 1.272 . S
O38 Zn28 1.910 . S
O38 C44 1.231 . S
C39 O23 1.225 . S
C39 O45 1.298 . S
C40 O29 1.226 . S
C40 O30 1.307 . S
C41 O33 1.303 . S
C41 O34 1.247 . S
C42 O31 1.253 . S
C42 O32 1.283 . S
C43 O35 1.304 . S
C43 O37 1.272 . S
C44 O36 1.311 . S
C44 O38 1.231 . S
O45 Zn27 1.953 . S
O45 C39 1.298 . S
C46 C47 1.391 . S
C46 C50 1.391 . S
C46 H88 0.948 . S
C47 C46 1.391 . S
C47 C48 1.391 . S
C48 C47 1.391 . S
C48 H104 0.947 . S
C48 C105 1.392 . S
C49 C50 1.391 . S
C49 C53 1.397 . S
C49 C105 1.419 . S
C50 C46 1.391 . S
C50 C49 1.391 . S
C50 C51 1.399 . S
C51 C50 1.399 . S
C51 C54 1.396 . S
C51 C63 1.453 1_565 S
C51 C64 1.684 1_455 S
H52 C76 0.948 . S
C53 C49 1.397 . S
C53 C54 1.394 . S
C53 C72 1.723 . S
C54 C51 1.396 . S
C54 C53 1.394 . S
C54 C84 1.723 1_465 S
H55 C78 0.947 . S
H56 C79 0.948 . S
H57 C85 0.982 . S
H58 C86 0.979 . S
H59 C86 0.980 . S
H60 C86 0.983 . S
H61 C85 0.979 . S
H62 C85 0.977 . S
C63 C51 1.453 1_545 S
C63 H92 0.982 . S
C63 H93 0.979 1_545 S
C63 H94 0.977 . S
C64 C51 1.684 1_655 S
C64 H89 0.979 . S
C64 H90 0.980 . S
C64 H91 0.983 1_655 S
C65 C66 1.391 1_465 S
C65 C70 1.391 . S
C65 H95 0.948 . S
C66 C65 1.391 1_645 S
C66 C67 1.391 . S
C67 C66 1.391 . S
C67 C68 1.392 . S
C67 H96 0.947 . S
C68 C67 1.392 . S
C68 C69 1.419 . S
C68 H97 0.948 . S
C69 C68 1.419 . S
C69 C70 1.391 1_645 S
C69 C73 1.397 . S
C70 C65 1.391 . S
C70 C69 1.391 1_465 S
C70 C71 1.399 . S
C71 C70 1.399 . S
C71 C72 1.396 . S
C71 C74 1.453 . S
C71 C75 1.684 . S
C72 C53 1.723 . S
C72 C71 1.396 . S
C72 C73 1.394 1_465 S
C73 C69 1.397 . S
C73 C72 1.394 1_645 S
C73 C83 1.723 . S
C74 C71 1.453 . S
C74 H98 0.982 . S
C74 H99 0.979 . S
C74 H100 0.977 . S
C75 C71 1.684 . S
C75 H101 0.979 . S
C75 H102 0.980 . S
C75 H103 0.983 . S
C76 H52 0.948 . S
C76 C77 1.391 . S
C76 C81 1.391 . S
C77 C76 1.391 . S
C77 C78 1.391 . S
C78 H55 0.947 . S
C78 C77 1.391 . S
C78 C79 1.392 . S
C79 H56 0.948 . S
C79 C78 1.392 . S
C79 C80 1.419 . S
C80 C79 1.419 . S
C80 C81 1.391 . S
C80 C84 1.397 . S
C81 C76 1.391 . S
C81 C80 1.391 . S
C81 C82 1.399 . S
C82 C81 1.399 . S
C82 C83 1.396 . S
C82 C85 1.453 . S
C82 C86 1.684 . S
C83 C73 1.723 . S
C83 C82 1.396 . S
C83 C84 1.394 . S
C84 C54 1.723 1_645 S
C84 C80 1.397 . S
C84 C83 1.394 . S
C85 H57 0.982 . S
C85 H61 0.979 . S
C85 H62 0.977 . S
C85 C82 1.453 . S
C86 H58 0.979 . S
C86 H59 0.980 . S
C86 H60 0.983 . S
C86 C82 1.684 . S
H87 C105 0.948 . S
H88 C46 0.948 . S
H89 C64 0.979 . S
H90 C64 0.980 . S
H91 C64 0.983 1_455 S
H92 C63 0.982 . S
H93 C63 0.979 1_565 S
H94 C63 0.977 . S
H95 C65 0.948 . S
H96 C67 0.947 . S
H97 C68 0.948 . S
H98 C74 0.982 . S
H99 C74 0.979 . S
H100 C74 0.977 . S
H101 C75 0.979 . S
H102 C75 0.980 . S
H103 C75 0.983 . S
H104 C48 0.947 . S
C105 C48 1.392 . S
C105 C49 1.419 . S
C105 H87 0.948 . S
C106 C107 1.391 . S
C106 C110 1.391 . S
C106 H148 0.948 . S
C107 C106 1.391 . S
C107 C108 1.391 . S
C108 C107 1.391 . S
C108 H164 0.947 . S
C108 C165 1.392 . S
C109 C110 1.391 . S
C109 C113 1.397 . S
C109 C165 1.419 . S
C110 C106 1.391 . S
C110 C109 1.391 . S
C110 C111 1.399 . S
C111 C110 1.399 . S
C111 C114 1.396 . S
C111 C123 1.453 1_545 S
C111 C124 1.684 1_455 S
H112 C136 0.948 . S
C113 C109 1.397 . S
C113 C114 1.394 . S
C113 C132 1.723 . S
C114 C111 1.396 . S
C114 C113 1.394 . S
C114 C144 1.723 1_445 S
H115 C138 0.947 . S
H116 C139 0.948 . S
H117 C145 0.982 . S
H118 C146 0.979 . S
H119 C146 0.980 . S
H120 C146 0.983 . S
H121 C145 0.979 . S
H122 C145 0.977 . S
C123 C111 1.453 1_565 S
C123 H152 0.982 . S
C123 H153 0.979 1_565 S
C123 H154 0.977 . S
C124 C111 1.684 1_655 S
C124 H149 0.979 . S
C124 H150 0.980 . S
C124 H151 0.983 1_655 S
C125 C126 1.391 1_445 S
C125 C130 1.391 . S
C125 H155 0.948 . S
C126 C125 1.391 1_665 S
C126 C127 1.391 . S
C127 C126 1.391 . S
C127 C128 1.392 . S
C127 H156 0.947 . S
C128 C127 1.392 . S
C128 C129 1.419 . S
C128 H157 0.948 . S
C129 C128 1.419 . S
C129 C130 1.391 1_665 S
C129 C133 1.397 1_655 S
C130 C125 1.391 . S
C130 C129 1.391 1_445 S
C130 C131 1.399 . S
C131 C130 1.399 . S
C131 C132 1.396 . S
C131 C134 1.453 . S
C131 C135 1.684 . S
C132 C113 1.723 . S
C132 C131 1.396 . S
C132 C133 1.394 1_545 S
C133 C129 1.397 1_455 S
C133 C132 1.394 1_565 S
C133 C143 1.723 1_455 S
C134 C131 1.453 . S
C134 H158 0.982 . S
C134 H159 0.979 . S
C134 H160 0.977 . S
C135 C131 1.684 . S
C135 H161 0.979 . S
C135 H162 0.980 . S
C135 H163 0.983 . S
C136 H112 0.948 . S
C136 C137 1.391 . S
C136 C141 1.391 . S
C137 C136 1.391 . S
C137 C138 1.391 . S
C138 H115 0.947 . S
C138 C137 1.391 . S
C138 C139 1.392 . S
C139 H116 0.948 . S
C139 C138 1.392 . S
C139 C140 1.419 . S
C140 C139 1.419 . S
C140 C141 1.391 . S
C140 C144 1.397 . S
C141 C136 1.391 . S
C141 C140 1.391 . S
C141 C142 1.399 . S
C142 C141 1.399 . S
C142 C143 1.396 . S
C142 C145 1.453 . S
C142 C146 1.684 . S
C143 C133 1.723 1_655 S
C143 C142 1.396 . S
C143 C144 1.394 . S
C144 C114 1.723 1_665 S
C144 C140 1.397 . S
C144 C143 1.394 . S
C145 H117 0.982 . S
C145 H121 0.979 . S
C145 H122 0.977 . S
C145 C142 1.453 . S
C146 H118 0.979 . S
C146 H119 0.980 . S
C146 H120 0.983 . S
C146 C142 1.684 . S
H147 C165 0.948 . S
H148 C106 0.948 . S
H149 C124 0.979 . S
H150 C124 0.980 . S
H151 C124 0.983 1_455 S
H152 C123 0.982 . S
H153 C123 0.979 1_545 S
H154 C123 0.977 . S
H155 C125 0.948 . S
H156 C127 0.947 . S
H157 C128 0.948 . S
H158 C134 0.982 . S
H159 C134 0.979 . S
H160 C134 0.977 . S
H161 C135 0.979 . S
H162 C135 0.980 . S
H163 C135 0.983 . S
H164 C108 0.947 . S
C165 C108 1.392 . S
C165 C109 1.419 . S
C165 H147 0.948 . S
C166 C167 1.391 1_554 S
C166 C170 1.391 1_554 S
C166 H208 0.948 . S
C167 C166 1.391 1_556 S
C167 C168 1.391 . S
C168 C167 1.391 . S
C168 H224 0.947 . S
C168 C225 1.392 . S
C169 C170 1.391 . S
C169 C173 1.397 . S
C169 C225 1.419 . S
C170 C166 1.391 1_556 S
C170 C169 1.391 . S
C170 C171 1.399 . S
C171 C170 1.399 . S
C171 C174 1.396 . S
C171 C183 1.453 1_556 S
C171 C184 1.684 1_556 S
H172 C196 0.948 . S
C173 C169 1.397 . S
C173 C174 1.394 . S
C173 C192 1.723 . S
C174 C171 1.396 . S
C174 C173 1.394 . S
C174 C204 1.723 . S
H175 C198 0.947 . S
H176 C199 0.948 . S
H177 C205 0.982 . S
H178 C206 0.979 . S
H179 C206 0.980 . S
H180 C206 0.983 . S
H181 C205 0.979 . S
H182 C205 0.977 . S
C183 C171 1.453 1_554 S
C183 H212 0.982 . S
C183 H213 0.979 . S
C183 H214 0.977 . S
C184 C171 1.684 1_554 S
C184 H209 0.979 . S
C184 H210 0.980 . S
C184 H211 0.983 . S
C185 C186 1.391 . S
C185 C190 1.391 . S
C185 H215 0.948 . S
C186 C185 1.391 . S
C186 C187 1.391 . S
C187 C186 1.391 . S
C187 C188 1.392 . S
C187 H216 0.947 . S
C188 C187 1.392 . S
C188 C189 1.419 . S
C188 H217 0.948 . S
C189 C188 1.419 . S
C189 C190 1.391 . S
C189 C193 1.397 . S
C190 C185 1.391 . S
C190 C189 1.391 . S
C190 C191 1.399 . S
C191 C190 1.399 . S
C191 C192 1.396 . S
C191 C194 1.453 . S
C191 C195 1.684 . S
C192 C173 1.723 . S
C192 C191 1.396 . S
C192 C193 1.394 . S
C193 C189 1.397 . S
C193 C192 1.394 . S
C193 C203 1.723 . S
C194 C191 1.453 . S
C194 H218 0.982 . S
C194 H219 0.979 . S
C194 H220 0.977 . S
C195 C191 1.684 . S
C195 H221 0.979 . S
C195 H222 0.980 . S
C195 H223 0.983 . S
C196 H172 0.948 . S
C196 C197 1.391 1_556 S
C196 C201 1.391 . S
C197 C196 1.391 1_554 S
C197 C198 1.391 . S
C198 H175 0.947 . S
C198 C197 1.391 . S
C198 C199 1.392 . S
C199 H176 0.948 . S
C199 C198 1.392 . S
C199 C200 1.419 1_554 S
C200 C199 1.419 1_556 S
C200 C201 1.391 . S
C200 C204 1.397 . S
C201 C196 1.391 . S
C201 C200 1.391 . S
C201 C202 1.399 . S
C202 C201 1.399 . S
C202 C203 1.396 . S
C202 C205 1.453 . S
C202 C206 1.684 . S
C203 C193 1.723 . S
C203 C202 1.396 . S
C203 C204 1.394 . S
C204 C174 1.723 . S
C204 C200 1.397 . S
C204 C203 1.394 . S
C205 H177 0.982 . S
C205 H181 0.979 . S
C205 H182 0.977 . S
C205 C202 1.453 . S
C206 H178 0.979 . S
C206 H179 0.980 . S
C206 H180 0.983 . S
C206 C202 1.684 . S
H207 C225 0.948 . S
H208 C166 0.948 . S
H209 C184 0.979 . S
H210 C184 0.980 . S
H211 C184 0.983 . S
H212 C183 0.982 . S
H213 C183 0.979 . S
H214 C183 0.977 . S
H215 C185 0.948 . S
H216 C187 0.947 . S
H217 C188 0.948 . S
H218 C194 0.982 . S
H219 C194 0.979 . S
H220 C194 0.977 . S
H221 C195 0.979 . S
H222 C195 0.980 . S
H223 C195 0.983 . S
H224 C168 0.947 . S
C225 C168 1.392 . S
C225 C169 1.419 . S
C225 H207 0.948 . S
C226 C227 1.391 . S
C226 C230 1.391 . S
C226 H268 0.948 1_554 S
C227 C226 1.391 . S
C227 C228 1.391 . S
C228 C227 1.391 . S
C228 H284 0.947 . S
C228 C285 1.392 . S
C229 C230 1.391 . S
C229 C233 1.397 . S
C229 C285 1.419 . S
C230 C226 1.391 . S
C230 C229 1.391 . S
C230 C231 1.399 . S
C231 C230 1.399 . S
C231 C234 1.396 . S
C231 C243 1.453 1_554 S
C231 C244 1.684 1_554 S
H232 C256 0.948 . S
C233 C229 1.397 . S
C233 C234 1.394 . S
C233 C252 1.723 . S
C234 C231 1.396 . S
C234 C233 1.394 . S
C234 C264 1.723 . S
H235 C258 0.947 . S
H236 C259 0.948 1_556 S
H237 C265 0.982 . S
H238 C266 0.979 . S
H239 C266 0.980 . S
H240 C266 0.983 . S
H241 C265 0.979 . S
H242 C265 0.977 . S
C243 C231 1.453 1_556 S
C243 H272 0.982 1_556 S
C243 H273 0.979 . S
C243 H274 0.977 . S
C244 C231 1.684 1_556 S
C244 H269 0.979 . S
C244 H270 0.980 . S
C244 H271 0.983 . S
C245 C246 1.391 . S
C245 C250 1.391 . S
C245 H275 0.948 . S
C246 C245 1.391 . S
C246 C247 1.391 . S
C247 C246 1.391 . S
C247 C248 1.392 . S
C247 H276 0.947 . S
C248 C247 1.392 . S
C248 C249 1.419 . S
C248 H277 0.948 . S
C249 C248 1.419 . S
C249 C250 1.391 . S
C249 C253 1.397 . S
C250 C245 1.391 . S
C250 C249 1.391 . S
C250 C251 1.399 . S
C251 C250 1.399 . S
C251 C252 1.396 . S
C251 C254 1.453 . S
C251 C255 1.684 . S
C252 C233 1.723 . S
C252 C251 1.396 . S
C252 C253 1.394 . S
C253 C249 1.397 . S
C253 C252 1.394 . S
C253 C263 1.723 . S
C254 C251 1.453 . S
C254 H278 0.982 . S
C254 H279 0.979 . S
C254 H280 0.977 . S
C255 C251 1.684 . S
C255 H281 0.979 . S
C255 H282 0.980 . S
C255 H283 0.983 . S
C256 H232 0.948 . S
C256 C257 1.391 . S
C256 C261 1.391 . S
C257 C256 1.391 . S
C257 C258 1.391 1_554 S
C258 H235 0.947 . S
C258 C257 1.391 1_556 S
C258 C259 1.392 1_556 S
C259 H236 0.948 1_554 S
C259 C258 1.392 1_554 S
C259 C260 1.419 . S
C260 C259 1.419 . S
C260 C261 1.391 . S
C260 C264 1.397 . S
C261 C256 1.391 . S
C261 C260 1.391 . S
C261 C262 1.399 . S
C262 C261 1.399 . S
C262 C263 1.396 . S
C262 C265 1.453 . S
C262 C266 1.684 . S
C263 C253 1.723 . S
C263 C262 1.396 . S
C263 C264 1.394 . S
C264 C234 1.723 . S
C264 C260 1.397 . S
C264 C263 1.394 . S
C265 H237 0.982 . S
C265 H241 0.979 . S
C265 H242 0.977 . S
C265 C262 1.453 . S
C266 H238 0.979 . S
C266 H239 0.980 . S
C266 H240 0.983 . S
C266 C262 1.684 . S
H267 C285 0.948 . S
H268 C226 0.948 1_556 S
H269 C244 0.979 . S
H270 C244 0.980 . S
H271 C244 0.983 . S
H272 C243 0.982 1_554 S
H273 C243 0.979 . S
H274 C243 0.977 . S
H275 C245 0.948 . S
H276 C247 0.947 . S
H277 C248 0.948 . S
H278 C254 0.982 . S
H279 C254 0.979 . S
H280 C254 0.977 . S
H281 C255 0.979 . S
H282 C255 0.980 . S
H283 C255 0.983 . S
H284 C228 0.947 . S
C285 C228 1.392 . S
C285 C229 1.419 . S
C285 H267 0.948 . S
C257 C21 1.691 . S
C19 C197 1.658 1_556 S
C18 C227 1.393 . S
C20 C167 1.456 . S
C44 C137 1.691 . S
C42 C77 1.658 . S
C107 C41 1.393 . S
C47 C43 1.455 . S
C16 C66 1.502 1_455 S
C17 C126 1.414 1_445 S
C186 C39 1.503 . S
C40 C246 1.414 . S
