# Generated by pormake.
# Topology ptr, (4,4)-cn, num edge types: 1
# Building blocks:
#     Node 0, Type 0, BuildingBlock: UXUYUI_clean_sbu_0, # of connection points: 4
#     Node 1, Type 0, BuildingBlock: UXUYUI_clean_sbu_0, # of connection points: 4
#     Node 2, Type 0, BuildingBlock: UXUYUI_clean_sbu_0, # of connection points: 4
#     Node 3, Type 0, BuildingBlock: UXUYUI_clean_sbu_0, # of connection points: 4
#     Node 4, Type 0, BuildingBlock: UXUYUI_clean_sbu_0, # of connection points: 4
#     Node 5, Type 0, BuildingBlock: UXUYUI_clean_sbu_0, # of connection points: 4
#     Node 6, Type 0, BuildingBlock: UXUYUI_clean_sbu_0, # of connection points: 4
#     Node 7, Type 0, BuildingBlock: UXUYUI_clean_sbu_0, # of connection points: 4
#     Node 8, Type 0, BuildingBlock: UXUYUI_clean_sbu_0, # of connection points: 4
#     Node 9, Type 0, BuildingBlock: UXUYUI_clean_sbu_0, # of connection points: 4
#     Node 10, Type 0, BuildingBlock: UXUYUI_clean_sbu_0, # of connection points: 4
#     Node 11, Type 0, BuildingBlock: UXUYUI_clean_sbu_0, # of connection points: 4
#     Node 12, Type 0, BuildingBlock: UXUYUI_clean_sbu_0, # of connection points: 4
#     Node 13, Type 0, BuildingBlock: UXUYUI_clean_sbu_0, # of connection points: 4
#     Node 14, Type 0, BuildingBlock: UXUYUI_clean_sbu_0, # of connection points: 4
#     Node 15, Type 0, BuildingBlock: UXUYUI_clean_sbu_0, # of connection points: 4
#     Node 16, Type 0, BuildingBlock: UXUYUI_clean_sbu_0, # of connection points: 4
#     Node 17, Type 0, BuildingBlock: UXUYUI_clean_sbu_0, # of connection points: 4
#     Node 18, Type 1, BuildingBlock: NAHDIM_clean_linker_0, # of connection points: 4
#     Node 19, Type 1, BuildingBlock: NAHDIM_clean_linker_0, # of connection points: 4
#     Node 20, Type 1, BuildingBlock: NAHDIM_clean_linker_0, # of connection points: 4
#     Node 21, Type 1, BuildingBlock: NAHDIM_clean_linker_0, # of connection points: 4
#     Node 22, Type 1, BuildingBlock: NAHDIM_clean_linker_0, # of connection points: 4
#     Node 23, Type 1, BuildingBlock: NAHDIM_clean_linker_0, # of connection points: 4
#     Node 24, Type 1, BuildingBlock: NAHDIM_clean_linker_0, # of connection points: 4
#     Node 25, Type 1, BuildingBlock: NAHDIM_clean_linker_0, # of connection points: 4
#     Node 26, Type 1, BuildingBlock: NAHDIM_clean_linker_0, # of connection points: 4
#     Node 27, Type 1, BuildingBlock: NAHDIM_clean_linker_0, # of connection points: 4
#     Node 28, Type 1, BuildingBlock: NAHDIM_clean_linker_0, # of connection points: 4
#     Node 29, Type 1, BuildingBlock: NAHDIM_clean_linker_0, # of connection points: 4
#     Node 30, Type 1, BuildingBlock: NAHDIM_clean_linker_0, # of connection points: 4
#     Node 31, Type 1, BuildingBlock: NAHDIM_clean_linker_0, # of connection points: 4
#     Node 32, Type 1, BuildingBlock: NAHDIM_clean_linker_0, # of connection points: 4
#     Node 33, Type 1, BuildingBlock: NAHDIM_clean_linker_0, # of connection points: 4
#     Node 34, Type 1, BuildingBlock: NAHDIM_clean_linker_0, # of connection points: 4
#     Node 35, Type 1, BuildingBlock: NAHDIM_clean_linker_0, # of connection points: 4
#     Edge 36, Type (0, 1), BuildingBlock: CIFDUS_clean_linker_0, # of connection points: 2
#     Edge 37, Type (0, 1), BuildingBlock: CIFDUS_clean_linker_0, # of connection points: 2
#     Edge 38, Type (0, 1), BuildingBlock: CIFDUS_clean_linker_0, # of connection points: 2
#     Edge 39, Type (0, 1), BuildingBlock: CIFDUS_clean_linker_0, # of connection points: 2
#     Edge 40, Type (0, 1), BuildingBlock: CIFDUS_clean_linker_0, # of connection points: 2
#     Edge 41, Type (0, 1), BuildingBlock: CIFDUS_clean_linker_0, # of connection points: 2
#     Edge 42, Type (0, 1), BuildingBlock: CIFDUS_clean_linker_0, # of connection points: 2
#     Edge 43, Type (0, 1), BuildingBlock: CIFDUS_clean_linker_0, # of connection points: 2
#     Edge 44, Type (0, 1), BuildingBlock: CIFDUS_clean_linker_0, # of connection points: 2
#     Edge 45, Type (0, 1), BuildingBlock: CIFDUS_clean_linker_0, # of connection points: 2
#     Edge 46, Type (0, 1), BuildingBlock: CIFDUS_clean_linker_0, # of connection points: 2
#     Edge 47, Type (0, 1), BuildingBlock: CIFDUS_clean_linker_0, # of connection points: 2
#     Edge 48, Type (0, 1), BuildingBlock: CIFDUS_clean_linker_0, # of connection points: 2
#     Edge 49, Type (0, 1), BuildingBlock: CIFDUS_clean_linker_0, # of connection points: 2
#     Edge 50, Type (0, 1), BuildingBlock: CIFDUS_clean_linker_0, # of connection points: 2
#     Edge 51, Type (0, 1), BuildingBlock: CIFDUS_clean_linker_0, # of connection points: 2
#     Edge 52, Type (0, 1), BuildingBlock: CIFDUS_clean_linker_0, # of connection points: 2
#     Edge 53, Type (0, 1), BuildingBlock: CIFDUS_clean_linker_0, # of connection points: 2
#     Edge 54, Type (0, 1), BuildingBlock: CIFDUS_clean_linker_0, # of connection points: 2
#     Edge 55, Type (0, 1), BuildingBlock: CIFDUS_clean_linker_0, # of connection points: 2
#     Edge 56, Type (0, 1), BuildingBlock: CIFDUS_clean_linker_0, # of connection points: 2
#     Edge 57, Type (0, 1), BuildingBlock: CIFDUS_clean_linker_0, # of connection points: 2
#     Edge 58, Type (0, 1), BuildingBlock: CIFDUS_clean_linker_0, # of connection points: 2
#     Edge 59, Type (0, 1), BuildingBlock: CIFDUS_clean_linker_0, # of connection points: 2
#     Edge 60, Type (0, 1), BuildingBlock: CIFDUS_clean_linker_0, # of connection points: 2
#     Edge 61, Type (0, 1), BuildingBlock: CIFDUS_clean_linker_0, # of connection points: 2
#     Edge 62, Type (0, 1), BuildingBlock: CIFDUS_clean_linker_0, # of connection points: 2
#     Edge 63, Type (0, 1), BuildingBlock: CIFDUS_clean_linker_0, # of connection points: 2
#     Edge 64, Type (0, 1), BuildingBlock: CIFDUS_clean_linker_0, # of connection points: 2
#     Edge 65, Type (0, 1), BuildingBlock: CIFDUS_clean_linker_0, # of connection points: 2
#     Edge 66, Type (0, 1), BuildingBlock: CIFDUS_clean_linker_0, # of connection points: 2
#     Edge 67, Type (0, 1), BuildingBlock: CIFDUS_clean_linker_0, # of connection points: 2
#     Edge 68, Type (0, 1), BuildingBlock: CIFDUS_clean_linker_0, # of connection points: 2
#     Edge 69, Type (0, 1), BuildingBlock: CIFDUS_clean_linker_0, # of connection points: 2
#     Edge 70, Type (0, 1), BuildingBlock: CIFDUS_clean_linker_0, # of connection points: 2
#     Edge 71, Type (0, 1), BuildingBlock: CIFDUS_clean_linker_0, # of connection points: 2
#     Edge 72, Type (0, 1), BuildingBlock: CIFDUS_clean_linker_0, # of connection points: 2
#     Edge 73, Type (0, 1), BuildingBlock: CIFDUS_clean_linker_0, # of connection points: 2
#     Edge 74, Type (0, 1), BuildingBlock: CIFDUS_clean_linker_0, # of connection points: 2
#     Edge 75, Type (0, 1), BuildingBlock: CIFDUS_clean_linker_0, # of connection points: 2
#     Edge 76, Type (0, 1), BuildingBlock: CIFDUS_clean_linker_0, # of connection points: 2
#     Edge 77, Type (0, 1), BuildingBlock: CIFDUS_clean_linker_0, # of connection points: 2
#     Edge 78, Type (0, 1), BuildingBlock: CIFDUS_clean_linker_0, # of connection points: 2
#     Edge 79, Type (0, 1), BuildingBlock: CIFDUS_clean_linker_0, # of connection points: 2
#     Edge 80, Type (0, 1), BuildingBlock: CIFDUS_clean_linker_0, # of connection points: 2
#     Edge 81, Type (0, 1), BuildingBlock: CIFDUS_clean_linker_0, # of connection points: 2
#     Edge 82, Type (0, 1), BuildingBlock: CIFDUS_clean_linker_0, # of connection points: 2
#     Edge 83, Type (0, 1), BuildingBlock: CIFDUS_clean_linker_0, # of connection points: 2
#     Edge 84, Type (0, 1), BuildingBlock: CIFDUS_clean_linker_0, # of connection points: 2
#     Edge 85, Type (0, 1), BuildingBlock: CIFDUS_clean_linker_0, # of connection points: 2
#     Edge 86, Type (0, 1), BuildingBlock: CIFDUS_clean_linker_0, # of connection points: 2
#     Edge 87, Type (0, 1), BuildingBlock: CIFDUS_clean_linker_0, # of connection points: 2
#     Edge 88, Type (0, 1), BuildingBlock: CIFDUS_clean_linker_0, # of connection points: 2
#     Edge 89, Type (0, 1), BuildingBlock: CIFDUS_clean_linker_0, # of connection points: 2
#     Edge 90, Type (0, 1), BuildingBlock: CIFDUS_clean_linker_0, # of connection points: 2
#     Edge 91, Type (0, 1), BuildingBlock: CIFDUS_clean_linker_0, # of connection points: 2
#     Edge 92, Type (0, 1), BuildingBlock: CIFDUS_clean_linker_0, # of connection points: 2
#     Edge 93, Type (0, 1), BuildingBlock: CIFDUS_clean_linker_0, # of connection points: 2
#     Edge 94, Type (0, 1), BuildingBlock: CIFDUS_clean_linker_0, # of connection points: 2
#     Edge 95, Type (0, 1), BuildingBlock: CIFDUS_clean_linker_0, # of connection points: 2
#     Edge 96, Type (0, 1), BuildingBlock: CIFDUS_clean_linker_0, # of connection points: 2
#     Edge 97, Type (0, 1), BuildingBlock: CIFDUS_clean_linker_0, # of connection points: 2
#     Edge 98, Type (0, 1), BuildingBlock: CIFDUS_clean_linker_0, # of connection points: 2
#     Edge 99, Type (0, 1), BuildingBlock: CIFDUS_clean_linker_0, # of connection points: 2
#     Edge 100, Type (0, 1), BuildingBlock: CIFDUS_clean_linker_0, # of connection points: 2
#     Edge 101, Type (0, 1), BuildingBlock: CIFDUS_clean_linker_0, # of connection points: 2
#     Edge 102, Type (0, 1), BuildingBlock: CIFDUS_clean_linker_0, # of connection points: 2
#     Edge 103, Type (0, 1), BuildingBlock: CIFDUS_clean_linker_0, # of connection points: 2
#     Edge 104, Type (0, 1), BuildingBlock: CIFDUS_clean_linker_0, # of connection points: 2
#     Edge 105, Type (0, 1), BuildingBlock: CIFDUS_clean_linker_0, # of connection points: 2
#     Edge 106, Type (0, 1), BuildingBlock: CIFDUS_clean_linker_0, # of connection points: 2
#     Edge 107, Type (0, 1), BuildingBlock: CIFDUS_clean_linker_0, # of connection points: 2
# Relax obj value: 0.120
# Max RMSD: 0.338
# Mean RMSD: 0.137
data_MOF--net-ptr--node1-UXUYUI_clean_sbu_0--node2-NAHDIM_clean_linker_0--edge1-CIFDUS_clean_linker_0
_symmetry_space_group_name_H-M    P1
_symmetry_Int_Tables_number       1
_symmetry_cell_setting            triclinic
loop_
_symmetry_equiv_pos_as_xyz
'x, y, z'
_cell_length_a     102.63737
_cell_length_b     102.43665
_cell_length_c     84.175473
_cell_angle_alpha  90.888318
_cell_angle_beta   90.27473
_cell_angle_gamma 120.4366
loop_
_atom_site_label
_atom_site_type_symbol
_atom_site_fract_x
_atom_site_fract_y
_atom_site_fract_z
_atom_type_partial_charge
Li0 Li 0.99013 0.3292 0.00244 0.0
Li1 Li 0.01615 0.34278 0.01172 0.0
Li2 Li 0.99795 0.35084 0.02103 0.0
Li3 Li 0.0076 0.35595 0.99395 0.0
C4 C 0.98757 0.31921 0.03309 0.0
N5 N 0.96721 0.29421 0.04989 0.0
C6 C 0.98998 0.30707 0.03511 0.0
C7 C 0.97498 0.31876 0.03992 0.0
C8 C 0.97951 0.29449 0.04355 0.0
C9 C 0.96477 0.30599 0.04829 0.0
C10 C 0.01925 0.33616 0.9806 0.0
C11 C 0.04236 0.34755 0.96575 0.0
N12 N 0.04058 0.33361 0.96305 0.0
C13 C 0.01752 0.32192 0.97745 0.0
C14 C 0.03166 0.34906 0.97452 0.0
C15 C 0.02848 0.32088 0.96865 0.0
C16 C 0.96261 0.30751 0.98673 0.0
N17 N 0.97501 0.30966 0.99495 0.0
C18 C 0.96891 0.2843 0.98896 0.0
C19 C 0.9782 0.29838 0.9963 0.0
C20 C 0.95618 0.28177 0.98008 0.0
C21 C 0.9529 0.29353 0.97931 0.0
H22 H 0.96058 0.3168 0.98536 0.0
H23 H 0.98841 0.30056 0.0024 0.0
C24 C 0.0434 0.34968 0.02804 0.0
N25 N 0.03168 0.33926 0.01886 0.0
C26 C 0.0531 0.34582 0.0356 0.0
C27 C 0.03854 0.32064 0.024 0.0
C28 C 0.02926 0.32504 0.01655 0.0
C29 C 0.05048 0.33098 0.03399 0.0
H30 H 0.0448 0.36076 0.03014 0.0
H31 H 0.01953 0.31681 0.0097 0.0
C32 C 0.97341 0.34703 0.00263 0.0
N33 N 0.9475 0.34865 0.00628 0.0
C34 C 0.97259 0.35921 0.9965 0.0
C35 C 0.96093 0.33554 0.01036 0.0
C36 C 0.95944 0.35987 0.99854 0.0
C37 C 0.94797 0.3366 0.01215 0.0
C38 C 0.03178 0.37752 0.01293 0.0
C39 C 0.03189 0.39024 0.01937 0.0
C40 C 0.04469 0.37925 0.00548 0.0
C41 C 0.04477 0.40452 0.01787 0.0
C42 C 0.05736 0.39372 0.00424 0.0
N43 N 0.05712 0.40596 0.01038 0.0
C44 C 0.99531 0.35747 0.0533 0.0
C45 C 0.99178 0.37228 0.03429 0.0
C46 C 0.99542 0.3668 0.06566 0.0
N47 N 0.99372 0.3605 0.03798 0.0
C48 C 0.99189 0.38192 0.04623 0.0
C49 C 0.99417 0.37948 0.06211 0.0
H50 H 0.99735 0.34834 0.05586 0.0
H51 H 0.99122 0.37484 0.022 0.0
C52 C 0.01022 0.36575 0.96208 0.0
N53 N 0.01133 0.36996 0.97766 0.0
C54 C 0.00969 0.37496 0.9503 0.0
C55 C 0.01183 0.39274 0.97084 0.0
C56 C 0.0124 0.38326 0.98216 0.0
C57 C 0.01001 0.38841 0.95471 0.0
H58 H 0.00887 0.35486 0.95886 0.0
H59 H 0.01257 0.386 0.99462 0.0
O60 O 0.99772 0.33163 0.02485 0.0
O61 O 0.00863 0.3374 0.98923 0.0
O62 O 0.98623 0.34621 0.00073 0.0
O63 O 0.01926 0.36343 0.01432 0.0
H64 H 0.9998 0.3073 0.03018 0.0
H65 H 0.97314 0.32821 0.03891 0.0
H66 H 0.98118 0.28497 0.04508 0.0
H67 H 0.95493 0.30548 0.05357 0.0
H68 H 0.05205 0.35746 0.96105 0.0
H69 H 0.00787 0.31178 0.98181 0.0
H70 H 0.03297 0.36012 0.97643 0.0
H71 H 0.02734 0.30994 0.96624 0.0
H72 H 0.97216 0.27578 0.98959 0.0
H73 H 0.94318 0.2921 0.97269 0.0
H74 H 0.06221 0.35421 0.04307 0.0
H75 H 0.0358 0.30899 0.02267 0.0
H76 H 0.98203 0.3681 0.99029 0.0
H77 H 0.96114 0.32579 0.01469 0.0
H78 H 0.95871 0.36929 0.99395 0.0
H79 H 0.93825 0.32778 0.01813 0.0
H80 H 0.02211 0.38912 0.02538 0.0
H81 H 0.04503 0.36952 0.00093 0.0
H82 H 0.04494 0.41446 0.02269 0.0
H83 H 0.0674 0.39521 0.99846 0.0
H84 H 0.99744 0.36468 0.07773 0.0
H85 H 0.99088 0.39156 0.043 0.0
H86 H 0.00807 0.37113 0.938 0.0
H87 H 0.01213 0.40302 0.97471 0.0
Li88 Li 0.66979 0.65616 0.00684 0.0
Li89 Li 0.66074 0.66914 0.02389 0.0
Li90 Li 0.65132 0.64107 0.02663 0.0
Li91 Li 0.64318 0.65007 0.00383 0.0
C92 C 0.68628 0.66238 0.03348 0.0
N93 N 0.71576 0.66966 0.0392 0.0
C94 C 0.69789 0.67752 0.03392 0.0
C95 C 0.68961 0.65095 0.0362 0.0
C96 C 0.71274 0.68097 0.03675 0.0
C97 C 0.7046 0.65486 0.03901 0.0
C98 C 0.65924 0.68014 0.9938 0.0
C99 C 0.64387 0.6917 0.99195 0.0
N100 N 0.65312 0.70098 0.98054 0.0
C101 C 0.66857 0.68975 0.98203 0.0
C102 C 0.64678 0.68108 0.9988 0.0
C103 C 0.6653 0.70023 0.97548 0.0
C104 C 0.69057 0.65015 0.98939 0.0
N105 N 0.68768 0.66066 0.99585 0.0
C106 C 0.71144 0.6808 0.98722 0.0
C107 C 0.69771 0.67572 0.99478 0.0
C108 C 0.71485 0.67028 0.98042 0.0
C109 C 0.70419 0.65475 0.98158 0.0
H110 H 0.68232 0.63825 0.99019 0.0
H111 H 0.69506 0.68381 0.99998 0.0
C112 C 0.66365 0.68727 0.05076 0.0
N113 N 0.6672 0.68761 0.03518 0.0
C114 C 0.66992 0.70068 0.05985 0.0
C115 C 0.68315 0.7145 0.03659 0.0
C116 C 0.67669 0.70085 0.02799 0.0
C117 C 0.68002 0.71451 0.05282 0.0
H118 H 0.65635 0.67652 0.05624 0.0
H119 H 0.67971 0.70079 0.01574 0.0
C120 C 0.64757 0.62148 0.00127 0.0
N121 N 0.63975 0.59158 0.99696 0.0
C122 C 0.63419 0.61133 0.99319 0.0
C123 C 0.657 0.61645 0.00711 0.0
C124 C 0.63043 0.59625 0.99114 0.0
C125 C 0.65284 0.60128 0.00483 0.0
C126 C 0.6268 0.64918 0.0337 0.0
C127 C 0.61549 0.63429 0.03659 0.0
C128 C 0.62464 0.66114 0.03818 0.0
C129 C 0.60218 0.63161 0.04388 0.0
C130 C 0.61117 0.658 0.04543 0.0
N131 N 0.60031 0.64342 0.04811 0.0
C132 C 0.65021 0.62952 0.05688 0.0
C133 C 0.6335 0.61095 0.03817 0.0
C134 C 0.64473 0.61893 0.06899 0.0
N135 N 0.64449 0.6254 0.04186 0.0
C136 C 0.62782 0.59996 0.04985 0.0
C137 C 0.63332 0.60395 0.06552 0.0
H138 H 0.65881 0.64114 0.05953 0.0
H139 H 0.62869 0.60802 0.02633 0.0
C140 C 0.63078 0.6461 0.9733 0.0
N141 N 0.6272 0.64495 0.98894 0.0
C142 C 0.61957 0.64187 0.96162 0.0
C143 C 0.60123 0.63554 0.98235 0.0
C144 C 0.6128 0.63991 0.99362 0.0
C145 C 0.60452 0.63638 0.9661 0.0
H146 H 0.64235 0.65017 0.96993 0.0
H147 H 0.61017 0.63905 0.00606 0.0
O148 O 0.67172 0.65877 0.03051 0.0
O149 O 0.66231 0.66981 0.00028 0.0
O150 O 0.65137 0.63624 0.00344 0.0
O151 O 0.64 0.65208 0.02674 0.0
H152 H 0.69549 0.68651 0.03193 0.0
H153 H 0.68071 0.6392 0.03619 0.0
H154 H 0.72186 0.69264 0.03699 0.0
H155 H 0.70735 0.64613 0.04107 0.0
H156 H 0.63425 0.69254 0.99569 0.0
H157 H 0.67825 0.68912 0.97802 0.0
H158 H 0.63939 0.67365 0.00778 0.0
H159 H 0.67244 0.70777 0.96638 0.0
H160 H 0.71939 0.69286 0.98692 0.0
H161 H 0.70626 0.64626 0.97636 0.0
H162 H 0.66737 0.70015 0.07237 0.0
H163 H 0.69079 0.72492 0.03067 0.0
H164 H 0.62676 0.61506 0.9886 0.0
H165 H 0.66738 0.62415 0.01341 0.0
H166 H 0.62009 0.58825 0.98493 0.0
H167 H 0.66001 0.59722 0.00934 0.0
H168 H 0.61686 0.62489 0.03302 0.0
H169 H 0.63327 0.67275 0.03607 0.0
H170 H 0.59332 0.62013 0.04613 0.0
H171 H 0.60935 0.66715 0.04893 0.0
H172 H 0.64929 0.62243 0.08093 0.0
H173 H 0.61884 0.5886 0.04676 0.0
H174 H 0.62265 0.64289 0.94922 0.0
H175 H 0.58977 0.63119 0.98636 0.0
Li176 Li 0.34964 0.9981 0.99455 0.0
Li177 Li 0.35498 0.00828 0.02151 0.0
Li178 Li 0.32797 0.99068 0.01236 0.0
Li179 Li 0.34195 0.01671 0.00327 0.0
C180 C 0.34491 0.97335 0.0128 0.0
N181 N 0.34499 0.9465 0.00949 0.0
C182 C 0.35787 0.97279 0.01671 0.0
C183 C 0.33188 0.96015 0.00759 0.0
C184 C 0.35773 0.95914 0.01484 0.0
C185 C 0.33217 0.94672 0.00589 0.0
C186 C 0.376 0.03276 0.00424 0.0
C187 C 0.39017 0.05838 0.01464 0.0
N188 N 0.4032 0.0592 0.00986 0.0
C189 C 0.38952 0.03393 0.99925 0.0
C190 C 0.37631 0.04513 0.01184 0.0
C191 C 0.40316 0.04735 0.00228 0.0
C192 C 0.35507 0.99224 0.96254 0.0
N193 N 0.35922 0.99333 0.97809 0.0
C194 C 0.38159 0.99304 0.9711 0.0
C195 C 0.37209 0.99359 0.98252 0.0
C196 C 0.37785 0.99232 0.95493 0.0
C197 C 0.36421 0.99153 0.95068 0.0
H198 H 0.34511 0.99269 0.95928 0.0
H199 H 0.37543 0.99511 0.9949 0.0
C200 C 0.36516 0.01223 0.05373 0.0
N201 N 0.369 0.01236 0.03827 0.0
C202 C 0.37455 0.01229 0.06587 0.0
C203 C 0.39171 0.01291 0.04591 0.0
C204 C 0.38205 0.0129 0.03421 0.0
C205 C 0.38781 0.01222 0.06196 0.0
H206 H 0.35446 0.01127 0.05661 0.0
H207 H 0.38453 0.0124 0.02184 0.0
C208 C 0.31912 0.98805 0.98006 0.0
N209 N 0.2961 0.96817 0.95973 0.0
C210 C 0.30884 0.99187 0.9739 0.0
C211 C 0.31784 0.97424 0.97565 0.0
C212 C 0.29723 0.98163 0.96371 0.0
C213 C 0.30609 0.96431 0.96542 0.0
C214 C 0.33397 0.01914 0.03459 0.0
C215 C 0.31914 0.01575 0.03713 0.0
C216 C 0.34596 0.03206 0.04181 0.0
C217 C 0.31657 0.0256 0.04645 0.0
C218 C 0.34293 0.04162 0.05107 0.0
N219 N 0.32842 0.03824 0.05316 0.0
C220 C 0.30624 0.96685 0.03126 0.0
C221 C 0.29675 0.97808 0.01374 0.0
C222 C 0.29213 0.95871 0.03846 0.0
N223 N 0.30828 0.97644 0.01929 0.0
C224 C 0.28252 0.97017 0.02053 0.0
C225 C 0.28017 0.96065 0.03336 0.0
H226 H 0.31574 0.96613 0.03576 0.0
H227 H 0.29883 0.98625 0.00471 0.0
C228 C 0.34755 0.04375 0.98745 0.0
N229 N 0.33779 0.03175 0.99624 0.0
C230 C 0.34283 0.05305 0.98058 0.0
C231 C 0.31822 0.03747 0.99205 0.0
C232 C 0.3234 0.02853 0.99865 0.0
C233 C 0.32787 0.04974 0.98261 0.0
H234 H 0.35877 0.04574 0.98521 0.0
H235 H 0.31569 0.01853 0.00506 0.0
O236 O 0.3448 0.98659 0.01474 0.0
O237 O 0.36254 0.01967 0.00138 0.0
O238 O 0.33054 0.99795 0.9901 0.0
O239 O 0.33669 0.00957 0.02555 0.0
H240 H 0.36796 0.98279 0.02112 0.0
H241 H 0.3216 0.96023 0.00499 0.0
H242 H 0.36772 0.95859 0.0177 0.0
H243 H 0.32218 0.93645 0.00177 0.0
H244 H 0.39055 0.06802 0.02054 0.0
H245 H 0.3895 0.02455 0.99315 0.0
H246 H 0.36595 0.04459 0.01536 0.0
H247 H 0.41371 0.04837 0.99858 0.0
H248 H 0.392 0.99366 0.97486 0.0
H249 H 0.36106 0.99122 0.93832 0.0
H250 H 0.37103 0.01153 0.0781 0.0
H251 H 0.40185 0.01292 0.04241 0.0
H252 H 0.30976 0.00259 0.97703 0.0
H253 H 0.32597 0.97132 0.97987 0.0
H254 H 0.28913 0.9844 0.95896 0.0
H255 H 0.30497 0.95358 0.96193 0.0
H256 H 0.3097 0.00565 0.03189 0.0
H257 H 0.35747 0.03461 0.04044 0.0
H258 H 0.30515 0.02317 0.04839 0.0
H259 H 0.35211 0.0517 0.05667 0.0
H260 H 0.29086 0.95163 0.04844 0.0
H261 H 0.2736 0.97191 0.01613 0.0
H262 H 0.35056 0.06227 0.97319 0.0
H263 H 0.30664 0.03457 0.99401 0.0
Li264 Li 0.01472 0.6752 0.01996 0.0
Li265 Li 0.99734 0.64969 0.02861 0.0
Li266 Li 0.00752 0.65391 0.00152 0.0
Li267 Li 0.98889 0.66114 0.00879 0.0
C268 C 0.02793 0.66054 0.03513 0.0
N269 N 0.04594 0.66498 0.06151 0.0
C270 C 0.02609 0.66699 0.04906 0.0
C271 C 0.03895 0.65637 0.0346 0.0
C272 C 0.03529 0.66913 0.06228 0.0
C273 C 0.04794 0.65871 0.04806 0.0
C274 C 0.98659 0.66824 0.04275 0.0
C275 C 0.96206 0.65956 0.05401 0.0
N276 N 0.96874 0.66905 0.06674 0.0
C277 C 0.99321 0.67806 0.05584 0.0
C278 C 0.97089 0.65903 0.04172 0.0
C279 C 0.98399 0.67825 0.06789 0.0
C280 C 0.02332 0.7044 0.02772 0.0
N281 N 0.02924 0.69522 0.02644 0.0
C282 C 0.05349 0.71534 0.0351 0.0
C283 C 0.04405 0.70036 0.02981 0.0
C284 C 0.04757 0.72503 0.03684 0.0
C285 C 0.03229 0.71938 0.03289 0.0
H286 H 0.01153 0.69999 0.02478 0.0
H287 H 0.0485 0.69283 0.02854 0.0
C288 C 0.98981 0.6221 0.04198 0.0
N289 N 0.99183 0.63597 0.0457 0.0
C290 C 0.98702 0.61169 0.05389 0.0
C291 C 0.98829 0.62998 0.07325 0.0
C292 C 0.99105 0.64003 0.06096 0.0
C293 C 0.98638 0.61564 0.06981 0.0
H294 H 0.99072 0.61926 0.02976 0.0
H295 H 0.99294 0.65119 0.0637 0.0
C296 C 0.0202 0.68241 0.98814 0.0
N297 N 0.04456 0.70114 0.96963 0.0
C298 C 0.01876 0.69131 0.97665 0.0
C299 C 0.03403 0.68303 0.99024 0.0
C300 C 0.03121 0.7007 0.96739 0.0
C301 C 0.04621 0.69257 0.98076 0.0
C302 C 0.9723 0.62893 0.0053 0.0
C303 C 0.96845 0.62209 0.99018 0.0
C304 C 0.96161 0.62339 0.01735 0.0
C305 C 0.9538 0.61004 0.98726 0.0
C306 C 0.94709 0.61131 0.01396 0.0
N307 N 0.94351 0.60495 0.99911 0.0
C308 C 0.01944 0.63694 0.98748 0.0
C309 C 0.0089 0.64689 0.96959 0.0
C310 C 0.02192 0.62933 0.975 0.0
N311 N 0.01292 0.64537 0.98454 0.0
C312 C 0.01116 0.63948 0.95679 0.0
C313 C 0.01754 0.63036 0.95943 0.0
H314 H 0.0223 0.63578 0.99955 0.0
H315 H 0.00358 0.65355 0.96768 0.0
C316 C 0.97465 0.67778 0.00539 0.0
N317 N 0.97379 0.66469 0.00039 0.0
C318 C 0.96636 0.6832 0.9976 0.0
C319 C 0.95589 0.66118 0.98008 0.0
C320 C 0.96449 0.65625 0.98815 0.0
C321 C 0.95712 0.67508 0.98446 0.0
H322 H 0.98249 0.68449 0.01485 0.0
H323 H 0.96434 0.64614 0.98407 0.0
O324 O 0.01907 0.65831 0.02201 0.0
O325 O 0.99548 0.66801 0.03083 0.0
O326 O 0.0081 0.6732 0.99729 0.0
O327 O 0.98663 0.64066 0.00837 0.0
H328 H 0.01769 0.67036 0.04966 0.0
H329 H 0.04054 0.6514 0.02388 0.0
H330 H 0.03397 0.6741 0.07314 0.0
H331 H 0.05652 0.65554 0.04782 0.0
H332 H 0.94988 0.65246 0.05339 0.0
H333 H 0.00535 0.68541 0.05672 0.0
H334 H 0.96556 0.6517 0.03146 0.0
H335 H 0.98897 0.68571 0.07814 0.0
H336 H 0.06519 0.71922 0.03804 0.0
H337 H 0.02732 0.7265 0.03364 0.0
H338 H 0.98584 0.60086 0.0507 0.0
H339 H 0.98775 0.63346 0.08533 0.0
H340 H 0.00812 0.69095 0.9749 0.0
H341 H 0.03536 0.67624 0.99908 0.0
H342 H 0.03026 0.70765 0.95844 0.0
H343 H 0.05697 0.69317 0.98225 0.0
H344 H 0.97666 0.62614 0.98078 0.0
H345 H 0.96452 0.62826 0.02923 0.0
H346 H 0.95062 0.60471 0.97559 0.0
H347 H 0.93868 0.60694 0.02316 0.0
H348 H 0.02672 0.62229 0.97759 0.0
H349 H 0.0078 0.64076 0.94497 0.0
H350 H 0.96791 0.69408 0.00125 0.0
H351 H 0.94881 0.65447 0.97013 0.0
Li352 Li 0.33519 0.34783 0.0095 0.0
Li353 Li 0.36071 0.35491 0.01671 0.0
Li354 Li 0.35556 0.36252 0.99162 0.0
Li355 Li 0.34766 0.3364 0.99578 0.0
C356 C 0.35149 0.37466 0.02738 0.0
N357 N 0.34943 0.38686 0.05613 0.0
C358 C 0.34426 0.36523 0.04016 0.0
C359 C 0.35764 0.39029 0.02922 0.0
C360 C 0.34334 0.37161 0.0546 0.0
C361 C 0.35649 0.39624 0.04385 0.0
C362 C 0.34528 0.32465 0.02551 0.0
C363 C 0.3618 0.31471 0.03013 0.0
N364 N 0.35126 0.30406 0.0397 0.0
C365 C 0.33461 0.31361 0.03538 0.0
C366 C 0.35899 0.32522 0.02284 0.0
C367 C 0.33784 0.30331 0.04245 0.0
C368 C 0.30601 0.32775 0.01812 0.0
N369 N 0.31581 0.34284 0.01694 0.0
C370 C 0.29729 0.34839 0.02674 0.0
C371 C 0.31174 0.35319 0.02093 0.0
C372 C 0.28696 0.33282 0.02832 0.0
C373 C 0.29148 0.32246 0.02377 0.0
H374 H 0.30955 0.31981 0.01467 0.0
H375 H 0.31973 0.36515 0.01974 0.0
C376 C 0.38933 0.37179 0.03197 0.0
N377 N 0.37461 0.36111 0.03418 0.0
C378 C 0.39953 0.37718 0.04484 0.0
C379 C 0.37921 0.3604 0.06191 0.0
C380 C 0.36946 0.3553 0.04875 0.0
C381 C 0.39443 0.37158 0.06009 0.0
H382 H 0.39309 0.37629 0.02026 0.0
H383 H 0.35771 0.34683 0.05023 0.0
C384 C 0.32638 0.34848 0.97867 0.0
N385 N 0.30773 0.35642 0.96311 0.0
C386 C 0.31656 0.33909 0.9666 0.0
C387 C 0.32671 0.36191 0.98285 0.0
C388 C 0.30722 0.3433 0.95886 0.0
C389 C 0.31719 0.36572 0.97484 0.0
C390 C 0.37572 0.35371 0.98178 0.0
C391 C 0.36724 0.34783 0.96774 0.0
C392 C 0.39132 0.3595 0.98162 0.0
C393 C 0.37453 0.34786 0.95375 0.0
C394 C 0.39819 0.35933 0.96739 0.0
N395 N 0.38972 0.35356 0.95387 0.0
C396 C 0.37279 0.39273 0.98191 0.0
C397 C 0.35893 0.37524 0.96103 0.0
C398 C 0.37839 0.40477 0.97141 0.0
N399 N 0.36319 0.37834 0.97659 0.0
C400 C 0.36429 0.38691 0.95012 0.0
C401 C 0.37411 0.40193 0.95527 0.0
H402 H 0.37605 0.39483 0.99434 0.0
H403 H 0.35123 0.36372 0.95708 0.0
C404 C 0.32791 0.30782 0.98436 0.0
N405 N 0.34295 0.31743 0.98665 0.0
C406 C 0.32255 0.29317 0.97848 0.0
C407 C 0.34834 0.29854 0.97725 0.0
C408 C 0.35321 0.31314 0.98327 0.0
C409 C 0.33279 0.2883 0.97484 0.0
H410 H 0.32003 0.31152 0.9874 0.0
H411 H 0.36512 0.32096 0.98541 0.0
O412 O 0.35262 0.36875 0.01312 0.0
O413 O 0.34217 0.33474 0.01847 0.0
O414 O 0.33556 0.34443 0.9863 0.0
O415 O 0.36893 0.35386 0.99567 0.0
H416 H 0.33937 0.35311 0.03897 0.0
H417 H 0.36325 0.39775 0.01944 0.0
H418 H 0.33779 0.36444 0.06458 0.0
H419 H 0.36121 0.40832 0.04543 0.0
H420 H 0.37236 0.31502 0.02817 0.0
H421 H 0.32394 0.31302 0.03755 0.0
H422 H 0.3674 0.33367 0.01525 0.0
H423 H 0.32969 0.2947 0.05013 0.0
H424 H 0.29434 0.35678 0.03018 0.0
H425 H 0.28382 0.31036 0.0244 0.0
H426 H 0.41116 0.38588 0.04294 0.0
H427 H 0.37486 0.35562 0.07341 0.0
H428 H 0.31618 0.32865 0.96324 0.0
H429 H 0.33424 0.36934 0.99214 0.0
H430 H 0.29957 0.33615 0.94949 0.0
H431 H 0.31734 0.37608 0.97794 0.0
H432 H 0.35516 0.34323 0.9676 0.0
H433 H 0.39804 0.36408 0.9924 0.0
H434 H 0.3681 0.34334 0.94281 0.0
H435 H 0.41025 0.36377 0.96711 0.0
H436 H 0.38605 0.41615 0.97585 0.0
H437 H 0.36053 0.38423 0.93784 0.0
H438 H 0.31046 0.28562 0.97722 0.0
H439 H 0.35664 0.29532 0.97454 0.0
Li440 Li 0.66056 0.99096 0.01678 0.0
Li441 Li 0.65292 0.00955 0.0237 0.0
Li442 Li 0.64722 0.99728 0.99639 0.0
Li443 Li 0.67271 0.01633 0.00445 0.0
C444 C 0.62825 0.97377 0.0212 0.0
N445 N 0.60467 0.94542 0.02878 0.0
C446 C 0.62248 0.97096 0.03657 0.0
C447 C 0.62182 0.96221 0.00961 0.0
C448 C 0.61062 0.95654 0.04019 0.0
C449 C 0.60997 0.94794 0.01369 0.0
C450 C 0.67745 0.01689 0.04208 0.0
C451 C 0.68639 0.03746 0.0613 0.0
N452 N 0.68622 0.02815 0.07275 0.0
C453 C 0.67747 0.00756 0.05402 0.0
C454 C 0.68204 0.03199 0.04572 0.0
C455 C 0.68191 0.01346 0.06945 0.0
C456 C 0.6794 0.97952 0.02232 0.0
N457 N 0.66525 0.97674 0.02544 0.0
C458 C 0.66138 0.95746 0.04363 0.0
C459 C 0.65612 0.96578 0.03564 0.0
C460 C 0.67621 0.96054 0.04118 0.0
C461 C 0.68513 0.9715 0.03005 0.0
H462 H 0.68648 0.98848 0.01433 0.0
H463 H 0.64502 0.96391 0.03814 0.0
C464 C 0.63893 0.02487 0.03724 0.0
N465 N 0.64477 0.01588 0.04047 0.0
C466 C 0.63178 0.02854 0.04913 0.0
C467 C 0.63701 0.01381 0.06749 0.0
C468 C 0.64397 0.01038 0.05525 0.0
C469 C 0.6306 0.02283 0.06448 0.0
H470 H 0.63948 0.02889 0.02531 0.0
H471 H 0.64842 0.00301 0.05746 0.0
C472 C 0.66431 0.98529 0.98341 0.0
N473 N 0.66111 0.96311 0.96194 0.0
C474 C 0.6719 0.9893 0.96896 0.0
C475 C 0.65531 0.96999 0.98703 0.0
C476 C 0.67008 0.97793 0.95823 0.0
C477 C 0.65378 0.95895 0.976 0.0
C478 C 0.66115 0.03269 0.99579 0.0
C479 C 0.6606 0.03374 0.9793 0.0
C480 C 0.66848 0.04589 0.00521 0.0
C481 C 0.66762 0.04802 0.97246 0.0
C482 C 0.67536 0.05996 0.99793 0.0
N483 N 0.67481 0.06072 0.98184 0.0
C484 C 0.61819 0.98527 0.9828 0.0
C485 C 0.63764 0.99185 0.96409 0.0
C486 C 0.60752 0.98142 0.97059 0.0
N487 N 0.63291 0.99035 0.97935 0.0
C488 C 0.62738 0.98823 0.95151 0.0
C489 C 0.61212 0.98307 0.95469 0.0
H490 H 0.61482 0.98457 0.99505 0.0
H491 H 0.64947 0.99634 0.96167 0.0
C492 C 0.70343 0.03982 0.00644 0.0
N493 N 0.69152 0.03158 0.99637 0.0
C494 C 0.71784 0.04926 0.00043 0.0
C495 C 0.70738 0.04179 0.97383 0.0
C496 C 0.69316 0.0326 0.98035 0.0
C497 C 0.72 0.05002 0.98392 0.0
H498 H 0.70189 0.03856 0.01912 0.0
H499 H 0.68351 0.02583 0.97263 0.0
O500 O 0.63979 0.98788 0.01743 0.0
O501 O 0.67306 0.0113 0.02691 0.0
O502 O 0.66603 0.99631 0.99406 0.0
O503 O 0.6546 0.01882 0.00268 0.0
H504 H 0.62717 0.97976 0.04567 0.0
H505 H 0.6258 0.96422 0.99754 0.0
H506 H 0.60614 0.9542 0.05208 0.0
H507 H 0.60494 0.9389 0.00485 0.0
H508 H 0.68989 0.0491 0.06429 0.0
H509 H 0.67401 0.99587 0.05145 0.0
H510 H 0.6822 0.0394 0.03662 0.0
H511 H 0.68191 0.00634 0.07882 0.0
H512 H 0.65406 0.949 0.05197 0.0
H513 H 0.69669 0.97442 0.02794 0.0
H514 H 0.62684 0.03538 0.0462 0.0
H515 H 0.63659 0.00933 0.07916 0.0
H516 H 0.67908 0.00106 0.96601 0.0
H517 H 0.64967 0.96664 0.99828 0.0
H518 H 0.67581 0.98088 0.94697 0.0
H519 H 0.64681 0.94707 0.97866 0.0
H520 H 0.65495 0.02365 0.97184 0.0
H521 H 0.66884 0.04527 0.018 0.0
H522 H 0.66738 0.04901 0.9597 0.0
H523 H 0.68113 0.07026 0.00507 0.0
H524 H 0.59592 0.9777 0.97356 0.0
H525 H 0.63137 0.9896 0.93942 0.0
H526 H 0.7273 0.05526 0.00863 0.0
H527 H 0.70856 0.04217 0.96103 0.0
Li528 Li 0.65406 0.66218 0.33375 0.0
Li529 Li 0.67764 0.67501 0.34889 0.0
Li530 Li 0.65738 0.6806 0.35414 0.0
Li531 Li 0.67196 0.68961 0.33022 0.0
C532 C 0.64619 0.64757 0.36261 0.0
N533 N 0.62409 0.61956 0.37303 0.0
C534 C 0.6502 0.63772 0.36945 0.0
C535 C 0.63093 0.64311 0.361 0.0
C536 C 0.63887 0.62363 0.37466 0.0
C537 C 0.61993 0.62893 0.36636 0.0
C538 C 0.67806 0.6613 0.31999 0.0
C539 C 0.68669 0.65085 0.29951 0.0
N540 N 0.68361 0.63902 0.309 0.0
C541 C 0.67499 0.64903 0.32952 0.0
C542 C 0.68397 0.66222 0.30485 0.0
C543 C 0.67787 0.6379 0.32377 0.0
C544 C 0.63589 0.64585 0.30753 0.0
N545 N 0.64081 0.64402 0.32188 0.0
C546 C 0.62974 0.61745 0.31665 0.0
C547 C 0.63785 0.63014 0.32657 0.0
C548 C 0.62488 0.61905 0.30155 0.0
C549 C 0.62785 0.63347 0.29713 0.0
H550 H 0.63868 0.65706 0.30393 0.0
H551 H 0.64227 0.6289 0.33772 0.0
C552 C 0.69088 0.66694 0.37312 0.0
N553 N 0.69317 0.67247 0.35819 0.0
C554 C 0.7002 0.66201 0.37944 0.0
C555 C 0.71495 0.66991 0.35548 0.0
C556 C 0.70518 0.67447 0.34952 0.0
C557 C 0.71216 0.66317 0.37039 0.0
H558 H 0.68134 0.66565 0.3798 0.0
H559 H 0.70672 0.67884 0.33764 0.0
C560 C 0.63732 0.68033 0.33354 0.0
N561 N 0.61231 0.6835 0.3373 0.0
C562 C 0.6391 0.69471 0.33567 0.0
C563 C 0.62279 0.6676 0.33297 0.0
C564 C 0.62633 0.69607 0.33766 0.0
C565 C 0.6103 0.66942 0.33498 0.0
C566 C 0.69443 0.70611 0.35294 0.0
C567 C 0.7001 0.71668 0.36551 0.0
C568 C 0.70412 0.70679 0.34095 0.0
C569 C 0.71542 0.72776 0.36591 0.0
C570 C 0.71936 0.71804 0.34177 0.0
N571 N 0.72465 0.72821 0.35413 0.0
C572 C 0.63745 0.67799 0.37982 0.0
C573 C 0.65514 0.70266 0.37134 0.0
C574 C 0.63194 0.68395 0.39124 0.0
N575 N 0.64879 0.68737 0.37008 0.0
C576 C 0.65001 0.70909 0.3826 0.0
C577 C 0.63827 0.69971 0.39276 0.0
H578 H 0.63276 0.66592 0.37892 0.0
H579 H 0.66419 0.70988 0.3635 0.0
C580 C 0.68399 0.70385 0.30094 0.0
N581 N 0.67974 0.70569 0.31567 0.0
C582 C 0.68898 0.71547 0.28997 0.0
C583 C 0.68506 0.7306 0.30959 0.0
C584 C 0.6804 0.7188 0.32025 0.0
C585 C 0.68932 0.72895 0.29422 0.0
H586 H 0.68327 0.69327 0.29763 0.0
H587 H 0.67711 0.71998 0.33213 0.0
O588 O 0.65713 0.66134 0.35719 0.0
O589 O 0.67522 0.6723 0.32533 0.0
O590 O 0.6497 0.67876 0.33177 0.0
O591 O 0.67943 0.69524 0.35242 0.0
H592 H 0.66191 0.64077 0.37055 0.0
H593 H 0.62761 0.65049 0.35563 0.0
H594 H 0.64183 0.61589 0.37995 0.0
H595 H 0.60808 0.62537 0.36519 0.0
H596 H 0.69125 0.65142 0.28781 0.0
H597 H 0.67042 0.6481 0.34125 0.0
H598 H 0.68642 0.67161 0.29728 0.0
H599 H 0.67553 0.62836 0.33104 0.0
H600 H 0.62761 0.60655 0.32064 0.0
H601 H 0.62455 0.6353 0.28552 0.0
H602 H 0.69779 0.65685 0.391 0.0
H603 H 0.72404 0.67085 0.34819 0.0
H604 H 0.65022 0.7047 0.33595 0.0
H605 H 0.62116 0.65641 0.33094 0.0
H606 H 0.62756 0.70712 0.33949 0.0
H607 H 0.59901 0.65965 0.33466 0.0
H608 H 0.69273 0.71632 0.37487 0.0
H609 H 0.69995 0.69874 0.3311 0.0
H610 H 0.71997 0.73602 0.37558 0.0
H611 H 0.72699 0.71869 0.33258 0.0
H612 H 0.62303 0.67631 0.39901 0.0
H613 H 0.65511 0.72129 0.38323 0.0
H614 H 0.6921 0.71378 0.27817 0.0
H615 H 0.68533 0.74091 0.31331 0.0
Li616 Li 0.30274 0.98046 0.34027 0.0
Li617 Li 0.31075 0.97364 0.36544 0.0
Li618 Li 0.32103 0.00082 0.35728 0.0
Li619 Li 0.32885 0.98484 0.34338 0.0
C620 C 0.28536 0.98204 0.36345 0.0
N621 N 0.25569 0.97529 0.36446 0.0
C622 C 0.27451 0.96905 0.37106 0.0
C623 C 0.28116 0.9917 0.35652 0.0
C624 C 0.25956 0.96581 0.3714 0.0
C625 C 0.26609 0.98806 0.3571 0.0
C626 C 0.30864 0.95343 0.33606 0.0
C627 C 0.31498 0.93376 0.33466 0.0
N628 N 0.30797 0.92927 0.3202 0.0
C629 C 0.30141 0.94854 0.32123 0.0
C630 C 0.31539 0.94592 0.34289 0.0
C631 C 0.30123 0.93633 0.31339 0.0
C632 C 0.28992 0.98025 0.31072 0.0
N633 N 0.28656 0.97385 0.32526 0.0
C634 C 0.26108 0.95664 0.31688 0.0
C635 C 0.27251 0.96219 0.3285 0.0
C636 C 0.26432 0.96289 0.30168 0.0
C637 C 0.27893 0.97489 0.29868 0.0
H638 H 0.30128 0.98924 0.30832 0.0
H639 H 0.27027 0.95692 0.33996 0.0
C640 C 0.30928 0.96293 0.39698 0.0
N641 N 0.30406 0.95916 0.38175 0.0
C642 C 0.30424 0.95176 0.40851 0.0
C643 C 0.28856 0.93316 0.38842 0.0
C644 C 0.29386 0.94465 0.37734 0.0
C645 C 0.29375 0.93662 0.40426 0.0
H646 H 0.31738 0.97459 0.40014 0.0
H647 H 0.28987 0.94201 0.36515 0.0
C648 C 0.32792 0.01201 0.32776 0.0
N649 N 0.33984 0.0407 0.3157 0.0
C650 C 0.34293 0.01994 0.32287 0.0
C651 C 0.31891 0.01857 0.32634 0.0
C652 C 0.34877 0.03446 0.31685 0.0
C653 C 0.32516 0.03311 0.32027 0.0
C654 C 0.34382 0.99163 0.37421 0.0
C655 C 0.35588 0.00553 0.37961 0.0
C656 C 0.34397 0.97832 0.3771 0.0
C657 C 0.36801 0.00588 0.38763 0.0
C658 C 0.35629 0.97913 0.38518 0.0
N659 N 0.36797 0.99278 0.39021 0.0
C660 C 0.31917 0.02469 0.37301 0.0
C661 C 0.34281 0.03157 0.36163 0.0
C662 C 0.32467 0.0396 0.37839 0.0
N663 N 0.32827 0.02102 0.36478 0.0
C664 C 0.34872 0.04659 0.3666 0.0
C665 C 0.33965 0.0508 0.37519 0.0
H666 H 0.30769 0.01604 0.3755 0.0
H667 H 0.34985 0.0283 0.35521 0.0
C668 C 0.3411 0.97711 0.3177 0.0
N669 N 0.34479 0.98443 0.33206 0.0
C670 C 0.35199 0.97618 0.30871 0.0
C671 C 0.3706 0.99111 0.329 0.0
C672 C 0.35928 0.9916 0.33768 0.0
C673 C 0.36701 0.98321 0.31433 0.0
H674 H 0.32967 0.97203 0.31315 0.0
H675 H 0.36216 0.9979 0.34879 0.0
O676 O 0.30005 0.98539 0.36299 0.0
O677 O 0.30891 0.96537 0.34391 0.0
O678 O 0.32205 0.99784 0.33381 0.0
O679 O 0.3319 0.99112 0.36627 0.0
H680 H 0.27759 0.96151 0.37658 0.0
H681 H 0.28944 0.00188 0.35074 0.0
H682 H 0.25103 0.95575 0.37718 0.0
H683 H 0.26266 0.9954 0.35172 0.0
H684 H 0.32021 0.92788 0.33979 0.0
H685 H 0.29609 0.95418 0.31576 0.0
H686 H 0.32085 0.94938 0.35442 0.0
H687 H 0.29573 0.93248 0.30188 0.0
H688 H 0.25001 0.9472 0.31955 0.0
H689 H 0.28184 0.98 0.2871 0.0
H690 H 0.30843 0.95493 0.42061 0.0
H691 H 0.28065 0.92164 0.38455 0.0
H692 H 0.35003 0.01498 0.32385 0.0
H693 H 0.30723 0.0125 0.32992 0.0
H694 H 0.36039 0.04078 0.3131 0.0
H695 H 0.31834 0.03836 0.31917 0.0
H696 H 0.35591 0.01594 0.3776 0.0
H697 H 0.33466 0.96748 0.37322 0.0
H698 H 0.37745 0.01656 0.3918 0.0
H699 H 0.35656 0.96891 0.38747 0.0
H700 H 0.31734 0.04227 0.38515 0.0
H701 H 0.36025 0.05484 0.36365 0.0
H702 H 0.3486 0.96988 0.29755 0.0
H703 H 0.38208 0.99703 0.33365 0.0
Li704 Li 0.02595 0.32679 0.32849 0.0
Li705 Li 0.03424 0.34152 0.3533 0.0
Li706 Li 0.00732 0.32445 0.34636 0.0
Li707 Li 0.02088 0.34787 0.33265 0.0
C708 C 0.02738 0.30862 0.34893 0.0
N709 N 0.03673 0.28784 0.34451 0.0
C710 C 0.0414 0.31168 0.35492 0.0
C711 C 0.01804 0.29491 0.34085 0.0
C712 C 0.04593 0.30104 0.35253 0.0
C713 C 0.023 0.28458 0.33868 0.0
C714 C 0.05048 0.35714 0.32012 0.0
C715 C 0.07414 0.37845 0.31203 0.0
N716 N 0.07051 0.37375 0.29661 0.0
C717 C 0.04695 0.35255 0.30418 0.0
C718 C 0.06417 0.3702 0.32409 0.0
C719 C 0.05724 0.36109 0.29247 0.0
C720 C 0.02443 0.30832 0.30152 0.0
N721 N 0.03316 0.31774 0.31358 0.0
C722 C 0.05473 0.31707 0.30417 0.0
C723 C 0.04799 0.322 0.31518 0.0
C724 C 0.04608 0.30752 0.29146 0.0
C725 C 0.03068 0.30291 0.29032 0.0
H726 H 0.01274 0.3053 0.30036 0.0
H727 H 0.05467 0.32958 0.32485 0.0
C728 C 0.04669 0.35178 0.38437 0.0
N729 N 0.04973 0.34995 0.36907 0.0
C730 C 0.0584 0.35863 0.39565 0.0
C731 C 0.07602 0.36119 0.37526 0.0
C732 C 0.06401 0.35439 0.36438 0.0
C733 C 0.0733 0.36347 0.39111 0.0
H734 H 0.0352 0.34802 0.38779 0.0
H735 H 0.06604 0.35264 0.35215 0.0
C736 C 0.99243 0.31894 0.31987 0.0
N737 N 0.96154 0.30143 0.31504 0.0
C738 C 0.98355 0.32571 0.31962 0.0
C739 C 0.98561 0.30328 0.31751 0.0
C740 C 0.96794 0.31666 0.3172 0.0
C741 C 0.96998 0.29462 0.31512 0.0
C742 C 0.02249 0.35899 0.36358 0.0
C743 C 0.01467 0.36037 0.37643 0.0
C744 C 0.03595 0.37163 0.35879 0.0
C745 C 0.02042 0.37438 0.38426 0.0
C746 C 0.04134 0.38544 0.36693 0.0
N747 N 0.03353 0.38652 0.37939 0.0
C748 C 0.98125 0.29659 0.35589 0.0
C749 C 0.98052 0.31917 0.35981 0.0
C750 C 0.96642 0.28793 0.36123 0.0
N751 N 0.98786 0.31189 0.35509 0.0
C752 C 0.96581 0.31101 0.3654 0.0
C753 C 0.95843 0.29514 0.36596 0.0
H754 H 0.98731 0.29108 0.35199 0.0
H755 H 0.98604 0.33135 0.35895 0.0
C756 C 0.02631 0.37163 0.31077 0.0
N757 N 0.0189 0.36404 0.32395 0.0
C758 C 0.02456 0.3834 0.30509 0.0
C759 C 0.00741 0.37927 0.32651 0.0
C760 C 0.00941 0.36752 0.33168 0.0
C761 C 0.01507 0.38744 0.31305 0.0
H762 H 0.03352 0.36857 0.30453 0.0
H763 H 0.00333 0.36114 0.34192 0.0
O764 O 0.02287 0.31902 0.35089 0.0
O765 O 0.0408 0.34871 0.33185 0.0
O766 O 0.00767 0.32757 0.3227 0.0
O767 O 0.01701 0.34527 0.35592 0.0
H768 H 0.04872 0.32217 0.3613 0.0
H769 H 0.0072 0.29237 0.33606 0.0
H770 H 0.05678 0.3033 0.35704 0.0
H771 H 0.01594 0.27399 0.33231 0.0
H772 H 0.08478 0.38858 0.31494 0.0
H773 H 0.03629 0.34266 0.30084 0.0
H774 H 0.06707 0.37395 0.33635 0.0
H775 H 0.05465 0.35768 0.2801 0.0
H776 H 0.06662 0.32077 0.30548 0.0
H777 H 0.02371 0.29567 0.28058 0.0
H778 H 0.05583 0.36005 0.4078 0.0
H779 H 0.08736 0.36485 0.37126 0.0
H780 H 0.9886 0.33779 0.3214 0.0
H781 H 0.99226 0.29781 0.31783 0.0
H782 H 0.96092 0.32174 0.31709 0.0
H783 H 0.96454 0.28247 0.31343 0.0
H784 H 0.00427 0.35068 0.38034 0.0
H785 H 0.04219 0.37082 0.3489 0.0
H786 H 0.01448 0.3756 0.39423 0.0
H787 H 0.05173 0.3953 0.36334 0.0
H788 H 0.96117 0.27572 0.36125 0.0
H789 H 0.96027 0.31713 0.3692 0.0
H790 H 0.03047 0.38917 0.29449 0.0
H791 H 8e-05 0.38203 0.33315 0.0
Li792 Li 0.67636 0.99159 0.35397 0.0
Li793 Li 0.65978 0.96582 0.36135 0.0
Li794 Li 0.67457 0.97216 0.33547 0.0
Li795 Li 0.65277 0.97678 0.33929 0.0
C796 C 0.69575 0.98317 0.36561 0.0
N797 N 0.72342 0.99785 0.38124 0.0
C798 C 0.69676 0.988 0.38142 0.0
C799 C 0.70879 0.98571 0.35777 0.0
C800 C 0.71086 0.99544 0.3891 0.0
C801 C 0.72268 0.99317 0.36588 0.0
C802 C 0.64405 0.97921 0.37199 0.0
C803 C 0.61752 0.9649 0.37801 0.0
N804 N 0.62055 0.97173 0.39263 0.0
C805 C 0.6469 0.98617 0.38703 0.0
C806 C 0.62924 0.96857 0.36739 0.0
C807 C 0.63487 0.98221 0.39731 0.0
C808 C 0.68092 0.0189 0.36596 0.0
N809 N 0.68884 0.012 0.362 0.0
C810 C 0.71212 0.0346 0.36873 0.0
C811 C 0.70419 0.01961 0.36303 0.0
C812 C 0.7042 0.04197 0.37307 0.0
C813 C 0.68836 0.03389 0.37147 0.0
H814 H 0.66876 0.01281 0.36455 0.0
H815 H 0.71037 0.01418 0.35929 0.0
C816 C 0.64358 0.93697 0.37577 0.0
N817 N 0.65214 0.95214 0.37859 0.0
C818 C 0.63703 0.92707 0.38837 0.0
C819 C 0.64915 0.94849 0.40661 0.0
C820 C 0.65516 0.95798 0.39365 0.0
C821 C 0.63965 0.93278 0.40411 0.0
H822 H 0.64164 0.93254 0.36373 0.0
H823 H 0.6621 0.97006 0.39561 0.0
C824 C 0.68443 0.00405 0.32601 0.0
N825 N 0.70744 0.03246 0.31786 0.0
C826 C 0.68133 0.01561 0.32313 0.0
C827 C 0.69922 0.00692 0.32471 0.0
C828 C 0.69313 0.0299 0.31903 0.0
C829 C 0.7107 0.02136 0.32058 0.0
C830 C 0.64094 0.94551 0.33127 0.0
C831 C 0.64304 0.94195 0.31574 0.0
C832 C 0.62678 0.93706 0.33825 0.0
C833 C 0.63092 0.93005 0.30743 0.0
C834 C 0.61495 0.92524 0.32955 0.0
N835 N 0.61724 0.92202 0.31445 0.0
C836 C 0.6891 0.95668 0.32259 0.0
C837 C 0.68419 0.97152 0.30491 0.0
C838 C 0.69506 0.95209 0.31022 0.0
N839 N 0.68381 0.9662 0.31968 0.0
C840 C 0.68999 0.96722 0.29225 0.0
C841 C 0.69541 0.95728 0.29476 0.0
H842 H 0.68853 0.95253 0.33446 0.0
H843 H 0.67976 0.97895 0.3029 0.0
C844 C 0.63815 0.99216 0.33091 0.0
N845 N 0.63753 0.97873 0.32828 0.0
C846 C 0.62915 0.996 0.32194 0.0
C847 C 0.61825 0.97167 0.30842 0.0
C848 C 0.62766 0.96842 0.31746 0.0
C849 C 0.61923 0.98581 0.31023 0.0
H850 H 0.64614 0.00017 0.33956 0.0
H851 H 0.62735 0.95789 0.31536 0.0
O852 O 0.68205 0.97572 0.35791 0.0
O853 O 0.65574 0.98283 0.36189 0.0
O854 O 0.67311 0.99006 0.33038 0.0
O855 O 0.65273 0.9571 0.33959 0.0
H856 H 0.68682 0.98624 0.3876 0.0
H857 H 0.7082 0.98199 0.34555 0.0
H858 H 0.71183 0.99934 0.4013 0.0
H859 H 0.73287 0.99525 0.35996 0.0
H860 H 0.606 0.95663 0.37462 0.0
H861 H 0.65832 0.99446 0.39075 0.0
H862 H 0.62682 0.96319 0.35575 0.0
H863 H 0.63692 0.98744 0.40901 0.0
H864 H 0.72431 0.04029 0.36976 0.0
H865 H 0.68174 0.03915 0.37415 0.0
H866 H 0.6297 0.91513 0.38568 0.0
H867 H 0.65192 0.9535 0.41845 0.0
H868 H 0.66996 0.0136 0.3241 0.0
H869 H 0.70184 0.99814 0.32706 0.0
H870 H 0.6909 0.03897 0.3168 0.0
H871 H 0.72221 0.02375 0.31962 0.0
H872 H 0.65388 0.94833 0.31011 0.0
H873 H 0.62492 0.93958 0.35026 0.0
H874 H 0.63238 0.92722 0.29539 0.0
H875 H 0.60394 0.91863 0.33482 0.0
H876 H 0.69904 0.94433 0.31265 0.0
H877 H 0.69025 0.97169 0.2806 0.0
H878 H 0.63052 0.00712 0.32367 0.0
H879 H 0.61058 0.96332 0.29979 0.0
Li880 Li 0.03604 0.69786 0.35971 0.0
Li881 Li 0.00737 0.68677 0.35456 0.0
Li882 Li 0.02276 0.67983 0.33804 0.0
Li883 Li 0.02634 0.70434 0.33635 0.0
C884 C 0.01812 0.66298 0.36252 0.0
N885 N 0.01675 0.63537 0.36347 0.0
C886 C 0.0042 0.64954 0.36111 0.0
C887 C 0.03134 0.6624 0.36452 0.0
C888 C 0.00374 0.63569 0.36158 0.0
C889 C 0.03041 0.64832 0.36496 0.0
C890 C 0.02525 0.72211 0.35815 0.0
C891 C 0.01449 0.73806 0.35479 0.0
N892 N 0.02864 0.75042 0.35466 0.0
C893 C 0.03968 0.73496 0.35807 0.0
C894 C 0.01253 0.72364 0.35654 0.0
C895 C 0.04116 0.74918 0.35626 0.0
C896 C 0.06527 0.71684 0.37264 0.0
N897 N 0.05134 0.70487 0.37564 0.0
C898 C 0.0595 0.7021 0.40134 0.0
C899 C 0.04823 0.69757 0.38967 0.0
C900 C 0.07412 0.71424 0.39848 0.0
C901 C 0.07691 0.7217 0.38394 0.0
H902 H 0.06739 0.72242 0.36136 0.0
H903 H 0.03703 0.68807 0.39169 0.0
C904 C 0.97679 0.66601 0.35657 0.0
N905 N 0.98799 0.67897 0.36346 0.0
C906 C 0.96212 0.65925 0.36233 0.0
C907 C 0.97073 0.67942 0.3821 0.0
C908 C 0.98532 0.68574 0.37602 0.0
C909 C 0.95892 0.66596 0.37525 0.0
H910 H 0.97928 0.66096 0.34653 0.0
H911 H 0.99449 0.69603 0.3813 0.0
C912 C 0.05248 0.69677 0.32957 0.0
N913 N 0.07317 0.69213 0.31332 0.0
C914 C 0.05256 0.69672 0.31296 0.0
C915 C 0.06303 0.69461 0.33792 0.0
C916 C 0.06307 0.69429 0.30497 0.0
C917 C 0.07338 0.69226 0.32948 0.0
C918 C 0.00163 0.68629 0.31764 0.0
C919 C 0.00823 0.68613 0.30322 0.0
C920 C 0.98872 0.6876 0.31771 0.0
C921 C 0.00195 0.68756 0.28907 0.0
C922 C 0.98277 0.68899 0.3033 0.0
N923 N 0.98947 0.68896 0.2894 0.0
C924 C 0.00584 0.65348 0.32025 0.0
C925 C 0.03107 0.65898 0.32346 0.0
C926 C 0.00226 0.64078 0.31083 0.0
N927 N 0.02011 0.66249 0.32608 0.0
C928 C 0.02804 0.64644 0.31389 0.0
C929 C 0.01349 0.63726 0.30733 0.0
H930 H 0.99719 0.65623 0.32284 0.0
H931 H 0.04215 0.66582 0.32873 0.0
C932 C 0.04525 0.72797 0.31616 0.0
N933 N 0.03102 0.72049 0.322 0.0
C934 C 0.04915 0.73899 0.30469 0.0
C935 C 0.02389 0.73503 0.30601 0.0
C936 C 0.02046 0.72402 0.31742 0.0
C937 C 0.03832 0.74248 0.29928 0.0
H938 H 0.05356 0.72523 0.32025 0.0
H939 H 0.0093 0.71815 0.32242 0.0
O940 O 0.01888 0.67665 0.36153 0.0
O941 O 0.02358 0.70807 0.35953 0.0
O942 O 0.04244 0.69937 0.33761 0.0
O943 O 0.0076 0.68491 0.33163 0.0
H944 H 0.99387 0.6498 0.35949 0.0
H945 H 0.04222 0.6727 0.36554 0.0
H946 H 0.99306 0.62519 0.3604 0.0
H947 H 0.04056 0.6477 0.36641 0.0
H948 H 0.00476 0.73942 0.35343 0.0
H949 H 0.04963 0.73393 0.35923 0.0
H950 H 0.00128 0.71378 0.35643 0.0
H951 H 0.05226 0.75922 0.35608 0.0
H952 H 0.05691 0.69593 0.4123 0.0
H953 H 0.08798 0.73118 0.38133 0.0
H954 H 0.95331 0.64901 0.35655 0.0
H955 H 0.96873 0.6849 0.39213 0.0
H956 H 0.04464 0.6986 0.30632 0.0
H957 H 0.06315 0.69459 0.35075 0.0
H958 H 0.06322 0.69418 0.29212 0.0
H959 H 0.08156 0.69049 0.33578 0.0
H960 H 0.01806 0.68486 0.30298 0.0
H961 H 0.98345 0.68767 0.32879 0.0
H962 H 0.00698 0.68752 0.27782 0.0
H963 H 0.97284 0.69012 0.30316 0.0
H964 H 0.99091 0.63401 0.30597 0.0
H965 H 0.03693 0.64393 0.31167 0.0
H966 H 0.06049 0.74467 0.30003 0.0
H967 H 0.01518 0.73733 0.30215 0.0
Li968 Li 0.31236 0.34216 0.35698 0.0
Li969 Li 0.31955 0.32304 0.35417 0.0
Li970 Li 0.33034 0.34549 0.33723 0.0
Li971 Li 0.30424 0.32589 0.33289 0.0
C972 C 0.33617 0.35164 0.37489 0.0
N973 N 0.34235 0.36611 0.40424 0.0
C974 C 0.33048 0.34321 0.38864 0.0
C975 C 0.34509 0.36741 0.37605 0.0
C976 C 0.33371 0.35075 0.40337 0.0
C977 C 0.34807 0.37452 0.39101 0.0
C978 C 0.28805 0.30456 0.35572 0.0
C979 C 0.27954 0.27873 0.34769 0.0
N980 N 0.26647 0.27411 0.35567 0.0
C981 C 0.27452 0.29956 0.3638 0.0
C982 C 0.29058 0.29407 0.34756 0.0
C983 C 0.26376 0.28412 0.36365 0.0
C984 C 0.3108 0.36668 0.37159 0.0
N985 N 0.30604 0.35168 0.37241 0.0
C986 C 0.29168 0.34947 0.39556 0.0
C987 C 0.2967 0.34305 0.38411 0.0
C988 C 0.29637 0.36495 0.39499 0.0
C989 C 0.30614 0.37357 0.38282 0.0
H990 H 0.31826 0.37335 0.3623 0.0
H991 H 0.29314 0.33116 0.38455 0.0
C992 C 0.33841 0.31185 0.36029 0.0
N993 N 0.32478 0.30991 0.36446 0.0
C994 C 0.34337 0.30253 0.36641 0.0
C995 C 0.32036 0.2896 0.38144 0.0
C996 C 0.31587 0.29928 0.37509 0.0
C997 C 0.33423 0.29109 0.37698 0.0
H998 H 0.34535 0.32058 0.35203 0.0
H999 H 0.30524 0.2982 0.37852 0.0
C1000 C 0.31765 0.36081 0.32588 0.0
N1001 N 0.32845 0.38665 0.30808 0.0
C1002 C 0.31138 0.36013 0.31089 0.0
C1003 C 0.32944 0.37464 0.33178 0.0
C1004 C 0.31699 0.37331 0.30208 0.0
C1005 C 0.33474 0.38757 0.32262 0.0
C1006 C 0.32743 0.32336 0.31593 0.0
C1007 C 0.32318 0.32868 0.30286 0.0
C1008 C 0.33702 0.31752 0.31382 0.0
C1009 C 0.32865 0.32812 0.28785 0.0
C1010 C 0.34225 0.31715 0.29862 0.0
N1011 N 0.338 0.32242 0.28606 0.0
C1012 C 0.36181 0.36272 0.33528 0.0
C1013 C 0.3495 0.36417 0.31206 0.0
C1014 C 0.37594 0.37218 0.32871 0.0
N1015 N 0.34895 0.35901 0.32699 0.0
C1016 C 0.36338 0.37388 0.30515 0.0
C1017 C 0.37681 0.37797 0.31351 0.0
H1018 H 0.36108 0.35826 0.34702 0.0
H1019 H 0.3392 0.3608 0.30546 0.0
C1020 C 0.27878 0.32036 0.31458 0.0
N1021 N 0.28834 0.31515 0.31769 0.0
C1022 C 0.26768 0.31344 0.30269 0.0
C1023 C 0.27593 0.2954 0.29806 0.0
C1024 C 0.28701 0.30281 0.30987 0.0
C1025 C 0.26626 0.30087 0.29419 0.0
H1026 H 0.28001 0.3301 0.32113 0.0
H1027 H 0.29476 0.2989 0.31255 0.0
O1028 O 0.33272 0.3445 0.36033 0.0
O1029 O 0.29861 0.31968 0.35567 0.0
O1030 O 0.31226 0.348 0.33469 0.0
O1031 O 0.32228 0.32389 0.33076 0.0
H1032 H 0.32348 0.331 0.3879 0.0
H1033 H 0.3496 0.37408 0.36551 0.0
H1034 H 0.3293 0.34439 0.41411 0.0
H1035 H 0.35489 0.38672 0.39209 0.0
H1036 H 0.28137 0.27049 0.34145 0.0
H1037 H 0.27234 0.30754 0.3701 0.0
H1038 H 0.30097 0.29769 0.34124 0.0
H1039 H 0.25324 0.28009 0.36986 0.0
H1040 H 0.28406 0.34233 0.40463 0.0
H1041 H 0.31031 0.3856 0.38206 0.0
H1042 H 0.35408 0.30399 0.36254 0.0
H1043 H 0.31307 0.28106 0.38973 0.0
H1044 H 0.30235 0.34953 0.30602 0.0
H1045 H 0.33475 0.37532 0.34312 0.0
H1046 H 0.31225 0.37293 0.29046 0.0
H1047 H 0.34393 0.39832 0.32701 0.0
H1048 H 0.31587 0.33334 0.30429 0.0
H1049 H 0.34037 0.31329 0.32378 0.0
H1050 H 0.3255 0.33225 0.27765 0.0
H1051 H 0.34969 0.31268 0.29681 0.0
H1052 H 0.38609 0.37513 0.33552 0.0
H1053 H 0.36363 0.37801 0.29332 0.0
H1054 H 0.26034 0.31789 0.30011 0.0
H1055 H 0.27527 0.28583 0.29166 0.0
Li1056 Li 0.32173 0.00495 0.66942 0.0
Li1057 Li 0.34488 0.02094 0.68538 0.0
Li1058 Li 0.32252 0.02363 0.68843 0.0
Li1059 Li 0.33805 0.03213 0.66461 0.0
C1060 C 0.31652 0.99161 0.69842 0.0
N1061 N 0.30025 0.96223 0.70891 0.0
C1062 C 0.32404 0.98427 0.7037 0.0
C1063 C 0.30074 0.98406 0.6986 0.0
C1064 C 0.3156 0.9694 0.70894 0.0
C1065 C 0.29271 0.9692 0.7039 0.0
C1066 C 0.3502 0.01926 0.64834 0.0
C1067 C 0.37199 0.03501 0.63253 0.0
N1068 N 0.36417 0.02718 0.61924 0.0
C1069 C 0.3424 0.01132 0.63455 0.0
C1070 C 0.36514 0.03115 0.64736 0.0
C1071 C 0.34966 0.01551 0.61994 0.0
C1072 C 0.30001 0.98379 0.64755 0.0
N1073 N 0.30998 0.98565 0.65929 0.0
C1074 C 0.30557 0.96069 0.65444 0.0
C1075 C 0.31291 0.97448 0.66279 0.0
C1076 C 0.29556 0.95853 0.64186 0.0
C1077 C 0.2927 0.9703 0.63859 0.0
H1078 H 0.29821 0.99303 0.64472 0.0
H1079 H 0.32128 0.97642 0.67177 0.0
C1080 C 0.36095 0.02068 0.71268 0.0
N1081 N 0.36047 0.01994 0.69653 0.0
C1082 C 0.37101 0.01787 0.72108 0.0
C1083 C 0.37996 0.01373 0.69605 0.0
C1084 C 0.36983 0.01674 0.68814 0.0
C1085 C 0.38042 0.01399 0.71273 0.0
H1086 H 0.35307 0.02281 0.71904 0.0
H1087 H 0.36899 0.01592 0.67532 0.0
C1088 C 0.30352 0.02189 0.66485 0.0
N1089 N 0.27887 0.02589 0.66367 0.0
C1090 C 0.30525 0.03562 0.65987 0.0
C1091 C 0.28925 0.01013 0.66905 0.0
C1092 C 0.29265 0.03743 0.6594 0.0
C1093 C 0.27694 0.01239 0.66843 0.0
C1094 C 0.35522 0.04822 0.69744 0.0
C1095 C 0.35167 0.04997 0.71304 0.0
C1096 C 0.37036 0.05465 0.69313 0.0
C1097 C 0.36334 0.05804 0.72413 0.0
C1098 C 0.3817 0.0626 0.70457 0.0
N1099 N 0.37799 0.06411 0.71971 0.0
C1100 C 0.30633 0.0198 0.71664 0.0
C1101 C 0.30965 0.04031 0.70103 0.0
C1102 C 0.29922 0.0236 0.72841 0.0
N1103 N 0.31135 0.02813 0.70329 0.0
C1104 C 0.3024 0.04438 0.71239 0.0
C1105 C 0.29725 0.03607 0.72636 0.0
H1106 H 0.30819 0.01044 0.71836 0.0
H1107 H 0.31428 0.0471 0.69061 0.0
C1108 C 0.33767 0.0424 0.63404 0.0
N1109 N 0.34495 0.04668 0.64835 0.0
C1110 C 0.34206 0.05275 0.62177 0.0
C1111 C 0.36132 0.07174 0.63926 0.0
C1112 C 0.35657 0.061 0.65119 0.0
C1113 C 0.35399 0.06768 0.62433 0.0
H1114 H 0.32839 0.03093 0.63219 0.0
H1115 H 0.36203 0.06413 0.66275 0.0
O1116 O 0.32458 0.00614 0.69318 0.0
O1117 O 0.34317 0.01559 0.6627 0.0
O1118 O 0.31573 0.01991 0.66545 0.0
O1119 O 0.34396 0.04021 0.68645 0.0
H1120 H 0.33624 0.98993 0.70363 0.0
H1121 H 0.29477 0.98964 0.69467 0.0
H1122 H 0.32126 0.96355 0.71299 0.0
H1123 H 0.28049 0.9632 0.70406 0.0
H1124 H 0.38351 0.04426 0.63158 0.0
H1125 H 0.33083 0.00211 0.63508 0.0
H1126 H 0.37132 0.03744 0.65792 0.0
H1127 H 0.34373 0.00951 0.60915 0.0
H1128 H 0.308 0.95193 0.65762 0.0
H1129 H 0.28534 0.96936 0.62884 0.0
H1130 H 0.37089 0.01795 0.73394 0.0
H1131 H 0.38707 0.01079 0.68922 0.0
H1132 H 0.31622 0.04483 0.65656 0.0
H1133 H 0.28771 0.99937 0.67273 0.0
H1134 H 0.29382 0.04803 0.65566 0.0
H1135 H 0.26583 0.00341 0.67171 0.0
H1136 H 0.34003 0.04509 0.71659 0.0
H1137 H 0.3733 0.05336 0.68112 0.0
H1138 H 0.36075 0.05943 0.73626 0.0
H1139 H 0.39345 0.06755 0.70143 0.0
H1140 H 0.29541 0.01696 0.73907 0.0
H1141 H 0.30129 0.05422 0.71054 0.0
H1142 H 0.33621 0.04906 0.61041 0.0
H1143 H 0.37041 0.08318 0.64184 0.0
Li1144 Li 0.99933 0.31577 0.66237 0.0
Li1145 Li 0.98629 0.32535 0.68044 0.0
Li1146 Li 0.98032 0.29944 0.681 0.0
Li1147 Li 0.97128 0.30732 0.65871 0.0
C1148 C 0.00424 0.31328 0.69906 0.0
N1149 N 0.01121 0.30273 0.72591 0.0
C1150 C 0.00241 0.31797 0.71414 0.0
C1151 C 0.00971 0.30328 0.69763 0.0
C1152 C 0.00598 0.3125 0.72757 0.0
C1153 C 0.01314 0.29806 0.71135 0.0
C1154 C 0.99511 0.34193 0.65077 0.0
C1155 C 0.99148 0.3611 0.63875 0.0
N1156 N 0.00672 0.37037 0.63807 0.0
C1157 C 0.01075 0.3516 0.64979 0.0
C1158 C 0.98539 0.34666 0.64505 0.0
C1159 C 0.01639 0.36595 0.6434 0.0
C1160 C 0.01921 0.32276 0.63619 0.0
N1161 N 0.01788 0.32138 0.65223 0.0
C1162 C 0.04412 0.32972 0.65522 0.0
C1163 C 0.02997 0.32478 0.66175 0.0
C1164 C 0.04593 0.33145 0.63874 0.0
C1165 C 0.03327 0.32791 0.62914 0.0
H1166 H 0.00942 0.32015 0.62894 0.0
H1167 H 0.0287 0.32399 0.67448 0.0
C1168 C 0.98093 0.33955 0.70659 0.0
N1169 N 0.98943 0.34222 0.69337 0.0
C1170 C 0.9838 0.3514 0.71714 0.0
C1171 C 0.00398 0.36858 0.70018 0.0
C1172 C 0.0008 0.35639 0.69006 0.0
C1173 C 0.99558 0.36615 0.71408 0.0
H1174 H 0.97224 0.32811 0.70923 0.0
H1175 H 0.00772 0.35822 0.67982 0.0
C1176 C 0.97941 0.28126 0.65528 0.0
N1177 N 0.97476 0.25259 0.64953 0.0
C1178 C 0.96473 0.26879 0.65459 0.0
C1179 C 0.99173 0.2792 0.65291 0.0
C1180 C 0.96262 0.25437 0.65172 0.0
C1181 C 0.98914 0.2646 0.65005 0.0
C1182 C 0.95418 0.3093 0.68305 0.0
C1183 C 0.94106 0.29863 0.69061 0.0
C1184 C 0.95502 0.32232 0.67698 0.0
C1185 C 0.92894 0.30116 0.69195 0.0
C1186 C 0.94268 0.32445 0.67856 0.0
N1187 N 0.93 0.31391 0.68594 0.0
C1188 C 0.96783 0.28506 0.70909 0.0
C1189 C 0.97661 0.27145 0.69399 0.0
C1190 C 0.96313 0.27446 0.72112 0.0
N1191 N 0.97435 0.28337 0.69581 0.0
C1192 C 0.97182 0.2604 0.7056 0.0
C1193 C 0.96491 0.26178 0.71941 0.0
H1194 H 0.96649 0.29483 0.71045 0.0
H1195 H 0.98227 0.27051 0.68367 0.0
C1196 C 0.95707 0.30781 0.62959 0.0
N1197 N 0.95508 0.30109 0.64388 0.0
C1198 C 0.94484 0.30295 0.61901 0.0
C1199 C 0.92888 0.28432 0.63804 0.0
C1200 C 0.94138 0.2895 0.64819 0.0
C1201 C 0.9305 0.29104 0.6232 0.0
H1202 H 0.96815 0.31688 0.62638 0.0
H1203 H 0.94016 0.28427 0.65957 0.0
O1204 O 0.00041 0.31819 0.68578 0.0
O1205 O 0.98938 0.32773 0.65676 0.0
O1206 O 0.98173 0.29548 0.65788 0.0
O1207 O 0.96602 0.30684 0.68145 0.0
H1208 H 0.99818 0.32568 0.71546 0.0
H1209 H 0.01098 0.29936 0.68604 0.0
H1210 H 0.00456 0.31598 0.73932 0.0
H1211 H 0.01725 0.29022 0.71042 0.0
H1212 H 0.98408 0.36492 0.63434 0.0
H1213 H 0.01846 0.34817 0.65416 0.0
H1214 H 0.97326 0.33925 0.64538 0.0
H1215 H 0.02846 0.37358 0.6427 0.0
H1216 H 0.05366 0.33262 0.66304 0.0
H1217 H 0.03425 0.32913 0.61638 0.0
H1218 H 0.97721 0.34894 0.72784 0.0
H1219 H 0.01308 0.37977 0.69728 0.0
H1220 H 0.95509 0.27023 0.65635 0.0
H1221 H 0.00316 0.28877 0.65334 0.0
H1222 H 0.95133 0.24459 0.65123 0.0
H1223 H 0.99855 0.26281 0.64825 0.0
H1224 H 0.94022 0.28846 0.69532 0.0
H1225 H 0.96512 0.33071 0.67122 0.0
H1226 H 0.9187 0.29298 0.69774 0.0
H1227 H 0.94319 0.33449 0.67394 0.0
H1228 H 0.9583 0.27633 0.7317 0.0
H1229 H 0.9734 0.25083 0.70365 0.0
H1230 H 0.94663 0.30832 0.60761 0.0
H1231 H 0.91802 0.27524 0.64185 0.0
Li1232 Li 0.67412 0.67538 0.66447 0.0
Li1233 Li 0.66665 0.65375 0.68133 0.0
Li1234 Li 0.69197 0.67636 0.68388 0.0
Li1235 Li 0.68607 0.6596 0.66113 0.0
C1236 C 0.66747 0.6843 0.69277 0.0
N1237 N 0.65762 0.70392 0.7017 0.0
C1238 C 0.65343 0.67878 0.69997 0.0
C1239 C 0.67648 0.69981 0.69014 0.0
C1240 C 0.64866 0.68887 0.70439 0.0
C1241 C 0.67131 0.70954 0.69473 0.0
C1242 C 0.64976 0.64771 0.65273 0.0
C1243 C 0.62964 0.63329 0.63369 0.0
N1244 N 0.62007 0.63564 0.64279 0.0
C1245 C 0.6397 0.6499 0.66193 0.0
C1246 C 0.64469 0.63929 0.63852 0.0
C1247 C 0.62476 0.64375 0.65669 0.0
C1248 C 0.67378 0.69274 0.63893 0.0
N1249 N 0.66669 0.68625 0.65267 0.0
C1250 C 0.64822 0.69346 0.64789 0.0
C1251 C 0.65415 0.68655 0.65726 0.0
C1252 C 0.65511 0.69999 0.63349 0.0
C1253 C 0.66818 0.69975 0.62913 0.0
H1254 H 0.6836 0.69216 0.63541 0.0
H1255 H 0.64846 0.68115 0.66801 0.0
C1256 C 0.64904 0.64173 0.70823 0.0
N1257 N 0.65033 0.63834 0.69286 0.0
C1258 C 0.63599 0.63234 0.71664 0.0
C1259 C 0.62636 0.6155 0.69366 0.0
C1260 C 0.63962 0.62524 0.68569 0.0
C1261 C 0.62422 0.61928 0.70917 0.0
H1262 H 0.65785 0.65215 0.71368 0.0
H1263 H 0.64098 0.62272 0.6735 0.0
C1264 C 0.70953 0.69475 0.6619 0.0
N1265 N 0.73766 0.72064 0.66435 0.0
C1266 C 0.72254 0.69366 0.66285 0.0
C1267 C 0.71084 0.709 0.66191 0.0
C1268 C 0.73666 0.70688 0.66417 0.0
C1269 C 0.72516 0.72196 0.66322 0.0
C1270 C 0.68389 0.6403 0.68517 0.0
C1271 C 0.69092 0.63697 0.69741 0.0
C1272 C 0.67422 0.62885 0.67444 0.0
C1273 C 0.68814 0.62219 0.69873 0.0
C1274 C 0.67173 0.61422 0.67617 0.0
N1275 N 0.67869 0.61122 0.68818 0.0
C1276 C 0.70978 0.69978 0.7075 0.0
C1277 C 0.71799 0.6827 0.70023 0.0
C1278 C 0.7216 0.70697 0.71865 0.0
N1279 N 0.70819 0.68784 0.69862 0.0
C1280 C 0.7299 0.68949 0.71123 0.0
C1281 C 0.73173 0.70169 0.72075 0.0
H1282 H 0.70177 0.70357 0.70622 0.0
H1283 H 0.71648 0.67319 0.69301 0.0
C1284 C 0.68881 0.64754 0.63162 0.0
N1285 N 0.69467 0.65186 0.64657 0.0
C1286 C 0.69569 0.64269 0.6206 0.0
C1287 C 0.71454 0.64695 0.64058 0.0
C1288 C 0.70716 0.65148 0.65127 0.0
C1289 C 0.70885 0.64258 0.625 0.0
H1290 H 0.679 0.64817 0.62816 0.0
H1291 H 0.71154 0.65496 0.66326 0.0
O1292 O 0.67225 0.67455 0.68816 0.0
O1293 O 0.66439 0.65338 0.65777 0.0
O1294 O 0.69559 0.68191 0.66093 0.0
O1295 O 0.68656 0.65474 0.68376 0.0
H1296 H 0.64618 0.66681 0.70194 0.0
H1297 H 0.68729 0.70426 0.68449 0.0
H1298 H 0.63779 0.68473 0.70991 0.0
H1299 H 0.67817 0.72156 0.69271 0.0
H1300 H 0.62556 0.62673 0.62273 0.0
H1301 H 0.64335 0.65611 0.6731 0.0
H1302 H 0.65224 0.6373 0.63134 0.0
H1303 H 0.61686 0.64536 0.66372 0.0
H1304 H 0.63822 0.69353 0.65182 0.0
H1305 H 0.67376 0.7045 0.61804 0.0
H1306 H 0.63492 0.63552 0.72868 0.0
H1307 H 0.61757 0.60557 0.68743 0.0
H1308 H 0.72175 0.68273 0.66277 0.0
H1309 H 0.70092 0.71007 0.66084 0.0
H1310 H 0.74682 0.7062 0.66507 0.0
H1311 H 0.72633 0.73307 0.66332 0.0
H1312 H 0.69844 0.64571 0.7058 0.0
H1313 H 0.6687 0.63119 0.66487 0.0
H1314 H 0.69351 0.61945 0.70815 0.0
H1315 H 0.66427 0.60525 0.66796 0.0
H1316 H 0.72253 0.71626 0.72588 0.0
H1317 H 0.73757 0.68519 0.7123 0.0
H1318 H 0.69108 0.63954 0.60863 0.0
H1319 H 0.72461 0.64692 0.64441 0.0
Li1320 Li 0.34367 0.32843 0.68265 0.0
Li1321 Li 0.32401 0.30203 0.68677 0.0
Li1322 Li 0.33745 0.30993 0.66061 0.0
Li1323 Li 0.31874 0.31689 0.66855 0.0
C1324 C 0.35969 0.31324 0.68771 0.0
N1325 N 0.38764 0.31937 0.69889 0.0
C1326 C 0.36152 0.31035 0.7035 0.0
C1327 C 0.37205 0.31905 0.67756 0.0
C1328 C 0.37575 0.31357 0.70894 0.0
C1329 C 0.3861 0.32214 0.68345 0.0
C1330 C 0.31747 0.3193 0.70629 0.0
C1331 C 0.29624 0.30863 0.72394 0.0
N1332 N 0.30572 0.31633 0.73636 0.0
C1333 C 0.32699 0.3272 0.71921 0.0
C1334 C 0.30195 0.31003 0.70863 0.0
C1335 C 0.32084 0.32552 0.73433 0.0
C1336 C 0.3539 0.35786 0.69038 0.0
N1337 N 0.35796 0.34725 0.69233 0.0
C1338 C 0.37879 0.36426 0.70907 0.0
C1339 C 0.37025 0.3502 0.70129 0.0
C1340 C 0.37458 0.3753 0.7076 0.0
C1341 C 0.36206 0.372 0.69791 0.0
H1342 H 0.34396 0.3551 0.68332 0.0
H1343 H 0.37327 0.34164 0.70276 0.0
C1344 C 0.30472 0.27212 0.6971 0.0
N1345 N 0.31535 0.28634 0.70195 0.0
C1346 C 0.29779 0.26058 0.70812 0.0
C1347 C 0.31296 0.27853 0.7289 0.0
C1348 C 0.3197 0.28964 0.71746 0.0
C1349 C 0.30178 0.26374 0.72432 0.0
H1350 H 0.30159 0.26974 0.68466 0.0
H1351 H 0.32827 0.30098 0.72103 0.0
C1352 C 0.34973 0.34013 0.65005 0.0
N1353 N 0.37113 0.36069 0.62977 0.0
C1354 C 0.34524 0.34478 0.63661 0.0
C1355 C 0.36511 0.34609 0.65329 0.0
C1356 C 0.35623 0.35513 0.62647 0.0
C1357 C 0.37575 0.35643 0.64287 0.0
C1358 C 0.30204 0.28937 0.65653 0.0
C1359 C 0.30172 0.28695 0.64011 0.0
C1360 C 0.28856 0.28493 0.6645 0.0
C1361 C 0.2879 0.28031 0.63189 0.0
C1362 C 0.27497 0.27834 0.65585 0.0
N1363 N 0.27493 0.2762 0.63986 0.0
C1364 C 0.35095 0.29495 0.64529 0.0
C1365 C 0.34397 0.30868 0.62829 0.0
C1366 C 0.35627 0.29031 0.63239 0.0
N1367 N 0.34505 0.30405 0.64302 0.0
C1368 C 0.34913 0.30432 0.61508 0.0
C1369 C 0.35537 0.29499 0.61702 0.0
H1370 H 0.35143 0.29121 0.65711 0.0
H1371 H 0.3389 0.31561 0.62675 0.0
C1372 C 0.29976 0.32904 0.67124 0.0
N1373 N 0.30472 0.32229 0.66085 0.0
C1374 C 0.29175 0.33579 0.66577 0.0
C1375 C 0.29361 0.328 0.63903 0.0
C1376 C 0.30167 0.32149 0.64502 0.0
C1377 C 0.28891 0.33567 0.64941 0.0
H1378 H 0.30272 0.32993 0.6837 0.0
H1379 H 0.30612 0.31645 0.63695 0.0
O1380 O 0.3458 0.31002 0.68216 0.0
O1381 O 0.32329 0.32076 0.69141 0.0
O1382 O 0.3391 0.33001 0.6601 0.0
O1383 O 0.31547 0.29601 0.66476 0.0
H1384 H 0.35208 0.30573 0.71149 0.0
H1385 H 0.37082 0.3211 0.66524 0.0
H1386 H 0.37733 0.31147 0.72115 0.0
H1387 H 0.39576 0.32669 0.67573 0.0
H1388 H 0.28427 0.30143 0.72593 0.0
H1389 H 0.33903 0.33444 0.71764 0.0
H1390 H 0.29441 0.30396 0.69875 0.0
H1391 H 0.32809 0.3315 0.74445 0.0
H1392 H 0.38845 0.36639 0.71631 0.0
H1393 H 0.35823 0.38002 0.69664 0.0
H1394 H 0.28942 0.24931 0.70398 0.0
H1395 H 0.31627 0.28163 0.74123 0.0
H1396 H 0.33339 0.34037 0.634 0.0
H1397 H 0.36879 0.3429 0.66381 0.0
H1398 H 0.35291 0.35876 0.61597 0.0
H1399 H 0.38769 0.36112 0.64523 0.0
H1400 H 0.31204 0.29023 0.63377 0.0
H1401 H 0.2886 0.28659 0.67722 0.0
H1402 H 0.2875 0.27844 0.61917 0.0
H1403 H 0.26446 0.27492 0.66186 0.0
H1404 H 0.3608 0.28294 0.63441 0.0
H1405 H 0.34832 0.30831 0.60348 0.0
H1406 H 0.28861 0.34178 0.67419 0.0
H1407 H 0.29154 0.32748 0.62635 0.0
Li1408 Li 0.67866 0.0214 0.67143 0.0
Li1409 Li 0.70481 0.02491 0.67551 0.0
Li1410 Li 0.69744 0.03351 0.65024 0.0
Li1411 Li 0.6871 0.00721 0.65568 0.0
C1412 C 0.69959 0.05276 0.6803 0.0
N1413 N 0.70129 0.07751 0.69595 0.0
C1414 C 0.70616 0.05704 0.69549 0.0
C1415 C 0.69404 0.06117 0.67301 0.0
C1416 C 0.70686 0.06956 0.70322 0.0
C1417 C 0.69496 0.07362 0.68113 0.0
C1418 C 0.68021 0.99239 0.68227 0.0
C1419 C 0.68601 0.97274 0.68716 0.0
N1420 N 0.67097 0.96235 0.68714 0.0
C1421 C 0.66482 0.98154 0.68239 0.0
C1422 C 0.69091 0.988 0.68472 0.0
C1423 C 0.66038 0.96639 0.68483 0.0
C1424 C 0.64798 0.0088 0.67795 0.0
N1425 N 0.66196 0.02005 0.6826 0.0
C1426 C 0.65158 0.02681 0.70439 0.0
C1427 C 0.66396 0.02903 0.69551 0.0
C1428 C 0.637 0.01496 0.70019 0.0
C1429 C 0.63529 0.00601 0.68663 0.0
H1430 H 0.64676 0.00167 0.66776 0.0
H1431 H 0.67516 0.03766 0.69925 0.0
C1432 C 0.73451 0.03915 0.68988 0.0
N1433 N 0.71942 0.02974 0.69184 0.0
C1434 C 0.74443 0.04345 0.70296 0.0
C1435 C 0.72307 0.0281 0.7196 0.0
C1436 C 0.71363 0.0241 0.70628 0.0
C1437 C 0.73867 0.03809 0.71812 0.0
H1438 H 0.73877 0.0436 0.67827 0.0
H1439 H 0.70156 0.01678 0.7075 0.0
C1440 C 0.66776 0.02075 0.63867 0.0
N1441 N 0.65119 0.02834 0.61884 0.0
C1442 C 0.66337 0.0141 0.6235 0.0
C1443 C 0.66355 0.0311 0.64383 0.0
C1444 C 0.65506 0.01814 0.61362 0.0
C1445 C 0.65522 0.03483 0.63361 0.0
C1446 C 0.71445 0.01588 0.64315 0.0
C1447 C 0.70969 0.01265 0.62727 0.0
C1448 C 0.72483 0.01209 0.64906 0.0
C1449 C 0.71529 0.00549 0.61755 0.0
C1450 C 0.73019 0.00497 0.63894 0.0
N1451 N 0.72534 0.00183 0.62354 0.0
C1452 C 0.71405 0.06359 0.63928 0.0
C1453 C 0.70011 0.04505 0.6193 0.0
C1454 C 0.71854 0.07516 0.62832 0.0
N1455 N 0.7047 0.04891 0.63469 0.0
C1456 C 0.70431 0.05622 0.60795 0.0
C1457 C 0.71347 0.07156 0.61245 0.0
H1458 H 0.71788 0.06635 0.6515 0.0
H1459 H 0.693 0.03329 0.61584 0.0
C1460 C 0.66417 0.98083 0.64147 0.0
N1461 N 0.67885 0.98727 0.64627 0.0
C1462 C 0.65634 0.96596 0.63559 0.0
C1463 C 0.67888 0.96449 0.63955 0.0
C1464 C 0.68625 0.9794 0.64551 0.0
C1465 C 0.66365 0.95751 0.6346 0.0
H1466 H 0.65835 0.9871 0.6427 0.0
H1467 H 0.69773 0.98448 0.6499 0.0
O1468 O 0.6988 0.04051 0.67259 0.0
O1469 O 0.6848 0.00719 0.67938 0.0
O1470 O 0.67593 0.01691 0.64844 0.0
O1471 O 0.70914 0.0229 0.65285 0.0
H1472 H 0.71058 0.05072 0.70129 0.0
H1473 H 0.68921 0.05824 0.66115 0.0
H1474 H 0.71185 0.07295 0.715 0.0
H1475 H 0.69069 0.08021 0.67563 0.0
H1476 H 0.69416 0.96916 0.68898 0.0
H1477 H 0.6564 0.98476 0.68043 0.0
H1478 H 0.70287 0.99625 0.68451 0.0
H1479 H 0.64851 0.95785 0.68483 0.0
H1480 H 0.65348 0.03416 0.71459 0.0
H1481 H 0.62437 0.99657 0.68305 0.0
H1482 H 0.75638 0.05125 0.70133 0.0
H1483 H 0.71817 0.0235 0.73099 0.0
H1484 H 0.66651 0.00603 0.61933 0.0
H1485 H 0.66658 0.03612 0.65562 0.0
H1486 H 0.65168 0.01317 0.60181 0.0
H1487 H 0.65191 0.04286 0.63745 0.0
H1488 H 0.70162 0.01548 0.62257 0.0
H1489 H 0.72863 0.01456 0.66133 0.0
H1490 H 0.71164 0.00283 0.60525 0.0
H1491 H 0.73819 0.00191 0.64334 0.0
H1492 H 0.72585 0.0868 0.63224 0.0
H1493 H 0.70004 0.05289 0.59589 0.0
H1494 H 0.64452 0.961 0.63238 0.0
H1495 H 0.68503 0.95849 0.63899 0.0
Li1496 Li 0.97112 0.67701 0.6917 0.0
Li1497 Li 0.97404 0.65484 0.68492 0.0
Li1498 Li 0.99129 0.68027 0.67349 0.0
Li1499 Li 0.96483 0.66486 0.66399 0.0
C1500 C 0.99925 0.68231 0.70716 0.0
N1501 N 0.02155 0.69916 0.72956 0.0
C1502 C 0.00316 0.67506 0.71855 0.0
C1503 C 0.00671 0.69811 0.7071 0.0
C1504 C 0.01446 0.68378 0.72979 0.0
C1505 C 0.01794 0.70643 0.71854 0.0
C1506 C 0.94307 0.6436 0.69069 0.0
C1507 C 0.92262 0.61777 0.68776 0.0
N1508 N 0.91851 0.61831 0.70299 0.0
C1509 C 0.93859 0.64394 0.70627 0.0
C1510 C 0.93497 0.63046 0.68131 0.0
C1511 C 0.92616 0.63102 0.71229 0.0
C1512 C 0.95815 0.69341 0.70511 0.0
N1513 N 0.96562 0.68593 0.70832 0.0
C1514 C 0.96496 0.69022 0.73619 0.0
C1515 C 0.96902 0.6842 0.72347 0.0
C1516 C 0.95715 0.69796 0.73333 0.0
C1517 C 0.95379 0.69956 0.71751 0.0
H1518 H 0.95548 0.69448 0.69292 0.0
H1519 H 0.97476 0.67801 0.72571 0.0
C1520 C 0.98614 0.63631 0.68757 0.0
N1521 N 0.97436 0.63769 0.69273 0.0
C1522 C 0.98798 0.62447 0.69273 0.0
C1523 C 0.96554 0.61565 0.70851 0.0
C1524 C 0.96421 0.62776 0.70314 0.0
C1525 C 0.97759 0.61394 0.70332 0.0
H1526 H 0.99417 0.6445 0.67947 0.0
H1527 H 0.9552 0.62929 0.70747 0.0
C1528 C 0.98146 0.70096 0.66484 0.0
N1529 N 0.99221 0.7297 0.6533 0.0
C1530 C 0.98031 0.703 0.64862 0.0
C1531 C 0.9878 0.71351 0.67523 0.0
C1532 C 0.9859 0.71763 0.64301 0.0
C1533 C 0.99325 0.72795 0.66916 0.0
C1534 C 0.97982 0.65059 0.6508 0.0
C1535 C 0.98987 0.65591 0.63816 0.0
C1536 C 0.96831 0.63543 0.65093 0.0
C1537 C 0.98809 0.64594 0.62569 0.0
C1538 C 0.96692 0.62582 0.63825 0.0
N1539 N 0.97675 0.63124 0.62599 0.0
C1540 C 0.022 0.68975 0.67421 0.0
C1541 C 0.01573 0.70237 0.65496 0.0
C1542 C 0.03694 0.69698 0.66913 0.0
N1543 N 0.01175 0.69254 0.66712 0.0
C1544 C 0.03054 0.70983 0.64946 0.0
C1545 C 0.04133 0.70701 0.65644 0.0
H1546 H 0.01845 0.68149 0.68349 0.0
H1547 H 0.00735 0.70409 0.64916 0.0
C1548 C 0.93675 0.65266 0.64737 0.0
N1549 N 0.95196 0.65934 0.64575 0.0
C1550 C 0.92725 0.64772 0.63395 0.0
C1551 C 0.9493 0.65702 0.61747 0.0
C1552 C 0.95834 0.66178 0.63118 0.0
C1553 C 0.9335 0.64975 0.61873 0.0
H1554 H 0.93198 0.65102 0.6591 0.0
H1555 H 0.97048 0.66729 0.63022 0.0
O1556 O 0.98832 0.67391 0.696 0.0
O1557 O 0.95516 0.65617 0.68459 0.0
O1558 O 0.97591 0.6867 0.67055 0.0
O1559 O 0.98138 0.66021 0.66305 0.0
H1560 H 0.99753 0.66282 0.71867 0.0
H1561 H 0.00397 0.70386 0.69821 0.0
H1562 H 0.0176 0.67833 0.73869 0.0
H1563 H 0.02382 0.71868 0.71862 0.0
H1564 H 0.91627 0.60751 0.68066 0.0
H1565 H 0.94467 0.65404 0.71366 0.0
H1566 H 0.93814 0.63007 0.66915 0.0
H1567 H 0.9226 0.63109 0.72435 0.0
H1568 H 0.96801 0.68889 0.74813 0.0
H1569 H 0.94764 0.70528 0.71474 0.0
H1570 H 0.99737 0.62349 0.68836 0.0
H1571 H 0.95742 0.60789 0.71686 0.0
H1572 H 0.97528 0.69341 0.64043 0.0
H1573 H 0.98838 0.71211 0.68787 0.0
H1574 H 0.9852 0.71939 0.63046 0.0
H1575 H 0.99823 0.73777 0.67706 0.0
H1576 H 0.99888 0.66762 0.63795 0.0
H1577 H 0.9606 0.63111 0.66075 0.0
H1578 H 0.99574 0.6499 0.61579 0.0
H1579 H 0.95804 0.61405 0.63817 0.0
H1580 H 0.0448 0.69425 0.67465 0.0
H1581 H 0.03346 0.71752 0.63967 0.0
H1582 H 0.91515 0.64236 0.63548 0.0
H1583 H 0.95463 0.65869 0.60602 0.0
C1584 C 0.19362 0.27784 0.05002 0.0
C1585 C 0.20312 0.28944 0.06304 0.0
C1586 C 0.19133 0.2832 0.08891 0.0
C1587 C 0.19362 0.29723 0.0943 0.0
C1588 C 0.18403 0.29802 0.10562 0.0
C1589 C 0.17185 0.28446 0.11151 0.0
C1590 C 0.16984 0.2703 0.10642 0.0
C1591 C 0.17982 0.26989 0.09537 0.0
C1592 C 0.18673 0.31331 0.11105 0.0
C1593 C 0.15686 0.2556 0.11224 0.0
C1594 C 0.06968 0.27567 0.0904 0.0
C1595 C 0.08325 0.28571 0.07997 0.0
C1596 C 0.10541 0.29337 0.09744 0.0
C1597 C 0.10401 0.279 0.09821 0.0
C1598 C 0.11446 0.27689 0.10694 0.0
C1599 C 0.1267 0.28942 0.11484 0.0
C1600 C 0.12826 0.30392 0.11395 0.0
C1601 C 0.11749 0.30565 0.10538 0.0
C1602 C 0.11246 0.26125 0.10767 0.0
C1603 C 0.14136 0.31759 0.12196 0.0
C1604 C 0.10173 0.27988 0.21774 0.0
C1605 C 0.09892 0.26638 0.21008 0.0
C1606 C 0.11028 0.26583 0.20137 0.0
C1607 C 0.12465 0.27906 0.20015 0.0
C1608 C 0.1276 0.29255 0.20814 0.0
C1609 C 0.11611 0.29273 0.21693 0.0
C1610 C 0.10687 0.25117 0.19325 0.0
C1611 C 0.14279 0.30686 0.20714 0.0
C1612 C 0.22503 0.26649 0.2043 0.0
C1613 C 0.21923 0.27608 0.21226 0.0
C1614 C 0.19294 0.26974 0.20984 0.0
C1615 C 0.17881 0.25738 0.20568 0.0
C1616 C 0.16743 0.2595 0.19909 0.0
C1617 C 0.17025 0.27437 0.19692 0.0
C1618 C 0.18422 0.28693 0.20203 0.0
C1619 C 0.19543 0.28448 0.20846 0.0
C1620 C 0.15258 0.24586 0.194 0.0
C1621 C 0.1874 0.30292 0.20033 0.0
C1622 C 0.16055 0.28506 0.12196 0.0
C1623 C 0.14952 0.2872 0.11471 0.0
C1624 C 0.13815 0.28741 0.12355 0.0
C1625 C 0.13767 0.2854 0.14016 0.0
C1626 C 0.12628 0.28538 0.1494 0.0
C1627 C 0.12591 0.28339 0.16574 0.0
C1628 C 0.13681 0.28118 0.17346 0.0
C1629 C 0.13643 0.27897 0.19005 0.0
C1630 C 0.14744 0.2768 0.19734 0.0
C1631 C 0.15894 0.27681 0.18849 0.0
C1632 C 0.15953 0.27901 0.17189 0.0
C1633 C 0.17096 0.27911 0.16264 0.0
C1634 C 0.17142 0.28124 0.14632 0.0
C1635 C 0.16038 0.2832 0.13859 0.0
C1636 C 0.14884 0.28329 0.1477 0.0
C1637 C 0.1484 0.28117 0.16437 0.0
C1638 C 0.06849 0.2714 0.20984 0.0
C1639 C 0.07552 0.27114 0.22587 0.0
O1640 O 0.20007 0.28221 0.0775 0.0
O1641 O 0.20389 0.26704 0.215 0.0
O1642 O 0.09101 0.28114 0.22591 0.0
O1643 O 0.09546 0.29594 0.08931 0.0
H1644 H 0.19991 0.29832 0.06319 0.0
H1645 H 0.18142 0.27273 0.0527 0.0
H1646 H 0.19636 0.26865 0.04929 0.0
H1647 H 0.19572 0.28339 0.03832 0.0
H1648 H 0.20289 0.30755 0.08964 0.0
H1649 H 0.17833 0.25914 0.09123 0.0
H1650 H 0.17764 0.31501 0.10617 0.0
H1651 H 0.19779 0.3227 0.10706 0.0
H1652 H 0.18631 0.31385 0.12421 0.0
H1653 H 0.15626 0.24556 0.10625 0.0
H1654 H 0.146 0.25527 0.11018 0.0
H1655 H 0.15814 0.25479 0.12522 0.0
H1656 H 0.08637 0.27842 0.07295 0.0
H1657 H 0.05983 0.26768 0.08285 0.0
H1658 H 0.07237 0.26891 0.09852 0.0
H1659 H 0.06647 0.28268 0.09775 0.0
H1660 H 0.09481 0.26933 0.09212 0.0
H1661 H 0.11852 0.3167 0.1047 0.0
H1662 H 0.12189 0.26114 0.10141 0.0
H1663 H 0.10162 0.25245 0.10212 0.0
H1664 H 0.11284 0.25826 0.12022 0.0
H1665 H 0.14143 0.32822 0.11937 0.0
H1666 H 0.15219 0.31874 0.118 0.0
H1667 H 0.14076 0.31607 0.13502 0.0
H1668 H 0.07322 0.25949 0.22812 0.0
H1669 H 0.08793 0.25626 0.21076 0.0
H1670 H 0.1182 0.30305 0.22297 0.0
H1671 H 0.10705 0.25247 0.18017 0.0
H1672 H 0.09566 0.24156 0.19652 0.0
H1673 H 0.1157 0.2484 0.19638 0.0
H1674 H 0.14313 0.31655 0.21364 0.0
H1675 H 0.14558 0.30992 0.19451 0.0
H1676 H 0.15167 0.30492 0.21219 0.0
H1677 H 0.22138 0.28507 0.20363 0.0
H1678 H 0.2374 0.27344 0.2024 0.0
H1679 H 0.21933 0.2622 0.19255 0.0
H1680 H 0.22263 0.2566 0.21161 0.0
H1681 H 0.1769 0.24605 0.20708 0.0
H1682 H 0.20613 0.29409 0.21233 0.0
H1683 H 0.15082 0.24621 0.18102 0.0
H1684 H 0.14315 0.24613 0.20011 0.0
H1685 H 0.15208 0.23503 0.19669 0.0
H1686 H 0.19833 0.31139 0.20597 0.0
H1687 H 0.17819 0.30408 0.20577 0.0
H1688 H 0.18769 0.3055 0.18753 0.0
H1689 H 0.14969 0.28857 0.10194 0.0
H1690 H 0.11753 0.28691 0.1441 0.0
H1691 H 0.11691 0.28355 0.17223 0.0
H1692 H 0.14707 0.27512 0.21006 0.0
H1693 H 0.1797 0.27754 0.1679 0.0
H1694 H 0.1805 0.28126 0.1398 0.0
H1695 H 0.05606 0.26358 0.20989 0.0
H1696 H 0.07317 0.26769 0.20007 0.0
H1697 H 0.07087 0.28303 0.20735 0.0
C1698 C 0.73633 0.94123 0.0924 0.0
C1699 C 0.72283 0.92737 0.08447 0.0
C1700 C 0.71402 0.90715 0.10424 0.0
C1701 C 0.702 0.89803 0.11409 0.0
C1702 C 0.70201 0.88659 0.123 0.0
C1703 C 0.71457 0.88444 0.12227 0.0
C1704 C 0.72689 0.89372 0.11244 0.0
C1705 C 0.72646 0.90494 0.10343 0.0
C1706 C 0.68854 0.87671 0.1331 0.0
C1707 C 0.74048 0.89177 0.11146 0.0
C1708 C 0.69414 0.77175 0.08376 0.0
C1709 C 0.70236 0.78737 0.09067 0.0
C1710 C 0.69727 0.8057 0.1039 0.0
C1711 C 0.71247 0.81606 0.10791 0.0
C1712 C 0.71646 0.82932 0.11674 0.0
C1713 C 0.70502 0.83216 0.12194 0.0
C1714 C 0.68972 0.82174 0.11798 0.0
C1715 C 0.68607 0.80868 0.10892 0.0
C1716 C 0.73292 0.84032 0.1205 0.0
C1717 C 0.67724 0.82439 0.12339 0.0
C1718 C 0.71794 0.81315 0.22252 0.0
C1719 C 0.73094 0.82227 0.21366 0.0
C1720 C 0.73266 0.83506 0.20586 0.0
C1721 C 0.72102 0.83861 0.20665 0.0
C1722 C 0.70808 0.82963 0.21583 0.0
C1723 C 0.70681 0.81711 0.22379 0.0
C1724 C 0.74683 0.84465 0.19656 0.0
C1725 C 0.69544 0.83307 0.21695 0.0
C1726 C 0.75456 0.95864 0.22334 0.0
C1727 C 0.74183 0.9428 0.22755 0.0
C1728 C 0.74271 0.91972 0.22265 0.0
C1729 C 0.7532 0.91548 0.21838 0.0
C1730 C 0.74864 0.90176 0.2102 0.0
C1731 C 0.73312 0.89189 0.20661 0.0
C1732 C 0.72236 0.89577 0.21167 0.0
C1733 C 0.72728 0.90972 0.21955 0.0
C1734 C 0.76042 0.89795 0.20511 0.0
C1735 C 0.70567 0.88526 0.20861 0.0
C1736 C 0.71455 0.87215 0.1314 0.0
C1737 C 0.71022 0.85847 0.12339 0.0
C1738 C 0.70911 0.84611 0.13137 0.0
C1739 C 0.71213 0.84725 0.1479 0.0
C1740 C 0.71049 0.83482 0.15643 0.0
C1741 C 0.71363 0.8361 0.17266 0.0
C1742 C 0.71865 0.84989 0.18098 0.0
C1743 C 0.72213 0.85137 0.19743 0.0
C1744 C 0.72677 0.86514 0.2054 0.0
C1745 C 0.7282 0.87763 0.19736 0.0
C1746 C 0.72503 0.87645 0.18084 0.0
C1747 C 0.72663 0.88887 0.17229 0.0
C1748 C 0.72324 0.88751 0.1561 0.0
C1749 C 0.71823 0.87372 0.14781 0.0
C1750 C 0.71686 0.86116 0.15611 0.0
C1751 C 0.72018 0.8625 0.17266 0.0
C1752 C 0.71796 0.78418 0.21088 0.0
C1753 C 0.72274 0.79224 0.22719 0.0
O1754 O 0.71308 0.91791 0.0959 0.0
O1755 O 0.74786 0.93352 0.22971 0.0
O1756 O 0.71558 0.80045 0.22995 0.0
O1757 O 0.69297 0.79277 0.09529 0.0
H1758 H 0.72695 0.92113 0.07708 0.0
H1759 H 0.74408 0.94886 0.08323 0.0
H1760 H 0.74279 0.93772 0.10008 0.0
H1761 H 0.73245 0.9476 0.0999 0.0
H1762 H 0.69247 0.89982 0.11463 0.0
H1763 H 0.7359 0.9119 0.09591 0.0
H1764 H 0.68426 0.86458 0.13021 0.0
H1765 H 0.67919 0.87907 0.13139 0.0
H1766 H 0.69199 0.87865 0.14583 0.0
H1767 H 0.74972 0.90075 0.10444 0.0
H1768 H 0.7371 0.8806 0.10583 0.0
H1769 H 0.74486 0.89189 0.12359 0.0
H1770 H 0.71227 0.79567 0.08372 0.0
H1771 H 0.69795 0.77299 0.07107 0.0
H1772 H 0.68241 0.76927 0.08056 0.0
H1773 H 0.69827 0.75893 0.10035 0.0
H1774 H 0.7213 0.81393 0.10412 0.0
H1775 H 0.67439 0.80064 0.10579 0.0
H1776 H 0.73596 0.8519 0.1169 0.0
H1777 H 0.74053 0.83714 0.11443 0.0
H1778 H 0.73493 0.84072 0.13351 0.0
H1779 H 0.66584 0.81466 0.12036 0.0
H1780 H 0.67849 0.83465 0.11767 0.0
H1781 H 0.67808 0.82646 0.13644 0.0
H1782 H 0.7352 0.79996 0.22763 0.0
H1783 H 0.73978 0.81952 0.21274 0.0
H1784 H 0.69689 0.81009 0.23075 0.0
H1785 H 0.74404 0.84308 0.18367 0.0
H1786 H 0.75564 0.84164 0.19886 0.0
H1787 H 0.75154 0.85683 0.19961 0.0
H1788 H 0.68574 0.82447 0.22381 0.0
H1789 H 0.69139 0.83359 0.20485 0.0
H1790 H 0.69973 0.84433 0.22281 0.0
H1791 H 0.7338 0.93867 0.21722 0.0
H1792 H 0.75 0.9663 0.22148 0.0
H1793 H 0.75998 0.95803 0.21218 0.0
H1794 H 0.76331 0.96348 0.23294 0.0
H1795 H 0.76506 0.9232 0.22104 0.0
H1796 H 0.71907 0.91275 0.22336 0.0
H1797 H 0.75937 0.89543 0.19213 0.0
H1798 H 0.75854 0.88763 0.21125 0.0
H1799 H 0.7721 0.90728 0.20787 0.0
H1800 H 0.69867 0.8891 0.2149 0.0
H1801 H 0.70225 0.87364 0.21244 0.0
H1802 H 0.70323 0.88465 0.19567 0.0
H1803 H 0.70762 0.85742 0.11076 0.0
H1804 H 0.70672 0.82394 0.15065 0.0
H1805 H 0.71211 0.82612 0.17858 0.0
H1806 H 0.72933 0.86615 0.21804 0.0
H1807 H 0.73049 0.89978 0.17802 0.0
H1808 H 0.72464 0.89743 0.15015 0.0
H1809 H 0.7055 0.77648 0.21025 0.0
H1810 H 0.72356 0.77747 0.20868 0.0
H1811 H 0.72129 0.79255 0.20129 0.0
C1812 C 0.18971 0.90433 0.06616 0.0
C1813 C 0.20184 0.91296 0.07909 0.0
C1814 C 0.18928 0.89633 0.10162 0.0
C1815 C 0.17851 0.90074 0.10427 0.0
C1816 C 0.16626 0.89245 0.11432 0.0
C1817 C 0.16472 0.87951 0.12186 0.0
C1818 C 0.17591 0.87547 0.11981 0.0
C1819 C 0.18812 0.88404 0.10981 0.0
C1820 C 0.15466 0.89722 0.11648 0.0
C1821 C 0.17462 0.86173 0.12767 0.0
C1822 C 0.07937 0.81814 0.05284 0.0
C1823 C 0.08405 0.81132 0.06617 0.0
C1824 C 0.09046 0.82218 0.09301 0.0
C1825 C 0.10124 0.81818 0.09703 0.0
C1826 C 0.11194 0.82605 0.1092 0.0
C1827 C 0.11193 0.83826 0.11732 0.0
C1828 C 0.10064 0.84187 0.11368 0.0
C1829 C 0.08984 0.83353 0.10176 0.0
C1830 C 0.12353 0.8216 0.11304 0.0
C1831 C 0.10038 0.85497 0.12183 0.0
C1832 C 0.07847 0.81543 0.21692 0.0
C1833 C 0.09001 0.8122 0.21389 0.0
C1834 C 0.10368 0.8231 0.20721 0.0
C1835 C 0.10583 0.83748 0.20348 0.0
C1836 C 0.09447 0.84096 0.20716 0.0
C1837 C 0.08099 0.8299 0.21401 0.0
C1838 C 0.11575 0.81918 0.20388 0.0
C1839 C 0.09645 0.85623 0.20352 0.0
C1840 C 0.19914 0.94247 0.22761 0.0
C1841 C 0.19397 0.93063 0.24068 0.0
C1842 C 0.1805 0.90611 0.22612 0.0
C1843 C 0.18097 0.89309 0.22198 0.0
C1844 C 0.16934 0.88132 0.21288 0.0
C1845 C 0.15704 0.88275 0.20755 0.0
C1846 C 0.1564 0.89582 0.21179 0.0
C1847 C 0.16805 0.90731 0.22115 0.0
C1848 C 0.17028 0.86743 0.20878 0.0
C1849 C 0.14345 0.89773 0.20628 0.0
C1850 C 0.15063 0.86928 0.13039 0.0
C1851 C 0.13828 0.85873 0.12121 0.0
C1852 C 0.12468 0.84833 0.12819 0.0
C1853 C 0.1234 0.84814 0.14491 0.0
C1854 C 0.11014 0.83739 0.1524 0.0
C1855 C 0.10891 0.83751 0.16886 0.0
C1856 C 0.1209 0.84838 0.17846 0.0
C1857 C 0.1197 0.84867 0.19519 0.0
C1858 C 0.13172 0.85984 0.20433 0.0
C1859 C 0.14502 0.87078 0.19722 0.0
C1860 C 0.14655 0.87048 0.18053 0.0
C1861 C 0.15986 0.88118 0.173 0.0
C1862 C 0.16128 0.88075 0.15659 0.0
C1863 C 0.14936 0.86977 0.14707 0.0
C1864 C 0.13573 0.85904 0.15437 0.0
C1865 C 0.13441 0.85927 0.17114 0.0
C1866 C 0.04159 0.78461 0.21238 0.0
C1867 C 0.05735 0.78951 0.21902 0.0
O1868 O 0.2007 0.9033 0.09106 0.0
O1869 O 0.19235 0.91718 0.2347 0.0
O1870 O 0.06483 0.8049 0.22261 0.0
O1871 O 0.08064 0.81546 0.08064 0.0
H1872 H 0.2004 0.92223 0.0842 0.0
H1873 H 0.17822 0.89977 0.07104 0.0
H1874 H 0.19065 0.89472 0.06123 0.0
H1875 H 0.19098 0.91203 0.05636 0.0
H1876 H 0.17939 0.91043 0.09833 0.0
H1877 H 0.19656 0.88082 0.10785 0.0
H1878 H 0.14392 0.88879 0.11048 0.0
H1879 H 0.15839 0.90853 0.11146 0.0
H1880 H 0.15228 0.89751 0.1293 0.0
H1881 H 0.1844 0.86024 0.12508 0.0
H1882 H 0.1641 0.85142 0.12349 0.0
H1883 H 0.17383 0.86273 0.14073 0.0
H1884 H 0.09648 0.81612 0.06517 0.0
H1885 H 0.08219 0.81523 0.04107 0.0
H1886 H 0.08552 0.83067 0.05425 0.0
H1887 H 0.06703 0.81387 0.05316 0.0
H1888 H 0.10137 0.80902 0.09059 0.0
H1889 H 0.08131 0.83635 0.09866 0.0
H1890 H 0.12496 0.82142 0.1261 0.0
H1891 H 0.1346 0.83012 0.10815 0.0
H1892 H 0.12037 0.81032 0.10786 0.0
H1893 H 0.09164 0.85707 0.11665 0.0
H1894 H 0.11158 0.86545 0.12093 0.0
H1895 H 0.09801 0.85259 0.13463 0.0
H1896 H 0.06319 0.78698 0.20937 0.0
H1897 H 0.08836 0.8012 0.21675 0.0
H1898 H 0.07211 0.83236 0.21665 0.0
H1899 H 0.11729 0.81897 0.19085 0.0
H1900 H 0.11286 0.80798 0.20863 0.0
H1901 H 0.1267 0.82799 0.2092 0.0
H1902 H 0.0863 0.85695 0.20654 0.0
H1903 H 0.09883 0.8586 0.1907 0.0
H1904 H 0.10629 0.86517 0.21036 0.0
H1905 H 0.18298 0.92858 0.24535 0.0
H1906 H 0.20095 0.95338 0.23261 0.0
H1907 H 0.19048 0.93869 0.218 0.0
H1908 H 0.20983 0.9444 0.22225 0.0
H1909 H 0.19056 0.8922 0.22591 0.0
H1910 H 0.16736 0.9172 0.22431 0.0
H1911 H 0.17155 0.86677 0.19576 0.0
H1912 H 0.15966 0.85707 0.21214 0.0
H1913 H 0.17996 0.86751 0.21486 0.0
H1914 H 0.14502 0.90894 0.20982 0.0
H1915 H 0.13277 0.88875 0.21143 0.0
H1916 H 0.14223 0.89644 0.19315 0.0
H1917 H 0.13924 0.8587 0.10837 0.0
H1918 H 0.10056 0.82878 0.1456 0.0
H1919 H 0.09839 0.82899 0.17395 0.0
H1920 H 0.13065 0.86011 0.21713 0.0
H1921 H 0.16937 0.88998 0.17971 0.0
H1922 H 0.1718 0.8892 0.15143 0.0
H1923 H 0.03529 0.77224 0.20967 0.0
H1924 H 0.04261 0.79067 0.2012 0.0
H1925 H 0.03505 0.78731 0.22094 0.0
C1926 C 0.27764 0.09018 0.95145 0.0
C1927 C 0.28253 0.08348 0.93788 0.0
C1928 C 0.29021 0.1032 0.91778 0.0
C1929 C 0.27556 0.10001 0.91364 0.0
C1930 C 0.27341 0.10951 0.90349 0.0
C1931 C 0.28611 0.1224 0.89729 0.0
C1932 C 0.30082 0.12532 0.90093 0.0
C1933 C 0.30266 0.11563 0.9111 0.0
C1934 C 0.25755 0.10602 0.8997 0.0
C1935 C 0.31461 0.13893 0.89444 0.0
C1936 C 0.27501 0.19405 0.96027 0.0
C1937 C 0.28602 0.20128 0.94661 0.0
C1938 C 0.27918 0.18754 0.92123 0.0
C1939 C 0.29325 0.18977 0.91659 0.0
C1940 C 0.29418 0.17984 0.90559 0.0
C1941 C 0.28073 0.16741 0.89922 0.0
C1942 C 0.26654 0.16547 0.9035 0.0
C1943 C 0.26598 0.17576 0.91427 0.0
C1944 C 0.3095 0.18245 0.90102 0.0
C1945 C 0.25196 0.15226 0.8971 0.0
C1946 C 0.26664 0.18602 0.80104 0.0
C1947 C 0.28164 0.18959 0.80355 0.0
C1948 C 0.28483 0.1788 0.80959 0.0
C1949 C 0.27277 0.16422 0.81327 0.0
C1950 C 0.2577 0.16037 0.80988 0.0
C1951 C 0.25485 0.17131 0.8036 0.0
C1952 C 0.30105 0.18313 0.8126 0.0
C1953 C 0.24457 0.14488 0.81347 0.0
C1954 C 0.29203 0.06949 0.78021 0.0
C1955 C 0.28748 0.07695 0.79246 0.0
C1956 C 0.28062 0.09628 0.79413 0.0
C1957 C 0.29395 0.10882 0.80003 0.0
C1958 C 0.29357 0.12061 0.80831 0.0
C1959 C 0.27948 0.11961 0.81106 0.0
C1960 C 0.26605 0.10711 0.80471 0.0
C1961 C 0.26685 0.09572 0.79606 0.0
C1962 C 0.3082 0.13406 0.81425 0.0
C1963 C 0.25083 0.10566 0.80723 0.0
C1964 C 0.28404 0.13348 0.88812 0.0
C1965 C 0.28343 0.14492 0.89671 0.0
C1966 C 0.28148 0.15583 0.88908 0.0
C1967 C 0.28016 0.15541 0.87233 0.0
C1968 C 0.27826 0.16624 0.86425 0.0
C1969 C 0.27672 0.16558 0.84778 0.0
C1970 C 0.2773 0.15422 0.83872 0.0
C1971 C 0.27577 0.15349 0.82196 0.0
C1972 C 0.27666 0.14222 0.8133 0.0
C1973 C 0.27874 0.13136 0.82095 0.0
C1974 C 0.27992 0.1317 0.83775 0.0
C1975 C 0.28155 0.1207 0.8459 0.0
C1976 C 0.28294 0.12126 0.86239 0.0
C1977 C 0.28261 0.13277 0.87138 0.0
C1978 C 0.28073 0.14383 0.86345 0.0
C1979 C 0.27936 0.14327 0.84662 0.0
C1980 C 0.25977 0.21605 0.80765 0.0
C1981 C 0.27094 0.21171 0.80098 0.0
O1982 O 0.29291 0.09486 0.92831 0.0
O1983 O 0.2808 0.0847 0.78636 0.0
O1984 O 0.26314 0.19654 0.79642 0.0
O1985 O 0.27798 0.19657 0.93235 0.0
H1986 H 0.27242 0.07545 0.93064 0.0
H1987 H 0.27178 0.09592 0.9467 0.0
H1988 H 0.2876 0.0986 0.95858 0.0
H1989 H 0.26969 0.08105 0.95936 0.0
H1990 H 0.26574 0.09032 0.91845 0.0
H1991 H 0.3139 0.11794 0.91422 0.0
H1992 H 0.25589 0.11515 0.9047 0.0
H1993 H 0.24883 0.09504 0.9046 0.0
H1994 H 0.25586 0.10569 0.88662 0.0
H1995 H 0.32524 0.13925 0.8978 0.0
H1996 H 0.31518 0.14944 0.89899 0.0
H1997 H 0.31374 0.13885 0.88128 0.0
H1998 H 0.29435 0.19738 0.9474 0.0
H1999 H 0.28117 0.19744 0.97187 0.0
H2000 H 0.26917 0.18151 0.95903 0.0
H2001 H 0.26636 0.19753 0.96018 0.0
H2002 H 0.3035 0.19925 0.92157 0.0
H2003 H 0.25519 0.17431 0.91779 0.0
H2004 H 0.31018 0.18169 0.8879 0.0
H2005 H 0.31117 0.1735 0.90621 0.0
H2006 H 0.31882 0.19365 0.90531 0.0
H2007 H 0.24186 0.1519 0.9023 0.0
H2008 H 0.25156 0.14146 0.89965 0.0
H2009 H 0.25139 0.15302 0.884 0.0
H2010 H 0.27901 0.21374 0.81092 0.0
H2011 H 0.29084 0.20082 0.80096 0.0
H2012 H 0.24334 0.16861 0.80134 0.0
H2013 H 0.30325 0.18385 0.8256 0.0
H2014 H 0.30914 0.1942 0.80738 0.0
H2015 H 0.30316 0.17429 0.80756 0.0
H2016 H 0.23352 0.1437 0.81021 0.0
H2017 H 0.2446 0.14266 0.82634 0.0
H2018 H 0.24579 0.13612 0.80685 0.0
H2019 H 0.29591 0.08312 0.80222 0.0
H2020 H 0.27746 0.04613 0.78404 0.0
H2021 H 0.30468 0.07517 0.78153 0.0
H2022 H 0.2924 0.075 0.76859 0.0
H2023 H 0.30466 0.10942 0.79803 0.0
H2024 H 0.25666 0.08607 0.79119 0.0
H2025 H 0.30909 0.13348 0.82733 0.0
H2026 H 0.30847 0.14478 0.81161 0.0
H2027 H 0.31821 0.13437 0.80884 0.0
H2028 H 0.24136 0.09438 0.80333 0.0
H2029 H 0.25015 0.11445 0.80034 0.0
H2030 H 0.24937 0.10755 0.81997 0.0
H2031 H 0.28444 0.14531 0.90958 0.0
H2032 H 0.27785 0.17531 0.87058 0.0
H2033 H 0.27514 0.17416 0.84226 0.0
H2034 H 0.2756 0.14182 0.80044 0.0
H2035 H 0.28178 0.11151 0.83964 0.0
H2036 H 0.28424 0.11255 0.86803 0.0
H2037 H 0.26576 0.22827 0.81108 0.0
H2038 H 0.25437 0.20937 0.8184 0.0
H2039 H 0.25073 0.2137 0.79881 0.0
C2040 C 0.80925 0.07367 0.96035 0.0
C2041 C 0.80217 0.0794 0.94835 0.0
C2042 C 0.81312 0.08584 0.9222 0.0
C2043 C 0.81076 0.09767 0.91808 0.0
C2044 C 0.82033 0.10869 0.90737 0.0
C2045 C 0.83268 0.10797 0.90093 0.0
C2046 C 0.83485 0.09579 0.90483 0.0
C2047 C 0.82479 0.08466 0.91518 0.0
C2048 C 0.81747 0.12132 0.90328 0.0
C2049 C 0.8481 0.09481 0.89859 0.0
C2050 C 0.93358 0.20477 0.92326 0.0
C2051 C 0.92095 0.20125 0.93514 0.0
C2052 C 0.89778 0.1855 0.91915 0.0
C2053 C 0.89951 0.17276 0.91762 0.0
C2054 C 0.88915 0.15998 0.90862 0.0
C2055 C 0.87663 0.15978 0.90127 0.0
C2056 C 0.87459 0.17237 0.90317 0.0
C2057 C 0.88529 0.18512 0.91198 0.0
C2058 C 0.89164 0.14671 0.90688 0.0
C2059 C 0.86114 0.17238 0.89585 0.0
C2060 C 0.90072 0.18256 0.79878 0.0
C2061 C 0.90499 0.17249 0.80472 0.0
C2062 C 0.8946 0.15952 0.81289 0.0
C2063 C 0.87976 0.15668 0.81528 0.0
C2064 C 0.87541 0.1667 0.80915 0.0
C2065 C 0.88595 0.17946 0.8009 0.0
C2066 C 0.89952 0.14893 0.81915 0.0
C2067 C 0.85968 0.16402 0.81151 0.0
C2068 C 0.79231 0.0379 0.7956 0.0
C2069 C 0.79579 0.05364 0.79067 0.0
C2070 C 0.81993 0.07628 0.79746 0.0
C2071 C 0.83447 0.08006 0.80231 0.0
C2072 C 0.84371 0.09339 0.81116 0.0
C2073 C 0.83833 0.10334 0.8149 0.0
C2074 C 0.82384 0.09989 0.80944 0.0
C2075 C 0.81476 0.08635 0.80079 0.0
C2076 C 0.85916 0.09678 0.81663 0.0
C2077 C 0.81799 0.11051 0.81275 0.0
C2078 C 0.84406 0.12067 0.89136 0.0
C2079 C 0.8545 0.13389 0.89959 0.0
C2080 C 0.86568 0.14635 0.89161 0.0
C2081 C 0.86653 0.14575 0.87488 0.0
C2082 C 0.8776 0.15813 0.86647 0.0
C2083 C 0.87829 0.15747 0.85 0.0
C2084 C 0.86814 0.14429 0.84133 0.0
C2085 C 0.86886 0.14348 0.8246 0.0
C2086 C 0.85889 0.13008 0.81637 0.0
C2087 C 0.84799 0.11741 0.82438 0.0
C2088 C 0.84677 0.11814 0.84108 0.0
C2089 C 0.83566 0.10578 0.8495 0.0
C2090 C 0.83456 0.10665 0.86593 0.0
C2091 C 0.84479 0.11978 0.87462 0.0
C2092 C 0.85608 0.13238 0.86637 0.0
C2093 C 0.85698 0.13161 0.84958 0.0
C2094 C 0.93422 0.20954 0.80465 0.0
C2095 C 0.9258 0.20184 0.78909 0.0
O2096 O 0.80444 0.07559 0.93314 0.0
O2097 O 0.81131 0.06295 0.78947 0.0
O2098 O 0.91035 0.19541 0.79104 0.0
O2099 O 0.90784 0.19837 0.92723 0.0
H2100 H 0.80796 0.09195 0.94998 0.0
H2101 H 0.82153 0.07888 0.95809 0.0
H2102 H 0.80392 0.06115 0.95932 0.0
H2103 H 0.80784 0.07681 0.97266 0.0
H2104 H 0.80147 0.0983 0.92335 0.0
H2105 H 0.82639 0.07536 0.91841 0.0
H2106 H 0.82614 0.13198 0.90927 0.0
H2107 H 0.80613 0.11892 0.90711 0.0
H2108 H 0.81842 0.1232 0.89027 0.0
H2109 H 0.84904 0.08551 0.90407 0.0
H2110 H 0.85879 0.10566 0.90091 0.0
H2111 H 0.84685 0.09279 0.88554 0.0
H2112 H 0.9187 0.19119 0.94211 0.0
H2113 H 0.93046 0.19492 0.91521 0.0
H2114 H 0.94416 0.20747 0.9297 0.0
H2115 H 0.93579 0.21455 0.91584 0.0
H2116 H 0.90895 0.17268 0.92327 0.0
H2117 H 0.88396 0.19492 0.9133 0.0
H2118 H 0.88228 0.13668 0.91263 0.0
H2119 H 0.90251 0.14905 0.91235 0.0
H2120 H 0.89152 0.14377 0.89411 0.0
H2121 H 0.86048 0.18246 0.89961 0.0
H2122 H 0.85053 0.16201 0.8992 0.0
H2123 H 0.86189 0.17225 0.88271 0.0
H2124 H 0.92842 0.19294 0.78543 0.0
H2125 H 0.91635 0.17464 0.80312 0.0
H2126 H 0.88275 0.18727 0.79623 0.0
H2127 H 0.89906 0.14886 0.83232 0.0
H2128 H 0.91118 0.15225 0.81555 0.0
H2129 H 0.89165 0.1372 0.81475 0.0
H2130 H 0.85813 0.173 0.80616 0.0
H2131 H 0.85729 0.16358 0.8244 0.0
H2132 H 0.85126 0.15292 0.80608 0.0
H2133 H 0.79131 0.05785 0.80026 0.0
H2134 H 0.77992 0.0302 0.79668 0.0
H2135 H 0.79772 0.03868 0.80732 0.0
H2136 H 0.79672 0.03297 0.78677 0.0
H2137 H 0.83843 0.07231 0.79946 0.0
H2138 H 0.80371 0.08374 0.7965 0.0
H2139 H 0.86032 0.09867 0.82972 0.0
H2140 H 0.86795 0.10735 0.8111 0.0
H2141 H 0.86134 0.08749 0.81349 0.0
H2142 H 0.80684 0.10661 0.80694 0.0
H2143 H 0.82619 0.122 0.80852 0.0
H2144 H 0.81685 0.11146 0.82576 0.0
H2145 H 0.85398 0.13444 0.91244 0.0
H2146 H 0.88583 0.16851 0.87251 0.0
H2147 H 0.88699 0.1674 0.84418 0.0
H2148 H 0.85965 0.12949 0.80355 0.0
H2149 H 0.82761 0.09531 0.84346 0.0
H2150 H 0.82568 0.09685 0.87176 0.0
H2151 H 0.94662 0.21478 0.80309 0.0
H2152 H 0.93078 0.20115 0.81423 0.0
H2153 H 0.93169 0.21846 0.80844 0.0
C2154 C 0.80653 0.7209 0.95446 0.0
C2155 C 0.79605 0.71485 0.93977 0.0
C2156 C 0.81017 0.70767 0.9215 0.0
C2157 C 0.82159 0.72253 0.91807 0.0
C2158 C 0.83376 0.72519 0.90842 0.0
C2159 C 0.83451 0.71278 0.90192 0.0
C2160 C 0.82291 0.69783 0.90503 0.0
C2161 C 0.81088 0.69549 0.91479 0.0
C2162 C 0.84599 0.74129 0.90537 0.0
C2163 C 0.82334 0.68436 0.89819 0.0
C2164 C 0.94059 0.73778 0.93648 0.0
C2165 C 0.92612 0.72396 0.94233 0.0
C2166 C 0.90711 0.71683 0.92086 0.0
C2167 C 0.89807 0.70533 0.90991 0.0
C2168 C 0.88705 0.70606 0.9007 0.0
C2169 C 0.88531 0.71887 0.9022 0.0
C2170 C 0.8946 0.73072 0.91306 0.0
C2171 C 0.90533 0.72953 0.92239 0.0
C2172 C 0.87713 0.69302 0.88953 0.0
C2173 C 0.89315 0.74461 0.91488 0.0
C2174 C 0.92085 0.74687 0.80422 0.0
C2175 C 0.9107 0.7314 0.80648 0.0
C2176 C 0.89662 0.7265 0.81348 0.0
C2177 C 0.89272 0.73733 0.81849 0.0
C2178 C 0.90268 0.75287 0.81562 0.0
C2179 C 0.91656 0.75741 0.80832 0.0
C2180 C 0.88602 0.70979 0.81578 0.0
C2181 C 0.89883 0.76471 0.82062 0.0
C2182 C 0.78672 0.7255 0.80616 0.0
C2183 C 0.79378 0.7248 0.79038 0.0
C2184 C 0.81331 0.71922 0.79965 0.0
C2185 C 0.81656 0.70761 0.80116 0.0
C2186 C 0.82937 0.70989 0.80963 0.0
C2187 C 0.83923 0.72424 0.8167 0.0
C2188 C 0.83627 0.73621 0.81487 0.0
C2189 C 0.82333 0.7336 0.80636 0.0
C2190 C 0.83223 0.6969 0.81126 0.0
C2191 C 0.84668 0.75168 0.82215 0.0
C2192 C 0.84784 0.71553 0.89254 0.0
C2193 C 0.85993 0.71592 0.90066 0.0
C2194 C 0.87332 0.71953 0.89291 0.0
C2195 C 0.87487 0.72318 0.87663 0.0
C2196 C 0.88849 0.72776 0.86868 0.0
C2197 C 0.88979 0.73104 0.85259 0.0
C2198 C 0.87745 0.72963 0.84375 0.0
C2199 C 0.87851 0.7325 0.82727 0.0
C2200 C 0.86595 0.73082 0.81885 0.0
C2201 C 0.85233 0.72651 0.82647 0.0
C2202 C 0.85114 0.72388 0.843 0.0
C2203 C 0.83768 0.71982 0.8511 0.0
C2204 C 0.83661 0.7172 0.86735 0.0
C2205 C 0.84885 0.7183 0.87606 0.0
C2206 C 0.86247 0.72226 0.86811 0.0
C2207 C 0.86369 0.72528 0.85161 0.0
C2208 C 0.95956 0.75841 0.80654 0.0
C2209 C 0.94391 0.74583 0.80095 0.0
O2210 O 0.79845 0.70455 0.93129 0.0
O2211 O 0.80035 0.71591 0.79177 0.0
O2212 O 0.93484 0.75202 0.79822 0.0
O2213 O 0.91736 0.71515 0.92953 0.0
H2214 H 0.79837 0.72451 0.93209 0.0
H2215 H 0.80425 0.7288 0.96146 0.0
H2216 H 0.80483 0.71146 0.96216 0.0
H2217 H 0.81855 0.72717 0.95092 0.0
H2218 H 0.82127 0.73216 0.923 0.0
H2219 H 0.80203 0.68407 0.9174 0.0
H2220 H 0.85706 0.74313 0.90965 0.0
H2221 H 0.84381 0.74973 0.91134 0.0
H2222 H 0.84689 0.74332 0.8924 0.0
H2223 H 0.81302 0.67347 0.90097 0.0
H2224 H 0.83335 0.68423 0.90304 0.0
H2225 H 0.82453 0.6853 0.88509 0.0
H2226 H 0.91962 0.72785 0.94956 0.0
H2227 H 0.94766 0.74475 0.94676 0.0
H2228 H 0.93783 0.74498 0.92914 0.0
H2229 H 0.94725 0.7342 0.92913 0.0
H2230 H 0.89954 0.6956 0.90879 0.0
H2231 H 0.91226 0.7386 0.93074 0.0
H2232 H 0.8797 0.69679 0.87706 0.0
H2233 H 0.86504 0.68921 0.89151 0.0
H2234 H 0.87882 0.68322 0.89102 0.0
H2235 H 0.90247 0.75366 0.92222 0.0
H2236 H 0.88226 0.74147 0.92064 0.0
H2237 H 0.89305 0.74919 0.90303 0.0
H2238 H 0.93935 0.73764 0.81083 0.0
H2239 H 0.91377 0.72315 0.80275 0.0
H2240 H 0.92438 0.7693 0.80628 0.0
H2241 H 0.88525 0.70731 0.82864 0.0
H2242 H 0.88987 0.70275 0.8095 0.0
H2243 H 0.87449 0.70644 0.81142 0.0
H2244 H 0.90809 0.77638 0.81818 0.0
H2245 H 0.8964 0.76386 0.83353 0.0
H2246 H 0.88847 0.76266 0.81418 0.0
H2247 H 0.80247 0.73643 0.78691 0.0
H2248 H 0.78118 0.73236 0.80491 0.0
H2249 H 0.7955 0.73085 0.81565 0.0
H2250 H 0.77818 0.71393 0.80992 0.0
H2251 H 0.80883 0.6966 0.79586 0.0
H2252 H 0.82111 0.74279 0.80514 0.0
H2253 H 0.83232 0.69436 0.82402 0.0
H2254 H 0.84351 0.70014 0.80647 0.0
H2255 H 0.82355 0.68647 0.80491 0.0
H2256 H 0.84319 0.75999 0.81911 0.0
H2257 H 0.8584 0.75599 0.81802 0.0
H2258 H 0.84683 0.75085 0.83528 0.0
H2259 H 0.85892 0.71343 0.91323 0.0
H2260 H 0.89831 0.72891 0.87485 0.0
H2261 H 0.90057 0.73455 0.84713 0.0
H2262 H 0.86678 0.73282 0.80617 0.0
H2263 H 0.82784 0.71867 0.84499 0.0
H2264 H 0.826 0.71415 0.87298 0.0
H2265 H 0.96707 0.75372 0.80875 0.0
H2266 H 0.95857 0.76361 0.81781 0.0
H2267 H 0.9648 0.76741 0.79755 0.0
C2268 C 0.86514 0.6318 0.38292 0.0
C2269 C 0.87372 0.64026 0.3981 0.0
C2270 C 0.86015 0.6297 0.42246 0.0
C2271 C 0.86299 0.64287 0.43078 0.0
C2272 C 0.85293 0.64237 0.44231 0.0
C2273 C 0.83975 0.6284 0.4455 0.0
C2274 C 0.83722 0.61499 0.43761 0.0
C2275 C 0.84763 0.6158 0.42633 0.0
C2276 C 0.85617 0.65682 0.45076 0.0
C2277 C 0.82325 0.59992 0.44065 0.0
C2278 C 0.75076 0.64877 0.40791 0.0
C2279 C 0.75707 0.64033 0.41595 0.0
C2280 C 0.77764 0.64461 0.43401 0.0
C2281 C 0.77497 0.62973 0.43265 0.0
C2282 C 0.78421 0.62549 0.44071 0.0
C2283 C 0.79647 0.63636 0.45017 0.0
C2284 C 0.79926 0.65135 0.45148 0.0
C2285 C 0.78971 0.65523 0.44347 0.0
C2286 C 0.78092 0.6094 0.43904 0.0
C2287 C 0.81239 0.66329 0.46124 0.0
C2288 C 0.76633 0.61715 0.55094 0.0
C2289 C 0.76278 0.6044 0.54131 0.0
C2290 C 0.77403 0.60366 0.53259 0.0
C2291 C 0.78905 0.61603 0.53328 0.0
C2292 C 0.79272 0.62869 0.54329 0.0
C2293 C 0.78131 0.62897 0.55213 0.0
C2294 C 0.76982 0.58978 0.52242 0.0
C2295 C 0.80862 0.64206 0.54437 0.0
C2296 C 0.88322 0.59259 0.54012 0.0
C2297 C 0.87801 0.60347 0.5457 0.0
C2298 C 0.85278 0.59986 0.54167 0.0
C2299 C 0.83823 0.58867 0.53692 0.0
C2300 C 0.82807 0.59249 0.53028 0.0
C2301 C 0.83251 0.60793 0.52874 0.0
C2302 C 0.84694 0.61932 0.53435 0.0
C2303 C 0.85698 0.61517 0.5407 0.0
C2304 C 0.81271 0.58004 0.52458 0.0
C2305 C 0.85184 0.63588 0.53342 0.0
C2306 C 0.828 0.62809 0.45597 0.0
C2307 C 0.81803 0.63206 0.44929 0.0
C2308 C 0.80665 0.63212 0.45825 0.0
C2309 C 0.80509 0.6281 0.47442 0.0
C2310 C 0.79373 0.62799 0.48377 0.0
C2311 C 0.79237 0.62416 0.49971 0.0
C2312 C 0.80218 0.62008 0.50686 0.0
C2313 C 0.8008 0.61605 0.52303 0.0
C2314 C 0.81082 0.61216 0.52978 0.0
C2315 C 0.82224 0.61215 0.52081 0.0
C2316 C 0.82375 0.61606 0.50459 0.0
C2317 C 0.83505 0.61607 0.49517 0.0
C2318 C 0.83654 0.6201 0.47928 0.0
C2319 C 0.82667 0.62408 0.47213 0.0
C2320 C 0.81515 0.62408 0.48138 0.0
C2321 C 0.81368 0.62006 0.49762 0.0
C2322 C 0.73682 0.61585 0.54034 0.0
C2323 C 0.74026 0.61104 0.55627 0.0
O2324 O 0.86917 0.63016 0.41049 0.0
O2325 O 0.86242 0.59546 0.5471 0.0
O2326 O 0.75574 0.61861 0.55915 0.0
O2327 O 0.76894 0.64915 0.42638 0.0
H2328 H 0.87076 0.64918 0.40043 0.0
H2329 H 0.85282 0.627 0.38457 0.0
H2330 H 0.86714 0.62236 0.37999 0.0
H2331 H 0.86875 0.63967 0.37279 0.0
H2332 H 0.87301 0.65355 0.42813 0.0
H2333 H 0.84568 0.60567 0.41996 0.0
H2334 H 0.8479 0.66006 0.4467 0.0
H2335 H 0.86774 0.66633 0.44844 0.0
H2336 H 0.85483 0.65508 0.46378 0.0
H2337 H 0.82281 0.5906 0.43329 0.0
H2338 H 0.813 0.60061 0.43806 0.0
H2339 H 0.82294 0.5971 0.45337 0.0
H2340 H 0.74845 0.62932 0.42105 0.0
H2341 H 0.73882 0.64355 0.41227 0.0
H2342 H 0.75586 0.64805 0.38375 0.0
H2343 H 0.75494 0.6597 0.41486 0.0
H2344 H 0.76573 0.62137 0.42531 0.0
H2345 H 0.79171 0.66667 0.44443 0.0
H2346 H 0.79028 0.60928 0.4326 0.0
H2347 H 0.77018 0.60197 0.43244 0.0
H2348 H 0.78028 0.60462 0.45096 0.0
H2349 H 0.81362 0.67466 0.4602 0.0
H2350 H 0.82305 0.66396 0.45742 0.0
H2351 H 0.81078 0.66014 0.47394 0.0
H2352 H 0.73572 0.59862 0.55603 0.0
H2353 H 0.75128 0.595 0.54049 0.0
H2354 H 0.78396 0.63869 0.55971 0.0
H2355 H 0.77054 0.5927 0.50969 0.0
H2356 H 0.75817 0.58039 0.52473 0.0
H2357 H 0.77787 0.58575 0.52461 0.0
H2358 H 0.80946 0.65135 0.55211 0.0
H2359 H 0.81261 0.64653 0.53233 0.0
H2360 H 0.81631 0.63838 0.54919 0.0
H2361 H 0.88145 0.61214 0.53633 0.0
H2362 H 0.8957 0.59876 0.53881 0.0
H2363 H 0.87793 0.58747 0.52839 0.0
H2364 H 0.87991 0.58333 0.54871 0.0
H2365 H 0.83503 0.57688 0.53796 0.0
H2366 H 0.86805 0.62389 0.54492 0.0
H2367 H 0.81107 0.58156 0.51184 0.0
H2368 H 0.80378 0.5807 0.53132 0.0
H2369 H 0.81121 0.5686 0.52606 0.0
H2370 H 0.86272 0.64326 0.53981 0.0
H2371 H 0.84305 0.63792 0.53853 0.0
H2372 H 0.85317 0.63922 0.52079 0.0
H2373 H 0.81913 0.63513 0.43688 0.0
H2374 H 0.78579 0.63093 0.4789 0.0
H2375 H 0.78349 0.62442 0.50633 0.0
H2376 H 0.80973 0.60913 0.5422 0.0
H2377 H 0.84292 0.61301 0.49998 0.0
H2378 H 0.8455 0.62 0.47263 0.0
H2379 H 0.72443 0.60998 0.53809 0.0
H2380 H 0.74193 0.61282 0.53041 0.0
H2381 H 0.74146 0.62829 0.54037 0.0
C2382 C 0.38287 0.24398 0.38348 0.0
C2383 C 0.37418 0.24368 0.39832 0.0
C2384 C 0.38241 0.23744 0.42279 0.0
C2385 C 0.36839 0.22667 0.42892 0.0
C2386 C 0.3674 0.21608 0.43995 0.0
C2387 C 0.38071 0.21633 0.44495 0.0
C2388 C 0.39491 0.22756 0.43925 0.0
C2389 C 0.39558 0.23812 0.42837 0.0
C2390 C 0.35213 0.2045 0.44611 0.0
C2391 C 0.40933 0.22817 0.44436 0.0
C2392 C 0.37105 0.10678 0.414 0.0
C2393 C 0.37719 0.12198 0.42168 0.0
C2394 C 0.3689 0.13826 0.43395 0.0
C2395 C 0.38352 0.15097 0.43566 0.0
C2396 C 0.38588 0.16432 0.44321 0.0
C2397 C 0.37337 0.16505 0.44908 0.0
C2398 C 0.35862 0.15242 0.4471 0.0
C2399 C 0.35658 0.13917 0.43958 0.0
C2400 C 0.40176 0.17763 0.44503 0.0
C2401 C 0.34503 0.15291 0.45307 0.0
C2402 C 0.38284 0.15116 0.55163 0.0
C2403 C 0.39641 0.16171 0.54441 0.0
C2404 C 0.39734 0.17381 0.53588 0.0
C2405 C 0.38443 0.17534 0.53442 0.0
C2406 C 0.37091 0.16501 0.54203 0.0
C2407 C 0.37033 0.15309 0.5506 0.0
C2408 C 0.41201 0.18479 0.5281 0.0
C2409 C 0.35697 0.16635 0.54077 0.0
C2410 C 0.4101 0.29348 0.54175 0.0
C2411 C 0.39841 0.27791 0.54784 0.0
C2412 C 0.40102 0.25559 0.54439 0.0
C2413 C 0.41215 0.25204 0.54079 0.0
C2414 C 0.40837 0.23806 0.53368 0.0
C2415 C 0.39301 0.22725 0.53047 0.0
C2416 C 0.38162 0.23048 0.53483 0.0
C2417 C 0.38575 0.24467 0.54172 0.0
C2418 C 0.42081 0.23495 0.52936 0.0
C2419 C 0.36511 0.219 0.53208 0.0
C2420 C 0.37969 0.20438 0.45552 0.0
C2421 C 0.37671 0.19069 0.44843 0.0
C2422 C 0.37583 0.17898 0.45751 0.0
C2423 C 0.37784 0.18086 0.47419 0.0
C2424 C 0.37697 0.16929 0.48369 0.0
C2425 C 0.37911 0.17128 0.50007 0.0
C2426 C 0.38235 0.18499 0.50758 0.0
C2427 C 0.38485 0.18722 0.5242 0.0
C2428 C 0.38806 0.20098 0.5313 0.0
C2429 C 0.38894 0.21271 0.52223 0.0
C2430 C 0.38648 0.2107 0.50558 0.0
C2431 C 0.38734 0.22227 0.49606 0.0
C2432 C 0.38496 0.22019 0.47969 0.0
C2433 C 0.38183 0.20653 0.47217 0.0
C2434 C 0.3809 0.1947 0.48154 0.0
C2435 C 0.38319 0.19678 0.49825 0.0
C2436 C 0.39123 0.12605 0.54437 0.0
C2437 C 0.3912 0.13361 0.56024 0.0
O2438 O 0.38359 0.24732 0.41155 0.0
O2439 O 0.40545 0.2696 0.5505 0.0
O2440 O 0.38118 0.13892 0.5595 0.0
O2441 O 0.36622 0.125 0.42707 0.0
H2442 H 0.36434 0.23196 0.399 0.0
H2443 H 0.38643 0.23543 0.38445 0.0
H2444 H 0.39313 0.2553 0.38213 0.0
H2445 H 0.37557 0.2412 0.3727 0.0
H2446 H 0.35824 0.22656 0.42512 0.0
H2447 H 0.40636 0.24665 0.42374 0.0
H2448 H 0.34934 0.19302 0.44195 0.0
H2449 H 0.34302 0.20655 0.44205 0.0
H2450 H 0.35241 0.20462 0.4593 0.0
H2451 H 0.41943 0.2374 0.43854 0.0
H2452 H 0.4086 0.21721 0.44144 0.0
H2453 H 0.41085 0.22995 0.45743 0.0
H2454 H 0.38644 0.12501 0.43057 0.0
H2455 H 0.3749 0.10057 0.4219 0.0
H2456 H 0.37782 0.1117 0.39012 0.0
H2457 H 0.35884 0.0999 0.41753 0.0
H2458 H 0.39318 0.15056 0.43118 0.0
H2459 H 0.34534 0.12938 0.43814 0.0
H2460 H 0.40265 0.18751 0.43879 0.0
H2461 H 0.41034 0.17515 0.44016 0.0
H2462 H 0.40442 0.18089 0.45779 0.0
H2463 H 0.33424 0.14239 0.44997 0.0
H2464 H 0.34479 0.16272 0.44797 0.0
H2465 H 0.34588 0.1545 0.46619 0.0
H2466 H 0.40278 0.14318 0.56299 0.0
H2467 H 0.40628 0.16055 0.54522 0.0
H2468 H 0.35995 0.14498 0.55629 0.0
H2469 H 0.41052 0.18353 0.51498 0.0
H2470 H 0.42139 0.18291 0.53154 0.0
H2471 H 0.41525 0.19661 0.53136 0.0
H2472 H 0.34731 0.15738 0.54737 0.0
H2473 H 0.35358 0.16561 0.52809 0.0
H2474 H 0.35949 0.17758 0.54552 0.0
H2475 H 0.38959 0.27244 0.53832 0.0
H2476 H 0.40473 0.30036 0.53942 0.0
H2477 H 0.4149 0.29214 0.53046 0.0
H2478 H 0.41948 0.29962 0.55054 0.0
H2479 H 0.42388 0.26048 0.54316 0.0
H2480 H 0.37705 0.24715 0.54509 0.0
H2481 H 0.41995 0.23187 0.51653 0.0
H2482 H 0.41951 0.22517 0.53616 0.0
H2483 H 0.43223 0.24484 0.53191 0.0
H2484 H 0.3576 0.22272 0.53739 0.0
H2485 H 0.36238 0.20799 0.53719 0.0
H2486 H 0.36269 0.21712 0.51911 0.0
H2487 H 0.37524 0.18919 0.43562 0.0
H2488 H 0.37463 0.15854 0.47857 0.0
H2489 H 0.37827 0.16194 0.50675 0.0
H2490 H 0.39006 0.20263 0.54404 0.0
H2491 H 0.38985 0.23308 0.50115 0.0
H2492 H 0.38571 0.22947 0.47297 0.0
H2493 H 0.37968 0.11663 0.54125 0.0
H2494 H 0.399 0.12149 0.54512 0.0
H2495 H 0.39515 0.13435 0.53467 0.0
C2496 C 0.866 0.22948 0.38597 0.0
C2497 C 0.87561 0.23962 0.39997 0.0
C2498 C 0.86144 0.22324 0.42214 0.0
C2499 C 0.84978 0.22665 0.4225 0.0
C2500 C 0.83691 0.21818 0.43172 0.0
C2501 C 0.83553 0.2059 0.44053 0.0
C2502 C 0.8473 0.20252 0.44028 0.0
C2503 C 0.86022 0.21144 0.4313 0.0
C2504 C 0.82467 0.22224 0.43189 0.0
C2505 C 0.8461 0.18929 0.4492 0.0
C2506 C 0.74823 0.13841 0.37671 0.0
C2507 C 0.75406 0.13182 0.38917 0.0
C2508 C 0.76073 0.14382 0.41529 0.0
C2509 C 0.77229 0.14129 0.42024 0.0
C2510 C 0.78328 0.1511 0.43136 0.0
C2511 C 0.78283 0.16387 0.43735 0.0
C2512 C 0.77098 0.16627 0.4325 0.0
C2513 C 0.75986 0.15597 0.42177 0.0
C2514 C 0.79553 0.14796 0.43646 0.0
C2515 C 0.77031 0.17995 0.43825 0.0
C2516 C 0.74868 0.14844 0.53663 0.0
C2517 C 0.75862 0.14331 0.53262 0.0
C2518 C 0.77276 0.15317 0.52605 0.0
C2519 C 0.77686 0.16836 0.52315 0.0
C2520 C 0.7671 0.17368 0.52781 0.0
C2521 C 0.7532 0.16366 0.53472 0.0
C2522 C 0.78317 0.14728 0.52192 0.0
C2523 C 0.77117 0.18984 0.5251 0.0
C2524 C 0.88473 0.25623 0.57378 0.0
C2525 C 0.87293 0.25136 0.56109 0.0
C2526 C 0.85596 0.22828 0.54563 0.0
C2527 C 0.8531 0.2139 0.54104 0.0
C2528 C 0.84051 0.2042 0.5315 0.0
C2529 C 0.83051 0.20905 0.52643 0.0
C2530 C 0.83328 0.22359 0.53105 0.0
C2531 C 0.84601 0.2331 0.54059 0.0
C2532 C 0.8379 0.18877 0.5268 0.0
C2533 C 0.82282 0.22907 0.52583 0.0
C2534 C 0.82142 0.19608 0.44925 0.0
C2535 C 0.80895 0.18523 0.44041 0.0
C2536 C 0.79536 0.17524 0.4477 0.0
C2537 C 0.79408 0.17607 0.46437 0.0
C2538 C 0.78063 0.16618 0.47215 0.0
C2539 C 0.77948 0.16713 0.48854 0.0
C2540 C 0.7919 0.17773 0.49787 0.0
C2541 C 0.791 0.17849 0.51461 0.0
C2542 C 0.80366 0.18895 0.52352 0.0
C2543 C 0.81725 0.19889 0.51616 0.0
C2544 C 0.81827 0.19855 0.49942 0.0
C2545 C 0.83166 0.20863 0.49161 0.0
C2546 C 0.83265 0.20801 0.47516 0.0
C2547 C 0.82037 0.19714 0.46591 0.0
C2548 C 0.80666 0.18704 0.4735 0.0
C2549 C 0.8056 0.1878 0.49027 0.0
C2550 C 0.70941 0.1207 0.53488 0.0
C2551 C 0.72549 0.1239 0.53781 0.0
O2552 O 0.87394 0.23087 0.41307 0.0
O2553 O 0.86834 0.23701 0.55494 0.0
O2554 O 0.73465 0.139 0.54225 0.0
O2555 O 0.7504 0.13474 0.40413 0.0
H2556 H 0.87205 0.24794 0.40298 0.0
H2557 H 0.85385 0.22333 0.38906 0.0
H2558 H 0.86939 0.22104 0.38285 0.0
H2559 H 0.86737 0.23641 0.3754 0.0
H2560 H 0.85057 0.23585 0.41565 0.0
H2561 H 0.86929 0.20893 0.43099 0.0
H2562 H 0.81452 0.21328 0.42543 0.0
H2563 H 0.82828 0.23324 0.42616 0.0
H2564 H 0.82133 0.22282 0.44429 0.0
H2565 H 0.85551 0.18725 0.44646 0.0
H2566 H 0.83522 0.17884 0.44622 0.0
H2567 H 0.84628 0.19147 0.46217 0.0
H2568 H 0.76657 0.13755 0.38791 0.0
H2569 H 0.7513 0.13656 0.36459 0.0
H2570 H 0.75339 0.15079 0.37887 0.0
H2571 H 0.73574 0.13304 0.37733 0.0
H2572 H 0.77269 0.13165 0.41536 0.0
H2573 H 0.75079 0.15772 0.41788 0.0
H2574 H 0.7971 0.14916 0.44957 0.0
H2575 H 0.80638 0.15637 0.43107 0.0
H2576 H 0.79297 0.13644 0.43272 0.0
H2577 H 0.76126 0.18096 0.43212 0.0
H2578 H 0.78131 0.19044 0.4363 0.0
H2579 H 0.76816 0.17917 0.4512 0.0
H2580 H 0.7293 0.12153 0.52629 0.0
H2581 H 0.75535 0.13163 0.5346 0.0
H2582 H 0.74553 0.16753 0.5381 0.0
H2583 H 0.78353 0.14621 0.50882 0.0
H2584 H 0.77938 0.13602 0.5271 0.0
H2585 H 0.79484 0.15535 0.52623 0.0
H2586 H 0.76199 0.19198 0.52863 0.0
H2587 H 0.77368 0.19257 0.51236 0.0
H2588 H 0.78153 0.19764 0.53208 0.0
H2589 H 0.87523 0.25985 0.55176 0.0
H2590 H 0.89501 0.26629 0.56879 0.0
H2591 H 0.88955 0.24851 0.57279 0.0
H2592 H 0.87387 0.25775 0.59442 0.0
H2593 H 0.86083 0.21029 0.54499 0.0
H2594 H 0.84811 0.24423 0.54404 0.0
H2595 H 0.83808 0.18779 0.51366 0.0
H2596 H 0.82657 0.17986 0.53075 0.0
H2597 H 0.84657 0.18658 0.53199 0.0
H2598 H 0.82655 0.2407 0.53036 0.0
H2599 H 0.81124 0.22127 0.53013 0.0
H2600 H 0.8222 0.22895 0.51265 0.0
H2601 H 0.80988 0.18447 0.42763 0.0
H2602 H 0.77079 0.15761 0.46563 0.0
H2603 H 0.76877 0.15932 0.49382 0.0
H2604 H 0.80297 0.18928 0.53636 0.0
H2605 H 0.84153 0.21712 0.49813 0.0
H2606 H 0.84322 0.21607 0.4698 0.0
H2607 H 0.70488 0.12318 0.54575 0.0
H2608 H 0.70185 0.10865 0.53124 0.0
H2609 H 0.70939 0.12793 0.52519 0.0
C2610 C 0.028 0.47664 0.29815 0.0
C2611 C 0.01952 0.46422 0.28547 0.0
C2612 C 0.01939 0.47518 0.25999 0.0
C2613 C 0.0038 0.46785 0.25677 0.0
C2614 C 0.99787 0.47404 0.24618 0.0
C2615 C 0.00777 0.48774 0.23858 0.0
C2616 C 0.02354 0.49479 0.24128 0.0
C2617 C 0.02916 0.4883 0.25186 0.0
C2618 C 0.98103 0.46604 0.24322 0.0
C2619 C 0.03442 0.50932 0.23322 0.0
C2620 C 0.96411 0.56465 0.24002 0.0
C2621 C 0.9777 0.56524 0.24834 0.0
C2622 C 0.97849 0.5418 0.2483 0.0
C2623 C 0.99345 0.54749 0.24341 0.0
C2624 C 0.99799 0.53781 0.23675 0.0
C2625 C 0.98739 0.52214 0.23514 0.0
C2626 C 0.97257 0.51627 0.2409 0.0
C2627 C 0.96835 0.52621 0.24753 0.0
C2628 C 0.014 0.54433 0.23111 0.0
C2629 C 0.9611 0.49958 0.23963 0.0
C2630 C 0.96903 0.52755 0.13346 0.0
C2631 C 0.98435 0.53446 0.13779 0.0
C2632 C 0.98992 0.52634 0.14582 0.0
C2633 C 0.97989 0.51105 0.14972 0.0
C2634 C 0.96457 0.50389 0.14471 0.0
C2635 C 0.95938 0.51222 0.13644 0.0
C2636 C 0.00645 0.53419 0.15044 0.0
C2637 C 0.95359 0.48758 0.14853 0.0
C2638 C 0.02126 0.43209 0.14798 0.0
C2639 C 0.00744 0.43114 0.13985 0.0
C2640 C 0.00668 0.45468 0.1402 0.0
C2641 C 0.01688 0.47026 0.14039 0.0
C2642 C 0.01296 0.48046 0.14695 0.0
C2643 C 0.99835 0.47487 0.15318 0.0
C2644 C 0.98767 0.45917 0.15219 0.0
C2645 C 0.99194 0.44921 0.14567 0.0
C2646 C 0.02455 0.49714 0.14763 0.0
C2647 C 0.97184 0.45292 0.1583 0.0
C2648 C 0.00157 0.49501 0.22829 0.0
C2649 C 0.99745 0.50472 0.23557 0.0
C2650 C 0.99158 0.512 0.22668 0.0
C2651 C 0.98978 0.50966 0.21003 0.0
C2652 C 0.98392 0.51684 0.20074 0.0
C2653 C 0.98233 0.51458 0.18435 0.0
C2654 C 0.98655 0.50506 0.17658 0.0
C2655 C 0.98522 0.5029 0.15988 0.0
C2656 C 0.98913 0.49302 0.15259 0.0
C2657 C 0.99452 0.48531 0.16156 0.0
C2658 C 0.99628 0.48762 0.17823 0.0
C2659 C 0.00201 0.48031 0.18756 0.0
C2660 C 0.00374 0.48268 0.20395 0.0
C2661 C 0.9998 0.49245 0.21165 0.0
C2662 C 0.99394 0.49986 0.20249 0.0
C2663 C 0.99225 0.4975 0.18576 0.0
C2664 C 0.9516 0.54669 0.14086 0.0
C2665 C 0.96554 0.54925 0.13174 0.0
O2666 O 0.02538 0.46979 0.27066 0.0
O2667 O 0.01137 0.44536 0.13435 0.0
O2668 O 0.96331 0.5354 0.12632 0.0
O2669 O 0.97349 0.55097 0.25387 0.0
H2670 H 0.00745 0.461 0.28613 0.0
H2671 H 0.0263 0.48634 0.29588 0.0
H2672 H 0.04032 0.48081 0.29795 0.0
H2673 H 0.02364 0.47228 0.31014 0.0
H2674 H 0.99624 0.45725 0.2624 0.0
H2675 H 0.04121 0.49369 0.2542 0.0
H2676 H 0.97661 0.47337 0.24741 0.0
H2677 H 0.97492 0.45506 0.24938 0.0
H2678 H 0.97855 0.46395 0.23027 0.0
H2679 H 0.04637 0.51336 0.23656 0.0
H2680 H 0.03177 0.51827 0.23645 0.0
H2681 H 0.0331 0.5076 0.22013 0.0
H2682 H 0.9866 0.56886 0.23919 0.0
H2683 H 0.96716 0.57606 0.23576 0.0
H2684 H 0.95438 0.5606 0.24816 0.0
H2685 H 0.96057 0.55675 0.22959 0.0
H2686 H 0.00159 0.55946 0.24476 0.0
H2687 H 0.95693 0.52191 0.25167 0.0
H2688 H 0.01393 0.54258 0.21805 0.0
H2689 H 0.01926 0.53833 0.2367 0.0
H2690 H 0.02109 0.55664 0.23392 0.0
H2691 H 0.95016 0.49675 0.24509 0.0
H2692 H 0.96558 0.49302 0.24556 0.0
H2693 H 0.95904 0.49593 0.22693 0.0
H2694 H 0.97534 0.55481 0.14017 0.0
H2695 H 0.99195 0.5462 0.13489 0.0
H2696 H 0.94762 0.50694 0.13276 0.0
H2697 H 0.00767 0.53603 0.16352 0.0
H2698 H 0.01311 0.54534 0.1447 0.0
H2699 H 0.01127 0.52698 0.14712 0.0
H2700 H 0.94194 0.4838 0.1442 0.0
H2701 H 0.95335 0.48606 0.16158 0.0
H2702 H 0.9574 0.48019 0.14301 0.0
H2703 H 0.99844 0.42729 0.14892 0.0
H2704 H 0.01841 0.42088 0.15267 0.0
H2705 H 0.02506 0.44036 0.15809 0.0
H2706 H 0.03071 0.43584 0.1395 0.0
H2707 H 0.02812 0.47437 0.1358 0.0
H2708 H 0.98372 0.43723 0.14478 0.0
H2709 H 0.02678 0.50123 0.1602 0.0
H2710 H 0.02009 0.50356 0.14138 0.0
H2711 H 0.0354 0.49969 0.14215 0.0
H2712 H 0.96452 0.44063 0.15554 0.0
H2713 H 0.96662 0.45908 0.15302 0.0
H2714 H 0.97229 0.45469 0.17138 0.0
H2715 H 0.99883 0.50663 0.24834 0.0
H2716 H 0.98052 0.52434 0.20602 0.0
H2717 H 0.97774 0.52043 0.17785 0.0
H2718 H 0.988 0.49134 0.13979 0.0
H2719 H 0.00527 0.47269 0.18231 0.0
H2720 H 0.00821 0.47677 0.21052 0.0
H2721 H 0.94134 0.54103 0.1331 0.0
H2722 H 0.95317 0.55766 0.14535 0.0
H2723 H 0.94985 0.53939 0.15119 0.0
C2724 C 0.47344 0.43167 0.29706 0.0
C2725 C 0.46193 0.42763 0.28349 0.0
C2726 C 0.4753 0.43107 0.25881 0.0
C2727 C 0.47293 0.44187 0.25139 0.0
C2728 C 0.48332 0.45187 0.24044 0.0
C2729 C 0.49627 0.45093 0.23678 0.0
C2730 C 0.49818 0.43943 0.24351 0.0
C2731 C 0.48755 0.42951 0.25437 0.0
C2732 C 0.48073 0.46375 0.23317 0.0
C2733 C 0.51175 0.438 0.23969 0.0
C2734 C 0.5978 0.55735 0.27595 0.0
C2735 C 0.58921 0.54264 0.26717 0.0
C2736 C 0.56409 0.52581 0.25567 0.0
C2737 C 0.56749 0.51509 0.24941 0.0
C2738 C 0.55677 0.50262 0.24028 0.0
C2739 C 0.54253 0.50109 0.23691 0.0
C2740 C 0.53914 0.51196 0.24305 0.0
C2741 C 0.54993 0.52409 0.2525 0.0
C2742 C 0.56065 0.49103 0.23434 0.0
C2743 C 0.52411 0.51074 0.23967 0.0
C2744 C 0.57148 0.51985 0.13561 0.0
C2745 C 0.57237 0.50738 0.141 0.0
C2746 C 0.56023 0.49551 0.14889 0.0
C2747 C 0.54684 0.49598 0.15127 0.0
C2748 C 0.54575 0.5083 0.14554 0.0
C2749 C 0.55813 0.52011 0.13785 0.0
C2750 C 0.56179 0.48257 0.15493 0.0
C2751 C 0.5316 0.50911 0.1478 0.0
C2752 C 0.45302 0.38031 0.13675 0.0
C2753 C 0.45615 0.39536 0.12992 0.0
C2754 C 0.48109 0.41764 0.13467 0.0
C2755 C 0.49555 0.42066 0.13876 0.0
C2756 C 0.50574 0.43399 0.1471 0.0
C2757 C 0.50144 0.44476 0.15101 0.0
C2758 C 0.48703 0.44209 0.14621 0.0
C2759 C 0.47696 0.4285 0.13813 0.0
C2760 C 0.52105 0.43649 0.15184 0.0
C2761 C 0.48227 0.45355 0.1497 0.0
C2762 C 0.50846 0.4629 0.22723 0.0
C2763 C 0.51946 0.47586 0.23538 0.0
C2764 C 0.53106 0.48792 0.22732 0.0
C2765 C 0.53174 0.48716 0.21058 0.0
C2766 C 0.54307 0.49923 0.20204 0.0
C2767 C 0.5439 0.49821 0.18563 0.0
C2768 C 0.53334 0.48514 0.17707 0.0
C2769 C 0.53427 0.48391 0.16041 0.0
C2770 C 0.52357 0.47078 0.15225 0.0
C2771 C 0.51194 0.45867 0.16032 0.0
C2772 C 0.51087 0.45966 0.17701 0.0
C2773 C 0.49942 0.44765 0.18556 0.0
C2774 C 0.49851 0.44872 0.20199 0.0
C2775 C 0.50914 0.46175 0.21053 0.0
C2776 C 0.52082 0.47396 0.20217 0.0
C2777 C 0.52163 0.47295 0.1854 0.0
C2778 C 0.60761 0.53902 0.13937 0.0
C2779 C 0.59716 0.53382 0.12465 0.0
O2780 O 0.4661 0.42221 0.27045 0.0
O2781 O 0.47151 0.40428 0.12719 0.0
O2782 O 0.58316 0.5319 0.12844 0.0
O2783 O 0.57405 0.53786 0.26485 0.0
H2784 H 0.46208 0.43827 0.28063 0.0
H2785 H 0.48466 0.44107 0.29343 0.0
H2786 H 0.47468 0.42184 0.30008 0.0
H2787 H 0.4699 0.43546 0.3078 0.0
H2788 H 0.46304 0.4426 0.25427 0.0
H2789 H 0.48911 0.42093 0.25996 0.0
H2790 H 0.48967 0.47516 0.23742 0.0
H2791 H 0.46954 0.46224 0.23625 0.0
H2792 H 0.48152 0.46337 0.22003 0.0
H2793 H 0.51118 0.42794 0.2452 0.0
H2794 H 0.52219 0.44831 0.24402 0.0
H2795 H 0.51268 0.43717 0.22662 0.0
H2796 H 0.59124 0.53359 0.27154 0.0
H2797 H 0.60168 0.55462 0.28732 0.0
H2798 H 0.58917 0.55941 0.28192 0.0
H2799 H 0.61306 0.57209 0.25897 0.0
H2800 H 0.5784 0.51623 0.25174 0.0
H2801 H 0.5474 0.53241 0.25736 0.0
H2802 H 0.55141 0.47942 0.23707 0.0
H2803 H 0.57136 0.49279 0.23969 0.0
H2804 H 0.56188 0.49174 0.22125 0.0
H2805 H 0.52394 0.52106 0.2436 0.0
H2806 H 0.51509 0.50089 0.24598 0.0
H2807 H 0.52139 0.50879 0.22675 0.0
H2808 H 0.59576 0.52291 0.12013 0.0
H2809 H 0.58253 0.50685 0.13933 0.0
H2810 H 0.55749 0.52972 0.13363 0.0
H2811 H 0.56002 0.4816 0.16796 0.0
H2812 H 0.57305 0.48399 0.1524 0.0
H2813 H 0.55297 0.47179 0.14929 0.0
H2814 H 0.53221 0.51901 0.14187 0.0
H2815 H 0.52977 0.50989 0.16069 0.0
H2816 H 0.52165 0.4986 0.143 0.0
H2817 H 0.45242 0.40079 0.13897 0.0
H2818 H 0.44079 0.37297 0.13918 0.0
H2819 H 0.45942 0.38243 0.1481 0.0
H2820 H 0.45658 0.37427 0.12834 0.0
H2821 H 0.4987 0.4123 0.13577 0.0
H2822 H 0.46596 0.42646 0.13438 0.0
H2823 H 0.52325 0.43943 0.16471 0.0
H2824 H 0.52991 0.44614 0.14518 0.0
H2825 H 0.52207 0.42636 0.14933 0.0
H2826 H 0.4713 0.45045 0.14389 0.0
H2827 H 0.49104 0.46489 0.14562 0.0
H2828 H 0.48117 0.45445 0.16273 0.0
H2829 H 0.51896 0.47656 0.24822 0.0
H2830 H 0.55148 0.50959 0.20798 0.0
H2831 H 0.55296 0.50782 0.17974 0.0
H2832 H 0.52444 0.46987 0.13949 0.0
H2833 H 0.49101 0.43728 0.17965 0.0
H2834 H 0.48945 0.43916 0.20795 0.0
H2835 H 0.61899 0.54115 0.13612 0.0
H2836 H 0.60306 0.53019 0.14855 0.0
H2837 H 0.60874 0.54953 0.14471 0.0
C2838 C 0.42232 0.95315 0.27224 0.0
C2839 C 0.43111 0.97022 0.27598 0.0
C2840 C 0.44899 0.98388 0.25514 0.0
C2841 C 0.45842 0.99953 0.2539 0.0
C2842 C 0.47231 0.00561 0.24608 0.0
C2843 C 0.47664 0.99573 0.23915 0.0
C2844 C 0.46702 0.97987 0.24025 0.0
C2845 C 0.45324 0.97412 0.24816 0.0
C2846 C 0.48227 0.02256 0.24505 0.0
C2847 C 0.47117 0.96901 0.23276 0.0
C2848 C 0.59741 0.04096 0.25506 0.0
C2849 C 0.58364 0.0257 0.25909 0.0
C2850 C 0.5588 0.02324 0.25753 0.0
C2851 C 0.55039 0.00869 0.25064 0.0
C2852 C 0.53672 0.00421 0.24254 0.0
C2853 C 0.53151 0.01457 0.24122 0.0
C2854 C 0.53968 0.02901 0.24875 0.0
C2855 C 0.55315 0.03308 0.25701 0.0
C2856 C 0.528 0.98853 0.23514 0.0
C2857 C 0.53437 0.04028 0.24772 0.0
C2858 C 0.56207 0.02853 0.14108 0.0
C2859 C 0.55133 0.01338 0.14409 0.0
C2860 C 0.53758 0.00959 0.15129 0.0
C2861 C 0.53452 0.02119 0.15552 0.0
C2862 C 0.54502 0.03639 0.15178 0.0
C2863 C 0.55864 0.03984 0.14444 0.0
C2864 C 0.52642 0.99321 0.15465 0.0
C2865 C 0.54203 0.049 0.15594 0.0
C2866 C 0.42022 0.99326 0.1476 0.0
C2867 C 0.43202 0.00648 0.13796 0.0
C2868 C 0.45511 0.00518 0.13897 0.0
C2869 C 0.45857 0.99363 0.13849 0.0
C2870 C 0.47148 0.99536 0.14632 0.0
C2871 C 0.48128 0.00913 0.15448 0.0
C2872 C 0.47826 0.02116 0.15426 0.0
C2873 C 0.46518 0.01905 0.14651 0.0
C2874 C 0.47444 0.98236 0.14621 0.0
C2875 C 0.48875 0.03618 0.1624 0.0
C2876 C 0.49104 0.0019 0.2304 0.0
C2877 C 0.50411 0.00526 0.23896 0.0
C2878 C 0.51793 0.01063 0.23136 0.0
C2879 C 0.51877 0.01249 0.2147 0.0
C2880 C 0.53243 0.01757 0.20662 0.0
C2881 C 0.53308 0.01912 0.1902 0.0
C2882 C 0.52016 0.01597 0.18125 0.0
C2883 C 0.52069 0.01746 0.16454 0.0
C2884 C 0.50785 0.01504 0.15612 0.0
C2885 C 0.4943 0.01077 0.16391 0.0
C2886 C 0.49335 0.00844 0.18049 0.0
C2887 C 0.4797 0.00342 0.18857 0.0
C2888 C 0.47888 0.00121 0.20489 0.0
C2889 C 0.49173 0.00409 0.2138 0.0
C2890 C 0.50562 0.00926 0.20591 0.0
C2891 C 0.50638 0.01123 0.18921 0.0
C2892 C 0.59747 0.03879 0.15085 0.0
C2893 C 0.58501 0.02708 0.13977 0.0
O2894 O 0.43537 0.97841 0.2621 0.0
O2895 O 0.4422 0.00271 0.13171 0.0
O2896 O 0.57577 0.03255 0.13488 0.0
O2897 O 0.57236 0.02811 0.26478 0.0
H2898 H 0.44136 0.97294 0.28319 0.0
H2899 H 0.42999 0.94928 0.26787 0.0
H2900 H 0.41334 0.95034 0.26316 0.0
H2901 H 0.417 0.9467 0.28316 0.0
H2902 H 0.45487 0.00695 0.25909 0.0
H2903 H 0.44564 0.96203 0.24845 0.0
H2904 H 0.49343 0.0262 0.25068 0.0
H2905 H 0.47724 0.02871 0.25098 0.0
H2906 H 0.48426 0.02584 0.2324 0.0
H2907 H 0.46277 0.95701 0.23524 0.0
H2908 H 0.48242 0.97155 0.23726 0.0
H2909 H 0.47198 0.97048 0.2197 0.0
H2910 H 0.57995 0.01881 0.24785 0.0
H2911 H 0.60659 0.03932 0.25034 0.0
H2912 H 0.60168 0.04853 0.26576 0.0
H2913 H 0.59425 0.04653 0.24583 0.0
H2914 H 0.55449 0.00085 0.2516 0.0
H2915 H 0.55963 0.04419 0.26263 0.0
H2916 H 0.51596 0.98294 0.23864 0.0
H2917 H 0.53269 0.98129 0.23866 0.0
H2918 H 0.52834 0.98935 0.222 0.0
H2919 H 0.54229 0.05124 0.25379 0.0
H2920 H 0.5231 0.03553 0.25324 0.0
H2921 H 0.53312 0.04244 0.23507 0.0
H2922 H 0.5786 0.01666 0.14684 0.0
H2923 H 0.55364 0.0045 0.14078 0.0
H2924 H 0.56689 0.05146 0.14178 0.0
H2925 H 0.52538 0.9916 0.16769 0.0
H2926 H 0.52988 0.98542 0.14942 0.0
H2927 H 0.51508 0.99005 0.14984 0.0
H2928 H 0.55136 0.06024 0.15228 0.0
H2929 H 0.54051 0.04933 0.16896 0.0
H2930 H 0.53139 0.04681 0.15005 0.0
H2931 H 0.43783 0.01654 0.14608 0.0
H2932 H 0.41195 0.99606 0.1527 0.0
H2933 H 0.42586 0.99092 0.15754 0.0
H2934 H 0.41409 0.98286 0.13999 0.0
H2935 H 0.45087 0.98308 0.13235 0.0
H2936 H 0.46295 0.02831 0.14621 0.0
H2937 H 0.47502 0.97909 0.1586 0.0
H2938 H 0.48554 0.98596 0.14071 0.0
H2939 H 0.46557 0.97228 0.13955 0.0
H2940 H 0.48562 0.04485 0.15983 0.0
H2941 H 0.50056 0.04045 0.15858 0.0
H2942 H 0.48845 0.03465 0.17545 0.0
H2943 H 0.50353 0.00369 0.25171 0.0
H2944 H 0.54277 0.02028 0.21287 0.0
H2945 H 0.54387 0.02295 0.18464 0.0
H2946 H 0.5084 0.01649 0.14335 0.0
H2947 H 0.46944 0.00104 0.18236 0.0
H2948 H 0.46806 0.99728 0.21044 0.0
H2949 H 0.60519 0.03474 0.1546 0.0
H2950 H 0.59233 0.04057 0.16165 0.0
H2951 H 0.60413 0.04984 0.14492 0.0
C2952 C 0.55571 0.97347 0.75287 0.0
C2953 C 0.55809 0.98736 0.74373 0.0
C2954 C 0.54997 0.0006 0.76234 0.0
C2955 C 0.5549 0.0138 0.77152 0.0
C2956 C 0.54475 0.01614 0.78049 0.0
C2957 C 0.52929 0.00476 0.78057 0.0
C2958 C 0.52418 0.9914 0.77122 0.0
C2959 C 0.53452 0.98954 0.76204 0.0
C2960 C 0.55055 0.03072 0.78996 0.0
C2961 C 0.50777 0.97901 0.77093 0.0
C2962 C 0.43112 0.01317 0.74405 0.0
C2963 C 0.4412 0.00792 0.75036 0.0
C2964 C 0.46476 0.0171 0.76532 0.0
C2965 C 0.46215 0.00255 0.76859 0.0
C2966 C 0.47278 0.00063 0.77718 0.0
C2967 C 0.48633 0.01352 0.7826 0.0
C2968 C 0.48903 0.02818 0.77935 0.0
C2969 C 0.47816 0.02978 0.77077 0.0
C2970 C 0.46946 0.9848 0.78053 0.0
C2971 C 0.50334 0.04212 0.78505 0.0
C2972 C 0.45242 0.99523 0.88101 0.0
C2973 C 0.45056 0.9833 0.87098 0.0
C2974 C 0.46303 0.9838 0.86361 0.0
C2975 C 0.47762 0.99661 0.86609 0.0
C2976 C 0.47959 0.00842 0.87657 0.0
C2977 C 0.46695 0.00746 0.88407 0.0
C2978 C 0.46057 0.9707 0.85299 0.0
C2979 C 0.49497 0.02221 0.8795 0.0
C2980 C 0.5636 0.96606 0.86672 0.0
C2981 C 0.56362 0.97825 0.87746 0.0
C2982 C 0.53997 0.97835 0.87731 0.0
C2983 C 0.52501 0.96784 0.87312 0.0
C2984 C 0.51549 0.97253 0.86655 0.0
C2985 C 0.52103 0.98817 0.86459 0.0
C2986 C 0.53587 0.99891 0.8698 0.0
C2987 C 0.54524 0.99387 0.87604 0.0
C2988 C 0.49969 0.96075 0.86128 0.0
C2989 C 0.54195 0.01569 0.86846 0.0
C2990 C 0.51848 0.00666 0.79061 0.0
C2991 C 0.50879 0.01062 0.78317 0.0
C2992 C 0.49759 0.01148 0.79168 0.0
C2993 C 0.49627 0.00884 0.80818 0.0
C2994 C 0.48529 0.00989 0.81712 0.0
C2995 C 0.4836 0.00658 0.8332 0.0
C2996 C 0.49277 0.00201 0.84095 0.0
C2997 C 0.4906 0.99786 0.85709 0.0
C2998 C 0.50017 0.99376 0.86456 0.0
C2999 C 0.51163 0.99322 0.85618 0.0
C3000 C 0.5136 0.9968 0.83986 0.0
C3001 C 0.52451 0.99567 0.83087 0.0
C3002 C 0.52619 0.99895 0.81478 0.0
C3003 C 0.51706 0.00356 0.80704 0.0
C3004 C 0.50596 0.00474 0.81586 0.0
C3005 C 0.5042 0.00132 0.83228 0.0
C3006 C 0.42654 0.00028 0.86878 0.0
C3007 C 0.42619 0.98963 0.88157 0.0
O3008 O 0.56051 0.999 0.75418 0.0
O3009 O 0.54903 0.9732 0.88259 0.0
O3010 O 0.44057 0.99529 0.88807 0.0
O3011 O 0.45463 0.01933 0.75706 0.0
H3012 H 0.54791 0.98408 0.7362 0.0
H3013 H 0.54539 0.96883 0.76015 0.0
H3014 H 0.56545 0.97647 0.76097 0.0
H3015 H 0.55435 0.96441 0.74442 0.0
H3016 H 0.56681 0.02233 0.77161 0.0
H3017 H 0.53039 0.97934 0.75485 0.0
H3018 H 0.54335 0.03574 0.78767 0.0
H3019 H 0.56243 0.03916 0.78709 0.0
H3020 H 0.54998 0.02834 0.80283 0.0
H3021 H 0.50602 0.96845 0.76503 0.0
H3022 H 0.50106 0.98296 0.76433 0.0
H3023 H 0.50333 0.97636 0.78318 0.0
H3024 H 0.44285 0.0002 0.74221 0.0
H3025 H 0.43049 0.01092 0.73085 0.0
H3026 H 0.43826 0.02585 0.74305 0.0
H3027 H 0.41198 0.00256 0.75874 0.0
H3028 H 0.45183 0.99259 0.76453 0.0
H3029 H 0.48008 0.04096 0.76824 0.0
H3030 H 0.46879 0.98308 0.79355 0.0
H3031 H 0.47877 0.98327 0.77609 0.0
H3032 H 0.45868 0.97596 0.77492 0.0
H3033 H 0.50364 0.05274 0.78181 0.0
H3034 H 0.51327 0.04215 0.77982 0.0
H3035 H 0.50441 0.04191 0.79817 0.0
H3036 H 0.42205 0.97826 0.87609 0.0
H3037 H 0.43949 0.97347 0.86898 0.0
H3038 H 0.46829 0.0165 0.89201 0.0
H3039 H 0.46221 0.97426 0.84043 0.0
H3040 H 0.44903 0.96072 0.8541 0.0
H3041 H 0.46896 0.96725 0.85588 0.0
H3042 H 0.49454 0.03066 0.88757 0.0
H3043 H 0.4999 0.02766 0.86804 0.0
H3044 H 0.50266 0.01875 0.88483 0.0
H3045 H 0.56775 0.98856 0.87016 0.0
H3046 H 0.5752 0.96986 0.86248 0.0
H3047 H 0.55614 0.96388 0.8562 0.0
H3048 H 0.55936 0.95529 0.87318 0.0
H3049 H 0.521 0.95589 0.87446 0.0
H3050 H 0.55665 0.00203 0.87991 0.0
H3051 H 0.49789 0.96229 0.84858 0.0
H3052 H 0.49136 0.96219 0.86831 0.0
H3053 H 0.49742 0.94902 0.86279 0.0
H3054 H 0.55283 0.02254 0.87505 0.0
H3055 H 0.53363 0.01865 0.87308 0.0
H3056 H 0.54381 0.01882 0.85577 0.0
H3057 H 0.50962 0.0125 0.77047 0.0
H3058 H 0.47781 0.0132 0.81176 0.0
H3059 H 0.47491 0.00754 0.83945 0.0
H3060 H 0.49843 0.99057 0.87694 0.0
H3061 H 0.53182 0.99209 0.83611 0.0
H3062 H 0.53469 0.99773 0.80847 0.0
H3063 H 0.41506 0.99593 0.8636 0.0
H3064 H 0.43416 0.00106 0.85906 0.0
H3065 H 0.43072 0.01182 0.87391 0.0
C3066 C 0.00988 0.55167 0.7182 0.0
C3067 C 0.00139 0.55444 0.73149 0.0
C3068 C 0.00703 0.54724 0.75693 0.0
C3069 C 0.99242 0.53676 0.76196 0.0
C3070 C 0.99012 0.52567 0.77298 0.0
C3071 C 0.00271 0.52518 0.77914 0.0
C3072 C 0.0175 0.53622 0.77469 0.0
C3073 C 0.01946 0.54725 0.76374 0.0
C3074 C 0.97424 0.51429 0.77779 0.0
C3075 C 0.03117 0.53608 0.78114 0.0
C3076 C 0.9971 0.41793 0.7459 0.0
C3077 C 0.0023 0.43248 0.75464 0.0
C3078 C 0.993 0.44897 0.76383 0.0
C3079 C 0.00652 0.4595 0.77168 0.0
C3080 C 0.00763 0.47195 0.78011 0.0
C3081 C 0.99482 0.47367 0.78114 0.0
C3082 C 0.98115 0.46303 0.77339 0.0
C3083 C 0.98047 0.45088 0.76471 0.0
C3084 C 0.02254 0.48328 0.78786 0.0
C3085 C 0.96726 0.46448 0.7743 0.0
C3086 C 0.995 0.45206 0.88128 0.0
C3087 C 0.00894 0.46304 0.87522 0.0
C3088 C 0.01049 0.47602 0.86805 0.0
C3089 C 0.99782 0.47797 0.86689 0.0
C3090 C 0.98397 0.4673 0.87374 0.0
C3091 C 0.98281 0.45453 0.88104 0.0
C3092 C 0.02557 0.48745 0.86134 0.0
C3093 C 0.9703 0.46911 0.87283 0.0
C3094 C 0.0244 0.59264 0.87057 0.0
C3095 C 0.01324 0.5812 0.88227 0.0
C3096 C 0.01444 0.55807 0.88038 0.0
C3097 C 0.02574 0.55465 0.87731 0.0
C3098 C 0.02233 0.54096 0.86971 0.0
C3099 C 0.00716 0.53034 0.86545 0.0
C3100 C 0.99556 0.53341 0.8693 0.0
C3101 C 0.99932 0.54728 0.87673 0.0
C3102 C 0.03496 0.53798 0.86596 0.0
C3103 C 0.97922 0.52211 0.86539 0.0
C3104 C 0.00033 0.51244 0.78924 0.0
C3105 C 0.99801 0.49924 0.78154 0.0
C3106 C 0.99588 0.48677 0.79013 0.0
C3107 C 0.99584 0.48734 0.80691 0.0
C3108 C 0.9933 0.47485 0.81591 0.0
C3109 C 0.99403 0.47576 0.83241 0.0
C3110 C 0.9973 0.4892 0.84056 0.0
C3111 C 0.99874 0.49045 0.85731 0.0
C3112 C 0.00174 0.50387 0.86508 0.0
C3113 C 0.00352 0.51625 0.85652 0.0
C3114 C 0.00235 0.5153 0.83972 0.0
C3115 C 0.00431 0.52761 0.8307 0.0
C3116 C 0.00344 0.52665 0.81417 0.0
C3117 C 0.00074 0.5134 0.80603 0.0
C3118 C 0.99853 0.5008 0.81488 0.0
C3119 C 0.9993 0.50174 0.83174 0.0
C3120 C 0.98461 0.41727 0.87099 0.0
C3121 C 0.99766 0.42973 0.88088 0.0
O3122 O 0.00951 0.55753 0.74564 0.0
O3123 O 0.01843 0.57174 0.88713 0.0
O3124 O 0.99305 0.43913 0.88766 0.0
O3125 O 0.99161 0.43693 0.7553 0.0
H3126 H 0.99015 0.54395 0.73228 0.0
H3127 H 0.01088 0.54164 0.72096 0.0
H3128 H 0.02144 0.5616 0.71697 0.0
H3129 H 0.00365 0.54943 0.70672 0.0
H3130 H 0.98281 0.53721 0.75732 0.0
H3131 H 0.03071 0.5556 0.76 0.0
H3132 H 0.97136 0.50283 0.77345 0.0
H3133 H 0.96577 0.51691 0.77293 0.0
H3134 H 0.97348 0.51395 0.79095 0.0
H3135 H 0.04191 0.54559 0.77666 0.0
H3136 H 0.03049 0.52524 0.77773 0.0
H3137 H 0.03136 0.53682 0.79432 0.0
H3138 H 0.01375 0.44176 0.75128 0.0
H3139 H 0.0047 0.42097 0.73531 0.0
H3140 H 0.98684 0.41564 0.73868 0.0
H3141 H 0.9964 0.40323 0.76364 0.0
H3142 H 0.01633 0.4582 0.7712 0.0
H3143 H 0.97009 0.44271 0.75865 0.0
H3144 H 0.02159 0.48221 0.80095 0.0
H3145 H 0.02551 0.49501 0.78499 0.0
H3146 H 0.0319 0.48153 0.78404 0.0
H3147 H 0.95712 0.45446 0.76901 0.0
H3148 H 0.96927 0.47471 0.76786 0.0
H3149 H 0.96493 0.46595 0.78687 0.0
H3150 H 0.00732 0.43612 0.87279 0.0
H3151 H 0.01861 0.46151 0.87611 0.0
H3152 H 0.97219 0.44611 0.88608 0.0
H3153 H 0.02477 0.48696 0.84817 0.0
H3154 H 0.03473 0.48531 0.86499 0.0
H3155 H 0.02866 0.49908 0.86528 0.0
H3156 H 0.96038 0.45987 0.87887 0.0
H3157 H 0.96722 0.46925 0.86019 0.0
H3158 H 0.97298 0.48012 0.87839 0.0
H3159 H 0.00218 0.57467 0.87591 0.0
H3160 H 0.02049 0.60043 0.86669 0.0
H3161 H 0.02518 0.58656 0.8599 0.0
H3162 H 0.03584 0.59939 0.87607 0.0
H3163 H 0.03734 0.56295 0.88047 0.0
H3164 H 0.99045 0.54958 0.87981 0.0
H3165 H 0.03501 0.53578 0.853 0.0
H3166 H 0.03307 0.52769 0.87217 0.0
H3167 H 0.04622 0.54761 0.8696 0.0
H3168 H 0.97143 0.52567 0.87027 0.0
H3169 H 0.97612 0.51088 0.87021 0.0
H3170 H 0.9776 0.52073 0.8523 0.0
H3171 H 0.99812 0.49875 0.76865 0.0
H3172 H 0.99085 0.46425 0.81028 0.0
H3173 H 0.99209 0.4658 0.83867 0.0
H3174 H 0.00291 0.50476 0.87793 0.0
H3175 H 0.00661 0.53817 0.8363 0.0
H3176 H 0.00509 0.53648 0.80783 0.0
H3177 H 0.98809 0.40964 0.86536 0.0
H3178 H 0.9813 0.42242 0.86143 0.0
H3179 H 0.97464 0.41048 0.87855 0.0
C3180 C 0.53193 0.5809 0.73264 0.0
C3181 C 0.54222 0.58507 0.74739 0.0
C3182 C 0.52743 0.56339 0.76476 0.0
C3183 C 0.51619 0.56691 0.76851 0.0
C3184 C 0.50381 0.5572 0.77781 0.0
C3185 C 0.50271 0.54381 0.78363 0.0
C3186 C 0.51414 0.54039 0.78017 0.0
C3187 C 0.52634 0.55024 0.77076 0.0
C3188 C 0.49178 0.56115 0.78128 0.0
C3189 C 0.51336 0.52625 0.78628 0.0
C3190 C 0.39467 0.45611 0.75809 0.0
C3191 C 0.40791 0.45755 0.74834 0.0
C3192 C 0.43014 0.47194 0.76606 0.0
C3193 C 0.44097 0.47084 0.77509 0.0
C3194 C 0.45229 0.48337 0.78359 0.0
C3195 C 0.45261 0.49734 0.78324 0.0
C3196 C 0.44174 0.49861 0.77406 0.0
C3197 C 0.43065 0.48591 0.76546 0.0
C3198 C 0.46389 0.48166 0.793 0.0
C3199 C 0.44179 0.51334 0.77347 0.0
C3200 C 0.42018 0.48358 0.88222 0.0
C3201 C 0.43103 0.47973 0.87799 0.0
C3202 C 0.4447 0.49044 0.87116 0.0
C3203 C 0.4474 0.50519 0.86826 0.0
C3204 C 0.43674 0.50926 0.8732 0.0
C3205 C 0.42334 0.49841 0.88036 0.0
C3206 C 0.45609 0.48588 0.86671 0.0
C3207 C 0.4393 0.52491 0.87049 0.0
C3208 C 0.54753 0.6082 0.88073 0.0
C3209 C 0.54263 0.59865 0.89575 0.0
C3210 C 0.52525 0.57286 0.8851 0.0
C3211 C 0.52387 0.5588 0.88186 0.0
C3212 C 0.51103 0.54716 0.87406 0.0
C3213 C 0.49928 0.54972 0.86932 0.0
C3214 C 0.50037 0.56377 0.87294 0.0
C3215 C 0.51333 0.57521 0.88085 0.0
C3216 C 0.51016 0.53225 0.87051 0.0
C3217 C 0.48799 0.5668 0.86811 0.0
C3218 C 0.48935 0.53313 0.79288 0.0
C3219 C 0.47731 0.52108 0.78463 0.0
C3220 C 0.46435 0.51055 0.79252 0.0
C3221 C 0.46314 0.5122 0.80906 0.0
C3222 C 0.45 0.50217 0.81724 0.0
C3223 C 0.44912 0.50357 0.83361 0.0
C3224 C 0.46143 0.51492 0.84247 0.0
C3225 C 0.46089 0.51604 0.85921 0.0
C3226 C 0.47332 0.52752 0.86762 0.0
C3227 C 0.48633 0.53803 0.85972 0.0
C3228 C 0.48706 0.5371 0.843 0.0
C3229 C 0.49997 0.54752 0.83469 0.0
C3230 C 0.50071 0.54632 0.81827 0.0
C3231 C 0.4886 0.53465 0.80953 0.0
C3232 C 0.47543 0.52413 0.81763 0.0
C3233 C 0.47462 0.52542 0.83438 0.0
C3234 C 0.38242 0.45611 0.87672 0.0
C3235 C 0.3977 0.45848 0.88226 0.0
O3236 O 0.53936 0.57213 0.75532 0.0
O3237 O 0.53834 0.58375 0.89209 0.0
O3238 O 0.40655 0.47321 0.88804 0.0
O3239 O 0.41945 0.45921 0.75832 0.0
H3240 H 0.5402 0.59255 0.75547 0.0
H3241 H 0.53354 0.57319 0.72452 0.0
H3242 H 0.51987 0.57513 0.73605 0.0
H3243 H 0.53449 0.59129 0.72615 0.0
H3244 H 0.51685 0.57708 0.76412 0.0
H3245 H 0.53507 0.54763 0.76789 0.0
H3246 H 0.48062 0.55185 0.77692 0.0
H3247 H 0.49412 0.57185 0.77566 0.0
H3248 H 0.49097 0.56233 0.79432 0.0
H3249 H 0.52362 0.5257 0.78339 0.0
H3250 H 0.50335 0.51613 0.78097 0.0
H3251 H 0.51195 0.52574 0.79937 0.0
H3252 H 0.41217 0.46752 0.74053 0.0
H3253 H 0.38535 0.45455 0.75006 0.0
H3254 H 0.39826 0.46647 0.76548 0.0
H3255 H 0.39034 0.44629 0.76611 0.0
H3256 H 0.44052 0.46005 0.77543 0.0
H3257 H 0.42241 0.48702 0.75847 0.0
H3258 H 0.46234 0.48282 0.80588 0.0
H3259 H 0.47546 0.49076 0.78997 0.0
H3260 H 0.46297 0.47051 0.79077 0.0
H3261 H 0.43202 0.51226 0.76658 0.0
H3262 H 0.45238 0.52209 0.76792 0.0
H3263 H 0.44154 0.5174 0.78571 0.0
H3264 H 0.40294 0.4565 0.87162 0.0
H3265 H 0.42879 0.46836 0.88 0.0
H3266 H 0.41496 0.5013 0.88395 0.0
H3267 H 0.45605 0.48448 0.85361 0.0
H3268 H 0.45352 0.47503 0.87216 0.0
H3269 H 0.46765 0.49483 0.87047 0.0
H3270 H 0.42951 0.526 0.8742 0.0
H3271 H 0.44145 0.52769 0.85772 0.0
H3272 H 0.44946 0.53337 0.87732 0.0
H3273 H 0.53301 0.59911 0.9012 0.0
H3274 H 0.55131 0.6202 0.88379 0.0
H3275 H 0.53798 0.60403 0.8721 0.0
H3276 H 0.55693 0.60765 0.87488 0.0
H3277 H 0.53306 0.55704 0.88527 0.0
H3278 H 0.5141 0.58595 0.88342 0.0
H3279 H 0.51029 0.5306 0.85746 0.0
H3280 H 0.49939 0.52277 0.87496 0.0
H3281 H 0.51973 0.53167 0.87598 0.0
H3282 H 0.4904 0.57823 0.87201 0.0
H3283 H 0.47712 0.55818 0.87329 0.0
H3284 H 0.48653 0.5658 0.85498 0.0
H3285 H 0.47813 0.51976 0.77192 0.0
H3286 H 0.44024 0.49311 0.81108 0.0
H3287 H 0.4387 0.49552 0.83923 0.0
H3288 H 0.4729 0.52825 0.88046 0.0
H3289 H 0.50968 0.5567 0.84079 0.0
H3290 H 0.51096 0.5546 0.81253 0.0
H3291 H 0.37513 0.44438 0.87195 0.0
H3292 H 0.38414 0.46413 0.86713 0.0
H3293 H 0.37655 0.45813 0.88669 0.0
C3294 C 0.64101 0.74341 0.60611 0.0
C3295 C 0.63296 0.75048 0.59872 0.0
C3296 C 0.63773 0.77529 0.59045 0.0
C3297 C 0.62322 0.77004 0.58394 0.0
C3298 C 0.61979 0.77986 0.57591 0.0
C3299 C 0.63122 0.79515 0.5739 0.0
C3300 C 0.64584 0.80045 0.58042 0.0
C3301 C 0.64882 0.79048 0.58878 0.0
C3302 C 0.60394 0.77386 0.56954 0.0
C3303 C 0.65833 0.81665 0.57854 0.0
C3304 C 0.60571 0.86219 0.63485 0.0
C3305 C 0.61851 0.86713 0.62297 0.0
C3306 C 0.61475 0.85503 0.59706 0.0
C3307 C 0.6294 0.85842 0.59333 0.0
C3308 C 0.63175 0.84919 0.58264 0.0
C3309 C 0.61914 0.83606 0.57591 0.0
C3310 C 0.60432 0.83273 0.5796 0.0
C3311 C 0.60234 0.84251 0.58986 0.0
C3312 C 0.64771 0.85332 0.57879 0.0
C3313 C 0.59057 0.81865 0.57307 0.0
C3314 C 0.59732 0.84569 0.4731 0.0
C3315 C 0.61256 0.85321 0.47791 0.0
C3316 C 0.61853 0.84546 0.48603 0.0
C3317 C 0.60892 0.83004 0.48978 0.0
C3318 C 0.59356 0.82246 0.4848 0.0
C3319 C 0.58806 0.83035 0.47625 0.0
C3320 C 0.63511 0.85373 0.49048 0.0
C3321 C 0.58291 0.80603 0.48848 0.0
C3322 C 0.62222 0.73701 0.47769 0.0
C3323 C 0.62193 0.74417 0.46192 0.0
C3324 C 0.62817 0.76977 0.47097 0.0
C3325 C 0.63984 0.78484 0.47229 0.0
C3326 C 0.63798 0.79567 0.48081 0.0
C3327 C 0.624 0.79127 0.48808 0.0
C3328 C 0.61197 0.77612 0.48646 0.0
C3329 C 0.61417 0.7655 0.47796 0.0
C3330 C 0.65103 0.81173 0.4823 0.0
C3331 C 0.59685 0.77109 0.49392 0.0
C3332 C 0.62789 0.80552 0.5649 0.0
C3333 C 0.62522 0.81569 0.57349 0.0
C3334 C 0.62151 0.82542 0.56582 0.0
C3335 C 0.6201 0.8248 0.54904 0.0
C3336 C 0.61599 0.8341 0.54091 0.0
C3337 C 0.6141 0.83299 0.52446 0.0
C3338 C 0.61676 0.82292 0.51542 0.0
C3339 C 0.61484 0.82166 0.49868 0.0
C3340 C 0.6176 0.81151 0.49012 0.0
C3341 C 0.62208 0.80239 0.49781 0.0
C3342 C 0.62405 0.80349 0.51451 0.0
C3343 C 0.62862 0.79453 0.5226 0.0
C3344 C 0.63006 0.79531 0.53906 0.0
C3345 C 0.62697 0.80505 0.54811 0.0
C3346 C 0.62283 0.81456 0.54018 0.0
C3347 C 0.6213 0.81373 0.52335 0.0
C3348 C 0.57942 0.86713 0.46861 0.0
C3349 C 0.59449 0.86748 0.46759 0.0
O3350 O 0.64146 0.76616 0.59838 0.0
O3351 O 0.63101 0.75981 0.46302 0.0
O3352 O 0.59126 0.85274 0.465 0.0
O3353 O 0.61234 0.8636 0.60773 0.0
H3354 H 0.62121 0.74608 0.60297 0.0
H3355 H 0.65089 0.75268 0.61304 0.0
H3356 H 0.64364 0.73128 0.58709 0.0
H3357 H 0.63432 0.73771 0.61699 0.0
H3358 H 0.61446 0.75833 0.58517 0.0
H3359 H 0.65996 0.79445 0.59387 0.0
H3360 H 0.59988 0.78175 0.57269 0.0
H3361 H 0.59586 0.7625 0.57418 0.0
H3362 H 0.60391 0.77295 0.55638 0.0
H3363 H 0.6695 0.81845 0.58239 0.0
H3364 H 0.6558 0.82419 0.58582 0.0
H3365 H 0.65903 0.82003 0.56596 0.0
H3366 H 0.6243 0.86066 0.62564 0.0
H3367 H 0.61026 0.86453 0.64722 0.0
H3368 H 0.59766 0.84983 0.63344 0.0
H3369 H 0.59947 0.86829 0.63282 0.0
H3370 H 0.63896 0.86832 0.59879 0.0
H3371 H 0.59107 0.84008 0.59282 0.0
H3372 H 0.64887 0.85213 0.56582 0.0
H3373 H 0.65045 0.84548 0.58491 0.0
H3374 H 0.65608 0.86508 0.5827 0.0
H3375 H 0.57998 0.81671 0.57871 0.0
H3376 H 0.59171 0.80856 0.57493 0.0
H3377 H 0.58955 0.81971 0.56009 0.0
H3378 H 0.60051 0.87202 0.4792 0.0
H3379 H 0.61984 0.865 0.47503 0.0
H3380 H 0.57636 0.82464 0.47227 0.0
H3381 H 0.63643 0.85547 0.50357 0.0
H3382 H 0.64142 0.86496 0.48484 0.0
H3383 H 0.64025 0.84686 0.48692 0.0
H3384 H 0.57093 0.8025 0.48588 0.0
H3385 H 0.584 0.80389 0.50118 0.0
H3386 H 0.5859 0.79884 0.48118 0.0
H3387 H 0.61012 0.74108 0.45893 0.0
H3388 H 0.61513 0.72447 0.47671 0.0
H3389 H 0.61767 0.74092 0.4874 0.0
H3390 H 0.63397 0.74014 0.48095 0.0
H3391 H 0.65056 0.78807 0.46681 0.0
H3392 H 0.60493 0.75393 0.47696 0.0
H3393 H 0.65391 0.81491 0.49504 0.0
H3394 H 0.64769 0.81957 0.47722 0.0
H3395 H 0.66125 0.8133 0.47611 0.0
H3396 H 0.5883 0.7592 0.49062 0.0
H3397 H 0.59254 0.77859 0.49023 0.0
H3398 H 0.59818 0.77204 0.50706 0.0
H3399 H 0.62598 0.816 0.58637 0.0
H3400 H 0.61397 0.84218 0.54721 0.0
H3401 H 0.61058 0.84018 0.51891 0.0
H3402 H 0.61593 0.81046 0.47732 0.0
H3403 H 0.63105 0.78673 0.51629 0.0
H3404 H 0.63356 0.78809 0.54462 0.0
H3405 H 0.57324 0.86343 0.45703 0.0
H3406 H 0.58116 0.87843 0.47201 0.0
H3407 H 0.57228 0.85903 0.47781 0.0
C3408 C 0.11982 0.72488 0.60075 0.0
C3409 C 0.11803 0.73789 0.60747 0.0
C3410 C 0.13249 0.75959 0.58993 0.0
C3411 C 0.13098 0.76941 0.57982 0.0
C3412 C 0.14363 0.78176 0.5732 0.0
C3413 C 0.1582 0.78399 0.57631 0.0
C3414 C 0.15988 0.77416 0.58666 0.0
C3415 C 0.14701 0.76216 0.59357 0.0
C3416 C 0.14132 0.79233 0.5628 0.0
C3417 C 0.17522 0.77618 0.59022 0.0
C3418 C 0.2527 0.89794 0.61573 0.0
C3419 C 0.24603 0.88272 0.60798 0.0
C3420 C 0.22144 0.86173 0.5994 0.0
C3421 C 0.22677 0.85256 0.59304 0.0
C3422 C 0.21726 0.8396 0.58381 0.0
C3423 C 0.20226 0.836 0.58039 0.0
C3424 C 0.19686 0.8452 0.58682 0.0
C3425 C 0.20648 0.85781 0.59647 0.0
C3426 C 0.22329 0.82975 0.57772 0.0
C3427 C 0.181 0.84184 0.58337 0.0
C3428 C 0.22828 0.86251 0.47763 0.0
C3429 C 0.23378 0.85365 0.48417 0.0
C3430 C 0.22416 0.84044 0.49246 0.0
C3431 C 0.20882 0.83615 0.49442 0.0
C3432 C 0.20331 0.84514 0.48798 0.0
C3433 C 0.21313 0.85818 0.47962 0.0
C3434 C 0.23035 0.83104 0.49912 0.0
C3435 C 0.18705 0.84096 0.48995 0.0
C3436 C 0.12763 0.71378 0.47501 0.0
C3437 C 0.12888 0.72921 0.47325 0.0
C3438 C 0.15209 0.75366 0.476 0.0
C3439 C 0.16751 0.75923 0.47837 0.0
C3440 C 0.17664 0.77301 0.48656 0.0
C3441 C 0.1702 0.78161 0.49203 0.0
C3442 C 0.15479 0.7765 0.48865 0.0
C3443 C 0.14584 0.76246 0.48084 0.0
C3444 C 0.19304 0.77814 0.48979 0.0
C3445 C 0.14768 0.78569 0.4936 0.0
C3446 C 0.17153 0.7965 0.56845 0.0
C3447 C 0.18092 0.80966 0.57735 0.0
C3448 C 0.19229 0.82262 0.57012 0.0
C3449 C 0.19399 0.82267 0.55343 0.0
C3450 C 0.20436 0.83587 0.54554 0.0
C3451 C 0.20586 0.8358 0.52911 0.0
C3452 C 0.19715 0.82248 0.51995 0.0
C3453 C 0.1985 0.8223 0.50324 0.0
C3454 C 0.18962 0.80886 0.4945 0.0
C3455 C 0.17936 0.79549 0.502 0.0
C3456 C 0.17783 0.79547 0.5187 0.0
C3457 C 0.16765 0.78222 0.52666 0.0
C3458 C 0.16566 0.7825 0.54297 0.0
C3459 C 0.174 0.79594 0.55201 0.0
C3460 C 0.18496 0.8092 0.5444 0.0
C3461 C 0.18669 0.80904 0.52768 0.0
C3462 C 0.25725 0.89214 0.45246 0.0
C3463 C 0.25219 0.88109 0.46555 0.0
O3464 O 0.1196 0.74774 0.59556 0.0
O3465 O 0.14355 0.73973 0.46912 0.0
O3466 O 0.23708 0.87518 0.46921 0.0
O3467 O 0.23037 0.87441 0.60832 0.0
H3468 H 0.12674 0.74407 0.61694 0.0
H3469 H 0.13128 0.72925 0.5959 0.0
H3470 H 0.11145 0.71869 0.59103 0.0
H3471 H 0.11817 0.71682 0.61029 0.0
H3472 H 0.11975 0.7674 0.57718 0.0
H3473 H 0.14839 0.75475 0.60152 0.0
H3474 H 0.1499 0.80432 0.56562 0.0
H3475 H 0.12988 0.79084 0.56419 0.0
H3476 H 0.1426 0.79001 0.55016 0.0
H3477 H 0.17447 0.76664 0.59707 0.0
H3478 H 0.1821 0.78683 0.59722 0.0
H3479 H 0.18125 0.77715 0.57898 0.0
H3480 H 0.2515 0.87613 0.61142 0.0
H3481 H 0.25956 0.89766 0.62607 0.0
H3482 H 0.24363 0.89773 0.62341 0.0
H3483 H 0.26251 0.91302 0.59674 0.0
H3484 H 0.23827 0.85533 0.5954 0.0
H3485 H 0.20246 0.86493 0.60147 0.0
H3486 H 0.21495 0.81761 0.57958 0.0
H3487 H 0.23413 0.83257 0.58365 0.0
H3488 H 0.22525 0.83136 0.56477 0.0
H3489 H 0.17924 0.85121 0.58741 0.0
H3490 H 0.17282 0.83139 0.58955 0.0
H3491 H 0.17844 0.8398 0.57043 0.0
H3492 H 0.25974 0.88471 0.47627 0.0
H3493 H 0.24553 0.85693 0.48282 0.0
H3494 H 0.209 0.86509 0.47455 0.0
H3495 H 0.22946 0.83082 0.51226 0.0
H3496 H 0.24236 0.83551 0.49597 0.0
H3497 H 0.22353 0.81918 0.49459 0.0
H3498 H 0.18468 0.84947 0.48478 0.0
H3499 H 0.18423 0.83987 0.50276 0.0
H3500 H 0.17951 0.8298 0.48408 0.0
H3501 H 0.1262 0.73225 0.48508 0.0
H3502 H 0.11601 0.70515 0.47852 0.0
H3503 H 0.13566 0.71453 0.48438 0.0
H3504 H 0.13039 0.71007 0.46367 0.0
H3505 H 0.17225 0.75243 0.47433 0.0
H3506 H 0.13398 0.75837 0.47852 0.0
H3507 H 0.19558 0.78032 0.50272 0.0
H3508 H 0.20032 0.78893 0.48364 0.0
H3509 H 0.19605 0.76966 0.48566 0.0
H3510 H 0.13661 0.78164 0.48755 0.0
H3511 H 0.15529 0.79783 0.49092 0.0
H3512 H 0.14585 0.78482 0.50661 0.0
H3513 H 0.17919 0.80991 0.59004 0.0
H3514 H 0.21132 0.84646 0.55196 0.0
H3515 H 0.21394 0.84632 0.52369 0.0
H3516 H 0.19065 0.80884 0.48168 0.0
H3517 H 0.16094 0.77152 0.52036 0.0
H3518 H 0.15751 0.77201 0.54843 0.0
H3519 H 0.26242 0.8814 0.43391 0.0
H3520 H 0.26597 0.90324 0.45813 0.0
H3521 H 0.24849 0.89562 0.45111 0.0
C3522 C 0.13817 0.38856 0.61805 0.0
C3523 C 0.12902 0.37957 0.60326 0.0
C3524 C 0.14575 0.37232 0.58972 0.0
C3525 C 0.15655 0.38694 0.58487 0.0
C3526 C 0.16923 0.38941 0.57622 0.0
C3527 C 0.17104 0.37699 0.57208 0.0
C3528 C 0.16019 0.36226 0.57685 0.0
C3529 C 0.14772 0.36015 0.58568 0.0
C3530 C 0.18072 0.40531 0.5715 0.0
C3531 C 0.16174 0.34877 0.57255 0.0
C3532 C 0.28021 0.40864 0.60672 0.0
C3533 C 0.26719 0.39217 0.60765 0.0
C3534 C 0.24803 0.38599 0.58681 0.0
C3535 C 0.23909 0.37417 0.57616 0.0
C3536 C 0.22617 0.373 0.56903 0.0
C3537 C 0.2227 0.38458 0.57183 0.0
C3538 C 0.23165 0.39655 0.58274 0.0
C3539 C 0.24405 0.39694 0.5904 0.0
C3540 C 0.21646 0.35946 0.55832 0.0
C3541 C 0.22842 0.40916 0.58604 0.0
C3542 C 0.25286 0.40066 0.4717 0.0
C3543 C 0.24331 0.38594 0.47709 0.0
C3544 C 0.22961 0.38213 0.48446 0.0
C3545 C 0.22557 0.39336 0.4867 0.0
C3546 C 0.23493 0.40803 0.48069 0.0
C3547 C 0.24838 0.41141 0.47304 0.0
C3548 C 0.2196 0.36617 0.49007 0.0
C3549 C 0.23094 0.42025 0.48271 0.0
C3550 C 0.11754 0.3727 0.44057 0.0
C3551 C 0.12854 0.37894 0.45409 0.0
C3552 C 0.14611 0.37315 0.46774 0.0
C3553 C 0.14959 0.36188 0.47075 0.0
C3554 C 0.16238 0.36501 0.47984 0.0
C3555 C 0.17198 0.37986 0.48594 0.0
C3556 C 0.16856 0.39135 0.48294 0.0
C3557 C 0.15558 0.38786 0.47397 0.0
C3558 C 0.16562 0.35246 0.48296 0.0
C3559 C 0.17861 0.40731 0.48925 0.0
C3560 C 0.18429 0.37949 0.56267 0.0
C3561 C 0.19691 0.381 0.57082 0.0
C3562 C 0.21013 0.38441 0.56279 0.0
C3563 C 0.21094 0.38677 0.54621 0.0
C3564 C 0.22441 0.39141 0.53792 0.0
C3565 C 0.22485 0.39274 0.52149 0.0
C3566 C 0.21181 0.38943 0.5127 0.0
C3567 C 0.21191 0.38994 0.49591 0.0
C3568 C 0.19882 0.38688 0.48758 0.0
C3569 C 0.18553 0.3833 0.49557 0.0
C3570 C 0.18517 0.3826 0.51234 0.0
C3571 C 0.17196 0.37892 0.52074 0.0
C3572 C 0.17168 0.37807 0.53724 0.0
C3573 C 0.18453 0.38064 0.54594 0.0
C3574 C 0.19794 0.38436 0.5377 0.0
C3575 C 0.19832 0.38552 0.5209 0.0
C3576 C 0.29164 0.41459 0.47428 0.0
C3577 C 0.27648 0.40042 0.47023 0.0
O3578 O 0.1334 0.36939 0.59834 0.0
O3579 O 0.13366 0.36935 0.45866 0.0
O3580 O 0.26643 0.40482 0.46511 0.0
O3581 O 0.26069 0.38673 0.59279 0.0
H3582 H 0.1309 0.38758 0.59356 0.0
H3583 H 0.15039 0.39531 0.61539 0.0
H3584 H 0.1367 0.38081 0.62786 0.0
H3585 H 0.13445 0.39651 0.62212 0.0
H3586 H 0.15528 0.39654 0.58783 0.0
H3587 H 0.13937 0.34891 0.58945 0.0
H3588 H 0.19219 0.40811 0.5755 0.0
H3589 H 0.17826 0.41389 0.5766 0.0
H3590 H 0.18085 0.40608 0.55836 0.0
H3591 H 0.15192 0.33794 0.57643 0.0
H3592 H 0.17215 0.35009 0.5782 0.0
H3593 H 0.16289 0.34815 0.55949 0.0
H3594 H 0.25865 0.39187 0.616 0.0
H3595 H 0.28613 0.41253 0.61843 0.0
H3596 H 0.27591 0.41625 0.60356 0.0
H3597 H 0.28849 0.40982 0.59759 0.0
H3598 H 0.24219 0.3657 0.57358 0.0
H3599 H 0.25083 0.40607 0.59872 0.0
H3600 H 0.21976 0.36249 0.54579 0.0
H3601 H 0.20431 0.35579 0.55938 0.0
H3602 H 0.21797 0.34973 0.56112 0.0
H3603 H 0.23773 0.41874 0.59287 0.0
H3604 H 0.21792 0.40473 0.59303 0.0
H3605 H 0.2266 0.41351 0.57474 0.0
H3606 H 0.27247 0.39386 0.48136 0.0
H3607 H 0.24651 0.37744 0.4755 0.0
H3608 H 0.25574 0.42266 0.46857 0.0
H3609 H 0.22027 0.36606 0.50323 0.0
H3610 H 0.22302 0.35825 0.48512 0.0
H3611 H 0.20764 0.36197 0.48666 0.0
H3612 H 0.23991 0.43134 0.47828 0.0
H3613 H 0.22902 0.42161 0.49545 0.0
H3614 H 0.22027 0.4169 0.47613 0.0
H3615 H 0.12525 0.38364 0.46432 0.0
H3616 H 0.10665 0.371 0.44561 0.0
H3617 H 0.11345 0.36021 0.43964 0.0
H3618 H 0.12892 0.38777 0.42192 0.0
H3619 H 0.14221 0.35057 0.46593 0.0
H3620 H 0.15295 0.39668 0.47184 0.0
H3621 H 0.16649 0.3513 0.49596 0.0
H3622 H 0.17665 0.35531 0.47774 0.0
H3623 H 0.15674 0.34139 0.47786 0.0
H3624 H 0.1748 0.41514 0.48526 0.0
H3625 H 0.19039 0.41167 0.48528 0.0
H3626 H 0.17876 0.40733 0.50244 0.0
H3627 H 0.19639 0.37944 0.58357 0.0
H3628 H 0.23478 0.39399 0.54403 0.0
H3629 H 0.23551 0.39622 0.51577 0.0
H3630 H 0.19893 0.38719 0.4747 0.0
H3631 H 0.16168 0.37664 0.51467 0.0
H3632 H 0.16119 0.37515 0.54306 0.0
H3633 H 0.29631 0.42179 0.46368 0.0
H3634 H 0.29988 0.41141 0.47862 0.0
H3635 H 0.29011 0.42131 0.48379 0.0
H3636 H 0.98268 0.37481 0.09201 0.0
H3637 H 0.01212 0.41003 0.06026 0.0
H3638 H 0.01829 0.42912 0.08113 0.0
H3639 H 0.01649 0.43571 0.10878 0.0
H3640 H 0.98701 0.40078 0.14072 0.0
H3641 H 0.97982 0.38165 0.11948 0.0
C3642 C 0.99038 0.38668 0.08968 0.0
C3643 C 0.99689 0.39099 0.07461 0.0
C3644 C 0.99393 0.39763 0.10178 0.0
C3645 C 0.00679 0.40642 0.07169 0.0
C3646 C 0.01042 0.41735 0.08366 0.0
C3647 C 0.00827 0.42395 0.11102 0.0
C3648 C 0.00206 0.41969 0.12623 0.0
C3649 C 0.00418 0.41307 0.09878 0.0
C3650 C 0.99174 0.40434 0.12903 0.0
C3651 C 0.98768 0.39342 0.11692 0.0
H3652 H 0.62765 0.575 0.06486 0.0
H3653 H 0.62407 0.60761 0.0947 0.0
H3654 H 0.61231 0.5888 0.11542 0.0
H3655 H 0.60275 0.56295 0.1249 0.0
H3656 H 0.60715 0.53061 0.09542 0.0
H3657 H 0.61865 0.54935 0.07461 0.0
C3658 C 0.62426 0.57795 0.0759 0.0
C3659 C 0.62672 0.59266 0.07826 0.0
C3660 C 0.61758 0.56711 0.08777 0.0
C3661 C 0.62244 0.59641 0.09268 0.0
C3662 C 0.61564 0.58564 0.10448 0.0
C3663 C 0.60628 0.56005 0.11393 0.0
C3664 C 0.60409 0.54542 0.11171 0.0
C3665 C 0.61312 0.57095 0.10214 0.0
C3666 C 0.60867 0.54178 0.09741 0.0
C3667 C 0.61528 0.55249 0.08553 0.0
H3668 H 0.39685 0.02636 0.09101 0.0
H3669 H 0.39874 0.99296 0.06079 0.0
H3670 H 0.41279 0.98848 0.08132 0.0
H3671 H 0.42384 0.99341 0.10815 0.0
H3672 H 0.42225 0.02687 0.13848 0.0
H3673 H 0.40859 0.03181 0.11774 0.0
C3674 C 0.40035 0.01811 0.08895 0.0
C3675 C 0.39683 0.01007 0.07438 0.0
C3676 C 0.40844 0.01557 0.10083 0.0
C3677 C 0.40152 0.99948 0.07181 0.0
C3678 C 0.40946 0.99682 0.08358 0.0
C3679 C 0.42071 0.00195 0.11012 0.0
C3680 C 0.42434 0.01001 0.12469 0.0
C3681 C 0.41294 0.00476 0.09815 0.0
C3682 C 0.41982 0.02073 0.12724 0.0
C3683 C 0.41197 0.02351 0.11542 0.0
H3684 H 0.37199 0.97522 0.92787 0.0
H3685 H 0.40805 0.01245 0.95444 0.0
H3686 H 0.42614 0.015 0.93425 0.0
H3687 H 0.4317 0.00687 0.90891 0.0
H3688 H 0.3959 0.96928 0.88249 0.0
H3689 H 0.37767 0.9668 0.90259 0.0
C3690 C 0.38381 0.98389 0.92918 0.0
C3691 C 0.3887 0.99357 0.94264 0.0
C3692 C 0.39419 0.98524 0.91756 0.0
C3693 C 0.40406 0.00472 0.94428 0.0
C3694 C 0.41439 0.00624 0.93271 0.0
C3695 C 0.41995 0.998 0.90766 0.0
C3696 C 0.41521 0.98802 0.89443 0.0
C3697 C 0.40959 0.99656 0.91931 0.0
C3698 C 0.39985 0.97689 0.89275 0.0
C3699 C 0.38944 0.9755 0.9042 0.0
H3700 H 0.02223 0.39713 0.92535 0.0
H3701 H 0.99038 0.39869 0.95744 0.0
H3702 H 0.98399 0.41182 0.93774 0.0
H3703 H 0.98672 0.42203 0.9111 0.0
H3704 H 0.01876 0.421 0.87892 0.0
H3705 H 0.02566 0.4083 0.89884 0.0
C3706 C 0.01393 0.40039 0.928 0.0
C3707 C 0.00686 0.39702 0.94284 0.0
C3708 C 0.0103 0.40798 0.9166 0.0
C3709 C 0.99616 0.40137 0.94619 0.0
C3710 C 0.99241 0.40878 0.93489 0.0
C3711 C 0.99539 0.41926 0.90853 0.0
C3712 C 0.00247 0.42275 0.89368 0.0
C3713 C 0.99935 0.41208 0.92004 0.0
C3714 C 0.01337 0.41867 0.89039 0.0
C3715 C 0.01728 0.41138 0.90174 0.0
H3716 H 0.60089 0.61981 0.93915 0.0
H3717 H 0.58042 0.6409 0.96584 0.0
H3718 H 0.55956 0.63112 0.94655 0.0
H3719 H 0.54696 0.6163 0.92222 0.0
H3720 H 0.56772 0.59562 0.89539 0.0
H3721 H 0.58879 0.60574 0.91447 0.0
C3722 C 0.59199 0.62245 0.94064 0.0
C3723 C 0.59222 0.63106 0.95395 0.0
C3724 C 0.58005 0.61683 0.9295 0.0
C3725 C 0.58043 0.63415 0.95582 0.0
C3726 C 0.56853 0.62862 0.94476 0.0
C3727 C 0.55608 0.61397 0.92062 0.0
C3728 C 0.55564 0.60497 0.90761 0.0
C3729 C 0.56816 0.61985 0.93162 0.0
C3730 C 0.56768 0.60229 0.90548 0.0
C3731 C 0.57974 0.60811 0.91635 0.0
H3732 H 0.99712 0.61472 0.9358 0.0
H3733 H 0.0413 0.62605 0.95326 0.0
H3734 H 0.04365 0.61144 0.93136 0.0
H3735 H 0.03333 0.59586 0.90687 0.0
H3736 H 0.9894 0.58514 0.88924 0.0
H3737 H 0.98684 0.59923 0.9115 0.0
C3738 C 0.00734 0.61414 0.93473 0.0
C3739 C 0.01905 0.62155 0.94611 0.0
C3740 C 0.00864 0.6058 0.92209 0.0
C3741 C 0.03207 0.62037 0.94473 0.0
C3742 C 0.03345 0.61207 0.93218 0.0
C3743 C 0.02316 0.59654 0.90801 0.0
C3744 C 0.0115 0.58934 0.89654 0.0
C3745 C 0.02182 0.60477 0.92077 0.0
C3746 C 0.99846 0.59045 0.898 0.0
C3747 C 0.99701 0.59854 0.91069 0.0
H3748 H 0.384 0.40276 0.92516 0.0
H3749 H 0.37629 0.42944 0.95991 0.0
H3750 H 0.38387 0.44969 0.94083 0.0
H3751 H 0.39129 0.4592 0.91374 0.0
H3752 H 0.39841 0.43225 0.87886 0.0
H3753 H 0.39237 0.41268 0.89846 0.0
C3754 C 0.38395 0.413 0.92855 0.0
C3755 C 0.37951 0.41454 0.94392 0.0
C3756 C 0.3882 0.42454 0.91748 0.0
C3757 C 0.37977 0.428 0.94821 0.0
C3758 C 0.38402 0.43955 0.93727 0.0
C3759 C 0.39174 0.44914 0.91054 0.0
C3760 C 0.39547 0.44724 0.89494 0.0
C3761 C 0.3881 0.43788 0.92182 0.0
C3762 C 0.39574 0.43403 0.89085 0.0
C3763 C 0.39223 0.42283 0.90202 0.0
H3764 H 0.61633 0.00026 0.92887 0.0
H3765 H 0.58328 0.95912 0.95116 0.0
H3766 H 0.56519 0.95426 0.92962 0.0
H3767 H 0.55897 0.96149 0.90414 0.0
H3768 H 0.59217 0.00253 0.88186 0.0
H3769 H 0.61005 0.00761 0.90365 0.0
C3770 C 0.60521 0.99016 0.92894 0.0
C3771 C 0.60118 0.98002 0.94154 0.0
C3772 C 0.59489 0.98746 0.91655 0.0
C3773 C 0.58663 0.96714 0.94163 0.0
C3774 C 0.5763 0.96433 0.9293 0.0
C3775 C 0.57007 0.97162 0.90418 0.0
C3776 C 0.57418 0.98174 0.89154 0.0
C3777 C 0.58032 0.97441 0.9167 0.0
C3778 C 0.58869 0.99468 0.89156 0.0
C3779 C 0.59892 0.99756 0.90398 0.0
H3780 H 0.61179 0.00327 0.08651 0.0
H3781 H 0.63087 0.0493 0.071 0.0
H3782 H 0.61771 0.05437 0.09216 0.0
H3783 H 0.60151 0.04597 0.11576 0.0
H3784 H 0.58361 0.00033 0.1319 0.0
H3785 H 0.59564 0.99489 0.10986 0.0
C3786 C 0.61322 0.01447 0.08783 0.0
C3787 C 0.62241 0.0259 0.07721 0.0
C3788 C 0.60582 0.01738 0.10016 0.0
C3789 C 0.62379 0.04024 0.0789 0.0
C3790 C 0.61633 0.04318 0.09106 0.0
C3791 C 0.60023 0.03484 0.11439 0.0
C3792 C 0.59173 0.02359 0.12548 0.0
C3793 C 0.6074 0.03186 0.10183 0.0
C3794 C 0.5901 0.00918 0.12355 0.0
C3795 C 0.597 0.00607 0.11097 0.0
H3796 H 0.9673 0.58503 0.07009 0.0
H3797 H 0.00084 0.62252 0.0987 0.0
H3798 H 0.99754 0.60532 0.12006 0.0
H3799 H 0.98505 0.57966 0.13074 0.0
H3800 H 0.95157 0.54214 0.10225 0.0
H3801 H 0.95507 0.55928 0.08063 0.0
C3802 C 0.97398 0.58942 0.08094 0.0
C3803 C 0.98425 0.60507 0.08279 0.0
C3804 C 0.97211 0.57945 0.09316 0.0
C3805 C 0.99267 0.61058 0.09704 0.0
C3806 C 0.99088 0.60074 0.10923 0.0
C3807 C 0.97866 0.57523 0.11971 0.0
C3808 C 0.96832 0.55963 0.11795 0.0
C3809 C 0.98063 0.58516 0.10743 0.0
C3810 C 0.95983 0.55407 0.10375 0.0
C3811 C 0.96177 0.56387 0.09144 0.0
H3812 H 0.42325 0.37696 0.06239 0.0
H3813 H 0.3888 0.37929 0.08932 0.0
H3814 H 0.40513 0.38758 0.11293 0.0
H3815 H 0.42877 0.39314 0.12626 0.0
H3816 H 0.46307 0.39032 0.09964 0.0
H3817 H 0.44735 0.38345 0.07554 0.0
C3818 C 0.41941 0.37947 0.07337 0.0
C3819 C 0.4048 0.37741 0.07412 0.0
C3820 C 0.42885 0.38418 0.08695 0.0
C3821 C 0.39991 0.38055 0.08849 0.0
C3822 C 0.40926 0.38536 0.10199 0.0
C3823 C 0.43287 0.39124 0.11511 0.0
C3824 C 0.44716 0.39253 0.11465 0.0
C3825 C 0.42368 0.38706 0.1014 0.0
C3826 C 0.45223 0.38969 0.10022 0.0
C3827 C 0.44321 0.38568 0.08647 0.0
H3828 H 0.65514 0.72425 0.41208 0.0
H3829 H 0.60903 0.68998 0.40093 0.0
H3830 H 0.59999 0.70083 0.42107 0.0
H3831 H 0.60519 0.72005 0.44193 0.0
H3832 H 0.65132 0.75404 0.45326 0.0
H3833 H 0.66033 0.74343 0.43284 0.0
C3834 C 0.6431 0.71925 0.41393 0.0
C3835 C 0.63278 0.70634 0.40498 0.0
C3836 C 0.63798 0.72555 0.42551 0.0
C3837 C 0.61723 0.69983 0.40776 0.0
C3838 C 0.61204 0.70607 0.41921 0.0
C3839 C 0.6172 0.72522 0.43977 0.0
C3840 C 0.62754 0.73806 0.44879 0.0
C3841 C 0.62231 0.71893 0.42815 0.0
C3842 C 0.64311 0.74439 0.44621 0.0
C3843 C 0.64827 0.73828 0.4346 0.0
H3844 H 0.26491 0.91416 0.40816 0.0
H3845 H 0.3108 0.93256 0.42574 0.0
H3846 H 0.30438 0.91273 0.4448 0.0
H3847 H 0.28342 0.88551 0.46093 0.0
H3848 H 0.22908 0.86193 0.43862 0.0
H3849 H 0.24006 0.88686 0.41686 0.0
C3850 C 0.27277 0.91336 0.41616 0.0
C3851 C 0.28832 0.92438 0.41611 0.0
C3852 C 0.26723 0.90117 0.42613 0.0
C3853 C 0.29901 0.92383 0.42648 0.0
C3854 C 0.29552 0.91239 0.43746 0.0
C3855 C 0.27551 0.88527 0.45223 0.0
C3856 C 0.25467 0.87256 0.45406 0.0
C3857 C 0.28087 0.90055 0.43875 0.0
C3858 C 0.24096 0.87036 0.43813 0.0
C3859 C 0.24775 0.88627 0.42524 0.0
H3860 H 0.09526 0.3568 0.3958 0.0
H3861 H 0.07875 0.38627 0.41128 0.0
H3862 H 0.09912 0.40047 0.43043 0.0
H3863 H 0.1259 0.4065 0.44781 0.0
H3864 H 0.14688 0.37276 0.42868 0.0
H3865 H 0.12195 0.35858 0.40603 0.0
C3866 C 0.0966 0.36605 0.40339 0.0
C3867 C 0.08601 0.37096 0.40275 0.0
C3868 C 0.10891 0.37294 0.41363 0.0
C3869 C 0.08723 0.38301 0.4125 0.0
C3870 C 0.09897 0.3914 0.42352 0.0
C3871 C 0.12572 0.39825 0.43949 0.0
C3872 C 0.13749 0.38936 0.44259 0.0
C3873 C 0.11036 0.38816 0.42554 0.0
C3874 C 0.13895 0.3767 0.42742 0.0
C3875 C 0.12304 0.36749 0.41396 0.0
H3876 H 0.03664 0.27921 0.27957 0.0
H3877 H 0.07179 0.32592 0.27562 0.0
H3878 H 0.08399 0.31891 0.25507 0.0
H3879 H 0.08451 0.29959 0.23803 0.0
H3880 H 0.05001 0.25268 0.24247 0.0
H3881 H 0.03757 0.25966 0.26288 0.0
C3882 C 0.04695 0.28781 0.27414 0.0
C3883 C 0.05334 0.30304 0.27907 0.0
C3884 C 0.05401 0.28367 0.26247 0.0
C3885 C 0.06676 0.3141 0.27209 0.0
C3886 C 0.0737 0.31011 0.26032 0.0
C3887 C 0.0744 0.29086 0.24363 0.0
C3888 C 0.06839 0.27558 0.23902 0.0
C3889 C 0.06744 0.29493 0.25543 0.0
C3890 C 0.05501 0.26448 0.24606 0.0
C3891 C 0.04788 0.26847 0.25767 0.0
H3892 H 0.71442 0.74198 0.27605 0.0
H3893 H 0.67375 0.74288 0.2862 0.0
H3894 H 0.68033 0.76242 0.26642 0.0
H3895 H 0.69737 0.77884 0.24593 0.0
H3896 H 0.73874 0.77898 0.23658 0.0
H3897 H 0.73208 0.75928 0.25622 0.0
C3898 C 0.70703 0.74649 0.27388 0.0
C3899 C 0.69363 0.74103 0.2825 0.0
C3900 C 0.711 0.75786 0.26266 0.0
C3901 C 0.68418 0.74702 0.27975 0.0
C3902 C 0.68791 0.75813 0.26842 0.0
C3903 C 0.70506 0.77476 0.24834 0.0
C3904 C 0.71871 0.7806 0.24001 0.0
C3905 C 0.70128 0.76362 0.25979 0.0
C3906 C 0.7283 0.77483 0.24303 0.0
C3907 C 0.72448 0.76355 0.25421 0.0
H3908 H 0.23532 0.95685 0.30284 0.0
H3909 H 0.26743 0.95467 0.2717 0.0
H3910 H 0.24846 0.94413 0.25031 0.0
H3911 H 0.22278 0.93565 0.24041 0.0
H3912 H 0.19093 0.93879 0.27111 0.0
H3913 H 0.20967 0.94869 0.29277 0.0
C3914 C 0.2381 0.95399 0.29138 0.0
C3915 C 0.25272 0.95653 0.28881 0.0
C3916 C 0.22718 0.94808 0.27909 0.0
C3917 C 0.25627 0.95294 0.27388 0.0
C3918 C 0.24543 0.94686 0.26168 0.0
C3919 C 0.21997 0.93851 0.25185 0.0
C3920 C 0.20548 0.93644 0.25418 0.0
C3921 C 0.23086 0.94442 0.26414 0.0
C3922 C 0.20198 0.94021 0.26905 0.0
C3923 C 0.21269 0.94589 0.28142 0.0
H3924 H 0.72056 0.95458 0.29417 0.0
H3925 H 0.6834 0.949 0.26482 0.0
H3926 H 0.69402 0.94319 0.24178 0.0
H3927 H 0.71461 0.9412 0.22957 0.0
H3928 H 0.75182 0.94673 0.25865 0.0
H3929 H 0.74034 0.95082 0.28223 0.0
C3930 C 0.71467 0.95186 0.28279 0.0
C3931 C 0.7013 0.95242 0.2812 0.0
C3932 C 0.72086 0.94853 0.26953 0.0
C3933 C 0.69387 0.94896 0.26632 0.0
C3934 C 0.69989 0.94556 0.25314 0.0
C3935 C 0.72007 0.94307 0.24112 0.0
C3936 C 0.73396 0.94356 0.24241 0.0
C3937 C 0.71349 0.94556 0.25455 0.0
C3938 C 0.74104 0.94617 0.25741 0.0
C3939 C 0.73452 0.94858 0.27086 0.0
H3940 H 0.05312 0.7443 0.27202 0.0
H3941 H 0.03128 0.76485 0.29714 0.0
H3942 H 0.03602 0.78181 0.27498 0.0
H3943 H 0.04562 0.79017 0.24803 0.0
H3944 H 0.06667 0.76895 0.22271 0.0
H3945 H 0.06335 0.75314 0.24554 0.0
C3946 C 0.0496 0.75264 0.27275 0.0
C3947 C 0.04187 0.75332 0.28621 0.0
C3948 C 0.05225 0.76225 0.25994 0.0
C3949 C 0.03712 0.764 0.28684 0.0
C3950 C 0.03989 0.77374 0.27421 0.0
C3951 C 0.04953 0.78212 0.24758 0.0
C3952 C 0.05631 0.78067 0.23369 0.0
C3953 C 0.0473 0.77286 0.26063 0.0
C3954 C 0.06139 0.77025 0.23326 0.0
C3955 C 0.05946 0.76119 0.24628 0.0
H3956 H 0.26193 0.31531 0.26985 0.0
H3957 H 0.24628 0.27087 0.28843 0.0
H3958 H 0.22947 0.2593 0.2653 0.0
H3959 H 0.22019 0.26183 0.23918 0.0
H3960 H 0.23706 0.30625 0.21994 0.0
H3961 H 0.25218 0.31787 0.24407 0.0
C3962 C 0.25467 0.30311 0.26892 0.0
C3963 C 0.2553 0.29394 0.28079 0.0
C3964 C 0.24529 0.29655 0.25546 0.0
C3965 C 0.24603 0.27813 0.27936 0.0
C3966 C 0.23641 0.27153 0.26617 0.0
C3967 C 0.22717 0.27405 0.24031 0.0
C3968 C 0.22766 0.28317 0.22773 0.0
C3969 C 0.23612 0.28062 0.25404 0.0
C3970 C 0.23659 0.29899 0.22941 0.0
C3971 C 0.24525 0.30563 0.24319 0.0
H3972 H 0.29265 0.35968 0.42681 0.0
H3973 H 0.28851 0.38647 0.39019 0.0
H3974 H 0.28151 0.39936 0.40999 0.0
H3975 H 0.2775 0.40377 0.43786 0.0
H3976 H 0.28104 0.37663 0.47438 0.0
H3977 H 0.28709 0.36297 0.45442 0.0
C3978 C 0.28998 0.36815 0.42309 0.0
C3979 C 0.29125 0.37215 0.40701 0.0
C3980 C 0.2858 0.37545 0.43453 0.0
C3981 C 0.28794 0.38335 0.40251 0.0
C3982 C 0.28382 0.39067 0.41381 0.0
C3983 C 0.27932 0.39467 0.44139 0.0
C3984 C 0.27856 0.39102 0.45754 0.0
C3985 C 0.28286 0.38692 0.42987 0.0
C3986 C 0.28132 0.37946 0.46199 0.0
C3987 C 0.28485 0.37171 0.4506 0.0
H3988 H 0.632 0.90305 0.4072 0.0
H3989 H 0.63001 0.93932 0.43191 0.0
H3990 H 0.61747 0.92279 0.45399 0.0
H3991 H 0.606 0.8978 0.46593 0.0
H3992 H 0.60495 0.86066 0.43981 0.0
H3993 H 0.61961 0.87775 0.41872 0.0
C3994 C 0.62868 0.90736 0.41728 0.0
C3995 C 0.63214 0.92257 0.41775 0.0
C3996 C 0.62084 0.89759 0.42975 0.0
C3997 C 0.62794 0.92787 0.43121 0.0
C3998 C 0.62057 0.91835 0.44385 0.0
C3999 C 0.60888 0.89341 0.45556 0.0
C4000 C 0.60416 0.87791 0.45448 0.0
C4001 C 0.61685 0.90317 0.44318 0.0
C4002 C 0.60827 0.87248 0.44106 0.0
C4003 C 0.61666 0.88226 0.42892 0.0
H4004 H 0.07286 0.71749 0.43048 0.0
H4005 H 0.10307 0.72095 0.39319 0.0
H4006 H 0.123 0.72688 0.41285 0.0
H4007 H 0.13134 0.72957 0.44079 0.0
H4008 H 0.101 0.72573 0.47805 0.0
H4009 H 0.08159 0.72136 0.45829 0.0
C4010 C 0.08381 0.71954 0.42667 0.0
C4011 C 0.08645 0.71871 0.4104 0.0
C4012 C 0.09518 0.72285 0.43804 0.0
C4013 C 0.10078 0.72163 0.40562 0.0
C4014 C 0.11215 0.72494 0.41686 0.0
C4015 C 0.12057 0.72803 0.44453 0.0
C4016 C 0.11766 0.72817 0.46083 0.0
C4017 C 0.10943 0.72541 0.43311 0.0
C4018 C 0.10355 0.72586 0.46556 0.0
C4019 C 0.09243 0.7233 0.45428 0.0
H4020 H 0.30615 0.04167 0.75699 0.0
H4021 H 0.27382 0.0405 0.72296 0.0
H4022 H 0.26093 0.04786 0.74214 0.0
H4023 H 0.25737 0.05774 0.77326 0.0
H4024 H 0.29533 0.05877 0.81433 0.0
H4025 H 0.30729 0.04822 0.7894 0.0
C4026 C 0.29662 0.04318 0.75454 0.0
C4027 C 0.29041 0.04074 0.73905 0.0
C4028 C 0.29077 0.0476 0.76684 0.0
C4029 C 0.27798 0.0426 0.73513 0.0
C4030 C 0.27038 0.04677 0.74606 0.0
C4031 C 0.26611 0.05528 0.77647 0.0
C4032 C 0.27678 0.06192 0.79576 0.0
C4033 C 0.275 0.04958 0.76178 0.0
C4034 C 0.29018 0.05588 0.8026 0.0
C4035 C 0.29805 0.05012 0.78684 0.0
H4036 H 0.93993 0.25182 0.73778 0.0
H4037 H 0.97778 0.24534 0.72934 0.0
H4038 H 0.96868 0.22595 0.74953 0.0
H4039 H 0.95014 0.21105 0.76997 0.0
H4040 H 0.91369 0.21933 0.7798 0.0
H4041 H 0.92233 0.23806 0.75897 0.0
C4042 C 0.94637 0.24638 0.74047 0.0
C4043 C 0.95953 0.25009 0.73192 0.0
C4044 C 0.94131 0.23552 0.75238 0.0
C4045 C 0.96747 0.24259 0.73545 0.0
C4046 C 0.96234 0.23156 0.74711 0.0
C4047 C 0.94405 0.2169 0.76743 0.0
C4048 C 0.93102 0.21342 0.77607 0.0
C4049 C 0.94927 0.22793 0.75564 0.0
C4050 C 0.92349 0.22142 0.77303 0.0
C4051 C 0.92847 0.23221 0.76116 0.0
H4052 H 0.73981 0.6869 0.7414 0.0
H4053 H 0.75074 0.73176 0.72797 0.0
H4054 H 0.77089 0.74284 0.7482 0.0
H4055 H 0.78557 0.73969 0.76959 0.0
H4056 H 0.77407 0.6947 0.78316 0.0
H4057 H 0.75409 0.68375 0.76287 0.0
C4058 C 0.7467 0.69911 0.74279 0.0
C4059 C 0.74386 0.70849 0.73312 0.0
C4060 C 0.75822 0.70536 0.75441 0.0
C4061 C 0.75265 0.72429 0.73532 0.0
C4062 C 0.76421 0.73062 0.74683 0.0
C4063 C 0.77876 0.7275 0.76797 0.0
C4064 C 0.7816 0.71804 0.77754 0.0
C4065 C 0.76713 0.72126 0.75641 0.0
C4066 C 0.77239 0.70224 0.77566 0.0
C4067 C 0.76091 0.69596 0.76413 0.0
H4068 H 0.69719 0.61757 0.60571 0.0
H4069 H 0.73869 0.65867 0.61796 0.0
H4070 H 0.75216 0.65265 0.59795 0.0
H4071 H 0.75195 0.63607 0.57655 0.0
H4072 H 0.7108 0.59428 0.56505 0.0
H4073 H 0.6973 0.60027 0.58508 0.0
C4074 C 0.70918 0.62517 0.60396 0.0
C4075 C 0.71696 0.63854 0.61322 0.0
C4076 C 0.71688 0.62152 0.59259 0.0
C4077 C 0.73252 0.64826 0.61101 0.0
C4078 C 0.74019 0.64485 0.59955 0.0
C4079 C 0.7401 0.62813 0.57857 0.0
C4080 C 0.73244 0.61458 0.56949 0.0
C4081 C 0.73248 0.63154 0.59024 0.0
C4082 C 0.71697 0.60465 0.57207 0.0
C4083 C 0.70925 0.60809 0.58346 0.0
H4084 H 0.38253 0.08928 0.61628 0.0
H4085 H 0.33561 0.07159 0.60375 0.0
H4086 H 0.34293 0.09016 0.58285 0.0
H4087 H 0.36263 0.11156 0.56821 0.0
H4088 H 0.40949 0.1297 0.58106 0.0
H4089 H 0.40223 0.11089 0.60184 0.0
C4090 C 0.3739 0.08958 0.60909 0.0
C4091 C 0.35854 0.07902 0.61159 0.0
C4092 C 0.37817 0.10042 0.59719 0.0
C4093 C 0.34752 0.07942 0.60195 0.0
C4094 C 0.35169 0.09011 0.59006 0.0
C4095 C 0.37122 0.11149 0.5757 0.0
C4096 C 0.38656 0.12223 0.57338 0.0
C4097 C 0.36697 0.10068 0.58759 0.0
C4098 C 0.39761 0.12174 0.58285 0.0
C4099 C 0.39346 0.11097 0.59468 0.0
H4100 H 0.90971 0.26187 0.61624 0.0
H4101 H 0.92259 0.3083 0.60669 0.0
H4102 H 0.90118 0.30163 0.58915 0.0
H4103 H 0.87407 0.28028 0.57193 0.0
H4104 H 0.85713 0.22491 0.5848 0.0
H4105 H 0.88335 0.2362 0.60565 0.0
C4106 C 0.9074 0.26978 0.61026 0.0
C4107 C 0.91724 0.28557 0.61224 0.0
C4108 C 0.89456 0.26405 0.60081 0.0
C4109 C 0.9147 0.29636 0.60453 0.0
C4110 C 0.90232 0.2927 0.59447 0.0
C4111 C 0.87528 0.27211 0.5788 0.0
C4112 C 0.86432 0.25141 0.57394 0.0
C4113 C 0.89152 0.27777 0.59145 0.0
C4114 C 0.86459 0.23693 0.5869 0.0
C4115 C 0.88128 0.24404 0.59919 0.0
H4116 H 0.38094 0.2932 0.61493 0.0
H4117 H 0.34203 0.28593 0.58762 0.0
H4118 H 0.35155 0.27934 0.56417 0.0
H4119 H 0.37142 0.27663 0.5511 0.0
H4120 H 0.41035 0.28393 0.57825 0.0
H4121 H 0.40022 0.28925 0.60216 0.0
C4122 C 0.37443 0.28996 0.60392 0.0
C4123 C 0.36084 0.29018 0.60303 0.0
C4124 C 0.37996 0.28614 0.59045 0.0
C4125 C 0.35266 0.28613 0.58858 0.0
C4126 C 0.35805 0.28226 0.57518 0.0
C4127 C 0.37755 0.27916 0.56232 0.0
C4128 C 0.39148 0.27966 0.56297 0.0
C4129 C 0.37175 0.28239 0.57593 0.0
C4130 C 0.39948 0.28324 0.57752 0.0
C4131 C 0.39373 0.28637 0.59115 0.0
H4132 H 0.72107 0.07199 0.5814 0.0
H4133 H 0.71406 0.09832 0.61724 0.0
H4134 H 0.71836 0.11739 0.59768 0.0
H4135 H 0.72238 0.12575 0.56994 0.0
H4136 H 0.7283 0.09887 0.53396 0.0
H4137 H 0.72604 0.0808 0.55396 0.0
C4138 C 0.72045 0.08188 0.58493 0.0
C4139 C 0.71718 0.08366 0.60076 0.0
C4140 C 0.72268 0.09269 0.57357 0.0
C4141 C 0.71671 0.09672 0.60518 0.0
C4142 C 0.71906 0.10759 0.59397 0.0
C4143 C 0.72336 0.11603 0.56657 0.0
C4144 C 0.72559 0.11367 0.55054 0.0
C4145 C 0.72184 0.10559 0.57809 0.0
C4146 C 0.72668 0.10096 0.54625 0.0
C4147 C 0.72534 0.09061 0.55766 0.0
H4148 H 0.90707 0.62292 0.6148 0.0
H4149 H 0.93795 0.66345 0.59002 0.0
H4150 H 0.92307 0.65303 0.56558 0.0
H4151 H 0.90207 0.63185 0.55086 0.0
H4152 H 0.87119 0.59136 0.57555 0.0
H4153 H 0.88512 0.60242 0.60049 0.0
C4154 C 0.9104 0.6296 0.60414 0.0
C4155 C 0.92369 0.64391 0.60425 0.0
C4156 C 0.90179 0.62354 0.5901 0.0
C4157 C 0.92793 0.6523 0.59023 0.0
C4158 C 0.91939 0.64639 0.57625 0.0
C4159 C 0.89828 0.62557 0.56177 0.0
C4160 C 0.88556 0.61089 0.56142 0.0
C4161 C 0.90643 0.63193 0.57599 0.0
C4162 C 0.88086 0.60275 0.57558 0.0
C4163 C 0.88886 0.60904 0.5898 0.0
H4164 H 0.95768 0.7249 0.73499 0.0
H4165 H 0.94634 0.68518 0.76215 0.0
H4166 H 0.94072 0.69621 0.78508 0.0
H4167 H 0.94014 0.71759 0.79788 0.0
H4168 H 0.95077 0.75702 0.77073 0.0
H4169 H 0.95526 0.74552 0.74723 0.0
C4170 C 0.95374 0.71853 0.74583 0.0
C4171 C 0.95264 0.7043 0.74685 0.0
C4172 C 0.95039 0.72489 0.75898 0.0
C4173 C 0.94765 0.69631 0.76109 0.0
C4174 C 0.94432 0.70255 0.77421 0.0
C4175 C 0.94326 0.72357 0.78675 0.0
C4176 C 0.94513 0.73811 0.78601 0.0
C4177 C 0.94586 0.71691 0.77336 0.0
C4178 C 0.94924 0.74579 0.77155 0.0
C4179 C 0.95185 0.73924 0.75815 0.0
H4180 H 0.3142 0.25934 0.75098 0.0
H4181 H 0.27194 0.24143 0.72508 0.0
H4182 H 0.25903 0.22295 0.74573 0.0
H4183 H 0.25939 0.21289 0.77199 0.0
H4184 H 0.30123 0.23218 0.79876 0.0
H4185 H 0.31463 0.24917 0.77699 0.0
C4186 C 0.30215 0.25149 0.74987 0.0
C4187 C 0.29409 0.25189 0.73648 0.0
C4188 C 0.29469 0.24116 0.76201 0.0
C4189 C 0.27852 0.24132 0.73512 0.0
C4190 C 0.27107 0.2308 0.74701 0.0
C4191 C 0.27144 0.22081 0.77301 0.0
C4192 C 0.27929 0.22139 0.787 0.0
C4193 C 0.279 0.23077 0.76061 0.0
C4194 C 0.29493 0.23158 0.78813 0.0
C4195 C 0.30259 0.24131 0.77571 0.0
H4196 H 0.76653 0.04098 0.72147 0.0
H4197 H 0.73319 0.04641 0.74708 0.0
H4198 H 0.74831 0.05253 0.77142 0.0
H4199 H 0.77022 0.05488 0.78584 0.0
H4200 H 0.80365 0.04947 0.76056 0.0
H4201 H 0.78943 0.04502 0.73566 0.0
C4202 C 0.76269 0.04372 0.73233 0.0
C4203 C 0.74865 0.04303 0.73249 0.0
C4204 C 0.77146 0.04722 0.74635 0.0
C4205 C 0.7438 0.04653 0.74669 0.0
C4206 C 0.75247 0.05011 0.76061 0.0
C4207 C 0.77449 0.05295 0.77482 0.0
C4208 C 0.788 0.05262 0.775 0.0
C4209 C 0.76619 0.05025 0.76064 0.0
C4210 C 0.79334 0.04992 0.76068 0.0
C4211 C 0.78518 0.04731 0.74647 0.0
H4212 H 0.05955 0.31094 0.0256 0.0
H4213 H 0.0604 0.3391 0.06479 0.0
H4214 H 0.07184 0.32861 0.08192 0.0
H4215 H 0.07951 0.30982 0.08653 0.0
H4216 H 0.077 0.28038 0.04799 0.0
H4217 H 0.06806 0.29277 0.02997 0.0
C4218 C 0.06222 0.31479 0.03789 0.0
C4219 C 0.05904 0.32579 0.04383 0.0
C4220 C 0.06837 0.30835 0.04787 0.0
C4221 C 0.0629 0.33084 0.05974 0.0
C4222 C 0.0693 0.32471 0.06964 0.0
C4223 C 0.07718 0.30627 0.07413 0.0
C4224 C 0.07901 0.29429 0.06857 0.0
C4225 C 0.0718 0.31326 0.06393 0.0
C4226 C 0.07578 0.28965 0.05252 0.0
C4227 C 0.07064 0.29671 0.04223 0.0
H4228 H 0.66754 0.7244 0.07472 0.0
H4229 H 0.70958 0.73509 0.05212 0.0
H4230 H 0.72474 0.7587 0.06671 0.0
H4231 H 0.72876 0.78225 0.08861 0.0
H4232 H 0.6797 0.76947 0.1176 0.0
H4233 H 0.66448 0.74125 0.09936 0.0
C4234 C 0.67958 0.73203 0.07352 0.0
C4235 C 0.68794 0.72876 0.06251 0.0
C4236 C 0.68655 0.74504 0.08293 0.0
C4237 C 0.70377 0.73841 0.06053 0.0
C4238 C 0.71275 0.75203 0.06896 0.0
C4239 C 0.71706 0.77434 0.09129 0.0
C4240 C 0.70534 0.78009 0.10292 0.0
C4241 C 0.70636 0.75692 0.08014 0.0
C4242 C 0.68586 0.76625 0.10961 0.0
C4243 C 0.67638 0.74912 0.09768 0.0
H4244 H 0.2639 0.93202 0.04494 0.0
H4245 H 0.26404 0.97411 0.04164 0.0
H4246 H 0.24023 0.96322 0.05571 0.0
H4247 H 0.21913 0.9417 0.06867 0.0
H4248 H 0.21867 0.89952 0.07208 0.0
H4249 H 0.24289 0.91051 0.05846 0.0
C4250 C 0.25877 0.93883 0.04741 0.0
C4251 C 0.26569 0.9538 0.04208 0.0
C4252 C 0.24505 0.93251 0.05563 0.0
C4253 C 0.25882 0.96244 0.04529 0.0
C4254 C 0.24524 0.95627 0.05346 0.0
C4255 C 0.22445 0.935 0.06662 0.0
C4256 C 0.21732 0.91996 0.07171 0.0
C4257 C 0.23824 0.94132 0.05863 0.0
C4258 C 0.22412 0.91125 0.06859 0.0
C4259 C 0.23791 0.91749 0.06072 0.0
H4260 H 0.30092 0.03843 0.96722 0.0
H4261 H 0.34172 0.08046 0.97898 0.0
H4262 H 0.3316 0.09457 0.96559 0.0
H4263 H 0.31071 0.09493 0.95137 0.0
H4264 H 0.26977 0.05279 0.94037 0.0
H4265 H 0.28033 0.03873 0.95284 0.0
C4266 C 0.30756 0.05069 0.967 0.0
C4267 C 0.32199 0.0584 0.97423 0.0
C4268 C 0.30164 0.05869 0.95941 0.0
C4269 C 0.3306 0.07426 0.97346 0.0
C4270 C 0.32479 0.08233 0.96587 0.0
C4271 C 0.3042 0.08266 0.95157 0.0
C4272 C 0.28957 0.07488 0.94476 0.0
C4273 C 0.31029 0.07466 0.95889 0.0
C4274 C 0.28112 0.059 0.94534 0.0
C4275 C 0.28713 0.05097 0.95251 0.0
H4276 H 0.94854 0.25308 0.98834 0.0
H4277 H 0.94392 0.27828 0.95025 0.0
H4278 H 0.93145 0.2554 0.93365 0.0
H4279 H 0.9237 0.22867 0.92908 0.0
H4280 H 0.92992 0.20388 0.96639 0.0
H4281 H 0.94012 0.22618 0.98405 0.0
C4282 C 0.94484 0.25359 0.9764 0.0
C4283 C 0.94724 0.26746 0.97061 0.0
C4284 C 0.93805 0.24046 0.9667 0.0
C4285 C 0.94206 0.26779 0.95519 0.0
C4286 C 0.93505 0.25471 0.94558 0.0
C4287 C 0.92713 0.22813 0.94115 0.0
C4288 C 0.92596 0.21463 0.94646 0.0
C4289 C 0.93323 0.24106 0.95111 0.0
C4290 C 0.9306 0.21411 0.96206 0.0
C4291 C 0.93646 0.22686 0.97214 0.0
H4292 H 0.72953 0.69457 0.9613 0.0
H4293 H 0.73321 0.65804 0.98139 0.0
H4294 H 0.75808 0.66789 0.96955 0.0
H4295 H 0.77952 0.68788 0.95494 0.0
H4296 H 0.77624 0.72515 0.93639 0.0
H4297 H 0.75056 0.71412 0.94635 0.0
C4298 C 0.73579 0.68879 0.9632 0.0
C4299 C 0.72952 0.67564 0.97235 0.0
C4300 C 0.7502 0.6947 0.95668 0.0
C4301 C 0.73767 0.6681 0.9743 0.0
C4302 C 0.75195 0.6738 0.96764 0.0
C4303 C 0.77309 0.69347 0.95297 0.0
C4304 C 0.77973 0.70726 0.94486 0.0
C4305 C 0.75842 0.68721 0.95899 0.0
C4306 C 0.77135 0.71448 0.94249 0.0
C4307 C 0.75669 0.70821 0.94823 0.0
H4308 H 0.94412 0.6914 0.99432 0.0
H4309 H 0.95471 0.67433 0.95207 0.0
H4310 H 0.94536 0.68718 0.9355 0.0
H4311 H 0.9357 0.70459 0.93287 0.0
H4312 H 0.92612 0.72266 0.97491 0.0
H4313 H 0.93386 0.70838 0.99167 0.0
C4314 C 0.94439 0.69048 0.98149 0.0
C4315 C 0.9501 0.68184 0.97451 0.0
C4316 C 0.93931 0.69821 0.97197 0.0
C4317 C 0.95014 0.68064 0.95784 0.0
C4318 C 0.94495 0.68814 0.94831 0.0
C4319 C 0.93515 0.70525 0.94571 0.0
C4320 C 0.93016 0.7145 0.95265 0.0
C4321 C 0.9397 0.69711 0.95524 0.0
C4322 C 0.92976 0.71547 0.96929 0.0
C4323 C 0.9342 0.70734 0.97887 0.0
H4324 H 0.30931 0.27138 0.95431 0.0
H4325 H 0.34335 0.26945 0.98284 0.0
H4326 H 0.33265 0.2428 0.9754 0.0
H4327 H 0.31244 0.21951 0.9625 0.0
H4328 H 0.2774 0.22111 0.93565 0.0
H4329 H 0.28954 0.24834 0.94092 0.0
C4330 C 0.31438 0.26514 0.95896 0.0
C4331 C 0.32708 0.27244 0.96921 0.0
C4332 C 0.30794 0.24971 0.95498 0.0
C4333 C 0.33368 0.26421 0.9748 0.0
C4334 C 0.32749 0.24891 0.97066 0.0
C4335 C 0.30763 0.22591 0.9576 0.0
C4336 C 0.29423 0.21837 0.94842 0.0
C4337 C 0.31448 0.24149 0.96098 0.0
C4338 C 0.28788 0.22669 0.94246 0.0
C4339 C 0.29476 0.24224 0.94555 0.0
H4340 H 0.73187 0.04025 0.96114 0.0
H4341 H 0.74294 0.07836 0.99239 0.0
H4342 H 0.76906 0.09117 0.98328 0.0
H4343 H 0.78904 0.09086 0.96755 0.0
H4344 H 0.77816 0.05225 0.93721 0.0
H4345 H 0.75162 0.04038 0.94467 0.0
C4346 C 0.73994 0.05148 0.96573 0.0
C4347 C 0.73548 0.05837 0.9774 0.0
C4348 C 0.75496 0.05867 0.96061 0.0
C4349 C 0.74613 0.07279 0.98348 0.0
C4350 C 0.76105 0.08012 0.97826 0.0
C4351 C 0.78078 0.07996 0.96238 0.0
C4352 C 0.78549 0.07261 0.95158 0.0
C4353 C 0.76563 0.07307 0.96699 0.0
C4354 C 0.77477 0.0583 0.94528 0.0
C4355 C 0.75962 0.05146 0.94962 0.0
H4356 H 0.69482 0.95012 0.03179 0.0
H4357 H 0.67262 0.95509 0.07293 0.0
H4358 H 0.68461 0.94487 0.08971 0.0
H4359 H 0.7023 0.93567 0.093 0.0
H4360 H 0.72501 0.93111 0.05217 0.0
H4361 H 0.71217 0.94033 0.03502 0.0
C4362 C 0.69261 0.94897 0.04443 0.0
C4363 C 0.68278 0.95333 0.05105 0.0
C4364 C 0.69972 0.94327 0.05409 0.0
C4365 C 0.67992 0.95159 0.06744 0.0
C4366 C 0.68688 0.94588 0.07709 0.0
C4367 C 0.70429 0.93651 0.08031 0.0
C4368 C 0.71438 0.93246 0.07381 0.0
C4369 C 0.6969 0.94181 0.07057 0.0
C4370 C 0.71712 0.93396 0.05741 0.0
C4371 C 0.70981 0.93925 0.04762 0.0
H4372 H 0.03977 0.74066 0.05728 0.0
H4373 H 0.07689 0.7453 0.02916 0.0
H4374 H 0.09185 0.77206 0.03694 0.0
H4375 H 0.09364 0.79458 0.05012 0.0
H4376 H 0.05587 0.79009 0.07679 0.0
H4377 H 0.04182 0.76287 0.07104 0.0
C4378 C 0.05112 0.74752 0.05279 0.0
C4379 C 0.05713 0.74098 0.04253 0.0
C4380 C 0.05952 0.76295 0.05703 0.0
C4381 C 0.072 0.74998 0.03716 0.0
C4382 C 0.08052 0.76532 0.04151 0.0
C4383 C 0.08243 0.78756 0.05487 0.0
C4384 C 0.07593 0.79427 0.06412 0.0
C4385 C 0.07431 0.77197 0.05123 0.0
C4386 C 0.06124 0.78515 0.06992 0.0
C4387 C 0.05318 0.7696 0.06655 0.0
H4388 H 0.27117 0.30943 0.04831 0.0
H4389 H 0.26801 0.34377 0.02234 0.0
H4390 H 0.24229 0.33399 0.03171 0.0
H4391 H 0.22019 0.31485 0.04614 0.0
H4392 H 0.22293 0.27964 0.07067 0.0
H4393 H 0.24924 0.29046 0.0628 0.0
C4394 C 0.26484 0.31473 0.04459 0.0
C4395 C 0.27153 0.32729 0.03456 0.0
C4396 C 0.24995 0.30887 0.04975 0.0
C4397 C 0.26324 0.3342 0.03018 0.0
C4398 C 0.24847 0.32855 0.03544 0.0
C4399 C 0.22665 0.3097 0.04993 0.0
C4400 C 0.21974 0.29669 0.05928 0.0
C4401 C 0.24168 0.31581 0.0451 0.0
C4402 C 0.22808 0.28986 0.06378 0.0
C4403 C 0.2431 0.29599 0.05921 0.0
H4404 H 0.74164 0.67707 0.37899 0.0
H4405 H 0.70065 0.63363 0.37283 0.0
H4406 H 0.71203 0.61883 0.3806 0.0
H4407 H 0.73627 0.61563 0.39302 0.0
H4408 H 0.78579 0.66679 0.40036 0.0
H4409 H 0.76993 0.68152 0.3886 0.0
C4410 C 0.73602 0.66486 0.37969 0.0
C4411 C 0.72055 0.6558 0.3757 0.0
C4412 C 0.7442 0.65826 0.38466 0.0
C4413 C 0.71252 0.63975 0.3762 0.0
C4414 C 0.71891 0.63106 0.38057 0.0
C4415 C 0.74279 0.62774 0.39135 0.0
C4416 C 0.76188 0.63974 0.40053 0.0
C4417 C 0.73393 0.63807 0.38499 0.0
C4418 C 0.7742 0.66027 0.39616 0.0
C4419 C 0.76406 0.66934 0.38956 0.0
H4420 H 0.36738 0.06917 0.38813 0.0
H4421 H 0.32558 0.06699 0.37426 0.0
H4422 H 0.33404 0.09302 0.38202 0.0
H4423 H 0.35587 0.12244 0.3952 0.0
H4424 H 0.40652 0.12607 0.4095 0.0
H4425 H 0.39357 0.0949 0.39874 0.0
C4426 C 0.36082 0.07471 0.38704 0.0
C4427 C 0.34591 0.06678 0.38079 0.0
C4428 C 0.36747 0.08972 0.39176 0.0
C4429 C 0.33686 0.07361 0.37932 0.0
C4430 C 0.34161 0.08868 0.38362 0.0
C4431 C 0.36309 0.11758 0.39523 0.0
C4432 C 0.38163 0.12673 0.40612 0.0
C4433 C 0.35598 0.09806 0.38969 0.0
C4434 C 0.39531 0.11994 0.40421 0.0
C4435 C 0.3869 0.10035 0.39831 0.0
H4436 H 0.9452 0.26937 0.38348 0.0
H4437 H 0.9355 0.30074 0.35993 0.0
H4438 H 0.90953 0.28678 0.36898 0.0
H4439 H 0.8894 0.26554 0.38336 0.0
H4440 H 0.89843 0.23302 0.40511 0.0
H4441 H 0.92471 0.24741 0.39677 0.0
C4442 C 0.93739 0.27308 0.38015 0.0
C4443 C 0.94244 0.28623 0.37116 0.0
C4444 C 0.92232 0.2648 0.38512 0.0
C4445 C 0.93211 0.2909 0.36715 0.0
C4446 C 0.91718 0.28284 0.37221 0.0
C4447 C 0.89718 0.26169 0.38637 0.0
C4448 C 0.89206 0.2485 0.39523 0.0
C4449 C 0.91218 0.26982 0.38124 0.0
C4450 C 0.90214 0.24337 0.39866 0.0
C4451 C 0.91717 0.25154 0.39382 0.0
H4452 H 0.03671 0.41441 0.30121 0.0
H4453 H 0.98926 0.38907 0.31234 0.0
H4454 H 0.98647 0.41038 0.30461 0.0
H4455 H 0.9976 0.43645 0.29536 0.0
H4456 H 0.04477 0.4615 0.28334 0.0
H4457 H 0.04752 0.43994 0.29048 0.0
C4458 C 0.0257 0.41343 0.30172 0.0
C4459 C 0.01325 0.40016 0.30749 0.0
C4460 C 0.02412 0.42568 0.29709 0.0
C4461 C 0.99911 0.39923 0.30826 0.0
C4462 C 0.99747 0.41138 0.30374 0.0
C4463 C 0.00844 0.43713 0.29419 0.0
C4464 C 0.02097 0.45054 0.28885 0.0
C4465 C 0.00992 0.4247 0.29828 0.0
C4466 C 0.03498 0.45128 0.28742 0.0
C4467 C 0.03654 0.43898 0.29152 0.0
H4468 H 0.63336 0.59839 0.29609 0.0
H4469 H 0.60086 0.61146 0.28235 0.0
H4470 H 0.58796 0.59111 0.26276 0.0
H4471 H 0.58222 0.56356 0.24671 0.0
H4472 H 0.62057 0.54757 0.26291 0.0
H4473 H 0.63506 0.57407 0.28369 0.0
C4474 C 0.62358 0.59621 0.28904 0.0
C4475 C 0.61757 0.60591 0.2902 0.0
C4476 C 0.61739 0.5839 0.27868 0.0
C4477 C 0.60505 0.60372 0.28076 0.0
C4478 C 0.59743 0.592 0.26943 0.0
C4479 C 0.59245 0.56587 0.25293 0.0
C4480 C 0.59823 0.55134 0.25466 0.0
C4481 C 0.60184 0.58147 0.26689 0.0
C4482 C 0.61684 0.55574 0.26316 0.0
C4483 C 0.62525 0.57177 0.27665 0.0
H4484 H 0.3904 0.98019 0.32541 0.0
H4485 H 0.37014 0.98409 0.28199 0.0
H4486 H 0.3883 0.98084 0.26644 0.0
H4487 H 0.40931 0.97592 0.26507 0.0
H4488 H 0.43018 0.97286 0.30834 0.0
H4489 H 0.41255 0.97702 0.32406 0.0
C4490 C 0.3901 0.9806 0.31256 0.0
C4491 C 0.37877 0.98223 0.30494 0.0
C4492 C 0.40072 0.97892 0.30365 0.0
C4493 C 0.37848 0.98251 0.28823 0.0
C4494 C 0.38894 0.98077 0.27929 0.0
C4495 C 0.41018 0.97646 0.27794 0.0
C4496 C 0.42122 0.97438 0.28554 0.0
C4497 C 0.40001 0.97881 0.28687 0.0
C4498 C 0.42194 0.9747 0.30223 0.0
C4499 C 0.41183 0.977 0.31121 0.0
H4500 H 0.60658 0.00325 0.31685 0.0
H4501 H 0.61344 0.97893 0.27849 0.0
H4502 H 0.60176 0.98794 0.25981 0.0
H4503 H 0.59149 0.00436 0.25383 0.0
H4504 H 0.58625 0.03014 0.29162 0.0
H4505 H 0.59565 0.01917 0.31096 0.0
C4506 C 0.60558 0.99994 0.3044 0.0
C4507 C 0.61094 0.9904 0.29918 0.0
C4508 C 0.59922 0.00552 0.29356 0.0
C4509 C 0.60922 0.98603 0.283 0.0
C4510 C 0.60267 0.99131 0.27222 0.0
C4511 C 0.59219 0.00737 0.26634 0.0
C4512 C 0.58794 0.01782 0.27133 0.0
C4513 C 0.59787 0.00126 0.27731 0.0
C4514 C 0.58919 0.0219 0.28754 0.0
C4515 C 0.59464 0.0157 0.29857 0.0
H4516 H 0.98921 0.60875 0.30769 0.0
H4517 H 0.03008 0.6372 0.28218 0.0
H4518 H 0.02307 0.61709 0.26216 0.0
H4519 H 0.00434 0.59216 0.25086 0.0
H4520 H 0.96353 0.56366 0.27644 0.0
H4521 H 0.97144 0.58305 0.29749 0.0
C4522 C 0.9966 0.61048 0.29778 0.0
C4523 C 0.01007 0.62445 0.29632 0.0
C4524 C 0.99245 0.59892 0.28629 0.0
C4525 C 0.01969 0.6265 0.28359 0.0
C4526 C 0.01563 0.61505 0.27209 0.0
C4527 C 0.99727 0.59016 0.26113 0.0
C4528 C 0.98331 0.57659 0.26204 0.0
C4529 C 0.0019 0.60133 0.27317 0.0
C4530 C 0.97428 0.57408 0.27545 0.0
C4531 C 0.97879 0.58515 0.28746 0.0
H4532 H 0.40083 0.37388 0.31051 0.0
H4533 H 0.38588 0.40547 0.30086 0.0
H4534 H 0.41071 0.42341 0.29032 0.0
H4535 H 0.4369 0.43044 0.28477 0.0
H4536 H 0.45163 0.39847 0.29324 0.0
H4537 H 0.42665 0.3803 0.3033 0.0
C4538 C 0.40307 0.38471 0.30609 0.0
C4539 C 0.39165 0.38845 0.30654 0.0
C4540 C 0.4173 0.39487 0.29989 0.0
C4541 C 0.39453 0.40238 0.30057 0.0
C4542 C 0.40871 0.41263 0.2946 0.0
C4543 C 0.43462 0.41947 0.28876 0.0
C4544 C 0.44618 0.41592 0.28857 0.0
C4545 C 0.42021 0.40905 0.29432 0.0
C4546 C 0.44299 0.40156 0.29354 0.0
C4547 C 0.42871 0.39117 0.29926 0.0
H4548 H 0.36213 0.29778 0.38743 0.0
H4549 H 0.31684 0.26037 0.37913 0.0
H4550 H 0.325 0.24251 0.38604 0.0
H4551 H 0.34538 0.23744 0.39252 0.0
H4552 H 0.39073 0.27477 0.40042 0.0
H4553 H 0.38221 0.29276 0.39548 0.0
C4554 C 0.35404 0.28572 0.38717 0.0
C4555 C 0.33892 0.28042 0.38268 0.0
C4556 C 0.35884 0.27551 0.39099 0.0
C4557 C 0.32852 0.26477 0.38267 0.0
C4558 C 0.33319 0.25453 0.3865 0.0
C4559 C 0.35334 0.24952 0.39335 0.0
C4560 C 0.36864 0.25478 0.39687 0.0
C4561 C 0.34837 0.25977 0.39042 0.0
C4562 C 0.37888 0.27047 0.39781 0.0
C4563 C 0.37402 0.28074 0.39494 0.0
H4564 H 0.73151 0.0652 0.36348 0.0
H4565 H 0.69513 0.05512 0.39575 0.0
H4566 H 0.7073 0.08172 0.40377 0.0
H4567 H 0.72779 0.10808 0.40092 0.0
H4568 H 0.76477 0.11797 0.36976 0.0
H4569 H 0.75296 0.09115 0.36226 0.0
C4570 C 0.72634 0.06871 0.3725 0.0
C4571 C 0.71228 0.05807 0.37882 0.0
C4572 C 0.73354 0.08403 0.37731 0.0
C4573 C 0.70574 0.06302 0.39034 0.0
C4574 C 0.71275 0.07826 0.39506 0.0
C4575 C 0.7334 0.10433 0.39273 0.0
C4576 C 0.74728 0.11497 0.3861 0.0
C4577 C 0.72657 0.08889 0.3885 0.0
C4578 C 0.75421 0.10994 0.3752 0.0
C4579 C 0.74743 0.09464 0.37085 0.0
H4580 H 0.94339 0.6802 0.38263 0.0
H4581 H 0.93929 0.63615 0.38106 0.0
H4582 H 0.91288 0.62441 0.38896 0.0
H4583 H 0.89058 0.62653 0.39499 0.0
H4584 H 0.8945 0.67048 0.39569 0.0
H4585 H 0.92138 0.68242 0.38971 0.0
C4586 C 0.93677 0.66806 0.38426 0.0
C4587 C 0.94326 0.65905 0.38121 0.0
C4588 C 0.92155 0.66137 0.38862 0.0
C4589 C 0.93449 0.64331 0.38315 0.0
C4590 C 0.91941 0.63659 0.38771 0.0
C4591 C 0.89739 0.63873 0.39398 0.0
C4592 C 0.8906 0.64762 0.39581 0.0
C4593 C 0.91276 0.64548 0.39026 0.0
C4594 C 0.8995 0.66341 0.39439 0.0
C4595 C 0.91485 0.67023 0.39093 0.0
H4596 H 0.40005 0.02874 0.73706 0.0
H4597 H 0.38031 0.98826 0.70712 0.0
H4598 H 0.39327 0.9771 0.72031 0.0
H4599 H 0.41424 0.9773 0.743 0.0
H4600 H 0.43739 0.02444 0.7801 0.0
H4601 H 0.41976 0.03475 0.76295 0.0
C4602 C 0.39919 0.01801 0.73399 0.0
C4603 C 0.38965 0.00892 0.72134 0.0
C4604 C 0.40748 0.01334 0.74274 0.0
C4605 C 0.38798 0.99471 0.71684 0.0
C4606 C 0.39526 0.98804 0.72439 0.0
C4607 C 0.41467 0.98752 0.74731 0.0
C4608 C 0.42963 0.00096 0.76146 0.0
C4609 C 0.40491 0.99534 0.73706 0.0
C4610 C 0.42947 0.01755 0.77078 0.0
C4611 C 0.41905 0.02418 0.75955 0.0
H4612 H 0.97616 0.37228 0.72969 0.0
H4613 H 0.02357 0.38702 0.72377 0.0
H4614 H 0.03265 0.40844 0.74202 0.0
H4615 H 0.02868 0.42852 0.76284 0.0
H4616 H 0.97257 0.41061 0.7724 0.0
H4617 H 0.96472 0.38511 0.751 0.0
C4618 C 0.98788 0.38019 0.73274 0.0
C4619 C 0.99959 0.3788 0.72565 0.0
C4620 C 0.99112 0.39173 0.74362 0.0
C4621 C 0.01514 0.38891 0.72932 0.0
C4622 C 0.02061 0.40126 0.73995 0.0
C4623 C 0.01683 0.42009 0.76138 0.0
C4624 C 0.0016 0.42377 0.76764 0.0
C4625 C 0.01069 0.40431 0.7478 0.0
C4626 C 0.98118 0.40875 0.76736 0.0
C4627 C 0.97645 0.39336 0.75348 0.0
H4628 H 0.60904 0.63031 0.72549 0.0
H4629 H 0.6058 0.58843 0.70987 0.0
H4630 H 0.58041 0.57413 0.72084 0.0
H4631 H 0.55873 0.57366 0.73389 0.0
H4632 H 0.56205 0.61565 0.7491 0.0
H4633 H 0.58792 0.6298 0.73943 0.0
C4634 C 0.60292 0.61804 0.72475 0.0
C4635 C 0.60933 0.61045 0.71692 0.0
C4636 C 0.58833 0.60993 0.73098 0.0
C4637 C 0.60107 0.59455 0.71574 0.0
C4638 C 0.58658 0.58637 0.72204 0.0
C4639 C 0.56523 0.58589 0.73526 0.0
C4640 C 0.55859 0.59359 0.74242 0.0
C4641 C 0.58003 0.59396 0.72953 0.0
C4642 C 0.56699 0.60947 0.74384 0.0
C4643 C 0.58175 0.61756 0.73827 0.0
H4644 H 0.66989 0.72655 0.61796 0.0
H4645 H 0.62574 0.6873 0.62584 0.0
H4646 H 0.61219 0.69593 0.60955 0.0
H4647 H 0.61018 0.71786 0.59051 0.0
H4648 H 0.66241 0.76397 0.57876 0.0
H4649 H 0.67589 0.75035 0.59774 0.0
C4650 C 0.6578 0.72056 0.61575 0.0
C4651 C 0.64829 0.70649 0.62289 0.0
C4652 C 0.65188 0.72707 0.60597 0.0
C4653 C 0.63236 0.69818 0.6203 0.0
C4654 C 0.62434 0.70293 0.61083 0.0
C4655 C 0.62239 0.72352 0.59107 0.0
C4656 C 0.63457 0.74352 0.58499 0.0
C4657 C 0.63189 0.71651 0.60315 0.0
C4658 C 0.65557 0.75286 0.58371 0.0
C4659 C 0.66376 0.74464 0.59613 0.0
H4660 H 0.26716 0.94339 0.62895 0.0
H4661 H 0.3094 0.94342 0.63233 0.0
H4662 H 0.30073 0.92073 0.61625 0.0
H4663 H 0.27841 0.89525 0.59783 0.0
H4664 H 0.22919 0.89646 0.59009 0.0
H4665 H 0.2425 0.92389 0.60963 0.0
C4666 C 0.27382 0.93825 0.62588 0.0
C4667 C 0.28879 0.94445 0.63174 0.0
C4668 C 0.2673 0.92552 0.61603 0.0
C4669 C 0.29785 0.93795 0.62795 0.0
C4670 C 0.29309 0.92491 0.61849 0.0
C4671 C 0.272 0.90092 0.59932 0.0
C4672 C 0.25148 0.89143 0.59431 0.0
C4673 C 0.27882 0.91753 0.61181 0.0
C4674 C 0.24072 0.90166 0.59445 0.0
C4675 C 0.24881 0.91826 0.60722 0.0
H4676 H 0.05972 0.35422 0.61773 0.0
H4677 H 0.06633 0.32252 0.64467 0.0
H4678 H 0.09233 0.33406 0.63541 0.0
H4679 H 0.11359 0.35405 0.62084 0.0
H4680 H 0.10732 0.38637 0.5947 0.0
H4681 H 0.08078 0.37368 0.60235 0.0
C4682 C 0.0668 0.3497 0.62134 0.0
C4683 C 0.06115 0.33756 0.63185 0.0
C4684 C 0.0818 0.35655 0.61617 0.0
C4685 C 0.07049 0.33194 0.63666 0.0
C4686 C 0.08533 0.33852 0.63137 0.0
C4687 C 0.10634 0.35818 0.61667 0.0
C4688 C 0.11235 0.37101 0.60707 0.0
C4689 C 0.09118 0.35097 0.62132 0.0
C4690 C 0.10291 0.37641 0.60195 0.0
C4691 C 0.08775 0.36919 0.60636 0.0
H4692 H 0.29723 0.35283 0.623 0.0
H4693 H 0.2661 0.33903 0.66197 0.0
H4694 H 0.25698 0.35556 0.65282 0.0
H4695 H 0.25815 0.37427 0.63391 0.0
H4696 H 0.28839 0.38679 0.59426 0.0
H4697 H 0.29746 0.37031 0.60347 0.0
C4698 C 0.28823 0.35317 0.62935 0.0
C4699 C 0.28237 0.34466 0.64316 0.0
C4700 C 0.28299 0.3626 0.62399 0.0
C4701 C 0.27095 0.34557 0.6514 0.0
C4702 C 0.26569 0.35499 0.64616 0.0
C4703 C 0.26677 0.37343 0.62735 0.0
C4704 C 0.27286 0.38205 0.61365 0.0
C4705 C 0.27173 0.36367 0.63254 0.0
C4706 C 0.2838 0.38059 0.60507 0.0
C4707 C 0.28891 0.37108 0.61026 0.0
H4708 H 0.66599 0.93393 0.64595 0.0
H4709 H 0.64199 0.94457 0.61102 0.0
H4710 H 0.6263 0.91777 0.60392 0.0
H4711 H 0.61844 0.89114 0.60863 0.0
H4712 H 0.64308 0.88066 0.64279 0.0
H4713 H 0.65965 0.90762 0.64896 0.0
C4714 C 0.65757 0.93048 0.63653 0.0
C4715 C 0.65513 0.94133 0.62918 0.0
C4716 C 0.64868 0.91505 0.63235 0.0
C4717 C 0.64394 0.93649 0.61716 0.0
C4718 C 0.635 0.92115 0.613 0.0
C4719 C 0.62763 0.89478 0.61718 0.0
C4720 C 0.62969 0.88393 0.62507 0.0
C4721 C 0.63712 0.9103 0.62068 0.0
C4722 C 0.64144 0.88883 0.6364 0.0
C4723 C 0.65086 0.90422 0.63998 0.0
H4724 H 0.04911 0.70968 0.62541 0.0
H4725 H 0.06822 0.71918 0.67284 0.0
H4726 H 0.09355 0.72936 0.66199 0.0
H4727 H 0.11027 0.7355 0.6389 0.0
H4728 H 0.09091 0.72601 0.59159 0.0
H4729 H 0.06568 0.71596 0.6025 0.0
C4730 C 0.05883 0.71418 0.63338 0.0
C4731 C 0.05678 0.71375 0.6499 0.0
C4732 C 0.07332 0.71997 0.62707 0.0
C4733 C 0.06948 0.7193 0.66007 0.0
C4734 C 0.08397 0.72515 0.65387 0.0
C4735 C 0.10051 0.73127 0.63102 0.0
C4736 C 0.10246 0.73163 0.61447 0.0
C4737 C 0.08602 0.72551 0.63738 0.0
C4738 C 0.0897 0.72595 0.60437 0.0
C4739 C 0.07528 0.72021 0.61059 0.0
H4740 H 0.00334 0.61536 0.71378 0.0
H4741 H 0.9558 0.58416 0.70547 0.0
H4742 H 0.95888 0.56313 0.71389 0.0
H4743 H 0.97527 0.55351 0.72277 0.0
H4744 H 0.02277 0.58472 0.73117 0.0
H4745 H 0.01957 0.60587 0.72344 0.0
C4746 C 0.99368 0.60394 0.71376 0.0
C4747 C 0.97939 0.60129 0.70894 0.0
C4748 C 0.99553 0.59193 0.7186 0.0
C4749 C 0.9669 0.58649 0.70924 0.0
C4750 C 0.96866 0.57446 0.71397 0.0
C4751 C 0.98488 0.56497 0.72301 0.0
C4752 C 0.99922 0.56758 0.72756 0.0
C4753 C 0.98294 0.57703 0.71858 0.0
C4754 C 0.01162 0.58246 0.72775 0.0
C4755 C 0.00979 0.59453 0.72332 0.0
H4756 H 0.38207 0.40343 0.69766 0.0
H4757 H 0.38469 0.37973 0.7384 0.0
H4758 H 0.39576 0.40312 0.75431 0.0
H4759 H 0.4033 0.42993 0.75711 0.0
H4760 H 0.40002 0.45352 0.71669 0.0
H4761 H 0.39028 0.43044 0.70026 0.0
C4762 C 0.38505 0.40338 0.71002 0.0
C4763 C 0.38252 0.38982 0.71681 0.0
C4764 C 0.39117 0.41681 0.71919 0.0
C4765 C 0.38669 0.39002 0.73279 0.0
C4766 C 0.39289 0.40336 0.74196 0.0
C4767 C 0.40062 0.43005 0.74465 0.0
C4768 C 0.4026 0.44346 0.73804 0.0
C4769 C 0.395 0.41676 0.73533 0.0
C4770 C 0.39879 0.44338 0.72197 0.0
C4771 C 0.3932 0.4302 0.7126 0.0
H4772 H 0.6078 0.00494 0.69084 0.0
H4773 H 0.63649 0.01686 0.73265 0.0
H4774 H 0.61495 0.01041 0.74951 0.0
H4775 H 0.58778 0.00033 0.75259 0.0
H4776 H 0.5587 0.98655 0.71107 0.0
H4777 H 0.58054 0.99457 0.69393 0.0
C4778 C 0.60936 0.00602 0.70364 0.0
C4779 C 0.62384 0.01146 0.71038 0.0
C4780 C 0.59682 0.00188 0.71336 0.0
C4781 C 0.6256 0.01301 0.72703 0.0
C4782 C 0.61324 0.00918 0.73674 0.0
C4783 C 0.58626 0.99912 0.73978 0.0
C4784 C 0.57167 0.99287 0.7331 0.0
C4785 C 0.59879 0.00349 0.73004 0.0
C4786 C 0.56982 0.99136 0.71649 0.0
C4787 C 0.5823 0.99592 0.7067 0.0
loop_
_geom_bond_atom_site_label_1
_geom_bond_atom_site_label_2
_geom_bond_distance
_geom_bond_site_symmetry_2
_ccdc_geom_bond_type
Li0 N17 1.989 1_554 S
Li0 O60 1.959 . S
Li0 O61 1.969 1_654 S
Li0 O62 1.961 1_554 S
Li1 N25 1.990 . S
Li1 O60 1.970 1_455 S
Li1 O61 1.956 1_554 S
Li1 O63 1.961 . S
Li2 N47 1.990 . S
Li2 O60 1.961 . S
Li2 O62 1.956 1_554 S
Li2 O63 1.970 1_655 S
Li3 N53 1.990 . S
Li3 O61 1.961 . S
Li3 O62 1.970 1_455 S
Li3 O63 1.956 1_556 S
C4 C6 1.350 1_655 S
C4 C7 1.356 . S
C4 O60 1.325 . S
N5 C8 1.314 . S
N5 C9 1.279 . S
C6 C4 1.350 1_455 S
C6 C8 1.353 1_455 S
C6 H64 0.927 . S
C7 C4 1.356 . S
C7 C9 1.358 . S
C7 H65 0.930 . S
C8 N5 1.314 . S
C8 C6 1.353 1_655 S
C8 H66 0.956 . S
C9 N5 1.279 . S
C9 C7 1.358 . S
C9 H67 0.930 . S
C10 C13 1.348 . S
C10 C14 1.356 . S
C10 O61 1.325 . S
C11 N12 1.279 . S
C11 C14 1.358 . S
C11 H68 0.930 . S
N12 C11 1.279 . S
N12 C15 1.314 . S
C13 C10 1.348 . S
C13 C15 1.353 . S
C13 H69 0.933 1_455 S
C14 C10 1.356 . S
C14 C11 1.358 . S
C14 H70 0.930 . S
C15 N12 1.314 . S
C15 C13 1.353 . S
C15 H71 0.930 . S
C16 N17 1.314 . S
C16 C21 1.353 . S
C16 H22 0.930 . S
N17 Li0 1.989 1_556 S
N17 C16 1.314 . S
N17 C19 1.280 . S
C18 C19 1.359 . S
C18 C20 1.356 . S
C18 H72 0.908 1_556 S
C19 N17 1.280 . S
C19 C18 1.359 . S
C19 H23 0.929 1_556 S
C20 C18 1.356 . S
C20 C21 1.348 . S
C21 C16 1.353 . S
C21 C20 1.348 . S
C21 H73 0.929 . S
H22 C16 0.930 . S
H23 C19 0.929 1_554 S
C24 N25 1.314 . S
C24 C26 1.353 . S
C24 H30 0.930 . S
N25 Li1 1.990 . S
N25 C24 1.314 . S
N25 C28 1.279 . S
C26 C24 1.353 . S
C26 C29 1.348 . S
C26 H74 0.929 . S
C27 C28 1.358 . S
C27 C29 1.356 . S
C27 H75 0.930 . S
C28 N25 1.279 . S
C28 C27 1.358 . S
C28 H31 0.930 . S
C29 C26 1.348 . S
C29 C27 1.356 . S
H30 C24 0.930 . S
H31 C28 0.930 . S
C32 C34 1.348 . S
C32 C35 1.356 . S
C32 O62 1.325 . S
N33 C36 1.314 . S
N33 C37 1.279 . S
C34 C32 1.348 . S
C34 C36 1.353 . S
C34 H76 0.929 . S
C35 C32 1.356 . S
C35 C37 1.358 . S
C35 H77 0.930 1_556 S
C36 N33 1.314 . S
C36 C34 1.353 . S
C36 H78 0.930 . S
C37 N33 1.279 . S
C37 C35 1.358 . S
C37 H79 0.930 . S
C38 C39 1.348 . S
C38 C40 1.356 . S
C38 O63 1.325 . S
C39 C38 1.348 . S
C39 C41 1.353 . S
C39 H80 0.929 . S
C40 C38 1.356 . S
C40 C42 1.358 . S
C40 H81 0.930 . S
C41 C39 1.353 . S
C41 N43 1.314 . S
C41 H82 0.930 . S
C42 C40 1.358 . S
C42 N43 1.279 . S
C42 H83 0.930 . S
N43 C41 1.314 . S
N43 C42 1.279 . S
C44 C46 1.353 . S
C44 N47 1.314 . S
C44 H50 0.930 . S
C45 N47 1.279 . S
C45 C48 1.358 . S
C45 H51 0.930 . S
C46 C44 1.353 . S
C46 C49 1.348 . S
C46 H84 0.929 . S
N47 Li2 1.990 . S
N47 C44 1.314 . S
N47 C45 1.279 . S
C48 C45 1.358 . S
C48 C49 1.356 . S
C48 H85 0.930 . S
C49 C46 1.348 . S
C49 C48 1.356 . S
H50 C44 0.930 . S
H51 C45 0.930 . S
C52 N53 1.314 . S
C52 C54 1.353 . S
C52 H58 0.930 . S
N53 Li3 1.990 . S
N53 C52 1.314 . S
N53 C56 1.279 . S
C54 C52 1.353 . S
C54 C57 1.348 . S
C54 H86 0.929 . S
C55 C56 1.358 . S
C55 C57 1.356 . S
C55 H87 0.930 . S
C56 N53 1.279 . S
C56 C55 1.358 . S
C56 H59 0.930 . S
C57 C54 1.348 . S
C57 C55 1.356 . S
H58 C52 0.930 . S
H59 C56 0.930 . S
O60 Li0 1.959 . S
O60 Li1 1.970 1_655 S
O60 Li2 1.961 . S
O60 C4 1.325 . S
O61 Li0 1.969 1_456 S
O61 Li1 1.956 1_556 S
O61 Li3 1.961 . S
O61 C10 1.325 . S
O62 Li0 1.961 1_556 S
O62 Li2 1.956 1_556 S
O62 Li3 1.970 1_655 S
O62 C32 1.325 . S
O63 Li1 1.961 . S
O63 Li2 1.970 1_455 S
O63 Li3 1.956 1_554 S
O63 C38 1.325 . S
H64 C6 0.927 . S
H65 C7 0.930 . S
H66 C8 0.956 . S
H67 C9 0.930 . S
H68 C11 0.930 . S
H69 C13 0.933 1_655 S
H70 C14 0.930 . S
H71 C15 0.930 . S
H72 C18 0.908 1_554 S
H73 C21 0.929 . S
H74 C26 0.929 . S
H75 C27 0.930 . S
H76 C34 0.929 . S
H77 C35 0.930 1_554 S
H78 C36 0.930 . S
H79 C37 0.930 . S
H80 C39 0.929 . S
H81 C40 0.930 . S
H82 C41 0.930 . S
H83 C42 0.930 . S
H84 C46 0.929 . S
H85 C48 0.930 . S
H86 C54 0.929 . S
H87 C55 0.930 . S
Li88 N105 1.990 1_554 S
Li88 O148 1.956 . S
Li88 O149 1.973 . S
Li88 O150 1.961 . S
Li89 N113 1.990 . S
Li89 O148 1.970 . S
Li89 O149 1.965 . S
Li89 O151 1.961 . S
Li90 N135 1.990 . S
Li90 O148 1.961 . S
Li90 O150 1.956 . S
Li90 O151 1.970 . S
Li91 N141 1.990 1_554 S
Li91 O149 1.962 . S
Li91 O150 1.970 . S
Li91 O151 1.956 . S
C92 C94 1.348 . S
C92 C95 1.356 . S
C92 O148 1.325 . S
N93 C96 1.314 . S
N93 C97 1.279 . S
C94 C92 1.348 . S
C94 C96 1.353 . S
C94 H152 0.929 . S
C95 C92 1.356 . S
C95 C97 1.358 . S
C95 H153 0.930 . S
C96 N93 1.314 . S
C96 C94 1.353 . S
C96 H154 0.930 . S
C97 N93 1.279 . S
C97 C95 1.358 . S
C97 H155 0.930 . S
C98 C101 1.348 . S
C98 C102 1.356 . S
C98 O149 1.319 1_556 S
C99 N100 1.279 . S
C99 C102 1.358 . S
C99 H156 0.930 . S
N100 C99 1.279 . S
N100 C103 1.314 . S
C101 C98 1.348 . S
C101 C103 1.353 . S
C101 H157 0.929 . S
C102 C98 1.356 . S
C102 C99 1.358 . S
C102 H158 0.930 . S
C103 N100 1.314 . S
C103 C101 1.353 . S
C103 H159 0.930 . S
C104 N105 1.314 . S
C104 C109 1.353 . S
C104 H110 0.930 . S
N105 Li88 1.990 1_556 S
N105 C104 1.314 . S
N105 C107 1.279 1_556 S
C106 C107 1.358 1_556 S
C106 C108 1.356 . S
C106 H160 0.930 1_556 S
C107 N105 1.279 1_554 S
C107 C106 1.358 1_554 S
C107 H111 0.930 . S
C108 C106 1.356 . S
C108 C109 1.348 . S
C109 C104 1.353 . S
C109 C108 1.348 . S
C109 H161 0.929 . S
H110 C104 0.930 . S
H111 C107 0.930 . S
C112 N113 1.314 . S
C112 C114 1.353 . S
C112 H118 0.930 . S
N113 Li89 1.990 . S
N113 C112 1.314 . S
N113 C116 1.279 . S
C114 C112 1.353 . S
C114 C117 1.348 . S
C114 H162 0.929 . S
C115 C116 1.358 . S
C115 C117 1.356 . S
C115 H163 0.930 . S
C116 N113 1.279 . S
C116 C115 1.358 . S
C116 H119 0.930 . S
C117 C114 1.348 . S
C117 C115 1.356 . S
H118 C112 0.930 . S
H119 C116 0.930 . S
C120 C122 1.348 . S
C120 C123 1.348 1_556 S
C120 O150 1.325 1_556 S
N121 C124 1.314 . S
N121 C125 1.279 . S
C122 C120 1.348 . S
C122 C124 1.353 . S
C122 H164 0.929 . S
C123 C120 1.348 1_554 S
C123 C125 1.330 1_554 S
C123 H165 0.972 . S
C124 N121 1.314 . S
C124 C122 1.353 . S
C124 H166 0.930 . S
C125 N121 1.279 . S
C125 C123 1.330 1_556 S
C125 H167 0.930 . S
C126 C127 1.348 . S
C126 C128 1.356 . S
C126 O151 1.325 . S
C127 C126 1.348 . S
C127 C129 1.353 . S
C127 H168 0.929 . S
C128 C126 1.356 . S
C128 C130 1.358 . S
C128 H169 0.930 . S
C129 C127 1.353 . S
C129 N131 1.314 . S
C129 H170 0.930 . S
C130 C128 1.358 . S
C130 N131 1.279 . S
C130 H171 0.930 . S
N131 C129 1.314 . S
N131 C130 1.279 . S
C132 C134 1.353 . S
C132 N135 1.314 . S
C132 H138 0.930 . S
C133 N135 1.279 . S
C133 C136 1.358 . S
C133 H139 0.930 . S
C134 C132 1.353 . S
C134 C137 1.348 . S
C134 H172 0.929 . S
N135 Li90 1.990 . S
N135 C132 1.314 . S
N135 C133 1.279 . S
C136 C133 1.358 . S
C136 C137 1.356 . S
C136 H173 0.930 . S
C137 C134 1.348 . S
C137 C136 1.356 . S
H138 C132 0.930 . S
H139 C133 0.930 . S
C140 N141 1.314 . S
C140 C142 1.353 . S
C140 H146 0.930 . S
N141 Li91 1.990 1_556 S
N141 C140 1.314 . S
N141 C144 1.279 . S
C142 C140 1.353 . S
C142 C145 1.348 . S
C142 H174 0.929 . S
C143 C144 1.358 . S
C143 C145 1.356 . S
C143 H175 0.930 . S
C144 N141 1.279 . S
C144 C143 1.358 . S
C144 H147 0.930 . S
C145 C142 1.348 . S
C145 C143 1.356 . S
H146 C140 0.930 . S
H147 C144 0.930 . S
O148 Li88 1.956 . S
O148 Li89 1.970 . S
O148 Li90 1.961 . S
O148 C92 1.325 . S
O149 Li88 1.973 . S
O149 Li89 1.965 . S
O149 Li91 1.962 . S
O149 C98 1.319 1_554 S
O150 Li88 1.961 . S
O150 Li90 1.956 . S
O150 Li91 1.970 . S
O150 C120 1.325 1_554 S
O151 Li89 1.961 . S
O151 Li90 1.970 . S
O151 Li91 1.956 . S
O151 C126 1.325 . S
H152 C94 0.929 . S
H153 C95 0.930 . S
H154 C96 0.930 . S
H155 C97 0.930 . S
H156 C99 0.930 . S
H157 C101 0.929 . S
H158 C102 0.930 . S
H159 C103 0.930 . S
H160 C106 0.930 1_554 S
H161 C109 0.929 . S
H162 C114 0.929 . S
H163 C115 0.930 . S
H164 C122 0.929 . S
H165 C123 0.972 . S
H166 C124 0.930 . S
H167 C125 0.930 . S
H168 C127 0.929 . S
H169 C128 0.930 . S
H170 C129 0.930 . S
H171 C130 0.930 . S
H172 C134 0.929 . S
H173 C136 0.930 . S
H174 C142 0.929 . S
H175 C143 0.930 . S
Li176 N193 1.990 . S
Li176 O236 1.956 1_556 S
Li176 O237 1.969 1_565 S
Li176 O238 1.961 . S
Li177 N201 1.990 . S
Li177 O236 1.970 1_545 S
Li177 O237 1.960 1_554 S
Li177 O239 1.961 . S
Li178 N223 1.990 . S
Li178 O236 1.961 . S
Li178 O238 1.956 1_554 S
Li178 O239 1.970 1_565 S
Li179 N229 1.990 1_554 S
Li179 O237 1.961 1_554 S
Li179 O238 1.970 1_544 S
Li179 O239 1.956 . S
C180 C182 1.348 . S
C180 C183 1.356 . S
C180 O236 1.325 . S
N181 C184 1.314 . S
N181 C185 1.279 . S
C182 C180 1.348 . S
C182 C184 1.353 . S
C182 H240 0.929 . S
C183 C180 1.356 . S
C183 C185 1.358 . S
C183 H241 0.930 . S
C184 N181 1.314 . S
C184 C182 1.353 . S
C184 H242 0.930 . S
C185 N181 1.279 . S
C185 C183 1.358 . S
C185 H243 0.930 . S
C186 C189 1.348 . S
C186 C190 1.354 1_556 S
C186 O237 1.323 . S
C187 N188 1.279 . S
C187 C190 1.356 1_556 S
C187 H244 0.930 . S
N188 C187 1.279 . S
N188 C191 1.314 . S
C189 C186 1.348 . S
C189 C191 1.353 . S
C189 H245 0.929 . S
C190 C186 1.354 1_554 S
C190 C187 1.356 1_554 S
C190 H246 0.934 . S
C191 N188 1.314 . S
C191 C189 1.353 . S
C191 H247 0.930 . S
C192 N193 1.314 . S
C192 C197 1.353 . S
C192 H198 0.930 . S
N193 Li176 1.990 . S
N193 C192 1.314 . S
N193 C195 1.279 . S
C194 C195 1.358 . S
C194 C196 1.356 . S
C194 H248 0.930 . S
C195 N193 1.279 . S
C195 C194 1.358 . S
C195 H199 0.930 . S
C196 C194 1.356 . S
C196 C197 1.348 . S
C197 C192 1.353 . S
C197 C196 1.348 . S
C197 H249 0.929 . S
H198 C192 0.930 . S
H199 C195 0.930 . S
C200 N201 1.314 . S
C200 C202 1.353 . S
C200 H206 0.930 . S
N201 Li177 1.990 . S
N201 C200 1.314 . S
N201 C204 1.279 . S
C202 C200 1.353 . S
C202 C205 1.348 . S
C202 H250 0.929 . S
C203 C204 1.358 . S
C203 C205 1.356 . S
C203 H251 0.930 . S
C204 N201 1.279 . S
C204 C203 1.358 . S
C204 H207 0.930 . S
C205 C202 1.348 . S
C205 C203 1.356 . S
H206 C200 0.930 . S
H207 C204 0.930 . S
C208 C210 1.348 . S
C208 C211 1.356 . S
C208 O238 1.325 . S
N209 C212 1.314 . S
N209 C213 1.279 . S
C210 C208 1.348 . S
C210 C212 1.353 . S
C210 H252 0.929 1_565 S
C211 C208 1.356 . S
C211 C213 1.358 . S
C211 H253 0.930 . S
C212 N209 1.314 . S
C212 C210 1.353 . S
C212 H254 0.930 . S
C213 N209 1.279 . S
C213 C211 1.358 . S
C213 H255 0.930 . S
C214 C215 1.348 . S
C214 C216 1.356 . S
C214 O239 1.325 . S
C215 C214 1.348 . S
C215 C217 1.353 . S
C215 H256 0.929 1_545 S
C216 C214 1.356 . S
C216 C218 1.358 . S
C216 H257 0.930 . S
C217 C215 1.353 . S
C217 N219 1.314 . S
C217 H258 0.930 . S
C218 C216 1.358 . S
C218 N219 1.279 . S
C218 H259 0.930 . S
N219 C217 1.314 . S
N219 C218 1.279 . S
C220 C222 1.353 . S
C220 N223 1.314 . S
C220 H226 0.930 . S
C221 N223 1.279 . S
C221 C224 1.358 . S
C221 H227 0.930 . S
C222 C220 1.353 . S
C222 C225 1.348 . S
C222 H260 0.929 . S
N223 Li178 1.990 . S
N223 C220 1.314 . S
N223 C221 1.279 . S
C224 C221 1.358 . S
C224 C225 1.356 . S
C224 H261 0.930 . S
C225 C222 1.348 . S
C225 C224 1.356 . S
H226 C220 0.930 . S
H227 C221 0.930 . S
C228 N229 1.314 . S
C228 C230 1.353 . S
C228 H234 0.930 . S
N229 Li179 1.990 1_556 S
N229 C228 1.314 . S
N229 C232 1.279 1_556 S
C230 C228 1.353 . S
C230 C233 1.348 . S
C230 H262 0.929 . S
C231 C232 1.358 1_556 S
C231 C233 1.356 . S
C231 H263 0.930 1_556 S
C232 N229 1.279 1_554 S
C232 C231 1.358 1_554 S
C232 H235 0.930 . S
C233 C230 1.348 . S
C233 C231 1.356 . S
H234 C228 0.930 . S
H235 C232 0.930 . S
O236 Li176 1.956 1_554 S
O236 Li177 1.970 1_565 S
O236 Li178 1.961 . S
O236 C180 1.325 . S
O237 Li176 1.969 1_545 S
O237 Li177 1.960 1_556 S
O237 Li179 1.961 1_556 S
O237 C186 1.323 . S
O238 Li176 1.961 . S
O238 Li178 1.956 1_556 S
O238 Li179 1.970 1_566 S
O238 C208 1.325 . S
O239 Li177 1.961 . S
O239 Li178 1.970 1_545 S
O239 Li179 1.956 . S
O239 C214 1.325 . S
H240 C182 0.929 . S
H241 C183 0.930 . S
H242 C184 0.930 . S
H243 C185 0.930 . S
H244 C187 0.930 . S
H245 C189 0.929 . S
H246 C190 0.934 . S
H247 C191 0.930 . S
H248 C194 0.930 . S
H249 C197 0.929 . S
H250 C202 0.929 . S
H251 C203 0.930 . S
H252 C210 0.929 1_545 S
H253 C211 0.930 . S
H254 C212 0.930 . S
H255 C213 0.930 . S
H256 C215 0.929 1_565 S
H257 C216 0.930 . S
H258 C217 0.930 . S
H259 C218 0.930 . S
H260 C222 0.929 . S
H261 C224 0.930 . S
H262 C230 0.929 . S
H263 C231 0.930 1_554 S
Li264 N281 1.990 . S
Li264 O324 1.956 . S
Li264 O325 1.970 1_455 S
Li264 O326 1.961 1_554 S
Li265 N289 1.990 . S
Li265 O324 1.970 1_655 S
Li265 O325 1.956 . S
Li265 O327 1.961 . S
Li266 N311 1.990 . S
Li266 O324 1.961 1_556 S
Li266 O326 1.956 . S
Li266 O327 1.970 1_456 S
Li267 N317 1.990 1_554 S
Li267 O325 1.961 . S
Li267 O326 1.970 1_654 S
Li267 O327 1.956 . S
C268 C270 1.348 . S
C268 C271 1.356 . S
C268 O324 1.325 . S
N269 C272 1.314 . S
N269 C273 1.279 . S
C270 C268 1.348 . S
C270 C272 1.353 . S
C270 H328 0.929 . S
C271 C268 1.356 . S
C271 C273 1.358 . S
C271 H329 0.930 . S
C272 N269 1.314 . S
C272 C270 1.353 . S
C272 H330 0.930 . S
C273 N269 1.279 . S
C273 C271 1.358 . S
C273 H331 0.930 . S
C274 C277 1.348 . S
C274 C278 1.356 . S
C274 O325 1.325 . S
C275 N276 1.279 . S
C275 C278 1.358 . S
C275 H332 0.930 . S
N276 C275 1.279 . S
N276 C279 1.314 . S
C277 C274 1.348 . S
C277 C279 1.353 . S
C277 H333 0.929 1_655 S
C278 C274 1.356 . S
C278 C275 1.358 . S
C278 H334 0.930 . S
C279 N276 1.314 . S
C279 C277 1.353 . S
C279 H335 0.930 . S
C280 N281 1.314 . S
C280 C285 1.353 . S
C280 H286 0.930 . S
N281 Li264 1.990 . S
N281 C280 1.314 . S
N281 C283 1.279 . S
C282 C283 1.358 . S
C282 C284 1.356 . S
C282 H336 0.930 . S
C283 N281 1.279 . S
C283 C282 1.358 . S
C283 H287 0.930 . S
C284 C282 1.356 . S
C284 C285 1.348 . S
C285 C280 1.353 . S
C285 C284 1.348 . S
C285 H337 0.929 . S
H286 C280 0.930 . S
H287 C283 0.930 . S
C288 N289 1.314 . S
C288 C290 1.353 . S
C288 H294 0.930 . S
N289 Li265 1.990 . S
N289 C288 1.314 . S
N289 C292 1.279 . S
C290 C288 1.353 . S
C290 C293 1.348 . S
C290 H338 0.929 . S
C291 C292 1.358 . S
C291 C293 1.356 . S
C291 H339 0.930 . S
C292 N289 1.279 . S
C292 C291 1.358 . S
C292 H295 0.930 . S
C293 C290 1.348 . S
C293 C291 1.356 . S
H294 C288 0.930 . S
H295 C292 0.930 . S
C296 C298 1.348 . S
C296 C299 1.356 . S
C296 O326 1.325 . S
N297 C300 1.314 . S
N297 C301 1.279 . S
C298 C296 1.348 . S
C298 C300 1.353 . S
C298 H340 0.929 1_455 S
C299 C296 1.356 . S
C299 C301 1.358 . S
C299 H341 0.930 . S
C300 N297 1.314 . S
C300 C298 1.353 . S
C300 H342 0.930 . S
C301 N297 1.279 . S
C301 C299 1.358 . S
C301 H343 0.930 . S
C302 C303 1.348 . S
C302 C304 1.356 1_556 S
C302 O327 1.325 1_556 S
C303 C302 1.348 . S
C303 C305 1.353 . S
C303 H344 0.929 . S
C304 C302 1.356 1_554 S
C304 C306 1.377 . S
C304 H345 0.930 . S
C305 C303 1.353 . S
C305 N307 1.314 . S
C305 H346 0.930 . S
C306 C304 1.377 . S
C306 N307 1.235 1_554 S
C306 H347 0.961 . S
N307 C305 1.314 . S
N307 C306 1.235 1_556 S
C308 C310 1.353 . S
C308 N311 1.314 . S
C308 H314 0.930 . S
C309 N311 1.279 . S
C309 C312 1.358 . S
C309 H315 0.930 . S
C310 C308 1.353 . S
C310 C313 1.348 . S
C310 H348 0.929 . S
N311 Li266 1.990 . S
N311 C308 1.314 . S
N311 C309 1.279 . S
C312 C309 1.358 . S
C312 C313 1.356 . S
C312 H349 0.930 . S
C313 C310 1.348 . S
C313 C312 1.356 . S
H314 C308 0.930 . S
H315 C309 0.930 . S
C316 N317 1.305 1_554 S
C316 C318 1.338 1_554 S
C316 H322 0.960 . S
N317 Li267 1.990 1_556 S
N317 C316 1.305 1_556 S
N317 C320 1.279 . S
C318 C316 1.338 1_556 S
C318 C321 1.348 . S
C318 H350 0.945 . S
C319 C320 1.358 . S
C319 C321 1.356 . S
C319 H351 0.930 . S
C320 N317 1.279 . S
C320 C319 1.358 . S
C320 H323 0.930 . S
C321 C318 1.348 . S
C321 C319 1.356 . S
H322 C316 0.960 . S
H323 C320 0.930 . S
O324 Li264 1.956 . S
O324 Li265 1.970 1_455 S
O324 Li266 1.961 1_554 S
O324 C268 1.325 . S
O325 Li264 1.970 1_655 S
O325 Li265 1.956 . S
O325 Li267 1.961 . S
O325 C274 1.325 . S
O326 Li264 1.961 1_556 S
O326 Li266 1.956 . S
O326 Li267 1.970 1_456 S
O326 C296 1.325 . S
O327 Li265 1.961 . S
O327 Li266 1.970 1_654 S
O327 Li267 1.956 . S
O327 C302 1.325 1_554 S
H328 C270 0.929 . S
H329 C271 0.930 . S
H330 C272 0.930 . S
H331 C273 0.930 . S
H332 C275 0.930 . S
H333 C277 0.929 1_455 S
H334 C278 0.930 . S
H335 C279 0.930 . S
H336 C282 0.930 . S
H337 C285 0.929 . S
H338 C290 0.929 . S
H339 C291 0.930 . S
H340 C298 0.929 1_655 S
H341 C299 0.930 . S
H342 C300 0.930 . S
H343 C301 0.930 . S
H344 C303 0.929 . S
H345 C304 0.930 . S
H346 C305 0.930 . S
H347 C306 0.961 . S
H348 C310 0.929 . S
H349 C312 0.930 . S
H350 C318 0.945 . S
H351 C319 0.930 . S
Li352 N369 1.990 . S
Li352 O412 1.956 . S
Li352 O413 1.970 . S
Li352 O414 1.961 1_554 S
Li353 N377 1.990 . S
Li353 O412 1.970 . S
Li353 O413 1.956 . S
Li353 O415 1.961 1_554 S
Li354 N399 1.990 . S
Li354 O412 1.961 1_556 S
Li354 O414 1.956 . S
Li354 O415 1.970 . S
Li355 N405 1.990 . S
Li355 O413 1.961 1_556 S
Li355 O414 1.970 . S
Li355 O415 1.956 . S
C356 C358 1.348 . S
C356 C359 1.356 . S
C356 O412 1.325 . S
N357 C360 1.314 . S
N357 C361 1.279 . S
C358 C356 1.348 . S
C358 C360 1.353 . S
C358 H416 0.929 . S
C359 C356 1.356 . S
C359 C361 1.358 . S
C359 H417 0.930 . S
C360 N357 1.314 . S
C360 C358 1.353 . S
C360 H418 0.930 . S
C361 N357 1.279 . S
C361 C359 1.358 . S
C361 H419 0.930 . S
C362 C365 1.348 . S
C362 C366 1.356 . S
C362 O413 1.325 . S
C363 N364 1.279 . S
C363 C366 1.358 . S
C363 H420 0.930 . S
N364 C363 1.279 . S
N364 C367 1.314 . S
C365 C362 1.348 . S
C365 C367 1.353 . S
C365 H421 0.929 . S
C366 C362 1.356 . S
C366 C363 1.358 . S
C366 H422 0.930 . S
C367 N364 1.314 . S
C367 C365 1.353 . S
C367 H423 0.930 . S
C368 N369 1.314 . S
C368 C373 1.353 . S
C368 H374 0.930 . S
N369 Li352 1.990 . S
N369 C368 1.314 . S
N369 C371 1.279 . S
C370 C371 1.358 . S
C370 C372 1.356 . S
C370 H424 0.930 . S
C371 N369 1.279 . S
C371 C370 1.358 . S
C371 H375 0.930 . S
C372 C370 1.356 . S
C372 C373 1.348 . S
C373 C368 1.353 . S
C373 C372 1.348 . S
C373 H425 0.929 . S
H374 C368 0.930 . S
H375 C371 0.930 . S
C376 N377 1.314 . S
C376 C378 1.353 . S
C376 H382 0.930 . S
N377 Li353 1.990 . S
N377 C376 1.314 . S
N377 C380 1.279 . S
C378 C376 1.353 . S
C378 C381 1.348 . S
C378 H426 0.929 . S
C379 C380 1.358 . S
C379 C381 1.356 . S
C379 H427 0.930 . S
C380 N377 1.279 . S
C380 C379 1.358 . S
C380 H383 0.930 . S
C381 C378 1.348 . S
C381 C379 1.356 . S
H382 C376 0.930 . S
H383 C380 0.930 . S
C384 C386 1.348 . S
C384 C387 1.356 . S
C384 O414 1.325 . S
N385 C388 1.314 . S
N385 C389 1.279 . S
C386 C384 1.348 . S
C386 C388 1.353 . S
C386 H428 0.929 . S
C387 C384 1.356 . S
C387 C389 1.358 . S
C387 H429 0.930 . S
C388 N385 1.314 . S
C388 C386 1.353 . S
C388 H430 0.930 . S
C389 N385 1.279 . S
C389 C387 1.358 . S
C389 H431 0.930 . S
C390 C391 1.348 . S
C390 C392 1.356 . S
C390 O415 1.325 . S
C391 C390 1.348 . S
C391 C393 1.353 . S
C391 H432 0.929 . S
C392 C390 1.356 . S
C392 C394 1.358 . S
C392 H433 0.930 1_556 S
C393 C391 1.353 . S
C393 N395 1.314 . S
C393 H434 0.930 . S
C394 C392 1.358 . S
C394 N395 1.279 . S
C394 H435 0.930 . S
N395 C393 1.314 . S
N395 C394 1.279 . S
C396 C398 1.353 . S
C396 N399 1.314 . S
C396 H402 0.930 . S
C397 N399 1.279 . S
C397 C400 1.358 . S
C397 H403 0.930 . S
C398 C396 1.353 . S
C398 C401 1.348 . S
C398 H436 0.929 . S
N399 Li354 1.990 . S
N399 C396 1.314 . S
N399 C397 1.279 . S
C400 C397 1.358 . S
C400 C401 1.356 . S
C400 H437 0.930 . S
C401 C398 1.348 . S
C401 C400 1.356 . S
H402 C396 0.930 . S
H403 C397 0.930 . S
C404 N405 1.314 . S
C404 C406 1.353 . S
C404 H410 0.930 . S
N405 Li355 1.990 . S
N405 C404 1.314 . S
N405 C408 1.279 . S
C406 C404 1.353 . S
C406 C409 1.348 . S
C406 H438 0.929 . S
C407 C408 1.358 . S
C407 C409 1.356 . S
C407 H439 0.930 . S
C408 N405 1.279 . S
C408 C407 1.358 . S
C408 H411 0.930 . S
C409 C406 1.348 . S
C409 C407 1.356 . S
H410 C404 0.930 . S
H411 C408 0.930 . S
O412 Li352 1.956 . S
O412 Li353 1.970 . S
O412 Li354 1.961 1_554 S
O412 C356 1.325 . S
O413 Li352 1.970 . S
O413 Li353 1.956 . S
O413 Li355 1.961 1_554 S
O413 C362 1.325 . S
O414 Li352 1.961 1_556 S
O414 Li354 1.956 . S
O414 Li355 1.970 . S
O414 C384 1.325 . S
O415 Li353 1.961 1_556 S
O415 Li354 1.970 . S
O415 Li355 1.956 . S
O415 C390 1.325 . S
H416 C358 0.929 . S
H417 C359 0.930 . S
H418 C360 0.930 . S
H419 C361 0.930 . S
H420 C363 0.930 . S
H421 C365 0.929 . S
H422 C366 0.930 . S
H423 C367 0.930 . S
H424 C370 0.930 . S
H425 C373 0.929 . S
H426 C378 0.929 . S
H427 C379 0.930 . S
H428 C386 0.929 . S
H429 C387 0.930 . S
H430 C388 0.930 . S
H431 C389 0.930 . S
H432 C391 0.929 . S
H433 C392 0.930 1_554 S
H434 C393 0.930 . S
H435 C394 0.930 . S
H436 C398 0.929 . S
H437 C400 0.930 . S
H438 C406 0.929 . S
H439 C407 0.930 . S
Li440 N457 1.990 . S
Li440 O500 1.956 . S
Li440 O501 1.970 1_565 S
Li440 O502 1.961 1_554 S
Li441 N465 1.990 . S
Li441 O500 1.970 1_545 S
Li441 O501 1.956 . S
Li441 O503 1.961 . S
Li442 N487 1.990 . S
Li442 O500 1.961 1_556 S
Li442 O502 1.956 . S
Li442 O503 1.970 1_566 S
Li443 N493 1.990 1_554 S
Li443 O501 1.961 . S
Li443 O502 1.970 1_544 S
Li443 O503 1.956 . S
C444 C446 1.348 . S
C444 C447 1.356 . S
C444 O500 1.325 . S
N445 C448 1.314 . S
N445 C449 1.279 . S
C446 C444 1.348 . S
C446 C448 1.353 . S
C446 H504 0.929 . S
C447 C444 1.356 . S
C447 C449 1.358 . S
C447 H505 0.930 . S
C448 N445 1.314 . S
C448 C446 1.353 . S
C448 H506 0.930 . S
C449 N445 1.279 . S
C449 C447 1.358 . S
C449 H507 0.930 . S
C450 C453 1.348 . S
C450 C454 1.356 . S
C450 O501 1.325 . S
C451 N452 1.279 . S
C451 C454 1.358 . S
C451 H508 0.930 . S
N452 C451 1.279 . S
N452 C455 1.314 . S
C453 C450 1.348 . S
C453 C455 1.353 . S
C453 H509 0.929 1_545 S
C454 C450 1.356 . S
C454 C451 1.358 . S
C454 H510 0.930 . S
C455 N452 1.314 . S
C455 C453 1.353 . S
C455 H511 0.930 . S
C456 N457 1.314 . S
C456 C461 1.353 . S
C456 H462 0.930 . S
N457 Li440 1.990 . S
N457 C456 1.314 . S
N457 C459 1.279 . S
C458 C459 1.358 . S
C458 C460 1.356 . S
C458 H512 0.930 . S
C459 N457 1.279 . S
C459 C458 1.358 . S
C459 H463 0.930 . S
C460 C458 1.356 . S
C460 C461 1.348 . S
C461 C456 1.353 . S
C461 C460 1.348 . S
C461 H513 0.929 . S
H462 C456 0.930 . S
H463 C459 0.930 . S
C464 N465 1.314 . S
C464 C466 1.353 . S
C464 H470 0.930 . S
N465 Li441 1.990 . S
N465 C464 1.314 . S
N465 C468 1.279 . S
C466 C464 1.353 . S
C466 C469 1.348 . S
C466 H514 0.929 . S
C467 C468 1.358 . S
C467 C469 1.356 . S
C467 H515 0.930 . S
C468 N465 1.279 . S
C468 C467 1.358 . S
C468 H471 0.930 . S
C469 C466 1.348 . S
C469 C467 1.356 . S
H470 C464 0.930 . S
H471 C468 0.930 . S
C472 C474 1.348 . S
C472 C475 1.356 . S
C472 O502 1.325 . S
N473 C476 1.314 . S
N473 C477 1.279 . S
C474 C472 1.348 . S
C474 C476 1.353 . S
C474 H516 0.929 1_565 S
C475 C472 1.356 . S
C475 C477 1.358 . S
C475 H517 0.930 . S
C476 N473 1.314 . S
C476 C474 1.353 . S
C476 H518 0.930 . S
C477 N473 1.279 . S
C477 C475 1.358 . S
C477 H519 0.930 . S
C478 C479 1.393 . S
C478 C480 1.332 1_556 S
C478 O503 1.309 1_556 S
C479 C478 1.393 . S
C479 C481 1.353 . S
C479 H520 0.929 . S
C480 C478 1.332 1_554 S
C480 C482 1.358 . S
C480 H521 0.930 . S
C481 C479 1.353 . S
C481 N483 1.314 . S
C481 H522 0.930 . S
C482 C480 1.358 . S
C482 N483 1.279 1_554 S
C482 H523 0.930 . S
N483 C481 1.314 . S
N483 C482 1.279 1_556 S
C484 C486 1.353 . S
C484 N487 1.314 . S
C484 H490 0.930 . S
C485 N487 1.279 . S
C485 C488 1.358 . S
C485 H491 0.930 . S
C486 C484 1.353 . S
C486 C489 1.348 . S
C486 H524 0.929 . S
N487 Li442 1.990 . S
N487 C484 1.314 . S
N487 C485 1.279 . S
C488 C485 1.358 . S
C488 C489 1.356 . S
C488 H525 0.930 . S
C489 C486 1.348 . S
C489 C488 1.356 . S
H490 C484 0.930 . S
H491 C485 0.930 . S
C492 N493 1.314 1_554 S
C492 C494 1.353 1_554 S
C492 H498 0.930 . S
N493 Li443 1.990 1_556 S
N493 C492 1.314 1_556 S
N493 C496 1.279 . S
C494 C492 1.353 1_556 S
C494 C497 1.348 . S
C494 H526 0.926 1_556 S
C495 C496 1.358 . S
C495 C497 1.356 . S
C495 H527 0.930 . S
C496 N493 1.279 . S
C496 C495 1.358 . S
C496 H499 0.930 . S
C497 C494 1.348 . S
C497 C495 1.356 . S
H498 C492 0.930 . S
H499 C496 0.930 . S
O500 Li440 1.956 . S
O500 Li441 1.970 1_565 S
O500 Li442 1.961 1_554 S
O500 C444 1.325 . S
O501 Li440 1.970 1_545 S
O501 Li441 1.956 . S
O501 Li443 1.961 . S
O501 C450 1.325 . S
O502 Li440 1.961 1_556 S
O502 Li442 1.956 . S
O502 Li443 1.970 1_566 S
O502 C472 1.325 . S
O503 Li441 1.961 . S
O503 Li442 1.970 1_544 S
O503 Li443 1.956 . S
O503 C478 1.309 1_554 S
H504 C446 0.929 . S
H505 C447 0.930 . S
H506 C448 0.930 . S
H507 C449 0.930 . S
H508 C451 0.930 . S
H509 C453 0.929 1_565 S
H510 C454 0.930 . S
H511 C455 0.930 . S
H512 C458 0.930 . S
H513 C461 0.929 . S
H514 C466 0.929 . S
H515 C467 0.930 . S
H516 C474 0.929 1_545 S
H517 C475 0.930 . S
H518 C476 0.930 . S
H519 C477 0.930 . S
H520 C479 0.929 . S
H521 C480 0.930 . S
H522 C481 0.930 . S
H523 C482 0.930 . S
H524 C486 0.929 . S
H525 C488 0.930 . S
H526 C494 0.926 1_554 S
H527 C495 0.930 . S
Li528 N545 1.990 . S
Li528 O588 1.956 . S
Li528 O589 1.970 . S
Li528 O590 1.961 . S
Li529 N553 1.990 . S
Li529 O588 1.970 . S
Li529 O589 1.956 . S
Li529 O591 1.961 . S
Li530 N575 1.990 . S
Li530 O588 1.961 . S
Li530 O590 1.956 . S
Li530 O591 1.970 . S
Li531 N581 1.990 . S
Li531 O589 1.961 . S
Li531 O590 1.970 . S
Li531 O591 1.956 . S
C532 C534 1.348 . S
C532 C535 1.356 . S
C532 O588 1.325 . S
N533 C536 1.314 . S
N533 C537 1.279 . S
C534 C532 1.348 . S
C534 C536 1.353 . S
C534 H592 0.929 . S
C535 C532 1.356 . S
C535 C537 1.358 . S
C535 H593 0.930 . S
C536 N533 1.314 . S
C536 C534 1.353 . S
C536 H594 0.930 . S
C537 N533 1.279 . S
C537 C535 1.358 . S
C537 H595 0.930 . S
C538 C541 1.348 . S
C538 C542 1.356 . S
C538 O589 1.325 . S
C539 N540 1.279 . S
C539 C542 1.358 . S
C539 H596 0.930 . S
N540 C539 1.279 . S
N540 C543 1.314 . S
C541 C538 1.348 . S
C541 C543 1.353 . S
C541 H597 0.929 . S
C542 C538 1.356 . S
C542 C539 1.358 . S
C542 H598 0.930 . S
C543 N540 1.314 . S
C543 C541 1.353 . S
C543 H599 0.930 . S
C544 N545 1.314 . S
C544 C549 1.353 . S
C544 H550 0.930 . S
N545 Li528 1.990 . S
N545 C544 1.314 . S
N545 C547 1.279 . S
C546 C547 1.358 . S
C546 C548 1.356 . S
C546 H600 0.930 . S
C547 N545 1.279 . S
C547 C546 1.358 . S
C547 H551 0.930 . S
C548 C546 1.356 . S
C548 C549 1.348 . S
C549 C544 1.353 . S
C549 C548 1.348 . S
C549 H601 0.929 . S
H550 C544 0.930 . S
H551 C547 0.930 . S
C552 N553 1.314 . S
C552 C554 1.353 . S
C552 H558 0.930 . S
N553 Li529 1.990 . S
N553 C552 1.314 . S
N553 C556 1.279 . S
C554 C552 1.353 . S
C554 C557 1.348 . S
C554 H602 0.929 . S
C555 C556 1.358 . S
C555 C557 1.356 . S
C555 H603 0.930 . S
C556 N553 1.279 . S
C556 C555 1.358 . S
C556 H559 0.930 . S
C557 C554 1.348 . S
C557 C555 1.356 . S
H558 C552 0.930 . S
H559 C556 0.930 . S
C560 C562 1.348 . S
C560 C563 1.356 . S
C560 O590 1.325 . S
N561 C564 1.314 . S
N561 C565 1.279 . S
C562 C560 1.348 . S
C562 C564 1.353 . S
C562 H604 0.929 . S
C563 C560 1.356 . S
C563 C565 1.358 . S
C563 H605 0.930 . S
C564 N561 1.314 . S
C564 C562 1.353 . S
C564 H606 0.930 . S
C565 N561 1.279 . S
C565 C563 1.358 . S
C565 H607 0.930 . S
C566 C567 1.348 . S
C566 C568 1.356 . S
C566 O591 1.325 . S
C567 C566 1.348 . S
C567 C569 1.353 . S
C567 H608 0.929 . S
C568 C566 1.356 . S
C568 C570 1.358 . S
C568 H609 0.930 . S
C569 C567 1.353 . S
C569 N571 1.314 . S
C569 H610 0.930 . S
C570 C568 1.358 . S
C570 N571 1.279 . S
C570 H611 0.930 . S
N571 C569 1.314 . S
N571 C570 1.279 . S
C572 C574 1.353 . S
C572 N575 1.314 . S
C572 H578 0.930 . S
C573 N575 1.279 . S
C573 C576 1.358 . S
C573 H579 0.930 . S
C574 C572 1.353 . S
C574 C577 1.348 . S
C574 H612 0.929 . S
N575 Li530 1.990 . S
N575 C572 1.314 . S
N575 C573 1.279 . S
C576 C573 1.358 . S
C576 C577 1.356 . S
C576 H613 0.930 . S
C577 C574 1.348 . S
C577 C576 1.356 . S
H578 C572 0.930 . S
H579 C573 0.930 . S
C580 N581 1.314 . S
C580 C582 1.353 . S
C580 H586 0.930 . S
N581 Li531 1.990 . S
N581 C580 1.314 . S
N581 C584 1.279 . S
C582 C580 1.353 . S
C582 C585 1.348 . S
C582 H614 0.929 . S
C583 C584 1.358 . S
C583 C585 1.356 . S
C583 H615 0.930 . S
C584 N581 1.279 . S
C584 C583 1.358 . S
C584 H587 0.930 . S
C585 C582 1.348 . S
C585 C583 1.356 . S
H586 C580 0.930 . S
H587 C584 0.930 . S
O588 Li528 1.956 . S
O588 Li529 1.970 . S
O588 Li530 1.961 . S
O588 C532 1.325 . S
O589 Li528 1.970 . S
O589 Li529 1.956 . S
O589 Li531 1.961 . S
O589 C538 1.325 . S
O590 Li528 1.961 . S
O590 Li530 1.956 . S
O590 Li531 1.970 . S
O590 C560 1.325 . S
O591 Li529 1.961 . S
O591 Li530 1.970 . S
O591 Li531 1.956 . S
O591 C566 1.325 . S
H592 C534 0.929 . S
H593 C535 0.930 . S
H594 C536 0.930 . S
H595 C537 0.930 . S
H596 C539 0.930 . S
H597 C541 0.929 . S
H598 C542 0.930 . S
H599 C543 0.930 . S
H600 C546 0.930 . S
H601 C549 0.929 . S
H602 C554 0.929 . S
H603 C555 0.930 . S
H604 C562 0.929 . S
H605 C563 0.930 . S
H606 C564 0.930 . S
H607 C565 0.930 . S
H608 C567 0.929 . S
H609 C568 0.930 . S
H610 C569 0.930 . S
H611 C570 0.930 . S
H612 C574 0.929 . S
H613 C576 0.930 . S
H614 C582 0.929 . S
H615 C583 0.930 . S
Li616 N633 1.990 . S
Li616 O676 1.956 . S
Li616 O677 1.970 . S
Li616 O678 1.961 . S
Li617 N641 1.990 . S
Li617 O676 1.970 . S
Li617 O677 1.956 . S
Li617 O679 1.961 . S
Li618 N663 1.990 1_565 S
Li618 O676 1.961 . S
Li618 O678 1.956 . S
Li618 O679 1.970 . S
Li619 N669 1.990 . S
Li619 O677 1.961 . S
Li619 O678 1.970 . S
Li619 O679 1.956 . S
C620 C622 1.348 . S
C620 C623 1.356 . S
C620 O676 1.325 . S
N621 C624 1.314 . S
N621 C625 1.279 . S
C622 C620 1.348 . S
C622 C624 1.353 . S
C622 H680 0.929 . S
C623 C620 1.356 . S
C623 C625 1.358 . S
C623 H681 0.930 . S
C624 N621 1.314 . S
C624 C622 1.353 . S
C624 H682 0.930 . S
C625 N621 1.279 . S
C625 C623 1.358 . S
C625 H683 0.930 . S
C626 C629 1.348 . S
C626 C630 1.356 . S
C626 O677 1.325 . S
C627 N628 1.279 . S
C627 C630 1.358 . S
C627 H684 0.930 . S
N628 C627 1.279 . S
N628 C631 1.314 . S
C629 C626 1.348 . S
C629 C631 1.353 . S
C629 H685 0.929 . S
C630 C626 1.356 . S
C630 C627 1.358 . S
C630 H686 0.930 . S
C631 N628 1.314 . S
C631 C629 1.353 . S
C631 H687 0.930 . S
C632 N633 1.314 . S
C632 C637 1.353 . S
C632 H638 0.930 . S
N633 Li616 1.990 . S
N633 C632 1.314 . S
N633 C635 1.279 . S
C634 C635 1.358 . S
C634 C636 1.356 . S
C634 H688 0.930 . S
C635 N633 1.279 . S
C635 C634 1.358 . S
C635 H639 0.930 . S
C636 C634 1.356 . S
C636 C637 1.348 . S
C637 C632 1.353 . S
C637 C636 1.348 . S
C637 H689 0.929 . S
H638 C632 0.930 . S
H639 C635 0.930 . S
C640 N641 1.314 . S
C640 C642 1.353 . S
C640 H646 0.930 . S
N641 Li617 1.990 . S
N641 C640 1.314 . S
N641 C644 1.279 . S
C642 C640 1.353 . S
C642 C645 1.348 . S
C642 H690 0.929 . S
C643 C644 1.358 . S
C643 C645 1.356 . S
C643 H691 0.930 . S
C644 N641 1.279 . S
C644 C643 1.358 . S
C644 H647 0.930 . S
C645 C642 1.348 . S
C645 C643 1.356 . S
H646 C640 0.930 . S
H647 C644 0.930 . S
C648 C650 1.348 . S
C648 C651 1.356 . S
C648 O678 1.325 1_545 S
N649 C652 1.314 . S
N649 C653 1.279 . S
C650 C648 1.348 . S
C650 C652 1.353 . S
C650 H692 0.929 . S
C651 C648 1.356 . S
C651 C653 1.358 . S
C651 H693 0.930 . S
C652 N649 1.314 . S
C652 C650 1.353 . S
C652 H694 0.930 . S
C653 N649 1.279 . S
C653 C651 1.358 . S
C653 H695 0.930 . S
C654 C655 1.348 1_565 S
C654 C656 1.356 . S
C654 O679 1.325 . S
C655 C654 1.348 1_545 S
C655 C657 1.353 . S
C655 H696 0.929 . S
C656 C654 1.356 . S
C656 C658 1.358 . S
C656 H697 0.930 . S
C657 C655 1.353 . S
C657 N659 1.314 1_545 S
C657 H698 0.930 . S
C658 C656 1.358 . S
C658 N659 1.279 . S
C658 H699 0.930 . S
N659 C657 1.314 1_565 S
N659 C658 1.279 . S
C660 C662 1.353 . S
C660 N663 1.314 . S
C660 H666 0.930 . S
C661 N663 1.279 . S
C661 C664 1.358 . S
C661 H667 0.930 . S
C662 C660 1.353 . S
C662 C665 1.348 . S
C662 H700 0.929 . S
N663 Li618 1.990 1_545 S
N663 C660 1.314 . S
N663 C661 1.279 . S
C664 C661 1.358 . S
C664 C665 1.356 . S
C664 H701 0.930 . S
C665 C662 1.348 . S
C665 C664 1.356 . S
H666 C660 0.930 . S
H667 C661 0.930 . S
C668 N669 1.314 . S
C668 C670 1.353 . S
C668 H674 0.930 . S
N669 Li619 1.990 . S
N669 C668 1.314 . S
N669 C672 1.279 . S
C670 C668 1.353 . S
C670 C673 1.348 . S
C670 H702 0.929 . S
C671 C672 1.358 . S
C671 C673 1.356 . S
C671 H703 0.930 . S
C672 N669 1.279 . S
C672 C671 1.358 . S
C672 H675 0.930 . S
C673 C670 1.348 . S
C673 C671 1.356 . S
H674 C668 0.930 . S
H675 C672 0.930 . S
O676 Li616 1.956 . S
O676 Li617 1.970 . S
O676 Li618 1.961 . S
O676 C620 1.325 . S
O677 Li616 1.970 . S
O677 Li617 1.956 . S
O677 Li619 1.961 . S
O677 C626 1.325 . S
O678 Li616 1.961 . S
O678 Li618 1.956 . S
O678 Li619 1.970 . S
O678 C648 1.325 1_565 S
O679 Li617 1.961 . S
O679 Li618 1.970 . S
O679 Li619 1.956 . S
O679 C654 1.325 . S
H680 C622 0.929 . S
H681 C623 0.930 . S
H682 C624 0.930 . S
H683 C625 0.930 . S
H684 C627 0.930 . S
H685 C629 0.929 . S
H686 C630 0.930 . S
H687 C631 0.930 . S
H688 C634 0.930 . S
H689 C637 0.929 . S
H690 C642 0.929 . S
H691 C643 0.930 . S
H692 C650 0.929 . S
H693 C651 0.930 . S
H694 C652 0.930 . S
H695 C653 0.930 . S
H696 C655 0.929 . S
H697 C656 0.930 . S
H698 C657 0.930 . S
H699 C658 0.930 . S
H700 C662 0.929 . S
H701 C664 0.930 . S
H702 C670 0.929 . S
H703 C671 0.930 . S
Li704 N721 1.990 . S
Li704 O764 1.956 . S
Li704 O765 1.970 . S
Li704 O766 1.961 . S
Li705 N729 1.990 . S
Li705 O764 1.970 . S
Li705 O765 1.956 . S
Li705 O767 1.961 . S
Li706 N751 1.990 1_455 S
Li706 O764 1.961 . S
Li706 O766 1.956 . S
Li706 O767 1.970 . S
Li707 N757 1.990 . S
Li707 O765 1.961 . S
Li707 O766 1.970 . S
Li707 O767 1.956 . S
C708 C710 1.348 . S
C708 C711 1.356 . S
C708 O764 1.325 . S
N709 C712 1.314 . S
N709 C713 1.279 . S
C710 C708 1.348 . S
C710 C712 1.353 . S
C710 H768 0.929 . S
C711 C708 1.356 . S
C711 C713 1.358 . S
C711 H769 0.930 . S
C712 N709 1.314 . S
C712 C710 1.353 . S
C712 H770 0.930 . S
C713 N709 1.279 . S
C713 C711 1.358 . S
C713 H771 0.930 . S
C714 C717 1.348 . S
C714 C718 1.356 . S
C714 O765 1.325 . S
C715 N716 1.279 . S
C715 C718 1.358 . S
C715 H772 0.930 . S
N716 C715 1.279 . S
N716 C719 1.314 . S
C717 C714 1.348 . S
C717 C719 1.353 . S
C717 H773 0.929 . S
C718 C714 1.356 . S
C718 C715 1.358 . S
C718 H774 0.930 . S
C719 N716 1.314 . S
C719 C717 1.353 . S
C719 H775 0.930 . S
C720 N721 1.314 . S
C720 C725 1.353 . S
C720 H726 0.930 . S
N721 Li704 1.990 . S
N721 C720 1.314 . S
N721 C723 1.279 . S
C722 C723 1.358 . S
C722 C724 1.356 . S
C722 H776 0.930 . S
C723 N721 1.279 . S
C723 C722 1.358 . S
C723 H727 0.930 . S
C724 C722 1.356 . S
C724 C725 1.348 . S
C725 C720 1.353 . S
C725 C724 1.348 . S
C725 H777 0.929 . S
H726 C720 0.930 . S
H727 C723 0.930 . S
C728 N729 1.314 . S
C728 C730 1.353 . S
C728 H734 0.930 . S
N729 Li705 1.990 . S
N729 C728 1.314 . S
N729 C732 1.279 . S
C730 C728 1.353 . S
C730 C733 1.348 . S
C730 H778 0.929 . S
C731 C732 1.358 . S
C731 C733 1.356 . S
C731 H779 0.930 . S
C732 N729 1.279 . S
C732 C731 1.358 . S
C732 H735 0.930 . S
C733 C730 1.348 . S
C733 C731 1.356 . S
H734 C728 0.930 . S
H735 C732 0.930 . S
C736 C738 1.348 . S
C736 C739 1.356 . S
C736 O766 1.325 1_655 S
N737 C740 1.314 . S
N737 C741 1.279 . S
C738 C736 1.348 . S
C738 C740 1.353 . S
C738 H780 0.929 . S
C739 C736 1.356 . S
C739 C741 1.358 . S
C739 H781 0.930 . S
C740 N737 1.314 . S
C740 C738 1.353 . S
C740 H782 0.930 . S
C741 N737 1.279 . S
C741 C739 1.358 . S
C741 H783 0.930 . S
C742 C743 1.338 1_455 S
C742 C744 1.356 . S
C742 O767 1.325 . S
C743 C742 1.338 1_655 S
C743 C745 1.359 . S
C743 H784 0.933 . S
C744 C742 1.356 . S
C744 C746 1.358 . S
C744 H785 0.930 . S
C745 C743 1.359 . S
C745 N747 1.314 1_655 S
C745 H786 0.930 . S
C746 C744 1.358 . S
C746 N747 1.279 . S
C746 H787 0.930 . S
N747 C745 1.314 1_455 S
N747 C746 1.279 . S
C748 C750 1.353 . S
C748 N751 1.314 . S
C748 H754 0.930 . S
C749 N751 1.279 . S
C749 C752 1.358 . S
C749 H755 0.930 . S
C750 C748 1.353 . S
C750 C753 1.348 . S
C750 H788 0.929 . S
N751 Li706 1.990 1_655 S
N751 C748 1.314 . S
N751 C749 1.279 . S
C752 C749 1.358 . S
C752 C753 1.356 . S
C752 H789 0.930 . S
C753 C750 1.348 . S
C753 C752 1.356 . S
H754 C748 0.930 . S
H755 C749 0.930 . S
C756 N757 1.314 . S
C756 C758 1.353 . S
C756 H762 0.930 . S
N757 Li707 1.990 . S
N757 C756 1.314 . S
N757 C760 1.279 . S
C758 C756 1.353 . S
C758 C761 1.348 . S
C758 H790 0.929 . S
C759 C760 1.358 . S
C759 C761 1.356 . S
C759 H791 0.930 . S
C760 N757 1.279 . S
C760 C759 1.358 . S
C760 H763 0.930 . S
C761 C758 1.348 . S
C761 C759 1.356 . S
H762 C756 0.930 . S
H763 C760 0.930 . S
O764 Li704 1.956 . S
O764 Li705 1.970 . S
O764 Li706 1.961 . S
O764 C708 1.325 . S
O765 Li704 1.970 . S
O765 Li705 1.956 . S
O765 Li707 1.961 . S
O765 C714 1.325 . S
O766 Li704 1.961 . S
O766 Li706 1.956 . S
O766 Li707 1.970 . S
O766 C736 1.325 1_455 S
O767 Li705 1.961 . S
O767 Li706 1.970 . S
O767 Li707 1.956 . S
O767 C742 1.325 . S
H768 C710 0.929 . S
H769 C711 0.930 . S
H770 C712 0.930 . S
H771 C713 0.930 . S
H772 C715 0.930 . S
H773 C717 0.929 . S
H774 C718 0.930 . S
H775 C719 0.930 . S
H776 C722 0.930 . S
H777 C725 0.929 . S
H778 C730 0.929 . S
H779 C731 0.930 . S
H780 C738 0.929 . S
H781 C739 0.930 . S
H782 C740 0.930 . S
H783 C741 0.930 . S
H784 C743 0.933 . S
H785 C744 0.930 . S
H786 C745 0.930 . S
H787 C746 0.930 . S
H788 C750 0.929 . S
H789 C752 0.930 . S
H790 C758 0.929 . S
H791 C759 0.930 . S
Li792 N809 1.990 1_565 S
Li792 O852 1.956 . S
Li792 O853 1.970 . S
Li792 O854 1.961 . S
Li793 N817 1.990 . S
Li793 O852 1.970 . S
Li793 O853 1.956 . S
Li793 O855 1.961 . S
Li794 N839 1.990 . S
Li794 O852 1.961 . S
Li794 O854 1.956 . S
Li794 O855 1.970 . S
Li795 N845 1.990 . S
Li795 O853 1.961 . S
Li795 O854 1.970 . S
Li795 O855 1.956 . S
C796 C798 1.348 . S
C796 C799 1.356 . S
C796 O852 1.325 . S
N797 C800 1.314 . S
N797 C801 1.279 . S
C798 C796 1.348 . S
C798 C800 1.353 . S
C798 H856 0.929 . S
C799 C796 1.356 . S
C799 C801 1.358 . S
C799 H857 0.930 . S
C800 N797 1.314 . S
C800 C798 1.353 . S
C800 H858 0.930 . S
C801 N797 1.279 . S
C801 C799 1.358 . S
C801 H859 0.930 . S
C802 C805 1.355 . S
C802 C806 1.356 . S
C802 O853 1.325 . S
C803 N804 1.279 . S
C803 C806 1.358 . S
C803 H860 0.930 . S
N804 C803 1.279 . S
N804 C807 1.314 1_565 S
C805 C802 1.355 . S
C805 C807 1.345 1_565 S
C805 H861 0.930 1_565 S
C806 C802 1.356 . S
C806 C803 1.358 . S
C806 H862 0.930 . S
C807 N804 1.314 1_545 S
C807 C805 1.345 1_545 S
C807 H863 0.930 . S
C808 N809 1.314 . S
C808 C813 1.353 . S
C808 H814 0.930 . S
N809 Li792 1.990 1_545 S
N809 C808 1.314 . S
N809 C811 1.279 . S
C810 C811 1.358 . S
C810 C812 1.356 . S
C810 H864 0.930 . S
C811 N809 1.279 . S
C811 C810 1.358 . S
C811 H815 0.930 . S
C812 C810 1.356 . S
C812 C813 1.348 . S
C813 C808 1.353 . S
C813 C812 1.348 . S
C813 H865 0.929 . S
H814 C808 0.930 . S
H815 C811 0.930 . S
C816 N817 1.314 . S
C816 C818 1.353 . S
C816 H822 0.930 . S
N817 Li793 1.990 . S
N817 C816 1.314 . S
N817 C820 1.279 . S
C818 C816 1.353 . S
C818 C821 1.348 . S
C818 H866 0.929 . S
C819 C820 1.358 . S
C819 C821 1.356 . S
C819 H867 0.930 . S
C820 N817 1.279 . S
C820 C819 1.358 . S
C820 H823 0.930 . S
C821 C818 1.348 . S
C821 C819 1.356 . S
H822 C816 0.930 . S
H823 C820 0.930 . S
C824 C826 1.348 . S
C824 C827 1.356 . S
C824 O854 1.325 1_545 S
N825 C828 1.314 . S
N825 C829 1.279 . S
C826 C824 1.348 . S
C826 C828 1.353 . S
C826 H868 0.929 1_545 S
C827 C824 1.356 . S
C827 C829 1.358 . S
C827 H869 0.930 . S
C828 N825 1.314 . S
C828 C826 1.353 . S
C828 H870 0.930 . S
C829 N825 1.279 . S
C829 C827 1.358 . S
C829 H871 0.930 . S
C830 C831 1.348 . S
C830 C832 1.356 . S
C830 O855 1.325 . S
C831 C830 1.348 . S
C831 C833 1.353 . S
C831 H872 0.929 . S
C832 C830 1.356 . S
C832 C834 1.358 . S
C832 H873 0.930 . S
C833 C831 1.353 . S
C833 N835 1.314 . S
C833 H874 0.930 . S
C834 C832 1.358 . S
C834 N835 1.279 . S
C834 H875 0.930 . S
N835 C833 1.314 . S
N835 C834 1.279 . S
C836 C838 1.353 . S
C836 N839 1.314 . S
C836 H842 0.930 . S
C837 N839 1.279 . S
C837 C840 1.358 . S
C837 H843 0.930 . S
C838 C836 1.353 . S
C838 C841 1.348 . S
C838 H876 0.929 . S
N839 Li794 1.990 . S
N839 C836 1.314 . S
N839 C837 1.279 . S
C840 C837 1.358 . S
C840 C841 1.356 . S
C840 H877 0.930 . S
C841 C838 1.348 . S
C841 C840 1.356 . S
H842 C836 0.930 . S
H843 C837 0.930 . S
C844 N845 1.314 . S
C844 C846 1.353 . S
C844 H850 0.944 . S
N845 Li795 1.990 . S
N845 C844 1.314 . S
N845 C848 1.279 . S
C846 C844 1.353 . S
C846 C849 1.348 . S
C846 H878 0.929 1_565 S
C847 C848 1.358 . S
C847 C849 1.356 . S
C847 H879 0.930 . S
C848 N845 1.279 . S
C848 C847 1.358 . S
C848 H851 0.930 . S
C849 C846 1.348 . S
C849 C847 1.356 . S
H850 C844 0.944 . S
H851 C848 0.930 . S
O852 Li792 1.956 . S
O852 Li793 1.970 . S
O852 Li794 1.961 . S
O852 C796 1.325 . S
O853 Li792 1.970 . S
O853 Li793 1.956 . S
O853 Li795 1.961 . S
O853 C802 1.325 . S
O854 Li792 1.961 . S
O854 Li794 1.956 . S
O854 Li795 1.970 . S
O854 C824 1.325 1_565 S
O855 Li793 1.961 . S
O855 Li794 1.970 . S
O855 Li795 1.956 . S
O855 C830 1.325 . S
H856 C798 0.929 . S
H857 C799 0.930 . S
H858 C800 0.930 . S
H859 C801 0.930 . S
H860 C803 0.930 . S
H861 C805 0.930 1_545 S
H862 C806 0.930 . S
H863 C807 0.930 . S
H864 C810 0.930 . S
H865 C813 0.929 . S
H866 C818 0.929 . S
H867 C819 0.930 . S
H868 C826 0.929 1_565 S
H869 C827 0.930 . S
H870 C828 0.930 . S
H871 C829 0.930 . S
H872 C831 0.929 . S
H873 C832 0.930 . S
H874 C833 0.930 . S
H875 C834 0.930 . S
H876 C838 0.929 . S
H877 C840 0.930 . S
H878 C846 0.929 1_545 S
H879 C847 0.930 . S
Li880 N897 1.990 . S
Li880 O940 1.956 . S
Li880 O941 1.970 . S
Li880 O942 1.961 . S
Li881 N905 1.990 1_455 S
Li881 O940 1.970 . S
Li881 O941 1.956 . S
Li881 O943 1.961 . S
Li882 N927 1.990 . S
Li882 O940 1.961 . S
Li882 O942 1.956 . S
Li882 O943 1.970 . S
Li883 N933 1.990 . S
Li883 O941 1.961 . S
Li883 O942 1.970 . S
Li883 O943 1.956 . S
C884 C886 1.354 . S
C884 C887 1.356 . S
C884 O940 1.325 . S
N885 C888 1.314 1_455 S
N885 C889 1.279 . S
C886 C884 1.354 . S
C886 C888 1.355 1_455 S
C886 H944 0.921 1_455 S
C887 C884 1.356 . S
C887 C889 1.358 . S
C887 H945 0.930 . S
C888 N885 1.314 1_655 S
C888 C886 1.355 1_655 S
C888 H946 0.930 . S
C889 N885 1.279 . S
C889 C887 1.358 . S
C889 H947 0.930 . S
C890 C893 1.348 . S
C890 C894 1.356 . S
C890 O941 1.325 . S
C891 N892 1.279 . S
C891 C894 1.358 . S
C891 H948 0.930 . S
N892 C891 1.279 . S
N892 C895 1.314 . S
C893 C890 1.348 . S
C893 C895 1.353 . S
C893 H949 0.929 . S
C894 C890 1.356 . S
C894 C891 1.358 . S
C894 H950 0.930 . S
C895 N892 1.314 . S
C895 C893 1.353 . S
C895 H951 0.930 . S
C896 N897 1.314 . S
C896 C901 1.353 . S
C896 H902 0.930 . S
N897 Li880 1.990 . S
N897 C896 1.314 . S
N897 C899 1.279 . S
C898 C899 1.358 . S
C898 C900 1.356 . S
C898 H952 0.930 . S
C899 N897 1.279 . S
C899 C898 1.358 . S
C899 H903 0.930 . S
C900 C898 1.356 . S
C900 C901 1.348 . S
C901 C896 1.353 . S
C901 C900 1.348 . S
C901 H953 0.929 . S
H902 C896 0.930 . S
H903 C899 0.930 . S
C904 N905 1.314 . S
C904 C906 1.353 . S
C904 H910 0.930 . S
N905 Li881 1.990 1_655 S
N905 C904 1.314 . S
N905 C908 1.279 . S
C906 C904 1.353 . S
C906 C909 1.348 . S
C906 H954 0.929 . S
C907 C908 1.358 . S
C907 C909 1.356 . S
C907 H955 0.930 . S
C908 N905 1.279 . S
C908 C907 1.358 . S
C908 H911 0.930 . S
C909 C906 1.348 . S
C909 C907 1.356 . S
H910 C904 0.930 . S
H911 C908 0.930 . S
C912 C914 1.348 . S
C912 C915 1.356 . S
C912 O942 1.325 . S
N913 C916 1.314 . S
N913 C917 1.279 . S
C914 C912 1.348 . S
C914 C916 1.353 . S
C914 H956 0.929 . S
C915 C912 1.356 . S
C915 C917 1.358 . S
C915 H957 0.930 . S
C916 N913 1.314 . S
C916 C914 1.353 . S
C916 H958 0.930 . S
C917 N913 1.279 . S
C917 C915 1.358 . S
C917 H959 0.930 . S
C918 C919 1.348 . S
C918 C920 1.356 . S
C918 O943 1.325 1_655 S
C919 C918 1.348 . S
C919 C921 1.353 . S
C919 H960 0.929 1_655 S
C920 C918 1.356 . S
C920 C922 1.358 . S
C920 H961 0.930 . S
C921 C919 1.353 . S
C921 N923 1.314 . S
C921 H962 0.930 . S
C922 C920 1.358 . S
C922 N923 1.279 . S
C922 H963 0.930 . S
N923 C921 1.314 . S
N923 C922 1.279 . S
C924 C926 1.353 . S
C924 N927 1.314 . S
C924 H930 0.904 1_455 S
C925 N927 1.279 . S
C925 C928 1.358 . S
C925 H931 0.930 . S
C926 C924 1.353 . S
C926 C929 1.348 . S
C926 H964 0.929 1_455 S
N927 Li882 1.990 . S
N927 C924 1.314 . S
N927 C925 1.279 . S
C928 C925 1.358 . S
C928 C929 1.356 . S
C928 H965 0.930 . S
C929 C926 1.348 . S
C929 C928 1.356 . S
H930 C924 0.904 1_655 S
H931 C925 0.930 . S
C932 N933 1.314 . S
C932 C934 1.353 . S
C932 H938 0.930 . S
N933 Li883 1.990 . S
N933 C932 1.314 . S
N933 C936 1.279 . S
C934 C932 1.353 . S
C934 C937 1.348 . S
C934 H966 0.929 . S
C935 C936 1.358 . S
C935 C937 1.356 . S
C935 H967 0.930 . S
C936 N933 1.279 . S
C936 C935 1.358 . S
C936 H939 0.930 . S
C937 C934 1.348 . S
C937 C935 1.356 . S
H938 C932 0.930 . S
H939 C936 0.930 . S
O940 Li880 1.956 . S
O940 Li881 1.970 . S
O940 Li882 1.961 . S
O940 C884 1.325 . S
O941 Li880 1.970 . S
O941 Li881 1.956 . S
O941 Li883 1.961 . S
O941 C890 1.325 . S
O942 Li880 1.961 . S
O942 Li882 1.956 . S
O942 Li883 1.970 . S
O942 C912 1.325 . S
O943 Li881 1.961 . S
O943 Li882 1.970 . S
O943 Li883 1.956 . S
O943 C918 1.325 1_455 S
H944 C886 0.921 1_655 S
H945 C887 0.930 . S
H946 C888 0.930 . S
H947 C889 0.930 . S
H948 C891 0.930 . S
H949 C893 0.929 . S
H950 C894 0.930 . S
H951 C895 0.930 . S
H952 C898 0.930 . S
H953 C901 0.929 . S
H954 C906 0.929 . S
H955 C907 0.930 . S
H956 C914 0.929 . S
H957 C915 0.930 . S
H958 C916 0.930 . S
H959 C917 0.930 . S
H960 C919 0.929 1_455 S
H961 C920 0.930 . S
H962 C921 0.930 . S
H963 C922 0.930 . S
H964 C926 0.929 1_655 S
H965 C928 0.930 . S
H966 C934 0.929 . S
H967 C935 0.930 . S
Li968 N985 1.990 . S
Li968 O1028 1.956 . S
Li968 O1029 1.970 . S
Li968 O1030 1.961 . S
Li969 N993 1.990 . S
Li969 O1028 1.970 . S
Li969 O1029 1.956 . S
Li969 O1031 1.961 . S
Li970 N1015 1.990 . S
Li970 O1028 1.961 . S
Li970 O1030 1.956 . S
Li970 O1031 1.970 . S
Li971 N1021 1.990 . S
Li971 O1029 1.961 . S
Li971 O1030 1.970 . S
Li971 O1031 1.956 . S
C972 C974 1.348 . S
C972 C975 1.356 . S
C972 O1028 1.325 . S
N973 C976 1.314 . S
N973 C977 1.279 . S
C974 C972 1.348 . S
C974 C976 1.353 . S
C974 H1032 0.929 . S
C975 C972 1.356 . S
C975 C977 1.358 . S
C975 H1033 0.930 . S
C976 N973 1.314 . S
C976 C974 1.353 . S
C976 H1034 0.930 . S
C977 N973 1.279 . S
C977 C975 1.358 . S
C977 H1035 0.930 . S
C978 C981 1.348 . S
C978 C982 1.356 . S
C978 O1029 1.325 . S
C979 N980 1.279 . S
C979 C982 1.358 . S
C979 H1036 0.930 . S
N980 C979 1.279 . S
N980 C983 1.314 . S
C981 C978 1.348 . S
C981 C983 1.353 . S
C981 H1037 0.929 . S
C982 C978 1.356 . S
C982 C979 1.358 . S
C982 H1038 0.930 . S
C983 N980 1.314 . S
C983 C981 1.353 . S
C983 H1039 0.930 . S
C984 N985 1.314 . S
C984 C989 1.353 . S
C984 H990 0.930 . S
N985 Li968 1.990 . S
N985 C984 1.314 . S
N985 C987 1.279 . S
C986 C987 1.358 . S
C986 C988 1.356 . S
C986 H1040 0.930 . S
C987 N985 1.279 . S
C987 C986 1.358 . S
C987 H991 0.930 . S
C988 C986 1.356 . S
C988 C989 1.348 . S
C989 C984 1.353 . S
C989 C988 1.348 . S
C989 H1041 0.929 . S
H990 C984 0.930 . S
H991 C987 0.930 . S
C992 N993 1.314 . S
C992 C994 1.353 . S
C992 H998 0.930 . S
N993 Li969 1.990 . S
N993 C992 1.314 . S
N993 C996 1.279 . S
C994 C992 1.353 . S
C994 C997 1.348 . S
C994 H1042 0.929 . S
C995 C996 1.358 . S
C995 C997 1.356 . S
C995 H1043 0.930 . S
C996 N993 1.279 . S
C996 C995 1.358 . S
C996 H999 0.930 . S
C997 C994 1.348 . S
C997 C995 1.356 . S
H998 C992 0.930 . S
H999 C996 0.930 . S
C1000 C1002 1.348 . S
C1000 C1003 1.356 . S
C1000 O1030 1.325 . S
N1001 C1004 1.314 . S
N1001 C1005 1.279 . S
C1002 C1000 1.348 . S
C1002 C1004 1.353 . S
C1002 H1044 0.929 . S
C1003 C1000 1.356 . S
C1003 C1005 1.358 . S
C1003 H1045 0.930 . S
C1004 N1001 1.314 . S
C1004 C1002 1.353 . S
C1004 H1046 0.930 . S
C1005 N1001 1.279 . S
C1005 C1003 1.358 . S
C1005 H1047 0.930 . S
C1006 C1007 1.348 . S
C1006 C1008 1.356 . S
C1006 O1031 1.325 . S
C1007 C1006 1.348 . S
C1007 C1009 1.353 . S
C1007 H1048 0.929 . S
C1008 C1006 1.356 . S
C1008 C1010 1.358 . S
C1008 H1049 0.930 . S
C1009 C1007 1.353 . S
C1009 N1011 1.314 . S
C1009 H1050 0.930 . S
C1010 C1008 1.358 . S
C1010 N1011 1.279 . S
C1010 H1051 0.930 . S
N1011 C1009 1.314 . S
N1011 C1010 1.279 . S
C1012 C1014 1.353 . S
C1012 N1015 1.314 . S
C1012 H1018 0.930 . S
C1013 N1015 1.279 . S
C1013 C1016 1.358 . S
C1013 H1019 0.930 . S
C1014 C1012 1.353 . S
C1014 C1017 1.348 . S
C1014 H1052 0.929 . S
N1015 Li970 1.990 . S
N1015 C1012 1.314 . S
N1015 C1013 1.279 . S
C1016 C1013 1.358 . S
C1016 C1017 1.356 . S
C1016 H1053 0.930 . S
C1017 C1014 1.348 . S
C1017 C1016 1.356 . S
H1018 C1012 0.930 . S
H1019 C1013 0.930 . S
C1020 N1021 1.314 . S
C1020 C1022 1.353 . S
C1020 H1026 0.930 . S
N1021 Li971 1.990 . S
N1021 C1020 1.314 . S
N1021 C1024 1.279 . S
C1022 C1020 1.353 . S
C1022 C1025 1.348 . S
C1022 H1054 0.929 . S
C1023 C1024 1.358 . S
C1023 C1025 1.356 . S
C1023 H1055 0.930 . S
C1024 N1021 1.279 . S
C1024 C1023 1.358 . S
C1024 H1027 0.930 . S
C1025 C1022 1.348 . S
C1025 C1023 1.356 . S
H1026 C1020 0.930 . S
H1027 C1024 0.930 . S
O1028 Li968 1.956 . S
O1028 Li969 1.970 . S
O1028 Li970 1.961 . S
O1028 C972 1.325 . S
O1029 Li968 1.970 . S
O1029 Li969 1.956 . S
O1029 Li971 1.961 . S
O1029 C978 1.325 . S
O1030 Li968 1.961 . S
O1030 Li970 1.956 . S
O1030 Li971 1.970 . S
O1030 C1000 1.325 . S
O1031 Li969 1.961 . S
O1031 Li970 1.970 . S
O1031 Li971 1.956 . S
O1031 C1006 1.325 . S
H1032 C974 0.929 . S
H1033 C975 0.930 . S
H1034 C976 0.930 . S
H1035 C977 0.930 . S
H1036 C979 0.930 . S
H1037 C981 0.929 . S
H1038 C982 0.930 . S
H1039 C983 0.930 . S
H1040 C986 0.930 . S
H1041 C989 0.929 . S
H1042 C994 0.929 . S
H1043 C995 0.930 . S
H1044 C1002 0.929 . S
H1045 C1003 0.930 . S
H1046 C1004 0.930 . S
H1047 C1005 0.930 . S
H1048 C1007 0.929 . S
H1049 C1008 0.930 . S
H1050 C1009 0.930 . S
H1051 C1010 0.930 . S
H1052 C1014 0.929 . S
H1053 C1016 0.930 . S
H1054 C1022 0.929 . S
H1055 C1023 0.930 . S
Li1056 N1073 1.990 1_545 S
Li1056 O1116 1.956 . S
Li1056 O1117 1.970 . S
Li1056 O1118 1.961 . S
Li1057 N1081 1.990 . S
Li1057 O1116 1.970 . S
Li1057 O1117 1.956 . S
Li1057 O1119 1.961 . S
Li1058 N1103 1.990 . S
Li1058 O1116 1.961 . S
Li1058 O1118 1.956 . S
Li1058 O1119 1.970 . S
Li1059 N1109 1.990 . S
Li1059 O1117 1.961 . S
Li1059 O1118 1.970 . S
Li1059 O1119 1.956 . S
C1060 C1062 1.348 . S
C1060 C1063 1.356 . S
C1060 O1116 1.325 1_565 S
N1061 C1064 1.314 . S
N1061 C1065 1.279 . S
C1062 C1060 1.348 . S
C1062 C1064 1.353 . S
C1062 H1120 0.929 . S
C1063 C1060 1.356 . S
C1063 C1065 1.358 . S
C1063 H1121 0.930 . S
C1064 N1061 1.314 . S
C1064 C1062 1.353 . S
C1064 H1122 0.930 . S
C1065 N1061 1.279 . S
C1065 C1063 1.358 . S
C1065 H1123 0.930 . S
C1066 C1069 1.348 1_545 S
C1066 C1070 1.356 . S
C1066 O1117 1.325 . S
C1067 N1068 1.279 . S
C1067 C1070 1.358 . S
C1067 H1124 0.930 . S
N1068 C1067 1.279 . S
N1068 C1071 1.314 1_545 S
C1069 C1066 1.348 1_565 S
C1069 C1071 1.353 . S
C1069 H1125 0.929 . S
C1070 C1066 1.356 . S
C1070 C1067 1.358 . S
C1070 H1126 0.930 . S
C1071 N1068 1.314 1_565 S
C1071 C1069 1.353 . S
C1071 H1127 0.930 . S
C1072 N1073 1.314 . S
C1072 C1077 1.353 . S
C1072 H1078 0.930 . S
N1073 Li1056 1.990 1_565 S
N1073 C1072 1.314 . S
N1073 C1075 1.279 . S
C1074 C1075 1.358 . S
C1074 C1076 1.356 . S
C1074 H1128 0.930 . S
C1075 N1073 1.279 . S
C1075 C1074 1.358 . S
C1075 H1079 0.930 . S
C1076 C1074 1.356 . S
C1076 C1077 1.348 . S
C1077 C1072 1.353 . S
C1077 C1076 1.348 . S
C1077 H1129 0.929 . S
H1078 C1072 0.930 . S
H1079 C1075 0.930 . S
C1080 N1081 1.314 . S
C1080 C1082 1.353 . S
C1080 H1086 0.930 . S
N1081 Li1057 1.990 . S
N1081 C1080 1.314 . S
N1081 C1084 1.279 . S
C1082 C1080 1.353 . S
C1082 C1085 1.348 . S
C1082 H1130 0.929 . S
C1083 C1084 1.358 . S
C1083 C1085 1.356 . S
C1083 H1131 0.930 . S
C1084 N1081 1.279 . S
C1084 C1083 1.358 . S
C1084 H1087 0.930 . S
C1085 C1082 1.348 . S
C1085 C1083 1.356 . S
H1086 C1080 0.930 . S
H1087 C1084 0.930 . S
C1088 C1090 1.348 . S
C1088 C1091 1.356 . S
C1088 O1118 1.325 . S
N1089 C1092 1.314 . S
N1089 C1093 1.279 . S
C1090 C1088 1.348 . S
C1090 C1092 1.353 . S
C1090 H1132 0.929 . S
C1091 C1088 1.356 . S
C1091 C1093 1.358 . S
C1091 H1133 0.930 . S
C1092 N1089 1.314 . S
C1092 C1090 1.353 . S
C1092 H1134 0.930 . S
C1093 N1089 1.279 . S
C1093 C1091 1.358 . S
C1093 H1135 0.930 . S
C1094 C1095 1.348 . S
C1094 C1096 1.356 . S
C1094 O1119 1.325 . S
C1095 C1094 1.348 . S
C1095 C1097 1.353 . S
C1095 H1136 0.929 . S
C1096 C1094 1.356 . S
C1096 C1098 1.358 . S
C1096 H1137 0.930 . S
C1097 C1095 1.353 . S
C1097 N1099 1.314 . S
C1097 H1138 0.930 . S
C1098 C1096 1.358 . S
C1098 N1099 1.279 . S
C1098 H1139 0.930 . S
N1099 C1097 1.314 . S
N1099 C1098 1.279 . S
C1100 C1102 1.353 . S
C1100 N1103 1.314 . S
C1100 H1106 0.930 . S
C1101 N1103 1.279 . S
C1101 C1104 1.358 . S
C1101 H1107 0.930 . S
C1102 C1100 1.353 . S
C1102 C1105 1.348 . S
C1102 H1140 0.929 . S
N1103 Li1058 1.990 . S
N1103 C1100 1.314 . S
N1103 C1101 1.279 . S
C1104 C1101 1.358 . S
C1104 C1105 1.356 . S
C1104 H1141 0.930 . S
C1105 C1102 1.348 . S
C1105 C1104 1.356 . S
H1106 C1100 0.930 . S
H1107 C1101 0.930 . S
C1108 N1109 1.314 . S
C1108 C1110 1.353 . S
C1108 H1114 0.930 . S
N1109 Li1059 1.990 . S
N1109 C1108 1.314 . S
N1109 C1112 1.279 . S
C1110 C1108 1.353 . S
C1110 C1113 1.348 . S
C1110 H1142 0.929 . S
C1111 C1112 1.358 . S
C1111 C1113 1.356 . S
C1111 H1143 0.930 . S
C1112 N1109 1.279 . S
C1112 C1111 1.358 . S
C1112 H1115 0.930 . S
C1113 C1110 1.348 . S
C1113 C1111 1.356 . S
H1114 C1108 0.930 . S
H1115 C1112 0.930 . S
O1116 Li1056 1.956 . S
O1116 Li1057 1.970 . S
O1116 Li1058 1.961 . S
O1116 C1060 1.325 1_545 S
O1117 Li1056 1.970 . S
O1117 Li1057 1.956 . S
O1117 Li1059 1.961 . S
O1117 C1066 1.325 . S
O1118 Li1056 1.961 . S
O1118 Li1058 1.956 . S
O1118 Li1059 1.970 . S
O1118 C1088 1.325 . S
O1119 Li1057 1.961 . S
O1119 Li1058 1.970 . S
O1119 Li1059 1.956 . S
O1119 C1094 1.325 . S
H1120 C1062 0.929 . S
H1121 C1063 0.930 . S
H1122 C1064 0.930 . S
H1123 C1065 0.930 . S
H1124 C1067 0.930 . S
H1125 C1069 0.929 . S
H1126 C1070 0.930 . S
H1127 C1071 0.930 . S
H1128 C1074 0.930 . S
H1129 C1077 0.929 . S
H1130 C1082 0.929 . S
H1131 C1083 0.930 . S
H1132 C1090 0.929 . S
H1133 C1091 0.930 . S
H1134 C1092 0.930 . S
H1135 C1093 0.930 . S
H1136 C1095 0.929 . S
H1137 C1096 0.930 . S
H1138 C1097 0.930 . S
H1139 C1098 0.930 . S
H1140 C1102 0.929 . S
H1141 C1104 0.930 . S
H1142 C1110 0.929 . S
H1143 C1111 0.930 . S
Li1144 N1161 1.959 1_655 S
Li1144 O1204 1.964 . S
Li1144 O1205 2.000 . S
Li1144 O1206 1.975 . S
Li1145 N1169 1.990 . S
Li1145 O1204 1.970 . S
Li1145 O1205 1.956 . S
Li1145 O1207 1.961 . S
Li1146 N1191 1.990 . S
Li1146 O1204 1.961 . S
Li1146 O1206 1.956 . S
Li1146 O1207 1.970 . S
Li1147 N1197 1.990 . S
Li1147 O1205 1.961 . S
Li1147 O1206 1.970 . S
Li1147 O1207 1.956 . S
C1148 C1150 1.348 . S
C1148 C1151 1.356 . S
C1148 O1204 1.325 1_455 S
N1149 C1152 1.314 . S
N1149 C1153 1.279 . S
C1150 C1148 1.348 . S
C1150 C1152 1.353 . S
C1150 H1208 0.929 . S
C1151 C1148 1.356 . S
C1151 C1153 1.358 . S
C1151 H1209 0.930 . S
C1152 N1149 1.314 . S
C1152 C1150 1.353 . S
C1152 H1210 0.930 . S
C1153 N1149 1.279 . S
C1153 C1151 1.358 . S
C1153 H1211 0.930 . S
C1154 C1157 1.348 1_655 S
C1154 C1158 1.356 . S
C1154 O1205 1.325 . S
C1155 N1156 1.318 . S
C1155 C1158 1.358 . S
C1155 H1212 0.930 . S
N1156 C1155 1.318 . S
N1156 C1159 1.268 1_655 S
C1157 C1154 1.348 1_455 S
C1157 C1159 1.353 . S
C1157 H1213 0.929 . S
C1158 C1154 1.356 . S
C1158 C1155 1.358 . S
C1158 H1214 0.930 . S
C1159 N1156 1.268 1_455 S
C1159 C1157 1.353 . S
C1159 H1215 0.930 . S
C1160 N1161 1.314 . S
C1160 C1165 1.353 . S
C1160 H1166 0.930 . S
N1161 Li1144 1.959 1_455 S
N1161 C1160 1.314 . S
N1161 C1163 1.279 . S
C1162 C1163 1.358 . S
C1162 C1164 1.356 . S
C1162 H1216 0.930 . S
C1163 N1161 1.279 . S
C1163 C1162 1.358 . S
C1163 H1167 0.930 . S
C1164 C1162 1.356 . S
C1164 C1165 1.348 . S
C1165 C1160 1.353 . S
C1165 C1164 1.348 . S
C1165 H1217 0.929 . S
H1166 C1160 0.930 . S
H1167 C1163 0.930 . S
C1168 N1169 1.314 . S
C1168 C1170 1.353 . S
C1168 H1174 0.930 . S
N1169 Li1145 1.990 . S
N1169 C1168 1.314 . S
N1169 C1172 1.279 . S
C1170 C1168 1.353 . S
C1170 C1173 1.348 . S
C1170 H1218 0.929 . S
C1171 C1172 1.358 . S
C1171 C1173 1.356 . S
C1171 H1219 0.930 . S
C1172 N1169 1.279 . S
C1172 C1171 1.358 . S
C1172 H1175 0.930 . S
C1173 C1170 1.348 . S
C1173 C1171 1.356 . S
H1174 C1168 0.930 . S
H1175 C1172 0.930 . S
C1176 C1178 1.348 . S
C1176 C1179 1.356 . S
C1176 O1206 1.325 . S
N1177 C1180 1.314 . S
N1177 C1181 1.279 . S
C1178 C1176 1.348 . S
C1178 C1180 1.353 . S
C1178 H1220 0.929 . S
C1179 C1176 1.356 . S
C1179 C1181 1.358 . S
C1179 H1221 0.958 . S
C1180 N1177 1.314 . S
C1180 C1178 1.353 . S
C1180 H1222 0.930 . S
C1181 N1177 1.279 . S
C1181 C1179 1.358 . S
C1181 H1223 0.930 . S
C1182 C1183 1.348 . S
C1182 C1184 1.356 . S
C1182 O1207 1.325 . S
C1183 C1182 1.348 . S
C1183 C1185 1.353 . S
C1183 H1224 0.929 . S
C1184 C1182 1.356 . S
C1184 C1186 1.358 . S
C1184 H1225 0.930 . S
C1185 C1183 1.353 . S
C1185 N1187 1.314 . S
C1185 H1226 0.930 . S
C1186 C1184 1.358 . S
C1186 N1187 1.279 . S
C1186 H1227 0.930 . S
N1187 C1185 1.314 . S
N1187 C1186 1.279 . S
C1188 C1190 1.353 . S
C1188 N1191 1.314 . S
C1188 H1194 0.930 . S
C1189 N1191 1.279 . S
C1189 C1192 1.358 . S
C1189 H1195 0.930 . S
C1190 C1188 1.353 . S
C1190 C1193 1.348 . S
C1190 H1228 0.929 . S
N1191 Li1146 1.990 . S
N1191 C1188 1.314 . S
N1191 C1189 1.279 . S
C1192 C1189 1.358 . S
C1192 C1193 1.356 . S
C1192 H1229 0.930 . S
C1193 C1190 1.348 . S
C1193 C1192 1.356 . S
H1194 C1188 0.930 . S
H1195 C1189 0.930 . S
C1196 N1197 1.314 . S
C1196 C1198 1.353 . S
C1196 H1202 0.930 . S
N1197 Li1147 1.990 . S
N1197 C1196 1.314 . S
N1197 C1200 1.279 . S
C1198 C1196 1.353 . S
C1198 C1201 1.348 . S
C1198 H1230 0.929 . S
C1199 C1200 1.358 . S
C1199 C1201 1.356 . S
C1199 H1231 0.930 . S
C1200 N1197 1.279 . S
C1200 C1199 1.358 . S
C1200 H1203 0.930 . S
C1201 C1198 1.348 . S
C1201 C1199 1.356 . S
H1202 C1196 0.930 . S
H1203 C1200 0.930 . S
O1204 Li1144 1.964 . S
O1204 Li1145 1.970 . S
O1204 Li1146 1.961 . S
O1204 C1148 1.325 1_655 S
O1205 Li1144 2.000 . S
O1205 Li1145 1.956 . S
O1205 Li1147 1.961 . S
O1205 C1154 1.325 . S
O1206 Li1144 1.975 . S
O1206 Li1146 1.956 . S
O1206 Li1147 1.970 . S
O1206 C1176 1.325 . S
O1207 Li1145 1.961 . S
O1207 Li1146 1.970 . S
O1207 Li1147 1.956 . S
O1207 C1182 1.325 . S
H1208 C1150 0.929 . S
H1209 C1151 0.930 . S
H1210 C1152 0.930 . S
H1211 C1153 0.930 . S
H1212 C1155 0.930 . S
H1213 C1157 0.929 . S
H1214 C1158 0.930 . S
H1215 C1159 0.930 . S
H1216 C1162 0.930 . S
H1217 C1165 0.929 . S
H1218 C1170 0.929 . S
H1219 C1171 0.930 . S
H1220 C1178 0.929 . S
H1221 C1179 0.958 . S
H1222 C1180 0.930 . S
H1223 C1181 0.930 . S
H1224 C1183 0.929 . S
H1225 C1184 0.930 . S
H1226 C1185 0.930 . S
H1227 C1186 0.930 . S
H1228 C1190 0.929 . S
H1229 C1192 0.930 . S
H1230 C1198 0.929 . S
H1231 C1199 0.930 . S
Li1232 N1249 1.990 . S
Li1232 O1292 1.956 . S
Li1232 O1293 1.970 . S
Li1232 O1294 1.961 . S
Li1233 N1257 1.990 . S
Li1233 O1292 1.970 . S
Li1233 O1293 1.956 . S
Li1233 O1295 1.961 . S
Li1234 N1279 1.990 . S
Li1234 O1292 1.961 . S
Li1234 O1294 1.956 . S
Li1234 O1295 1.970 . S
Li1235 N1285 1.990 . S
Li1235 O1293 1.961 . S
Li1235 O1294 1.970 . S
Li1235 O1295 1.956 . S
C1236 C1238 1.348 . S
C1236 C1239 1.356 . S
C1236 O1292 1.325 . S
N1237 C1240 1.314 . S
N1237 C1241 1.279 . S
C1238 C1236 1.348 . S
C1238 C1240 1.353 . S
C1238 H1296 0.929 . S
C1239 C1236 1.356 . S
C1239 C1241 1.358 . S
C1239 H1297 0.930 . S
C1240 N1237 1.314 . S
C1240 C1238 1.353 . S
C1240 H1298 0.930 . S
C1241 N1237 1.279 . S
C1241 C1239 1.358 . S
C1241 H1299 0.930 . S
C1242 C1245 1.348 . S
C1242 C1246 1.356 . S
C1242 O1293 1.325 . S
C1243 N1244 1.279 . S
C1243 C1246 1.358 . S
C1243 H1300 0.930 . S
N1244 C1243 1.279 . S
N1244 C1247 1.314 . S
C1245 C1242 1.348 . S
C1245 C1247 1.353 . S
C1245 H1301 0.929 . S
C1246 C1242 1.356 . S
C1246 C1243 1.358 . S
C1246 H1302 0.930 . S
C1247 N1244 1.314 . S
C1247 C1245 1.353 . S
C1247 H1303 0.930 . S
C1248 N1249 1.314 . S
C1248 C1253 1.353 . S
C1248 H1254 0.930 . S
N1249 Li1232 1.990 . S
N1249 C1248 1.314 . S
N1249 C1251 1.279 . S
C1250 C1251 1.358 . S
C1250 C1252 1.356 . S
C1250 H1304 0.930 . S
C1251 N1249 1.279 . S
C1251 C1250 1.358 . S
C1251 H1255 0.930 . S
C1252 C1250 1.356 . S
C1252 C1253 1.348 . S
C1253 C1248 1.353 . S
C1253 C1252 1.348 . S
C1253 H1305 0.929 . S
H1254 C1248 0.930 . S
H1255 C1251 0.930 . S
C1256 N1257 1.314 . S
C1256 C1258 1.353 . S
C1256 H1262 0.930 . S
N1257 Li1233 1.990 . S
N1257 C1256 1.314 . S
N1257 C1260 1.279 . S
C1258 C1256 1.353 . S
C1258 C1261 1.348 . S
C1258 H1306 0.929 . S
C1259 C1260 1.358 . S
C1259 C1261 1.356 . S
C1259 H1307 0.930 . S
C1260 N1257 1.279 . S
C1260 C1259 1.358 . S
C1260 H1263 0.930 . S
C1261 C1258 1.348 . S
C1261 C1259 1.356 . S
H1262 C1256 0.930 . S
H1263 C1260 0.930 . S
C1264 C1266 1.348 . S
C1264 C1267 1.356 . S
C1264 O1294 1.325 . S
N1265 C1268 1.314 . S
N1265 C1269 1.279 . S
C1266 C1264 1.348 . S
C1266 C1268 1.353 . S
C1266 H1308 0.929 . S
C1267 C1264 1.356 . S
C1267 C1269 1.358 . S
C1267 H1309 0.930 . S
C1268 N1265 1.314 . S
C1268 C1266 1.353 . S
C1268 H1310 0.930 . S
C1269 N1265 1.279 . S
C1269 C1267 1.358 . S
C1269 H1311 0.930 . S
C1270 C1271 1.348 . S
C1270 C1272 1.356 . S
C1270 O1295 1.325 . S
C1271 C1270 1.348 . S
C1271 C1273 1.353 . S
C1271 H1312 0.929 . S
C1272 C1270 1.356 . S
C1272 C1274 1.358 . S
C1272 H1313 0.930 . S
C1273 C1271 1.353 . S
C1273 N1275 1.314 . S
C1273 H1314 0.930 . S
C1274 C1272 1.358 . S
C1274 N1275 1.279 . S
C1274 H1315 0.930 . S
N1275 C1273 1.314 . S
N1275 C1274 1.279 . S
C1276 C1278 1.353 . S
C1276 N1279 1.314 . S
C1276 H1282 0.930 . S
C1277 N1279 1.279 . S
C1277 C1280 1.358 . S
C1277 H1283 0.930 . S
C1278 C1276 1.353 . S
C1278 C1281 1.348 . S
C1278 H1316 0.929 . S
N1279 Li1234 1.990 . S
N1279 C1276 1.314 . S
N1279 C1277 1.279 . S
C1280 C1277 1.358 . S
C1280 C1281 1.356 . S
C1280 H1317 0.930 . S
C1281 C1278 1.348 . S
C1281 C1280 1.356 . S
H1282 C1276 0.930 . S
H1283 C1277 0.930 . S
C1284 N1285 1.314 . S
C1284 C1286 1.353 . S
C1284 H1290 0.930 . S
N1285 Li1235 1.990 . S
N1285 C1284 1.314 . S
N1285 C1288 1.279 . S
C1286 C1284 1.353 . S
C1286 C1289 1.348 . S
C1286 H1318 0.929 . S
C1287 C1288 1.358 . S
C1287 C1289 1.356 . S
C1287 H1319 0.930 . S
C1288 N1285 1.279 . S
C1288 C1287 1.358 . S
C1288 H1291 0.930 . S
C1289 C1286 1.348 . S
C1289 C1287 1.356 . S
H1290 C1284 0.930 . S
H1291 C1288 0.930 . S
O1292 Li1232 1.956 . S
O1292 Li1233 1.970 . S
O1292 Li1234 1.961 . S
O1292 C1236 1.325 . S
O1293 Li1232 1.970 . S
O1293 Li1233 1.956 . S
O1293 Li1235 1.961 . S
O1293 C1242 1.325 . S
O1294 Li1232 1.961 . S
O1294 Li1234 1.956 . S
O1294 Li1235 1.970 . S
O1294 C1264 1.325 . S
O1295 Li1233 1.961 . S
O1295 Li1234 1.970 . S
O1295 Li1235 1.956 . S
O1295 C1270 1.325 . S
H1296 C1238 0.929 . S
H1297 C1239 0.930 . S
H1298 C1240 0.930 . S
H1299 C1241 0.930 . S
H1300 C1243 0.930 . S
H1301 C1245 0.929 . S
H1302 C1246 0.930 . S
H1303 C1247 0.930 . S
H1304 C1250 0.930 . S
H1305 C1253 0.929 . S
H1306 C1258 0.929 . S
H1307 C1259 0.930 . S
H1308 C1266 0.929 . S
H1309 C1267 0.930 . S
H1310 C1268 0.930 . S
H1311 C1269 0.930 . S
H1312 C1271 0.929 . S
H1313 C1272 0.930 . S
H1314 C1273 0.930 . S
H1315 C1274 0.930 . S
H1316 C1278 0.929 . S
H1317 C1280 0.930 . S
H1318 C1286 0.929 . S
H1319 C1287 0.930 . S
Li1320 N1337 1.990 . S
Li1320 O1380 1.956 . S
Li1320 O1381 1.970 . S
Li1320 O1382 1.961 . S
Li1321 N1345 1.990 . S
Li1321 O1380 1.970 . S
Li1321 O1381 1.956 . S
Li1321 O1383 1.961 . S
Li1322 N1367 1.990 . S
Li1322 O1380 1.961 . S
Li1322 O1382 1.956 . S
Li1322 O1383 1.970 . S
Li1323 N1373 1.990 . S
Li1323 O1381 1.961 . S
Li1323 O1382 1.970 . S
Li1323 O1383 1.956 . S
C1324 C1326 1.348 . S
C1324 C1327 1.356 . S
C1324 O1380 1.325 . S
N1325 C1328 1.314 . S
N1325 C1329 1.279 . S
C1326 C1324 1.348 . S
C1326 C1328 1.353 . S
C1326 H1384 0.929 . S
C1327 C1324 1.356 . S
C1327 C1329 1.358 . S
C1327 H1385 0.930 . S
C1328 N1325 1.314 . S
C1328 C1326 1.353 . S
C1328 H1386 0.930 . S
C1329 N1325 1.279 . S
C1329 C1327 1.358 . S
C1329 H1387 0.930 . S
C1330 C1333 1.348 . S
C1330 C1334 1.356 . S
C1330 O1381 1.325 . S
C1331 N1332 1.279 . S
C1331 C1334 1.358 . S
C1331 H1388 0.930 . S
N1332 C1331 1.279 . S
N1332 C1335 1.314 . S
C1333 C1330 1.348 . S
C1333 C1335 1.353 . S
C1333 H1389 0.929 . S
C1334 C1330 1.356 . S
C1334 C1331 1.358 . S
C1334 H1390 0.930 . S
C1335 N1332 1.314 . S
C1335 C1333 1.353 . S
C1335 H1391 0.930 . S
C1336 N1337 1.314 . S
C1336 C1341 1.353 . S
C1336 H1342 0.930 . S
N1337 Li1320 1.990 . S
N1337 C1336 1.314 . S
N1337 C1339 1.279 . S
C1338 C1339 1.358 . S
C1338 C1340 1.356 . S
C1338 H1392 0.930 . S
C1339 N1337 1.279 . S
C1339 C1338 1.358 . S
C1339 H1343 0.930 . S
C1340 C1338 1.356 . S
C1340 C1341 1.348 . S
C1341 C1336 1.353 . S
C1341 C1340 1.348 . S
C1341 H1393 0.929 . S
H1342 C1336 0.930 . S
H1343 C1339 0.930 . S
C1344 N1345 1.314 . S
C1344 C1346 1.353 . S
C1344 H1350 0.930 . S
N1345 Li1321 1.990 . S
N1345 C1344 1.314 . S
N1345 C1348 1.279 . S
C1346 C1344 1.353 . S
C1346 C1349 1.348 . S
C1346 H1394 0.929 . S
C1347 C1348 1.358 . S
C1347 C1349 1.356 . S
C1347 H1395 0.930 . S
C1348 N1345 1.279 . S
C1348 C1347 1.358 . S
C1348 H1351 0.930 . S
C1349 C1346 1.348 . S
C1349 C1347 1.356 . S
H1350 C1344 0.930 . S
H1351 C1348 0.930 . S
C1352 C1354 1.348 . S
C1352 C1355 1.356 . S
C1352 O1382 1.325 . S
N1353 C1356 1.314 . S
N1353 C1357 1.279 . S
C1354 C1352 1.348 . S
C1354 C1356 1.353 . S
C1354 H1396 0.929 . S
C1355 C1352 1.356 . S
C1355 C1357 1.358 . S
C1355 H1397 0.930 . S
C1356 N1353 1.314 . S
C1356 C1354 1.353 . S
C1356 H1398 0.930 . S
C1357 N1353 1.279 . S
C1357 C1355 1.358 . S
C1357 H1399 0.930 . S
C1358 C1359 1.348 . S
C1358 C1360 1.356 . S
C1358 O1383 1.325 . S
C1359 C1358 1.348 . S
C1359 C1361 1.353 . S
C1359 H1400 0.929 . S
C1360 C1358 1.356 . S
C1360 C1362 1.358 . S
C1360 H1401 0.930 . S
C1361 C1359 1.353 . S
C1361 N1363 1.314 . S
C1361 H1402 0.930 . S
C1362 C1360 1.358 . S
C1362 N1363 1.279 . S
C1362 H1403 0.930 . S
N1363 C1361 1.314 . S
N1363 C1362 1.279 . S
C1364 C1366 1.353 . S
C1364 N1367 1.314 . S
C1364 H1370 0.930 . S
C1365 N1367 1.279 . S
C1365 C1368 1.358 . S
C1365 H1371 0.930 . S
C1366 C1364 1.353 . S
C1366 C1369 1.348 . S
C1366 H1404 0.929 . S
N1367 Li1322 1.990 . S
N1367 C1364 1.314 . S
N1367 C1365 1.279 . S
C1368 C1365 1.358 . S
C1368 C1369 1.356 . S
C1368 H1405 0.930 . S
C1369 C1366 1.348 . S
C1369 C1368 1.356 . S
H1370 C1364 0.930 . S
H1371 C1365 0.930 . S
C1372 N1373 1.314 . S
C1372 C1374 1.353 . S
C1372 H1378 0.930 . S
N1373 Li1323 1.990 . S
N1373 C1372 1.314 . S
N1373 C1376 1.279 . S
C1374 C1372 1.353 . S
C1374 C1377 1.348 . S
C1374 H1406 0.929 . S
C1375 C1376 1.358 . S
C1375 C1377 1.356 . S
C1375 H1407 0.930 . S
C1376 N1373 1.279 . S
C1376 C1375 1.358 . S
C1376 H1379 0.930 . S
C1377 C1374 1.348 . S
C1377 C1375 1.356 . S
H1378 C1372 0.930 . S
H1379 C1376 0.930 . S
O1380 Li1320 1.956 . S
O1380 Li1321 1.970 . S
O1380 Li1322 1.961 . S
O1380 C1324 1.325 . S
O1381 Li1320 1.970 . S
O1381 Li1321 1.956 . S
O1381 Li1323 1.961 . S
O1381 C1330 1.325 . S
O1382 Li1320 1.961 . S
O1382 Li1322 1.956 . S
O1382 Li1323 1.970 . S
O1382 C1352 1.325 . S
O1383 Li1321 1.961 . S
O1383 Li1322 1.970 . S
O1383 Li1323 1.956 . S
O1383 C1358 1.325 . S
H1384 C1326 0.929 . S
H1385 C1327 0.930 . S
H1386 C1328 0.930 . S
H1387 C1329 0.930 . S
H1388 C1331 0.930 . S
H1389 C1333 0.929 . S
H1390 C1334 0.930 . S
H1391 C1335 0.930 . S
H1392 C1338 0.930 . S
H1393 C1341 0.929 . S
H1394 C1346 0.929 . S
H1395 C1347 0.930 . S
H1396 C1354 0.929 . S
H1397 C1355 0.930 . S
H1398 C1356 0.930 . S
H1399 C1357 0.930 . S
H1400 C1359 0.929 . S
H1401 C1360 0.930 . S
H1402 C1361 0.930 . S
H1403 C1362 0.930 . S
H1404 C1366 0.929 . S
H1405 C1368 0.930 . S
H1406 C1374 0.929 . S
H1407 C1375 0.930 . S
Li1408 N1425 1.990 . S
Li1408 O1468 1.956 . S
Li1408 O1469 1.970 . S
Li1408 O1470 1.961 . S
Li1409 N1433 1.990 . S
Li1409 O1468 1.970 . S
Li1409 O1469 1.956 . S
Li1409 O1471 1.961 . S
Li1410 N1455 1.990 . S
Li1410 O1468 1.961 . S
Li1410 O1470 1.956 . S
Li1410 O1471 1.970 . S
Li1411 N1461 1.990 1_545 S
Li1411 O1469 1.961 . S
Li1411 O1470 1.970 . S
Li1411 O1471 1.956 . S
C1412 C1414 1.348 . S
C1412 C1415 1.356 . S
C1412 O1468 1.325 . S
N1413 C1416 1.314 . S
N1413 C1417 1.279 . S
C1414 C1412 1.348 . S
C1414 C1416 1.353 . S
C1414 H1472 0.929 . S
C1415 C1412 1.356 . S
C1415 C1417 1.358 . S
C1415 H1473 0.930 . S
C1416 N1413 1.314 . S
C1416 C1414 1.353 . S
C1416 H1474 0.930 . S
C1417 N1413 1.279 . S
C1417 C1415 1.358 . S
C1417 H1475 0.930 . S
C1418 C1421 1.348 . S
C1418 C1422 1.356 . S
C1418 O1469 1.325 1_565 S
C1419 N1420 1.279 . S
C1419 C1422 1.358 . S
C1419 H1476 0.930 . S
N1420 C1419 1.279 . S
N1420 C1423 1.314 . S
C1421 C1418 1.348 . S
C1421 C1423 1.353 . S
C1421 H1477 0.850 1_565 S
C1422 C1418 1.356 . S
C1422 C1419 1.358 . S
C1422 H1478 0.930 . S
C1423 N1420 1.314 . S
C1423 C1421 1.353 . S
C1423 H1479 0.930 . S
C1424 N1425 1.314 . S
C1424 C1429 1.353 . S
C1424 H1430 0.879 1_545 S
N1425 Li1408 1.990 . S
N1425 C1424 1.314 . S
N1425 C1427 1.279 . S
C1426 C1427 1.358 . S
C1426 C1428 1.356 . S
C1426 H1480 0.930 . S
C1427 N1425 1.279 . S
C1427 C1426 1.358 . S
C1427 H1431 0.930 . S
C1428 C1426 1.356 . S
C1428 C1429 1.348 . S
C1429 C1424 1.353 . S
C1429 C1428 1.348 . S
C1429 H1481 0.929 1_545 S
H1430 C1424 0.879 1_565 S
H1431 C1427 0.930 . S
C1432 N1433 1.314 . S
C1432 C1434 1.353 . S
C1432 H1438 0.930 . S
N1433 Li1409 1.990 . S
N1433 C1432 1.314 . S
N1433 C1436 1.279 . S
C1434 C1432 1.353 . S
C1434 C1437 1.348 . S
C1434 H1482 0.929 . S
C1435 C1436 1.358 . S
C1435 C1437 1.356 . S
C1435 H1483 0.930 . S
C1436 N1433 1.279 . S
C1436 C1435 1.358 . S
C1436 H1439 0.930 . S
C1437 C1434 1.348 . S
C1437 C1435 1.356 . S
H1438 C1432 0.930 . S
H1439 C1436 0.930 . S
C1440 C1442 1.312 1_545 S
C1440 C1443 1.356 . S
C1440 O1470 1.325 . S
N1441 C1444 1.314 1_545 S
N1441 C1445 1.279 . S
C1442 C1440 1.312 1_565 S
C1442 C1444 1.342 . S
C1442 H1484 0.978 . S
C1443 C1440 1.356 . S
C1443 C1445 1.358 . S
C1443 H1485 0.930 . S
C1444 N1441 1.314 1_565 S
C1444 C1442 1.342 . S
C1444 H1486 0.930 . S
C1445 N1441 1.279 . S
C1445 C1443 1.358 . S
C1445 H1487 0.930 . S
C1446 C1447 1.348 . S
C1446 C1448 1.356 . S
C1446 O1471 1.325 . S
C1447 C1446 1.348 . S
C1447 C1449 1.353 . S
C1447 H1488 0.929 . S
C1448 C1446 1.356 . S
C1448 C1450 1.358 . S
C1448 H1489 0.930 . S
C1449 C1447 1.353 . S
C1449 N1451 1.314 . S
C1449 H1490 0.930 . S
C1450 C1448 1.358 . S
C1450 N1451 1.279 . S
C1450 H1491 0.930 . S
N1451 C1449 1.314 . S
N1451 C1450 1.279 . S
C1452 C1454 1.353 . S
C1452 N1455 1.314 . S
C1452 H1458 0.930 . S
C1453 N1455 1.279 . S
C1453 C1456 1.358 . S
C1453 H1459 0.930 . S
C1454 C1452 1.353 . S
C1454 C1457 1.348 . S
C1454 H1492 0.929 . S
N1455 Li1410 1.990 . S
N1455 C1452 1.314 . S
N1455 C1453 1.279 . S
C1456 C1453 1.358 . S
C1456 C1457 1.356 . S
C1456 H1493 0.930 . S
C1457 C1454 1.348 . S
C1457 C1456 1.356 . S
H1458 C1452 0.930 . S
H1459 C1453 0.930 . S
C1460 N1461 1.314 . S
C1460 C1462 1.353 . S
C1460 H1466 0.930 . S
N1461 Li1411 1.990 1_565 S
N1461 C1460 1.314 . S
N1461 C1464 1.279 . S
C1462 C1460 1.353 . S
C1462 C1465 1.348 . S
C1462 H1494 0.929 . S
C1463 C1464 1.358 . S
C1463 C1465 1.356 . S
C1463 H1495 0.930 . S
C1464 N1461 1.279 . S
C1464 C1463 1.358 . S
C1464 H1467 0.930 . S
C1465 C1462 1.348 . S
C1465 C1463 1.356 . S
H1466 C1460 0.930 . S
H1467 C1464 0.930 . S
O1468 Li1408 1.956 . S
O1468 Li1409 1.970 . S
O1468 Li1410 1.961 . S
O1468 C1412 1.325 . S
O1469 Li1408 1.970 . S
O1469 Li1409 1.956 . S
O1469 Li1411 1.961 . S
O1469 C1418 1.325 1_545 S
O1470 Li1408 1.961 . S
O1470 Li1410 1.956 . S
O1470 Li1411 1.970 . S
O1470 C1440 1.325 . S
O1471 Li1409 1.961 . S
O1471 Li1410 1.970 . S
O1471 Li1411 1.956 . S
O1471 C1446 1.325 . S
H1472 C1414 0.929 . S
H1473 C1415 0.930 . S
H1474 C1416 0.930 . S
H1475 C1417 0.930 . S
H1476 C1419 0.930 . S
H1477 C1421 0.850 1_545 S
H1478 C1422 0.930 . S
H1479 C1423 0.930 . S
H1480 C1426 0.930 . S
H1481 C1429 0.929 1_565 S
H1482 C1434 0.929 . S
H1483 C1435 0.930 . S
H1484 C1442 0.978 . S
H1485 C1443 0.930 . S
H1486 C1444 0.930 . S
H1487 C1445 0.930 . S
H1488 C1447 0.929 . S
H1489 C1448 0.930 . S
H1490 C1449 0.930 . S
H1491 C1450 0.930 . S
H1492 C1454 0.929 . S
H1493 C1456 0.930 . S
H1494 C1462 0.929 . S
H1495 C1463 0.930 . S
Li1496 N1513 1.990 . S
Li1496 O1556 1.956 . S
Li1496 O1557 1.970 . S
Li1496 O1558 1.961 . S
Li1497 N1521 1.990 . S
Li1497 O1556 1.970 . S
Li1497 O1557 1.956 . S
Li1497 O1559 1.961 . S
Li1498 N1543 1.990 1_655 S
Li1498 O1556 1.961 . S
Li1498 O1558 1.956 . S
Li1498 O1559 1.970 . S
Li1499 N1549 1.990 . S
Li1499 O1557 1.961 . S
Li1499 O1558 1.970 . S
Li1499 O1559 1.956 . S
C1500 C1502 1.348 . S
C1500 C1503 1.356 . S
C1500 O1556 1.325 1_455 S
N1501 C1504 1.314 . S
N1501 C1505 1.279 . S
C1502 C1500 1.348 . S
C1502 C1504 1.353 . S
C1502 H1560 0.929 1_455 S
C1503 C1500 1.356 . S
C1503 C1505 1.358 . S
C1503 H1561 0.930 . S
C1504 N1501 1.314 . S
C1504 C1502 1.353 . S
C1504 H1562 0.930 . S
C1505 N1501 1.279 . S
C1505 C1503 1.358 . S
C1505 H1563 0.930 . S
C1506 C1509 1.348 . S
C1506 C1510 1.356 . S
C1506 O1557 1.325 . S
C1507 N1508 1.279 . S
C1507 C1510 1.358 . S
C1507 H1564 0.930 . S
N1508 C1507 1.279 . S
N1508 C1511 1.314 . S
C1509 C1506 1.348 . S
C1509 C1511 1.353 . S
C1509 H1565 0.929 . S
C1510 C1506 1.356 . S
C1510 C1507 1.358 . S
C1510 H1566 0.930 . S
C1511 N1508 1.314 . S
C1511 C1509 1.353 . S
C1511 H1567 0.930 . S
C1512 N1513 1.314 . S
C1512 C1517 1.353 . S
C1512 H1518 0.930 . S
N1513 Li1496 1.990 . S
N1513 C1512 1.314 . S
N1513 C1515 1.279 . S
C1514 C1515 1.358 . S
C1514 C1516 1.356 . S
C1514 H1568 0.930 . S
C1515 N1513 1.279 . S
C1515 C1514 1.358 . S
C1515 H1519 0.930 . S
C1516 C1514 1.356 . S
C1516 C1517 1.348 . S
C1517 C1512 1.353 . S
C1517 C1516 1.348 . S
C1517 H1569 0.929 . S
H1518 C1512 0.930 . S
H1519 C1515 0.930 . S
C1520 N1521 1.314 . S
C1520 C1522 1.353 . S
C1520 H1526 0.930 . S
N1521 Li1497 1.990 . S
N1521 C1520 1.314 . S
N1521 C1524 1.279 . S
C1522 C1520 1.353 . S
C1522 C1525 1.348 . S
C1522 H1570 0.929 1_655 S
C1523 C1524 1.358 . S
C1523 C1525 1.356 . S
C1523 H1571 0.930 . S
C1524 N1521 1.279 . S
C1524 C1523 1.358 . S
C1524 H1527 0.930 . S
C1525 C1522 1.348 . S
C1525 C1523 1.356 . S
H1526 C1520 0.930 . S
H1527 C1524 0.930 . S
C1528 C1530 1.348 . S
C1528 C1531 1.356 . S
C1528 O1558 1.325 . S
N1529 C1532 1.314 . S
N1529 C1533 1.279 . S
C1530 C1528 1.348 . S
C1530 C1532 1.353 . S
C1530 H1572 0.929 . S
C1531 C1528 1.356 . S
C1531 C1533 1.358 . S
C1531 H1573 0.930 . S
C1532 N1529 1.314 . S
C1532 C1530 1.353 . S
C1532 H1574 0.930 . S
C1533 N1529 1.279 . S
C1533 C1531 1.358 . S
C1533 H1575 0.930 . S
C1534 C1535 1.348 . S
C1534 C1536 1.356 . S
C1534 O1559 1.325 . S
C1535 C1534 1.348 . S
C1535 C1537 1.353 1_655 S
C1535 H1576 0.929 1_655 S
C1536 C1534 1.356 . S
C1536 C1538 1.358 . S
C1536 H1577 0.930 . S
C1537 C1535 1.353 1_455 S
C1537 N1539 1.314 1_455 S
C1537 H1578 0.930 . S
C1538 C1536 1.358 . S
C1538 N1539 1.279 . S
C1538 H1579 0.930 . S
N1539 C1537 1.314 1_655 S
N1539 C1538 1.279 . S
C1540 C1542 1.353 . S
C1540 N1543 1.314 . S
C1540 H1546 0.930 . S
C1541 N1543 1.279 . S
C1541 C1544 1.358 . S
C1541 H1547 0.930 . S
C1542 C1540 1.353 . S
C1542 C1545 1.348 . S
C1542 H1580 0.929 . S
N1543 Li1498 1.990 1_455 S
N1543 C1540 1.314 . S
N1543 C1541 1.279 . S
C1544 C1541 1.358 . S
C1544 C1545 1.356 . S
C1544 H1581 0.930 . S
C1545 C1542 1.348 . S
C1545 C1544 1.356 . S
H1546 C1540 0.930 . S
H1547 C1541 0.930 . S
C1548 N1549 1.314 . S
C1548 C1550 1.353 . S
C1548 H1554 0.930 . S
N1549 Li1499 1.990 . S
N1549 C1548 1.314 . S
N1549 C1552 1.279 . S
C1550 C1548 1.353 . S
C1550 C1553 1.348 . S
C1550 H1582 0.929 . S
C1551 C1552 1.358 . S
C1551 C1553 1.356 . S
C1551 H1583 0.930 . S
C1552 N1549 1.279 . S
C1552 C1551 1.358 . S
C1552 H1555 0.930 . S
C1553 C1550 1.348 . S
C1553 C1551 1.356 . S
H1554 C1548 0.930 . S
H1555 C1552 0.930 . S
O1556 Li1496 1.956 . S
O1556 Li1497 1.970 . S
O1556 Li1498 1.961 . S
O1556 C1500 1.325 1_655 S
O1557 Li1496 1.970 . S
O1557 Li1497 1.956 . S
O1557 Li1499 1.961 . S
O1557 C1506 1.325 . S
O1558 Li1496 1.961 . S
O1558 Li1498 1.956 . S
O1558 Li1499 1.970 . S
O1558 C1528 1.325 . S
O1559 Li1497 1.961 . S
O1559 Li1498 1.970 . S
O1559 Li1499 1.956 . S
O1559 C1534 1.325 . S
H1560 C1502 0.929 1_655 S
H1561 C1503 0.930 . S
H1562 C1504 0.930 . S
H1563 C1505 0.930 . S
H1564 C1507 0.930 . S
H1565 C1509 0.929 . S
H1566 C1510 0.930 . S
H1567 C1511 0.930 . S
H1568 C1514 0.930 . S
H1569 C1517 0.929 . S
H1570 C1522 0.929 1_455 S
H1571 C1523 0.930 . S
H1572 C1530 0.929 . S
H1573 C1531 0.930 . S
H1574 C1532 0.930 . S
H1575 C1533 0.930 . S
H1576 C1535 0.929 1_455 S
H1577 C1536 0.930 . S
H1578 C1537 0.930 . S
H1579 C1538 0.930 . S
H1580 C1542 0.929 . S
H1581 C1544 0.930 . S
H1582 C1550 0.929 . S
H1583 C1551 0.930 . S
C1584 C1585 1.560 . S
C1584 H1645 0.959 . S
C1584 H1646 0.959 . S
C1584 H1647 0.960 . S
C1585 C1584 1.560 . S
C1585 O1640 1.426 . S
C1585 H1644 0.980 . S
C1586 C1587 1.407 . S
C1586 C1591 1.418 . S
C1586 O1640 1.334 . S
C1587 C1586 1.407 . S
C1587 C1588 1.360 . S
C1587 H1648 0.929 . S
C1588 C1587 1.360 . S
C1588 C1589 1.401 . S
C1588 C1592 1.527 . S
C1589 C1588 1.401 . S
C1589 C1590 1.405 . S
C1589 C1622 1.587 . S
C1590 C1589 1.405 . S
C1590 C1591 1.332 . S
C1590 C1593 1.496 . S
C1591 C1586 1.418 . S
C1591 C1590 1.332 . S
C1591 H1649 0.929 . S
C1592 C1588 1.527 . S
C1592 H1650 0.959 . S
C1592 H1651 0.961 . S
C1592 H1652 0.961 . S
C1593 C1590 1.496 . S
C1593 H1653 0.960 . S
C1593 H1654 0.960 . S
C1593 H1655 0.961 . S
C1594 C1595 1.517 . S
C1594 H1657 0.961 . S
C1594 H1658 0.960 . S
C1594 H1659 0.959 . S
C1595 C1594 1.517 . S
C1595 O1643 1.468 . S
C1595 H1656 0.980 . S
C1596 C1597 1.349 . S
C1596 C1601 1.367 . S
C1596 O1643 1.408 . S
C1597 C1596 1.349 . S
C1597 C1598 1.407 . S
C1597 H1660 0.930 . S
C1598 C1597 1.407 . S
C1598 C1599 1.449 . S
C1598 C1602 1.535 . S
C1599 C1598 1.449 . S
C1599 C1600 1.384 . S
C1599 C1624 1.553 . S
C1600 C1599 1.384 . S
C1600 C1601 1.364 . S
C1600 C1603 1.450 . S
C1601 C1596 1.367 . S
C1601 C1600 1.364 . S
C1601 H1661 0.931 . S
C1602 C1598 1.535 . S
C1602 H1662 0.959 . S
C1602 H1663 0.961 . S
C1602 H1664 0.959 . S
C1603 C1600 1.450 . S
C1603 H1665 0.960 . S
C1603 H1666 0.960 . S
C1603 H1667 0.960 . S
C1604 C1605 1.309 . S
C1604 C1609 1.304 . S
C1604 O1642 1.435 . S
C1605 C1604 1.309 . S
C1605 C1606 1.476 . S
C1605 H1669 0.930 . S
C1606 C1605 1.476 . S
C1606 C1607 1.400 . S
C1606 C1610 1.567 . S
C1607 C1606 1.400 . S
C1607 C1608 1.373 . S
C1607 C1629 1.432 . S
C1608 C1607 1.373 . S
C1608 C1609 1.339 . S
C1608 C1611 1.530 . S
C1609 C1604 1.304 . S
C1609 C1608 1.339 . S
C1609 H1670 0.930 . S
C1610 C1606 1.567 . S
C1610 H1671 0.961 . S
C1610 H1672 0.960 . S
C1610 H1673 0.958 . S
C1611 C1608 1.530 . S
C1611 H1674 0.961 . S
C1611 H1675 0.960 . S
C1611 H1676 0.960 . S
C1612 C1613 1.530 . S
C1612 H1678 0.961 . S
C1612 H1679 0.961 . S
C1612 H1680 0.959 . S
C1613 C1612 1.530 . S
C1613 O1641 1.412 . S
C1613 H1677 0.980 . S
C1614 C1615 1.288 . S
C1614 C1619 1.377 . S
C1614 O1641 1.393 . S
C1615 C1614 1.288 . S
C1615 C1616 1.369 . S
C1615 H1681 0.932 . S
C1616 C1615 1.369 . S
C1616 C1617 1.398 . S
C1616 C1620 1.527 . S
C1617 C1616 1.398 . S
C1617 C1618 1.380 . S
C1617 C1631 1.497 . S
C1618 C1617 1.380 . S
C1618 C1619 1.383 . S
C1618 C1621 1.603 . S
C1619 C1614 1.377 . S
C1619 C1618 1.383 . S
C1619 H1682 0.929 . S
C1620 C1616 1.527 . S
C1620 H1683 0.961 . S
C1620 H1684 0.959 . S
C1620 H1685 0.959 . S
C1621 C1618 1.603 . S
C1621 H1686 0.960 . S
C1621 H1687 0.962 . S
C1621 H1688 0.961 . S
C1622 C1589 1.587 . S
C1622 C1623 1.360 . S
C1622 C1635 1.412 . S
C1623 C1622 1.360 . S
C1623 C1624 1.365 . S
C1623 H1689 0.929 . S
C1624 C1599 1.553 . S
C1624 C1623 1.365 . S
C1624 C1625 1.404 . S
C1625 C1624 1.404 . S
C1625 C1626 1.395 . S
C1625 C1636 1.451 . S
C1626 C1625 1.395 . S
C1626 C1627 1.322 . S
C1626 H1690 0.930 . S
C1627 C1626 1.322 . S
C1627 C1628 1.459 . S
C1627 H1691 0.929 . S
C1628 C1627 1.459 . S
C1628 C1629 1.445 . S
C1628 C1637 1.395 . S
C1629 C1607 1.432 . S
C1629 C1628 1.445 . S
C1629 C1630 1.370 . S
C1630 C1629 1.370 . S
C1630 C1631 1.438 . S
C1630 H1692 0.930 . S
C1631 C1617 1.497 . S
C1631 C1630 1.438 . S
C1631 C1632 1.360 . S
C1632 C1631 1.360 . S
C1632 C1633 1.401 . S
C1632 C1637 1.446 . S
C1633 C1632 1.401 . S
C1633 C1634 1.347 . S
C1633 H1693 0.929 . S
C1634 C1633 1.347 . S
C1634 C1635 1.455 . S
C1634 H1694 0.930 . S
C1635 C1622 1.412 . S
C1635 C1634 1.455 . S
C1635 C1636 1.331 . S
C1636 C1625 1.451 . S
C1636 C1635 1.331 . S
C1636 C1637 1.497 . S
C1637 C1628 1.395 . S
C1637 C1632 1.446 . S
C1637 C1636 1.497 . S
C1638 C1639 1.582 . S
C1638 H1695 0.962 . S
C1638 H1696 0.959 . S
C1638 H1697 0.958 . S
C1639 C1638 1.582 . S
C1639 O1642 1.458 . S
C1639 H1668 0.980 . S
O1640 C1585 1.426 . S
O1640 C1586 1.334 . S
O1641 C1613 1.412 . S
O1641 C1614 1.393 . S
O1642 C1604 1.435 . S
O1642 C1639 1.458 . S
O1643 C1595 1.468 . S
O1643 C1596 1.408 . S
H1644 C1585 0.980 . S
H1645 C1584 0.959 . S
H1646 C1584 0.959 . S
H1647 C1584 0.960 . S
H1648 C1587 0.929 . S
H1649 C1591 0.929 . S
H1650 C1592 0.959 . S
H1651 C1592 0.961 . S
H1652 C1592 0.961 . S
H1653 C1593 0.960 . S
H1654 C1593 0.960 . S
H1655 C1593 0.961 . S
H1656 C1595 0.980 . S
H1657 C1594 0.961 . S
H1658 C1594 0.960 . S
H1659 C1594 0.959 . S
H1660 C1597 0.930 . S
H1661 C1601 0.931 . S
H1662 C1602 0.959 . S
H1663 C1602 0.961 . S
H1664 C1602 0.959 . S
H1665 C1603 0.960 . S
H1666 C1603 0.960 . S
H1667 C1603 0.960 . S
H1668 C1639 0.980 . S
H1669 C1605 0.930 . S
H1670 C1609 0.930 . S
H1671 C1610 0.961 . S
H1672 C1610 0.960 . S
H1673 C1610 0.958 . S
H1674 C1611 0.961 . S
H1675 C1611 0.960 . S
H1676 C1611 0.960 . S
H1677 C1613 0.980 . S
H1678 C1612 0.961 . S
H1679 C1612 0.961 . S
H1680 C1612 0.959 . S
H1681 C1615 0.932 . S
H1682 C1619 0.929 . S
H1683 C1620 0.961 . S
H1684 C1620 0.959 . S
H1685 C1620 0.959 . S
H1686 C1621 0.960 . S
H1687 C1621 0.962 . S
H1688 C1621 0.961 . S
H1689 C1623 0.929 . S
H1690 C1626 0.930 . S
H1691 C1627 0.929 . S
H1692 C1630 0.930 . S
H1693 C1633 0.929 . S
H1694 C1634 0.930 . S
H1695 C1638 0.962 . S
H1696 C1638 0.959 . S
H1697 C1638 0.958 . S
C1698 C1699 1.560 . S
C1698 H1759 0.959 . S
C1698 H1760 0.959 . S
C1698 H1761 0.960 . S
C1699 C1698 1.560 . S
C1699 O1754 1.426 . S
C1699 H1758 0.980 . S
C1700 C1701 1.407 . S
C1700 C1705 1.418 . S
C1700 O1754 1.334 . S
C1701 C1700 1.407 . S
C1701 C1702 1.360 . S
C1701 H1762 0.929 . S
C1702 C1701 1.360 . S
C1702 C1703 1.401 . S
C1702 C1706 1.527 . S
C1703 C1702 1.401 . S
C1703 C1704 1.405 . S
C1703 C1736 1.587 . S
C1704 C1703 1.405 . S
C1704 C1705 1.332 . S
C1704 C1707 1.496 . S
C1705 C1700 1.418 . S
C1705 C1704 1.332 . S
C1705 H1763 0.929 . S
C1706 C1702 1.527 . S
C1706 H1764 0.959 . S
C1706 H1765 0.961 . S
C1706 H1766 0.961 . S
C1707 C1704 1.496 . S
C1707 H1767 0.960 . S
C1707 H1768 0.960 . S
C1707 H1769 0.961 . S
C1708 C1709 1.517 . S
C1708 H1771 0.961 . S
C1708 H1772 0.960 . S
C1708 H1773 0.959 . S
C1709 C1708 1.517 . S
C1709 O1757 1.468 . S
C1709 H1770 0.980 . S
C1710 C1711 1.349 . S
C1710 C1715 1.367 . S
C1710 O1757 1.408 . S
C1711 C1710 1.349 . S
C1711 C1712 1.407 . S
C1711 H1774 0.930 . S
C1712 C1711 1.407 . S
C1712 C1713 1.449 . S
C1712 C1716 1.535 . S
C1713 C1712 1.449 . S
C1713 C1714 1.384 . S
C1713 C1738 1.553 . S
C1714 C1713 1.384 . S
C1714 C1715 1.364 . S
C1714 C1717 1.450 . S
C1715 C1710 1.367 . S
C1715 C1714 1.364 . S
C1715 H1775 0.931 . S
C1716 C1712 1.535 . S
C1716 H1776 0.959 . S
C1716 H1777 0.961 . S
C1716 H1778 0.959 . S
C1717 C1714 1.450 . S
C1717 H1779 0.960 . S
C1717 H1780 0.960 . S
C1717 H1781 0.960 . S
C1718 C1719 1.309 . S
C1718 C1723 1.304 . S
C1718 O1756 1.435 . S
C1719 C1718 1.309 . S
C1719 C1720 1.476 . S
C1719 H1783 0.930 . S
C1720 C1719 1.476 . S
C1720 C1721 1.400 . S
C1720 C1724 1.567 . S
C1721 C1720 1.400 . S
C1721 C1722 1.373 . S
C1721 C1743 1.432 . S
C1722 C1721 1.373 . S
C1722 C1723 1.339 . S
C1722 C1725 1.530 . S
C1723 C1718 1.304 . S
C1723 C1722 1.339 . S
C1723 H1784 0.930 . S
C1724 C1720 1.567 . S
C1724 H1785 0.961 . S
C1724 H1786 0.960 . S
C1724 H1787 0.958 . S
C1725 C1722 1.530 . S
C1725 H1788 0.961 . S
C1725 H1789 0.960 . S
C1725 H1790 0.960 . S
C1726 C1727 1.530 . S
C1726 H1792 0.961 . S
C1726 H1793 0.961 . S
C1726 H1794 0.959 . S
C1727 C1726 1.530 . S
C1727 O1755 1.412 . S
C1727 H1791 0.980 . S
C1728 C1729 1.288 . S
C1728 C1733 1.377 . S
C1728 O1755 1.393 . S
C1729 C1728 1.288 . S
C1729 C1730 1.369 . S
C1729 H1795 0.932 . S
C1730 C1729 1.369 . S
C1730 C1731 1.398 . S
C1730 C1734 1.527 . S
C1731 C1730 1.398 . S
C1731 C1732 1.380 . S
C1731 C1745 1.497 . S
C1732 C1731 1.380 . S
C1732 C1733 1.383 . S
C1732 C1735 1.603 . S
C1733 C1728 1.377 . S
C1733 C1732 1.383 . S
C1733 H1796 0.929 . S
C1734 C1730 1.527 . S
C1734 H1797 0.961 . S
C1734 H1798 0.959 . S
C1734 H1799 0.959 . S
C1735 C1732 1.603 . S
C1735 H1800 0.960 . S
C1735 H1801 0.962 . S
C1735 H1802 0.961 . S
C1736 C1703 1.587 . S
C1736 C1737 1.360 . S
C1736 C1749 1.412 . S
C1737 C1736 1.360 . S
C1737 C1738 1.365 . S
C1737 H1803 0.929 . S
C1738 C1713 1.553 . S
C1738 C1737 1.365 . S
C1738 C1739 1.404 . S
C1739 C1738 1.404 . S
C1739 C1740 1.395 . S
C1739 C1750 1.451 . S
C1740 C1739 1.395 . S
C1740 C1741 1.322 . S
C1740 H1804 0.930 . S
C1741 C1740 1.322 . S
C1741 C1742 1.459 . S
C1741 H1805 0.929 . S
C1742 C1741 1.459 . S
C1742 C1743 1.445 . S
C1742 C1751 1.395 . S
C1743 C1721 1.432 . S
C1743 C1742 1.445 . S
C1743 C1744 1.370 . S
C1744 C1743 1.370 . S
C1744 C1745 1.438 . S
C1744 H1806 0.930 . S
C1745 C1731 1.497 . S
C1745 C1744 1.438 . S
C1745 C1746 1.360 . S
C1746 C1745 1.360 . S
C1746 C1747 1.401 . S
C1746 C1751 1.446 . S
C1747 C1746 1.401 . S
C1747 C1748 1.347 . S
C1747 H1807 0.929 . S
C1748 C1747 1.347 . S
C1748 C1749 1.455 . S
C1748 H1808 0.930 . S
C1749 C1736 1.412 . S
C1749 C1748 1.455 . S
C1749 C1750 1.331 . S
C1750 C1739 1.451 . S
C1750 C1749 1.331 . S
C1750 C1751 1.497 . S
C1751 C1742 1.395 . S
C1751 C1746 1.446 . S
C1751 C1750 1.497 . S
C1752 C1753 1.582 . S
C1752 H1809 0.962 . S
C1752 H1810 0.959 . S
C1752 H1811 0.958 . S
C1753 C1752 1.582 . S
C1753 O1756 1.458 . S
C1753 H1782 0.980 . S
O1754 C1699 1.426 . S
O1754 C1700 1.334 . S
O1755 C1727 1.412 . S
O1755 C1728 1.393 . S
O1756 C1718 1.435 . S
O1756 C1753 1.458 . S
O1757 C1709 1.468 . S
O1757 C1710 1.408 . S
H1758 C1699 0.980 . S
H1759 C1698 0.959 . S
H1760 C1698 0.959 . S
H1761 C1698 0.960 . S
H1762 C1701 0.929 . S
H1763 C1705 0.929 . S
H1764 C1706 0.959 . S
H1765 C1706 0.961 . S
H1766 C1706 0.961 . S
H1767 C1707 0.960 . S
H1768 C1707 0.960 . S
H1769 C1707 0.961 . S
H1770 C1709 0.980 . S
H1771 C1708 0.961 . S
H1772 C1708 0.960 . S
H1773 C1708 0.959 . S
H1774 C1711 0.930 . S
H1775 C1715 0.931 . S
H1776 C1716 0.959 . S
H1777 C1716 0.961 . S
H1778 C1716 0.959 . S
H1779 C1717 0.960 . S
H1780 C1717 0.960 . S
H1781 C1717 0.960 . S
H1782 C1753 0.980 . S
H1783 C1719 0.930 . S
H1784 C1723 0.930 . S
H1785 C1724 0.961 . S
H1786 C1724 0.960 . S
H1787 C1724 0.958 . S
H1788 C1725 0.961 . S
H1789 C1725 0.960 . S
H1790 C1725 0.960 . S
H1791 C1727 0.980 . S
H1792 C1726 0.961 . S
H1793 C1726 0.961 . S
H1794 C1726 0.959 . S
H1795 C1729 0.932 . S
H1796 C1733 0.929 . S
H1797 C1734 0.961 . S
H1798 C1734 0.959 . S
H1799 C1734 0.959 . S
H1800 C1735 0.960 . S
H1801 C1735 0.962 . S
H1802 C1735 0.961 . S
H1803 C1737 0.929 . S
H1804 C1740 0.930 . S
H1805 C1741 0.929 . S
H1806 C1744 0.930 . S
H1807 C1747 0.929 . S
H1808 C1748 0.930 . S
H1809 C1752 0.962 . S
H1810 C1752 0.959 . S
H1811 C1752 0.958 . S
C1812 C1813 1.560 . S
C1812 H1873 0.959 . S
C1812 H1874 0.959 . S
C1812 H1875 0.960 . S
C1813 C1812 1.560 . S
C1813 O1868 1.426 . S
C1813 H1872 0.980 . S
C1814 C1815 1.407 . S
C1814 C1819 1.418 . S
C1814 O1868 1.334 . S
C1815 C1814 1.407 . S
C1815 C1816 1.360 . S
C1815 H1876 0.929 . S
C1816 C1815 1.360 . S
C1816 C1817 1.401 . S
C1816 C1820 1.527 . S
C1817 C1816 1.401 . S
C1817 C1818 1.405 . S
C1817 C1850 1.587 . S
C1818 C1817 1.405 . S
C1818 C1819 1.332 . S
C1818 C1821 1.496 . S
C1819 C1814 1.418 . S
C1819 C1818 1.332 . S
C1819 H1877 0.929 . S
C1820 C1816 1.527 . S
C1820 H1878 0.959 . S
C1820 H1879 0.961 . S
C1820 H1880 0.961 . S
C1821 C1818 1.496 . S
C1821 H1881 0.960 . S
C1821 H1882 0.960 . S
C1821 H1883 0.961 . S
C1822 C1823 1.517 . S
C1822 H1885 0.961 . S
C1822 H1886 0.960 . S
C1822 H1887 0.959 . S
C1823 C1822 1.517 . S
C1823 O1871 1.468 . S
C1823 H1884 0.980 . S
C1824 C1825 1.349 . S
C1824 C1829 1.367 . S
C1824 O1871 1.408 . S
C1825 C1824 1.349 . S
C1825 C1826 1.407 . S
C1825 H1888 0.930 . S
C1826 C1825 1.407 . S
C1826 C1827 1.449 . S
C1826 C1830 1.535 . S
C1827 C1826 1.449 . S
C1827 C1828 1.384 . S
C1827 C1852 1.553 . S
C1828 C1827 1.384 . S
C1828 C1829 1.364 . S
C1828 C1831 1.450 . S
C1829 C1824 1.367 . S
C1829 C1828 1.364 . S
C1829 H1889 0.931 . S
C1830 C1826 1.535 . S
C1830 H1890 0.959 . S
C1830 H1891 0.961 . S
C1830 H1892 0.959 . S
C1831 C1828 1.450 . S
C1831 H1893 0.960 . S
C1831 H1894 0.960 . S
C1831 H1895 0.960 . S
C1832 C1833 1.309 . S
C1832 C1837 1.304 . S
C1832 O1870 1.435 . S
C1833 C1832 1.309 . S
C1833 C1834 1.476 . S
C1833 H1897 0.930 . S
C1834 C1833 1.476 . S
C1834 C1835 1.400 . S
C1834 C1838 1.567 . S
C1835 C1834 1.400 . S
C1835 C1836 1.373 . S
C1835 C1857 1.432 . S
C1836 C1835 1.373 . S
C1836 C1837 1.339 . S
C1836 C1839 1.530 . S
C1837 C1832 1.304 . S
C1837 C1836 1.339 . S
C1837 H1898 0.930 . S
C1838 C1834 1.567 . S
C1838 H1899 0.961 . S
C1838 H1900 0.960 . S
C1838 H1901 0.958 . S
C1839 C1836 1.530 . S
C1839 H1902 0.961 . S
C1839 H1903 0.960 . S
C1839 H1904 0.960 . S
C1840 C1841 1.530 . S
C1840 H1906 0.961 . S
C1840 H1907 0.961 . S
C1840 H1908 0.959 . S
C1841 C1840 1.530 . S
C1841 O1869 1.412 . S
C1841 H1905 0.980 . S
C1842 C1843 1.288 . S
C1842 C1847 1.377 . S
C1842 O1869 1.393 . S
C1843 C1842 1.288 . S
C1843 C1844 1.369 . S
C1843 H1909 0.932 . S
C1844 C1843 1.369 . S
C1844 C1845 1.398 . S
C1844 C1848 1.527 . S
C1845 C1844 1.398 . S
C1845 C1846 1.380 . S
C1845 C1859 1.497 . S
C1846 C1845 1.380 . S
C1846 C1847 1.383 . S
C1846 C1849 1.603 . S
C1847 C1842 1.377 . S
C1847 C1846 1.383 . S
C1847 H1910 0.929 . S
C1848 C1844 1.527 . S
C1848 H1911 0.961 . S
C1848 H1912 0.959 . S
C1848 H1913 0.959 . S
C1849 C1846 1.603 . S
C1849 H1914 0.960 . S
C1849 H1915 0.962 . S
C1849 H1916 0.961 . S
C1850 C1817 1.587 . S
C1850 C1851 1.360 . S
C1850 C1863 1.412 . S
C1851 C1850 1.360 . S
C1851 C1852 1.365 . S
C1851 H1917 0.929 . S
C1852 C1827 1.553 . S
C1852 C1851 1.365 . S
C1852 C1853 1.404 . S
C1853 C1852 1.404 . S
C1853 C1854 1.395 . S
C1853 C1864 1.451 . S
C1854 C1853 1.395 . S
C1854 C1855 1.322 . S
C1854 H1918 0.930 . S
C1855 C1854 1.322 . S
C1855 C1856 1.459 . S
C1855 H1919 0.929 . S
C1856 C1855 1.459 . S
C1856 C1857 1.445 . S
C1856 C1865 1.395 . S
C1857 C1835 1.432 . S
C1857 C1856 1.445 . S
C1857 C1858 1.370 . S
C1858 C1857 1.370 . S
C1858 C1859 1.438 . S
C1858 H1920 0.930 . S
C1859 C1845 1.497 . S
C1859 C1858 1.438 . S
C1859 C1860 1.360 . S
C1860 C1859 1.360 . S
C1860 C1861 1.401 . S
C1860 C1865 1.446 . S
C1861 C1860 1.401 . S
C1861 C1862 1.347 . S
C1861 H1921 0.929 . S
C1862 C1861 1.347 . S
C1862 C1863 1.455 . S
C1862 H1922 0.930 . S
C1863 C1850 1.412 . S
C1863 C1862 1.455 . S
C1863 C1864 1.331 . S
C1864 C1853 1.451 . S
C1864 C1863 1.331 . S
C1864 C1865 1.497 . S
C1865 C1856 1.395 . S
C1865 C1860 1.446 . S
C1865 C1864 1.497 . S
C1866 C1867 1.582 . S
C1866 H1923 0.962 . S
C1866 H1924 0.959 . S
C1866 H1925 0.958 . S
C1867 C1866 1.582 . S
C1867 O1870 1.458 . S
C1867 H1896 0.980 . S
O1868 C1813 1.426 . S
O1868 C1814 1.334 . S
O1869 C1841 1.412 . S
O1869 C1842 1.393 . S
O1870 C1832 1.435 . S
O1870 C1867 1.458 . S
O1871 C1823 1.468 . S
O1871 C1824 1.408 . S
H1872 C1813 0.980 . S
H1873 C1812 0.959 . S
H1874 C1812 0.959 . S
H1875 C1812 0.960 . S
H1876 C1815 0.929 . S
H1877 C1819 0.929 . S
H1878 C1820 0.959 . S
H1879 C1820 0.961 . S
H1880 C1820 0.961 . S
H1881 C1821 0.960 . S
H1882 C1821 0.960 . S
H1883 C1821 0.961 . S
H1884 C1823 0.980 . S
H1885 C1822 0.961 . S
H1886 C1822 0.960 . S
H1887 C1822 0.959 . S
H1888 C1825 0.930 . S
H1889 C1829 0.931 . S
H1890 C1830 0.959 . S
H1891 C1830 0.961 . S
H1892 C1830 0.959 . S
H1893 C1831 0.960 . S
H1894 C1831 0.960 . S
H1895 C1831 0.960 . S
H1896 C1867 0.980 . S
H1897 C1833 0.930 . S
H1898 C1837 0.930 . S
H1899 C1838 0.961 . S
H1900 C1838 0.960 . S
H1901 C1838 0.958 . S
H1902 C1839 0.961 . S
H1903 C1839 0.960 . S
H1904 C1839 0.960 . S
H1905 C1841 0.980 . S
H1906 C1840 0.961 . S
H1907 C1840 0.961 . S
H1908 C1840 0.959 . S
H1909 C1843 0.932 . S
H1910 C1847 0.929 . S
H1911 C1848 0.961 . S
H1912 C1848 0.959 . S
H1913 C1848 0.959 . S
H1914 C1849 0.960 . S
H1915 C1849 0.962 . S
H1916 C1849 0.961 . S
H1917 C1851 0.929 . S
H1918 C1854 0.930 . S
H1919 C1855 0.929 . S
H1920 C1858 0.930 . S
H1921 C1861 0.929 . S
H1922 C1862 0.930 . S
H1923 C1866 0.962 . S
H1924 C1866 0.959 . S
H1925 C1866 0.958 . S
C1926 C1927 1.560 . S
C1926 H1987 0.959 . S
C1926 H1988 0.959 . S
C1926 H1989 0.960 . S
C1927 C1926 1.560 . S
C1927 O1982 1.426 . S
C1927 H1986 0.980 . S
C1928 C1929 1.407 . S
C1928 C1933 1.418 . S
C1928 O1982 1.334 . S
C1929 C1928 1.407 . S
C1929 C1930 1.360 . S
C1929 H1990 0.929 . S
C1930 C1929 1.360 . S
C1930 C1931 1.401 . S
C1930 C1934 1.527 . S
C1931 C1930 1.401 . S
C1931 C1932 1.405 . S
C1931 C1964 1.587 . S
C1932 C1931 1.405 . S
C1932 C1933 1.332 . S
C1932 C1935 1.496 . S
C1933 C1928 1.418 . S
C1933 C1932 1.332 . S
C1933 H1991 0.929 . S
C1934 C1930 1.527 . S
C1934 H1992 0.959 . S
C1934 H1993 0.961 . S
C1934 H1994 0.961 . S
C1935 C1932 1.496 . S
C1935 H1995 0.960 . S
C1935 H1996 0.960 . S
C1935 H1997 0.961 . S
C1936 C1937 1.517 . S
C1936 H1999 0.961 . S
C1936 H2000 0.960 . S
C1936 H2001 0.959 . S
C1937 C1936 1.517 . S
C1937 O1985 1.468 . S
C1937 H1998 0.980 . S
C1938 C1939 1.349 . S
C1938 C1943 1.367 . S
C1938 O1985 1.408 . S
C1939 C1938 1.349 . S
C1939 C1940 1.407 . S
C1939 H2002 0.930 . S
C1940 C1939 1.407 . S
C1940 C1941 1.449 . S
C1940 C1944 1.535 . S
C1941 C1940 1.449 . S
C1941 C1942 1.384 . S
C1941 C1966 1.553 . S
C1942 C1941 1.384 . S
C1942 C1943 1.364 . S
C1942 C1945 1.450 . S
C1943 C1938 1.367 . S
C1943 C1942 1.364 . S
C1943 H2003 0.931 . S
C1944 C1940 1.535 . S
C1944 H2004 0.959 . S
C1944 H2005 0.961 . S
C1944 H2006 0.959 . S
C1945 C1942 1.450 . S
C1945 H2007 0.960 . S
C1945 H2008 0.960 . S
C1945 H2009 0.960 . S
C1946 C1947 1.309 . S
C1946 C1951 1.304 . S
C1946 O1984 1.435 . S
C1947 C1946 1.309 . S
C1947 C1948 1.476 . S
C1947 H2011 0.930 . S
C1948 C1947 1.476 . S
C1948 C1949 1.400 . S
C1948 C1952 1.567 . S
C1949 C1948 1.400 . S
C1949 C1950 1.373 . S
C1949 C1971 1.432 . S
C1950 C1949 1.373 . S
C1950 C1951 1.339 . S
C1950 C1953 1.530 . S
C1951 C1946 1.304 . S
C1951 C1950 1.339 . S
C1951 H2012 0.930 . S
C1952 C1948 1.567 . S
C1952 H2013 0.961 . S
C1952 H2014 0.960 . S
C1952 H2015 0.958 . S
C1953 C1950 1.530 . S
C1953 H2016 0.961 . S
C1953 H2017 0.960 . S
C1953 H2018 0.960 . S
C1954 C1955 1.530 . S
C1954 H2020 0.961 . S
C1954 H2021 0.961 . S
C1954 H2022 0.959 . S
C1955 C1954 1.530 . S
C1955 O1983 1.412 . S
C1955 H2019 0.980 . S
C1956 C1957 1.288 . S
C1956 C1961 1.377 . S
C1956 O1983 1.393 . S
C1957 C1956 1.288 . S
C1957 C1958 1.369 . S
C1957 H2023 0.932 . S
C1958 C1957 1.369 . S
C1958 C1959 1.398 . S
C1958 C1962 1.527 . S
C1959 C1958 1.398 . S
C1959 C1960 1.380 . S
C1959 C1973 1.497 . S
C1960 C1959 1.380 . S
C1960 C1961 1.383 . S
C1960 C1963 1.603 . S
C1961 C1956 1.377 . S
C1961 C1960 1.383 . S
C1961 H2024 0.929 . S
C1962 C1958 1.527 . S
C1962 H2025 0.961 . S
C1962 H2026 0.959 . S
C1962 H2027 0.959 . S
C1963 C1960 1.603 . S
C1963 H2028 0.960 . S
C1963 H2029 0.962 . S
C1963 H2030 0.961 . S
C1964 C1931 1.587 . S
C1964 C1965 1.360 . S
C1964 C1977 1.412 . S
C1965 C1964 1.360 . S
C1965 C1966 1.365 . S
C1965 H2031 0.929 . S
C1966 C1941 1.553 . S
C1966 C1965 1.365 . S
C1966 C1967 1.404 . S
C1967 C1966 1.404 . S
C1967 C1968 1.395 . S
C1967 C1978 1.451 . S
C1968 C1967 1.395 . S
C1968 C1969 1.322 . S
C1968 H2032 0.930 . S
C1969 C1968 1.322 . S
C1969 C1970 1.459 . S
C1969 H2033 0.929 . S
C1970 C1969 1.459 . S
C1970 C1971 1.445 . S
C1970 C1979 1.395 . S
C1971 C1949 1.432 . S
C1971 C1970 1.445 . S
C1971 C1972 1.370 . S
C1972 C1971 1.370 . S
C1972 C1973 1.438 . S
C1972 H2034 0.930 . S
C1973 C1959 1.497 . S
C1973 C1972 1.438 . S
C1973 C1974 1.360 . S
C1974 C1973 1.360 . S
C1974 C1975 1.401 . S
C1974 C1979 1.446 . S
C1975 C1974 1.401 . S
C1975 C1976 1.347 . S
C1975 H2035 0.929 . S
C1976 C1975 1.347 . S
C1976 C1977 1.455 . S
C1976 H2036 0.930 . S
C1977 C1964 1.412 . S
C1977 C1976 1.455 . S
C1977 C1978 1.331 . S
C1978 C1967 1.451 . S
C1978 C1977 1.331 . S
C1978 C1979 1.497 . S
C1979 C1970 1.395 . S
C1979 C1974 1.446 . S
C1979 C1978 1.497 . S
C1980 C1981 1.582 . S
C1980 H2037 0.962 . S
C1980 H2038 0.959 . S
C1980 H2039 0.958 . S
C1981 C1980 1.582 . S
C1981 O1984 1.458 . S
C1981 H2010 0.980 . S
O1982 C1927 1.426 . S
O1982 C1928 1.334 . S
O1983 C1955 1.412 . S
O1983 C1956 1.393 . S
O1984 C1946 1.435 . S
O1984 C1981 1.458 . S
O1985 C1937 1.468 . S
O1985 C1938 1.408 . S
H1986 C1927 0.980 . S
H1987 C1926 0.959 . S
H1988 C1926 0.959 . S
H1989 C1926 0.960 . S
H1990 C1929 0.929 . S
H1991 C1933 0.929 . S
H1992 C1934 0.959 . S
H1993 C1934 0.961 . S
H1994 C1934 0.961 . S
H1995 C1935 0.960 . S
H1996 C1935 0.960 . S
H1997 C1935 0.961 . S
H1998 C1937 0.980 . S
H1999 C1936 0.961 . S
H2000 C1936 0.960 . S
H2001 C1936 0.959 . S
H2002 C1939 0.930 . S
H2003 C1943 0.931 . S
H2004 C1944 0.959 . S
H2005 C1944 0.961 . S
H2006 C1944 0.959 . S
H2007 C1945 0.960 . S
H2008 C1945 0.960 . S
H2009 C1945 0.960 . S
H2010 C1981 0.980 . S
H2011 C1947 0.930 . S
H2012 C1951 0.930 . S
H2013 C1952 0.961 . S
H2014 C1952 0.960 . S
H2015 C1952 0.958 . S
H2016 C1953 0.961 . S
H2017 C1953 0.960 . S
H2018 C1953 0.960 . S
H2019 C1955 0.980 . S
H2020 C1954 0.961 . S
H2021 C1954 0.961 . S
H2022 C1954 0.959 . S
H2023 C1957 0.932 . S
H2024 C1961 0.929 . S
H2025 C1962 0.961 . S
H2026 C1962 0.959 . S
H2027 C1962 0.959 . S
H2028 C1963 0.960 . S
H2029 C1963 0.962 . S
H2030 C1963 0.961 . S
H2031 C1965 0.929 . S
H2032 C1968 0.930 . S
H2033 C1969 0.929 . S
H2034 C1972 0.930 . S
H2035 C1975 0.929 . S
H2036 C1976 0.930 . S
H2037 C1980 0.962 . S
H2038 C1980 0.959 . S
H2039 C1980 0.958 . S
C2040 C2041 1.560 . S
C2040 H2101 0.959 . S
C2040 H2102 0.959 . S
C2040 H2103 0.960 . S
C2041 C2040 1.560 . S
C2041 O2096 1.426 . S
C2041 H2100 0.980 . S
C2042 C2043 1.407 . S
C2042 C2047 1.418 . S
C2042 O2096 1.334 . S
C2043 C2042 1.407 . S
C2043 C2044 1.360 . S
C2043 H2104 0.929 . S
C2044 C2043 1.360 . S
C2044 C2045 1.401 . S
C2044 C2048 1.527 . S
C2045 C2044 1.401 . S
C2045 C2046 1.405 . S
C2045 C2078 1.587 . S
C2046 C2045 1.405 . S
C2046 C2047 1.332 . S
C2046 C2049 1.496 . S
C2047 C2042 1.418 . S
C2047 C2046 1.332 . S
C2047 H2105 0.929 . S
C2048 C2044 1.527 . S
C2048 H2106 0.959 . S
C2048 H2107 0.961 . S
C2048 H2108 0.961 . S
C2049 C2046 1.496 . S
C2049 H2109 0.960 . S
C2049 H2110 0.960 . S
C2049 H2111 0.961 . S
C2050 C2051 1.517 . S
C2050 H2113 0.961 . S
C2050 H2114 0.960 . S
C2050 H2115 0.959 . S
C2051 C2050 1.517 . S
C2051 O2099 1.468 . S
C2051 H2112 0.980 . S
C2052 C2053 1.349 . S
C2052 C2057 1.367 . S
C2052 O2099 1.408 . S
C2053 C2052 1.349 . S
C2053 C2054 1.407 . S
C2053 H2116 0.930 . S
C2054 C2053 1.407 . S
C2054 C2055 1.449 . S
C2054 C2058 1.535 . S
C2055 C2054 1.449 . S
C2055 C2056 1.384 . S
C2055 C2080 1.553 . S
C2056 C2055 1.384 . S
C2056 C2057 1.364 . S
C2056 C2059 1.450 . S
C2057 C2052 1.367 . S
C2057 C2056 1.364 . S
C2057 H2117 0.931 . S
C2058 C2054 1.535 . S
C2058 H2118 0.959 . S
C2058 H2119 0.961 . S
C2058 H2120 0.959 . S
C2059 C2056 1.450 . S
C2059 H2121 0.960 . S
C2059 H2122 0.960 . S
C2059 H2123 0.960 . S
C2060 C2061 1.309 . S
C2060 C2065 1.304 . S
C2060 O2098 1.435 . S
C2061 C2060 1.309 . S
C2061 C2062 1.476 . S
C2061 H2125 0.930 . S
C2062 C2061 1.476 . S
C2062 C2063 1.400 . S
C2062 C2066 1.567 . S
C2063 C2062 1.400 . S
C2063 C2064 1.373 . S
C2063 C2085 1.432 . S
C2064 C2063 1.373 . S
C2064 C2065 1.339 . S
C2064 C2067 1.530 . S
C2065 C2060 1.304 . S
C2065 C2064 1.339 . S
C2065 H2126 0.930 . S
C2066 C2062 1.567 . S
C2066 H2127 0.961 . S
C2066 H2128 0.960 . S
C2066 H2129 0.958 . S
C2067 C2064 1.530 . S
C2067 H2130 0.961 . S
C2067 H2131 0.960 . S
C2067 H2132 0.960 . S
C2068 C2069 1.530 . S
C2068 H2134 0.961 . S
C2068 H2135 0.961 . S
C2068 H2136 0.959 . S
C2069 C2068 1.530 . S
C2069 O2097 1.412 . S
C2069 H2133 0.980 . S
C2070 C2071 1.288 . S
C2070 C2075 1.377 . S
C2070 O2097 1.393 . S
C2071 C2070 1.288 . S
C2071 C2072 1.369 . S
C2071 H2137 0.932 . S
C2072 C2071 1.369 . S
C2072 C2073 1.398 . S
C2072 C2076 1.527 . S
C2073 C2072 1.398 . S
C2073 C2074 1.380 . S
C2073 C2087 1.497 . S
C2074 C2073 1.380 . S
C2074 C2075 1.383 . S
C2074 C2077 1.603 . S
C2075 C2070 1.377 . S
C2075 C2074 1.383 . S
C2075 H2138 0.929 . S
C2076 C2072 1.527 . S
C2076 H2139 0.961 . S
C2076 H2140 0.959 . S
C2076 H2141 0.959 . S
C2077 C2074 1.603 . S
C2077 H2142 0.960 . S
C2077 H2143 0.962 . S
C2077 H2144 0.961 . S
C2078 C2045 1.587 . S
C2078 C2079 1.360 . S
C2078 C2091 1.412 . S
C2079 C2078 1.360 . S
C2079 C2080 1.365 . S
C2079 H2145 0.929 . S
C2080 C2055 1.553 . S
C2080 C2079 1.365 . S
C2080 C2081 1.404 . S
C2081 C2080 1.404 . S
C2081 C2082 1.395 . S
C2081 C2092 1.451 . S
C2082 C2081 1.395 . S
C2082 C2083 1.322 . S
C2082 H2146 0.930 . S
C2083 C2082 1.322 . S
C2083 C2084 1.459 . S
C2083 H2147 0.929 . S
C2084 C2083 1.459 . S
C2084 C2085 1.445 . S
C2084 C2093 1.395 . S
C2085 C2063 1.432 . S
C2085 C2084 1.445 . S
C2085 C2086 1.370 . S
C2086 C2085 1.370 . S
C2086 C2087 1.438 . S
C2086 H2148 0.930 . S
C2087 C2073 1.497 . S
C2087 C2086 1.438 . S
C2087 C2088 1.360 . S
C2088 C2087 1.360 . S
C2088 C2089 1.401 . S
C2088 C2093 1.446 . S
C2089 C2088 1.401 . S
C2089 C2090 1.347 . S
C2089 H2149 0.929 . S
C2090 C2089 1.347 . S
C2090 C2091 1.455 . S
C2090 H2150 0.930 . S
C2091 C2078 1.412 . S
C2091 C2090 1.455 . S
C2091 C2092 1.331 . S
C2092 C2081 1.451 . S
C2092 C2091 1.331 . S
C2092 C2093 1.497 . S
C2093 C2084 1.395 . S
C2093 C2088 1.446 . S
C2093 C2092 1.497 . S
C2094 C2095 1.582 . S
C2094 H2151 0.962 . S
C2094 H2152 0.959 . S
C2094 H2153 0.958 . S
C2095 C2094 1.582 . S
C2095 O2098 1.458 . S
C2095 H2124 0.980 . S
O2096 C2041 1.426 . S
O2096 C2042 1.334 . S
O2097 C2069 1.412 . S
O2097 C2070 1.393 . S
O2098 C2060 1.435 . S
O2098 C2095 1.458 . S
O2099 C2051 1.468 . S
O2099 C2052 1.408 . S
H2100 C2041 0.980 . S
H2101 C2040 0.959 . S
H2102 C2040 0.959 . S
H2103 C2040 0.960 . S
H2104 C2043 0.929 . S
H2105 C2047 0.929 . S
H2106 C2048 0.959 . S
H2107 C2048 0.961 . S
H2108 C2048 0.961 . S
H2109 C2049 0.960 . S
H2110 C2049 0.960 . S
H2111 C2049 0.961 . S
H2112 C2051 0.980 . S
H2113 C2050 0.961 . S
H2114 C2050 0.960 . S
H2115 C2050 0.959 . S
H2116 C2053 0.930 . S
H2117 C2057 0.931 . S
H2118 C2058 0.959 . S
H2119 C2058 0.961 . S
H2120 C2058 0.959 . S
H2121 C2059 0.960 . S
H2122 C2059 0.960 . S
H2123 C2059 0.960 . S
H2124 C2095 0.980 . S
H2125 C2061 0.930 . S
H2126 C2065 0.930 . S
H2127 C2066 0.961 . S
H2128 C2066 0.960 . S
H2129 C2066 0.958 . S
H2130 C2067 0.961 . S
H2131 C2067 0.960 . S
H2132 C2067 0.960 . S
H2133 C2069 0.980 . S
H2134 C2068 0.961 . S
H2135 C2068 0.961 . S
H2136 C2068 0.959 . S
H2137 C2071 0.932 . S
H2138 C2075 0.929 . S
H2139 C2076 0.961 . S
H2140 C2076 0.959 . S
H2141 C2076 0.959 . S
H2142 C2077 0.960 . S
H2143 C2077 0.962 . S
H2144 C2077 0.961 . S
H2145 C2079 0.929 . S
H2146 C2082 0.930 . S
H2147 C2083 0.929 . S
H2148 C2086 0.930 . S
H2149 C2089 0.929 . S
H2150 C2090 0.930 . S
H2151 C2094 0.962 . S
H2152 C2094 0.959 . S
H2153 C2094 0.958 . S
C2154 C2155 1.560 . S
C2154 H2215 0.959 . S
C2154 H2216 0.959 . S
C2154 H2217 0.960 . S
C2155 C2154 1.560 . S
C2155 O2210 1.426 . S
C2155 H2214 0.980 . S
C2156 C2157 1.407 . S
C2156 C2161 1.418 . S
C2156 O2210 1.334 . S
C2157 C2156 1.407 . S
C2157 C2158 1.360 . S
C2157 H2218 0.929 . S
C2158 C2157 1.360 . S
C2158 C2159 1.401 . S
C2158 C2162 1.527 . S
C2159 C2158 1.401 . S
C2159 C2160 1.405 . S
C2159 C2192 1.587 . S
C2160 C2159 1.405 . S
C2160 C2161 1.332 . S
C2160 C2163 1.496 . S
C2161 C2156 1.418 . S
C2161 C2160 1.332 . S
C2161 H2219 0.929 . S
C2162 C2158 1.527 . S
C2162 H2220 0.959 . S
C2162 H2221 0.961 . S
C2162 H2222 0.961 . S
C2163 C2160 1.496 . S
C2163 H2223 0.960 . S
C2163 H2224 0.960 . S
C2163 H2225 0.961 . S
C2164 C2165 1.517 . S
C2164 H2227 0.961 . S
C2164 H2228 0.960 . S
C2164 H2229 0.959 . S
C2165 C2164 1.517 . S
C2165 O2213 1.468 . S
C2165 H2226 0.980 . S
C2166 C2167 1.349 . S
C2166 C2171 1.367 . S
C2166 O2213 1.408 . S
C2167 C2166 1.349 . S
C2167 C2168 1.407 . S
C2167 H2230 0.930 . S
C2168 C2167 1.407 . S
C2168 C2169 1.449 . S
C2168 C2172 1.535 . S
C2169 C2168 1.449 . S
C2169 C2170 1.384 . S
C2169 C2194 1.553 . S
C2170 C2169 1.384 . S
C2170 C2171 1.364 . S
C2170 C2173 1.450 . S
C2171 C2166 1.367 . S
C2171 C2170 1.364 . S
C2171 H2231 0.931 . S
C2172 C2168 1.535 . S
C2172 H2232 0.959 . S
C2172 H2233 0.961 . S
C2172 H2234 0.959 . S
C2173 C2170 1.450 . S
C2173 H2235 0.960 . S
C2173 H2236 0.960 . S
C2173 H2237 0.960 . S
C2174 C2175 1.309 . S
C2174 C2179 1.304 . S
C2174 O2212 1.435 . S
C2175 C2174 1.309 . S
C2175 C2176 1.476 . S
C2175 H2239 0.930 . S
C2176 C2175 1.476 . S
C2176 C2177 1.400 . S
C2176 C2180 1.567 . S
C2177 C2176 1.400 . S
C2177 C2178 1.373 . S
C2177 C2199 1.432 . S
C2178 C2177 1.373 . S
C2178 C2179 1.339 . S
C2178 C2181 1.530 . S
C2179 C2174 1.304 . S
C2179 C2178 1.339 . S
C2179 H2240 0.930 . S
C2180 C2176 1.567 . S
C2180 H2241 0.961 . S
C2180 H2242 0.960 . S
C2180 H2243 0.958 . S
C2181 C2178 1.530 . S
C2181 H2244 0.961 . S
C2181 H2245 0.960 . S
C2181 H2246 0.960 . S
C2182 C2183 1.530 . S
C2182 H2248 0.961 . S
C2182 H2249 0.961 . S
C2182 H2250 0.959 . S
C2183 C2182 1.530 . S
C2183 O2211 1.412 . S
C2183 H2247 0.980 . S
C2184 C2185 1.288 . S
C2184 C2189 1.377 . S
C2184 O2211 1.393 . S
C2185 C2184 1.288 . S
C2185 C2186 1.369 . S
C2185 H2251 0.932 . S
C2186 C2185 1.369 . S
C2186 C2187 1.398 . S
C2186 C2190 1.527 . S
C2187 C2186 1.398 . S
C2187 C2188 1.380 . S
C2187 C2201 1.497 . S
C2188 C2187 1.380 . S
C2188 C2189 1.383 . S
C2188 C2191 1.603 . S
C2189 C2184 1.377 . S
C2189 C2188 1.383 . S
C2189 H2252 0.929 . S
C2190 C2186 1.527 . S
C2190 H2253 0.961 . S
C2190 H2254 0.959 . S
C2190 H2255 0.959 . S
C2191 C2188 1.603 . S
C2191 H2256 0.960 . S
C2191 H2257 0.962 . S
C2191 H2258 0.961 . S
C2192 C2159 1.587 . S
C2192 C2193 1.360 . S
C2192 C2205 1.412 . S
C2193 C2192 1.360 . S
C2193 C2194 1.365 . S
C2193 H2259 0.929 . S
C2194 C2169 1.553 . S
C2194 C2193 1.365 . S
C2194 C2195 1.404 . S
C2195 C2194 1.404 . S
C2195 C2196 1.395 . S
C2195 C2206 1.451 . S
C2196 C2195 1.395 . S
C2196 C2197 1.322 . S
C2196 H2260 0.930 . S
C2197 C2196 1.322 . S
C2197 C2198 1.459 . S
C2197 H2261 0.929 . S
C2198 C2197 1.459 . S
C2198 C2199 1.445 . S
C2198 C2207 1.395 . S
C2199 C2177 1.432 . S
C2199 C2198 1.445 . S
C2199 C2200 1.370 . S
C2200 C2199 1.370 . S
C2200 C2201 1.438 . S
C2200 H2262 0.930 . S
C2201 C2187 1.497 . S
C2201 C2200 1.438 . S
C2201 C2202 1.360 . S
C2202 C2201 1.360 . S
C2202 C2203 1.401 . S
C2202 C2207 1.446 . S
C2203 C2202 1.401 . S
C2203 C2204 1.347 . S
C2203 H2263 0.929 . S
C2204 C2203 1.347 . S
C2204 C2205 1.455 . S
C2204 H2264 0.930 . S
C2205 C2192 1.412 . S
C2205 C2204 1.455 . S
C2205 C2206 1.331 . S
C2206 C2195 1.451 . S
C2206 C2205 1.331 . S
C2206 C2207 1.497 . S
C2207 C2198 1.395 . S
C2207 C2202 1.446 . S
C2207 C2206 1.497 . S
C2208 C2209 1.582 . S
C2208 H2265 0.962 . S
C2208 H2266 0.959 . S
C2208 H2267 0.958 . S
C2209 C2208 1.582 . S
C2209 O2212 1.458 . S
C2209 H2238 0.980 . S
O2210 C2155 1.426 . S
O2210 C2156 1.334 . S
O2211 C2183 1.412 . S
O2211 C2184 1.393 . S
O2212 C2174 1.435 . S
O2212 C2209 1.458 . S
O2213 C2165 1.468 . S
O2213 C2166 1.408 . S
H2214 C2155 0.980 . S
H2215 C2154 0.959 . S
H2216 C2154 0.959 . S
H2217 C2154 0.960 . S
H2218 C2157 0.929 . S
H2219 C2161 0.929 . S
H2220 C2162 0.959 . S
H2221 C2162 0.961 . S
H2222 C2162 0.961 . S
H2223 C2163 0.960 . S
H2224 C2163 0.960 . S
H2225 C2163 0.961 . S
H2226 C2165 0.980 . S
H2227 C2164 0.961 . S
H2228 C2164 0.960 . S
H2229 C2164 0.959 . S
H2230 C2167 0.930 . S
H2231 C2171 0.931 . S
H2232 C2172 0.959 . S
H2233 C2172 0.961 . S
H2234 C2172 0.959 . S
H2235 C2173 0.960 . S
H2236 C2173 0.960 . S
H2237 C2173 0.960 . S
H2238 C2209 0.980 . S
H2239 C2175 0.930 . S
H2240 C2179 0.930 . S
H2241 C2180 0.961 . S
H2242 C2180 0.960 . S
H2243 C2180 0.958 . S
H2244 C2181 0.961 . S
H2245 C2181 0.960 . S
H2246 C2181 0.960 . S
H2247 C2183 0.980 . S
H2248 C2182 0.961 . S
H2249 C2182 0.961 . S
H2250 C2182 0.959 . S
H2251 C2185 0.932 . S
H2252 C2189 0.929 . S
H2253 C2190 0.961 . S
H2254 C2190 0.959 . S
H2255 C2190 0.959 . S
H2256 C2191 0.960 . S
H2257 C2191 0.962 . S
H2258 C2191 0.961 . S
H2259 C2193 0.929 . S
H2260 C2196 0.930 . S
H2261 C2197 0.929 . S
H2262 C2200 0.930 . S
H2263 C2203 0.929 . S
H2264 C2204 0.930 . S
H2265 C2208 0.962 . S
H2266 C2208 0.959 . S
H2267 C2208 0.958 . S
C2268 C2269 1.560 . S
C2268 H2329 0.959 . S
C2268 H2330 0.959 . S
C2268 H2331 0.960 . S
C2269 C2268 1.560 . S
C2269 O2324 1.426 . S
C2269 H2328 0.980 . S
C2270 C2271 1.407 . S
C2270 C2275 1.418 . S
C2270 O2324 1.334 . S
C2271 C2270 1.407 . S
C2271 C2272 1.360 . S
C2271 H2332 0.929 . S
C2272 C2271 1.360 . S
C2272 C2273 1.401 . S
C2272 C2276 1.527 . S
C2273 C2272 1.401 . S
C2273 C2274 1.405 . S
C2273 C2306 1.587 . S
C2274 C2273 1.405 . S
C2274 C2275 1.332 . S
C2274 C2277 1.496 . S
C2275 C2270 1.418 . S
C2275 C2274 1.332 . S
C2275 H2333 0.929 . S
C2276 C2272 1.527 . S
C2276 H2334 0.959 . S
C2276 H2335 0.961 . S
C2276 H2336 0.961 . S
C2277 C2274 1.496 . S
C2277 H2337 0.960 . S
C2277 H2338 0.960 . S
C2277 H2339 0.961 . S
C2278 C2279 1.517 . S
C2278 H2341 0.961 . S
C2278 H2342 0.960 . S
C2278 H2343 0.959 . S
C2279 C2278 1.517 . S
C2279 O2327 1.468 . S
C2279 H2340 0.980 . S
C2280 C2281 1.349 . S
C2280 C2285 1.367 . S
C2280 O2327 1.408 . S
C2281 C2280 1.349 . S
C2281 C2282 1.407 . S
C2281 H2344 0.930 . S
C2282 C2281 1.407 . S
C2282 C2283 1.449 . S
C2282 C2286 1.535 . S
C2283 C2282 1.449 . S
C2283 C2284 1.384 . S
C2283 C2308 1.553 . S
C2284 C2283 1.384 . S
C2284 C2285 1.364 . S
C2284 C2287 1.450 . S
C2285 C2280 1.367 . S
C2285 C2284 1.364 . S
C2285 H2345 0.931 . S
C2286 C2282 1.535 . S
C2286 H2346 0.959 . S
C2286 H2347 0.961 . S
C2286 H2348 0.959 . S
C2287 C2284 1.450 . S
C2287 H2349 0.960 . S
C2287 H2350 0.960 . S
C2287 H2351 0.960 . S
C2288 C2289 1.309 . S
C2288 C2293 1.304 . S
C2288 O2326 1.435 . S
C2289 C2288 1.309 . S
C2289 C2290 1.476 . S
C2289 H2353 0.930 . S
C2290 C2289 1.476 . S
C2290 C2291 1.400 . S
C2290 C2294 1.567 . S
C2291 C2290 1.400 . S
C2291 C2292 1.373 . S
C2291 C2313 1.432 . S
C2292 C2291 1.373 . S
C2292 C2293 1.339 . S
C2292 C2295 1.530 . S
C2293 C2288 1.304 . S
C2293 C2292 1.339 . S
C2293 H2354 0.930 . S
C2294 C2290 1.567 . S
C2294 H2355 0.961 . S
C2294 H2356 0.960 . S
C2294 H2357 0.958 . S
C2295 C2292 1.530 . S
C2295 H2358 0.961 . S
C2295 H2359 0.960 . S
C2295 H2360 0.960 . S
C2296 C2297 1.530 . S
C2296 H2362 0.961 . S
C2296 H2363 0.961 . S
C2296 H2364 0.959 . S
C2297 C2296 1.530 . S
C2297 O2325 1.412 . S
C2297 H2361 0.980 . S
C2298 C2299 1.288 . S
C2298 C2303 1.377 . S
C2298 O2325 1.393 . S
C2299 C2298 1.288 . S
C2299 C2300 1.369 . S
C2299 H2365 0.932 . S
C2300 C2299 1.369 . S
C2300 C2301 1.398 . S
C2300 C2304 1.527 . S
C2301 C2300 1.398 . S
C2301 C2302 1.380 . S
C2301 C2315 1.497 . S
C2302 C2301 1.380 . S
C2302 C2303 1.383 . S
C2302 C2305 1.603 . S
C2303 C2298 1.377 . S
C2303 C2302 1.383 . S
C2303 H2366 0.929 . S
C2304 C2300 1.527 . S
C2304 H2367 0.961 . S
C2304 H2368 0.959 . S
C2304 H2369 0.959 . S
C2305 C2302 1.603 . S
C2305 H2370 0.960 . S
C2305 H2371 0.962 . S
C2305 H2372 0.961 . S
C2306 C2273 1.587 . S
C2306 C2307 1.360 . S
C2306 C2319 1.412 . S
C2307 C2306 1.360 . S
C2307 C2308 1.365 . S
C2307 H2373 0.929 . S
C2308 C2283 1.553 . S
C2308 C2307 1.365 . S
C2308 C2309 1.404 . S
C2309 C2308 1.404 . S
C2309 C2310 1.395 . S
C2309 C2320 1.451 . S
C2310 C2309 1.395 . S
C2310 C2311 1.322 . S
C2310 H2374 0.930 . S
C2311 C2310 1.322 . S
C2311 C2312 1.459 . S
C2311 H2375 0.929 . S
C2312 C2311 1.459 . S
C2312 C2313 1.445 . S
C2312 C2321 1.395 . S
C2313 C2291 1.432 . S
C2313 C2312 1.445 . S
C2313 C2314 1.370 . S
C2314 C2313 1.370 . S
C2314 C2315 1.438 . S
C2314 H2376 0.930 . S
C2315 C2301 1.497 . S
C2315 C2314 1.438 . S
C2315 C2316 1.360 . S
C2316 C2315 1.360 . S
C2316 C2317 1.401 . S
C2316 C2321 1.446 . S
C2317 C2316 1.401 . S
C2317 C2318 1.347 . S
C2317 H2377 0.929 . S
C2318 C2317 1.347 . S
C2318 C2319 1.455 . S
C2318 H2378 0.930 . S
C2319 C2306 1.412 . S
C2319 C2318 1.455 . S
C2319 C2320 1.331 . S
C2320 C2309 1.451 . S
C2320 C2319 1.331 . S
C2320 C2321 1.497 . S
C2321 C2312 1.395 . S
C2321 C2316 1.446 . S
C2321 C2320 1.497 . S
C2322 C2323 1.582 . S
C2322 H2379 0.962 . S
C2322 H2380 0.959 . S
C2322 H2381 0.958 . S
C2323 C2322 1.582 . S
C2323 O2326 1.458 . S
C2323 H2352 0.980 . S
O2324 C2269 1.426 . S
O2324 C2270 1.334 . S
O2325 C2297 1.412 . S
O2325 C2298 1.393 . S
O2326 C2288 1.435 . S
O2326 C2323 1.458 . S
O2327 C2279 1.468 . S
O2327 C2280 1.408 . S
H2328 C2269 0.980 . S
H2329 C2268 0.959 . S
H2330 C2268 0.959 . S
H2331 C2268 0.960 . S
H2332 C2271 0.929 . S
H2333 C2275 0.929 . S
H2334 C2276 0.959 . S
H2335 C2276 0.961 . S
H2336 C2276 0.961 . S
H2337 C2277 0.960 . S
H2338 C2277 0.960 . S
H2339 C2277 0.961 . S
H2340 C2279 0.980 . S
H2341 C2278 0.961 . S
H2342 C2278 0.960 . S
H2343 C2278 0.959 . S
H2344 C2281 0.930 . S
H2345 C2285 0.931 . S
H2346 C2286 0.959 . S
H2347 C2286 0.961 . S
H2348 C2286 0.959 . S
H2349 C2287 0.960 . S
H2350 C2287 0.960 . S
H2351 C2287 0.960 . S
H2352 C2323 0.980 . S
H2353 C2289 0.930 . S
H2354 C2293 0.930 . S
H2355 C2294 0.961 . S
H2356 C2294 0.960 . S
H2357 C2294 0.958 . S
H2358 C2295 0.961 . S
H2359 C2295 0.960 . S
H2360 C2295 0.960 . S
H2361 C2297 0.980 . S
H2362 C2296 0.961 . S
H2363 C2296 0.961 . S
H2364 C2296 0.959 . S
H2365 C2299 0.932 . S
H2366 C2303 0.929 . S
H2367 C2304 0.961 . S
H2368 C2304 0.959 . S
H2369 C2304 0.959 . S
H2370 C2305 0.960 . S
H2371 C2305 0.962 . S
H2372 C2305 0.961 . S
H2373 C2307 0.929 . S
H2374 C2310 0.930 . S
H2375 C2311 0.929 . S
H2376 C2314 0.930 . S
H2377 C2317 0.929 . S
H2378 C2318 0.930 . S
H2379 C2322 0.962 . S
H2380 C2322 0.959 . S
H2381 C2322 0.958 . S
C2382 C2383 1.560 . S
C2382 H2443 0.959 . S
C2382 H2444 0.959 . S
C2382 H2445 0.960 . S
C2383 C2382 1.560 . S
C2383 O2438 1.426 . S
C2383 H2442 0.980 . S
C2384 C2385 1.407 . S
C2384 C2389 1.418 . S
C2384 O2438 1.334 . S
C2385 C2384 1.407 . S
C2385 C2386 1.360 . S
C2385 H2446 0.929 . S
C2386 C2385 1.360 . S
C2386 C2387 1.401 . S
C2386 C2390 1.527 . S
C2387 C2386 1.401 . S
C2387 C2388 1.405 . S
C2387 C2420 1.587 . S
C2388 C2387 1.405 . S
C2388 C2389 1.332 . S
C2388 C2391 1.496 . S
C2389 C2384 1.418 . S
C2389 C2388 1.332 . S
C2389 H2447 0.929 . S
C2390 C2386 1.527 . S
C2390 H2448 0.959 . S
C2390 H2449 0.961 . S
C2390 H2450 0.961 . S
C2391 C2388 1.496 . S
C2391 H2451 0.960 . S
C2391 H2452 0.960 . S
C2391 H2453 0.961 . S
C2392 C2393 1.517 . S
C2392 H2455 0.961 . S
C2392 H2456 0.960 . S
C2392 H2457 0.959 . S
C2393 C2392 1.517 . S
C2393 O2441 1.468 . S
C2393 H2454 0.980 . S
C2394 C2395 1.349 . S
C2394 C2399 1.367 . S
C2394 O2441 1.408 . S
C2395 C2394 1.349 . S
C2395 C2396 1.407 . S
C2395 H2458 0.930 . S
C2396 C2395 1.407 . S
C2396 C2397 1.449 . S
C2396 C2400 1.535 . S
C2397 C2396 1.449 . S
C2397 C2398 1.384 . S
C2397 C2422 1.553 . S
C2398 C2397 1.384 . S
C2398 C2399 1.364 . S
C2398 C2401 1.450 . S
C2399 C2394 1.367 . S
C2399 C2398 1.364 . S
C2399 H2459 0.931 . S
C2400 C2396 1.535 . S
C2400 H2460 0.959 . S
C2400 H2461 0.961 . S
C2400 H2462 0.959 . S
C2401 C2398 1.450 . S
C2401 H2463 0.960 . S
C2401 H2464 0.960 . S
C2401 H2465 0.960 . S
C2402 C2403 1.309 . S
C2402 C2407 1.304 . S
C2402 O2440 1.435 . S
C2403 C2402 1.309 . S
C2403 C2404 1.476 . S
C2403 H2467 0.930 . S
C2404 C2403 1.476 . S
C2404 C2405 1.400 . S
C2404 C2408 1.567 . S
C2405 C2404 1.400 . S
C2405 C2406 1.373 . S
C2405 C2427 1.432 . S
C2406 C2405 1.373 . S
C2406 C2407 1.339 . S
C2406 C2409 1.530 . S
C2407 C2402 1.304 . S
C2407 C2406 1.339 . S
C2407 H2468 0.930 . S
C2408 C2404 1.567 . S
C2408 H2469 0.961 . S
C2408 H2470 0.960 . S
C2408 H2471 0.958 . S
C2409 C2406 1.530 . S
C2409 H2472 0.961 . S
C2409 H2473 0.960 . S
C2409 H2474 0.960 . S
C2410 C2411 1.530 . S
C2410 H2476 0.961 . S
C2410 H2477 0.961 . S
C2410 H2478 0.959 . S
C2411 C2410 1.530 . S
C2411 O2439 1.412 . S
C2411 H2475 0.980 . S
C2412 C2413 1.288 . S
C2412 C2417 1.377 . S
C2412 O2439 1.393 . S
C2413 C2412 1.288 . S
C2413 C2414 1.369 . S
C2413 H2479 0.932 . S
C2414 C2413 1.369 . S
C2414 C2415 1.398 . S
C2414 C2418 1.527 . S
C2415 C2414 1.398 . S
C2415 C2416 1.380 . S
C2415 C2429 1.497 . S
C2416 C2415 1.380 . S
C2416 C2417 1.383 . S
C2416 C2419 1.603 . S
C2417 C2412 1.377 . S
C2417 C2416 1.383 . S
C2417 H2480 0.929 . S
C2418 C2414 1.527 . S
C2418 H2481 0.961 . S
C2418 H2482 0.959 . S
C2418 H2483 0.959 . S
C2419 C2416 1.603 . S
C2419 H2484 0.960 . S
C2419 H2485 0.962 . S
C2419 H2486 0.961 . S
C2420 C2387 1.587 . S
C2420 C2421 1.360 . S
C2420 C2433 1.412 . S
C2421 C2420 1.360 . S
C2421 C2422 1.365 . S
C2421 H2487 0.929 . S
C2422 C2397 1.553 . S
C2422 C2421 1.365 . S
C2422 C2423 1.404 . S
C2423 C2422 1.404 . S
C2423 C2424 1.395 . S
C2423 C2434 1.451 . S
C2424 C2423 1.395 . S
C2424 C2425 1.322 . S
C2424 H2488 0.930 . S
C2425 C2424 1.322 . S
C2425 C2426 1.459 . S
C2425 H2489 0.929 . S
C2426 C2425 1.459 . S
C2426 C2427 1.445 . S
C2426 C2435 1.395 . S
C2427 C2405 1.432 . S
C2427 C2426 1.445 . S
C2427 C2428 1.370 . S
C2428 C2427 1.370 . S
C2428 C2429 1.438 . S
C2428 H2490 0.930 . S
C2429 C2415 1.497 . S
C2429 C2428 1.438 . S
C2429 C2430 1.360 . S
C2430 C2429 1.360 . S
C2430 C2431 1.401 . S
C2430 C2435 1.446 . S
C2431 C2430 1.401 . S
C2431 C2432 1.347 . S
C2431 H2491 0.929 . S
C2432 C2431 1.347 . S
C2432 C2433 1.455 . S
C2432 H2492 0.930 . S
C2433 C2420 1.412 . S
C2433 C2432 1.455 . S
C2433 C2434 1.331 . S
C2434 C2423 1.451 . S
C2434 C2433 1.331 . S
C2434 C2435 1.497 . S
C2435 C2426 1.395 . S
C2435 C2430 1.446 . S
C2435 C2434 1.497 . S
C2436 C2437 1.582 . S
C2436 H2493 0.962 . S
C2436 H2494 0.959 . S
C2436 H2495 0.958 . S
C2437 C2436 1.582 . S
C2437 O2440 1.458 . S
C2437 H2466 0.980 . S
O2438 C2383 1.426 . S
O2438 C2384 1.334 . S
O2439 C2411 1.412 . S
O2439 C2412 1.393 . S
O2440 C2402 1.435 . S
O2440 C2437 1.458 . S
O2441 C2393 1.468 . S
O2441 C2394 1.408 . S
H2442 C2383 0.980 . S
H2443 C2382 0.959 . S
H2444 C2382 0.959 . S
H2445 C2382 0.960 . S
H2446 C2385 0.929 . S
H2447 C2389 0.929 . S
H2448 C2390 0.959 . S
H2449 C2390 0.961 . S
H2450 C2390 0.961 . S
H2451 C2391 0.960 . S
H2452 C2391 0.960 . S
H2453 C2391 0.961 . S
H2454 C2393 0.980 . S
H2455 C2392 0.961 . S
H2456 C2392 0.960 . S
H2457 C2392 0.959 . S
H2458 C2395 0.930 . S
H2459 C2399 0.931 . S
H2460 C2400 0.959 . S
H2461 C2400 0.961 . S
H2462 C2400 0.959 . S
H2463 C2401 0.960 . S
H2464 C2401 0.960 . S
H2465 C2401 0.960 . S
H2466 C2437 0.980 . S
H2467 C2403 0.930 . S
H2468 C2407 0.930 . S
H2469 C2408 0.961 . S
H2470 C2408 0.960 . S
H2471 C2408 0.958 . S
H2472 C2409 0.961 . S
H2473 C2409 0.960 . S
H2474 C2409 0.960 . S
H2475 C2411 0.980 . S
H2476 C2410 0.961 . S
H2477 C2410 0.961 . S
H2478 C2410 0.959 . S
H2479 C2413 0.932 . S
H2480 C2417 0.929 . S
H2481 C2418 0.961 . S
H2482 C2418 0.959 . S
H2483 C2418 0.959 . S
H2484 C2419 0.960 . S
H2485 C2419 0.962 . S
H2486 C2419 0.961 . S
H2487 C2421 0.929 . S
H2488 C2424 0.930 . S
H2489 C2425 0.929 . S
H2490 C2428 0.930 . S
H2491 C2431 0.929 . S
H2492 C2432 0.930 . S
H2493 C2436 0.962 . S
H2494 C2436 0.959 . S
H2495 C2436 0.958 . S
C2496 C2497 1.560 . S
C2496 H2557 0.959 . S
C2496 H2558 0.959 . S
C2496 H2559 0.960 . S
C2497 C2496 1.560 . S
C2497 O2552 1.426 . S
C2497 H2556 0.980 . S
C2498 C2499 1.407 . S
C2498 C2503 1.418 . S
C2498 O2552 1.334 . S
C2499 C2498 1.407 . S
C2499 C2500 1.360 . S
C2499 H2560 0.929 . S
C2500 C2499 1.360 . S
C2500 C2501 1.401 . S
C2500 C2504 1.527 . S
C2501 C2500 1.401 . S
C2501 C2502 1.405 . S
C2501 C2534 1.587 . S
C2502 C2501 1.405 . S
C2502 C2503 1.332 . S
C2502 C2505 1.496 . S
C2503 C2498 1.418 . S
C2503 C2502 1.332 . S
C2503 H2561 0.929 . S
C2504 C2500 1.527 . S
C2504 H2562 0.959 . S
C2504 H2563 0.961 . S
C2504 H2564 0.961 . S
C2505 C2502 1.496 . S
C2505 H2565 0.960 . S
C2505 H2566 0.960 . S
C2505 H2567 0.961 . S
C2506 C2507 1.517 . S
C2506 H2569 0.961 . S
C2506 H2570 0.960 . S
C2506 H2571 0.959 . S
C2507 C2506 1.517 . S
C2507 O2555 1.468 . S
C2507 H2568 0.980 . S
C2508 C2509 1.349 . S
C2508 C2513 1.367 . S
C2508 O2555 1.408 . S
C2509 C2508 1.349 . S
C2509 C2510 1.407 . S
C2509 H2572 0.930 . S
C2510 C2509 1.407 . S
C2510 C2511 1.449 . S
C2510 C2514 1.535 . S
C2511 C2510 1.449 . S
C2511 C2512 1.384 . S
C2511 C2536 1.553 . S
C2512 C2511 1.384 . S
C2512 C2513 1.364 . S
C2512 C2515 1.450 . S
C2513 C2508 1.367 . S
C2513 C2512 1.364 . S
C2513 H2573 0.931 . S
C2514 C2510 1.535 . S
C2514 H2574 0.959 . S
C2514 H2575 0.961 . S
C2514 H2576 0.959 . S
C2515 C2512 1.450 . S
C2515 H2577 0.960 . S
C2515 H2578 0.960 . S
C2515 H2579 0.960 . S
C2516 C2517 1.309 . S
C2516 C2521 1.304 . S
C2516 O2554 1.435 . S
C2517 C2516 1.309 . S
C2517 C2518 1.476 . S
C2517 H2581 0.930 . S
C2518 C2517 1.476 . S
C2518 C2519 1.400 . S
C2518 C2522 1.567 . S
C2519 C2518 1.400 . S
C2519 C2520 1.373 . S
C2519 C2541 1.432 . S
C2520 C2519 1.373 . S
C2520 C2521 1.339 . S
C2520 C2523 1.530 . S
C2521 C2516 1.304 . S
C2521 C2520 1.339 . S
C2521 H2582 0.930 . S
C2522 C2518 1.567 . S
C2522 H2583 0.961 . S
C2522 H2584 0.960 . S
C2522 H2585 0.958 . S
C2523 C2520 1.530 . S
C2523 H2586 0.961 . S
C2523 H2587 0.960 . S
C2523 H2588 0.960 . S
C2524 C2525 1.530 . S
C2524 H2590 0.961 . S
C2524 H2591 0.961 . S
C2524 H2592 0.959 . S
C2525 C2524 1.530 . S
C2525 O2553 1.412 . S
C2525 H2589 0.980 . S
C2526 C2527 1.288 . S
C2526 C2531 1.377 . S
C2526 O2553 1.393 . S
C2527 C2526 1.288 . S
C2527 C2528 1.369 . S
C2527 H2593 0.932 . S
C2528 C2527 1.369 . S
C2528 C2529 1.398 . S
C2528 C2532 1.527 . S
C2529 C2528 1.398 . S
C2529 C2530 1.380 . S
C2529 C2543 1.497 . S
C2530 C2529 1.380 . S
C2530 C2531 1.383 . S
C2530 C2533 1.603 . S
C2531 C2526 1.377 . S
C2531 C2530 1.383 . S
C2531 H2594 0.929 . S
C2532 C2528 1.527 . S
C2532 H2595 0.961 . S
C2532 H2596 0.959 . S
C2532 H2597 0.959 . S
C2533 C2530 1.603 . S
C2533 H2598 0.960 . S
C2533 H2599 0.962 . S
C2533 H2600 0.961 . S
C2534 C2501 1.587 . S
C2534 C2535 1.360 . S
C2534 C2547 1.412 . S
C2535 C2534 1.360 . S
C2535 C2536 1.365 . S
C2535 H2601 0.929 . S
C2536 C2511 1.553 . S
C2536 C2535 1.365 . S
C2536 C2537 1.404 . S
C2537 C2536 1.404 . S
C2537 C2538 1.395 . S
C2537 C2548 1.451 . S
C2538 C2537 1.395 . S
C2538 C2539 1.322 . S
C2538 H2602 0.930 . S
C2539 C2538 1.322 . S
C2539 C2540 1.459 . S
C2539 H2603 0.929 . S
C2540 C2539 1.459 . S
C2540 C2541 1.445 . S
C2540 C2549 1.395 . S
C2541 C2519 1.432 . S
C2541 C2540 1.445 . S
C2541 C2542 1.370 . S
C2542 C2541 1.370 . S
C2542 C2543 1.438 . S
C2542 H2604 0.930 . S
C2543 C2529 1.497 . S
C2543 C2542 1.438 . S
C2543 C2544 1.360 . S
C2544 C2543 1.360 . S
C2544 C2545 1.401 . S
C2544 C2549 1.446 . S
C2545 C2544 1.401 . S
C2545 C2546 1.347 . S
C2545 H2605 0.929 . S
C2546 C2545 1.347 . S
C2546 C2547 1.455 . S
C2546 H2606 0.930 . S
C2547 C2534 1.412 . S
C2547 C2546 1.455 . S
C2547 C2548 1.331 . S
C2548 C2537 1.451 . S
C2548 C2547 1.331 . S
C2548 C2549 1.497 . S
C2549 C2540 1.395 . S
C2549 C2544 1.446 . S
C2549 C2548 1.497 . S
C2550 C2551 1.582 . S
C2550 H2607 0.962 . S
C2550 H2608 0.959 . S
C2550 H2609 0.958 . S
C2551 C2550 1.582 . S
C2551 O2554 1.458 . S
C2551 H2580 0.980 . S
O2552 C2497 1.426 . S
O2552 C2498 1.334 . S
O2553 C2525 1.412 . S
O2553 C2526 1.393 . S
O2554 C2516 1.435 . S
O2554 C2551 1.458 . S
O2555 C2507 1.468 . S
O2555 C2508 1.408 . S
H2556 C2497 0.980 . S
H2557 C2496 0.959 . S
H2558 C2496 0.959 . S
H2559 C2496 0.960 . S
H2560 C2499 0.929 . S
H2561 C2503 0.929 . S
H2562 C2504 0.959 . S
H2563 C2504 0.961 . S
H2564 C2504 0.961 . S
H2565 C2505 0.960 . S
H2566 C2505 0.960 . S
H2567 C2505 0.961 . S
H2568 C2507 0.980 . S
H2569 C2506 0.961 . S
H2570 C2506 0.960 . S
H2571 C2506 0.959 . S
H2572 C2509 0.930 . S
H2573 C2513 0.931 . S
H2574 C2514 0.959 . S
H2575 C2514 0.961 . S
H2576 C2514 0.959 . S
H2577 C2515 0.960 . S
H2578 C2515 0.960 . S
H2579 C2515 0.960 . S
H2580 C2551 0.980 . S
H2581 C2517 0.930 . S
H2582 C2521 0.930 . S
H2583 C2522 0.961 . S
H2584 C2522 0.960 . S
H2585 C2522 0.958 . S
H2586 C2523 0.961 . S
H2587 C2523 0.960 . S
H2588 C2523 0.960 . S
H2589 C2525 0.980 . S
H2590 C2524 0.961 . S
H2591 C2524 0.961 . S
H2592 C2524 0.959 . S
H2593 C2527 0.932 . S
H2594 C2531 0.929 . S
H2595 C2532 0.961 . S
H2596 C2532 0.959 . S
H2597 C2532 0.959 . S
H2598 C2533 0.960 . S
H2599 C2533 0.962 . S
H2600 C2533 0.961 . S
H2601 C2535 0.929 . S
H2602 C2538 0.930 . S
H2603 C2539 0.929 . S
H2604 C2542 0.930 . S
H2605 C2545 0.929 . S
H2606 C2546 0.930 . S
H2607 C2550 0.962 . S
H2608 C2550 0.959 . S
H2609 C2550 0.958 . S
C2610 C2611 1.560 . S
C2610 H2671 0.959 . S
C2610 H2672 0.959 . S
C2610 H2673 0.960 . S
C2611 C2610 1.560 . S
C2611 O2666 1.426 . S
C2611 H2670 0.980 . S
C2612 C2613 1.407 1_455 S
C2612 C2617 1.418 . S
C2612 O2666 1.334 . S
C2613 C2612 1.407 1_655 S
C2613 C2614 1.360 . S
C2613 H2674 0.929 . S
C2614 C2613 1.360 . S
C2614 C2615 1.401 1_655 S
C2614 C2618 1.527 . S
C2615 C2614 1.401 1_455 S
C2615 C2616 1.405 . S
C2615 C2648 1.587 1_455 S
C2616 C2615 1.405 . S
C2616 C2617 1.332 . S
C2616 C2619 1.496 . S
C2617 C2612 1.418 . S
C2617 C2616 1.332 . S
C2617 H2675 0.929 . S
C2618 C2614 1.527 . S
C2618 H2676 0.959 . S
C2618 H2677 0.961 . S
C2618 H2678 0.961 . S
C2619 C2616 1.496 . S
C2619 H2679 0.960 . S
C2619 H2680 0.960 . S
C2619 H2681 0.961 . S
C2620 C2621 1.517 . S
C2620 H2683 0.963 . S
C2620 H2684 0.960 . S
C2620 H2685 0.959 . S
C2621 C2620 1.517 . S
C2621 O2669 1.468 . S
C2621 H2682 0.980 1_655 S
C2622 C2623 1.349 . S
C2622 C2627 1.367 . S
C2622 O2669 1.408 . S
C2623 C2622 1.349 . S
C2623 C2624 1.407 1_655 S
C2623 H2686 0.930 1_655 S
C2624 C2623 1.407 1_455 S
C2624 C2625 1.449 1_455 S
C2624 C2628 1.535 . S
C2625 C2624 1.449 1_655 S
C2625 C2626 1.384 . S
C2625 C2650 1.553 . S
C2626 C2625 1.384 . S
C2626 C2627 1.364 . S
C2626 C2629 1.450 . S
C2627 C2622 1.367 . S
C2627 C2626 1.364 . S
C2627 H2687 0.931 . S
C2628 C2624 1.535 . S
C2628 H2688 0.959 . S
C2628 H2689 0.961 . S
C2628 H2690 0.959 . S
C2629 C2626 1.450 . S
C2629 H2691 0.960 . S
C2629 H2692 0.960 . S
C2629 H2693 0.960 . S
C2630 C2631 1.309 . S
C2630 C2635 1.304 . S
C2630 O2668 1.435 . S
C2631 C2630 1.309 . S
C2631 C2632 1.479 1_655 S
C2631 H2695 0.930 1_655 S
C2632 C2631 1.479 1_455 S
C2632 C2633 1.402 1_455 S
C2632 C2636 1.562 . S
C2633 C2632 1.402 1_655 S
C2633 C2634 1.373 . S
C2633 C2655 1.432 . S
C2634 C2633 1.373 . S
C2634 C2635 1.339 . S
C2634 C2637 1.530 . S
C2635 C2630 1.304 . S
C2635 C2634 1.339 . S
C2635 H2696 0.930 . S
C2636 C2632 1.562 . S
C2636 H2697 0.961 . S
C2636 H2698 0.960 . S
C2636 H2699 0.958 . S
C2637 C2634 1.530 . S
C2637 H2700 0.961 . S
C2637 H2701 0.960 . S
C2637 H2702 0.960 . S
C2638 C2639 1.502 1_455 S
C2638 H2704 0.961 . S
C2638 H2705 0.961 . S
C2638 H2706 0.959 . S
C2639 C2638 1.502 1_655 S
C2639 O2667 1.406 1_655 S
C2639 H2703 0.989 . S
C2640 C2641 1.288 . S
C2640 C2645 1.377 1_455 S
C2640 O2667 1.393 . S
C2641 C2640 1.288 . S
C2641 C2642 1.369 . S
C2641 H2707 0.932 . S
C2642 C2641 1.369 . S
C2642 C2643 1.398 1_455 S
C2642 C2646 1.527 . S
C2643 C2642 1.398 1_655 S
C2643 C2644 1.380 . S
C2643 C2657 1.497 . S
C2644 C2643 1.380 . S
C2644 C2645 1.383 . S
C2644 C2647 1.603 . S
C2645 C2640 1.377 1_655 S
C2645 C2644 1.383 . S
C2645 H2708 0.929 . S
C2646 C2642 1.527 . S
C2646 H2709 0.961 . S
C2646 H2710 0.959 . S
C2646 H2711 0.959 . S
C2647 C2644 1.603 . S
C2647 H2712 0.960 . S
C2647 H2713 0.962 . S
C2647 H2714 0.961 . S
C2648 C2615 1.587 1_655 S
C2648 C2649 1.360 . S
C2648 C2661 1.412 . S
C2649 C2648 1.360 . S
C2649 C2650 1.365 . S
C2649 H2715 0.929 . S
C2650 C2625 1.553 . S
C2650 C2649 1.365 . S
C2650 C2651 1.404 . S
C2651 C2650 1.404 . S
C2651 C2652 1.395 . S
C2651 C2662 1.451 . S
C2652 C2651 1.395 . S
C2652 C2653 1.322 . S
C2652 H2716 0.930 . S
C2653 C2652 1.322 . S
C2653 C2654 1.459 . S
C2653 H2717 0.929 . S
C2654 C2653 1.459 . S
C2654 C2655 1.445 . S
C2654 C2663 1.395 . S
C2655 C2633 1.432 . S
C2655 C2654 1.445 . S
C2655 C2656 1.370 . S
C2656 C2655 1.370 . S
C2656 C2657 1.438 . S
C2656 H2718 0.930 . S
C2657 C2643 1.497 . S
C2657 C2656 1.438 . S
C2657 C2658 1.360 . S
C2658 C2657 1.360 . S
C2658 C2659 1.401 . S
C2658 C2663 1.446 . S
C2659 C2658 1.401 . S
C2659 C2660 1.347 . S
C2659 H2719 0.929 . S
C2660 C2659 1.347 . S
C2660 C2661 1.455 . S
C2660 H2720 0.930 . S
C2661 C2648 1.412 . S
C2661 C2660 1.455 . S
C2661 C2662 1.331 . S
C2662 C2651 1.451 . S
C2662 C2661 1.331 . S
C2662 C2663 1.497 . S
C2663 C2654 1.395 . S
C2663 C2658 1.446 . S
C2663 C2662 1.497 . S
C2664 C2665 1.582 . S
C2664 H2721 0.962 . S
C2664 H2722 0.959 . S
C2664 H2723 0.958 . S
C2665 C2664 1.582 . S
C2665 O2668 1.458 . S
C2665 H2694 0.980 . S
O2666 C2611 1.426 . S
O2666 C2612 1.334 . S
O2667 C2639 1.406 1_455 S
O2667 C2640 1.393 . S
O2668 C2630 1.435 . S
O2668 C2665 1.458 . S
O2669 C2621 1.468 . S
O2669 C2622 1.408 . S
H2670 C2611 0.980 . S
H2671 C2610 0.959 . S
H2672 C2610 0.959 . S
H2673 C2610 0.960 . S
H2674 C2613 0.929 . S
H2675 C2617 0.929 . S
H2676 C2618 0.959 . S
H2677 C2618 0.961 . S
H2678 C2618 0.961 . S
H2679 C2619 0.960 . S
H2680 C2619 0.960 . S
H2681 C2619 0.961 . S
H2682 C2621 0.980 1_455 S
H2683 C2620 0.963 . S
H2684 C2620 0.960 . S
H2685 C2620 0.959 . S
H2686 C2623 0.930 1_455 S
H2687 C2627 0.931 . S
H2688 C2628 0.959 . S
H2689 C2628 0.961 . S
H2690 C2628 0.959 . S
H2691 C2629 0.960 . S
H2692 C2629 0.960 . S
H2693 C2629 0.960 . S
H2694 C2665 0.980 . S
H2695 C2631 0.930 1_455 S
H2696 C2635 0.930 . S
H2697 C2636 0.961 . S
H2698 C2636 0.960 . S
H2699 C2636 0.958 . S
H2700 C2637 0.961 . S
H2701 C2637 0.960 . S
H2702 C2637 0.960 . S
H2703 C2639 0.989 . S
H2704 C2638 0.961 . S
H2705 C2638 0.961 . S
H2706 C2638 0.959 . S
H2707 C2641 0.932 . S
H2708 C2645 0.929 . S
H2709 C2646 0.961 . S
H2710 C2646 0.959 . S
H2711 C2646 0.959 . S
H2712 C2647 0.960 . S
H2713 C2647 0.962 . S
H2714 C2647 0.961 . S
H2715 C2649 0.929 . S
H2716 C2652 0.930 . S
H2717 C2653 0.929 . S
H2718 C2656 0.930 . S
H2719 C2659 0.929 . S
H2720 C2660 0.930 . S
H2721 C2664 0.962 . S
H2722 C2664 0.959 . S
H2723 C2664 0.958 . S
C2724 C2725 1.560 . S
C2724 H2785 0.959 . S
C2724 H2786 0.959 . S
C2724 H2787 0.960 . S
C2725 C2724 1.560 . S
C2725 O2780 1.426 . S
C2725 H2784 0.980 . S
C2726 C2727 1.407 . S
C2726 C2731 1.418 . S
C2726 O2780 1.334 . S
C2727 C2726 1.407 . S
C2727 C2728 1.360 . S
C2727 H2788 0.929 . S
C2728 C2727 1.360 . S
C2728 C2729 1.401 . S
C2728 C2732 1.527 . S
C2729 C2728 1.401 . S
C2729 C2730 1.405 . S
C2729 C2762 1.587 . S
C2730 C2729 1.405 . S
C2730 C2731 1.332 . S
C2730 C2733 1.496 . S
C2731 C2726 1.418 . S
C2731 C2730 1.332 . S
C2731 H2789 0.929 . S
C2732 C2728 1.527 . S
C2732 H2790 0.959 . S
C2732 H2791 0.961 . S
C2732 H2792 0.961 . S
C2733 C2730 1.496 . S
C2733 H2793 0.960 . S
C2733 H2794 0.960 . S
C2733 H2795 0.961 . S
C2734 C2735 1.517 . S
C2734 H2797 0.961 . S
C2734 H2798 0.960 . S
C2734 H2799 0.959 . S
C2735 C2734 1.517 . S
C2735 O2783 1.468 . S
C2735 H2796 0.980 . S
C2736 C2737 1.349 . S
C2736 C2741 1.367 . S
C2736 O2783 1.408 . S
C2737 C2736 1.349 . S
C2737 C2738 1.407 . S
C2737 H2800 0.930 . S
C2738 C2737 1.407 . S
C2738 C2739 1.449 . S
C2738 C2742 1.535 . S
C2739 C2738 1.449 . S
C2739 C2740 1.384 . S
C2739 C2764 1.553 . S
C2740 C2739 1.384 . S
C2740 C2741 1.364 . S
C2740 C2743 1.450 . S
C2741 C2736 1.367 . S
C2741 C2740 1.364 . S
C2741 H2801 0.931 . S
C2742 C2738 1.535 . S
C2742 H2802 0.959 . S
C2742 H2803 0.961 . S
C2742 H2804 0.959 . S
C2743 C2740 1.450 . S
C2743 H2805 0.960 . S
C2743 H2806 0.960 . S
C2743 H2807 0.960 . S
C2744 C2745 1.309 . S
C2744 C2749 1.304 . S
C2744 O2782 1.435 . S
C2745 C2744 1.309 . S
C2745 C2746 1.476 . S
C2745 H2809 0.930 . S
C2746 C2745 1.476 . S
C2746 C2747 1.400 . S
C2746 C2750 1.567 . S
C2747 C2746 1.400 . S
C2747 C2748 1.373 . S
C2747 C2769 1.432 . S
C2748 C2747 1.373 . S
C2748 C2749 1.339 . S
C2748 C2751 1.530 . S
C2749 C2744 1.304 . S
C2749 C2748 1.339 . S
C2749 H2810 0.930 . S
C2750 C2746 1.567 . S
C2750 H2811 0.961 . S
C2750 H2812 0.960 . S
C2750 H2813 0.958 . S
C2751 C2748 1.530 . S
C2751 H2814 0.961 . S
C2751 H2815 0.960 . S
C2751 H2816 0.960 . S
C2752 C2753 1.530 . S
C2752 H2818 0.961 . S
C2752 H2819 0.961 . S
C2752 H2820 0.959 . S
C2753 C2752 1.530 . S
C2753 O2781 1.412 . S
C2753 H2817 0.980 . S
C2754 C2755 1.288 . S
C2754 C2759 1.377 . S
C2754 O2781 1.393 . S
C2755 C2754 1.288 . S
C2755 C2756 1.369 . S
C2755 H2821 0.932 . S
C2756 C2755 1.369 . S
C2756 C2757 1.398 . S
C2756 C2760 1.527 . S
C2757 C2756 1.398 . S
C2757 C2758 1.380 . S
C2757 C2771 1.497 . S
C2758 C2757 1.380 . S
C2758 C2759 1.383 . S
C2758 C2761 1.603 . S
C2759 C2754 1.377 . S
C2759 C2758 1.383 . S
C2759 H2822 0.929 . S
C2760 C2756 1.527 . S
C2760 H2823 0.961 . S
C2760 H2824 0.959 . S
C2760 H2825 0.959 . S
C2761 C2758 1.603 . S
C2761 H2826 0.960 . S
C2761 H2827 0.962 . S
C2761 H2828 0.961 . S
C2762 C2729 1.587 . S
C2762 C2763 1.360 . S
C2762 C2775 1.412 . S
C2763 C2762 1.360 . S
C2763 C2764 1.365 . S
C2763 H2829 0.929 . S
C2764 C2739 1.553 . S
C2764 C2763 1.365 . S
C2764 C2765 1.404 . S
C2765 C2764 1.404 . S
C2765 C2766 1.395 . S
C2765 C2776 1.451 . S
C2766 C2765 1.395 . S
C2766 C2767 1.322 . S
C2766 H2830 0.930 . S
C2767 C2766 1.322 . S
C2767 C2768 1.459 . S
C2767 H2831 0.929 . S
C2768 C2767 1.459 . S
C2768 C2769 1.445 . S
C2768 C2777 1.395 . S
C2769 C2747 1.432 . S
C2769 C2768 1.445 . S
C2769 C2770 1.370 . S
C2770 C2769 1.370 . S
C2770 C2771 1.438 . S
C2770 H2832 0.930 . S
C2771 C2757 1.497 . S
C2771 C2770 1.438 . S
C2771 C2772 1.360 . S
C2772 C2771 1.360 . S
C2772 C2773 1.401 . S
C2772 C2777 1.446 . S
C2773 C2772 1.401 . S
C2773 C2774 1.347 . S
C2773 H2833 0.929 . S
C2774 C2773 1.347 . S
C2774 C2775 1.455 . S
C2774 H2834 0.930 . S
C2775 C2762 1.412 . S
C2775 C2774 1.455 . S
C2775 C2776 1.331 . S
C2776 C2765 1.451 . S
C2776 C2775 1.331 . S
C2776 C2777 1.497 . S
C2777 C2768 1.395 . S
C2777 C2772 1.446 . S
C2777 C2776 1.497 . S
C2778 C2779 1.582 . S
C2778 H2835 0.962 . S
C2778 H2836 0.959 . S
C2778 H2837 0.958 . S
C2779 C2778 1.582 . S
C2779 O2782 1.458 . S
C2779 H2808 0.980 . S
O2780 C2725 1.426 . S
O2780 C2726 1.334 . S
O2781 C2753 1.412 . S
O2781 C2754 1.393 . S
O2782 C2744 1.435 . S
O2782 C2779 1.458 . S
O2783 C2735 1.468 . S
O2783 C2736 1.408 . S
H2784 C2725 0.980 . S
H2785 C2724 0.959 . S
H2786 C2724 0.959 . S
H2787 C2724 0.960 . S
H2788 C2727 0.929 . S
H2789 C2731 0.929 . S
H2790 C2732 0.959 . S
H2791 C2732 0.961 . S
H2792 C2732 0.961 . S
H2793 C2733 0.960 . S
H2794 C2733 0.960 . S
H2795 C2733 0.961 . S
H2796 C2735 0.980 . S
H2797 C2734 0.961 . S
H2798 C2734 0.960 . S
H2799 C2734 0.959 . S
H2800 C2737 0.930 . S
H2801 C2741 0.931 . S
H2802 C2742 0.959 . S
H2803 C2742 0.961 . S
H2804 C2742 0.959 . S
H2805 C2743 0.960 . S
H2806 C2743 0.960 . S
H2807 C2743 0.960 . S
H2808 C2779 0.980 . S
H2809 C2745 0.930 . S
H2810 C2749 0.930 . S
H2811 C2750 0.961 . S
H2812 C2750 0.960 . S
H2813 C2750 0.958 . S
H2814 C2751 0.961 . S
H2815 C2751 0.960 . S
H2816 C2751 0.960 . S
H2817 C2753 0.980 . S
H2818 C2752 0.961 . S
H2819 C2752 0.961 . S
H2820 C2752 0.959 . S
H2821 C2755 0.932 . S
H2822 C2759 0.929 . S
H2823 C2760 0.961 . S
H2824 C2760 0.959 . S
H2825 C2760 0.959 . S
H2826 C2761 0.960 . S
H2827 C2761 0.962 . S
H2828 C2761 0.961 . S
H2829 C2763 0.929 . S
H2830 C2766 0.930 . S
H2831 C2767 0.929 . S
H2832 C2770 0.930 . S
H2833 C2773 0.929 . S
H2834 C2774 0.930 . S
H2835 C2778 0.962 . S
H2836 C2778 0.959 . S
H2837 C2778 0.958 . S
C2838 C2839 1.560 . S
C2838 H2899 0.959 . S
C2838 H2900 0.959 . S
C2838 H2901 0.960 . S
C2839 C2838 1.560 . S
C2839 O2894 1.426 . S
C2839 H2898 0.980 . S
C2840 C2841 1.407 1_565 S
C2840 C2845 1.418 . S
C2840 O2894 1.334 . S
C2841 C2840 1.407 1_545 S
C2841 C2842 1.360 . S
C2841 H2902 0.929 . S
C2842 C2841 1.360 . S
C2842 C2843 1.401 1_545 S
C2842 C2846 1.527 . S
C2843 C2842 1.401 1_565 S
C2843 C2844 1.405 . S
C2843 C2876 1.587 1_565 S
C2844 C2843 1.405 . S
C2844 C2845 1.332 . S
C2844 C2847 1.496 . S
C2845 C2840 1.418 . S
C2845 C2844 1.332 . S
C2845 H2903 0.929 . S
C2846 C2842 1.527 . S
C2846 H2904 0.959 . S
C2846 H2905 0.961 . S
C2846 H2906 0.961 . S
C2847 C2844 1.496 . S
C2847 H2907 0.960 . S
C2847 H2908 0.960 . S
C2847 H2909 0.961 . S
C2848 C2849 1.517 . S
C2848 H2911 0.961 1_545 S
C2848 H2912 0.960 . S
C2848 H2913 0.959 . S
C2849 C2848 1.517 . S
C2849 O2897 1.468 . S
C2849 H2910 0.980 1_545 S
C2850 C2851 1.379 . S
C2850 C2855 1.367 . S
C2850 O2897 1.408 . S
C2851 C2850 1.379 . S
C2851 C2852 1.425 1_545 S
C2851 H2914 0.882 1_545 S
C2852 C2851 1.425 1_565 S
C2852 C2853 1.449 1_565 S
C2852 C2856 1.535 . S
C2853 C2852 1.449 1_545 S
C2853 C2854 1.384 . S
C2853 C2878 1.553 . S
C2854 C2853 1.384 . S
C2854 C2855 1.364 . S
C2854 C2857 1.450 . S
C2855 C2850 1.367 . S
C2855 C2854 1.364 . S
C2855 H2915 0.931 . S
C2856 C2852 1.535 . S
C2856 H2916 0.959 . S
C2856 H2917 0.961 . S
C2856 H2918 0.959 . S
C2857 C2854 1.450 . S
C2857 H2919 0.960 . S
C2857 H2920 0.960 . S
C2857 H2921 0.960 . S
C2858 C2859 1.309 . S
C2858 C2863 1.304 . S
C2858 O2896 1.435 . S
C2859 C2858 1.309 . S
C2859 C2860 1.489 1_545 S
C2859 H2923 0.930 1_545 S
C2860 C2859 1.489 1_565 S
C2860 C2861 1.356 1_565 S
C2860 C2864 1.597 . S
C2861 C2860 1.356 1_545 S
C2861 C2862 1.373 . S
C2861 C2883 1.432 . S
C2862 C2861 1.373 . S
C2862 C2863 1.339 . S
C2862 C2865 1.530 . S
C2863 C2858 1.304 . S
C2863 C2862 1.339 . S
C2863 H2924 0.930 . S
C2864 C2860 1.597 . S
C2864 H2925 0.961 . S
C2864 H2926 0.960 . S
C2864 H2927 0.958 . S
C2865 C2862 1.530 . S
C2865 H2928 0.961 . S
C2865 H2929 0.960 . S
C2865 H2930 0.960 . S
C2866 C2867 1.530 1_565 S
C2866 H2932 0.961 . S
C2866 H2933 0.961 . S
C2866 H2934 0.959 . S
C2867 C2866 1.530 1_545 S
C2867 O2895 1.412 1_545 S
C2867 H2931 0.980 . S
C2868 C2869 1.288 . S
C2868 C2873 1.377 1_565 S
C2868 O2895 1.393 . S
C2869 C2868 1.288 . S
C2869 C2870 1.369 . S
C2869 H2935 0.932 . S
C2870 C2869 1.369 . S
C2870 C2871 1.398 1_565 S
C2870 C2874 1.527 . S
C2871 C2870 1.398 1_545 S
C2871 C2872 1.380 . S
C2871 C2885 1.497 . S
C2872 C2871 1.380 . S
C2872 C2873 1.383 . S
C2872 C2875 1.603 . S
C2873 C2868 1.377 1_545 S
C2873 C2872 1.383 . S
C2873 H2936 0.929 . S
C2874 C2870 1.527 . S
C2874 H2937 0.961 . S
C2874 H2938 0.959 . S
C2874 H2939 0.959 . S
C2875 C2872 1.603 . S
C2875 H2940 0.960 . S
C2875 H2941 0.962 . S
C2875 H2942 0.961 . S
C2876 C2843 1.587 1_545 S
C2876 C2877 1.360 . S
C2876 C2889 1.412 . S
C2877 C2876 1.360 . S
C2877 C2878 1.365 . S
C2877 H2943 0.929 . S
C2878 C2853 1.553 . S
C2878 C2877 1.365 . S
C2878 C2879 1.404 . S
C2879 C2878 1.404 . S
C2879 C2880 1.395 . S
C2879 C2890 1.451 . S
C2880 C2879 1.395 . S
C2880 C2881 1.322 . S
C2880 H2944 0.930 . S
C2881 C2880 1.322 . S
C2881 C2882 1.459 . S
C2881 H2945 0.929 . S
C2882 C2881 1.459 . S
C2882 C2883 1.445 . S
C2882 C2891 1.395 . S
C2883 C2861 1.432 . S
C2883 C2882 1.445 . S
C2883 C2884 1.370 . S
C2884 C2883 1.370 . S
C2884 C2885 1.438 . S
C2884 H2946 0.930 . S
C2885 C2871 1.497 . S
C2885 C2884 1.438 . S
C2885 C2886 1.360 . S
C2886 C2885 1.360 . S
C2886 C2887 1.401 . S
C2886 C2891 1.446 . S
C2887 C2886 1.401 . S
C2887 C2888 1.347 . S
C2887 H2947 0.929 . S
C2888 C2887 1.347 . S
C2888 C2889 1.455 . S
C2888 H2948 0.930 . S
C2889 C2876 1.412 . S
C2889 C2888 1.455 . S
C2889 C2890 1.331 . S
C2890 C2879 1.451 . S
C2890 C2889 1.331 . S
C2890 C2891 1.497 . S
C2891 C2882 1.395 . S
C2891 C2886 1.446 . S
C2891 C2890 1.497 . S
C2892 C2893 1.582 . S
C2892 H2949 0.962 . S
C2892 H2950 0.959 . S
C2892 H2951 0.958 . S
C2893 C2892 1.582 . S
C2893 O2896 1.458 . S
C2893 H2922 0.980 . S
O2894 C2839 1.426 . S
O2894 C2840 1.334 . S
O2895 C2867 1.412 1_565 S
O2895 C2868 1.393 . S
O2896 C2858 1.435 . S
O2896 C2893 1.458 . S
O2897 C2849 1.468 . S
O2897 C2850 1.408 . S
H2898 C2839 0.980 . S
H2899 C2838 0.959 . S
H2900 C2838 0.959 . S
H2901 C2838 0.960 . S
H2902 C2841 0.929 . S
H2903 C2845 0.929 . S
H2904 C2846 0.959 . S
H2905 C2846 0.961 . S
H2906 C2846 0.961 . S
H2907 C2847 0.960 . S
H2908 C2847 0.960 . S
H2909 C2847 0.961 . S
H2910 C2849 0.980 1_565 S
H2911 C2848 0.961 1_565 S
H2912 C2848 0.960 . S
H2913 C2848 0.959 . S
H2914 C2851 0.882 1_565 S
H2915 C2855 0.931 . S
H2916 C2856 0.959 . S
H2917 C2856 0.961 . S
H2918 C2856 0.959 . S
H2919 C2857 0.960 . S
H2920 C2857 0.960 . S
H2921 C2857 0.960 . S
H2922 C2893 0.980 . S
H2923 C2859 0.930 1_565 S
H2924 C2863 0.930 . S
H2925 C2864 0.961 . S
H2926 C2864 0.960 . S
H2927 C2864 0.958 . S
H2928 C2865 0.961 . S
H2929 C2865 0.960 . S
H2930 C2865 0.960 . S
H2931 C2867 0.980 . S
H2932 C2866 0.961 . S
H2933 C2866 0.961 . S
H2934 C2866 0.959 . S
H2935 C2869 0.932 . S
H2936 C2873 0.929 . S
H2937 C2874 0.961 . S
H2938 C2874 0.959 . S
H2939 C2874 0.959 . S
H2940 C2875 0.960 . S
H2941 C2875 0.962 . S
H2942 C2875 0.961 . S
H2943 C2877 0.929 . S
H2944 C2880 0.930 . S
H2945 C2881 0.929 . S
H2946 C2884 0.930 . S
H2947 C2887 0.929 . S
H2948 C2888 0.930 . S
H2949 C2892 0.962 . S
H2950 C2892 0.959 . S
H2951 C2892 0.958 . S
C2952 C2953 1.560 . S
C2952 H3013 0.959 . S
C2952 H3014 0.959 . S
C2952 H3015 0.960 . S
C2953 C2952 1.560 . S
C2953 O3008 1.426 . S
C2953 H3012 0.980 1_565 S
C2954 C2955 1.407 1_565 S
C2954 C2959 1.418 . S
C2954 O3008 1.334 . S
C2955 C2954 1.407 1_545 S
C2955 C2956 1.360 . S
C2955 H3016 0.929 . S
C2956 C2955 1.360 . S
C2956 C2957 1.401 . S
C2956 C2960 1.527 . S
C2957 C2956 1.401 . S
C2957 C2958 1.405 1_545 S
C2957 C2990 1.587 . S
C2958 C2957 1.405 1_565 S
C2958 C2959 1.332 . S
C2958 C2961 1.496 . S
C2959 C2954 1.418 . S
C2959 C2958 1.332 . S
C2959 H3017 0.929 . S
C2960 C2956 1.527 . S
C2960 H3018 0.959 . S
C2960 H3019 0.961 . S
C2960 H3020 0.961 . S
C2961 C2958 1.496 . S
C2961 H3021 0.960 . S
C2961 H3022 0.960 . S
C2961 H3023 0.961 . S
C2962 C2963 1.517 . S
C2962 H3025 0.961 . S
C2962 H3026 0.960 . S
C2962 H3027 0.959 . S
C2963 C2962 1.517 . S
C2963 O3011 1.468 . S
C2963 H3024 0.980 . S
C2964 C2965 1.349 . S
C2964 C2969 1.367 . S
C2964 O3011 1.408 . S
C2965 C2964 1.349 . S
C2965 C2966 1.407 . S
C2965 H3028 0.935 . S
C2966 C2965 1.407 . S
C2966 C2967 1.449 . S
C2966 C2970 1.535 1_545 S
C2967 C2966 1.449 . S
C2967 C2968 1.384 . S
C2967 C2992 1.553 . S
C2968 C2967 1.384 . S
C2968 C2969 1.364 . S
C2968 C2971 1.450 . S
C2969 C2964 1.367 . S
C2969 C2968 1.364 . S
C2969 H3029 0.931 . S
C2970 C2966 1.535 1_565 S
C2970 H3030 0.959 . S
C2970 H3031 0.961 . S
C2970 H3032 0.959 . S
C2971 C2968 1.450 . S
C2971 H3033 0.960 . S
C2971 H3034 0.960 . S
C2971 H3035 0.960 . S
C2972 C2973 1.309 1_545 S
C2972 C2977 1.304 . S
C2972 O3010 1.435 . S
C2973 C2972 1.309 1_565 S
C2973 C2974 1.476 . S
C2973 H3037 0.930 . S
C2974 C2973 1.476 . S
C2974 C2975 1.400 1_565 S
C2974 C2978 1.567 . S
C2975 C2974 1.400 1_545 S
C2975 C2976 1.373 . S
C2975 C2997 1.432 . S
C2976 C2975 1.373 . S
C2976 C2977 1.339 . S
C2976 C2979 1.530 . S
C2977 C2972 1.304 . S
C2977 C2976 1.339 . S
C2977 H3038 0.930 . S
C2978 C2974 1.567 . S
C2978 H3039 0.961 . S
C2978 H3040 0.960 . S
C2978 H3041 0.958 . S
C2979 C2976 1.530 . S
C2979 H3042 0.961 . S
C2979 H3043 0.960 . S
C2979 H3044 0.960 . S
C2980 C2981 1.530 . S
C2980 H3046 0.961 . S
C2980 H3047 0.961 . S
C2980 H3048 0.959 . S
C2981 C2980 1.530 . S
C2981 O3009 1.412 . S
C2981 H3045 1.012 . S
C2982 C2983 1.288 . S
C2982 C2987 1.377 1_565 S
C2982 O3009 1.393 . S
C2983 C2982 1.288 . S
C2983 C2984 1.369 . S
C2983 H3049 0.932 . S
C2984 C2983 1.369 . S
C2984 C2985 1.398 . S
C2984 C2988 1.527 . S
C2985 C2984 1.398 . S
C2985 C2986 1.380 1_565 S
C2985 C2999 1.497 1_565 S
C2986 C2985 1.380 1_545 S
C2986 C2987 1.383 . S
C2986 C2989 1.603 . S
C2987 C2982 1.377 1_545 S
C2987 C2986 1.383 . S
C2987 H3050 0.929 . S
C2988 C2984 1.527 . S
C2988 H3051 0.961 . S
C2988 H3052 0.959 . S
C2988 H3053 0.959 . S
C2989 C2986 1.603 . S
C2989 H3054 0.960 . S
C2989 H3055 0.962 . S
C2989 H3056 0.961 . S
C2990 C2957 1.587 . S
C2990 C2991 1.360 . S
C2990 C3003 1.412 . S
C2991 C2990 1.360 . S
C2991 C2992 1.365 . S
C2991 H3057 0.929 . S
C2992 C2967 1.553 . S
C2992 C2991 1.365 . S
C2992 C2993 1.404 . S
C2993 C2992 1.404 . S
C2993 C2994 1.395 . S
C2993 C3004 1.451 . S
C2994 C2993 1.395 . S
C2994 C2995 1.322 . S
C2994 H3058 0.930 . S
C2995 C2994 1.322 . S
C2995 C2996 1.459 . S
C2995 H3059 0.929 . S
C2996 C2995 1.459 . S
C2996 C2997 1.445 . S
C2996 C3005 1.395 . S
C2997 C2975 1.432 . S
C2997 C2996 1.445 . S
C2997 C2998 1.370 . S
C2998 C2997 1.370 . S
C2998 C2999 1.438 . S
C2998 H3060 0.930 . S
C2999 C2985 1.497 1_545 S
C2999 C2998 1.438 . S
C2999 C3000 1.360 . S
C3000 C2999 1.360 . S
C3000 C3001 1.401 . S
C3000 C3005 1.446 . S
C3001 C3000 1.401 . S
C3001 C3002 1.347 . S
C3001 H3061 0.959 . S
C3002 C3001 1.347 . S
C3002 C3003 1.455 . S
C3002 H3062 0.930 . S
C3003 C2990 1.412 . S
C3003 C3002 1.455 . S
C3003 C3004 1.331 . S
C3004 C2993 1.451 . S
C3004 C3003 1.331 . S
C3004 C3005 1.497 . S
C3005 C2996 1.395 . S
C3005 C3000 1.446 . S
C3005 C3004 1.497 . S
C3006 C3007 1.628 . S
C3006 H3063 0.962 . S
C3006 H3064 0.959 . S
C3006 H3065 0.958 . S
C3007 C3006 1.628 . S
C3007 O3010 1.477 . S
C3007 H3036 0.981 1_545 S
O3008 C2953 1.426 . S
O3008 C2954 1.334 . S
O3009 C2981 1.412 . S
O3009 C2982 1.393 . S
O3010 C2972 1.435 . S
O3010 C3007 1.477 . S
O3011 C2963 1.468 . S
O3011 C2964 1.408 . S
H3012 C2953 0.980 1_545 S
H3013 C2952 0.959 . S
H3014 C2952 0.959 . S
H3015 C2952 0.960 . S
H3016 C2955 0.929 . S
H3017 C2959 0.929 . S
H3018 C2960 0.959 . S
H3019 C2960 0.961 . S
H3020 C2960 0.961 . S
H3021 C2961 0.960 . S
H3022 C2961 0.960 . S
H3023 C2961 0.961 . S
H3024 C2963 0.980 . S
H3025 C2962 0.961 . S
H3026 C2962 0.960 . S
H3027 C2962 0.959 . S
H3028 C2965 0.935 . S
H3029 C2969 0.931 . S
H3030 C2970 0.959 . S
H3031 C2970 0.961 . S
H3032 C2970 0.959 . S
H3033 C2971 0.960 . S
H3034 C2971 0.960 . S
H3035 C2971 0.960 . S
H3036 C3007 0.981 1_565 S
H3037 C2973 0.930 . S
H3038 C2977 0.930 . S
H3039 C2978 0.961 . S
H3040 C2978 0.960 . S
H3041 C2978 0.958 . S
H3042 C2979 0.961 . S
H3043 C2979 0.960 . S
H3044 C2979 0.960 . S
H3045 C2981 1.012 . S
H3046 C2980 0.961 . S
H3047 C2980 0.961 . S
H3048 C2980 0.959 . S
H3049 C2983 0.932 . S
H3050 C2987 0.929 . S
H3051 C2988 0.961 . S
H3052 C2988 0.959 . S
H3053 C2988 0.959 . S
H3054 C2989 0.960 . S
H3055 C2989 0.962 . S
H3056 C2989 0.961 . S
H3057 C2991 0.929 . S
H3058 C2994 0.930 . S
H3059 C2995 0.929 . S
H3060 C2998 0.930 . S
H3061 C3001 0.959 . S
H3062 C3002 0.930 . S
H3063 C3006 0.962 . S
H3064 C3006 0.959 . S
H3065 C3006 0.958 . S
C3066 C3067 1.560 . S
C3066 H3127 0.959 . S
C3066 H3128 0.959 . S
C3066 H3129 0.960 . S
C3067 C3066 1.560 . S
C3067 O3122 1.426 . S
C3067 H3126 0.980 1_455 S
C3068 C3069 1.407 1_455 S
C3068 C3073 1.418 . S
C3068 O3122 1.334 . S
C3069 C3068 1.407 1_655 S
C3069 C3070 1.360 . S
C3069 H3130 0.929 . S
C3070 C3069 1.360 . S
C3070 C3071 1.401 . S
C3070 C3074 1.527 . S
C3071 C3070 1.401 . S
C3071 C3072 1.405 1_655 S
C3071 C3104 1.587 . S
C3072 C3071 1.405 1_455 S
C3072 C3073 1.332 . S
C3072 C3075 1.496 . S
C3073 C3068 1.418 . S
C3073 C3072 1.332 . S
C3073 H3131 0.929 . S
C3074 C3070 1.527 . S
C3074 H3132 0.959 . S
C3074 H3133 0.961 . S
C3074 H3134 0.961 . S
C3075 C3072 1.496 . S
C3075 H3135 0.960 . S
C3075 H3136 0.960 . S
C3075 H3137 0.961 . S
C3076 C3077 1.517 . S
C3076 H3139 0.961 . S
C3076 H3140 0.960 . S
C3076 H3141 0.959 . S
C3077 C3076 1.517 . S
C3077 O3125 1.468 . S
C3077 H3138 0.980 . S
C3078 C3079 1.349 . S
C3078 C3083 1.367 . S
C3078 O3125 1.408 . S
C3079 C3078 1.349 . S
C3079 C3080 1.407 . S
C3079 H3142 0.939 1_655 S
C3080 C3079 1.407 . S
C3080 C3081 1.449 . S
C3080 C3084 1.535 1_655 S
C3081 C3080 1.449 . S
C3081 C3082 1.384 . S
C3081 C3106 1.553 . S
C3082 C3081 1.384 . S
C3082 C3083 1.364 . S
C3082 C3085 1.450 . S
C3083 C3078 1.367 . S
C3083 C3082 1.364 . S
C3083 H3143 0.931 . S
C3084 C3080 1.535 1_455 S
C3084 H3144 0.959 . S
C3084 H3145 0.961 . S
C3084 H3146 0.959 . S
C3085 C3082 1.450 . S
C3085 H3147 0.960 . S
C3085 H3148 0.960 . S
C3085 H3149 0.960 . S
C3086 C3087 1.309 1_655 S
C3086 C3091 1.304 . S
C3086 O3124 1.435 . S
C3087 C3086 1.309 1_455 S
C3087 C3088 1.476 . S
C3087 H3151 0.930 . S
C3088 C3087 1.476 . S
C3088 C3089 1.400 1_455 S
C3088 C3092 1.567 . S
C3089 C3088 1.400 1_655 S
C3089 C3090 1.373 . S
C3089 C3111 1.432 . S
C3090 C3089 1.373 . S
C3090 C3091 1.339 . S
C3090 C3093 1.530 . S
C3091 C3086 1.304 . S
C3091 C3090 1.339 . S
C3091 H3152 0.930 . S
C3092 C3088 1.567 . S
C3092 H3153 0.961 . S
C3092 H3154 0.960 . S
C3092 H3155 0.958 . S
C3093 C3090 1.530 . S
C3093 H3156 0.961 . S
C3093 H3157 0.960 . S
C3093 H3158 0.960 . S
C3094 C3095 1.530 . S
C3094 H3160 0.961 . S
C3094 H3161 0.961 . S
C3094 H3162 0.959 . S
C3095 C3094 1.530 . S
C3095 O3123 1.412 . S
C3095 H3159 0.989 . S
C3096 C3097 1.288 . S
C3096 C3101 1.377 1_455 S
C3096 O3123 1.393 . S
C3097 C3096 1.288 . S
C3097 C3098 1.369 . S
C3097 H3163 0.932 . S
C3098 C3097 1.369 . S
C3098 C3099 1.398 . S
C3098 C3102 1.527 . S
C3099 C3098 1.398 . S
C3099 C3100 1.380 1_455 S
C3099 C3113 1.497 1_455 S
C3100 C3099 1.380 1_655 S
C3100 C3101 1.383 . S
C3100 C3103 1.603 . S
C3101 C3096 1.377 1_655 S
C3101 C3100 1.383 . S
C3101 H3164 0.929 . S
C3102 C3098 1.527 . S
C3102 H3165 0.961 . S
C3102 H3166 0.959 . S
C3102 H3167 0.959 . S
C3103 C3100 1.603 . S
C3103 H3168 0.960 . S
C3103 H3169 0.962 . S
C3103 H3170 0.961 . S
C3104 C3071 1.587 . S
C3104 C3105 1.360 . S
C3104 C3117 1.412 . S
C3105 C3104 1.360 . S
C3105 C3106 1.365 . S
C3105 H3171 0.929 . S
C3106 C3081 1.553 . S
C3106 C3105 1.365 . S
C3106 C3107 1.404 . S
C3107 C3106 1.404 . S
C3107 C3108 1.395 . S
C3107 C3118 1.451 . S
C3108 C3107 1.395 . S
C3108 C3109 1.322 . S
C3108 H3172 0.930 . S
C3109 C3108 1.322 . S
C3109 C3110 1.459 . S
C3109 H3173 0.929 . S
C3110 C3109 1.459 . S
C3110 C3111 1.445 . S
C3110 C3119 1.395 . S
C3111 C3089 1.432 . S
C3111 C3110 1.445 . S
C3111 C3112 1.370 . S
C3112 C3111 1.370 . S
C3112 C3113 1.438 . S
C3112 H3174 0.930 . S
C3113 C3099 1.497 1_655 S
C3113 C3112 1.438 . S
C3113 C3114 1.360 . S
C3114 C3113 1.360 . S
C3114 C3115 1.401 . S
C3114 C3119 1.446 . S
C3115 C3114 1.401 . S
C3115 C3116 1.347 . S
C3115 H3175 0.929 . S
C3116 C3115 1.347 . S
C3116 C3117 1.455 . S
C3116 H3176 0.930 . S
C3117 C3104 1.412 . S
C3117 C3116 1.455 . S
C3117 C3118 1.331 . S
C3118 C3107 1.451 . S
C3118 C3117 1.331 . S
C3118 C3119 1.497 . S
C3119 C3110 1.395 . S
C3119 C3114 1.446 . S
C3119 C3118 1.497 . S
C3120 C3121 1.583 1_655 S
C3120 H3177 0.948 1_655 S
C3120 H3178 0.959 . S
C3120 H3179 0.958 . S
C3121 C3120 1.583 1_455 S
C3121 O3124 1.373 1_455 S
C3121 H3150 1.016 . S
O3122 C3067 1.426 . S
O3122 C3068 1.334 . S
O3123 C3095 1.412 . S
O3123 C3096 1.393 . S
O3124 C3086 1.435 . S
O3124 C3121 1.373 1_655 S
O3125 C3077 1.468 . S
O3125 C3078 1.408 . S
H3126 C3067 0.980 1_655 S
H3127 C3066 0.959 . S
H3128 C3066 0.959 . S
H3129 C3066 0.960 . S
H3130 C3069 0.929 . S
H3131 C3073 0.929 . S
H3132 C3074 0.959 . S
H3133 C3074 0.961 . S
H3134 C3074 0.961 . S
H3135 C3075 0.960 . S
H3136 C3075 0.960 . S
H3137 C3075 0.961 . S
H3138 C3077 0.980 . S
H3139 C3076 0.961 . S
H3140 C3076 0.960 . S
H3141 C3076 0.959 . S
H3142 C3079 0.939 1_455 S
H3143 C3083 0.931 . S
H3144 C3084 0.959 . S
H3145 C3084 0.961 . S
H3146 C3084 0.959 . S
H3147 C3085 0.960 . S
H3148 C3085 0.960 . S
H3149 C3085 0.960 . S
H3150 C3121 1.016 . S
H3151 C3087 0.930 . S
H3152 C3091 0.930 . S
H3153 C3092 0.961 . S
H3154 C3092 0.960 . S
H3155 C3092 0.958 . S
H3156 C3093 0.961 . S
H3157 C3093 0.960 . S
H3158 C3093 0.960 . S
H3159 C3095 0.989 . S
H3160 C3094 0.961 . S
H3161 C3094 0.961 . S
H3162 C3094 0.959 . S
H3163 C3097 0.932 . S
H3164 C3101 0.929 . S
H3165 C3102 0.961 . S
H3166 C3102 0.959 . S
H3167 C3102 0.959 . S
H3168 C3103 0.960 . S
H3169 C3103 0.962 . S
H3170 C3103 0.961 . S
H3171 C3105 0.929 . S
H3172 C3108 0.930 . S
H3173 C3109 0.929 . S
H3174 C3112 0.930 . S
H3175 C3115 0.929 . S
H3176 C3116 0.930 . S
H3177 C3120 0.948 1_455 S
H3178 C3120 0.959 . S
H3179 C3120 0.958 . S
C3180 C3181 1.560 . S
C3180 H3241 0.959 . S
C3180 H3242 0.959 . S
C3180 H3243 0.960 . S
C3181 C3180 1.560 . S
C3181 O3236 1.426 . S
C3181 H3240 0.980 . S
C3182 C3183 1.407 . S
C3182 C3187 1.418 . S
C3182 O3236 1.334 . S
C3183 C3182 1.407 . S
C3183 C3184 1.360 . S
C3183 H3244 0.929 . S
C3184 C3183 1.360 . S
C3184 C3185 1.401 . S
C3184 C3188 1.527 . S
C3185 C3184 1.401 . S
C3185 C3186 1.405 . S
C3185 C3218 1.587 . S
C3186 C3185 1.405 . S
C3186 C3187 1.332 . S
C3186 C3189 1.496 . S
C3187 C3182 1.418 . S
C3187 C3186 1.332 . S
C3187 H3245 0.929 . S
C3188 C3184 1.527 . S
C3188 H3246 0.959 . S
C3188 H3247 0.961 . S
C3188 H3248 0.961 . S
C3189 C3186 1.496 . S
C3189 H3249 0.960 . S
C3189 H3250 0.960 . S
C3189 H3251 0.961 . S
C3190 C3191 1.517 . S
C3190 H3253 0.961 . S
C3190 H3254 0.960 . S
C3190 H3255 0.959 . S
C3191 C3190 1.517 . S
C3191 O3239 1.468 . S
C3191 H3252 0.980 . S
C3192 C3193 1.349 . S
C3192 C3197 1.367 . S
C3192 O3239 1.408 . S
C3193 C3192 1.349 . S
C3193 C3194 1.407 . S
C3193 H3256 0.930 . S
C3194 C3193 1.407 . S
C3194 C3195 1.449 . S
C3194 C3198 1.535 . S
C3195 C3194 1.449 . S
C3195 C3196 1.384 . S
C3195 C3220 1.553 . S
C3196 C3195 1.384 . S
C3196 C3197 1.364 . S
C3196 C3199 1.450 . S
C3197 C3192 1.367 . S
C3197 C3196 1.364 . S
C3197 H3257 0.931 . S
C3198 C3194 1.535 . S
C3198 H3258 0.959 . S
C3198 H3259 0.961 . S
C3198 H3260 0.959 . S
C3199 C3196 1.450 . S
C3199 H3261 0.960 . S
C3199 H3262 0.960 . S
C3199 H3263 0.960 . S
C3200 C3201 1.309 . S
C3200 C3205 1.304 . S
C3200 O3238 1.435 . S
C3201 C3200 1.309 . S
C3201 C3202 1.476 . S
C3201 H3265 0.930 . S
C3202 C3201 1.476 . S
C3202 C3203 1.400 . S
C3202 C3206 1.567 . S
C3203 C3202 1.400 . S
C3203 C3204 1.373 . S
C3203 C3225 1.432 . S
C3204 C3203 1.373 . S
C3204 C3205 1.339 . S
C3204 C3207 1.530 . S
C3205 C3200 1.304 . S
C3205 C3204 1.339 . S
C3205 H3266 0.930 . S
C3206 C3202 1.567 . S
C3206 H3267 0.961 . S
C3206 H3268 0.960 . S
C3206 H3269 0.958 . S
C3207 C3204 1.530 . S
C3207 H3270 0.961 . S
C3207 H3271 0.960 . S
C3207 H3272 0.960 . S
C3208 C3209 1.530 . S
C3208 H3274 0.961 . S
C3208 H3275 0.961 . S
C3208 H3276 0.959 . S
C3209 C3208 1.530 . S
C3209 O3237 1.412 . S
C3209 H3273 0.980 . S
C3210 C3211 1.288 . S
C3210 C3215 1.377 . S
C3210 O3237 1.393 . S
C3211 C3210 1.288 . S
C3211 C3212 1.369 . S
C3211 H3277 0.932 . S
C3212 C3211 1.369 . S
C3212 C3213 1.398 . S
C3212 C3216 1.527 . S
C3213 C3212 1.398 . S
C3213 C3214 1.380 . S
C3213 C3227 1.497 . S
C3214 C3213 1.380 . S
C3214 C3215 1.383 . S
C3214 C3217 1.603 . S
C3215 C3210 1.377 . S
C3215 C3214 1.383 . S
C3215 H3278 0.929 . S
C3216 C3212 1.527 . S
C3216 H3279 0.961 . S
C3216 H3280 0.959 . S
C3216 H3281 0.959 . S
C3217 C3214 1.603 . S
C3217 H3282 0.960 . S
C3217 H3283 0.962 . S
C3217 H3284 0.961 . S
C3218 C3185 1.587 . S
C3218 C3219 1.360 . S
C3218 C3231 1.412 . S
C3219 C3218 1.360 . S
C3219 C3220 1.365 . S
C3219 H3285 0.929 . S
C3220 C3195 1.553 . S
C3220 C3219 1.365 . S
C3220 C3221 1.404 . S
C3221 C3220 1.404 . S
C3221 C3222 1.395 . S
C3221 C3232 1.451 . S
C3222 C3221 1.395 . S
C3222 C3223 1.322 . S
C3222 H3286 0.930 . S
C3223 C3222 1.322 . S
C3223 C3224 1.459 . S
C3223 H3287 0.929 . S
C3224 C3223 1.459 . S
C3224 C3225 1.445 . S
C3224 C3233 1.395 . S
C3225 C3203 1.432 . S
C3225 C3224 1.445 . S
C3225 C3226 1.370 . S
C3226 C3225 1.370 . S
C3226 C3227 1.438 . S
C3226 H3288 0.930 . S
C3227 C3213 1.497 . S
C3227 C3226 1.438 . S
C3227 C3228 1.360 . S
C3228 C3227 1.360 . S
C3228 C3229 1.401 . S
C3228 C3233 1.446 . S
C3229 C3228 1.401 . S
C3229 C3230 1.347 . S
C3229 H3289 0.929 . S
C3230 C3229 1.347 . S
C3230 C3231 1.455 . S
C3230 H3290 0.930 . S
C3231 C3218 1.412 . S
C3231 C3230 1.455 . S
C3231 C3232 1.331 . S
C3232 C3221 1.451 . S
C3232 C3231 1.331 . S
C3232 C3233 1.497 . S
C3233 C3224 1.395 . S
C3233 C3228 1.446 . S
C3233 C3232 1.497 . S
C3234 C3235 1.582 . S
C3234 H3291 0.962 . S
C3234 H3292 0.959 . S
C3234 H3293 0.958 . S
C3235 C3234 1.582 . S
C3235 O3238 1.458 . S
C3235 H3264 0.980 . S
O3236 C3181 1.426 . S
O3236 C3182 1.334 . S
O3237 C3209 1.412 . S
O3237 C3210 1.393 . S
O3238 C3200 1.435 . S
O3238 C3235 1.458 . S
O3239 C3191 1.468 . S
O3239 C3192 1.408 . S
H3240 C3181 0.980 . S
H3241 C3180 0.959 . S
H3242 C3180 0.959 . S
H3243 C3180 0.960 . S
H3244 C3183 0.929 . S
H3245 C3187 0.929 . S
H3246 C3188 0.959 . S
H3247 C3188 0.961 . S
H3248 C3188 0.961 . S
H3249 C3189 0.960 . S
H3250 C3189 0.960 . S
H3251 C3189 0.961 . S
H3252 C3191 0.980 . S
H3253 C3190 0.961 . S
H3254 C3190 0.960 . S
H3255 C3190 0.959 . S
H3256 C3193 0.930 . S
H3257 C3197 0.931 . S
H3258 C3198 0.959 . S
H3259 C3198 0.961 . S
H3260 C3198 0.959 . S
H3261 C3199 0.960 . S
H3262 C3199 0.960 . S
H3263 C3199 0.960 . S
H3264 C3235 0.980 . S
H3265 C3201 0.930 . S
H3266 C3205 0.930 . S
H3267 C3206 0.961 . S
H3268 C3206 0.960 . S
H3269 C3206 0.958 . S
H3270 C3207 0.961 . S
H3271 C3207 0.960 . S
H3272 C3207 0.960 . S
H3273 C3209 0.980 . S
H3274 C3208 0.961 . S
H3275 C3208 0.961 . S
H3276 C3208 0.959 . S
H3277 C3211 0.932 . S
H3278 C3215 0.929 . S
H3279 C3216 0.961 . S
H3280 C3216 0.959 . S
H3281 C3216 0.959 . S
H3282 C3217 0.960 . S
H3283 C3217 0.962 . S
H3284 C3217 0.961 . S
H3285 C3219 0.929 . S
H3286 C3222 0.930 . S
H3287 C3223 0.929 . S
H3288 C3226 0.930 . S
H3289 C3229 0.929 . S
H3290 C3230 0.930 . S
H3291 C3234 0.962 . S
H3292 C3234 0.959 . S
H3293 C3234 0.958 . S
C3294 C3295 1.560 . S
C3294 H3355 0.959 . S
C3294 H3356 0.959 . S
C3294 H3357 0.960 . S
C3295 C3294 1.560 . S
C3295 O3350 1.426 . S
C3295 H3354 0.980 . S
C3296 C3297 1.407 . S
C3296 C3301 1.418 . S
C3296 O3350 1.334 . S
C3297 C3296 1.407 . S
C3297 C3298 1.360 . S
C3297 H3358 0.929 . S
C3298 C3297 1.360 . S
C3298 C3299 1.401 . S
C3298 C3302 1.527 . S
C3299 C3298 1.401 . S
C3299 C3300 1.405 . S
C3299 C3332 1.587 . S
C3300 C3299 1.405 . S
C3300 C3301 1.332 . S
C3300 C3303 1.496 . S
C3301 C3296 1.418 . S
C3301 C3300 1.332 . S
C3301 H3359 0.929 . S
C3302 C3298 1.527 . S
C3302 H3360 0.959 . S
C3302 H3361 0.961 . S
C3302 H3362 0.961 . S
C3303 C3300 1.496 . S
C3303 H3363 0.960 . S
C3303 H3364 0.960 . S
C3303 H3365 0.961 . S
C3304 C3305 1.517 . S
C3304 H3367 0.961 . S
C3304 H3368 0.960 . S
C3304 H3369 0.959 . S
C3305 C3304 1.517 . S
C3305 O3353 1.468 . S
C3305 H3366 0.980 . S
C3306 C3307 1.349 . S
C3306 C3311 1.367 . S
C3306 O3353 1.408 . S
C3307 C3306 1.349 . S
C3307 C3308 1.407 . S
C3307 H3370 0.930 . S
C3308 C3307 1.407 . S
C3308 C3309 1.449 . S
C3308 C3312 1.535 . S
C3309 C3308 1.449 . S
C3309 C3310 1.384 . S
C3309 C3334 1.553 . S
C3310 C3309 1.384 . S
C3310 C3311 1.364 . S
C3310 C3313 1.450 . S
C3311 C3306 1.367 . S
C3311 C3310 1.364 . S
C3311 H3371 0.931 . S
C3312 C3308 1.535 . S
C3312 H3372 0.959 . S
C3312 H3373 0.961 . S
C3312 H3374 0.959 . S
C3313 C3310 1.450 . S
C3313 H3375 0.960 . S
C3313 H3376 0.960 . S
C3313 H3377 0.960 . S
C3314 C3315 1.309 . S
C3314 C3319 1.304 . S
C3314 O3352 1.435 . S
C3315 C3314 1.309 . S
C3315 C3316 1.476 . S
C3315 H3379 0.930 . S
C3316 C3315 1.476 . S
C3316 C3317 1.400 . S
C3316 C3320 1.567 . S
C3317 C3316 1.400 . S
C3317 C3318 1.373 . S
C3317 C3339 1.432 . S
C3318 C3317 1.373 . S
C3318 C3319 1.339 . S
C3318 C3321 1.530 . S
C3319 C3314 1.304 . S
C3319 C3318 1.339 . S
C3319 H3380 0.930 . S
C3320 C3316 1.567 . S
C3320 H3381 0.961 . S
C3320 H3382 0.960 . S
C3320 H3383 0.958 . S
C3321 C3318 1.530 . S
C3321 H3384 0.961 . S
C3321 H3385 0.960 . S
C3321 H3386 0.960 . S
C3322 C3323 1.530 . S
C3322 H3388 0.961 . S
C3322 H3389 0.961 . S
C3322 H3390 0.959 . S
C3323 C3322 1.530 . S
C3323 O3351 1.412 . S
C3323 H3387 0.980 . S
C3324 C3325 1.288 . S
C3324 C3329 1.377 . S
C3324 O3351 1.393 . S
C3325 C3324 1.288 . S
C3325 C3326 1.369 . S
C3325 H3391 0.932 . S
C3326 C3325 1.369 . S
C3326 C3327 1.398 . S
C3326 C3330 1.527 . S
C3327 C3326 1.398 . S
C3327 C3328 1.380 . S
C3327 C3341 1.497 . S
C3328 C3327 1.380 . S
C3328 C3329 1.383 . S
C3328 C3331 1.603 . S
C3329 C3324 1.377 . S
C3329 C3328 1.383 . S
C3329 H3392 0.929 . S
C3330 C3326 1.527 . S
C3330 H3393 0.961 . S
C3330 H3394 0.959 . S
C3330 H3395 0.959 . S
C3331 C3328 1.603 . S
C3331 H3396 0.960 . S
C3331 H3397 0.962 . S
C3331 H3398 0.961 . S
C3332 C3299 1.587 . S
C3332 C3333 1.360 . S
C3332 C3345 1.412 . S
C3333 C3332 1.360 . S
C3333 C3334 1.365 . S
C3333 H3399 0.929 . S
C3334 C3309 1.553 . S
C3334 C3333 1.365 . S
C3334 C3335 1.404 . S
C3335 C3334 1.404 . S
C3335 C3336 1.395 . S
C3335 C3346 1.451 . S
C3336 C3335 1.395 . S
C3336 C3337 1.322 . S
C3336 H3400 0.930 . S
C3337 C3336 1.322 . S
C3337 C3338 1.459 . S
C3337 H3401 0.929 . S
C3338 C3337 1.459 . S
C3338 C3339 1.445 . S
C3338 C3347 1.395 . S
C3339 C3317 1.432 . S
C3339 C3338 1.445 . S
C3339 C3340 1.370 . S
C3340 C3339 1.370 . S
C3340 C3341 1.438 . S
C3340 H3402 0.930 . S
C3341 C3327 1.497 . S
C3341 C3340 1.438 . S
C3341 C3342 1.360 . S
C3342 C3341 1.360 . S
C3342 C3343 1.401 . S
C3342 C3347 1.446 . S
C3343 C3342 1.401 . S
C3343 C3344 1.347 . S
C3343 H3403 0.929 . S
C3344 C3343 1.347 . S
C3344 C3345 1.455 . S
C3344 H3404 0.930 . S
C3345 C3332 1.412 . S
C3345 C3344 1.455 . S
C3345 C3346 1.331 . S
C3346 C3335 1.451 . S
C3346 C3345 1.331 . S
C3346 C3347 1.497 . S
C3347 C3338 1.395 . S
C3347 C3342 1.446 . S
C3347 C3346 1.497 . S
C3348 C3349 1.582 . S
C3348 H3405 0.962 . S
C3348 H3406 0.959 . S
C3348 H3407 0.958 . S
C3349 C3348 1.582 . S
C3349 O3352 1.458 . S
C3349 H3378 0.980 . S
O3350 C3295 1.426 . S
O3350 C3296 1.334 . S
O3351 C3323 1.412 . S
O3351 C3324 1.393 . S
O3352 C3314 1.435 . S
O3352 C3349 1.458 . S
O3353 C3305 1.468 . S
O3353 C3306 1.408 . S
H3354 C3295 0.980 . S
H3355 C3294 0.959 . S
H3356 C3294 0.959 . S
H3357 C3294 0.960 . S
H3358 C3297 0.929 . S
H3359 C3301 0.929 . S
H3360 C3302 0.959 . S
H3361 C3302 0.961 . S
H3362 C3302 0.961 . S
H3363 C3303 0.960 . S
H3364 C3303 0.960 . S
H3365 C3303 0.961 . S
H3366 C3305 0.980 . S
H3367 C3304 0.961 . S
H3368 C3304 0.960 . S
H3369 C3304 0.959 . S
H3370 C3307 0.930 . S
H3371 C3311 0.931 . S
H3372 C3312 0.959 . S
H3373 C3312 0.961 . S
H3374 C3312 0.959 . S
H3375 C3313 0.960 . S
H3376 C3313 0.960 . S
H3377 C3313 0.960 . S
H3378 C3349 0.980 . S
H3379 C3315 0.930 . S
H3380 C3319 0.930 . S
H3381 C3320 0.961 . S
H3382 C3320 0.960 . S
H3383 C3320 0.958 . S
H3384 C3321 0.961 . S
H3385 C3321 0.960 . S
H3386 C3321 0.960 . S
H3387 C3323 0.980 . S
H3388 C3322 0.961 . S
H3389 C3322 0.961 . S
H3390 C3322 0.959 . S
H3391 C3325 0.932 . S
H3392 C3329 0.929 . S
H3393 C3330 0.961 . S
H3394 C3330 0.959 . S
H3395 C3330 0.959 . S
H3396 C3331 0.960 . S
H3397 C3331 0.962 . S
H3398 C3331 0.961 . S
H3399 C3333 0.929 . S
H3400 C3336 0.930 . S
H3401 C3337 0.929 . S
H3402 C3340 0.930 . S
H3403 C3343 0.929 . S
H3404 C3344 0.930 . S
H3405 C3348 0.962 . S
H3406 C3348 0.959 . S
H3407 C3348 0.958 . S
C3408 C3409 1.560 . S
C3408 H3469 0.959 . S
C3408 H3470 0.959 . S
C3408 H3471 0.960 . S
C3409 C3408 1.560 . S
C3409 O3464 1.426 . S
C3409 H3468 0.980 . S
C3410 C3411 1.407 . S
C3410 C3415 1.418 . S
C3410 O3464 1.334 . S
C3411 C3410 1.407 . S
C3411 C3412 1.360 . S
C3411 H3472 0.929 . S
C3412 C3411 1.360 . S
C3412 C3413 1.401 . S
C3412 C3416 1.527 . S
C3413 C3412 1.401 . S
C3413 C3414 1.405 . S
C3413 C3446 1.587 . S
C3414 C3413 1.405 . S
C3414 C3415 1.332 . S
C3414 C3417 1.496 . S
C3415 C3410 1.418 . S
C3415 C3414 1.332 . S
C3415 H3473 0.929 . S
C3416 C3412 1.527 . S
C3416 H3474 0.959 . S
C3416 H3475 0.961 . S
C3416 H3476 0.961 . S
C3417 C3414 1.496 . S
C3417 H3477 0.960 . S
C3417 H3478 0.960 . S
C3417 H3479 0.961 . S
C3418 C3419 1.517 . S
C3418 H3481 0.961 . S
C3418 H3482 0.960 . S
C3418 H3483 0.959 . S
C3419 C3418 1.517 . S
C3419 O3467 1.468 . S
C3419 H3480 0.980 . S
C3420 C3421 1.349 . S
C3420 C3425 1.367 . S
C3420 O3467 1.408 . S
C3421 C3420 1.349 . S
C3421 C3422 1.407 . S
C3421 H3484 0.930 . S
C3422 C3421 1.407 . S
C3422 C3423 1.449 . S
C3422 C3426 1.535 . S
C3423 C3422 1.449 . S
C3423 C3424 1.384 . S
C3423 C3448 1.553 . S
C3424 C3423 1.384 . S
C3424 C3425 1.364 . S
C3424 C3427 1.450 . S
C3425 C3420 1.367 . S
C3425 C3424 1.364 . S
C3425 H3485 0.931 . S
C3426 C3422 1.535 . S
C3426 H3486 0.959 . S
C3426 H3487 0.961 . S
C3426 H3488 0.959 . S
C3427 C3424 1.450 . S
C3427 H3489 0.960 . S
C3427 H3490 0.960 . S
C3427 H3491 0.960 . S
C3428 C3429 1.309 . S
C3428 C3433 1.304 . S
C3428 O3466 1.435 . S
C3429 C3428 1.309 . S
C3429 C3430 1.476 . S
C3429 H3493 0.930 . S
C3430 C3429 1.476 . S
C3430 C3431 1.400 . S
C3430 C3434 1.567 . S
C3431 C3430 1.400 . S
C3431 C3432 1.373 . S
C3431 C3453 1.432 . S
C3432 C3431 1.373 . S
C3432 C3433 1.339 . S
C3432 C3435 1.530 . S
C3433 C3428 1.304 . S
C3433 C3432 1.339 . S
C3433 H3494 0.930 . S
C3434 C3430 1.567 . S
C3434 H3495 0.961 . S
C3434 H3496 0.960 . S
C3434 H3497 0.958 . S
C3435 C3432 1.530 . S
C3435 H3498 0.961 . S
C3435 H3499 0.960 . S
C3435 H3500 0.960 . S
C3436 C3437 1.530 . S
C3436 H3502 0.961 . S
C3436 H3503 0.961 . S
C3436 H3504 0.959 . S
C3437 C3436 1.530 . S
C3437 O3465 1.412 . S
C3437 H3501 0.980 . S
C3438 C3439 1.288 . S
C3438 C3443 1.377 . S
C3438 O3465 1.393 . S
C3439 C3438 1.288 . S
C3439 C3440 1.369 . S
C3439 H3505 0.932 . S
C3440 C3439 1.369 . S
C3440 C3441 1.398 . S
C3440 C3444 1.527 . S
C3441 C3440 1.398 . S
C3441 C3442 1.380 . S
C3441 C3455 1.497 . S
C3442 C3441 1.380 . S
C3442 C3443 1.383 . S
C3442 C3445 1.603 . S
C3443 C3438 1.377 . S
C3443 C3442 1.383 . S
C3443 H3506 0.929 . S
C3444 C3440 1.527 . S
C3444 H3507 0.961 . S
C3444 H3508 0.959 . S
C3444 H3509 0.959 . S
C3445 C3442 1.603 . S
C3445 H3510 0.960 . S
C3445 H3511 0.962 . S
C3445 H3512 0.961 . S
C3446 C3413 1.587 . S
C3446 C3447 1.360 . S
C3446 C3459 1.412 . S
C3447 C3446 1.360 . S
C3447 C3448 1.365 . S
C3447 H3513 0.929 . S
C3448 C3423 1.553 . S
C3448 C3447 1.365 . S
C3448 C3449 1.404 . S
C3449 C3448 1.404 . S
C3449 C3450 1.395 . S
C3449 C3460 1.451 . S
C3450 C3449 1.395 . S
C3450 C3451 1.322 . S
C3450 H3514 0.930 . S
C3451 C3450 1.322 . S
C3451 C3452 1.459 . S
C3451 H3515 0.929 . S
C3452 C3451 1.459 . S
C3452 C3453 1.445 . S
C3452 C3461 1.395 . S
C3453 C3431 1.432 . S
C3453 C3452 1.445 . S
C3453 C3454 1.370 . S
C3454 C3453 1.370 . S
C3454 C3455 1.438 . S
C3454 H3516 0.930 . S
C3455 C3441 1.497 . S
C3455 C3454 1.438 . S
C3455 C3456 1.360 . S
C3456 C3455 1.360 . S
C3456 C3457 1.401 . S
C3456 C3461 1.446 . S
C3457 C3456 1.401 . S
C3457 C3458 1.347 . S
C3457 H3517 0.929 . S
C3458 C3457 1.347 . S
C3458 C3459 1.455 . S
C3458 H3518 0.930 . S
C3459 C3446 1.412 . S
C3459 C3458 1.455 . S
C3459 C3460 1.331 . S
C3460 C3449 1.451 . S
C3460 C3459 1.331 . S
C3460 C3461 1.497 . S
C3461 C3452 1.395 . S
C3461 C3456 1.446 . S
C3461 C3460 1.497 . S
C3462 C3463 1.582 . S
C3462 H3519 0.962 . S
C3462 H3520 0.959 . S
C3462 H3521 0.958 . S
C3463 C3462 1.582 . S
C3463 O3466 1.458 . S
C3463 H3492 0.980 . S
O3464 C3409 1.426 . S
O3464 C3410 1.334 . S
O3465 C3437 1.412 . S
O3465 C3438 1.393 . S
O3466 C3428 1.435 . S
O3466 C3463 1.458 . S
O3467 C3419 1.468 . S
O3467 C3420 1.408 . S
H3468 C3409 0.980 . S
H3469 C3408 0.959 . S
H3470 C3408 0.959 . S
H3471 C3408 0.960 . S
H3472 C3411 0.929 . S
H3473 C3415 0.929 . S
H3474 C3416 0.959 . S
H3475 C3416 0.961 . S
H3476 C3416 0.961 . S
H3477 C3417 0.960 . S
H3478 C3417 0.960 . S
H3479 C3417 0.961 . S
H3480 C3419 0.980 . S
H3481 C3418 0.961 . S
H3482 C3418 0.960 . S
H3483 C3418 0.959 . S
H3484 C3421 0.930 . S
H3485 C3425 0.931 . S
H3486 C3426 0.959 . S
H3487 C3426 0.961 . S
H3488 C3426 0.959 . S
H3489 C3427 0.960 . S
H3490 C3427 0.960 . S
H3491 C3427 0.960 . S
H3492 C3463 0.980 . S
H3493 C3429 0.930 . S
H3494 C3433 0.930 . S
H3495 C3434 0.961 . S
H3496 C3434 0.960 . S
H3497 C3434 0.958 . S
H3498 C3435 0.961 . S
H3499 C3435 0.960 . S
H3500 C3435 0.960 . S
H3501 C3437 0.980 . S
H3502 C3436 0.961 . S
H3503 C3436 0.961 . S
H3504 C3436 0.959 . S
H3505 C3439 0.932 . S
H3506 C3443 0.929 . S
H3507 C3444 0.961 . S
H3508 C3444 0.959 . S
H3509 C3444 0.959 . S
H3510 C3445 0.960 . S
H3511 C3445 0.962 . S
H3512 C3445 0.961 . S
H3513 C3447 0.929 . S
H3514 C3450 0.930 . S
H3515 C3451 0.929 . S
H3516 C3454 0.930 . S
H3517 C3457 0.929 . S
H3518 C3458 0.930 . S
H3519 C3462 0.962 . S
H3520 C3462 0.959 . S
H3521 C3462 0.958 . S
C3522 C3523 1.560 . S
C3522 H3583 0.959 . S
C3522 H3584 0.959 . S
C3522 H3585 0.960 . S
C3523 C3522 1.560 . S
C3523 O3578 1.426 . S
C3523 H3582 0.980 . S
C3524 C3525 1.407 . S
C3524 C3529 1.418 . S
C3524 O3578 1.334 . S
C3525 C3524 1.407 . S
C3525 C3526 1.360 . S
C3525 H3586 0.929 . S
C3526 C3525 1.360 . S
C3526 C3527 1.401 . S
C3526 C3530 1.527 . S
C3527 C3526 1.401 . S
C3527 C3528 1.405 . S
C3527 C3560 1.587 . S
C3528 C3527 1.405 . S
C3528 C3529 1.332 . S
C3528 C3531 1.496 . S
C3529 C3524 1.418 . S
C3529 C3528 1.332 . S
C3529 H3587 0.929 . S
C3530 C3526 1.527 . S
C3530 H3588 0.959 . S
C3530 H3589 0.961 . S
C3530 H3590 0.961 . S
C3531 C3528 1.496 . S
C3531 H3591 0.960 . S
C3531 H3592 0.960 . S
C3531 H3593 0.961 . S
C3532 C3533 1.517 . S
C3532 H3595 0.961 . S
C3532 H3596 0.960 . S
C3532 H3597 0.959 . S
C3533 C3532 1.517 . S
C3533 O3581 1.468 . S
C3533 H3594 0.980 . S
C3534 C3535 1.349 . S
C3534 C3539 1.367 . S
C3534 O3581 1.408 . S
C3535 C3534 1.349 . S
C3535 C3536 1.407 . S
C3535 H3598 0.930 . S
C3536 C3535 1.407 . S
C3536 C3537 1.449 . S
C3536 C3540 1.535 . S
C3537 C3536 1.449 . S
C3537 C3538 1.384 . S
C3537 C3562 1.553 . S
C3538 C3537 1.384 . S
C3538 C3539 1.364 . S
C3538 C3541 1.450 . S
C3539 C3534 1.367 . S
C3539 C3538 1.364 . S
C3539 H3599 0.931 . S
C3540 C3536 1.535 . S
C3540 H3600 0.959 . S
C3540 H3601 0.961 . S
C3540 H3602 0.959 . S
C3541 C3538 1.450 . S
C3541 H3603 0.960 . S
C3541 H3604 0.960 . S
C3541 H3605 0.960 . S
C3542 C3543 1.309 . S
C3542 C3547 1.304 . S
C3542 O3580 1.435 . S
C3543 C3542 1.309 . S
C3543 C3544 1.476 . S
C3543 H3607 0.930 . S
C3544 C3543 1.476 . S
C3544 C3545 1.400 . S
C3544 C3548 1.567 . S
C3545 C3544 1.400 . S
C3545 C3546 1.373 . S
C3545 C3567 1.432 . S
C3546 C3545 1.373 . S
C3546 C3547 1.339 . S
C3546 C3549 1.530 . S
C3547 C3542 1.304 . S
C3547 C3546 1.339 . S
C3547 H3608 0.930 . S
C3548 C3544 1.567 . S
C3548 H3609 0.961 . S
C3548 H3610 0.960 . S
C3548 H3611 0.958 . S
C3549 C3546 1.530 . S
C3549 H3612 0.961 . S
C3549 H3613 0.960 . S
C3549 H3614 0.960 . S
C3550 C3551 1.530 . S
C3550 H3616 0.961 . S
C3550 H3617 0.961 . S
C3550 H3618 0.959 . S
C3551 C3550 1.530 . S
C3551 O3579 1.412 . S
C3551 H3615 0.980 . S
C3552 C3553 1.288 . S
C3552 C3557 1.377 . S
C3552 O3579 1.393 . S
C3553 C3552 1.288 . S
C3553 C3554 1.369 . S
C3553 H3619 0.932 . S
C3554 C3553 1.369 . S
C3554 C3555 1.398 . S
C3554 C3558 1.527 . S
C3555 C3554 1.398 . S
C3555 C3556 1.380 . S
C3555 C3569 1.497 . S
C3556 C3555 1.380 . S
C3556 C3557 1.383 . S
C3556 C3559 1.603 . S
C3557 C3552 1.377 . S
C3557 C3556 1.383 . S
C3557 H3620 0.929 . S
C3558 C3554 1.527 . S
C3558 H3621 0.961 . S
C3558 H3622 0.959 . S
C3558 H3623 0.959 . S
C3559 C3556 1.603 . S
C3559 H3624 0.960 . S
C3559 H3625 0.962 . S
C3559 H3626 0.961 . S
C3560 C3527 1.587 . S
C3560 C3561 1.360 . S
C3560 C3573 1.412 . S
C3561 C3560 1.360 . S
C3561 C3562 1.365 . S
C3561 H3627 0.929 . S
C3562 C3537 1.553 . S
C3562 C3561 1.365 . S
C3562 C3563 1.404 . S
C3563 C3562 1.404 . S
C3563 C3564 1.395 . S
C3563 C3574 1.451 . S
C3564 C3563 1.395 . S
C3564 C3565 1.322 . S
C3564 H3628 0.930 . S
C3565 C3564 1.322 . S
C3565 C3566 1.459 . S
C3565 H3629 0.929 . S
C3566 C3565 1.459 . S
C3566 C3567 1.445 . S
C3566 C3575 1.395 . S
C3567 C3545 1.432 . S
C3567 C3566 1.445 . S
C3567 C3568 1.370 . S
C3568 C3567 1.370 . S
C3568 C3569 1.438 . S
C3568 H3630 0.930 . S
C3569 C3555 1.497 . S
C3569 C3568 1.438 . S
C3569 C3570 1.360 . S
C3570 C3569 1.360 . S
C3570 C3571 1.401 . S
C3570 C3575 1.446 . S
C3571 C3570 1.401 . S
C3571 C3572 1.347 . S
C3571 H3631 0.929 . S
C3572 C3571 1.347 . S
C3572 C3573 1.455 . S
C3572 H3632 0.930 . S
C3573 C3560 1.412 . S
C3573 C3572 1.455 . S
C3573 C3574 1.331 . S
C3574 C3563 1.451 . S
C3574 C3573 1.331 . S
C3574 C3575 1.497 . S
C3575 C3566 1.395 . S
C3575 C3570 1.446 . S
C3575 C3574 1.497 . S
C3576 C3577 1.582 . S
C3576 H3633 0.962 . S
C3576 H3634 0.959 . S
C3576 H3635 0.958 . S
C3577 C3576 1.582 . S
C3577 O3580 1.458 . S
C3577 H3606 0.980 . S
O3578 C3523 1.426 . S
O3578 C3524 1.334 . S
O3579 C3551 1.412 . S
O3579 C3552 1.393 . S
O3580 C3542 1.435 . S
O3580 C3577 1.458 . S
O3581 C3533 1.468 . S
O3581 C3534 1.408 . S
H3582 C3523 0.980 . S
H3583 C3522 0.959 . S
H3584 C3522 0.959 . S
H3585 C3522 0.960 . S
H3586 C3525 0.929 . S
H3587 C3529 0.929 . S
H3588 C3530 0.959 . S
H3589 C3530 0.961 . S
H3590 C3530 0.961 . S
H3591 C3531 0.960 . S
H3592 C3531 0.960 . S
H3593 C3531 0.961 . S
H3594 C3533 0.980 . S
H3595 C3532 0.961 . S
H3596 C3532 0.960 . S
H3597 C3532 0.959 . S
H3598 C3535 0.930 . S
H3599 C3539 0.931 . S
H3600 C3540 0.959 . S
H3601 C3540 0.961 . S
H3602 C3540 0.959 . S
H3603 C3541 0.960 . S
H3604 C3541 0.960 . S
H3605 C3541 0.960 . S
H3606 C3577 0.980 . S
H3607 C3543 0.930 . S
H3608 C3547 0.930 . S
H3609 C3548 0.961 . S
H3610 C3548 0.960 . S
H3611 C3548 0.958 . S
H3612 C3549 0.961 . S
H3613 C3549 0.960 . S
H3614 C3549 0.960 . S
H3615 C3551 0.980 . S
H3616 C3550 0.961 . S
H3617 C3550 0.961 . S
H3618 C3550 0.959 . S
H3619 C3553 0.932 . S
H3620 C3557 0.929 . S
H3621 C3558 0.961 . S
H3622 C3558 0.959 . S
H3623 C3558 0.959 . S
H3624 C3559 0.960 . S
H3625 C3559 0.962 . S
H3626 C3559 0.961 . S
H3627 C3561 0.929 . S
H3628 C3564 0.930 . S
H3629 C3565 0.929 . S
H3630 C3568 0.930 . S
H3631 C3571 0.929 . S
H3632 C3572 0.930 . S
H3633 C3576 0.962 . S
H3634 C3576 0.959 . S
H3635 C3576 0.958 . S
H3636 C3642 0.930 . S
H3637 C3645 0.930 . S
H3638 C3646 0.930 . S
H3639 C3647 0.930 . S
H3640 C3650 0.930 . S
H3641 C3651 0.930 . S
C3642 H3636 0.930 . S
C3642 C3643 1.355 . S
C3642 C3644 1.415 . S
C3643 C3642 1.355 . S
C3643 C3645 1.419 . S
C3644 C3642 1.415 . S
C3644 C3649 1.425 . S
C3644 C3651 1.409 . S
C3645 H3637 0.930 . S
C3645 C3643 1.419 . S
C3645 C3646 1.362 . S
C3646 H3638 0.930 . S
C3646 C3645 1.362 . S
C3646 C3649 1.409 . S
C3647 H3639 0.930 . S
C3647 C3648 1.355 . S
C3647 C3649 1.415 . S
C3648 C3647 1.355 . S
C3648 C3650 1.419 . S
C3649 C3644 1.425 . S
C3649 C3646 1.409 . S
C3649 C3647 1.415 . S
C3650 H3640 0.930 . S
C3650 C3648 1.419 . S
C3650 C3651 1.362 . S
C3651 H3641 0.930 . S
C3651 C3644 1.409 . S
C3651 C3650 1.362 . S
H3652 C3658 0.930 . S
H3653 C3661 0.930 . S
H3654 C3662 0.930 . S
H3655 C3663 0.930 . S
H3656 C3666 0.930 . S
H3657 C3667 0.930 . S
C3658 H3652 0.930 . S
C3658 C3659 1.355 . S
C3658 C3660 1.415 . S
C3659 C3658 1.355 . S
C3659 C3661 1.419 . S
C3660 C3658 1.415 . S
C3660 C3665 1.425 . S
C3660 C3667 1.409 . S
C3661 H3653 0.930 . S
C3661 C3659 1.419 . S
C3661 C3662 1.362 . S
C3662 H3654 0.930 . S
C3662 C3661 1.362 . S
C3662 C3665 1.409 . S
C3663 H3655 0.930 . S
C3663 C3664 1.355 . S
C3663 C3665 1.415 . S
C3664 C3663 1.355 . S
C3664 C3666 1.419 . S
C3665 C3660 1.425 . S
C3665 C3662 1.409 . S
C3665 C3663 1.415 . S
C3666 H3656 0.930 . S
C3666 C3664 1.419 . S
C3666 C3667 1.362 . S
C3667 H3657 0.930 . S
C3667 C3660 1.409 . S
C3667 C3666 1.362 . S
H3668 C3674 0.930 . S
H3669 C3677 0.930 . S
H3670 C3678 0.930 . S
H3671 C3679 0.930 . S
H3672 C3682 0.930 . S
H3673 C3683 0.930 . S
C3674 H3668 0.930 . S
C3674 C3675 1.355 . S
C3674 C3676 1.415 . S
C3675 C3674 1.355 . S
C3675 C3677 1.419 . S
C3676 C3674 1.415 . S
C3676 C3681 1.425 . S
C3676 C3683 1.409 . S
C3677 H3669 0.930 . S
C3677 C3675 1.419 . S
C3677 C3678 1.362 . S
C3678 H3670 0.930 . S
C3678 C3677 1.362 . S
C3678 C3681 1.409 . S
C3679 H3671 0.930 . S
C3679 C3680 1.355 . S
C3679 C3681 1.415 . S
C3680 C3679 1.355 . S
C3680 C3682 1.419 . S
C3681 C3676 1.425 . S
C3681 C3678 1.409 . S
C3681 C3679 1.415 . S
C3682 H3672 0.930 . S
C3682 C3680 1.419 . S
C3682 C3683 1.362 . S
C3683 H3673 0.930 . S
C3683 C3676 1.409 . S
C3683 C3682 1.362 . S
H3684 C3690 0.930 . S
H3685 C3693 0.923 1_545 S
H3686 C3694 0.986 . S
H3687 C3695 0.930 1_545 S
H3688 C3698 0.930 . S
H3689 C3699 0.930 . S
C3690 H3684 0.930 . S
C3690 C3691 1.355 . S
C3690 C3692 1.415 . S
C3691 C3690 1.355 . S
C3691 C3693 1.419 . S
C3692 C3690 1.415 . S
C3692 C3697 1.425 . S
C3692 C3699 1.409 . S
C3693 H3685 0.923 1_565 S
C3693 C3691 1.419 . S
C3693 C3694 1.363 1_565 S
C3694 H3686 0.986 . S
C3694 C3693 1.363 1_545 S
C3694 C3697 1.357 1_545 S
C3695 H3687 0.930 1_565 S
C3695 C3696 1.355 . S
C3695 C3697 1.415 . S
C3696 C3695 1.355 . S
C3696 C3698 1.419 . S
C3697 C3692 1.425 . S
C3697 C3694 1.357 1_565 S
C3697 C3695 1.415 . S
C3698 H3688 0.930 . S
C3698 C3696 1.419 . S
C3698 C3699 1.362 . S
C3699 H3689 0.930 . S
C3699 C3692 1.409 . S
C3699 C3698 1.362 . S
H3700 C3706 0.930 . S
H3701 C3709 0.930 . S
H3702 C3710 0.930 1_655 S
H3703 C3711 0.930 1_655 S
H3704 C3714 0.930 . S
H3705 C3715 0.930 . S
C3706 H3700 0.930 . S
C3706 C3707 1.355 . S
C3706 C3708 1.415 . S
C3707 C3706 1.355 . S
C3707 C3709 1.419 . S
C3708 C3706 1.415 . S
C3708 C3713 1.425 . S
C3708 C3715 1.409 . S
C3709 H3701 0.930 . S
C3709 C3707 1.419 . S
C3709 C3710 1.362 . S
C3710 H3702 0.930 1_455 S
C3710 C3709 1.362 . S
C3710 C3713 1.409 . S
C3711 H3703 0.930 1_455 S
C3711 C3712 1.355 . S
C3711 C3713 1.415 . S
C3712 C3711 1.355 . S
C3712 C3714 1.419 . S
C3713 C3708 1.425 . S
C3713 C3710 1.409 . S
C3713 C3711 1.415 . S
C3714 H3704 0.930 . S
C3714 C3712 1.419 . S
C3714 C3715 1.362 . S
C3715 H3705 0.930 . S
C3715 C3708 1.409 . S
C3715 C3714 1.362 . S
H3716 C3722 0.930 . S
H3717 C3725 0.930 . S
H3718 C3726 0.930 . S
H3719 C3727 0.930 . S
H3720 C3730 0.930 . S
H3721 C3731 0.930 . S
C3722 H3716 0.930 . S
C3722 C3723 1.355 . S
C3722 C3724 1.415 . S
C3723 C3722 1.355 . S
C3723 C3725 1.419 . S
C3724 C3722 1.415 . S
C3724 C3729 1.425 . S
C3724 C3731 1.409 . S
C3725 H3717 0.930 . S
C3725 C3723 1.419 . S
C3725 C3726 1.362 . S
C3726 H3718 0.930 . S
C3726 C3725 1.362 . S
C3726 C3729 1.409 . S
C3727 H3719 0.930 . S
C3727 C3728 1.355 . S
C3727 C3729 1.415 . S
C3728 C3727 1.355 . S
C3728 C3730 1.419 . S
C3729 C3724 1.425 . S
C3729 C3726 1.409 . S
C3729 C3727 1.415 . S
C3730 H3720 0.930 . S
C3730 C3728 1.419 . S
C3730 C3731 1.362 . S
C3731 H3721 0.930 . S
C3731 C3724 1.409 . S
C3731 C3730 1.362 . S
H3732 C3738 0.930 . S
H3733 C3741 0.930 . S
H3734 C3742 0.930 . S
H3735 C3743 0.930 . S
H3736 C3746 0.930 . S
H3737 C3747 0.930 . S
C3738 H3732 0.930 . S
C3738 C3739 1.355 . S
C3738 C3740 1.415 . S
C3739 C3738 1.355 . S
C3739 C3741 1.419 . S
C3740 C3738 1.415 . S
C3740 C3745 1.425 . S
C3740 C3747 1.409 1_455 S
C3741 H3733 0.930 . S
C3741 C3739 1.419 . S
C3741 C3742 1.362 . S
C3742 H3734 0.930 . S
C3742 C3741 1.362 . S
C3742 C3745 1.409 . S
C3743 H3735 0.930 . S
C3743 C3744 1.355 . S
C3743 C3745 1.415 . S
C3744 C3743 1.355 . S
C3744 C3746 1.419 1_455 S
C3745 C3740 1.425 . S
C3745 C3742 1.409 . S
C3745 C3743 1.415 . S
C3746 H3736 0.930 . S
C3746 C3744 1.419 1_655 S
C3746 C3747 1.362 . S
C3747 H3737 0.930 . S
C3747 C3740 1.409 1_655 S
C3747 C3746 1.362 . S
H3748 C3754 0.930 . S
H3749 C3757 0.930 . S
H3750 C3758 0.930 . S
H3751 C3759 0.930 . S
H3752 C3762 0.930 . S
H3753 C3763 0.930 . S
C3754 H3748 0.930 . S
C3754 C3755 1.355 . S
C3754 C3756 1.415 . S
C3755 C3754 1.355 . S
C3755 C3757 1.419 . S
C3756 C3754 1.415 . S
C3756 C3761 1.425 . S
C3756 C3763 1.409 . S
C3757 H3749 0.930 . S
C3757 C3755 1.419 . S
C3757 C3758 1.362 . S
C3758 H3750 0.930 . S
C3758 C3757 1.362 . S
C3758 C3761 1.409 . S
C3759 H3751 0.930 . S
C3759 C3760 1.355 . S
C3759 C3761 1.415 . S
C3760 C3759 1.355 . S
C3760 C3762 1.419 . S
C3761 C3756 1.425 . S
C3761 C3758 1.409 . S
C3761 C3759 1.415 . S
C3762 H3752 0.930 . S
C3762 C3760 1.419 . S
C3762 C3763 1.362 . S
C3763 H3753 0.930 . S
C3763 C3756 1.409 . S
C3763 C3762 1.362 . S
H3764 C3770 0.930 . S
H3765 C3773 0.930 . S
H3766 C3774 0.930 . S
H3767 C3775 0.930 . S
H3768 C3778 0.969 . S
H3769 C3779 0.939 1_545 S
C3770 H3764 0.930 . S
C3770 C3771 1.355 . S
C3770 C3772 1.415 . S
C3771 C3770 1.355 . S
C3771 C3773 1.419 . S
C3772 C3770 1.415 . S
C3772 C3777 1.425 . S
C3772 C3779 1.409 . S
C3773 H3765 0.930 . S
C3773 C3771 1.419 . S
C3773 C3774 1.362 . S
C3774 H3766 0.930 . S
C3774 C3773 1.362 . S
C3774 C3777 1.409 . S
C3775 H3767 0.930 . S
C3775 C3776 1.355 . S
C3775 C3777 1.415 . S
C3776 C3775 1.355 . S
C3776 C3778 1.432 1_565 S
C3777 C3772 1.425 . S
C3777 C3774 1.409 . S
C3777 C3775 1.415 . S
C3778 H3768 0.969 . S
C3778 C3776 1.432 1_545 S
C3778 C3779 1.315 1_545 S
C3779 H3769 0.939 1_565 S
C3779 C3772 1.409 . S
C3779 C3778 1.315 1_565 S
H3780 C3786 0.930 . S
H3781 C3789 0.930 . S
H3782 C3790 0.930 . S
H3783 C3791 0.930 . S
H3784 C3794 0.930 . S
H3785 C3795 0.930 . S
C3786 H3780 0.930 . S
C3786 C3787 1.355 . S
C3786 C3788 1.415 . S
C3787 C3786 1.355 . S
C3787 C3789 1.419 . S
C3788 C3786 1.415 . S
C3788 C3793 1.425 . S
C3788 C3795 1.409 1_545 S
C3789 H3781 0.930 . S
C3789 C3787 1.419 . S
C3789 C3790 1.362 . S
C3790 H3782 0.930 . S
C3790 C3789 1.362 . S
C3790 C3793 1.409 . S
C3791 H3783 0.930 . S
C3791 C3792 1.355 . S
C3791 C3793 1.415 . S
C3792 C3791 1.355 . S
C3792 C3794 1.419 1_545 S
C3793 C3788 1.425 . S
C3793 C3790 1.409 . S
C3793 C3791 1.415 . S
C3794 H3784 0.930 . S
C3794 C3792 1.419 1_565 S
C3794 C3795 1.362 . S
C3795 H3785 0.930 . S
C3795 C3788 1.409 1_565 S
C3795 C3794 1.362 . S
H3796 C3802 0.930 . S
H3797 C3805 0.930 . S
H3798 C3806 0.930 . S
H3799 C3807 0.930 1_455 S
H3800 C3810 0.930 . S
H3801 C3811 0.930 . S
C3802 H3796 0.930 . S
C3802 C3803 1.355 . S
C3802 C3804 1.415 . S
C3803 C3802 1.355 . S
C3803 C3805 1.419 . S
C3804 C3802 1.415 . S
C3804 C3809 1.425 . S
C3804 C3811 1.409 . S
C3805 H3797 0.930 . S
C3805 C3803 1.419 . S
C3805 C3806 1.362 . S
C3806 H3798 0.930 . S
C3806 C3805 1.362 . S
C3806 C3809 1.409 . S
C3807 H3799 0.930 1_655 S
C3807 C3808 1.355 . S
C3807 C3809 1.415 . S
C3808 C3807 1.355 . S
C3808 C3810 1.419 . S
C3809 C3804 1.425 . S
C3809 C3806 1.409 . S
C3809 C3807 1.415 . S
C3810 H3800 0.930 . S
C3810 C3808 1.419 . S
C3810 C3811 1.362 . S
C3811 H3801 0.930 . S
C3811 C3804 1.409 . S
C3811 C3810 1.362 . S
H3812 C3818 0.930 . S
H3813 C3821 0.930 . S
H3814 C3822 0.930 . S
H3815 C3823 0.930 . S
H3816 C3826 0.930 . S
H3817 C3827 0.930 . S
C3818 H3812 0.930 . S
C3818 C3819 1.355 . S
C3818 C3820 1.415 . S
C3819 C3818 1.355 . S
C3819 C3821 1.419 . S
C3820 C3818 1.415 . S
C3820 C3825 1.425 . S
C3820 C3827 1.409 . S
C3821 H3813 0.930 . S
C3821 C3819 1.419 . S
C3821 C3822 1.362 . S
C3822 H3814 0.930 . S
C3822 C3821 1.362 . S
C3822 C3825 1.409 . S
C3823 H3815 0.930 . S
C3823 C3824 1.355 . S
C3823 C3825 1.415 . S
C3824 C3823 1.355 . S
C3824 C3826 1.419 . S
C3825 C3820 1.425 . S
C3825 C3822 1.409 . S
C3825 C3823 1.415 . S
C3826 H3816 0.930 . S
C3826 C3824 1.419 . S
C3826 C3827 1.362 . S
C3827 H3817 0.930 . S
C3827 C3820 1.409 . S
C3827 C3826 1.362 . S
H3828 C3834 0.930 . S
H3829 C3837 0.930 . S
H3830 C3838 0.930 . S
H3831 C3839 0.930 . S
H3832 C3842 0.930 . S
H3833 C3843 0.930 . S
C3834 H3828 0.930 . S
C3834 C3835 1.355 . S
C3834 C3836 1.415 . S
C3835 C3834 1.355 . S
C3835 C3837 1.419 . S
C3836 C3834 1.415 . S
C3836 C3841 1.425 . S
C3836 C3843 1.409 . S
C3837 H3829 0.930 . S
C3837 C3835 1.419 . S
C3837 C3838 1.362 . S
C3838 H3830 0.930 . S
C3838 C3837 1.362 . S
C3838 C3841 1.409 . S
C3839 H3831 0.930 . S
C3839 C3840 1.355 . S
C3839 C3841 1.415 . S
C3840 C3839 1.355 . S
C3840 C3842 1.419 . S
C3841 C3836 1.425 . S
C3841 C3838 1.409 . S
C3841 C3839 1.415 . S
C3842 H3832 0.930 . S
C3842 C3840 1.419 . S
C3842 C3843 1.362 . S
C3843 H3833 0.930 . S
C3843 C3836 1.409 . S
C3843 C3842 1.362 . S
H3844 C3850 0.930 . S
H3845 C3853 0.930 . S
H3846 C3854 0.930 . S
H3847 C3855 0.930 . S
H3848 C3858 0.930 . S
H3849 C3859 0.930 . S
C3850 H3844 0.930 . S
C3850 C3851 1.355 . S
C3850 C3852 1.415 . S
C3851 C3850 1.355 . S
C3851 C3853 1.419 . S
C3852 C3850 1.415 . S
C3852 C3857 1.425 . S
C3852 C3859 1.409 . S
C3853 H3845 0.930 . S
C3853 C3851 1.419 . S
C3853 C3854 1.362 . S
C3854 H3846 0.930 . S
C3854 C3853 1.362 . S
C3854 C3857 1.409 . S
C3855 H3847 0.930 . S
C3855 C3856 1.355 . S
C3855 C3857 1.415 . S
C3856 C3855 1.355 . S
C3856 C3858 1.419 . S
C3857 C3852 1.425 . S
C3857 C3854 1.409 . S
C3857 C3855 1.415 . S
C3858 H3848 0.930 . S
C3858 C3856 1.419 . S
C3858 C3859 1.362 . S
C3859 H3849 0.930 . S
C3859 C3852 1.409 . S
C3859 C3858 1.362 . S
H3860 C3866 0.930 . S
H3861 C3869 0.930 . S
H3862 C3870 0.930 . S
H3863 C3871 0.930 . S
H3864 C3874 0.930 . S
H3865 C3875 0.930 . S
C3866 H3860 0.930 . S
C3866 C3867 1.355 . S
C3866 C3868 1.415 . S
C3867 C3866 1.355 . S
C3867 C3869 1.419 . S
C3868 C3866 1.415 . S
C3868 C3873 1.425 . S
C3868 C3875 1.409 . S
C3869 H3861 0.930 . S
C3869 C3867 1.419 . S
C3869 C3870 1.362 . S
C3870 H3862 0.930 . S
C3870 C3869 1.362 . S
C3870 C3873 1.409 . S
C3871 H3863 0.930 . S
C3871 C3872 1.355 . S
C3871 C3873 1.415 . S
C3872 C3871 1.355 . S
C3872 C3874 1.419 . S
C3873 C3868 1.425 . S
C3873 C3870 1.409 . S
C3873 C3871 1.415 . S
C3874 H3864 0.930 . S
C3874 C3872 1.419 . S
C3874 C3875 1.362 . S
C3875 H3865 0.930 . S
C3875 C3868 1.409 . S
C3875 C3874 1.362 . S
H3876 C3882 0.930 . S
H3877 C3885 0.930 . S
H3878 C3886 0.930 . S
H3879 C3887 0.930 . S
H3880 C3890 0.930 . S
H3881 C3891 0.930 . S
C3882 H3876 0.930 . S
C3882 C3883 1.355 . S
C3882 C3884 1.415 . S
C3883 C3882 1.355 . S
C3883 C3885 1.419 . S
C3884 C3882 1.415 . S
C3884 C3889 1.425 . S
C3884 C3891 1.409 . S
C3885 H3877 0.930 . S
C3885 C3883 1.419 . S
C3885 C3886 1.362 . S
C3886 H3878 0.930 . S
C3886 C3885 1.362 . S
C3886 C3889 1.409 . S
C3887 H3879 0.930 . S
C3887 C3888 1.355 . S
C3887 C3889 1.415 . S
C3888 C3887 1.355 . S
C3888 C3890 1.419 . S
C3889 C3884 1.425 . S
C3889 C3886 1.409 . S
C3889 C3887 1.415 . S
C3890 H3880 0.930 . S
C3890 C3888 1.419 . S
C3890 C3891 1.362 . S
C3891 H3881 0.930 . S
C3891 C3884 1.409 . S
C3891 C3890 1.362 . S
H3892 C3898 0.930 . S
H3893 C3901 0.930 . S
H3894 C3902 0.930 . S
H3895 C3903 0.930 . S
H3896 C3906 0.930 . S
H3897 C3907 0.930 . S
C3898 H3892 0.930 . S
C3898 C3899 1.355 . S
C3898 C3900 1.415 . S
C3899 C3898 1.355 . S
C3899 C3901 1.419 . S
C3900 C3898 1.415 . S
C3900 C3905 1.425 . S
C3900 C3907 1.409 . S
C3901 H3893 0.930 . S
C3901 C3899 1.419 . S
C3901 C3902 1.362 . S
C3902 H3894 0.930 . S
C3902 C3901 1.362 . S
C3902 C3905 1.409 . S
C3903 H3895 0.930 . S
C3903 C3904 1.355 . S
C3903 C3905 1.415 . S
C3904 C3903 1.355 . S
C3904 C3906 1.419 . S
C3905 C3900 1.425 . S
C3905 C3902 1.409 . S
C3905 C3903 1.415 . S
C3906 H3896 0.930 . S
C3906 C3904 1.419 . S
C3906 C3907 1.362 . S
C3907 H3897 0.930 . S
C3907 C3900 1.409 . S
C3907 C3906 1.362 . S
H3908 C3914 0.930 . S
H3909 C3917 0.930 . S
H3910 C3918 0.930 . S
H3911 C3919 0.930 . S
H3912 C3922 0.930 . S
H3913 C3923 0.930 . S
C3914 H3908 0.930 . S
C3914 C3915 1.355 . S
C3914 C3916 1.415 . S
C3915 C3914 1.355 . S
C3915 C3917 1.419 . S
C3916 C3914 1.415 . S
C3916 C3921 1.425 . S
C3916 C3923 1.409 . S
C3917 H3909 0.930 . S
C3917 C3915 1.419 . S
C3917 C3918 1.362 . S
C3918 H3910 0.930 . S
C3918 C3917 1.362 . S
C3918 C3921 1.409 . S
C3919 H3911 0.930 . S
C3919 C3920 1.355 . S
C3919 C3921 1.415 . S
C3920 C3919 1.355 . S
C3920 C3922 1.419 . S
C3921 C3916 1.425 . S
C3921 C3918 1.409 . S
C3921 C3919 1.415 . S
C3922 H3912 0.930 . S
C3922 C3920 1.419 . S
C3922 C3923 1.362 . S
C3923 H3913 0.930 . S
C3923 C3916 1.409 . S
C3923 C3922 1.362 . S
H3924 C3930 0.930 . S
H3925 C3933 0.930 . S
H3926 C3934 0.930 . S
H3927 C3935 0.930 . S
H3928 C3938 0.930 . S
H3929 C3939 0.930 . S
C3930 H3924 0.930 . S
C3930 C3931 1.355 . S
C3930 C3932 1.415 . S
C3931 C3930 1.355 . S
C3931 C3933 1.419 . S
C3932 C3930 1.415 . S
C3932 C3937 1.425 . S
C3932 C3939 1.409 . S
C3933 H3925 0.930 . S
C3933 C3931 1.419 . S
C3933 C3934 1.362 . S
C3934 H3926 0.930 . S
C3934 C3933 1.362 . S
C3934 C3937 1.409 . S
C3935 H3927 0.930 . S
C3935 C3936 1.355 . S
C3935 C3937 1.415 . S
C3936 C3935 1.355 . S
C3936 C3938 1.419 . S
C3937 C3932 1.425 . S
C3937 C3934 1.409 . S
C3937 C3935 1.415 . S
C3938 H3928 0.930 . S
C3938 C3936 1.419 . S
C3938 C3939 1.362 . S
C3939 H3929 0.930 . S
C3939 C3932 1.409 . S
C3939 C3938 1.362 . S
H3940 C3946 0.930 . S
H3941 C3949 0.930 . S
H3942 C3950 0.930 . S
H3943 C3951 0.930 . S
H3944 C3954 0.930 . S
H3945 C3955 0.930 . S
C3946 H3940 0.930 . S
C3946 C3947 1.355 . S
C3946 C3948 1.415 . S
C3947 C3946 1.355 . S
C3947 C3949 1.419 . S
C3948 C3946 1.415 . S
C3948 C3953 1.425 . S
C3948 C3955 1.409 . S
C3949 H3941 0.930 . S
C3949 C3947 1.419 . S
C3949 C3950 1.362 . S
C3950 H3942 0.930 . S
C3950 C3949 1.362 . S
C3950 C3953 1.409 . S
C3951 H3943 0.930 . S
C3951 C3952 1.355 . S
C3951 C3953 1.415 . S
C3952 C3951 1.355 . S
C3952 C3954 1.419 . S
C3953 C3948 1.425 . S
C3953 C3950 1.409 . S
C3953 C3951 1.415 . S
C3954 H3944 0.930 . S
C3954 C3952 1.419 . S
C3954 C3955 1.362 . S
C3955 H3945 0.930 . S
C3955 C3948 1.409 . S
C3955 C3954 1.362 . S
H3956 C3962 0.930 . S
H3957 C3965 0.930 . S
H3958 C3966 0.930 . S
H3959 C3967 0.930 . S
H3960 C3970 0.930 . S
H3961 C3971 0.930 . S
C3962 H3956 0.930 . S
C3962 C3963 1.355 . S
C3962 C3964 1.415 . S
C3963 C3962 1.355 . S
C3963 C3965 1.419 . S
C3964 C3962 1.415 . S
C3964 C3969 1.425 . S
C3964 C3971 1.409 . S
C3965 H3957 0.930 . S
C3965 C3963 1.419 . S
C3965 C3966 1.362 . S
C3966 H3958 0.930 . S
C3966 C3965 1.362 . S
C3966 C3969 1.409 . S
C3967 H3959 0.930 . S
C3967 C3968 1.355 . S
C3967 C3969 1.415 . S
C3968 C3967 1.355 . S
C3968 C3970 1.419 . S
C3969 C3964 1.425 . S
C3969 C3966 1.409 . S
C3969 C3967 1.415 . S
C3970 H3960 0.930 . S
C3970 C3968 1.419 . S
C3970 C3971 1.362 . S
C3971 H3961 0.930 . S
C3971 C3964 1.409 . S
C3971 C3970 1.362 . S
H3972 C3978 0.930 . S
H3973 C3981 0.930 . S
H3974 C3982 0.930 . S
H3975 C3983 0.930 . S
H3976 C3986 0.930 . S
H3977 C3987 0.930 . S
C3978 H3972 0.930 . S
C3978 C3979 1.355 . S
C3978 C3980 1.415 . S
C3979 C3978 1.355 . S
C3979 C3981 1.419 . S
C3980 C3978 1.415 . S
C3980 C3985 1.425 . S
C3980 C3987 1.409 . S
C3981 H3973 0.930 . S
C3981 C3979 1.419 . S
C3981 C3982 1.362 . S
C3982 H3974 0.930 . S
C3982 C3981 1.362 . S
C3982 C3985 1.409 . S
C3983 H3975 0.930 . S
C3983 C3984 1.355 . S
C3983 C3985 1.415 . S
C3984 C3983 1.355 . S
C3984 C3986 1.419 . S
C3985 C3980 1.425 . S
C3985 C3982 1.409 . S
C3985 C3983 1.415 . S
C3986 H3976 0.930 . S
C3986 C3984 1.419 . S
C3986 C3987 1.362 . S
C3987 H3977 0.930 . S
C3987 C3980 1.409 . S
C3987 C3986 1.362 . S
H3988 C3994 0.930 . S
H3989 C3997 0.930 . S
H3990 C3998 0.930 . S
H3991 C3999 0.930 . S
H3992 C4002 0.930 . S
H3993 C4003 0.930 . S
C3994 H3988 0.930 . S
C3994 C3995 1.355 . S
C3994 C3996 1.415 . S
C3995 C3994 1.355 . S
C3995 C3997 1.419 . S
C3996 C3994 1.415 . S
C3996 C4001 1.425 . S
C3996 C4003 1.409 . S
C3997 H3989 0.930 . S
C3997 C3995 1.419 . S
C3997 C3998 1.362 . S
C3998 H3990 0.930 . S
C3998 C3997 1.362 . S
C3998 C4001 1.409 . S
C3999 H3991 0.930 . S
C3999 C4000 1.355 . S
C3999 C4001 1.415 . S
C4000 C3999 1.355 . S
C4000 C4002 1.419 . S
C4001 C3996 1.425 . S
C4001 C3998 1.409 . S
C4001 C3999 1.415 . S
C4002 H3992 0.930 . S
C4002 C4000 1.419 . S
C4002 C4003 1.362 . S
C4003 H3993 0.930 . S
C4003 C3996 1.409 . S
C4003 C4002 1.362 . S
H4004 C4010 0.930 . S
H4005 C4013 0.930 . S
H4006 C4014 0.930 . S
H4007 C4015 0.930 . S
H4008 C4018 0.930 . S
H4009 C4019 0.930 . S
C4010 H4004 0.930 . S
C4010 C4011 1.355 . S
C4010 C4012 1.415 . S
C4011 C4010 1.355 . S
C4011 C4013 1.419 . S
C4012 C4010 1.415 . S
C4012 C4017 1.425 . S
C4012 C4019 1.409 . S
C4013 H4005 0.930 . S
C4013 C4011 1.419 . S
C4013 C4014 1.362 . S
C4014 H4006 0.930 . S
C4014 C4013 1.362 . S
C4014 C4017 1.409 . S
C4015 H4007 0.930 . S
C4015 C4016 1.355 . S
C4015 C4017 1.415 . S
C4016 C4015 1.355 . S
C4016 C4018 1.419 . S
C4017 C4012 1.425 . S
C4017 C4014 1.409 . S
C4017 C4015 1.415 . S
C4018 H4008 0.930 . S
C4018 C4016 1.419 . S
C4018 C4019 1.362 . S
C4019 H4009 0.930 . S
C4019 C4012 1.409 . S
C4019 C4018 1.362 . S
H4020 C4026 0.930 . S
H4021 C4029 0.930 . S
H4022 C4030 0.930 . S
H4023 C4031 0.930 . S
H4024 C4034 0.930 . S
H4025 C4035 0.930 . S
C4026 H4020 0.930 . S
C4026 C4027 1.355 . S
C4026 C4028 1.415 . S
C4027 C4026 1.355 . S
C4027 C4029 1.419 . S
C4028 C4026 1.415 . S
C4028 C4033 1.425 . S
C4028 C4035 1.409 . S
C4029 H4021 0.930 . S
C4029 C4027 1.419 . S
C4029 C4030 1.362 . S
C4030 H4022 0.930 . S
C4030 C4029 1.362 . S
C4030 C4033 1.409 . S
C4031 H4023 0.930 . S
C4031 C4032 1.355 . S
C4031 C4033 1.415 . S
C4032 C4031 1.355 . S
C4032 C4034 1.419 . S
C4033 C4028 1.425 . S
C4033 C4030 1.409 . S
C4033 C4031 1.415 . S
C4034 H4024 0.930 . S
C4034 C4032 1.419 . S
C4034 C4035 1.362 . S
C4035 H4025 0.930 . S
C4035 C4028 1.409 . S
C4035 C4034 1.362 . S
H4036 C4042 0.930 . S
H4037 C4045 0.930 . S
H4038 C4046 0.930 . S
H4039 C4047 0.930 . S
H4040 C4050 0.930 . S
H4041 C4051 0.930 . S
C4042 H4036 0.930 . S
C4042 C4043 1.355 . S
C4042 C4044 1.415 . S
C4043 C4042 1.355 . S
C4043 C4045 1.419 . S
C4044 C4042 1.415 . S
C4044 C4049 1.425 . S
C4044 C4051 1.409 . S
C4045 H4037 0.930 . S
C4045 C4043 1.419 . S
C4045 C4046 1.362 . S
C4046 H4038 0.930 . S
C4046 C4045 1.362 . S
C4046 C4049 1.409 . S
C4047 H4039 0.930 . S
C4047 C4048 1.355 . S
C4047 C4049 1.415 . S
C4048 C4047 1.355 . S
C4048 C4050 1.419 . S
C4049 C4044 1.425 . S
C4049 C4046 1.409 . S
C4049 C4047 1.415 . S
C4050 H4040 0.930 . S
C4050 C4048 1.419 . S
C4050 C4051 1.362 . S
C4051 H4041 0.930 . S
C4051 C4044 1.409 . S
C4051 C4050 1.362 . S
H4052 C4058 0.930 . S
H4053 C4061 0.930 . S
H4054 C4062 0.930 . S
H4055 C4063 0.930 . S
H4056 C4066 0.930 . S
H4057 C4067 0.930 . S
C4058 H4052 0.930 . S
C4058 C4059 1.355 . S
C4058 C4060 1.415 . S
C4059 C4058 1.355 . S
C4059 C4061 1.419 . S
C4060 C4058 1.415 . S
C4060 C4065 1.425 . S
C4060 C4067 1.409 . S
C4061 H4053 0.930 . S
C4061 C4059 1.419 . S
C4061 C4062 1.362 . S
C4062 H4054 0.930 . S
C4062 C4061 1.362 . S
C4062 C4065 1.409 . S
C4063 H4055 0.930 . S
C4063 C4064 1.355 . S
C4063 C4065 1.415 . S
C4064 C4063 1.355 . S
C4064 C4066 1.419 . S
C4065 C4060 1.425 . S
C4065 C4062 1.409 . S
C4065 C4063 1.415 . S
C4066 H4056 0.930 . S
C4066 C4064 1.419 . S
C4066 C4067 1.362 . S
C4067 H4057 0.930 . S
C4067 C4060 1.409 . S
C4067 C4066 1.362 . S
H4068 C4074 0.930 . S
H4069 C4077 0.930 . S
H4070 C4078 0.930 . S
H4071 C4079 0.930 . S
H4072 C4082 0.930 . S
H4073 C4083 0.930 . S
C4074 H4068 0.930 . S
C4074 C4075 1.355 . S
C4074 C4076 1.415 . S
C4075 C4074 1.355 . S
C4075 C4077 1.419 . S
C4076 C4074 1.415 . S
C4076 C4081 1.425 . S
C4076 C4083 1.409 . S
C4077 H4069 0.930 . S
C4077 C4075 1.419 . S
C4077 C4078 1.362 . S
C4078 H4070 0.930 . S
C4078 C4077 1.362 . S
C4078 C4081 1.409 . S
C4079 H4071 0.930 . S
C4079 C4080 1.355 . S
C4079 C4081 1.415 . S
C4080 C4079 1.355 . S
C4080 C4082 1.419 . S
C4081 C4076 1.425 . S
C4081 C4078 1.409 . S
C4081 C4079 1.415 . S
C4082 H4072 0.930 . S
C4082 C4080 1.419 . S
C4082 C4083 1.362 . S
C4083 H4073 0.930 . S
C4083 C4076 1.409 . S
C4083 C4082 1.362 . S
H4084 C4090 0.930 . S
H4085 C4093 0.930 . S
H4086 C4094 0.930 . S
H4087 C4095 0.930 . S
H4088 C4098 0.930 . S
H4089 C4099 0.930 . S
C4090 H4084 0.930 . S
C4090 C4091 1.355 . S
C4090 C4092 1.415 . S
C4091 C4090 1.355 . S
C4091 C4093 1.419 . S
C4092 C4090 1.415 . S
C4092 C4097 1.425 . S
C4092 C4099 1.409 . S
C4093 H4085 0.930 . S
C4093 C4091 1.419 . S
C4093 C4094 1.362 . S
C4094 H4086 0.930 . S
C4094 C4093 1.362 . S
C4094 C4097 1.409 . S
C4095 H4087 0.930 . S
C4095 C4096 1.355 . S
C4095 C4097 1.415 . S
C4096 C4095 1.355 . S
C4096 C4098 1.419 . S
C4097 C4092 1.425 . S
C4097 C4094 1.409 . S
C4097 C4095 1.415 . S
C4098 H4088 0.930 . S
C4098 C4096 1.419 . S
C4098 C4099 1.362 . S
C4099 H4089 0.930 . S
C4099 C4092 1.409 . S
C4099 C4098 1.362 . S
H4100 C4106 0.930 . S
H4101 C4109 0.930 . S
H4102 C4110 0.930 . S
H4103 C4111 0.930 . S
H4104 C4114 0.930 . S
H4105 C4115 0.930 . S
C4106 H4100 0.930 . S
C4106 C4107 1.355 . S
C4106 C4108 1.415 . S
C4107 C4106 1.355 . S
C4107 C4109 1.419 . S
C4108 C4106 1.415 . S
C4108 C4113 1.425 . S
C4108 C4115 1.409 . S
C4109 H4101 0.930 . S
C4109 C4107 1.419 . S
C4109 C4110 1.362 . S
C4110 H4102 0.930 . S
C4110 C4109 1.362 . S
C4110 C4113 1.409 . S
C4111 H4103 0.930 . S
C4111 C4112 1.355 . S
C4111 C4113 1.415 . S
C4112 C4111 1.355 . S
C4112 C4114 1.419 . S
C4113 C4108 1.425 . S
C4113 C4110 1.409 . S
C4113 C4111 1.415 . S
C4114 H4104 0.930 . S
C4114 C4112 1.419 . S
C4114 C4115 1.362 . S
C4115 H4105 0.930 . S
C4115 C4108 1.409 . S
C4115 C4114 1.362 . S
H4116 C4122 0.930 . S
H4117 C4125 0.930 . S
H4118 C4126 0.930 . S
H4119 C4127 0.930 . S
H4120 C4130 0.930 . S
H4121 C4131 0.930 . S
C4122 H4116 0.930 . S
C4122 C4123 1.355 . S
C4122 C4124 1.415 . S
C4123 C4122 1.355 . S
C4123 C4125 1.419 . S
C4124 C4122 1.415 . S
C4124 C4129 1.425 . S
C4124 C4131 1.409 . S
C4125 H4117 0.930 . S
C4125 C4123 1.419 . S
C4125 C4126 1.362 . S
C4126 H4118 0.930 . S
C4126 C4125 1.362 . S
C4126 C4129 1.409 . S
C4127 H4119 0.930 . S
C4127 C4128 1.355 . S
C4127 C4129 1.415 . S
C4128 C4127 1.355 . S
C4128 C4130 1.419 . S
C4129 C4124 1.425 . S
C4129 C4126 1.409 . S
C4129 C4127 1.415 . S
C4130 H4120 0.930 . S
C4130 C4128 1.419 . S
C4130 C4131 1.362 . S
C4131 H4121 0.930 . S
C4131 C4124 1.409 . S
C4131 C4130 1.362 . S
H4132 C4138 0.930 . S
H4133 C4141 0.930 . S
H4134 C4142 0.930 . S
H4135 C4143 0.930 . S
H4136 C4146 0.930 . S
H4137 C4147 0.930 . S
C4138 H4132 0.930 . S
C4138 C4139 1.355 . S
C4138 C4140 1.415 . S
C4139 C4138 1.355 . S
C4139 C4141 1.419 . S
C4140 C4138 1.415 . S
C4140 C4145 1.425 . S
C4140 C4147 1.409 . S
C4141 H4133 0.930 . S
C4141 C4139 1.419 . S
C4141 C4142 1.362 . S
C4142 H4134 0.930 . S
C4142 C4141 1.362 . S
C4142 C4145 1.409 . S
C4143 H4135 0.930 . S
C4143 C4144 1.355 . S
C4143 C4145 1.415 . S
C4144 C4143 1.355 . S
C4144 C4146 1.419 . S
C4145 C4140 1.425 . S
C4145 C4142 1.409 . S
C4145 C4143 1.415 . S
C4146 H4136 0.930 . S
C4146 C4144 1.419 . S
C4146 C4147 1.362 . S
C4147 H4137 0.930 . S
C4147 C4140 1.409 . S
C4147 C4146 1.362 . S
H4148 C4154 0.930 . S
H4149 C4157 0.930 . S
H4150 C4158 0.930 . S
H4151 C4159 0.930 . S
H4152 C4162 0.930 . S
H4153 C4163 0.930 . S
C4154 H4148 0.930 . S
C4154 C4155 1.355 . S
C4154 C4156 1.415 . S
C4155 C4154 1.355 . S
C4155 C4157 1.419 . S
C4156 C4154 1.415 . S
C4156 C4161 1.425 . S
C4156 C4163 1.409 . S
C4157 H4149 0.930 . S
C4157 C4155 1.419 . S
C4157 C4158 1.362 . S
C4158 H4150 0.930 . S
C4158 C4157 1.362 . S
C4158 C4161 1.409 . S
C4159 H4151 0.930 . S
C4159 C4160 1.355 . S
C4159 C4161 1.415 . S
C4160 C4159 1.355 . S
C4160 C4162 1.419 . S
C4161 C4156 1.425 . S
C4161 C4158 1.409 . S
C4161 C4159 1.415 . S
C4162 H4152 0.930 . S
C4162 C4160 1.419 . S
C4162 C4163 1.362 . S
C4163 H4153 0.930 . S
C4163 C4156 1.409 . S
C4163 C4162 1.362 . S
H4164 C4170 0.930 . S
H4165 C4173 0.930 . S
H4166 C4174 0.930 . S
H4167 C4175 0.930 . S
H4168 C4178 0.930 . S
H4169 C4179 0.930 . S
C4170 H4164 0.930 . S
C4170 C4171 1.355 . S
C4170 C4172 1.415 . S
C4171 C4170 1.355 . S
C4171 C4173 1.419 . S
C4172 C4170 1.415 . S
C4172 C4177 1.425 . S
C4172 C4179 1.409 . S
C4173 H4165 0.930 . S
C4173 C4171 1.419 . S
C4173 C4174 1.362 . S
C4174 H4166 0.930 . S
C4174 C4173 1.362 . S
C4174 C4177 1.409 . S
C4175 H4167 0.930 . S
C4175 C4176 1.355 . S
C4175 C4177 1.415 . S
C4176 C4175 1.355 . S
C4176 C4178 1.419 . S
C4177 C4172 1.425 . S
C4177 C4174 1.409 . S
C4177 C4175 1.415 . S
C4178 H4168 0.930 . S
C4178 C4176 1.419 . S
C4178 C4179 1.362 . S
C4179 H4169 0.930 . S
C4179 C4172 1.409 . S
C4179 C4178 1.362 . S
H4180 C4186 0.930 . S
H4181 C4189 0.930 . S
H4182 C4190 0.930 . S
H4183 C4191 0.930 . S
H4184 C4194 0.930 . S
H4185 C4195 0.930 . S
C4186 H4180 0.930 . S
C4186 C4187 1.355 . S
C4186 C4188 1.415 . S
C4187 C4186 1.355 . S
C4187 C4189 1.419 . S
C4188 C4186 1.415 . S
C4188 C4193 1.425 . S
C4188 C4195 1.409 . S
C4189 H4181 0.930 . S
C4189 C4187 1.419 . S
C4189 C4190 1.362 . S
C4190 H4182 0.930 . S
C4190 C4189 1.362 . S
C4190 C4193 1.409 . S
C4191 H4183 0.930 . S
C4191 C4192 1.355 . S
C4191 C4193 1.415 . S
C4192 C4191 1.355 . S
C4192 C4194 1.419 . S
C4193 C4188 1.425 . S
C4193 C4190 1.409 . S
C4193 C4191 1.415 . S
C4194 H4184 0.930 . S
C4194 C4192 1.419 . S
C4194 C4195 1.362 . S
C4195 H4185 0.930 . S
C4195 C4188 1.409 . S
C4195 C4194 1.362 . S
H4196 C4202 0.930 . S
H4197 C4205 0.930 . S
H4198 C4206 0.930 . S
H4199 C4207 0.930 . S
H4200 C4210 0.930 . S
H4201 C4211 0.930 . S
C4202 H4196 0.930 . S
C4202 C4203 1.355 . S
C4202 C4204 1.415 . S
C4203 C4202 1.355 . S
C4203 C4205 1.419 . S
C4204 C4202 1.415 . S
C4204 C4209 1.425 . S
C4204 C4211 1.409 . S
C4205 H4197 0.930 . S
C4205 C4203 1.419 . S
C4205 C4206 1.362 . S
C4206 H4198 0.930 . S
C4206 C4205 1.362 . S
C4206 C4209 1.409 . S
C4207 H4199 0.930 . S
C4207 C4208 1.355 . S
C4207 C4209 1.415 . S
C4208 C4207 1.355 . S
C4208 C4210 1.419 . S
C4209 C4204 1.425 . S
C4209 C4206 1.409 . S
C4209 C4207 1.415 . S
C4210 H4200 0.930 . S
C4210 C4208 1.419 . S
C4210 C4211 1.362 . S
C4211 H4201 0.930 . S
C4211 C4204 1.409 . S
C4211 C4210 1.362 . S
H4212 C4218 0.930 . S
H4213 C4221 0.930 . S
H4214 C4222 0.930 . S
H4215 C4223 0.930 . S
H4216 C4226 0.930 . S
H4217 C4227 0.930 . S
C4218 H4212 0.930 . S
C4218 C4219 1.355 . S
C4218 C4220 1.415 . S
C4219 C4218 1.355 . S
C4219 C4221 1.419 . S
C4220 C4218 1.415 . S
C4220 C4225 1.425 . S
C4220 C4227 1.409 . S
C4221 H4213 0.930 . S
C4221 C4219 1.419 . S
C4221 C4222 1.362 . S
C4222 H4214 0.930 . S
C4222 C4221 1.362 . S
C4222 C4225 1.409 . S
C4223 H4215 0.930 . S
C4223 C4224 1.355 . S
C4223 C4225 1.415 . S
C4224 C4223 1.355 . S
C4224 C4226 1.419 . S
C4225 C4220 1.425 . S
C4225 C4222 1.409 . S
C4225 C4223 1.415 . S
C4226 H4216 0.930 . S
C4226 C4224 1.419 . S
C4226 C4227 1.362 . S
C4227 H4217 0.930 . S
C4227 C4220 1.409 . S
C4227 C4226 1.362 . S
H4228 C4234 0.930 . S
H4229 C4237 0.930 . S
H4230 C4238 0.930 . S
H4231 C4239 0.930 . S
H4232 C4242 0.930 . S
H4233 C4243 0.930 . S
C4234 H4228 0.930 . S
C4234 C4235 1.355 . S
C4234 C4236 1.415 . S
C4235 C4234 1.355 . S
C4235 C4237 1.419 . S
C4236 C4234 1.415 . S
C4236 C4241 1.425 . S
C4236 C4243 1.409 . S
C4237 H4229 0.930 . S
C4237 C4235 1.419 . S
C4237 C4238 1.362 . S
C4238 H4230 0.930 . S
C4238 C4237 1.362 . S
C4238 C4241 1.409 . S
C4239 H4231 0.930 . S
C4239 C4240 1.355 . S
C4239 C4241 1.415 . S
C4240 C4239 1.355 . S
C4240 C4242 1.419 . S
C4241 C4236 1.425 . S
C4241 C4238 1.409 . S
C4241 C4239 1.415 . S
C4242 H4232 0.930 . S
C4242 C4240 1.419 . S
C4242 C4243 1.362 . S
C4243 H4233 0.930 . S
C4243 C4236 1.409 . S
C4243 C4242 1.362 . S
H4244 C4250 0.930 . S
H4245 C4253 0.930 . S
H4246 C4254 0.930 . S
H4247 C4255 0.930 . S
H4248 C4258 0.930 . S
H4249 C4259 0.930 . S
C4250 H4244 0.930 . S
C4250 C4251 1.355 . S
C4250 C4252 1.415 . S
C4251 C4250 1.355 . S
C4251 C4253 1.419 . S
C4252 C4250 1.415 . S
C4252 C4257 1.425 . S
C4252 C4259 1.409 . S
C4253 H4245 0.930 . S
C4253 C4251 1.419 . S
C4253 C4254 1.362 . S
C4254 H4246 0.930 . S
C4254 C4253 1.362 . S
C4254 C4257 1.409 . S
C4255 H4247 0.930 . S
C4255 C4256 1.355 . S
C4255 C4257 1.415 . S
C4256 C4255 1.355 . S
C4256 C4258 1.419 . S
C4257 C4252 1.425 . S
C4257 C4254 1.409 . S
C4257 C4255 1.415 . S
C4258 H4248 0.930 . S
C4258 C4256 1.419 . S
C4258 C4259 1.362 . S
C4259 H4249 0.930 . S
C4259 C4252 1.409 . S
C4259 C4258 1.362 . S
H4260 C4266 0.930 . S
H4261 C4269 0.930 . S
H4262 C4270 0.930 . S
H4263 C4271 0.930 . S
H4264 C4274 0.930 . S
H4265 C4275 0.930 . S
C4266 H4260 0.930 . S
C4266 C4267 1.355 . S
C4266 C4268 1.415 . S
C4267 C4266 1.355 . S
C4267 C4269 1.419 . S
C4268 C4266 1.415 . S
C4268 C4273 1.425 . S
C4268 C4275 1.409 . S
C4269 H4261 0.930 . S
C4269 C4267 1.419 . S
C4269 C4270 1.362 . S
C4270 H4262 0.930 . S
C4270 C4269 1.362 . S
C4270 C4273 1.409 . S
C4271 H4263 0.930 . S
C4271 C4272 1.355 . S
C4271 C4273 1.415 . S
C4272 C4271 1.355 . S
C4272 C4274 1.419 . S
C4273 C4268 1.425 . S
C4273 C4270 1.409 . S
C4273 C4271 1.415 . S
C4274 H4264 0.930 . S
C4274 C4272 1.419 . S
C4274 C4275 1.362 . S
C4275 H4265 0.930 . S
C4275 C4268 1.409 . S
C4275 C4274 1.362 . S
H4276 C4282 0.930 . S
H4277 C4285 0.930 . S
H4278 C4286 0.930 . S
H4279 C4287 0.930 . S
H4280 C4290 0.930 . S
H4281 C4291 0.930 . S
C4282 H4276 0.930 . S
C4282 C4283 1.355 . S
C4282 C4284 1.415 . S
C4283 C4282 1.355 . S
C4283 C4285 1.419 . S
C4284 C4282 1.415 . S
C4284 C4289 1.425 . S
C4284 C4291 1.409 . S
C4285 H4277 0.930 . S
C4285 C4283 1.419 . S
C4285 C4286 1.362 . S
C4286 H4278 0.930 . S
C4286 C4285 1.362 . S
C4286 C4289 1.409 . S
C4287 H4279 0.930 . S
C4287 C4288 1.355 . S
C4287 C4289 1.415 . S
C4288 C4287 1.355 . S
C4288 C4290 1.419 . S
C4289 C4284 1.425 . S
C4289 C4286 1.409 . S
C4289 C4287 1.415 . S
C4290 H4280 0.930 . S
C4290 C4288 1.419 . S
C4290 C4291 1.362 . S
C4291 H4281 0.930 . S
C4291 C4284 1.409 . S
C4291 C4290 1.362 . S
H4292 C4298 0.930 . S
H4293 C4301 0.930 . S
H4294 C4302 0.930 . S
H4295 C4303 0.930 . S
H4296 C4306 0.930 . S
H4297 C4307 0.930 . S
C4298 H4292 0.930 . S
C4298 C4299 1.355 . S
C4298 C4300 1.415 . S
C4299 C4298 1.355 . S
C4299 C4301 1.419 . S
C4300 C4298 1.415 . S
C4300 C4305 1.425 . S
C4300 C4307 1.409 . S
C4301 H4293 0.930 . S
C4301 C4299 1.419 . S
C4301 C4302 1.362 . S
C4302 H4294 0.930 . S
C4302 C4301 1.362 . S
C4302 C4305 1.409 . S
C4303 H4295 0.930 . S
C4303 C4304 1.355 . S
C4303 C4305 1.415 . S
C4304 C4303 1.355 . S
C4304 C4306 1.419 . S
C4305 C4300 1.425 . S
C4305 C4302 1.409 . S
C4305 C4303 1.415 . S
C4306 H4296 0.930 . S
C4306 C4304 1.419 . S
C4306 C4307 1.362 . S
C4307 H4297 0.930 . S
C4307 C4300 1.409 . S
C4307 C4306 1.362 . S
H4308 C4314 0.930 . S
H4309 C4317 0.930 . S
H4310 C4318 0.930 . S
H4311 C4319 0.930 . S
H4312 C4322 0.930 . S
H4313 C4323 0.930 . S
C4314 H4308 0.930 . S
C4314 C4315 1.355 . S
C4314 C4316 1.415 . S
C4315 C4314 1.355 . S
C4315 C4317 1.419 . S
C4316 C4314 1.415 . S
C4316 C4321 1.425 . S
C4316 C4323 1.409 . S
C4317 H4309 0.930 . S
C4317 C4315 1.419 . S
C4317 C4318 1.362 . S
C4318 H4310 0.930 . S
C4318 C4317 1.362 . S
C4318 C4321 1.409 . S
C4319 H4311 0.930 . S
C4319 C4320 1.355 . S
C4319 C4321 1.415 . S
C4320 C4319 1.355 . S
C4320 C4322 1.419 . S
C4321 C4316 1.425 . S
C4321 C4318 1.409 . S
C4321 C4319 1.415 . S
C4322 H4312 0.930 . S
C4322 C4320 1.419 . S
C4322 C4323 1.362 . S
C4323 H4313 0.930 . S
C4323 C4316 1.409 . S
C4323 C4322 1.362 . S
H4324 C4330 0.930 . S
H4325 C4333 0.930 . S
H4326 C4334 0.930 . S
H4327 C4335 0.930 . S
H4328 C4338 0.930 . S
H4329 C4339 0.930 . S
C4330 H4324 0.930 . S
C4330 C4331 1.355 . S
C4330 C4332 1.415 . S
C4331 C4330 1.355 . S
C4331 C4333 1.419 . S
C4332 C4330 1.415 . S
C4332 C4337 1.425 . S
C4332 C4339 1.409 . S
C4333 H4325 0.930 . S
C4333 C4331 1.419 . S
C4333 C4334 1.362 . S
C4334 H4326 0.930 . S
C4334 C4333 1.362 . S
C4334 C4337 1.409 . S
C4335 H4327 0.930 . S
C4335 C4336 1.355 . S
C4335 C4337 1.415 . S
C4336 C4335 1.355 . S
C4336 C4338 1.419 . S
C4337 C4332 1.425 . S
C4337 C4334 1.409 . S
C4337 C4335 1.415 . S
C4338 H4328 0.930 . S
C4338 C4336 1.419 . S
C4338 C4339 1.362 . S
C4339 H4329 0.930 . S
C4339 C4332 1.409 . S
C4339 C4338 1.362 . S
H4340 C4346 0.930 . S
H4341 C4349 0.930 . S
H4342 C4350 0.930 . S
H4343 C4351 0.930 . S
H4344 C4354 0.930 . S
H4345 C4355 0.930 . S
C4346 H4340 0.930 . S
C4346 C4347 1.355 . S
C4346 C4348 1.415 . S
C4347 C4346 1.355 . S
C4347 C4349 1.419 . S
C4348 C4346 1.415 . S
C4348 C4353 1.425 . S
C4348 C4355 1.409 . S
C4349 H4341 0.930 . S
C4349 C4347 1.419 . S
C4349 C4350 1.362 . S
C4350 H4342 0.930 . S
C4350 C4349 1.362 . S
C4350 C4353 1.409 . S
C4351 H4343 0.930 . S
C4351 C4352 1.355 . S
C4351 C4353 1.415 . S
C4352 C4351 1.355 . S
C4352 C4354 1.419 . S
C4353 C4348 1.425 . S
C4353 C4350 1.409 . S
C4353 C4351 1.415 . S
C4354 H4344 0.930 . S
C4354 C4352 1.419 . S
C4354 C4355 1.362 . S
C4355 H4345 0.930 . S
C4355 C4348 1.409 . S
C4355 C4354 1.362 . S
H4356 C4362 0.930 . S
H4357 C4365 0.930 . S
H4358 C4366 0.930 . S
H4359 C4367 0.930 . S
H4360 C4370 0.930 . S
H4361 C4371 0.930 . S
C4362 H4356 0.930 . S
C4362 C4363 1.355 . S
C4362 C4364 1.415 . S
C4363 C4362 1.355 . S
C4363 C4365 1.419 . S
C4364 C4362 1.415 . S
C4364 C4369 1.425 . S
C4364 C4371 1.409 . S
C4365 H4357 0.930 . S
C4365 C4363 1.419 . S
C4365 C4366 1.362 . S
C4366 H4358 0.930 . S
C4366 C4365 1.362 . S
C4366 C4369 1.409 . S
C4367 H4359 0.930 . S
C4367 C4368 1.355 . S
C4367 C4369 1.415 . S
C4368 C4367 1.355 . S
C4368 C4370 1.419 . S
C4369 C4364 1.425 . S
C4369 C4366 1.409 . S
C4369 C4367 1.415 . S
C4370 H4360 0.930 . S
C4370 C4368 1.419 . S
C4370 C4371 1.362 . S
C4371 H4361 0.930 . S
C4371 C4364 1.409 . S
C4371 C4370 1.362 . S
H4372 C4378 0.930 . S
H4373 C4381 0.930 . S
H4374 C4382 0.930 . S
H4375 C4383 0.930 . S
H4376 C4386 0.930 . S
H4377 C4387 0.930 . S
C4378 H4372 0.930 . S
C4378 C4379 1.355 . S
C4378 C4380 1.415 . S
C4379 C4378 1.355 . S
C4379 C4381 1.419 . S
C4380 C4378 1.415 . S
C4380 C4385 1.425 . S
C4380 C4387 1.409 . S
C4381 H4373 0.930 . S
C4381 C4379 1.419 . S
C4381 C4382 1.362 . S
C4382 H4374 0.930 . S
C4382 C4381 1.362 . S
C4382 C4385 1.409 . S
C4383 H4375 0.930 . S
C4383 C4384 1.355 . S
C4383 C4385 1.415 . S
C4384 C4383 1.355 . S
C4384 C4386 1.419 . S
C4385 C4380 1.425 . S
C4385 C4382 1.409 . S
C4385 C4383 1.415 . S
C4386 H4376 0.930 . S
C4386 C4384 1.419 . S
C4386 C4387 1.362 . S
C4387 H4377 0.930 . S
C4387 C4380 1.409 . S
C4387 C4386 1.362 . S
H4388 C4394 0.930 . S
H4389 C4397 0.930 . S
H4390 C4398 0.930 . S
H4391 C4399 0.930 . S
H4392 C4402 0.930 . S
H4393 C4403 0.930 . S
C4394 H4388 0.930 . S
C4394 C4395 1.355 . S
C4394 C4396 1.415 . S
C4395 C4394 1.355 . S
C4395 C4397 1.419 . S
C4396 C4394 1.415 . S
C4396 C4401 1.425 . S
C4396 C4403 1.409 . S
C4397 H4389 0.930 . S
C4397 C4395 1.419 . S
C4397 C4398 1.362 . S
C4398 H4390 0.930 . S
C4398 C4397 1.362 . S
C4398 C4401 1.409 . S
C4399 H4391 0.930 . S
C4399 C4400 1.355 . S
C4399 C4401 1.415 . S
C4400 C4399 1.355 . S
C4400 C4402 1.419 . S
C4401 C4396 1.425 . S
C4401 C4398 1.409 . S
C4401 C4399 1.415 . S
C4402 H4392 0.930 . S
C4402 C4400 1.419 . S
C4402 C4403 1.362 . S
C4403 H4393 0.930 . S
C4403 C4396 1.409 . S
C4403 C4402 1.362 . S
H4404 C4410 0.930 . S
H4405 C4413 0.930 . S
H4406 C4414 0.930 . S
H4407 C4415 0.930 . S
H4408 C4418 0.930 . S
H4409 C4419 0.930 . S
C4410 H4404 0.930 . S
C4410 C4411 1.355 . S
C4410 C4412 1.415 . S
C4411 C4410 1.355 . S
C4411 C4413 1.419 . S
C4412 C4410 1.415 . S
C4412 C4417 1.425 . S
C4412 C4419 1.409 . S
C4413 H4405 0.930 . S
C4413 C4411 1.419 . S
C4413 C4414 1.362 . S
C4414 H4406 0.930 . S
C4414 C4413 1.362 . S
C4414 C4417 1.409 . S
C4415 H4407 0.930 . S
C4415 C4416 1.355 . S
C4415 C4417 1.415 . S
C4416 C4415 1.355 . S
C4416 C4418 1.419 . S
C4417 C4412 1.425 . S
C4417 C4414 1.409 . S
C4417 C4415 1.415 . S
C4418 H4408 0.930 . S
C4418 C4416 1.419 . S
C4418 C4419 1.362 . S
C4419 H4409 0.930 . S
C4419 C4412 1.409 . S
C4419 C4418 1.362 . S
H4420 C4426 0.930 . S
H4421 C4429 0.930 . S
H4422 C4430 0.930 . S
H4423 C4431 0.930 . S
H4424 C4434 0.930 . S
H4425 C4435 0.930 . S
C4426 H4420 0.930 . S
C4426 C4427 1.355 . S
C4426 C4428 1.415 . S
C4427 C4426 1.355 . S
C4427 C4429 1.419 . S
C4428 C4426 1.415 . S
C4428 C4433 1.425 . S
C4428 C4435 1.409 . S
C4429 H4421 0.930 . S
C4429 C4427 1.419 . S
C4429 C4430 1.362 . S
C4430 H4422 0.930 . S
C4430 C4429 1.362 . S
C4430 C4433 1.409 . S
C4431 H4423 0.930 . S
C4431 C4432 1.355 . S
C4431 C4433 1.415 . S
C4432 C4431 1.355 . S
C4432 C4434 1.419 . S
C4433 C4428 1.425 . S
C4433 C4430 1.409 . S
C4433 C4431 1.415 . S
C4434 H4424 0.930 . S
C4434 C4432 1.419 . S
C4434 C4435 1.362 . S
C4435 H4425 0.930 . S
C4435 C4428 1.409 . S
C4435 C4434 1.362 . S
H4436 C4442 0.930 . S
H4437 C4445 0.930 . S
H4438 C4446 0.930 . S
H4439 C4447 0.930 . S
H4440 C4450 0.930 . S
H4441 C4451 0.930 . S
C4442 H4436 0.930 . S
C4442 C4443 1.355 . S
C4442 C4444 1.415 . S
C4443 C4442 1.355 . S
C4443 C4445 1.419 . S
C4444 C4442 1.415 . S
C4444 C4449 1.425 . S
C4444 C4451 1.409 . S
C4445 H4437 0.930 . S
C4445 C4443 1.419 . S
C4445 C4446 1.362 . S
C4446 H4438 0.930 . S
C4446 C4445 1.362 . S
C4446 C4449 1.409 . S
C4447 H4439 0.930 . S
C4447 C4448 1.355 . S
C4447 C4449 1.415 . S
C4448 C4447 1.355 . S
C4448 C4450 1.419 . S
C4449 C4444 1.425 . S
C4449 C4446 1.409 . S
C4449 C4447 1.415 . S
C4450 H4440 0.930 . S
C4450 C4448 1.419 . S
C4450 C4451 1.362 . S
C4451 H4441 0.930 . S
C4451 C4444 1.409 . S
C4451 C4450 1.362 . S
H4452 C4458 0.930 . S
H4453 C4461 0.930 1_655 S
H4454 C4462 0.930 . S
H4455 C4463 0.930 1_655 S
H4456 C4466 0.930 . S
H4457 C4467 0.930 . S
C4458 H4452 0.930 . S
C4458 C4459 1.355 . S
C4458 C4460 1.415 . S
C4459 C4458 1.355 . S
C4459 C4461 1.419 . S
C4460 C4458 1.415 . S
C4460 C4465 1.425 . S
C4460 C4467 1.409 . S
C4461 H4453 0.930 1_455 S
C4461 C4459 1.419 . S
C4461 C4462 1.362 1_455 S
C4462 H4454 0.930 . S
C4462 C4461 1.362 1_655 S
C4462 C4465 1.409 1_655 S
C4463 H4455 0.930 1_455 S
C4463 C4464 1.355 . S
C4463 C4465 1.415 . S
C4464 C4463 1.355 . S
C4464 C4466 1.419 . S
C4465 C4460 1.425 . S
C4465 C4462 1.409 1_455 S
C4465 C4463 1.415 . S
C4466 H4456 0.930 . S
C4466 C4464 1.419 . S
C4466 C4467 1.362 . S
C4467 H4457 0.930 . S
C4467 C4460 1.409 . S
C4467 C4466 1.362 . S
H4468 C4474 0.930 . S
H4469 C4477 0.930 . S
H4470 C4478 0.930 . S
H4471 C4479 0.930 . S
H4472 C4482 0.930 . S
H4473 C4483 0.930 . S
C4474 H4468 0.930 . S
C4474 C4475 1.355 . S
C4474 C4476 1.415 . S
C4475 C4474 1.355 . S
C4475 C4477 1.419 . S
C4476 C4474 1.415 . S
C4476 C4481 1.425 . S
C4476 C4483 1.409 . S
C4477 H4469 0.930 . S
C4477 C4475 1.419 . S
C4477 C4478 1.362 . S
C4478 H4470 0.930 . S
C4478 C4477 1.362 . S
C4478 C4481 1.409 . S
C4479 H4471 0.930 . S
C4479 C4480 1.355 . S
C4479 C4481 1.415 . S
C4480 C4479 1.355 . S
C4480 C4482 1.419 . S
C4481 C4476 1.425 . S
C4481 C4478 1.409 . S
C4481 C4479 1.415 . S
C4482 H4472 0.930 . S
C4482 C4480 1.419 . S
C4482 C4483 1.362 . S
C4483 H4473 0.930 . S
C4483 C4476 1.409 . S
C4483 C4482 1.362 . S
H4484 C4490 0.930 . S
H4485 C4493 0.930 . S
H4486 C4494 0.930 . S
H4487 C4495 0.930 . S
H4488 C4498 0.930 . S
H4489 C4499 0.930 . S
C4490 H4484 0.930 . S
C4490 C4491 1.355 . S
C4490 C4492 1.415 . S
C4491 C4490 1.355 . S
C4491 C4493 1.419 . S
C4492 C4490 1.415 . S
C4492 C4497 1.425 . S
C4492 C4499 1.409 . S
C4493 H4485 0.930 . S
C4493 C4491 1.419 . S
C4493 C4494 1.362 . S
C4494 H4486 0.930 . S
C4494 C4493 1.362 . S
C4494 C4497 1.409 . S
C4495 H4487 0.930 . S
C4495 C4496 1.355 . S
C4495 C4497 1.415 . S
C4496 C4495 1.355 . S
C4496 C4498 1.419 . S
C4497 C4492 1.425 . S
C4497 C4494 1.409 . S
C4497 C4495 1.415 . S
C4498 H4488 0.930 . S
C4498 C4496 1.419 . S
C4498 C4499 1.362 . S
C4499 H4489 0.930 . S
C4499 C4492 1.409 . S
C4499 C4498 1.362 . S
H4500 C4506 0.930 1_545 S
H4501 C4509 0.930 . S
H4502 C4510 0.930 . S
H4503 C4511 0.930 . S
H4504 C4514 0.930 . S
H4505 C4515 0.930 . S
C4506 H4500 0.930 1_565 S
C4506 C4507 1.355 . S
C4506 C4508 1.415 . S
C4507 C4506 1.355 . S
C4507 C4509 1.419 . S
C4508 C4506 1.415 . S
C4508 C4513 1.425 . S
C4508 C4515 1.409 1_565 S
C4509 H4501 0.930 . S
C4509 C4507 1.419 . S
C4509 C4510 1.362 . S
C4510 H4502 0.930 . S
C4510 C4509 1.362 . S
C4510 C4513 1.409 . S
C4511 H4503 0.930 . S
C4511 C4512 1.355 . S
C4511 C4513 1.415 . S
C4512 C4511 1.355 . S
C4512 C4514 1.419 1_565 S
C4513 C4508 1.425 . S
C4513 C4510 1.409 . S
C4513 C4511 1.415 . S
C4514 H4504 0.930 . S
C4514 C4512 1.419 1_545 S
C4514 C4515 1.362 . S
C4515 H4505 0.930 . S
C4515 C4508 1.409 1_545 S
C4515 C4514 1.362 . S
H4516 C4522 0.930 1_655 S
H4517 C4525 0.930 . S
H4518 C4526 0.930 . S
H4519 C4527 0.930 . S
H4520 C4530 0.930 . S
H4521 C4531 0.930 . S
C4522 H4516 0.930 1_455 S
C4522 C4523 1.355 . S
C4522 C4524 1.415 . S
C4523 C4522 1.355 . S
C4523 C4525 1.419 . S
C4524 C4522 1.415 . S
C4524 C4529 1.425 . S
C4524 C4531 1.409 1_455 S
C4525 H4517 0.930 . S
C4525 C4523 1.419 . S
C4525 C4526 1.362 . S
C4526 H4518 0.930 . S
C4526 C4525 1.362 . S
C4526 C4529 1.409 . S
C4527 H4519 0.930 . S
C4527 C4528 1.352 1_455 S
C4527 C4529 1.415 . S
C4528 C4527 1.352 1_655 S
C4528 C4530 1.425 . S
C4529 C4524 1.425 . S
C4529 C4526 1.409 . S
C4529 C4527 1.415 . S
C4530 H4520 0.930 . S
C4530 C4528 1.425 . S
C4530 C4531 1.362 . S
C4531 H4521 0.930 . S
C4531 C4524 1.409 1_655 S
C4531 C4530 1.362 . S
H4532 C4538 0.930 . S
H4533 C4541 0.930 . S
H4534 C4542 0.930 . S
H4535 C4543 0.930 . S
H4536 C4546 0.930 . S
H4537 C4547 0.930 . S
C4538 H4532 0.930 . S
C4538 C4539 1.355 . S
C4538 C4540 1.415 . S
C4539 C4538 1.355 . S
C4539 C4541 1.419 . S
C4540 C4538 1.415 . S
C4540 C4545 1.425 . S
C4540 C4547 1.409 . S
C4541 H4533 0.930 . S
C4541 C4539 1.419 . S
C4541 C4542 1.362 . S
C4542 H4534 0.930 . S
C4542 C4541 1.362 . S
C4542 C4545 1.409 . S
C4543 H4535 0.930 . S
C4543 C4544 1.355 . S
C4543 C4545 1.415 . S
C4544 C4543 1.355 . S
C4544 C4546 1.419 . S
C4545 C4540 1.425 . S
C4545 C4542 1.409 . S
C4545 C4543 1.415 . S
C4546 H4536 0.930 . S
C4546 C4544 1.419 . S
C4546 C4547 1.362 . S
C4547 H4537 0.930 . S
C4547 C4540 1.409 . S
C4547 C4546 1.362 . S
H4548 C4554 0.930 . S
H4549 C4557 0.930 . S
H4550 C4558 0.930 . S
H4551 C4559 0.930 . S
H4552 C4562 0.930 . S
H4553 C4563 0.930 . S
C4554 H4548 0.930 . S
C4554 C4555 1.355 . S
C4554 C4556 1.415 . S
C4555 C4554 1.355 . S
C4555 C4557 1.419 . S
C4556 C4554 1.415 . S
C4556 C4561 1.425 . S
C4556 C4563 1.409 . S
C4557 H4549 0.930 . S
C4557 C4555 1.419 . S
C4557 C4558 1.362 . S
C4558 H4550 0.930 . S
C4558 C4557 1.362 . S
C4558 C4561 1.409 . S
C4559 H4551 0.930 . S
C4559 C4560 1.355 . S
C4559 C4561 1.415 . S
C4560 C4559 1.355 . S
C4560 C4562 1.419 . S
C4561 C4556 1.425 . S
C4561 C4558 1.409 . S
C4561 C4559 1.415 . S
C4562 H4552 0.930 . S
C4562 C4560 1.419 . S
C4562 C4563 1.362 . S
C4563 H4553 0.930 . S
C4563 C4556 1.409 . S
C4563 C4562 1.362 . S
H4564 C4570 0.930 . S
H4565 C4573 0.930 . S
H4566 C4574 0.930 . S
H4567 C4575 0.930 . S
H4568 C4578 0.930 . S
H4569 C4579 0.930 . S
C4570 H4564 0.930 . S
C4570 C4571 1.355 . S
C4570 C4572 1.415 . S
C4571 C4570 1.355 . S
C4571 C4573 1.419 . S
C4572 C4570 1.415 . S
C4572 C4577 1.425 . S
C4572 C4579 1.409 . S
C4573 H4565 0.930 . S
C4573 C4571 1.419 . S
C4573 C4574 1.362 . S
C4574 H4566 0.930 . S
C4574 C4573 1.362 . S
C4574 C4577 1.409 . S
C4575 H4567 0.930 . S
C4575 C4576 1.355 . S
C4575 C4577 1.415 . S
C4576 C4575 1.355 . S
C4576 C4578 1.419 . S
C4577 C4572 1.425 . S
C4577 C4574 1.409 . S
C4577 C4575 1.415 . S
C4578 H4568 0.930 . S
C4578 C4576 1.419 . S
C4578 C4579 1.362 . S
C4579 H4569 0.930 . S
C4579 C4572 1.409 . S
C4579 C4578 1.362 . S
H4580 C4586 0.930 . S
H4581 C4589 0.930 . S
H4582 C4590 0.930 . S
H4583 C4591 0.930 . S
H4584 C4594 0.930 . S
H4585 C4595 0.930 . S
C4586 H4580 0.930 . S
C4586 C4587 1.355 . S
C4586 C4588 1.415 . S
C4587 C4586 1.355 . S
C4587 C4589 1.419 . S
C4588 C4586 1.415 . S
C4588 C4593 1.425 . S
C4588 C4595 1.409 . S
C4589 H4581 0.930 . S
C4589 C4587 1.419 . S
C4589 C4590 1.362 . S
C4590 H4582 0.930 . S
C4590 C4589 1.362 . S
C4590 C4593 1.409 . S
C4591 H4583 0.930 . S
C4591 C4592 1.355 . S
C4591 C4593 1.415 . S
C4592 C4591 1.355 . S
C4592 C4594 1.419 . S
C4593 C4588 1.425 . S
C4593 C4590 1.409 . S
C4593 C4591 1.415 . S
C4594 H4584 0.930 . S
C4594 C4592 1.419 . S
C4594 C4595 1.362 . S
C4595 H4585 0.930 . S
C4595 C4588 1.409 . S
C4595 C4594 1.362 . S
H4596 C4602 0.930 . S
H4597 C4605 0.930 . S
H4598 C4606 0.930 . S
H4599 C4607 0.930 . S
H4600 C4610 0.930 . S
H4601 C4611 0.930 . S
C4602 H4596 0.930 . S
C4602 C4603 1.355 . S
C4602 C4604 1.415 . S
C4603 C4602 1.355 . S
C4603 C4605 1.419 1_545 S
C4604 C4602 1.415 . S
C4604 C4609 1.425 . S
C4604 C4611 1.409 . S
C4605 H4597 0.930 . S
C4605 C4603 1.419 1_565 S
C4605 C4606 1.362 . S
C4606 H4598 0.930 . S
C4606 C4605 1.362 . S
C4606 C4609 1.409 1_565 S
C4607 H4599 0.930 . S
C4607 C4608 1.355 1_565 S
C4607 C4609 1.415 1_565 S
C4608 C4607 1.355 1_545 S
C4608 C4610 1.419 . S
C4609 C4604 1.425 . S
C4609 C4606 1.409 1_545 S
C4609 C4607 1.415 1_545 S
C4610 H4600 0.930 . S
C4610 C4608 1.419 . S
C4610 C4611 1.362 . S
C4611 H4601 0.930 . S
C4611 C4604 1.409 . S
C4611 C4610 1.362 . S
H4612 C4618 0.930 . S
H4613 C4621 0.930 . S
H4614 C4622 0.930 . S
H4615 C4623 0.930 . S
H4616 C4626 0.930 . S
H4617 C4627 0.930 . S
C4618 H4612 0.930 . S
C4618 C4619 1.355 . S
C4618 C4620 1.415 . S
C4619 C4618 1.355 . S
C4619 C4621 1.419 1_655 S
C4620 C4618 1.415 . S
C4620 C4625 1.425 . S
C4620 C4627 1.409 . S
C4621 H4613 0.930 . S
C4621 C4619 1.419 1_455 S
C4621 C4622 1.362 . S
C4622 H4614 0.930 . S
C4622 C4621 1.362 . S
C4622 C4625 1.409 1_455 S
C4623 H4615 0.930 . S
C4623 C4624 1.355 1_455 S
C4623 C4625 1.415 1_455 S
C4624 C4623 1.355 1_655 S
C4624 C4626 1.419 . S
C4625 C4620 1.425 . S
C4625 C4622 1.409 1_655 S
C4625 C4623 1.415 1_655 S
C4626 H4616 0.930 . S
C4626 C4624 1.419 . S
C4626 C4627 1.362 . S
C4627 H4617 0.930 . S
C4627 C4620 1.409 . S
C4627 C4626 1.362 . S
H4628 C4634 0.930 . S
H4629 C4637 0.930 . S
H4630 C4638 0.930 . S
H4631 C4639 0.930 . S
H4632 C4642 0.930 . S
H4633 C4643 0.930 . S
C4634 H4628 0.930 . S
C4634 C4635 1.355 . S
C4634 C4636 1.415 . S
C4635 C4634 1.355 . S
C4635 C4637 1.419 . S
C4636 C4634 1.415 . S
C4636 C4641 1.425 . S
C4636 C4643 1.409 . S
C4637 H4629 0.930 . S
C4637 C4635 1.419 . S
C4637 C4638 1.362 . S
C4638 H4630 0.930 . S
C4638 C4637 1.362 . S
C4638 C4641 1.409 . S
C4639 H4631 0.930 . S
C4639 C4640 1.355 . S
C4639 C4641 1.415 . S
C4640 C4639 1.355 . S
C4640 C4642 1.419 . S
C4641 C4636 1.425 . S
C4641 C4638 1.409 . S
C4641 C4639 1.415 . S
C4642 H4632 0.930 . S
C4642 C4640 1.419 . S
C4642 C4643 1.362 . S
C4643 H4633 0.930 . S
C4643 C4636 1.409 . S
C4643 C4642 1.362 . S
H4644 C4650 0.930 . S
H4645 C4653 0.930 . S
H4646 C4654 0.930 . S
H4647 C4655 0.930 . S
H4648 C4658 0.930 . S
H4649 C4659 0.930 . S
C4650 H4644 0.930 . S
C4650 C4651 1.355 . S
C4650 C4652 1.415 . S
C4651 C4650 1.355 . S
C4651 C4653 1.419 . S
C4652 C4650 1.415 . S
C4652 C4657 1.425 . S
C4652 C4659 1.409 . S
C4653 H4645 0.930 . S
C4653 C4651 1.419 . S
C4653 C4654 1.362 . S
C4654 H4646 0.930 . S
C4654 C4653 1.362 . S
C4654 C4657 1.409 . S
C4655 H4647 0.930 . S
C4655 C4656 1.355 . S
C4655 C4657 1.415 . S
C4656 C4655 1.355 . S
C4656 C4658 1.419 . S
C4657 C4652 1.425 . S
C4657 C4654 1.409 . S
C4657 C4655 1.415 . S
C4658 H4648 0.930 . S
C4658 C4656 1.419 . S
C4658 C4659 1.362 . S
C4659 H4649 0.930 . S
C4659 C4652 1.409 . S
C4659 C4658 1.362 . S
H4660 C4666 0.930 . S
H4661 C4669 0.930 . S
H4662 C4670 0.930 . S
H4663 C4671 0.930 . S
H4664 C4674 0.930 . S
H4665 C4675 0.930 . S
C4666 H4660 0.930 . S
C4666 C4667 1.355 . S
C4666 C4668 1.415 . S
C4667 C4666 1.355 . S
C4667 C4669 1.419 . S
C4668 C4666 1.415 . S
C4668 C4673 1.425 . S
C4668 C4675 1.409 . S
C4669 H4661 0.930 . S
C4669 C4667 1.419 . S
C4669 C4670 1.362 . S
C4670 H4662 0.930 . S
C4670 C4669 1.362 . S
C4670 C4673 1.409 . S
C4671 H4663 0.930 . S
C4671 C4672 1.355 . S
C4671 C4673 1.415 . S
C4672 C4671 1.355 . S
C4672 C4674 1.419 . S
C4673 C4668 1.425 . S
C4673 C4670 1.409 . S
C4673 C4671 1.415 . S
C4674 H4664 0.930 . S
C4674 C4672 1.419 . S
C4674 C4675 1.362 . S
C4675 H4665 0.930 . S
C4675 C4668 1.409 . S
C4675 C4674 1.362 . S
H4676 C4682 0.930 . S
H4677 C4685 0.930 . S
H4678 C4686 0.930 . S
H4679 C4687 0.930 . S
H4680 C4690 0.930 . S
H4681 C4691 0.930 . S
C4682 H4676 0.930 . S
C4682 C4683 1.355 . S
C4682 C4684 1.415 . S
C4683 C4682 1.355 . S
C4683 C4685 1.419 . S
C4684 C4682 1.415 . S
C4684 C4689 1.425 . S
C4684 C4691 1.409 . S
C4685 H4677 0.930 . S
C4685 C4683 1.419 . S
C4685 C4686 1.362 . S
C4686 H4678 0.930 . S
C4686 C4685 1.362 . S
C4686 C4689 1.409 . S
C4687 H4679 0.930 . S
C4687 C4688 1.355 . S
C4687 C4689 1.415 . S
C4688 C4687 1.355 . S
C4688 C4690 1.419 . S
C4689 C4684 1.425 . S
C4689 C4686 1.409 . S
C4689 C4687 1.415 . S
C4690 H4680 0.930 . S
C4690 C4688 1.419 . S
C4690 C4691 1.362 . S
C4691 H4681 0.930 . S
C4691 C4684 1.409 . S
C4691 C4690 1.362 . S
H4692 C4698 0.930 . S
H4693 C4701 0.930 . S
H4694 C4702 0.930 . S
H4695 C4703 0.930 . S
H4696 C4706 0.930 . S
H4697 C4707 0.930 . S
C4698 H4692 0.930 . S
C4698 C4699 1.355 . S
C4698 C4700 1.415 . S
C4699 C4698 1.355 . S
C4699 C4701 1.419 . S
C4700 C4698 1.415 . S
C4700 C4705 1.425 . S
C4700 C4707 1.409 . S
C4701 H4693 0.930 . S
C4701 C4699 1.419 . S
C4701 C4702 1.362 . S
C4702 H4694 0.930 . S
C4702 C4701 1.362 . S
C4702 C4705 1.409 . S
C4703 H4695 0.930 . S
C4703 C4704 1.355 . S
C4703 C4705 1.415 . S
C4704 C4703 1.355 . S
C4704 C4706 1.419 . S
C4705 C4700 1.425 . S
C4705 C4702 1.409 . S
C4705 C4703 1.415 . S
C4706 H4696 0.930 . S
C4706 C4704 1.419 . S
C4706 C4707 1.362 . S
C4707 H4697 0.930 . S
C4707 C4700 1.409 . S
C4707 C4706 1.362 . S
H4708 C4714 0.930 . S
H4709 C4717 0.930 . S
H4710 C4718 0.930 . S
H4711 C4719 0.930 . S
H4712 C4722 0.930 . S
H4713 C4723 0.930 . S
C4714 H4708 0.930 . S
C4714 C4715 1.355 . S
C4714 C4716 1.415 . S
C4715 C4714 1.355 . S
C4715 C4717 1.419 . S
C4716 C4714 1.415 . S
C4716 C4721 1.425 . S
C4716 C4723 1.409 . S
C4717 H4709 0.930 . S
C4717 C4715 1.419 . S
C4717 C4718 1.362 . S
C4718 H4710 0.930 . S
C4718 C4717 1.362 . S
C4718 C4721 1.409 . S
C4719 H4711 0.930 . S
C4719 C4720 1.355 . S
C4719 C4721 1.415 . S
C4720 C4719 1.355 . S
C4720 C4722 1.419 . S
C4721 C4716 1.425 . S
C4721 C4718 1.409 . S
C4721 C4719 1.415 . S
C4722 H4712 0.930 . S
C4722 C4720 1.419 . S
C4722 C4723 1.362 . S
C4723 H4713 0.930 . S
C4723 C4716 1.409 . S
C4723 C4722 1.362 . S
H4724 C4730 0.930 . S
H4725 C4733 0.930 . S
H4726 C4734 0.930 . S
H4727 C4735 0.930 . S
H4728 C4738 0.930 . S
H4729 C4739 0.930 . S
C4730 H4724 0.930 . S
C4730 C4731 1.355 . S
C4730 C4732 1.415 . S
C4731 C4730 1.355 . S
C4731 C4733 1.419 . S
C4732 C4730 1.415 . S
C4732 C4737 1.425 . S
C4732 C4739 1.409 . S
C4733 H4725 0.930 . S
C4733 C4731 1.419 . S
C4733 C4734 1.362 . S
C4734 H4726 0.930 . S
C4734 C4733 1.362 . S
C4734 C4737 1.409 . S
C4735 H4727 0.930 . S
C4735 C4736 1.355 . S
C4735 C4737 1.415 . S
C4736 C4735 1.355 . S
C4736 C4738 1.419 . S
C4737 C4732 1.425 . S
C4737 C4734 1.409 . S
C4737 C4735 1.415 . S
C4738 H4728 0.930 . S
C4738 C4736 1.419 . S
C4738 C4739 1.362 . S
C4739 H4729 0.930 . S
C4739 C4732 1.409 . S
C4739 C4738 1.362 . S
H4740 C4746 0.930 1_455 S
H4741 C4749 0.930 . S
H4742 C4750 0.930 . S
H4743 C4751 0.930 . S
H4744 C4754 0.930 . S
H4745 C4755 0.930 . S
C4746 H4740 0.930 1_655 S
C4746 C4747 1.355 . S
C4746 C4748 1.415 . S
C4747 C4746 1.355 . S
C4747 C4749 1.419 . S
C4748 C4746 1.415 . S
C4748 C4753 1.425 . S
C4748 C4755 1.409 1_655 S
C4749 H4741 0.930 . S
C4749 C4747 1.419 . S
C4749 C4750 1.362 . S
C4750 H4742 0.930 . S
C4750 C4749 1.362 . S
C4750 C4753 1.409 . S
C4751 H4743 0.930 . S
C4751 C4752 1.355 . S
C4751 C4753 1.415 . S
C4752 C4751 1.355 . S
C4752 C4754 1.419 1_655 S
C4753 C4748 1.425 . S
C4753 C4750 1.409 . S
C4753 C4751 1.415 . S
C4754 H4744 0.930 . S
C4754 C4752 1.419 1_455 S
C4754 C4755 1.362 . S
C4755 H4745 0.930 . S
C4755 C4748 1.409 1_455 S
C4755 C4754 1.362 . S
H4756 C4762 0.930 . S
H4757 C4765 0.930 . S
H4758 C4766 0.930 . S
H4759 C4767 0.930 . S
H4760 C4770 0.930 . S
H4761 C4771 0.930 . S
C4762 H4756 0.930 . S
C4762 C4763 1.355 . S
C4762 C4764 1.415 . S
C4763 C4762 1.355 . S
C4763 C4765 1.419 . S
C4764 C4762 1.415 . S
C4764 C4769 1.425 . S
C4764 C4771 1.409 . S
C4765 H4757 0.930 . S
C4765 C4763 1.419 . S
C4765 C4766 1.362 . S
C4766 H4758 0.930 . S
C4766 C4765 1.362 . S
C4766 C4769 1.409 . S
C4767 H4759 0.930 . S
C4767 C4768 1.355 . S
C4767 C4769 1.415 . S
C4768 C4767 1.355 . S
C4768 C4770 1.419 . S
C4769 C4764 1.425 . S
C4769 C4766 1.409 . S
C4769 C4767 1.415 . S
C4770 H4760 0.930 . S
C4770 C4768 1.419 . S
C4770 C4771 1.362 . S
C4771 H4761 0.930 . S
C4771 C4764 1.409 . S
C4771 C4770 1.362 . S
H4772 C4778 0.930 . S
H4773 C4781 0.930 . S
H4774 C4782 0.930 . S
H4775 C4783 0.930 . S
H4776 C4786 0.930 . S
H4777 C4787 0.930 . S
C4778 H4772 0.930 . S
C4778 C4779 1.355 . S
C4778 C4780 1.415 . S
C4779 C4778 1.355 . S
C4779 C4781 1.419 . S
C4780 C4778 1.415 . S
C4780 C4785 1.425 . S
C4780 C4787 1.409 1_545 S
C4781 H4773 0.930 . S
C4781 C4779 1.419 . S
C4781 C4782 1.362 . S
C4782 H4774 0.930 . S
C4782 C4781 1.362 . S
C4782 C4785 1.409 . S
C4783 H4775 0.930 . S
C4783 C4784 1.357 . S
C4783 C4785 1.415 . S
C4784 C4783 1.357 . S
C4784 C4786 1.403 1_545 S
C4785 C4780 1.425 . S
C4785 C4782 1.409 . S
C4785 C4783 1.415 . S
C4786 H4776 0.930 . S
C4786 C4784 1.403 1_565 S
C4786 C4787 1.362 . S
C4787 H4777 0.930 . S
C4787 C4780 1.409 1_565 S
C4787 C4786 1.362 . S
C3643 C49 1.435 . S
C3648 C2639 1.189 . S
C3659 C137 1.681 . S
C3664 C2779 1.141 . S
C3680 C2867 1.273 . S
C3675 C205 1.511 . S
C3691 C196 1.498 . S
C3696 C3007 1.281 1_565 S
C3707 C57 1.502 . S
C3712 C3121 1.377 . S
C3723 C145 1.695 . S
C3728 C3209 1.196 . S
C3739 C313 1.525 . S
C3744 C3095 1.162 . S
C3760 C3235 1.276 . S
C3755 C401 1.599 . S
C3776 C2981 1.166 . S
C3771 C489 1.543 . S
C3787 C469 1.601 . S
C3792 C2893 1.075 . S
C3808 C2665 1.135 . S
C3803 C293 1.582 . S
C3819 C381 1.604 . S
C3824 C2753 1.410 . S
C3835 C577 1.770 . S
C3840 C3323 1.294 . S
C3851 C645 1.795 . S
C3856 C3463 1.212 . S
C3872 C3551 1.157 . S
C3867 C733 1.693 . S
C3883 C724 1.712 . S
C3888 C1639 1.080 . S
C3899 C585 1.789 . S
C3904 C1753 1.104 . S
C3915 C636 1.787 . S
C3920 C1841 1.392 . S
C3931 C841 1.500 . S
C3936 C1727 1.300 . S
C3947 C937 1.706 . S
C3952 C1867 1.483 . S
C3968 C1613 1.503 . S
C3963 C1025 1.680 . S
C3984 C3577 1.446 . S
C3979 C988 1.780 . S
C4000 C3349 1.422 . S
C3995 C821 1.632 . S
C4016 C3437 1.472 . S
C4011 C900 1.684 . S
C4027 C1105 1.605 . S
C4032 C1955 1.069 . S
C4043 C1193 1.802 . S
C4048 C2095 1.110 . S
C4059 C1281 1.769 . S
C4064 C2183 1.364 . S
C4075 C1289 1.866 . S
C4080 C2323 1.210 . S
C4096 C2437 1.020 . S
C4091 C1113 1.725 . S
C4112 C2525 1.237 . S
C4107 C1201 1.780 . S
C4128 C2411 1.479 . S
C4123 C1369 1.669 . S
C4144 C2551 1.389 . S
C4139 C1457 1.678 . S
C4155 C1553 1.592 . S
C4160 C2297 1.430 . S
C4176 C2209 1.402 . S
C4171 C1516 1.622 . S
C4187 C1349 1.714 . S
C4192 C1981 1.431 . S
C4208 C2069 1.534 . S
C4203 C1437 1.686 . S
C4224 C1595 0.982 . S
C4219 C29 1.964 . S
C4235 C117 1.695 . S
C4240 C1709 0.882 . S
C4256 C1813 1.364 . S
C4251 C225 1.950 . S
C4272 C1927 1.282 . S
C4267 C233 1.831 . S
C4288 C2051 0.970 . S
C4283 C20 1.942 . S
C4304 C2155 1.291 . S
C4299 C108 1.799 . S
C4315 C321 2.124 . S
C4320 C2165 1.715 . S
C4331 C409 1.903 . S
C4336 C1937 1.572 . S
C4347 C497 2.111 . S
C4352 C2041 2.007 . S
C4363 C460 1.976 . S
C4368 C1699 1.794 . S
C4384 C1823 1.825 . S
C4379 C284 2.154 . S
C4395 C372 1.940 . S
C4400 C1585 1.796 . S
C4416 C2279 0.998 . S
C4411 C557 1.790 . S
C4427 C665 1.818 . S
C4432 C2393 0.941 . S
C4443 C753 1.816 . S
C4448 C2497 1.349 . S
C4464 C2611 0.776 . S
C4459 C761 1.000 . S
C4475 C548 1.708 . S
C4480 C2735 0.853 . S
C4491 C673 1.125 . S
C4496 C2839 0.819 . S
C4507 C849 1.249 . S
C4512 C2849 0.723 1_565 S
C4523 C929 1.140 . S
C4528 C2621 0.709 . S
C4544 C2725 1.684 . S
C4539 C1017 1.868 . S
C4555 C997 1.785 . S
C4560 C2383 1.716 . S
C4571 C812 1.930 . S
C4576 C2507 1.608 . S
C4592 C2269 1.786 . S
C4587 C909 1.962 . S
C4608 C2963 0.758 . S
C4603 C1085 1.232 . S
C4619 C1173 1.097 . S
C4624 C3077 0.685 . S
C4635 C1261 1.716 . S
C4640 C3181 1.256 . S
C4656 C3295 1.061 . S
C4651 C1252 1.600 . S
C4672 C3419 0.971 . S
C4667 C1076 1.803 . S
C4683 C1164 1.865 . S
C4688 C3523 1.383 . S
C4699 C1377 1.927 . S
C4704 C3533 1.655 . S
C4715 C1465 1.930 . S
C4720 C3305 1.599 . S
C4736 C3409 1.832 . S
C4731 C1545 1.943 . S
C4752 C3067 0.871 1_655 S
C4747 C1525 1.041 . S
C4768 C3191 1.445 . S
C4763 C1340 1.852 . S
C4779 C1428 1.168 . S
C4784 C2953 0.896 1_545 S
