# Generated by pormake.
# Topology bwt, (3,3)-cn, num edge types: 1
# Building blocks:
#     Node 0, Type 0, BuildingBlock: OLANEW_clean_sbu_2, # of connection points: 3
#     Node 1, Type 0, BuildingBlock: OLANEW_clean_sbu_2, # of connection points: 3
#     Node 2, Type 0, BuildingBlock: OLANEW_clean_sbu_2, # of connection points: 3
#     Node 3, Type 0, BuildingBlock: OLANEW_clean_sbu_2, # of connection points: 3
#     Node 4, Type 0, BuildingBlock: OLANEW_clean_sbu_2, # of connection points: 3
#     Node 5, Type 0, BuildingBlock: OLANEW_clean_sbu_2, # of connection points: 3
#     Node 6, Type 0, BuildingBlock: OLANEW_clean_sbu_2, # of connection points: 3
#     Node 7, Type 0, BuildingBlock: OLANEW_clean_sbu_2, # of connection points: 3
#     Node 8, Type 0, BuildingBlock: OLANEW_clean_sbu_2, # of connection points: 3
#     Node 9, Type 0, BuildingBlock: OLANEW_clean_sbu_2, # of connection points: 3
#     Node 10, Type 0, BuildingBlock: OLANEW_clean_sbu_2, # of connection points: 3
#     Node 11, Type 0, BuildingBlock: OLANEW_clean_sbu_2, # of connection points: 3
#     Node 12, Type 0, BuildingBlock: OLANEW_clean_sbu_2, # of connection points: 3
#     Node 13, Type 0, BuildingBlock: OLANEW_clean_sbu_2, # of connection points: 3
#     Node 14, Type 0, BuildingBlock: OLANEW_clean_sbu_2, # of connection points: 3
#     Node 15, Type 0, BuildingBlock: OLANEW_clean_sbu_2, # of connection points: 3
#     Node 16, Type 0, BuildingBlock: OLANEW_clean_sbu_2, # of connection points: 3
#     Node 17, Type 0, BuildingBlock: OLANEW_clean_sbu_2, # of connection points: 3
#     Node 18, Type 0, BuildingBlock: OLANEW_clean_sbu_2, # of connection points: 3
#     Node 19, Type 0, BuildingBlock: OLANEW_clean_sbu_2, # of connection points: 3
#     Node 20, Type 0, BuildingBlock: OLANEW_clean_sbu_2, # of connection points: 3
#     Node 21, Type 0, BuildingBlock: OLANEW_clean_sbu_2, # of connection points: 3
#     Node 22, Type 0, BuildingBlock: OLANEW_clean_sbu_2, # of connection points: 3
#     Node 23, Type 0, BuildingBlock: OLANEW_clean_sbu_2, # of connection points: 3
#     Node 24, Type 1, BuildingBlock: BETDAH_clean_linker_0, # of connection points: 3
#     Node 25, Type 1, BuildingBlock: BETDAH_clean_linker_0, # of connection points: 3
#     Node 26, Type 1, BuildingBlock: BETDAH_clean_linker_0, # of connection points: 3
#     Node 27, Type 1, BuildingBlock: BETDAH_clean_linker_0, # of connection points: 3
#     Node 28, Type 1, BuildingBlock: BETDAH_clean_linker_0, # of connection points: 3
#     Node 29, Type 1, BuildingBlock: BETDAH_clean_linker_0, # of connection points: 3
#     Node 30, Type 1, BuildingBlock: BETDAH_clean_linker_0, # of connection points: 3
#     Node 31, Type 1, BuildingBlock: BETDAH_clean_linker_0, # of connection points: 3
#     Node 32, Type 1, BuildingBlock: BETDAH_clean_linker_0, # of connection points: 3
#     Node 33, Type 1, BuildingBlock: BETDAH_clean_linker_0, # of connection points: 3
#     Node 34, Type 1, BuildingBlock: BETDAH_clean_linker_0, # of connection points: 3
#     Node 35, Type 1, BuildingBlock: BETDAH_clean_linker_0, # of connection points: 3
#     Node 36, Type 1, BuildingBlock: BETDAH_clean_linker_0, # of connection points: 3
#     Node 37, Type 1, BuildingBlock: BETDAH_clean_linker_0, # of connection points: 3
#     Node 38, Type 1, BuildingBlock: BETDAH_clean_linker_0, # of connection points: 3
#     Node 39, Type 1, BuildingBlock: BETDAH_clean_linker_0, # of connection points: 3
#     Node 40, Type 1, BuildingBlock: BETDAH_clean_linker_0, # of connection points: 3
#     Node 41, Type 1, BuildingBlock: BETDAH_clean_linker_0, # of connection points: 3
#     Node 42, Type 1, BuildingBlock: BETDAH_clean_linker_0, # of connection points: 3
#     Node 43, Type 1, BuildingBlock: BETDAH_clean_linker_0, # of connection points: 3
#     Node 44, Type 1, BuildingBlock: BETDAH_clean_linker_0, # of connection points: 3
#     Node 45, Type 1, BuildingBlock: BETDAH_clean_linker_0, # of connection points: 3
#     Node 46, Type 1, BuildingBlock: BETDAH_clean_linker_0, # of connection points: 3
#     Node 47, Type 1, BuildingBlock: BETDAH_clean_linker_0, # of connection points: 3
#     Edge 48, Type (0, 1), BuildingBlock: ZUJKAS_clean_linker_0, # of connection points: 2
#     Edge 49, Type (0, 1), BuildingBlock: ZUJKAS_clean_linker_0, # of connection points: 2
#     Edge 50, Type (0, 1), BuildingBlock: ZUJKAS_clean_linker_0, # of connection points: 2
#     Edge 51, Type (0, 1), BuildingBlock: ZUJKAS_clean_linker_0, # of connection points: 2
#     Edge 52, Type (0, 1), BuildingBlock: ZUJKAS_clean_linker_0, # of connection points: 2
#     Edge 53, Type (0, 1), BuildingBlock: ZUJKAS_clean_linker_0, # of connection points: 2
#     Edge 54, Type (0, 1), BuildingBlock: ZUJKAS_clean_linker_0, # of connection points: 2
#     Edge 55, Type (0, 1), BuildingBlock: ZUJKAS_clean_linker_0, # of connection points: 2
#     Edge 56, Type (0, 1), BuildingBlock: ZUJKAS_clean_linker_0, # of connection points: 2
#     Edge 57, Type (0, 1), BuildingBlock: ZUJKAS_clean_linker_0, # of connection points: 2
#     Edge 58, Type (0, 1), BuildingBlock: ZUJKAS_clean_linker_0, # of connection points: 2
#     Edge 59, Type (0, 1), BuildingBlock: ZUJKAS_clean_linker_0, # of connection points: 2
#     Edge 60, Type (0, 1), BuildingBlock: ZUJKAS_clean_linker_0, # of connection points: 2
#     Edge 61, Type (0, 1), BuildingBlock: ZUJKAS_clean_linker_0, # of connection points: 2
#     Edge 62, Type (0, 1), BuildingBlock: ZUJKAS_clean_linker_0, # of connection points: 2
#     Edge 63, Type (0, 1), BuildingBlock: ZUJKAS_clean_linker_0, # of connection points: 2
#     Edge 64, Type (0, 1), BuildingBlock: ZUJKAS_clean_linker_0, # of connection points: 2
#     Edge 65, Type (0, 1), BuildingBlock: ZUJKAS_clean_linker_0, # of connection points: 2
#     Edge 66, Type (0, 1), BuildingBlock: ZUJKAS_clean_linker_0, # of connection points: 2
#     Edge 67, Type (0, 1), BuildingBlock: ZUJKAS_clean_linker_0, # of connection points: 2
#     Edge 68, Type (0, 1), BuildingBlock: ZUJKAS_clean_linker_0, # of connection points: 2
#     Edge 69, Type (0, 1), BuildingBlock: ZUJKAS_clean_linker_0, # of connection points: 2
#     Edge 70, Type (0, 1), BuildingBlock: ZUJKAS_clean_linker_0, # of connection points: 2
#     Edge 71, Type (0, 1), BuildingBlock: ZUJKAS_clean_linker_0, # of connection points: 2
#     Edge 72, Type (0, 1), BuildingBlock: ZUJKAS_clean_linker_0, # of connection points: 2
#     Edge 73, Type (0, 1), BuildingBlock: ZUJKAS_clean_linker_0, # of connection points: 2
#     Edge 74, Type (0, 1), BuildingBlock: ZUJKAS_clean_linker_0, # of connection points: 2
#     Edge 75, Type (0, 1), BuildingBlock: ZUJKAS_clean_linker_0, # of connection points: 2
#     Edge 76, Type (0, 1), BuildingBlock: ZUJKAS_clean_linker_0, # of connection points: 2
#     Edge 77, Type (0, 1), BuildingBlock: ZUJKAS_clean_linker_0, # of connection points: 2
#     Edge 78, Type (0, 1), BuildingBlock: ZUJKAS_clean_linker_0, # of connection points: 2
#     Edge 79, Type (0, 1), BuildingBlock: ZUJKAS_clean_linker_0, # of connection points: 2
#     Edge 80, Type (0, 1), BuildingBlock: ZUJKAS_clean_linker_0, # of connection points: 2
#     Edge 81, Type (0, 1), BuildingBlock: ZUJKAS_clean_linker_0, # of connection points: 2
#     Edge 82, Type (0, 1), BuildingBlock: ZUJKAS_clean_linker_0, # of connection points: 2
#     Edge 83, Type (0, 1), BuildingBlock: ZUJKAS_clean_linker_0, # of connection points: 2
#     Edge 84, Type (0, 1), BuildingBlock: ZUJKAS_clean_linker_0, # of connection points: 2
#     Edge 85, Type (0, 1), BuildingBlock: ZUJKAS_clean_linker_0, # of connection points: 2
#     Edge 86, Type (0, 1), BuildingBlock: ZUJKAS_clean_linker_0, # of connection points: 2
#     Edge 87, Type (0, 1), BuildingBlock: ZUJKAS_clean_linker_0, # of connection points: 2
#     Edge 88, Type (0, 1), BuildingBlock: ZUJKAS_clean_linker_0, # of connection points: 2
#     Edge 89, Type (0, 1), BuildingBlock: ZUJKAS_clean_linker_0, # of connection points: 2
#     Edge 90, Type (0, 1), BuildingBlock: ZUJKAS_clean_linker_0, # of connection points: 2
#     Edge 91, Type (0, 1), BuildingBlock: ZUJKAS_clean_linker_0, # of connection points: 2
#     Edge 92, Type (0, 1), BuildingBlock: ZUJKAS_clean_linker_0, # of connection points: 2
#     Edge 93, Type (0, 1), BuildingBlock: ZUJKAS_clean_linker_0, # of connection points: 2
#     Edge 94, Type (0, 1), BuildingBlock: ZUJKAS_clean_linker_0, # of connection points: 2
#     Edge 95, Type (0, 1), BuildingBlock: ZUJKAS_clean_linker_0, # of connection points: 2
#     Edge 96, Type (0, 1), BuildingBlock: ZUJKAS_clean_linker_0, # of connection points: 2
#     Edge 97, Type (0, 1), BuildingBlock: ZUJKAS_clean_linker_0, # of connection points: 2
#     Edge 98, Type (0, 1), BuildingBlock: ZUJKAS_clean_linker_0, # of connection points: 2
#     Edge 99, Type (0, 1), BuildingBlock: ZUJKAS_clean_linker_0, # of connection points: 2
#     Edge 100, Type (0, 1), BuildingBlock: ZUJKAS_clean_linker_0, # of connection points: 2
#     Edge 101, Type (0, 1), BuildingBlock: ZUJKAS_clean_linker_0, # of connection points: 2
#     Edge 102, Type (0, 1), BuildingBlock: ZUJKAS_clean_linker_0, # of connection points: 2
#     Edge 103, Type (0, 1), BuildingBlock: ZUJKAS_clean_linker_0, # of connection points: 2
#     Edge 104, Type (0, 1), BuildingBlock: ZUJKAS_clean_linker_0, # of connection points: 2
#     Edge 105, Type (0, 1), BuildingBlock: ZUJKAS_clean_linker_0, # of connection points: 2
#     Edge 106, Type (0, 1), BuildingBlock: ZUJKAS_clean_linker_0, # of connection points: 2
#     Edge 107, Type (0, 1), BuildingBlock: ZUJKAS_clean_linker_0, # of connection points: 2
#     Edge 108, Type (0, 1), BuildingBlock: ZUJKAS_clean_linker_0, # of connection points: 2
#     Edge 109, Type (0, 1), BuildingBlock: ZUJKAS_clean_linker_0, # of connection points: 2
#     Edge 110, Type (0, 1), BuildingBlock: ZUJKAS_clean_linker_0, # of connection points: 2
#     Edge 111, Type (0, 1), BuildingBlock: ZUJKAS_clean_linker_0, # of connection points: 2
#     Edge 112, Type (0, 1), BuildingBlock: ZUJKAS_clean_linker_0, # of connection points: 2
#     Edge 113, Type (0, 1), BuildingBlock: ZUJKAS_clean_linker_0, # of connection points: 2
#     Edge 114, Type (0, 1), BuildingBlock: ZUJKAS_clean_linker_0, # of connection points: 2
#     Edge 115, Type (0, 1), BuildingBlock: ZUJKAS_clean_linker_0, # of connection points: 2
#     Edge 116, Type (0, 1), BuildingBlock: ZUJKAS_clean_linker_0, # of connection points: 2
#     Edge 117, Type (0, 1), BuildingBlock: ZUJKAS_clean_linker_0, # of connection points: 2
#     Edge 118, Type (0, 1), BuildingBlock: ZUJKAS_clean_linker_0, # of connection points: 2
#     Edge 119, Type (0, 1), BuildingBlock: ZUJKAS_clean_linker_0, # of connection points: 2
# Relax obj value: 0.068
# Max RMSD: 0.121
# Mean RMSD: 0.061
data_MOF--net-bwt--node1-OLANEW_clean_sbu_2--node2-BETDAH_clean_linker_0--edge1-ZUJKAS_clean_linker_0
_symmetry_space_group_name_H-M    P1
_symmetry_Int_Tables_number       1
_symmetry_cell_setting            triclinic
loop_
_symmetry_equiv_pos_as_xyz
'x, y, z'
_cell_length_a     77.127516
_cell_length_b     77.082349
_cell_length_c     77.112566
_cell_angle_alpha  94.930451
_cell_angle_beta   94.932869
_cell_angle_gamma 94.943973
loop_
_atom_site_label
_atom_site_type_symbol
_atom_site_fract_x
_atom_site_fract_y
_atom_site_fract_z
_atom_type_partial_charge
O0 O 0.2849 0.55695 0.40544 0.0
Cd1 Cd 0.28861 0.57169 0.37891 0.0
O2 O 0.30635 0.5739 0.42057 0.0
Cd3 Cd 0.3142 0.58768 0.39852 0.0
O4 O 0.33009 0.60042 0.38032 0.0
C5 C 0.33189 0.59279 0.36539 0.0
O6 O 0.32335 0.57739 0.36066 0.0
C7 C 0.29416 0.56156 0.41981 0.0
C8 C 0.25642 0.57901 0.36327 0.0
O9 O 0.26308 0.56484 0.35871 0.0
O10 O 0.26507 0.58981 0.37513 0.0
O11 O 0.22212 0.39657 0.76383 0.0
Cd12 Cd 0.21464 0.37913 0.73569 0.0
O13 O 0.21887 0.37379 0.779 0.0
Cd14 Cd 0.20676 0.35728 0.75607 0.0
O15 O 0.1839 0.35169 0.73712 0.0
C16 C 0.17284 0.3629 0.7386 0.0
O17 O 0.17636 0.37615 0.75066 0.0
C18 C 0.22314 0.39003 0.77845 0.0
C19 C 0.24455 0.3771 0.71805 0.0
O20 O 0.23399 0.38869 0.71505 0.0
O21 O 0.24077 0.36624 0.72915 0.0
O22 O 0.71652 0.02773 0.59545 0.0
Cd23 Cd 0.72674 0.03471 0.62637 0.0
O24 O 0.71955 0.99972 0.59659 0.0
Cd25 Cd 0.73224 0.00321 0.6232 0.0
O26 O 0.75169 0.00666 0.6458 0.0
C27 C 0.76373 0.01911 0.64646 0.0
O28 O 0.76353 0.02967 0.63396 0.0
C29 C 0.71492 0.01222 0.58803 0.0
C30 C 0.69887 0.0325 0.64706 0.0
O31 O 0.70424 0.04704 0.64151 0.0
O32 O 0.70678 0.019 0.64293 0.0
O33 O 0.79829 0.00673 0.23702 0.0
Cd34 Cd 0.80962 0.01632 0.26716 0.0
O35 O 0.77237 0.01175 0.24472 0.0
Cd36 Cd 0.74405 0.01062 0.23937 0.0
O37 O 0.71589 0.0064 0.23304 0.0
C38 C 0.70936 0.99376 0.22211 0.0
O39 O 0.71985 0.9835 0.21461 0.0
C40 C 0.78201 0.00692 0.23298 0.0
C41 C 0.84259 0.0053 0.27479 0.0
O42 O 0.82873 0.99582 0.27739 0.0
O43 O 0.84082 0.02005 0.26867 0.0
O44 O 0.39473 0.29667 0.55785 0.0
Cd45 Cd 0.36693 0.30074 0.5701 0.0
O46 O 0.40951 0.29879 0.58377 0.0
Cd47 Cd 0.38752 0.30797 0.59678 0.0
O48 O 0.36788 0.32537 0.60398 0.0
C49 C 0.37296 0.3416 0.60602 0.0
O50 O 0.38942 0.34657 0.60435 0.0
C51 C 0.409 0.29591 0.56723 0.0
C52 C 0.3516 0.26854 0.57788 0.0
O53 O 0.34784 0.27441 0.5631 0.0
O54 O 0.3624 0.27803 0.58912 0.0
O55 O 0.24771 0.79537 0.99923 0.0
Cd56 Cd 0.27868 0.80381 0.00785 0.0
O57 O 0.25306 0.76788 0.99706 0.0
Cd58 Cd 0.24635 0.73984 0.99065 0.0
O59 O 0.24087 0.71152 0.98677 0.0
C60 C 0.22857 0.70416 0.97589 0.0
O61 O 0.21885 0.71387 0.96665 0.0
C62 C 0.2422 0.77933 0.99592 0.0
C63 C 0.28667 0.83851 0.00176 0.0
O64 O 0.28782 0.82603 0.98994 0.0
O65 O 0.28204 0.83454 0.0166 0.0
O66 O 0.75747 0.22098 0.40304 0.0
Cd67 Cd 0.72798 0.21551 0.38808 0.0
O68 O 0.76935 0.2071 0.38164 0.0
Cd69 Cd 0.7443 0.19508 0.36897 0.0
O70 O 0.72594 0.17169 0.36343 0.0
C71 C 0.72471 0.16223 0.37606 0.0
O72 O 0.73354 0.16768 0.39116 0.0
C73 C 0.771 0.21642 0.39622 0.0
C74 C 0.71475 0.24758 0.38376 0.0
O75 O 0.7117 0.23926 0.39704 0.0
O76 O 0.72373 0.24053 0.3723 0.0
O77 O 0.59478 0.72906 0.03571 0.0
Cd78 Cd 0.62636 0.73652 0.03753 0.0
O79 O 0.59212 0.73191 0.0075 0.0
Cd80 Cd 0.61801 0.74599 0.00798 0.0
O81 O 0.63738 0.76856 0.00876 0.0
C82 C 0.63885 0.77973 0.02204 0.0
O83 O 0.62941 0.77677 0.03506 0.0
C84 C 0.58543 0.72742 0.02115 0.0
C85 C 0.64197 0.70539 0.03226 0.0
O86 O 0.63991 0.71202 0.04769 0.0
O87 O 0.63707 0.71375 0.01931 0.0
O88 O 0.526 0.40945 0.28616 0.0
Cd89 Cd 0.53469 0.37994 0.28902 0.0
O90 O 0.55024 0.42199 0.30078 0.0
Cd91 Cd 0.55947 0.39749 0.30849 0.0
O92 O 0.56823 0.37709 0.32428 0.0
C93 C 0.55732 0.36509 0.32825 0.0
O94 O 0.54086 0.36469 0.32207 0.0
C95 C 0.53568 0.42324 0.2921 0.0
C96 C 0.54945 0.36693 0.25931 0.0
O97 O 0.53294 0.3647 0.26045 0.0
O98 O 0.55905 0.37527 0.27229 0.0
O99 O 0.97636 0.24626 0.79291 0.0
Cd100 Cd 0.98101 0.27702 0.8042 0.0
O101 O 0.97245 0.25328 0.76601 0.0
Cd102 Cd 0.96624 0.24796 0.73775 0.0
O103 O 0.96242 0.2444 0.70928 0.0
C104 C 0.9629 0.22946 0.70107 0.0
O105 O 0.96546 0.21597 0.70998 0.0
C106 C 0.97339 0.24159 0.77665 0.0
C107 C 0.98499 0.27948 0.84059 0.0
O108 O 0.96993 0.27975 0.83222 0.0
O109 O 0.99824 0.27836 0.83173 0.0
O110 O 0.42498 0.75695 0.22504 0.0
Cd111 Cd 0.41053 0.72749 0.21622 0.0
O112 O 0.4008 0.7683 0.23138 0.0
Cd113 Cd 0.38474 0.74497 0.21961 0.0
O114 O 0.37677 0.7277 0.19589 0.0
C115 C 0.38428 0.73244 0.18281 0.0
O116 O 0.39539 0.74655 0.18498 0.0
C117 C 0.41729 0.76993 0.23083 0.0
C118 C 0.40517 0.70874 0.24498 0.0
O119 O 0.41877 0.70721 0.23673 0.0
O120 O 0.3941 0.719 0.23956 0.0
O121 O 0.03452 0.59013 0.71799 0.0
Cd122 Cd 0.03794 0.62107 0.72901 0.0
O123 O 0.006 0.58829 0.71896 0.0
Cd124 Cd 0.00647 0.61424 0.73283 0.0
O125 O 0.00849 0.63642 0.75275 0.0
C126 C 0.02016 0.63677 0.76549 0.0
O127 O 0.0306 0.62418 0.76577 0.0
C128 C 0.01968 0.58131 0.71504 0.0
C129 C 0.03405 0.64211 0.70151 0.0
O130 O 0.04918 0.63833 0.70739 0.0
O131 O 0.02074 0.63607 0.70875 0.0
O132 O 0.74115 0.46252 0.61369 0.0
Cd133 Cd 0.74923 0.45677 0.64383 0.0
O134 O 0.71386 0.45971 0.61952 0.0
Cd135 Cd 0.68548 0.45936 0.61461 0.0
O136 O 0.65704 0.45592 0.61356 0.0
C137 C 0.65032 0.45111 0.62705 0.0
O138 O 0.66072 0.44865 0.64086 0.0
C139 C 0.72502 0.46222 0.60855 0.0
C140 C 0.77854 0.438 0.64574 0.0
O141 O 0.76314 0.43008 0.64265 0.0
O142 O 0.78002 0.45475 0.64807 0.0
O143 O 0.75462 0.6034 0.22891 0.0
Cd144 Cd 0.75652 0.6237 0.25528 0.0
O145 O 0.78135 0.59651 0.23448 0.0
Cd146 Cd 0.8057 0.58522 0.22942 0.0
O147 O 0.83337 0.58094 0.23017 0.0
C148 C 0.84282 0.58749 0.21922 0.0
O149 O 0.83551 0.59612 0.20702 0.0
C150 C 0.76711 0.59471 0.22461 0.0
C151 C 0.72308 0.63224 0.26156 0.0
O152 O 0.73244 0.64123 0.25197 0.0
O153 O 0.72968 0.61944 0.26842 0.0
O154 O 0.3206 0.07696 0.38177 0.0
Cd155 Cd 0.31997 0.08564 0.35206 0.0
O156 O 0.301 0.0554 0.37176 0.0
Cd157 Cd 0.28286 0.03225 0.37308 0.0
O158 O 0.26006 0.01306 0.36991 0.0
C159 C 0.25255 0.00914 0.35458 0.0
O160 O 0.25922 0.01626 0.34145 0.0
C161 C 0.31054 0.06376 0.38458 0.0
C162 C 0.34435 0.06939 0.33344 0.0
O163 O 0.3482 0.08461 0.34163 0.0
O164 O 0.32893 0.06192 0.33401 0.0
O165 O 0.21683 0.99545 0.73875 0.0
Cd166 Cd 0.20146 0.98805 0.7097 0.0
O167 O 0.23922 0.00914 0.72831 0.0
Cd168 Cd 0.26596 0.02167 0.73071 0.0
O169 O 0.29402 0.02936 0.7339 0.0
C170 C 0.3024 0.02893 0.74876 0.0
O171 O 0.29381 0.02428 0.76186 0.0
C172 C 0.23174 0.00413 0.74133 0.0
C173 C 0.16608 0.99231 0.71109 0.0
O174 O 0.17213 0.97779 0.71418 0.0
O175 O 0.17673 0.0047 0.70706 0.0
O176 O 0.61939 0.71718 0.4512 0.0
Cd177 Cd 0.64836 0.71763 0.44053 0.0
O178 O 0.6221 0.69431 0.46609 0.0
Cd179 Cd 0.64775 0.68929 0.45799 0.0
O180 O 0.66522 0.67062 0.44835 0.0
C181 C 0.66138 0.66315 0.43299 0.0
O182 O 0.64806 0.668 0.42337 0.0
C183 C 0.61311 0.70635 0.46108 0.0
C184 C 0.65583 0.74906 0.42605 0.0
O185 O 0.64756 0.73581 0.41681 0.0
O186 O 0.66084 0.74733 0.44204 0.0
O187 O 0.76786 0.24161 0.03339 0.0
Cd188 Cd 0.73623 0.23952 0.02623 0.0
O189 O 0.76741 0.25426 0.06 0.0
Cd190 Cd 0.74112 0.26212 0.05457 0.0
O191 O 0.72763 0.28547 0.05063 0.0
C192 C 0.73411 0.29906 0.06032 0.0
O193 O 0.74717 0.29761 0.07206 0.0
C194 C 0.77577 0.24712 0.04825 0.0
C195 C 0.72418 0.20407 0.02277 0.0
O196 O 0.72916 0.21165 0.00965 0.0
O197 O 0.7244 0.21338 0.03739 0.0
O198 O 0.24458 0.76135 0.6074 0.0
Cd199 Cd 0.27132 0.75905 0.62611 0.0
O200 O 0.25222 0.78856 0.60308 0.0
Cd201 Cd 0.24858 0.81445 0.59457 0.0
O202 O 0.24824 0.84193 0.58983 0.0
C203 C 0.23481 0.85 0.59212 0.0
O204 O 0.22082 0.84144 0.59695 0.0
C205 C 0.24118 0.77515 0.60039 0.0
C206 C 0.2724 0.72442 0.63369 0.0
O207 O 0.26535 0.73539 0.64367 0.0
O208 O 0.27925 0.72996 0.62038 0.0
O209 O 0.38964 0.3166 0.07283 0.0
Cd210 Cd 0.36109 0.31774 0.084 0.0
O211 O 0.37681 0.29899 0.0508 0.0
Cd212 Cd 0.37496 0.28216 0.02629 0.0
O213 O 0.36887 0.25991 0.00662 0.0
C214 C 0.35291 0.25431 0.00278 0.0
O215 O 0.34087 0.26263 0.01015 0.0
C216 C 0.39069 0.30716 0.05869 0.0
C217 C 0.34277 0.34272 0.06839 0.0
O218 O 0.35191 0.34654 0.08313 0.0
O219 O 0.34218 0.32705 0.06117 0.0
O220 O 0.46396 0.62293 0.74337 0.0
Cd221 Cd 0.46136 0.65307 0.75465 0.0
O222 O 0.45943 0.63205 0.71748 0.0
Cd223 Cd 0.45644 0.63098 0.68898 0.0
O224 O 0.45052 0.63437 0.66142 0.0
C225 C 0.43709 0.62604 0.65287 0.0
O226 O 0.42721 0.61505 0.66076 0.0
C227 C 0.46194 0.61955 0.72687 0.0
C228 C 0.44263 0.65416 0.78395 0.0
O229 O 0.43471 0.65303 0.76854 0.0
O230 O 0.45936 0.65487 0.78546 0.0
O231 O 0.00799 0.73485 0.21864 0.0
Cd232 Cd 0.00064 0.70564 0.20355 0.0
O233 O 0.01711 0.7244 0.24303 0.0
Cd234 Cd 0.02513 0.72703 0.27112 0.0
O235 O 0.02841 0.72991 0.29965 0.0
C236 C 0.03379 0.74462 0.30794 0.0
O237 O 0.0378 0.75798 0.29909 0.0
C238 C 0.01434 0.73744 0.2345 0.0
C239 C 0.00191 0.70703 0.16768 0.0
O240 O 0.98789 0.70964 0.1749 0.0
O241 O 0.01524 0.70351 0.17741 0.0
O242 O 0.6069 0.24299 0.75744 0.0
Cd243 Cd 0.62835 0.26708 0.75301 0.0
O244 O 0.61192 0.24779 0.78595 0.0
Cd245 Cd 0.60768 0.24392 0.81313 0.0
O246 O 0.60588 0.24575 0.84137 0.0
C247 C 0.61623 0.25721 0.85081 0.0
O248 O 0.62747 0.26711 0.84322 0.0
C249 C 0.60381 0.23891 0.77257 0.0
C250 C 0.63313 0.26757 0.71758 0.0
O251 O 0.64282 0.25911 0.72752 0.0
O252 O 0.62135 0.2759 0.72445 0.0
O253 O 0.08816 0.39469 0.33271 0.0
Cd254 Cd 0.10312 0.36918 0.33968 0.0
O255 O 0.0709 0.37757 0.31324 0.0
Cd256 Cd 0.04985 0.36991 0.29244 0.0
O257 O 0.03544 0.35875 0.26786 0.0
C258 C 0.0379 0.34318 0.26253 0.0
O259 O 0.04833 0.33456 0.27228 0.0
C260 C 0.07554 0.3928 0.32078 0.0
C261 C 0.08346 0.34808 0.3597 0.0
O262 O 0.09499 0.36008 0.36695 0.0
O263 O 0.0813 0.34602 0.34296 0.0
H264 H 0.26235 0.54963 0.58946 0.0
H265 H 0.26217 0.49442 0.59362 0.0
H266 H 0.25081 0.52861 0.63752 0.0
C267 C 0.26053 0.53853 0.59706 0.0
C268 C 0.25627 0.5412 0.61435 0.0
C269 C 0.26264 0.52173 0.58947 0.0
C270 C 0.26049 0.5074 0.59941 0.0
C271 C 0.25632 0.50991 0.61684 0.0
C272 C 0.25406 0.52676 0.62413 0.0
N273 N 0.25457 0.49579 0.62742 0.0
C274 C 0.26265 0.48055 0.62436 0.0
H275 H 0.26137 0.45768 0.95236 0.0
H276 H 0.22806 0.49928 0.94803 0.0
H277 H 0.24318 0.48281 0.99854 0.0
C278 C 0.25432 0.46769 0.95859 0.0
C279 C 0.25372 0.469 0.9768 0.0
C280 C 0.24509 0.47851 0.94815 0.0
C281 C 0.23534 0.49101 0.95607 0.0
C282 C 0.23471 0.49254 0.97431 0.0
C283 C 0.24372 0.48143 0.9845 0.0
N284 N 0.22488 0.50486 0.9828 0.0
C285 C 0.22134 0.52052 0.97624 0.0
H286 H 0.67057 0.93044 0.41861 0.0
H287 H 0.66881 0.97793 0.39365 0.0
H288 H 0.66683 0.92862 0.36245 0.0
C289 C 0.66971 0.93705 0.40677 0.0
C290 C 0.66865 0.92722 0.39044 0.0
C291 C 0.66991 0.95534 0.40803 0.0
C292 C 0.6689 0.96386 0.39266 0.0
C293 C 0.66775 0.95423 0.37616 0.0
C294 C 0.66749 0.93595 0.37517 0.0
N295 N 0.66706 0.96253 0.36038 0.0
C296 C 0.66962 0.98057 0.35998 0.0
H297 H 0.72052 0.0262 0.0603 0.0
H298 H 0.71624 0.97127 0.04328 0.0
H299 H 0.70174 0.00813 0.00714 0.0
C300 C 0.71712 0.01558 0.05012 0.0
C301 C 0.71096 0.01936 0.03331 0.0
C302 C 0.71914 0.99829 0.05388 0.0
C303 C 0.71454 0.9846 0.04059 0.0
C304 C 0.70826 0.98818 0.0237 0.0
C305 C 0.70666 0.00552 0.02016 0.0
N306 N 0.70359 0.97471 0.00992 0.0
C307 C 0.70197 0.957 0.01231 0.0
H308 H 0.5806 0.26847 0.54612 0.0
H309 H 0.58067 0.27251 0.49098 0.0
H310 H 0.62704 0.25981 0.52071 0.0
C311 C 0.5874 0.2677 0.53438 0.0
C312 C 0.60481 0.2636 0.53539 0.0
C313 C 0.57863 0.2709 0.51846 0.0
C314 C 0.58746 0.27004 0.50328 0.0
C315 C 0.60505 0.26619 0.5041 0.0
C316 C 0.61356 0.26289 0.52015 0.0
N317 N 0.61454 0.26565 0.4891 0.0
C318 C 0.60884 0.27228 0.47363 0.0
H319 H 0.06098 0.73469 -8e-05 0.0
H320 H 0.0491 0.74166 0.94562 0.0
H321 H 0.00743 0.733 0.97838 0.0
C322 C 0.05143 0.7351 0.98883 0.0
C323 C 0.03353 0.73313 0.99117 0.0
C324 C 0.05718 0.73823 0.97249 0.0
C325 C 0.04476 0.73932 0.95828 0.0
C326 C 0.02679 0.73749 0.96047 0.0
C327 C 0.02131 0.73463 0.97691 0.0
N328 N 0.0139 0.7384 0.94638 0.0
C329 C 0.01682 0.73458 0.929 0.0
H330 H 0.95291 0.25354 0.45136 0.0
H331 H 0.94589 0.22145 0.49369 0.0
H332 H 0.9974 0.2344 0.47856 0.0
C333 C 0.95837 0.24616 0.46152 0.0
C334 C 0.97651 0.24524 0.46379 0.0
C335 C 0.9472 0.23752 0.47215 0.0
C336 C 0.95439 0.22812 0.48539 0.0
C337 C 0.97255 0.22709 0.48773 0.0
C338 C 0.98344 0.23544 0.47678 0.0
N339 N 0.98021 0.21761 0.50086 0.0
C340 C 0.97365 0.21648 0.51697 0.0
H341 H 0.41661 0.66259 0.95412 0.0
H342 H 0.39407 0.66303 0.00309 0.0
H343 H 0.36214 0.64562 0.95504 0.0
C344 C 0.40538 0.66013 0.96141 0.0
C345 C 0.38926 0.65355 0.95245 0.0
C346 C 0.40716 0.66371 0.97964 0.0
C347 C 0.39261 0.66036 0.989 0.0
C348 C 0.37624 0.6539 0.98013 0.0
C349 C 0.37469 0.65059 0.96187 0.0
N350 N 0.36113 0.65079 0.98916 0.0
C351 C 0.36083 0.65566 0.00688 0.0
H352 H 0.54504 0.59778 0.27171 0.0
H353 H 0.49119 0.60829 0.27155 0.0
H354 H 0.53138 0.65065 0.27139 0.0
C355 C 0.53519 0.607 0.27158 0.0
C356 C 0.54039 0.6249 0.2717 0.0
C357 C 0.5175 0.60083 0.27136 0.0
C358 C 0.50487 0.61294 0.27167 0.0
C359 C 0.5099 0.63096 0.27157 0.0
C360 C 0.52759 0.63677 0.27129 0.0
N361 N 0.49754 0.64359 0.27177 0.0
C362 C 0.48106 0.6406 0.2775 0.0
H363 H -0.00044 0.06048 0.73646 0.0
H364 H 0.94539 0.04807 0.74363 0.0
H365 H 0.97917 0.00689 0.73795 0.0
C366 C 0.98868 0.05084 0.73739 0.0
C367 C 0.99144 0.03301 0.7366 0.0
C368 C 0.97214 0.0564 0.73998 0.0
C369 C 0.9582 0.04388 0.74173 0.0
C370 C 0.9608 0.02601 0.74108 0.0
C371 C 0.97741 0.02072 0.73871 0.0
N372 N 0.94697 0.01302 0.74266 0.0
C373 C 0.92948 0.0156 0.73909 0.0
H374 H 0.46108 0.95169 0.25533 0.0
H375 H 0.50652 0.94971 0.22674 0.0
H376 H 0.48537 0.9987 0.23807 0.0
C377 C 0.47147 0.95831 0.24906 0.0
C378 C 0.47186 0.97643 0.24802 0.0
C379 C 0.48388 0.94851 0.24142 0.0
C380 C 0.49689 0.95712 0.23268 0.0
C381 C 0.49726 0.97524 0.23138 0.0
C382 C 0.48473 0.98471 0.23895 0.0
N383 N 0.50986 0.98438 0.22233 0.0
C384 C 0.52585 0.97845 0.21903 0.0
H385 H 0.94956 0.41217 0.65438 0.0
H386 H 0.99805 0.3887 0.65672 0.0
H387 H 0.94964 0.35691 0.64071 0.0
C388 C 0.95666 0.40069 0.65264 0.0
C389 C 0.94745 0.38444 0.64693 0.0
C390 C 0.97487 0.40229 0.65633 0.0
C391 C 0.98398 0.3874 0.65399 0.0
C392 C 0.97488 0.37091 0.64848 0.0
C393 C 0.95664 0.36957 0.64497 0.0
N394 N 0.98362 0.35547 0.64655 0.0
C395 C 0.00113 0.35486 0.65225 0.0
H396 H 0.69058 0.42518 0.42638 0.0
H397 H 0.69802 0.47893 0.41584 0.0
H398 H 0.69577 0.43803 0.37376 0.0
C399 C 0.69191 0.43487 0.41707 0.0
C400 C 0.69257 0.42938 0.39933 0.0
C401 C 0.69391 0.45269 0.42312 0.0
C402 C 0.69649 0.46519 0.41116 0.0
C403 C 0.6971 0.4599 0.39327 0.0
C404 C 0.69525 0.44203 0.38752 0.0
N405 N 0.69967 0.4722 0.38079 0.0
C406 C 0.69989 0.49015 0.38474 0.0
H407 H 0.71563 0.54873 0.05677 0.0
H408 H 0.71694 0.49305 0.04938 0.0
H409 H 0.6909 0.52001 0.00959 0.0
C410 C 0.7127 0.53652 0.04856 0.0
C411 C 0.70299 0.53641 0.0323 0.0
C412 C 0.71791 0.521 0.05479 0.0
C413 C 0.71302 0.50505 0.0446 0.0
C414 C 0.70323 0.50468 0.02825 0.0
C415 C 0.69837 0.52038 0.02219 0.0
N416 N 0.69791 0.48883 0.01759 0.0
C417 C 0.70053 0.47229 0.02262 0.0
H418 H 0.30526 0.08861 0.56219 0.0
H419 H 0.27358 0.04176 0.56974 0.0
H420 H 0.27689 0.08669 0.60765 0.0
C421 C 0.29695 0.08128 0.57019 0.0
C422 C 0.29221 0.08954 0.58575 0.0
C423 C 0.29015 0.06413 0.56423 0.0
C424 C 0.27885 0.05499 0.57435 0.0
C425 C 0.2742 0.06304 0.5902 0.0
C426 C 0.28068 0.0804 0.59562 0.0
N427 N 0.26293 0.05413 0.60084 0.0
C428 C 0.25823 0.03622 0.59837 0.0
H429 H 0.29063 0.00104 0.92136 0.0
H430 H 0.29759 0.05729 0.92892 0.0
H431 H 0.30142 0.02715 0.97319 0.0
C432 C 0.29332 0.01302 0.92996 0.0
C433 C 0.29622 0.01206 0.94806 0.0
C434 C 0.29372 0.02926 0.92289 0.0
C435 C 0.29714 0.04472 0.93423 0.0
C436 C 0.29998 0.04389 0.9524 0.0
C437 C 0.29945 0.02761 0.95915 0.0
N438 N 0.30325 0.05907 0.96439 0.0
C439 C 0.30608 0.07599 0.95968 0.0
H440 H 0.4356 0.66937 0.4171 0.0
H441 H 0.42017 0.6706 0.46928 0.0
H442 H 0.38111 0.66181 0.42523 0.0
C443 C 0.42542 0.668 0.42589 0.0
C444 C 0.40789 0.66501 0.41897 0.0
C445 C 0.42992 0.67017 0.444 0.0
C446 C 0.41665 0.66901 0.45531 0.0
C447 C 0.39897 0.66582 0.44856 0.0
C448 C 0.3947 0.66411 0.43041 0.0
N449 N 0.38524 0.66426 0.45964 0.0
C450 C 0.38816 0.66241 0.47739 0.0
H451 H 0.95334 0.26313 0.0179 0.0
H452 H 0.97139 0.26588 0.07249 0.0
H453 H 0.00848 0.26836 0.03402 0.0
C454 C 0.96399 0.26422 0.02818 0.0
C455 C 0.98131 0.26586 0.0238 0.0
C456 C 0.96027 0.26417 0.0457 0.0
C457 C 0.97417 0.26574 0.05895 0.0
C458 C 0.99159 0.2673 0.05471 0.0
C459 C 0.99503 0.26722 0.03718 0.0
N460 N 0.00596 0.2691 0.06773 0.0
C461 C 0.00447 0.2737 0.08531 0.0
H462 H 0.0695 0.74112 0.56221 0.0
H463 H 0.05749 0.76109 0.51264 0.0
H464 H 0.01709 0.73299 0.53724 0.0
C465 C 0.0601 0.74293 0.55138 0.0
C466 C 0.04275 0.73586 0.55133 0.0
C467 C 0.0655 0.75224 0.53761 0.0
C468 C 0.05337 0.75402 0.52335 0.0
C469 C 0.03582 0.74714 0.52327 0.0
C470 C 0.03057 0.73839 0.53742 0.0
N471 N 0.02311 0.74876 0.50921 0.0
C472 C 0.02723 0.75234 0.49262 0.0
H473 H 0.5618 0.31653 0.08636 0.0
H474 H 0.5815 0.29466 0.03975 0.0
H475 H 0.61579 0.30641 0.08725 0.0
C476 C 0.57267 0.31229 0.07959 0.0
C477 C 0.58916 0.31262 0.08888 0.0
C478 C 0.5698 0.30585 0.06191 0.0
C479 C 0.58372 0.29963 0.0534 0.0
C480 C 0.60041 0.29989 0.06253 0.0
C481 C 0.60296 0.30623 0.08027 0.0
N482 N 0.61486 0.29392 0.05428 0.0
C483 C 0.61442 0.28941 0.0364 0.0
H484 H 0.41135 0.43824 0.67528 0.0
H485 H 0.45698 0.43537 0.64724 0.0
H486 H 0.41996 0.39013 0.64615 0.0
C487 C 0.41927 0.43085 0.66696 0.0
C488 C 0.41379 0.41327 0.66137 0.0
C489 C 0.43476 0.43901 0.66185 0.0
C490 C 0.44508 0.42915 0.65134 0.0
C491 C 0.43976 0.41146 0.6457 0.0
C492 C 0.424 0.40374 0.65052 0.0
N493 N 0.44997 0.40112 0.63521 0.0
C494 C 0.46726 0.40619 0.63285 0.0
H495 H 0.00202 0.91516 0.29423 0.0
H496 H 0.05663 0.92344 0.31272 0.0
H497 H 0.02442 0.96616 0.31611 0.0
C498 C 0.01316 0.9237 0.30037 0.0
C499 C 0.01116 0.94138 0.30492 0.0
C500 C 0.02948 0.91705 0.30317 0.0
C501 C 0.04404 0.92846 0.31039 0.0
C502 C 0.04216 0.94623 0.31497 0.0
C503 C 0.02576 0.95251 0.31228 0.0
N504 N 0.05634 0.95822 0.32249 0.0
C505 C 0.07363 0.95447 0.32446 0.0
H506 H 0.56032 0.06821 0.74901 0.0
H507 H 0.50707 0.05886 0.76059 0.0
H508 H 0.53334 0.01673 0.73765 0.0
C509 C 0.54885 0.05914 0.7495 0.0
C510 C 0.54881 0.04168 0.74263 0.0
C511 C 0.53392 0.06539 0.75608 0.0
C512 C 0.51864 0.054 0.75565 0.0
C513 C 0.5185 0.03634 0.74909 0.0
C514 C 0.5336 0.03031 0.74274 0.0
N515 N 0.50343 0.02429 0.74852 0.0
C516 C 0.48684 0.02904 0.75125 0.0
H517 H 0.07898 0.56154 0.30524 0.0
H518 H 0.03357 0.57041 0.27214 0.0
H519 H 0.07737 0.6098 0.2814 0.0
C520 C 0.07187 0.57008 0.29737 0.0
C521 C 0.08 0.58644 0.29458 0.0
C522 C 0.05521 0.56414 0.2892 0.0
C523 C 0.0464 0.57503 0.27848 0.0
C524 C 0.05428 0.59168 0.27584 0.0
C525 C 0.07118 0.59714 0.28367 0.0
N526 N 0.04564 0.60313 0.26527 0.0
C527 C 0.02807 0.60024 0.2591 0.0
H528 H 0.23711 0.60583 0.37283 0.0
H529 H 0.20744 0.61032 0.3612 0.0
H530 H 0.20688 0.56498 0.3242 0.0
H531 H 0.23635 0.56017 0.33596 0.0
H532 H 0.1927 0.61553 0.32805 0.0
H533 H 0.16412 0.55363 0.35014 0.0
H534 H 0.18614 0.56281 0.3573 0.0
H535 H 0.18132 0.55061 0.33622 0.0
C536 C 0.2307 0.59685 0.36217 0.0
C537 C 0.239 0.58252 0.35545 0.0
C538 C 0.21377 0.59946 0.35552 0.0
C539 C 0.20486 0.5878 0.34206 0.0
C540 C 0.21338 0.57391 0.33485 0.0
H541 H 0.10852 0.59656 0.278 0.0
H542 H 0.13916 0.59935 0.29018 0.0
C543 C 0.23025 0.57122 0.34155 0.0
C544 C 0.18644 0.58978 0.33595 0.0
H545 H 0.14552 0.56834 0.33148 0.0
C546 C 0.18234 0.60527 0.32886 0.0
C547 C 0.17291 0.5765 0.33732 0.0
C548 C 0.17627 0.56003 0.34581 0.0
C549 C 0.16508 0.60767 0.32273 0.0
C550 C 0.15169 0.59408 0.32346 0.0
C551 C 0.15579 0.57874 0.33084 0.0
C552 C 0.13328 0.59518 0.31656 0.0
C553 C 0.16135 0.6248 0.31577 0.0
C554 C 0.11978 0.59205 0.32733 0.0
C555 C 0.10235 0.59021 0.32034 0.0
C556 C 0.09808 0.59158 0.30247 0.0
C557 C 0.1115 0.59569 0.29187 0.0
C558 C 0.12899 0.59733 0.29884 0.0
H559 H 0.17158 0.63547 0.32094 0.0
H560 H 0.16119 0.62338 0.30132 0.0
H561 H 0.14845 0.62869 0.31919 0.0
H562 H 0.12277 0.59035 0.34103 0.0
H563 H 0.09221 0.58707 0.32877 0.0
H564 H 0.27279 0.35955 0.72706 0.0
H565 H 0.30146 0.36234 0.71571 0.0
H566 H 0.28231 0.3966 0.67857 0.0
H567 H 0.25377 0.39435 0.69022 0.0
H568 H 0.31403 0.35623 0.68329 0.0
H569 H 0.32259 0.42695 0.70633 0.0
H570 H 0.30501 0.41239 0.71235 0.0
H571 H 0.30357 0.4208 0.69127 0.0
C572 C 0.27463 0.36755 0.71636 0.0
C573 C 0.26112 0.37697 0.70972 0.0
C574 C 0.29101 0.36909 0.70987 0.0
C575 C 0.29411 0.37998 0.69658 0.0
C576 C 0.28031 0.38848 0.68915 0.0
H577 H 0.38735 0.39341 0.64096 0.0
H578 H 0.35866 0.38303 0.64955 0.0
C579 C 0.264 0.38713 0.69578 0.0
C580 C 0.31204 0.38339 0.69135 0.0
H581 H 0.34428 0.41619 0.68958 0.0
C582 C 0.32071 0.36931 0.68473 0.0
C583 C 0.32078 0.40045 0.69342 0.0
C584 C 0.3126 0.41599 0.70138 0.0
C585 C 0.33785 0.37191 0.67991 0.0
C586 C 0.34637 0.38905 0.68158 0.0
C587 C 0.33771 0.40306 0.68828 0.0
C588 C 0.36437 0.39301 0.67672 0.0
C589 C 0.34668 0.35632 0.67315 0.0
C590 C 0.37714 0.40188 0.68917 0.0
C591 C 0.39343 0.40787 0.68429 0.0
C592 C 0.39726 0.40512 0.66684 0.0
C593 C 0.38476 0.39557 0.65452 0.0
C594 C 0.36839 0.38962 0.65941 0.0
H595 H 0.34039 0.34391 0.67703 0.0
H596 H 0.34569 0.35547 0.65865 0.0
H597 H 0.36075 0.35758 0.67802 0.0
H598 H 0.37432 0.4046 0.70261 0.0
H599 H 0.40292 0.41498 0.69411 0.0
H600 H 0.68179 0.05929 0.66075 0.0
H601 H 0.65651 0.05734 0.67775 0.0
H602 H 0.65616 0.00114 0.67393 0.0
H603 H 0.68175 0.00301 0.65725 0.0
H604 H 0.62423 0.04109 0.66774 0.0
H605 H 0.65353 0.01265 0.72591 0.0
H606 H 0.66656 0.02175 0.70995 0.0
H607 H 0.65532 0.0002 0.70548 0.0
C608 C 0.67643 0.04652 0.66363 0.0
C609 C 0.68381 0.03131 0.6577 0.0
C610 C 0.66197 0.04542 0.67334 0.0
C611 C 0.65458 0.02911 0.6773 0.0
C612 C 0.66188 0.01389 0.67137 0.0
H613 H 0.54929 0.02067 0.71216 0.0
H614 H 0.5747 0.01476 0.69646 0.0
C615 C 0.67644 0.01498 0.66174 0.0
C616 C 0.63882 0.02816 0.68704 0.0
H617 H 0.62311 0.0155 0.72455 0.0
C618 C 0.62396 0.03545 0.68014 0.0
C619 C 0.63856 0.02089 0.70327 0.0
C620 C 0.65438 0.01356 0.71171 0.0
C621 C 0.60893 0.03593 0.68912 0.0
C622 C 0.60858 0.02847 0.70525 0.0
C623 C 0.62336 0.021 0.71208 0.0
C624 C 0.59347 0.02961 0.71582 0.0
C625 C 0.59385 0.04504 0.68156 0.0
C626 C 0.59573 0.03899 0.73239 0.0
C627 C 0.58129 0.04209 0.74155 0.0
C628 C 0.56429 0.03593 0.73428 0.0
C629 C 0.56219 0.02558 0.71817 0.0
C630 C 0.57668 0.02237 0.70906 0.0
H631 H 0.59782 0.05356 0.6714 0.0
H632 H 0.58338 0.03509 0.67538 0.0
H633 H 0.58831 0.05316 0.69193 0.0
H634 H 0.60861 0.04454 0.73793 0.0
H635 H 0.5834 0.04979 0.7541 0.0
H636 H 0.85049 0.9749 0.28811 0.0
H637 H 0.87943 0.96474 0.2938 0.0
H638 H 0.90312 0.01158 0.27533 0.0
H639 H 0.87427 0.02198 0.2698 0.0
H640 H 0.90372 0.95854 0.26957 0.0
H641 H 0.93105 0.00933 0.32264 0.0
H642 H 0.90796 0.00564 0.31571 0.0
H643 H 0.92238 0.01777 0.30303 0.0
C644 C 0.86186 0.98311 0.28536 0.0
C645 C 0.86009 0.99928 0.27856 0.0
C646 C 0.87838 0.97727 0.28861 0.0
C647 C 0.89341 0.98752 0.2852 0.0
C648 C 0.8917 0.00364 0.27838 0.0
H649 H 0.00385 0.97216 0.29192 0.0
H650 H 0.97521 0.98326 0.28696 0.0
C651 C 0.87519 0.00951 0.27514 0.0
C652 C 0.9108 0.98101 0.2882 0.0
H653 H 0.95073 0.99014 0.31144 0.0
C654 C 0.91399 0.96539 0.27878 0.0
C655 C 0.92416 0.99005 0.30017 0.0
C656 C 0.92123 0.00655 0.3111 0.0
C657 C 0.93028 0.95865 0.28085 0.0
C658 C 0.94361 0.96764 0.29286 0.0
C659 C 0.94046 0.9833 0.30223 0.0
C660 C 0.96088 0.96093 0.29599 0.0
C661 C 0.9332 0.94214 0.26992 0.0
C662 C 0.96229 0.94483 0.30294 0.0
C663 C 0.97861 0.93849 0.30585 0.0
C664 C 0.99383 0.9482 0.30196 0.0
C665 C 0.99238 0.96445 0.2952 0.0
C666 C 0.97605 0.97077 0.29229 0.0
H667 H 0.9234 0.93938 0.25836 0.0
H668 H 0.94648 0.94304 0.26532 0.0
H669 H 0.93203 0.93092 0.27797 0.0
H670 H 0.95076 0.93722 0.30624 0.0
H671 H 0.97933 0.92608 0.31136 0.0
H672 H 0.36019 0.25074 0.60614 0.0
H673 H 0.34986 0.22071 0.61081 0.0
H674 H 0.31592 0.21679 0.56291 0.0
H675 H 0.32642 0.24662 0.55794 0.0
H676 H 0.31692 0.20382 0.61379 0.0
H677 H 0.34584 0.1762 0.55528 0.0
H678 H 0.35094 0.19863 0.56427 0.0
H679 H 0.33097 0.19221 0.55054 0.0
C680 C 0.35045 0.24352 0.59665 0.0
C681 C 0.34428 0.25098 0.58155 0.0
C682 C 0.34454 0.22638 0.59936 0.0
C683 C 0.33238 0.21643 0.58705 0.0
C684 C 0.32561 0.22413 0.57238 0.0
H685 H 0.27305 0.11689 0.59336 0.0
H686 H 0.28333 0.14808 0.59622 0.0
C687 C 0.33157 0.2412 0.5696 0.0
C688 C 0.32727 0.1978 0.58914 0.0
H689 H 0.32704 0.15668 0.56887 0.0
C690 C 0.31919 0.19347 0.60404 0.0
C691 C 0.33056 0.18432 0.57656 0.0
C692 C 0.34021 0.18802 0.56085 0.0
C693 C 0.31391 0.17599 0.60646 0.0
C694 C 0.31654 0.16259 0.59348 0.0
C695 C 0.32494 0.16695 0.57879 0.0
C696 C 0.31058 0.14391 0.59455 0.0
C697 C 0.30581 0.17204 0.62297 0.0
C698 C 0.32246 0.1312 0.59278 0.0
C699 C 0.31657 0.11344 0.59089 0.0
C700 C 0.2987 0.10806 0.59084 0.0
C701 C 0.28692 0.12072 0.59359 0.0
C702 C 0.2928 0.13853 0.59528 0.0
H703 H 0.30959 0.18265 0.63365 0.0
H704 H 0.29137 0.17089 0.62036 0.0
H705 H 0.30973 0.15953 0.62751 0.0
H706 H 0.33623 0.13503 0.59218 0.0
H707 H 0.3259 0.10391 0.58884 0.0
H708 H 0.29473 0.85097 0.97105 0.0
H709 H 0.2982 0.88144 0.96453 0.0
H710 H 0.28957 0.89834 0.01762 0.0
H711 H 0.28577 0.86783 0.02421 0.0
H712 H 0.26955 0.91391 0.9936 0.0
H713 H 0.33854 0.91894 0.97825 0.0
H714 H 0.32557 0.90087 0.96586 0.0
H715 H 0.32912 0.90116 0.98926 0.0
C716 C 0.29376 0.86116 0.98141 0.0
C717 C 0.28998 0.85698 0.99816 0.0
C718 C 0.29586 0.87858 0.97768 0.0
C719 C 0.29441 0.89215 0.99066 0.0
C720 C 0.29084 0.88805 0.00745 0.0
H721 H 0.31852 0.002 0.97408 0.0
H722 H 0.3179 0.97356 0.98602 0.0
C723 C 0.28869 0.87061 0.01119 0.0
C724 C 0.2955 0.91054 0.98636 0.0
H725 H 0.32132 0.94147 0.96894 0.0
C726 C 0.28094 0.92001 0.98838 0.0
C727 C 0.31046 0.91855 0.97979 0.0
C728 C 0.32688 0.90942 0.97832 0.0
C729 C 0.28069 0.93707 0.98342 0.0
C730 C 0.29526 0.94471 0.97592 0.0
C731 C 0.31007 0.93549 0.9745 0.0
C732 C 0.29525 0.96208 0.96909 0.0
C733 C 0.26484 0.94677 0.98629 0.0
C734 C 0.2828 0.96497 0.95554 0.0
C735 C 0.28303 0.98123 0.9488 0.0
C736 C 0.29582 0.99485 0.95539 0.0
C737 C 0.30834 0.99186 0.96891 0.0
C738 C 0.30808 0.9756 0.97566 0.0
H739 H 0.25738 0.94139 0.99664 0.0
H740 H 0.26859 0.96092 0.99 0.0
H741 H 0.25603 0.94538 0.97399 0.0
H742 H 0.273 0.9546 0.95004 0.0
H743 H 0.27311 0.98315 0.9385 0.0
H744 H 0.69328 0.26472 0.4043 0.0
H745 H 0.68586 0.29484 0.40344 0.0
H746 H 0.71613 0.30072 0.35945 0.0
H747 H 0.72327 0.27048 0.35995 0.0
H748 H 0.70929 0.32317 0.40876 0.0
H749 H 0.67247 0.32285 0.34372 0.0
H750 H 0.6766 0.303 0.35355 0.0
H751 H 0.69331 0.3143 0.34271 0.0
C752 C 0.69812 0.27232 0.39425 0.0
C753 C 0.70889 0.26521 0.38221 0.0
C754 C 0.69385 0.28953 0.39377 0.0
C755 C 0.70027 0.29999 0.38126 0.0
C756 C 0.71068 0.2928 0.36896 0.0
H757 H 0.71255 0.41222 0.37697 0.0
H758 H 0.71296 0.3805 0.37092 0.0
C759 C 0.71486 0.27553 0.36934 0.0
C760 C 0.69746 0.31883 0.38221 0.0
H761 H 0.6822 0.35094 0.35873 0.0
C762 C 0.70322 0.32918 0.39786 0.0
C763 C 0.68962 0.32669 0.36795 0.0
C764 C 0.68249 0.31611 0.35109 0.0
C765 C 0.70158 0.3472 0.39956 0.0
C766 C 0.69391 0.35506 0.38528 0.0
C767 C 0.68811 0.3448 0.36962 0.0
C768 C 0.69186 0.37398 0.38665 0.0
C769 C 0.70829 0.35781 0.41655 0.0
C770 C 0.67949 0.38069 0.39703 0.0
C771 C 0.67917 0.39873 0.40044 0.0
C772 C 0.69126 0.41038 0.39356 0.0
C773 C 0.70301 0.40359 0.38236 0.0
C774 C 0.70329 0.3855 0.37893 0.0
H775 H 0.71626 0.35027 0.42535 0.0
H776 H 0.71633 0.36982 0.41401 0.0
H777 H 0.69704 0.36193 0.42343 0.0
H778 H 0.6705 0.37195 0.40299 0.0
H779 H 0.66976 0.40357 0.40886 0.0
H780 H 0.64413 0.68595 0.00121 0.0
H781 H 0.65371 0.65653 0.99696 0.0
H782 H 0.66563 0.65673 0.05266 0.0
H783 H 0.65576 0.68592 0.05705 0.0
H784 H 0.68499 0.64324 0.00537 0.0
H785 H 0.63295 0.61229 0.04081 0.0
H786 H 0.63251 0.63417 0.03424 0.0
H787 H 0.64548 0.63023 0.05381 0.0
C788 C 0.64885 0.67975 0.01255 0.0
C789 C 0.64903 0.68821 0.02949 0.0
C790 C 0.65431 0.66294 0.01009 0.0
C791 C 0.66001 0.6543 0.02452 0.0
C792 C 0.66084 0.66298 0.04138 0.0
H793 H 0.72156 0.56856 0.03515 0.0
H794 H 0.71047 0.59655 0.03019 0.0
C795 C 0.6553 0.67972 0.04385 0.0
C796 C 0.66504 0.63617 0.02207 0.0
H797 H 0.65699 0.59552 0.03562 0.0
C798 C 0.67876 0.63274 0.01181 0.0
C799 C 0.65661 0.62238 0.03012 0.0
C800 C 0.64095 0.62488 0.0402 0.0
C801 C 0.68484 0.61606 0.01011 0.0
C802 C 0.67722 0.6026 0.01921 0.0
C803 C 0.66296 0.60586 0.02877 0.0
C804 C 0.68446 0.58543 0.02006 0.0
C805 C 0.69937 0.61307 0.99861 0.0
C806 C 0.67354 0.56978 0.01611 0.0
C807 C 0.67977 0.55372 0.01929 0.0
C808 C 0.69703 0.55303 0.02656 0.0
C809 C 0.70813 0.56865 0.02975 0.0
C810 C 0.70188 0.58468 0.02667 0.0
H811 H 0.69936 0.62206 0.9881 0.0
H812 H 0.71213 0.61573 0.00664 0.0
H813 H 0.69826 0.59939 0.99252 0.0
H814 H 0.66001 0.57006 0.0111 0.0
H815 H 0.67082 0.54197 0.01685 0.0
H816 H 0.53217 0.35074 0.22906 0.0
H817 H 0.54462 0.34059 0.20242 0.0
H818 H 0.59647 0.35765 0.22666 0.0
H819 H 0.58405 0.36822 0.25336 0.0
H820 H 0.59155 0.36801 0.19411 0.0
H821 H 0.56987 0.29762 0.19211 0.0
H822 H 0.55188 0.31071 0.194 0.0
H823 H 0.56931 0.31256 0.21137 0.0
C824 C 0.54623 0.35223 0.22881 0.0
C825 C 0.55712 0.36025 0.24337 0.0
C826 C 0.55335 0.34628 0.21359 0.0
C827 C 0.57151 0.34802 0.21266 0.0
C828 C 0.58243 0.35604 0.22715 0.0
H829 H 0.60571 0.29801 0.11621 0.0
H830 H 0.60576 0.30712 0.14752 0.0
C831 C 0.57531 0.36206 0.24239 0.0
C832 C 0.57886 0.34234 0.19616 0.0
H833 H 0.57698 0.30809 0.16471 0.0
C834 C 0.58863 0.35483 0.18782 0.0
C835 C 0.57542 0.32505 0.1881 0.0
C836 C 0.56621 0.31068 0.19697 0.0
C837 C 0.59404 0.35077 0.17114 0.0
C838 C 0.58924 0.3339 0.16244 0.0
C839 C 0.58048 0.3211 0.17127 0.0
C840 C 0.59155 0.32972 0.14367 0.0
C841 C 0.60461 0.3647 0.16291 0.0
C842 C 0.58378 0.33952 0.13114 0.0
C843 C 0.58384 0.33443 0.11335 0.0
C844 C 0.59148 0.31928 0.10767 0.0
C845 C 0.59986 0.30982 0.12019 0.0
C846 C 0.5998 0.31495 0.13806 0.0
H847 H 0.61246 0.37396 0.17304 0.0
H848 H 0.61355 0.35892 0.15396 0.0
H849 H 0.59561 0.37234 0.15531 0.0
H850 H 0.57698 0.35071 0.13509 0.0
H851 H 0.57741 0.34207 0.104 0.0
H852 H 0.95954 0.28261 0.86289 0.0
H853 H 0.96241 0.28164 0.89458 0.0
H854 H 0.01749 0.27612 0.89369 0.0
H855 H 0.01475 0.27694 0.8619 0.0
H856 H -0.00018 0.25159 0.91249 0.0
H857 H 0.98525 0.31915 0.93279 0.0
H858 H 0.9692 0.30765 0.91664 0.0
H859 H 0.99117 0.31263 0.91118 0.0
C860 C 0.97231 0.28135 0.86943 0.0
C861 C 0.98692 0.27988 0.85988 0.0
C862 C 0.97393 0.2809 0.88755 0.0
C863 C 0.9902 0.27904 0.89648 0.0
C864 C 0.00485 0.27766 0.88703 0.0
H865 H 0.00497 0.28856 0.01075 0.0
H866 H 0.00947 0.29135 0.98001 0.0
C867 C 0.00325 0.27817 0.86888 0.0
C868 C 0.99166 0.27762 0.91555 0.0
H869 H 0.98401 0.29879 0.95446 0.0
C870 C 0.99655 0.26197 0.92171 0.0
C871 C 0.98762 0.29127 0.92755 0.0
C872 C 0.98318 0.30869 0.92176 0.0
C873 C 0.99681 0.25933 0.93951 0.0
C874 C 0.99185 0.27263 0.95136 0.0
C875 C 0.98766 0.28855 0.9453 0.0
C876 C 0.99015 0.27004 0.96995 0.0
C877 C 0.00232 0.24232 0.94546 0.0
C878 C 0.97784 0.2571 0.97444 0.0
C879 C 0.97529 0.25544 0.99195 0.0
C880 C 0.98495 0.26675 0.0053 0.0
C881 C 0.99749 0.27951 0.00077 0.0
C882 C 0.0 0.28119 0.98323 0.0
H883 H 0.01038 0.23582 0.93603 0.0
H884 H 0.00989 0.24444 0.9585 0.0
H885 H 0.9905 0.23333 0.94647 0.0
H886 H 0.96989 0.24856 0.96437 0.0
H887 H 0.96562 0.24541 0.99504 0.0
H888 H 0.42258 0.68182 0.25655 0.0
H889 H 0.4197 0.6682 0.28384 0.0
H890 H 0.37991 0.70194 0.29665 0.0
H891 H 0.38219 0.71504 0.26918 0.0
H892 H 0.42683 0.6855 0.31555 0.0
H893 H 0.35785 0.6571 0.31039 0.0
H894 H 0.36866 0.66289 0.29149 0.0
H895 H 0.36028 0.6794 0.30556 0.0
C896 C 0.41298 0.68608 0.26504 0.0
C897 C 0.40261 0.6995 0.26073 0.0
C898 C 0.41132 0.67826 0.2806 0.0
C899 C 0.39935 0.6838 0.29215 0.0
C900 C 0.3888 0.697 0.2877 0.0
H901 H 0.38392 0.68205 0.40045 0.0
H902 H 0.38094 0.68386 0.36876 0.0
C903 C 0.39027 0.70463 0.27206 0.0
C904 C 0.39939 0.6774 0.30974 0.0
H905 H 0.37298 0.66114 0.33903 0.0
C906 C 0.41513 0.67984 0.32058 0.0
C907 C 0.38404 0.67031 0.31637 0.0
C908 C 0.36679 0.66711 0.30529 0.0
C909 C 0.41585 0.67604 0.33805 0.0
C910 C 0.40047 0.66913 0.34476 0.0
C911 C 0.38478 0.6663 0.33383 0.0
C912 C 0.40031 0.66588 0.36341 0.0
C913 C 0.43288 0.68049 0.34941 0.0
C914 C 0.41155 0.65456 0.37077 0.0
C915 C 0.41328 0.65353 0.38879 0.0
C916 C 0.40369 0.66372 0.39977 0.0
C917 C 0.39145 0.67404 0.39227 0.0
C918 C 0.38978 0.67512 0.3742 0.0
H919 H 0.44211 0.68954 0.3434 0.0
H920 H 0.43062 0.68661 0.36248 0.0
H921 H 0.43928 0.66835 0.35125 0.0
H922 H 0.41952 0.64705 0.36268 0.0
H923 H 0.4226 0.64524 0.39423 0.0
H924 H 0.05973 0.66045 0.68651 0.0
H925 H 0.05642 0.67733 0.66117 0.0
H926 H 0.00059 0.66471 0.65716 0.0
H927 H 0.00373 0.64786 0.68263 0.0
H928 H 0.01844 0.65825 0.62493 0.0
H929 H 0.03412 0.72526 0.65826 0.0
H930 H 0.04898 0.70962 0.66442 0.0
H931 H 0.0267 0.70682 0.66957 0.0
C932 C 0.04673 0.66136 0.68033 0.0
C933 C 0.03199 0.65284 0.68658 0.0
C934 C 0.04486 0.67106 0.66592 0.0
C935 C 0.02826 0.67237 0.65745 0.0
C936 C 0.0135 0.66392 0.66363 0.0
H937 H 0.01534 0.73955 0.57127 0.0
H938 H 0.00867 0.72366 0.59662 0.0
C939 C 0.01533 0.65433 0.67817 0.0
C940 C 0.02654 0.6819 0.64165 0.0
H941 H 0.03466 0.72219 0.62725 0.0
C942 C 0.02172 0.67227 0.62542 0.0
C943 C 0.03066 0.70019 0.64241 0.0
C944 C 0.03527 0.71116 0.6596 0.0
C945 C 0.02184 0.68036 0.6098 0.0
C946 C 0.02692 0.69848 0.61051 0.0
C947 C 0.03083 0.70827 0.62678 0.0
C948 C 0.02988 0.70719 0.59454 0.0
C949 C 0.01696 0.66943 0.59262 0.0
C950 C 0.04396 0.70312 0.58508 0.0
C951 C 0.04785 0.71221 0.57082 0.0
C952 C 0.03768 0.7255 0.56571 0.0
C953 C 0.02329 0.72928 0.57491 0.0
C954 C 0.01952 0.72028 0.58936 0.0
H955 H 0.00934 0.6569 0.59437 0.0
H956 H 0.00918 0.67669 0.58338 0.0
H957 H 0.02905 0.66635 0.58665 0.0
H958 H 0.05222 0.6932 0.58903 0.0
H959 H 0.05894 0.70898 0.56387 0.0
H960 H 0.78017 0.40297 0.63721 0.0
H961 H 0.80641 0.3871 0.63726 0.0
H962 H 0.83838 0.43493 0.65543 0.0
H963 H 0.81236 0.45087 0.65542 0.0
H964 H 0.83602 0.39465 0.61798 0.0
H965 H 0.85437 0.39923 0.68939 0.0
H966 H 0.83266 0.40237 0.68013 0.0
H967 H 0.84992 0.41983 0.68157 0.0
C968 C 0.79278 0.41007 0.64136 0.0
C969 C 0.7942 0.42818 0.64635 0.0
C970 C 0.80773 0.40099 0.64136 0.0
C971 C 0.82426 0.40982 0.64658 0.0
C972 C 0.82569 0.42784 0.65166 0.0
H973 H 0.92819 0.40465 0.62714 0.0
H974 H 0.89662 0.40626 0.62567 0.0
C975 C 0.81081 0.43694 0.65155 0.0
C976 C 0.84025 0.40057 0.64592 0.0
H977 H 0.87715 0.39343 0.6709 0.0
C978 C 0.84489 0.39405 0.62957 0.0
C979 C 0.85163 0.39953 0.66109 0.0
C980 C 0.84684 0.40545 0.67907 0.0
C981 C 0.86122 0.38764 0.62788 0.0
C982 C 0.87318 0.38796 0.64289 0.0
C983 C 0.86801 0.39331 0.65937 0.0
C984 C 0.89174 0.38492 0.64164 0.0
C985 C 0.86571 0.38107 0.60998 0.0
C986 C 0.89948 0.37231 0.65105 0.0
C987 C 0.91758 0.3714 0.65193 0.0
C988 C 0.92818 0.38328 0.64365 0.0
C989 C 0.92029 0.39538 0.63367 0.0
C990 C 0.90225 0.3962 0.6327 0.0
H991 H 0.85376 0.37621 0.60125 0.0
H992 H 0.87253 0.39199 0.60397 0.0
H993 H 0.87447 0.3704 0.61073 0.0
H994 H 0.89159 0.36361 0.65818 0.0
H995 H 0.92338 0.36206 0.65983 0.0
H996 H 0.70053 0.61619 0.28194 0.0
H997 H 0.66986 0.62091 0.28432 0.0
H998 H 0.67379 0.66151 0.24934 0.0
H999 H 0.70452 0.65683 0.24677 0.0
H1000 H 0.65382 0.65271 0.29464 0.0
H1001 H 0.63344 0.62537 0.22594 0.0
H1002 H 0.65423 0.62186 0.23706 0.0
H1003 H 0.65089 0.64271 0.22927 0.0
C1004 C 0.69493 0.62621 0.27484 0.0
C1005 C 0.70493 0.63604 0.26406 0.0
C1006 C 0.67742 0.62892 0.27625 0.0
C1007 C 0.66955 0.64141 0.26685 0.0
C1008 C 0.6796 0.65165 0.25652 0.0
H1009 H 0.5563 0.64879 0.25233 0.0
H1010 H 0.5878 0.65659 0.25194 0.0
C1011 C 0.69716 0.64899 0.25512 0.0
C1012 C 0.65064 0.6431 0.2674 0.0
H1013 H 0.61132 0.63354 0.24314 0.0
C1014 C 0.64451 0.64871 0.28335 0.0
C1015 C 0.63858 0.63798 0.2526 0.0
C1016 C 0.6445 0.63152 0.23524 0.0
C1017 C 0.62655 0.64891 0.28501 0.0
C1018 C 0.61445 0.64298 0.27043 0.0
C1019 C 0.62062 0.63809 0.25429 0.0
C1020 C 0.59543 0.64001 0.272 0.0
C1021 C 0.62071 0.65531 0.30242 0.0
C1022 C 0.5893 0.62819 0.28344 0.0
C1023 C 0.57142 0.6238 0.28373 0.0
C1024 C 0.55926 0.63097 0.27242 0.0
C1025 C 0.56536 0.64316 0.26127 0.0
C1026 C 0.58333 0.64757 0.26099 0.0
H1027 H 0.63087 0.66478 0.30997 0.0
H1028 H 0.60836 0.66164 0.30076 0.0
H1029 H 0.6185 0.64403 0.31025 0.0
H1030 H 0.59837 0.62189 0.29177 0.0
H1031 H 0.5671 0.61451 0.2926 0.0
H1032 H 0.37644 0.08333 0.32623 0.0
H1033 H 0.39806 0.06867 0.31042 0.0
H1034 H 0.36368 0.02089 0.30359 0.0
H1035 H 0.34181 0.03557 0.31894 0.0
H1036 H 0.41512 0.04113 0.31849 0.0
H1037 H 0.37638 0.02508 0.2544 0.0
H1038 H 0.36976 0.04009 0.27131 0.0
H1039 H 0.36541 0.01685 0.27201 0.0
C1040 C 0.37343 0.06973 0.32124 0.0
C1041 C 0.35738 0.06063 0.32374 0.0
C1042 C 0.3858 0.06138 0.31222 0.0
C1043 C 0.38236 0.04378 0.30557 0.0
C1044 C 0.36642 0.03461 0.3082 0.0
H1045 H 0.45898 0.97265 0.27963 0.0
H1046 H 0.43743 0.98933 0.29325 0.0
C1047 C 0.35398 0.04299 0.31708 0.0
C1048 C 0.39575 0.03481 0.29651 0.0
H1049 H 0.40233 0.01056 0.25889 0.0
C1050 C 0.41237 0.03455 0.30541 0.0
C1051 C 0.39223 0.02647 0.27933 0.0
C1052 C 0.37504 0.02727 0.26863 0.0
C1053 C 0.42545 0.02583 0.29777 0.0
C1054 C 0.42163 0.01673 0.28096 0.0
C1055 C 0.40515 0.01735 0.27188 0.0
C1056 C 0.43451 0.00644 0.27256 0.0
C1057 C 0.44328 0.02666 0.30771 0.0
C1058 C 0.43956 0.01009 0.25611 0.0
C1059 C 0.4516 0.00032 0.24809 0.0
C1060 C 0.45883 0.98669 0.25638 0.0
C1061 C 0.45358 0.98295 0.2728 0.0
C1062 C 0.44145 0.99265 0.28074 0.0
H1063 H 0.4456 0.03821 0.31756 0.0
H1064 H 0.44418 0.01477 0.31477 0.0
H1065 H 0.4538 0.02726 0.29875 0.0
H1066 H 0.43423 0.02057 0.24949 0.0
H1067 H 0.4551 0.00335 0.23531 0.0
H1068 H 0.14869 0.02013 0.7021 0.0
H1069 H 0.1182 0.02488 0.70588 0.0
H1070 H 0.11094 0.97529 0.72744 0.0
H1071 H 0.14139 0.9703 0.72362 0.0
H1072 H 0.08551 0.99838 0.6926 0.0
H1073 H 0.09745 0.01652 0.76447 0.0
H1074 H 0.11462 0.019 0.75009 0.0
H1075 H 0.10683 0.99763 0.75518 0.0
C1076 C 0.1406 0.01018 0.70757 0.0
C1077 C 0.14746 0.99486 0.71261 0.0
C1078 C 0.1232 0.01292 0.70968 0.0
C1079 C 0.11246 0.00048 0.71702 0.0
C1080 C 0.11913 0.98506 0.72183 0.0
H1081 H 0.00843 0.00741 0.75167 0.0
H1082 H 0.03712 0.99806 0.7461 0.0
C1083 C 0.1365 0.98224 0.7196 0.0
C1084 C 0.09432 0.00382 0.71991 0.0
H1085 H 0.06871 0.01675 0.75163 0.0
C1086 C 0.08176 0.00234 0.70549 0.0
C1087 C 0.08957 0.00883 0.73677 0.0
C1088 C 0.10277 0.0107 0.75259 0.0
C1089 C 0.06444 0.00581 0.70748 0.0
C1090 C 0.05976 0.01137 0.7243 0.0
C1091 C 0.07232 0.01254 0.73876 0.0
C1092 C 0.04208 0.01656 0.72712 0.0
C1093 C 0.05129 0.00326 0.69161 0.0
C1094 C 0.03541 0.03016 0.71842 0.0
C1095 C 0.01895 0.03538 0.72139 0.0
C1096 C 0.0089 0.02728 0.73335 0.0
C1097 C 0.01569 0.01375 0.74218 0.0
C1098 C 0.03214 0.00847 0.73911 0.0
H1099 H 0.05537 0.99391 0.68129 0.0
H1100 H 0.03816 0.99837 0.69502 0.0
H1101 H 0.05023 0.01597 0.68603 0.0
H1102 H 0.04302 0.03688 0.70943 0.0
H1103 H 0.01407 0.04571 0.71423 0.0
H1104 H 0.6421 0.75852 0.39472 0.0
H1105 H 0.64553 0.78738 0.38367 0.0
H1106 H 0.67973 0.80683 0.42967 0.0
H1107 H 0.67632 0.77812 0.44088 0.0
H1108 H 0.63683 0.81929 0.40323 0.0
H1109 H 0.70583 0.82295 0.38738 0.0
H1110 H 0.69304 0.80245 0.38895 0.0
H1111 H 0.70217 0.8157 0.40843 0.0
C1112 C 0.65053 0.76888 0.40239 0.0
C1113 C 0.65893 0.76605 0.4187 0.0
C1114 C 0.65246 0.78534 0.39605 0.0
C1115 C 0.66303 0.79913 0.40578 0.0
C1116 C 0.67173 0.79626 0.42186 0.0
H1117 H 0.68924 0.90855 0.41102 0.0
H1118 H 0.68742 0.87695 0.41209 0.0
C1119 C 0.66969 0.77987 0.42828 0.0
C1120 C 0.66394 0.81692 0.39988 0.0
H1121 H 0.69243 0.84969 0.38898 0.0
C1122 C 0.64889 0.8259 0.39984 0.0
C1123 C 0.67972 0.82543 0.39554 0.0
C1124 C 0.69611 0.81613 0.39491 0.0
C1125 C 0.6494 0.84354 0.39646 0.0
C1126 C 0.66532 0.85224 0.39253 0.0
C1127 C 0.68023 0.843 0.39195 0.0
C1128 C 0.66717 0.87128 0.39062 0.0
C1129 C 0.63313 0.85291 0.39809 0.0
C1130 C 0.65673 0.87861 0.37786 0.0
C1131 C 0.65752 0.89678 0.37741 0.0
C1132 C 0.66889 0.9079 0.38962 0.0
C1133 C 0.68 0.9004 0.40172 0.0
C1134 C 0.67911 0.88231 0.40224 0.0
H1135 H 0.62332 0.84549 0.40503 0.0
H1136 H 0.63635 0.8661 0.40522 0.0
H1137 H 0.62703 0.85455 0.38484 0.0
H1138 H 0.64772 0.87031 0.36849 0.0
H1139 H 0.64881 0.90212 0.36791 0.0
H1140 H 0.72643 0.18025 0.99482 0.0
H1141 H 0.72101 0.14838 0.99353 0.0
H1142 H 0.70585 0.15273 0.04614 0.0
H1143 H 0.71122 0.18459 0.04758 0.0
H1144 H 0.7388 0.12783 0.01739 0.0
H1145 H 0.66675 0.1182 0.0185 0.0
H1146 H 0.67783 0.13803 0.01231 0.0
H1147 H 0.67775 0.13428 0.03497 0.0
C1148 C 0.72168 0.17446 0.00603 0.0
C1149 C 0.71927 0.18496 0.02132 0.0
C1150 C 0.71861 0.15625 0.00526 0.0
C1151 C 0.71287 0.14824 0.01967 0.0
C1152 C 0.71 0.15869 0.03477 0.0
H1153 H 0.69885 0.04553 0.05398 0.0
H1154 H 0.69891 0.07642 0.0491 0.0
C1155 C 0.71317 0.17689 0.0356 0.0
C1156 C 0.71127 0.12894 0.01949 0.0
H1157 H 0.68254 0.09363 0.02362 0.0
C1158 C 0.72648 0.12028 0.01854 0.0
C1159 C 0.69519 0.11922 0.02109 0.0
C1160 C 0.6784 0.12785 0.02163 0.0
C1161 C 0.72617 0.10221 0.01979 0.0
C1162 C 0.71011 0.09247 0.0216 0.0
C1163 C 0.69483 0.1011 0.0222 0.0
C1164 C 0.7091 0.07349 0.02384 0.0
C1165 C 0.74319 0.09387 0.01994 0.0
C1166 C 0.71441 0.0615 0.01106 0.0
C1167 C 0.71466 0.04384 0.01393 0.0
C1168 C 0.70941 0.03783 0.02957 0.0
C1169 C 0.70335 0.04977 0.04197 0.0
C1170 C 0.70322 0.06742 0.03913 0.0
H1171 H 0.75468 0.10374 0.02284 0.0
H1172 H 0.74387 0.08419 0.02978 0.0
H1173 H 0.74415 0.08695 0.00689 0.0
H1174 H 0.71864 0.06584 0.99899 0.0
H1175 H 0.71944 0.03503 0.00413 0.0
H1176 H 0.25837 0.70846 0.66038 0.0
H1177 H 0.2559 0.67718 0.66435 0.0
H1178 H 0.28236 0.66693 0.61802 0.0
H1179 H 0.28516 0.69807 0.61412 0.0
H1180 H 0.23843 0.65107 0.6421 0.0
H1181 H 0.30786 0.63867 0.6521 0.0
H1182 H 0.30086 0.66046 0.65387 0.0
H1183 H 0.30369 0.64962 0.63279 0.0
C1184 C 0.2639 0.69957 0.65119 0.0
C1185 C 0.27199 0.70575 0.63694 0.0
C1186 C 0.26247 0.6817 0.65348 0.0
C1187 C 0.2692 0.66976 0.64165 0.0
C1188 C 0.27748 0.67595 0.62757 0.0
H1189 H 0.23938 0.56682 0.5998 0.0
H1190 H 0.24122 0.59771 0.6104 0.0
C1191 C 0.27894 0.69377 0.62529 0.0
C1192 C 0.2664 0.65068 0.64305 0.0
H1193 H 0.28754 0.61358 0.64128 0.0
C1194 C 0.24918 0.64288 0.64228 0.0
C1195 C 0.28043 0.64001 0.64367 0.0
C1196 C 0.29925 0.64765 0.64585 0.0
C1197 C 0.24557 0.62463 0.64084 0.0
C1198 C 0.25953 0.61395 0.63979 0.0
C1199 C 0.2768 0.62176 0.64185 0.0
C1200 C 0.25655 0.59486 0.6347 0.0
C1201 C 0.22682 0.61699 0.64005 0.0
C1202 C 0.2646 0.58295 0.64479 0.0
C1203 C 0.26374 0.56525 0.63862 0.0
C1204 C 0.25497 0.55925 0.62217 0.0
C1205 C 0.24634 0.5711 0.61246 0.0
C1206 C 0.2472 0.58873 0.61861 0.0
H1207 H 0.21882 0.62598 0.64725 0.0
H1208 H 0.22118 0.61509 0.62621 0.0
H1209 H 0.22578 0.60416 0.64561 0.0
H1210 H 0.272 0.58744 0.65718 0.0
H1211 H 0.27066 0.55646 0.64631 0.0
H1212 H 0.32755 0.34044 0.0349 0.0
H1213 H 0.31274 0.36281 0.02046 0.0
H1214 H 0.32132 0.39724 0.06817 0.0
H1215 H 0.33667 0.37513 0.08255 0.0
H1216 H 0.28383 0.37778 0.02729 0.0
H1217 H 0.33999 0.42863 0.03363 0.0
H1218 H 0.34238 0.40636 0.03822 0.0
H1219 H 0.33463 0.42149 0.05421 0.0
C1220 C 0.32633 0.35279 0.04231 0.0
C1221 C 0.33338 0.35608 0.05983 0.0
C1222 C 0.31786 0.36556 0.03405 0.0
C1223 C 0.31619 0.38181 0.04314 0.0
C1224 C 0.32287 0.38498 0.06076 0.0
H1225 H 0.24284 0.45323 0.0051 0.0
H1226 H 0.25805 0.4329 0.02213 0.0
C1227 C 0.33153 0.37228 0.06899 0.0
C1228 C 0.30718 0.39526 0.03421 0.0
H1229 H 0.31243 0.43726 0.0233 0.0
C1230 C 0.29009 0.39078 0.02638 0.0
C1231 C 0.31546 0.41214 0.03285 0.0
C1232 C 0.33418 0.41742 0.04002 0.0
C1233 C 0.28102 0.4027 0.01725 0.0
C1234 C 0.28909 0.41977 0.01638 0.0
C1235 C 0.3062 0.42424 0.02416 0.0
C1236 C 0.28029 0.43293 0.00682 0.0
C1237 C 0.2631 0.3967 0.0082 0.0
C1238 C 0.28811 0.44033 0.99307 0.0
C1239 C 0.27966 0.45229 0.98358 0.0
C1240 C 0.26315 0.45706 0.98759 0.0
C1241 C 0.25557 0.44996 0.0017 0.0
C1242 C 0.26413 0.43812 0.0113 0.0
H1243 H 0.26095 0.38221 0.00601 0.0
H1244 H 0.25303 0.40125 0.01651 0.0
H1245 H 0.26116 0.40216 0.99539 0.0
H1246 H 0.30066 0.43664 0.9895 0.0
H1247 H 0.28606 0.45778 0.97306 0.0
H1248 H 0.40731 0.6475 0.78522 0.0
H1249 H 0.39132 0.64714 0.81138 0.0
H1250 H 0.43963 0.661 0.84398 0.0
H1251 H 0.45571 0.66129 0.81804 0.0
H1252 H 0.39858 0.6256 0.8407 0.0
H1253 H 0.40496 0.69692 0.86058 0.0
H1254 H 0.40719 0.68796 0.83852 0.0
H1255 H 0.42501 0.68841 0.85522 0.0
C1256 C 0.41451 0.65058 0.79797 0.0
C1257 C 0.43278 0.65444 0.79958 0.0
C1258 C 0.40535 0.65035 0.81286 0.0
C1259 C 0.4143 0.65424 0.82953 0.0
C1260 C 0.43249 0.65821 0.83117 0.0
H1261 H 0.40955 0.63419 0.93297 0.0
H1262 H 0.41087 0.63289 0.90134 0.0
C1263 C 0.44166 0.65828 0.81635 0.0
C1264 C 0.40494 0.65346 0.84542 0.0
H1265 H 0.39817 0.67806 0.88269 0.0
C1266 C 0.39814 0.6371 0.84976 0.0
C1267 C 0.40417 0.66852 0.85703 0.0
C1268 C 0.41057 0.68649 0.85258 0.0
C1269 C 0.39171 0.63524 0.86605 0.0
C1270 C 0.39224 0.65011 0.87823 0.0
C1271 C 0.39786 0.66665 0.87335 0.0
C1272 C 0.38928 0.64861 0.89676 0.0
C1273 C 0.38496 0.61731 0.87032 0.0
C1274 C 0.3766 0.65776 0.90465 0.0
C1275 C 0.37581 0.65848 0.92276 0.0
C1276 C 0.38791 0.65032 0.93319 0.0
C1277 C 0.4001 0.64059 0.92517 0.0
C1278 C 0.40076 0.63973 0.90711 0.0
H1279 H 0.38021 0.60867 0.85827 0.0
H1280 H 0.39573 0.61121 0.87726 0.0
H1281 H 0.37417 0.61807 0.87894 0.0
H1282 H 0.36775 0.66485 0.89687 0.0
H1283 H 0.36641 0.6662 0.9287 0.0
H1284 H 0.02846 0.69889 0.14807 0.0
H1285 H 0.03055 0.70254 0.11708 0.0
H1286 H 0.97986 0.72223 0.11355 0.0
H1287 H 0.97754 0.71854 0.14455 0.0
H1288 H 0.00296 0.68808 0.08637 0.0
H1289 H 0.01729 0.76056 0.09667 0.0
H1290 H 0.02161 0.74667 0.11396 0.0
H1291 H -0.00044 0.75045 0.10716 0.0
C1292 C 0.01771 0.70392 0.1407 0.0
C1293 C 0.00286 0.70848 0.14878 0.0
C1294 C 0.01892 0.70596 0.12301 0.0
C1295 C 0.00541 0.71274 0.11315 0.0
C1296 C 0.99045 0.71706 0.12104 0.0
H1297 H 0.00685 0.74651 0.00784 0.0
H1298 H 0.9979 0.74059 0.03662 0.0
C1299 C 0.98915 0.71491 0.13871 0.0
C1300 C 0.0072 0.7156 0.09467 0.0
H1301 H 0.0169 0.74743 0.06798 0.0
C1302 C 0.0059 0.70104 0.08228 0.0
C1303 C 0.01087 0.73254 0.08945 0.0
C1304 C 0.01252 0.74852 0.10244 0.0
C1305 C 0.00838 0.70297 0.0647 0.0
C1306 C 0.01276 0.71988 0.05957 0.0
C1307 C 0.01359 0.73448 0.07194 0.0
C1308 C 0.01744 0.72267 0.0417 0.0
C1309 C 0.00618 0.68689 0.05181 0.0
C1310 C 0.03144 0.71464 0.03506 0.0
C1311 C 0.03645 0.71783 0.01857 0.0
C1312 C 0.02773 0.72936 0.00847 0.0
C1313 C 0.01369 0.7374 0.01517 0.0
C1314 C 0.00863 0.73411 0.03165 0.0
H1315 H 0.9974 0.67633 0.05629 0.0
H1316 H 0.00078 0.68988 0.03869 0.0
H1317 H 0.01911 0.68184 0.05055 0.0
H1318 H 0.0387 0.70609 0.04274 0.0
H1319 H 0.04718 0.71126 0.01375 0.0
H1320 H 0.65769 0.25238 0.69923 0.0
H1321 H 0.66014 0.25133 0.66769 0.0
H1322 H 0.61521 0.28069 0.6616 0.0
H1323 H 0.61291 0.28213 0.69301 0.0
H1324 H 0.63707 0.23656 0.64132 0.0
H1325 H 0.64893 0.30704 0.63395 0.0
H1326 H 0.65092 0.29842 0.65501 0.0
H1327 H 0.62985 0.30274 0.6452 0.0
C1328 C 0.64846 0.25879 0.69119 0.0
C1329 C 0.63515 0.26741 0.69864 0.0
C1330 C 0.64988 0.25817 0.67317 0.0
C1331 C 0.63807 0.26622 0.66232 0.0
C1332 C 0.62478 0.27481 0.66976 0.0
H1333 H 0.59195 0.24403 0.56001 0.0
H1334 H 0.60412 0.24326 0.5901 0.0
C1335 C 0.6234 0.27551 0.68773 0.0
C1336 C 0.63876 0.26473 0.64308 0.0
H1337 H 0.63639 0.28877 0.60798 0.0
C1338 C 0.63728 0.24799 0.63403 0.0
C1339 C 0.63949 0.27961 0.63354 0.0
C1340 C 0.64259 0.29795 0.64246 0.0
C1341 C 0.63517 0.24573 0.61569 0.0
C1342 C 0.6341 0.26058 0.60619 0.0
C1343 C 0.63693 0.27734 0.61522 0.0
C1344 C 0.62812 0.25911 0.58726 0.0
C1345 C 0.63374 0.22742 0.6067 0.0
C1346 C 0.63749 0.26833 0.57557 0.0
C1347 C 0.63037 0.26904 0.55834 0.0
C1348 C 0.6137 0.26066 0.5526 0.0
C1349 C 0.60475 0.25077 0.56411 0.0
C1350 C 0.61182 0.25011 0.58127 0.0
H1351 H 0.64136 0.21874 0.61455 0.0
H1352 H 0.61986 0.22192 0.60536 0.0
H1353 H 0.63847 0.22724 0.59349 0.0
H1354 H 0.65003 0.27548 0.57995 0.0
H1355 H 0.63751 0.27688 0.54981 0.0
H1356 H 0.05604 0.32375 0.3483 0.0
H1357 H 0.0381 0.30599 0.36605 0.0
H1358 H 0.06916 0.32927 0.41278 0.0
H1359 H 0.08693 0.34734 0.39519 0.0
H1360 H 0.04748 0.28168 0.38836 0.0
H1361 H 0.01982 0.33664 0.42443 0.0
H1362 H 0.03122 0.33938 0.40523 0.0
H1363 H 0.04327 0.33858 0.42615 0.0
C1364 C 0.05903 0.32513 0.36236 0.0
C1365 C 0.07283 0.33704 0.37035 0.0
C1366 C 0.04878 0.31496 0.37247 0.0
C1367 C 0.05212 0.31654 0.39074 0.0
C1368 C 0.0661 0.32816 0.39873 0.0
H1369 H 0.00704 0.26542 0.47437 0.0
H1370 H 0.02584 0.28198 0.45632 0.0
C1371 C 0.0763 0.3384 0.38864 0.0
C1372 C 0.04112 0.30584 0.40141 0.0
H1373 H 0.01444 0.30855 0.43446 0.0
C1374 C 0.04018 0.28754 0.39838 0.0
C1375 C 0.03159 0.31354 0.41445 0.0
C1376 C 0.03135 0.33311 0.41768 0.0
C1377 C 0.0302 0.27673 0.40828 0.0
C1378 C 0.02083 0.28445 0.4214 0.0
C1379 C 0.02174 0.30272 0.42442 0.0
C1380 C 0.00986 0.27381 0.43207 0.0
C1381 C 0.02996 0.25714 0.40486 0.0
C1382 C 0.99466 0.26381 0.42437 0.0
C1383 C 0.98392 0.25435 0.43462 0.0
C1384 C 0.98821 0.25475 0.45276 0.0
C1385 C 0.00353 0.26469 0.4604 0.0
C1386 C 0.01421 0.27422 0.45015 0.0
H1387 H 0.04067 0.25334 0.39698 0.0
H1388 H 0.03114 0.25096 0.41734 0.0
H1389 H 0.01733 0.25184 0.39754 0.0
H1390 H 0.99099 0.26353 0.41046 0.0
H1391 H 0.97225 0.24671 0.42837 0.0
H1392 H 0.31179 0.56828 0.45225 0.0
H1393 H 0.306 0.55454 0.4787 0.0
H1394 H 0.2634 0.52112 0.45017 0.0
H1395 H 0.26896 0.53502 0.42349 0.0
H1396 H 0.25453 0.53707 0.48108 0.0
H1397 H 0.31624 0.5067 0.49307 0.0
H1398 H 0.32015 0.52941 0.48979 0.0
H1399 H 0.30945 0.51427 0.47224 0.0
C1400 C 0.30126 0.55792 0.45149 0.0
C1401 C 0.29085 0.55275 0.43571 0.0
C1402 C 0.29808 0.54995 0.46663 0.0
C1403 C 0.28452 0.53655 0.46633 0.0
C1404 C 0.27406 0.53132 0.45063 0.0
H1405 H 0.24691 0.49836 0.56278 0.0
H1406 H 0.25177 0.49779 0.53164 0.0
C1407 C 0.27724 0.53929 0.43542 0.0
C1408 C 0.28062 0.52904 0.48279 0.0
H1409 H 0.30012 0.51223 0.51825 0.0
C1410 C 0.26432 0.53124 0.48906 0.0
C1411 C 0.29339 0.52136 0.49311 0.0
C1412 C 0.31072 0.51762 0.48662 0.0
C1413 C 0.26093 0.52717 0.50592 0.0
C1414 C 0.27413 0.52053 0.51665 0.0
C1415 C 0.29005 0.51738 0.51 0.0
C1416 C 0.27247 0.51896 0.53544 0.0
C1417 C 0.24369 0.53105 0.51255 0.0
C1418 C 0.28297 0.53053 0.54787 0.0
C1419 C 0.28026 0.53084 0.56553 0.0
C1420 C 0.26705 0.51951 0.57113 0.0
C1421 C 0.25719 0.50721 0.5588 0.0
C1422 C 0.25986 0.50697 0.54104 0.0
H1423 H 0.2358 0.53832 0.5034 0.0
H1424 H 0.23598 0.51858 0.51426 0.0
H1425 H 0.24588 0.53885 0.52547 0.0
H1426 H 0.29282 0.53983 0.54381 0.0
H1427 H 0.2882 0.54029 0.57479 0.0
H1428 H 0.23647 0.42443 0.78209 0.0
H1429 H 0.24404 0.4434 0.80931 0.0
H1430 H 0.22865 0.40056 0.83892 0.0
H1431 H 0.22157 0.38146 0.81193 0.0
H1432 H 0.22365 0.45357 0.83385 0.0
H1433 H 0.27544 0.41771 0.86414 0.0
H1434 H 0.26722 0.4132 0.84143 0.0
H1435 H 0.25581 0.40349 0.85818 0.0
C1436 C 0.2349 0.419 0.79442 0.0
C1437 C 0.22852 0.40139 0.79484 0.0
C1438 C 0.23921 0.42986 0.80995 0.0
C1439 C 0.23721 0.42333 0.82617 0.0
C1440 C 0.23079 0.40578 0.8266 0.0
H1441 H 0.21656 0.47194 0.9245 0.0
H1442 H 0.21604 0.46159 0.89358 0.0
C1443 C 0.22663 0.39489 0.81112 0.0
C1444 C 0.24095 0.43495 0.84267 0.0
H1445 H 0.26155 0.43694 0.88381 0.0
C1446 C 0.23216 0.45011 0.84471 0.0
C1447 C 0.25237 0.4307 0.8567 0.0
C1448 C 0.26339 0.41549 0.85494 0.0
C1449 C 0.23373 0.46057 0.8607 0.0
C1450 C 0.24396 0.45543 0.87518 0.0
C1451 C 0.2535 0.44081 0.87282 0.0
C1452 C 0.2442 0.46421 0.89313 0.0
C1453 C 0.22435 0.47695 0.86189 0.0
C1454 C 0.26017 0.46912 0.90327 0.0
C1455 C 0.26046 0.47467 0.92102 0.0
C1456 C 0.24478 0.4756 0.92892 0.0
C1457 C 0.2288 0.4716 0.91862 0.0
C1458 C 0.22851 0.46577 0.90092 0.0
H1459 H 0.22292 0.48241 0.84902 0.0
H1460 H 0.21101 0.47373 0.86578 0.0
H1461 H 0.23134 0.48716 0.87166 0.0
H1462 H 0.27244 0.468 0.89759 0.0
H1463 H 0.27294 0.47768 0.92874 0.0
H1464 H 0.70497 0.03577 0.56522 0.0
H1465 H 0.69577 0.02986 0.5339 0.0
H1466 H 0.70081 0.97495 0.53725 0.0
H1467 H 0.71013 0.98068 0.56842 0.0
H1468 H 0.71814 0.98965 0.5103 0.0
H1469 H 0.64897 0.00528 0.50937 0.0
H1470 H 0.66523 0.02166 0.52025 0.0
H1471 H 0.66157 0.00104 0.52914 0.0
C1472 C 0.70397 0.02241 0.55933 0.0
C1473 C 0.70831 0.0087 0.56933 0.0
C1474 C 0.69864 0.01906 0.54145 0.0
C1475 C 0.6975 0.00196 0.53333 0.0
C1476 C 0.70159 0.98824 0.54331 0.0
H1477 H 0.65318 0.94809 0.43677 0.0
H1478 H 0.65965 0.96205 0.46658 0.0
C1479 C 0.7069 0.99155 0.56113 0.0
C1480 C 0.69285 0.99826 0.51427 0.0
H1481 H 0.65921 0.99691 0.4822 0.0
C1482 C 0.70531 0.99137 0.5041 0.0
C1483 C 0.67607 0.00047 0.50631 0.0
C1484 C 0.66209 0.0074 0.51679 0.0
C1485 C 0.70134 0.98623 0.48621 0.0
C1486 C 0.68453 0.98832 0.47825 0.0
C1487 C 0.67214 0.99551 0.48834 0.0
C1488 C 0.67916 0.98158 0.45984 0.0
C1489 C 0.71494 0.97793 0.47616 0.0
C1490 C 0.68758 0.98833 0.4461 0.0
C1491 C 0.68402 0.98028 0.42906 0.0
C1492 C 0.67194 0.96538 0.42551 0.0
C1493 C 0.66279 0.95934 0.43916 0.0
C1494 C 0.66636 0.96738 0.45616 0.0
H1495 H 0.72593 0.97425 0.48496 0.0
H1496 H 0.70903 0.96605 0.46786 0.0
H1497 H 0.72037 0.98733 0.46746 0.0
H1498 H 0.69733 0.99944 0.44867 0.0
H1499 H 0.6913 0.98523 0.41883 0.0
H1500 H 0.75716 0.02241 0.21432 0.0
H1501 H 0.7457 0.01493 0.18388 0.0
H1502 H 0.77872 0.97256 0.18009 0.0
H1503 H 0.79059 0.98041 0.21058 0.0
H1504 H 0.78117 0.9902 0.15337 0.0
H1505 H 0.7108 0.97753 0.16041 0.0
H1506 H 0.7189 0.99857 0.17109 0.0
H1507 H 0.72712 0.97914 0.17884 0.0
C1508 C 0.76163 0.01122 0.20713 0.0
C1509 C 0.77447 0.00175 0.21487 0.0
C1510 C 0.75504 0.00691 0.18972 0.0
C1511 C 0.76095 0.99284 0.17977 0.0
C1512 C 0.7738 0.98334 0.18753 0.0
H1513 H 0.70889 0.97129 0.073 0.0
H1514 H 0.71995 0.9665 0.10278 0.0
C1515 C 0.78058 0.98783 0.20491 0.0
C1516 C 0.75484 0.98918 0.1609 0.0
H1517 H 0.71827 0.98583 0.13212 0.0
C1518 C 0.76739 0.98891 0.14875 0.0
C1519 C 0.73688 0.98702 0.15476 0.0
C1520 C 0.72268 0.98537 0.16699 0.0
C1521 C 0.76251 0.98768 0.13071 0.0
C1522 C 0.74462 0.98735 0.12466 0.0
C1523 C 0.73201 0.98645 0.13673 0.0
C1524 C 0.73882 0.98929 0.10611 0.0
C1525 C 0.77665 0.98688 0.11837 0.0
C1526 C 0.74572 0.00366 0.09807 0.0
C1527 C 0.73969 0.00624 0.081 0.0
C1528 C 0.72625 0.99475 0.07167 0.0
C1529 C 0.71938 0.98028 0.07971 0.0
C1530 C 0.7256 0.9776 0.09678 0.0
H1531 H 0.78792 0.98053 0.12409 0.0
H1532 H 0.77174 0.97958 0.10561 0.0
H1533 H 0.78154 0.00037 0.11607 0.0
H1534 H 0.75558 0.01315 0.10511 0.0
H1535 H 0.7455 0.01736 0.07517 0.0
H1536 H 0.44082 0.29074 0.58341 0.0
H1537 H 0.46767 0.28578 0.56986 0.0
H1538 H 0.44065 0.28762 0.51883 0.0
H1539 H 0.41362 0.29262 0.53226 0.0
H1540 H 0.4732 0.2579 0.54298 0.0
H1541 H 0.4841 0.32522 0.52238 0.0
H1542 H 0.46985 0.32009 0.539 0.0
H1543 H 0.46295 0.31345 0.51642 0.0
C1544 C 0.44053 0.29006 0.5693 0.0
C1545 C 0.42508 0.29217 0.55893 0.0
C1546 C 0.45588 0.28718 0.56158 0.0
C1547 C 0.45614 0.2865 0.54338 0.0
C1548 C 0.44072 0.2883 0.53293 0.0
H1549 H 0.55068 0.25552 0.49656 0.0
H1550 H 0.51963 0.25928 0.49914 0.0
C1551 C 0.4253 0.29109 0.54063 0.0
C1552 C 0.47272 0.28413 0.53554 0.0
H1553 H 0.50569 0.30616 0.51711 0.0
C1554 C 0.48022 0.26832 0.53707 0.0
C1555 C 0.4818 0.29784 0.52795 0.0
C1556 C 0.4744 0.31518 0.52636 0.0
C1557 C 0.49685 0.26604 0.53167 0.0
C1558 C 0.50613 0.2799 0.52447 0.0
C1559 C 0.49842 0.29553 0.52247 0.0
C1560 C 0.52464 0.27913 0.52103 0.0
C1561 C 0.50478 0.24915 0.53452 0.0
C1562 C 0.53763 0.28953 0.53203 0.0
C1563 C 0.55524 0.28742 0.53058 0.0
C1564 C 0.56018 0.27494 0.51803 0.0
C1565 C 0.5472 0.26525 0.50631 0.0
C1566 C 0.52951 0.2673 0.50784 0.0
H1567 H 0.4968 0.24066 0.54235 0.0
H1568 H 0.50583 0.24184 0.52168 0.0
H1569 H 0.51816 0.25189 0.5413 0.0
H1570 H 0.53412 0.29877 0.54224 0.0
H1571 H 0.56501 0.29517 0.53965 0.0
H1572 H 0.21979 0.79715 0.97673 0.0
H1573 H 0.1884 0.78964 0.96903 0.0
H1574 H 0.19079 0.74315 0.99621 0.0
H1575 H 0.22212 0.75065 0.00402 0.0
H1576 H 0.17077 0.73742 0.96373 0.0
H1577 H 0.15181 0.79494 0.00381 0.0
H1578 H 0.16659 0.80023 0.98787 0.0
H1579 H 0.17365 0.78817 0.00571 0.0
C1580 C 0.21361 0.78529 0.98099 0.0
C1581 C 0.22344 0.77432 0.99072 0.0
C1582 C 0.19569 0.78105 0.97664 0.0
C1583 C 0.18725 0.76593 0.9822 0.0
C1584 C 0.19709 0.75483 0.99171 0.0
H1585 H 0.08274 0.71886 0.98487 0.0
H1586 H 0.11435 0.7252 0.98488 0.0
C1587 C 0.21502 0.75903 0.99601 0.0
C1588 C 0.16809 0.76189 0.97852 0.0
H1589 H 0.12906 0.77714 0.98675 0.0
C1590 C 0.16164 0.74611 0.96872 0.0
C1591 C 0.15622 0.77327 0.98506 0.0
C1592 C 0.16236 0.79003 0.99633 0.0
C1593 C 0.14359 0.7414 0.96527 0.0
C1594 C 0.13175 0.75268 0.97199 0.0
C1595 C 0.1382 0.76858 0.98153 0.0
C1596 C 0.11264 0.74784 0.97027 0.0
C1597 C 0.13734 0.72444 0.95443 0.0
C1598 C 0.10119 0.7585 0.96209 0.0
C1599 C 0.08311 0.75497 0.96216 0.0
C1600 C 0.0762 0.74084 0.97062 0.0
C1601 C 0.0877 0.72992 0.97837 0.0
C1602 C 0.10575 0.73341 0.97823 0.0
H1603 H 0.14755 0.71985 0.94627 0.0
H1604 H 0.13413 0.71423 0.96325 0.0
H1605 H 0.12538 0.72584 0.94575 0.0
H1606 H 0.10628 0.76978 0.95601 0.0
H1607 H 0.07457 0.76371 0.95624 0.0
H1608 H 0.77962 0.23664 0.42733 0.0
H1609 H 0.80877 0.2439 0.44282 0.0
H1610 H 0.8312 0.21432 0.40177 0.0
H1611 H 0.8023 0.20725 0.38608 0.0
H1612 H 0.83178 0.22169 0.45552 0.0
H1613 H 0.86172 0.2604 0.40677 0.0
H1614 H 0.83841 0.255 0.40614 0.0
H1615 H 0.8521 0.23933 0.39729 0.0
C1616 C 0.79078 0.23182 0.42151 0.0
C1617 C 0.78863 0.22143 0.40541 0.0
C1618 C 0.80741 0.23596 0.4304 0.0
C1619 C 0.82217 0.22988 0.42331 0.0
C1620 C 0.82005 0.2195 0.40728 0.0
H1621 H 0.92232 0.2098 0.46927 0.0
H1622 H 0.89122 0.2096 0.45982 0.0
C1623 C 0.80347 0.21539 0.39837 0.0
C1624 C 0.83976 0.23371 0.43291 0.0
H1625 H 0.88156 0.24948 0.42799 0.0
C1626 C 0.84264 0.22798 0.44962 0.0
C1627 C 0.85384 0.24221 0.42535 0.0
C1628 C 0.85134 0.24975 0.40798 0.0
C1629 C 0.85942 0.22976 0.45862 0.0
C1630 C 0.8737 0.23715 0.4505 0.0
C1631 C 0.87065 0.24363 0.43415 0.0
C1632 C 0.89205 0.23757 0.45822 0.0
C1633 C 0.86164 0.22368 0.47669 0.0
C1634 C 0.90291 0.25333 0.46038 0.0
C1635 C 0.92073 0.25343 0.46558 0.0
C1636 C 0.92801 0.23777 0.46873 0.0
C1637 C 0.91701 0.2221 0.46718 0.0
C1638 C 0.89922 0.22198 0.46184 0.0
H1639 H 0.84936 0.22403 0.4832 0.0
H1640 H 0.86502 0.20995 0.47565 0.0
H1641 H 0.87225 0.23185 0.48506 0.0
H1642 H 0.89768 0.26551 0.45761 0.0
H1643 H 0.92889 0.26571 0.4668 0.0
H1644 H 0.56303 0.71894 0.99167 0.0
H1645 H 0.5323 0.70757 0.98969 0.0
H1646 H 0.53485 0.70848 0.04582 0.0
H1647 H 0.56573 0.71986 0.04801 0.0
H1648 H 0.51798 0.67533 0.00482 0.0
H1649 H 0.49249 0.73733 0.02975 0.0
H1650 H 0.5133 0.73713 0.02066 0.0
H1651 H 0.51102 0.72991 0.0419 0.0
C1652 C 0.5571 0.71675 0.00363 0.0
C1653 C 0.56684 0.72036 0.02001 0.0
C1654 C 0.53955 0.71022 0.00245 0.0
C1655 C 0.53134 0.70731 0.0176 0.0
C1656 C 0.54097 0.71079 0.03399 0.0
H1657 H 0.42504 0.65271 0.00833 0.0
H1658 H 0.45491 0.66315 0.02084 0.0
C1659 C 0.5586 0.71723 0.0352 0.0
C1660 C 0.51267 0.70063 0.01604 0.0
H1661 H 0.47182 0.71351 0.01995 0.0
C1662 C 0.50786 0.68354 0.00838 0.0
C1663 C 0.4996 0.71148 0.02063 0.0
C1664 C 0.50422 0.73003 0.02863 0.0
C1665 C 0.49022 0.67715 0.00469 0.0
C1666 C 0.47712 0.68816 0.00884 0.0
C1667 C 0.48194 0.70509 0.01696 0.0
C1668 C 0.4585 0.683 0.00293 0.0
C1669 C 0.48567 0.659 0.99558 0.0
C1670 C 0.45056 0.69108 0.98912 0.0
C1671 C 0.43364 0.68516 0.98199 0.0
C1672 C 0.42431 0.6711 0.9886 0.0
C1673 C 0.43195 0.66357 0.00301 0.0
C1674 C 0.449 0.66945 0.01009 0.0
H1675 H 0.49739 0.65294 0.99144 0.0
H1676 H 0.47928 0.65053 0.00457 0.0
H1677 H 0.4763 0.65939 0.98389 0.0
H1678 H 0.45769 0.70159 0.98346 0.0
H1679 H 0.42796 0.69134 0.97104 0.0
H1680 H 0.55479 0.45492 0.29939 0.0
H1681 H 0.5453 0.48379 0.29541 0.0
H1682 H 0.49406 0.46031 0.27486 0.0
H1683 H 0.5036 0.4312 0.27841 0.0
H1684 H 0.50543 0.48562 0.25555 0.0
H1685 H 0.51468 0.51101 0.32518 0.0
H1686 H 0.53434 0.50298 0.31824 0.0
H1687 H 0.51497 0.4881 0.31813 0.0
C1688 C 0.54147 0.45585 0.29406 0.0
C1689 C 0.52993 0.44073 0.28932 0.0
C1690 C 0.53602 0.4724 0.29193 0.0
C1691 C 0.51883 0.47426 0.28526 0.0
C1692 C 0.50733 0.4592 0.28021 0.0
H1693 H 0.49452 0.58379 0.29094 0.0
H1694 H 0.48999 0.55216 0.29311 0.0
C1695 C 0.51282 0.44258 0.28222 0.0
C1696 C 0.51323 0.49195 0.28304 0.0
H1697 H 0.51434 0.53274 0.30436 0.0
C1698 C 0.50709 0.49586 0.26628 0.0
C1699 C 0.51487 0.50522 0.29711 0.0
C1700 C 0.51988 0.50156 0.3157 0.0
C1701 C 0.50376 0.51297 0.26301 0.0
C1702 C 0.50709 0.52658 0.27675 0.0
C1703 C 0.51202 0.5224 0.29374 0.0
C1704 C 0.50744 0.54534 0.27358 0.0
C1705 C 0.49696 0.5163 0.24477 0.0
C1706 C 0.51848 0.552 0.26169 0.0
C1707 C 0.52093 0.56994 0.26033 0.0
C1708 C 0.51264 0.58172 0.27105 0.0
C1709 C 0.501 0.57504 0.28244 0.0
C1710 C 0.49848 0.55699 0.28375 0.0
H1711 H 0.48884 0.50463 0.23809 0.0
H1712 H 0.48903 0.52766 0.24489 0.0
H1713 H 0.50817 0.51897 0.23698 0.0
H1714 H 0.52588 0.5434 0.25401 0.0
H1715 H 0.52981 0.57466 0.25127 0.0
H1716 H 0.95883 0.21509 0.79325 0.0
H1717 H 0.95682 0.18367 0.78424 0.0
H1718 H 0.98122 0.19418 0.7375 0.0
H1719 H 0.98374 0.22557 0.74669 0.0
H1720 H 0.94053 0.16403 0.75245 0.0
H1721 H 0.01245 0.16061 0.76189 0.0
H1722 H 0.002 0.17901 0.7708 0.0
H1723 H 0.00523 0.17662 0.74796 0.0
C1724 C 0.96365 0.21069 0.78099 0.0
C1725 C 0.97115 0.22279 0.7705 0.0
C1726 C 0.96245 0.19278 0.77585 0.0
C1727 C 0.96894 0.18664 0.76026 0.0
C1728 C 0.97619 0.19868 0.74961 0.0
H1729 H 0.98419 0.08086 0.71915 0.0
H1730 H 0.98204 0.11244 0.7226 0.0
C1731 C 0.97737 0.21662 0.75473 0.0
C1732 C 0.96865 0.16759 0.75553 0.0
H1733 H 0.9952 0.13461 0.75107 0.0
C1734 C 0.95246 0.15757 0.75208 0.0
C1735 C 0.98426 0.15926 0.75508 0.0
C1736 C 0.002 0.16935 0.75925 0.0
C1737 C 0.95145 0.13936 0.7481 0.0
C1738 C 0.96707 0.13098 0.74795 0.0
C1739 C 0.98325 0.14107 0.75117 0.0
C1740 C 0.96703 0.11172 0.74502 0.0
C1741 C 0.93371 0.1293 0.74392 0.0
C1742 C 0.95925 0.10084 0.75645 0.0
C1743 C 0.96047 0.0828 0.75451 0.0
C1744 C 0.96966 0.07534 0.74122 0.0
C1745 C 0.97719 0.08625 0.72962 0.0
C1746 C 0.9759 0.10426 0.73153 0.0
H1747 H 0.92368 0.1379 0.73952 0.0
H1748 H 0.93405 0.11839 0.73361 0.0
H1749 H 0.92959 0.1237 0.75587 0.0
H1750 H 0.95271 0.10635 0.76722 0.0
H1751 H 0.95476 0.07477 0.7638 0.0
H1752 H 0.40503 0.8002 0.24376 0.0
H1753 H 0.4203 0.82957 0.24723 0.0
H1754 H 0.4671 0.80862 0.23125 0.0
H1755 H 0.452 0.77908 0.22787 0.0
H1756 H 0.47272 0.8361 0.25984 0.0
H1757 H 0.43118 0.85364 0.20273 0.0
H1758 H 0.41916 0.84511 0.21957 0.0
H1759 H 0.4326 0.83132 0.20769 0.0
C1760 C 0.41864 0.80176 0.2412 0.0
C1761 C 0.42722 0.7873 0.23532 0.0
C1762 C 0.42732 0.81857 0.24314 0.0
C1763 C 0.4447 0.82125 0.23917 0.0
C1764 C 0.45364 0.80679 0.23428 0.0
H1765 H 0.48732 0.92359 0.21475 0.0
H1766 H 0.48105 0.89191 0.21443 0.0
C1767 C 0.44497 0.78993 0.23235 0.0
C1768 C 0.45309 0.83924 0.23904 0.0
H1769 H 0.4491 0.87683 0.21935 0.0
C1770 C 0.46767 0.84501 0.25094 0.0
C1771 C 0.44667 0.85068 0.22716 0.0
C1772 C 0.43165 0.84487 0.21344 0.0
C1773 C 0.47561 0.86221 0.25167 0.0
C1774 C 0.46862 0.8739 0.24034 0.0
C1775 C 0.45441 0.86789 0.22808 0.0
C1776 C 0.47516 0.89266 0.24141 0.0
C1777 C 0.4914 0.86768 0.26451 0.0
C1778 C 0.47426 0.90356 0.25677 0.0
C1779 C 0.47797 0.92164 0.25703 0.0
C1780 C 0.48246 0.92921 0.24186 0.0
C1781 C 0.48407 0.91819 0.22669 0.0
C1782 C 0.4804 0.90008 0.22646 0.0
H1783 H 0.49827 0.85623 0.26812 0.0
H1784 H 0.50077 0.87707 0.25911 0.0
H1785 H 0.48715 0.87415 0.27663 0.0
H1786 H 0.46992 0.89818 0.26836 0.0
H1787 H 0.47679 0.92977 0.26897 0.0
H1788 H 0.98992 0.55996 0.70427 0.0
H1789 H 0.98748 0.52911 0.69321 0.0
H1790 H 0.04364 0.52981 0.69775 0.0
H1791 H 0.04628 0.56079 0.70888 0.0
H1792 H 0.00324 0.51285 0.66296 0.0
H1793 H 0.02501 0.48936 0.72694 0.0
H1794 H 0.01716 0.51063 0.72538 0.0
H1795 H 0.03846 0.50676 0.71913 0.0
C1796 C 0.00178 0.55361 0.70288 0.0
C1797 C 0.01829 0.56283 0.70755 0.0
C1798 C 0.00035 0.536 0.69651 0.0
C1799 C 0.01537 0.52721 0.69482 0.0
C1800 C 0.0319 0.53637 0.69914 0.0
H1801 H 0.00406 0.41877 0.64479 0.0
H1802 H 0.01718 0.44874 0.65391 0.0
C1803 C 0.03336 0.55407 0.70543 0.0
C1804 C 0.01351 0.50833 0.68885 0.0
H1805 H 0.01571 0.468 0.70362 0.0
C1806 C 0.00622 0.50301 0.67172 0.0
C1807 C 0.01733 0.49561 0.70041 0.0
C1808 C 0.02484 0.50075 0.71904 0.0
C1809 C 0.00214 0.48523 0.666 0.0
C1810 C 0.00552 0.47252 0.67771 0.0
C1811 C 0.0133 0.47782 0.69467 0.0
C1812 C 0.99909 0.4539 0.67325 0.0
C1813 C 0.99341 0.48017 0.64778 0.0
C1814 C 0.98497 0.44681 0.68149 0.0
C1815 C 0.97749 0.42984 0.67632 0.0
C1816 C 0.98407 0.41959 0.66288 0.0
C1817 C 0.99876 0.42641 0.65519 0.0
C1818 C 0.00618 0.4435 0.6603 0.0
H1819 H 0.98983 0.49173 0.64107 0.0
H1820 H 0.00243 0.47312 0.63987 0.0
H1821 H 0.98142 0.47121 0.64821 0.0
H1822 H 0.97936 0.45463 0.69155 0.0
H1823 H 0.96634 0.42482 0.68264 0.0
H1824 H 0.69557 0.44721 0.58867 0.0
H1825 H 0.68781 0.44909 0.55756 0.0
H1826 H 0.73532 0.4822 0.55493 0.0
H1827 H 0.74284 0.48096 0.58631 0.0
H1828 H 0.70506 0.49281 0.53554 0.0
H1829 H 0.71395 0.42245 0.52095 0.0
H1830 H 0.69886 0.42684 0.53691 0.0
H1831 H 0.7216 0.43444 0.54172 0.0
C1832 C 0.70406 0.45541 0.58167 0.0
C1833 C 0.71963 0.46425 0.59004 0.0
C1834 C 0.69975 0.45622 0.5638 0.0
C1835 C 0.71107 0.46567 0.55394 0.0
C1836 C 0.72641 0.47487 0.56233 0.0
H1837 H 0.71731 0.47623 0.44354 0.0
H1838 H 0.72021 0.48131 0.4755 0.0
C1839 C 0.73071 0.47408 0.58021 0.0
C1840 C 0.70739 0.46513 0.53473 0.0
H1841 H 0.70304 0.4373 0.49744 0.0
C1842 C 0.7046 0.4807 0.52717 0.0
C1843 C 0.70692 0.44931 0.52389 0.0
C1844 C 0.71064 0.43232 0.53121 0.0
C1845 C 0.70102 0.4808 0.50899 0.0
C1846 C 0.70048 0.46495 0.49818 0.0
C1847 C 0.70332 0.44942 0.50578 0.0
C1848 C 0.69736 0.46401 0.47887 0.0
C1849 C 0.69756 0.49777 0.50155 0.0
C1850 C 0.68349 0.45271 0.47017 0.0
C1851 C 0.68188 0.44971 0.45197 0.0
C1852 C 0.69415 0.45791 0.44212 0.0
C1853 C 0.70756 0.46987 0.45079 0.0
C1854 C 0.7092 0.47282 0.46904 0.0
H1855 H 0.69384 0.50756 0.51166 0.0
H1856 H 0.70961 0.50332 0.49637 0.0
H1857 H 0.687 0.49564 0.49063 0.0
H1858 H 0.67422 0.44577 0.47752 0.0
H1859 H 0.67131 0.44057 0.44562 0.0
H1860 H 0.74677 0.59918 0.19525 0.0
H1861 H 0.74153 0.57988 0.1682 0.0
H1862 H 0.7766 0.54472 0.18943 0.0
H1863 H 0.78195 0.56412 0.21669 0.0
H1864 H 0.78154 0.55008 0.15519 0.0
H1865 H 0.71149 0.53358 0.16158 0.0
H1866 H 0.71666 0.55682 0.16348 0.0
H1867 H 0.72637 0.54402 0.17955 0.0
C1868 C 0.75339 0.58735 0.19418 0.0
C1869 C 0.76489 0.58325 0.20804 0.0
C1870 C 0.75031 0.57627 0.17875 0.0
C1871 C 0.75838 0.56068 0.17694 0.0
C1872 C 0.77017 0.55666 0.1906 0.0
H1873 H 0.71284 0.49927 0.08069 0.0
H1874 H 0.72562 0.50384 0.11111 0.0
C1875 C 0.77336 0.56785 0.20609 0.0
C1876 C 0.75453 0.5489 0.16057 0.0
H1877 H 0.72032 0.53041 0.13217 0.0
C1878 C 0.7682 0.54544 0.15027 0.0
C1879 C 0.73721 0.54234 0.15437 0.0
C1880 C 0.72214 0.54421 0.16544 0.0
C1881 C 0.76479 0.5369 0.13331 0.0
C1882 C 0.74725 0.53213 0.12639 0.0
C1883 C 0.73377 0.53427 0.13729 0.0
C1884 C 0.74231 0.52705 0.10746 0.0
C1885 C 0.78002 0.53345 0.1229 0.0
C1886 C 0.74778 0.53825 0.09516 0.0
C1887 C 0.7407 0.53553 0.07778 0.0
C1888 C 0.72769 0.52175 0.07236 0.0
C1889 C 0.7229 0.50995 0.08443 0.0
C1890 C 0.73013 0.5126 0.10184 0.0
H1891 H 0.79157 0.5309 0.13162 0.0
H1892 H 0.77676 0.52212 0.11291 0.0
H1893 H 0.78379 0.54521 0.11622 0.0
H1894 H 0.75679 0.54974 0.09916 0.0
H1895 H 0.74485 0.54471 0.06875 0.0
H1896 H 0.28192 0.05083 0.39968 0.0
H1897 H 0.28032 0.04547 0.43035 0.0
H1898 H 0.33558 0.06082 0.44093 0.0
H1899 H 0.33725 0.06625 0.41027 0.0
H1900 H 0.29779 0.0244 0.45351 0.0
H1901 H 0.31311 0.09549 0.47321 0.0
H1902 H 0.30747 0.08687 0.45075 0.0
H1903 H 0.32916 0.08581 0.46095 0.0
C1904 C 0.29382 0.05255 0.40841 0.0
C1905 C 0.30975 0.05879 0.40257 0.0
C1906 C 0.29286 0.04961 0.42596 0.0
C1907 C 0.30779 0.05294 0.43793 0.0
C1908 C 0.32386 0.05843 0.43195 0.0
H1909 H 0.32178 0.06402 0.5509 0.0
H1910 H 0.32699 0.05783 0.52024 0.0
C1911 C 0.3248 0.0615 0.41445 0.0
C1912 C 0.3063 0.05194 0.45684 0.0
H1913 H 0.31085 0.07705 0.49588 0.0
C1914 C 0.30068 0.03588 0.46282 0.0
C1915 C 0.30994 0.06698 0.4689 0.0
C1916 C 0.3151 0.0848 0.46316 0.0
C1917 C 0.29883 0.03443 0.48064 0.0
C1918 C 0.30254 0.04948 0.49266 0.0
C1919 C 0.30821 0.06548 0.48665 0.0
C1920 C 0.29994 0.0494 0.51146 0.0
C1921 C 0.29309 0.01685 0.4865 0.0
C1922 C 0.28309 0.04614 0.51676 0.0
C1923 C 0.28009 0.04966 0.5343 0.0
C1924 C 0.29387 0.05667 0.54672 0.0
C1925 C 0.3109 0.05878 0.54156 0.0
C1926 C 0.3139 0.05521 0.52407 0.0
H1927 H 0.2953 0.00598 0.47674 0.0
H1928 H 0.30015 0.01492 0.49926 0.0
H1929 H 0.2789 0.01615 0.48813 0.0
H1930 H 0.27208 0.04198 0.5072 0.0
H1931 H 0.26681 0.04809 0.53788 0.0
H1932 H 0.25185 0.03374 0.75558 0.0
H1933 H 0.26447 0.04033 0.78592 0.0
H1934 H 0.24266 0.98989 0.79817 0.0
H1935 H 0.22991 0.98334 0.7679 0.0
H1936 H 0.23572 0.01609 0.82139 0.0
H1937 H 0.30645 0.02224 0.81168 0.0
H1938 H 0.29352 0.03571 0.79894 0.0
H1939 H 0.28995 0.01229 0.79494 0.0
C1940 C 0.25016 0.02389 0.76464 0.0
C1941 C 0.24023 0.00788 0.75932 0.0
C1942 C 0.25732 0.02769 0.78199 0.0
C1943 C 0.25477 0.01547 0.79424 0.0
C1944 C 0.24487 0.99947 0.78891 0.0
H1945 H 0.30521 0.00837 0.89656 0.0
H1946 H 0.29605 0.0068 0.86532 0.0
C1947 C 0.23761 0.99574 0.77163 0.0
C1948 C 0.26154 0.01963 0.81286 0.0
H1949 H 0.2989 0.02959 0.84032 0.0
C1950 C 0.24953 0.01908 0.82553 0.0
C1951 C 0.27958 0.02339 0.81823 0.0
C1952 C 0.29317 0.02331 0.80528 0.0
C1953 C 0.25505 0.02196 0.84343 0.0
C1954 C 0.27307 0.026 0.84881 0.0
C1955 C 0.28508 0.02671 0.83614 0.0
C1956 C 0.27976 0.02823 0.86755 0.0
C1957 C 0.24159 0.02 0.85641 0.0
C1958 C 0.27408 0.04116 0.87912 0.0
C1959 C 0.27907 0.04191 0.89706 0.0
C1960 C 0.28999 0.02985 0.90371 0.0
C1961 C 0.29646 0.01759 0.89192 0.0
C1962 C 0.29136 0.01677 0.87404 0.0
H1963 H 0.22919 0.01274 0.85029 0.0
H1964 H 0.24656 0.01302 0.86755 0.0
H1965 H 0.23857 0.03315 0.86163 0.0
H1966 H 0.26542 0.05038 0.87433 0.0
H1967 H 0.27383 0.0515 0.90577 0.0
H1968 H 0.59081 0.73139 0.4549 0.0
H1969 H 0.55943 0.72956 0.45792 0.0
H1970 H 0.56238 0.67971 0.47897 0.0
H1971 H 0.59374 0.68168 0.47651 0.0
H1972 H 0.53709 0.70566 0.44013 0.0
H1973 H 0.52945 0.70104 0.51014 0.0
H1974 H 0.55007 0.70825 0.50241 0.0
H1975 H 0.54334 0.68525 0.50221 0.0
C1976 C 0.58486 0.72025 0.46057 0.0
C1977 C 0.59477 0.70664 0.46535 0.0
C1978 C 0.56691 0.71922 0.46232 0.0
C1979 C 0.55853 0.70457 0.46884 0.0
C1980 C 0.56856 0.69135 0.47433 0.0
H1981 H 0.45787 0.65384 0.43405 0.0
H1982 H 0.48883 0.66334 0.44188 0.0
C1983 C 0.58652 0.69244 0.47276 0.0
C1984 C 0.53916 0.70188 0.46759 0.0
H1985 H 0.50462 0.6889 0.4899 0.0
C1986 C 0.52999 0.70231 0.45112 0.0
C1987 C 0.52981 0.69768 0.48192 0.0
C1988 C 0.53868 0.69822 0.50019 0.0
C1989 C 0.51192 0.69782 0.44839 0.0
C1990 C 0.50281 0.69232 0.4624 0.0
C1991 C 0.51173 0.69279 0.4791 0.0
C1992 C 0.48417 0.68543 0.45959 0.0
C1993 C 0.50278 0.6988 0.43043 0.0
C1994 C 0.47135 0.69417 0.46768 0.0
C1995 C 0.45361 0.68867 0.46331 0.0
C1996 C 0.44852 0.67438 0.45078 0.0
C1997 C 0.46145 0.66506 0.44352 0.0
C1998 C 0.4791 0.67049 0.44796 0.0
H1999 H 0.51034 0.70788 0.4228 0.0
H2000 H 0.50144 0.68563 0.42313 0.0
H2001 H 0.48951 0.70318 0.43127 0.0
H2002 H 0.47504 0.70566 0.47678 0.0
H2003 H 0.4439 0.69611 0.46906 0.0
H2004 H 0.79812 0.23569 0.02505 0.0
H2005 H 0.82989 0.23675 0.02957 0.0
H2006 H 0.82855 0.25732 0.0832 0.0
H2007 H 0.79671 0.25668 0.0787 0.0
H2008 H 0.85169 0.27651 0.06692 0.0
H2009 H 0.86234 0.20673 0.05454 0.0
H2010 H 0.84888 0.21391 0.03692 0.0
H2011 H 0.84117 0.21385 0.05832 0.0
C2012 C 0.80453 0.24021 0.03789 0.0
C2013 C 0.79485 0.24613 0.0515 0.0
C2014 C 0.82271 0.24068 0.04049 0.0
C2015 C 0.83159 0.24685 0.0568 0.0
C2016 C 0.82195 0.25241 0.07054 0.0
H2017 H 0.94568 0.2439 0.06918 0.0
H2018 H 0.91486 0.2402 0.07496 0.0
C2019 C 0.80375 0.25202 0.06793 0.0
C2020 C 0.85097 0.24894 0.05896 0.0
H2021 H 0.88694 0.22752 0.0516 0.0
C2022 C 0.85942 0.26574 0.06385 0.0
C2023 C 0.86108 0.23484 0.05526 0.0
C2024 C 0.85289 0.21629 0.05116 0.0
C2025 C 0.87762 0.26899 0.06419 0.0
C2026 C 0.88758 0.25516 0.05915 0.0
C2027 C 0.87926 0.23817 0.05523 0.0
C2028 C 0.9064 0.25823 0.05667 0.0
C2029 C 0.88597 0.28728 0.06974 0.0
C2030 C 0.91182 0.26957 0.04449 0.0
C2031 C 0.92936 0.27179 0.04126 0.0
C2032 C 0.94183 0.26256 0.05001 0.0
C2033 C 0.93641 0.25134 0.06238 0.0
C2034 C 0.91882 0.24913 0.06561 0.0
H2035 H 0.87787 0.2946 0.07851 0.0
H2036 H 0.89922 0.28709 0.07657 0.0
H2037 H 0.88719 0.29449 0.05798 0.0
H2038 H 0.90241 0.27645 0.03717 0.0
H2039 H 0.93313 0.28067 0.0318 0.0
H2040 H 0.21071 0.7563 0.60428 0.0
H2041 H 0.18268 0.75581 0.5869 0.0
H2042 H 0.20516 0.79367 0.55516 0.0
H2043 H 0.23347 0.794 0.5724 0.0
H2044 H 0.17253 0.80139 0.56595 0.0
H2045 H 0.16971 0.73297 0.53707 0.0
H2046 H 0.17423 0.7346 0.5604 0.0
H2047 H 0.1897 0.74485 0.54734 0.0
C2048 C 0.20973 0.7645 0.59358 0.0
C2049 C 0.22423 0.77542 0.58991 0.0
C2050 C 0.19372 0.76414 0.5836 0.0
C2051 C 0.19192 0.7745 0.56959 0.0
C2052 C 0.20631 0.78555 0.56592 0.0
H2053 H 0.08818 0.74977 0.51219 0.0
H2054 H 0.11978 0.75852 0.51561 0.0
C2055 C 0.22241 0.78591 0.57594 0.0
C2056 C 0.17474 0.774 0.55927 0.0
H2057 H 0.14195 0.74521 0.53846 0.0
C2058 C 0.16595 0.7892 0.55959 0.0
C2059 C 0.16633 0.75822 0.55058 0.0
C2060 C 0.17557 0.74178 0.54864 0.0
C2061 C 0.14842 0.78866 0.55274 0.0
C2062 C 0.13945 0.77246 0.5457 0.0
C2063 C 0.14873 0.75761 0.54404 0.0
C2064 C 0.12013 0.76999 0.54229 0.0
C2065 C 0.13954 0.80536 0.5536 0.0
C2066 C 0.10984 0.77378 0.55601 0.0
C2067 C 0.09192 0.76884 0.55408 0.0
C2068 C 0.08391 0.75984 0.53843 0.0
C2069 C 0.09402 0.75678 0.52435 0.0
C2070 C 0.11205 0.76172 0.52631 0.0
H2071 H 0.14905 0.81685 0.55272 0.0
H2072 H 0.12883 0.80503 0.54295 0.0
H2073 H 0.13395 0.8072 0.56634 0.0
H2074 H 0.11578 0.77974 0.56859 0.0
H2075 H 0.0844 0.77149 0.56509 0.0
H2076 H 0.41798 0.33219 0.06149 0.0
H2077 H 0.44742 0.32923 0.05288 0.0
H2078 H 0.43195 0.27573 0.03256 0.0
H2079 H 0.40256 0.27849 0.04161 0.0
H2080 H 0.46136 0.27964 0.05582 0.0
H2081 H 0.46852 0.32657 0.00605 0.0
H2082 H 0.46029 0.33616 0.02535 0.0
H2083 H 0.44746 0.31838 0.01219 0.0
C2084 C 0.42077 0.31989 0.05491 0.0
C2085 C 0.40788 0.30568 0.0519 0.0
C2086 C 0.43754 0.31827 0.04983 0.0
C2087 C 0.44175 0.30239 0.04169 0.0
C2088 C 0.42885 0.28821 0.03849 0.0
H2089 H 0.55157 0.27848 0.04111 0.0
H2090 H 0.5203 0.27569 0.03099 0.0
C2091 C 0.41202 0.28985 0.04352 0.0
C2092 C 0.46016 0.30013 0.03862 0.0
H2093 H 0.49539 0.31957 0.02143 0.0
C2094 C 0.46876 0.28803 0.04794 0.0
C2095 C 0.46971 0.31109 0.02831 0.0
C2096 C 0.46097 0.32366 0.01726 0.0
C2097 C 0.48693 0.28756 0.04838 0.0
C2098 C 0.49667 0.29929 0.03891 0.0
C2099 C 0.4879 0.31061 0.02868 0.0
C2100 C 0.51601 0.30173 0.04161 0.0
C2101 C 0.49566 0.27543 0.06 0.0
C2102 C 0.5241 0.31762 0.04992 0.0
C2103 C 0.54188 0.3193 0.0555 0.0
C2104 C 0.55193 0.30509 0.05289 0.0
C2105 C 0.54413 0.28962 0.04332 0.0
C2106 C 0.52626 0.28796 0.03769 0.0
H2107 H 0.48652 0.2693 0.06858 0.0
H2108 H 0.5007 0.26482 0.05177 0.0
H2109 H 0.5069 0.28259 0.06839 0.0
H2110 H 0.51645 0.32845 0.05298 0.0
H2111 H 0.54763 0.33148 0.06256 0.0
H2112 H 0.47913 0.59373 0.74053 0.0
H2113 H 0.47815 0.56306 0.7288 0.0
H2114 H 0.44396 0.57344 0.68442 0.0
H2115 H 0.44446 0.60389 0.69628 0.0
H2116 H 0.4472 0.54007 0.72188 0.0
H2117 H 0.48197 0.54619 0.66225 0.0
H2118 H 0.48395 0.56321 0.68014 0.0
H2119 H 0.46495 0.56051 0.6646 0.0
C2120 C 0.47158 0.58952 0.72816 0.0
C2121 C 0.46227 0.60138 0.71908 0.0
C2122 C 0.47107 0.57203 0.72147 0.0
C2123 C 0.46129 0.56609 0.70557 0.0
C2124 C 0.45202 0.57789 0.69645 0.0
H2125 H 0.41363 0.4657 0.66318 0.0
H2126 H 0.42158 0.49626 0.67416 0.0
C2127 C 0.45246 0.59536 0.70317 0.0
C2128 C 0.45959 0.54729 0.69922 0.0
H2129 H 0.46604 0.51863 0.66456 0.0
C2130 C 0.45148 0.53535 0.70944 0.0
C2131 C 0.46529 0.54119 0.68304 0.0
C2132 C 0.47467 0.5534 0.6719 0.0
C2133 C 0.44836 0.51753 0.7036 0.0
C2134 C 0.45344 0.51155 0.68713 0.0
C2135 C 0.46209 0.52334 0.67715 0.0
C2136 C 0.44903 0.49321 0.67978 0.0
C2137 C 0.43942 0.5052 0.71493 0.0
C2138 C 0.46195 0.4815 0.67905 0.0
C2139 C 0.45743 0.46391 0.67297 0.0
C2140 C 0.43992 0.45783 0.66744 0.0
C2141 C 0.42716 0.46983 0.6677 0.0
C2142 C 0.43167 0.48732 0.67386 0.0
H2143 H 0.43921 0.5112 0.72853 0.0
H2144 H 0.42572 0.50157 0.70931 0.0
H2145 H 0.44607 0.49299 0.71528 0.0
H2146 H 0.47543 0.48588 0.68357 0.0
H2147 H 0.46755 0.45501 0.67304 0.0
H2148 H 0.04141 0.75098 0.25844 0.0
H2149 H 0.04718 0.78123 0.27165 0.0
H2150 H 0.00097 0.79488 0.24225 0.0
H2151 H 0.99535 0.76478 0.22882 0.0
H2152 H 0.02843 0.81834 0.24065 0.0
H2153 H 0.02243 0.80541 0.30969 0.0
H2154 H 0.03904 0.79422 0.29976 0.0
H2155 H 0.01644 0.78881 0.29173 0.0
C2156 C 0.03231 0.76038 0.25508 0.0
C2157 C 0.01773 0.75549 0.24291 0.0
C2158 C 0.03564 0.77766 0.2626 0.0
C2159 C 0.02431 0.79025 0.25821 0.0
C2160 C 0.00984 0.78537 0.24591 0.0
H2161 H 0.00689 0.88921 0.30859 0.0
H2162 H 0.00779 0.85856 0.29809 0.0
C2163 C 0.00663 0.76818 0.23826 0.0
C2164 C 0.02766 0.80865 0.26596 0.0
H2165 H 0.03121 0.83459 0.30453 0.0
C2166 C 0.0291 0.8219 0.25462 0.0
C2167 C 0.02845 0.81326 0.2842 0.0
C2168 C 0.02634 0.79969 0.29705 0.0
C2169 C 0.03094 0.83964 0.26096 0.0
C2170 C 0.0318 0.84425 0.27919 0.0
C2171 C 0.03071 0.831 0.29057 0.0
C2172 C 0.03224 0.8627 0.28657 0.0
C2173 C 0.03119 0.85326 0.24801 0.0
C2174 C 0.04594 0.87515 0.28397 0.0
C2175 C 0.04534 0.89279 0.28976 0.0
C2176 C 0.0311 0.89821 0.29836 0.0
C2177 C 0.01785 0.88553 0.30167 0.0
C2178 C 0.01842 0.86797 0.29581 0.0
H2179 H 0.02648 0.84753 0.23453 0.0
H2180 H 0.02293 0.86382 0.25177 0.0
H2181 H 0.04478 0.85922 0.24781 0.0
H2182 H 0.05691 0.87129 0.27717 0.0
H2183 H 0.05574 0.90222 0.28701 0.0
H2184 H 0.57402 0.22813 0.75166 0.0
H2185 H 0.555 0.20109 0.7521 0.0
H2186 H 0.58712 0.18775 0.79674 0.0
H2187 H 0.60585 0.21493 0.79658 0.0
H2188 H 0.56493 0.16989 0.74622 0.0
H2189 H 0.53984 0.1736 0.81125 0.0
H2190 H 0.55008 0.19252 0.80255 0.0
H2191 H 0.5632 0.17752 0.81313 0.0
C2192 C 0.57673 0.2196 0.76182 0.0
C2193 C 0.59124 0.22373 0.77425 0.0
C2194 C 0.56586 0.20418 0.76208 0.0
C2195 C 0.56941 0.19248 0.77465 0.0
C2196 C 0.58371 0.1968 0.7873 0.0
H2197 H 0.55796 0.08397 0.77993 0.0
H2198 H 0.56271 0.11582 0.78567 0.0
C2199 C 0.59445 0.21236 0.78719 0.0
C2200 C 0.55965 0.17486 0.7731 0.0
H2201 H 0.53987 0.14445 0.79658 0.0
C2202 C 0.55908 0.16449 0.75713 0.0
C2203 C 0.55203 0.16776 0.78733 0.0
C2204 C 0.55115 0.17852 0.80446 0.0
C2205 C 0.55199 0.14701 0.75526 0.0
C2206 C 0.54516 0.13969 0.76972 0.0
C2207 C 0.5451 0.15015 0.78552 0.0
C2208 C 0.53996 0.12071 0.76904 0.0
C2209 C 0.55267 0.13618 0.7381 0.0
C2210 C 0.52518 0.11297 0.75836 0.0
C2211 C 0.5224 0.09474 0.7551 0.0
C2212 C 0.53447 0.08412 0.76241 0.0
C2213 C 0.54855 0.09191 0.77407 0.0
C2214 C 0.55123 0.11006 0.77741 0.0
H2215 H 0.56022 0.14331 0.72884 0.0
H2216 H 0.55868 0.12388 0.74032 0.0
H2217 H 0.53918 0.13257 0.73187 0.0
H2218 H 0.51634 0.12104 0.75182 0.0
H2219 H 0.51151 0.08904 0.746 0.0
H2220 H 0.0602 0.39864 0.28855 0.0
H2221 H 0.04792 0.42525 0.28024 0.0
H2222 H 0.06079 0.44928 0.33289 0.0
H2223 H 0.07224 0.42238 0.34151 0.0
H2224 H 0.02819 0.45725 0.31784 0.0
H2225 H 0.081 0.46789 0.27389 0.0
H2226 H 0.06735 0.44765 0.26932 0.0
H2227 H 0.08142 0.45162 0.28935 0.0
C2228 C 0.0598 0.4093 0.29852 0.0
C2229 C 0.06691 0.40827 0.31577 0.0
C2230 C 0.05306 0.42464 0.29367 0.0
C2231 C 0.05361 0.43929 0.30591 0.0
C2232 C 0.0602 0.43811 0.32325 0.0
H2233 H 0.05364 0.54784 0.3191 0.0
H2234 H 0.04819 0.51648 0.3213 0.0
C2235 C 0.06684 0.42277 0.32812 0.0
C2236 C 0.04866 0.45633 0.30055 0.0
H2237 H 0.06208 0.48979 0.27716 0.0
C2238 C 0.03542 0.4643 0.30876 0.0
C2239 C 0.05808 0.46547 0.28865 0.0
C2240 C 0.07285 0.45784 0.27986 0.0
C2241 C 0.03177 0.48141 0.30585 0.0
C2242 C 0.04178 0.49081 0.29461 0.0
C2243 C 0.05436 0.48251 0.28571 0.0
C2244 C 0.0412 0.50987 0.29357 0.0
C2245 C 0.01749 0.48936 0.31508 0.0
C2246 C 0.03881 0.51664 0.27729 0.0
C2247 C 0.04207 0.5346 0.27599 0.0
C2248 C 0.04797 0.546 0.29095 0.0
C2249 C 0.04921 0.53932 0.30736 0.0
C2250 C 0.04591 0.52141 0.30865 0.0
H2251 H 0.00735 0.47913 0.31792 0.0
H2252 H 0.0232 0.49634 0.32774 0.0
H2253 H 0.01114 0.49887 0.3072 0.0
H2254 H 0.03533 0.50793 0.26548 0.0
H2255 H 0.04115 0.53937 0.26317 0.0
H2256 H 0.3529 0.6235 0.37224 0.0
H2257 H 0.3762 0.63442 0.35544 0.0
H2258 H 0.36389 0.59007 0.31701 0.0
H2259 H 0.34041 0.57906 0.33366 0.0
H2260 H 0.40457 0.61714 0.34863 0.0
H2261 H 0.36885 0.6297 0.28616 0.0
H2262 H 0.35775 0.62533 0.30526 0.0
H2263 H 0.36476 0.60768 0.29162 0.0
C2264 C 0.35491 0.6162 0.36005 0.0
C2265 C 0.34479 0.60037 0.35431 0.0
C2266 C 0.36825 0.62251 0.35044 0.0
C2267 C 0.37162 0.61324 0.33481 0.0
C2268 C 0.36126 0.59767 0.3288 0.0
H2269 H 0.45578 0.61421 0.26817 0.0
H2270 H 0.42837 0.60898 0.28185 0.0
C2271 C 0.34791 0.59133 0.33842 0.0
C2272 C 0.38701 0.61897 0.32575 0.0
H2273 H 0.4 0.62981 0.2865 0.0
C2274 C 0.40356 0.62015 0.33511 0.0
C2275 C 0.38566 0.62254 0.30801 0.0
C2276 C 0.36827 0.6214 0.29722 0.0
C2277 C 0.41883 0.62442 0.32716 0.0
C2278 C 0.41749 0.62808 0.30946 0.0
C2279 C 0.40095 0.6271 0.30011 0.0
C2280 C 0.43325 0.63207 0.3003 0.0
C2281 C 0.43632 0.62412 0.33749 0.0
C2282 C 0.44484 0.64693 0.30593 0.0
C2283 C 0.46038 0.64989 0.29814 0.0
C2284 C 0.46449 0.63805 0.28462 0.0
C2285 C 0.45275 0.62347 0.27861 0.0
C2286 C 0.43715 0.62053 0.28637 0.0
H2287 H 0.43513 0.61775 0.34977 0.0
H2288 H 0.44537 0.61711 0.32957 0.0
H2289 H 0.44229 0.63771 0.34102 0.0
H2290 H 0.44202 0.65605 0.31654 0.0
H2291 H 0.46934 0.66124 0.30289 0.0
H2292 H 0.14632 0.38395 0.74016 0.0
H2293 H 0.11829 0.38065 0.72246 0.0
H2294 H 0.13332 0.33465 0.69379 0.0
H2295 H 0.16145 0.33768 0.71173 0.0
H2296 H 0.11135 0.38044 0.68651 0.0
H2297 H 0.08606 0.31758 0.70982 0.0
H2298 H 0.1049 0.33085 0.72079 0.0
H2299 H 0.1068 0.3176 0.70084 0.0
C2300 C 0.14371 0.3731 0.73011 0.0
C2301 C 0.15609 0.36101 0.72742 0.0
C2302 C 0.12768 0.37126 0.71999 0.0
C2303 C 0.12364 0.35729 0.70698 0.0
C2304 C 0.13606 0.34534 0.704 0.0
H2305 H 0.02397 0.33249 0.64153 0.0
H2306 H 0.05474 0.33247 0.65313 0.0
C2307 C 0.15214 0.34714 0.71419 0.0
C2308 C 0.1064 0.35547 0.69662 0.0
H2309 H 0.06768 0.32977 0.68907 0.0
C2310 C 0.10184 0.3693 0.68696 0.0
C2311 C 0.09405 0.3409 0.6972 0.0
C2312 C 0.09807 0.32592 0.70781 0.0
C2313 C 0.08513 0.36913 0.67817 0.0
C2314 C 0.07263 0.35484 0.67923 0.0
C2315 C 0.07735 0.3407 0.68833 0.0
C2316 C 0.05425 0.35488 0.67197 0.0
C2317 C 0.08093 0.38431 0.66794 0.0
C2318 C 0.04383 0.36732 0.67892 0.0
C2319 C 0.02638 0.36727 0.67239 0.0
C2320 C 0.01915 0.3548 0.65885 0.0
C2321 C 0.02944 0.34227 0.65195 0.0
C2322 C 0.04692 0.34225 0.65854 0.0
H2323 H 0.09297 0.39172 0.66452 0.0
H2324 H 0.07248 0.37976 0.65572 0.0
H2325 H 0.07379 0.3934 0.67599 0.0
H2326 H 0.04917 0.37695 0.68951 0.0
H2327 H 0.01853 0.37692 0.67801 0.0
H2328 H 0.7691 0.99852 0.67331 0.0
H2329 H 0.79519 0.9995 0.69394 0.0
H2330 H 0.81835 0.0438 0.67075 0.0
H2331 H 0.79229 0.04312 0.6503 0.0
H2332 H 0.82784 0.99487 0.68415 0.0
H2333 H 0.829 0.05908 0.72258 0.0
H2334 H 0.80969 0.04883 0.70948 0.0
H2335 H 0.82668 0.06067 0.69944 0.0
C2336 C 0.77962 0.00867 0.6728 0.0
C2337 C 0.77864 0.02071 0.66012 0.0
C2338 C 0.79451 0.00921 0.68461 0.0
C2339 C 0.80862 0.02186 0.68403 0.0
C2340 C 0.80747 0.03418 0.67171 0.0
H2341 H 0.91763 0.03877 0.71795 0.0
H2342 H 0.88713 0.04041 0.70655 0.0
C2343 C 0.79259 0.03367 0.65992 0.0
C2344 C 0.82523 0.02109 0.695 0.0
H2345 H 0.85604 0.04568 0.72346 0.0
C2346 C 0.83388 0.00586 0.69298 0.0
C2347 C 0.8331 0.03549 0.70644 0.0
C2348 C 0.82406 0.05188 0.70976 0.0
C2349 C 0.85053 0.00489 0.70149 0.0
C2350 C 0.85862 0.01946 0.71255 0.0
C2351 C 0.84979 0.03454 0.71495 0.0
C2352 C 0.87665 0.01958 0.72088 0.0
C2353 C 0.85966 0.98857 0.69795 0.0
C2354 C 0.88074 0.00763 0.73303 0.0
C2355 C 0.89811 0.00668 0.73947 0.0
C2356 C 0.91148 0.01775 0.73393 0.0
C2357 C 0.90738 0.03015 0.72236 0.0
C2358 C 0.89004 0.0311 0.7159 0.0
H2359 H 0.85321 0.9801 0.6864 0.0
H2360 H 0.87353 0.99196 0.69573 0.0
H2361 H 0.85944 0.98089 0.70947 0.0
H2362 H 0.87056 0.9988 0.7372 0.0
H2363 H 0.90112 0.99703 0.74843 0.0
H2364 H 0.69094 0.96701 0.20066 0.0
H2365 H 0.65909 0.96091 0.19555 0.0
H2366 H 0.65268 0.00634 0.23028 0.0
H2367 H 0.68434 0.0126 0.23539 0.0
H2368 H 0.63531 0.95469 0.22079 0.0
H2369 H 0.62092 0.01251 0.18606 0.0
H2370 H 0.64257 0.00527 0.18872 0.0
H2371 H 0.63438 0.01813 0.20627 0.0
C2372 C 0.68274 0.97577 0.20711 0.0
C2373 C 0.69017 0.99031 0.21842 0.0
C2374 C 0.66457 0.97225 0.20418 0.0
C2375 C 0.65358 0.98331 0.21235 0.0
C2376 C 0.66096 0.99783 0.22358 0.0
H2377 H 0.55101 0.97317 0.24373 0.0
H2378 H 0.582 0.97117 0.23979 0.0
C2379 C 0.67907 0.00134 0.22656 0.0
C2380 C 0.63436 0.97941 0.20984 0.0
H2381 H 0.59689 0.99778 0.19838 0.0
C2382 C 0.62687 0.96396 0.21564 0.0
C2383 C 0.6234 0.99137 0.20283 0.0
C2384 C 0.63072 0.00767 0.19545 0.0
C2385 C 0.60867 0.96064 0.21554 0.0
C2386 C 0.59778 0.97323 0.20972 0.0
C2387 C 0.60525 0.9882 0.203 0.0
C2388 C 0.57878 0.97193 0.21168 0.0
C2389 C 0.60132 0.94381 0.22189 0.0
C2390 C 0.56669 0.97307 0.19721 0.0
C2391 C 0.54903 0.97434 0.19951 0.0
C2392 C 0.54333 0.97451 0.21627 0.0
C2393 C 0.55522 0.9728 0.23066 0.0
C2394 C 0.57286 0.97157 0.22839 0.0
H2395 H 0.61031 0.9334 0.22024 0.0
H2396 H 0.59964 0.94605 0.23603 0.0
H2397 H 0.5884 0.93909 0.2148 0.0
H2398 H 0.57101 0.97353 0.18425 0.0
H2399 H 0.53999 0.97584 0.1883 0.0
H2400 H 0.37981 0.37707 0.60948 0.0
H2401 H 0.35907 0.39903 0.61268 0.0
H2402 H 0.31697 0.35824 0.61186 0.0
H2403 H 0.33775 0.3361 0.609 0.0
H2404 H 0.33158 0.40364 0.58967 0.0
H2405 H 0.30825 0.39044 0.65378 0.0
H2406 H 0.32664 0.38057 0.64551 0.0
H2407 H 0.30475 0.37196 0.63764 0.0
C2408 C 0.36617 0.37273 0.61017 0.0
C2409 C 0.36044 0.35482 0.609 0.0
C2410 C 0.35432 0.38531 0.61194 0.0
C2411 C 0.33649 0.38029 0.61265 0.0
C2412 C 0.33071 0.36243 0.61168 0.0
H2413 H 0.24994 0.44652 0.6207 0.0
H2414 H 0.26697 0.42112 0.61662 0.0
C2415 C 0.34259 0.34979 0.60994 0.0
C2416 C 0.32399 0.39386 0.61352 0.0
H2417 H 0.2943 0.41155 0.63853 0.0
C2418 C 0.32343 0.40536 0.60036 0.0
C2419 C 0.31316 0.39593 0.62733 0.0
C2420 C 0.31329 0.38416 0.64196 0.0
C2421 C 0.31254 0.41902 0.60074 0.0
C2422 C 0.30219 0.42146 0.61486 0.0
C2423 C 0.30233 0.40967 0.62776 0.0
C2424 C 0.29178 0.43666 0.61691 0.0
C2425 C 0.31217 0.43064 0.58596 0.0
C2426 C 0.30013 0.45372 0.6186 0.0
C2427 C 0.29045 0.46811 0.62086 0.0
C2428 C 0.27235 0.4656 0.62161 0.0
C2429 C 0.26394 0.44862 0.62006 0.0
C2430 C 0.27363 0.43419 0.61777 0.0
H2431 H 0.31643 0.42399 0.5739 0.0
H2432 H 0.29887 0.43474 0.58292 0.0
H2433 H 0.32128 0.44256 0.5898 0.0
H2434 H 0.31417 0.45592 0.61839 0.0
H2435 H 0.29712 0.48118 0.62217 0.0
H2436 H 0.20416 0.68389 0.9531 0.0
H2437 H 0.19881 0.65189 0.95002 0.0
H2438 H 0.24024 0.64891 0.99061 0.0
H2439 H 0.24563 0.68072 0.99387 0.0
H2440 H 0.22271 0.6265 0.94207 0.0
H2441 H 0.19776 0.62036 0.00676 0.0
H2442 H 0.19918 0.64075 0.99681 0.0
H2443 H 0.21831 0.63347 0.00793 0.0
C2444 C 0.2121 0.67642 0.9614 0.0
C2445 C 0.22527 0.68486 0.9738 0.0
C2446 C 0.20903 0.65816 0.9596 0.0
C2447 C 0.21896 0.6481 0.97027 0.0
C2448 C 0.23223 0.65648 0.98248 0.0
H2449 H 0.24542 0.54327 0.96533 0.0
H2450 H 0.24237 0.57406 0.96108 0.0
C2451 C 0.23534 0.67467 0.98426 0.0
C2452 C 0.2158 0.62881 0.96859 0.0
H2453 H 0.20672 0.59437 0.99232 0.0
C2454 C 0.21897 0.61943 0.95294 0.0
C2455 C 0.21063 0.61966 0.98269 0.0
C2456 C 0.20609 0.62906 0.99944 0.0
C2457 C 0.21801 0.60108 0.95137 0.0
C2458 C 0.214 0.59197 0.96591 0.0
C2459 C 0.20993 0.60136 0.98122 0.0
C2460 C 0.2151 0.57289 0.96609 0.0
C2461 C 0.22148 0.59163 0.93425 0.0
C2462 C 0.20082 0.56203 0.97038 0.0
C2463 C 0.20262 0.54451 0.97293 0.0
C2464 C 0.21872 0.53771 0.97125 0.0
C2465 C 0.23284 0.54832 0.96645 0.0
C2466 C 0.23106 0.56584 0.96392 0.0
H2467 H 0.21864 0.59956 0.92315 0.0
H2468 H 0.23549 0.58925 0.93473 0.0
H2469 H 0.2135 0.57882 0.93169 0.0
H2470 H 0.18845 0.56726 0.97227 0.0
H2471 H 0.19166 0.53647 0.97682 0.0
H2472 H 0.70618 0.14607 0.34618 0.0
H2473 H 0.69233 0.11599 0.3416 0.0
H2474 H 0.70804 0.10847 0.39527 0.0
H2475 H 0.72152 0.13845 0.40005 0.0
H2476 H 0.70874 0.08645 0.34454 0.0
H2477 H 0.65766 0.0883 0.39057 0.0
H2478 H 0.66877 0.10792 0.384 0.0
H2479 H 0.67874 0.09653 0.40112 0.0
C2480 C 0.70642 0.13809 0.35708 0.0
C2481 C 0.71495 0.14466 0.37348 0.0
C2482 C 0.69852 0.12091 0.35443 0.0
C2483 C 0.69891 0.11007 0.36816 0.0
C2484 C 0.70716 0.11672 0.38461 0.0
H2485 H 0.68764 0.00242 0.38559 0.0
H2486 H 0.69317 0.0343 0.38618 0.0
C2487 C 0.715 0.13386 0.38727 0.0
C2488 C 0.69205 0.09138 0.36508 0.0
H2489 H 0.66626 0.05977 0.38164 0.0
C2490 C 0.6992 0.08066 0.35241 0.0
C2491 C 0.67959 0.08385 0.37535 0.0
C2492 C 0.67062 0.0948 0.38839 0.0
C2493 C 0.6949 0.06249 0.35039 0.0
C2494 C 0.68307 0.05491 0.36123 0.0
C2495 C 0.67543 0.06566 0.37344 0.0
C2496 C 0.67928 0.03574 0.36081 0.0
C2497 C 0.70359 0.05139 0.33723 0.0
C2498 C 0.66954 0.02608 0.34639 0.0
C2499 C 0.66629 0.00791 0.34611 0.0
C2500 C 0.67277 0.99928 0.36022 0.0
C2501 C 0.68245 0.0089 0.37463 0.0
C2502 C 0.68561 0.02705 0.37496 0.0
H2503 H 0.7142 0.05904 0.33151 0.0
H2504 H 0.70913 0.04035 0.34342 0.0
H2505 H 0.69371 0.04577 0.32645 0.0
H2506 H 0.66446 0.03261 0.33542 0.0
H2507 H 0.65878 0.00062 0.33489 0.0
H2508 H 0.65846 0.79096 0.99645 0.0
H2509 H 0.67359 0.82005 0.99544 0.0
H2510 H 0.65812 0.83601 0.04638 0.0
H2511 H 0.64321 0.80696 0.04763 0.0
H2512 H 0.65733 0.85035 0.99631 0.0
H2513 H 0.70937 0.85482 0.05112 0.0
H2514 H 0.69778 0.83427 0.04195 0.0
H2515 H 0.68806 0.84838 0.05741 0.0
C2516 C 0.65853 0.80056 0.00757 0.0
C2517 C 0.64958 0.79665 0.02211 0.0
C2518 C 0.66718 0.81718 0.00697 0.0
C2519 C 0.66716 0.83014 0.02092 0.0
C2520 C 0.65865 0.82611 0.03564 0.0
H2521 H 0.68871 0.942 0.03917 0.0
H2522 H 0.68169 0.91052 0.04107 0.0
C2523 C 0.65001 0.80951 0.03627 0.0
C2524 C 0.67453 0.84831 0.01941 0.0
H2525 H 0.70286 0.88181 0.0399 0.0
C2526 C 0.66746 0.85716 0.0057 0.0
C2527 C 0.68767 0.85719 0.03173 0.0
C2528 C 0.69629 0.84813 0.04629 0.0
C2529 C 0.67273 0.87482 0.0043 0.0
C2530 C 0.68565 0.88379 0.0168 0.0
C2531 C 0.69295 0.87488 0.03035 0.0
C2532 C 0.69125 0.9026 0.01628 0.0
C2533 C 0.66395 0.8839 0.98983 0.0
C2534 C 0.69932 0.9085 0.00194 0.0
C2535 C 0.70325 0.9264 0.00085 0.0
C2536 C 0.69929 0.93856 0.01415 0.0
C2537 C 0.69182 0.93272 0.02879 0.0
C2538 C 0.68787 0.91482 0.02988 0.0
H2539 H 0.65166 0.87634 0.98383 0.0
H2540 H 0.66089 0.89714 0.99477 0.0
H2541 H 0.67291 0.8854 0.97943 0.0
H2542 H 0.70228 0.89927 0.99146 0.0
H2543 H 0.70905 0.93075 0.98948 0.0
H2544 H 0.58962 0.36426 0.34576 0.0
H2545 H 0.59776 0.34563 0.36862 0.0
H2546 H 0.54563 0.31933 0.36234 0.0
H2547 H 0.53726 0.33812 0.33965 0.0
H2548 H 0.5564 0.3303 0.39629 0.0
H2549 H 0.60753 0.29462 0.36665 0.0
H2550 H 0.61155 0.31791 0.36676 0.0
H2551 H 0.59264 0.30658 0.35404 0.0
C2552 C 0.57993 0.35436 0.34905 0.0
C2553 C 0.56277 0.35272 0.3409 0.0
C2554 C 0.58466 0.34363 0.36206 0.0
C2555 C 0.57237 0.33093 0.36704 0.0
C2556 C 0.55534 0.329 0.35865 0.0
H2557 H 0.59792 0.25544 0.44191 0.0
H2558 H 0.5881 0.26891 0.4154 0.0
C2559 C 0.55059 0.33975 0.34567 0.0
C2560 C 0.5769 0.32066 0.38192 0.0
H2561 H 0.60627 0.29371 0.39751 0.0
C2562 C 0.5672 0.32216 0.39648 0.0
C2563 C 0.59086 0.30989 0.38209 0.0
C2564 C 0.60114 0.30699 0.36647 0.0
C2565 C 0.57142 0.31363 0.41142 0.0
C2566 C 0.58593 0.30359 0.41193 0.0
C2567 C 0.59527 0.30159 0.39716 0.0
C2568 C 0.59182 0.29541 0.42784 0.0
C2569 C 0.56027 0.31543 0.42651 0.0
C2570 C 0.59735 0.30586 0.44349 0.0
C2571 C 0.60289 0.2982 0.45853 0.0
C2572 C 0.60309 0.28002 0.45806 0.0
C2573 C 0.59778 0.26952 0.44245 0.0
C2574 C 0.59222 0.27719 0.42738 0.0
H2575 H 0.5471 0.31921 0.42225 0.0
H2576 H 0.5587 0.30303 0.4328 0.0
H2577 H 0.56666 0.3258 0.43645 0.0
H2578 H 0.59748 0.31996 0.44405 0.0
H2579 H 0.60705 0.30647 0.4705 0.0
H2580 H 0.96548 0.19989 0.67945 0.0
H2581 H 0.96475 0.1972 0.64752 0.0
H2582 H 0.95596 0.25165 0.647 0.0
H2583 H 0.95691 0.25456 0.67887 0.0
H2584 H 0.9387 0.2039 0.62137 0.0
H2585 H -0.00019 0.24753 0.62089 0.0
H2586 H 0.99326 0.23854 0.64044 0.0
H2587 H 0.98337 0.25707 0.63271 0.0
C2588 C 0.96334 0.21128 0.67255 0.0
C2589 C 0.96143 0.22748 0.68172 0.0
C2590 C 0.96289 0.20971 0.65431 0.0
C2591 C 0.96059 0.22429 0.64496 0.0
C2592 C 0.9581 0.24032 0.65402 0.0
H2593 H 0.96365 0.24387 0.53618 0.0
H2594 H 0.95842 0.24528 0.56723 0.0
C2595 C 0.95858 0.24193 0.67223 0.0
C2596 C 0.96118 0.22287 0.62575 0.0
H2597 H 0.98398 0.23853 0.59348 0.0
C2598 C 0.9486 0.21142 0.61524 0.0
C2599 C 0.97417 0.23267 0.61785 0.0
C2600 C 0.98853 0.24453 0.62853 0.0
C2601 C 0.94849 0.20977 0.59694 0.0
C2602 C 0.96143 0.21966 0.58906 0.0
C2603 C 0.974 0.23107 0.59959 0.0
C2604 C 0.96252 0.21817 0.56993 0.0
C2605 C 0.9344 0.19769 0.58617 0.0
C2606 C 0.96639 0.20243 0.56118 0.0
C2607 C 0.96937 0.20165 0.54351 0.0
C2608 C 0.96851 0.21659 0.53446 0.0
C2609 C 0.9642 0.23219 0.54301 0.0
C2610 C 0.96126 0.23299 0.56067 0.0
H2611 H 0.92313 0.19442 0.59374 0.0
H2612 H 0.92963 0.20365 0.57426 0.0
H2613 H 0.93986 0.18532 0.58196 0.0
H2614 H 0.96777 0.19096 0.56818 0.0
H2615 H 0.97289 0.18956 0.53709 0.0
H2616 H 0.36225 0.70254 0.17344 0.0
H2617 H 0.35708 0.68606 0.1445 0.0
H2618 H 0.39314 0.72333 0.12416 0.0
H2619 H 0.39851 0.73969 0.15286 0.0
H2620 H 0.34462 0.69786 0.11232 0.0
H2621 H 0.41104 0.67618 0.10957 0.0
H2622 H 0.40304 0.68446 0.12972 0.0
H2623 H 0.41125 0.69933 0.11493 0.0
C2624 C 0.36912 0.70717 0.16281 0.0
C2625 C 0.38087 0.72237 0.16547 0.0
C2626 C 0.36615 0.69775 0.14631 0.0
C2627 C 0.37498 0.70332 0.13231 0.0
C2628 C 0.3865 0.7186 0.1349 0.0
H2629 H 0.379 0.68469 0.02277 0.0
H2630 H 0.38131 0.69472 0.05403 0.0
C2631 C 0.38947 0.72799 0.15131 0.0
C2632 C 0.37191 0.6936 0.11477 0.0
H2633 H 0.39333 0.67468 0.08226 0.0
C2634 C 0.35517 0.69251 0.10581 0.0
C2635 C 0.38571 0.68659 0.10639 0.0
C2636 C 0.40373 0.68652 0.11571 0.0
C2637 C 0.35209 0.68543 0.0883 0.0
C2638 C 0.36611 0.67917 0.07971 0.0
C2639 C 0.38266 0.67962 0.08889 0.0
C2640 C 0.36419 0.67311 0.06087 0.0
C2641 C 0.33413 0.68542 0.07886 0.0
C2642 C 0.35384 0.65763 0.05446 0.0
C2643 C 0.35257 0.6519 0.03664 0.0
C2644 C 0.36164 0.66161 0.02515 0.0
C2645 C 0.37191 0.67707 0.03151 0.0
C2646 C 0.37324 0.68276 0.04929 0.0
H2647 H 0.32546 0.69318 0.08656 0.0
H2648 H 0.33505 0.69079 0.06603 0.0
H2649 H 0.328 0.67177 0.07635 0.0
H2650 H 0.34696 0.64991 0.06326 0.0
H2651 H 0.34465 0.63987 0.03187 0.0
H2652 H 0.04261 0.64007 0.7952 0.0
H2653 H 0.0427 0.66089 0.82095 0.0
H2654 H 0.00041 0.68517 0.79543 0.0
H2655 H 3e-05 0.66421 0.76963 0.0
H2656 H 0.04674 0.69796 0.82555 0.0
H2657 H 0.98117 0.67061 0.84066 0.0
H2658 H 0.99359 0.65947 0.8251 0.0
H2659 H 0.9822 0.67777 0.81917 0.0
C2660 C 0.03338 0.64989 0.79499 0.0
C2661 C 0.02117 0.65035 0.78044 0.0
C2662 C 0.03349 0.66181 0.80971 0.0
C2663 C 0.02139 0.67438 0.81018 0.0
C2664 C 0.00965 0.67536 0.79543 0.0
H2665 H 0.99685 0.74133 0.90044 0.0
H2666 H 0.99878 0.72921 0.87019 0.0
C2667 C 0.0095 0.66341 0.78068 0.0
C2668 C 0.02064 0.68587 0.82646 0.0
H2669 H 0.99506 0.69416 0.85962 0.0
C2670 C 0.03541 0.69724 0.83296 0.0
C2671 C 0.00583 0.68488 0.83607 0.0
C2672 C 0.98983 0.67245 0.83003 0.0
C2673 C 0.03582 0.70755 0.84894 0.0
C2674 C 0.02117 0.70622 0.85877 0.0
C2675 C 0.00625 0.69519 0.85203 0.0
C2676 C 0.02133 0.71525 0.87655 0.0
C2677 C 0.05189 0.71979 0.85515 0.0
C2678 C 0.03342 0.7115 0.89009 0.0
C2679 C 0.03233 0.71843 0.90727 0.0
C2680 C 0.0191 0.72911 0.9111 0.0
C2681 C 0.00724 0.73321 0.89761 0.0
C2682 C 0.00833 0.72629 0.88042 0.0
H2683 H 0.0594 0.72329 0.84407 0.0
H2684 H 0.04842 0.73199 0.86221 0.0
H2685 H 0.06056 0.71324 0.86423 0.0
H2686 H 0.04327 0.70267 0.88749 0.0
H2687 H 0.04146 0.715 0.91763 0.0
H2688 H 0.62507 0.45457 0.60065 0.0
H2689 H 0.59338 0.44876 0.60086 0.0
H2690 H 0.60053 0.43439 0.65365 0.0
H2691 H 0.63213 0.44034 0.65366 0.0
H2692 H 0.57468 0.41718 0.60602 0.0
H2693 H 0.56387 0.46958 0.65678 0.0
H2694 H 0.58373 0.46946 0.64598 0.0
H2695 H 0.58048 0.456 0.66357 0.0
C2696 C 0.6199 0.45029 0.61235 0.0
C2697 C 0.63113 0.44797 0.62717 0.0
C2698 C 0.60179 0.44697 0.61244 0.0
C2699 C 0.59461 0.44141 0.62736 0.0
C2700 C 0.60578 0.43904 0.64213 0.0
H2701 H 0.49387 0.40535 0.65743 0.0
H2702 H 0.52487 0.41436 0.65521 0.0
C2703 C 0.62386 0.44235 0.64207 0.0
C2704 C 0.57549 0.43733 0.62729 0.0
H2705 H 0.54031 0.44742 0.64885 0.0
C2706 C 0.5671 0.4239 0.61525 0.0
C2707 C 0.56568 0.44614 0.63936 0.0
C2708 C 0.57385 0.46121 0.65205 0.0
C2709 C 0.54924 0.4186 0.61536 0.0
C2710 C 0.53951 0.42719 0.62765 0.0
C2711 C 0.54784 0.44084 0.63948 0.0
C2712 C 0.52078 0.42184 0.62884 0.0
C2713 C 0.54107 0.40347 0.60273 0.0
C2714 C 0.50825 0.42325 0.61482 0.0
C2715 C 0.49061 0.41806 0.61609 0.0
C2716 C 0.48536 0.41152 0.6314 0.0
C2717 C 0.49778 0.4103 0.64548 0.0
C2718 C 0.5154 0.41547 0.64423 0.0
H2719 H 0.55108 0.39583 0.59695 0.0
H2720 H 0.53224 0.39454 0.6093 0.0
H2721 H 0.53318 0.40857 0.5919 0.0
H2722 H 0.5121 0.42844 0.60297 0.0
H2723 H 0.48109 0.4192 0.60516 0.0
H2724 H 0.86227 0.57272 0.2444 0.0
H2725 H 0.89412 0.57367 0.24892 0.0
H2726 H 0.89867 0.60118 0.2029 0.0
H2727 H 0.86683 0.60054 0.19839 0.0
H2728 H 0.91896 0.56134 0.22731 0.0
H2729 H 0.92812 0.63366 0.24142 0.0
H2730 H 0.90708 0.62132 0.24095 0.0
H2731 H 0.91598 0.62597 0.22088 0.0
C2732 C 0.87002 0.5789 0.23518 0.0
C2733 C 0.862 0.58672 0.22113 0.0
C2734 C 0.88822 0.57941 0.23778 0.0
C2735 C 0.89874 0.58777 0.22643 0.0
C2736 C 0.89078 0.59499 0.21202 0.0
H2737 H 0.01178 0.61146 0.23041 0.0
H2738 H 0.98025 0.60742 0.22119 0.0
C2739 C 0.87258 0.59452 0.20942 0.0
C2740 C 0.91802 0.58927 0.22997 0.0
H2741 H 0.95367 0.61895 0.24038 0.0
C2742 C 0.92657 0.57393 0.23015 0.0
C2743 C 0.92789 0.60572 0.23368 0.0
C2744 C 0.91934 0.62262 0.23439 0.0
C2745 C 0.94478 0.57459 0.23384 0.0
C2746 C 0.95461 0.59103 0.23772 0.0
C2747 C 0.94609 0.60637 0.23734 0.0
C2748 C 0.9737 0.59266 0.24276 0.0
C2749 C 0.95335 0.55771 0.23338 0.0
C2750 C 0.9804 0.5858 0.25799 0.0
C2751 C 0.99832 0.58812 0.26322 0.0
C2752 C 0.00971 0.59737 0.25333 0.0
C2753 C 0.00312 0.60421 0.23813 0.0
C2754 C 0.98519 0.60191 0.23289 0.0
H2755 H 0.94492 0.54684 0.22562 0.0
H2756 H 0.96612 0.55918 0.22775 0.0
H2757 H 0.95574 0.554 0.24691 0.0
H2758 H 0.97173 0.57897 0.266 0.0
H2759 H 0.00323 0.58289 0.27509 0.0
H2760 H 0.23138 0.00167 0.32413 0.0
H2761 H 0.202 0.98645 0.3202 0.0
H2762 H 0.20617 0.97622 0.37443 0.0
H2763 H 0.23548 0.99176 0.37862 0.0
H2764 H 0.18784 0.95269 0.32567 0.0
H2765 H 0.16354 0.00414 0.36996 0.0
H2766 H 0.18473 0.00674 0.36179 0.0
H2767 H 0.18131 0.9934 0.37942 0.0
C2768 C 0.22614 0.99605 0.33521 0.0
C2769 C 0.23566 0.99816 0.35176 0.0
C2770 C 0.20936 0.98731 0.33291 0.0
C2771 C 0.20181 0.98049 0.3471 0.0
C2772 C 0.21165 0.9817 0.3634 0.0
H2773 H 0.09168 0.94768 0.35414 0.0
H2774 H 0.12366 0.95024 0.36008 0.0
C2775 C 0.22841 0.99053 0.36575 0.0
C2776 C 0.18326 0.97325 0.345 0.0
H2777 H 0.14311 0.98118 0.35756 0.0
C2778 C 0.17805 0.95881 0.33273 0.0
C2779 C 0.17053 0.9813 0.35421 0.0
C2780 C 0.17521 0.99734 0.36698 0.0
C2781 C 0.16039 0.9523 0.3293 0.0
C2782 C 0.14766 0.96063 0.33822 0.0
C2783 C 0.15293 0.97475 0.35082 0.0
C2784 C 0.12866 0.95595 0.33385 0.0
C2785 C 0.15553 0.93665 0.31613 0.0
C2786 C 0.12091 0.95802 0.31708 0.0
C2787 C 0.10272 0.95653 0.31372 0.0
C2788 C 0.09211 0.95301 0.32709 0.0
C2789 C 0.09975 0.95023 0.34363 0.0
C2790 C 0.11794 0.95171 0.34701 0.0
H2791 H 0.16671 0.92865 0.31465 0.0
H2792 H 0.14432 0.92824 0.31993 0.0
H2793 H 0.1517 0.94121 0.30321 0.0
H2794 H 0.12888 0.96173 0.30686 0.0
H2795 H 0.09696 0.95894 0.30093 0.0
H2796 H 0.32421 0.02857 0.77861 0.0
H2797 H 0.35619 0.03243 0.78175 0.0
H2798 H 0.35615 0.04061 0.72712 0.0
H2799 H 0.32424 0.03702 0.7239 0.0
H2800 H 0.37761 0.01172 0.76427 0.0
H2801 H 0.39072 0.0806 0.75003 0.0
H2802 H 0.36958 0.07166 0.75526 0.0
H2803 H 0.37607 0.06776 0.73351 0.0
C2804 C 0.331 0.03142 0.76731 0.0
C2805 C 0.32167 0.03247 0.75099 0.0
C2806 C 0.34927 0.03363 0.76914 0.0
C2807 C 0.35854 0.03705 0.75473 0.0
C2808 C 0.34926 0.03838 0.7385 0.0
H2809 H 0.46314 0.0355 0.72562 0.0
H2810 H 0.43202 0.03877 0.72803 0.0
C2811 C 0.331 0.0362 0.73666 0.0
C2812 C 0.37788 0.03781 0.75627 0.0
H2813 H 0.41474 0.06291 0.74891 0.0
C2814 C 0.38576 0.023 0.76116 0.0
C2815 C 0.38846 0.05253 0.75216 0.0
C2816 C 0.3808 0.06911 0.74761 0.0
C2817 C 0.40388 0.02223 0.76137 0.0
C2818 C 0.41443 0.0368 0.75687 0.0
C2819 C 0.4066 0.05177 0.75235 0.0
C2820 C 0.43347 0.03632 0.75587 0.0
C2821 C 0.41151 0.00556 0.76572 0.0
C2822 C 0.44464 0.0343 0.7708 0.0
C2823 C 0.46235 0.03241 0.7694 0.0
C2824 C 0.46907 0.03266 0.7531 0.0
C2825 C 0.45812 0.03531 0.73831 0.0
C2826 C 0.44041 0.03719 0.73969 0.0
H2827 H 0.40128 0.9944 0.7652 0.0
H2828 H 0.42128 0.00204 0.75657 0.0
H2829 H 0.41822 0.0075 0.77915 0.0
H2830 H 0.43958 0.03387 0.78344 0.0
H2831 H 0.4707 0.03038 0.78094 0.0
H2832 H 0.68734 0.64775 0.45074 0.0
H2833 H 0.69886 0.62001 0.4421 0.0
H2834 H 0.66625 0.61548 0.39331 0.0
H2835 H 0.65487 0.64324 0.40168 0.0
H2836 H 0.67844 0.58879 0.43584 0.0
H2837 H 0.71254 0.60201 0.37736 0.0
H2838 H 0.70678 0.61928 0.39254 0.0
H2839 H 0.69067 0.60841 0.37599 0.0
C2840 C 0.68288 0.64103 0.43801 0.0
C2841 C 0.67012 0.64768 0.42693 0.0
C2842 C 0.68948 0.62518 0.43311 0.0
C2843 C 0.68355 0.61577 0.41699 0.0
C2844 C 0.67129 0.62269 0.40564 0.0
H2845 H 0.68102 0.51183 0.36714 0.0
H2846 H 0.67885 0.54299 0.37555 0.0
C2847 C 0.6647 0.63853 0.41052 0.0
C2848 C 0.68869 0.59791 0.4128 0.0
H2849 H 0.70501 0.5718 0.38129 0.0
C2850 C 0.68451 0.58512 0.42405 0.0
C2851 C 0.69653 0.59315 0.39738 0.0
C2852 C 0.70205 0.60648 0.38521 0.0
C2853 C 0.68728 0.56755 0.41996 0.0
C2854 C 0.6947 0.56271 0.40431 0.0
C2855 C 0.6993 0.57556 0.39326 0.0
C2856 C 0.69694 0.54422 0.3988 0.0
C2857 C 0.68154 0.55419 0.43203 0.0
C2858 C 0.70806 0.53471 0.40893 0.0
C2859 C 0.70924 0.51696 0.40415 0.0
C2860 C 0.69944 0.50861 0.38915 0.0
C2861 C 0.68868 0.51815 0.37877 0.0
C2862 C 0.68748 0.53588 0.38354 0.0
H2863 H 0.67269 0.55943 0.44142 0.0
H2864 H 0.67471 0.54227 0.42447 0.0
H2865 H 0.69321 0.55031 0.43966 0.0
H2866 H 0.71566 0.54098 0.4206 0.0
H2867 H 0.71763 0.50973 0.41228 0.0
H2868 H 0.7092 0.30746 0.03556 0.0
H2869 H 0.70193 0.33683 0.02944 0.0
H2870 H 0.73869 0.3594 0.0724 0.0
H2871 H 0.7461 0.33026 0.07857 0.0
H2872 H 0.68997 0.36494 0.05215 0.0
H2873 H 0.75484 0.38241 0.02888 0.0
H2874 H 0.74664 0.3601 0.03098 0.0
H2875 H 0.75557 0.37417 0.05001 0.0
C2876 C 0.71563 0.31867 0.04379 0.0
C2877 C 0.72836 0.31652 0.05745 0.0
C2878 C 0.71146 0.33542 0.04027 0.0
C2879 C 0.72 0.35025 0.05029 0.0
C2880 C 0.73218 0.34811 0.06433 0.0
H2881 H 0.72363 0.4625 0.04742 0.0
H2882 H 0.72741 0.43251 0.05449 0.0
C2883 C 0.73634 0.33143 0.06787 0.0
C2884 C 0.71663 0.36804 0.04585 0.0
H2885 H 0.73645 0.40526 0.0325 0.0
C2886 C 0.70006 0.37376 0.04776 0.0
C2887 C 0.72986 0.37945 0.04013 0.0
C2888 C 0.7477 0.37373 0.03721 0.0
C2889 C 0.69651 0.39083 0.04454 0.0
C2890 C 0.7098 0.4023 0.03894 0.0
C2891 C 0.72631 0.39647 0.03688 0.0
C2892 C 0.70695 0.42042 0.03512 0.0
C2893 C 0.67872 0.39658 0.0476 0.0
C2894 C 0.6943 0.42354 0.02182 0.0
C2895 C 0.69212 0.44063 0.01785 0.0
C2896 C 0.70264 0.45476 0.02703 0.0
C2897 C 0.71533 0.45173 0.04026 0.0
C2898 C 0.71749 0.43464 0.04427 0.0
H2899 H 0.67177 0.38804 0.05619 0.0
H2900 H 0.67979 0.41029 0.05362 0.0
H2901 H 0.67066 0.39586 0.03489 0.0
H2902 H 0.68631 0.41276 0.01432 0.0
H2903 H 0.68234 0.44278 0.0075 0.0
H2904 H 0.20903 0.87159 0.59762 0.0
H2905 H 0.21064 0.9033 0.59632 0.0
H2906 H 0.26341 0.90317 0.58183 0.0
H2907 H 0.26188 0.87151 0.58289 0.0
H2908 H 0.23434 0.92787 0.61648 0.0
H2909 H 0.24063 0.93225 0.54588 0.0
H2910 H 0.2332 0.91216 0.55453 0.0
H2911 H 0.25615 0.91929 0.55603 0.0
C2912 C 0.22091 0.87827 0.59395 0.0
C2913 C 0.23532 0.86901 0.59035 0.0
C2914 C 0.2218 0.89639 0.59323 0.0
C2915 C 0.23705 0.90554 0.58875 0.0
C2916 C 0.25138 0.89631 0.58495 0.0
H2917 H 0.27984 0.01236 0.58887 0.0
H2918 H 0.27347 0.9804 0.58613 0.0
C2919 C 0.25051 0.87822 0.58568 0.0
C2920 C 0.23846 0.92486 0.58917 0.0
H2921 H 0.24744 0.95874 0.56459 0.0
C2922 C 0.237 0.93465 0.6051 0.0
C2923 C 0.24197 0.93363 0.5743 0.0
C2924 C 0.24292 0.92381 0.55667 0.0
C2925 C 0.23956 0.95298 0.60672 0.0
C2926 C 0.24339 0.96174 0.59192 0.0
C2927 C 0.24453 0.95197 0.57591 0.0
C2928 C 0.24687 0.98102 0.59297 0.0
C2929 C 0.2388 0.96278 0.62441 0.0
C2930 C 0.23393 0.99192 0.59743 0.0
C2931 C 0.23759 0.01011 0.59904 0.0
C2932 C 0.25416 0.01755 0.59608 0.0
C2933 C 0.26698 0.00675 0.59124 0.0
C2934 C 0.26334 0.98858 0.58965 0.0
H2935 H 0.23976 0.95404 0.63512 0.0
H2936 H 0.2495 0.97353 0.62703 0.0
H2937 H 0.22617 0.96864 0.62467 0.0
H2938 H 0.22105 0.98635 0.59973 0.0
H2939 H 0.22754 0.01833 0.60271 0.0
H2940 H 0.37441 0.23392 0.98533 0.0
H2941 H 0.36687 0.20456 0.9705 0.0
H2942 H 0.31318 0.20719 0.98138 0.0
H2943 H 0.32048 0.23662 0.99583 0.0
H2944 H 0.35509 0.17745 0.98705 0.0
H2945 H 0.30674 0.1851 0.93169 0.0
H2946 H 0.32057 0.20339 0.94308 0.0
H2947 H 0.30087 0.19528 0.95187 0.0
C2948 C 0.36092 0.2284 0.98424 0.0
C2949 C 0.34806 0.23757 0.99186 0.0
C2950 C 0.35663 0.21163 0.97573 0.0
C2951 C 0.33942 0.20374 0.97464 0.0
C2952 C 0.32645 0.21315 0.98165 0.0
H2953 H 0.28642 0.10211 0.96765 0.0
H2954 H 0.29515 0.13354 0.96795 0.0
C2955 C 0.3307 0.22994 0.99007 0.0
C2956 C 0.33546 0.18499 0.96831 0.0
H2957 H 0.30658 0.1562 0.94171 0.0
C2958 C 0.34473 0.17281 0.97688 0.0
C2959 C 0.32188 0.17896 0.9551 0.0
C2960 C 0.31207 0.1914 0.94479 0.0
C2961 C 0.34023 0.15478 0.97323 0.0
C2962 C 0.32623 0.14877 0.96048 0.0
C2963 C 0.31731 0.16089 0.95148 0.0
C2964 C 0.31989 0.13 0.95747 0.0
C2965 C 0.34991 0.14234 0.98369 0.0
C2966 C 0.33066 0.11769 0.95091 0.0
C2967 C 0.32569 0.09979 0.95078 0.0
C2968 C 0.30986 0.09411 0.95705 0.0
C2969 C 0.29865 0.10634 0.96267 0.0
C2970 C 0.30361 0.12422 0.96282 0.0
H2971 H 0.3582 0.14924 0.99514 0.0
H2972 H 0.3406 0.13241 0.98842 0.0
H2973 H 0.35852 0.13537 0.97523 0.0
H2974 H 0.3432 0.12192 0.94659 0.0
H2975 H 0.3345 0.09045 0.94645 0.0
H2976 H 0.40946 0.61032 0.6308 0.0
H2977 H 0.40105 0.61643 0.60076 0.0
H2978 H 0.44494 0.65554 0.60363 0.0
H2979 H 0.45362 0.64936 0.63352 0.0
H2980 H 0.39226 0.64792 0.589 0.0
H2981 H 0.45006 0.62576 0.55838 0.0
H2982 H 0.44498 0.62033 0.5798 0.0
H2983 H 0.45546 0.64154 0.57699 0.0
C2984 C 0.41741 0.62012 0.625 0.0
C2985 C 0.43226 0.6293 0.63453 0.0
C2986 C 0.41256 0.62361 0.60785 0.0
C2987 C 0.42251 0.63626 0.59991 0.0
C2988 C 0.4373 0.64547 0.60939 0.0
H2989 H 0.41359 0.67993 0.49992 0.0
H2990 H 0.42136 0.67403 0.53029 0.0
C2991 C 0.44218 0.64197 0.62651 0.0
C2992 C 0.41709 0.64024 0.5819 0.0
H2993 H 0.43086 0.64128 0.54106 0.0
C2994 C 0.40064 0.64638 0.57848 0.0
C2995 C 0.42809 0.63823 0.56824 0.0
C2996 C 0.44557 0.63095 0.57095 0.0
C2997 C 0.39501 0.65087 0.5618 0.0
C2998 C 0.40605 0.64896 0.54819 0.0
C2999 C 0.42247 0.64279 0.55159 0.0
C3000 C 0.40075 0.65309 0.53022 0.0
C3001 C 0.37745 0.65795 0.55894 0.0
C3002 C 0.38663 0.64324 0.5202 0.0
C3003 C 0.38225 0.64658 0.50291 0.0
C3004 C 0.39195 0.65976 0.4955 0.0
C3005 C 0.40594 0.66973 0.50551 0.0
C3006 C 0.41037 0.66636 0.52277 0.0
H3007 H 0.37244 0.66245 0.57148 0.0
H3008 H 0.37823 0.66903 0.55064 0.0
H3009 H 0.36788 0.64749 0.5521 0.0
H3010 H 0.37925 0.63274 0.52563 0.0
H3011 H 0.3715 0.63867 0.49525 0.0
H3012 H 0.02664 0.71961 0.33005 0.0
H3013 H 0.02704 0.7235 0.36187 0.0
H3014 H 0.04331 0.77839 0.3615 0.0
H3015 H 0.0431 0.77463 0.32961 0.0
H3016 H 0.06197 0.76161 0.38778 0.0
H3017 H 0.99012 0.74824 0.38781 0.0
H3018 H 0.00018 0.73154 0.37566 0.0
H3019 H 0.00045 0.75311 0.36842 0.0
C3020 C 0.03035 0.73251 0.33671 0.0
C3021 C 0.03474 0.74683 0.32727 0.0
C3022 C 0.0305 0.73472 0.35489 0.0
C3023 C 0.03494 0.75128 0.36398 0.0
C3024 C 0.03976 0.76552 0.35469 0.0
H3025 H 0.01203 0.77417 0.47191 0.0
H3026 H 0.01524 0.77609 0.44069 0.0
C3027 C 0.03961 0.76334 0.33647 0.0
C3028 C 0.03438 0.75368 0.38317 0.0
H3029 H 0.00696 0.74903 0.41524 0.0
C3030 C 0.04994 0.75899 0.39382 0.0
C3031 C 0.01861 0.75052 0.39097 0.0
C3032 C 0.00135 0.7457 0.38015 0.0
C3033 C 0.05024 0.76066 0.41214 0.0
C3034 C 0.0346 0.7567 0.41993 0.0
C3035 C 0.01896 0.75194 0.40925 0.0
C3036 C 0.03413 0.75693 0.43913 0.0
C3037 C 0.06725 0.76672 0.42296 0.0
C3038 C 0.04377 0.74562 0.44861 0.0
C3039 C 0.04197 0.74459 0.46639 0.0
C3040 C 0.03046 0.75477 0.47485 0.0
C3041 C 0.02108 0.76632 0.46556 0.0
C3042 C 0.02288 0.76738 0.44778 0.0
H3043 H 0.07654 0.77397 0.41531 0.0
H3044 H 0.06507 0.77525 0.43477 0.0
H3045 H 0.07345 0.75515 0.42728 0.0
H3046 H 0.05221 0.73715 0.44213 0.0
H3047 H 0.04917 0.73547 0.4734 0.0
H3048 H 0.59427 0.23942 0.87077 0.0
H3049 H 0.59274 0.24427 0.90241 0.0
H3050 H 0.63499 0.28523 0.90583 0.0
H3051 H 0.6365 0.28065 0.8743 0.0
H3052 H 0.61886 0.24236 0.92992 0.0
H3053 H 0.59685 0.309 0.9301 0.0
H3054 H 0.59597 0.29436 0.91041 0.0
H3055 H 0.61626 0.30646 0.91921 0.0
C3056 C 0.60321 0.24949 0.87825 0.0
C3057 C 0.61543 0.25973 0.86998 0.0
C3058 C 0.60232 0.25222 0.89632 0.0
C3059 C 0.61354 0.26531 0.9064 0.0
C3060 C 0.62595 0.27532 0.89823 0.0
H3061 H 0.63551 0.30447 0.01488 0.0
H3062 H 0.6348 0.29777 0.98308 0.0
C3063 C 0.62685 0.2726 0.88021 0.0
C3064 C 0.61253 0.26838 0.92551 0.0
H3065 H 0.60629 0.2998 0.95777 0.0
C3066 C 0.61596 0.25485 0.93602 0.0
C3067 C 0.6087 0.28469 0.9334 0.0
C3068 C 0.60407 0.29942 0.9227 0.0
C3069 C 0.61624 0.2574 0.95431 0.0
C3070 C 0.61275 0.27383 0.96221 0.0
C3071 C 0.60904 0.28725 0.95167 0.0
C3072 C 0.61327 0.27754 0.98143 0.0
C3073 C 0.6208 0.2427 0.96507 0.0
C3074 C 0.60131 0.26848 0.99098 0.0
C3075 C 0.60173 0.27232 0.00909 0.0
C3076 C 0.61407 0.28526 0.0178 0.0
C3077 C 0.62595 0.29438 0.00832 0.0
C3078 C 0.62552 0.29058 0.99023 0.0
H3079 H 0.62687 0.23239 0.95737 0.0
H3080 H 0.62992 0.2477 0.9767 0.0
H3081 H 0.60871 0.23659 0.96973 0.0
H3082 H 0.59154 0.25861 0.9844 0.0
H3083 H 0.59237 0.26527 0.01626 0.0
H3084 H 0.04283 0.31124 0.24649 0.0
H3085 H 0.03272 0.29942 0.21658 0.0
H3086 H 0.00565 0.34526 0.20902 0.0
H3087 H 0.01598 0.35738 0.23887 0.0
H3088 H 0.99927 0.29185 0.19872 0.0
H3089 H 0.0384 0.34428 0.16996 0.0
H3090 H 0.04153 0.34069 0.19278 0.0
H3091 H 0.02333 0.35178 0.1848 0.0
C3092 C 0.03464 0.31879 0.23853 0.0
C3093 C 0.03039 0.33536 0.245 0.0
C3094 C 0.02883 0.31198 0.22145 0.0
C3095 C 0.0187 0.3216 0.21051 0.0
C3096 C 0.01377 0.33779 0.21715 0.0
H3097 H 0.98972 0.30187 0.09799 0.0
H3098 H 0.99054 0.31324 0.12886 0.0
C3099 C 0.01962 0.34465 0.23423 0.0
C3100 C 0.01399 0.31493 0.19197 0.0
H3101 H 0.02125 0.32327 0.15031 0.0
C3102 C 0.00398 0.29874 0.18811 0.0
C3103 C 0.02018 0.32397 0.17818 0.0
C3104 C 0.03158 0.34107 0.18156 0.0
C3105 C 0.0001 0.29129 0.1708 0.0
C3106 C 0.00661 0.30017 0.15706 0.0
C3107 C 0.01624 0.31654 0.16089 0.0
C3108 C 0.00447 0.29236 0.13869 0.0
C3109 C 0.98906 0.27401 0.16735 0.0
C3110 C 0.01198 0.27686 0.13405 0.0
C3111 C 0.01153 0.27042 0.11649 0.0
C3112 C 0.00361 0.27945 0.10343 0.0
C3113 C 0.9958 0.29472 0.108 0.0
C3114 C 0.99627 0.30119 0.12555 0.0
H3115 H 0.98105 0.27147 0.17834 0.0
H3116 H 0.98022 0.27356 0.15513 0.0
H3117 H 0.99773 0.26333 0.16586 0.0
H3118 H 0.01872 0.27007 0.14394 0.0
H3119 H 0.01775 0.25867 0.1131 0.0
loop_
_geom_bond_atom_site_label_1
_geom_bond_atom_site_label_2
_geom_bond_distance
_geom_bond_site_symmetry_2
_ccdc_geom_bond_type
O0 Cd1 2.300 . S
O0 C7 1.275 . S
Cd1 O0 2.300 . S
Cd1 O9 2.381 . S
Cd1 O10 2.378 . S
O2 Cd3 2.385 . S
O2 C7 1.255 . S
Cd3 O2 2.385 . S
Cd3 O4 2.317 . S
O4 Cd3 2.317 . S
O4 C5 1.232 . S
C5 O4 1.232 . S
C5 O6 1.218 . S
O6 C5 1.218 . S
C7 O0 1.275 . S
C7 O2 1.255 . S
C8 O9 1.258 . S
C8 O10 1.256 . S
O9 Cd1 2.381 . S
O9 C8 1.258 . S
O10 Cd1 2.378 . S
O10 C8 1.256 . S
O11 Cd12 2.300 . S
O11 C18 1.275 . S
Cd12 O11 2.300 . S
Cd12 O20 2.381 . S
Cd12 O21 2.378 . S
O13 Cd14 2.385 . S
O13 C18 1.255 . S
Cd14 O13 2.385 . S
Cd14 O15 2.317 . S
O15 Cd14 2.317 . S
O15 C16 1.232 . S
C16 O15 1.232 . S
C16 O17 1.218 . S
O17 C16 1.218 . S
C18 O11 1.275 . S
C18 O13 1.255 . S
C19 O20 1.258 . S
C19 O21 1.256 . S
O20 Cd12 2.381 . S
O20 C19 1.258 . S
O21 Cd12 2.378 . S
O21 C19 1.256 . S
O22 Cd23 2.296 1_545 S
O22 C29 1.270 1_545 S
Cd23 O22 2.296 1_565 S
Cd23 O31 2.381 1_565 S
Cd23 O32 2.378 . S
O24 Cd25 2.385 . S
O24 C29 1.255 . S
Cd25 O24 2.385 . S
Cd25 O26 2.317 . S
O26 Cd25 2.317 . S
O26 C27 1.232 . S
C27 O26 1.232 . S
C27 O28 1.218 . S
O28 C27 1.218 . S
C29 O22 1.270 1_565 S
C29 O24 1.255 . S
C30 O31 1.258 . S
C30 O32 1.256 1_545 S
O31 Cd23 2.381 1_545 S
O31 C30 1.258 . S
O32 Cd23 2.378 . S
O32 C30 1.256 1_565 S
O33 Cd34 2.300 1_565 S
O33 C40 1.275 1_565 S
Cd34 O33 2.300 1_545 S
Cd34 O42 2.381 1_545 S
Cd34 O43 2.378 . S
O35 Cd36 2.385 . S
O35 C40 1.255 . S
Cd36 O35 2.385 . S
Cd36 O37 2.317 . S
O37 Cd36 2.317 . S
O37 C38 1.232 . S
C38 O37 1.232 . S
C38 O39 1.218 . S
O39 C38 1.218 . S
C40 O33 1.275 1_545 S
C40 O35 1.255 . S
C41 O42 1.258 1_545 S
C41 O43 1.256 . S
O42 Cd34 2.381 1_565 S
O42 C41 1.258 1_565 S
O43 Cd34 2.378 . S
O43 C41 1.256 . S
O44 Cd45 2.300 . S
O44 C51 1.275 . S
Cd45 O44 2.300 . S
Cd45 O53 2.381 . S
Cd45 O54 2.378 . S
O46 Cd47 2.385 . S
O46 C51 1.255 . S
Cd47 O46 2.385 . S
Cd47 O48 2.317 . S
O48 Cd47 2.317 . S
O48 C49 1.232 . S
C49 O48 1.232 . S
C49 O50 1.218 . S
O50 C49 1.218 . S
C51 O44 1.275 . S
C51 O46 1.255 . S
C52 O53 1.258 . S
C52 O54 1.256 . S
O53 Cd45 2.381 . S
O53 C52 1.258 . S
O54 Cd45 2.378 . S
O54 C52 1.256 . S
O55 Cd56 2.300 1_556 S
O55 C62 1.275 1_556 S
Cd56 O55 2.300 1_554 S
Cd56 O64 2.381 1_554 S
Cd56 O65 2.378 . S
O57 Cd58 2.385 . S
O57 C62 1.255 . S
Cd58 O57 2.385 . S
Cd58 O59 2.317 . S
O59 Cd58 2.317 . S
O59 C60 1.232 . S
C60 O59 1.232 . S
C60 O61 1.218 . S
O61 C60 1.218 . S
C62 O55 1.275 1_554 S
C62 O57 1.255 . S
C63 O64 1.258 1_554 S
C63 O65 1.256 . S
O64 Cd56 2.381 1_556 S
O64 C63 1.258 1_556 S
O65 Cd56 2.378 . S
O65 C63 1.256 . S
O66 Cd67 2.300 . S
O66 C73 1.275 . S
Cd67 O66 2.300 . S
Cd67 O75 2.381 . S
Cd67 O76 2.378 . S
O68 Cd69 2.385 . S
O68 C73 1.255 . S
Cd69 O68 2.385 . S
Cd69 O70 2.317 . S
O70 Cd69 2.317 . S
O70 C71 1.232 . S
C71 O70 1.232 . S
C71 O72 1.218 . S
O72 C71 1.218 . S
C73 O66 1.275 . S
C73 O68 1.255 . S
C74 O75 1.258 . S
C74 O76 1.256 . S
O75 Cd67 2.381 . S
O75 C74 1.258 . S
O76 Cd67 2.378 . S
O76 C74 1.256 . S
O77 Cd78 2.296 1_554 S
O77 C84 1.270 1_554 S
Cd78 O77 2.296 1_556 S
Cd78 O86 2.381 1_556 S
Cd78 O87 2.378 . S
O79 Cd80 2.385 . S
O79 C84 1.255 . S
Cd80 O79 2.385 . S
Cd80 O81 2.317 . S
O81 Cd80 2.317 . S
O81 C82 1.232 . S
C82 O81 1.232 . S
C82 O83 1.218 . S
O83 C82 1.218 . S
C84 O77 1.270 1_556 S
C84 O79 1.255 . S
C85 O86 1.258 . S
C85 O87 1.256 1_554 S
O86 Cd78 2.381 1_554 S
O86 C85 1.258 . S
O87 Cd78 2.378 . S
O87 C85 1.256 1_556 S
O88 Cd89 2.300 . S
O88 C95 1.275 . S
Cd89 O88 2.300 . S
Cd89 O97 2.381 . S
Cd89 O98 2.378 . S
O90 Cd91 2.385 . S
O90 C95 1.255 . S
Cd91 O90 2.385 . S
Cd91 O92 2.317 . S
O92 Cd91 2.317 . S
O92 C93 1.232 . S
C93 O92 1.232 . S
C93 O94 1.218 . S
O94 C93 1.218 . S
C95 O88 1.275 . S
C95 O90 1.255 . S
C96 O97 1.258 . S
C96 O98 1.256 . S
O97 Cd89 2.381 . S
O97 C96 1.258 . S
O98 Cd89 2.378 . S
O98 C96 1.256 . S
O99 Cd100 2.300 1_655 S
O99 C106 1.275 1_655 S
Cd100 O99 2.300 1_455 S
Cd100 O108 2.381 1_455 S
Cd100 O109 2.378 . S
O101 Cd102 2.385 . S
O101 C106 1.255 . S
Cd102 O101 2.385 . S
Cd102 O103 2.317 . S
O103 Cd102 2.317 . S
O103 C104 1.232 . S
C104 O103 1.232 . S
C104 O105 1.218 . S
O105 C104 1.218 . S
C106 O99 1.275 1_455 S
C106 O101 1.255 . S
C107 O108 1.258 1_455 S
C107 O109 1.256 . S
O108 Cd100 2.381 1_655 S
O108 C107 1.258 1_655 S
O109 Cd100 2.378 . S
O109 C107 1.256 . S
O110 Cd111 2.300 . S
O110 C117 1.275 . S
Cd111 O110 2.300 . S
Cd111 O119 2.381 . S
Cd111 O120 2.378 . S
O112 Cd113 2.385 . S
O112 C117 1.255 . S
Cd113 O112 2.385 . S
Cd113 O114 2.317 . S
O114 Cd113 2.317 . S
O114 C115 1.232 . S
C115 O114 1.232 . S
C115 O116 1.218 . S
O116 C115 1.218 . S
C117 O110 1.275 . S
C117 O112 1.255 . S
C118 O119 1.258 . S
C118 O120 1.256 . S
O119 Cd111 2.381 . S
O119 C118 1.258 . S
O120 Cd111 2.378 . S
O120 C118 1.256 . S
O121 Cd122 2.296 1_455 S
O121 C128 1.270 1_455 S
Cd122 O121 2.296 1_655 S
Cd122 O130 2.381 1_655 S
Cd122 O131 2.378 . S
O123 Cd124 2.385 . S
O123 C128 1.255 . S
Cd124 O123 2.385 . S
Cd124 O125 2.317 . S
O125 Cd124 2.317 . S
O125 C126 1.232 . S
C126 O125 1.232 . S
C126 O127 1.218 . S
O127 C126 1.218 . S
C128 O121 1.270 1_655 S
C128 O123 1.255 . S
C129 O130 1.258 . S
C129 O131 1.256 1_455 S
O130 Cd122 2.381 1_455 S
O130 C129 1.258 . S
O131 Cd122 2.378 . S
O131 C129 1.256 1_655 S
O132 Cd133 2.300 . S
O132 C139 1.275 . S
Cd133 O132 2.300 . S
Cd133 O141 2.381 . S
Cd133 O142 2.378 . S
O134 Cd135 2.385 . S
O134 C139 1.255 . S
Cd135 O134 2.385 . S
Cd135 O136 2.317 . S
O136 Cd135 2.317 . S
O136 C137 1.232 . S
C137 O136 1.232 . S
C137 O138 1.218 . S
O138 C137 1.218 . S
C139 O132 1.275 . S
C139 O134 1.255 . S
C140 O141 1.258 . S
C140 O142 1.256 . S
O141 Cd133 2.381 . S
O141 C140 1.258 . S
O142 Cd133 2.378 . S
O142 C140 1.256 . S
O143 Cd144 2.300 . S
O143 C150 1.275 . S
Cd144 O143 2.300 . S
Cd144 O152 2.381 . S
Cd144 O153 2.378 . S
O145 Cd146 2.385 . S
O145 C150 1.255 . S
Cd146 O145 2.385 . S
Cd146 O147 2.317 . S
O147 Cd146 2.317 . S
O147 C148 1.232 . S
C148 O147 1.232 . S
C148 O149 1.218 . S
O149 C148 1.218 . S
C150 O143 1.275 . S
C150 O145 1.255 . S
C151 O152 1.258 . S
C151 O153 1.256 . S
O152 Cd144 2.381 . S
O152 C151 1.258 . S
O153 Cd144 2.378 . S
O153 C151 1.256 . S
O154 Cd155 2.300 1_545 S
O154 C161 1.275 . S
Cd155 O154 2.300 1_565 S
Cd155 O163 2.381 1_565 S
Cd155 O164 2.378 . S
O156 Cd157 2.385 . S
O156 C161 1.255 1_565 S
Cd157 O156 2.385 . S
Cd157 O158 2.317 . S
O158 Cd157 2.317 . S
O158 C159 1.232 . S
C159 O158 1.232 . S
C159 O160 1.218 . S
O160 C159 1.218 . S
C161 O154 1.275 . S
C161 O156 1.255 1_545 S
C162 O163 1.258 1_565 S
C162 O164 1.256 . S
O163 Cd155 2.381 1_545 S
O163 C162 1.258 1_545 S
O164 Cd155 2.378 . S
O164 C162 1.256 . S
O165 Cd166 2.300 1_565 S
O165 C172 1.275 1_565 S
Cd166 O165 2.300 1_545 S
Cd166 O174 2.381 1_545 S
Cd166 O175 2.378 . S
O167 Cd168 2.385 . S
O167 C172 1.255 . S
Cd168 O167 2.385 . S
Cd168 O169 2.317 . S
O169 Cd168 2.317 . S
O169 C170 1.232 . S
C170 O169 1.232 . S
C170 O171 1.218 . S
O171 C170 1.218 . S
C172 O165 1.275 1_545 S
C172 O167 1.255 . S
C173 O174 1.258 1_545 S
C173 O175 1.256 . S
O174 Cd166 2.381 1_565 S
O174 C173 1.258 1_565 S
O175 Cd166 2.378 . S
O175 C173 1.256 . S
O176 Cd177 2.300 . S
O176 C183 1.275 . S
Cd177 O176 2.300 . S
Cd177 O185 2.381 . S
Cd177 O186 2.378 . S
O178 Cd179 2.385 . S
O178 C183 1.255 . S
Cd179 O178 2.385 . S
Cd179 O180 2.317 . S
O180 Cd179 2.317 . S
O180 C181 1.232 . S
C181 O180 1.232 . S
C181 O182 1.218 . S
O182 C181 1.218 . S
C183 O176 1.275 . S
C183 O178 1.255 . S
C184 O185 1.258 . S
C184 O186 1.256 . S
O185 Cd177 2.381 . S
O185 C184 1.258 . S
O186 Cd177 2.378 . S
O186 C184 1.256 . S
O187 Cd188 2.300 1_556 S
O187 C194 1.275 1_556 S
Cd188 O187 2.300 1_554 S
Cd188 O196 2.381 1_554 S
Cd188 O197 2.378 . S
O189 Cd190 2.385 . S
O189 C194 1.255 . S
Cd190 O189 2.385 . S
Cd190 O191 2.317 . S
O191 Cd190 2.317 . S
O191 C192 1.232 . S
C192 O191 1.232 . S
C192 O193 1.218 . S
O193 C192 1.218 . S
C194 O187 1.275 1_554 S
C194 O189 1.255 . S
C195 O196 1.258 1_554 S
C195 O197 1.256 . S
O196 Cd188 2.381 1_556 S
O196 C195 1.258 1_556 S
O197 Cd188 2.378 . S
O197 C195 1.256 . S
O198 Cd199 2.300 . S
O198 C205 1.275 . S
Cd199 O198 2.300 . S
Cd199 O207 2.381 . S
Cd199 O208 2.378 . S
O200 Cd201 2.385 . S
O200 C205 1.255 . S
Cd201 O200 2.385 . S
Cd201 O202 2.317 . S
O202 Cd201 2.317 . S
O202 C203 1.232 . S
C203 O202 1.232 . S
C203 O204 1.218 . S
O204 C203 1.218 . S
C205 O198 1.275 . S
C205 O200 1.255 . S
C206 O207 1.258 . S
C206 O208 1.256 . S
O207 Cd199 2.381 . S
O207 C206 1.258 . S
O208 Cd199 2.378 . S
O208 C206 1.256 . S
O209 Cd210 2.300 1_554 S
O209 C216 1.275 . S
Cd210 O209 2.300 1_556 S
Cd210 O218 2.381 1_556 S
Cd210 O219 2.378 . S
O211 Cd212 2.385 . S
O211 C216 1.255 1_556 S
Cd212 O211 2.385 . S
Cd212 O213 2.317 . S
O213 Cd212 2.317 . S
O213 C214 1.232 . S
C214 O213 1.232 . S
C214 O215 1.218 . S
O215 C214 1.218 . S
C216 O209 1.275 . S
C216 O211 1.255 1_554 S
C217 O218 1.258 1_556 S
C217 O219 1.256 . S
O218 Cd210 2.381 1_554 S
O218 C217 1.258 1_554 S
O219 Cd210 2.378 . S
O219 C217 1.256 . S
O220 Cd221 2.300 . S
O220 C227 1.275 . S
Cd221 O220 2.300 . S
Cd221 O229 2.381 . S
Cd221 O230 2.378 . S
O222 Cd223 2.385 . S
O222 C227 1.255 . S
Cd223 O222 2.385 . S
Cd223 O224 2.317 . S
O224 Cd223 2.317 . S
O224 C225 1.232 . S
C225 O224 1.232 . S
C225 O226 1.218 . S
O226 C225 1.218 . S
C227 O220 1.275 . S
C227 O222 1.255 . S
C228 O229 1.258 . S
C228 O230 1.256 . S
O229 Cd221 2.381 . S
O229 C228 1.258 . S
O230 Cd221 2.378 . S
O230 C228 1.256 . S
O231 Cd232 2.300 1_655 S
O231 C238 1.275 1_655 S
Cd232 O231 2.300 1_455 S
Cd232 O240 2.381 1_455 S
Cd232 O241 2.378 . S
O233 Cd234 2.385 . S
O233 C238 1.255 . S
Cd234 O233 2.385 . S
Cd234 O235 2.317 . S
O235 Cd234 2.317 . S
O235 C236 1.232 . S
C236 O235 1.232 . S
C236 O237 1.218 . S
O237 C236 1.218 . S
C238 O231 1.275 1_455 S
C238 O233 1.255 . S
C239 O240 1.258 1_455 S
C239 O241 1.256 . S
O240 Cd232 2.381 1_655 S
O240 C239 1.258 1_655 S
O241 Cd232 2.378 . S
O241 C239 1.256 . S
O242 Cd243 2.300 . S
O242 C249 1.275 . S
Cd243 O242 2.300 . S
Cd243 O251 2.381 . S
Cd243 O252 2.378 . S
O244 Cd245 2.385 . S
O244 C249 1.255 . S
Cd245 O244 2.385 . S
Cd245 O246 2.317 . S
O246 Cd245 2.317 . S
O246 C247 1.232 . S
C247 O246 1.232 . S
C247 O248 1.218 . S
O248 C247 1.218 . S
C249 O242 1.275 . S
C249 O244 1.255 . S
C250 O251 1.258 . S
C250 O252 1.256 . S
O251 Cd243 2.381 . S
O251 C250 1.258 . S
O252 Cd243 2.378 . S
O252 C250 1.256 . S
O253 Cd254 2.300 1_455 S
O253 C260 1.275 . S
Cd254 O253 2.300 1_655 S
Cd254 O262 2.381 1_655 S
Cd254 O263 2.378 . S
O255 Cd256 2.385 . S
O255 C260 1.255 1_655 S
Cd256 O255 2.385 . S
Cd256 O257 2.317 . S
O257 Cd256 2.317 . S
O257 C258 1.232 . S
C258 O257 1.232 . S
C258 O259 1.218 . S
O259 C258 1.218 . S
C260 O253 1.275 . S
C260 O255 1.255 1_455 S
C261 O262 1.258 1_655 S
C261 O263 1.256 . S
O262 Cd254 2.381 1_455 S
O262 C261 1.258 1_455 S
O263 Cd254 2.378 . S
O263 C261 1.256 . S
H264 C267 0.929 . S
H265 C270 0.929 . S
H266 C272 0.930 . S
C267 H264 0.929 . S
C267 C268 1.398 . S
C267 C269 1.396 . S
C268 C267 1.398 . S
C268 C272 1.407 . S
C269 C267 1.396 . S
C269 C270 1.394 . S
C270 H265 0.929 . S
C270 C269 1.394 . S
C270 C271 1.382 . S
C271 C270 1.382 . S
C271 C272 1.392 . S
C271 N273 1.420 . S
C272 H266 0.930 . S
C272 C268 1.407 . S
C272 C271 1.392 . S
N273 C271 1.420 . S
N273 C274 1.244 . S
C274 N273 1.244 . S
H275 C278 0.929 . S
H276 C281 0.929 . S
H277 C283 0.930 . S
C278 H275 0.929 . S
C278 C279 1.398 . S
C278 C280 1.396 . S
C279 C278 1.398 . S
C279 C283 1.407 . S
C280 C278 1.396 . S
C280 C281 1.394 . S
C281 H276 0.929 . S
C281 C280 1.394 . S
C281 C282 1.382 . S
C282 C281 1.382 . S
C282 C283 1.392 . S
C282 N284 1.420 . S
C283 H277 0.930 . S
C283 C279 1.407 . S
C283 C282 1.392 . S
N284 C282 1.420 . S
N284 C285 1.244 . S
C285 N284 1.244 . S
H286 C289 0.929 . S
H287 C292 0.929 . S
H288 C294 0.930 . S
C289 H286 0.929 . S
C289 C290 1.398 . S
C289 C291 1.396 . S
C290 C289 1.398 . S
C290 C294 1.407 . S
C291 C289 1.396 . S
C291 C292 1.394 1_565 S
C292 H287 0.929 . S
C292 C291 1.394 1_545 S
C292 C293 1.382 . S
C293 C292 1.382 . S
C293 C294 1.392 1_545 S
C293 N295 1.420 . S
C294 H288 0.930 . S
C294 C290 1.407 . S
C294 C293 1.392 1_565 S
N295 C293 1.420 . S
N295 C296 1.244 . S
C296 N295 1.244 . S
H297 C300 0.929 . S
H298 C303 0.929 . S
H299 C305 0.930 . S
C300 H297 0.929 . S
C300 C301 1.398 . S
C300 C302 1.396 . S
C301 C300 1.398 . S
C301 C305 1.407 . S
C302 C300 1.396 . S
C302 C303 1.394 . S
C303 H298 0.929 . S
C303 C302 1.394 . S
C303 C304 1.382 . S
C304 C303 1.382 . S
C304 C305 1.392 . S
C304 N306 1.420 . S
C305 H299 0.930 . S
C305 C301 1.407 . S
C305 C304 1.392 . S
N306 C304 1.420 . S
N306 C307 1.244 . S
C307 N306 1.244 . S
H308 C311 0.929 . S
H309 C314 0.929 . S
H310 C316 0.930 . S
C311 H308 0.929 . S
C311 C312 1.398 . S
C311 C313 1.396 . S
C312 C311 1.398 . S
C312 C316 1.407 . S
C313 C311 1.396 . S
C313 C314 1.394 . S
C314 H309 0.929 . S
C314 C313 1.394 . S
C314 C315 1.382 . S
C315 C314 1.382 . S
C315 C316 1.392 . S
C315 N317 1.420 . S
C316 H310 0.930 . S
C316 C312 1.407 . S
C316 C315 1.392 . S
N317 C315 1.420 . S
N317 C318 1.244 . S
C318 N317 1.244 . S
H319 C322 0.929 . S
H320 C325 0.929 . S
H321 C327 0.930 . S
C322 H319 0.929 . S
C322 C323 1.398 . S
C322 C324 1.396 . S
C323 C322 1.398 . S
C323 C327 1.407 . S
C324 C322 1.396 . S
C324 C325 1.394 . S
C325 H320 0.929 . S
C325 C324 1.394 . S
C325 C326 1.382 . S
C326 C325 1.382 . S
C326 C327 1.392 . S
C326 N328 1.420 . S
C327 H321 0.930 . S
C327 C323 1.407 . S
C327 C326 1.392 . S
N328 C326 1.420 . S
N328 C329 1.244 . S
C329 N328 1.244 . S
H330 C333 0.929 . S
H331 C336 0.929 . S
H332 C338 0.930 . S
C333 H330 0.929 . S
C333 C334 1.398 . S
C333 C335 1.396 . S
C334 C333 1.398 . S
C334 C338 1.407 . S
C335 C333 1.396 . S
C335 C336 1.394 . S
C336 H331 0.929 . S
C336 C335 1.394 . S
C336 C337 1.382 . S
C337 C336 1.382 . S
C337 C338 1.392 . S
C337 N339 1.420 . S
C338 H332 0.930 . S
C338 C334 1.407 . S
C338 C337 1.392 . S
N339 C337 1.420 . S
N339 C340 1.244 . S
C340 N339 1.244 . S
H341 C344 0.929 . S
H342 C347 0.929 . S
H343 C349 0.930 . S
C344 H341 0.929 . S
C344 C345 1.398 . S
C344 C346 1.396 . S
C345 C344 1.398 . S
C345 C349 1.407 . S
C346 C344 1.396 . S
C346 C347 1.394 1_556 S
C347 H342 0.929 . S
C347 C346 1.394 1_554 S
C347 C348 1.382 . S
C348 C347 1.382 . S
C348 C349 1.392 1_554 S
C348 N350 1.420 . S
C349 H343 0.930 . S
C349 C345 1.407 . S
C349 C348 1.392 1_556 S
N350 C348 1.420 . S
N350 C351 1.244 . S
C351 N350 1.244 . S
H352 C355 0.929 . S
H353 C358 0.929 . S
H354 C360 0.930 . S
C355 H352 0.929 . S
C355 C356 1.398 . S
C355 C357 1.396 . S
C356 C355 1.398 . S
C356 C360 1.407 . S
C357 C355 1.396 . S
C357 C358 1.394 . S
C358 H353 0.929 . S
C358 C357 1.394 . S
C358 C359 1.382 . S
C359 C358 1.382 . S
C359 C360 1.392 . S
C359 N361 1.420 . S
C360 H354 0.930 . S
C360 C356 1.407 . S
C360 C359 1.392 . S
N361 C359 1.420 . S
N361 C362 1.244 . S
C362 N361 1.244 . S
H363 C366 0.929 . S
H364 C369 0.929 . S
H365 C371 0.930 . S
C366 H363 0.929 . S
C366 C367 1.398 . S
C366 C368 1.396 . S
C367 C366 1.398 . S
C367 C371 1.407 . S
C368 C366 1.396 . S
C368 C369 1.394 . S
C369 H364 0.929 . S
C369 C368 1.394 . S
C369 C370 1.382 . S
C370 C369 1.382 . S
C370 C371 1.392 . S
C370 N372 1.420 . S
C371 H365 0.930 . S
C371 C367 1.407 . S
C371 C370 1.392 . S
N372 C370 1.420 . S
N372 C373 1.244 . S
C373 N372 1.244 . S
H374 C377 0.929 . S
H375 C380 0.929 . S
H376 C382 0.930 . S
C377 H374 0.929 . S
C377 C378 1.398 . S
C377 C379 1.396 . S
C378 C377 1.398 . S
C378 C382 1.407 . S
C379 C377 1.396 . S
C379 C380 1.394 . S
C380 H375 0.929 . S
C380 C379 1.394 . S
C380 C381 1.382 . S
C381 C380 1.382 . S
C381 C382 1.392 . S
C381 N383 1.420 . S
C382 H376 0.930 . S
C382 C378 1.407 . S
C382 C381 1.392 . S
N383 C381 1.420 . S
N383 C384 1.244 . S
C384 N383 1.244 . S
H385 C388 0.929 . S
H386 C391 0.929 . S
H387 C393 0.930 . S
C388 H385 0.929 . S
C388 C389 1.398 . S
C388 C390 1.396 . S
C389 C388 1.398 . S
C389 C393 1.407 . S
C390 C388 1.396 . S
C390 C391 1.394 1_655 S
C391 H386 0.929 . S
C391 C390 1.394 1_455 S
C391 C392 1.382 . S
C392 C391 1.382 . S
C392 C393 1.392 1_455 S
C392 N394 1.420 . S
C393 H387 0.930 . S
C393 C389 1.407 . S
C393 C392 1.392 1_655 S
N394 C392 1.420 . S
N394 C395 1.244 . S
C395 N394 1.244 . S
H396 C399 0.929 . S
H397 C402 0.929 . S
H398 C404 0.930 . S
C399 H396 0.929 . S
C399 C400 1.398 . S
C399 C401 1.396 . S
C400 C399 1.398 . S
C400 C404 1.407 . S
C401 C399 1.396 . S
C401 C402 1.394 . S
C402 H397 0.929 . S
C402 C401 1.394 . S
C402 C403 1.382 . S
C403 C402 1.382 . S
C403 C404 1.392 . S
C403 N405 1.420 . S
C404 H398 0.930 . S
C404 C400 1.407 . S
C404 C403 1.392 . S
N405 C403 1.420 . S
N405 C406 1.244 . S
C406 N405 1.244 . S
H407 C410 0.929 . S
H408 C413 0.929 . S
H409 C415 0.930 . S
C410 H407 0.929 . S
C410 C411 1.398 . S
C410 C412 1.396 . S
C411 C410 1.398 . S
C411 C415 1.407 . S
C412 C410 1.396 . S
C412 C413 1.394 . S
C413 H408 0.929 . S
C413 C412 1.394 . S
C413 C414 1.382 . S
C414 C413 1.382 . S
C414 C415 1.392 . S
C414 N416 1.420 . S
C415 H409 0.930 . S
C415 C411 1.407 . S
C415 C414 1.392 . S
N416 C414 1.420 . S
N416 C417 1.244 . S
C417 N416 1.244 . S
H418 C421 0.929 . S
H419 C424 0.929 . S
H420 C426 0.930 . S
C421 H418 0.929 . S
C421 C422 1.398 . S
C421 C423 1.396 . S
C422 C421 1.398 . S
C422 C426 1.407 . S
C423 C421 1.396 . S
C423 C424 1.394 1_545 S
C424 H419 0.929 . S
C424 C423 1.394 1_565 S
C424 C425 1.382 . S
C425 C424 1.382 . S
C425 C426 1.392 1_565 S
C425 N427 1.420 . S
C426 H420 0.930 . S
C426 C422 1.407 . S
C426 C425 1.392 1_545 S
N427 C425 1.420 . S
N427 C428 1.244 . S
C428 N427 1.244 . S
H429 C432 0.929 . S
H430 C435 0.929 . S
H431 C437 0.930 . S
C432 H429 0.929 . S
C432 C433 1.398 . S
C432 C434 1.396 . S
C433 C432 1.398 . S
C433 C437 1.407 . S
C434 C432 1.396 . S
C434 C435 1.394 . S
C435 H430 0.929 . S
C435 C434 1.394 . S
C435 C436 1.382 . S
C436 C435 1.382 . S
C436 C437 1.392 . S
C436 N438 1.420 . S
C437 H431 0.930 . S
C437 C433 1.407 . S
C437 C436 1.392 . S
N438 C436 1.420 . S
N438 C439 1.244 . S
C439 N438 1.244 . S
H440 C443 0.929 . S
H441 C446 0.929 . S
H442 C448 0.930 . S
C443 H440 0.929 . S
C443 C444 1.398 . S
C443 C445 1.396 . S
C444 C443 1.398 . S
C444 C448 1.407 . S
C445 C443 1.396 . S
C445 C446 1.394 . S
C446 H441 0.929 . S
C446 C445 1.394 . S
C446 C447 1.382 . S
C447 C446 1.382 . S
C447 C448 1.392 . S
C447 N449 1.420 . S
C448 H442 0.930 . S
C448 C444 1.407 . S
C448 C447 1.392 . S
N449 C447 1.420 . S
N449 C450 1.244 . S
C450 N449 1.244 . S
H451 C454 0.929 . S
H452 C457 0.929 . S
H453 C459 0.930 . S
C454 H451 0.929 . S
C454 C455 1.398 . S
C454 C456 1.396 . S
C455 C454 1.398 . S
C455 C459 1.407 . S
C456 C454 1.396 . S
C456 C457 1.394 . S
C457 H452 0.929 . S
C457 C456 1.394 . S
C457 C458 1.382 . S
C458 C457 1.382 . S
C458 C459 1.392 . S
C458 N460 1.420 . S
C459 H453 0.930 . S
C459 C455 1.407 . S
C459 C458 1.392 . S
N460 C458 1.420 . S
N460 C461 1.244 . S
C461 N460 1.244 . S
H462 C465 0.929 . S
H463 C468 0.929 . S
H464 C470 0.930 . S
C465 H462 0.929 . S
C465 C466 1.398 . S
C465 C467 1.396 . S
C466 C465 1.398 . S
C466 C470 1.407 . S
C467 C465 1.396 . S
C467 C468 1.394 . S
C468 H463 0.929 . S
C468 C467 1.394 . S
C468 C469 1.382 . S
C469 C468 1.382 . S
C469 C470 1.392 . S
C469 N471 1.420 . S
C470 H464 0.930 . S
C470 C466 1.407 . S
C470 C469 1.392 . S
N471 C469 1.420 . S
N471 C472 1.244 . S
C472 N471 1.244 . S
H473 C476 0.929 . S
H474 C479 0.929 . S
H475 C481 0.930 . S
C476 H473 0.929 . S
C476 C477 1.398 . S
C476 C478 1.396 . S
C477 C476 1.398 . S
C477 C481 1.407 . S
C478 C476 1.396 . S
C478 C479 1.394 1_554 S
C479 H474 0.929 . S
C479 C478 1.394 1_556 S
C479 C480 1.382 . S
C480 C479 1.382 . S
C480 C481 1.392 1_556 S
C480 N482 1.420 . S
C481 H475 0.930 . S
C481 C477 1.407 . S
C481 C480 1.392 1_554 S
N482 C480 1.420 . S
N482 C483 1.244 . S
C483 N482 1.244 . S
H484 C487 0.929 . S
H485 C490 0.929 . S
H486 C492 0.930 . S
C487 H484 0.929 . S
C487 C488 1.398 . S
C487 C489 1.396 . S
C488 C487 1.398 . S
C488 C492 1.407 . S
C489 C487 1.396 . S
C489 C490 1.394 . S
C490 H485 0.929 . S
C490 C489 1.394 . S
C490 C491 1.382 . S
C491 C490 1.382 . S
C491 C492 1.392 . S
C491 N493 1.420 . S
C492 H486 0.930 . S
C492 C488 1.407 . S
C492 C491 1.392 . S
N493 C491 1.420 . S
N493 C494 1.244 . S
C494 N493 1.244 . S
H495 C498 0.929 . S
H496 C501 0.929 . S
H497 C503 0.930 . S
C498 H495 0.929 . S
C498 C499 1.398 . S
C498 C500 1.396 . S
C499 C498 1.398 . S
C499 C503 1.407 . S
C500 C498 1.396 . S
C500 C501 1.394 . S
C501 H496 0.929 . S
C501 C500 1.394 . S
C501 C502 1.382 . S
C502 C501 1.382 . S
C502 C503 1.392 . S
C502 N504 1.420 . S
C503 H497 0.930 . S
C503 C499 1.407 . S
C503 C502 1.392 . S
N504 C502 1.420 . S
N504 C505 1.244 . S
C505 N504 1.244 . S
H506 C509 0.929 . S
H507 C512 0.929 . S
H508 C514 0.930 . S
C509 H506 0.929 . S
C509 C510 1.398 . S
C509 C511 1.396 . S
C510 C509 1.398 . S
C510 C514 1.407 . S
C511 C509 1.396 . S
C511 C512 1.394 . S
C512 H507 0.929 . S
C512 C511 1.394 . S
C512 C513 1.382 . S
C513 C512 1.382 . S
C513 C514 1.392 . S
C513 N515 1.420 . S
C514 H508 0.930 . S
C514 C510 1.407 . S
C514 C513 1.392 . S
N515 C513 1.420 . S
N515 C516 1.244 . S
C516 N515 1.244 . S
H517 C520 0.929 . S
H518 C523 0.929 . S
H519 C525 0.930 . S
C520 H517 0.929 . S
C520 C521 1.398 . S
C520 C522 1.396 . S
C521 C520 1.398 . S
C521 C525 1.407 . S
C522 C520 1.396 . S
C522 C523 1.394 1_455 S
C523 H518 0.929 . S
C523 C522 1.394 1_655 S
C523 C524 1.382 . S
C524 C523 1.382 . S
C524 C525 1.392 1_655 S
C524 N526 1.420 . S
C525 H519 0.930 . S
C525 C521 1.407 . S
C525 C524 1.392 1_455 S
N526 C524 1.420 . S
N526 C527 1.244 . S
C527 N526 1.244 . S
H528 C536 0.929 . S
H529 C538 0.930 . S
H530 C540 0.930 . S
H531 C543 0.929 . S
H532 C546 0.930 . S
H533 C548 0.960 . S
H534 C548 0.960 . S
H535 C548 0.960 . S
C536 H528 0.929 . S
C536 C537 1.377 . S
C536 C538 1.384 . S
C537 C536 1.377 . S
C537 C543 1.390 . S
C538 H529 0.930 . S
C538 C536 1.384 . S
C538 C539 1.372 . S
C539 C538 1.372 . S
C539 C540 1.400 . S
C539 C544 1.490 . S
C540 H530 0.930 . S
C540 C539 1.400 . S
C540 C543 1.386 . S
H541 C557 0.930 . S
H542 C558 0.931 . S
C543 H531 0.929 . S
C543 C537 1.390 . S
C543 C540 1.386 . S
C544 C539 1.490 . S
C544 C546 1.395 . S
C544 C547 1.403 . S
H545 C551 0.930 . S
C546 H532 0.930 . S
C546 C544 1.395 . S
C546 C549 1.403 . S
C547 C544 1.403 . S
C547 C548 1.524 . S
C547 C551 1.400 . S
C548 H533 0.960 . S
C548 H534 0.960 . S
C548 H535 0.960 . S
C548 C547 1.524 . S
C549 C546 1.403 . S
C549 C550 1.392 . S
C549 C553 1.495 . S
C550 C549 1.392 . S
C550 C551 1.385 . S
C550 C552 1.478 . S
C551 H545 0.930 . S
C551 C547 1.400 . S
C551 C550 1.385 . S
C552 C550 1.478 . S
C552 C554 1.381 . S
C552 C558 1.383 . S
C553 C549 1.495 . S
C553 H559 0.959 . S
C553 H560 0.961 . S
C553 H561 0.960 . S
C554 C552 1.381 . S
C554 C555 1.394 . S
C554 H562 0.930 . S
C555 C554 1.394 . S
C555 C556 1.383 . S
C555 H563 0.929 . S
C556 C555 1.383 . S
C556 C557 1.377 . S
C557 H541 0.930 . S
C557 C556 1.377 . S
C557 C558 1.379 . S
C558 H542 0.931 . S
C558 C552 1.383 . S
C558 C557 1.379 . S
H559 C553 0.959 . S
H560 C553 0.961 . S
H561 C553 0.960 . S
H562 C554 0.930 . S
H563 C555 0.929 . S
H564 C572 0.929 . S
H565 C574 0.930 . S
H566 C576 0.930 . S
H567 C579 0.929 . S
H568 C582 0.930 . S
H569 C584 0.960 . S
H570 C584 0.960 . S
H571 C584 0.960 . S
C572 H564 0.929 . S
C572 C573 1.377 . S
C572 C574 1.384 . S
C573 C572 1.377 . S
C573 C579 1.390 . S
C574 H565 0.930 . S
C574 C572 1.384 . S
C574 C575 1.372 . S
C575 C574 1.372 . S
C575 C576 1.400 . S
C575 C580 1.490 . S
C576 H566 0.930 . S
C576 C575 1.400 . S
C576 C579 1.386 . S
H577 C593 0.930 . S
H578 C594 0.931 . S
C579 H567 0.929 . S
C579 C573 1.390 . S
C579 C576 1.386 . S
C580 C575 1.490 . S
C580 C582 1.395 . S
C580 C583 1.403 . S
H581 C587 0.930 . S
C582 H568 0.930 . S
C582 C580 1.395 . S
C582 C585 1.403 . S
C583 C580 1.403 . S
C583 C584 1.524 . S
C583 C587 1.400 . S
C584 H569 0.960 . S
C584 H570 0.960 . S
C584 H571 0.960 . S
C584 C583 1.524 . S
C585 C582 1.403 . S
C585 C586 1.392 . S
C585 C589 1.495 . S
C586 C585 1.392 . S
C586 C587 1.385 . S
C586 C588 1.478 . S
C587 H581 0.930 . S
C587 C583 1.400 . S
C587 C586 1.385 . S
C588 C586 1.478 . S
C588 C590 1.381 . S
C588 C594 1.383 . S
C589 C585 1.495 . S
C589 H595 0.959 . S
C589 H596 0.961 . S
C589 H597 0.960 . S
C590 C588 1.381 . S
C590 C591 1.394 . S
C590 H598 0.930 . S
C591 C590 1.394 . S
C591 C592 1.383 . S
C591 H599 0.929 . S
C592 C591 1.383 . S
C592 C593 1.377 . S
C593 H577 0.930 . S
C593 C592 1.377 . S
C593 C594 1.379 . S
C594 H578 0.931 . S
C594 C588 1.383 . S
C594 C593 1.379 . S
H595 C589 0.959 . S
H596 C589 0.961 . S
H597 C589 0.960 . S
H598 C590 0.930 . S
H599 C591 0.929 . S
H600 C608 0.929 . S
H601 C610 0.930 . S
H602 C612 0.941 . S
H603 C615 0.929 . S
H604 C618 0.930 . S
H605 C620 0.960 . S
H606 C620 0.960 . S
H607 C620 0.960 . S
C608 H600 0.929 . S
C608 C609 1.377 . S
C608 C610 1.384 . S
C609 C608 1.377 . S
C609 C615 1.390 1_545 S
C610 H601 0.930 . S
C610 C608 1.384 . S
C610 C611 1.372 . S
C611 C610 1.372 . S
C611 C612 1.383 1_545 S
C611 C616 1.490 . S
C612 H602 0.941 . S
C612 C611 1.383 1_565 S
C612 C615 1.392 . S
H613 C629 0.930 . S
H614 C630 0.931 . S
C615 H603 0.929 . S
C615 C609 1.390 1_565 S
C615 C612 1.392 . S
C616 C611 1.490 . S
C616 C618 1.395 . S
C616 C619 1.403 . S
H617 C623 0.930 . S
C618 H604 0.930 . S
C618 C616 1.395 . S
C618 C621 1.403 . S
C619 C616 1.403 . S
C619 C620 1.524 1_545 S
C619 C623 1.400 . S
C620 H605 0.960 . S
C620 H606 0.960 . S
C620 H607 0.960 . S
C620 C619 1.524 1_565 S
C621 C618 1.403 . S
C621 C622 1.392 . S
C621 C625 1.495 . S
C622 C621 1.392 . S
C622 C623 1.385 . S
C622 C624 1.478 . S
C623 H617 0.930 . S
C623 C619 1.400 . S
C623 C622 1.385 . S
C624 C622 1.478 . S
C624 C626 1.381 . S
C624 C630 1.383 . S
C625 C621 1.495 . S
C625 H631 0.959 . S
C625 H632 0.961 . S
C625 H633 0.960 . S
C626 C624 1.381 . S
C626 C627 1.394 . S
C626 H634 0.930 . S
C627 C626 1.394 . S
C627 C628 1.383 . S
C627 H635 0.929 . S
C628 C627 1.383 . S
C628 C629 1.377 . S
C629 H613 0.930 . S
C629 C628 1.377 . S
C629 C630 1.379 . S
C630 H614 0.931 . S
C630 C624 1.383 . S
C630 C629 1.379 . S
H631 C625 0.959 . S
H632 C625 0.961 . S
H633 C625 0.960 . S
H634 C626 0.930 . S
H635 C627 0.929 . S
H636 C644 0.929 . S
H637 C646 0.930 . S
H638 C648 0.930 . S
H639 C651 0.929 . S
H640 C654 0.930 . S
H641 C656 0.960 . S
H642 C656 0.960 . S
H643 C656 0.960 . S
C644 H636 0.929 . S
C644 C645 1.377 . S
C644 C646 1.384 . S
C645 C644 1.377 . S
C645 C651 1.390 1_565 S
C646 H637 0.930 . S
C646 C644 1.384 . S
C646 C647 1.372 . S
C647 C646 1.372 . S
C647 C648 1.400 1_565 S
C647 C652 1.490 . S
C648 H638 0.930 . S
C648 C647 1.400 1_545 S
C648 C651 1.386 . S
H649 C665 0.930 . S
H650 C666 0.931 . S
C651 H639 0.929 . S
C651 C645 1.390 1_545 S
C651 C648 1.386 . S
C652 C647 1.490 . S
C652 C654 1.395 . S
C652 C655 1.437 . S
H653 C659 0.930 1_545 S
C654 H640 0.930 . S
C654 C652 1.395 . S
C654 C657 1.403 . S
C655 C652 1.437 . S
C655 C656 1.473 1_565 S
C655 C659 1.422 . S
C656 H641 0.960 . S
C656 H642 0.960 . S
C656 H643 0.960 . S
C656 C655 1.473 1_545 S
C657 C654 1.403 . S
C657 C658 1.392 . S
C657 C661 1.495 . S
C658 C657 1.392 . S
C658 C659 1.385 . S
C658 C660 1.478 . S
C659 H653 0.930 1_565 S
C659 C655 1.422 . S
C659 C658 1.385 . S
C660 C658 1.478 . S
C660 C662 1.381 . S
C660 C666 1.383 . S
C661 C657 1.495 . S
C661 H667 0.959 . S
C661 H668 0.961 . S
C661 H669 0.960 . S
C662 C660 1.381 . S
C662 C663 1.394 . S
C662 H670 0.930 . S
C663 C662 1.394 . S
C663 C664 1.383 . S
C663 H671 0.929 . S
C664 C663 1.383 . S
C664 C665 1.377 . S
C665 H649 0.930 . S
C665 C664 1.377 . S
C665 C666 1.379 . S
C666 H650 0.931 . S
C666 C660 1.383 . S
C666 C665 1.379 . S
H667 C661 0.959 . S
H668 C661 0.961 . S
H669 C661 0.960 . S
H670 C662 0.930 . S
H671 C663 0.929 . S
H672 C680 0.929 . S
H673 C682 0.930 . S
H674 C684 0.930 . S
H675 C687 0.929 . S
H676 C690 0.930 . S
H677 C692 0.960 . S
H678 C692 0.960 . S
H679 C692 0.960 . S
C680 H672 0.929 . S
C680 C681 1.377 . S
C680 C682 1.384 . S
C681 C680 1.377 . S
C681 C687 1.390 . S
C682 H673 0.930 . S
C682 C680 1.384 . S
C682 C683 1.372 . S
C683 C682 1.372 . S
C683 C684 1.400 . S
C683 C688 1.490 . S
C684 H674 0.930 . S
C684 C683 1.400 . S
C684 C687 1.386 . S
H685 C701 0.930 . S
H686 C702 0.931 . S
C687 H675 0.929 . S
C687 C681 1.390 . S
C687 C684 1.386 . S
C688 C683 1.490 . S
C688 C690 1.395 . S
C688 C691 1.403 . S
H689 C695 0.930 . S
C690 H676 0.930 . S
C690 C688 1.395 . S
C690 C693 1.403 . S
C691 C688 1.403 . S
C691 C692 1.524 . S
C691 C695 1.400 . S
C692 H677 0.960 . S
C692 H678 0.960 . S
C692 H679 0.960 . S
C692 C691 1.524 . S
C693 C690 1.403 . S
C693 C694 1.392 . S
C693 C697 1.495 . S
C694 C693 1.392 . S
C694 C695 1.385 . S
C694 C696 1.478 . S
C695 H689 0.930 . S
C695 C691 1.400 . S
C695 C694 1.385 . S
C696 C694 1.478 . S
C696 C698 1.381 . S
C696 C702 1.383 . S
C697 C693 1.495 . S
C697 H703 0.959 . S
C697 H704 0.961 . S
C697 H705 0.960 . S
C698 C696 1.381 . S
C698 C699 1.394 . S
C698 H706 0.930 . S
C699 C698 1.394 . S
C699 C700 1.383 . S
C699 H707 0.929 . S
C700 C699 1.383 . S
C700 C701 1.377 . S
C701 H685 0.930 . S
C701 C700 1.377 . S
C701 C702 1.379 . S
C702 H686 0.931 . S
C702 C696 1.383 . S
C702 C701 1.379 . S
H703 C697 0.959 . S
H704 C697 0.961 . S
H705 C697 0.960 . S
H706 C698 0.930 . S
H707 C699 0.929 . S
H708 C716 0.929 . S
H709 C718 0.930 . S
H710 C720 0.937 . S
H711 C723 0.929 . S
H712 C726 0.930 1_554 S
H713 C728 0.960 . S
H714 C728 0.960 . S
H715 C728 0.960 . S
C716 H708 0.929 . S
C716 C717 1.377 . S
C716 C718 1.384 . S
C717 C716 1.377 . S
C717 C723 1.390 1_556 S
C718 H709 0.930 . S
C718 C716 1.384 . S
C718 C719 1.372 . S
C719 C718 1.372 . S
C719 C720 1.383 1_556 S
C719 C724 1.490 . S
C720 H710 0.937 . S
C720 C719 1.383 1_554 S
C720 C723 1.397 . S
H721 C737 0.930 . S
H722 C738 0.931 . S
C723 H711 0.929 . S
C723 C717 1.390 1_554 S
C723 C720 1.397 . S
C724 C719 1.490 . S
C724 C726 1.395 . S
C724 C727 1.403 . S
H725 C731 0.930 . S
C726 H712 0.930 1_556 S
C726 C724 1.395 . S
C726 C729 1.403 . S
C727 C724 1.403 . S
C727 C728 1.524 . S
C727 C731 1.400 . S
C728 H713 0.960 . S
C728 H714 0.960 . S
C728 H715 0.960 . S
C728 C727 1.524 . S
C729 C726 1.403 . S
C729 C730 1.392 . S
C729 C733 1.495 1_556 S
C730 C729 1.392 . S
C730 C731 1.385 . S
C730 C732 1.478 . S
C731 H725 0.930 . S
C731 C727 1.400 . S
C731 C730 1.385 . S
C732 C730 1.478 . S
C732 C734 1.381 . S
C732 C738 1.383 . S
C733 C729 1.495 1_554 S
C733 H739 0.959 . S
C733 H740 0.961 . S
C733 H741 0.960 1_554 S
C734 C732 1.381 . S
C734 C735 1.394 . S
C734 H742 0.930 . S
C735 C734 1.394 . S
C735 C736 1.383 . S
C735 H743 0.929 . S
C736 C735 1.383 . S
C736 C737 1.377 . S
C737 H721 0.930 . S
C737 C736 1.377 . S
C737 C738 1.379 . S
C738 H722 0.931 . S
C738 C732 1.383 . S
C738 C737 1.379 . S
H739 C733 0.959 . S
H740 C733 0.961 . S
H741 C733 0.960 1_556 S
H742 C734 0.930 . S
H743 C735 0.929 . S
H744 C752 0.929 . S
H745 C754 0.930 . S
H746 C756 0.930 . S
H747 C759 0.929 . S
H748 C762 0.930 . S
H749 C764 0.960 . S
H750 C764 0.960 . S
H751 C764 0.960 . S
C752 H744 0.929 . S
C752 C753 1.377 . S
C752 C754 1.384 . S
C753 C752 1.377 . S
C753 C759 1.390 . S
C754 H745 0.930 . S
C754 C752 1.384 . S
C754 C755 1.372 . S
C755 C754 1.372 . S
C755 C756 1.400 . S
C755 C760 1.490 . S
C756 H746 0.930 . S
C756 C755 1.400 . S
C756 C759 1.386 . S
H757 C773 0.930 . S
H758 C774 0.931 . S
C759 H747 0.929 . S
C759 C753 1.390 . S
C759 C756 1.386 . S
C760 C755 1.490 . S
C760 C762 1.395 . S
C760 C763 1.403 . S
H761 C767 0.930 . S
C762 H748 0.930 . S
C762 C760 1.395 . S
C762 C765 1.403 . S
C763 C760 1.403 . S
C763 C764 1.524 . S
C763 C767 1.400 . S
C764 H749 0.960 . S
C764 H750 0.960 . S
C764 H751 0.960 . S
C764 C763 1.524 . S
C765 C762 1.403 . S
C765 C766 1.392 . S
C765 C769 1.495 . S
C766 C765 1.392 . S
C766 C767 1.385 . S
C766 C768 1.478 . S
C767 H761 0.930 . S
C767 C763 1.400 . S
C767 C766 1.385 . S
C768 C766 1.478 . S
C768 C770 1.381 . S
C768 C774 1.383 . S
C769 C765 1.495 . S
C769 H775 0.959 . S
C769 H776 0.961 . S
C769 H777 0.960 . S
C770 C768 1.381 . S
C770 C771 1.394 . S
C770 H778 0.930 . S
C771 C770 1.394 . S
C771 C772 1.383 . S
C771 H779 0.929 . S
C772 C771 1.383 . S
C772 C773 1.377 . S
C773 H757 0.930 . S
C773 C772 1.377 . S
C773 C774 1.379 . S
C774 H758 0.931 . S
C774 C768 1.383 . S
C774 C773 1.379 . S
H775 C769 0.959 . S
H776 C769 0.961 . S
H777 C769 0.960 . S
H778 C770 0.930 . S
H779 C771 0.929 . S
H780 C788 0.929 . S
H781 C790 0.930 . S
H782 C792 0.930 . S
H783 C795 0.929 . S
H784 C798 0.886 1_556 S
H785 C800 0.960 . S
H786 C800 0.960 . S
H787 C800 0.960 . S
C788 H780 0.929 . S
C788 C789 1.377 1_556 S
C788 C790 1.384 . S
C789 C788 1.377 1_554 S
C789 C795 1.390 . S
C790 H781 0.930 . S
C790 C788 1.384 . S
C790 C791 1.372 1_556 S
C791 C790 1.372 1_554 S
C791 C792 1.400 . S
C791 C796 1.490 . S
C792 H782 0.930 . S
C792 C791 1.400 . S
C792 C795 1.386 . S
H793 C809 0.930 . S
H794 C810 0.931 . S
C795 H783 0.929 . S
C795 C789 1.390 . S
C795 C792 1.386 . S
C796 C791 1.490 . S
C796 C798 1.395 . S
C796 C799 1.403 . S
H797 C803 0.930 . S
C798 H784 0.886 1_554 S
C798 C796 1.395 . S
C798 C801 1.403 . S
C799 C796 1.403 . S
C799 C800 1.524 . S
C799 C803 1.400 . S
C800 H785 0.960 . S
C800 H786 0.960 . S
C800 H787 0.960 . S
C800 C799 1.524 . S
C801 C798 1.403 . S
C801 C802 1.392 . S
C801 C805 1.506 . S
C802 C801 1.392 . S
C802 C803 1.385 . S
C802 C804 1.478 . S
C803 H797 0.930 . S
C803 C799 1.400 . S
C803 C802 1.385 . S
C804 C802 1.478 . S
C804 C806 1.381 . S
C804 C810 1.383 . S
C805 C801 1.506 . S
C805 H811 0.945 1_554 S
C805 H812 0.975 . S
C805 H813 0.949 1_554 S
C806 C804 1.381 . S
C806 C807 1.394 . S
C806 H814 0.943 . S
C807 C806 1.394 . S
C807 C808 1.383 . S
C807 H815 0.929 . S
C808 C807 1.383 . S
C808 C809 1.377 . S
C809 H793 0.930 . S
C809 C808 1.377 . S
C809 C810 1.379 . S
C810 H794 0.931 . S
C810 C804 1.383 . S
C810 C809 1.379 . S
H811 C805 0.945 1_556 S
H812 C805 0.975 . S
H813 C805 0.949 1_556 S
H814 C806 0.943 . S
H815 C807 0.929 . S
H816 C824 0.929 . S
H817 C826 0.930 . S
H818 C828 0.930 . S
H819 C831 0.929 . S
H820 C834 0.930 . S
H821 C836 0.960 . S
H822 C836 0.960 . S
H823 C836 0.960 . S
C824 H816 0.929 . S
C824 C825 1.377 . S
C824 C826 1.384 . S
C825 C824 1.377 . S
C825 C831 1.390 . S
C826 H817 0.930 . S
C826 C824 1.384 . S
C826 C827 1.372 . S
C827 C826 1.372 . S
C827 C828 1.400 . S
C827 C832 1.490 . S
C828 H818 0.930 . S
C828 C827 1.400 . S
C828 C831 1.386 . S
H829 C845 0.930 . S
H830 C846 0.931 . S
C831 H819 0.929 . S
C831 C825 1.390 . S
C831 C828 1.386 . S
C832 C827 1.490 . S
C832 C834 1.395 . S
C832 C835 1.403 . S
H833 C839 0.930 . S
C834 H820 0.930 . S
C834 C832 1.395 . S
C834 C837 1.403 . S
C835 C832 1.403 . S
C835 C836 1.524 . S
C835 C839 1.400 . S
C836 H821 0.960 . S
C836 H822 0.960 . S
C836 H823 0.960 . S
C836 C835 1.524 . S
C837 C834 1.403 . S
C837 C838 1.392 . S
C837 C841 1.495 . S
C838 C837 1.392 . S
C838 C839 1.385 . S
C838 C840 1.478 . S
C839 H833 0.930 . S
C839 C835 1.400 . S
C839 C838 1.385 . S
C840 C838 1.478 . S
C840 C842 1.381 . S
C840 C846 1.383 . S
C841 C837 1.495 . S
C841 H847 0.959 . S
C841 H848 0.961 . S
C841 H849 0.960 . S
C842 C840 1.381 . S
C842 C843 1.394 . S
C842 H850 0.930 . S
C843 C842 1.394 . S
C843 C844 1.383 . S
C843 H851 0.929 . S
C844 C843 1.383 . S
C844 C845 1.377 . S
C845 H829 0.930 . S
C845 C844 1.377 . S
C845 C846 1.379 . S
C846 H830 0.931 . S
C846 C840 1.383 . S
C846 C845 1.379 . S
H847 C841 0.959 . S
H848 C841 0.961 . S
H849 C841 0.960 . S
H850 C842 0.930 . S
H851 C843 0.929 . S
H852 C860 0.929 . S
H853 C862 0.930 . S
H854 C864 0.930 . S
H855 C867 0.929 . S
H856 C870 0.937 . S
H857 C872 0.960 . S
H858 C872 0.960 . S
H859 C872 0.960 . S
C860 H852 0.929 . S
C860 C861 1.377 . S
C860 C862 1.384 . S
C861 C860 1.377 . S
C861 C867 1.390 1_655 S
C862 H853 0.930 . S
C862 C860 1.384 . S
C862 C863 1.372 . S
C863 C862 1.372 . S
C863 C864 1.400 1_655 S
C863 C868 1.490 . S
C864 H854 0.930 . S
C864 C863 1.400 1_455 S
C864 C867 1.386 . S
H865 C881 0.930 . S
H866 C882 0.931 . S
C867 H855 0.929 . S
C867 C861 1.390 1_455 S
C867 C864 1.386 . S
C868 C863 1.490 . S
C868 C870 1.395 . S
C868 C871 1.403 . S
H869 C875 0.930 . S
C870 H856 0.937 . S
C870 C868 1.395 . S
C870 C873 1.403 . S
C871 C868 1.403 . S
C871 C872 1.524 . S
C871 C875 1.400 . S
C872 H857 0.960 . S
C872 H858 0.960 . S
C872 H859 0.960 . S
C872 C871 1.524 . S
C873 C870 1.403 . S
C873 C874 1.392 . S
C873 C877 1.495 . S
C874 C873 1.392 . S
C874 C875 1.385 . S
C874 C876 1.478 . S
C875 H869 0.930 . S
C875 C871 1.400 . S
C875 C874 1.385 . S
C876 C874 1.478 . S
C876 C878 1.381 . S
C876 C882 1.383 . S
C877 C873 1.495 . S
C877 H883 0.959 1_655 S
C877 H884 0.961 1_655 S
C877 H885 0.960 . S
C878 C876 1.381 . S
C878 C879 1.394 . S
C878 H886 0.930 . S
C879 C878 1.394 . S
C879 C880 1.383 . S
C879 H887 0.929 . S
C880 C879 1.383 . S
C880 C881 1.377 . S
C881 H865 0.930 . S
C881 C880 1.377 . S
C881 C882 1.379 . S
C882 H866 0.931 . S
C882 C876 1.383 . S
C882 C881 1.379 . S
H883 C877 0.959 1_455 S
H884 C877 0.961 1_455 S
H885 C877 0.960 . S
H886 C878 0.930 . S
H887 C879 0.929 . S
H888 C896 0.929 . S
H889 C898 0.930 . S
H890 C900 0.930 . S
H891 C903 0.929 . S
H892 C906 0.930 . S
H893 C908 0.960 . S
H894 C908 0.960 . S
H895 C908 0.960 . S
C896 H888 0.929 . S
C896 C897 1.377 . S
C896 C898 1.384 . S
C897 C896 1.377 . S
C897 C903 1.390 . S
C898 H889 0.930 . S
C898 C896 1.384 . S
C898 C899 1.372 . S
C899 C898 1.372 . S
C899 C900 1.400 . S
C899 C904 1.490 . S
C900 H890 0.930 . S
C900 C899 1.400 . S
C900 C903 1.386 . S
H901 C917 0.930 . S
H902 C918 0.931 . S
C903 H891 0.929 . S
C903 C897 1.390 . S
C903 C900 1.386 . S
C904 C899 1.490 . S
C904 C906 1.395 . S
C904 C907 1.403 . S
H905 C911 0.930 . S
C906 H892 0.930 . S
C906 C904 1.395 . S
C906 C909 1.403 . S
C907 C904 1.403 . S
C907 C908 1.524 . S
C907 C911 1.400 . S
C908 H893 0.960 . S
C908 H894 0.960 . S
C908 H895 0.960 . S
C908 C907 1.524 . S
C909 C906 1.403 . S
C909 C910 1.392 . S
C909 C913 1.495 . S
C910 C909 1.392 . S
C910 C911 1.385 . S
C910 C912 1.478 . S
C911 H905 0.930 . S
C911 C907 1.400 . S
C911 C910 1.385 . S
C912 C910 1.478 . S
C912 C914 1.381 . S
C912 C918 1.383 . S
C913 C909 1.495 . S
C913 H919 0.959 . S
C913 H920 0.961 . S
C913 H921 0.960 . S
C914 C912 1.381 . S
C914 C915 1.394 . S
C914 H922 0.930 . S
C915 C914 1.394 . S
C915 C916 1.383 . S
C915 H923 0.929 . S
C916 C915 1.383 . S
C916 C917 1.377 . S
C917 H901 0.930 . S
C917 C916 1.377 . S
C917 C918 1.379 . S
C918 H902 0.931 . S
C918 C912 1.383 . S
C918 C917 1.379 . S
H919 C913 0.959 . S
H920 C913 0.961 . S
H921 C913 0.960 . S
H922 C914 0.930 . S
H923 C915 0.929 . S
H924 C932 0.929 . S
H925 C934 0.930 . S
H926 C936 0.930 . S
H927 C939 0.929 . S
H928 C942 0.930 . S
H929 C944 0.960 . S
H930 C944 0.960 . S
H931 C944 0.960 . S
C932 H924 0.929 . S
C932 C933 1.377 . S
C932 C934 1.384 . S
C933 C932 1.377 . S
C933 C939 1.390 1_455 S
C934 H925 0.930 . S
C934 C932 1.384 . S
C934 C935 1.372 . S
C935 C934 1.372 . S
C935 C936 1.400 1_455 S
C935 C940 1.490 . S
C936 H926 0.930 . S
C936 C935 1.400 1_655 S
C936 C939 1.386 . S
H937 C953 0.930 . S
H938 C954 0.931 . S
C939 H927 0.929 . S
C939 C933 1.390 1_655 S
C939 C936 1.386 . S
C940 C935 1.490 . S
C940 C942 1.395 . S
C940 C943 1.403 . S
H941 C947 0.930 . S
C942 H928 0.930 . S
C942 C940 1.395 . S
C942 C945 1.403 . S
C943 C940 1.403 . S
C943 C944 1.524 . S
C943 C947 1.400 . S
C944 H929 0.960 . S
C944 H930 0.960 . S
C944 H931 0.960 . S
C944 C943 1.524 . S
C945 C942 1.403 . S
C945 C946 1.392 . S
C945 C949 1.495 . S
C946 C945 1.392 . S
C946 C947 1.385 . S
C946 C948 1.478 . S
C947 H941 0.930 . S
C947 C943 1.400 . S
C947 C946 1.385 . S
C948 C946 1.478 . S
C948 C950 1.381 . S
C948 C954 1.383 . S
C949 C945 1.495 . S
C949 H955 0.959 . S
C949 H956 0.961 . S
C949 H957 0.960 . S
C950 C948 1.381 . S
C950 C951 1.394 . S
C950 H958 0.930 . S
C951 C950 1.394 . S
C951 C952 1.383 . S
C951 H959 0.929 . S
C952 C951 1.383 . S
C952 C953 1.377 . S
C953 H937 0.930 . S
C953 C952 1.377 . S
C953 C954 1.379 . S
C954 H938 0.931 . S
C954 C948 1.383 . S
C954 C953 1.379 . S
H955 C949 0.959 . S
H956 C949 0.961 . S
H957 C949 0.960 . S
H958 C950 0.930 . S
H959 C951 0.929 . S
H960 C968 0.929 . S
H961 C970 0.930 . S
H962 C972 0.930 . S
H963 C975 0.929 . S
H964 C978 0.930 . S
H965 C980 0.960 . S
H966 C980 0.960 . S
H967 C980 0.960 . S
C968 H960 0.929 . S
C968 C969 1.377 . S
C968 C970 1.384 . S
C969 C968 1.377 . S
C969 C975 1.390 . S
C970 H961 0.930 . S
C970 C968 1.384 . S
C970 C971 1.372 . S
C971 C970 1.372 . S
C971 C972 1.400 . S
C971 C976 1.490 . S
C972 H962 0.930 . S
C972 C971 1.400 . S
C972 C975 1.386 . S
H973 C989 0.930 . S
H974 C990 0.931 . S
C975 H963 0.929 . S
C975 C969 1.390 . S
C975 C972 1.386 . S
C976 C971 1.490 . S
C976 C978 1.395 . S
C976 C979 1.403 . S
H977 C983 0.930 . S
C978 H964 0.930 . S
C978 C976 1.395 . S
C978 C981 1.403 . S
C979 C976 1.403 . S
C979 C980 1.524 . S
C979 C983 1.400 . S
C980 H965 0.960 . S
C980 H966 0.960 . S
C980 H967 0.960 . S
C980 C979 1.524 . S
C981 C978 1.403 . S
C981 C982 1.392 . S
C981 C985 1.495 . S
C982 C981 1.392 . S
C982 C983 1.385 . S
C982 C984 1.478 . S
C983 H977 0.930 . S
C983 C979 1.400 . S
C983 C982 1.385 . S
C984 C982 1.478 . S
C984 C986 1.381 . S
C984 C990 1.383 . S
C985 C981 1.495 . S
C985 H991 0.959 . S
C985 H992 0.961 . S
C985 H993 0.960 . S
C986 C984 1.381 . S
C986 C987 1.394 . S
C986 H994 0.930 . S
C987 C986 1.394 . S
C987 C988 1.383 . S
C987 H995 0.929 . S
C988 C987 1.383 . S
C988 C989 1.377 . S
C989 H973 0.930 . S
C989 C988 1.377 . S
C989 C990 1.379 . S
C990 H974 0.931 . S
C990 C984 1.383 . S
C990 C989 1.379 . S
H991 C985 0.959 . S
H992 C985 0.961 . S
H993 C985 0.960 . S
H994 C986 0.930 . S
H995 C987 0.929 . S
H996 C1004 0.929 . S
H997 C1006 0.930 . S
H998 C1008 0.930 . S
H999 C1011 0.929 . S
H1000 C1014 0.930 . S
H1001 C1016 0.960 . S
H1002 C1016 0.960 . S
H1003 C1016 0.960 . S
C1004 H996 0.929 . S
C1004 C1005 1.377 . S
C1004 C1006 1.384 . S
C1005 C1004 1.377 . S
C1005 C1011 1.390 . S
C1006 H997 0.930 . S
C1006 C1004 1.384 . S
C1006 C1007 1.372 . S
C1007 C1006 1.372 . S
C1007 C1008 1.400 . S
C1007 C1012 1.490 . S
C1008 H998 0.930 . S
C1008 C1007 1.400 . S
C1008 C1011 1.386 . S
H1009 C1025 0.930 . S
H1010 C1026 0.931 . S
C1011 H999 0.929 . S
C1011 C1005 1.390 . S
C1011 C1008 1.386 . S
C1012 C1007 1.490 . S
C1012 C1014 1.395 . S
C1012 C1015 1.403 . S
H1013 C1019 0.930 . S
C1014 H1000 0.930 . S
C1014 C1012 1.395 . S
C1014 C1017 1.403 . S
C1015 C1012 1.403 . S
C1015 C1016 1.524 . S
C1015 C1019 1.400 . S
C1016 H1001 0.960 . S
C1016 H1002 0.960 . S
C1016 H1003 0.960 . S
C1016 C1015 1.524 . S
C1017 C1014 1.403 . S
C1017 C1018 1.392 . S
C1017 C1021 1.495 . S
C1018 C1017 1.392 . S
C1018 C1019 1.385 . S
C1018 C1020 1.478 . S
C1019 H1013 0.930 . S
C1019 C1015 1.400 . S
C1019 C1018 1.385 . S
C1020 C1018 1.478 . S
C1020 C1022 1.381 . S
C1020 C1026 1.383 . S
C1021 C1017 1.495 . S
C1021 H1027 0.959 . S
C1021 H1028 0.961 . S
C1021 H1029 0.960 . S
C1022 C1020 1.381 . S
C1022 C1023 1.394 . S
C1022 H1030 0.930 . S
C1023 C1022 1.394 . S
C1023 C1024 1.383 . S
C1023 H1031 0.929 . S
C1024 C1023 1.383 . S
C1024 C1025 1.377 . S
C1025 H1009 0.930 . S
C1025 C1024 1.377 . S
C1025 C1026 1.379 . S
C1026 H1010 0.931 . S
C1026 C1020 1.383 . S
C1026 C1025 1.379 . S
H1027 C1021 0.959 . S
H1028 C1021 0.961 . S
H1029 C1021 0.960 . S
H1030 C1022 0.930 . S
H1031 C1023 0.929 . S
H1032 C1040 0.929 . S
H1033 C1042 0.930 . S
H1034 C1044 0.930 . S
H1035 C1047 0.929 . S
H1036 C1050 0.930 . S
H1037 C1052 0.960 . S
H1038 C1052 0.960 . S
H1039 C1052 0.960 . S
C1040 H1032 0.929 . S
C1040 C1041 1.377 1_545 S
C1040 C1042 1.384 . S
C1041 C1040 1.377 1_565 S
C1041 C1047 1.390 . S
C1042 H1033 0.930 . S
C1042 C1040 1.384 . S
C1042 C1043 1.372 1_545 S
C1043 C1042 1.372 1_565 S
C1043 C1044 1.400 . S
C1043 C1048 1.490 . S
C1044 H1034 0.930 . S
C1044 C1043 1.400 . S
C1044 C1047 1.386 . S
H1045 C1061 0.930 . S
H1046 C1062 0.931 . S
C1047 H1035 0.929 . S
C1047 C1041 1.390 . S
C1047 C1044 1.386 . S
C1048 C1043 1.490 . S
C1048 C1050 1.395 . S
C1048 C1051 1.403 . S
H1049 C1055 0.930 . S
C1050 H1036 0.930 . S
C1050 C1048 1.395 . S
C1050 C1053 1.403 . S
C1051 C1048 1.403 . S
C1051 C1052 1.524 . S
C1051 C1055 1.400 . S
C1052 H1037 0.960 . S
C1052 H1038 0.960 . S
C1052 H1039 0.960 . S
C1052 C1051 1.524 . S
C1053 C1050 1.403 . S
C1053 C1054 1.392 . S
C1053 C1057 1.495 . S
C1054 C1053 1.392 . S
C1054 C1055 1.385 . S
C1054 C1056 1.478 . S
C1055 H1049 0.930 . S
C1055 C1051 1.400 . S
C1055 C1054 1.385 . S
C1056 C1054 1.478 . S
C1056 C1058 1.381 . S
C1056 C1062 1.383 . S
C1057 C1053 1.495 . S
C1057 H1063 0.959 1_565 S
C1057 H1064 0.961 . S
C1057 H1065 0.960 1_565 S
C1058 C1056 1.381 . S
C1058 C1059 1.394 . S
C1058 H1066 0.935 1_565 S
C1059 C1058 1.394 . S
C1059 C1060 1.383 . S
C1059 H1067 0.929 . S
C1060 C1059 1.383 . S
C1060 C1061 1.377 . S
C1061 H1045 0.930 . S
C1061 C1060 1.377 . S
C1061 C1062 1.379 . S
C1062 H1046 0.931 . S
C1062 C1056 1.383 . S
C1062 C1061 1.379 . S
H1063 C1057 0.959 1_545 S
H1064 C1057 0.961 . S
H1065 C1057 0.960 1_545 S
H1066 C1058 0.935 1_545 S
H1067 C1059 0.929 . S
H1068 C1076 0.929 . S
H1069 C1078 0.930 . S
H1070 C1080 0.930 . S
H1071 C1083 0.929 1_565 S
H1072 C1086 0.915 1_565 S
H1073 C1088 0.960 . S
H1074 C1088 0.960 . S
H1075 C1088 0.960 . S
C1076 H1068 0.929 . S
C1076 C1077 1.377 . S
C1076 C1078 1.384 . S
C1077 C1076 1.377 . S
C1077 C1083 1.390 . S
C1078 H1069 0.930 . S
C1078 C1076 1.384 . S
C1078 C1079 1.372 . S
C1079 C1078 1.372 . S
C1079 C1080 1.400 . S
C1079 C1084 1.490 . S
C1080 H1070 0.930 . S
C1080 C1079 1.400 . S
C1080 C1083 1.386 . S
H1081 C1097 0.930 . S
H1082 C1098 0.931 . S
C1083 H1071 0.929 1_545 S
C1083 C1077 1.390 . S
C1083 C1080 1.386 . S
C1084 C1079 1.490 . S
C1084 C1086 1.405 . S
C1084 C1087 1.403 . S
H1085 C1091 0.930 . S
C1086 H1072 0.915 1_545 S
C1086 C1084 1.405 . S
C1086 C1089 1.408 . S
C1087 C1084 1.403 . S
C1087 C1088 1.524 . S
C1087 C1091 1.400 . S
C1088 H1073 0.960 . S
C1088 H1074 0.960 . S
C1088 H1075 0.960 . S
C1088 C1087 1.524 . S
C1089 C1086 1.408 . S
C1089 C1090 1.392 . S
C1089 C1093 1.495 1_545 S
C1090 C1089 1.392 . S
C1090 C1091 1.385 . S
C1090 C1092 1.478 . S
C1091 H1085 0.930 . S
C1091 C1087 1.400 . S
C1091 C1090 1.385 . S
C1092 C1090 1.478 . S
C1092 C1094 1.381 . S
C1092 C1098 1.383 . S
C1093 C1089 1.495 1_565 S
C1093 H1099 0.959 . S
C1093 H1100 0.961 . S
C1093 H1101 0.960 . S
C1094 C1092 1.381 . S
C1094 C1095 1.394 . S
C1094 H1102 0.930 . S
C1095 C1094 1.394 . S
C1095 C1096 1.383 . S
C1095 H1103 0.929 . S
C1096 C1095 1.383 . S
C1096 C1097 1.377 . S
C1097 H1081 0.930 . S
C1097 C1096 1.377 . S
C1097 C1098 1.379 . S
C1098 H1082 0.931 . S
C1098 C1092 1.383 . S
C1098 C1097 1.379 . S
H1099 C1093 0.959 . S
H1100 C1093 0.961 . S
H1101 C1093 0.960 . S
H1102 C1094 0.930 . S
H1103 C1095 0.929 . S
H1104 C1112 0.929 . S
H1105 C1114 0.930 . S
H1106 C1116 0.930 . S
H1107 C1119 0.929 . S
H1108 C1122 0.930 . S
H1109 C1124 0.960 . S
H1110 C1124 0.960 . S
H1111 C1124 0.960 . S
C1112 H1104 0.929 . S
C1112 C1113 1.377 . S
C1112 C1114 1.384 . S
C1113 C1112 1.377 . S
C1113 C1119 1.390 . S
C1114 H1105 0.930 . S
C1114 C1112 1.384 . S
C1114 C1115 1.372 . S
C1115 C1114 1.372 . S
C1115 C1116 1.400 . S
C1115 C1120 1.490 . S
C1116 H1106 0.930 . S
C1116 C1115 1.400 . S
C1116 C1119 1.386 . S
H1117 C1133 0.930 . S
H1118 C1134 0.931 . S
C1119 H1107 0.929 . S
C1119 C1113 1.390 . S
C1119 C1116 1.386 . S
C1120 C1115 1.490 . S
C1120 C1122 1.395 . S
C1120 C1123 1.403 . S
H1121 C1127 0.930 . S
C1122 H1108 0.930 . S
C1122 C1120 1.395 . S
C1122 C1125 1.403 . S
C1123 C1120 1.403 . S
C1123 C1124 1.524 . S
C1123 C1127 1.400 . S
C1124 H1109 0.960 . S
C1124 H1110 0.960 . S
C1124 H1111 0.960 . S
C1124 C1123 1.524 . S
C1125 C1122 1.403 . S
C1125 C1126 1.392 . S
C1125 C1129 1.495 . S
C1126 C1125 1.392 . S
C1126 C1127 1.385 . S
C1126 C1128 1.478 . S
C1127 H1121 0.930 . S
C1127 C1123 1.400 . S
C1127 C1126 1.385 . S
C1128 C1126 1.478 . S
C1128 C1130 1.381 . S
C1128 C1134 1.383 . S
C1129 C1125 1.495 . S
C1129 H1135 0.959 . S
C1129 H1136 0.961 . S
C1129 H1137 0.960 . S
C1130 C1128 1.381 . S
C1130 C1131 1.394 . S
C1130 H1138 0.930 . S
C1131 C1130 1.394 . S
C1131 C1132 1.383 . S
C1131 H1139 0.929 . S
C1132 C1131 1.383 . S
C1132 C1133 1.377 . S
C1133 H1117 0.930 . S
C1133 C1132 1.377 . S
C1133 C1134 1.379 . S
C1134 H1118 0.931 . S
C1134 C1128 1.383 . S
C1134 C1133 1.379 . S
H1135 C1129 0.959 . S
H1136 C1129 0.961 . S
H1137 C1129 0.960 . S
H1138 C1130 0.930 . S
H1139 C1131 0.929 . S
H1140 C1148 0.929 . S
H1141 C1150 0.930 . S
H1142 C1152 0.930 . S
H1143 C1155 0.929 . S
H1144 C1158 0.930 . S
H1145 C1160 0.960 . S
H1146 C1160 0.906 1_556 S
H1147 C1160 0.960 . S
C1148 H1140 0.929 . S
C1148 C1149 1.335 1_556 S
C1148 C1150 1.384 . S
C1149 C1148 1.335 1_554 S
C1149 C1155 1.450 . S
C1150 H1141 0.930 . S
C1150 C1148 1.384 . S
C1150 C1151 1.372 1_556 S
C1151 C1150 1.372 1_554 S
C1151 C1152 1.400 . S
C1151 C1156 1.490 . S
C1152 H1142 0.930 . S
C1152 C1151 1.400 . S
C1152 C1155 1.386 . S
H1153 C1169 0.930 . S
H1154 C1170 0.931 . S
C1155 H1143 0.929 . S
C1155 C1149 1.450 . S
C1155 C1152 1.386 . S
C1156 C1151 1.490 . S
C1156 C1158 1.395 . S
C1156 C1159 1.403 . S
H1157 C1163 0.930 . S
C1158 H1144 0.930 . S
C1158 C1156 1.395 . S
C1158 C1161 1.403 . S
C1159 C1156 1.403 . S
C1159 C1160 1.524 . S
C1159 C1163 1.400 . S
C1160 H1145 0.960 . S
C1160 H1146 0.906 1_554 S
C1160 H1147 0.960 . S
C1160 C1159 1.524 . S
C1161 C1158 1.403 . S
C1161 C1162 1.392 . S
C1161 C1165 1.495 . S
C1162 C1161 1.392 . S
C1162 C1163 1.385 . S
C1162 C1164 1.478 . S
C1163 H1157 0.930 . S
C1163 C1159 1.400 . S
C1163 C1162 1.385 . S
C1164 C1162 1.478 . S
C1164 C1166 1.381 . S
C1164 C1170 1.383 . S
C1165 C1161 1.495 . S
C1165 H1171 0.959 . S
C1165 H1172 0.961 . S
C1165 H1173 0.960 . S
C1166 C1164 1.381 . S
C1166 C1167 1.394 . S
C1166 H1174 0.930 1_554 S
C1167 C1166 1.394 . S
C1167 C1168 1.383 . S
C1167 H1175 0.959 . S
C1168 C1167 1.383 . S
C1168 C1169 1.377 . S
C1169 H1153 0.930 . S
C1169 C1168 1.377 . S
C1169 C1170 1.379 . S
C1170 H1154 0.931 . S
C1170 C1164 1.383 . S
C1170 C1169 1.379 . S
H1171 C1165 0.959 . S
H1172 C1165 0.961 . S
H1173 C1165 0.960 . S
H1174 C1166 0.930 1_556 S
H1175 C1167 0.959 . S
H1176 C1184 0.929 . S
H1177 C1186 0.930 . S
H1178 C1188 0.930 . S
H1179 C1191 0.929 . S
H1180 C1194 0.930 . S
H1181 C1196 0.960 . S
H1182 C1196 0.960 . S
H1183 C1196 0.960 . S
C1184 H1176 0.929 . S
C1184 C1185 1.377 . S
C1184 C1186 1.384 . S
C1185 C1184 1.377 . S
C1185 C1191 1.390 . S
C1186 H1177 0.930 . S
C1186 C1184 1.384 . S
C1186 C1187 1.372 . S
C1187 C1186 1.372 . S
C1187 C1188 1.400 . S
C1187 C1192 1.490 . S
C1188 H1178 0.930 . S
C1188 C1187 1.400 . S
C1188 C1191 1.386 . S
H1189 C1205 0.930 . S
H1190 C1206 0.931 . S
C1191 H1179 0.929 . S
C1191 C1185 1.390 . S
C1191 C1188 1.386 . S
C1192 C1187 1.490 . S
C1192 C1194 1.395 . S
C1192 C1195 1.403 . S
H1193 C1199 0.930 . S
C1194 H1180 0.930 . S
C1194 C1192 1.395 . S
C1194 C1197 1.403 . S
C1195 C1192 1.403 . S
C1195 C1196 1.524 . S
C1195 C1199 1.400 . S
C1196 H1181 0.960 . S
C1196 H1182 0.960 . S
C1196 H1183 0.960 . S
C1196 C1195 1.524 . S
C1197 C1194 1.403 . S
C1197 C1198 1.392 . S
C1197 C1201 1.495 . S
C1198 C1197 1.392 . S
C1198 C1199 1.385 . S
C1198 C1200 1.478 . S
C1199 H1193 0.930 . S
C1199 C1195 1.400 . S
C1199 C1198 1.385 . S
C1200 C1198 1.478 . S
C1200 C1202 1.381 . S
C1200 C1206 1.383 . S
C1201 C1197 1.495 . S
C1201 H1207 0.959 . S
C1201 H1208 0.961 . S
C1201 H1209 0.960 . S
C1202 C1200 1.381 . S
C1202 C1203 1.394 . S
C1202 H1210 0.930 . S
C1203 C1202 1.394 . S
C1203 C1204 1.383 . S
C1203 H1211 0.929 . S
C1204 C1203 1.383 . S
C1204 C1205 1.377 . S
C1205 H1189 0.930 . S
C1205 C1204 1.377 . S
C1205 C1206 1.379 . S
C1206 H1190 0.931 . S
C1206 C1200 1.383 . S
C1206 C1205 1.379 . S
H1207 C1201 0.959 . S
H1208 C1201 0.961 . S
H1209 C1201 0.960 . S
H1210 C1202 0.930 . S
H1211 C1203 0.929 . S
H1212 C1220 0.929 . S
H1213 C1222 0.930 . S
H1214 C1224 0.930 . S
H1215 C1227 0.929 . S
H1216 C1230 0.930 . S
H1217 C1232 0.960 . S
H1218 C1232 0.960 . S
H1219 C1232 0.960 1_554 S
C1220 H1212 0.929 . S
C1220 C1221 1.377 . S
C1220 C1222 1.384 . S
C1221 C1220 1.377 . S
C1221 C1227 1.390 1_556 S
C1222 H1213 0.930 . S
C1222 C1220 1.384 . S
C1222 C1223 1.372 . S
C1223 C1222 1.372 . S
C1223 C1224 1.400 1_556 S
C1223 C1228 1.490 . S
C1224 H1214 0.930 . S
C1224 C1223 1.400 1_554 S
C1224 C1227 1.386 . S
H1225 C1241 0.930 . S
H1226 C1242 0.931 . S
C1227 H1215 0.929 . S
C1227 C1221 1.390 1_554 S
C1227 C1224 1.386 . S
C1228 C1223 1.490 . S
C1228 C1230 1.395 . S
C1228 C1231 1.403 . S
H1229 C1235 0.930 . S
C1230 H1216 0.930 . S
C1230 C1228 1.395 . S
C1230 C1233 1.403 . S
C1231 C1228 1.403 . S
C1231 C1232 1.524 . S
C1231 C1235 1.400 . S
C1232 H1217 0.960 . S
C1232 H1218 0.960 . S
C1232 H1219 0.960 1_556 S
C1232 C1231 1.524 . S
C1233 C1230 1.403 . S
C1233 C1234 1.392 . S
C1233 C1237 1.495 . S
C1234 C1233 1.392 . S
C1234 C1235 1.385 . S
C1234 C1236 1.478 . S
C1235 H1229 0.930 . S
C1235 C1231 1.400 . S
C1235 C1234 1.385 . S
C1236 C1234 1.478 . S
C1236 C1238 1.381 . S
C1236 C1242 1.383 . S
C1237 C1233 1.495 . S
C1237 H1243 0.959 . S
C1237 H1244 0.961 . S
C1237 H1245 0.960 . S
C1238 C1236 1.381 . S
C1238 C1239 1.394 . S
C1238 H1246 0.930 . S
C1239 C1238 1.394 . S
C1239 C1240 1.383 . S
C1239 H1247 0.929 . S
C1240 C1239 1.383 . S
C1240 C1241 1.377 . S
C1241 H1225 0.930 . S
C1241 C1240 1.377 . S
C1241 C1242 1.379 . S
C1242 H1226 0.931 . S
C1242 C1236 1.383 . S
C1242 C1241 1.379 . S
H1243 C1237 0.959 . S
H1244 C1237 0.961 . S
H1245 C1237 0.960 . S
H1246 C1238 0.930 . S
H1247 C1239 0.929 . S
H1248 C1256 0.929 . S
H1249 C1258 0.930 . S
H1250 C1260 0.930 . S
H1251 C1263 0.929 . S
H1252 C1266 0.930 . S
H1253 C1268 0.960 . S
H1254 C1268 0.960 . S
H1255 C1268 0.960 . S
C1256 H1248 0.929 . S
C1256 C1257 1.377 . S
C1256 C1258 1.384 . S
C1257 C1256 1.377 . S
C1257 C1263 1.390 . S
C1258 H1249 0.930 . S
C1258 C1256 1.384 . S
C1258 C1259 1.372 . S
C1259 C1258 1.372 . S
C1259 C1260 1.400 . S
C1259 C1264 1.490 . S
C1260 H1250 0.930 . S
C1260 C1259 1.400 . S
C1260 C1263 1.386 . S
H1261 C1277 0.930 . S
H1262 C1278 0.931 . S
C1263 H1251 0.929 . S
C1263 C1257 1.390 . S
C1263 C1260 1.386 . S
C1264 C1259 1.490 . S
C1264 C1266 1.395 . S
C1264 C1267 1.403 . S
H1265 C1271 0.930 . S
C1266 H1252 0.930 . S
C1266 C1264 1.395 . S
C1266 C1269 1.403 . S
C1267 C1264 1.403 . S
C1267 C1268 1.524 . S
C1267 C1271 1.400 . S
C1268 H1253 0.960 . S
C1268 H1254 0.960 . S
C1268 H1255 0.960 . S
C1268 C1267 1.524 . S
C1269 C1266 1.403 . S
C1269 C1270 1.392 . S
C1269 C1273 1.495 . S
C1270 C1269 1.392 . S
C1270 C1271 1.385 . S
C1270 C1272 1.478 . S
C1271 H1265 0.930 . S
C1271 C1267 1.400 . S
C1271 C1270 1.385 . S
C1272 C1270 1.478 . S
C1272 C1274 1.381 . S
C1272 C1278 1.383 . S
C1273 C1269 1.495 . S
C1273 H1279 0.959 . S
C1273 H1280 0.961 . S
C1273 H1281 0.960 . S
C1274 C1272 1.381 . S
C1274 C1275 1.394 . S
C1274 H1282 0.930 . S
C1275 C1274 1.394 . S
C1275 C1276 1.383 . S
C1275 H1283 0.929 . S
C1276 C1275 1.383 . S
C1276 C1277 1.377 . S
C1277 H1261 0.930 . S
C1277 C1276 1.377 . S
C1277 C1278 1.379 . S
C1278 H1262 0.931 . S
C1278 C1272 1.383 . S
C1278 C1277 1.379 . S
H1279 C1273 0.959 . S
H1280 C1273 0.961 . S
H1281 C1273 0.960 . S
H1282 C1274 0.930 . S
H1283 C1275 0.929 . S
H1284 C1292 0.929 . S
H1285 C1294 0.930 . S
H1286 C1296 0.930 . S
H1287 C1299 0.929 . S
H1288 C1302 0.929 1_655 S
H1289 C1304 0.960 . S
H1290 C1304 0.960 . S
H1291 C1304 0.960 . S
C1292 H1284 0.929 . S
C1292 C1293 1.377 . S
C1292 C1294 1.384 . S
C1293 C1292 1.377 . S
C1293 C1299 1.390 1_455 S
C1294 H1285 0.930 . S
C1294 C1292 1.384 . S
C1294 C1295 1.372 . S
C1295 C1294 1.372 . S
C1295 C1296 1.400 1_455 S
C1295 C1300 1.490 . S
C1296 H1286 0.930 . S
C1296 C1295 1.400 1_655 S
C1296 C1299 1.386 . S
H1297 C1313 0.930 . S
H1298 C1314 0.931 . S
C1299 H1287 0.929 . S
C1299 C1293 1.390 1_655 S
C1299 C1296 1.386 . S
C1300 C1295 1.490 . S
C1300 C1302 1.395 . S
C1300 C1303 1.403 . S
H1301 C1307 0.930 . S
C1302 H1288 0.929 1_455 S
C1302 C1300 1.395 . S
C1302 C1305 1.403 . S
C1303 C1300 1.403 . S
C1303 C1304 1.524 . S
C1303 C1307 1.400 . S
C1304 H1289 0.960 . S
C1304 H1290 0.960 . S
C1304 H1291 0.960 . S
C1304 C1303 1.524 . S
C1305 C1302 1.403 . S
C1305 C1306 1.392 . S
C1305 C1309 1.508 . S
C1306 C1305 1.392 . S
C1306 C1307 1.385 . S
C1306 C1308 1.478 . S
C1307 H1301 0.930 . S
C1307 C1303 1.400 . S
C1307 C1306 1.385 . S
C1308 C1306 1.478 . S
C1308 C1310 1.381 . S
C1308 C1314 1.383 . S
C1309 C1305 1.508 . S
C1309 H1315 0.938 1_455 S
C1309 H1316 0.929 1_455 S
C1309 H1317 1.003 . S
C1310 C1308 1.381 . S
C1310 C1311 1.394 . S
C1310 H1318 0.930 . S
C1311 C1310 1.394 . S
C1311 C1312 1.383 . S
C1311 H1319 0.929 . S
C1312 C1311 1.383 . S
C1312 C1313 1.377 . S
C1313 H1297 0.930 . S
C1313 C1312 1.377 . S
C1313 C1314 1.379 . S
C1314 H1298 0.931 . S
C1314 C1308 1.383 . S
C1314 C1313 1.379 . S
H1315 C1309 0.938 1_655 S
H1316 C1309 0.929 1_655 S
H1317 C1309 1.003 . S
H1318 C1310 0.930 . S
H1319 C1311 0.929 . S
H1320 C1328 0.929 . S
H1321 C1330 0.930 . S
H1322 C1332 0.930 . S
H1323 C1335 0.929 . S
H1324 C1338 0.930 . S
H1325 C1340 0.960 . S
H1326 C1340 0.960 . S
H1327 C1340 0.960 . S
C1328 H1320 0.929 . S
C1328 C1329 1.377 . S
C1328 C1330 1.384 . S
C1329 C1328 1.377 . S
C1329 C1335 1.390 . S
C1330 H1321 0.930 . S
C1330 C1328 1.384 . S
C1330 C1331 1.372 . S
C1331 C1330 1.372 . S
C1331 C1332 1.400 . S
C1331 C1336 1.490 . S
C1332 H1322 0.930 . S
C1332 C1331 1.400 . S
C1332 C1335 1.386 . S
H1333 C1349 0.930 . S
H1334 C1350 0.931 . S
C1335 H1323 0.929 . S
C1335 C1329 1.390 . S
C1335 C1332 1.386 . S
C1336 C1331 1.490 . S
C1336 C1338 1.395 . S
C1336 C1339 1.403 . S
H1337 C1343 0.930 . S
C1338 H1324 0.930 . S
C1338 C1336 1.395 . S
C1338 C1341 1.403 . S
C1339 C1336 1.403 . S
C1339 C1340 1.524 . S
C1339 C1343 1.400 . S
C1340 H1325 0.960 . S
C1340 H1326 0.960 . S
C1340 H1327 0.960 . S
C1340 C1339 1.524 . S
C1341 C1338 1.403 . S
C1341 C1342 1.392 . S
C1341 C1345 1.495 . S
C1342 C1341 1.392 . S
C1342 C1343 1.385 . S
C1342 C1344 1.478 . S
C1343 H1337 0.930 . S
C1343 C1339 1.400 . S
C1343 C1342 1.385 . S
C1344 C1342 1.478 . S
C1344 C1346 1.381 . S
C1344 C1350 1.383 . S
C1345 C1341 1.495 . S
C1345 H1351 0.959 . S
C1345 H1352 0.961 . S
C1345 H1353 0.960 . S
C1346 C1344 1.381 . S
C1346 C1347 1.394 . S
C1346 H1354 0.930 . S
C1347 C1346 1.394 . S
C1347 C1348 1.383 . S
C1347 H1355 0.929 . S
C1348 C1347 1.383 . S
C1348 C1349 1.377 . S
C1349 H1333 0.930 . S
C1349 C1348 1.377 . S
C1349 C1350 1.379 . S
C1350 H1334 0.931 . S
C1350 C1344 1.383 . S
C1350 C1349 1.379 . S
H1351 C1345 0.959 . S
H1352 C1345 0.961 . S
H1353 C1345 0.960 . S
H1354 C1346 0.930 . S
H1355 C1347 0.929 . S
H1356 C1364 0.929 . S
H1357 C1366 0.930 . S
H1358 C1368 0.930 1_455 S
H1359 C1371 0.929 . S
H1360 C1374 0.930 . S
H1361 C1376 0.960 . S
H1362 C1376 0.960 . S
H1363 C1376 0.960 . S
C1364 H1356 0.929 . S
C1364 C1365 1.377 . S
C1364 C1366 1.384 . S
C1365 C1364 1.377 . S
C1365 C1371 1.390 1_655 S
C1366 H1357 0.930 . S
C1366 C1364 1.384 . S
C1366 C1367 1.372 . S
C1367 C1366 1.372 . S
C1367 C1368 1.400 . S
C1367 C1372 1.490 . S
C1368 H1358 0.930 1_655 S
C1368 C1367 1.400 . S
C1368 C1371 1.386 1_655 S
H1369 C1385 0.930 . S
H1370 C1386 0.931 . S
C1371 H1359 0.929 . S
C1371 C1365 1.390 1_455 S
C1371 C1368 1.386 1_455 S
C1372 C1367 1.490 . S
C1372 C1374 1.395 . S
C1372 C1375 1.403 . S
H1373 C1379 0.930 . S
C1374 H1360 0.930 . S
C1374 C1372 1.395 . S
C1374 C1377 1.403 . S
C1375 C1372 1.403 . S
C1375 C1376 1.524 . S
C1375 C1379 1.400 . S
C1376 H1361 0.960 . S
C1376 H1362 0.960 . S
C1376 H1363 0.960 . S
C1376 C1375 1.524 . S
C1377 C1374 1.403 . S
C1377 C1378 1.392 . S
C1377 C1381 1.495 . S
C1378 C1377 1.392 . S
C1378 C1379 1.385 . S
C1378 C1380 1.478 . S
C1379 H1373 0.930 . S
C1379 C1375 1.400 . S
C1379 C1378 1.385 . S
C1380 C1378 1.478 . S
C1380 C1382 1.381 . S
C1380 C1386 1.383 . S
C1381 C1377 1.495 . S
C1381 H1387 0.959 . S
C1381 H1388 0.999 . S
C1381 H1389 0.960 . S
C1382 C1380 1.381 . S
C1382 C1383 1.394 . S
C1382 H1390 0.930 . S
C1383 C1382 1.394 . S
C1383 C1384 1.383 . S
C1383 H1391 0.929 . S
C1384 C1383 1.383 . S
C1384 C1385 1.377 . S
C1385 H1369 0.930 . S
C1385 C1384 1.377 . S
C1385 C1386 1.379 . S
C1386 H1370 0.931 . S
C1386 C1380 1.383 . S
C1386 C1385 1.379 . S
H1387 C1381 0.959 . S
H1388 C1381 0.999 . S
H1389 C1381 0.960 . S
H1390 C1382 0.930 . S
H1391 C1383 0.929 . S
H1392 C1400 0.929 . S
H1393 C1402 0.930 . S
H1394 C1404 0.930 . S
H1395 C1407 0.929 . S
H1396 C1410 0.930 . S
H1397 C1412 0.960 . S
H1398 C1412 0.960 . S
H1399 C1412 0.960 . S
C1400 H1392 0.929 . S
C1400 C1401 1.377 . S
C1400 C1402 1.384 . S
C1401 C1400 1.377 . S
C1401 C1407 1.390 . S
C1402 H1393 0.930 . S
C1402 C1400 1.384 . S
C1402 C1403 1.372 . S
C1403 C1402 1.372 . S
C1403 C1404 1.400 . S
C1403 C1408 1.490 . S
C1404 H1394 0.930 . S
C1404 C1403 1.400 . S
C1404 C1407 1.386 . S
H1405 C1421 0.930 . S
H1406 C1422 0.931 . S
C1407 H1395 0.929 . S
C1407 C1401 1.390 . S
C1407 C1404 1.386 . S
C1408 C1403 1.490 . S
C1408 C1410 1.395 . S
C1408 C1411 1.403 . S
H1409 C1415 0.930 . S
C1410 H1396 0.930 . S
C1410 C1408 1.395 . S
C1410 C1413 1.403 . S
C1411 C1408 1.403 . S
C1411 C1412 1.524 . S
C1411 C1415 1.400 . S
C1412 H1397 0.960 . S
C1412 H1398 0.960 . S
C1412 H1399 0.960 . S
C1412 C1411 1.524 . S
C1413 C1410 1.403 . S
C1413 C1414 1.392 . S
C1413 C1417 1.495 . S
C1414 C1413 1.392 . S
C1414 C1415 1.385 . S
C1414 C1416 1.478 . S
C1415 H1409 0.930 . S
C1415 C1411 1.400 . S
C1415 C1414 1.385 . S
C1416 C1414 1.478 . S
C1416 C1418 1.381 . S
C1416 C1422 1.383 . S
C1417 C1413 1.495 . S
C1417 H1423 0.959 . S
C1417 H1424 0.961 . S
C1417 H1425 0.960 . S
C1418 C1416 1.381 . S
C1418 C1419 1.394 . S
C1418 H1426 0.930 . S
C1419 C1418 1.394 . S
C1419 C1420 1.383 . S
C1419 H1427 0.929 . S
C1420 C1419 1.383 . S
C1420 C1421 1.377 . S
C1421 H1405 0.930 . S
C1421 C1420 1.377 . S
C1421 C1422 1.379 . S
C1422 H1406 0.931 . S
C1422 C1416 1.383 . S
C1422 C1421 1.379 . S
H1423 C1417 0.959 . S
H1424 C1417 0.961 . S
H1425 C1417 0.960 . S
H1426 C1418 0.930 . S
H1427 C1419 0.929 . S
H1428 C1436 0.929 . S
H1429 C1438 0.930 . S
H1430 C1440 0.930 . S
H1431 C1443 0.929 . S
H1432 C1446 0.930 . S
H1433 C1448 0.960 . S
H1434 C1448 0.960 . S
H1435 C1448 0.960 . S
C1436 H1428 0.929 . S
C1436 C1437 1.377 . S
C1436 C1438 1.384 . S
C1437 C1436 1.377 . S
C1437 C1443 1.390 . S
C1438 H1429 0.930 . S
C1438 C1436 1.384 . S
C1438 C1439 1.372 . S
C1439 C1438 1.372 . S
C1439 C1440 1.400 . S
C1439 C1444 1.490 . S
C1440 H1430 0.930 . S
C1440 C1439 1.400 . S
C1440 C1443 1.386 . S
H1441 C1457 0.930 . S
H1442 C1458 0.931 . S
C1443 H1431 0.929 . S
C1443 C1437 1.390 . S
C1443 C1440 1.386 . S
C1444 C1439 1.490 . S
C1444 C1446 1.395 . S
C1444 C1447 1.403 . S
H1445 C1451 0.930 . S
C1446 H1432 0.930 . S
C1446 C1444 1.395 . S
C1446 C1449 1.403 . S
C1447 C1444 1.403 . S
C1447 C1448 1.524 . S
C1447 C1451 1.400 . S
C1448 H1433 0.960 . S
C1448 H1434 0.960 . S
C1448 H1435 0.960 . S
C1448 C1447 1.524 . S
C1449 C1446 1.403 . S
C1449 C1450 1.392 . S
C1449 C1453 1.495 . S
C1450 C1449 1.392 . S
C1450 C1451 1.385 . S
C1450 C1452 1.478 . S
C1451 H1445 0.930 . S
C1451 C1447 1.400 . S
C1451 C1450 1.385 . S
C1452 C1450 1.478 . S
C1452 C1454 1.381 . S
C1452 C1458 1.383 . S
C1453 C1449 1.495 . S
C1453 H1459 0.959 . S
C1453 H1460 0.961 . S
C1453 H1461 0.960 . S
C1454 C1452 1.381 . S
C1454 C1455 1.394 . S
C1454 H1462 0.930 . S
C1455 C1454 1.394 . S
C1455 C1456 1.383 . S
C1455 H1463 0.929 . S
C1456 C1455 1.383 . S
C1456 C1457 1.377 . S
C1457 H1441 0.930 . S
C1457 C1456 1.377 . S
C1457 C1458 1.379 . S
C1458 H1442 0.931 . S
C1458 C1452 1.383 . S
C1458 C1457 1.379 . S
H1459 C1453 0.959 . S
H1460 C1453 0.961 . S
H1461 C1453 0.960 . S
H1462 C1454 0.930 . S
H1463 C1455 0.929 . S
H1464 C1472 0.929 . S
H1465 C1474 0.930 . S
H1466 C1476 0.930 . S
H1467 C1479 0.929 . S
H1468 C1482 0.930 . S
H1469 C1484 0.960 . S
H1470 C1484 0.960 . S
H1471 C1484 0.960 . S
C1472 H1464 0.929 . S
C1472 C1473 1.377 . S
C1472 C1474 1.384 . S
C1473 C1472 1.377 . S
C1473 C1479 1.390 . S
C1474 H1465 0.930 . S
C1474 C1472 1.384 . S
C1474 C1475 1.372 . S
C1475 C1474 1.372 . S
C1475 C1476 1.400 . S
C1475 C1480 1.490 . S
C1476 H1466 0.930 . S
C1476 C1475 1.400 . S
C1476 C1479 1.386 . S
H1477 C1493 0.930 . S
H1478 C1494 0.931 . S
C1479 H1467 0.929 . S
C1479 C1473 1.390 . S
C1479 C1476 1.386 . S
C1480 C1475 1.490 . S
C1480 C1482 1.395 . S
C1480 C1483 1.403 1_565 S
H1481 C1487 0.930 . S
C1482 H1468 0.930 . S
C1482 C1480 1.395 . S
C1482 C1485 1.403 . S
C1483 C1480 1.403 1_545 S
C1483 C1484 1.524 . S
C1483 C1487 1.400 . S
C1484 H1469 0.960 . S
C1484 H1470 0.960 . S
C1484 H1471 0.960 . S
C1484 C1483 1.524 . S
C1485 C1482 1.403 . S
C1485 C1486 1.392 . S
C1485 C1489 1.495 . S
C1486 C1485 1.392 . S
C1486 C1487 1.385 1_565 S
C1486 C1488 1.478 . S
C1487 H1481 0.930 . S
C1487 C1483 1.400 . S
C1487 C1486 1.385 1_545 S
C1488 C1486 1.478 . S
C1488 C1490 1.381 . S
C1488 C1494 1.383 . S
C1489 C1485 1.495 . S
C1489 H1495 0.959 . S
C1489 H1496 0.961 . S
C1489 H1497 0.960 . S
C1490 C1488 1.381 . S
C1490 C1491 1.394 . S
C1490 H1498 0.930 . S
C1491 C1490 1.394 . S
C1491 C1492 1.383 . S
C1491 H1499 0.931 . S
C1492 C1491 1.383 . S
C1492 C1493 1.377 . S
C1493 H1477 0.930 . S
C1493 C1492 1.377 . S
C1493 C1494 1.379 . S
C1494 H1478 0.931 . S
C1494 C1488 1.383 . S
C1494 C1493 1.379 . S
H1495 C1489 0.959 . S
H1496 C1489 0.961 . S
H1497 C1489 0.960 . S
H1498 C1490 0.930 . S
H1499 C1491 0.931 . S
H1500 C1508 0.929 . S
H1501 C1510 0.930 . S
H1502 C1512 0.930 . S
H1503 C1515 0.929 . S
H1504 C1518 0.930 . S
H1505 C1520 0.960 . S
H1506 C1520 0.960 . S
H1507 C1520 0.960 1_565 S
C1508 H1500 0.929 . S
C1508 C1509 1.381 . S
C1508 C1510 1.384 . S
C1509 C1508 1.381 . S
C1509 C1515 1.385 1_545 S
C1510 H1501 0.930 . S
C1510 C1508 1.384 . S
C1510 C1511 1.372 1_545 S
C1511 C1510 1.372 1_565 S
C1511 C1512 1.400 . S
C1511 C1516 1.490 . S
C1512 H1502 0.930 . S
C1512 C1511 1.400 . S
C1512 C1515 1.386 . S
H1513 C1529 0.930 . S
H1514 C1530 0.931 . S
C1515 H1503 0.929 . S
C1515 C1509 1.385 1_565 S
C1515 C1512 1.386 . S
C1516 C1511 1.490 . S
C1516 C1518 1.395 . S
C1516 C1519 1.403 . S
H1517 C1523 0.930 . S
C1518 H1504 0.930 . S
C1518 C1516 1.395 . S
C1518 C1521 1.403 . S
C1519 C1516 1.403 . S
C1519 C1520 1.524 1_565 S
C1519 C1523 1.400 . S
C1520 H1505 0.960 . S
C1520 H1506 0.960 . S
C1520 H1507 0.960 1_545 S
C1520 C1519 1.524 1_545 S
C1521 C1518 1.403 . S
C1521 C1522 1.392 . S
C1521 C1525 1.495 . S
C1522 C1521 1.392 . S
C1522 C1523 1.385 . S
C1522 C1524 1.478 . S
C1523 H1517 0.930 . S
C1523 C1519 1.400 . S
C1523 C1522 1.385 . S
C1524 C1522 1.478 . S
C1524 C1526 1.381 . S
C1524 C1530 1.383 . S
C1525 C1521 1.495 . S
C1525 H1531 0.959 . S
C1525 H1532 0.961 . S
C1525 H1533 0.960 . S
C1526 C1524 1.381 . S
C1526 C1527 1.394 . S
C1526 H1534 0.930 . S
C1527 C1526 1.394 . S
C1527 C1528 1.383 . S
C1527 H1535 0.929 . S
C1528 C1527 1.383 . S
C1528 C1529 1.377 . S
C1529 H1513 0.930 . S
C1529 C1528 1.377 . S
C1529 C1530 1.379 . S
C1530 H1514 0.931 . S
C1530 C1524 1.383 . S
C1530 C1529 1.379 . S
H1531 C1525 0.959 . S
H1532 C1525 0.961 . S
H1533 C1525 0.960 . S
H1534 C1526 0.930 . S
H1535 C1527 0.929 . S
H1536 C1544 0.929 . S
H1537 C1546 0.930 . S
H1538 C1548 0.930 . S
H1539 C1551 0.929 . S
H1540 C1554 0.930 . S
H1541 C1556 0.960 . S
H1542 C1556 0.960 . S
H1543 C1556 0.960 . S
C1544 H1536 0.929 . S
C1544 C1545 1.377 . S
C1544 C1546 1.384 . S
C1545 C1544 1.377 . S
C1545 C1551 1.390 . S
C1546 H1537 0.930 . S
C1546 C1544 1.384 . S
C1546 C1547 1.372 . S
C1547 C1546 1.372 . S
C1547 C1548 1.400 . S
C1547 C1552 1.490 . S
C1548 H1538 0.930 . S
C1548 C1547 1.400 . S
C1548 C1551 1.386 . S
H1549 C1565 0.930 . S
H1550 C1566 0.931 . S
C1551 H1539 0.929 . S
C1551 C1545 1.390 . S
C1551 C1548 1.386 . S
C1552 C1547 1.490 . S
C1552 C1554 1.395 . S
C1552 C1555 1.403 . S
H1553 C1559 0.930 . S
C1554 H1540 0.930 . S
C1554 C1552 1.395 . S
C1554 C1557 1.403 . S
C1555 C1552 1.403 . S
C1555 C1556 1.524 . S
C1555 C1559 1.400 . S
C1556 H1541 0.960 . S
C1556 H1542 0.960 . S
C1556 H1543 0.960 . S
C1556 C1555 1.524 . S
C1557 C1554 1.403 . S
C1557 C1558 1.392 . S
C1557 C1561 1.495 . S
C1558 C1557 1.392 . S
C1558 C1559 1.385 . S
C1558 C1560 1.478 . S
C1559 H1553 0.930 . S
C1559 C1555 1.400 . S
C1559 C1558 1.385 . S
C1560 C1558 1.478 . S
C1560 C1562 1.381 . S
C1560 C1566 1.383 . S
C1561 C1557 1.495 . S
C1561 H1567 0.959 . S
C1561 H1568 0.961 . S
C1561 H1569 0.960 . S
C1562 C1560 1.381 . S
C1562 C1563 1.394 . S
C1562 H1570 0.930 . S
C1563 C1562 1.394 . S
C1563 C1564 1.383 . S
C1563 H1571 0.929 . S
C1564 C1563 1.383 . S
C1564 C1565 1.377 . S
C1565 H1549 0.930 . S
C1565 C1564 1.377 . S
C1565 C1566 1.379 . S
C1566 H1550 0.931 . S
C1566 C1560 1.383 . S
C1566 C1565 1.379 . S
H1567 C1561 0.959 . S
H1568 C1561 0.961 . S
H1569 C1561 0.960 . S
H1570 C1562 0.930 . S
H1571 C1563 0.929 . S
H1572 C1580 0.929 . S
H1573 C1582 0.930 . S
H1574 C1584 0.930 . S
H1575 C1587 0.929 . S
H1576 C1590 0.930 . S
H1577 C1592 0.960 . S
H1578 C1592 0.960 1_556 S
H1579 C1592 0.960 . S
C1580 H1572 0.929 . S
C1580 C1581 1.386 . S
C1580 C1582 1.384 . S
C1581 C1580 1.386 . S
C1581 C1587 1.382 1_556 S
C1582 H1573 0.930 . S
C1582 C1580 1.384 . S
C1582 C1583 1.372 . S
C1583 C1582 1.372 . S
C1583 C1584 1.400 1_556 S
C1583 C1588 1.490 . S
C1584 H1574 0.930 . S
C1584 C1583 1.400 1_554 S
C1584 C1587 1.386 . S
H1585 C1601 0.930 . S
H1586 C1602 0.931 1_554 S
C1587 H1575 0.929 . S
C1587 C1581 1.382 1_554 S
C1587 C1584 1.386 . S
C1588 C1583 1.490 . S
C1588 C1590 1.395 . S
C1588 C1591 1.403 . S
H1589 C1595 0.930 . S
C1590 H1576 0.930 . S
C1590 C1588 1.395 . S
C1590 C1593 1.403 . S
C1591 C1588 1.403 . S
C1591 C1592 1.524 1_556 S
C1591 C1595 1.400 . S
C1592 H1577 0.960 . S
C1592 H1578 0.960 1_554 S
C1592 H1579 0.960 . S
C1592 C1591 1.524 1_554 S
C1593 C1590 1.403 . S
C1593 C1594 1.392 . S
C1593 C1597 1.495 . S
C1594 C1593 1.392 . S
C1594 C1595 1.385 . S
C1594 C1596 1.478 . S
C1595 H1589 0.930 . S
C1595 C1591 1.400 . S
C1595 C1594 1.385 . S
C1596 C1594 1.478 . S
C1596 C1598 1.381 . S
C1596 C1602 1.383 . S
C1597 C1593 1.495 . S
C1597 H1603 0.959 . S
C1597 H1604 0.961 . S
C1597 H1605 0.960 . S
C1598 C1596 1.381 . S
C1598 C1599 1.394 . S
C1598 H1606 0.930 . S
C1599 C1598 1.394 . S
C1599 C1600 1.383 . S
C1599 H1607 0.929 . S
C1600 C1599 1.383 . S
C1600 C1601 1.377 . S
C1601 H1585 0.930 . S
C1601 C1600 1.377 . S
C1601 C1602 1.379 . S
C1602 H1586 0.931 1_556 S
C1602 C1596 1.383 . S
C1602 C1601 1.379 . S
H1603 C1597 0.959 . S
H1604 C1597 0.961 . S
H1605 C1597 0.960 . S
H1606 C1598 0.930 . S
H1607 C1599 0.929 . S
H1608 C1616 0.929 . S
H1609 C1618 0.930 . S
H1610 C1620 0.930 . S
H1611 C1623 0.929 . S
H1612 C1626 0.930 . S
H1613 C1628 0.960 . S
H1614 C1628 0.960 . S
H1615 C1628 0.960 . S
C1616 H1608 0.929 . S
C1616 C1617 1.377 . S
C1616 C1618 1.384 . S
C1617 C1616 1.377 . S
C1617 C1623 1.390 . S
C1618 H1609 0.930 . S
C1618 C1616 1.384 . S
C1618 C1619 1.372 . S
C1619 C1618 1.372 . S
C1619 C1620 1.400 . S
C1619 C1624 1.490 . S
C1620 H1610 0.930 . S
C1620 C1619 1.400 . S
C1620 C1623 1.386 . S
H1621 C1637 0.930 . S
H1622 C1638 0.931 . S
C1623 H1611 0.929 . S
C1623 C1617 1.390 . S
C1623 C1620 1.386 . S
C1624 C1619 1.490 . S
C1624 C1626 1.395 . S
C1624 C1627 1.403 . S
H1625 C1631 0.930 . S
C1626 H1612 0.930 . S
C1626 C1624 1.395 . S
C1626 C1629 1.403 . S
C1627 C1624 1.403 . S
C1627 C1628 1.524 . S
C1627 C1631 1.400 . S
C1628 H1613 0.960 . S
C1628 H1614 0.960 . S
C1628 H1615 0.960 . S
C1628 C1627 1.524 . S
C1629 C1626 1.403 . S
C1629 C1630 1.392 . S
C1629 C1633 1.495 . S
C1630 C1629 1.392 . S
C1630 C1631 1.385 . S
C1630 C1632 1.478 . S
C1631 H1625 0.930 . S
C1631 C1627 1.400 . S
C1631 C1630 1.385 . S
C1632 C1630 1.478 . S
C1632 C1634 1.381 . S
C1632 C1638 1.383 . S
C1633 C1629 1.495 . S
C1633 H1639 0.959 . S
C1633 H1640 0.961 . S
C1633 H1641 0.960 . S
C1634 C1632 1.381 . S
C1634 C1635 1.394 . S
C1634 H1642 0.930 . S
C1635 C1634 1.394 . S
C1635 C1636 1.383 . S
C1635 H1643 0.929 . S
C1636 C1635 1.383 . S
C1636 C1637 1.377 . S
C1637 H1621 0.930 . S
C1637 C1636 1.377 . S
C1637 C1638 1.379 . S
C1638 H1622 0.931 . S
C1638 C1632 1.383 . S
C1638 C1637 1.379 . S
H1639 C1633 0.959 . S
H1640 C1633 0.961 . S
H1641 C1633 0.960 . S
H1642 C1634 0.930 . S
H1643 C1635 0.929 . S
H1644 C1652 0.929 . S
H1645 C1654 0.930 . S
H1646 C1656 0.930 . S
H1647 C1659 0.929 . S
H1648 C1662 0.930 . S
H1649 C1664 0.960 . S
H1650 C1664 0.960 . S
H1651 C1664 0.960 . S
C1652 H1644 0.929 . S
C1652 C1653 1.377 . S
C1652 C1654 1.384 . S
C1653 C1652 1.377 . S
C1653 C1659 1.390 1_556 S
C1654 H1645 0.930 . S
C1654 C1652 1.384 . S
C1654 C1655 1.372 . S
C1655 C1654 1.372 . S
C1655 C1656 1.400 1_556 S
C1655 C1660 1.490 . S
C1656 H1646 0.930 . S
C1656 C1655 1.400 1_554 S
C1656 C1659 1.386 . S
H1657 C1673 0.930 . S
H1658 C1674 0.931 . S
C1659 H1647 0.929 . S
C1659 C1653 1.390 1_554 S
C1659 C1656 1.386 . S
C1660 C1655 1.490 . S
C1660 C1662 1.395 . S
C1660 C1663 1.403 1_556 S
H1661 C1667 0.930 . S
C1662 H1648 0.930 . S
C1662 C1660 1.395 . S
C1662 C1665 1.403 . S
C1663 C1660 1.403 1_554 S
C1663 C1664 1.524 . S
C1663 C1667 1.400 . S
C1664 H1649 0.960 . S
C1664 H1650 0.960 . S
C1664 H1651 0.960 . S
C1664 C1663 1.524 . S
C1665 C1662 1.403 . S
C1665 C1666 1.392 . S
C1665 C1669 1.495 . S
C1666 C1665 1.392 . S
C1666 C1667 1.385 1_556 S
C1666 C1668 1.478 . S
C1667 H1661 0.930 . S
C1667 C1663 1.400 . S
C1667 C1666 1.385 1_554 S
C1668 C1666 1.478 . S
C1668 C1670 1.381 . S
C1668 C1674 1.383 1_556 S
C1669 C1665 1.495 . S
C1669 H1675 0.959 . S
C1669 H1676 0.961 . S
C1669 H1677 0.960 . S
C1670 C1668 1.381 . S
C1670 C1671 1.394 . S
C1670 H1678 0.930 . S
C1671 C1670 1.394 . S
C1671 C1672 1.383 . S
C1671 H1679 0.929 . S
C1672 C1671 1.383 . S
C1672 C1673 1.377 1_556 S
C1673 H1657 0.930 . S
C1673 C1672 1.377 1_554 S
C1673 C1674 1.379 . S
C1674 H1658 0.931 . S
C1674 C1668 1.383 1_554 S
C1674 C1673 1.379 . S
H1675 C1669 0.959 . S
H1676 C1669 0.961 . S
H1677 C1669 0.960 . S
H1678 C1670 0.930 . S
H1679 C1671 0.929 . S
H1680 C1688 0.929 . S
H1681 C1690 0.930 . S
H1682 C1692 0.930 . S
H1683 C1695 0.929 . S
H1684 C1698 0.930 . S
H1685 C1700 0.960 . S
H1686 C1700 0.960 . S
H1687 C1700 0.960 . S
C1688 H1680 0.929 . S
C1688 C1689 1.377 . S
C1688 C1690 1.384 . S
C1689 C1688 1.377 . S
C1689 C1695 1.390 . S
C1690 H1681 0.930 . S
C1690 C1688 1.384 . S
C1690 C1691 1.372 . S
C1691 C1690 1.372 . S
C1691 C1692 1.400 . S
C1691 C1696 1.490 . S
C1692 H1682 0.930 . S
C1692 C1691 1.400 . S
C1692 C1695 1.386 . S
H1693 C1709 0.930 . S
H1694 C1710 0.931 . S
C1695 H1683 0.929 . S
C1695 C1689 1.390 . S
C1695 C1692 1.386 . S
C1696 C1691 1.490 . S
C1696 C1698 1.395 . S
C1696 C1699 1.403 . S
H1697 C1703 0.930 . S
C1698 H1684 0.930 . S
C1698 C1696 1.395 . S
C1698 C1701 1.403 . S
C1699 C1696 1.403 . S
C1699 C1700 1.524 . S
C1699 C1703 1.400 . S
C1700 H1685 0.960 . S
C1700 H1686 0.960 . S
C1700 H1687 0.960 . S
C1700 C1699 1.524 . S
C1701 C1698 1.403 . S
C1701 C1702 1.392 . S
C1701 C1705 1.495 . S
C1702 C1701 1.392 . S
C1702 C1703 1.385 . S
C1702 C1704 1.478 . S
C1703 H1697 0.930 . S
C1703 C1699 1.400 . S
C1703 C1702 1.385 . S
C1704 C1702 1.478 . S
C1704 C1706 1.381 . S
C1704 C1710 1.383 . S
C1705 C1701 1.495 . S
C1705 H1711 0.959 . S
C1705 H1712 0.961 . S
C1705 H1713 0.960 . S
C1706 C1704 1.381 . S
C1706 C1707 1.394 . S
C1706 H1714 0.930 . S
C1707 C1706 1.394 . S
C1707 C1708 1.383 . S
C1707 H1715 0.929 . S
C1708 C1707 1.383 . S
C1708 C1709 1.377 . S
C1709 H1693 0.930 . S
C1709 C1708 1.377 . S
C1709 C1710 1.379 . S
C1710 H1694 0.931 . S
C1710 C1704 1.383 . S
C1710 C1709 1.379 . S
H1711 C1705 0.959 . S
H1712 C1705 0.961 . S
H1713 C1705 0.960 . S
H1714 C1706 0.930 . S
H1715 C1707 0.929 . S
H1716 C1724 0.929 . S
H1717 C1726 0.930 . S
H1718 C1728 0.930 . S
H1719 C1731 0.929 . S
H1720 C1734 0.930 . S
H1721 C1736 0.960 . S
H1722 C1736 0.960 . S
H1723 C1736 0.960 . S
C1724 H1716 0.929 . S
C1724 C1725 1.379 1_655 S
C1724 C1726 1.384 . S
C1725 C1724 1.379 1_455 S
C1725 C1731 1.388 . S
C1726 H1717 0.930 . S
C1726 C1724 1.384 . S
C1726 C1727 1.372 . S
C1727 C1726 1.372 . S
C1727 C1728 1.400 1_655 S
C1727 C1732 1.490 . S
C1728 H1718 0.930 . S
C1728 C1727 1.400 1_455 S
C1728 C1731 1.386 . S
H1729 C1745 0.930 . S
H1730 C1746 0.931 . S
C1731 H1719 0.929 . S
C1731 C1725 1.388 . S
C1731 C1728 1.386 . S
C1732 C1727 1.490 . S
C1732 C1734 1.395 . S
C1732 C1735 1.403 1_655 S
H1733 C1739 0.930 1_455 S
C1734 H1720 0.930 . S
C1734 C1732 1.395 . S
C1734 C1737 1.403 . S
C1735 C1732 1.403 1_455 S
C1735 C1736 1.524 . S
C1735 C1739 1.400 1_455 S
C1736 H1721 0.960 . S
C1736 H1722 0.960 . S
C1736 H1723 0.960 . S
C1736 C1735 1.524 . S
C1737 C1734 1.403 . S
C1737 C1738 1.392 . S
C1737 C1741 1.495 . S
C1738 C1737 1.392 . S
C1738 C1739 1.385 . S
C1738 C1740 1.478 . S
C1739 H1733 0.930 1_655 S
C1739 C1735 1.400 1_655 S
C1739 C1738 1.385 . S
C1740 C1738 1.478 . S
C1740 C1742 1.381 . S
C1740 C1746 1.383 . S
C1741 C1737 1.495 . S
C1741 H1747 0.959 . S
C1741 H1748 0.961 . S
C1741 H1749 0.960 . S
C1742 C1740 1.381 . S
C1742 C1743 1.394 . S
C1742 H1750 0.930 . S
C1743 C1742 1.394 . S
C1743 C1744 1.383 . S
C1743 H1751 0.929 . S
C1744 C1743 1.383 . S
C1744 C1745 1.377 . S
C1745 H1729 0.930 . S
C1745 C1744 1.377 . S
C1745 C1746 1.379 . S
C1746 H1730 0.931 . S
C1746 C1740 1.383 . S
C1746 C1745 1.379 . S
H1747 C1741 0.959 . S
H1748 C1741 0.961 . S
H1749 C1741 0.960 . S
H1750 C1742 0.930 . S
H1751 C1743 0.929 . S
H1752 C1760 0.929 . S
H1753 C1762 0.930 . S
H1754 C1764 0.930 . S
H1755 C1767 0.929 . S
H1756 C1770 0.930 . S
H1757 C1772 0.960 . S
H1758 C1772 0.960 . S
H1759 C1772 0.960 . S
C1760 H1752 0.929 . S
C1760 C1761 1.377 . S
C1760 C1762 1.384 . S
C1761 C1760 1.377 . S
C1761 C1767 1.390 . S
C1762 H1753 0.930 . S
C1762 C1760 1.384 . S
C1762 C1763 1.372 . S
C1763 C1762 1.372 . S
C1763 C1764 1.400 . S
C1763 C1768 1.490 . S
C1764 H1754 0.930 . S
C1764 C1763 1.400 . S
C1764 C1767 1.386 . S
H1765 C1781 0.930 . S
H1766 C1782 0.931 . S
C1767 H1755 0.929 . S
C1767 C1761 1.390 . S
C1767 C1764 1.386 . S
C1768 C1763 1.490 . S
C1768 C1770 1.395 . S
C1768 C1771 1.403 . S
H1769 C1775 0.930 . S
C1770 H1756 0.930 . S
C1770 C1768 1.395 . S
C1770 C1773 1.403 . S
C1771 C1768 1.403 . S
C1771 C1772 1.524 . S
C1771 C1775 1.400 . S
C1772 H1757 0.960 . S
C1772 H1758 0.960 . S
C1772 H1759 0.960 . S
C1772 C1771 1.524 . S
C1773 C1770 1.403 . S
C1773 C1774 1.392 . S
C1773 C1777 1.495 . S
C1774 C1773 1.392 . S
C1774 C1775 1.385 . S
C1774 C1776 1.478 . S
C1775 H1769 0.930 . S
C1775 C1771 1.400 . S
C1775 C1774 1.385 . S
C1776 C1774 1.478 . S
C1776 C1778 1.381 . S
C1776 C1782 1.383 . S
C1777 C1773 1.495 . S
C1777 H1783 0.959 . S
C1777 H1784 0.961 . S
C1777 H1785 0.960 . S
C1778 C1776 1.381 . S
C1778 C1779 1.394 . S
C1778 H1786 0.930 . S
C1779 C1778 1.394 . S
C1779 C1780 1.383 . S
C1779 H1787 0.929 . S
C1780 C1779 1.383 . S
C1780 C1781 1.377 . S
C1781 H1765 0.930 . S
C1781 C1780 1.377 . S
C1781 C1782 1.379 . S
C1782 H1766 0.931 . S
C1782 C1776 1.383 . S
C1782 C1781 1.379 . S
H1783 C1777 0.959 . S
H1784 C1777 0.961 . S
H1785 C1777 0.960 . S
H1786 C1778 0.930 . S
H1787 C1779 0.929 . S
H1788 C1796 0.929 . S
H1789 C1798 0.930 . S
H1790 C1800 0.916 1_455 S
H1791 C1803 0.915 1_455 S
H1792 C1806 0.930 . S
H1793 C1808 0.960 . S
H1794 C1808 0.960 . S
H1795 C1808 0.960 . S
C1796 H1788 0.929 . S
C1796 C1797 1.377 . S
C1796 C1798 1.384 . S
C1797 C1796 1.377 . S
C1797 C1803 1.412 . S
C1798 H1789 0.930 . S
C1798 C1796 1.384 . S
C1798 C1799 1.372 . S
C1799 C1798 1.372 . S
C1799 C1800 1.411 . S
C1799 C1804 1.490 . S
C1800 H1790 0.916 1_655 S
C1800 C1799 1.411 . S
C1800 C1803 1.384 . S
H1801 C1817 0.940 . S
H1802 C1818 0.931 . S
C1803 H1791 0.915 1_655 S
C1803 C1797 1.412 . S
C1803 C1800 1.384 . S
C1804 C1799 1.490 . S
C1804 C1806 1.395 . S
C1804 C1807 1.403 1_655 S
H1805 C1811 0.930 . S
C1806 H1792 0.930 . S
C1806 C1804 1.395 . S
C1806 C1809 1.403 . S
C1807 C1804 1.403 1_455 S
C1807 C1808 1.524 . S
C1807 C1811 1.400 . S
C1808 H1793 0.960 . S
C1808 H1794 0.960 . S
C1808 H1795 0.960 . S
C1808 C1807 1.524 . S
C1809 C1806 1.403 . S
C1809 C1810 1.392 . S
C1809 C1813 1.495 . S
C1810 C1809 1.392 . S
C1810 C1811 1.385 1_655 S
C1810 C1812 1.478 . S
C1811 H1805 0.930 . S
C1811 C1807 1.400 . S
C1811 C1810 1.385 1_455 S
C1812 C1810 1.478 . S
C1812 C1814 1.381 . S
C1812 C1818 1.383 . S
C1813 C1809 1.495 . S
C1813 H1819 0.959 . S
C1813 H1820 0.961 . S
C1813 H1821 0.960 . S
C1814 C1812 1.381 . S
C1814 C1815 1.394 . S
C1814 H1822 0.930 . S
C1815 C1814 1.394 . S
C1815 C1816 1.383 . S
C1815 H1823 0.929 . S
C1816 C1815 1.383 . S
C1816 C1817 1.377 . S
C1817 H1801 0.940 . S
C1817 C1816 1.377 . S
C1817 C1818 1.379 . S
C1818 H1802 0.931 . S
C1818 C1812 1.383 . S
C1818 C1817 1.379 . S
H1819 C1813 0.959 . S
H1820 C1813 0.961 . S
H1821 C1813 0.960 . S
H1822 C1814 0.930 . S
H1823 C1815 0.929 . S
H1824 C1832 0.929 . S
H1825 C1834 0.930 . S
H1826 C1836 0.930 . S
H1827 C1839 0.929 . S
H1828 C1842 0.930 . S
H1829 C1844 0.960 . S
H1830 C1844 0.960 . S
H1831 C1844 0.960 . S
C1832 H1824 0.929 . S
C1832 C1833 1.377 . S
C1832 C1834 1.384 . S
C1833 C1832 1.377 . S
C1833 C1839 1.390 . S
C1834 H1825 0.930 . S
C1834 C1832 1.384 . S
C1834 C1835 1.372 . S
C1835 C1834 1.372 . S
C1835 C1836 1.400 . S
C1835 C1840 1.490 . S
C1836 H1826 0.930 . S
C1836 C1835 1.400 . S
C1836 C1839 1.386 . S
H1837 C1853 0.930 . S
H1838 C1854 0.931 . S
C1839 H1827 0.929 . S
C1839 C1833 1.390 . S
C1839 C1836 1.386 . S
C1840 C1835 1.490 . S
C1840 C1842 1.395 . S
C1840 C1843 1.403 . S
H1841 C1847 0.930 . S
C1842 H1828 0.930 . S
C1842 C1840 1.395 . S
C1842 C1845 1.403 . S
C1843 C1840 1.403 . S
C1843 C1844 1.524 . S
C1843 C1847 1.400 . S
C1844 H1829 0.960 . S
C1844 H1830 0.960 . S
C1844 H1831 0.960 . S
C1844 C1843 1.524 . S
C1845 C1842 1.403 . S
C1845 C1846 1.392 . S
C1845 C1849 1.495 . S
C1846 C1845 1.392 . S
C1846 C1847 1.385 . S
C1846 C1848 1.478 . S
C1847 H1841 0.930 . S
C1847 C1843 1.400 . S
C1847 C1846 1.385 . S
C1848 C1846 1.478 . S
C1848 C1850 1.381 . S
C1848 C1854 1.383 . S
C1849 C1845 1.495 . S
C1849 H1855 0.959 . S
C1849 H1856 0.961 . S
C1849 H1857 0.960 . S
C1850 C1848 1.381 . S
C1850 C1851 1.394 . S
C1850 H1858 0.930 . S
C1851 C1850 1.394 . S
C1851 C1852 1.383 . S
C1851 H1859 0.929 . S
C1852 C1851 1.383 . S
C1852 C1853 1.377 . S
C1853 H1837 0.930 . S
C1853 C1852 1.377 . S
C1853 C1854 1.379 . S
C1854 H1838 0.931 . S
C1854 C1848 1.383 . S
C1854 C1853 1.379 . S
H1855 C1849 0.959 . S
H1856 C1849 0.961 . S
H1857 C1849 0.960 . S
H1858 C1850 0.930 . S
H1859 C1851 0.929 . S
H1860 C1868 0.929 . S
H1861 C1870 0.930 . S
H1862 C1872 0.930 . S
H1863 C1875 0.929 . S
H1864 C1878 0.930 . S
H1865 C1880 0.960 . S
H1866 C1880 0.960 . S
H1867 C1880 0.960 . S
C1868 H1860 0.929 . S
C1868 C1869 1.377 . S
C1868 C1870 1.384 . S
C1869 C1868 1.377 . S
C1869 C1875 1.390 . S
C1870 H1861 0.930 . S
C1870 C1868 1.384 . S
C1870 C1871 1.372 . S
C1871 C1870 1.372 . S
C1871 C1872 1.400 . S
C1871 C1876 1.490 . S
C1872 H1862 0.930 . S
C1872 C1871 1.400 . S
C1872 C1875 1.386 . S
H1873 C1889 0.930 . S
H1874 C1890 0.931 . S
C1875 H1863 0.929 . S
C1875 C1869 1.390 . S
C1875 C1872 1.386 . S
C1876 C1871 1.490 . S
C1876 C1878 1.395 . S
C1876 C1879 1.403 . S
H1877 C1883 0.930 . S
C1878 H1864 0.930 . S
C1878 C1876 1.395 . S
C1878 C1881 1.403 . S
C1879 C1876 1.403 . S
C1879 C1880 1.524 . S
C1879 C1883 1.400 . S
C1880 H1865 0.960 . S
C1880 H1866 0.960 . S
C1880 H1867 0.960 . S
C1880 C1879 1.524 . S
C1881 C1878 1.403 . S
C1881 C1882 1.392 . S
C1881 C1885 1.495 . S
C1882 C1881 1.392 . S
C1882 C1883 1.385 . S
C1882 C1884 1.478 . S
C1883 H1877 0.930 . S
C1883 C1879 1.400 . S
C1883 C1882 1.385 . S
C1884 C1882 1.478 . S
C1884 C1886 1.381 . S
C1884 C1890 1.383 . S
C1885 C1881 1.495 . S
C1885 H1891 0.959 . S
C1885 H1892 0.961 . S
C1885 H1893 0.960 . S
C1886 C1884 1.381 . S
C1886 C1887 1.394 . S
C1886 H1894 0.930 . S
C1887 C1886 1.394 . S
C1887 C1888 1.383 . S
C1887 H1895 0.929 . S
C1888 C1887 1.383 . S
C1888 C1889 1.377 . S
C1889 H1873 0.930 . S
C1889 C1888 1.377 . S
C1889 C1890 1.379 . S
C1890 H1874 0.931 . S
C1890 C1884 1.383 . S
C1890 C1889 1.379 . S
H1891 C1885 0.959 . S
H1892 C1885 0.961 . S
H1893 C1885 0.960 . S
H1894 C1886 0.930 . S
H1895 C1887 0.929 . S
H1896 C1904 0.929 . S
H1897 C1906 0.930 . S
H1898 C1908 0.930 . S
H1899 C1911 0.929 . S
H1900 C1914 0.930 . S
H1901 C1916 0.960 . S
H1902 C1916 0.960 . S
H1903 C1916 0.960 . S
C1904 H1896 0.929 . S
C1904 C1905 1.377 . S
C1904 C1906 1.384 . S
C1905 C1904 1.377 . S
C1905 C1911 1.390 . S
C1906 H1897 0.930 . S
C1906 C1904 1.384 . S
C1906 C1907 1.372 . S
C1907 C1906 1.372 . S
C1907 C1908 1.400 . S
C1907 C1912 1.490 . S
C1908 H1898 0.930 . S
C1908 C1907 1.400 . S
C1908 C1911 1.386 . S
H1909 C1925 0.930 . S
H1910 C1926 0.931 . S
C1911 H1899 0.929 . S
C1911 C1905 1.390 . S
C1911 C1908 1.386 . S
C1912 C1907 1.490 . S
C1912 C1914 1.395 1_545 S
C1912 C1915 1.403 . S
H1913 C1919 0.930 . S
C1914 H1900 0.930 . S
C1914 C1912 1.395 1_565 S
C1914 C1917 1.403 . S
C1915 C1912 1.403 . S
C1915 C1916 1.524 . S
C1915 C1919 1.400 . S
C1916 H1901 0.960 . S
C1916 H1902 0.960 . S
C1916 H1903 0.960 . S
C1916 C1915 1.524 . S
C1917 C1914 1.403 . S
C1917 C1918 1.392 1_565 S
C1917 C1921 1.495 . S
C1918 C1917 1.392 1_545 S
C1918 C1919 1.385 . S
C1918 C1920 1.478 . S
C1919 H1913 0.930 . S
C1919 C1915 1.400 . S
C1919 C1918 1.385 . S
C1920 C1918 1.478 . S
C1920 C1922 1.381 . S
C1920 C1926 1.383 1_545 S
C1921 C1917 1.495 . S
C1921 H1927 0.959 . S
C1921 H1928 0.961 . S
C1921 H1929 0.960 . S
C1922 C1920 1.381 . S
C1922 C1923 1.394 . S
C1922 H1930 0.930 . S
C1923 C1922 1.394 . S
C1923 C1924 1.383 . S
C1923 H1931 0.929 . S
C1924 C1923 1.383 . S
C1924 C1925 1.377 1_545 S
C1925 H1909 0.930 . S
C1925 C1924 1.377 1_565 S
C1925 C1926 1.379 . S
C1926 H1910 0.931 . S
C1926 C1920 1.383 1_565 S
C1926 C1925 1.379 . S
H1927 C1921 0.959 . S
H1928 C1921 0.961 . S
H1929 C1921 0.960 . S
H1930 C1922 0.930 . S
H1931 C1923 0.929 . S
H1932 C1940 0.929 . S
H1933 C1942 0.930 . S
H1934 C1944 0.952 . S
H1935 C1947 0.929 . S
H1936 C1950 0.930 1_565 S
H1937 C1952 0.960 . S
H1938 C1952 0.960 . S
H1939 C1952 0.960 . S
C1940 H1932 0.929 . S
C1940 C1941 1.386 . S
C1940 C1942 1.384 . S
C1941 C1940 1.386 . S
C1941 C1947 1.383 1_545 S
C1942 H1933 0.930 . S
C1942 C1940 1.384 . S
C1942 C1943 1.372 . S
C1943 C1942 1.372 . S
C1943 C1944 1.375 1_545 S
C1943 C1948 1.490 . S
C1944 H1934 0.952 . S
C1944 C1943 1.375 1_565 S
C1944 C1947 1.392 . S
H1945 C1961 0.930 . S
H1946 C1962 0.931 . S
C1947 H1935 0.929 . S
C1947 C1941 1.383 1_565 S
C1947 C1944 1.392 . S
C1948 C1943 1.490 . S
C1948 C1950 1.395 . S
C1948 C1951 1.403 . S
H1949 C1955 0.930 . S
C1950 H1936 0.930 1_545 S
C1950 C1948 1.395 . S
C1950 C1953 1.403 . S
C1951 C1948 1.403 . S
C1951 C1952 1.524 . S
C1951 C1955 1.400 . S
C1952 H1937 0.960 . S
C1952 H1938 0.960 . S
C1952 H1939 0.960 . S
C1952 C1951 1.524 . S
C1953 C1950 1.403 . S
C1953 C1954 1.392 . S
C1953 C1957 1.495 1_545 S
C1954 C1953 1.392 . S
C1954 C1955 1.385 . S
C1954 C1956 1.478 . S
C1955 H1949 0.930 . S
C1955 C1951 1.400 . S
C1955 C1954 1.385 . S
C1956 C1954 1.478 . S
C1956 C1958 1.381 . S
C1956 C1962 1.383 . S
C1957 C1953 1.495 1_565 S
C1957 H1963 0.959 . S
C1957 H1964 0.961 . S
C1957 H1965 0.960 1_565 S
C1958 C1956 1.381 . S
C1958 C1959 1.394 . S
C1958 H1966 0.930 . S
C1959 C1958 1.394 . S
C1959 C1960 1.383 . S
C1959 H1967 0.929 . S
C1960 C1959 1.383 . S
C1960 C1961 1.377 . S
C1961 H1945 0.930 . S
C1961 C1960 1.377 . S
C1961 C1962 1.379 . S
C1962 H1946 0.931 . S
C1962 C1956 1.383 . S
C1962 C1961 1.379 . S
H1963 C1957 0.959 . S
H1964 C1957 0.961 . S
H1965 C1957 0.960 1_545 S
H1966 C1958 0.930 . S
H1967 C1959 0.929 . S
H1968 C1976 0.929 . S
H1969 C1978 0.930 . S
H1970 C1980 0.930 . S
H1971 C1983 0.929 . S
H1972 C1986 0.930 . S
H1973 C1988 0.960 . S
H1974 C1988 0.960 . S
H1975 C1988 0.960 . S
C1976 H1968 0.929 . S
C1976 C1977 1.377 . S
C1976 C1978 1.384 . S
C1977 C1976 1.377 . S
C1977 C1983 1.390 . S
C1978 H1969 0.930 . S
C1978 C1976 1.384 . S
C1978 C1979 1.372 . S
C1979 C1978 1.372 . S
C1979 C1980 1.400 . S
C1979 C1984 1.490 . S
C1980 H1970 0.930 . S
C1980 C1979 1.400 . S
C1980 C1983 1.386 . S
H1981 C1997 0.930 . S
H1982 C1998 0.931 . S
C1983 H1971 0.929 . S
C1983 C1977 1.390 . S
C1983 C1980 1.386 . S
C1984 C1979 1.490 . S
C1984 C1986 1.395 . S
C1984 C1987 1.403 . S
H1985 C1991 0.930 . S
C1986 H1972 0.930 . S
C1986 C1984 1.395 . S
C1986 C1989 1.403 . S
C1987 C1984 1.403 . S
C1987 C1988 1.524 . S
C1987 C1991 1.400 . S
C1988 H1973 0.960 . S
C1988 H1974 0.960 . S
C1988 H1975 0.960 . S
C1988 C1987 1.524 . S
C1989 C1986 1.403 . S
C1989 C1990 1.392 . S
C1989 C1993 1.495 . S
C1990 C1989 1.392 . S
C1990 C1991 1.385 . S
C1990 C1992 1.478 . S
C1991 H1985 0.930 . S
C1991 C1987 1.400 . S
C1991 C1990 1.385 . S
C1992 C1990 1.478 . S
C1992 C1994 1.381 . S
C1992 C1998 1.383 . S
C1993 C1989 1.495 . S
C1993 H1999 0.959 . S
C1993 H2000 0.961 . S
C1993 H2001 0.960 . S
C1994 C1992 1.381 . S
C1994 C1995 1.394 . S
C1994 H2002 0.930 . S
C1995 C1994 1.394 . S
C1995 C1996 1.383 . S
C1995 H2003 0.929 . S
C1996 C1995 1.383 . S
C1996 C1997 1.377 . S
C1997 H1981 0.930 . S
C1997 C1996 1.377 . S
C1997 C1998 1.379 . S
C1998 H1982 0.931 . S
C1998 C1992 1.383 . S
C1998 C1997 1.379 . S
H1999 C1993 0.959 . S
H2000 C1993 0.961 . S
H2001 C1993 0.960 . S
H2002 C1994 0.930 . S
H2003 C1995 0.929 . S
H2004 C2012 0.929 . S
H2005 C2014 0.930 . S
H2006 C2016 0.930 . S
H2007 C2019 0.929 . S
H2008 C2022 0.930 . S
H2009 C2024 0.960 . S
H2010 C2024 0.960 . S
H2011 C2024 0.960 1_554 S
C2012 H2004 0.929 . S
C2012 C2013 1.386 . S
C2012 C2014 1.384 . S
C2013 C2012 1.386 . S
C2013 C2019 1.380 1_556 S
C2014 H2005 0.930 . S
C2014 C2012 1.384 . S
C2014 C2015 1.372 1_556 S
C2015 C2014 1.372 1_554 S
C2015 C2016 1.400 . S
C2015 C2020 1.490 . S
C2016 H2006 0.930 . S
C2016 C2015 1.400 . S
C2016 C2019 1.386 . S
H2017 C2033 0.930 . S
H2018 C2034 0.931 . S
C2019 H2007 0.929 . S
C2019 C2013 1.380 1_554 S
C2019 C2016 1.386 . S
C2020 C2015 1.490 . S
C2020 C2022 1.395 . S
C2020 C2023 1.403 . S
H2021 C2027 0.930 . S
C2022 H2008 0.930 . S
C2022 C2020 1.395 . S
C2022 C2025 1.403 . S
C2023 C2020 1.403 . S
C2023 C2024 1.524 1_554 S
C2023 C2027 1.400 . S
C2024 H2009 0.960 . S
C2024 H2010 0.960 . S
C2024 H2011 0.960 1_556 S
C2024 C2023 1.524 1_556 S
C2025 C2022 1.403 . S
C2025 C2026 1.392 . S
C2025 C2029 1.495 . S
C2026 C2025 1.392 . S
C2026 C2027 1.385 . S
C2026 C2028 1.478 . S
C2027 H2021 0.930 . S
C2027 C2023 1.400 . S
C2027 C2026 1.385 . S
C2028 C2026 1.478 . S
C2028 C2030 1.381 . S
C2028 C2034 1.383 . S
C2029 C2025 1.495 . S
C2029 H2035 0.959 . S
C2029 H2036 0.961 . S
C2029 H2037 0.960 . S
C2030 C2028 1.381 . S
C2030 C2031 1.394 . S
C2030 H2038 0.930 . S
C2031 C2030 1.394 . S
C2031 C2032 1.383 . S
C2031 H2039 0.929 . S
C2032 C2031 1.383 . S
C2032 C2033 1.377 . S
C2033 H2017 0.930 . S
C2033 C2032 1.377 . S
C2033 C2034 1.379 . S
C2034 H2018 0.931 . S
C2034 C2028 1.383 . S
C2034 C2033 1.379 . S
H2035 C2029 0.959 . S
H2036 C2029 0.961 . S
H2037 C2029 0.960 . S
H2038 C2030 0.930 . S
H2039 C2031 0.929 . S
H2040 C2048 0.929 . S
H2041 C2050 0.930 . S
H2042 C2052 0.930 . S
H2043 C2055 0.929 . S
H2044 C2058 0.930 . S
H2045 C2060 0.960 . S
H2046 C2060 0.960 . S
H2047 C2060 0.960 . S
C2048 H2040 0.929 . S
C2048 C2049 1.377 . S
C2048 C2050 1.384 . S
C2049 C2048 1.377 . S
C2049 C2055 1.390 . S
C2050 H2041 0.930 . S
C2050 C2048 1.384 . S
C2050 C2051 1.372 . S
C2051 C2050 1.372 . S
C2051 C2052 1.400 . S
C2051 C2056 1.490 . S
C2052 H2042 0.930 . S
C2052 C2051 1.400 . S
C2052 C2055 1.386 . S
H2053 C2069 0.930 . S
H2054 C2070 0.931 . S
C2055 H2043 0.929 . S
C2055 C2049 1.390 . S
C2055 C2052 1.386 . S
C2056 C2051 1.490 . S
C2056 C2058 1.395 . S
C2056 C2059 1.403 . S
H2057 C2063 0.930 . S
C2058 H2044 0.930 . S
C2058 C2056 1.395 . S
C2058 C2061 1.403 . S
C2059 C2056 1.403 . S
C2059 C2060 1.524 . S
C2059 C2063 1.400 . S
C2060 H2045 0.960 . S
C2060 H2046 0.960 . S
C2060 H2047 0.960 . S
C2060 C2059 1.524 . S
C2061 C2058 1.403 . S
C2061 C2062 1.392 . S
C2061 C2065 1.495 . S
C2062 C2061 1.392 . S
C2062 C2063 1.385 . S
C2062 C2064 1.478 . S
C2063 H2057 0.930 . S
C2063 C2059 1.400 . S
C2063 C2062 1.385 . S
C2064 C2062 1.478 . S
C2064 C2066 1.381 . S
C2064 C2070 1.383 . S
C2065 C2061 1.495 . S
C2065 H2071 0.959 . S
C2065 H2072 0.961 . S
C2065 H2073 0.960 . S
C2066 C2064 1.381 . S
C2066 C2067 1.394 . S
C2066 H2074 0.930 . S
C2067 C2066 1.394 . S
C2067 C2068 1.383 . S
C2067 H2075 0.929 . S
C2068 C2067 1.383 . S
C2068 C2069 1.377 . S
C2069 H2053 0.930 . S
C2069 C2068 1.377 . S
C2069 C2070 1.379 . S
C2070 H2054 0.931 . S
C2070 C2064 1.383 . S
C2070 C2069 1.379 . S
H2071 C2065 0.959 . S
H2072 C2065 0.961 . S
H2073 C2065 0.960 . S
H2074 C2066 0.930 . S
H2075 C2067 0.929 . S
H2076 C2084 0.929 . S
H2077 C2086 0.930 . S
H2078 C2088 0.931 . S
H2079 C2091 0.930 1_556 S
H2080 C2094 0.930 . S
H2081 C2096 0.960 . S
H2082 C2096 0.960 . S
H2083 C2096 0.960 . S
C2084 H2076 0.929 . S
C2084 C2085 1.377 . S
C2084 C2086 1.384 . S
C2085 C2084 1.377 . S
C2085 C2091 1.389 . S
C2086 H2077 0.930 . S
C2086 C2084 1.384 . S
C2086 C2087 1.372 . S
C2087 C2086 1.372 . S
C2087 C2088 1.399 1_554 S
C2087 C2092 1.490 . S
C2088 H2078 0.931 . S
C2088 C2087 1.399 1_556 S
C2088 C2091 1.385 1_556 S
H2089 C2105 0.921 1_556 S
H2090 C2106 0.931 . S
C2091 H2079 0.930 1_554 S
C2091 C2085 1.389 . S
C2091 C2088 1.385 1_554 S
C2092 C2087 1.490 . S
C2092 C2094 1.395 . S
C2092 C2095 1.403 1_554 S
H2093 C2099 0.930 . S
C2094 H2080 0.930 . S
C2094 C2092 1.395 . S
C2094 C2097 1.403 . S
C2095 C2092 1.403 1_556 S
C2095 C2096 1.524 . S
C2095 C2099 1.400 . S
C2096 H2081 0.960 . S
C2096 H2082 0.960 . S
C2096 H2083 0.960 . S
C2096 C2095 1.524 . S
C2097 C2094 1.403 . S
C2097 C2098 1.392 . S
C2097 C2101 1.495 . S
C2098 C2097 1.392 . S
C2098 C2099 1.385 1_554 S
C2098 C2100 1.478 . S
C2099 H2093 0.930 . S
C2099 C2095 1.400 . S
C2099 C2098 1.385 1_556 S
C2100 C2098 1.478 . S
C2100 C2102 1.381 . S
C2100 C2106 1.383 . S
C2101 C2097 1.495 . S
C2101 H2107 0.959 . S
C2101 H2108 0.961 . S
C2101 H2109 0.960 . S
C2102 C2100 1.381 . S
C2102 C2103 1.394 . S
C2102 H2110 0.930 . S
C2103 C2102 1.394 . S
C2103 C2104 1.383 . S
C2103 H2111 0.929 . S
C2104 C2103 1.383 . S
C2104 C2105 1.377 . S
C2105 H2089 0.921 1_554 S
C2105 C2104 1.377 . S
C2105 C2106 1.379 . S
C2106 H2090 0.931 . S
C2106 C2100 1.383 . S
C2106 C2105 1.379 . S
H2107 C2101 0.959 . S
H2108 C2101 0.961 . S
H2109 C2101 0.960 . S
H2110 C2102 0.930 . S
H2111 C2103 0.929 . S
H2112 C2120 0.929 . S
H2113 C2122 0.930 . S
H2114 C2124 0.930 . S
H2115 C2127 0.929 . S
H2116 C2130 0.930 . S
H2117 C2132 0.960 . S
H2118 C2132 0.960 . S
H2119 C2132 0.960 . S
C2120 H2112 0.929 . S
C2120 C2121 1.377 . S
C2120 C2122 1.384 . S
C2121 C2120 1.377 . S
C2121 C2127 1.390 . S
C2122 H2113 0.930 . S
C2122 C2120 1.384 . S
C2122 C2123 1.372 . S
C2123 C2122 1.372 . S
C2123 C2124 1.400 . S
C2123 C2128 1.490 . S
C2124 H2114 0.930 . S
C2124 C2123 1.400 . S
C2124 C2127 1.386 . S
H2125 C2141 0.930 . S
H2126 C2142 0.931 . S
C2127 H2115 0.929 . S
C2127 C2121 1.390 . S
C2127 C2124 1.386 . S
C2128 C2123 1.490 . S
C2128 C2130 1.395 . S
C2128 C2131 1.403 . S
H2129 C2135 0.930 . S
C2130 H2116 0.930 . S
C2130 C2128 1.395 . S
C2130 C2133 1.403 . S
C2131 C2128 1.403 . S
C2131 C2132 1.524 . S
C2131 C2135 1.400 . S
C2132 H2117 0.960 . S
C2132 H2118 0.960 . S
C2132 H2119 0.960 . S
C2132 C2131 1.524 . S
C2133 C2130 1.403 . S
C2133 C2134 1.392 . S
C2133 C2137 1.495 . S
C2134 C2133 1.392 . S
C2134 C2135 1.385 . S
C2134 C2136 1.478 . S
C2135 H2129 0.930 . S
C2135 C2131 1.400 . S
C2135 C2134 1.385 . S
C2136 C2134 1.478 . S
C2136 C2138 1.381 . S
C2136 C2142 1.383 . S
C2137 C2133 1.495 . S
C2137 H2143 0.959 . S
C2137 H2144 0.961 . S
C2137 H2145 0.960 . S
C2138 C2136 1.381 . S
C2138 C2139 1.394 . S
C2138 H2146 0.930 . S
C2139 C2138 1.394 . S
C2139 C2140 1.383 . S
C2139 H2147 0.929 . S
C2140 C2139 1.383 . S
C2140 C2141 1.377 . S
C2141 H2125 0.930 . S
C2141 C2140 1.377 . S
C2141 C2142 1.379 . S
C2142 H2126 0.931 . S
C2142 C2136 1.383 . S
C2142 C2141 1.379 . S
H2143 C2137 0.959 . S
H2144 C2137 0.961 . S
H2145 C2137 0.960 . S
H2146 C2138 0.930 . S
H2147 C2139 0.929 . S
H2148 C2156 0.929 . S
H2149 C2158 0.930 . S
H2150 C2160 0.930 . S
H2151 C2163 0.929 . S
H2152 C2166 0.930 . S
H2153 C2168 0.960 . S
H2154 C2168 0.960 . S
H2155 C2168 0.960 1_655 S
C2156 H2148 0.929 . S
C2156 C2157 1.390 . S
C2156 C2158 1.384 . S
C2157 C2156 1.390 . S
C2157 C2163 1.379 1_455 S
C2158 H2149 0.930 . S
C2158 C2156 1.384 . S
C2158 C2159 1.372 . S
C2159 C2158 1.372 . S
C2159 C2160 1.400 1_455 S
C2159 C2164 1.490 . S
C2160 H2150 0.930 . S
C2160 C2159 1.400 1_655 S
C2160 C2163 1.386 . S
H2161 C2177 0.930 . S
H2162 C2178 0.931 1_655 S
C2163 H2151 0.929 . S
C2163 C2157 1.379 1_655 S
C2163 C2160 1.386 . S
C2164 C2159 1.490 . S
C2164 C2166 1.395 . S
C2164 C2167 1.403 . S
H2165 C2171 0.930 . S
C2166 H2152 0.930 . S
C2166 C2164 1.395 . S
C2166 C2169 1.403 . S
C2167 C2164 1.403 . S
C2167 C2168 1.524 . S
C2167 C2171 1.400 . S
C2168 H2153 0.960 . S
C2168 H2154 0.960 . S
C2168 H2155 0.960 1_455 S
C2168 C2167 1.524 . S
C2169 C2166 1.403 . S
C2169 C2170 1.392 . S
C2169 C2173 1.495 . S
C2170 C2169 1.392 . S
C2170 C2171 1.385 . S
C2170 C2172 1.478 . S
C2171 H2165 0.930 . S
C2171 C2167 1.400 . S
C2171 C2170 1.385 . S
C2172 C2170 1.478 . S
C2172 C2174 1.381 . S
C2172 C2178 1.383 . S
C2173 C2169 1.495 . S
C2173 H2179 0.959 . S
C2173 H2180 0.961 . S
C2173 H2181 0.960 . S
C2174 C2172 1.381 . S
C2174 C2175 1.394 . S
C2174 H2182 0.930 . S
C2175 C2174 1.394 . S
C2175 C2176 1.383 . S
C2175 H2183 0.929 . S
C2176 C2175 1.383 . S
C2176 C2177 1.377 . S
C2177 H2161 0.930 . S
C2177 C2176 1.377 . S
C2177 C2178 1.379 . S
C2178 H2162 0.931 1_455 S
C2178 C2172 1.383 . S
C2178 C2177 1.379 . S
H2179 C2173 0.959 . S
H2180 C2173 0.961 . S
H2181 C2173 0.960 . S
H2182 C2174 0.930 . S
H2183 C2175 0.929 . S
H2184 C2192 0.929 . S
H2185 C2194 0.930 . S
H2186 C2196 0.930 . S
H2187 C2199 0.929 . S
H2188 C2202 0.930 . S
H2189 C2204 0.960 . S
H2190 C2204 0.960 . S
H2191 C2204 0.960 . S
C2192 H2184 0.929 . S
C2192 C2193 1.377 . S
C2192 C2194 1.384 . S
C2193 C2192 1.377 . S
C2193 C2199 1.390 . S
C2194 H2185 0.930 . S
C2194 C2192 1.384 . S
C2194 C2195 1.372 . S
C2195 C2194 1.372 . S
C2195 C2196 1.400 . S
C2195 C2200 1.490 . S
C2196 H2186 0.930 . S
C2196 C2195 1.400 . S
C2196 C2199 1.386 . S
H2197 C2213 0.930 . S
H2198 C2214 0.931 . S
C2199 H2187 0.929 . S
C2199 C2193 1.390 . S
C2199 C2196 1.386 . S
C2200 C2195 1.490 . S
C2200 C2202 1.395 . S
C2200 C2203 1.403 . S
H2201 C2207 0.930 . S
C2202 H2188 0.930 . S
C2202 C2200 1.395 . S
C2202 C2205 1.403 . S
C2203 C2200 1.403 . S
C2203 C2204 1.524 . S
C2203 C2207 1.400 . S
C2204 H2189 0.960 . S
C2204 H2190 0.960 . S
C2204 H2191 0.960 . S
C2204 C2203 1.524 . S
C2205 C2202 1.403 . S
C2205 C2206 1.392 . S
C2205 C2209 1.495 . S
C2206 C2205 1.392 . S
C2206 C2207 1.385 . S
C2206 C2208 1.478 . S
C2207 H2201 0.930 . S
C2207 C2203 1.400 . S
C2207 C2206 1.385 . S
C2208 C2206 1.478 . S
C2208 C2210 1.381 . S
C2208 C2214 1.383 . S
C2209 C2205 1.495 . S
C2209 H2215 0.959 . S
C2209 H2216 0.961 . S
C2209 H2217 0.960 . S
C2210 C2208 1.381 . S
C2210 C2211 1.394 . S
C2210 H2218 0.930 . S
C2211 C2210 1.394 . S
C2211 C2212 1.383 . S
C2211 H2219 0.929 . S
C2212 C2211 1.383 . S
C2212 C2213 1.377 . S
C2213 H2197 0.930 . S
C2213 C2212 1.377 . S
C2213 C2214 1.379 . S
C2214 H2198 0.931 . S
C2214 C2208 1.383 . S
C2214 C2213 1.379 . S
H2215 C2209 0.959 . S
H2216 C2209 0.961 . S
H2217 C2209 0.960 . S
H2218 C2210 0.930 . S
H2219 C2211 0.929 . S
H2220 C2228 0.938 . S
H2221 C2230 0.930 . S
H2222 C2232 0.930 . S
H2223 C2235 0.929 . S
H2224 C2238 0.930 . S
H2225 C2240 0.960 . S
H2226 C2240 0.960 . S
H2227 C2240 0.960 . S
C2228 H2220 0.938 . S
C2228 C2229 1.366 1_655 S
C2228 C2230 1.389 . S
C2229 C2228 1.366 1_455 S
C2229 C2235 1.390 . S
C2230 H2221 0.930 . S
C2230 C2228 1.389 . S
C2230 C2231 1.372 1_655 S
C2231 C2230 1.372 1_455 S
C2231 C2232 1.400 . S
C2231 C2236 1.490 . S
C2232 H2222 0.930 . S
C2232 C2231 1.400 . S
C2232 C2235 1.386 . S
H2233 C2249 0.930 . S
H2234 C2250 0.931 . S
C2235 H2223 0.929 . S
C2235 C2229 1.390 . S
C2235 C2232 1.386 . S
C2236 C2231 1.490 . S
C2236 C2238 1.395 1_455 S
C2236 C2239 1.403 . S
H2237 C2243 0.930 . S
C2238 H2224 0.930 . S
C2238 C2236 1.395 1_655 S
C2238 C2241 1.403 . S
C2239 C2236 1.403 . S
C2239 C2240 1.524 . S
C2239 C2243 1.400 . S
C2240 H2225 0.960 . S
C2240 H2226 0.960 . S
C2240 H2227 0.960 . S
C2240 C2239 1.524 . S
C2241 C2238 1.403 . S
C2241 C2242 1.354 1_655 S
C2241 C2245 1.495 . S
C2242 C2241 1.354 1_455 S
C2242 C2243 1.431 . S
C2242 C2244 1.475 . S
C2243 H2237 0.930 . S
C2243 C2239 1.400 . S
C2243 C2242 1.431 . S
C2244 C2242 1.475 . S
C2244 C2246 1.378 1_455 S
C2244 C2250 1.386 . S
C2245 C2241 1.495 . S
C2245 H2251 0.959 . S
C2245 H2252 0.961 . S
C2245 H2253 0.960 . S
C2246 C2244 1.378 1_655 S
C2246 C2247 1.394 . S
C2246 H2254 0.930 . S
C2247 C2246 1.394 . S
C2247 C2248 1.383 1_655 S
C2247 H2255 0.929 . S
C2248 C2247 1.383 1_455 S
C2248 C2249 1.377 . S
C2249 H2233 0.930 . S
C2249 C2248 1.377 . S
C2249 C2250 1.379 . S
C2250 H2234 0.931 . S
C2250 C2244 1.386 . S
C2250 C2249 1.379 . S
H2251 C2245 0.959 . S
H2252 C2245 0.961 . S
H2253 C2245 0.960 . S
H2254 C2246 0.930 . S
H2255 C2247 0.929 . S
H2256 C2264 0.929 . S
H2257 C2266 0.930 . S
H2258 C2268 0.930 . S
H2259 C2271 0.929 . S
H2260 C2274 0.930 . S
H2261 C2276 0.960 . S
H2262 C2276 0.960 . S
H2263 C2276 0.960 . S
C2264 H2256 0.929 . S
C2264 C2265 1.377 . S
C2264 C2266 1.384 . S
C2265 C2264 1.377 . S
C2265 C2271 1.390 . S
C2266 H2257 0.930 . S
C2266 C2264 1.384 . S
C2266 C2267 1.372 . S
C2267 C2266 1.372 . S
C2267 C2268 1.400 . S
C2267 C2272 1.490 . S
C2268 H2258 0.930 . S
C2268 C2267 1.400 . S
C2268 C2271 1.386 . S
H2269 C2285 0.930 . S
H2270 C2286 0.931 . S
C2271 H2259 0.929 . S
C2271 C2265 1.390 . S
C2271 C2268 1.386 . S
C2272 C2267 1.490 . S
C2272 C2274 1.395 . S
C2272 C2275 1.403 . S
H2273 C2279 0.930 . S
C2274 H2260 0.930 . S
C2274 C2272 1.395 . S
C2274 C2277 1.403 . S
C2275 C2272 1.403 . S
C2275 C2276 1.524 . S
C2275 C2279 1.400 . S
C2276 H2261 0.960 . S
C2276 H2262 0.960 . S
C2276 H2263 0.960 . S
C2276 C2275 1.524 . S
C2277 C2274 1.403 . S
C2277 C2278 1.392 . S
C2277 C2281 1.495 . S
C2278 C2277 1.392 . S
C2278 C2279 1.385 . S
C2278 C2280 1.478 . S
C2279 H2273 0.930 . S
C2279 C2275 1.400 . S
C2279 C2278 1.385 . S
C2280 C2278 1.478 . S
C2280 C2282 1.381 . S
C2280 C2286 1.383 . S
C2281 C2277 1.495 . S
C2281 H2287 0.959 . S
C2281 H2288 0.961 . S
C2281 H2289 0.960 . S
C2282 C2280 1.381 . S
C2282 C2283 1.394 . S
C2282 H2290 0.930 . S
C2283 C2282 1.394 . S
C2283 C2284 1.383 . S
C2283 H2291 0.929 . S
C2284 C2283 1.383 . S
C2284 C2285 1.377 . S
C2285 H2269 0.930 . S
C2285 C2284 1.377 . S
C2285 C2286 1.379 . S
C2286 H2270 0.931 . S
C2286 C2280 1.383 . S
C2286 C2285 1.379 . S
H2287 C2281 0.959 . S
H2288 C2281 0.961 . S
H2289 C2281 0.960 . S
H2290 C2282 0.930 . S
H2291 C2283 0.929 . S
H2292 C2300 0.929 . S
H2293 C2302 0.930 . S
H2294 C2304 0.930 . S
H2295 C2307 0.929 . S
H2296 C2310 0.930 . S
H2297 C2312 0.960 . S
H2298 C2312 0.960 . S
H2299 C2312 0.960 . S
C2300 H2292 0.929 . S
C2300 C2301 1.377 . S
C2300 C2302 1.384 . S
C2301 C2300 1.377 . S
C2301 C2307 1.390 . S
C2302 H2293 0.930 . S
C2302 C2300 1.384 . S
C2302 C2303 1.372 . S
C2303 C2302 1.372 . S
C2303 C2304 1.400 . S
C2303 C2308 1.490 . S
C2304 H2294 0.930 . S
C2304 C2303 1.400 . S
C2304 C2307 1.386 . S
H2305 C2321 0.930 . S
H2306 C2322 0.931 . S
C2307 H2295 0.929 . S
C2307 C2301 1.390 . S
C2307 C2304 1.386 . S
C2308 C2303 1.490 . S
C2308 C2310 1.395 . S
C2308 C2311 1.403 . S
H2309 C2315 0.930 . S
C2310 H2296 0.930 . S
C2310 C2308 1.395 . S
C2310 C2313 1.403 . S
C2311 C2308 1.403 . S
C2311 C2312 1.524 . S
C2311 C2315 1.400 . S
C2312 H2297 0.960 . S
C2312 H2298 0.960 . S
C2312 H2299 0.960 . S
C2312 C2311 1.524 . S
C2313 C2310 1.403 . S
C2313 C2314 1.392 . S
C2313 C2317 1.495 . S
C2314 C2313 1.392 . S
C2314 C2315 1.385 . S
C2314 C2316 1.478 . S
C2315 H2309 0.930 . S
C2315 C2311 1.400 . S
C2315 C2314 1.385 . S
C2316 C2314 1.478 . S
C2316 C2318 1.381 . S
C2316 C2322 1.383 . S
C2317 C2313 1.495 . S
C2317 H2323 0.959 . S
C2317 H2324 0.961 . S
C2317 H2325 0.960 . S
C2318 C2316 1.381 . S
C2318 C2319 1.394 . S
C2318 H2326 0.930 . S
C2319 C2318 1.394 . S
C2319 C2320 1.383 . S
C2319 H2327 0.929 . S
C2320 C2319 1.383 . S
C2320 C2321 1.377 . S
C2321 H2305 0.930 . S
C2321 C2320 1.377 . S
C2321 C2322 1.379 . S
C2322 H2306 0.931 . S
C2322 C2316 1.383 . S
C2322 C2321 1.379 . S
H2323 C2317 0.959 . S
H2324 C2317 0.961 . S
H2325 C2317 0.960 . S
H2326 C2318 0.930 . S
H2327 C2319 0.929 . S
H2328 C2336 0.924 1_565 S
H2329 C2338 0.930 . S
H2330 C2340 0.930 . S
H2331 C2343 0.929 . S
H2332 C2346 0.930 . S
H2333 C2348 0.960 . S
H2334 C2348 0.960 . S
H2335 C2348 0.960 . S
C2336 H2328 0.924 1_545 S
C2336 C2337 1.377 . S
C2336 C2338 1.384 . S
C2337 C2336 1.377 . S
C2337 C2343 1.390 . S
C2338 H2329 0.930 . S
C2338 C2336 1.384 . S
C2338 C2339 1.372 . S
C2339 C2338 1.372 . S
C2339 C2340 1.400 . S
C2339 C2344 1.490 . S
C2340 H2330 0.930 . S
C2340 C2339 1.400 . S
C2340 C2343 1.386 . S
H2341 C2357 0.930 . S
H2342 C2358 0.931 . S
C2343 H2331 0.929 . S
C2343 C2337 1.390 . S
C2343 C2340 1.386 . S
C2344 C2339 1.490 . S
C2344 C2346 1.395 1_545 S
C2344 C2347 1.403 . S
H2345 C2351 0.930 . S
C2346 H2332 0.930 . S
C2346 C2344 1.395 1_565 S
C2346 C2349 1.403 . S
C2347 C2344 1.403 . S
C2347 C2348 1.524 . S
C2347 C2351 1.400 . S
C2348 H2333 0.960 . S
C2348 H2334 0.960 . S
C2348 H2335 0.960 . S
C2348 C2347 1.524 . S
C2349 C2346 1.403 . S
C2349 C2350 1.392 1_565 S
C2349 C2353 1.495 . S
C2350 C2349 1.392 1_545 S
C2350 C2351 1.385 . S
C2350 C2352 1.478 . S
C2351 H2345 0.930 . S
C2351 C2347 1.400 . S
C2351 C2350 1.385 . S
C2352 C2350 1.478 . S
C2352 C2354 1.381 . S
C2352 C2358 1.383 . S
C2353 C2349 1.495 . S
C2353 H2359 0.959 . S
C2353 H2360 0.961 . S
C2353 H2361 0.960 . S
C2354 C2352 1.381 . S
C2354 C2355 1.394 . S
C2354 H2362 0.930 . S
C2355 C2354 1.394 . S
C2355 C2356 1.383 . S
C2355 H2363 0.929 . S
C2356 C2355 1.383 . S
C2356 C2357 1.377 . S
C2357 H2341 0.930 . S
C2357 C2356 1.377 . S
C2357 C2358 1.379 . S
C2358 H2342 0.931 . S
C2358 C2352 1.383 . S
C2358 C2357 1.379 . S
H2359 C2353 0.959 . S
H2360 C2353 0.961 . S
H2361 C2353 0.960 . S
H2362 C2354 0.930 . S
H2363 C2355 0.929 . S
H2364 C2372 0.929 . S
H2365 C2374 0.930 . S
H2366 C2376 0.930 1_545 S
H2367 C2379 0.929 . S
H2368 C2382 0.930 . S
H2369 C2384 0.960 . S
H2370 C2384 0.960 . S
H2371 C2384 0.960 . S
C2372 H2364 0.929 . S
C2372 C2373 1.377 . S
C2372 C2374 1.384 . S
C2373 C2372 1.377 . S
C2373 C2379 1.390 1_565 S
C2374 H2365 0.930 . S
C2374 C2372 1.384 . S
C2374 C2375 1.372 . S
C2375 C2374 1.372 . S
C2375 C2376 1.400 . S
C2375 C2380 1.490 . S
C2376 H2366 0.930 1_565 S
C2376 C2375 1.400 . S
C2376 C2379 1.386 1_565 S
H2377 C2393 0.930 . S
H2378 C2394 0.931 . S
C2379 H2367 0.929 . S
C2379 C2373 1.390 1_545 S
C2379 C2376 1.386 1_545 S
C2380 C2375 1.490 . S
C2380 C2382 1.395 . S
C2380 C2383 1.403 . S
H2381 C2387 0.979 . S
C2382 H2368 0.930 . S
C2382 C2380 1.395 . S
C2382 C2385 1.403 . S
C2383 C2380 1.403 . S
C2383 C2384 1.524 1_565 S
C2383 C2387 1.400 . S
C2384 H2369 0.960 . S
C2384 H2370 0.960 . S
C2384 H2371 0.960 . S
C2384 C2383 1.524 1_545 S
C2385 C2382 1.403 . S
C2385 C2386 1.392 . S
C2385 C2389 1.495 . S
C2386 C2385 1.392 . S
C2386 C2387 1.385 . S
C2386 C2388 1.478 . S
C2387 H2381 0.979 . S
C2387 C2383 1.400 . S
C2387 C2386 1.385 . S
C2388 C2386 1.478 . S
C2388 C2390 1.381 . S
C2388 C2394 1.383 . S
C2389 C2385 1.495 . S
C2389 H2395 0.959 . S
C2389 H2396 0.961 . S
C2389 H2397 0.960 . S
C2390 C2388 1.381 . S
C2390 C2391 1.394 . S
C2390 H2398 0.930 . S
C2391 C2390 1.394 . S
C2391 C2392 1.383 . S
C2391 H2399 0.929 . S
C2392 C2391 1.383 . S
C2392 C2393 1.377 . S
C2393 H2377 0.930 . S
C2393 C2392 1.377 . S
C2393 C2394 1.379 . S
C2394 H2378 0.931 . S
C2394 C2388 1.383 . S
C2394 C2393 1.379 . S
H2395 C2389 0.959 . S
H2396 C2389 0.961 . S
H2397 C2389 0.960 . S
H2398 C2390 0.930 . S
H2399 C2391 0.929 . S
H2400 C2408 0.929 . S
H2401 C2410 0.930 . S
H2402 C2412 0.930 . S
H2403 C2415 0.929 . S
H2404 C2418 0.930 . S
H2405 C2420 0.960 . S
H2406 C2420 0.960 . S
H2407 C2420 0.960 . S
C2408 H2400 0.929 . S
C2408 C2409 1.377 . S
C2408 C2410 1.384 . S
C2409 C2408 1.377 . S
C2409 C2415 1.390 . S
C2410 H2401 0.930 . S
C2410 C2408 1.384 . S
C2410 C2411 1.372 . S
C2411 C2410 1.372 . S
C2411 C2412 1.400 . S
C2411 C2416 1.490 . S
C2412 H2402 0.930 . S
C2412 C2411 1.400 . S
C2412 C2415 1.386 . S
H2413 C2429 0.930 . S
H2414 C2430 0.931 . S
C2415 H2403 0.929 . S
C2415 C2409 1.390 . S
C2415 C2412 1.386 . S
C2416 C2411 1.490 . S
C2416 C2418 1.395 . S
C2416 C2419 1.403 . S
H2417 C2423 0.930 . S
C2418 H2404 0.930 . S
C2418 C2416 1.395 . S
C2418 C2421 1.403 . S
C2419 C2416 1.403 . S
C2419 C2420 1.524 . S
C2419 C2423 1.400 . S
C2420 H2405 0.960 . S
C2420 H2406 0.960 . S
C2420 H2407 0.960 . S
C2420 C2419 1.524 . S
C2421 C2418 1.403 . S
C2421 C2422 1.392 . S
C2421 C2425 1.495 . S
C2422 C2421 1.392 . S
C2422 C2423 1.385 . S
C2422 C2424 1.478 . S
C2423 H2417 0.930 . S
C2423 C2419 1.400 . S
C2423 C2422 1.385 . S
C2424 C2422 1.478 . S
C2424 C2426 1.381 . S
C2424 C2430 1.383 . S
C2425 C2421 1.495 . S
C2425 H2431 0.959 . S
C2425 H2432 0.961 . S
C2425 H2433 0.960 . S
C2426 C2424 1.381 . S
C2426 C2427 1.394 . S
C2426 H2434 0.930 . S
C2427 C2426 1.394 . S
C2427 C2428 1.383 . S
C2427 H2435 0.929 . S
C2428 C2427 1.383 . S
C2428 C2429 1.377 . S
C2429 H2413 0.930 . S
C2429 C2428 1.377 . S
C2429 C2430 1.379 . S
C2430 H2414 0.931 . S
C2430 C2424 1.383 . S
C2430 C2429 1.379 . S
H2431 C2425 0.959 . S
H2432 C2425 0.961 . S
H2433 C2425 0.960 . S
H2434 C2426 0.930 . S
H2435 C2427 0.929 . S
H2436 C2444 0.929 . S
H2437 C2446 0.930 . S
H2438 C2448 0.930 . S
H2439 C2451 0.929 . S
H2440 C2454 0.930 . S
H2441 C2456 0.960 . S
H2442 C2456 0.960 . S
H2443 C2456 0.960 1_554 S
C2444 H2436 0.929 . S
C2444 C2445 1.377 . S
C2444 C2446 1.384 . S
C2445 C2444 1.377 . S
C2445 C2451 1.390 1_556 S
C2446 H2437 0.930 . S
C2446 C2444 1.384 . S
C2446 C2447 1.372 . S
C2447 C2446 1.372 . S
C2447 C2448 1.400 1_556 S
C2447 C2452 1.490 . S
C2448 H2438 0.930 . S
C2448 C2447 1.400 1_554 S
C2448 C2451 1.386 . S
H2449 C2465 0.930 . S
H2450 C2466 0.931 . S
C2451 H2439 0.929 . S
C2451 C2445 1.390 1_554 S
C2451 C2448 1.386 . S
C2452 C2447 1.490 . S
C2452 C2454 1.395 . S
C2452 C2455 1.403 . S
H2453 C2459 0.930 . S
C2454 H2440 0.930 . S
C2454 C2452 1.395 . S
C2454 C2457 1.403 . S
C2455 C2452 1.403 . S
C2455 C2456 1.524 . S
C2455 C2459 1.400 . S
C2456 H2441 0.960 . S
C2456 H2442 0.960 . S
C2456 H2443 0.960 1_556 S
C2456 C2455 1.524 . S
C2457 C2454 1.403 . S
C2457 C2458 1.392 . S
C2457 C2461 1.495 . S
C2458 C2457 1.392 . S
C2458 C2459 1.385 . S
C2458 C2460 1.478 . S
C2459 H2453 0.930 . S
C2459 C2455 1.400 . S
C2459 C2458 1.385 . S
C2460 C2458 1.478 . S
C2460 C2462 1.381 . S
C2460 C2466 1.383 . S
C2461 C2457 1.495 . S
C2461 H2467 0.959 . S
C2461 H2468 0.961 . S
C2461 H2469 0.960 . S
C2462 C2460 1.381 . S
C2462 C2463 1.394 . S
C2462 H2470 0.930 . S
C2463 C2462 1.394 . S
C2463 C2464 1.383 . S
C2463 H2471 0.929 . S
C2464 C2463 1.383 . S
C2464 C2465 1.377 . S
C2465 H2449 0.930 . S
C2465 C2464 1.377 . S
C2465 C2466 1.379 . S
C2466 H2450 0.931 . S
C2466 C2460 1.383 . S
C2466 C2465 1.379 . S
H2467 C2461 0.959 . S
H2468 C2461 0.961 . S
H2469 C2461 0.960 . S
H2470 C2462 0.930 . S
H2471 C2463 0.929 . S
H2472 C2480 0.929 . S
H2473 C2482 0.930 . S
H2474 C2484 0.930 . S
H2475 C2487 0.929 . S
H2476 C2490 0.930 . S
H2477 C2492 0.960 . S
H2478 C2492 0.960 . S
H2479 C2492 0.960 . S
C2480 H2472 0.929 . S
C2480 C2481 1.377 . S
C2480 C2482 1.384 . S
C2481 C2480 1.377 . S
C2481 C2487 1.390 . S
C2482 H2473 0.930 . S
C2482 C2480 1.384 . S
C2482 C2483 1.372 . S
C2483 C2482 1.372 . S
C2483 C2484 1.400 . S
C2483 C2488 1.490 . S
C2484 H2474 0.930 . S
C2484 C2483 1.400 . S
C2484 C2487 1.386 . S
H2485 C2501 0.930 . S
H2486 C2502 0.931 . S
C2487 H2475 0.929 . S
C2487 C2481 1.390 . S
C2487 C2484 1.386 . S
C2488 C2483 1.490 . S
C2488 C2490 1.395 . S
C2488 C2491 1.403 . S
H2489 C2495 0.930 . S
C2490 H2476 0.930 . S
C2490 C2488 1.395 . S
C2490 C2493 1.403 . S
C2491 C2488 1.403 . S
C2491 C2492 1.524 . S
C2491 C2495 1.400 . S
C2492 H2477 0.960 . S
C2492 H2478 0.960 . S
C2492 H2479 0.960 . S
C2492 C2491 1.524 . S
C2493 C2490 1.403 . S
C2493 C2494 1.392 . S
C2493 C2497 1.495 . S
C2494 C2493 1.392 . S
C2494 C2495 1.385 . S
C2494 C2496 1.478 . S
C2495 H2489 0.930 . S
C2495 C2491 1.400 . S
C2495 C2494 1.385 . S
C2496 C2494 1.478 . S
C2496 C2498 1.381 . S
C2496 C2502 1.383 . S
C2497 C2493 1.495 . S
C2497 H2503 0.959 . S
C2497 H2504 0.961 . S
C2497 H2505 0.960 . S
C2498 C2496 1.381 . S
C2498 C2499 1.394 . S
C2498 H2506 0.930 . S
C2499 C2498 1.394 . S
C2499 C2500 1.383 . S
C2499 H2507 0.929 . S
C2500 C2499 1.383 . S
C2500 C2501 1.377 . S
C2501 H2485 0.930 . S
C2501 C2500 1.377 . S
C2501 C2502 1.379 . S
C2502 H2486 0.931 . S
C2502 C2496 1.383 . S
C2502 C2501 1.379 . S
H2503 C2497 0.959 . S
H2504 C2497 0.961 . S
H2505 C2497 0.960 . S
H2506 C2498 0.930 . S
H2507 C2499 0.929 . S
H2508 C2516 0.929 . S
H2509 C2518 0.930 . S
H2510 C2520 0.930 . S
H2511 C2523 0.929 . S
H2512 C2526 0.930 . S
H2513 C2528 0.960 . S
H2514 C2528 0.960 . S
H2515 C2528 0.960 . S
C2516 H2508 0.929 . S
C2516 C2517 1.377 . S
C2516 C2518 1.384 . S
C2517 C2516 1.377 . S
C2517 C2523 1.390 1_554 S
C2518 H2509 0.930 . S
C2518 C2516 1.384 . S
C2518 C2519 1.372 . S
C2519 C2518 1.372 . S
C2519 C2520 1.400 1_554 S
C2519 C2524 1.490 . S
C2520 H2510 0.930 . S
C2520 C2519 1.400 1_556 S
C2520 C2523 1.386 . S
H2521 C2537 0.930 1_556 S
H2522 C2538 0.931 1_556 S
C2523 H2511 0.929 . S
C2523 C2517 1.390 1_556 S
C2523 C2520 1.386 . S
C2524 C2519 1.490 . S
C2524 C2526 1.395 . S
C2524 C2527 1.403 . S
H2525 C2531 0.930 . S
C2526 H2512 0.930 . S
C2526 C2524 1.395 . S
C2526 C2529 1.403 . S
C2527 C2524 1.403 . S
C2527 C2528 1.524 . S
C2527 C2531 1.400 . S
C2528 H2513 0.960 . S
C2528 H2514 0.960 . S
C2528 H2515 0.960 . S
C2528 C2527 1.524 . S
C2529 C2526 1.403 . S
C2529 C2530 1.392 . S
C2529 C2533 1.495 . S
C2530 C2529 1.392 . S
C2530 C2531 1.385 . S
C2530 C2532 1.478 . S
C2531 H2525 0.930 . S
C2531 C2527 1.400 . S
C2531 C2530 1.385 . S
C2532 C2530 1.478 . S
C2532 C2534 1.381 . S
C2532 C2538 1.383 . S
C2533 C2529 1.495 . S
C2533 H2539 0.959 . S
C2533 H2540 0.961 1_554 S
C2533 H2541 0.960 . S
C2534 C2532 1.381 . S
C2534 C2535 1.394 . S
C2534 H2542 0.930 . S
C2535 C2534 1.394 . S
C2535 C2536 1.383 . S
C2535 H2543 0.929 . S
C2536 C2535 1.383 . S
C2536 C2537 1.377 . S
C2537 H2521 0.930 1_554 S
C2537 C2536 1.377 . S
C2537 C2538 1.379 . S
C2538 H2522 0.931 1_554 S
C2538 C2532 1.383 . S
C2538 C2537 1.379 . S
H2539 C2533 0.959 . S
H2540 C2533 0.961 1_556 S
H2541 C2533 0.960 . S
H2542 C2534 0.930 . S
H2543 C2535 0.929 . S
H2544 C2552 0.929 . S
H2545 C2554 0.930 . S
H2546 C2556 0.930 . S
H2547 C2559 0.929 . S
H2548 C2562 0.930 . S
H2549 C2564 0.960 . S
H2550 C2564 0.960 . S
H2551 C2564 0.960 . S
C2552 H2544 0.929 . S
C2552 C2553 1.377 . S
C2552 C2554 1.384 . S
C2553 C2552 1.377 . S
C2553 C2559 1.390 . S
C2554 H2545 0.930 . S
C2554 C2552 1.384 . S
C2554 C2555 1.372 . S
C2555 C2554 1.372 . S
C2555 C2556 1.400 . S
C2555 C2560 1.490 . S
C2556 H2546 0.930 . S
C2556 C2555 1.400 . S
C2556 C2559 1.386 . S
H2557 C2573 0.930 . S
H2558 C2574 0.931 . S
C2559 H2547 0.929 . S
C2559 C2553 1.390 . S
C2559 C2556 1.386 . S
C2560 C2555 1.490 . S
C2560 C2562 1.395 . S
C2560 C2563 1.403 . S
H2561 C2567 0.930 . S
C2562 H2548 0.930 . S
C2562 C2560 1.395 . S
C2562 C2565 1.403 . S
C2563 C2560 1.403 . S
C2563 C2564 1.524 . S
C2563 C2567 1.400 . S
C2564 H2549 0.960 . S
C2564 H2550 0.960 . S
C2564 H2551 0.960 . S
C2564 C2563 1.524 . S
C2565 C2562 1.403 . S
C2565 C2566 1.392 . S
C2565 C2569 1.495 . S
C2566 C2565 1.392 . S
C2566 C2567 1.385 . S
C2566 C2568 1.478 . S
C2567 H2561 0.930 . S
C2567 C2563 1.400 . S
C2567 C2566 1.385 . S
C2568 C2566 1.478 . S
C2568 C2570 1.381 . S
C2568 C2574 1.383 . S
C2569 C2565 1.495 . S
C2569 H2575 0.959 . S
C2569 H2576 0.961 . S
C2569 H2577 0.960 . S
C2570 C2568 1.381 . S
C2570 C2571 1.394 . S
C2570 H2578 0.930 . S
C2571 C2570 1.394 . S
C2571 C2572 1.383 . S
C2571 H2579 0.929 . S
C2572 C2571 1.383 . S
C2572 C2573 1.377 . S
C2573 H2557 0.930 . S
C2573 C2572 1.377 . S
C2573 C2574 1.379 . S
C2574 H2558 0.931 . S
C2574 C2568 1.383 . S
C2574 C2573 1.379 . S
H2575 C2569 0.959 . S
H2576 C2569 0.961 . S
H2577 C2569 0.960 . S
H2578 C2570 0.930 . S
H2579 C2571 0.929 . S
H2580 C2588 0.929 . S
H2581 C2590 0.930 . S
H2582 C2592 0.908 1_455 S
H2583 C2595 0.929 . S
H2584 C2598 0.930 . S
H2585 C2600 0.960 . S
H2586 C2600 0.960 . S
H2587 C2600 0.960 . S
C2588 H2580 0.929 . S
C2588 C2589 1.377 . S
C2588 C2590 1.384 . S
C2589 C2588 1.377 . S
C2589 C2595 1.390 1_655 S
C2590 H2581 0.930 . S
C2590 C2588 1.384 . S
C2590 C2591 1.372 . S
C2591 C2590 1.372 . S
C2591 C2592 1.431 . S
C2591 C2596 1.490 . S
C2592 H2582 0.908 1_655 S
C2592 C2591 1.431 . S
C2592 C2595 1.379 1_655 S
H2593 C2609 0.930 . S
H2594 C2610 0.931 . S
C2595 H2583 0.929 . S
C2595 C2589 1.390 1_455 S
C2595 C2592 1.379 1_455 S
C2596 C2591 1.490 . S
C2596 C2598 1.395 . S
C2596 C2599 1.403 . S
H2597 C2603 0.930 . S
C2598 H2584 0.930 . S
C2598 C2596 1.395 . S
C2598 C2601 1.403 . S
C2599 C2596 1.403 . S
C2599 C2600 1.524 1_655 S
C2599 C2603 1.400 . S
C2600 H2585 0.960 . S
C2600 H2586 0.960 . S
C2600 H2587 0.960 . S
C2600 C2599 1.524 1_455 S
C2601 C2598 1.403 . S
C2601 C2602 1.392 . S
C2601 C2605 1.495 . S
C2602 C2601 1.392 . S
C2602 C2603 1.385 . S
C2602 C2604 1.478 . S
C2603 H2597 0.930 . S
C2603 C2599 1.400 . S
C2603 C2602 1.385 . S
C2604 C2602 1.478 . S
C2604 C2606 1.381 . S
C2604 C2610 1.383 . S
C2605 C2601 1.495 . S
C2605 H2611 0.959 . S
C2605 H2612 0.961 . S
C2605 H2613 0.960 . S
C2606 C2604 1.381 . S
C2606 C2607 1.394 . S
C2606 H2614 0.930 . S
C2607 C2606 1.394 . S
C2607 C2608 1.383 . S
C2607 H2615 0.929 . S
C2608 C2607 1.383 . S
C2608 C2609 1.377 . S
C2609 H2593 0.930 . S
C2609 C2608 1.377 . S
C2609 C2610 1.379 . S
C2610 H2594 0.931 . S
C2610 C2604 1.383 . S
C2610 C2609 1.379 . S
H2611 C2605 0.959 . S
H2612 C2605 0.961 . S
H2613 C2605 0.960 . S
H2614 C2606 0.930 . S
H2615 C2607 0.929 . S
H2616 C2624 0.929 . S
H2617 C2626 0.930 . S
H2618 C2628 0.930 . S
H2619 C2631 0.929 . S
H2620 C2634 0.930 . S
H2621 C2636 0.960 . S
H2622 C2636 0.960 . S
H2623 C2636 0.960 . S
C2624 H2616 0.929 . S
C2624 C2625 1.377 . S
C2624 C2626 1.384 . S
C2625 C2624 1.377 . S
C2625 C2631 1.390 . S
C2626 H2617 0.930 . S
C2626 C2624 1.384 . S
C2626 C2627 1.372 . S
C2627 C2626 1.372 . S
C2627 C2628 1.400 . S
C2627 C2632 1.490 . S
C2628 H2618 0.930 . S
C2628 C2627 1.400 . S
C2628 C2631 1.386 . S
H2629 C2645 0.930 . S
H2630 C2646 0.931 . S
C2631 H2619 0.929 . S
C2631 C2625 1.390 . S
C2631 C2628 1.386 . S
C2632 C2627 1.490 . S
C2632 C2634 1.395 . S
C2632 C2635 1.403 . S
H2633 C2639 0.930 . S
C2634 H2620 0.930 . S
C2634 C2632 1.395 . S
C2634 C2637 1.403 . S
C2635 C2632 1.403 . S
C2635 C2636 1.524 . S
C2635 C2639 1.400 . S
C2636 H2621 0.960 . S
C2636 H2622 0.960 . S
C2636 H2623 0.960 . S
C2636 C2635 1.524 . S
C2637 C2634 1.403 . S
C2637 C2638 1.392 . S
C2637 C2641 1.495 . S
C2638 C2637 1.392 . S
C2638 C2639 1.385 . S
C2638 C2640 1.478 . S
C2639 H2633 0.930 . S
C2639 C2635 1.400 . S
C2639 C2638 1.385 . S
C2640 C2638 1.478 . S
C2640 C2642 1.381 . S
C2640 C2646 1.383 . S
C2641 C2637 1.495 . S
C2641 H2647 0.959 . S
C2641 H2648 0.961 . S
C2641 H2649 0.960 . S
C2642 C2640 1.381 . S
C2642 C2643 1.394 . S
C2642 H2650 0.930 . S
C2643 C2642 1.394 . S
C2643 C2644 1.383 . S
C2643 H2651 0.929 . S
C2644 C2643 1.383 . S
C2644 C2645 1.377 . S
C2645 H2629 0.930 . S
C2645 C2644 1.377 . S
C2645 C2646 1.379 . S
C2646 H2630 0.931 . S
C2646 C2640 1.383 . S
C2646 C2645 1.379 . S
H2647 C2641 0.959 . S
H2648 C2641 0.961 . S
H2649 C2641 0.960 . S
H2650 C2642 0.930 . S
H2651 C2643 0.929 . S
H2652 C2660 0.929 . S
H2653 C2662 0.930 . S
H2654 C2664 0.930 . S
H2655 C2667 0.919 1_655 S
H2656 C2670 0.930 . S
H2657 C2672 0.960 . S
H2658 C2672 0.960 . S
H2659 C2672 0.960 . S
C2660 H2652 0.929 . S
C2660 C2661 1.377 . S
C2660 C2662 1.384 . S
C2661 C2660 1.377 . S
C2661 C2667 1.403 . S
C2662 H2653 0.930 . S
C2662 C2660 1.384 . S
C2662 C2663 1.372 . S
C2663 C2662 1.372 . S
C2663 C2664 1.400 . S
C2663 C2668 1.490 . S
C2664 H2654 0.930 . S
C2664 C2663 1.400 . S
C2664 C2667 1.388 . S
H2665 C2681 0.930 . S
H2666 C2682 0.931 . S
C2667 H2655 0.919 1_455 S
C2667 C2661 1.403 . S
C2667 C2664 1.388 . S
C2668 C2663 1.490 . S
C2668 C2670 1.395 . S
C2668 C2671 1.403 1_455 S
H2669 C2675 0.934 . S
C2670 H2656 0.930 . S
C2670 C2668 1.395 . S
C2670 C2673 1.403 . S
C2671 C2668 1.403 1_655 S
C2671 C2672 1.524 . S
C2671 C2675 1.400 . S
C2672 H2657 0.960 . S
C2672 H2658 0.960 . S
C2672 H2659 0.960 . S
C2672 C2671 1.524 . S
C2673 C2670 1.403 . S
C2673 C2674 1.392 . S
C2673 C2677 1.495 . S
C2674 C2673 1.392 . S
C2674 C2675 1.382 1_455 S
C2674 C2676 1.478 . S
C2675 H2669 0.934 . S
C2675 C2671 1.400 . S
C2675 C2674 1.382 1_655 S
C2676 C2674 1.478 . S
C2676 C2678 1.381 . S
C2676 C2682 1.383 . S
C2677 C2673 1.495 . S
C2677 H2683 0.959 . S
C2677 H2684 0.961 . S
C2677 H2685 0.960 . S
C2678 C2676 1.381 . S
C2678 C2679 1.394 . S
C2678 H2686 0.930 . S
C2679 C2678 1.394 . S
C2679 C2680 1.383 . S
C2679 H2687 0.929 . S
C2680 C2679 1.383 . S
C2680 C2681 1.377 . S
C2681 H2665 0.930 . S
C2681 C2680 1.377 . S
C2681 C2682 1.379 . S
C2682 H2666 0.931 . S
C2682 C2676 1.383 . S
C2682 C2681 1.379 . S
H2683 C2677 0.959 . S
H2684 C2677 0.961 . S
H2685 C2677 0.960 . S
H2686 C2678 0.930 . S
H2687 C2679 0.929 . S
H2688 C2696 0.929 . S
H2689 C2698 0.930 . S
H2690 C2700 0.930 . S
H2691 C2703 0.929 . S
H2692 C2706 0.930 . S
H2693 C2708 0.960 . S
H2694 C2708 0.960 . S
H2695 C2708 0.960 . S
C2696 H2688 0.929 . S
C2696 C2697 1.377 . S
C2696 C2698 1.384 . S
C2697 C2696 1.377 . S
C2697 C2703 1.390 . S
C2698 H2689 0.930 . S
C2698 C2696 1.384 . S
C2698 C2699 1.372 . S
C2699 C2698 1.372 . S
C2699 C2700 1.400 . S
C2699 C2704 1.490 . S
C2700 H2690 0.930 . S
C2700 C2699 1.400 . S
C2700 C2703 1.386 . S
H2701 C2717 0.930 . S
H2702 C2718 0.931 . S
C2703 H2691 0.929 . S
C2703 C2697 1.390 . S
C2703 C2700 1.386 . S
C2704 C2699 1.490 . S
C2704 C2706 1.395 . S
C2704 C2707 1.403 . S
H2705 C2711 0.930 . S
C2706 H2692 0.930 . S
C2706 C2704 1.395 . S
C2706 C2709 1.403 . S
C2707 C2704 1.403 . S
C2707 C2708 1.524 . S
C2707 C2711 1.400 . S
C2708 H2693 0.960 . S
C2708 H2694 0.960 . S
C2708 H2695 0.960 . S
C2708 C2707 1.524 . S
C2709 C2706 1.403 . S
C2709 C2710 1.392 . S
C2709 C2713 1.495 . S
C2710 C2709 1.392 . S
C2710 C2711 1.385 . S
C2710 C2712 1.478 . S
C2711 H2705 0.930 . S
C2711 C2707 1.400 . S
C2711 C2710 1.385 . S
C2712 C2710 1.478 . S
C2712 C2714 1.381 . S
C2712 C2718 1.383 . S
C2713 C2709 1.495 . S
C2713 H2719 0.959 . S
C2713 H2720 0.961 . S
C2713 H2721 0.960 . S
C2714 C2712 1.381 . S
C2714 C2715 1.394 . S
C2714 H2722 0.930 . S
C2715 C2714 1.394 . S
C2715 C2716 1.383 . S
C2715 H2723 0.929 . S
C2716 C2715 1.383 . S
C2716 C2717 1.377 . S
C2717 H2701 0.930 . S
C2717 C2716 1.377 . S
C2717 C2718 1.379 . S
C2718 H2702 0.931 . S
C2718 C2712 1.383 . S
C2718 C2717 1.379 . S
H2719 C2713 0.959 . S
H2720 C2713 0.961 . S
H2721 C2713 0.960 . S
H2722 C2714 0.930 . S
H2723 C2715 0.929 . S
H2724 C2732 0.929 . S
H2725 C2734 0.930 . S
H2726 C2736 0.930 . S
H2727 C2739 0.929 . S
H2728 C2742 0.930 . S
H2729 C2744 0.960 . S
H2730 C2744 0.960 . S
H2731 C2744 0.960 . S
C2732 H2724 0.929 . S
C2732 C2733 1.377 . S
C2732 C2734 1.384 . S
C2733 C2732 1.377 . S
C2733 C2739 1.390 . S
C2734 H2725 0.930 . S
C2734 C2732 1.384 . S
C2734 C2735 1.372 . S
C2735 C2734 1.372 . S
C2735 C2736 1.400 . S
C2735 C2740 1.490 . S
C2736 H2726 0.930 . S
C2736 C2735 1.400 . S
C2736 C2739 1.386 . S
H2737 C2753 0.930 . S
H2738 C2754 0.931 . S
C2739 H2727 0.929 . S
C2739 C2733 1.390 . S
C2739 C2736 1.386 . S
C2740 C2735 1.490 . S
C2740 C2742 1.395 . S
C2740 C2743 1.403 . S
H2741 C2747 0.930 . S
C2742 H2728 0.930 . S
C2742 C2740 1.395 . S
C2742 C2745 1.403 . S
C2743 C2740 1.403 . S
C2743 C2744 1.524 . S
C2743 C2747 1.400 . S
C2744 H2729 0.960 . S
C2744 H2730 0.960 . S
C2744 H2731 0.960 . S
C2744 C2743 1.524 . S
C2745 C2742 1.403 . S
C2745 C2746 1.392 . S
C2745 C2749 1.495 . S
C2746 C2745 1.392 . S
C2746 C2747 1.385 . S
C2746 C2748 1.478 . S
C2747 H2741 0.930 . S
C2747 C2743 1.400 . S
C2747 C2746 1.385 . S
C2748 C2746 1.478 . S
C2748 C2750 1.381 . S
C2748 C2754 1.383 . S
C2749 C2745 1.495 . S
C2749 H2755 0.959 . S
C2749 H2756 0.961 . S
C2749 H2757 0.960 . S
C2750 C2748 1.381 . S
C2750 C2751 1.394 . S
C2750 H2758 0.930 . S
C2751 C2750 1.394 . S
C2751 C2752 1.383 . S
C2751 H2759 0.929 . S
C2752 C2751 1.383 . S
C2752 C2753 1.377 . S
C2753 H2737 0.930 . S
C2753 C2752 1.377 . S
C2753 C2754 1.379 . S
C2754 H2738 0.931 . S
C2754 C2748 1.383 . S
C2754 C2753 1.379 . S
H2755 C2749 0.959 . S
H2756 C2749 0.961 . S
H2757 C2749 0.960 . S
H2758 C2750 0.930 . S
H2759 C2751 0.929 . S
H2760 C2768 0.929 . S
H2761 C2770 0.930 . S
H2762 C2772 0.930 . S
H2763 C2775 0.929 . S
H2764 C2778 0.930 1_545 S
H2765 C2780 0.960 . S
H2766 C2780 0.960 . S
H2767 C2780 0.960 . S
C2768 H2760 0.929 . S
C2768 C2769 1.377 1_545 S
C2768 C2770 1.384 . S
C2769 C2768 1.377 1_565 S
C2769 C2775 1.390 . S
C2770 H2761 0.930 . S
C2770 C2768 1.384 . S
C2770 C2771 1.372 1_545 S
C2771 C2770 1.372 1_565 S
C2771 C2772 1.400 . S
C2771 C2776 1.490 . S
C2772 H2762 0.930 . S
C2772 C2771 1.400 . S
C2772 C2775 1.386 . S
H2773 C2789 0.930 . S
H2774 C2790 0.931 . S
C2775 H2763 0.929 . S
C2775 C2769 1.390 . S
C2775 C2772 1.386 . S
C2776 C2771 1.490 . S
C2776 C2778 1.395 . S
C2776 C2779 1.403 . S
H2777 C2783 0.930 . S
C2778 H2764 0.930 1_565 S
C2778 C2776 1.395 . S
C2778 C2781 1.403 . S
C2779 C2776 1.403 . S
C2779 C2780 1.524 . S
C2779 C2783 1.400 . S
C2780 H2765 0.960 . S
C2780 H2766 0.960 . S
C2780 H2767 0.960 . S
C2780 C2779 1.524 . S
C2781 C2778 1.403 . S
C2781 C2782 1.392 . S
C2781 C2785 1.495 1_565 S
C2782 C2781 1.392 . S
C2782 C2783 1.385 . S
C2782 C2784 1.478 . S
C2783 H2777 0.930 . S
C2783 C2779 1.400 . S
C2783 C2782 1.385 . S
C2784 C2782 1.478 . S
C2784 C2786 1.335 1_565 S
C2784 C2790 1.383 . S
C2785 C2781 1.495 1_545 S
C2785 H2791 0.959 . S
C2785 H2792 0.961 1_545 S
C2785 H2793 0.960 . S
C2786 C2784 1.335 1_545 S
C2786 C2787 1.393 1_545 S
C2786 H2794 0.980 . S
C2787 C2786 1.393 1_565 S
C2787 C2788 1.383 . S
C2787 H2795 0.929 1_565 S
C2788 C2787 1.383 . S
C2788 C2789 1.377 . S
C2789 H2773 0.930 . S
C2789 C2788 1.377 . S
C2789 C2790 1.379 . S
C2790 H2774 0.931 . S
C2790 C2784 1.383 . S
C2790 C2789 1.379 . S
H2791 C2785 0.959 . S
H2792 C2785 0.961 1_565 S
H2793 C2785 0.960 . S
H2794 C2786 0.980 . S
H2795 C2787 0.929 1_545 S
H2796 C2804 0.929 1_565 S
H2797 C2806 0.930 . S
H2798 C2808 0.930 . S
H2799 C2811 0.929 . S
H2800 C2814 0.930 1_565 S
H2801 C2816 0.960 . S
H2802 C2816 0.960 . S
H2803 C2816 0.960 . S
C2804 H2796 0.929 1_545 S
C2804 C2805 1.377 . S
C2804 C2806 1.384 . S
C2805 C2804 1.377 . S
C2805 C2811 1.390 . S
C2806 H2797 0.930 . S
C2806 C2804 1.384 . S
C2806 C2807 1.372 . S
C2807 C2806 1.372 . S
C2807 C2808 1.400 . S
C2807 C2812 1.490 . S
C2808 H2798 0.930 . S
C2808 C2807 1.400 . S
C2808 C2811 1.386 . S
H2809 C2825 0.930 . S
H2810 C2826 0.931 . S
C2811 H2799 0.929 . S
C2811 C2805 1.390 . S
C2811 C2808 1.386 . S
C2812 C2807 1.490 . S
C2812 C2814 1.395 . S
C2812 C2815 1.403 . S
H2813 C2819 0.930 . S
C2814 H2800 0.930 1_545 S
C2814 C2812 1.395 . S
C2814 C2817 1.403 . S
C2815 C2812 1.403 . S
C2815 C2816 1.524 . S
C2815 C2819 1.400 . S
C2816 H2801 0.960 . S
C2816 H2802 0.960 . S
C2816 H2803 0.960 . S
C2816 C2815 1.524 . S
C2817 C2814 1.403 . S
C2817 C2818 1.392 . S
C2817 C2821 1.495 1_545 S
C2818 C2817 1.392 . S
C2818 C2819 1.385 . S
C2818 C2820 1.478 . S
C2819 H2813 0.930 . S
C2819 C2815 1.400 . S
C2819 C2818 1.385 . S
C2820 C2818 1.478 . S
C2820 C2822 1.381 . S
C2820 C2826 1.383 . S
C2821 C2817 1.495 1_565 S
C2821 H2827 0.959 . S
C2821 H2828 0.961 . S
C2821 H2829 0.960 . S
C2822 C2820 1.381 . S
C2822 C2823 1.394 . S
C2822 H2830 0.930 . S
C2823 C2822 1.394 . S
C2823 C2824 1.383 . S
C2823 H2831 0.929 . S
C2824 C2823 1.383 . S
C2824 C2825 1.377 . S
C2825 H2809 0.930 . S
C2825 C2824 1.377 . S
C2825 C2826 1.379 . S
C2826 H2810 0.931 . S
C2826 C2820 1.383 . S
C2826 C2825 1.379 . S
H2827 C2821 0.959 . S
H2828 C2821 0.961 . S
H2829 C2821 0.960 . S
H2830 C2822 0.930 . S
H2831 C2823 0.929 . S
H2832 C2840 0.929 . S
H2833 C2842 0.930 . S
H2834 C2844 0.930 . S
H2835 C2847 0.929 . S
H2836 C2850 0.930 . S
H2837 C2852 0.960 . S
H2838 C2852 0.960 . S
H2839 C2852 0.960 . S
C2840 H2832 0.929 . S
C2840 C2841 1.377 . S
C2840 C2842 1.384 . S
C2841 C2840 1.377 . S
C2841 C2847 1.390 . S
C2842 H2833 0.930 . S
C2842 C2840 1.384 . S
C2842 C2843 1.372 . S
C2843 C2842 1.372 . S
C2843 C2844 1.400 . S
C2843 C2848 1.490 . S
C2844 H2834 0.930 . S
C2844 C2843 1.400 . S
C2844 C2847 1.386 . S
H2845 C2861 0.930 . S
H2846 C2862 0.931 . S
C2847 H2835 0.929 . S
C2847 C2841 1.390 . S
C2847 C2844 1.386 . S
C2848 C2843 1.490 . S
C2848 C2850 1.395 . S
C2848 C2851 1.403 . S
H2849 C2855 0.930 . S
C2850 H2836 0.930 . S
C2850 C2848 1.395 . S
C2850 C2853 1.403 . S
C2851 C2848 1.403 . S
C2851 C2852 1.524 . S
C2851 C2855 1.400 . S
C2852 H2837 0.960 . S
C2852 H2838 0.960 . S
C2852 H2839 0.960 . S
C2852 C2851 1.524 . S
C2853 C2850 1.403 . S
C2853 C2854 1.392 . S
C2853 C2857 1.495 . S
C2854 C2853 1.392 . S
C2854 C2855 1.385 . S
C2854 C2856 1.478 . S
C2855 H2849 0.930 . S
C2855 C2851 1.400 . S
C2855 C2854 1.385 . S
C2856 C2854 1.478 . S
C2856 C2858 1.381 . S
C2856 C2862 1.383 . S
C2857 C2853 1.495 . S
C2857 H2863 0.959 . S
C2857 H2864 0.961 . S
C2857 H2865 0.960 . S
C2858 C2856 1.381 . S
C2858 C2859 1.394 . S
C2858 H2866 0.930 . S
C2859 C2858 1.394 . S
C2859 C2860 1.383 . S
C2859 H2867 0.929 . S
C2860 C2859 1.383 . S
C2860 C2861 1.377 . S
C2861 H2845 0.930 . S
C2861 C2860 1.377 . S
C2861 C2862 1.379 . S
C2862 H2846 0.931 . S
C2862 C2856 1.383 . S
C2862 C2861 1.379 . S
H2863 C2857 0.959 . S
H2864 C2857 0.961 . S
H2865 C2857 0.960 . S
H2866 C2858 0.930 . S
H2867 C2859 0.929 . S
H2868 C2876 0.946 . S
H2869 C2878 0.932 . S
H2870 C2880 0.930 . S
H2871 C2883 0.929 . S
H2872 C2886 0.930 . S
H2873 C2888 0.960 . S
H2874 C2888 0.960 . S
H2875 C2888 0.947 1_554 S
C2876 H2868 0.946 . S
C2876 C2877 1.368 1_556 S
C2876 C2878 1.379 1_556 S
C2877 C2876 1.368 1_554 S
C2877 C2883 1.390 . S
C2878 H2869 0.932 . S
C2878 C2876 1.379 1_554 S
C2878 C2879 1.372 . S
C2879 C2878 1.372 . S
C2879 C2880 1.400 . S
C2879 C2884 1.490 . S
C2880 H2870 0.930 . S
C2880 C2879 1.400 . S
C2880 C2883 1.386 . S
H2881 C2897 0.930 . S
H2882 C2898 0.931 . S
C2883 H2871 0.929 . S
C2883 C2877 1.390 . S
C2883 C2880 1.386 . S
C2884 C2879 1.490 . S
C2884 C2886 1.395 . S
C2884 C2887 1.403 . S
H2885 C2891 0.930 . S
C2886 H2872 0.930 . S
C2886 C2884 1.395 . S
C2886 C2889 1.403 . S
C2887 C2884 1.403 . S
C2887 C2888 1.524 1_554 S
C2887 C2891 1.400 . S
C2888 H2873 0.960 . S
C2888 H2874 0.960 . S
C2888 H2875 0.947 1_556 S
C2888 C2887 1.524 1_556 S
C2889 C2886 1.403 . S
C2889 C2890 1.392 . S
C2889 C2893 1.495 . S
C2890 C2889 1.392 . S
C2890 C2891 1.385 . S
C2890 C2892 1.478 . S
C2891 H2885 0.930 . S
C2891 C2887 1.400 . S
C2891 C2890 1.385 . S
C2892 C2890 1.478 . S
C2892 C2894 1.381 . S
C2892 C2898 1.383 . S
C2893 C2889 1.495 . S
C2893 H2899 0.959 . S
C2893 H2900 0.961 . S
C2893 H2901 0.960 . S
C2894 C2892 1.381 . S
C2894 C2895 1.394 . S
C2894 H2902 0.930 . S
C2895 C2894 1.394 . S
C2895 C2896 1.383 . S
C2895 H2903 0.929 . S
C2896 C2895 1.383 . S
C2896 C2897 1.377 . S
C2897 H2881 0.930 . S
C2897 C2896 1.377 . S
C2897 C2898 1.379 . S
C2898 H2882 0.931 . S
C2898 C2892 1.383 . S
C2898 C2897 1.379 . S
H2899 C2893 0.959 . S
H2900 C2893 0.961 . S
H2901 C2893 0.960 . S
H2902 C2894 0.930 . S
H2903 C2895 0.929 . S
H2904 C2912 0.929 . S
H2905 C2914 0.930 . S
H2906 C2916 0.930 . S
H2907 C2919 0.929 . S
H2908 C2922 0.930 . S
H2909 C2924 0.960 . S
H2910 C2924 0.960 . S
H2911 C2924 0.960 . S
C2912 H2904 0.929 . S
C2912 C2913 1.377 . S
C2912 C2914 1.384 . S
C2913 C2912 1.377 . S
C2913 C2919 1.390 . S
C2914 H2905 0.930 . S
C2914 C2912 1.384 . S
C2914 C2915 1.372 . S
C2915 C2914 1.372 . S
C2915 C2916 1.400 . S
C2915 C2920 1.490 . S
C2916 H2906 0.930 . S
C2916 C2915 1.400 . S
C2916 C2919 1.386 . S
H2917 C2933 0.930 . S
H2918 C2934 0.931 . S
C2919 H2907 0.929 . S
C2919 C2913 1.390 . S
C2919 C2916 1.386 . S
C2920 C2915 1.490 . S
C2920 C2922 1.395 . S
C2920 C2923 1.403 . S
H2921 C2927 0.930 . S
C2922 H2908 0.930 . S
C2922 C2920 1.395 . S
C2922 C2925 1.403 . S
C2923 C2920 1.403 . S
C2923 C2924 1.524 . S
C2923 C2927 1.400 . S
C2924 H2909 0.960 . S
C2924 H2910 0.960 . S
C2924 H2911 0.960 . S
C2924 C2923 1.524 . S
C2925 C2922 1.403 . S
C2925 C2926 1.392 . S
C2925 C2929 1.495 . S
C2926 C2925 1.392 . S
C2926 C2927 1.385 . S
C2926 C2928 1.478 . S
C2927 H2921 0.930 . S
C2927 C2923 1.400 . S
C2927 C2926 1.385 . S
C2928 C2926 1.478 . S
C2928 C2930 1.381 . S
C2928 C2934 1.383 . S
C2929 C2925 1.495 . S
C2929 H2935 0.959 . S
C2929 H2936 0.961 . S
C2929 H2937 0.960 . S
C2930 C2928 1.381 . S
C2930 C2931 1.394 . S
C2930 H2938 0.930 . S
C2931 C2930 1.394 . S
C2931 C2932 1.383 . S
C2931 H2939 0.929 . S
C2932 C2931 1.383 . S
C2932 C2933 1.377 . S
C2933 H2917 0.930 . S
C2933 C2932 1.377 . S
C2933 C2934 1.379 . S
C2934 H2918 0.931 . S
C2934 C2928 1.383 . S
C2934 C2933 1.379 . S
H2935 C2929 0.959 . S
H2936 C2929 0.961 . S
H2937 C2929 0.960 . S
H2938 C2930 0.930 . S
H2939 C2931 0.929 . S
H2940 C2948 0.929 . S
H2941 C2950 0.930 . S
H2942 C2952 0.930 . S
H2943 C2955 0.929 . S
H2944 C2958 0.930 . S
H2945 C2960 0.960 . S
H2946 C2960 0.960 1_556 S
H2947 C2960 0.960 . S
C2948 H2940 0.929 . S
C2948 C2949 1.377 . S
C2948 C2950 1.384 . S
C2949 C2948 1.377 . S
C2949 C2955 1.390 1_556 S
C2950 H2941 0.930 . S
C2950 C2948 1.384 . S
C2950 C2951 1.372 . S
C2951 C2950 1.372 . S
C2951 C2952 1.400 1_556 S
C2951 C2956 1.490 . S
C2952 H2942 0.930 . S
C2952 C2951 1.400 1_554 S
C2952 C2955 1.386 . S
H2953 C2969 0.930 1_554 S
H2954 C2970 0.931 1_554 S
C2955 H2943 0.929 . S
C2955 C2949 1.390 1_554 S
C2955 C2952 1.386 . S
C2956 C2951 1.490 . S
C2956 C2958 1.395 . S
C2956 C2959 1.403 . S
H2957 C2963 0.930 . S
C2958 H2944 0.930 . S
C2958 C2956 1.395 . S
C2958 C2961 1.403 . S
C2959 C2956 1.403 . S
C2959 C2960 1.524 1_556 S
C2959 C2963 1.400 . S
C2960 H2945 0.960 . S
C2960 H2946 0.960 1_554 S
C2960 H2947 0.960 . S
C2960 C2959 1.524 1_554 S
C2961 C2958 1.403 . S
C2961 C2962 1.392 . S
C2961 C2965 1.495 . S
C2962 C2961 1.392 . S
C2962 C2963 1.385 . S
C2962 C2964 1.478 . S
C2963 H2957 0.930 . S
C2963 C2959 1.400 . S
C2963 C2962 1.385 . S
C2964 C2962 1.478 . S
C2964 C2966 1.381 . S
C2964 C2970 1.383 . S
C2965 C2961 1.495 . S
C2965 H2971 0.959 . S
C2965 H2972 0.961 . S
C2965 H2973 0.960 . S
C2966 C2964 1.381 . S
C2966 C2967 1.394 . S
C2966 H2974 0.930 . S
C2967 C2966 1.394 . S
C2967 C2968 1.383 . S
C2967 H2975 0.929 . S
C2968 C2967 1.383 . S
C2968 C2969 1.377 . S
C2969 H2953 0.930 1_556 S
C2969 C2968 1.377 . S
C2969 C2970 1.379 . S
C2970 H2954 0.931 1_556 S
C2970 C2964 1.383 . S
C2970 C2969 1.379 . S
H2971 C2965 0.959 . S
H2972 C2965 0.961 . S
H2973 C2965 0.960 . S
H2974 C2966 0.930 . S
H2975 C2967 0.929 . S
H2976 C2984 0.929 . S
H2977 C2986 0.930 . S
H2978 C2988 0.930 . S
H2979 C2991 0.929 . S
H2980 C2994 0.930 . S
H2981 C2996 0.960 . S
H2982 C2996 0.960 . S
H2983 C2996 0.960 . S
C2984 H2976 0.929 . S
C2984 C2985 1.377 . S
C2984 C2986 1.384 . S
C2985 C2984 1.377 . S
C2985 C2991 1.390 . S
C2986 H2977 0.930 . S
C2986 C2984 1.384 . S
C2986 C2987 1.372 . S
C2987 C2986 1.372 . S
C2987 C2988 1.400 . S
C2987 C2992 1.490 . S
C2988 H2978 0.930 . S
C2988 C2987 1.400 . S
C2988 C2991 1.386 . S
H2989 C3005 0.930 . S
H2990 C3006 0.931 . S
C2991 H2979 0.929 . S
C2991 C2985 1.390 . S
C2991 C2988 1.386 . S
C2992 C2987 1.490 . S
C2992 C2994 1.395 . S
C2992 C2995 1.403 . S
H2993 C2999 0.930 . S
C2994 H2980 0.930 . S
C2994 C2992 1.395 . S
C2994 C2997 1.403 . S
C2995 C2992 1.403 . S
C2995 C2996 1.524 . S
C2995 C2999 1.400 . S
C2996 H2981 0.960 . S
C2996 H2982 0.960 . S
C2996 H2983 0.960 . S
C2996 C2995 1.524 . S
C2997 C2994 1.403 . S
C2997 C2998 1.392 . S
C2997 C3001 1.495 . S
C2998 C2997 1.392 . S
C2998 C2999 1.385 . S
C2998 C3000 1.478 . S
C2999 H2993 0.930 . S
C2999 C2995 1.400 . S
C2999 C2998 1.385 . S
C3000 C2998 1.478 . S
C3000 C3002 1.381 . S
C3000 C3006 1.383 . S
C3001 C2997 1.495 . S
C3001 H3007 0.959 . S
C3001 H3008 0.961 . S
C3001 H3009 0.960 . S
C3002 C3000 1.381 . S
C3002 C3003 1.394 . S
C3002 H3010 0.930 . S
C3003 C3002 1.394 . S
C3003 C3004 1.383 . S
C3003 H3011 0.929 . S
C3004 C3003 1.383 . S
C3004 C3005 1.377 . S
C3005 H2989 0.930 . S
C3005 C3004 1.377 . S
C3005 C3006 1.379 . S
C3006 H2990 0.931 . S
C3006 C3000 1.383 . S
C3006 C3005 1.379 . S
H3007 C3001 0.959 . S
H3008 C3001 0.961 . S
H3009 C3001 0.960 . S
H3010 C3002 0.930 . S
H3011 C3003 0.929 . S
H3012 C3020 0.929 . S
H3013 C3022 0.930 . S
H3014 C3024 0.930 . S
H3015 C3027 0.929 . S
H3016 C3030 0.930 . S
H3017 C3032 0.959 . S
H3018 C3032 0.962 1_455 S
H3019 C3032 0.958 . S
C3020 H3012 0.929 . S
C3020 C3021 1.377 . S
C3020 C3022 1.384 . S
C3021 C3020 1.377 . S
C3021 C3027 1.390 1_455 S
C3022 H3013 0.930 . S
C3022 C3020 1.384 . S
C3022 C3023 1.372 . S
C3023 C3022 1.372 . S
C3023 C3024 1.400 1_455 S
C3023 C3028 1.490 . S
C3024 H3014 0.930 . S
C3024 C3023 1.400 1_655 S
C3024 C3027 1.386 . S
H3025 C3041 0.930 . S
H3026 C3042 0.931 . S
C3027 H3015 0.929 . S
C3027 C3021 1.390 1_655 S
C3027 C3024 1.386 . S
C3028 C3023 1.490 . S
C3028 C3030 1.395 . S
C3028 C3031 1.403 . S
H3029 C3035 0.930 . S
C3030 H3016 0.930 . S
C3030 C3028 1.395 . S
C3030 C3033 1.403 . S
C3031 C3028 1.403 . S
C3031 C3032 1.525 1_455 S
C3031 C3035 1.400 . S
C3032 H3017 0.959 . S
C3032 H3018 0.962 1_655 S
C3032 H3019 0.958 . S
C3032 C3031 1.525 1_655 S
C3033 C3030 1.403 . S
C3033 C3034 1.392 . S
C3033 C3037 1.495 . S
C3034 C3033 1.392 . S
C3034 C3035 1.385 . S
C3034 C3036 1.478 . S
C3035 H3029 0.930 . S
C3035 C3031 1.400 . S
C3035 C3034 1.385 . S
C3036 C3034 1.478 . S
C3036 C3038 1.381 . S
C3036 C3042 1.383 . S
C3037 C3033 1.495 . S
C3037 H3043 0.959 . S
C3037 H3044 0.961 . S
C3037 H3045 0.960 . S
C3038 C3036 1.381 . S
C3038 C3039 1.394 . S
C3038 H3046 0.930 . S
C3039 C3038 1.394 . S
C3039 C3040 1.383 . S
C3039 H3047 0.929 . S
C3040 C3039 1.383 . S
C3040 C3041 1.377 . S
C3041 H3025 0.930 . S
C3041 C3040 1.377 . S
C3041 C3042 1.379 . S
C3042 H3026 0.931 . S
C3042 C3036 1.383 . S
C3042 C3041 1.379 . S
H3043 C3037 0.959 . S
H3044 C3037 0.961 . S
H3045 C3037 0.960 . S
H3046 C3038 0.930 . S
H3047 C3039 0.929 . S
H3048 C3056 0.929 . S
H3049 C3058 0.930 . S
H3050 C3060 0.930 . S
H3051 C3063 0.929 . S
H3052 C3066 0.930 . S
H3053 C3068 0.960 . S
H3054 C3068 0.960 . S
H3055 C3068 0.960 . S
C3056 H3048 0.929 . S
C3056 C3057 1.377 . S
C3056 C3058 1.384 . S
C3057 C3056 1.377 . S
C3057 C3063 1.390 . S
C3058 H3049 0.930 . S
C3058 C3056 1.384 . S
C3058 C3059 1.372 . S
C3059 C3058 1.372 . S
C3059 C3060 1.400 . S
C3059 C3064 1.490 . S
C3060 H3050 0.930 . S
C3060 C3059 1.400 . S
C3060 C3063 1.386 . S
H3061 C3077 0.930 . S
H3062 C3078 0.931 . S
C3063 H3051 0.929 . S
C3063 C3057 1.390 . S
C3063 C3060 1.386 . S
C3064 C3059 1.490 . S
C3064 C3066 1.395 . S
C3064 C3067 1.403 . S
H3065 C3071 0.930 . S
C3066 H3052 0.930 . S
C3066 C3064 1.395 . S
C3066 C3069 1.403 . S
C3067 C3064 1.403 . S
C3067 C3068 1.524 . S
C3067 C3071 1.400 . S
C3068 H3053 0.960 . S
C3068 H3054 0.960 . S
C3068 H3055 0.960 . S
C3068 C3067 1.524 . S
C3069 C3066 1.403 . S
C3069 C3070 1.392 . S
C3069 C3073 1.495 . S
C3070 C3069 1.392 . S
C3070 C3071 1.385 . S
C3070 C3072 1.478 . S
C3071 H3065 0.930 . S
C3071 C3067 1.400 . S
C3071 C3070 1.385 . S
C3072 C3070 1.478 . S
C3072 C3074 1.381 . S
C3072 C3078 1.383 . S
C3073 C3069 1.495 . S
C3073 H3079 0.959 . S
C3073 H3080 0.961 . S
C3073 H3081 0.960 . S
C3074 C3072 1.381 . S
C3074 C3075 1.394 . S
C3074 H3082 0.930 . S
C3075 C3074 1.394 . S
C3075 C3076 1.383 . S
C3075 H3083 0.929 . S
C3076 C3075 1.383 . S
C3076 C3077 1.377 . S
C3077 H3061 0.930 . S
C3077 C3076 1.377 . S
C3077 C3078 1.379 . S
C3078 H3062 0.931 . S
C3078 C3072 1.383 . S
C3078 C3077 1.379 . S
H3079 C3073 0.959 . S
H3080 C3073 0.961 . S
H3081 C3073 0.960 . S
H3082 C3074 0.930 . S
H3083 C3075 0.929 . S
H3084 C3092 0.929 . S
H3085 C3094 0.930 . S
H3086 C3096 0.930 . S
H3087 C3099 0.929 . S
H3088 C3102 0.943 . S
H3089 C3104 0.960 . S
H3090 C3104 0.960 . S
H3091 C3104 0.960 . S
C3092 H3084 0.929 . S
C3092 C3093 1.377 1_455 S
C3092 C3094 1.384 . S
C3093 C3092 1.377 1_655 S
C3093 C3099 1.390 . S
C3094 H3085 0.930 . S
C3094 C3092 1.384 . S
C3094 C3095 1.372 1_455 S
C3095 C3094 1.372 1_655 S
C3095 C3096 1.400 . S
C3095 C3100 1.490 . S
C3096 H3086 0.930 . S
C3096 C3095 1.400 . S
C3096 C3099 1.386 . S
H3097 C3113 0.930 . S
H3098 C3114 0.931 . S
C3099 H3087 0.929 . S
C3099 C3093 1.390 . S
C3099 C3096 1.386 . S
C3100 C3095 1.490 . S
C3100 C3102 1.395 . S
C3100 C3103 1.403 . S
H3101 C3107 0.930 . S
C3102 H3088 0.943 . S
C3102 C3100 1.395 . S
C3102 C3105 1.403 . S
C3103 C3100 1.403 . S
C3103 C3104 1.524 . S
C3103 C3107 1.400 . S
C3104 H3089 0.960 . S
C3104 H3090 0.960 . S
C3104 H3091 0.960 . S
C3104 C3103 1.524 . S
C3105 C3102 1.403 . S
C3105 C3106 1.392 . S
C3105 C3109 1.495 . S
C3106 C3105 1.392 . S
C3106 C3107 1.385 . S
C3106 C3108 1.478 . S
C3107 H3101 0.930 . S
C3107 C3103 1.400 . S
C3107 C3106 1.385 . S
C3108 C3106 1.478 . S
C3108 C3110 1.369 1_655 S
C3108 C3114 1.383 . S
C3109 C3105 1.495 . S
C3109 H3115 0.947 1_655 S
C3109 H3116 0.961 . S
C3109 H3117 0.960 1_655 S
C3110 C3108 1.369 1_455 S
C3110 C3111 1.394 1_455 S
C3110 H3118 0.943 . S
C3111 C3110 1.394 1_655 S
C3111 C3112 1.383 . S
C3111 H3119 0.929 1_655 S
C3112 C3111 1.383 . S
C3112 C3113 1.377 . S
C3113 H3097 0.930 . S
C3113 C3112 1.377 . S
C3113 C3114 1.379 . S
C3114 H3098 0.931 . S
C3114 C3108 1.383 . S
C3114 C3113 1.379 . S
H3115 C3109 0.947 1_455 S
H3116 C3109 0.961 . S
H3117 C3109 0.960 1_455 S
H3118 C3110 0.943 . S
H3119 C3111 0.929 1_455 S
C556 C521 1.601 . S
C537 C8 1.617 . S
C592 C488 1.400 . S
C573 C19 1.395 . S
C628 C510 1.081 . S
C609 C30 1.132 . S
C664 C499 1.568 1_655 S
C645 C41 1.578 1_565 S
C700 C422 1.602 . S
C681 C52 1.617 . S
C717 C63 1.577 1_556 S
C736 C433 1.583 1_565 S
C772 C400 1.370 . S
C753 C74 1.401 . S
C789 C85 1.129 . S
C808 C411 1.121 . S
C844 C477 1.594 . S
C825 C96 1.618 . S
C861 C107 1.577 1_655 S
C880 C455 1.582 1_556 S
C897 C118 1.401 . S
C916 C444 1.371 . S
C952 C466 1.111 . S
C933 C129 1.132 . S
C988 C389 1.604 . S
C969 C140 1.595 . S
C1005 C151 1.341 . S
C1024 C356 1.395 . S
C1060 C378 1.128 . S
C1041 C162 1.123 . S
C1077 C173 1.542 . S
C1096 C367 1.586 1_455 S
C1132 C290 1.593 . S
C1113 C184 1.597 . S
C1168 C301 1.580 1_545 S
C1149 C195 1.544 . S
C1185 C206 1.353 . S
C1204 C268 1.404 . S
C1221 C217 1.112 . S
C1240 C279 1.092 . S
C1257 C228 1.589 . S
C1276 C345 1.607 . S
C1293 C239 1.540 . S
C1312 C323 1.582 1_554 S
C1348 C312 1.407 . S
C1329 C250 1.352 . S
C1365 C261 1.114 . S
C1384 C334 1.114 . S
C1420 C269 1.377 . S
C1401 C7 1.417 . S
C1456 C280 1.322 . S
C1437 C18 1.327 . S
C1473 C29 1.213 . S
C1492 C291 1.206 . S
C1509 C40 1.024 . S
C1528 C302 1.036 . S
C1564 C313 1.375 . S
C1545 C51 1.416 . S
C1581 C62 1.021 1_556 S
C1600 C324 1.034 . S
C1636 C335 1.326 . S
C1617 C73 1.327 . S
C1672 C346 1.200 . S
C1653 C84 1.213 . S
C1708 C357 1.393 . S
C1689 C95 1.413 . S
C1725 C106 1.020 . S
C1744 C368 1.044 . S
C1761 C117 1.331 . S
C1780 C379 1.296 . S
C1797 C128 1.214 . S
C1816 C390 1.202 . S
C1833 C139 1.374 . S
C1852 C401 1.418 . S
C1869 C150 1.246 . S
C1888 C412 1.309 . S
C1905 C161 1.185 . S
C1924 C423 1.230 . S
C1941 C172 0.992 . S
C1960 C434 1.015 . S
C1977 C183 1.361 . S
C1996 C445 1.373 . S
C2032 C456 1.039 . S
C2013 C194 1.001 1_556 S
C2068 C467 1.300 . S
C2049 C205 1.244 . S
C2104 C478 1.199 . S
C2085 C216 1.170 . S
C2140 C489 1.374 . S
C2121 C227 1.362 . S
C2157 C238 0.995 . S
C2176 C500 1.024 . S
C2193 C249 1.231 . S
C2212 C511 1.259 . S
C2229 C260 1.184 . S
C2248 C522 1.227 . S
C2265 C5 1.339 . S
C2284 C362 1.512 . S
C2320 C395 1.491 . S
C2301 C16 1.386 . S
C2337 C27 1.218 1_545 S
C2356 C373 1.349 . S
C2392 C384 1.566 . S
C2373 C38 1.373 1_565 S
C2409 C49 1.335 . S
C2428 C274 1.502 . S
C2445 C60 1.387 1_556 S
C2464 C285 1.566 . S
C2481 C71 1.402 . S
C2500 C296 1.517 . S
C2517 C82 1.217 1_554 S
C2536 C307 1.324 . S
C2572 C318 1.506 . S
C2553 C93 1.336 . S
C2608 C340 1.565 . S
C2589 C104 1.373 1_655 S
C2625 C115 1.409 . S
C2644 C351 1.525 . S
C2661 C126 1.198 1_455 S
C2680 C329 1.306 . S
C2716 C494 1.506 . S
C2697 C137 1.246 . S
C2752 C527 1.493 . S
C2733 C148 1.203 . S
C2769 C159 1.146 . S
C2788 C505 1.332 . S
C2824 C516 1.593 . S
C2805 C170 1.227 . S
C2841 C181 1.264 . S
C2860 C406 1.498 . S
C2877 C192 1.248 . S
C2896 C417 1.572 . S
C2913 C203 1.186 . S
C2932 C428 1.523 . S
C2968 C439 1.328 . S
C2949 C214 1.145 . S
C3004 C450 1.525 . S
C2985 C225 1.243 . S
C3040 C472 1.581 . S
C3021 C236 1.238 . S
C3057 C247 1.191 . S
C3076 C483 1.504 . S
C3112 C461 1.330 . S
C3093 C258 1.152 . S
