# Generated by pormake.
# Topology cml, (3,6)-cn, num edge types: 1
# Building blocks:
#     Node 0, Type 0, BuildingBlock: KAKCAD_clean_linker_0, # of connection points: 3
#     Node 1, Type 0, BuildingBlock: KAKCAD_clean_linker_0, # of connection points: 3
#     Node 2, Type 0, BuildingBlock: KAKCAD_clean_linker_0, # of connection points: 3
#     Node 3, Type 0, BuildingBlock: KAKCAD_clean_linker_0, # of connection points: 3
#     Node 4, Type 0, BuildingBlock: KAKCAD_clean_linker_0, # of connection points: 3
#     Node 5, Type 0, BuildingBlock: KAKCAD_clean_linker_0, # of connection points: 3
#     Node 6, Type 0, BuildingBlock: KAKCAD_clean_linker_0, # of connection points: 3
#     Node 7, Type 0, BuildingBlock: KAKCAD_clean_linker_0, # of connection points: 3
#     Node 8, Type 1, BuildingBlock: IZENUY_clean_sbu_0, # of connection points: 6
#     Node 9, Type 1, BuildingBlock: IZENUY_clean_sbu_0, # of connection points: 6
#     Node 10, Type 1, BuildingBlock: IZENUY_clean_sbu_0, # of connection points: 6
#     Node 11, Type 1, BuildingBlock: IZENUY_clean_sbu_0, # of connection points: 6
#     Edge 12, Type (0, 1), BuildingBlock: EZIPEK_clean_linker_0, # of connection points: 2
#     Edge 13, Type (0, 1), BuildingBlock: EZIPEK_clean_linker_0, # of connection points: 2
#     Edge 14, Type (0, 1), BuildingBlock: EZIPEK_clean_linker_0, # of connection points: 2
#     Edge 15, Type (0, 1), BuildingBlock: EZIPEK_clean_linker_0, # of connection points: 2
#     Edge 16, Type (0, 1), BuildingBlock: EZIPEK_clean_linker_0, # of connection points: 2
#     Edge 17, Type (0, 1), BuildingBlock: EZIPEK_clean_linker_0, # of connection points: 2
#     Edge 18, Type (0, 1), BuildingBlock: EZIPEK_clean_linker_0, # of connection points: 2
#     Edge 19, Type (0, 1), BuildingBlock: EZIPEK_clean_linker_0, # of connection points: 2
#     Edge 20, Type (0, 1), BuildingBlock: EZIPEK_clean_linker_0, # of connection points: 2
#     Edge 21, Type (0, 1), BuildingBlock: EZIPEK_clean_linker_0, # of connection points: 2
#     Edge 22, Type (0, 1), BuildingBlock: EZIPEK_clean_linker_0, # of connection points: 2
#     Edge 23, Type (0, 1), BuildingBlock: EZIPEK_clean_linker_0, # of connection points: 2
#     Edge 24, Type (0, 1), BuildingBlock: EZIPEK_clean_linker_0, # of connection points: 2
#     Edge 25, Type (0, 1), BuildingBlock: EZIPEK_clean_linker_0, # of connection points: 2
#     Edge 26, Type (0, 1), BuildingBlock: EZIPEK_clean_linker_0, # of connection points: 2
#     Edge 27, Type (0, 1), BuildingBlock: EZIPEK_clean_linker_0, # of connection points: 2
#     Edge 28, Type (0, 1), BuildingBlock: EZIPEK_clean_linker_0, # of connection points: 2
#     Edge 29, Type (0, 1), BuildingBlock: EZIPEK_clean_linker_0, # of connection points: 2
#     Edge 30, Type (0, 1), BuildingBlock: EZIPEK_clean_linker_0, # of connection points: 2
#     Edge 31, Type (0, 1), BuildingBlock: EZIPEK_clean_linker_0, # of connection points: 2
#     Edge 32, Type (0, 1), BuildingBlock: EZIPEK_clean_linker_0, # of connection points: 2
#     Edge 33, Type (0, 1), BuildingBlock: EZIPEK_clean_linker_0, # of connection points: 2
#     Edge 34, Type (0, 1), BuildingBlock: EZIPEK_clean_linker_0, # of connection points: 2
#     Edge 35, Type (0, 1), BuildingBlock: EZIPEK_clean_linker_0, # of connection points: 2
# Relax obj value: 0.055
# Max RMSD: 0.071
# Mean RMSD: 0.068
data_MOF--net-cml--node1-IZENUY_clean_sbu_0--node2-KAKCAD_clean_linker_0--edge1-EZIPEK_clean_linker_0
_symmetry_space_group_name_H-M    P1
_symmetry_Int_Tables_number       1
_symmetry_cell_setting            triclinic
loop_
_symmetry_equiv_pos_as_xyz
'x, y, z'
_cell_length_a     33.983279
_cell_length_b     39.335277
_cell_length_c     36.607831
_cell_angle_alpha  89.990057
_cell_angle_beta   90.060746
_cell_angle_gamma 90.208243
loop_
_atom_site_label
_atom_site_type_symbol
_atom_site_fract_x
_atom_site_fract_y
_atom_site_fract_z
_atom_type_partial_charge
C0 C 0.31989 0.48695 0.92353 0.0
C1 C 0.36045 0.49348 0.92577 0.0
C2 C 0.30357 0.45888 0.94167 0.0
C3 C 0.32761 0.43694 0.96223 0.0
C4 C 0.36837 0.44329 0.96356 0.0
C5 C 0.38457 0.47129 0.94558 0.0
C6 C 0.31042 0.40821 0.9834 0.0
C7 C 0.28092 0.38725 0.96845 0.0
C8 C 0.26495 0.35995 0.98867 0.0
C9 C 0.27886 0.35409 0.02441 0.0
C10 C 0.30885 0.37438 0.03931 0.0
C11 C 0.32412 0.40146 0.01882 0.0
C12 C 0.32542 0.36717 0.07593 0.0
C13 C 0.30102 0.36435 0.10678 0.0
C14 C 0.36639 0.36487 0.08034 0.0
C15 C 0.38278 0.36086 0.11498 0.0
C16 C 0.35857 0.35935 0.14594 0.0
C17 C 0.23454 0.33714 0.97218 0.0
C18 C 0.20549 0.35024 0.94865 0.0
C19 C 0.23446 0.30198 0.97963 0.0
C20 C 0.20588 0.28063 0.96432 0.0
C21 C 0.17714 0.29386 0.94082 0.0
C22 C 0.17726 0.32877 0.93297 0.0
C23 C 0.31753 0.36074 0.14167 0.0
H24 H 0.30093 0.50375 0.9081 0.0
H25 H 0.27207 0.4548 0.9403 0.0
H26 H 0.38783 0.42657 0.97855 0.0
H27 H 0.416 0.47576 0.94722 0.0
H28 H 0.27136 0.3916 0.9406 0.0
H29 H 0.34651 0.41767 0.03086 0.0
H30 H 0.26681 0.33348 0.0406 0.0
H31 H 0.26936 0.36621 0.10404 0.0
H32 H 0.38579 0.36668 0.05694 0.0
H33 H 0.4145 0.35986 0.11779 0.0
H34 H 0.20416 0.37716 0.94268 0.0
H35 H 0.25674 0.29079 0.99698 0.0
H36 H 0.29846 0.35983 0.16534 0.0
H37 H 0.15517 0.33946 0.91501 0.0
H38 H 0.20626 0.25373 0.97067 0.0
C39 C 0.7007 0.51464 0.42871 0.0
C40 C 0.66009 0.50807 0.42934 0.0
C41 C 0.71628 0.54226 0.44823 0.0
C42 C 0.69142 0.56351 0.46873 0.0
C43 C 0.65073 0.55677 0.46895 0.0
C44 C 0.63527 0.52936 0.44944 0.0
C45 C 0.70716 0.59307 0.48954 0.0
C46 C 0.73471 0.61531 0.4738 0.0
C47 C 0.74655 0.64518 0.49206 0.0
C48 C 0.73028 0.65247 0.52659 0.0
C49 C 0.70337 0.63002 0.54327 0.0
C50 C 0.69274 0.60009 0.52462 0.0
C51 C 0.68501 0.63817 0.57934 0.0
C52 C 0.70576 0.65623 0.60657 0.0
C53 C 0.64605 0.62795 0.58675 0.0
C54 C 0.62872 0.63484 0.62042 0.0
C55 C 0.64932 0.65298 0.64733 0.0
C56 C 0.77537 0.66898 0.47481 0.0
C57 C 0.7752 0.67446 0.43676 0.0
C58 C 0.80378 0.68601 0.49616 0.0
C59 C 0.83148 0.70756 0.47985 0.0
C60 C 0.83165 0.71218 0.44187 0.0
C61 C 0.80326 0.69563 0.42045 0.0
C62 C 0.6879 0.66393 0.64007 0.0
H63 H 0.72021 0.4984 0.41322 0.0
H64 H 0.74773 0.54673 0.44765 0.0
H65 H 0.63069 0.57299 0.48387 0.0
H66 H 0.60382 0.52471 0.45001 0.0
H67 H 0.74645 0.60953 0.44703 0.0
H68 H 0.67297 0.58197 0.53732 0.0
H69 H 0.73764 0.67622 0.53992 0.0
H70 H 0.73589 0.66424 0.60221 0.0
H71 H 0.62843 0.61502 0.56637 0.0
H72 H 0.59873 0.62654 0.62525 0.0
H73 H 0.75333 0.66248 0.41947 0.0
H74 H 0.80524 0.68212 0.52541 0.0
H75 H 0.70417 0.67827 0.66037 0.0
H76 H 0.80294 0.69904 0.39109 0.0
H77 H 0.85338 0.72005 0.49674 0.0
C78 C 0.6863 0.49164 0.93047 0.0
C79 C 0.64512 0.49372 0.92841 0.0
C80 C 0.70411 0.46376 0.94753 0.0
C81 C 0.68092 0.43793 0.96322 0.0
C82 C 0.63977 0.43971 0.96014 0.0
C83 C 0.62205 0.46728 0.94278 0.0
C84 C 0.69923 0.41012 0.98457 0.0
C85 C 0.73029 0.39099 0.97007 0.0
C86 C 0.74684 0.36403 0.99012 0.0
C87 C 0.73242 0.35701 0.02541 0.0
C88 C 0.70144 0.37603 0.04036 0.0
C89 C 0.68496 0.40241 0.01957 0.0
C90 C 0.68532 0.36798 0.07718 0.0
C91 C 0.67954 0.33404 0.08824 0.0
C92 C 0.67374 0.39428 0.10089 0.0
C93 C 0.65535 0.38687 0.13406 0.0
C94 C 0.64841 0.35306 0.14432 0.0
C95 C 0.77824 0.3425 0.97384 0.0
C96 C 0.80815 0.35697 0.95216 0.0
C97 C 0.77811 0.30708 0.9794 0.0
C98 C 0.80713 0.28668 0.96376 0.0
C99 C 0.83665 0.30124 0.94209 0.0
C100 C 0.83707 0.33647 0.93634 0.0
C101 C 0.66133 0.32665 0.12159 0.0
H102 H 0.70451 0.51195 0.91973 0.0
H103 H 0.73589 0.46302 0.94972 0.0
H104 H 0.62125 0.41997 0.97167 0.0
H105 H 0.59024 0.46851 0.94145 0.0
H106 H 0.74049 0.39636 0.94262 0.0
H107 H 0.66064 0.41695 0.03051 0.0
H108 H 0.7457 0.33697 0.0415 0.0
H109 H 0.68778 0.31318 0.07055 0.0
H110 H 0.67844 0.42067 0.09359 0.0
H111 H 0.64574 0.40755 0.1514 0.0
H112 H 0.80943 0.38416 0.94765 0.0
H113 H 0.75519 0.29497 0.99534 0.0
H114 H 0.65615 0.30039 0.12915 0.0
H115 H 0.8598 0.34805 0.9197 0.0
H116 H 0.80636 0.25946 0.96828 0.0
C117 C 0.3127 0.66725 0.64701 0.0
C118 C 0.35326 0.66431 0.65364 0.0
C119 C 0.29722 0.65878 0.61267 0.0
C120 C 0.32216 0.64725 0.58465 0.0
C121 C 0.36288 0.6454 0.59133 0.0
C122 C 0.37822 0.65379 0.62547 0.0
C123 C 0.30641 0.63655 0.54854 0.0
C124 C 0.27815 0.656 0.53008 0.0
C125 C 0.26638 0.64728 0.49445 0.0
C126 C 0.28366 0.61904 0.47714 0.0
C127 C 0.31138 0.59869 0.49557 0.0
C128 C 0.3215 0.60736 0.53166 0.0
C129 C 0.33094 0.56917 0.47725 0.0
C130 C 0.31163 0.54986 0.45009 0.0
C131 C 0.36971 0.56012 0.48686 0.0
C132 C 0.38815 0.53238 0.47065 0.0
C133 C 0.36912 0.51362 0.44325 0.0
C134 C 0.23625 0.66783 0.4751 0.0
C135 C 0.20143 0.67736 0.49271 0.0
C136 C 0.24227 0.67847 0.43904 0.0
C137 C 0.21315 0.69648 0.42026 0.0
C138 C 0.17573 0.70251 0.43604 0.0
C139 C 0.17214 0.69496 0.47377 0.0
C140 C 0.33076 0.52269 0.4329 0.0
H141 H 0.2931 0.67549 0.66855 0.0
H142 H 0.26576 0.66043 0.60832 0.0
H143 H 0.38298 0.63735 0.5701 0.0
H144 H 0.40962 0.65166 0.63009 0.0
H145 H 0.26635 0.67861 0.54288 0.0
H146 H 0.34145 0.59139 0.54701 0.0
H147 H 0.27546 0.61311 0.44927 0.0
H148 H 0.28168 0.5555 0.44215 0.0
H149 H 0.38645 0.57475 0.50654 0.0
H150 H 0.4179 0.52609 0.47882 0.0
H151 H 0.1965 0.67075 0.52107 0.0
H152 H 0.26996 0.67339 0.42548 0.0
H153 H 0.31562 0.50866 0.41161 0.0
H154 H 0.14661 0.70263 0.48926 0.0
H155 H 0.22152 0.70587 0.39386 0.0
C156 C 0.80309 0.99821 0.92995 0.0
C157 C 0.84349 0.00527 0.93293 0.0
C158 C 0.78634 0.97148 0.95005 0.0
C159 C 0.80985 0.95157 0.97336 0.0
C160 C 0.85034 0.95883 0.9759 0.0
C161 C 0.86691 0.9854 0.95598 0.0
C162 C 0.79313 0.92277 0.99469 0.0
C163 C 0.76663 0.89964 0.97881 0.0
C164 C 0.75481 0.87024 0.99782 0.0
C165 C 0.77062 0.86376 0.03273 0.0
C166 C 0.79672 0.88696 0.04938 0.0
C167 C 0.80634 0.91697 0.03046 0.0
C168 C 0.81588 0.87939 0.08534 0.0
C169 C 0.79714 0.85938 0.11224 0.0
C170 C 0.8541 0.89168 0.09265 0.0
C171 C 0.87263 0.8848 0.12574 0.0
C172 C 0.85433 0.86428 0.15205 0.0
C173 C 0.72613 0.84613 0.98121 0.0
C174 C 0.69244 0.85811 0.9634 0.0
C175 C 0.73227 0.81097 0.98278 0.0
C176 C 0.70395 0.78831 0.96928 0.0
C177 C 0.66716 0.7999 0.95602 0.0
C178 C 0.66407 0.83542 0.95017 0.0
C179 C 0.81646 0.85145 0.14504 0.0
H180 H 0.7847 0.01324 0.912 0.0
H181 H 0.75508 0.96655 0.94758 0.0
H182 H 0.8695 0.94355 0.99289 0.0
H183 H 0.89823 0.9903 0.95824 0.0
H184 H 0.75638 0.90377 0.95112 0.0
H185 H 0.82488 0.93597 0.04328 0.0
H186 H 0.76268 0.84046 0.04666 0.0
H187 H 0.76761 0.84974 0.10811 0.0
H188 H 0.8705 0.90604 0.07254 0.0
H189 H 0.90206 0.89462 0.13034 0.0
H190 H 0.68759 0.88515 0.96012 0.0
H191 H 0.75936 0.80091 0.99399 0.0
H192 H 0.80195 0.83528 0.16487 0.0
H193 H 0.6399 0.84636 0.93513 0.0
H194 H 0.71219 0.76192 0.96891 0.0
C195 C 0.19499 0.01538 0.4313 0.0
C196 C 0.15495 0.00764 0.43589 0.0
C197 C 0.21168 0.04343 0.44924 0.0
C198 C 0.18854 0.0641 0.47206 0.0
C199 C 0.14844 0.05604 0.4765 0.0
C200 C 0.13187 0.02813 0.45861 0.0
C201 C 0.2056 0.09427 0.49098 0.0
C202 C 0.23132 0.11663 0.47269 0.0
C203 C 0.24502 0.14653 0.4898 0.0
C204 C 0.23247 0.15392 0.52556 0.0
C205 C 0.20756 0.13149 0.5443 0.0
C206 C 0.19458 0.10168 0.52709 0.0
C207 C 0.19316 0.13962 0.58132 0.0
C208 C 0.20101 0.11761 0.61062 0.0
C209 C 0.1681 0.16746 0.58666 0.0
C210 C 0.14918 0.17201 0.6202 0.0
C211 C 0.15572 0.14914 0.64899 0.0
C212 C 0.27262 0.1699 0.47057 0.0
C213 C 0.30435 0.15689 0.45031 0.0
C214 C 0.26836 0.2054 0.47342 0.0
C215 C 0.2958 0.22732 0.45728 0.0
C216 C 0.32792 0.21414 0.43798 0.0
C217 C 0.33178 0.17882 0.43423 0.0
C218 C 0.18281 0.12261 0.64442 0.0
H219 H 0.21314 0.9999 0.41362 0.0
H220 H 0.24268 0.04882 0.44544 0.0
H221 H 0.12959 0.07174 0.49328 0.0
H222 H 0.10081 0.02272 0.46211 0.0
H223 H 0.23959 0.11141 0.44467 0.0
H224 H 0.17513 0.08455 0.54173 0.0
H225 H 0.24269 0.17676 0.53923 0.0
H226 H 0.22022 0.09596 0.60696 0.0
H227 H 0.1615 0.18455 0.56428 0.0
H228 H 0.12821 0.19249 0.62325 0.0
H229 H 0.30871 0.12972 0.44789 0.0
H230 H 0.24397 0.21626 0.48837 0.0
H231 H 0.18799 0.10464 0.66632 0.0
H232 H 0.3566 0.16826 0.41961 0.0
H233 H 0.29247 0.25453 0.46051 0.0
C234 C 0.15415 0.96691 0.91764 0.0
C235 C 0.14858 0.99806 0.93555 0.0
C236 C 0.17413 0.94044 0.9351 0.0
C237 C 0.1884 0.94463 0.9709 0.0
C238 C 0.18394 0.97632 0.98818 0.0
C239 C 0.16433 1.00287 0.97058 0.0
C240 C 0.20561 0.9155 0.99112 0.0
C241 C 0.23382 0.89441 0.97477 0.0
C242 C 0.24943 0.86654 0.99391 0.0
C243 C 0.23689 0.86029 0.02988 0.0
C244 C 0.20776 0.88039 0.04639 0.0
C245 C 0.19241 0.90804 0.0266 0.0
C246 C 0.19216 0.8717 0.08346 0.0
C247 C 0.19019 0.83761 0.09532 0.0
C248 C 0.17767 0.89721 0.10685 0.0
C249 C 0.15998 0.88874 0.14009 0.0
C250 C 0.15732 0.85469 0.15124 0.0
C251 C 0.27821 0.84334 0.97635 0.0
C252 C 0.27499 0.80794 0.98127 0.0
C253 C 0.3093 0.85623 0.95503 0.0
C254 C 0.33692 0.83422 0.9396 0.0
C255 C 0.33384 0.79902 0.94517 0.0
C256 C 0.3026 0.786 0.96589 0.0
C257 C 0.17362 0.8293 0.1291 0.0
H258 H 0.14188 0.96276 0.89068 0.0
H259 H 0.17689 0.91623 0.92125 0.0
H260 H 0.19496 0.98033 0.01563 0.0
H261 H 0.16009 0.02672 0.98481 0.0
H262 H 0.24329 0.89952 0.94704 0.0
H263 H 0.16898 0.92322 0.03812 0.0
H264 H 0.25021 0.83969 0.04507 0.0
H265 H 0.20026 0.81703 0.07814 0.0
H266 H 0.17958 0.9238 0.09947 0.0
H267 H 0.14793 0.90877 0.15698 0.0
H268 H 0.25103 0.79715 0.99701 0.0
H269 H 0.31278 0.88335 0.95097 0.0
H270 H 0.172 0.80287 0.13732 0.0
H271 H 0.29981 0.75887 0.97037 0.0
H272 H 0.36101 0.84462 0.92373 0.0
C273 C 0.8235 0.1678 0.63415 0.0
C274 C 0.86372 0.16308 0.64117 0.0
C275 C 0.80806 0.16061 0.59951 0.0
C276 C 0.83272 0.14898 0.57129 0.0
C277 C 0.87324 0.14559 0.57828 0.0
C278 C 0.8885 0.15239 0.61289 0.0
C279 C 0.81637 0.13925 0.53501 0.0
C280 C 0.78638 0.15834 0.51845 0.0
C281 C 0.77119 0.14911 0.48403 0.0
C282 C 0.78648 0.12033 0.46616 0.0
C283 C 0.81674 0.10124 0.48222 0.0
C284 C 0.83112 0.11068 0.51668 0.0
C285 C 0.83422 0.07164 0.46322 0.0
C286 C 0.81039 0.04551 0.44898 0.0
C287 C 0.87534 0.06867 0.46093 0.0
C288 C 0.89238 0.03987 0.44548 0.0
C289 C 0.86866 0.01335 0.43224 0.0
C290 C 0.73992 0.16996 0.46662 0.0
C291 C 0.7085 0.18267 0.48753 0.0
C292 C 0.74149 0.17773 0.42911 0.0
C293 C 0.71235 0.19776 0.41294 0.0
C294 C 0.68121 0.21039 0.43398 0.0
C295 C 0.67941 0.20269 0.47134 0.0
C296 C 0.82753 0.0164 0.43383 0.0
H297 H 0.80402 0.17625 0.65569 0.0
H298 H 0.7767 0.1633 0.59515 0.0
H299 H 0.89326 0.13751 0.55701 0.0
H300 H 0.91971 0.149 0.61774 0.0
H301 H 0.77562 0.18102 0.53189 0.0
H302 H 0.85358 0.09522 0.5295 0.0
H303 H 0.77511 0.11289 0.43966 0.0
H304 H 0.77863 0.04712 0.45065 0.0
H305 H 0.89436 0.08858 0.47141 0.0
H306 H 0.92416 0.03796 0.44441 0.0
H307 H 0.70616 0.17683 0.51636 0.0
H308 H 0.76552 0.16871 0.41234 0.0
H309 H 0.80882 0.99608 0.42382 0.0
H310 H 0.65538 0.21207 0.48788 0.0
H311 H 0.71406 0.20344 0.38402 0.0
Fe312 Fe 0.00636 0.80535 0.32071 0.0
Fe313 Fe 0.00835 0.84774 0.39138 0.0
O314 O 0.00834 0.84552 0.34289 0.0
Fe315 Fe 0.01023 0.88333 0.31653 0.0
O316 O 0.96415 0.87333 0.29388 0.0
O317 O 0.97829 0.82028 0.28083 0.0
O318 O 0.95959 0.79504 0.34191 0.0
C319 C 0.95373 0.79485 0.3759 0.0
C320 C 0.0603 0.83799 0.27802 0.0
O321 O 0.97697 0.80991 0.39766 0.0
C322 C 0.06136 0.90089 0.37078 0.0
O323 O 0.03419 0.78301 0.35619 0.0
O324 O 0.05318 0.82283 0.39461 0.0
O325 O 0.03944 0.86459 0.27942 0.0
O326 O 0.05303 0.81275 0.29808 0.0
C327 C 0.95971 0.90096 0.37576 0.0
O328 O 0.03949 0.88617 0.39396 0.0
O329 O 0.05641 0.89637 0.33705 0.0
C330 C 0.05746 0.79385 0.38052 0.0
O331 O 0.96358 0.87279 0.39179 0.0
O332 O 0.98157 0.90893 0.34907 0.0
C333 C 0.95746 0.84653 0.27609 0.0
Fe334 Fe 0.99948 0.15542 0.88993 0.0
Fe335 Fe 0.99771 0.12099 0.8146 0.0
O336 O 1.00089 0.15848 0.84148 0.0
Fe337 Fe 0.0053 0.19894 0.82003 0.0
O338 O 0.0513 0.20791 0.84326 0.0
O339 O 0.03203 0.19224 0.89808 0.0
O340 O 0.04305 0.12879 0.89105 0.0
C341 C 0.04615 0.10093 0.87425 0.0
C342 C 0.95252 0.21078 0.87916 0.0
O343 O 0.02402 0.09384 0.84746 0.0
C344 C 0.95229 0.16873 0.77423 0.0
O345 O 0.96644 0.11829 0.89094 0.0
O346 O 0.95022 0.10991 0.83356 0.0
O347 O 0.97611 0.22163 0.8549 0.0
O348 O 0.95582 0.18139 0.89234 0.0
C349 C 0.0531 0.15578 0.77553 0.0
O350 O 0.97075 0.14103 0.77696 0.0
O351 O 0.95984 0.19344 0.79489 0.0
C352 C 0.94383 0.10552 0.86704 0.0
O353 O 0.04488 0.12924 0.79327 0.0
O354 O 0.03474 0.18333 0.7811 0.0
C355 C 0.05587 0.20782 0.87739 0.0
Fe356 Fe 0.50162 0.30896 0.31962 0.0
Fe357 Fe 0.51033 0.35083 0.39072 0.0
O358 O 0.50645 0.34883 0.34233 0.0
Fe359 Fe 0.50763 0.38685 0.31633 0.0
O360 O 0.45907 0.37841 0.29767 0.0
O361 O 0.47068 0.32549 0.28229 0.0
O362 O 0.45686 0.2987 0.34447 0.0
C363 C 0.45315 0.2988 0.37885 0.0
C364 C 0.55232 0.34128 0.27319 0.0
O365 O 0.47722 0.3148 0.39895 0.0
C366 C 0.56426 0.40207 0.36666 0.0
O367 O 0.53191 0.2852 0.35204 0.0
O368 O 0.5536 0.32375 0.39069 0.0
O369 O 0.53219 0.36801 0.27658 0.0
O370 O 0.54631 0.31585 0.29334 0.0
C371 C 0.46313 0.40601 0.37882 0.0
O372 O 0.54368 0.38784 0.3912 0.0
O373 O 0.55631 0.39781 0.33333 0.0
C374 C 0.55611 0.29469 0.3762 0.0
O375 O 0.46742 0.37794 0.39491 0.0
O376 O 0.48333 0.41322 0.35086 0.0
C377 C 0.45119 0.35266 0.2785 0.0
Fe378 Fe 0.50353 0.65704 0.89178 0.0
Fe379 Fe 0.50194 0.62686 0.81447 0.0
O380 O 0.50329 0.66281 0.84375 0.0
Fe381 Fe 0.50426 0.70457 0.8251 0.0
O382 O 0.55084 0.7145 0.84724 0.0
O383 O 0.53355 0.69487 0.90121 0.0
O384 O 0.549 0.63323 0.88996 0.0
C385 C 0.55315 0.60603 0.87223 0.0
C386 C 0.45297 0.71047 0.88559 0.0
O387 O 0.53143 0.59949 0.84492 0.0
C388 C 0.4506 0.67404 0.77996 0.0
O389 O 0.47352 0.61793 0.89136 0.0
O390 O 0.45626 0.61161 0.83398 0.0
O391 O 0.47583 0.72379 0.86237 0.0
O392 O 0.4581 0.68057 0.89691 0.0
C393 C 0.55314 0.66711 0.77641 0.0
O394 O 0.47192 0.64766 0.77913 0.0
O395 O 0.45764 0.6979 0.80196 0.0
C396 C 0.45162 0.60468 0.86723 0.0
O397 O 0.54745 0.63916 0.79239 0.0
O398 O 0.53262 0.69298 0.7841 0.0
C399 C 0.55618 0.71247 0.88127 0.0
C400 C 0.15662 0.24595 0.89903 0.0
C401 C 0.14632 0.27127 0.92494 0.0
C402 C 0.07661 0.25746 0.91632 0.0
C403 C 0.08709 0.22962 0.89371 0.0
N404 N 0.13764 0.19365 0.86875 0.0
N405 N 0.09709 0.29617 0.96408 0.0
C406 C 0.12732 0.22281 0.88649 0.0
C407 C 0.10645 0.27554 0.93535 0.0
N408 N 0.194 0.24475 0.88538 0.0
N409 N 0.03839 0.26789 0.91814 0.0
H410 H 0.11816 0.30943 0.97919 0.0
H411 H 0.06888 0.29744 0.97513 0.0
H412 H 0.01604 0.25655 0.90294 0.0
H413 H 0.02965 0.29002 0.93144 0.0
H414 H 0.20206 0.22916 0.86366 0.0
H415 H 0.21616 0.26156 0.89346 0.0
H416 H 0.16663 0.18553 0.86601 0.0
H417 H 0.11692 0.17602 0.85959 0.0
C418 C 0.90042 0.71923 0.41812 0.0
C419 C 0.86262 0.73335 0.42428 0.0
C420 C 0.88445 0.78787 0.39831 0.0
C421 C 0.92181 0.77334 0.39107 0.0
N422 N 0.96398 0.72426 0.38852 0.0
N423 N 0.81661 0.7794 0.41741 0.0
C424 C 0.92942 0.73874 0.39944 0.0
C425 C 0.85403 0.76722 0.4135 0.0
N426 N 0.90873 0.68726 0.43063 0.0
N427 N 0.87841 0.82161 0.39126 0.0
H428 H 0.79415 0.76562 0.43003 0.0
H429 H 0.80699 0.80235 0.40656 0.0
H430 H 0.89922 0.83691 0.37825 0.0
H431 H 0.85369 0.83502 0.39963 0.0
H432 H 0.93692 0.67704 0.43135 0.0
H433 H 0.88771 0.67135 0.44249 0.0
H434 H 0.96989 0.69837 0.39016 0.0
H435 H 0.98599 0.73775 0.37504 0.0
C436 C 0.90178 0.27171 0.94494 0.0
C437 C 0.86699 0.27922 0.9252 0.0
C438 C 0.8888 0.24291 0.87462 0.0
C439 C 0.92279 0.23406 0.89515 0.0
N440 N 0.95827 0.23503 0.95242 0.0
N441 N 0.82476 0.27026 0.87321 0.0
C442 C 0.92832 0.24702 0.93107 0.0
C443 C 0.85987 0.26448 0.89045 0.0
N444 N 0.90984 0.28879 0.97664 0.0
N445 N 0.88396 0.23025 0.84015 0.0
H446 H 0.80349 0.28678 0.88342 0.0
H447 H 0.81547 0.2575 0.84985 0.0
H448 H 0.90188 0.21135 0.82946 0.0
H449 H 0.86297 0.23892 0.8217 0.0
H450 H 0.9368 0.28762 0.9901 0.0
H451 H 0.89061 0.3064 0.98815 0.0
H452 H 0.96102 0.24036 0.98016 0.0
H453 H 0.97905 0.21764 0.94327 0.0
C454 C 0.10311 0.71933 0.43054 0.0
C455 C 0.14171 0.71936 0.41562 0.0
C456 C 0.12303 0.76608 0.37512 0.0
C457 C 0.08749 0.77017 0.39474 0.0
N458 N 0.04315 0.75072 0.44178 0.0
N459 N 0.16798 0.72337 0.35467 0.0
C460 C 0.07721 0.74666 0.42254 0.0
C461 C 0.14702 0.7375 0.38246 0.0
N462 N 0.08958 0.69098 0.44808 0.0
N463 N 0.13378 0.7891 0.34904 0.0
H464 H 0.17606 0.6978 0.35539 0.0
H465 H 0.17034 0.73451 0.32891 0.0
H466 H 0.11707 0.8106 0.34306 0.0
H467 H 0.16104 0.7882 0.33599 0.0
H468 H 0.06054 0.6879 0.45658 0.0
H469 H 0.10637 0.66885 0.44966 0.0
H470 H 0.03617 0.73631 0.46478 0.0
H471 H 0.02346 0.77041 0.43661 0.0
C472 C 0.63854 0.73982 0.94425 0.0
C473 C 0.63403 0.7757 0.9446 0.0
C474 C 0.57497 0.7694 0.90663 0.0
C475 C 0.58497 0.73499 0.89977 0.0
N476 N 0.62808 0.68752 0.91097 0.0
N477 N 0.58009 0.81474 0.95064 0.0
C478 C 0.61734 0.72023 0.91825 0.0
C479 C 0.59707 0.78821 0.93263 0.0
N480 N 0.65619 0.72393 0.97297 0.0
N481 N 0.54443 0.78431 0.88854 0.0
H482 H 0.59279 0.82516 0.97411 0.0
H483 H 0.55141 0.82285 0.94562 0.0
H484 H 0.52734 0.77154 0.86928 0.0
H485 H 0.53848 0.81024 0.89044 0.0
H486 H 0.65731 0.69756 0.97562 0.0
H487 H 0.66347 0.73714 0.99679 0.0
H488 H 0.65354 0.67669 0.92174 0.0
H489 H 0.61365 0.67258 0.89155 0.0
C490 C 0.39539 0.23958 0.44304 0.0
C491 C 0.3592 0.23721 0.42399 0.0
C492 C 0.38195 0.28065 0.3809 0.0
C493 C 0.42045 0.27894 0.39612 0.0
N494 N 0.46444 0.25345 0.44086 0.0
N495 N 0.31912 0.25247 0.37224 0.0
C496 C 0.42735 0.25771 0.42716 0.0
C497 C 0.35276 0.25691 0.39219 0.0
N498 N 0.39897 0.22525 0.47693 0.0
N499 N 0.37247 0.30622 0.35725 0.0
H500 H 0.29686 0.23559 0.37989 0.0
H501 H 0.31487 0.26342 0.34663 0.0
H502 H 0.39219 0.32539 0.34994 0.0
H503 H 0.3439 0.31061 0.34809 0.0
H504 H 0.42293 0.22962 0.49409 0.0
H505 H 0.37634 0.2116 0.48948 0.0
H506 H 0.47151 0.23462 0.45975 0.0
H507 H 0.48909 0.26659 0.43182 0.0
C508 C 0.40146 0.77381 0.94761 0.0
C509 C 0.36413 0.77571 0.93033 0.0
C510 C 0.38352 0.73112 0.88716 0.0
C511 C 0.42199 0.73168 0.90219 0.0
N512 N 0.46945 0.75587 0.94389 0.0
N513 N 0.32075 0.75978 0.88102 0.0
C514 C 0.43151 0.7537 0.93163 0.0
C515 C 0.35538 0.75524 0.89942 0.0
N516 N 0.4077 0.79028 0.98002 0.0
N517 N 0.37383 0.70724 0.86149 0.0
H518 H 0.29943 0.77717 0.88926 0.0
H519 H 0.31437 0.74835 0.85605 0.0
H520 H 0.39393 0.68956 0.85149 0.0
H521 H 0.34525 0.70313 0.85218 0.0
H522 H 0.43271 0.78686 0.99604 0.0
H523 H 0.38643 0.80531 0.99259 0.0
H524 H 0.4793 0.77451 0.96194 0.0
H525 H 0.49188 0.74035 0.93418 0.0
C526 C 0.61243 0.21617 0.40985 0.0
C527 C 0.64974 0.23105 0.41675 0.0
C528 C 0.62766 0.28405 0.38851 0.0
C529 C 0.5885 0.27136 0.38743 0.0
N530 N 0.54325 0.22446 0.39777 0.0
N531 N 0.6921 0.28039 0.41634 0.0
C532 C 0.58077 0.23705 0.39795 0.0
C533 C 0.65719 0.26533 0.40704 0.0
N534 N 0.60758 0.1818 0.41359 0.0
N535 N 0.63719 0.313 0.36985 0.0
H536 H 0.71465 0.26748 0.42975 0.0
H537 H 0.69728 0.30638 0.41348 0.0
H538 H 0.61676 0.32629 0.35416 0.0
H539 H 0.66599 0.32169 0.36672 0.0
H540 H 0.58255 0.16875 0.4049 0.0
H541 H 0.63003 0.16572 0.42238 0.0
H542 H 0.53531 0.20168 0.4103 0.0
H543 H 0.51929 0.23731 0.38695 0.0
C544 C 0.37499 0.55629 0.92204 0.0
C545 C 0.37851 0.52319 0.90702 0.0
C546 C 0.42825 0.54374 0.86392 0.0
C547 C 0.42384 0.57722 0.87807 0.0
N548 N 0.38567 0.61675 0.91354 0.0
N549 N 0.40026 0.48725 0.85787 0.0
C550 C 0.39487 0.58392 0.90499 0.0
C551 C 0.40244 0.51759 0.87598 0.0
N552 N 0.35406 0.56113 0.95346 0.0
N553 N 0.45857 0.53618 0.84082 0.0
H554 H 0.38159 0.46755 0.86603 0.0
H555 H 0.41393 0.48289 0.83285 0.0
H556 H 0.47867 0.55408 0.83131 0.0
H557 H 0.4659 0.51142 0.83346 0.0
H558 H 0.35425 0.5839 0.96798 0.0
H559 H 0.33872 0.54163 0.96657 0.0
H560 H 0.36229 0.62336 0.93045 0.0
H561 H 0.3988 0.63751 0.90062 0.0
C562 C 0.64171 0.44626 0.42498 0.0
C563 C 0.64263 0.47903 0.40901 0.0
C564 C 0.59489 0.46107 0.3627 0.0
C565 C 0.59449 0.42767 0.37802 0.0
N566 N 0.62564 0.38671 0.41771 0.0
N567 N 0.6293 0.51499 0.35741 0.0
C568 C 0.62054 0.41973 0.40727 0.0
C569 C 0.62243 0.4854 0.37595 0.0
N570 N 0.65964 0.4408 0.4579 0.0
N571 N 0.56703 0.47084 0.33785 0.0
H572 H 0.64901 0.53346 0.36673 0.0
H573 H 0.6186 0.51959 0.33119 0.0
H574 H 0.5445 0.4552 0.32844 0.0
H575 H 0.56349 0.49592 0.3294 0.0
H576 H 0.65579 0.41869 0.47316 0.0
H577 H 0.67639 0.45932 0.47119 0.0
H578 H 0.64717 0.37896 0.43616 0.0
H579 H 0.61094 0.3666 0.40524 0.0
C580 C 0.60452 0.54569 0.93849 0.0
C581 C 0.62552 0.52467 0.91398 0.0
C582 C 0.60541 0.56132 0.86314 0.0
C583 C 0.57947 0.57903 0.8869 0.0
N584 N 0.54831 0.58195 0.94648 0.0
N585 N 0.64249 0.50978 0.8521 0.0
C586 C 0.57755 0.56979 0.92449 0.0
C587 C 0.6252 0.5318 0.87601 0.0
N588 N 0.61056 0.54282 0.97529 0.0
N589 N 0.61214 0.57323 0.82865 0.0
H590 H 0.65741 0.48802 0.86051 0.0
H591 H 0.63935 0.51167 0.82386 0.0
H592 H 0.59892 0.59513 0.81853 0.0
H593 H 0.63369 0.5634 0.81147 0.0
H594 H 0.59896 0.5599 0.99416 0.0
H595 H 0.63045 0.52562 0.98661 0.0
H596 H 0.54349 0.57301 0.97291 0.0
H597 H 0.52601 0.59789 0.93741 0.0
C598 C 0.42718 0.49342 0.40732 0.0
C599 C 0.39086 0.48576 0.42447 0.0
C600 C 0.39918 0.4258 0.40754 0.0
C601 C 0.43812 0.43296 0.39549 0.0
N602 N 0.49245 0.47289 0.39537 0.0
N603 N 0.3456 0.44308 0.4469 0.0
C604 C 0.45306 0.46662 0.39845 0.0
C605 C 0.37763 0.45148 0.42623 0.0
N606 N 0.4369 0.52626 0.39905 0.0
N607 N 0.38216 0.39506 0.40013 0.0
H608 H 0.32959 0.46091 0.46174 0.0
H609 H 0.33724 0.41801 0.45203 0.0
H610 H 0.39642 0.37601 0.38557 0.0
H611 H 0.35258 0.38983 0.40522 0.0
H612 H 0.46173 0.53262 0.38375 0.0
H613 H 0.418 0.54661 0.40388 0.0
H614 H 0.50493 0.49672 0.40022 0.0
H615 H 0.51305 0.45351 0.39307 0.0
C616 C 0.88654 0.02296 0.88117 0.0
C617 C 0.86256 0.03244 0.91103 0.0
C618 C 0.88387 0.09162 0.90398 0.0
C619 C 0.91303 0.08099 0.87878 0.0
N620 N 0.94481 0.03522 0.84584 0.0
N621 N 0.83934 0.07534 0.9527 0.0
C622 C 0.91476 0.04639 0.86751 0.0
C623 C 0.86112 0.06675 0.92275 0.0
N624 N 0.88231 0.99143 0.86593 0.0
N625 N 0.87732 0.12551 0.90925 0.0
H626 H 0.82159 0.05796 0.96659 0.0
H627 H 0.84084 0.09912 0.96515 0.0
H628 H 0.8925 0.14424 0.89478 0.0
H629 H 0.85419 0.13494 0.92486 0.0
H630 H 0.89612 0.9842 0.84177 0.0
H631 H 0.86189 0.97365 0.87547 0.0
H632 H 0.95014 0.0096 0.84077 0.0
H633 H 0.96661 0.05103 0.83532 0.0
C634 C 0.13931 0.9453 0.42834 0.0
C635 C 0.13603 0.97923 0.41559 0.0
C636 C 0.08538 0.96174 0.37177 0.0
C637 C 0.08948 0.92743 0.38358 0.0
N638 N 0.1272 0.88552 0.4163 0.0
N639 N 0.11395 0.01824 0.36929 0.0
C640 C 0.11859 0.91889 0.40985 0.0
C641 C 0.1117 0.98688 0.3853 0.0
N642 N 0.16104 0.93849 0.45889 0.0
N643 N 0.05488 0.97098 0.34954 0.0
H644 H 0.13283 0.03733 0.37864 0.0
H645 H 0.10007 0.02417 0.34473 0.0
H646 H 0.03442 0.95392 0.33898 0.0
H647 H 0.04775 0.9962 0.34401 0.0
H648 H 0.16086 0.91499 0.472 0.0
H649 H 0.17727 0.95706 0.47266 0.0
H650 H 0.15057 0.87765 0.43261 0.0
H651 H 0.11344 0.86567 0.40231 0.0
C652 C 0.08208 0.02426 0.92833 0.0
C653 C 0.12264 0.02434 0.91925 0.0
C654 C 0.11332 0.07499 0.88089 0.0
C655 C 0.07248 0.07419 0.88907 0.0
N656 N 0.01664 0.04495 0.91525 0.0
N657 N 0.17697 0.04695 0.8847 0.0
C658 C 0.05649 0.04792 0.91127 0.0
C659 C 0.13834 0.04899 0.8949 0.0
N660 N 0.06814 1.00198 0.95402 0.0
N661 N 0.128 0.10067 0.85966 0.0
H662 H 0.19617 0.0288 0.89527 0.0
H663 H 0.18977 0.0619 0.86449 0.0
H664 H 0.11 0.11833 0.84662 0.0
H665 H 0.15784 0.10535 0.85577 0.0
H666 H 0.04018 1.0035 0.96548 0.0
H667 H 0.08538 0.98312 0.96597 0.0
H668 H 0.00277 0.024 0.927 0.0
H669 H 0.9969 0.06223 0.90426 0.0
C670 C 0.88741 0.97463 0.38025 0.0
C671 C 0.88757 0.98196 0.41815 0.0
C672 C 0.93495 0.93623 0.42867 0.0
C673 C 0.93279 0.92715 0.39107 0.0
N674 N 0.89946 0.93289 0.33313 0.0
N675 N 0.90312 0.96426 0.4795 0.0
C676 C 0.9067 0.94491 0.36747 0.0
C677 C 0.90858 0.96088 0.44269 0.0
N678 N 0.87033 0.99672 0.35623 0.0
N679 N 0.96386 0.92334 0.45061 0.0
H680 H 0.88376 0.98192 0.49074 0.0
H681 H 0.91467 0.94728 0.49852 0.0
H682 H 0.98536 0.90659 0.44153 0.0
H683 H 0.96913 0.93211 0.47703 0.0
H684 H 0.87329 0.99464 0.328 0.0
H685 H 0.85585 0.01875 0.36446 0.0
H686 H 0.87777 0.94274 0.31605 0.0
H687 H 0.91232 0.91082 0.32317 0.0
C688 C 0.37671 0.32912 0.20443 0.0
C689 C 0.37708 0.35895 0.18274 0.0
C690 C 0.42623 0.38456 0.22309 0.0
C691 C 0.4238 0.35586 0.2468 0.0
N692 N 0.38976 0.30405 0.26356 0.0
N693 N 0.3933 0.4184 0.17725 0.0
C694 C 0.39685 0.3291 0.23856 0.0
C695 C 0.39878 0.3878 0.19417 0.0
N696 N 0.35859 0.30034 0.19184 0.0
N697 N 0.45651 0.4074 0.22588 0.0
H698 H 0.37316 0.42176 0.15602 0.0
H699 H 0.40562 0.441 0.18688 0.0
H700 H 0.47961 0.40513 0.24433 0.0
H701 H 0.46138 0.42655 0.20671 0.0
H702 H 0.36131 0.27675 0.2045 0.0
H703 H 0.3433 0.29944 0.16714 0.0
H704 H 0.36749 0.28599 0.26057 0.0
H705 H 0.40355 0.30321 0.28893 0.0
C706 C 0.59385 0.68091 0.68036 0.0
C707 C 0.6289 0.66163 0.68212 0.0
C708 C 0.61903 0.65472 0.74808 0.0
C709 C 0.58038 0.66793 0.74457 0.0
N710 N 0.52835 0.68688 0.70421 0.0
N711 N 0.67289 0.62641 0.71753 0.0
C712 C 0.56711 0.67965 0.70996 0.0
C713 C 0.64128 0.64771 0.71604 0.0
N714 N 0.58593 0.70027 0.65026 0.0
N715 N 0.63478 0.64955 0.78196 0.0
H716 H 0.68959 0.6201 0.69468 0.0
H717 H 0.68041 0.61276 0.7409 0.0
H718 H 0.61973 0.65557 0.80593 0.0
H719 H 0.66403 0.64268 0.78612 0.0
H720 H 0.5623 0.71706 0.64903 0.0
H721 H 0.60537 0.70226 0.6283 0.0
H722 H 0.51683 0.69244 0.6785 0.0
H723 H 0.50688 0.68315 0.72398 0.0
C724 C 0.64266 0.35163 0.21276 0.0
C725 C 0.6255 0.34565 0.17798 0.0
C726 C 0.56396 0.32799 0.20737 0.0
C727 C 0.57923 0.33866 0.24156 0.0
N728 N 0.632 0.36286 0.27716 0.0
N729 N 0.56821 0.33227 0.14153 0.0
C730 C 0.61842 0.3509 0.24443 0.0
C731 C 0.58578 0.33463 0.17508 0.0
N732 N 0.68224 0.35746 0.21546 0.0
N733 N 0.52868 0.31128 0.2058 0.0
H734 H 0.58297 0.3371 0.11711 0.0
H735 H 0.53814 0.32833 0.13796 0.0
H736 H 0.51221 0.3056 0.22899 0.0
H737 H 0.51771 0.30001 0.18213 0.0
H738 H 0.69723 0.35876 0.24024 0.0
H739 H 0.70076 0.35806 0.19275 0.0
H740 H 0.65859 0.37578 0.28022 0.0
H741 H 0.61545 0.36166 0.30108 0.0
C742 C 0.39311 0.70127 0.69534 0.0
C743 C 0.37043 0.67135 0.69016 0.0
C744 C 0.38958 0.65147 0.75088 0.0
C745 C 0.4186 0.67735 0.75253 0.0
N746 N 0.44758 0.7283 0.72683 0.0
N747 N 0.3475 0.617 0.71238 0.0
C748 C 0.41976 0.70315 0.7253 0.0
C749 C 0.36827 0.64636 0.718 0.0
N750 N 0.38906 0.72776 0.67148 0.0
N751 N 0.38175 0.63242 0.78122 0.0
H752 H 0.33092 0.61247 0.68888 0.0
H753 H 0.34884 0.59621 0.72996 0.0
H754 H 0.39523 0.63737 0.80626 0.0
H755 H 0.3588 0.61487 0.78274 0.0
H756 H 0.40186 0.75155 0.67546 0.0
H757 H 0.36975 0.72687 0.6493 0.0
H758 H 0.4531 0.74509 0.70546 0.0
H759 H 0.46713 0.73123 0.74852 0.0
C760 C 0.86498 0.86523 0.22078 0.0
C761 C 0.87695 0.85469 0.18536 0.0
C762 C 0.94167 0.83989 0.20931 0.0
C763 C 0.929 0.8477 0.24525 0.0
N764 N 0.87499 0.85909 0.28606 0.0
N765 N 0.92205 0.82171 0.149 0.0
C766 C 0.88945 0.85766 0.25131 0.0
C767 C 0.91371 0.83841 0.18076 0.0
N768 N 0.8315 0.88387 0.2252 0.0
N769 N 0.98072 0.83664 0.20162 0.0
H770 H 0.90169 0.81938 0.12777 0.0
H771 H 0.94738 0.80716 0.14558 0.0
H772 H 0.00246 0.84116 0.22101 0.0
H773 H 0.9915 0.83394 0.17513 0.0
H774 H 0.82383 0.89513 0.24994 0.0
H775 H 0.81315 0.89051 0.20355 0.0
H776 H 0.84541 0.86338 0.29185 0.0
H777 H 0.89186 0.8526 0.30884 0.0
C778 C 0.09785 0.12793 0.68465 0.0
C779 C 0.13048 0.15038 0.68211 0.0
C780 C 0.11474 0.17408 0.74244 0.0
C781 C 0.08044 0.15332 0.74385 0.0
N782 N 0.03598 0.11423 0.71346 0.0
N783 N 0.16852 0.19704 0.70618 0.0
C784 C 0.07126 0.13104 0.71434 0.0
C785 C 0.13849 0.17414 0.71033 0.0
N786 N 0.09222 0.1034 0.65862 0.0
N787 N 0.12539 0.19273 0.77237 0.0
H788 H 0.1876 0.19671 0.68388 0.0
H789 H 0.17319 0.2176 0.72355 0.0
H790 H 0.10864 0.19338 0.79615 0.0
H791 H 0.15213 0.20549 0.77487 0.0
H792 H 0.07268 0.08315 0.66167 0.0
H793 H 0.10879 0.1018 0.63474 0.0
H794 H 0.02513 0.10174 0.69047 0.0
H795 H 0.01575 0.11473 0.73463 0.0
C796 C 0.10127 0.82553 0.18386 0.0
C797 C 0.136 0.84572 0.18546 0.0
C798 C 0.12483 0.85578 0.25077 0.0
C799 C 0.09039 0.83541 0.24891 0.0
N800 N 0.05431 0.79135 0.21734 0.0
N801 N 0.18647 0.87218 0.2222 0.0
C802 C 0.08162 0.81691 0.21673 0.0
C803 C 0.14958 0.85844 0.21955 0.0
N804 N 0.08526 0.81664 0.15092 0.0
N805 N 0.13364 0.87275 0.2823 0.0
H806 H 0.20564 0.87364 0.20001 0.0
H807 H 0.19942 0.87918 0.24687 0.0
H808 H 0.11808 0.86885 0.30649 0.0
H809 H 0.15539 0.8914 0.28413 0.0
H810 H 0.05774 0.80509 0.14841 0.0
H811 H 0.09731 0.82384 0.12592 0.0
H812 H 0.04966 0.77498 0.19536 0.0
H813 H 0.03882 0.78456 0.24078 0.0
C814 C 0.90765 0.19589 0.68336 0.0
C815 C 0.88057 0.16883 0.67812 0.0
C816 C 0.89201 0.14994 0.74095 0.0
C817 C 0.92427 0.17272 0.74354 0.0
N818 N 0.96518 0.21604 0.71578 0.0
N819 N 0.8491 0.11788 0.70088 0.0
C820 C 0.93245 0.19577 0.71461 0.0
C821 C 0.87289 0.14544 0.70678 0.0
N822 N 0.90949 0.22173 0.65845 0.0
N823 N 0.87935 0.13303 0.77136 0.0
H824 H 0.83467 0.11341 0.6762 0.0
H825 H 0.84616 0.09802 0.71951 0.0
H826 H 0.89195 0.13697 0.79702 0.0
H827 H 0.85386 0.11824 0.77196 0.0
H828 H 0.92594 0.2438 0.66252 0.0
H829 H 0.89146 0.22257 0.63537 0.0
H830 H 0.97512 0.23009 0.69349 0.0
H831 H 0.98422 0.21705 0.73805 0.0
loop_
_geom_bond_atom_site_label_1
_geom_bond_atom_site_label_2
_geom_bond_distance
_geom_bond_site_symmetry_2
_ccdc_geom_bond_type
C0 C1 1.386 . S
C0 C2 1.397 . S
C0 H24 0.931 . S
C1 C0 1.386 . S
C1 C5 1.397 . S
C2 C0 1.397 . S
C2 C3 1.384 . S
C2 H25 0.930 . S
C3 C2 1.384 . S
C3 C4 1.377 . S
C3 C6 1.481 . S
C4 C3 1.377 . S
C4 C5 1.389 . S
C4 H26 0.929 . S
C5 C1 1.397 . S
C5 C4 1.389 . S
C5 H27 0.931 . S
C6 C3 1.481 . S
C6 C7 1.387 . S
C6 C11 1.390 1_556 S
C7 C6 1.387 . S
C7 C8 1.401 . S
C7 H28 0.930 . S
C8 C7 1.401 . S
C8 C9 1.376 1_556 S
C8 C17 1.511 . S
C9 C8 1.376 1_554 S
C9 C10 1.392 . S
C9 H30 0.931 . S
C10 C9 1.392 . S
C10 C11 1.361 . S
C10 C12 1.500 . S
C11 C6 1.390 1_554 S
C11 C10 1.361 . S
C11 H29 0.931 . S
C12 C10 1.500 . S
C12 C13 1.371 . S
C12 C14 1.365 . S
C13 C12 1.371 . S
C13 C23 1.386 . S
C13 H31 0.931 . S
C14 C12 1.365 . S
C14 C15 1.409 . S
C14 H32 0.929 . S
C15 C14 1.409 . S
C15 C16 1.380 . S
C15 H33 0.930 . S
C16 C15 1.380 . S
C16 C23 1.357 . S
C17 C8 1.511 . S
C17 C18 1.341 . S
C17 C19 1.371 . S
C18 C17 1.341 . S
C18 C22 1.394 . S
C18 H34 0.930 . S
C19 C17 1.371 . S
C19 C20 1.392 . S
C19 H35 0.931 1_556 S
C20 C19 1.392 . S
C20 C21 1.331 . S
C20 H38 0.932 . S
C21 C20 1.331 . S
C21 C22 1.336 . S
C22 C18 1.394 . S
C22 C21 1.336 . S
C22 H37 0.929 . S
C23 C13 1.386 . S
C23 C16 1.357 . S
C23 H36 0.928 . S
H24 C0 0.931 . S
H25 C2 0.930 . S
H26 C4 0.929 . S
H27 C5 0.931 . S
H28 C7 0.930 . S
H29 C11 0.931 . S
H30 C9 0.931 . S
H31 C13 0.931 . S
H32 C14 0.929 . S
H33 C15 0.930 . S
H34 C18 0.930 . S
H35 C19 0.931 1_554 S
H36 C23 0.928 . S
H37 C22 0.929 . S
H38 C20 0.932 . S
C39 C40 1.386 . S
C39 C41 1.397 . S
C39 H63 0.931 . S
C40 C39 1.386 . S
C40 C44 1.397 . S
C41 C39 1.397 . S
C41 C42 1.384 . S
C41 H64 0.930 . S
C42 C41 1.384 . S
C42 C43 1.377 . S
C42 C45 1.481 . S
C43 C42 1.377 . S
C43 C44 1.389 . S
C43 H65 0.929 . S
C44 C40 1.397 . S
C44 C43 1.389 . S
C44 H66 0.931 . S
C45 C42 1.481 . S
C45 C46 1.387 . S
C45 C50 1.390 . S
C46 C45 1.387 . S
C46 C47 1.401 . S
C46 H67 0.930 . S
C47 C46 1.401 . S
C47 C48 1.376 . S
C47 C56 1.511 . S
C48 C47 1.376 . S
C48 C49 1.392 . S
C48 H69 0.931 . S
C49 C48 1.392 . S
C49 C50 1.361 . S
C49 C51 1.500 . S
C50 C45 1.390 . S
C50 C49 1.361 . S
C50 H68 0.931 . S
C51 C49 1.500 . S
C51 C52 1.371 . S
C51 C53 1.365 . S
C52 C51 1.371 . S
C52 C62 1.386 . S
C52 H70 0.931 . S
C53 C51 1.365 . S
C53 C54 1.409 . S
C53 H71 0.929 . S
C54 C53 1.409 . S
C54 C55 1.380 . S
C54 H72 0.930 . S
C55 C54 1.380 . S
C55 C62 1.357 . S
C56 C47 1.511 . S
C56 C57 1.341 . S
C56 C58 1.371 . S
C57 C56 1.341 . S
C57 C61 1.394 . S
C57 H73 0.930 . S
C58 C56 1.371 . S
C58 C59 1.392 . S
C58 H74 0.931 . S
C59 C58 1.392 . S
C59 C60 1.331 . S
C59 H77 0.932 . S
C60 C59 1.331 . S
C60 C61 1.336 . S
C61 C57 1.394 . S
C61 C60 1.336 . S
C61 H76 0.929 . S
C62 C52 1.386 . S
C62 C55 1.357 . S
C62 H75 0.928 . S
H63 C39 0.931 . S
H64 C41 0.930 . S
H65 C43 0.929 . S
H66 C44 0.931 . S
H67 C46 0.930 . S
H68 C50 0.931 . S
H69 C48 0.931 . S
H70 C52 0.931 . S
H71 C53 0.929 . S
H72 C54 0.930 . S
H73 C57 0.930 . S
H74 C58 0.931 . S
H75 C62 0.928 . S
H76 C61 0.929 . S
H77 C59 0.932 . S
C78 C79 1.386 . S
C78 C80 1.397 . S
C78 H102 0.931 . S
C79 C78 1.386 . S
C79 C83 1.397 . S
C80 C78 1.397 . S
C80 C81 1.384 . S
C80 H103 0.930 . S
C81 C80 1.384 . S
C81 C82 1.377 . S
C81 C84 1.481 . S
C82 C81 1.377 . S
C82 C83 1.389 . S
C82 H104 0.929 1_556 S
C83 C79 1.397 . S
C83 C82 1.389 . S
C83 H105 0.931 . S
C84 C81 1.481 . S
C84 C85 1.387 . S
C84 C89 1.390 1_556 S
C85 C84 1.387 . S
C85 C86 1.401 . S
C85 H106 0.930 . S
C86 C85 1.401 . S
C86 C87 1.376 1_556 S
C86 C95 1.511 . S
C87 C86 1.376 1_554 S
C87 C88 1.392 . S
C87 H108 0.931 . S
C88 C87 1.392 . S
C88 C89 1.361 . S
C88 C90 1.500 . S
C89 C84 1.390 1_554 S
C89 C88 1.361 . S
C89 H107 0.931 . S
C90 C88 1.500 . S
C90 C91 1.371 . S
C90 C92 1.365 . S
C91 C90 1.371 . S
C91 C101 1.386 . S
C91 H109 0.931 . S
C92 C90 1.365 . S
C92 C93 1.409 . S
C92 H110 0.929 . S
C93 C92 1.409 . S
C93 C94 1.380 . S
C93 H111 0.930 . S
C94 C93 1.380 . S
C94 C101 1.357 . S
C95 C86 1.511 . S
C95 C96 1.341 . S
C95 C97 1.371 . S
C96 C95 1.341 . S
C96 C100 1.394 . S
C96 H112 0.930 . S
C97 C95 1.371 . S
C97 C98 1.392 . S
C97 H113 0.931 1_556 S
C98 C97 1.392 . S
C98 C99 1.331 . S
C98 H116 0.932 . S
C99 C98 1.331 . S
C99 C100 1.336 . S
C100 C96 1.394 . S
C100 C99 1.336 . S
C100 H115 0.929 . S
C101 C91 1.386 . S
C101 C94 1.357 . S
C101 H114 0.928 . S
H102 C78 0.931 . S
H103 C80 0.930 . S
H104 C82 0.929 1_554 S
H105 C83 0.931 . S
H106 C85 0.930 . S
H107 C89 0.931 . S
H108 C87 0.931 . S
H109 C91 0.931 . S
H110 C92 0.929 . S
H111 C93 0.930 . S
H112 C96 0.930 . S
H113 C97 0.931 1_554 S
H114 C101 0.928 . S
H115 C100 0.929 . S
H116 C98 0.932 . S
C117 C118 1.386 . S
C117 C119 1.397 . S
C117 H141 0.931 . S
C118 C117 1.386 . S
C118 C122 1.397 . S
C119 C117 1.397 . S
C119 C120 1.384 . S
C119 H142 0.930 . S
C120 C119 1.384 . S
C120 C121 1.377 . S
C120 C123 1.481 . S
C121 C120 1.377 . S
C121 C122 1.389 . S
C121 H143 0.929 . S
C122 C118 1.397 . S
C122 C121 1.389 . S
C122 H144 0.931 . S
C123 C120 1.481 . S
C123 C124 1.387 . S
C123 C128 1.390 . S
C124 C123 1.387 . S
C124 C125 1.401 . S
C124 H145 0.930 . S
C125 C124 1.401 . S
C125 C126 1.376 . S
C125 C134 1.511 . S
C126 C125 1.376 . S
C126 C127 1.392 . S
C126 H147 0.931 . S
C127 C126 1.392 . S
C127 C128 1.361 . S
C127 C129 1.500 . S
C128 C123 1.390 . S
C128 C127 1.361 . S
C128 H146 0.931 . S
C129 C127 1.500 . S
C129 C130 1.371 . S
C129 C131 1.365 . S
C130 C129 1.371 . S
C130 C140 1.386 . S
C130 H148 0.931 . S
C131 C129 1.365 . S
C131 C132 1.409 . S
C131 H149 0.929 . S
C132 C131 1.409 . S
C132 C133 1.380 . S
C132 H150 0.930 . S
C133 C132 1.380 . S
C133 C140 1.357 . S
C134 C125 1.511 . S
C134 C135 1.341 . S
C134 C136 1.371 . S
C135 C134 1.341 . S
C135 C139 1.394 . S
C135 H151 0.930 . S
C136 C134 1.371 . S
C136 C137 1.392 . S
C136 H152 0.931 . S
C137 C136 1.392 . S
C137 C138 1.331 . S
C137 H155 0.932 . S
C138 C137 1.331 . S
C138 C139 1.336 . S
C139 C135 1.394 . S
C139 C138 1.336 . S
C139 H154 0.929 . S
C140 C130 1.386 . S
C140 C133 1.357 . S
C140 H153 0.928 . S
H141 C117 0.931 . S
H142 C119 0.930 . S
H143 C121 0.929 . S
H144 C122 0.931 . S
H145 C124 0.930 . S
H146 C128 0.931 . S
H147 C126 0.931 . S
H148 C130 0.931 . S
H149 C131 0.929 . S
H150 C132 0.930 . S
H151 C135 0.930 . S
H152 C136 0.931 . S
H153 C140 0.928 . S
H154 C139 0.929 . S
H155 C137 0.932 . S
C156 C157 1.386 . S
C156 C158 1.397 1_545 S
C156 H180 0.931 . S
C157 C156 1.386 . S
C157 C161 1.397 1_545 S
C158 C156 1.397 1_565 S
C158 C159 1.384 . S
C158 H181 0.930 . S
C159 C158 1.384 . S
C159 C160 1.377 . S
C159 C162 1.481 . S
C160 C159 1.377 . S
C160 C161 1.389 . S
C160 H182 0.929 . S
C161 C157 1.397 1_565 S
C161 C160 1.389 . S
C161 H183 0.931 . S
C162 C159 1.481 . S
C162 C163 1.387 . S
C162 C167 1.390 1_556 S
C163 C162 1.387 . S
C163 C164 1.401 . S
C163 H184 0.930 . S
C164 C163 1.401 . S
C164 C165 1.376 1_556 S
C164 C173 1.511 . S
C165 C164 1.376 1_554 S
C165 C166 1.392 . S
C165 H186 0.931 . S
C166 C165 1.392 . S
C166 C167 1.361 . S
C166 C168 1.500 . S
C167 C162 1.390 1_554 S
C167 C166 1.361 . S
C167 H185 0.931 . S
C168 C166 1.500 . S
C168 C169 1.371 . S
C168 C170 1.365 . S
C169 C168 1.371 . S
C169 C179 1.386 . S
C169 H187 0.931 . S
C170 C168 1.365 . S
C170 C171 1.409 . S
C170 H188 0.929 . S
C171 C170 1.409 . S
C171 C172 1.380 . S
C171 H189 0.930 . S
C172 C171 1.380 . S
C172 C179 1.357 . S
C173 C164 1.511 . S
C173 C174 1.341 . S
C173 C175 1.371 . S
C174 C173 1.341 . S
C174 C178 1.394 . S
C174 H190 0.930 . S
C175 C173 1.371 . S
C175 C176 1.392 . S
C175 H191 0.931 1_556 S
C176 C175 1.392 . S
C176 C177 1.331 . S
C176 H194 0.932 . S
C177 C176 1.331 . S
C177 C178 1.336 . S
C178 C174 1.394 . S
C178 C177 1.336 . S
C178 H193 0.929 . S
C179 C169 1.386 . S
C179 C172 1.357 . S
C179 H192 0.928 . S
H180 C156 0.931 . S
H181 C158 0.930 . S
H182 C160 0.929 . S
H183 C161 0.931 . S
H184 C163 0.930 . S
H185 C167 0.931 . S
H186 C165 0.931 . S
H187 C169 0.931 . S
H188 C170 0.929 . S
H189 C171 0.930 . S
H190 C174 0.930 . S
H191 C175 0.931 1_554 S
H192 C179 0.928 . S
H193 C178 0.929 . S
H194 C176 0.932 . S
C195 C196 1.386 . S
C195 C197 1.397 1_565 S
C195 H219 0.931 . S
C196 C195 1.386 . S
C196 C200 1.397 1_565 S
C197 C195 1.397 1_545 S
C197 C198 1.384 . S
C197 H220 0.930 . S
C198 C197 1.384 . S
C198 C199 1.377 . S
C198 C201 1.481 . S
C199 C198 1.377 . S
C199 C200 1.389 . S
C199 H221 0.929 . S
C200 C196 1.397 1_545 S
C200 C199 1.389 . S
C200 H222 0.931 . S
C201 C198 1.481 . S
C201 C202 1.387 . S
C201 C206 1.390 . S
C202 C201 1.387 . S
C202 C203 1.401 . S
C202 H223 0.930 . S
C203 C202 1.401 . S
C203 C204 1.376 . S
C203 C212 1.511 . S
C204 C203 1.376 . S
C204 C205 1.392 . S
C204 H225 0.931 . S
C205 C204 1.392 . S
C205 C206 1.361 . S
C205 C207 1.500 . S
C206 C201 1.390 . S
C206 C205 1.361 . S
C206 H224 0.931 . S
C207 C205 1.500 . S
C207 C208 1.371 . S
C207 C209 1.365 . S
C208 C207 1.371 . S
C208 C218 1.386 . S
C208 H226 0.931 . S
C209 C207 1.365 . S
C209 C210 1.409 . S
C209 H227 0.929 . S
C210 C209 1.409 . S
C210 C211 1.380 . S
C210 H228 0.930 . S
C211 C210 1.380 . S
C211 C218 1.357 . S
C212 C203 1.511 . S
C212 C213 1.341 . S
C212 C214 1.371 . S
C213 C212 1.341 . S
C213 C217 1.394 . S
C213 H229 0.930 . S
C214 C212 1.371 . S
C214 C215 1.392 . S
C214 H230 0.931 . S
C215 C214 1.392 . S
C215 C216 1.331 . S
C215 H233 0.932 . S
C216 C215 1.331 . S
C216 C217 1.336 . S
C217 C213 1.394 . S
C217 C216 1.336 . S
C217 H232 0.929 . S
C218 C208 1.386 . S
C218 C211 1.357 . S
C218 H231 0.928 . S
H219 C195 0.931 . S
H220 C197 0.930 . S
H221 C199 0.929 . S
H222 C200 0.931 . S
H223 C202 0.930 . S
H224 C206 0.931 . S
H225 C204 0.931 . S
H226 C208 0.931 . S
H227 C209 0.929 . S
H228 C210 0.930 . S
H229 C213 0.930 . S
H230 C214 0.931 . S
H231 C218 0.928 . S
H232 C217 0.929 . S
H233 C215 0.932 . S
C234 C235 1.386 1_565 S
C234 C236 1.397 . S
C234 H258 0.931 . S
C235 C234 1.386 1_545 S
C235 C239 1.397 . S
C236 C234 1.397 . S
C236 C237 1.384 . S
C236 H259 0.930 . S
C237 C236 1.384 . S
C237 C238 1.377 . S
C237 C240 1.481 . S
C238 C237 1.377 . S
C238 C239 1.389 1_565 S
C238 H260 0.929 1_556 S
C239 C235 1.397 . S
C239 C238 1.389 1_545 S
C239 H261 0.931 . S
C240 C237 1.481 . S
C240 C241 1.387 . S
C240 C245 1.390 1_556 S
C241 C240 1.387 . S
C241 C242 1.401 . S
C241 H262 0.930 . S
C242 C241 1.401 . S
C242 C243 1.376 1_556 S
C242 C251 1.511 . S
C243 C242 1.376 1_554 S
C243 C244 1.392 . S
C243 H264 0.931 . S
C244 C243 1.392 . S
C244 C245 1.361 . S
C244 C246 1.500 . S
C245 C240 1.390 1_554 S
C245 C244 1.361 . S
C245 H263 0.931 . S
C246 C244 1.500 . S
C246 C247 1.371 . S
C246 C248 1.365 . S
C247 C246 1.371 . S
C247 C257 1.386 . S
C247 H265 0.931 . S
C248 C246 1.365 . S
C248 C249 1.409 . S
C248 H266 0.929 . S
C249 C248 1.409 . S
C249 C250 1.380 . S
C249 H267 0.930 . S
C250 C249 1.380 . S
C250 C257 1.357 . S
C251 C242 1.511 . S
C251 C252 1.341 . S
C251 C253 1.371 . S
C252 C251 1.341 . S
C252 C256 1.394 . S
C252 H268 0.930 . S
C253 C251 1.371 . S
C253 C254 1.392 . S
C253 H269 0.931 1_556 S
C254 C253 1.392 . S
C254 C255 1.331 . S
C254 H272 0.932 . S
C255 C254 1.331 . S
C255 C256 1.336 . S
C256 C252 1.394 . S
C256 C255 1.336 . S
C256 H271 0.929 . S
C257 C247 1.386 . S
C257 C250 1.357 . S
C257 H270 0.928 . S
H258 C234 0.931 . S
H259 C236 0.930 . S
H260 C238 0.929 1_554 S
H261 C239 0.931 . S
H262 C241 0.930 . S
H263 C245 0.931 . S
H264 C243 0.931 . S
H265 C247 0.931 . S
H266 C248 0.929 . S
H267 C249 0.930 . S
H268 C252 0.930 . S
H269 C253 0.931 1_554 S
H270 C257 0.928 . S
H271 C256 0.929 . S
H272 C254 0.932 . S
C273 C274 1.386 . S
C273 C275 1.397 . S
C273 H297 0.931 . S
C274 C273 1.386 . S
C274 C278 1.397 . S
C275 C273 1.397 . S
C275 C276 1.384 . S
C275 H298 0.930 . S
C276 C275 1.384 . S
C276 C277 1.377 . S
C276 C279 1.481 . S
C277 C276 1.377 . S
C277 C278 1.389 . S
C277 H299 0.929 . S
C278 C274 1.397 . S
C278 C277 1.389 . S
C278 H300 0.931 . S
C279 C276 1.481 . S
C279 C280 1.387 . S
C279 C284 1.390 . S
C280 C279 1.387 . S
C280 C281 1.401 . S
C280 H301 0.930 . S
C281 C280 1.401 . S
C281 C282 1.376 . S
C281 C290 1.511 . S
C282 C281 1.376 . S
C282 C283 1.392 . S
C282 H303 0.931 . S
C283 C282 1.392 . S
C283 C284 1.361 . S
C283 C285 1.500 . S
C284 C279 1.390 . S
C284 C283 1.361 . S
C284 H302 0.931 . S
C285 C283 1.500 . S
C285 C286 1.371 . S
C285 C287 1.365 . S
C286 C285 1.371 . S
C286 C296 1.386 1_545 S
C286 H304 0.931 . S
C287 C285 1.365 . S
C287 C288 1.409 . S
C287 H305 0.929 . S
C288 C287 1.409 . S
C288 C289 1.380 1_545 S
C288 H306 0.930 1_545 S
C289 C288 1.380 1_565 S
C289 C296 1.357 . S
C290 C281 1.511 . S
C290 C291 1.341 . S
C290 C292 1.371 . S
C291 C290 1.341 . S
C291 C295 1.394 . S
C291 H307 0.930 . S
C292 C290 1.371 . S
C292 C293 1.392 . S
C292 H308 0.931 . S
C293 C292 1.392 . S
C293 C294 1.331 . S
C293 H311 0.932 . S
C294 C293 1.331 . S
C294 C295 1.336 . S
C295 C291 1.394 . S
C295 C294 1.336 . S
C295 H310 0.929 . S
C296 C286 1.386 1_565 S
C296 C289 1.357 . S
C296 H309 0.928 . S
H297 C273 0.931 . S
H298 C275 0.930 . S
H299 C277 0.929 . S
H300 C278 0.931 . S
H301 C280 0.930 . S
H302 C284 0.931 . S
H303 C282 0.931 . S
H304 C286 0.931 . S
H305 C287 0.929 . S
H306 C288 0.930 1_565 S
H307 C291 0.930 . S
H308 C292 0.931 . S
H309 C296 0.928 . S
H310 C295 0.929 . S
H311 C293 0.932 . S
Fe312 O314 1.918 . S
Fe312 O317 1.997 1_455 S
Fe312 O318 2.002 1_455 S
Fe312 O323 1.976 . S
Fe312 O326 1.996 . S
Fe313 O314 1.918 . S
Fe313 O321 1.997 1_455 S
Fe313 O324 1.996 . S
Fe313 O328 1.976 . S
Fe313 O331 2.002 1_455 S
O314 Fe312 1.918 . S
O314 Fe313 1.918 . S
O314 Fe315 1.918 . S
Fe315 O314 1.918 . S
Fe315 O316 2.002 1_455 S
Fe315 O325 1.976 . S
Fe315 O329 1.996 . S
Fe315 O332 1.997 1_455 S
O316 Fe315 2.002 1_655 S
O316 C333 1.295 . S
O317 Fe312 1.997 1_655 S
O317 C333 1.235 . S
O318 Fe312 2.002 1_655 S
O318 C319 1.295 . S
C319 O318 1.295 . S
C319 O321 1.235 . S
C320 O325 1.287 . S
C320 O326 1.255 . S
O321 Fe313 1.997 1_655 S
O321 C319 1.235 . S
C322 O328 1.287 . S
C322 O329 1.255 . S
O323 Fe312 1.976 . S
O323 C330 1.287 . S
O324 Fe313 1.996 . S
O324 C330 1.255 . S
O325 Fe315 1.976 . S
O325 C320 1.287 . S
O326 Fe312 1.996 . S
O326 C320 1.255 . S
C327 O331 1.295 . S
C327 O332 1.235 . S
O328 Fe313 1.976 . S
O328 C322 1.287 . S
O329 Fe315 1.996 . S
O329 C322 1.255 . S
C330 O323 1.287 . S
C330 O324 1.255 . S
O331 Fe313 2.002 1_655 S
O331 C327 1.295 . S
O332 Fe315 1.997 1_655 S
O332 C327 1.235 . S
C333 O316 1.295 . S
C333 O317 1.235 . S
Fe334 O336 1.918 . S
Fe334 O339 1.997 1_655 S
Fe334 O340 2.002 1_655 S
Fe334 O345 1.976 . S
Fe334 O348 1.996 . S
Fe335 O336 1.918 . S
Fe335 O343 1.997 1_655 S
Fe335 O346 1.996 . S
Fe335 O350 1.976 . S
Fe335 O353 2.002 1_655 S
O336 Fe334 1.918 . S
O336 Fe335 1.918 . S
O336 Fe337 1.918 . S
Fe337 O336 1.918 . S
Fe337 O338 2.002 1_655 S
Fe337 O347 1.976 . S
Fe337 O351 1.996 . S
Fe337 O354 1.997 1_655 S
O338 Fe337 2.002 1_455 S
O338 C355 1.295 . S
O339 Fe334 1.997 1_455 S
O339 C355 1.235 . S
O340 Fe334 2.002 1_455 S
O340 C341 1.295 . S
C341 O340 1.295 . S
C341 O343 1.235 . S
C342 O347 1.287 . S
C342 O348 1.255 . S
O343 Fe335 1.997 1_455 S
O343 C341 1.235 . S
C344 O350 1.287 . S
C344 O351 1.255 . S
O345 Fe334 1.976 . S
O345 C352 1.287 . S
O346 Fe335 1.996 . S
O346 C352 1.255 . S
O347 Fe337 1.976 . S
O347 C342 1.287 . S
O348 Fe334 1.996 . S
O348 C342 1.255 . S
C349 O353 1.295 . S
C349 O354 1.235 . S
O350 Fe335 1.976 . S
O350 C344 1.287 . S
O351 Fe337 1.996 . S
O351 C344 1.255 . S
C352 O345 1.287 . S
C352 O346 1.255 . S
O353 Fe335 2.002 1_455 S
O353 C349 1.295 . S
O354 Fe337 1.997 1_455 S
O354 C349 1.235 . S
C355 O338 1.295 . S
C355 O339 1.235 . S
Fe356 O358 1.918 . S
Fe356 O361 1.997 . S
Fe356 O362 2.002 . S
Fe356 O367 1.976 . S
Fe356 O370 1.996 . S
Fe357 O358 1.918 . S
Fe357 O365 1.997 . S
Fe357 O368 1.996 . S
Fe357 O372 1.976 . S
Fe357 O375 2.002 . S
O358 Fe356 1.918 . S
O358 Fe357 1.918 . S
O358 Fe359 1.918 . S
Fe359 O358 1.918 . S
Fe359 O360 2.002 . S
Fe359 O369 1.976 . S
Fe359 O373 1.996 . S
Fe359 O376 1.997 . S
O360 Fe359 2.002 . S
O360 C377 1.295 . S
O361 Fe356 1.997 . S
O361 C377 1.235 . S
O362 Fe356 2.002 . S
O362 C363 1.295 . S
C363 O362 1.295 . S
C363 O365 1.235 . S
C364 O369 1.287 . S
C364 O370 1.255 . S
O365 Fe357 1.997 . S
O365 C363 1.235 . S
C366 O372 1.287 . S
C366 O373 1.255 . S
O367 Fe356 1.976 . S
O367 C374 1.287 . S
O368 Fe357 1.996 . S
O368 C374 1.255 . S
O369 Fe359 1.976 . S
O369 C364 1.287 . S
O370 Fe356 1.996 . S
O370 C364 1.255 . S
C371 O375 1.295 . S
C371 O376 1.235 . S
O372 Fe357 1.976 . S
O372 C366 1.287 . S
O373 Fe359 1.996 . S
O373 C366 1.255 . S
C374 O367 1.287 . S
C374 O368 1.255 . S
O375 Fe357 2.002 . S
O375 C371 1.295 . S
O376 Fe359 1.997 . S
O376 C371 1.235 . S
C377 O360 1.295 . S
C377 O361 1.235 . S
Fe378 O380 1.918 . S
Fe378 O383 1.997 . S
Fe378 O384 2.002 . S
Fe378 O389 1.976 . S
Fe378 O392 1.996 . S
Fe379 O380 1.918 . S
Fe379 O387 1.997 . S
Fe379 O390 1.996 . S
Fe379 O394 1.976 . S
Fe379 O397 2.002 . S
O380 Fe378 1.918 . S
O380 Fe379 1.918 . S
O380 Fe381 1.918 . S
Fe381 O380 1.918 . S
Fe381 O382 2.002 . S
Fe381 O391 1.976 . S
Fe381 O395 1.996 . S
Fe381 O398 1.997 . S
O382 Fe381 2.002 . S
O382 C399 1.295 . S
O383 Fe378 1.997 . S
O383 C399 1.235 . S
O384 Fe378 2.002 . S
O384 C385 1.295 . S
C385 O384 1.295 . S
C385 O387 1.235 . S
C386 O391 1.287 . S
C386 O392 1.255 . S
O387 Fe379 1.997 . S
O387 C385 1.235 . S
C388 O394 1.287 . S
C388 O395 1.255 . S
O389 Fe378 1.976 . S
O389 C396 1.287 . S
O390 Fe379 1.996 . S
O390 C396 1.255 . S
O391 Fe381 1.976 . S
O391 C386 1.287 . S
O392 Fe378 1.996 . S
O392 C386 1.255 . S
C393 O397 1.295 . S
C393 O398 1.235 . S
O394 Fe379 1.976 . S
O394 C388 1.287 . S
O395 Fe381 1.996 . S
O395 C388 1.255 . S
C396 O389 1.287 . S
C396 O390 1.255 . S
O397 Fe379 2.002 . S
O397 C393 1.295 . S
O398 Fe381 1.997 . S
O398 C393 1.235 . S
C399 O382 1.295 . S
C399 O383 1.235 . S
C400 C401 1.363 . S
C400 C406 1.379 . S
C400 N408 1.356 . S
C401 C400 1.363 . S
C401 C407 1.363 . S
C402 C403 1.363 . S
C402 C407 1.379 . S
C402 N409 1.356 . S
C403 C402 1.363 . S
C403 C406 1.363 . S
N404 C406 1.356 . S
N404 H416 0.984 . S
N404 H417 0.985 . S
N405 C407 1.356 . S
N405 H410 0.984 . S
N405 H411 0.985 . S
C406 C400 1.379 . S
C406 C403 1.363 . S
C406 N404 1.356 . S
C407 C401 1.363 . S
C407 C402 1.379 . S
C407 N405 1.356 . S
N408 C400 1.356 . S
N408 H414 0.984 . S
N408 H415 0.984 . S
N409 C402 1.356 . S
N409 H412 0.984 . S
N409 H413 0.985 . S
H410 N405 0.984 . S
H411 N405 0.985 . S
H412 N409 0.984 . S
H413 N409 0.985 . S
H414 N408 0.984 . S
H415 N408 0.984 . S
H416 N404 0.984 . S
H417 N404 0.985 . S
C418 C419 1.363 . S
C418 C424 1.379 . S
C418 N426 1.356 . S
C419 C418 1.363 . S
C419 C425 1.363 . S
C420 C421 1.363 . S
C420 C425 1.379 . S
C420 N427 1.356 . S
C421 C420 1.363 . S
C421 C424 1.363 . S
N422 C424 1.356 . S
N422 H434 0.984 . S
N422 H435 0.985 . S
N423 C425 1.356 . S
N423 H428 0.984 . S
N423 H429 0.985 . S
C424 C418 1.379 . S
C424 C421 1.363 . S
C424 N422 1.356 . S
C425 C419 1.363 . S
C425 C420 1.379 . S
C425 N423 1.356 . S
N426 C418 1.356 . S
N426 H432 0.984 . S
N426 H433 0.984 . S
N427 C420 1.356 . S
N427 H430 0.984 . S
N427 H431 0.985 . S
H428 N423 0.984 . S
H429 N423 0.985 . S
H430 N427 0.984 . S
H431 N427 0.985 . S
H432 N426 0.984 . S
H433 N426 0.984 . S
H434 N422 0.984 . S
H435 N422 0.985 . S
C436 C437 1.363 . S
C436 C442 1.379 . S
C436 N444 1.356 . S
C437 C436 1.363 . S
C437 C443 1.363 . S
C438 C439 1.363 . S
C438 C443 1.379 . S
C438 N445 1.356 . S
C439 C438 1.363 . S
C439 C442 1.363 . S
N440 C442 1.356 . S
N440 H452 0.984 . S
N440 H453 0.985 . S
N441 C443 1.356 . S
N441 H446 0.984 . S
N441 H447 0.985 . S
C442 C436 1.379 . S
C442 C439 1.363 . S
C442 N440 1.356 . S
C443 C437 1.363 . S
C443 C438 1.379 . S
C443 N441 1.356 . S
N444 C436 1.356 . S
N444 H450 0.984 . S
N444 H451 0.984 . S
N445 C438 1.356 . S
N445 H448 0.984 . S
N445 H449 0.985 . S
H446 N441 0.984 . S
H447 N441 0.985 . S
H448 N445 0.984 . S
H449 N445 0.985 . S
H450 N444 0.984 . S
H451 N444 0.984 . S
H452 N440 0.984 . S
H453 N440 0.985 . S
C454 C455 1.363 . S
C454 C460 1.379 . S
C454 N462 1.356 . S
C455 C454 1.363 . S
C455 C461 1.363 . S
C456 C457 1.363 . S
C456 C461 1.379 . S
C456 N463 1.356 . S
C457 C456 1.363 . S
C457 C460 1.363 . S
N458 C460 1.356 . S
N458 H470 0.984 . S
N458 H471 0.985 . S
N459 C461 1.356 . S
N459 H464 0.984 . S
N459 H465 0.985 . S
C460 C454 1.379 . S
C460 C457 1.363 . S
C460 N458 1.356 . S
C461 C455 1.363 . S
C461 C456 1.379 . S
C461 N459 1.356 . S
N462 C454 1.356 . S
N462 H468 0.984 . S
N462 H469 0.984 . S
N463 C456 1.356 . S
N463 H466 0.984 . S
N463 H467 0.985 . S
H464 N459 0.984 . S
H465 N459 0.985 . S
H466 N463 0.984 . S
H467 N463 0.985 . S
H468 N462 0.984 . S
H469 N462 0.984 . S
H470 N458 0.984 . S
H471 N458 0.985 . S
C472 C473 1.363 . S
C472 C478 1.379 . S
C472 N480 1.356 . S
C473 C472 1.363 . S
C473 C479 1.363 . S
C474 C475 1.363 . S
C474 C479 1.379 . S
C474 N481 1.356 . S
C475 C474 1.363 . S
C475 C478 1.363 . S
N476 C478 1.356 . S
N476 H488 0.984 . S
N476 H489 0.985 . S
N477 C479 1.356 . S
N477 H482 0.984 . S
N477 H483 0.985 . S
C478 C472 1.379 . S
C478 C475 1.363 . S
C478 N476 1.356 . S
C479 C473 1.363 . S
C479 C474 1.379 . S
C479 N477 1.356 . S
N480 C472 1.356 . S
N480 H486 0.984 . S
N480 H487 0.984 . S
N481 C474 1.356 . S
N481 H484 0.984 . S
N481 H485 0.985 . S
H482 N477 0.984 . S
H483 N477 0.985 . S
H484 N481 0.984 . S
H485 N481 0.985 . S
H486 N480 0.984 . S
H487 N480 0.984 . S
H488 N476 0.984 . S
H489 N476 0.985 . S
C490 C491 1.363 . S
C490 C496 1.379 . S
C490 N498 1.356 . S
C491 C490 1.363 . S
C491 C497 1.363 . S
C492 C493 1.363 . S
C492 C497 1.379 . S
C492 N499 1.356 . S
C493 C492 1.363 . S
C493 C496 1.363 . S
N494 C496 1.356 . S
N494 H506 0.984 . S
N494 H507 0.985 . S
N495 C497 1.356 . S
N495 H500 0.984 . S
N495 H501 0.985 . S
C496 C490 1.379 . S
C496 C493 1.363 . S
C496 N494 1.356 . S
C497 C491 1.363 . S
C497 C492 1.379 . S
C497 N495 1.356 . S
N498 C490 1.356 . S
N498 H504 0.984 . S
N498 H505 0.984 . S
N499 C492 1.356 . S
N499 H502 0.984 . S
N499 H503 0.985 . S
H500 N495 0.984 . S
H501 N495 0.985 . S
H502 N499 0.984 . S
H503 N499 0.985 . S
H504 N498 0.984 . S
H505 N498 0.984 . S
H506 N494 0.984 . S
H507 N494 0.985 . S
C508 C509 1.363 . S
C508 C514 1.379 . S
C508 N516 1.356 . S
C509 C508 1.363 . S
C509 C515 1.363 . S
C510 C511 1.363 . S
C510 C515 1.379 . S
C510 N517 1.356 . S
C511 C510 1.363 . S
C511 C514 1.363 . S
N512 C514 1.356 . S
N512 H524 0.984 . S
N512 H525 0.985 . S
N513 C515 1.356 . S
N513 H518 0.984 . S
N513 H519 0.985 . S
C514 C508 1.379 . S
C514 C511 1.363 . S
C514 N512 1.356 . S
C515 C509 1.363 . S
C515 C510 1.379 . S
C515 N513 1.356 . S
N516 C508 1.356 . S
N516 H522 0.984 . S
N516 H523 0.984 . S
N517 C510 1.356 . S
N517 H520 0.984 . S
N517 H521 0.985 . S
H518 N513 0.984 . S
H519 N513 0.985 . S
H520 N517 0.984 . S
H521 N517 0.985 . S
H522 N516 0.984 . S
H523 N516 0.984 . S
H524 N512 0.984 . S
H525 N512 0.985 . S
C526 C527 1.363 . S
C526 C532 1.379 . S
C526 N534 1.356 . S
C527 C526 1.363 . S
C527 C533 1.363 . S
C528 C529 1.363 . S
C528 C533 1.379 . S
C528 N535 1.356 . S
C529 C528 1.363 . S
C529 C532 1.363 . S
N530 C532 1.356 . S
N530 H542 0.984 . S
N530 H543 0.985 . S
N531 C533 1.356 . S
N531 H536 0.984 . S
N531 H537 0.985 . S
C532 C526 1.379 . S
C532 C529 1.363 . S
C532 N530 1.356 . S
C533 C527 1.363 . S
C533 C528 1.379 . S
C533 N531 1.356 . S
N534 C526 1.356 . S
N534 H540 0.984 . S
N534 H541 0.984 . S
N535 C528 1.356 . S
N535 H538 0.984 . S
N535 H539 0.985 . S
H536 N531 0.984 . S
H537 N531 0.985 . S
H538 N535 0.984 . S
H539 N535 0.985 . S
H540 N534 0.984 . S
H541 N534 0.984 . S
H542 N530 0.984 . S
H543 N530 0.985 . S
C544 C545 1.363 . S
C544 C550 1.379 . S
C544 N552 1.356 . S
C545 C544 1.363 . S
C545 C551 1.363 . S
C546 C547 1.363 . S
C546 C551 1.379 . S
C546 N553 1.356 . S
C547 C546 1.363 . S
C547 C550 1.363 . S
N548 C550 1.356 . S
N548 H560 0.984 . S
N548 H561 0.985 . S
N549 C551 1.356 . S
N549 H554 0.984 . S
N549 H555 0.985 . S
C550 C544 1.379 . S
C550 C547 1.363 . S
C550 N548 1.356 . S
C551 C545 1.363 . S
C551 C546 1.379 . S
C551 N549 1.356 . S
N552 C544 1.356 . S
N552 H558 0.984 . S
N552 H559 0.984 . S
N553 C546 1.356 . S
N553 H556 0.984 . S
N553 H557 0.985 . S
H554 N549 0.984 . S
H555 N549 0.985 . S
H556 N553 0.984 . S
H557 N553 0.985 . S
H558 N552 0.984 . S
H559 N552 0.984 . S
H560 N548 0.984 . S
H561 N548 0.985 . S
C562 C563 1.363 . S
C562 C568 1.379 . S
C562 N570 1.356 . S
C563 C562 1.363 . S
C563 C569 1.363 . S
C564 C565 1.363 . S
C564 C569 1.379 . S
C564 N571 1.356 . S
C565 C564 1.363 . S
C565 C568 1.363 . S
N566 C568 1.356 . S
N566 H578 0.984 . S
N566 H579 0.985 . S
N567 C569 1.356 . S
N567 H572 0.984 . S
N567 H573 0.985 . S
C568 C562 1.379 . S
C568 C565 1.363 . S
C568 N566 1.356 . S
C569 C563 1.363 . S
C569 C564 1.379 . S
C569 N567 1.356 . S
N570 C562 1.356 . S
N570 H576 0.984 . S
N570 H577 0.984 . S
N571 C564 1.356 . S
N571 H574 0.984 . S
N571 H575 0.985 . S
H572 N567 0.984 . S
H573 N567 0.985 . S
H574 N571 0.984 . S
H575 N571 0.985 . S
H576 N570 0.984 . S
H577 N570 0.984 . S
H578 N566 0.984 . S
H579 N566 0.985 . S
C580 C581 1.363 . S
C580 C586 1.379 . S
C580 N588 1.356 . S
C581 C580 1.363 . S
C581 C587 1.363 . S
C582 C583 1.363 . S
C582 C587 1.379 . S
C582 N589 1.356 . S
C583 C582 1.363 . S
C583 C586 1.363 . S
N584 C586 1.356 . S
N584 H596 0.984 . S
N584 H597 0.985 . S
N585 C587 1.356 . S
N585 H590 0.984 . S
N585 H591 0.985 . S
C586 C580 1.379 . S
C586 C583 1.363 . S
C586 N584 1.356 . S
C587 C581 1.363 . S
C587 C582 1.379 . S
C587 N585 1.356 . S
N588 C580 1.356 . S
N588 H594 0.984 . S
N588 H595 0.984 . S
N589 C582 1.356 . S
N589 H592 0.984 . S
N589 H593 0.985 . S
H590 N585 0.984 . S
H591 N585 0.985 . S
H592 N589 0.984 . S
H593 N589 0.985 . S
H594 N588 0.984 . S
H595 N588 0.984 . S
H596 N584 0.984 . S
H597 N584 0.985 . S
C598 C599 1.363 . S
C598 C604 1.379 . S
C598 N606 1.356 . S
C599 C598 1.363 . S
C599 C605 1.363 . S
C600 C601 1.363 . S
C600 C605 1.379 . S
C600 N607 1.356 . S
C601 C600 1.363 . S
C601 C604 1.363 . S
N602 C604 1.356 . S
N602 H614 0.984 . S
N602 H615 0.985 . S
N603 C605 1.356 . S
N603 H608 0.984 . S
N603 H609 0.985 . S
C604 C598 1.379 . S
C604 C601 1.363 . S
C604 N602 1.356 . S
C605 C599 1.363 . S
C605 C600 1.379 . S
C605 N603 1.356 . S
N606 C598 1.356 . S
N606 H612 0.984 . S
N606 H613 0.984 . S
N607 C600 1.356 . S
N607 H610 0.984 . S
N607 H611 0.985 . S
H608 N603 0.984 . S
H609 N603 0.985 . S
H610 N607 0.984 . S
H611 N607 0.985 . S
H612 N606 0.984 . S
H613 N606 0.984 . S
H614 N602 0.984 . S
H615 N602 0.985 . S
C616 C617 1.363 . S
C616 C622 1.379 . S
C616 N624 1.356 1_545 S
C617 C616 1.363 . S
C617 C623 1.363 . S
C618 C619 1.363 . S
C618 C623 1.379 . S
C618 N625 1.356 . S
C619 C618 1.363 . S
C619 C622 1.363 . S
N620 C622 1.356 . S
N620 H632 0.984 . S
N620 H633 0.985 . S
N621 C623 1.356 . S
N621 H626 0.984 . S
N621 H627 0.985 . S
C622 C616 1.379 . S
C622 C619 1.363 . S
C622 N620 1.356 . S
C623 C617 1.363 . S
C623 C618 1.379 . S
C623 N621 1.356 . S
N624 C616 1.356 1_565 S
N624 H630 0.984 . S
N624 H631 0.984 . S
N625 C618 1.356 . S
N625 H628 0.984 . S
N625 H629 0.985 . S
H626 N621 0.984 . S
H627 N621 0.985 . S
H628 N625 0.984 . S
H629 N625 0.985 . S
H630 N624 0.984 . S
H631 N624 0.984 . S
H632 N620 0.984 . S
H633 N620 0.985 . S
C634 C635 1.363 . S
C634 C640 1.379 . S
C634 N642 1.356 . S
C635 C634 1.363 . S
C635 C641 1.363 . S
C636 C637 1.363 . S
C636 C641 1.379 . S
C636 N643 1.356 . S
C637 C636 1.363 . S
C637 C640 1.363 . S
N638 C640 1.356 . S
N638 H650 0.984 . S
N638 H651 0.985 . S
N639 C641 1.356 1_545 S
N639 H644 0.984 . S
N639 H645 0.985 . S
C640 C634 1.379 . S
C640 C637 1.363 . S
C640 N638 1.356 . S
C641 C635 1.363 . S
C641 C636 1.379 . S
C641 N639 1.356 1_565 S
N642 C634 1.356 . S
N642 H648 0.984 . S
N642 H649 0.984 . S
N643 C636 1.356 . S
N643 H646 0.984 . S
N643 H647 0.985 . S
H644 N639 0.984 . S
H645 N639 0.985 . S
H646 N643 0.984 . S
H647 N643 0.985 . S
H648 N642 0.984 . S
H649 N642 0.984 . S
H650 N638 0.984 . S
H651 N638 0.985 . S
C652 C653 1.363 . S
C652 C658 1.379 . S
C652 N660 1.356 . S
C653 C652 1.363 . S
C653 C659 1.363 . S
C654 C655 1.363 . S
C654 C659 1.379 . S
C654 N661 1.356 . S
C655 C654 1.363 . S
C655 C658 1.363 . S
N656 C658 1.356 . S
N656 H668 0.984 . S
N656 H669 0.985 . S
N657 C659 1.356 . S
N657 H662 0.984 . S
N657 H663 0.985 . S
C658 C652 1.379 . S
C658 C655 1.363 . S
C658 N656 1.356 . S
C659 C653 1.363 . S
C659 C654 1.379 . S
C659 N657 1.356 . S
N660 C652 1.356 . S
N660 H666 0.984 . S
N660 H667 0.984 . S
N661 C654 1.356 . S
N661 H664 0.984 . S
N661 H665 0.985 . S
H662 N657 0.984 . S
H663 N657 0.985 . S
H664 N661 0.984 . S
H665 N661 0.985 . S
H666 N660 0.984 . S
H667 N660 0.984 . S
H668 N656 0.984 . S
H669 N656 0.985 . S
C670 C671 1.363 . S
C670 C676 1.379 . S
C670 N678 1.356 . S
C671 C670 1.363 . S
C671 C677 1.363 . S
C672 C673 1.363 . S
C672 C677 1.379 . S
C672 N679 1.356 . S
C673 C672 1.363 . S
C673 C676 1.363 . S
N674 C676 1.356 . S
N674 H686 0.984 . S
N674 H687 0.985 . S
N675 C677 1.356 . S
N675 H680 0.984 . S
N675 H681 0.985 . S
C676 C670 1.379 . S
C676 C673 1.363 . S
C676 N674 1.356 . S
C677 C671 1.363 . S
C677 C672 1.379 . S
C677 N675 1.356 . S
N678 C670 1.356 . S
N678 H684 0.984 . S
N678 H685 0.984 . S
N679 C672 1.356 . S
N679 H682 0.984 . S
N679 H683 0.985 . S
H680 N675 0.984 . S
H681 N675 0.985 . S
H682 N679 0.984 . S
H683 N679 0.985 . S
H684 N678 0.984 . S
H685 N678 0.984 . S
H686 N674 0.984 . S
H687 N674 0.985 . S
C688 C689 1.363 . S
C688 C694 1.379 . S
C688 N696 1.356 . S
C689 C688 1.363 . S
C689 C695 1.363 . S
C690 C691 1.363 . S
C690 C695 1.379 . S
C690 N697 1.356 . S
C691 C690 1.363 . S
C691 C694 1.363 . S
N692 C694 1.356 . S
N692 H704 0.984 . S
N692 H705 0.985 . S
N693 C695 1.356 . S
N693 H698 0.984 . S
N693 H699 0.985 . S
C694 C688 1.379 . S
C694 C691 1.363 . S
C694 N692 1.356 . S
C695 C689 1.363 . S
C695 C690 1.379 . S
C695 N693 1.356 . S
N696 C688 1.356 . S
N696 H702 0.984 . S
N696 H703 0.984 . S
N697 C690 1.356 . S
N697 H700 0.984 . S
N697 H701 0.985 . S
H698 N693 0.984 . S
H699 N693 0.985 . S
H700 N697 0.984 . S
H701 N697 0.985 . S
H702 N696 0.984 . S
H703 N696 0.984 . S
H704 N692 0.984 . S
H705 N692 0.985 . S
C706 C707 1.363 . S
C706 C712 1.379 . S
C706 N714 1.356 . S
C707 C706 1.363 . S
C707 C713 1.363 . S
C708 C709 1.363 . S
C708 C713 1.379 . S
C708 N715 1.356 . S
C709 C708 1.363 . S
C709 C712 1.363 . S
N710 C712 1.356 . S
N710 H722 0.984 . S
N710 H723 0.985 . S
N711 C713 1.356 . S
N711 H716 0.984 . S
N711 H717 0.985 . S
C712 C706 1.379 . S
C712 C709 1.363 . S
C712 N710 1.356 . S
C713 C707 1.363 . S
C713 C708 1.379 . S
C713 N711 1.356 . S
N714 C706 1.356 . S
N714 H720 0.984 . S
N714 H721 0.984 . S
N715 C708 1.356 . S
N715 H718 0.984 . S
N715 H719 0.985 . S
H716 N711 0.984 . S
H717 N711 0.985 . S
H718 N715 0.984 . S
H719 N715 0.985 . S
H720 N714 0.984 . S
H721 N714 0.984 . S
H722 N710 0.984 . S
H723 N710 0.985 . S
C724 C725 1.363 . S
C724 C730 1.379 . S
C724 N732 1.356 . S
C725 C724 1.363 . S
C725 C731 1.363 . S
C726 C727 1.363 . S
C726 C731 1.379 . S
C726 N733 1.356 . S
C727 C726 1.363 . S
C727 C730 1.363 . S
N728 C730 1.356 . S
N728 H740 0.984 . S
N728 H741 0.985 . S
N729 C731 1.356 . S
N729 H734 0.984 . S
N729 H735 0.985 . S
C730 C724 1.379 . S
C730 C727 1.363 . S
C730 N728 1.356 . S
C731 C725 1.363 . S
C731 C726 1.379 . S
C731 N729 1.356 . S
N732 C724 1.356 . S
N732 H738 0.984 . S
N732 H739 0.984 . S
N733 C726 1.356 . S
N733 H736 0.984 . S
N733 H737 0.985 . S
H734 N729 0.984 . S
H735 N729 0.985 . S
H736 N733 0.984 . S
H737 N733 0.985 . S
H738 N732 0.984 . S
H739 N732 0.984 . S
H740 N728 0.984 . S
H741 N728 0.985 . S
C742 C743 1.363 . S
C742 C748 1.379 . S
C742 N750 1.356 . S
C743 C742 1.363 . S
C743 C749 1.363 . S
C744 C745 1.363 . S
C744 C749 1.379 . S
C744 N751 1.356 . S
C745 C744 1.363 . S
C745 C748 1.363 . S
N746 C748 1.356 . S
N746 H758 0.984 . S
N746 H759 0.985 . S
N747 C749 1.356 . S
N747 H752 0.984 . S
N747 H753 0.985 . S
C748 C742 1.379 . S
C748 C745 1.363 . S
C748 N746 1.356 . S
C749 C743 1.363 . S
C749 C744 1.379 . S
C749 N747 1.356 . S
N750 C742 1.356 . S
N750 H756 0.984 . S
N750 H757 0.984 . S
N751 C744 1.356 . S
N751 H754 0.984 . S
N751 H755 0.985 . S
H752 N747 0.984 . S
H753 N747 0.985 . S
H754 N751 0.984 . S
H755 N751 0.985 . S
H756 N750 0.984 . S
H757 N750 0.984 . S
H758 N746 0.984 . S
H759 N746 0.985 . S
C760 C761 1.363 . S
C760 C766 1.379 . S
C760 N768 1.356 . S
C761 C760 1.363 . S
C761 C767 1.363 . S
C762 C763 1.363 . S
C762 C767 1.379 . S
C762 N769 1.356 . S
C763 C762 1.363 . S
C763 C766 1.363 . S
N764 C766 1.356 . S
N764 H776 0.984 . S
N764 H777 0.985 . S
N765 C767 1.356 . S
N765 H770 0.984 . S
N765 H771 0.985 . S
C766 C760 1.379 . S
C766 C763 1.363 . S
C766 N764 1.356 . S
C767 C761 1.363 . S
C767 C762 1.379 . S
C767 N765 1.356 . S
N768 C760 1.356 . S
N768 H774 0.984 . S
N768 H775 0.984 . S
N769 C762 1.356 . S
N769 H772 0.984 . S
N769 H773 0.985 . S
H770 N765 0.984 . S
H771 N765 0.985 . S
H772 N769 0.984 . S
H773 N769 0.985 . S
H774 N768 0.984 . S
H775 N768 0.984 . S
H776 N764 0.984 . S
H777 N764 0.985 . S
C778 C779 1.363 . S
C778 C784 1.379 . S
C778 N786 1.356 . S
C779 C778 1.363 . S
C779 C785 1.363 . S
C780 C781 1.363 . S
C780 C785 1.379 . S
C780 N787 1.356 . S
C781 C780 1.363 . S
C781 C784 1.363 . S
N782 C784 1.356 . S
N782 H794 0.984 . S
N782 H795 0.985 . S
N783 C785 1.356 . S
N783 H788 0.984 . S
N783 H789 0.985 . S
C784 C778 1.379 . S
C784 C781 1.363 . S
C784 N782 1.356 . S
C785 C779 1.363 . S
C785 C780 1.379 . S
C785 N783 1.356 . S
N786 C778 1.356 . S
N786 H792 0.984 . S
N786 H793 0.984 . S
N787 C780 1.356 . S
N787 H790 0.984 . S
N787 H791 0.985 . S
H788 N783 0.984 . S
H789 N783 0.985 . S
H790 N787 0.984 . S
H791 N787 0.985 . S
H792 N786 0.984 . S
H793 N786 0.984 . S
H794 N782 0.984 . S
H795 N782 0.985 . S
C796 C797 1.363 . S
C796 C802 1.379 . S
C796 N804 1.356 . S
C797 C796 1.363 . S
C797 C803 1.363 . S
C798 C799 1.363 . S
C798 C803 1.379 . S
C798 N805 1.356 . S
C799 C798 1.363 . S
C799 C802 1.363 . S
N800 C802 1.356 . S
N800 H812 0.984 . S
N800 H813 0.985 . S
N801 C803 1.356 . S
N801 H806 0.984 . S
N801 H807 0.985 . S
C802 C796 1.379 . S
C802 C799 1.363 . S
C802 N800 1.356 . S
C803 C797 1.363 . S
C803 C798 1.379 . S
C803 N801 1.356 . S
N804 C796 1.356 . S
N804 H810 0.984 . S
N804 H811 0.984 . S
N805 C798 1.356 . S
N805 H808 0.984 . S
N805 H809 0.985 . S
H806 N801 0.984 . S
H807 N801 0.985 . S
H808 N805 0.984 . S
H809 N805 0.985 . S
H810 N804 0.984 . S
H811 N804 0.984 . S
H812 N800 0.984 . S
H813 N800 0.985 . S
C814 C815 1.363 . S
C814 C820 1.379 . S
C814 N822 1.356 . S
C815 C814 1.363 . S
C815 C821 1.363 . S
C816 C817 1.363 . S
C816 C821 1.379 . S
C816 N823 1.356 . S
C817 C816 1.363 . S
C817 C820 1.363 . S
N818 C820 1.356 . S
N818 H830 0.984 . S
N818 H831 0.985 . S
N819 C821 1.356 . S
N819 H824 0.984 . S
N819 H825 0.985 . S
C820 C814 1.379 . S
C820 C817 1.363 . S
C820 N818 1.356 . S
C821 C815 1.363 . S
C821 C816 1.379 . S
C821 N819 1.356 . S
N822 C814 1.356 . S
N822 H828 0.984 . S
N822 H829 0.984 . S
N823 C816 1.356 . S
N823 H826 0.984 . S
N823 H827 0.985 . S
H824 N819 0.984 . S
H825 N819 0.985 . S
H826 N823 0.984 . S
H827 N823 0.985 . S
H828 N822 0.984 . S
H829 N822 0.984 . S
H830 N818 0.984 . S
H831 N818 0.985 . S
C401 C21 1.580 . S
C403 C355 1.554 . S
C421 C319 1.554 . S
C419 C60 1.580 . S
C439 C342 1.557 . S
C437 C99 1.552 . S
C457 C330 1.550 . S
C455 C138 1.555 . S
C475 C399 1.554 . S
C473 C177 1.580 . S
C493 C363 1.554 . S
C491 C216 1.580 . S
C509 C255 1.552 . S
C511 C386 1.557 . S
C529 C374 1.550 . S
C527 C294 1.555 . S
C545 C1 1.546 . S
C547 C396 1.580 . S
C565 C366 1.579 . S
C563 C40 1.545 . S
C581 C79 1.573 . S
C583 C385 1.615 . S
C599 C133 1.562 . S
C601 C371 1.605 . S
C619 C352 1.580 . S
C617 C157 1.546 . S
C635 C196 1.545 . S
C637 C322 1.579 . S
C655 C341 1.615 . S
C653 C235 1.573 . S
C673 C327 1.605 . S
C671 C289 1.563 . S
C691 C377 1.589 . S
C689 C16 1.553 . S
C709 C393 1.589 . S
C707 C55 1.553 . S
C725 C94 1.532 . S
C727 C364 1.567 . S
C745 C388 1.568 . S
C743 C118 1.535 . S
C763 C333 1.588 . S
C761 C172 1.553 . S
C779 C211 1.553 . S
C781 C349 1.588 . S
C797 C250 1.532 . S
C799 C320 1.567 . S
C815 C274 1.536 . S
C817 C344 1.569 . S
