# Generated by pormake.
# Topology anh, (6,3)-cn, num edge types: 1
# Building blocks:
#     Node 0, Type 0, BuildingBlock: PAMTUU_clean_sbu_0, # of connection points: 6
#     Node 1, Type 0, BuildingBlock: PAMTUU_clean_sbu_0, # of connection points: 6
#     Node 2, Type 0, BuildingBlock: PAMTUU_clean_sbu_0, # of connection points: 6
#     Node 3, Type 1, BuildingBlock: CUQRIR_clean_linker_1, # of connection points: 3
#     Node 4, Type 1, BuildingBlock: CUQRIR_clean_linker_1, # of connection points: 3
#     Node 5, Type 1, BuildingBlock: CUQRIR_clean_linker_1, # of connection points: 3
#     Node 6, Type 1, BuildingBlock: CUQRIR_clean_linker_1, # of connection points: 3
#     Node 7, Type 1, BuildingBlock: CUQRIR_clean_linker_1, # of connection points: 3
#     Node 8, Type 1, BuildingBlock: CUQRIR_clean_linker_1, # of connection points: 3
#     Edge 9, Type (0, 1), BuildingBlock: MIFKUJ_clean_linker_0, # of connection points: 2
#     Edge 10, Type (0, 1), BuildingBlock: MIFKUJ_clean_linker_0, # of connection points: 2
#     Edge 11, Type (0, 1), BuildingBlock: MIFKUJ_clean_linker_0, # of connection points: 2
#     Edge 12, Type (0, 1), BuildingBlock: MIFKUJ_clean_linker_0, # of connection points: 2
#     Edge 13, Type (0, 1), BuildingBlock: MIFKUJ_clean_linker_0, # of connection points: 2
#     Edge 14, Type (0, 1), BuildingBlock: MIFKUJ_clean_linker_0, # of connection points: 2
#     Edge 15, Type (0, 1), BuildingBlock: MIFKUJ_clean_linker_0, # of connection points: 2
#     Edge 16, Type (0, 1), BuildingBlock: MIFKUJ_clean_linker_0, # of connection points: 2
#     Edge 17, Type (0, 1), BuildingBlock: MIFKUJ_clean_linker_0, # of connection points: 2
#     Edge 18, Type (0, 1), BuildingBlock: MIFKUJ_clean_linker_0, # of connection points: 2
#     Edge 19, Type (0, 1), BuildingBlock: MIFKUJ_clean_linker_0, # of connection points: 2
#     Edge 20, Type (0, 1), BuildingBlock: MIFKUJ_clean_linker_0, # of connection points: 2
#     Edge 21, Type (0, 1), BuildingBlock: MIFKUJ_clean_linker_0, # of connection points: 2
#     Edge 22, Type (0, 1), BuildingBlock: MIFKUJ_clean_linker_0, # of connection points: 2
#     Edge 23, Type (0, 1), BuildingBlock: MIFKUJ_clean_linker_0, # of connection points: 2
#     Edge 24, Type (0, 1), BuildingBlock: MIFKUJ_clean_linker_0, # of connection points: 2
#     Edge 25, Type (0, 1), BuildingBlock: MIFKUJ_clean_linker_0, # of connection points: 2
#     Edge 26, Type (0, 1), BuildingBlock: MIFKUJ_clean_linker_0, # of connection points: 2
# Relax obj value: 0.238
# Max RMSD: 0.212
# Mean RMSD: 0.163
data_MOF--net-anh--node1-PAMTUU_clean_sbu_0--node2-CUQRIR_clean_linker_1--edge1-MIFKUJ_clean_linker_0
_symmetry_space_group_name_H-M    P1
_symmetry_Int_Tables_number       1
_symmetry_cell_setting            triclinic
loop_
_symmetry_equiv_pos_as_xyz
'x, y, z'
_cell_length_a     36.387595
_cell_length_b     36.479735
_cell_length_c     61.855214
_cell_angle_alpha  89.486702
_cell_angle_beta   89.122159
_cell_angle_gamma 119.5972
loop_
_atom_site_label
_atom_site_type_symbol
_atom_site_fract_x
_atom_site_fract_y
_atom_site_fract_z
_atom_type_partial_charge
Tb0 Tb 0.11871 0.61383 0.15566 0.0
Tb1 Tb 0.16611 0.56586 0.17542 0.0
C2 C 0.16382 0.57941 0.12599 0.0
C3 C 1.03448 0.62853 0.13374 0.0
C4 C 0.95002 0.5819 0.12078 0.0
C5 C 0.98036 0.61531 0.10774 0.0
C6 C 1.02222 0.63844 0.1142 0.0
C7 C 1.00412 0.59624 0.1472 0.0
C8 C 0.96217 0.57331 0.14084 0.0
C9 C 1.07957 0.64621 0.13785 0.0
O10 O 1.06965 0.54661 0.15484 0.0
O11 O 1.09997 0.51589 0.17525 0.0
O12 O 0.15611 0.6007 0.20119 0.0
O13 O 1.09601 0.59699 0.18868 0.0
O14 O 0.21432 0.55015 0.17496 0.0
O15 O 0.16752 0.52835 0.20094 0.0
O16 O 0.21719 0.63063 0.16907 0.0
O17 O 0.17956 0.66594 0.16652 0.0
O18 O 0.16122 0.61264 0.13127 0.0
O19 O 0.15973 0.55162 0.14085 0.0
C20 C 1.06723 0.51371 0.16531 0.0
O21 O 1.09115 0.65264 0.15799 0.0
O22 O 1.09663 0.62735 0.12739 0.0
C23 C 0.12085 0.60148 0.20466 0.0
C24 C 0.23685 0.54823 0.21013 0.0
C25 C 0.30682 0.57872 0.2372 0.0
C26 C 0.27948 0.53507 0.2353 0.0
C27 C 0.24485 0.51996 0.22175 0.0
C28 C 0.26168 0.5917 0.21349 0.0
C29 C 0.29656 0.60688 0.22688 0.0
C30 C 0.20338 0.53237 0.19415 0.0
C31 C 0.21582 0.66611 0.16853 0.0
H32 H 0.97227 0.62245 0.09208 0.0
H33 H 1.04548 0.66263 0.10341 0.0
H34 H 1.01314 0.58756 0.16218 0.0
H35 H 0.93948 0.54832 0.15145 0.0
H36 H 0.28673 0.5126 0.24286 0.0
H37 H 0.22551 0.48628 0.21958 0.0
H38 H 0.25526 0.61394 0.20498 0.0
H39 H 0.31702 0.64063 0.2281 0.0
Tb40 Tb 0.64319 1.04605 0.4923 0.0
Tb41 Tb 0.74523 0.09664 0.49407 0.0
C42 C 0.69893 0.077 0.45032 0.0
C43 C 0.5267 0.97352 0.5038 0.0
C44 C 0.44645 0.91606 0.52138 0.0
C45 C 0.46127 0.90672 0.50225 0.0
C46 C 0.50098 0.93538 0.49346 0.0
C47 C 0.51332 0.981 0.52395 0.0
C48 C 0.47347 0.95256 0.53261 0.0
C49 C 0.56353 1.00765 0.49206 0.0
O50 O 0.66119 0.99663 0.48968 0.0
O51 O 0.72882 1.0318 0.50254 0.0
O52 O 0.71955 0.10372 0.52489 0.0
O53 O 0.6592 1.04034 0.5251 0.0
O54 O 0.80405 0.13142 0.47804 0.0
O55 O 0.80028 0.11942 0.51239 0.0
O56 O 0.72933 0.14627 0.48724 0.0
O57 O 0.66007 0.11169 0.49883 0.0
O58 O 0.66627 0.07486 0.46066 0.0
O59 O 0.72855 0.07438 0.46097 0.0
C60 C 0.69482 0.99649 0.49736 0.0
O61 O 0.58651 1.04185 0.50274 0.0
O62 O 0.58652 0.99766 0.47969 0.0
C63 C 0.68711 0.07319 0.53541 0.0
C64 C 0.84574 0.18841 0.4994 0.0
C65 C 0.87508 0.27533 0.49439 0.0
C66 C 0.89972 0.25777 0.48688 0.0
C67 C 0.88489 0.21448 0.48917 0.0
C68 C 0.82309 0.20645 0.50871 0.0
C69 C 0.83749 0.24941 0.50615 0.0
C70 C 0.82393 0.14273 0.49621 0.0
C71 C 0.69481 0.14687 0.49332 0.0
H72 H 0.44083 0.879 0.49314 0.0
H73 H 0.51037 0.92893 0.47788 0.0
H74 H 0.53238 1.01005 0.53241 0.0
H75 H 0.46272 0.96033 0.54741 0.0
H76 H 0.92943 0.27703 0.47826 0.0
H77 H 0.90264 0.20106 0.48177 0.0
H78 H 0.79253 0.18684 0.51652 0.0
H79 H 0.81739 0.26146 0.51202 0.0
Tb80 Tb 0.63978 0.56589 0.83271 0.0
Tb81 Tb 0.69299 0.66768 0.82968 0.0
C82 C 0.66474 0.61146 0.78807 0.0
C83 C 0.61116 0.46499 0.85795 0.0
C84 C 0.63011 0.42228 0.89034 0.0
C85 C 0.65988 0.44557 0.87377 0.0
C86 C 0.65061 0.46686 0.85785 0.0
C87 C 0.5821 0.44341 0.87494 0.0
C88 C 0.59156 0.4225 0.89106 0.0
C89 C 0.60141 0.48854 0.84171 0.0
O90 O 0.70557 0.5809 0.82711 0.0
O91 O 0.73954 0.64903 0.83893 0.0
O92 O 0.6631 0.65087 0.86158 0.0
O93 O 0.66706 0.59108 0.8637 0.0
O94 O 0.71766 0.72168 0.80986 0.0
O95 O 0.73114 0.7264 0.84393 0.0
O96 O 0.62763 0.65524 0.82734 0.0
O97 O 0.59065 0.58378 0.83489 0.0
O98 O 0.63416 0.58004 0.79913 0.0
O99 O 0.69574 0.64303 0.79799 0.0
C100 C 0.74002 0.61428 0.83374 0.0
O101 O 0.59101 0.51499 0.84989 0.0
O102 O 0.62739 0.50483 0.82506 0.0
C103 C 0.66264 0.62055 0.87316 0.0
C104 C 0.71779 0.77715 0.8276 0.0
C105 C 0.67769 0.82455 0.81996 0.0
C106 C 0.71865 0.83825 0.81158 0.0
C107 C 0.73856 0.8146 0.81536 0.0
C108 C 0.67826 0.7651 0.83739 0.0
C109 C 0.65834 0.78881 0.83366 0.0
C110 C 0.73282 0.74679 0.82617 0.0
C111 C 0.59189 0.62007 0.83161 0.0
H112 H 0.68956 0.44558 0.87232 0.0
H113 H 0.67417 0.48418 0.84529 0.0
H114 H 0.5519 0.44255 0.87566 0.0
H115 H 0.56808 0.40525 0.90365 0.0
H116 H 0.73437 0.86611 0.80122 0.0
H117 H 0.76886 0.82403 0.80753 0.0
H118 H 0.66156 0.7359 0.84668 0.0
H119 H 0.6267 0.77757 0.84021 0.0
C120 C 0.64695 0.08826 0.18879 0.0
N121 N 0.67483 0.11492 0.20349 0.0
N122 N 0.61319 1.05474 0.19881 0.0
C123 C 0.65278 0.09489 0.16475 0.0
C124 C 0.62165 1.06216 0.22006 0.0
N125 N 0.65852 0.09841 0.22292 0.0
C126 C 0.59484 1.03298 0.23822 0.0
H127 H 0.6658 0.12877 0.16053 0.0
H128 H 0.62251 0.07568 0.15642 0.0
H129 H 0.67591 0.08545 0.15906 0.0
H130 H 0.61365 1.02143 0.24696 0.0
H131 H 0.56552 1.00563 0.23244 0.0
H132 H 0.58614 1.05051 0.24987 0.0
C133 C 0.69359 0.57151 0.52435 0.0
N134 N 0.69057 0.59802 0.53897 0.0
N135 N 0.69194 0.53723 0.53441 0.0
C136 C 0.69429 0.5768 0.50022 0.0
C137 C 0.68793 0.54388 0.55559 0.0
N138 N 0.68667 0.58005 0.55839 0.0
C139 C 0.6875 0.51604 0.57384 0.0
H140 H 0.677 0.59346 0.4955 0.0
H141 H 0.68001 0.54573 0.49228 0.0
H142 H 0.72759 0.59562 0.49436 0.0
H143 H 0.7032 0.49785 0.56895 0.0
H144 H 0.65426 0.49362 0.57875 0.0
H145 H 0.70379 0.53528 0.58802 0.0
C146 C 0.16104 0.60559 0.86612 0.0
N147 N 0.18849 0.60358 0.88045 0.0
N148 N 0.12711 0.60427 0.87656 0.0
C149 C 0.16579 0.60661 0.84191 0.0
C150 C 0.13434 0.60073 0.89765 0.0
N151 N 0.1709 0.59979 0.90007 0.0
C152 C 1.10493 0.59696 0.91606 0.0
H153 H 0.18335 0.6399 0.83611 0.0
H154 H 0.13449 0.59149 0.83421 0.0
H155 H 0.18326 0.59031 0.83674 0.0
H156 H 1.08348 0.56307 0.91993 0.0
H157 H 1.08514 0.61116 0.91193 0.0
H158 H 0.12303 0.61222 0.93072 0.0
C159 C 1.01239 0.71239 0.44545 0.0
N160 N 1.00362 0.69218 0.42632 0.0
N161 N 1.0499 0.74883 0.44444 0.0
C162 C 0.98821 0.69312 0.46635 0.0
C163 C 1.06188 0.75177 0.42337 0.0
N164 N 1.03446 0.71719 0.41247 0.0
C165 C 1.10301 0.78664 0.41414 0.0
H166 H 0.95457 0.68415 0.46447 0.0
H167 H 1.00106 0.71553 0.47986 0.0
H168 H 0.98956 0.66415 0.47048 0.0
H169 H 0.12918 0.78148 0.41927 0.0
H170 H 0.10906 0.8174 0.42051 0.0
H171 H 1.10276 0.78801 0.39622 0.0
C172 C 0.5471 0.11967 0.77855 0.0
N173 N 0.54657 0.10591 0.75823 0.0
N174 N 0.56474 0.16211 0.77862 0.0
C175 C 0.53866 0.09269 0.79868 0.0
C176 C 0.57443 0.17376 0.75757 0.0
N177 N 0.5635 0.13967 0.74514 0.0
C178 C 0.59678 0.21881 0.74963 0.0
H179 H 0.50692 1.06431 0.79796 0.0
H180 H 0.53997 0.10969 0.81365 0.0
H181 H 0.56236 0.08198 0.79956 0.0
H182 H 0.63137 0.23221 0.75129 0.0
H183 H 0.58704 0.23779 0.75964 0.0
H184 H 0.58986 0.22107 0.73241 0.0
C185 C 0.54378 0.47946 0.12396 0.0
N186 N 0.5539 0.48341 0.10262 0.0
N187 N 0.52582 0.50308 0.12915 0.0
C188 C 0.55633 0.45686 0.14017 0.0
C189 C 0.5252 0.52156 0.11019 0.0
N190 N 0.54254 0.50978 0.0941 0.0
C191 C 0.51169 0.55425 0.10789 0.0
H192 H 0.53775 0.45021 0.15551 0.0
H193 H 0.59038 0.47692 0.14359 0.0
H194 H 0.55169 0.42675 0.13356 0.0
H195 H 0.53743 0.5849 0.11353 0.0
H196 H 0.48313 0.54568 0.11804 0.0
H197 H 0.50496 0.55796 0.09083 0.0
H198 H 0.38003 0.6348 0.21716 0.0
H199 H 0.4454 0.63405 0.21976 0.0
H200 H 0.39953 0.5575 0.27816 0.0
H201 H 0.33157 0.5554 0.27447 0.0
H202 H 0.50915 0.63932 0.23676 0.0
H203 H 0.42525 0.49048 0.27819 0.0
H204 H 0.35625 0.43494 0.29294 0.0
H205 H 0.2947 0.44661 0.23671 0.0
H206 H 0.36334 0.50252 0.22181 0.0
H207 H 0.58352 0.54105 0.16 0.0
H208 H 0.57066 0.55975 0.19639 0.0
H209 H 0.43874 0.50871 0.18169 0.0
H210 H 0.45158 0.48853 0.14596 0.0
H211 H 0.44613 0.48714 0.22149 0.0
H212 H 0.51683 0.61831 0.17634 0.0
H213 H 0.57843 0.67319 0.15571 0.0
H214 H 0.656 0.69707 0.21125 0.0
H215 H 0.59483 0.64197 0.23211 0.0
C216 C 0.38423 0.61922 0.23113 0.0
C217 C 0.35006 0.59365 0.24508 0.0
C218 C 0.42211 0.61887 0.2327 0.0
C219 C 0.42667 0.59336 0.24842 0.0
C220 C 0.39586 0.57529 0.2651 0.0
C221 C 0.35716 0.57445 0.26313 0.0
C222 C 0.4562 0.57724 0.24316 0.0
C223 C 0.49606 0.60585 0.23404 0.0
C224 C 0.44028 0.53348 0.24007 0.0
C225 C 0.39908 0.50072 0.24907 0.0
C226 C 0.3969 0.4812 0.26907 0.0
C227 C 0.35791 0.44977 0.27745 0.0
C228 C 0.3211 0.4374 0.26581 0.0
C229 C 0.3232 0.45636 0.24574 0.0
C230 C 0.36207 0.48793 0.23734 0.0
C231 C 0.55181 0.53351 0.16486 0.0
C232 C 0.51838 0.51365 0.15042 0.0
C233 C 0.54452 0.54425 0.1855 0.0
C234 C 0.50378 0.53571 0.19177 0.0
C235 C 0.4704 0.51529 0.17732 0.0
C236 C 0.47765 0.5042 0.15687 0.0
C237 C 0.49513 0.54982 0.21267 0.0
C238 C 0.4605 0.52039 0.22518 0.0
C239 C 0.51495 0.59288 0.21816 0.0
C240 C 0.55157 0.62575 0.20564 0.0
C241 C 0.54712 0.63511 0.18407 0.0
C242 C 0.58191 0.66625 0.17236 0.0
C243 C 0.62114 0.68849 0.18214 0.0
C244 C 0.62563 0.67971 0.20368 0.0
C245 C 0.59094 0.64854 0.21545 0.0
H246 H 0.64804 0.71261 0.17305 0.0
H247 H 0.29096 0.41303 0.2723 0.0
H248 H 0.86288 0.33276 0.51767 0.0
H249 H 0.87393 0.40127 0.50497 0.0
H250 H 0.92328 0.38575 0.44414 0.0
H251 H 0.91032 0.31647 0.45596 0.0
H252 H 0.96687 0.46916 0.48138 0.0
H253 H 0.85425 0.37407 0.43029 0.0
H254 H 0.78181 0.31639 0.42455 0.0
H255 H 0.73166 0.38315 0.46001 0.0
H256 H 0.80397 0.44095 0.46628 0.0
H257 H 1.03647 0.64197 0.41778 0.0
H258 H 1.00401 0.56744 0.42627 0.0
H259 H 0.88896 0.56578 0.44612 0.0
H260 H 0.91997 0.63994 0.43443 0.0
H261 H 0.86917 0.49084 0.43466 0.0
H262 H 0.96913 0.58429 0.48463 0.0
H263 H 1.0364 0.64329 0.49696 0.0
H264 H 1.10385 0.58426 0.47081 0.0
H265 H 1.03684 0.52455 0.45865 0.0
C266 C 0.87549 0.34354 0.50146 0.0
C267 C 0.88559 0.31883 0.48785 0.0
C268 C 0.88158 0.38261 0.49424 0.0
C269 C 0.89791 0.39757 0.47339 0.0
C270 C 0.90953 0.37397 0.46009 0.0
C271 C 0.90287 0.33471 0.4671 0.0
C272 C 0.90668 0.43959 0.46595 0.0
C273 C 0.94569 0.47399 0.47107 0.0
C274 C 0.87796 0.44583 0.45344 0.0
C275 C 0.83463 0.41117 0.44939 0.0
C276 C 0.8279 0.37603 0.43731 0.0
C277 C 0.78681 0.34345 0.43381 0.0
C278 C 0.75218 0.34597 0.44205 0.0
C279 C 0.75853 0.38112 0.45374 0.0
C280 C 0.79956 0.41378 0.45728 0.0
C281 C 1.00335 0.62527 0.42242 0.0
C282 C 0.98068 0.64682 0.42532 0.0
C283 C 0.98514 0.58277 0.428 0.0
C284 C 0.94487 0.5616 0.43794 0.0
C285 C 0.92046 0.58171 0.43889 0.0
C286 C 0.93813 0.624 0.43226 0.0
C287 C 0.93064 0.5204 0.44906 0.0
C288 C 0.89044 0.48626 0.44499 0.0
C289 C 0.95767 0.51449 0.46323 0.0
C290 C 0.99804 0.55013 0.47063 0.0
C291 C 0.99833 0.58396 0.48149 0.0
C292 C 1.03639 0.61745 0.48848 0.0
C293 C 1.07441 0.61765 0.48455 0.0
C294 C 1.07439 0.58409 0.47382 0.0
C295 C 1.03635 0.55028 0.467 0.0
H296 H 1.10388 0.6437 0.48986 0.0
H297 H 0.72046 0.3209 0.43912 0.0
H298 H 0.66891 0.84316 0.7786 0.0
H299 H 0.63222 0.87961 0.76573 0.0
H300 H 0.59415 0.88663 0.8313 0.0
H301 H 0.63136 0.85023 0.84435 0.0
H302 H 0.55069 0.86626 0.76815 0.0
H303 H 0.6079 0.98578 0.83615 0.0
H304 H 0.66398 1.01566 0.86323 0.0
H305 H 0.74673 0.99525 0.82103 0.0
H306 H 0.69131 0.96572 0.79365 0.0
H307 H 0.4827 1.02569 0.76337 0.0
H308 H 0.49281 0.96458 0.76963 0.0
H309 H 0.62421 1.04034 0.75048 0.0
H310 H 0.61458 0.10124 0.74548 0.0
H311 H 0.61208 1.01369 0.79269 0.0
H312 H 0.56126 0.95592 0.72235 0.0
H313 H 0.50926 0.92838 0.69329 0.0
H314 H 0.42052 0.82981 0.73604 0.0
H315 H 0.47185 0.8571 0.76545 0.0
C316 C 0.65272 0.85251 0.79027 0.0
C317 C 0.65369 0.84488 0.81249 0.0
C318 C 0.63127 0.8727 0.78287 0.0
C319 C 0.61071 0.88588 0.79758 0.0
C320 C 0.61011 0.87681 0.81975 0.0
C321 C 0.63136 0.85621 0.82716 0.0
C322 C 0.59429 0.91316 0.78973 0.0
C323 C 0.56369 0.89841 0.77361 0.0
C324 C 0.61164 0.95507 0.79677 0.0
C325 C 0.64531 0.97308 0.81302 0.0
C326 C 0.6381 0.98775 0.83267 0.0
C327 C 0.66976 1.00461 0.84806 0.0
C328 C 0.70883 1.00719 0.84389 0.0
C329 C 0.7164 0.99307 0.82428 0.0
C330 C 0.68487 0.97622 0.80884 0.0
C331 C 0.51317 1.02846 0.75969 0.0
C332 C 0.54794 1.0679 0.75408 0.0
C333 C 0.51893 0.99374 0.76323 0.0
C334 C 0.55941 0.99833 0.76079 0.0
C335 C 0.5928 1.03636 0.75254 0.0
C336 C 0.58719 0.071 0.74939 0.0
C337 C 0.56931 0.96735 0.77059 0.0
C338 C 0.59846 0.98138 0.78735 0.0
C339 C 0.55106 0.92519 0.76383 0.0
C340 C 0.52021 0.90886 0.74618 0.0
C341 C 0.5305 0.92863 0.72563 0.0
C342 C 0.50119 0.913 0.70907 0.0
C343 C 0.46155 0.87745 0.71284 0.0
C344 C 0.4512 0.85739 0.73315 0.0
C345 C 0.48041 0.8729 0.74976 0.0
H346 H 0.4389 0.86539 0.7 0.0
H347 H 0.73329 1.02024 0.85582 0.0
H348 H 0.89896 0.49625 0.12568 0.0
H349 H 0.82587 0.45338 0.11418 0.0
H350 H 0.8297 0.56429 0.08666 0.0
H351 H 0.9019 0.6075 0.09866 0.0
H352 H 0.75949 0.46447 0.1277 0.0
H353 H 0.77247 0.53954 0.04203 0.0
H354 H 0.8218 0.56417 0.01065 0.0
H355 H 0.86968 0.48254 0.02982 0.0
H356 H 0.82014 0.45686 0.06115 0.0
H357 H 0.63332 0.54273 0.09421 0.0
H358 H 0.69336 0.53137 0.08808 0.0
H359 H 0.60867 0.39715 0.08598 0.0
H360 H 0.54814 0.40881 0.09259 0.0
H361 H 0.70952 0.47228 0.05452 0.0
H362 H 0.63686 0.37755 0.11894 0.0
H363 H 0.58904 0.35996 0.15084 0.0
H364 H 0.66425 0.48582 0.17397 0.0
H365 H 0.71213 0.50419 0.14204 0.0
C366 C 0.88418 0.51156 0.11726 0.0
C367 C 0.90624 0.55542 0.11319 0.0
C368 C 0.84265 0.4869 0.11048 0.0
C369 C 0.82279 0.50557 0.09924 0.0
C370 C 0.84491 0.54912 0.09484 0.0
C371 C 0.88618 0.57381 0.10176 0.0
C372 C 0.77749 0.48113 0.09415 0.0
C373 C 0.7484 0.4647 0.11154 0.0
C374 C 0.76306 0.48141 0.07307 0.0
C375 C 0.79251 0.49627 0.054 0.0
C376 C 0.79321 0.52652 0.03947 0.0
C377 C 0.82131 0.54076 0.0217 0.0
C378 C 0.84888 0.52495 0.01825 0.0
C379 C 0.84836 0.49482 0.03254 0.0
C380 C 0.8203 0.48045 0.05033 0.0
C381 C 0.62753 0.51103 0.09157 0.0
C382 C 0.5866 0.4766 0.09374 0.0
C383 C 0.66165 0.5045 0.08813 0.0
C384 C 0.65525 0.46347 0.08656 0.0
C385 C 0.61402 0.42901 0.08708 0.0
C386 C 0.57969 0.43561 0.09076 0.0
C387 C 0.69253 0.45796 0.0882 0.0
C388 C 0.72043 0.46961 0.07035 0.0
C389 C 0.70602 0.45329 0.1088 0.0
C390 C 0.67786 0.44218 0.12815 0.0
C391 C 0.64305 0.40143 0.13083 0.0
C392 C 0.61597 0.39134 0.14889 0.0
C393 C 0.62364 0.42174 0.16444 0.0
C394 C 0.65842 0.46228 0.16195 0.0
C395 C 0.68551 0.47254 0.14388 0.0
H396 H 0.60259 0.41391 0.17838 0.0
H397 H 0.87064 0.53604 0.00449 0.0
H398 H 0.39502 0.94867 0.52862 0.0
H399 H 0.31847 0.91141 0.52742 0.0
H400 H 0.31755 0.79263 0.52532 0.0
H401 H 0.39499 0.8305 0.52544 0.0
H402 H 0.2796 0.7973 0.49323 0.0
H403 H 0.26437 0.81874 0.56689 0.0
H404 H 0.27764 0.85568 0.6015 0.0
H405 H 0.23924 0.93995 0.57442 0.0
H406 H 0.22632 0.90396 0.53952 0.0
H407 H 1.06999 0.69935 0.46757 0.0
H408 H 0.12695 0.72106 0.49308 0.0
H409 H 0.15939 0.85088 0.48323 0.0
H410 H 1.09911 0.82838 0.45891 0.0
H411 H 0.17471 0.83028 0.52664 0.0
H412 H 0.20753 0.81348 0.45062 0.0
H413 H 0.19145 0.77154 0.41743 0.0
H414 H 0.19219 0.67052 0.4532 0.0
H415 H 0.20884 0.7121 0.48651 0.0
C416 C 0.37846 0.91451 0.52876 0.0
C417 C 0.40083 0.8924 0.52696 0.0
C418 C 0.33447 0.8931 0.52819 0.0
C419 C 0.31195 0.84906 0.5263 0.0
C420 C 0.3342 0.82663 0.52665 0.0
C421 C 0.37836 0.84818 0.52676 0.0
C422 C 0.26709 0.82804 0.51975 0.0
C423 C 0.25651 0.8037 0.50103 0.0
C424 C 0.23681 0.83677 0.52954 0.0
C425 C 0.24458 0.85871 0.5505 0.0
C426 C 0.25905 0.84535 0.56824 0.0
C427 C 0.26646 0.8661 0.58793 0.0
C428 C 0.25934 0.90018 0.59015 0.0
C429 C 0.24473 0.91354 0.57268 0.0
C430 C 0.23728 0.89291 0.55294 0.0
C431 C 1.08782 0.73225 0.47174 0.0
C432 C 1.07984 0.76217 0.4616 0.0
C433 C 0.12065 0.74467 0.48609 0.0
C434 C 0.14766 0.78753 0.48976 0.0
C435 C 0.13869 0.81758 0.4806 0.0
C436 C 1.10471 0.80488 0.46661 0.0
C437 C 0.18846 0.80077 0.50021 0.0
C438 C 0.198 0.82353 0.51939 0.0
C439 C 0.21774 0.79004 0.49118 0.0
C440 C 0.2093 0.76579 0.471 0.0
C441 C 0.20435 0.78236 0.45135 0.0
C442 C 0.19512 0.75867 0.43255 0.0
C443 C 0.19059 0.71834 0.43324 0.0
C444 C 0.19572 0.70177 0.45269 0.0
C445 C 0.20529 0.72546 0.4715 0.0
H446 H 0.18319 0.69997 0.41869 0.0
H447 H 0.26509 0.9162 0.60541 0.0
H448 H 0.57034 0.34215 0.90218 0.0
H449 H 0.58481 0.28518 0.90462 0.0
H450 H 0.71796 0.37325 0.91069 0.0
H451 H 0.70316 0.4315 0.90848 0.0
H452 H 0.70679 0.34819 0.87252 0.0
H453 H 0.67109 0.2672 0.93436 0.0
H454 H 0.63682 0.23306 0.96912 0.0
H455 H 0.52009 0.15597 0.93713 0.0
H456 H 0.5532 0.19002 0.90224 0.0
H457 H 0.64686 0.19629 0.78751 0.0
H458 H 0.68086 0.23098 0.82121 0.0
H459 H 0.56208 0.21676 0.84473 0.0
H460 H 0.52841 0.1819 0.81106 0.0
H461 H 0.60395 0.19523 0.87606 0.0
H462 H 0.63784 0.30764 0.82113 0.0
H463 H 0.67196 0.34703 0.78731 0.0
H464 H 0.79244 0.36863 0.80909 0.0
H465 H 0.75882 0.32869 0.8429 0.0
C466 C 0.60248 0.34981 0.90543 0.0
C467 C 0.63604 0.39144 0.90355 0.0
C468 C 0.61091 0.31662 0.90705 0.0
C469 C 0.65297 0.32479 0.90648 0.0
C470 C 0.68534 0.36614 0.91026 0.0
C471 C 0.6769 0.39952 0.90868 0.0
C472 C 0.66208 0.29645 0.89307 0.0
C473 C 0.68558 0.31442 0.8738 0.0
C474 C 0.63564 0.25219 0.89457 0.0
C475 C 0.61496 0.23108 0.91552 0.0
C476 C 0.63807 0.24306 0.93469 0.0
C477 C 0.6188 0.2237 0.95446 0.0
C478 C 0.57635 0.19228 0.95532 0.0
C479 C 0.55305 0.18017 0.93642 0.0
C480 C 0.57215 0.1994 0.9166 0.0
C481 C 0.62855 0.20149 0.79983 0.0
C482 C 0.58551 0.1876 0.7968 0.0
C483 C 0.64767 0.22061 0.81909 0.0
C484 C 0.62386 0.22603 0.8355 0.0
C485 C 0.58085 0.21236 0.83234 0.0
C486 C 0.56181 0.19328 0.81309 0.0
C487 C 0.64375 0.24861 0.85547 0.0
C488 C 0.62649 0.22873 0.87554 0.0
C489 C 0.67582 0.29132 0.8548 0.0
C490 C 0.69572 0.31442 0.83428 0.0
C491 C 0.6715 0.32028 0.81856 0.0
C492 C 0.69076 0.3428 0.79943 0.0
C493 C 0.7343 0.3601 0.796 0.0
C494 C 0.75868 0.35499 0.81171 0.0
C495 C 0.73954 0.33234 0.83083 0.0
H496 H 0.74918 0.37763 0.7812 0.0
H497 H 0.56148 0.17736 0.97065 0.0
H498 H 0.7426 0.979 0.52516 0.0
H499 H 0.74076 0.91213 0.53198 0.0
H500 H 0.64505 0.85307 0.48397 0.0
H501 H 0.64498 0.91963 0.47817 0.0
H502 H 0.62558 0.79813 0.51201 0.0
H503 H 0.75904 0.88378 0.47736 0.0
H504 H 0.8293 0.9461 0.47072 0.0
H505 H 0.86906 0.92826 0.53306 0.0
H506 H 0.79883 0.86611 0.54018 0.0
H507 H 0.63844 0.62478 0.55644 0.0
H508 H 0.64029 0.69173 0.54989 0.0
H509 H 0.74223 0.72748 0.50324 0.0
H510 H 0.74338 0.66245 0.51167 0.0
H511 H 0.75852 0.79346 0.52001 0.0
H512 H 0.58292 0.7393 0.54223 0.0
H513 H 0.51309 0.67489 0.54132 0.0
H514 H 0.55811 0.62593 0.49089 0.0
H515 H 0.62802 0.69024 0.49131 0.0
C516 C 0.7212 0.95187 0.51595 0.0
C517 C 0.69419 0.95521 0.50094 0.0
C518 C 0.72038 0.91332 0.51977 0.0
C519 C 0.69353 0.87684 0.50818 0.0
C520 C 0.66627 0.88016 0.49325 0.0
C521 C 0.66636 0.91855 0.48981 0.0
C522 C 0.69352 0.83549 0.51183 0.0
C523 C 0.65481 0.79738 0.51372 0.0
C524 C 0.73129 0.83319 0.51357 0.0
C525 C 0.77355 0.87055 0.50939 0.0
C526 C 0.78268 0.89332 0.48971 0.0
C527 C 0.82251 0.92859 0.48585 0.0
C528 C 0.85358 0.94119 0.50148 0.0
C529 C 0.84493 0.91849 0.52098 0.0
C530 C 0.80514 0.88322 0.52493 0.0
C531 C 0.66192 0.64719 0.54513 0.0
C532 C 0.69079 0.6377 0.53463 0.0
C533 C 0.66235 0.68549 0.54096 0.0
C534 C 0.69068 0.7152 0.52553 0.0
C535 C 0.71973 0.70572 0.51515 0.0
C536 C 0.72001 0.66793 0.51975 0.0
C537 C 0.69056 0.75607 0.52041 0.0
C538 C 0.72926 0.79415 0.51828 0.0
C539 C 0.65283 0.75803 0.51745 0.0
C540 C 0.61081 0.71939 0.51698 0.0
C541 C 0.57786 0.71484 0.5309 0.0
C542 C 0.53828 0.67835 0.53048 0.0
C543 C 0.53121 0.64628 0.51611 0.0
C544 C 0.56367 0.65072 0.50207 0.0
C545 C 0.60328 0.68716 0.5024 0.0
H546 H 0.50056 0.61804 0.51582 0.0
H547 H 0.8844 0.9685 0.49846 0.0
H548 H 0.75738 0.55215 0.82044 0.0
H549 H 0.82267 0.54916 0.82449 0.0
H550 H 0.87894 0.66808 0.8571 0.0
H551 H 0.81437 0.67196 0.85236 0.0
H552 H 0.93563 0.66851 0.83134 0.0
H553 H 0.83661 0.56287 0.88309 0.0
H554 H 0.77006 0.49843 0.89324 0.0
H555 H 0.80172 0.42625 0.85002 0.0
H556 H 0.86821 0.49038 0.83939 0.0
H557 H 0.11027 0.66809 0.88055 0.0
H558 H 1.04524 0.66829 0.8711 0.0
H559 H 0.99681 0.545 0.84362 0.0
H560 H 1.06143 0.5443 0.85428 0.0
H561 H 0.9354 0.54374 0.86388 0.0
H562 H 1.03235 0.64298 0.8124 0.0
H563 H 1.09765 0.70506 0.7987 0.0
H564 H 1.06917 0.78617 0.83671 0.0
H565 H 1.00396 0.72451 0.85087 0.0
C566 C 0.78363 0.57776 0.82846 0.0
C567 C 0.78017 0.6123 0.83607 0.0
C568 C 0.82111 0.57586 0.83094 0.0
C569 C 0.85614 0.608 0.84152 0.0
C570 C 0.85277 0.64268 0.84892 0.0
C571 C 0.81553 0.64484 0.84622 0.0
C572 C 0.89636 0.60611 0.84477 0.0
C573 C 0.93545 0.64136 0.83875 0.0
C574 C 0.89677 0.57014 0.85353 0.0
C575 C 0.85722 0.5315 0.86032 0.0
C576 C 0.8293 0.53329 0.8757 0.0
C577 C 0.7916 0.49681 0.88154 0.0
C578 C 0.78167 0.45829 0.87226 0.0
C579 C 0.80947 0.45612 0.85718 0.0
C580 C 0.84717 0.49251 0.85126 0.0
C581 C 1.08596 0.6414 0.87215 0.0
C582 C 1.09125 0.60647 0.86789 0.0
C583 C 1.04863 0.64147 0.86664 0.0
C584 C 1.01561 0.60694 0.85619 0.0
C585 C 1.02135 0.57222 0.85158 0.0
C586 C 1.05858 0.57195 0.85742 0.0
C587 C 0.97486 0.6066 0.85089 0.0
C588 C 0.93568 0.57092 0.85646 0.0
C589 C 0.97426 0.64186 0.84131 0.0
C590 C 1.01345 0.67906 0.83285 0.0
C591 C 1.04017 0.67403 0.81796 0.0
C592 C 1.07714 0.70914 0.81009 0.0
C593 C 1.0876 0.74952 0.81687 0.0
C594 C 1.06105 0.75487 0.8315 0.0
C595 C 1.02405 0.71985 0.83943 0.0
H596 H 0.11624 0.77667 0.81076 0.0
H597 H 0.75247 0.43011 0.87674 0.0
H598 H 0.23003 0.74813 0.16524 0.0
H599 H 0.29707 0.81441 0.16811 0.0
H600 H 0.36226 0.7444 0.17855 0.0
H601 H 0.29558 0.67832 0.17592 0.0
H602 H 0.39172 0.80724 0.20542 0.0
H603 H 0.36858 0.79738 0.12916 0.0
H604 H 0.3289 0.78961 0.09596 0.0
H605 H 0.32457 0.90237 0.11032 0.0
H606 H 0.36384 0.91056 0.14377 0.0
H607 H 0.60193 0.97629 0.19421 0.0
H608 H 0.53559 0.91166 0.18654 0.0
H609 H 0.47355 0.98525 0.17789 0.0
H610 H 0.54046 1.04993 0.18526 0.0
H611 H 0.44207 0.92146 0.14972 0.0
H612 H 0.46494 0.93109 0.22587 0.0
H613 H 0.5049 0.93921 0.2589 0.0
H614 H 0.50926 0.82638 0.2448 0.0
H615 H 0.46975 0.81789 0.2114 0.0
C616 C 0.25858 0.74671 0.16813 0.0
C617 C 0.25683 0.70733 0.17026 0.0
C618 C 0.29723 0.7849 0.16965 0.0
C619 C 0.33553 0.78509 0.17332 0.0
C620 C 0.33366 0.74575 0.17569 0.0
C621 C 0.29516 0.70766 0.1741 0.0
C622 C 0.37733 0.82584 0.175 0.0
C623 C 0.4028 0.83182 0.19301 0.0
C624 C 0.39213 0.85899 0.15923 0.0
C625 C 0.36876 0.85433 0.13908 0.0
C626 C 0.3589 0.82035 0.12532 0.0
C627 C 0.33652 0.81589 0.10644 0.0
C628 C 0.32408 0.84538 0.10107 0.0
C629 C 0.33415 0.8795 0.11452 0.0
C630 C 0.35651 0.88409 0.13343 0.0
C631 C 0.57441 0.97869 0.19002 0.0
C632 C 0.5767 1.01833 0.18991 0.0
C633 C 0.53616 0.94161 0.18592 0.0
C634 C 0.49869 0.94286 0.18193 0.0
C635 C 0.50155 0.98286 0.18087 0.0
C636 C 0.53993 1.02 0.18496 0.0
C637 C 0.4565 0.90261 0.18005 0.0
C638 C 0.43096 0.89679 0.16207 0.0
C639 C 0.44154 0.8695 0.19584 0.0
C640 C 0.46475 0.87409 0.21603 0.0
C641 C 0.47463 0.90813 0.22974 0.0
C642 C 0.4972 0.9128 0.24854 0.0
C643 C 0.50976 0.88342 0.25395 0.0
C644 C 0.49959 0.84917 0.24058 0.0
C645 C 0.47707 0.84439 0.22171 0.0
H646 H 0.52727 0.88714 0.26853 0.0
H647 H 0.30673 0.84185 0.08645 0.0
H648 H 0.63447 0.16249 0.51144 0.0
H649 H 0.6361 0.22979 0.51533 0.0
H650 H 0.75817 0.29375 0.48294 0.0
H651 H 0.75716 0.22631 0.47952 0.0
H652 H 0.75922 0.34031 0.51476 0.0
H653 H 0.66033 0.2709 0.45903 0.0
H654 H 0.5977 0.21442 0.44172 0.0
H655 H 0.51709 0.22434 0.48995 0.0
H656 H 0.57935 0.28066 0.5077 0.0
H657 H 0.75189 0.5342 0.50865 0.0
H658 H 0.75478 0.4706 0.49799 0.0
H659 H 0.63442 0.3927 0.53037 0.0
H660 H 0.63139 0.45596 0.54045 0.0
H661 H 0.63607 0.35583 0.4949 0.0
H662 H 0.73381 0.42075 0.55222 0.0
H663 H 0.79582 0.47737 0.56996 0.0
H664 H 0.87743 0.47428 0.51996 0.0
H665 H 0.81585 0.41786 0.5019 0.0
C666 C 0.66164 0.19072 0.50498 0.0
C667 C 0.69552 0.18844 0.495 0.0
C668 C 0.66248 0.2295 0.50715 0.0
C669 C 0.69686 0.26744 0.49907 0.0
C670 C 0.73101 0.26532 0.48927 0.0
C671 C 0.73034 0.22648 0.48725 0.0
C672 C 0.69723 0.30898 0.50113 0.0
C673 C 0.73247 0.34376 0.51007 0.0
C674 C 0.66223 0.314 0.49542 0.0
C675 C 0.62467 0.28003 0.48475 0.0
C676 C 0.62932 0.26104 0.46599 0.0
C677 C 0.59385 0.22899 0.4561 0.0
C678 C 0.55343 0.21577 0.46474 0.0
C679 C 0.54842 0.23461 0.48327 0.0
C680 C 0.58381 0.26665 0.49324 0.0
C681 C 0.72577 0.50341 0.51307 0.0
C682 C 0.69141 0.50016 0.52541 0.0
C683 C 0.7276 0.46695 0.50722 0.0
C684 C 0.69516 0.42628 0.51364 0.0
C685 C 0.66006 0.42326 0.52517 0.0
C686 C 0.65828 0.45954 0.53098 0.0
C687 C 0.6976 0.38681 0.50897 0.0
C688 C 0.66291 0.35244 0.49948 0.0
C689 C 0.73296 0.38212 0.5143 0.0
C690 C 0.77005 0.41575 0.52537 0.0
C691 C 0.76491 0.43246 0.54487 0.0
C692 C 0.80002 0.46443 0.55504 0.0
C693 C 0.84052 0.47963 0.54603 0.0
C694 C 0.84602 0.46269 0.52688 0.0
C695 C 0.81101 0.43074 0.51666 0.0
H696 H 0.86766 0.50438 0.55393 0.0
H697 H 0.526 0.19094 0.45706 0.0
H698 H 0.57967 0.68173 0.84997 0.0
H699 H 0.51275 0.67967 0.85833 0.0
H700 H 0.44523 0.55945 0.82714 0.0
H701 H 0.51195 0.56009 0.82053 0.0
H702 H 0.3993 0.5517 0.85664 0.0
H703 H 0.4612 0.73313 0.86209 0.0
H704 H 0.51475 0.79913 0.84393 0.0
H705 H 0.51494 0.72967 0.78832 0.0
H706 H 0.46119 0.66344 0.806 0.0
H707 H 0.22236 0.55851 0.89921 0.0
H708 H 0.29158 0.56599 0.89252 0.0
H709 H 0.3147 0.656 0.84099 0.0
H710 H 0.24941 0.65506 0.85093 0.0
H711 H 0.38292 0.67836 0.85136 0.0
H712 H 0.28291 0.53524 0.83755 0.0
H713 H 0.22285 0.46375 0.84462 0.0
H714 H 0.28804 0.44734 0.89787 0.0
H715 H 0.34834 0.51888 0.89123 0.0
C716 C 0.55056 0.65508 0.84469 0.0
C717 C 0.55142 0.62127 0.83437 0.0
C718 C 0.51194 0.65394 0.84939 0.0
C719 C 0.47291 0.61969 0.84315 0.0
C720 C 0.47415 0.58629 0.83243 0.0
C721 C 0.51261 0.58681 0.82841 0.0
C722 C 0.431 0.61792 0.84826 0.0
C723 C 0.39591 0.57952 0.8553 0.0
C724 C 0.42498 0.65344 0.84609 0.0
C725 C 0.45749 0.69328 0.83549 0.0
C726 C 0.47263 0.73198 0.84598 0.0
C727 C 0.50303 0.76941 0.83577 0.0
C728 C 0.51824 0.76852 0.81501 0.0
C729 C 0.5032 0.73026 0.80442 0.0
C730 C 0.47284 0.69279 0.81454 0.0
C731 C 0.2426 0.58104 0.88695 0.0
C732 C 0.22931 0.60603 0.87563 0.0
C733 C 0.28223 0.58428 0.8825 0.0
C734 C 0.30901 0.61028 0.86544 0.0
C735 C 0.29562 0.63531 0.85418 0.0
C736 C 0.25719 0.63397 0.85953 0.0
C737 C 0.35065 0.61181 0.85943 0.0
C738 C 0.38594 0.65032 0.85246 0.0
C739 C 0.35593 0.57561 0.86002 0.0
C740 C 0.31991 0.53253 0.86402 0.0
C741 C 0.28433 0.51642 0.85082 0.0
C742 C 0.25027 0.47591 0.85475 0.0
C743 C 0.25159 0.45107 0.87172 0.0
C744 C 0.28704 0.46664 0.88475 0.0
C745 C 0.32119 0.50714 0.8809 0.0
H746 H 0.22517 0.41973 0.87475 0.0
H747 H 0.54148 0.79744 0.80704 0.0
H748 H 0.98536 0.50023 0.16374 0.0
H749 H 0.91859 0.43352 0.1696 0.0
H750 H 0.98813 0.367 0.17607 0.0
H751 H 1.05481 0.43351 0.17104 0.0
H752 H 0.90781 0.32928 0.1465 0.0
H753 H 0.9589 0.37808 0.21885 0.0
H754 H 0.98405 0.43157 0.24728 0.0
H755 H 0.86846 0.43604 0.24467 0.0
H756 H 0.84294 0.38304 0.21595 0.0
H757 H 0.74704 0.12649 0.1837 0.0
H758 H 0.81285 0.19323 0.17697 0.0
H759 H 0.75592 0.26074 0.20621 0.0
H760 H 0.69134 0.19337 0.2142 0.0
H761 H 0.82999 0.30076 0.2167 0.0
H762 H 0.77557 0.25414 0.14658 0.0
H763 H 0.74784 0.20552 0.11605 0.0
H764 H 0.864 0.2022 0.11114 0.0
H765 H 0.89222 0.25036 0.14185 0.0
C766 C 0.98651 0.47139 0.16622 0.0
C767 C 1.02587 0.47263 0.16686 0.0
C768 C 0.94816 0.43313 0.16966 0.0
C769 C 0.94793 0.39479 0.17332 0.0
C770 C 0.98709 0.39582 0.17327 0.0
C771 C 1.02539 0.43411 0.17041 0.0
C772 C 0.90725 0.35392 0.17782 0.0
C773 C 0.891 0.32284 0.16193 0.0
C774 C 0.88417 0.34563 0.19763 0.0
C775 C 0.89924 0.37699 0.21509 0.0
C776 C 0.93903 0.39078 0.22419 0.0
C777 C 0.95332 0.42094 0.24039 0.0
C778 C 0.92793 0.4373 0.24773 0.0
C779 C 0.88813 0.4234 0.23894 0.0
C780 C 0.87373 0.39328 0.22271 0.0
C781 C 0.74875 0.15567 0.18866 0.0
C782 C 0.71384 0.15464 0.19932 0.0
C783 C 0.7864 0.19418 0.18461 0.0
C784 C 0.78997 0.23324 0.19041 0.0
C785 C 0.75488 0.23181 0.20136 0.0
C786 C 0.71764 0.19316 0.20589 0.0
C787 C 0.82997 0.27517 0.18535 0.0
C788 C 0.84632 0.30675 0.20116 0.0
C789 C 0.85258 0.28433 0.16518 0.0
C790 C 0.83584 0.25553 0.14666 0.0
C791 C 0.7951 0.24283 0.13908 0.0
C792 C 0.7793 0.21538 0.12173 0.0
C793 C 0.80411 0.2007 0.11169 0.0
C794 C 0.8448 0.21355 0.11895 0.0
C795 C 0.86073 0.24095 0.13632 0.0
H796 H 0.79182 0.17944 0.09827 0.0
H797 H 0.93905 0.46066 0.26026 0.0
H798 H 0.21211 0.54838 0.10675 0.0
H799 H 0.22911 0.55078 0.06776 0.0
H800 H 0.14606 0.60057 0.05413 0.0
H801 H 0.13066 0.5998 0.09252 0.0
H802 H 0.19053 0.51888 0.03137 0.0
H803 H 0.18198 0.67378 0.01659 0.0
H804 H 0.19934 0.73866 0.03628 0.0
H805 H 0.28627 0.7212 0.07531 0.0
H806 H 0.27004 0.65669 0.05563 0.0
H807 H 0.13134 0.53195 0.92626 0.0
H808 H 0.14561 0.52711 0.9642 0.0
H809 H 0.25906 0.6486 0.95841 0.0
H810 H 0.24247 0.65433 0.92048 0.0
H811 H 0.22311 0.65082 0.99182 0.0
H812 H 0.25751 0.54953 0.9696 0.0
H813 H 0.25247 0.48853 0.95023 0.0
H814 H 0.13748 0.40599 0.98528 0.0
H815 H 0.14136 0.46656 0.00461 0.0
C816 C 0.19733 0.55944 0.09532 0.0
C817 C 0.17056 0.57449 0.1027 0.0
C818 C 0.20709 0.56091 0.07306 0.0
C819 C 0.1899 0.57711 0.05793 0.0
C820 C 0.16102 0.58937 0.06538 0.0
C821 C 0.15198 0.58865 0.0874 0.0
C822 C 0.20205 0.58238 0.03439 0.0
C823 C 0.19795 0.54777 0.0227 0.0
C824 C 0.21408 0.6208 0.02307 0.0
C825 C 0.22458 0.66019 0.03467 0.0
C826 C 0.20505 0.68394 0.02925 0.0
C827 C 0.21465 0.72065 0.04045 0.0
C828 C 0.24385 0.73403 0.05706 0.0
C829 C 0.26361 0.7108 0.06247 0.0
C830 C 0.2542 0.67414 0.05131 0.0
C831 C 0.15975 0.55717 0.93305 0.0
C832 C 0.1857 0.59354 0.92058 0.0
C833 C 0.16825 0.5543 0.95475 0.0
C834 C 0.20379 0.58725 0.96445 0.0
C835 C 0.23133 0.62267 0.9515 0.0
C836 C 0.22223 0.62587 0.92978 0.0
C837 C 0.20898 0.58641 0.98846 0.0
C838 C 0.21646 0.62202 0.00034 0.0
C839 C 0.20212 0.54954 -7e-05 0.0
C840 C 0.19968 0.51273 0.98853 0.0
C841 C 0.231 0.51842 0.97311 0.0
C842 C 0.22836 0.4839 0.96213 0.0
C843 C 0.19467 0.44342 0.96652 0.0
C844 C 0.16358 0.43737 0.98192 0.0
C845 C 0.16603 0.4718 0.99292 0.0
H846 H 0.19267 0.41673 0.95799 0.0
H847 H 0.25119 0.76241 0.06573 0.0
H848 H 0.75538 0.07365 0.42097 0.0
H849 H 0.75824 0.08425 0.38153 0.0
H850 H 0.65394 0.10872 0.38661 0.0
H851 H 0.65022 0.09719 0.42547 0.0
H852 H 0.63954 1.05676 0.35599 0.0
H853 H 0.75941 0.18774 0.37586 0.0
H854 H 0.82817 0.23325 0.39249 0.0
H855 H 0.88671 0.1814 0.35151 0.0
H856 H 0.81812 0.13513 0.33483 0.0
H857 H 0.63532 0.13489 0.25356 0.0
H858 H 0.65214 0.13851 0.29203 0.0
H859 H 0.73956 0.09391 0.27778 0.0
H860 H 0.72247 0.09045 0.23918 0.0
H861 H 0.76653 0.15447 0.31207 0.0
H862 H 0.64373 1.01991 0.29473 0.0
H863 H 0.57342 0.973 0.27993 0.0
H864 H 0.52067 1.03575 0.31686 0.0
H865 H 0.59056 0.08246 0.3322 0.0
C866 C 0.73315 0.08135 0.41363 0.0
C867 C 0.70233 0.08415 0.42644 0.0
C868 C 0.73498 0.0877 0.39108 0.0
C869 C 0.70641 0.09753 0.38096 0.0
C870 C 0.67621 0.10095 0.39387 0.0
C871 C 0.67412 0.09428 0.41621 0.0
C872 C 0.70596 0.10229 0.35694 0.0
C873 C 0.66736 0.07859 0.34655 0.0
C874 C 0.7423 0.12987 0.34428 0.0
C875 C 0.78354 0.15762 0.35428 0.0
C876 C 0.78687 0.18577 0.37053 0.0
C877 C 0.82582 0.21176 0.37994 0.0
C878 C 0.86176 0.21012 0.37311 0.0
C879 C 0.85883 0.18257 0.35681 0.0
C880 C 0.81993 0.15648 0.34737 0.0
C881 C 0.65939 0.1276 0.25861 0.0
C882 C 0.67799 0.11285 0.24354 0.0
C883 C 0.66865 0.12916 0.28057 0.0
C884 C 0.69662 0.11581 0.28788 0.0
C885 C 0.7179 0.10435 0.27255 0.0
C886 C 0.70847 0.10271 0.25053 0.0
C887 C 0.69995 0.10969 0.3115 0.0
C888 C 0.73894 0.13278 0.32168 0.0
C889 C 0.66393 0.08187 0.32416 0.0
C890 C 0.62231 1.05481 0.31444 0.0
C891 C 0.61715 1.02382 0.29957 0.0
C892 C 0.57733 0.99713 0.29119 0.0
C893 C 0.54263 1.00156 0.29735 0.0
C894 C 0.54759 1.03244 0.31206 0.0
C895 C 0.58721 1.05884 0.3207 0.0
H896 H 0.51184 0.98098 0.29083 0.0
H897 H 0.89189 0.23027 0.38041 0.0
H898 H 0.72711 0.66715 0.76019 0.0
H899 H 0.72875 0.6667 0.72076 0.0
H900 H 0.60558 0.55529 0.72155 0.0
H901 H 0.60415 0.55495 0.76114 0.0
H902 H 0.65446 0.54631 0.69344 0.0
H903 H 0.6224 0.65632 0.70733 0.0
H904 H 0.63198 0.72207 0.72332 0.0
H905 H 0.75327 0.79189 0.69125 0.0
H906 H 0.74468 0.72643 0.67531 0.0
H907 H 0.61608 0.54449 0.58296 0.0
H908 H 0.61056 0.55554 0.62164 0.0
H909 H 0.73992 0.65669 0.62001 0.0
H910 H 0.745 0.64552 0.58103 0.0
H911 H 0.6878 0.67242 0.64817 0.0
H912 H 0.72094 0.56093 0.63658 0.0
H913 H 0.71111 0.49456 0.62121 0.0
H914 H 0.58552 0.42775 0.64886 0.0
H915 H 0.59473 0.4937 0.66453 0.0
C916 C 0.70025 0.64251 0.75204 0.0
C917 C 0.66546 0.61104 0.76396 0.0
C918 C 0.70113 0.64249 0.72939 0.0
C919 C 0.66701 0.61136 0.718 0.0
C920 C 0.6323 0.57978 0.72987 0.0
C921 C 0.6315 0.57962 0.75256 0.0
C922 C 0.66816 0.61088 0.6938 0.0
C923 C 0.66108 0.57377 0.68362 0.0
C924 C 0.67785 0.64693 0.68078 0.0
C925 C 0.68307 0.68638 0.69029 0.0
C926 C 0.65126 0.68564 0.70382 0.0
C927 C 0.65649 0.72286 0.71285 0.0
C928 C 0.69326 0.76111 0.70835 0.0
C929 C 0.72483 0.76223 0.69475 0.0
C930 C 0.71978 0.72508 0.68569 0.0
C931 C 0.64274 0.57001 0.59078 0.0
C932 C 0.68077 0.59447 0.57912 0.0
C933 C 0.63981 0.57603 0.61289 0.0
C934 C 0.67508 0.60641 0.62389 0.0
C935 C 0.71231 0.63298 0.61192 0.0
C936 C 0.71518 0.6269 0.58968 0.0
C937 C 0.67384 0.60784 0.648 0.0
C938 C 0.68102 0.64505 0.6581 0.0
C939 C 0.66407 0.57188 0.66102 0.0
C940 C 0.65839 0.53226 0.65156 0.0
C941 C 0.69116 0.53211 0.63929 0.0
C942 C 0.68575 0.49456 0.6306 0.0
C943 C 0.64765 0.45702 0.63396 0.0
C944 C 0.61499 0.45687 0.64622 0.0
C945 C 0.62034 0.49428 0.65509 0.0
H946 H 0.64347 0.42802 0.62714 0.0
H947 H 0.69724 0.7899 0.71536 0.0
H948 H 0.73778 0.13575 0.5629 0.0
H949 H 0.71929 0.14809 0.5993 0.0
H950 H 0.5965 1.03698 0.59505 0.0
H951 H 0.61511 1.02377 0.55916 0.0
H952 H 0.66083 0.16563 0.61161 0.0
H953 H 0.55704 0.99343 0.64446 0.0
H954 H 0.55376 0.92444 0.64202 0.0
H955 H 0.68647 0.98609 0.62609 0.0
H956 H 0.69075 1.05546 0.6288 0.0
H957 H 0.51342 0.0883 0.71463 0.0
H958 H 0.53535 0.07877 0.67831 0.0
H959 H 0.66223 0.17871 0.68953 0.0
H960 H 0.64067 0.18715 0.72594 0.0
H961 H 0.59798 1.05697 0.67019 0.0
H962 H 0.7038 0.22832 0.63935 0.0
H963 H 0.70903 0.29806 0.64283 0.0
H964 H 0.5754 0.2387 0.65593 0.0
H965 H 0.56927 0.16868 0.6522 0.0
C966 C 0.70714 0.11357 0.5699 0.0
C967 C 0.67804 0.07868 0.55817 0.0
C968 C 0.69652 0.12077 0.59065 0.0
C969 C 0.65664 0.09328 0.60002 0.0
C970 C 0.6278 1.05816 0.58841 0.0
C971 C 0.6385 1.05072 0.5678 0.0
C972 C 0.64419 0.10233 0.62143 0.0
C973 C 0.64777 0.14207 0.62454 0.0
C974 C 0.62623 0.07129 0.63817 0.0
C975 C 0.62408 1.02968 0.63659 0.0
C976 C 0.58556 0.99229 0.6405 0.0
C977 C 0.58353 0.9531 0.63907 0.0
C978 C 0.61985 0.95088 0.63381 0.0
C979 C 0.65832 0.98785 0.63006 0.0
C980 C 0.66056 1.02712 0.63152 0.0
C981 C 0.54571 0.10871 0.70905 0.0
C982 C 0.57506 0.13913 0.72279 0.0
C983 C 0.55825 0.10316 0.68846 0.0
C984 C 0.6003 0.12829 0.68122 0.0
C985 C 0.62945 0.15954 0.69469 0.0
C986 C 0.61699 0.16475 0.71536 0.0
C987 C 0.6144 0.11998 0.66018 0.0
C988 C 0.61117 0.08045 0.65721 0.0
C989 C 0.633 0.15127 0.64369 0.0
C990 C 0.6362 0.19324 0.64574 0.0
C991 C 0.67552 0.23016 0.6429 0.0
C992 C 0.67864 0.26974 0.64492 0.0
C993 C 0.6426 0.27281 0.64968 0.0
C994 C 0.60333 0.23629 0.65235 0.0
C995 C 0.60003 0.19664 0.65032 0.0
H996 H 0.64508 0.30347 0.65124 0.0
H997 H 0.6182 0.92051 0.6327 0.0
H998 H 0.67199 0.56918 0.90199 0.0
H999 H 0.65317 0.5594 0.94041 0.0
H1000 H 0.61656 0.65508 0.93634 0.0
H1001 H 0.63539 0.66515 0.89763 0.0
H1002 H 0.68064 0.61271 0.9749 0.0
H1003 H 0.52594 0.61763 0.97001 0.0
H1004 H 0.47293 0.60875 0.94305 0.0
H1005 H 0.49963 0.5234 0.9078 0.0
H1006 H 0.55229 0.53129 0.9347 0.0
H1007 H 0.59205 0.59111 0.08163 0.0
H1008 H 0.61332 0.61829 0.04432 0.0
H1009 H 0.53811 0.49226 0.0205 0.0
H1010 H 0.51732 0.46524 0.05787 0.0
H1011 H 0.53017 0.5571 0.99663 0.0
H1012 H 0.6376 0.52247 0.01989 0.0
H1013 H 0.69129 0.5251 0.04456 0.0
H1014 H 0.7563 0.66042 0.04172 0.0
H1015 H 0.70336 0.65849 0.0165 0.0
C1016 C 0.66037 0.58852 0.90926 0.0
C1017 C 0.65504 0.61786 0.89677 0.0
C1018 C 0.64978 0.58298 0.93125 0.0
C1019 C 0.63327 0.60633 0.94115 0.0
C1020 C 0.62905 0.6366 0.92892 0.0
C1021 C 0.63995 0.64241 0.90687 0.0
C1022 C 0.61868 0.59708 0.96401 0.0
C1023 C 0.64786 0.60117 0.97967 0.0
C1024 C 0.5758 0.58146 0.97019 0.0
C1025 C 0.54339 0.57548 0.95423 0.0
C1026 C 0.52034 0.59684 0.95655 0.0
C1027 C 0.49038 0.59199 0.94128 0.0
C1028 C 0.48304 0.56566 0.92367 0.0
C1029 C 0.50546 0.54391 0.92139 0.0
C1030 C 0.53538 0.54859 0.93663 0.0
C1031 C 0.57958 0.56957 0.06832 0.0
C1032 C 0.55262 0.52633 0.07232 0.0
C1033 C 0.59182 0.58495 0.04713 0.0
C1034 C 0.57701 0.55726 0.02971 0.0
C1035 C 0.54946 0.51413 0.03373 0.0
C1036 C 0.53772 0.49873 0.05493 0.0
C1037 C 0.59218 0.57271 0.00738 0.0
C1038 C 0.56312 0.56972 0.99188 0.0
C1039 C 0.63503 0.58886 0.00122 0.0
C1040 C 0.66643 0.59033 0.01657 0.0
C1041 C 0.66324 0.55276 0.02465 0.0
C1042 C 0.6936 0.55413 0.03866 0.0
C1043 C 0.72697 0.59289 0.04493 0.0
C1044 C 0.73034 0.63041 0.03694 0.0
C1045 C 0.70033 0.62921 0.02267 0.0
H1046 H 0.75031 0.59383 0.0559 0.0
H1047 H 0.45992 0.56205 0.91184 0.0
H1048 H 0.16711 0.61859 0.24151 0.0
H1049 H 0.14967 0.63523 0.27713 0.0
H1050 H 1.03236 0.61977 0.25293 0.0
H1051 H 1.04974 0.60372 0.21728 0.0
H1052 H 1.07176 0.68997 0.27564 0.0
H1053 H 1.03349 0.54531 0.28613 0.0
H1054 H 1.04402 0.48356 0.28541 0.0
H1055 H 0.14605 0.54343 0.32963 0.0
H1056 H 0.1365 0.60584 0.33038 0.0
H1057 H 0.98102 0.69026 0.37924 0.0
H1058 H 0.99304 0.66753 0.34371 0.0
H1059 H 0.11592 0.69146 0.36372 0.0
H1060 H 1.10365 0.71366 0.39908 0.0
H1061 H 1.07102 0.61513 0.34317 0.0
H1062 H 0.10978 0.76065 0.33148 0.0
H1063 H 1.09836 0.82188 0.33202 0.0
H1064 H 0.99341 0.75872 0.28979 0.0
H1065 H 1.00382 0.69681 0.28926 0.0
C1066 C 0.13751 0.61852 0.24379 0.0
C1067 C 0.10988 0.60989 0.22652 0.0
C1068 C 0.1275 0.62789 0.26419 0.0
C1069 C 1.08954 0.62846 0.26774 0.0
C1070 C 1.06184 0.61959 0.25056 0.0
C1071 C 1.07183 0.61031 0.23019 0.0
C1072 C 1.07918 0.63943 0.2892 0.0
C1073 C 1.07096 0.67315 0.29036 0.0
C1074 C 1.07886 0.61801 0.30846 0.0
C1075 C 1.08453 0.58043 0.30815 0.0
C1076 C 1.05839 0.54546 0.29558 0.0
C1077 C 1.06414 0.51031 0.29518 0.0
C1078 C 1.09576 0.50962 0.30742 0.0
C1079 C 0.1216 0.54404 0.32013 0.0
C1080 C 0.116 0.57929 0.32057 0.0
C1081 C 1.01059 0.69085 0.37584 0.0
C1082 C 1.04189 0.70479 0.3915 0.0
C1083 C 1.01746 0.6779 0.35567 0.0
C1084 C 1.05559 0.67827 0.35103 0.0
C1085 C 1.08643 0.69121 0.36691 0.0
C1086 C 1.0797 0.70446 0.38694 0.0
C1087 C 1.06372 0.66564 0.32954 0.0
C1088 C 1.07159 0.6317 0.3284 0.0
C1089 C 1.06351 0.6867 0.31028 0.0
C1090 C 1.05728 0.72393 0.31053 0.0
C1091 C 1.08403 0.75967 0.32246 0.0
C1092 C 1.07779 0.79452 0.32274 0.0
C1093 C 1.0451 0.79414 0.311 0.0
C1094 C 1.01866 0.75894 0.29891 0.0
C1095 C 1.02473 0.72397 0.2986 0.0
H1096 H 1.04033 0.82116 0.31122 0.0
H1097 H 1.10017 0.48238 0.3071 0.0
loop_
_geom_bond_atom_site_label_1
_geom_bond_atom_site_label_2
_geom_bond_distance
_geom_bond_site_symmetry_2
_ccdc_geom_bond_type
Tb0 C9 2.764 . S
Tb0 O10 2.325 . S
Tb0 O13 2.303 . S
Tb0 O17 2.322 1_655 S
Tb0 O18 2.349 . S
Tb0 O21 2.415 . S
Tb0 O22 2.399 . S
Tb1 O11 2.322 1_455 S
Tb1 O12 2.349 . S
Tb1 O14 2.415 . S
Tb1 O15 2.399 . S
Tb1 O16 2.325 . S
Tb1 O19 2.303 . S
Tb1 C30 2.764 . S
C2 O18 1.261 1_455 S
C2 O19 1.257 . S
C3 C6 1.358 . S
C3 C7 1.332 . S
C3 C9 1.504 . S
C4 C5 1.373 . S
C4 C8 1.308 . S
C5 C4 1.373 . S
C5 C6 1.429 . S
C5 H32 0.932 . S
C6 C3 1.358 . S
C6 C5 1.429 . S
C6 H33 0.930 . S
C7 C3 1.332 . S
C7 C8 1.394 . S
C7 H34 0.932 . S
C8 C4 1.308 . S
C8 C7 1.394 . S
C8 H35 0.929 . S
C9 Tb0 2.764 . S
C9 C3 1.504 . S
C9 O21 1.239 . S
C9 O22 1.263 . S
O10 Tb0 2.325 . S
O10 C20 1.236 . S
O11 Tb1 2.322 1_655 S
O11 C20 1.257 . S
O12 Tb1 2.349 . S
O12 C23 1.274 . S
O13 Tb0 2.303 . S
O13 C23 1.250 1_655 S
O14 Tb1 2.415 . S
O14 C30 1.239 . S
O15 Tb1 2.399 . S
O15 C30 1.263 . S
O16 Tb1 2.325 . S
O16 C31 1.236 . S
O17 Tb0 2.322 1_455 S
O17 C31 1.257 . S
O18 Tb0 2.349 . S
O18 C2 1.261 1_655 S
O19 Tb1 2.303 . S
O19 C2 1.257 . S
C20 O10 1.236 . S
C20 O11 1.257 . S
O21 Tb0 2.415 . S
O21 C9 1.239 . S
O22 Tb0 2.399 . S
O22 C9 1.263 . S
C23 O12 1.274 . S
C23 O13 1.250 1_455 S
C24 C27 1.358 . S
C24 C28 1.332 . S
C24 C30 1.504 . S
C25 C26 1.373 . S
C25 C29 1.308 . S
C26 C25 1.373 . S
C26 C27 1.429 . S
C26 H36 0.932 . S
C27 C24 1.358 . S
C27 C26 1.429 . S
C27 H37 0.930 . S
C28 C24 1.332 . S
C28 C29 1.394 . S
C28 H38 0.932 . S
C29 C25 1.308 . S
C29 C28 1.394 . S
C29 H39 0.929 . S
C30 Tb1 2.764 . S
C30 O14 1.239 . S
C30 O15 1.263 . S
C30 C24 1.504 . S
C31 O16 1.236 . S
C31 O17 1.257 . S
H32 C5 0.932 . S
H33 C6 0.930 . S
H34 C7 0.932 . S
H35 C8 0.929 . S
H36 C26 0.932 . S
H37 C27 0.930 . S
H38 C28 0.932 . S
H39 C29 0.929 . S
Tb40 C49 2.764 1_545 S
Tb40 O50 2.325 1_545 S
Tb40 O53 2.303 . S
Tb40 O57 2.322 . S
Tb40 O58 2.349 . S
Tb40 O61 2.415 1_545 S
Tb40 O62 2.399 1_545 S
Tb41 O51 2.322 1_545 S
Tb41 O52 2.349 . S
Tb41 O54 2.415 . S
Tb41 O55 2.399 . S
Tb41 O56 2.325 . S
Tb41 O59 2.303 . S
Tb41 C70 2.764 . S
C42 O58 1.261 . S
C42 O59 1.257 . S
C43 C46 1.358 . S
C43 C47 1.332 . S
C43 C49 1.504 . S
C44 C45 1.373 . S
C44 C48 1.308 . S
C45 C44 1.373 . S
C45 C46 1.429 . S
C45 H72 0.932 . S
C46 C43 1.358 . S
C46 C45 1.429 . S
C46 H73 0.930 . S
C47 C43 1.332 . S
C47 C48 1.394 . S
C47 H74 0.932 . S
C48 C44 1.308 . S
C48 C47 1.394 . S
C48 H75 0.929 . S
C49 Tb40 2.764 1_565 S
C49 C43 1.504 . S
C49 O61 1.239 . S
C49 O62 1.263 . S
O50 Tb40 2.325 1_565 S
O50 C60 1.236 . S
O51 Tb41 2.322 1_565 S
O51 C60 1.257 . S
O52 Tb41 2.349 . S
O52 C63 1.261 . S
O53 Tb40 2.303 . S
O53 C63 1.257 . S
O54 Tb41 2.415 . S
O54 C70 1.239 . S
O55 Tb41 2.399 . S
O55 C70 1.263 . S
O56 Tb41 2.325 . S
O56 C71 1.236 . S
O57 Tb40 2.322 . S
O57 C71 1.257 . S
O58 Tb40 2.349 . S
O58 C42 1.261 . S
O59 Tb41 2.303 . S
O59 C42 1.257 . S
C60 O50 1.236 . S
C60 O51 1.257 . S
O61 Tb40 2.415 1_565 S
O61 C49 1.239 . S
O62 Tb40 2.399 1_565 S
O62 C49 1.263 . S
C63 O52 1.261 . S
C63 O53 1.257 . S
C64 C67 1.358 . S
C64 C68 1.332 . S
C64 C70 1.504 . S
C65 C66 1.373 . S
C65 C69 1.308 . S
C66 C65 1.373 . S
C66 C67 1.429 . S
C66 H76 0.932 . S
C67 C64 1.358 . S
C67 C66 1.429 . S
C67 H77 0.930 . S
C68 C64 1.332 . S
C68 C69 1.394 . S
C68 H78 0.932 . S
C69 C65 1.308 . S
C69 C68 1.394 . S
C69 H79 0.929 . S
C70 Tb41 2.764 . S
C70 O54 1.239 . S
C70 O55 1.263 . S
C70 C64 1.504 . S
C71 O56 1.236 . S
C71 O57 1.257 . S
H72 C45 0.932 . S
H73 C46 0.930 . S
H74 C47 0.932 . S
H75 C48 0.929 . S
H76 C66 0.932 . S
H77 C67 0.930 . S
H78 C68 0.932 . S
H79 C69 0.929 . S
Tb80 C89 2.764 . S
Tb80 O90 2.325 . S
Tb80 O93 2.303 . S
Tb80 O97 2.322 . S
Tb80 O98 2.349 . S
Tb80 O101 2.415 . S
Tb80 O102 2.399 . S
Tb81 O91 2.322 . S
Tb81 O92 2.349 . S
Tb81 O94 2.415 . S
Tb81 O95 2.399 . S
Tb81 O96 2.325 . S
Tb81 O99 2.303 . S
Tb81 C110 2.764 . S
C82 O98 1.261 . S
C82 O99 1.257 . S
C83 C86 1.358 . S
C83 C87 1.332 . S
C83 C89 1.504 . S
C84 C85 1.373 . S
C84 C88 1.308 . S
C85 C84 1.373 . S
C85 C86 1.429 . S
C85 H112 0.932 . S
C86 C83 1.358 . S
C86 C85 1.429 . S
C86 H113 0.930 . S
C87 C83 1.332 . S
C87 C88 1.394 . S
C87 H114 0.932 . S
C88 C84 1.308 . S
C88 C87 1.394 . S
C88 H115 0.929 . S
C89 Tb80 2.764 . S
C89 C83 1.504 . S
C89 O101 1.239 . S
C89 O102 1.263 . S
O90 Tb80 2.325 . S
O90 C100 1.236 . S
O91 Tb81 2.322 . S
O91 C100 1.257 . S
O92 Tb81 2.349 . S
O92 C103 1.261 . S
O93 Tb80 2.303 . S
O93 C103 1.257 . S
O94 Tb81 2.415 . S
O94 C110 1.239 . S
O95 Tb81 2.399 . S
O95 C110 1.263 . S
O96 Tb81 2.325 . S
O96 C111 1.236 . S
O97 Tb80 2.322 . S
O97 C111 1.257 . S
O98 Tb80 2.349 . S
O98 C82 1.261 . S
O99 Tb81 2.303 . S
O99 C82 1.257 . S
C100 O90 1.236 . S
C100 O91 1.257 . S
O101 Tb80 2.415 . S
O101 C89 1.239 . S
O102 Tb80 2.399 . S
O102 C89 1.263 . S
C103 O92 1.261 . S
C103 O93 1.257 . S
C104 C107 1.358 . S
C104 C108 1.332 . S
C104 C110 1.504 . S
C105 C106 1.373 . S
C105 C109 1.308 . S
C106 C105 1.373 . S
C106 C107 1.429 . S
C106 H116 0.932 . S
C107 C104 1.358 . S
C107 C106 1.429 . S
C107 H117 0.930 . S
C108 C104 1.332 . S
C108 C109 1.394 . S
C108 H118 0.932 . S
C109 C105 1.308 . S
C109 C108 1.394 . S
C109 H119 0.929 . S
C110 Tb81 2.764 . S
C110 O94 1.239 . S
C110 O95 1.263 . S
C110 C104 1.504 . S
C111 O96 1.236 . S
C111 O97 1.257 . S
H112 C85 0.932 . S
H113 C86 0.930 . S
H114 C87 0.932 . S
H115 C88 0.929 . S
H116 C106 0.932 . S
H117 C107 0.930 . S
H118 C108 0.932 . S
H119 C109 0.929 . S
C120 N121 1.317 1_565 S
C120 N122 1.348 . S
C120 C123 1.485 1_565 S
N121 C120 1.317 1_545 S
N121 N125 1.370 . S
N122 C120 1.348 . S
N122 C124 1.346 . S
C123 C120 1.485 1_545 S
C123 H127 0.960 . S
C123 H128 0.961 1_545 S
C123 H129 0.960 . S
C124 N122 1.346 . S
C124 N125 1.307 1_565 S
C124 C126 1.486 . S
N125 N121 1.370 . S
N125 C124 1.307 1_545 S
C126 C124 1.486 . S
C126 H130 0.960 . S
C126 H131 0.960 . S
C126 H132 0.959 . S
H127 C123 0.960 . S
H128 C123 0.961 1_565 S
H129 C123 0.960 . S
H130 C126 0.960 . S
H131 C126 0.960 . S
H132 C126 0.959 . S
C133 N134 1.317 . S
C133 N135 1.348 . S
C133 C136 1.485 . S
N134 C133 1.317 . S
N134 N138 1.370 . S
N135 C133 1.348 . S
N135 C137 1.346 . S
C136 C133 1.485 . S
C136 H140 0.960 . S
C136 H141 0.961 . S
C136 H142 0.960 . S
C137 N135 1.346 . S
C137 N138 1.307 . S
C137 C139 1.486 . S
N138 N134 1.370 . S
N138 C137 1.307 . S
C139 C137 1.486 . S
C139 H143 0.960 . S
C139 H144 0.960 . S
C139 H145 0.959 . S
H140 C136 0.960 . S
H141 C136 0.961 . S
H142 C136 0.960 . S
H143 C139 0.960 . S
H144 C139 0.960 . S
H145 C139 0.959 . S
C146 N147 1.317 . S
C146 N148 1.348 . S
C146 C149 1.485 . S
N147 C146 1.317 . S
N147 N151 1.370 . S
N148 C146 1.348 . S
N148 C150 1.346 . S
C149 C146 1.485 . S
C149 H153 0.960 . S
C149 H154 0.961 . S
C149 H155 0.960 . S
C150 N148 1.346 . S
C150 N151 1.307 . S
C150 C152 1.486 1_455 S
N151 N147 1.370 . S
N151 C150 1.307 . S
C152 C150 1.486 1_655 S
C152 H156 0.960 . S
C152 H157 0.960 . S
C152 H158 0.959 . S
H153 C149 0.960 . S
H154 C149 0.961 . S
H155 C149 0.960 . S
H156 C152 0.960 . S
H157 C152 0.960 . S
H158 C152 0.959 . S
C159 N160 1.317 1_455 S
C159 N161 1.348 . S
C159 C162 1.485 . S
N160 C159 1.317 1_655 S
N160 N164 1.370 1_655 S
N161 C159 1.348 . S
N161 C163 1.346 . S
C162 C159 1.485 . S
C162 H166 0.960 . S
C162 H167 0.961 . S
C162 H168 0.960 1_455 S
C163 N161 1.346 . S
C163 N164 1.307 . S
C163 C165 1.486 . S
N164 N160 1.370 1_455 S
N164 C163 1.307 . S
C165 C163 1.486 . S
C165 H169 0.960 . S
C165 H170 0.960 . S
C165 H171 0.959 . S
H166 C162 0.960 . S
H167 C162 0.961 . S
H168 C162 0.960 1_655 S
H169 C165 0.960 . S
H170 C165 0.960 . S
H171 C165 0.959 . S
C172 N173 1.317 . S
C172 N174 1.348 . S
C172 C175 1.485 . S
N173 C172 1.317 . S
N173 N177 1.370 . S
N174 C172 1.348 . S
N174 C176 1.346 . S
C175 C172 1.485 . S
C175 H179 0.960 . S
C175 H180 0.961 . S
C175 H181 0.960 . S
C176 N174 1.346 . S
C176 N177 1.307 . S
C176 C178 1.486 . S
N177 N173 1.370 . S
N177 C176 1.307 . S
C178 C176 1.486 . S
C178 H182 0.960 . S
C178 H183 0.960 . S
C178 H184 0.959 . S
H179 C175 0.960 . S
H180 C175 0.961 . S
H181 C175 0.960 . S
H182 C178 0.960 . S
H183 C178 0.960 . S
H184 C178 0.959 . S
C185 N186 1.317 . S
C185 N187 1.348 . S
C185 C188 1.485 . S
N186 C185 1.317 . S
N186 N190 1.370 . S
N187 C185 1.348 . S
N187 C189 1.346 . S
C188 C185 1.485 . S
C188 H192 0.960 . S
C188 H193 0.961 . S
C188 H194 0.960 . S
C189 N187 1.346 . S
C189 N190 1.307 . S
C189 C191 1.486 . S
N190 N186 1.370 . S
N190 C189 1.307 . S
C191 C189 1.486 . S
C191 H195 0.960 . S
C191 H196 0.960 . S
C191 H197 0.959 . S
H192 C188 0.960 . S
H193 C188 0.961 . S
H194 C188 0.960 . S
H195 C191 0.960 . S
H196 C191 0.960 . S
H197 C191 0.959 . S
H198 C216 0.951 . S
H199 C218 0.951 . S
H200 C220 0.950 . S
H201 C221 0.950 . S
H202 C223 0.950 . S
H203 C226 0.950 . S
H204 C227 0.950 . S
H205 C229 0.950 . S
H206 C230 0.950 . S
H207 C231 0.951 . S
H208 C233 0.951 . S
H209 C235 0.950 . S
H210 C236 0.950 . S
H211 C238 0.950 . S
H212 C241 0.950 . S
H213 C242 0.950 . S
H214 C244 0.950 . S
H215 C245 0.950 . S
C216 H198 0.951 . S
C216 C217 1.366 . S
C216 C218 1.388 . S
C217 C216 1.366 . S
C217 C221 1.385 . S
C218 H199 0.951 . S
C218 C216 1.388 . S
C218 C219 1.366 . S
C219 C218 1.366 . S
C219 C220 1.414 . S
C219 C222 1.499 . S
C220 H200 0.950 . S
C220 C219 1.414 . S
C220 C221 1.374 . S
C221 H201 0.950 . S
C221 C217 1.385 . S
C221 C220 1.374 . S
C222 C219 1.499 . S
C222 C223 1.373 . S
C222 C224 1.389 . S
C223 H202 0.950 . S
C223 C222 1.373 . S
C223 C239 1.377 . S
C224 C222 1.389 . S
C224 C225 1.524 . S
C224 C238 1.377 . S
C225 C224 1.524 . S
C225 C226 1.397 . S
C225 C230 1.363 . S
C226 H203 0.950 . S
C226 C225 1.397 . S
C226 C227 1.334 . S
C227 H204 0.950 . S
C227 C226 1.334 . S
C227 C228 1.287 . S
C228 C227 1.287 . S
C228 C229 1.524 . S
C228 H247 0.913 . S
C229 H205 0.950 . S
C229 C228 1.524 . S
C229 C230 1.415 . S
C230 H206 0.950 . S
C230 C225 1.363 . S
C230 C229 1.415 . S
C231 H207 0.951 . S
C231 C232 1.366 . S
C231 C233 1.388 . S
C232 C231 1.366 . S
C232 C236 1.385 . S
C233 H208 0.951 . S
C233 C231 1.388 . S
C233 C234 1.366 . S
C234 C233 1.366 . S
C234 C235 1.414 . S
C234 C237 1.499 . S
C235 H209 0.950 . S
C235 C234 1.414 . S
C235 C236 1.374 . S
C236 H210 0.950 . S
C236 C232 1.385 . S
C236 C235 1.374 . S
C237 C234 1.499 . S
C237 C238 1.373 . S
C237 C239 1.389 . S
C238 H211 0.950 . S
C238 C224 1.377 . S
C238 C237 1.373 . S
C239 C223 1.377 . S
C239 C237 1.389 . S
C239 C240 1.524 . S
C240 C239 1.524 . S
C240 C241 1.397 . S
C240 C245 1.363 . S
C241 H212 0.950 . S
C241 C240 1.397 . S
C241 C242 1.334 . S
C242 H213 0.950 . S
C242 C241 1.334 . S
C242 C243 1.287 . S
C243 C242 1.287 . S
C243 C244 1.524 . S
C243 H246 0.999 . S
C244 H214 0.950 . S
C244 C243 1.524 . S
C244 C245 1.415 . S
C245 H215 0.950 . S
C245 C240 1.363 . S
C245 C244 1.415 . S
H246 C243 0.999 . S
H247 C228 0.913 . S
H248 C266 0.951 . S
H249 C268 0.951 . S
H250 C270 0.950 . S
H251 C271 0.950 . S
H252 C273 0.950 . S
H253 C276 0.950 . S
H254 C277 0.950 . S
H255 C279 0.950 . S
H256 C280 0.950 . S
H257 C281 0.951 1_455 S
H258 C283 0.951 . S
H259 C285 0.950 . S
H260 C286 0.950 . S
H261 C288 0.950 . S
H262 C291 0.950 . S
H263 C292 0.950 . S
H264 C294 0.950 . S
H265 C295 0.950 . S
C266 H248 0.951 . S
C266 C267 1.366 . S
C266 C268 1.388 . S
C267 C266 1.366 . S
C267 C271 1.385 . S
C268 H249 0.951 . S
C268 C266 1.388 . S
C268 C269 1.366 . S
C269 C268 1.366 . S
C269 C270 1.414 . S
C269 C272 1.499 . S
C270 H250 0.950 . S
C270 C269 1.414 . S
C270 C271 1.374 . S
C271 H251 0.950 . S
C271 C267 1.385 . S
C271 C270 1.374 . S
C272 C269 1.499 . S
C272 C273 1.373 . S
C272 C274 1.389 . S
C273 H252 0.950 . S
C273 C272 1.373 . S
C273 C289 1.377 . S
C274 C272 1.389 . S
C274 C275 1.524 . S
C274 C288 1.377 . S
C275 C274 1.524 . S
C275 C276 1.397 . S
C275 C280 1.363 . S
C276 H253 0.950 . S
C276 C275 1.397 . S
C276 C277 1.334 . S
C277 H254 0.950 . S
C277 C276 1.334 . S
C277 C278 1.287 . S
C278 C277 1.287 . S
C278 C279 1.524 . S
C278 H297 0.913 . S
C279 H255 0.950 . S
C279 C278 1.524 . S
C279 C280 1.415 . S
C280 H256 0.950 . S
C280 C275 1.363 . S
C280 C279 1.415 . S
C281 H257 0.951 1_655 S
C281 C282 1.366 . S
C281 C283 1.388 . S
C282 C281 1.366 . S
C282 C286 1.385 . S
C283 H258 0.951 . S
C283 C281 1.388 . S
C283 C284 1.366 . S
C284 C283 1.366 . S
C284 C285 1.414 . S
C284 C287 1.499 . S
C285 H259 0.950 . S
C285 C284 1.414 . S
C285 C286 1.374 . S
C286 H260 0.950 . S
C286 C282 1.385 . S
C286 C285 1.374 . S
C287 C284 1.499 . S
C287 C288 1.373 . S
C287 C289 1.389 . S
C288 H261 0.950 . S
C288 C274 1.377 . S
C288 C287 1.373 . S
C289 C273 1.377 . S
C289 C287 1.389 . S
C289 C290 1.524 . S
C290 C289 1.524 . S
C290 C291 1.397 . S
C290 C295 1.363 . S
C291 H262 0.950 . S
C291 C290 1.397 . S
C291 C292 1.334 1_655 S
C292 H263 0.950 . S
C292 C291 1.334 1_455 S
C292 C293 1.287 . S
C293 C292 1.287 . S
C293 C294 1.524 . S
C293 H296 0.999 . S
C294 H264 0.950 . S
C294 C293 1.524 . S
C294 C295 1.415 1_455 S
C295 H265 0.950 . S
C295 C290 1.363 . S
C295 C294 1.415 1_655 S
H296 C293 0.999 . S
H297 C278 0.913 . S
H298 C316 0.951 . S
H299 C318 0.951 . S
H300 C320 0.950 . S
H301 C321 0.950 . S
H302 C323 0.950 . S
H303 C326 0.950 . S
H304 C327 0.950 . S
H305 C329 0.950 . S
H306 C330 0.950 . S
H307 C331 0.951 . S
H308 C333 0.951 . S
H309 C335 0.950 . S
H310 C336 0.950 . S
H311 C338 0.950 . S
H312 C341 0.950 . S
H313 C342 0.950 . S
H314 C344 0.950 . S
H315 C345 0.950 . S
C316 H298 0.951 . S
C316 C317 1.366 . S
C316 C318 1.388 . S
C317 C316 1.366 . S
C317 C321 1.385 . S
C318 H299 0.951 . S
C318 C316 1.388 . S
C318 C319 1.366 . S
C319 C318 1.366 . S
C319 C320 1.414 . S
C319 C322 1.499 . S
C320 H300 0.950 . S
C320 C319 1.414 . S
C320 C321 1.374 . S
C321 H301 0.950 . S
C321 C317 1.385 . S
C321 C320 1.374 . S
C322 C319 1.499 . S
C322 C323 1.373 . S
C322 C324 1.389 . S
C323 H302 0.950 . S
C323 C322 1.373 . S
C323 C339 1.377 . S
C324 C322 1.389 . S
C324 C325 1.524 . S
C324 C338 1.377 . S
C325 C324 1.524 . S
C325 C326 1.397 . S
C325 C330 1.363 . S
C326 H303 0.950 . S
C326 C325 1.397 . S
C326 C327 1.334 . S
C327 H304 0.950 . S
C327 C326 1.334 . S
C327 C328 1.287 . S
C328 C327 1.287 . S
C328 C329 1.524 . S
C328 H347 0.913 . S
C329 H305 0.950 . S
C329 C328 1.524 . S
C329 C330 1.415 . S
C330 H306 0.950 . S
C330 C325 1.363 . S
C330 C329 1.415 . S
C331 H307 0.951 . S
C331 C332 1.366 . S
C331 C333 1.388 1_545 S
C332 C331 1.366 . S
C332 C336 1.385 1_545 S
C333 H308 0.951 . S
C333 C331 1.388 1_565 S
C333 C334 1.366 . S
C334 C333 1.366 . S
C334 C335 1.414 . S
C334 C337 1.499 . S
C335 H309 0.950 . S
C335 C334 1.414 . S
C335 C336 1.374 . S
C336 H310 0.950 . S
C336 C332 1.385 1_565 S
C336 C335 1.374 . S
C337 C334 1.499 . S
C337 C338 1.373 . S
C337 C339 1.389 . S
C338 H311 0.950 . S
C338 C324 1.377 . S
C338 C337 1.373 . S
C339 C323 1.377 . S
C339 C337 1.389 . S
C339 C340 1.524 . S
C340 C339 1.524 . S
C340 C341 1.397 . S
C340 C345 1.363 . S
C341 H312 0.950 . S
C341 C340 1.397 . S
C341 C342 1.334 . S
C342 H313 0.950 . S
C342 C341 1.334 . S
C342 C343 1.287 . S
C343 C342 1.287 . S
C343 C344 1.524 . S
C343 H346 0.999 . S
C344 H314 0.950 . S
C344 C343 1.524 . S
C344 C345 1.415 . S
C345 H315 0.950 . S
C345 C340 1.363 . S
C345 C344 1.415 . S
H346 C343 0.999 . S
H347 C328 0.913 . S
H348 C366 0.951 . S
H349 C368 0.951 . S
H350 C370 0.950 . S
H351 C371 0.950 . S
H352 C373 0.950 . S
H353 C376 0.950 . S
H354 C377 0.950 . S
H355 C379 0.950 . S
H356 C380 0.950 . S
H357 C381 0.951 . S
H358 C383 0.951 . S
H359 C385 0.950 . S
H360 C386 0.950 . S
H361 C388 0.950 . S
H362 C391 0.950 . S
H363 C392 0.950 . S
H364 C394 0.950 . S
H365 C395 0.950 . S
C366 H348 0.951 . S
C366 C367 1.366 . S
C366 C368 1.388 . S
C367 C366 1.366 . S
C367 C371 1.385 . S
C368 H349 0.951 . S
C368 C366 1.388 . S
C368 C369 1.366 . S
C369 C368 1.366 . S
C369 C370 1.414 . S
C369 C372 1.499 . S
C370 H350 0.950 . S
C370 C369 1.414 . S
C370 C371 1.374 . S
C371 H351 0.950 . S
C371 C367 1.385 . S
C371 C370 1.374 . S
C372 C369 1.499 . S
C372 C373 1.373 . S
C372 C374 1.389 . S
C373 H352 0.950 . S
C373 C372 1.373 . S
C373 C389 1.377 . S
C374 C372 1.389 . S
C374 C375 1.524 . S
C374 C388 1.377 . S
C375 C374 1.524 . S
C375 C376 1.397 . S
C375 C380 1.363 . S
C376 H353 0.950 . S
C376 C375 1.397 . S
C376 C377 1.334 . S
C377 H354 0.950 . S
C377 C376 1.334 . S
C377 C378 1.287 . S
C378 C377 1.287 . S
C378 C379 1.524 . S
C378 H397 0.913 . S
C379 H355 0.950 . S
C379 C378 1.524 . S
C379 C380 1.415 . S
C380 H356 0.950 . S
C380 C375 1.363 . S
C380 C379 1.415 . S
C381 H357 0.951 . S
C381 C382 1.366 . S
C381 C383 1.388 . S
C382 C381 1.366 . S
C382 C386 1.385 . S
C383 H358 0.951 . S
C383 C381 1.388 . S
C383 C384 1.366 . S
C384 C383 1.366 . S
C384 C385 1.414 . S
C384 C387 1.499 . S
C385 H359 0.950 . S
C385 C384 1.414 . S
C385 C386 1.374 . S
C386 H360 0.950 . S
C386 C382 1.385 . S
C386 C385 1.374 . S
C387 C384 1.499 . S
C387 C388 1.373 . S
C387 C389 1.389 . S
C388 H361 0.950 . S
C388 C374 1.377 . S
C388 C387 1.373 . S
C389 C373 1.377 . S
C389 C387 1.389 . S
C389 C390 1.524 . S
C390 C389 1.524 . S
C390 C391 1.397 . S
C390 C395 1.363 . S
C391 H362 0.950 . S
C391 C390 1.397 . S
C391 C392 1.334 . S
C392 H363 0.950 . S
C392 C391 1.334 . S
C392 C393 1.287 . S
C393 C392 1.287 . S
C393 C394 1.524 . S
C393 H396 0.999 . S
C394 H364 0.950 . S
C394 C393 1.524 . S
C394 C395 1.415 . S
C395 H365 0.950 . S
C395 C390 1.363 . S
C395 C394 1.415 . S
H396 C393 0.999 . S
H397 C378 0.913 . S
H398 C416 0.951 . S
H399 C418 0.951 . S
H400 C420 0.950 . S
H401 C421 0.950 . S
H402 C423 0.950 . S
H403 C426 0.950 . S
H404 C427 0.950 . S
H405 C429 0.950 . S
H406 C430 0.950 . S
H407 C431 0.951 . S
H408 C433 0.951 . S
H409 C435 0.950 . S
H410 C436 0.950 . S
H411 C438 0.950 . S
H412 C441 0.950 . S
H413 C442 0.950 . S
H414 C444 0.950 . S
H415 C445 0.950 . S
C416 H398 0.951 . S
C416 C417 1.366 . S
C416 C418 1.388 . S
C417 C416 1.366 . S
C417 C421 1.385 . S
C418 H399 0.951 . S
C418 C416 1.388 . S
C418 C419 1.366 . S
C419 C418 1.366 . S
C419 C420 1.414 . S
C419 C422 1.499 . S
C420 H400 0.950 . S
C420 C419 1.414 . S
C420 C421 1.374 . S
C421 H401 0.950 . S
C421 C417 1.385 . S
C421 C420 1.374 . S
C422 C419 1.499 . S
C422 C423 1.373 . S
C422 C424 1.389 . S
C423 H402 0.950 . S
C423 C422 1.373 . S
C423 C439 1.377 . S
C424 C422 1.389 . S
C424 C425 1.524 . S
C424 C438 1.377 . S
C425 C424 1.524 . S
C425 C426 1.397 . S
C425 C430 1.363 . S
C426 H403 0.950 . S
C426 C425 1.397 . S
C426 C427 1.334 . S
C427 H404 0.950 . S
C427 C426 1.334 . S
C427 C428 1.287 . S
C428 C427 1.287 . S
C428 C429 1.524 . S
C428 H447 0.913 . S
C429 H405 0.950 . S
C429 C428 1.524 . S
C429 C430 1.415 . S
C430 H406 0.950 . S
C430 C425 1.363 . S
C430 C429 1.415 . S
C431 H407 0.951 . S
C431 C432 1.366 . S
C431 C433 1.388 . S
C432 C431 1.366 . S
C432 C436 1.385 . S
C433 H408 0.951 . S
C433 C431 1.388 . S
C433 C434 1.366 . S
C434 C433 1.366 . S
C434 C435 1.414 . S
C434 C437 1.499 . S
C435 H409 0.950 . S
C435 C434 1.414 . S
C435 C436 1.374 . S
C436 H410 0.950 . S
C436 C432 1.385 . S
C436 C435 1.374 . S
C437 C434 1.499 . S
C437 C438 1.373 . S
C437 C439 1.389 . S
C438 H411 0.950 . S
C438 C424 1.377 . S
C438 C437 1.373 . S
C439 C423 1.377 . S
C439 C437 1.389 . S
C439 C440 1.524 . S
C440 C439 1.524 . S
C440 C441 1.397 . S
C440 C445 1.363 . S
C441 H412 0.950 . S
C441 C440 1.397 . S
C441 C442 1.334 . S
C442 H413 0.950 . S
C442 C441 1.334 . S
C442 C443 1.287 . S
C443 C442 1.287 . S
C443 C444 1.524 . S
C443 H446 0.999 . S
C444 H414 0.950 . S
C444 C443 1.524 . S
C444 C445 1.415 . S
C445 H415 0.950 . S
C445 C440 1.363 . S
C445 C444 1.415 . S
H446 C443 0.999 . S
H447 C428 0.913 . S
H448 C466 0.951 . S
H449 C468 0.951 . S
H450 C470 0.950 . S
H451 C471 0.950 . S
H452 C473 0.950 . S
H453 C476 0.950 . S
H454 C477 0.950 . S
H455 C479 0.950 . S
H456 C480 0.950 . S
H457 C481 0.951 . S
H458 C483 0.951 . S
H459 C485 0.950 . S
H460 C486 0.950 . S
H461 C488 0.950 . S
H462 C491 0.950 . S
H463 C492 0.950 . S
H464 C494 0.950 . S
H465 C495 0.950 . S
C466 H448 0.951 . S
C466 C467 1.366 . S
C466 C468 1.388 . S
C467 C466 1.366 . S
C467 C471 1.385 . S
C468 H449 0.951 . S
C468 C466 1.388 . S
C468 C469 1.366 . S
C469 C468 1.366 . S
C469 C470 1.414 . S
C469 C472 1.499 . S
C470 H450 0.950 . S
C470 C469 1.414 . S
C470 C471 1.374 . S
C471 H451 0.950 . S
C471 C467 1.385 . S
C471 C470 1.374 . S
C472 C469 1.499 . S
C472 C473 1.373 . S
C472 C474 1.389 . S
C473 H452 0.950 . S
C473 C472 1.373 . S
C473 C489 1.377 . S
C474 C472 1.389 . S
C474 C475 1.524 . S
C474 C488 1.377 . S
C475 C474 1.524 . S
C475 C476 1.397 . S
C475 C480 1.363 . S
C476 H453 0.950 . S
C476 C475 1.397 . S
C476 C477 1.334 . S
C477 H454 0.950 . S
C477 C476 1.334 . S
C477 C478 1.287 . S
C478 C477 1.287 . S
C478 C479 1.524 . S
C478 H497 0.913 . S
C479 H455 0.950 . S
C479 C478 1.524 . S
C479 C480 1.415 . S
C480 H456 0.950 . S
C480 C475 1.363 . S
C480 C479 1.415 . S
C481 H457 0.951 . S
C481 C482 1.366 . S
C481 C483 1.388 . S
C482 C481 1.366 . S
C482 C486 1.385 . S
C483 H458 0.951 . S
C483 C481 1.388 . S
C483 C484 1.366 . S
C484 C483 1.366 . S
C484 C485 1.414 . S
C484 C487 1.499 . S
C485 H459 0.950 . S
C485 C484 1.414 . S
C485 C486 1.374 . S
C486 H460 0.950 . S
C486 C482 1.385 . S
C486 C485 1.374 . S
C487 C484 1.499 . S
C487 C488 1.373 . S
C487 C489 1.389 . S
C488 H461 0.950 . S
C488 C474 1.377 . S
C488 C487 1.373 . S
C489 C473 1.377 . S
C489 C487 1.389 . S
C489 C490 1.524 . S
C490 C489 1.524 . S
C490 C491 1.397 . S
C490 C495 1.363 . S
C491 H462 0.950 . S
C491 C490 1.397 . S
C491 C492 1.334 . S
C492 H463 0.950 . S
C492 C491 1.334 . S
C492 C493 1.287 . S
C493 C492 1.287 . S
C493 C494 1.524 . S
C493 H496 0.999 . S
C494 H464 0.950 . S
C494 C493 1.524 . S
C494 C495 1.415 . S
C495 H465 0.950 . S
C495 C490 1.363 . S
C495 C494 1.415 . S
H496 C493 0.999 . S
H497 C478 0.913 . S
H498 C516 0.951 . S
H499 C518 0.951 . S
H500 C520 0.950 . S
H501 C521 0.950 . S
H502 C523 0.950 . S
H503 C526 0.950 . S
H504 C527 0.950 . S
H505 C529 0.950 . S
H506 C530 0.950 . S
H507 C531 0.951 . S
H508 C533 0.951 . S
H509 C535 0.950 . S
H510 C536 0.950 . S
H511 C538 0.950 . S
H512 C541 0.950 . S
H513 C542 0.950 . S
H514 C544 0.950 . S
H515 C545 0.950 . S
C516 H498 0.951 . S
C516 C517 1.366 . S
C516 C518 1.388 . S
C517 C516 1.366 . S
C517 C521 1.385 . S
C518 H499 0.951 . S
C518 C516 1.388 . S
C518 C519 1.366 . S
C519 C518 1.366 . S
C519 C520 1.414 . S
C519 C522 1.499 . S
C520 H500 0.950 . S
C520 C519 1.414 . S
C520 C521 1.374 . S
C521 H501 0.950 . S
C521 C517 1.385 . S
C521 C520 1.374 . S
C522 C519 1.499 . S
C522 C523 1.373 . S
C522 C524 1.389 . S
C523 H502 0.950 . S
C523 C522 1.373 . S
C523 C539 1.377 . S
C524 C522 1.389 . S
C524 C525 1.524 . S
C524 C538 1.377 . S
C525 C524 1.524 . S
C525 C526 1.397 . S
C525 C530 1.363 . S
C526 H503 0.950 . S
C526 C525 1.397 . S
C526 C527 1.334 . S
C527 H504 0.950 . S
C527 C526 1.334 . S
C527 C528 1.287 . S
C528 C527 1.287 . S
C528 C529 1.524 . S
C528 H547 0.913 . S
C529 H505 0.950 . S
C529 C528 1.524 . S
C529 C530 1.415 . S
C530 H506 0.950 . S
C530 C525 1.363 . S
C530 C529 1.415 . S
C531 H507 0.951 . S
C531 C532 1.366 . S
C531 C533 1.388 . S
C532 C531 1.366 . S
C532 C536 1.385 . S
C533 H508 0.951 . S
C533 C531 1.388 . S
C533 C534 1.366 . S
C534 C533 1.366 . S
C534 C535 1.414 . S
C534 C537 1.499 . S
C535 H509 0.950 . S
C535 C534 1.414 . S
C535 C536 1.374 . S
C536 H510 0.950 . S
C536 C532 1.385 . S
C536 C535 1.374 . S
C537 C534 1.499 . S
C537 C538 1.373 . S
C537 C539 1.389 . S
C538 H511 0.950 . S
C538 C524 1.377 . S
C538 C537 1.373 . S
C539 C523 1.377 . S
C539 C537 1.389 . S
C539 C540 1.524 . S
C540 C539 1.524 . S
C540 C541 1.397 . S
C540 C545 1.363 . S
C541 H512 0.950 . S
C541 C540 1.397 . S
C541 C542 1.334 . S
C542 H513 0.950 . S
C542 C541 1.334 . S
C542 C543 1.287 . S
C543 C542 1.287 . S
C543 C544 1.524 . S
C543 H546 0.999 . S
C544 H514 0.950 . S
C544 C543 1.524 . S
C544 C545 1.415 . S
C545 H515 0.950 . S
C545 C540 1.363 . S
C545 C544 1.415 . S
H546 C543 0.999 . S
H547 C528 0.913 . S
H548 C566 0.951 . S
H549 C568 0.951 . S
H550 C570 0.950 . S
H551 C571 0.950 . S
H552 C573 0.950 . S
H553 C576 0.950 . S
H554 C577 0.950 . S
H555 C579 0.950 . S
H556 C580 0.950 . S
H557 C581 0.951 . S
H558 C583 0.951 . S
H559 C585 0.950 . S
H560 C586 0.950 . S
H561 C588 0.950 . S
H562 C591 0.950 . S
H563 C592 0.950 . S
H564 C594 0.950 . S
H565 C595 0.950 . S
C566 H548 0.951 . S
C566 C567 1.366 . S
C566 C568 1.388 . S
C567 C566 1.366 . S
C567 C571 1.385 . S
C568 H549 0.951 . S
C568 C566 1.388 . S
C568 C569 1.366 . S
C569 C568 1.366 . S
C569 C570 1.414 . S
C569 C572 1.499 . S
C570 H550 0.950 . S
C570 C569 1.414 . S
C570 C571 1.374 . S
C571 H551 0.950 . S
C571 C567 1.385 . S
C571 C570 1.374 . S
C572 C569 1.499 . S
C572 C573 1.373 . S
C572 C574 1.389 . S
C573 H552 0.950 . S
C573 C572 1.373 . S
C573 C589 1.377 . S
C574 C572 1.389 . S
C574 C575 1.524 . S
C574 C588 1.377 . S
C575 C574 1.524 . S
C575 C576 1.397 . S
C575 C580 1.363 . S
C576 H553 0.950 . S
C576 C575 1.397 . S
C576 C577 1.334 . S
C577 H554 0.950 . S
C577 C576 1.334 . S
C577 C578 1.287 . S
C578 C577 1.287 . S
C578 C579 1.524 . S
C578 H597 0.913 . S
C579 H555 0.950 . S
C579 C578 1.524 . S
C579 C580 1.415 . S
C580 H556 0.950 . S
C580 C575 1.363 . S
C580 C579 1.415 . S
C581 H557 0.951 . S
C581 C582 1.366 . S
C581 C583 1.388 . S
C582 C581 1.366 . S
C582 C586 1.385 . S
C583 H558 0.951 . S
C583 C581 1.388 . S
C583 C584 1.366 . S
C584 C583 1.366 . S
C584 C585 1.414 . S
C584 C587 1.499 . S
C585 H559 0.950 . S
C585 C584 1.414 . S
C585 C586 1.374 . S
C586 H560 0.950 . S
C586 C582 1.385 . S
C586 C585 1.374 . S
C587 C584 1.499 . S
C587 C588 1.373 . S
C587 C589 1.389 . S
C588 H561 0.950 . S
C588 C574 1.377 . S
C588 C587 1.373 . S
C589 C573 1.377 . S
C589 C587 1.389 . S
C589 C590 1.524 . S
C590 C589 1.524 . S
C590 C591 1.397 . S
C590 C595 1.363 . S
C591 H562 0.950 . S
C591 C590 1.397 . S
C591 C592 1.334 . S
C592 H563 0.950 . S
C592 C591 1.334 . S
C592 C593 1.287 . S
C593 C592 1.287 . S
C593 C594 1.524 . S
C593 H596 0.999 . S
C594 H564 0.950 . S
C594 C593 1.524 . S
C594 C595 1.415 . S
C595 H565 0.950 . S
C595 C590 1.363 . S
C595 C594 1.415 . S
H596 C593 0.999 . S
H597 C578 0.913 . S
H598 C616 0.951 . S
H599 C618 0.951 . S
H600 C620 0.950 . S
H601 C621 0.950 . S
H602 C623 0.950 . S
H603 C626 0.950 . S
H604 C627 0.950 . S
H605 C629 0.950 . S
H606 C630 0.950 . S
H607 C631 0.951 . S
H608 C633 0.951 . S
H609 C635 0.950 . S
H610 C636 0.950 . S
H611 C638 0.950 . S
H612 C641 0.950 . S
H613 C642 0.950 . S
H614 C644 0.950 . S
H615 C645 0.950 . S
C616 H598 0.951 . S
C616 C617 1.366 . S
C616 C618 1.388 . S
C617 C616 1.366 . S
C617 C621 1.385 . S
C618 H599 0.951 . S
C618 C616 1.388 . S
C618 C619 1.366 . S
C619 C618 1.366 . S
C619 C620 1.414 . S
C619 C622 1.499 . S
C620 H600 0.950 . S
C620 C619 1.414 . S
C620 C621 1.374 . S
C621 H601 0.950 . S
C621 C617 1.385 . S
C621 C620 1.374 . S
C622 C619 1.499 . S
C622 C623 1.373 . S
C622 C624 1.389 . S
C623 H602 0.950 . S
C623 C622 1.373 . S
C623 C639 1.377 . S
C624 C622 1.389 . S
C624 C625 1.524 . S
C624 C638 1.377 . S
C625 C624 1.524 . S
C625 C626 1.397 . S
C625 C630 1.363 . S
C626 H603 0.950 . S
C626 C625 1.397 . S
C626 C627 1.334 . S
C627 H604 0.950 . S
C627 C626 1.334 . S
C627 C628 1.287 . S
C628 C627 1.287 . S
C628 C629 1.524 . S
C628 H647 0.913 . S
C629 H605 0.950 . S
C629 C628 1.524 . S
C629 C630 1.415 . S
C630 H606 0.950 . S
C630 C625 1.363 . S
C630 C629 1.415 . S
C631 H607 0.951 . S
C631 C632 1.366 . S
C631 C633 1.388 . S
C632 C631 1.366 . S
C632 C636 1.385 . S
C633 H608 0.951 . S
C633 C631 1.388 . S
C633 C634 1.366 . S
C634 C633 1.366 . S
C634 C635 1.414 . S
C634 C637 1.499 . S
C635 H609 0.950 . S
C635 C634 1.414 . S
C635 C636 1.374 . S
C636 H610 0.950 . S
C636 C632 1.385 . S
C636 C635 1.374 . S
C637 C634 1.499 . S
C637 C638 1.373 . S
C637 C639 1.389 . S
C638 H611 0.950 . S
C638 C624 1.377 . S
C638 C637 1.373 . S
C639 C623 1.377 . S
C639 C637 1.389 . S
C639 C640 1.524 . S
C640 C639 1.524 . S
C640 C641 1.397 . S
C640 C645 1.363 . S
C641 H612 0.950 . S
C641 C640 1.397 . S
C641 C642 1.334 . S
C642 H613 0.950 . S
C642 C641 1.334 . S
C642 C643 1.287 . S
C643 C642 1.287 . S
C643 C644 1.524 . S
C643 H646 0.999 . S
C644 H614 0.950 . S
C644 C643 1.524 . S
C644 C645 1.415 . S
C645 H615 0.950 . S
C645 C640 1.363 . S
C645 C644 1.415 . S
H646 C643 0.999 . S
H647 C628 0.913 . S
H648 C666 0.951 . S
H649 C668 0.951 . S
H650 C670 0.950 . S
H651 C671 0.950 . S
H652 C673 0.950 . S
H653 C676 0.950 . S
H654 C677 0.950 . S
H655 C679 0.950 . S
H656 C680 0.950 . S
H657 C681 0.951 . S
H658 C683 0.951 . S
H659 C685 0.950 . S
H660 C686 0.950 . S
H661 C688 0.950 . S
H662 C691 0.950 . S
H663 C692 0.950 . S
H664 C694 0.950 . S
H665 C695 0.950 . S
C666 H648 0.951 . S
C666 C667 1.366 . S
C666 C668 1.388 . S
C667 C666 1.366 . S
C667 C671 1.385 . S
C668 H649 0.951 . S
C668 C666 1.388 . S
C668 C669 1.366 . S
C669 C668 1.366 . S
C669 C670 1.414 . S
C669 C672 1.499 . S
C670 H650 0.950 . S
C670 C669 1.414 . S
C670 C671 1.374 . S
C671 H651 0.950 . S
C671 C667 1.385 . S
C671 C670 1.374 . S
C672 C669 1.499 . S
C672 C673 1.373 . S
C672 C674 1.389 . S
C673 H652 0.950 . S
C673 C672 1.373 . S
C673 C689 1.377 . S
C674 C672 1.389 . S
C674 C675 1.524 . S
C674 C688 1.377 . S
C675 C674 1.524 . S
C675 C676 1.397 . S
C675 C680 1.363 . S
C676 H653 0.950 . S
C676 C675 1.397 . S
C676 C677 1.334 . S
C677 H654 0.950 . S
C677 C676 1.334 . S
C677 C678 1.287 . S
C678 C677 1.287 . S
C678 C679 1.524 . S
C678 H697 0.913 . S
C679 H655 0.950 . S
C679 C678 1.524 . S
C679 C680 1.415 . S
C680 H656 0.950 . S
C680 C675 1.363 . S
C680 C679 1.415 . S
C681 H657 0.951 . S
C681 C682 1.366 . S
C681 C683 1.388 . S
C682 C681 1.366 . S
C682 C686 1.385 . S
C683 H658 0.951 . S
C683 C681 1.388 . S
C683 C684 1.366 . S
C684 C683 1.366 . S
C684 C685 1.414 . S
C684 C687 1.499 . S
C685 H659 0.950 . S
C685 C684 1.414 . S
C685 C686 1.374 . S
C686 H660 0.950 . S
C686 C682 1.385 . S
C686 C685 1.374 . S
C687 C684 1.499 . S
C687 C688 1.373 . S
C687 C689 1.389 . S
C688 H661 0.950 . S
C688 C674 1.377 . S
C688 C687 1.373 . S
C689 C673 1.377 . S
C689 C687 1.389 . S
C689 C690 1.524 . S
C690 C689 1.524 . S
C690 C691 1.397 . S
C690 C695 1.363 . S
C691 H662 0.950 . S
C691 C690 1.397 . S
C691 C692 1.334 . S
C692 H663 0.950 . S
C692 C691 1.334 . S
C692 C693 1.287 . S
C693 C692 1.287 . S
C693 C694 1.524 . S
C693 H696 0.999 . S
C694 H664 0.950 . S
C694 C693 1.524 . S
C694 C695 1.415 . S
C695 H665 0.950 . S
C695 C690 1.363 . S
C695 C694 1.415 . S
H696 C693 0.999 . S
H697 C678 0.913 . S
H698 C716 0.951 . S
H699 C718 0.951 . S
H700 C720 0.950 . S
H701 C721 0.950 . S
H702 C723 0.950 . S
H703 C726 0.950 . S
H704 C727 0.950 . S
H705 C729 0.950 . S
H706 C730 0.950 . S
H707 C731 0.951 . S
H708 C733 0.951 . S
H709 C735 0.950 . S
H710 C736 0.950 . S
H711 C738 0.950 . S
H712 C741 0.950 . S
H713 C742 0.950 . S
H714 C744 0.950 . S
H715 C745 0.950 . S
C716 H698 0.951 . S
C716 C717 1.366 . S
C716 C718 1.388 . S
C717 C716 1.366 . S
C717 C721 1.385 . S
C718 H699 0.951 . S
C718 C716 1.388 . S
C718 C719 1.366 . S
C719 C718 1.366 . S
C719 C720 1.414 . S
C719 C722 1.499 . S
C720 H700 0.950 . S
C720 C719 1.414 . S
C720 C721 1.374 . S
C721 H701 0.950 . S
C721 C717 1.385 . S
C721 C720 1.374 . S
C722 C719 1.499 . S
C722 C723 1.373 . S
C722 C724 1.389 . S
C723 H702 0.950 . S
C723 C722 1.373 . S
C723 C739 1.377 . S
C724 C722 1.389 . S
C724 C725 1.524 . S
C724 C738 1.377 . S
C725 C724 1.524 . S
C725 C726 1.397 . S
C725 C730 1.363 . S
C726 H703 0.950 . S
C726 C725 1.397 . S
C726 C727 1.334 . S
C727 H704 0.950 . S
C727 C726 1.334 . S
C727 C728 1.287 . S
C728 C727 1.287 . S
C728 C729 1.524 . S
C728 H747 0.913 . S
C729 H705 0.950 . S
C729 C728 1.524 . S
C729 C730 1.415 . S
C730 H706 0.950 . S
C730 C725 1.363 . S
C730 C729 1.415 . S
C731 H707 0.951 . S
C731 C732 1.366 . S
C731 C733 1.388 . S
C732 C731 1.366 . S
C732 C736 1.385 . S
C733 H708 0.951 . S
C733 C731 1.388 . S
C733 C734 1.366 . S
C734 C733 1.366 . S
C734 C735 1.414 . S
C734 C737 1.499 . S
C735 H709 0.950 . S
C735 C734 1.414 . S
C735 C736 1.374 . S
C736 H710 0.950 . S
C736 C732 1.385 . S
C736 C735 1.374 . S
C737 C734 1.499 . S
C737 C738 1.373 . S
C737 C739 1.389 . S
C738 H711 0.950 . S
C738 C724 1.377 . S
C738 C737 1.373 . S
C739 C723 1.377 . S
C739 C737 1.389 . S
C739 C740 1.524 . S
C740 C739 1.524 . S
C740 C741 1.397 . S
C740 C745 1.363 . S
C741 H712 0.950 . S
C741 C740 1.397 . S
C741 C742 1.334 . S
C742 H713 0.950 . S
C742 C741 1.334 . S
C742 C743 1.287 . S
C743 C742 1.287 . S
C743 C744 1.524 . S
C743 H746 0.999 . S
C744 H714 0.950 . S
C744 C743 1.524 . S
C744 C745 1.415 . S
C745 H715 0.950 . S
C745 C740 1.363 . S
C745 C744 1.415 . S
H746 C743 0.999 . S
H747 C728 0.913 . S
H748 C766 0.951 . S
H749 C768 0.951 . S
H750 C770 0.950 . S
H751 C771 0.950 . S
H752 C773 0.950 . S
H753 C776 0.950 . S
H754 C777 0.950 . S
H755 C779 0.950 . S
H756 C780 0.950 . S
H757 C781 0.951 . S
H758 C783 0.951 . S
H759 C785 0.950 . S
H760 C786 0.950 . S
H761 C788 0.950 . S
H762 C791 0.950 . S
H763 C792 0.950 . S
H764 C794 0.950 . S
H765 C795 0.950 . S
C766 H748 0.951 . S
C766 C767 1.366 . S
C766 C768 1.388 . S
C767 C766 1.366 . S
C767 C771 1.385 . S
C768 H749 0.951 . S
C768 C766 1.388 . S
C768 C769 1.366 . S
C769 C768 1.366 . S
C769 C770 1.414 . S
C769 C772 1.499 . S
C770 H750 0.950 . S
C770 C769 1.414 . S
C770 C771 1.374 . S
C771 H751 0.950 . S
C771 C767 1.385 . S
C771 C770 1.374 . S
C772 C769 1.499 . S
C772 C773 1.373 . S
C772 C774 1.389 . S
C773 H752 0.950 . S
C773 C772 1.373 . S
C773 C789 1.377 . S
C774 C772 1.389 . S
C774 C775 1.524 . S
C774 C788 1.377 . S
C775 C774 1.524 . S
C775 C776 1.397 . S
C775 C780 1.363 . S
C776 H753 0.950 . S
C776 C775 1.397 . S
C776 C777 1.334 . S
C777 H754 0.950 . S
C777 C776 1.334 . S
C777 C778 1.287 . S
C778 C777 1.287 . S
C778 C779 1.524 . S
C778 H797 0.913 . S
C779 H755 0.950 . S
C779 C778 1.524 . S
C779 C780 1.415 . S
C780 H756 0.950 . S
C780 C775 1.363 . S
C780 C779 1.415 . S
C781 H757 0.951 . S
C781 C782 1.366 . S
C781 C783 1.388 . S
C782 C781 1.366 . S
C782 C786 1.385 . S
C783 H758 0.951 . S
C783 C781 1.388 . S
C783 C784 1.366 . S
C784 C783 1.366 . S
C784 C785 1.414 . S
C784 C787 1.499 . S
C785 H759 0.950 . S
C785 C784 1.414 . S
C785 C786 1.374 . S
C786 H760 0.950 . S
C786 C782 1.385 . S
C786 C785 1.374 . S
C787 C784 1.499 . S
C787 C788 1.373 . S
C787 C789 1.389 . S
C788 H761 0.950 . S
C788 C774 1.377 . S
C788 C787 1.373 . S
C789 C773 1.377 . S
C789 C787 1.389 . S
C789 C790 1.524 . S
C790 C789 1.524 . S
C790 C791 1.397 . S
C790 C795 1.363 . S
C791 H762 0.950 . S
C791 C790 1.397 . S
C791 C792 1.334 . S
C792 H763 0.950 . S
C792 C791 1.334 . S
C792 C793 1.287 . S
C793 C792 1.287 . S
C793 C794 1.524 . S
C793 H796 0.999 . S
C794 H764 0.950 . S
C794 C793 1.524 . S
C794 C795 1.415 . S
C795 H765 0.950 . S
C795 C790 1.363 . S
C795 C794 1.415 . S
H796 C793 0.999 . S
H797 C778 0.913 . S
H798 C816 0.951 . S
H799 C818 0.951 . S
H800 C820 0.950 . S
H801 C821 0.950 . S
H802 C823 0.958 . S
H803 C826 0.950 . S
H804 C827 0.950 . S
H805 C829 0.950 . S
H806 C830 0.950 . S
H807 C831 0.951 1_655 S
H808 C833 0.951 1_655 S
H809 C835 0.950 . S
H810 C836 0.950 . S
H811 C838 0.950 1_556 S
H812 C841 0.950 1_455 S
H813 C842 0.950 . S
H814 C844 0.950 . S
H815 C845 0.950 . S
C816 H798 0.951 . S
C816 C817 1.366 . S
C816 C818 1.388 . S
C817 C816 1.366 . S
C817 C821 1.385 1_455 S
C818 H799 0.951 . S
C818 C816 1.388 . S
C818 C819 1.366 . S
C819 C818 1.366 . S
C819 C820 1.414 1_455 S
C819 C822 1.499 . S
C820 H800 0.950 . S
C820 C819 1.414 1_655 S
C820 C821 1.374 . S
C821 H801 0.950 . S
C821 C817 1.385 1_655 S
C821 C820 1.374 . S
C822 C819 1.499 . S
C822 C823 1.367 1_455 S
C822 C824 1.389 . S
C823 H802 0.958 . S
C823 C822 1.367 1_655 S
C823 C839 1.375 1_654 S
C824 C822 1.389 . S
C824 C825 1.524 . S
C824 C838 1.377 . S
C825 C824 1.524 . S
C825 C826 1.397 . S
C825 C830 1.363 . S
C826 H803 0.950 . S
C826 C825 1.397 . S
C826 C827 1.334 . S
C827 H804 0.950 . S
C827 C826 1.334 . S
C827 C828 1.287 . S
C828 C827 1.287 . S
C828 C829 1.524 . S
C828 H847 0.913 . S
C829 H805 0.950 . S
C829 C828 1.524 . S
C829 C830 1.415 . S
C830 H806 0.950 . S
C830 C825 1.363 . S
C830 C829 1.415 . S
C831 H807 0.951 1_455 S
C831 C832 1.366 . S
C831 C833 1.388 . S
C832 C831 1.366 . S
C832 C836 1.385 . S
C833 H808 0.951 1_455 S
C833 C831 1.388 . S
C833 C834 1.366 . S
C834 C833 1.366 . S
C834 C835 1.414 . S
C834 C837 1.499 . S
C835 H809 0.950 . S
C835 C834 1.414 . S
C835 C836 1.374 . S
C836 H810 0.950 . S
C836 C832 1.385 . S
C836 C835 1.374 . S
C837 C834 1.499 . S
C837 C838 1.373 1_556 S
C837 C839 1.389 . S
C838 H811 0.950 1_554 S
C838 C824 1.377 . S
C838 C837 1.373 1_554 S
C839 C823 1.375 1_456 S
C839 C837 1.389 . S
C839 C840 1.524 1_455 S
C840 C839 1.524 1_655 S
C840 C841 1.397 . S
C840 C845 1.363 . S
C841 H812 0.950 1_655 S
C841 C840 1.397 . S
C841 C842 1.334 . S
C842 H813 0.950 . S
C842 C841 1.334 . S
C842 C843 1.287 . S
C843 C842 1.287 . S
C843 C844 1.524 . S
C843 H846 0.999 . S
C844 H814 0.950 . S
C844 C843 1.524 . S
C844 C845 1.415 . S
C845 H815 0.950 . S
C845 C840 1.363 . S
C845 C844 1.415 . S
H846 C843 0.999 . S
H847 C828 0.913 . S
H848 C866 0.951 . S
H849 C868 0.951 . S
H850 C870 0.950 . S
H851 C871 0.950 . S
H852 C873 0.950 . S
H853 C876 0.950 . S
H854 C877 0.950 . S
H855 C879 0.950 . S
H856 C880 0.950 . S
H857 C881 0.951 . S
H858 C883 0.951 . S
H859 C885 0.930 1_565 S
H860 C886 0.950 . S
H861 C888 0.950 . S
H862 C891 0.950 . S
H863 C892 0.950 . S
H864 C894 0.950 1_545 S
H865 C895 0.950 . S
C866 H848 0.951 . S
C866 C867 1.366 . S
C866 C868 1.388 . S
C867 C866 1.366 . S
C867 C871 1.385 . S
C868 H849 0.951 . S
C868 C866 1.388 . S
C868 C869 1.366 . S
C869 C868 1.366 . S
C869 C870 1.414 . S
C869 C872 1.499 . S
C870 H850 0.950 . S
C870 C869 1.414 . S
C870 C871 1.374 . S
C871 H851 0.950 . S
C871 C867 1.385 . S
C871 C870 1.374 . S
C872 C869 1.499 . S
C872 C873 1.373 . S
C872 C874 1.389 . S
C873 H852 0.950 . S
C873 C872 1.373 . S
C873 C889 1.377 . S
C874 C872 1.389 . S
C874 C875 1.524 . S
C874 C888 1.377 . S
C875 C874 1.524 . S
C875 C876 1.397 . S
C875 C880 1.363 . S
C876 H853 0.950 . S
C876 C875 1.397 . S
C876 C877 1.334 . S
C877 H854 0.950 . S
C877 C876 1.334 . S
C877 C878 1.287 . S
C878 C877 1.287 . S
C878 C879 1.524 . S
C878 H897 0.913 . S
C879 H855 0.950 . S
C879 C878 1.524 . S
C879 C880 1.415 . S
C880 H856 0.950 . S
C880 C875 1.363 . S
C880 C879 1.415 . S
C881 H857 0.951 . S
C881 C882 1.366 . S
C881 C883 1.388 . S
C882 C881 1.366 . S
C882 C886 1.385 1_545 S
C883 H858 0.951 . S
C883 C881 1.388 . S
C883 C884 1.366 . S
C884 C883 1.366 . S
C884 C885 1.435 . S
C884 C887 1.499 . S
C885 H859 0.930 1_545 S
C885 C884 1.435 . S
C885 C886 1.374 1_545 S
C886 H860 0.950 . S
C886 C882 1.385 1_565 S
C886 C885 1.374 1_565 S
C887 C884 1.499 . S
C887 C888 1.373 . S
C887 C889 1.389 . S
C888 H861 0.950 . S
C888 C874 1.377 . S
C888 C887 1.373 . S
C889 C873 1.377 . S
C889 C887 1.389 . S
C889 C890 1.524 1_545 S
C890 C889 1.524 1_565 S
C890 C891 1.397 . S
C890 C895 1.363 1_565 S
C891 H862 0.950 . S
C891 C890 1.397 . S
C891 C892 1.334 . S
C892 H863 0.950 . S
C892 C891 1.334 . S
C892 C893 1.287 . S
C893 C892 1.287 . S
C893 C894 1.524 . S
C893 H896 0.999 . S
C894 H864 0.950 1_565 S
C894 C893 1.524 . S
C894 C895 1.415 1_565 S
C895 H865 0.950 . S
C895 C890 1.363 1_545 S
C895 C894 1.415 1_545 S
H896 C893 0.999 . S
H897 C878 0.913 . S
H898 C916 0.951 . S
H899 C918 0.951 . S
H900 C920 0.950 . S
H901 C921 0.950 . S
H902 C923 0.950 . S
H903 C926 0.950 . S
H904 C927 0.950 . S
H905 C929 0.950 . S
H906 C930 0.950 . S
H907 C931 0.951 . S
H908 C933 0.951 . S
H909 C935 0.950 . S
H910 C936 0.950 . S
H911 C938 0.950 . S
H912 C941 0.950 . S
H913 C942 0.950 . S
H914 C944 0.950 . S
H915 C945 0.950 . S
C916 H898 0.951 . S
C916 C917 1.366 . S
C916 C918 1.388 . S
C917 C916 1.366 . S
C917 C921 1.385 . S
C918 H899 0.951 . S
C918 C916 1.388 . S
C918 C919 1.366 . S
C919 C918 1.366 . S
C919 C920 1.414 . S
C919 C922 1.499 . S
C920 H900 0.950 . S
C920 C919 1.414 . S
C920 C921 1.374 . S
C921 H901 0.950 . S
C921 C917 1.385 . S
C921 C920 1.374 . S
C922 C919 1.499 . S
C922 C923 1.373 . S
C922 C924 1.389 . S
C923 H902 0.950 . S
C923 C922 1.373 . S
C923 C939 1.377 . S
C924 C922 1.389 . S
C924 C925 1.524 . S
C924 C938 1.377 . S
C925 C924 1.524 . S
C925 C926 1.397 . S
C925 C930 1.363 . S
C926 H903 0.950 . S
C926 C925 1.397 . S
C926 C927 1.334 . S
C927 H904 0.950 . S
C927 C926 1.334 . S
C927 C928 1.287 . S
C928 C927 1.287 . S
C928 C929 1.524 . S
C928 H947 0.913 . S
C929 H905 0.950 . S
C929 C928 1.524 . S
C929 C930 1.415 . S
C930 H906 0.950 . S
C930 C925 1.363 . S
C930 C929 1.415 . S
C931 H907 0.951 . S
C931 C932 1.366 . S
C931 C933 1.388 . S
C932 C931 1.366 . S
C932 C936 1.385 . S
C933 H908 0.951 . S
C933 C931 1.388 . S
C933 C934 1.366 . S
C934 C933 1.366 . S
C934 C935 1.414 . S
C934 C937 1.499 . S
C935 H909 0.950 . S
C935 C934 1.414 . S
C935 C936 1.374 . S
C936 H910 0.950 . S
C936 C932 1.385 . S
C936 C935 1.374 . S
C937 C934 1.499 . S
C937 C938 1.373 . S
C937 C939 1.389 . S
C938 H911 0.950 . S
C938 C924 1.377 . S
C938 C937 1.373 . S
C939 C923 1.377 . S
C939 C937 1.389 . S
C939 C940 1.524 . S
C940 C939 1.524 . S
C940 C941 1.397 . S
C940 C945 1.363 . S
C941 H912 0.950 . S
C941 C940 1.397 . S
C941 C942 1.334 . S
C942 H913 0.950 . S
C942 C941 1.334 . S
C942 C943 1.287 . S
C943 C942 1.287 . S
C943 C944 1.524 . S
C943 H946 0.999 . S
C944 H914 0.950 . S
C944 C943 1.524 . S
C944 C945 1.415 . S
C945 H915 0.950 . S
C945 C940 1.363 . S
C945 C944 1.415 . S
H946 C943 0.999 . S
H947 C928 0.913 . S
H948 C966 0.951 . S
H949 C968 0.951 . S
H950 C970 0.950 . S
H951 C971 0.950 . S
H952 C973 0.950 . S
H953 C976 0.950 . S
H954 C977 0.950 . S
H955 C979 0.950 . S
H956 C980 0.950 . S
H957 C981 0.951 . S
H958 C983 0.951 . S
H959 C985 0.950 . S
H960 C986 0.950 . S
H961 C988 0.950 . S
H962 C991 0.950 . S
H963 C992 0.950 . S
H964 C994 0.950 . S
H965 C995 0.950 . S
C966 H948 0.951 . S
C966 C967 1.366 . S
C966 C968 1.388 . S
C967 C966 1.366 . S
C967 C971 1.385 . S
C968 H949 0.951 . S
C968 C966 1.388 . S
C968 C969 1.366 . S
C969 C968 1.366 . S
C969 C970 1.414 . S
C969 C972 1.499 . S
C970 H950 0.950 . S
C970 C969 1.414 . S
C970 C971 1.374 . S
C971 H951 0.950 . S
C971 C967 1.385 . S
C971 C970 1.374 . S
C972 C969 1.499 . S
C972 C973 1.373 . S
C972 C974 1.389 1_545 S
C973 H952 0.950 . S
C973 C972 1.373 . S
C973 C989 1.377 . S
C974 C972 1.389 1_565 S
C974 C975 1.524 . S
C974 C988 1.377 . S
C975 C974 1.524 . S
C975 C976 1.397 . S
C975 C980 1.363 . S
C976 H953 0.950 . S
C976 C975 1.397 . S
C976 C977 1.334 . S
C977 H954 0.950 . S
C977 C976 1.334 . S
C977 C978 1.287 . S
C978 C977 1.287 . S
C978 C979 1.524 . S
C978 H997 0.913 . S
C979 H955 0.950 . S
C979 C978 1.524 . S
C979 C980 1.415 . S
C980 H956 0.950 . S
C980 C975 1.363 . S
C980 C979 1.415 . S
C981 H957 0.951 . S
C981 C982 1.366 . S
C981 C983 1.388 . S
C982 C981 1.366 . S
C982 C986 1.385 . S
C983 H958 0.951 . S
C983 C981 1.388 . S
C983 C984 1.366 . S
C984 C983 1.366 . S
C984 C985 1.414 . S
C984 C987 1.499 . S
C985 H959 0.950 . S
C985 C984 1.414 . S
C985 C986 1.374 . S
C986 H960 0.950 . S
C986 C982 1.385 . S
C986 C985 1.374 . S
C987 C984 1.499 . S
C987 C988 1.373 1_545 S
C987 C989 1.389 . S
C988 H961 0.950 . S
C988 C974 1.377 . S
C988 C987 1.373 1_565 S
C989 C973 1.377 . S
C989 C987 1.389 . S
C989 C990 1.524 . S
C990 C989 1.524 . S
C990 C991 1.397 . S
C990 C995 1.363 . S
C991 H962 0.950 . S
C991 C990 1.397 . S
C991 C992 1.334 . S
C992 H963 0.950 . S
C992 C991 1.334 . S
C992 C993 1.287 . S
C993 C992 1.287 . S
C993 C994 1.524 . S
C993 H996 0.999 . S
C994 H964 0.950 . S
C994 C993 1.524 . S
C994 C995 1.415 . S
C995 H965 0.950 . S
C995 C990 1.363 . S
C995 C994 1.415 . S
H996 C993 0.999 . S
H997 C978 0.913 . S
H998 C1016 0.951 . S
H999 C1018 0.951 . S
H1000 C1020 0.950 . S
H1001 C1021 0.950 . S
H1002 C1023 0.950 . S
H1003 C1026 0.950 . S
H1004 C1027 0.950 . S
H1005 C1029 0.950 . S
H1006 C1030 0.950 . S
H1007 C1031 0.951 . S
H1008 C1033 0.951 . S
H1009 C1035 0.950 . S
H1010 C1036 0.950 . S
H1011 C1038 0.959 . S
H1012 C1041 0.950 . S
H1013 C1042 0.950 . S
H1014 C1044 0.950 . S
H1015 C1045 0.950 1_556 S
C1016 H998 0.951 . S
C1016 C1017 1.366 . S
C1016 C1018 1.388 . S
C1017 C1016 1.366 . S
C1017 C1021 1.385 . S
C1018 H999 0.951 . S
C1018 C1016 1.388 . S
C1018 C1019 1.366 . S
C1019 C1018 1.366 . S
C1019 C1020 1.414 . S
C1019 C1022 1.499 . S
C1020 H1000 0.950 . S
C1020 C1019 1.414 . S
C1020 C1021 1.374 . S
C1021 H1001 0.950 . S
C1021 C1017 1.385 . S
C1021 C1020 1.374 . S
C1022 C1019 1.499 . S
C1022 C1023 1.373 . S
C1022 C1024 1.389 . S
C1023 H1002 0.950 . S
C1023 C1022 1.373 . S
C1023 C1039 1.377 . S
C1024 C1022 1.389 . S
C1024 C1025 1.524 . S
C1024 C1038 1.361 1_556 S
C1025 C1024 1.524 . S
C1025 C1026 1.397 . S
C1025 C1030 1.363 . S
C1026 H1003 0.950 . S
C1026 C1025 1.397 . S
C1026 C1027 1.334 . S
C1027 H1004 0.950 . S
C1027 C1026 1.334 . S
C1027 C1028 1.287 . S
C1028 C1027 1.287 . S
C1028 C1029 1.524 . S
C1028 H1047 0.913 . S
C1029 H1005 0.950 . S
C1029 C1028 1.524 . S
C1029 C1030 1.415 . S
C1030 H1006 0.950 . S
C1030 C1025 1.363 . S
C1030 C1029 1.415 . S
C1031 H1007 0.951 . S
C1031 C1032 1.366 . S
C1031 C1033 1.388 . S
C1032 C1031 1.366 . S
C1032 C1036 1.385 . S
C1033 H1008 0.951 . S
C1033 C1031 1.388 . S
C1033 C1034 1.366 . S
C1034 C1033 1.366 . S
C1034 C1035 1.414 . S
C1034 C1037 1.499 . S
C1035 H1009 0.950 . S
C1035 C1034 1.414 . S
C1035 C1036 1.374 . S
C1036 H1010 0.950 . S
C1036 C1032 1.385 . S
C1036 C1035 1.374 . S
C1037 C1034 1.499 . S
C1037 C1038 1.380 . S
C1037 C1039 1.389 1_554 S
C1038 H1011 0.959 . S
C1038 C1024 1.361 1_554 S
C1038 C1037 1.380 . S
C1039 C1023 1.377 . S
C1039 C1037 1.389 1_556 S
C1039 C1040 1.524 1_556 S
C1040 C1039 1.524 1_554 S
C1040 C1041 1.397 . S
C1040 C1045 1.363 . S
C1041 H1012 0.950 . S
C1041 C1040 1.397 . S
C1041 C1042 1.334 . S
C1042 H1013 0.950 . S
C1042 C1041 1.334 . S
C1042 C1043 1.287 . S
C1043 C1042 1.287 . S
C1043 C1044 1.524 . S
C1043 H1046 0.999 . S
C1044 H1014 0.950 . S
C1044 C1043 1.524 . S
C1044 C1045 1.415 . S
C1045 H1015 0.950 1_554 S
C1045 C1040 1.363 . S
C1045 C1044 1.415 . S
H1046 C1043 0.999 . S
H1047 C1028 0.913 . S
H1048 C1066 0.951 . S
H1049 C1068 0.951 . S
H1050 C1070 0.950 . S
H1051 C1071 0.950 . S
H1052 C1073 0.950 . S
H1053 C1076 0.950 . S
H1054 C1077 0.950 . S
H1055 C1079 0.950 . S
H1056 C1080 0.950 1_455 S
H1057 C1081 0.951 . S
H1058 C1083 0.951 . S
H1059 C1085 0.950 . S
H1060 C1086 0.950 . S
H1061 C1088 0.950 . S
H1062 C1091 0.950 . S
H1063 C1092 0.950 . S
H1064 C1094 0.950 . S
H1065 C1095 0.950 1_655 S
C1066 H1048 0.951 . S
C1066 C1067 1.366 1_455 S
C1066 C1068 1.388 . S
C1067 C1066 1.366 1_655 S
C1067 C1071 1.385 . S
C1068 H1049 0.951 . S
C1068 C1066 1.388 . S
C1068 C1069 1.366 1_455 S
C1069 C1068 1.366 1_655 S
C1069 C1070 1.414 . S
C1069 C1072 1.499 . S
C1070 H1050 0.950 . S
C1070 C1069 1.414 . S
C1070 C1071 1.374 . S
C1071 H1051 0.950 . S
C1071 C1067 1.385 . S
C1071 C1070 1.374 . S
C1072 C1069 1.499 . S
C1072 C1073 1.373 1_655 S
C1072 C1074 1.389 . S
C1073 H1052 0.950 . S
C1073 C1072 1.373 1_455 S
C1073 C1089 1.377 . S
C1074 C1072 1.389 . S
C1074 C1075 1.524 . S
C1074 C1088 1.377 . S
C1075 C1074 1.524 . S
C1075 C1076 1.397 . S
C1075 C1080 1.363 . S
C1076 H1053 0.950 . S
C1076 C1075 1.397 . S
C1076 C1077 1.334 . S
C1077 H1054 0.950 . S
C1077 C1076 1.334 . S
C1077 C1078 1.287 . S
C1078 C1077 1.287 . S
C1078 C1079 1.524 . S
C1078 H1097 0.913 . S
C1079 H1055 0.950 . S
C1079 C1078 1.524 . S
C1079 C1080 1.415 . S
C1080 H1056 0.950 1_655 S
C1080 C1075 1.363 . S
C1080 C1079 1.415 . S
C1081 H1057 0.951 . S
C1081 C1082 1.366 1_655 S
C1081 C1083 1.388 . S
C1082 C1081 1.366 1_455 S
C1082 C1086 1.385 . S
C1083 H1058 0.951 . S
C1083 C1081 1.388 . S
C1083 C1084 1.366 1_655 S
C1084 C1083 1.366 1_455 S
C1084 C1085 1.414 . S
C1084 C1087 1.499 . S
C1085 H1059 0.950 . S
C1085 C1084 1.414 . S
C1085 C1086 1.374 . S
C1086 H1060 0.950 . S
C1086 C1082 1.385 . S
C1086 C1085 1.374 . S
C1087 C1084 1.499 . S
C1087 C1088 1.373 1_455 S
C1087 C1089 1.389 . S
C1088 H1061 0.950 . S
C1088 C1074 1.377 . S
C1088 C1087 1.373 1_655 S
C1089 C1073 1.377 . S
C1089 C1087 1.389 . S
C1089 C1090 1.524 . S
C1090 C1089 1.524 . S
C1090 C1091 1.397 . S
C1090 C1095 1.363 . S
C1091 H1062 0.950 . S
C1091 C1090 1.397 . S
C1091 C1092 1.334 . S
C1092 H1063 0.950 . S
C1092 C1091 1.334 . S
C1092 C1093 1.287 . S
C1093 C1092 1.287 . S
C1093 C1094 1.524 . S
C1093 H1096 0.999 . S
C1094 H1064 0.950 . S
C1094 C1093 1.524 . S
C1094 C1095 1.415 . S
C1095 H1065 0.950 1_455 S
C1095 C1090 1.363 . S
C1095 C1094 1.415 . S
H1096 C1093 0.999 . S
H1097 C1078 0.913 . S
C217 C25 0.243 . S
C232 N187 0.282 . S
C267 C65 0.268 . S
C282 N160 0.255 . S
C317 C105 0.287 . S
C332 N173 0.261 . S
C367 C4 0.428 . S
C382 N186 0.407 . S
C432 N161 0.389 . S
C417 C44 0.404 . S
C482 N174 0.373 . S
C467 C84 0.379 . S
C517 C60 2.779 . S
C532 N134 2.774 . S
C567 C100 2.711 . S
C582 N148 2.664 1_655 S
C617 C31 3.088 . S
C632 N122 3.067 . S
C682 N135 3.082 . S
C667 C71 3.094 . S
C732 N147 3.221 . S
C717 C111 3.192 . S
C767 C20 2.783 . S
C782 N121 2.778 . S
C832 N151 1.771 . S
C817 C2 1.748 . S
C867 C42 1.706 . S
C882 N125 1.762 . S
C917 C82 1.716 . S
C932 N138 1.781 . S
C982 N177 1.274 . S
C967 C63 1.271 . S
C1032 N190 1.278 . S
C1017 C103 1.284 . S
C1067 C23 1.280 1_655 S
C1082 N164 1.294 . S
