# Generated by pormake.
# Topology nom, (4,4)-cn, num edge types: 1
# Building blocks:
#     Node 0, Type 0, BuildingBlock: MIFKUJ_clean_linker_1, # of connection points: 4
#     Node 1, Type 0, BuildingBlock: MIFKUJ_clean_linker_1, # of connection points: 4
#     Node 2, Type 0, BuildingBlock: MIFKUJ_clean_linker_1, # of connection points: 4
#     Node 3, Type 0, BuildingBlock: MIFKUJ_clean_linker_1, # of connection points: 4
#     Node 4, Type 0, BuildingBlock: MIFKUJ_clean_linker_1, # of connection points: 4
#     Node 5, Type 0, BuildingBlock: MIFKUJ_clean_linker_1, # of connection points: 4
#     Node 6, Type 1, BuildingBlock: NAHDIM_clean_sbu_0, # of connection points: 4
#     Node 7, Type 1, BuildingBlock: NAHDIM_clean_sbu_0, # of connection points: 4
#     Node 8, Type 1, BuildingBlock: NAHDIM_clean_sbu_0, # of connection points: 4
#     Node 9, Type 1, BuildingBlock: NAHDIM_clean_sbu_0, # of connection points: 4
#     Node 10, Type 1, BuildingBlock: NAHDIM_clean_sbu_0, # of connection points: 4
#     Node 11, Type 1, BuildingBlock: NAHDIM_clean_sbu_0, # of connection points: 4
#     Edge 12, Type (0, 1), BuildingBlock: OJICUG_clean_linker_0, # of connection points: 2
#     Edge 13, Type (0, 1), BuildingBlock: OJICUG_clean_linker_0, # of connection points: 2
#     Edge 14, Type (0, 1), BuildingBlock: OJICUG_clean_linker_0, # of connection points: 2
#     Edge 15, Type (0, 1), BuildingBlock: OJICUG_clean_linker_0, # of connection points: 2
#     Edge 16, Type (0, 1), BuildingBlock: OJICUG_clean_linker_0, # of connection points: 2
#     Edge 17, Type (0, 1), BuildingBlock: OJICUG_clean_linker_0, # of connection points: 2
#     Edge 18, Type (0, 1), BuildingBlock: OJICUG_clean_linker_0, # of connection points: 2
#     Edge 19, Type (0, 1), BuildingBlock: OJICUG_clean_linker_0, # of connection points: 2
#     Edge 20, Type (0, 1), BuildingBlock: OJICUG_clean_linker_0, # of connection points: 2
#     Edge 21, Type (0, 1), BuildingBlock: OJICUG_clean_linker_0, # of connection points: 2
#     Edge 22, Type (0, 1), BuildingBlock: OJICUG_clean_linker_0, # of connection points: 2
#     Edge 23, Type (0, 1), BuildingBlock: OJICUG_clean_linker_0, # of connection points: 2
#     Edge 24, Type (0, 1), BuildingBlock: OJICUG_clean_linker_0, # of connection points: 2
#     Edge 25, Type (0, 1), BuildingBlock: OJICUG_clean_linker_0, # of connection points: 2
#     Edge 26, Type (0, 1), BuildingBlock: OJICUG_clean_linker_0, # of connection points: 2
#     Edge 27, Type (0, 1), BuildingBlock: OJICUG_clean_linker_0, # of connection points: 2
#     Edge 28, Type (0, 1), BuildingBlock: OJICUG_clean_linker_0, # of connection points: 2
#     Edge 29, Type (0, 1), BuildingBlock: OJICUG_clean_linker_0, # of connection points: 2
#     Edge 30, Type (0, 1), BuildingBlock: OJICUG_clean_linker_0, # of connection points: 2
#     Edge 31, Type (0, 1), BuildingBlock: OJICUG_clean_linker_0, # of connection points: 2
#     Edge 32, Type (0, 1), BuildingBlock: OJICUG_clean_linker_0, # of connection points: 2
#     Edge 33, Type (0, 1), BuildingBlock: OJICUG_clean_linker_0, # of connection points: 2
#     Edge 34, Type (0, 1), BuildingBlock: OJICUG_clean_linker_0, # of connection points: 2
#     Edge 35, Type (0, 1), BuildingBlock: OJICUG_clean_linker_0, # of connection points: 2
# Relax obj value: 0.020
# Max RMSD: 0.119
# Mean RMSD: 0.105
data_MOF--net-nom--node1-NAHDIM_clean_sbu_0--node2-MIFKUJ_clean_linker_1--edge1-OJICUG_clean_linker_0
_symmetry_space_group_name_H-M    P1
_symmetry_Int_Tables_number       1
_symmetry_cell_setting            triclinic
loop_
_symmetry_equiv_pos_as_xyz
'x, y, z'
_cell_length_a     41.13477
_cell_length_b     42.336231
_cell_length_c     43.64956
_cell_angle_alpha  90.117804
_cell_angle_beta   90.629131
_cell_angle_gamma 121.05317
loop_
_atom_site_label
_atom_site_type_symbol
_atom_site_fract_x
_atom_site_fract_y
_atom_site_fract_z
_atom_type_partial_charge
H0 H 0.96025 0.43419 0.25633 0.0
H1 H 0.91441 0.40632 0.21415 0.0
H2 H 0.87162 0.4782 0.23456 0.0
H3 H 0.91877 0.50702 0.27595 0.0
H4 H 0.01741 0.50877 0.26232 0.0
H5 H 0.89517 0.42385 0.31484 0.0
H6 H 0.83129 0.40797 0.3295 0.0
H7 H 0.87836 0.5137 0.3753 0.0
H8 H 0.94126 0.53031 0.35861 0.0
H9 H 0.03814 0.56507 0.38874 0.0
H10 H 0.08357 0.58325 0.43124 0.0
H11 H 0.13208 0.52481 0.38885 0.0
H12 H 0.08565 0.50559 0.34693 0.0
H13 H 0.98354 0.50274 0.3717 0.0
H14 H 0.08373 0.59662 0.32229 0.0
H15 H 0.14762 0.63946 0.30468 0.0
H16 H 0.14678 0.55108 0.25411 0.0
H17 H 0.08204 0.50836 0.27137 0.0
C18 C 0.94266 0.4724 0.26945 0.0
C19 C 0.94096 0.44391 0.25169 0.0
C20 C 0.91449 0.42777 0.22776 0.0
C21 C 0.88916 0.43985 0.22103 0.0
C22 C 0.89093 0.46844 0.23893 0.0
C23 C 0.91761 0.48473 0.26278 0.0
C24 C 0.97156 0.48959 0.29429 0.0
C25 C 0.00997 0.50688 0.2863 0.0
C26 C 0.96202 0.49 0.32533 0.0
C27 C 0.92302 0.47853 0.33514 0.0
C28 C 0.89158 0.44375 0.32766 0.0
C29 C 0.85509 0.43454 0.33644 0.0
C30 C 0.84948 0.45967 0.35342 0.0
C31 C 0.88128 0.49397 0.36161 0.0
C32 C 0.91747 0.50334 0.3524 0.0
C33 C 0.05847 0.534 0.36459 0.0
C34 C 0.05855 0.55617 0.38859 0.0
C35 C 0.08479 0.56683 0.41274 0.0
C36 C 0.11145 0.55546 0.41343 0.0
C37 C 0.11166 0.53369 0.38916 0.0
C38 C 0.08539 0.52302 0.36501 0.0
C39 C 0.02923 0.52088 0.33981 0.0
C40 C 0.99096 0.5043 0.34775 0.0
C41 C 0.03888 0.52409 0.30855 0.0
C42 C 0.07835 0.54918 0.2985 0.0
C43 C 0.09744 0.58635 0.30767 0.0
C44 C 0.13405 0.61083 0.2976 0.0
C45 C 0.15252 0.59871 0.27812 0.0
C46 C 0.13325 0.56142 0.26883 0.0
C47 C 0.09638 0.53691 0.27881 0.0
H48 H 0.41336 0.94271 0.53581 0.0
H49 H 0.37383 0.87725 0.54723 0.0
H50 H 0.45512 0.85699 0.50321 0.0
H51 H 0.4942 0.92265 0.49131 0.0
H52 H 0.48796 0.99396 0.55173 0.0
H53 H 0.41268 0.93616 0.45905 0.0
H54 H 0.39027 0.8919 0.41649 0.0
H55 H 0.50579 0.93823 0.38648 0.0
H56 H 0.52809 0.98188 0.42964 0.0
H57 H 0.57017 0.09625 0.44959 0.0
H58 H 0.58889 0.15899 0.43411 0.0
H59 H 0.51022 0.15918 0.49865 0.0
H60 H 0.49057 0.09629 0.51326 0.0
H61 H 0.50782 0.03529 0.44371 0.0
H62 H 0.58443 0.09607 0.53263 0.0
H63 H 0.60978 0.13727 0.57745 0.0
H64 H 0.49719 0.0854 0.61504 0.0
H65 H 0.47205 0.04431 0.57033 0.0
C66 C 0.45651 0.9374 0.51255 0.0
C67 C 0.42279 0.92417 0.52886 0.0
C68 C 0.40031 0.88676 0.53548 0.0
C69 C 0.41129 0.86185 0.52612 0.0
C70 C 0.44558 0.87536 0.51033 0.0
C71 C 0.46801 0.91285 0.50361 0.0
C72 C 0.47886 0.97685 0.50443 0.0
C73 C 0.49226 0.00312 0.52813 0.0
C74 C 0.48579 0.98863 0.47366 0.0
C75 C 0.47208 0.96207 0.44764 0.0
C76 C 0.43319 0.93658 0.44344 0.0
C77 C 0.42041 0.91149 0.41897 0.0
C78 C 0.44627 0.91153 0.39811 0.0
C79 C 0.48522 0.93717 0.40237 0.0
C80 C 0.49797 0.96233 0.42683 0.0
C81 C 0.5295 0.09169 0.48307 0.0
C82 C 0.55699 0.1098 0.46045 0.0
C83 C 0.56757 0.14554 0.45154 0.0
C84 C 0.55105 0.16387 0.46529 0.0
C85 C 0.52376 0.14584 0.48801 0.0
C86 C 0.51278 0.10999 0.49655 0.0
C87 C 0.5161 0.0528 0.49111 0.0
C88 C 0.50438 0.02647 0.46737 0.0
C89 C 0.51126 0.04095 0.52192 0.0
C90 C 0.52635 0.06722 0.54813 0.0
C91 C 0.5652 0.09382 0.55042 0.0
C92 C 0.57967 0.11711 0.57608 0.0
C93 C 0.55543 0.11445 0.59969 0.0
C94 C 0.51646 0.08822 0.59707 0.0
C95 C 0.50211 0.06464 0.57165 0.0
H96 H 0.52035 0.56147 0.71053 0.0
H97 H 0.50068 0.58572 0.75274 0.0
H98 H 0.38334 0.51388 0.72517 0.0
H99 H 0.40313 0.48835 0.6844 0.0
H100 H 0.50321 0.49012 0.69902 0.0
H101 H 0.474 0.5779 0.64675 0.0
H102 H 0.42837 0.59702 0.63433 0.0
H103 H 0.35132 0.48884 0.59614 0.0
H104 H 0.39652 0.46976 0.60912 0.0
H105 H 0.45474 0.4297 0.57712 0.0
H106 H 0.47529 0.41009 0.5326 0.0
H107 H 0.5923 0.48085 0.56156 0.0
H108 H 0.57117 0.49916 0.60687 0.0
H109 H 0.46975 0.49717 0.59078 0.0
H110 H 0.48232 0.40569 0.63388 0.0
H111 H 0.50604 0.36603 0.64983 0.0
H112 H 0.58851 0.45247 0.7094 0.0
H113 H 0.56588 0.49312 0.69227 0.0
C114 C 0.46327 0.52345 0.69403 0.0
C115 C 0.49038 0.55085 0.71376 0.0
C116 C 0.47909 0.56497 0.73768 0.0
C117 C 0.44039 0.55195 0.74237 0.0
C118 C 0.41335 0.52433 0.72258 0.0
C119 C 0.42464 0.50997 0.69893 0.0
C120 C 0.4755 0.50896 0.66843 0.0
C121 C 0.49681 0.49244 0.67525 0.0
C122 C 0.46463 0.50952 0.63765 0.0
C123 C 0.43848 0.52237 0.62902 0.0
C124 C 0.44728 0.55839 0.63569 0.0
C125 C 0.42131 0.5693 0.62844 0.0
C126 C 0.3862 0.54431 0.61441 0.0
C127 C 0.37788 0.5085 0.60732 0.0
C128 C 0.40381 0.49769 0.61447 0.0
C129 C 0.51142 0.46593 0.59525 0.0
C130 C 0.48481 0.44082 0.57394 0.0
C131 C 0.49669 0.42986 0.54835 0.0
C132 C 0.53555 0.44428 0.54312 0.0
C133 C 0.56215 0.46891 0.56491 0.0
C134 C 0.55016 0.47952 0.59079 0.0
C135 C 0.4986 0.47933 0.62119 0.0
C136 C 0.47712 0.49557 0.61445 0.0
C137 C 0.50726 0.47629 0.65213 0.0
C138 C 0.52297 0.4529 0.66116 0.0
C139 C 0.50626 0.41669 0.64966 0.0
C140 C 0.51954 0.39383 0.65902 0.0
C141 C 0.54913 0.4063 0.68073 0.0
C142 C 0.56554 0.44225 0.69269 0.0
C143 C 0.5527 0.46544 0.68286 0.0
H144 H 0.04264 0.56339 0.76031 0.0
H145 H 0.09122 0.59281 0.72119 0.0
H146 H 0.1357 0.52343 0.74613 0.0
H147 H 0.08684 0.49396 0.78522 0.0
H148 H 0.98681 0.48977 0.76554 0.0
H149 H 0.10381 0.57795 0.82108 0.0
H150 H 0.16881 0.59967 0.83756 0.0
H151 H 0.12971 0.4985 0.88776 0.0
H152 H 0.06582 0.47556 0.86846 0.0
H153 H 0.96433 0.42765 0.88791 0.0
H154 H 0.91773 0.40459 0.92873 0.0
H155 H 0.8662 0.46249 0.88977 0.0
H156 H 0.91405 0.48689 0.84986 0.0
H157 H 0.01732 0.4944 0.8763 0.0
H158 H 0.92325 0.3987 0.8119 0.0
H159 H 0.85854 0.35765 0.7922 0.0
H160 H 0.85265 0.4522 0.7638 0.0
H161 H 0.91803 0.49329 0.78277 0.0
C162 C 0.06138 0.52678 0.77586 0.0
C163 C 0.06281 0.55447 0.75729 0.0
C164 C 0.09053 0.5712 0.73493 0.0
C165 C 0.11733 0.5605 0.73066 0.0
C166 C 0.11577 0.53262 0.74921 0.0
C167 C 0.08784 0.51571 0.77147 0.0
C168 C 0.03176 0.50941 0.79948 0.0
C169 C -0.00639 0.49131 0.7898 0.0
C170 C 0.04051 0.50949 0.83102 0.0
C171 C 0.07991 0.52469 0.84281 0.0
C172 C 0.10938 0.56019 0.83515 0.0
C173 C 0.14659 0.57286 0.84512 0.0
C174 C 0.15492 0.55077 0.86386 0.0
C175 C 0.12489 0.51596 0.87264 0.0
C176 C 0.08803 0.50296 0.86197 0.0
C177 C 0.94256 0.4588 0.86567 0.0
C178 C 0.94293 0.43531 0.88813 0.0
C179 C 0.91604 0.42188 0.91131 0.0
C180 C 0.88816 0.43165 0.91252 0.0
C181 C 0.8875 0.45474 0.88971 0.0
C182 C 0.91454 0.4683 0.86661 0.0
C183 C 0.9727 0.47501 0.84231 0.0
C184 C 0.01075 0.49309 0.85202 0.0
C185 C 0.96415 0.47312 0.81073 0.0
C186 C 0.92513 0.4489 0.79885 0.0
C187 C 0.90805 0.41054 0.80129 0.0
C188 C 0.87131 0.3872 0.78996 0.0
C189 C 0.85092 0.40193 0.7765 0.0
C190 C 0.86798 0.44035 0.77413 0.0
C191 C 0.90513 0.46372 0.78488 0.0
H192 H 0.56926 0.07283 0.05237 0.0
H193 H 0.60753 0.13626 0.07096 0.0
H194 H 0.54522 0.16815 0.01118 0.0
H195 H 0.50572 0.10405 0.99333 0.0
H196 H 0.49772 0.02369 0.05509 0.0
H197 H 0.58361 0.09244 0.97074 0.0
H198 H 0.60836 0.13877 0.93038 0.0
H199 H 0.49635 0.08764 0.88897 0.0
H200 H 0.47161 0.04241 0.9301 0.0
H201 H 0.43124 0.92913 0.94435 0.0
H202 H 0.41545 0.86761 0.9269 0.0
H203 H 0.48933 0.86605 0.99712 0.0
H204 H 0.50601 0.92772 0.01382 0.0
H205 H 0.49317 0.99193 0.94515 0.0
H206 H 0.40899 0.918 0.02436 0.0
H207 H 0.38211 0.87239 0.06534 0.0
H208 H 0.48759 0.93309 0.11652 0.0
H209 H 0.51459 0.9776 0.07522 0.0
C210 C 0.53487 0.08367 0.02114 0.0
C211 C 0.56334 0.09328 0.04355 0.0
C212 C 0.58519 0.1295 0.05421 0.0
C213 C 0.57931 0.15699 0.04245 0.0
C214 C 0.55043 0.1474 0.02041 0.0
C215 C 0.52803 0.1109 0.01011 0.0
C216 C 0.51314 0.0451 0.00951 0.0
C217 C 0.49692 0.01669 0.03106 0.0
C218 C 0.51025 0.03593 0.97797 0.0
C219 C 0.52566 0.06425 0.95365 0.0
C220 C 0.56434 0.09153 0.95317 0.0
C221 C 0.57849 0.11779 0.9299 0.0
C222 C 0.55434 0.11701 0.9064 0.0
C223 C 0.51564 0.0895 0.90694 0.0
C224 C 0.5015 0.06338 0.93028 0.0
C225 C 0.46914 0.9328 0.98089 0.0
C226 C 0.4441 0.91558 0.95594 0.0
C227 C 0.43521 0.88055 0.94591 0.0
C228 C 0.45103 0.86209 0.9608 0.0
C229 C 0.47632 0.87948 0.98553 0.0
C230 C 0.48561 0.91461 0.99523 0.0
C231 C 0.47985 0.97053 0.99103 0.0
C232 C 0.49349 -0.00127 0.96918 0.0
C233 C 0.48021 0.97956 0.02233 0.0
C234 C 0.46389 0.95116 0.04662 0.0
C235 C 0.42643 0.92119 0.04426 0.0
C236 C 0.41097 0.89536 0.06783 0.0
C237 C 0.43271 0.89907 0.09419 0.0
C238 C 0.47022 0.92907 0.09637 0.0
C239 C 0.48561 0.95477 0.07287 0.0
H240 H 0.47257 0.44935 0.21083 0.0
H241 H 0.49396 0.42685 0.25369 0.0
H242 H 0.61047 0.50148 0.22856 0.0
H243 H 0.58893 0.52401 0.18597 0.0
H244 H 0.49299 0.52505 0.20157 0.0
H245 H 0.50911 0.43002 0.14783 0.0
H246 H 0.54638 0.40355 0.12977 0.0
H247 H 0.62712 0.50823 0.08986 0.0
H248 H 0.59031 0.53456 0.10839 0.0
H249 H 0.53463 0.58318 0.08006 0.0
H250 H 0.5112 0.60117 0.03551 0.0
H251 H 0.39606 0.5299 0.06529 0.0
H252 H 0.41967 0.51256 0.11028 0.0
H253 H 0.51696 0.51209 0.09245 0.0
H254 H 0.51717 0.60942 0.13799 0.0
H255 H 0.49761 0.6525 0.15304 0.0
H256 H 0.4102 0.56885 0.20959 0.0
H257 H 0.42955 0.52523 0.19391 0.0
C258 C 0.52916 0.48818 0.1952 0.0
C259 C 0.50269 0.46067 0.21452 0.0
C260 C 0.51492 0.44768 0.23881 0.0
C261 C 0.55387 0.46242 0.24445 0.0
C262 C 0.58029 0.4898 0.22489 0.0
C263 C 0.56804 0.50254 0.20047 0.0
C264 C 0.51616 0.50271 0.17011 0.0
C265 C 0.49737 0.52148 0.17766 0.0
C266 C 0.52442 0.50046 0.13911 0.0
C267 C 0.54713 0.48426 0.12957 0.0
C268 C 0.53505 0.44727 0.13547 0.0
C269 C 0.55615 0.43214 0.12491 0.0
C270 C 0.58963 0.45386 0.1084 0.0
C271 C 0.6017 0.49095 0.1028 0.0
C272 C 0.58059 0.50595 0.11322 0.0
C273 C 0.47885 0.54665 0.09842 0.0
C274 C 0.50438 0.57181 0.07718 0.0
C275 C 0.49103 0.58212 0.05187 0.0
C276 C 0.45189 0.56678 0.04705 0.0
C277 C 0.42636 0.54194 0.06852 0.0
C278 C 0.43979 0.5322 0.09421 0.0
C279 C 0.49283 0.53344 0.12379 0.0
C280 C 0.51184 0.51507 0.11634 0.0
C281 C 0.48687 0.5381 0.15489 0.0
C282 C 0.47416 0.56372 0.16414 0.0
C283 C 0.49329 0.59999 0.15314 0.0
C284 C 0.48225 0.62471 0.16191 0.0
C285 C 0.45219 0.61392 0.18227 0.0
C286 C 0.43356 0.5779 0.19393 0.0
C287 C 0.44447 0.55296 0.1849 0.0
C288 C 0.59695 0.31247 0.43004 0.0
O289 O 0.61651 0.33935 0.44985 0.0
O290 O 0.67183 0.39176 0.38724 0.0
Zn291 Zn 0.61687 0.37465 0.39422 0.0
O292 O 0.60984 0.39958 0.43102 0.0
C293 C 0.60476 0.41827 0.35139 0.0
O294 O 0.62683 0.44358 0.37158 0.0
O295 O 0.5916 0.32039 0.40307 0.0
C296 C 0.57817 0.39781 0.43341 0.0
O297 O 0.55251 0.38146 0.41154 0.0
C298 C 0.69928 0.4249 0.38884 0.0
O299 O 0.69284 0.45115 0.39658 0.0
O300 O 0.59526 0.38494 0.35606 0.0
C301 C 0.3096 0.70611 0.54688 0.0
O302 O 0.30727 0.68176 0.52686 0.0
O303 O 0.28713 0.61862 0.57644 0.0
Zn304 Zn 0.25371 0.64009 0.57213 0.0
O305 O 0.22271 0.62375 0.53307 0.0
C306 C 0.2292 0.62524 0.63524 0.0
O307 O 0.26501 0.63639 0.64082 0.0
O308 O 0.2882 0.69486 0.57007 0.0
C309 C 0.21008 0.5927 0.51991 0.0
O310 O 0.21742 0.5686 0.53193 0.0
C311 C 0.27648 0.58756 0.58854 0.0
O312 O 0.2412 0.567 0.59749 0.0
O313 O 0.21843 0.62543 0.60787 0.0
C314 C 0.59848 0.30686 0.71859 0.0
O315 O 0.6172 0.29858 0.69916 0.0
O316 O 0.66975 0.2945 0.75869 0.0
Zn317 Zn 0.61341 0.26013 0.75288 0.0
O318 O 0.59953 0.22648 0.7159 0.0
C319 C 0.61196 0.21768 0.80398 0.0
O320 O 0.64517 0.22706 0.79262 0.0
O321 O 0.59198 0.29283 0.74519 0.0
C322 C 0.61166 0.20516 0.70923 0.0
O323 O 0.63641 0.20365 0.72749 0.0
C324 C 0.69575 0.30016 0.74013 0.0
O325 O 0.68695 0.28193 0.71403 0.0
O326 O 0.59218 0.22916 0.79095 0.0
C327 C 0.4079 0.71389 0.92483 0.0
O328 O 0.38741 0.68701 0.94388 0.0
O329 O 0.33639 0.63068 0.88871 0.0
Zn330 Zn 0.39279 0.6512 0.89281 0.0
O331 O 0.40612 0.63268 0.93083 0.0
C332 C 0.39088 0.60639 0.84283 0.0
O333 O 0.35728 0.58444 0.85442 0.0
O334 O 0.41581 0.70596 0.89889 0.0
C335 C 0.40226 0.60115 0.93446 0.0
O336 O 0.38808 0.57676 0.91206 0.0
C337 C 0.31023 0.5997 0.89839 0.0
O338 O 0.31902 0.57778 0.91266 0.0
O339 O 0.4121 0.63808 0.85496 0.0
C340 C 0.67725 0.39224 0.064 0.0
O341 O 0.6605 0.35988 0.05027 0.0
O342 O 0.70753 0.32963 0.05912 0.0
Zn343 Zn 0.74314 0.38417 0.06476 0.0
O344 O 0.77747 0.39767 0.10178 0.0
C345 C 0.7868 0.38308 0.0157 0.0
O346 O 0.77703 0.35147 0.02869 0.0
O347 O 0.71238 0.40813 0.07078 0.0
C348 C 0.7856 0.37717 0.11717 0.0
O349 O 0.77084 0.34246 0.10909 0.0
C350 C 0.6852 0.30751 0.07906 0.0
O351 O 0.68573 0.31961 0.10691 0.0
O352 O 0.77541 0.40324 0.02723 0.0
C353 C 0.40734 0.71864 0.21395 0.0
O354 O 0.39738 0.73305 0.19182 0.0
O355 O 0.32826 0.72767 0.25633 0.0
Zn356 Zn 0.38422 0.76023 0.24893 0.0
O357 O 0.39587 0.79309 0.21223 0.0
C358 C 0.39207 0.81106 0.29404 0.0
O359 O 0.36309 0.80701 0.27773 0.0
O360 O 0.40521 0.72692 0.2416 0.0
C361 C 0.37347 0.79971 0.19714 0.0
O362 O 0.33803 0.78481 0.20566 0.0
C363 C 0.30539 0.70181 0.23839 0.0
O364 O 0.31773 0.69686 0.21226 0.0
O365 O 0.40757 0.79294 0.28625 0.0
C366 C 0.20265 0.62358 0.23755 0.0
C367 C 0.19169 0.62506 0.26769 0.0
H368 H 0.24708 0.64679 0.20455 0.0
C369 C 0.21837 0.65232 0.28783 0.0
H370 H 0.18267 0.60328 0.22131 0.0
C371 C 0.25497 0.67756 0.27809 0.0
C372 C 0.266 0.67598 0.24805 0.0
H373 H 0.21116 0.65391 0.31134 0.0
H374 H 0.27481 0.69799 0.29434 0.0
C375 C 0.23946 0.64872 0.22786 0.0
C376 C 0.56326 0.21071 0.42495 0.0
C377 C 0.56215 0.20172 0.45605 0.0
H378 H 0.57446 0.25276 0.39226 0.0
C379 C 0.57146 0.22907 0.47841 0.0
H380 H 0.55586 0.18998 0.40729 0.0
C381 C 0.58231 0.2649 0.46987 0.0
C382 C 0.58357 0.27402 0.43879 0.0
H383 H 0.57098 0.22287 0.50254 0.0
H384 H 0.58982 0.28551 0.48766 0.0
C385 C 0.57359 0.24649 0.41639 0.0
C386 C 0.31946 0.5313 0.6138 0.0
C387 C 0.35806 0.55528 0.60743 0.0
H388 H 0.2634 0.52264 0.61282 0.0
C389 C 0.36948 0.58964 0.59426 0.0
H390 H 0.30988 0.50478 0.62425 0.0
C391 C 0.34287 0.59985 0.58766 0.0
C392 C 0.3043 0.576 0.59428 0.0
H393 H 0.39897 0.60849 0.58879 0.0
H394 H 0.35264 0.62661 0.57761 0.0
C395 C 0.29286 0.54158 0.60735 0.0
C396 C 0.78204 0.38061 0.77784 0.0
C397 C 0.81148 0.37708 0.76582 0.0
H398 H 0.72214 0.35859 0.77938 0.0
C399 C 0.80288 0.34876 0.74458 0.0
H400 H 0.78809 0.40214 0.7944 0.0
C401 C 0.76526 0.32422 0.73556 0.0
C402 C 0.73566 0.32711 0.74824 0.0
H403 H 0.82528 0.34564 0.73504 0.0
H404 H 0.75929 0.30245 0.71929 0.0
C405 C 0.7444 0.3556 0.76938 0.0
C406 C 0.42964 0.79676 0.97325 0.0
C407 C 0.44061 0.8244 0.95121 0.0
H408 H 0.41067 0.74028 0.98212 0.0
C409 C 0.44158 0.81575 0.92024 0.0
H410 H 0.4284 0.80263 0.99724 0.0
C411 C 0.43183 0.78002 0.91154 0.0
C412 C 0.42032 0.75226 0.93363 0.0
H413 H 0.4502 0.8367 0.90284 0.0
H414 H 0.43266 0.77398 0.88753 0.0
C415 C 0.41937 0.76104 0.96455 0.0
C416 C 0.59384 0.40325 0.08238 0.0
C417 C 0.61197 0.43805 0.09677 0.0
H418 H 0.6003 0.36167 0.06029 0.0
C419 C 0.65173 0.45803 0.09954 0.0
H420 H 0.56326 0.38745 0.07958 0.0
C421 C 0.67294 0.44343 0.08839 0.0
C422 C 0.65486 0.40854 0.07414 0.0
H423 H 0.66644 0.48479 0.11077 0.0
H424 H 0.70352 0.45938 0.09123 0.0
C425 C 0.61509 0.38867 0.07108 0.0
C426 C 0.36682 0.80946 0.55981 0.0
C427 C 0.38639 0.82183 0.53205 0.0
H428 H 0.32719 0.76323 0.58629 0.0
C429 C 0.381 0.79571 0.50955 0.0
H430 H 0.37076 0.82882 0.5778 0.0
C431 C 0.35635 0.75814 0.51455 0.0
C432 C 0.33635 0.74585 0.54208 0.0
H433 H 0.39515 0.8043 0.48773 0.0
H434 H 0.35257 0.73879 0.49659 0.0
C435 C 0.34197 0.77187 0.56474 0.0
C436 C 0.56496 0.37511 0.72203 0.0
C437 C 0.56252 0.38154 0.69076 0.0
H438 H 0.57762 0.34575 0.75547 0.0
C439 C 0.5719 0.36331 0.66889 0.0
H440 H 0.55758 0.38869 0.73929 0.0
C441 C 0.58367 0.33918 0.67807 0.0
C442 C 0.58569 0.33229 0.70931 0.0
H443 H 0.57038 0.36794 0.64465 0.0
H444 H 0.59084 0.32564 0.66062 0.0
C445 C 0.57612 0.3504 0.73124 0.0
C446 C 0.22123 0.60112 0.87891 0.0
C447 C 0.19467 0.56346 0.87372 0.0
H448 H 0.27869 0.64209 0.89059 0.0
C449 C 0.2066 0.53791 0.87764 0.0
H450 H 0.21313 0.62163 0.87681 0.0
C451 C 0.24384 0.54962 0.88661 0.0
C452 C 0.27033 0.58722 0.89105 0.0
H453 H 0.18749 0.5088 0.87315 0.0
H454 H 0.2522 0.52931 0.88909 0.0
C455 C 0.25876 0.61289 0.88711 0.0
C456 C 0.62279 0.22329 0.03 0.0
C457 C 0.60472 0.1958 0.05211 0.0
H458 H 0.6628 0.28003 0.02122 0.0
C459 C 0.61274 0.2053 0.08331 0.0
H460 H 0.61738 0.21658 0.00581 0.0
C461 C 0.63858 0.24172 0.09223 0.0
C462 C 0.65732 0.26907 0.07005 0.0
H463 H 0.59905 0.18451 0.10078 0.0
H464 H 0.64434 0.24832 0.11641 0.0
C465 C 0.64903 0.2595 0.03886 0.0
C466 C 0.43354 0.64511 0.22147 0.0
C467 C 0.44025 0.64032 0.19079 0.0
H468 H 0.41836 0.67413 0.25305 0.0
C469 C 0.43623 0.66151 0.16804 0.0
H470 H 0.43673 0.62931 0.23948 0.0
C471 C 0.42577 0.687 0.17573 0.0
C472 C 0.4193 0.69209 0.20639 0.0
H473 H 0.44084 0.65812 0.14417 0.0
H474 H 0.4228 0.70274 0.15755 0.0
C475 C 0.42334 0.67094 0.22924 0.0
C476 C 0.7831 0.41442 0.37074 0.0
C477 C 0.8108 0.45053 0.36252 0.0
H478 H 0.72621 0.37802 0.38553 0.0
C479 C 0.80135 0.47812 0.36335 0.0
H480 H 0.78944 0.39257 0.37088 0.0
C481 C 0.76541 0.46993 0.37247 0.0
C482 C 0.73778 0.43383 0.38044 0.0
H483 H 0.82156 0.50608 0.35654 0.0
H484 H 0.75905 0.49178 0.37267 0.0
C485 C 0.74693 0.40612 0.37939 0.0
C486 C 0.14573 0.53941 0.4526 0.0
C487 C 0.13818 0.5655 0.43983 0.0
H488 H 0.17428 0.52747 0.48788 0.0
C489 C 0.1555 0.60091 0.45305 0.0
H490 H 0.13249 0.51174 0.44317 0.0
C491 C 0.17922 0.60984 0.47877 0.0
C492 C 0.18621 0.58356 0.49188 0.0
H493 H 0.15073 0.6218 0.44349 0.0
H494 H 0.19184 0.63732 0.4885 0.0
C495 C 0.16951 0.54835 0.47834 0.0
C496 C 0.60265 0.14279 0.64303 0.0
C497 C 0.57064 0.13852 0.62725 0.0
H498 H 0.64051 0.16686 0.68158 0.0
C499 C 0.55258 0.15664 0.63839 0.0
H500 H 0.61691 0.12887 0.63504 0.0
C501 C 0.56617 0.17853 0.66483 0.0
C502 C 0.59784 0.18239 0.68095 0.0
H503 H 0.52803 0.15404 0.62653 0.0
H504 H 0.55156 0.1921 0.67282 0.0
C505 C 0.61598 0.16432 0.66976 0.0
C506 C 0.395 0.54256 0.78429 0.0
C507 C 0.42809 0.5664 0.76812 0.0
H508 H 0.35741 0.53648 0.82018 0.0
C509 C 0.44911 0.60388 0.77685 0.0
H510 H 0.37849 0.51342 0.77876 0.0
C511 C 0.43725 0.61709 0.80113 0.0
C512 C 0.40396 0.59316 0.817 0.0
H513 H 0.47449 0.62315 0.76469 0.0
H514 H 0.45396 0.64605 0.80728 0.0
C515 C 0.383 0.5558 0.80825 0.0
C516 C 0.84513 0.38275 0.94938 0.0
C517 C 0.8607 0.41869 0.93805 0.0
H518 H 0.80962 0.34336 0.98267 0.0
C519 C 0.85076 0.44252 0.95192 0.0
H520 H 0.85167 0.36349 0.93893 0.0
C521 C 0.8263 0.43084 0.97685 0.0
C522 C 0.81141 0.39515 0.98854 0.0
H523 H 0.86263 0.47055 0.94403 0.0
H524 H 0.81963 0.45002 0.98729 0.0
C525 C 0.82086 0.37115 0.97438 0.0
C526 C 0.43889 0.86062 0.1348 0.0
C527 C 0.41653 0.87215 0.11961 0.0
H528 H 0.44291 0.82888 0.17096 0.0
C529 C 0.37925 0.85871 0.12957 0.0
H530 H 0.46746 0.86989 0.12738 0.0
C531 C 0.36497 0.83487 0.15457 0.0
C532 C 0.38773 0.82406 0.17012 0.0
H533 H 0.36141 0.86732 0.11853 0.0
H534 H 0.33635 0.82538 0.16196 0.0
C535 C 0.42471 0.83696 0.15975 0.0
C536 C 0.55038 0.41307 0.27876 0.0
C537 C 0.56704 0.45059 0.27146 0.0
H538 H 0.54948 0.37324 0.30963 0.0
C539 C 0.59613 0.47709 0.2905 0.0
H540 H 0.52801 0.39204 0.26438 0.0
C541 C 0.60819 0.46643 0.31638 0.0
C542 C 0.59168 0.42896 0.32373 0.0
H543 H 0.60919 0.50622 0.28567 0.0
H544 H 0.63057 0.48767 0.33061 0.0
C545 C 0.56277 0.40232 0.30456 0.0
C546 C 0.40022 0.87888 0.35478 0.0
C547 C 0.43249 0.88549 0.3716 0.0
H548 H 0.36235 0.85045 0.31724 0.0
C549 C 0.45148 0.86729 0.36275 0.0
H550 H 0.38525 0.89283 0.36072 0.0
C551 C 0.43837 0.84293 0.33767 0.0
C552 C 0.40612 0.83645 0.32084 0.0
H553 H 0.47623 0.87156 0.37543 0.0
H554 H 0.45354 0.82927 0.33145 0.0
C555 C 0.38723 0.85471 0.32971 0.0
C556 C 0.5793 0.42911 0.51512 0.0
C557 C 0.54799 0.43409 0.51473 0.0
H558 H 0.61363 0.41402 0.48966 0.0
C559 C 0.52815 0.4288 0.4869 0.0
H560 H 0.59506 0.43259 0.53615 0.0
C561 C 0.53841 0.4176 0.46049 0.0
C562 C 0.56916 0.41195 0.46105 0.0
H563 H 0.50456 0.43333 0.48542 0.0
H564 H 0.52212 0.41329 0.4396 0.0
C565 C 0.5899 0.41835 0.4885 0.0
C566 C 0.13614 0.58402 0.67726 0.0
C567 C 0.14634 0.57793 0.70651 0.0
H568 H 0.15422 0.60372 0.63188 0.0
C569 C 0.18429 0.58841 0.71241 0.0
H570 H 0.10705 0.57589 0.67192 0.0
C571 C 0.21141 0.60445 0.68945 0.0
C572 C 0.20107 0.61008 0.66007 0.0
H573 H 0.19305 0.58442 0.73485 0.0
H574 H 0.24036 0.612 0.69465 0.0
C575 C 0.16317 0.59983 0.65428 0.0
C576 C 0.54863 0.15888 0.86857 0.0
C577 C 0.56959 0.14399 0.8809 0.0
H578 H 0.5455 0.19388 0.83473 0.0
C579 C 0.6049 0.15432 0.86811 0.0
H580 H 0.52156 0.15192 0.87812 0.0
C581 C 0.61873 0.17858 0.84346 0.0
C582 C 0.59756 0.19304 0.83086 0.0
H583 H 0.62156 0.14301 0.87667 0.0
H584 H 0.64585 0.18554 0.83402 0.0
C585 C 0.56244 0.1831 0.8438 0.0
C586 C 0.41154 0.54715 0.9995 0.0
C587 C 0.43784 0.57557 0.01896 0.0
H588 H 0.38006 0.533 0.95718 0.0
C589 C 0.45181 0.61238 0.01078 0.0
H590 H 0.40063 0.51855 0.00526 0.0
C591 C 0.43971 0.62066 0.98356 0.0
C592 C 0.41403 0.59227 0.9637 0.0
H593 H 0.47207 0.63472 0.02549 0.0
H594 H 0.45104 0.64932 0.97778 0.0
C595 C 0.40001 0.55543 0.97196 0.0
C596 C 0.84335 0.38537 0.18836 0.0
C597 C 0.86184 0.42341 0.19486 0.0
H598 H 0.80482 0.34087 0.15878 0.0
C599 C 0.85472 0.44586 0.1757 0.0
H600 H 0.8478 0.36719 0.20289 0.0
C601 C 0.82988 0.43074 0.15063 0.0
C602 C 0.81165 0.39279 0.14398 0.0
H603 H 0.86891 0.47533 0.17967 0.0
H604 H 0.82531 0.44898 0.13628 0.0
C605 C 0.81859 0.37024 0.16316 0.0
loop_
_geom_bond_atom_site_label_1
_geom_bond_atom_site_label_2
_geom_bond_distance
_geom_bond_site_symmetry_2
_ccdc_geom_bond_type
H0 C19 0.949 . S
H1 C20 0.950 . S
H2 C22 0.950 . S
H3 C23 0.950 . S
H4 C25 0.950 . S
H5 C28 0.950 . S
H6 C29 0.950 . S
H7 C31 0.951 . S
H8 C32 0.949 . S
H9 C34 0.949 . S
H10 C35 0.950 . S
H11 C37 0.950 . S
H12 C38 0.950 . S
H13 C40 0.950 . S
H14 C43 0.950 . S
H15 C44 0.950 . S
H16 C46 0.951 . S
H17 C47 0.949 . S
C18 C19 1.376 . S
C18 C23 1.386 . S
C18 C24 1.483 . S
C19 H0 0.949 . S
C19 C18 1.376 . S
C19 C20 1.397 . S
C20 H1 0.950 . S
C20 C19 1.397 . S
C20 C21 1.391 . S
C21 C20 1.391 . S
C21 C22 1.405 . S
C22 H2 0.950 . S
C22 C21 1.405 . S
C22 C23 1.367 . S
C23 H3 0.950 . S
C23 C18 1.386 . S
C23 C22 1.367 . S
C24 C18 1.483 . S
C24 C25 1.382 1_655 S
C24 C26 1.403 . S
C25 H4 0.950 . S
C25 C24 1.382 1_455 S
C25 C41 1.411 . S
C26 C24 1.403 . S
C26 C27 1.489 . S
C26 C40 1.411 . S
C27 C26 1.489 . S
C27 C28 1.383 . S
C27 C32 1.382 . S
C28 H5 0.950 . S
C28 C27 1.383 . S
C28 C29 1.395 . S
C29 H6 0.950 . S
C29 C28 1.395 . S
C29 C30 1.288 . S
C30 C29 1.288 . S
C30 C31 1.392 . S
C31 H7 0.951 . S
C31 C30 1.392 . S
C31 C32 1.392 . S
C32 H8 0.949 . S
C32 C27 1.382 . S
C32 C31 1.392 . S
C33 C34 1.376 . S
C33 C38 1.386 . S
C33 C39 1.483 . S
C34 H9 0.949 . S
C34 C33 1.376 . S
C34 C35 1.397 . S
C35 H10 0.950 . S
C35 C34 1.397 . S
C35 C36 1.391 . S
C36 C35 1.391 . S
C36 C37 1.405 . S
C37 H11 0.950 . S
C37 C36 1.405 . S
C37 C38 1.367 . S
C38 H12 0.950 . S
C38 C33 1.386 . S
C38 C37 1.367 . S
C39 C33 1.483 . S
C39 C40 1.382 1_455 S
C39 C41 1.403 . S
C40 H13 0.950 . S
C40 C26 1.411 . S
C40 C39 1.382 1_655 S
C41 C25 1.411 . S
C41 C39 1.403 . S
C41 C42 1.489 . S
C42 C41 1.489 . S
C42 C43 1.383 . S
C42 C47 1.382 . S
C43 H14 0.950 . S
C43 C42 1.383 . S
C43 C44 1.395 . S
C44 H15 0.950 . S
C44 C43 1.395 . S
C44 C45 1.288 . S
C45 C44 1.288 . S
C45 C46 1.392 . S
C46 H16 0.951 . S
C46 C45 1.392 . S
C46 C47 1.392 . S
C47 H17 0.949 . S
C47 C42 1.382 . S
C47 C46 1.392 . S
H48 C67 0.949 . S
H49 C68 0.950 . S
H50 C70 0.950 . S
H51 C71 0.950 . S
H52 C73 0.950 1_565 S
H53 C76 0.950 . S
H54 C77 0.950 . S
H55 C79 0.951 . S
H56 C80 0.949 . S
H57 C82 0.949 . S
H58 C83 0.950 . S
H59 C85 0.950 . S
H60 C86 0.950 . S
H61 C88 0.950 . S
H62 C91 0.950 . S
H63 C92 0.950 . S
H64 C94 0.951 . S
H65 C95 0.949 . S
C66 C67 1.376 . S
C66 C71 1.386 . S
C66 C72 1.483 . S
C67 H48 0.949 . S
C67 C66 1.376 . S
C67 C68 1.397 . S
C68 H49 0.950 . S
C68 C67 1.397 . S
C68 C69 1.391 . S
C69 C68 1.391 . S
C69 C70 1.405 . S
C70 H50 0.950 . S
C70 C69 1.405 . S
C70 C71 1.367 . S
C71 H51 0.950 . S
C71 C66 1.386 . S
C71 C70 1.367 . S
C72 C66 1.483 . S
C72 C73 1.380 1_565 S
C72 C74 1.403 . S
C73 H52 0.950 1_545 S
C73 C72 1.380 1_545 S
C73 C89 1.413 . S
C74 C72 1.403 . S
C74 C75 1.489 . S
C74 C88 1.411 1_565 S
C75 C74 1.489 . S
C75 C76 1.383 . S
C75 C80 1.382 . S
C76 H53 0.950 . S
C76 C75 1.383 . S
C76 C77 1.395 . S
C77 H54 0.950 . S
C77 C76 1.395 . S
C77 C78 1.288 . S
C78 C77 1.288 . S
C78 C79 1.392 . S
C79 H55 0.951 . S
C79 C78 1.392 . S
C79 C80 1.392 . S
C80 H56 0.949 . S
C80 C75 1.382 . S
C80 C79 1.392 . S
C81 C82 1.376 . S
C81 C86 1.386 . S
C81 C87 1.483 . S
C82 H57 0.949 . S
C82 C81 1.376 . S
C82 C83 1.397 . S
C83 H58 0.950 . S
C83 C82 1.397 . S
C83 C84 1.391 . S
C84 C83 1.391 . S
C84 C85 1.405 . S
C85 H59 0.950 . S
C85 C84 1.405 . S
C85 C86 1.367 . S
C86 H60 0.950 . S
C86 C81 1.386 . S
C86 C85 1.367 . S
C87 C81 1.483 . S
C87 C88 1.382 . S
C87 C89 1.403 . S
C88 H61 0.950 . S
C88 C74 1.411 1_545 S
C88 C87 1.382 . S
C89 C73 1.413 . S
C89 C87 1.403 . S
C89 C90 1.489 . S
C90 C89 1.489 . S
C90 C91 1.383 . S
C90 C95 1.382 . S
C91 H62 0.950 . S
C91 C90 1.383 . S
C91 C92 1.395 . S
C92 H63 0.950 . S
C92 C91 1.395 . S
C92 C93 1.288 . S
C93 C92 1.288 . S
C93 C94 1.392 . S
C94 H64 0.951 . S
C94 C93 1.392 . S
C94 C95 1.392 . S
C95 H65 0.949 . S
C95 C90 1.382 . S
C95 C94 1.392 . S
H96 C115 0.949 . S
H97 C116 0.950 . S
H98 C118 0.950 . S
H99 C119 0.950 . S
H100 C121 0.950 . S
H101 C124 0.950 . S
H102 C125 0.950 . S
H103 C127 0.951 . S
H104 C128 0.949 . S
H105 C130 0.949 . S
H106 C131 0.950 . S
H107 C133 0.950 . S
H108 C134 0.950 . S
H109 C136 0.950 . S
H110 C139 0.950 . S
H111 C140 0.950 . S
H112 C142 0.951 . S
H113 C143 0.949 . S
C114 C115 1.376 . S
C114 C119 1.386 . S
C114 C120 1.483 . S
C115 H96 0.949 . S
C115 C114 1.376 . S
C115 C116 1.397 . S
C116 H97 0.950 . S
C116 C115 1.397 . S
C116 C117 1.391 . S
C117 C116 1.391 . S
C117 C118 1.405 . S
C118 H98 0.950 . S
C118 C117 1.405 . S
C118 C119 1.367 . S
C119 H99 0.950 . S
C119 C114 1.386 . S
C119 C118 1.367 . S
C120 C114 1.483 . S
C120 C121 1.382 . S
C120 C122 1.403 . S
C121 H100 0.950 . S
C121 C120 1.382 . S
C121 C137 1.411 . S
C122 C120 1.403 . S
C122 C123 1.489 . S
C122 C136 1.411 . S
C123 C122 1.489 . S
C123 C124 1.383 . S
C123 C128 1.382 . S
C124 H101 0.950 . S
C124 C123 1.383 . S
C124 C125 1.395 . S
C125 H102 0.950 . S
C125 C124 1.395 . S
C125 C126 1.288 . S
C126 C125 1.288 . S
C126 C127 1.392 . S
C127 H103 0.951 . S
C127 C126 1.392 . S
C127 C128 1.392 . S
C128 H104 0.949 . S
C128 C123 1.382 . S
C128 C127 1.392 . S
C129 C130 1.376 . S
C129 C134 1.386 . S
C129 C135 1.483 . S
C130 H105 0.949 . S
C130 C129 1.376 . S
C130 C131 1.397 . S
C131 H106 0.950 . S
C131 C130 1.397 . S
C131 C132 1.391 . S
C132 C131 1.391 . S
C132 C133 1.405 . S
C133 H107 0.950 . S
C133 C132 1.405 . S
C133 C134 1.367 . S
C134 H108 0.950 . S
C134 C129 1.386 . S
C134 C133 1.367 . S
C135 C129 1.483 . S
C135 C136 1.382 . S
C135 C137 1.403 . S
C136 H109 0.950 . S
C136 C122 1.411 . S
C136 C135 1.382 . S
C137 C121 1.411 . S
C137 C135 1.403 . S
C137 C138 1.489 . S
C138 C137 1.489 . S
C138 C139 1.383 . S
C138 C143 1.382 . S
C139 H110 0.950 . S
C139 C138 1.383 . S
C139 C140 1.395 . S
C140 H111 0.950 . S
C140 C139 1.395 . S
C140 C141 1.288 . S
C141 C140 1.288 . S
C141 C142 1.392 . S
C142 H112 0.951 . S
C142 C141 1.392 . S
C142 C143 1.392 . S
C143 H113 0.949 . S
C143 C138 1.382 . S
C143 C142 1.392 . S
H144 C163 0.949 . S
H145 C164 0.950 . S
H146 C166 0.950 . S
H147 C167 0.950 . S
H148 C169 0.950 . S
H149 C172 0.950 . S
H150 C173 0.950 . S
H151 C175 0.951 . S
H152 C176 0.949 . S
H153 C178 0.949 . S
H154 C179 0.950 . S
H155 C181 0.950 . S
H156 C182 0.950 . S
H157 C184 0.950 . S
H158 C187 0.950 . S
H159 C188 0.950 . S
H160 C190 0.951 . S
H161 C191 0.949 . S
C162 C163 1.376 . S
C162 C167 1.386 . S
C162 C168 1.483 . S
C163 H144 0.949 . S
C163 C162 1.376 . S
C163 C164 1.397 . S
C164 H145 0.950 . S
C164 C163 1.397 . S
C164 C165 1.391 . S
C165 C164 1.391 . S
C165 C166 1.405 . S
C166 H146 0.950 . S
C166 C165 1.405 . S
C166 C167 1.367 . S
C167 H147 0.950 . S
C167 C162 1.386 . S
C167 C166 1.367 . S
C168 C162 1.483 . S
C168 C169 1.382 1_455 S
C168 C170 1.403 . S
C169 H148 0.950 . S
C169 C168 1.382 1_655 S
C169 C185 1.411 . S
C170 C168 1.403 . S
C170 C171 1.489 . S
C170 C184 1.411 . S
C171 C170 1.489 . S
C171 C172 1.383 . S
C171 C176 1.382 . S
C172 H149 0.950 . S
C172 C171 1.383 . S
C172 C173 1.395 . S
C173 H150 0.950 . S
C173 C172 1.395 . S
C173 C174 1.288 . S
C174 C173 1.288 . S
C174 C175 1.392 . S
C175 H151 0.951 . S
C175 C174 1.392 . S
C175 C176 1.392 . S
C176 H152 0.949 . S
C176 C171 1.382 . S
C176 C175 1.392 . S
C177 C178 1.376 . S
C177 C182 1.386 . S
C177 C183 1.483 . S
C178 H153 0.949 . S
C178 C177 1.376 . S
C178 C179 1.397 . S
C179 H154 0.950 . S
C179 C178 1.397 . S
C179 C180 1.391 . S
C180 C179 1.391 . S
C180 C181 1.405 . S
C181 H155 0.950 . S
C181 C180 1.405 . S
C181 C182 1.367 . S
C182 H156 0.950 . S
C182 C177 1.386 . S
C182 C181 1.367 . S
C183 C177 1.483 . S
C183 C184 1.382 1_655 S
C183 C185 1.403 . S
C184 H157 0.950 . S
C184 C170 1.411 . S
C184 C183 1.382 1_455 S
C185 C169 1.411 . S
C185 C183 1.403 . S
C185 C186 1.489 . S
C186 C185 1.489 . S
C186 C187 1.383 . S
C186 C191 1.382 . S
C187 H158 0.950 . S
C187 C186 1.383 . S
C187 C188 1.395 . S
C188 H159 0.950 . S
C188 C187 1.395 . S
C188 C189 1.288 . S
C189 C188 1.288 . S
C189 C190 1.392 . S
C190 H160 0.951 . S
C190 C189 1.392 . S
C190 C191 1.392 . S
C191 H161 0.949 . S
C191 C186 1.382 . S
C191 C190 1.392 . S
H192 C211 0.949 . S
H193 C212 0.950 . S
H194 C214 0.950 . S
H195 C215 0.960 . S
H196 C217 0.950 . S
H197 C220 0.950 . S
H198 C221 0.950 . S
H199 C223 0.951 . S
H200 C224 0.949 . S
H201 C226 0.949 . S
H202 C227 0.950 . S
H203 C229 0.950 . S
H204 C230 0.950 . S
H205 C232 0.950 . S
H206 C235 0.950 . S
H207 C236 0.950 . S
H208 C238 0.951 . S
H209 C239 0.949 . S
C210 C211 1.376 . S
C210 C215 1.382 1_554 S
C210 C216 1.483 1_554 S
C211 H192 0.949 . S
C211 C210 1.376 . S
C211 C212 1.397 . S
C212 H193 0.950 . S
C212 C211 1.397 . S
C212 C213 1.391 . S
C213 C212 1.391 . S
C213 C214 1.405 . S
C214 H194 0.950 . S
C214 C213 1.405 . S
C214 C215 1.362 1_554 S
C215 H195 0.960 . S
C215 C210 1.382 1_556 S
C215 C214 1.362 1_556 S
C216 C210 1.483 1_556 S
C216 C217 1.382 1_556 S
C216 C218 1.403 . S
C217 H196 0.950 . S
C217 C216 1.382 1_554 S
C217 C233 1.411 1_545 S
C218 C216 1.403 . S
C218 C219 1.489 . S
C218 C232 1.411 1_545 S
C219 C218 1.489 . S
C219 C220 1.383 . S
C219 C224 1.382 . S
C220 H197 0.950 . S
C220 C219 1.383 . S
C220 C221 1.395 . S
C221 H198 0.950 . S
C221 C220 1.395 . S
C221 C222 1.288 . S
C222 C221 1.288 . S
C222 C223 1.392 . S
C223 H199 0.951 . S
C223 C222 1.392 . S
C223 C224 1.392 . S
C224 H200 0.949 . S
C224 C219 1.382 . S
C224 C223 1.392 . S
C225 C226 1.376 . S
C225 C230 1.386 . S
C225 C231 1.483 . S
C226 H201 0.949 . S
C226 C225 1.376 . S
C226 C227 1.397 . S
C227 H202 0.950 . S
C227 C226 1.397 . S
C227 C228 1.391 . S
C228 C227 1.391 . S
C228 C229 1.405 . S
C229 H203 0.950 . S
C229 C228 1.405 . S
C229 C230 1.367 . S
C230 H204 0.950 . S
C230 C225 1.386 . S
C230 C229 1.367 . S
C231 C225 1.483 . S
C231 C232 1.382 . S
C231 C233 1.403 1_556 S
C232 H205 0.950 . S
C232 C218 1.411 1_565 S
C232 C231 1.382 . S
C233 C217 1.411 1_565 S
C233 C231 1.403 1_554 S
C233 C234 1.489 . S
C234 C233 1.489 . S
C234 C235 1.383 . S
C234 C239 1.382 . S
C235 H206 0.950 . S
C235 C234 1.383 . S
C235 C236 1.395 . S
C236 H207 0.950 . S
C236 C235 1.395 . S
C236 C237 1.288 . S
C237 C236 1.288 . S
C237 C238 1.392 . S
C238 H208 0.951 . S
C238 C237 1.392 . S
C238 C239 1.392 . S
C239 H209 0.949 . S
C239 C234 1.382 . S
C239 C238 1.392 . S
H240 C259 0.949 . S
H241 C260 0.950 . S
H242 C262 0.950 . S
H243 C263 0.950 . S
H244 C265 0.950 . S
H245 C268 0.950 . S
H246 C269 0.950 . S
H247 C271 0.951 . S
H248 C272 0.949 . S
H249 C274 0.949 . S
H250 C275 0.950 . S
H251 C277 0.950 . S
H252 C278 0.950 . S
H253 C280 0.950 . S
H254 C283 0.950 . S
H255 C284 0.950 . S
H256 C286 0.951 . S
H257 C287 0.949 . S
C258 C259 1.376 . S
C258 C263 1.386 . S
C258 C264 1.483 . S
C259 H240 0.949 . S
C259 C258 1.376 . S
C259 C260 1.397 . S
C260 H241 0.950 . S
C260 C259 1.397 . S
C260 C261 1.391 . S
C261 C260 1.391 . S
C261 C262 1.405 . S
C262 H242 0.950 . S
C262 C261 1.405 . S
C262 C263 1.367 . S
C263 H243 0.950 . S
C263 C258 1.386 . S
C263 C262 1.367 . S
C264 C258 1.483 . S
C264 C265 1.382 . S
C264 C266 1.403 . S
C265 H244 0.950 . S
C265 C264 1.382 . S
C265 C281 1.411 . S
C266 C264 1.403 . S
C266 C267 1.489 . S
C266 C280 1.411 . S
C267 C266 1.489 . S
C267 C268 1.383 . S
C267 C272 1.382 . S
C268 H245 0.950 . S
C268 C267 1.383 . S
C268 C269 1.395 . S
C269 H246 0.950 . S
C269 C268 1.395 . S
C269 C270 1.288 . S
C270 C269 1.288 . S
C270 C271 1.392 . S
C271 H247 0.951 . S
C271 C270 1.392 . S
C271 C272 1.392 . S
C272 H248 0.949 . S
C272 C267 1.382 . S
C272 C271 1.392 . S
C273 C274 1.376 . S
C273 C278 1.386 . S
C273 C279 1.483 . S
C274 H249 0.949 . S
C274 C273 1.376 . S
C274 C275 1.397 . S
C275 H250 0.950 . S
C275 C274 1.397 . S
C275 C276 1.391 . S
C276 C275 1.391 . S
C276 C277 1.405 . S
C277 H251 0.950 . S
C277 C276 1.405 . S
C277 C278 1.367 . S
C278 H252 0.950 . S
C278 C273 1.386 . S
C278 C277 1.367 . S
C279 C273 1.483 . S
C279 C280 1.382 . S
C279 C281 1.403 . S
C280 H253 0.950 . S
C280 C266 1.411 . S
C280 C279 1.382 . S
C281 C265 1.411 . S
C281 C279 1.403 . S
C281 C282 1.489 . S
C282 C281 1.489 . S
C282 C283 1.383 . S
C282 C287 1.382 . S
C283 H254 0.950 . S
C283 C282 1.383 . S
C283 C284 1.395 . S
C284 H255 0.950 . S
C284 C283 1.395 . S
C284 C285 1.288 . S
C285 C284 1.288 . S
C285 C286 1.392 . S
C286 H256 0.951 . S
C286 C285 1.392 . S
C286 C287 1.392 . S
C287 H257 0.949 . S
C287 C282 1.382 . S
C287 C286 1.392 . S
C288 O289 1.160 . S
C288 O295 1.185 . S
O289 C288 1.160 . S
O290 Zn291 1.899 . S
O290 C298 1.284 . S
Zn291 O290 1.899 . S
Zn291 O292 2.032 . S
Zn291 O295 2.086 . S
Zn291 O300 1.977 . S
O292 Zn291 2.032 . S
O292 C296 1.278 . S
C293 O294 1.203 . S
C293 O300 1.267 . S
O294 C293 1.203 . S
O295 C288 1.185 . S
O295 Zn291 2.086 . S
C296 O292 1.278 . S
C296 O297 1.211 . S
O297 C296 1.211 . S
C298 O290 1.284 . S
C298 O299 1.273 . S
O299 C298 1.273 . S
O300 Zn291 1.977 . S
O300 C293 1.267 . S
C301 O302 1.160 . S
C301 O308 1.185 . S
O302 C301 1.160 . S
O303 Zn304 1.899 . S
O303 C311 1.284 . S
Zn304 O303 1.899 . S
Zn304 O305 2.032 . S
Zn304 O308 2.086 . S
Zn304 O313 1.977 . S
O305 Zn304 2.032 . S
O305 C309 1.278 . S
C306 O307 1.203 . S
C306 O313 1.267 . S
O307 C306 1.203 . S
O308 C301 1.185 . S
O308 Zn304 2.086 . S
C309 O305 1.278 . S
C309 O310 1.211 . S
O310 C309 1.211 . S
C311 O303 1.284 . S
C311 O312 1.273 . S
O312 C311 1.273 . S
O313 Zn304 1.977 . S
O313 C306 1.267 . S
C314 O315 1.160 . S
C314 O321 1.185 . S
O315 C314 1.160 . S
O316 Zn317 1.899 . S
O316 C324 1.284 . S
Zn317 O316 1.899 . S
Zn317 O318 2.032 . S
Zn317 O321 2.086 . S
Zn317 O326 1.977 . S
O318 Zn317 2.032 . S
O318 C322 1.278 . S
C319 O320 1.203 . S
C319 O326 1.267 . S
O320 C319 1.203 . S
O321 C314 1.185 . S
O321 Zn317 2.086 . S
C322 O318 1.278 . S
C322 O323 1.211 . S
O323 C322 1.211 . S
C324 O316 1.284 . S
C324 O325 1.273 . S
O325 C324 1.273 . S
O326 Zn317 1.977 . S
O326 C319 1.267 . S
C327 O328 1.160 . S
C327 O334 1.185 . S
O328 C327 1.160 . S
O329 Zn330 1.899 . S
O329 C337 1.284 . S
Zn330 O329 1.899 . S
Zn330 O331 2.032 . S
Zn330 O334 2.086 . S
Zn330 O339 1.977 . S
O331 Zn330 2.032 . S
O331 C335 1.278 . S
C332 O333 1.203 . S
C332 O339 1.267 . S
O333 C332 1.203 . S
O334 C327 1.185 . S
O334 Zn330 2.086 . S
C335 O331 1.278 . S
C335 O336 1.211 . S
O336 C335 1.211 . S
C337 O329 1.284 . S
C337 O338 1.273 . S
O338 C337 1.273 . S
O339 Zn330 1.977 . S
O339 C332 1.267 . S
C340 O341 1.160 . S
C340 O347 1.185 . S
O341 C340 1.160 . S
O342 Zn343 1.899 . S
O342 C350 1.284 . S
Zn343 O342 1.899 . S
Zn343 O344 2.032 . S
Zn343 O347 2.086 . S
Zn343 O352 1.977 . S
O344 Zn343 2.032 . S
O344 C348 1.278 . S
C345 O346 1.203 . S
C345 O352 1.267 . S
O346 C345 1.203 . S
O347 C340 1.185 . S
O347 Zn343 2.086 . S
C348 O344 1.278 . S
C348 O349 1.211 . S
O349 C348 1.211 . S
C350 O342 1.284 . S
C350 O351 1.273 . S
O351 C350 1.273 . S
O352 Zn343 1.977 . S
O352 C345 1.267 . S
C353 O354 1.160 . S
C353 O360 1.185 . S
O354 C353 1.160 . S
O355 Zn356 1.899 . S
O355 C363 1.284 . S
Zn356 O355 1.899 . S
Zn356 O357 2.032 . S
Zn356 O360 2.086 . S
Zn356 O365 1.977 . S
O357 Zn356 2.032 . S
O357 C361 1.278 . S
C358 O359 1.203 . S
C358 O365 1.267 . S
O359 C358 1.203 . S
O360 C353 1.185 . S
O360 Zn356 2.086 . S
C361 O357 1.278 . S
C361 O362 1.211 . S
O362 C361 1.211 . S
C363 O355 1.284 . S
C363 O364 1.273 . S
O364 C363 1.273 . S
O365 Zn356 1.977 . S
O365 C358 1.267 . S
C366 C367 1.387 . S
C366 H370 0.950 . S
C366 C375 1.390 . S
C367 C366 1.387 . S
C367 C369 1.387 . S
H368 C375 0.950 . S
C369 C367 1.387 . S
C369 C371 1.390 . S
C369 H373 0.950 . S
H370 C366 0.950 . S
C371 C369 1.390 . S
C371 C372 1.387 . S
C371 H374 0.950 . S
C372 C371 1.387 . S
C372 C375 1.387 . S
H373 C369 0.950 . S
H374 C371 0.950 . S
C375 C366 1.390 . S
C375 H368 0.950 . S
C375 C372 1.387 . S
C376 C377 1.387 . S
C376 H380 0.950 . S
C376 C385 1.390 . S
C377 C376 1.387 . S
C377 C379 1.387 . S
H378 C385 0.950 . S
C379 C377 1.387 . S
C379 C381 1.390 . S
C379 H383 0.950 . S
H380 C376 0.950 . S
C381 C379 1.390 . S
C381 C382 1.387 . S
C381 H384 0.950 . S
C382 C381 1.387 . S
C382 C385 1.387 . S
H383 C379 0.950 . S
H384 C381 0.950 . S
C385 C376 1.390 . S
C385 H378 0.950 . S
C385 C382 1.387 . S
C386 C387 1.387 . S
C386 H390 0.950 . S
C386 C395 1.390 . S
C387 C386 1.387 . S
C387 C389 1.387 . S
H388 C395 0.950 . S
C389 C387 1.387 . S
C389 C391 1.390 . S
C389 H393 0.950 . S
H390 C386 0.950 . S
C391 C389 1.390 . S
C391 C392 1.387 . S
C391 H394 0.950 . S
C392 C391 1.387 . S
C392 C395 1.387 . S
H393 C389 0.950 . S
H394 C391 0.950 . S
C395 C386 1.390 . S
C395 H388 0.950 . S
C395 C392 1.387 . S
C396 C397 1.387 . S
C396 H400 0.950 . S
C396 C405 1.390 . S
C397 C396 1.387 . S
C397 C399 1.387 . S
H398 C405 0.950 . S
C399 C397 1.387 . S
C399 C401 1.390 . S
C399 H403 0.950 . S
H400 C396 0.950 . S
C401 C399 1.390 . S
C401 C402 1.387 . S
C401 H404 0.950 . S
C402 C401 1.387 . S
C402 C405 1.387 . S
H403 C399 0.950 . S
H404 C401 0.950 . S
C405 C396 1.390 . S
C405 H398 0.950 . S
C405 C402 1.387 . S
C406 C407 1.387 . S
C406 H410 0.950 . S
C406 C415 1.390 . S
C407 C406 1.387 . S
C407 C409 1.387 . S
H408 C415 0.950 . S
C409 C407 1.387 . S
C409 C411 1.390 . S
C409 H413 0.950 . S
H410 C406 0.950 . S
C411 C409 1.390 . S
C411 C412 1.387 . S
C411 H414 0.950 . S
C412 C411 1.387 . S
C412 C415 1.387 . S
H413 C409 0.950 . S
H414 C411 0.950 . S
C415 C406 1.390 . S
C415 H408 0.950 . S
C415 C412 1.387 . S
C416 C417 1.387 . S
C416 H420 0.950 . S
C416 C425 1.390 . S
C417 C416 1.387 . S
C417 C419 1.387 . S
H418 C425 0.950 . S
C419 C417 1.387 . S
C419 C421 1.390 . S
C419 H423 0.950 . S
H420 C416 0.950 . S
C421 C419 1.390 . S
C421 C422 1.387 . S
C421 H424 0.950 . S
C422 C421 1.387 . S
C422 C425 1.387 . S
H423 C419 0.950 . S
H424 C421 0.950 . S
C425 C416 1.390 . S
C425 H418 0.950 . S
C425 C422 1.387 . S
C426 C427 1.387 . S
C426 H430 0.950 . S
C426 C435 1.390 . S
C427 C426 1.387 . S
C427 C429 1.387 . S
H428 C435 0.950 . S
C429 C427 1.387 . S
C429 C431 1.390 . S
C429 H433 0.950 . S
H430 C426 0.950 . S
C431 C429 1.390 . S
C431 C432 1.387 . S
C431 H434 0.950 . S
C432 C431 1.387 . S
C432 C435 1.387 . S
H433 C429 0.950 . S
H434 C431 0.950 . S
C435 C426 1.390 . S
C435 H428 0.950 . S
C435 C432 1.387 . S
C436 C437 1.387 . S
C436 H440 0.950 . S
C436 C445 1.390 . S
C437 C436 1.387 . S
C437 C439 1.387 . S
H438 C445 0.950 . S
C439 C437 1.387 . S
C439 C441 1.390 . S
C439 H443 0.950 . S
H440 C436 0.950 . S
C441 C439 1.390 . S
C441 C442 1.387 . S
C441 H444 0.950 . S
C442 C441 1.387 . S
C442 C445 1.387 . S
H443 C439 0.950 . S
H444 C441 0.950 . S
C445 C436 1.390 . S
C445 H438 0.950 . S
C445 C442 1.387 . S
C446 C447 1.387 . S
C446 H450 0.950 . S
C446 C455 1.390 . S
C447 C446 1.387 . S
C447 C449 1.387 . S
H448 C455 0.950 . S
C449 C447 1.387 . S
C449 C451 1.390 . S
C449 H453 0.950 . S
H450 C446 0.950 . S
C451 C449 1.390 . S
C451 C452 1.387 . S
C451 H454 0.950 . S
C452 C451 1.387 . S
C452 C455 1.387 . S
H453 C449 0.950 . S
H454 C451 0.950 . S
C455 C446 1.390 . S
C455 H448 0.950 . S
C455 C452 1.387 . S
C456 C457 1.387 . S
C456 H460 0.950 1_554 S
C456 C465 1.390 . S
C457 C456 1.387 . S
C457 C459 1.387 . S
H458 C465 0.950 . S
C459 C457 1.387 . S
C459 C461 1.390 . S
C459 H463 0.950 . S
H460 C456 0.950 1_556 S
C461 C459 1.390 . S
C461 C462 1.387 . S
C461 H464 0.950 . S
C462 C461 1.387 . S
C462 C465 1.387 . S
H463 C459 0.950 . S
H464 C461 0.950 . S
C465 C456 1.390 . S
C465 H458 0.950 . S
C465 C462 1.387 . S
C466 C467 1.387 . S
C466 H470 0.950 . S
C466 C475 1.390 . S
C467 C466 1.387 . S
C467 C469 1.387 . S
H468 C475 0.950 . S
C469 C467 1.387 . S
C469 C471 1.390 . S
C469 H473 0.950 . S
H470 C466 0.950 . S
C471 C469 1.390 . S
C471 C472 1.387 . S
C471 H474 0.950 . S
C472 C471 1.387 . S
C472 C475 1.387 . S
H473 C469 0.950 . S
H474 C471 0.950 . S
C475 C466 1.390 . S
C475 H468 0.950 . S
C475 C472 1.387 . S
C476 C477 1.387 . S
C476 H480 0.950 . S
C476 C485 1.390 . S
C477 C476 1.387 . S
C477 C479 1.387 . S
H478 C485 0.950 . S
C479 C477 1.387 . S
C479 C481 1.390 . S
C479 H483 0.950 . S
H480 C476 0.950 . S
C481 C479 1.390 . S
C481 C482 1.387 . S
C481 H484 0.950 . S
C482 C481 1.387 . S
C482 C485 1.387 . S
H483 C479 0.950 . S
H484 C481 0.950 . S
C485 C476 1.390 . S
C485 H478 0.950 . S
C485 C482 1.387 . S
C486 C487 1.387 . S
C486 H490 0.950 . S
C486 C495 1.390 . S
C487 C486 1.387 . S
C487 C489 1.387 . S
H488 C495 0.950 . S
C489 C487 1.387 . S
C489 C491 1.390 . S
C489 H493 0.950 . S
H490 C486 0.950 . S
C491 C489 1.390 . S
C491 C492 1.387 . S
C491 H494 0.950 . S
C492 C491 1.387 . S
C492 C495 1.387 . S
H493 C489 0.950 . S
H494 C491 0.950 . S
C495 C486 1.390 . S
C495 H488 0.950 . S
C495 C492 1.387 . S
C496 C497 1.387 . S
C496 H500 0.950 . S
C496 C505 1.390 . S
C497 C496 1.387 . S
C497 C499 1.387 . S
H498 C505 0.950 . S
C499 C497 1.387 . S
C499 C501 1.390 . S
C499 H503 0.950 . S
H500 C496 0.950 . S
C501 C499 1.390 . S
C501 C502 1.387 . S
C501 H504 0.950 . S
C502 C501 1.387 . S
C502 C505 1.387 . S
H503 C499 0.950 . S
H504 C501 0.950 . S
C505 C496 1.390 . S
C505 H498 0.950 . S
C505 C502 1.387 . S
C506 C507 1.387 . S
C506 H510 0.950 . S
C506 C515 1.390 . S
C507 C506 1.387 . S
C507 C509 1.387 . S
H508 C515 0.950 . S
C509 C507 1.387 . S
C509 C511 1.390 . S
C509 H513 0.950 . S
H510 C506 0.950 . S
C511 C509 1.390 . S
C511 C512 1.387 . S
C511 H514 0.950 . S
C512 C511 1.387 . S
C512 C515 1.387 . S
H513 C509 0.950 . S
H514 C511 0.950 . S
C515 C506 1.390 . S
C515 H508 0.950 . S
C515 C512 1.387 . S
C516 C517 1.387 . S
C516 H520 0.950 . S
C516 C525 1.390 . S
C517 C516 1.387 . S
C517 C519 1.387 . S
H518 C525 0.950 . S
C519 C517 1.387 . S
C519 C521 1.390 . S
C519 H523 0.950 . S
H520 C516 0.950 . S
C521 C519 1.390 . S
C521 C522 1.387 . S
C521 H524 0.950 . S
C522 C521 1.387 . S
C522 C525 1.387 . S
H523 C519 0.950 . S
H524 C521 0.950 . S
C525 C516 1.390 . S
C525 H518 0.950 . S
C525 C522 1.387 . S
C526 C527 1.387 . S
C526 H530 0.950 . S
C526 C535 1.390 . S
C527 C526 1.387 . S
C527 C529 1.387 . S
H528 C535 0.950 . S
C529 C527 1.387 . S
C529 C531 1.390 . S
C529 H533 0.950 . S
H530 C526 0.950 . S
C531 C529 1.390 . S
C531 C532 1.387 . S
C531 H534 0.950 . S
C532 C531 1.387 . S
C532 C535 1.387 . S
H533 C529 0.950 . S
H534 C531 0.950 . S
C535 C526 1.390 . S
C535 H528 0.950 . S
C535 C532 1.387 . S
C536 C537 1.387 . S
C536 H540 0.950 . S
C536 C545 1.390 . S
C537 C536 1.387 . S
C537 C539 1.387 . S
H538 C545 0.950 . S
C539 C537 1.387 . S
C539 C541 1.390 . S
C539 H543 0.950 . S
H540 C536 0.950 . S
C541 C539 1.390 . S
C541 C542 1.387 . S
C541 H544 0.950 . S
C542 C541 1.387 . S
C542 C545 1.387 . S
H543 C539 0.950 . S
H544 C541 0.950 . S
C545 C536 1.390 . S
C545 H538 0.950 . S
C545 C542 1.387 . S
C546 C547 1.387 . S
C546 H550 0.950 . S
C546 C555 1.390 . S
C547 C546 1.387 . S
C547 C549 1.387 . S
H548 C555 0.950 . S
C549 C547 1.387 . S
C549 C551 1.390 . S
C549 H553 0.950 . S
H550 C546 0.950 . S
C551 C549 1.390 . S
C551 C552 1.387 . S
C551 H554 0.950 . S
C552 C551 1.387 . S
C552 C555 1.387 . S
H553 C549 0.950 . S
H554 C551 0.950 . S
C555 C546 1.390 . S
C555 H548 0.950 . S
C555 C552 1.387 . S
C556 C557 1.387 . S
C556 H560 0.950 . S
C556 C565 1.390 . S
C557 C556 1.387 . S
C557 C559 1.387 . S
H558 C565 0.950 . S
C559 C557 1.387 . S
C559 C561 1.390 . S
C559 H563 0.950 . S
H560 C556 0.950 . S
C561 C559 1.390 . S
C561 C562 1.387 . S
C561 H564 0.950 . S
C562 C561 1.387 . S
C562 C565 1.387 . S
H563 C559 0.950 . S
H564 C561 0.950 . S
C565 C556 1.390 . S
C565 H558 0.950 . S
C565 C562 1.387 . S
C566 C567 1.387 . S
C566 H570 0.950 . S
C566 C575 1.390 . S
C567 C566 1.387 . S
C567 C569 1.387 . S
H568 C575 0.950 . S
C569 C567 1.387 . S
C569 C571 1.390 . S
C569 H573 0.950 . S
H570 C566 0.950 . S
C571 C569 1.390 . S
C571 C572 1.387 . S
C571 H574 0.950 . S
C572 C571 1.387 . S
C572 C575 1.387 . S
H573 C569 0.950 . S
H574 C571 0.950 . S
C575 C566 1.390 . S
C575 H568 0.950 . S
C575 C572 1.387 . S
C576 C577 1.387 . S
C576 H580 0.950 . S
C576 C585 1.390 . S
C577 C576 1.387 . S
C577 C579 1.387 . S
H578 C585 0.950 . S
C579 C577 1.387 . S
C579 C581 1.390 . S
C579 H583 0.950 . S
H580 C576 0.950 . S
C581 C579 1.390 . S
C581 C582 1.387 . S
C581 H584 0.950 . S
C582 C581 1.387 . S
C582 C585 1.387 . S
H583 C579 0.950 . S
H584 C581 0.950 . S
C585 C576 1.390 . S
C585 H578 0.950 . S
C585 C582 1.387 . S
C586 C587 1.387 . S
C586 H590 0.950 . S
C586 C595 1.390 1_554 S
C587 C586 1.387 . S
C587 C589 1.387 . S
H588 C595 0.950 . S
C589 C587 1.387 . S
C589 C591 1.390 1_554 S
C589 H593 0.950 . S
H590 C586 0.950 . S
C591 C589 1.390 1_556 S
C591 C592 1.387 . S
C591 H594 0.950 . S
C592 C591 1.387 . S
C592 C595 1.387 . S
H593 C589 0.950 . S
H594 C591 0.950 . S
C595 C586 1.390 1_556 S
C595 H588 0.950 . S
C595 C592 1.387 . S
C596 C597 1.387 . S
C596 H600 0.950 . S
C596 C605 1.390 . S
C597 C596 1.387 . S
C597 C599 1.387 . S
H598 C605 0.950 . S
C599 C597 1.387 . S
C599 C601 1.390 . S
C599 H603 0.950 . S
H600 C596 0.950 . S
C601 C599 1.390 . S
C601 C602 1.387 . S
C601 H604 0.950 . S
C602 C601 1.387 . S
C602 C605 1.387 . S
H603 C599 0.950 . S
H604 C601 0.950 . S
C605 C596 1.390 . S
C605 H598 0.950 . S
C605 C602 1.387 . S
C372 C363 1.656 . S
C367 C45 1.647 . S
C377 C84 1.611 . S
C382 C288 1.523 . S
C387 C126 1.602 . S
C392 C311 1.686 . S
C397 C189 1.504 . S
C402 C324 1.505 . S
C412 C327 1.557 . S
C407 C228 1.644 . S
C417 C270 1.499 . S
C422 C340 1.471 . S
C427 C69 1.524 . S
C432 C301 1.473 . S
C437 C141 1.659 . S
C442 C314 1.559 . S
C447 C174 1.464 . S
C452 C337 1.507 . S
C462 C350 1.685 . S
C457 C213 1.627 . S
C472 C353 1.521 . S
C467 C285 1.624 . S
C482 C298 1.657 . S
C477 C30 1.583 . S
C487 C36 1.510 . S
C492 C309 1.468 . S
C497 C93 1.472 . S
C502 C322 1.434 . S
C512 C332 1.452 . S
C507 C117 1.499 . S
C517 C180 1.499 . S
C522 C345 1.436 1_556 S
C532 C361 1.463 . S
C527 C237 1.515 . S
C542 C293 1.422 . S
C537 C261 1.467 . S
C552 C358 1.419 . S
C547 C78 1.460 . S
C557 C132 1.515 . S
C562 C296 1.468 . S
C572 C306 1.437 . S
C567 C165 1.488 . S
C577 C222 1.491 . S
C582 C319 1.447 . S
C587 C276 1.475 . S
C592 C335 1.437 . S
C597 C21 1.501 . S
C602 C348 1.467 . S
