# Generated by pormake.
# Topology rtl, (3,6)-cn, num edge types: 1
# Building blocks:
#     Node 0, Type 0, BuildingBlock: BELTOD_clean_linker_0, # of connection points: 3
#     Node 1, Type 0, BuildingBlock: BELTOD_clean_linker_0, # of connection points: 3
#     Node 2, Type 0, BuildingBlock: BELTOD_clean_linker_0, # of connection points: 3
#     Node 3, Type 0, BuildingBlock: BELTOD_clean_linker_0, # of connection points: 3
#     Node 4, Type 1, BuildingBlock: KUMJIN_clean_sbu_1, # of connection points: 6
#     Node 5, Type 1, BuildingBlock: KUMJIN_clean_sbu_1, # of connection points: 6
#     Edge 6, Type (0, 1), BuildingBlock: KIFKEQ_clean_linker_1, # of connection points: 2
#     Edge 7, Type (0, 1), BuildingBlock: KIFKEQ_clean_linker_1, # of connection points: 2
#     Edge 8, Type (0, 1), BuildingBlock: KIFKEQ_clean_linker_1, # of connection points: 2
#     Edge 9, Type (0, 1), BuildingBlock: KIFKEQ_clean_linker_1, # of connection points: 2
#     Edge 10, Type (0, 1), BuildingBlock: KIFKEQ_clean_linker_1, # of connection points: 2
#     Edge 11, Type (0, 1), BuildingBlock: KIFKEQ_clean_linker_1, # of connection points: 2
#     Edge 12, Type (0, 1), BuildingBlock: KIFKEQ_clean_linker_1, # of connection points: 2
#     Edge 13, Type (0, 1), BuildingBlock: KIFKEQ_clean_linker_1, # of connection points: 2
#     Edge 14, Type (0, 1), BuildingBlock: KIFKEQ_clean_linker_1, # of connection points: 2
#     Edge 15, Type (0, 1), BuildingBlock: KIFKEQ_clean_linker_1, # of connection points: 2
#     Edge 16, Type (0, 1), BuildingBlock: KIFKEQ_clean_linker_1, # of connection points: 2
#     Edge 17, Type (0, 1), BuildingBlock: KIFKEQ_clean_linker_1, # of connection points: 2
# Relax obj value: 0.019
# Max RMSD: 0.098
# Mean RMSD: 0.063
data_MOF--net-rtl--node1-KUMJIN_clean_sbu_1--node2-BELTOD_clean_linker_0--edge1-KIFKEQ_clean_linker_1
_symmetry_space_group_name_H-M    P1
_symmetry_Int_Tables_number       1
_symmetry_cell_setting            triclinic
loop_
_symmetry_equiv_pos_as_xyz
'x, y, z'
_cell_length_a     37.838669
_cell_length_b     38.357734
_cell_length_c     33.098761
_cell_angle_alpha  79.057773
_cell_angle_beta   99.857259
_cell_angle_gamma 90.462603
loop_
_atom_site_label
_atom_site_type_symbol
_atom_site_fract_x
_atom_site_fract_y
_atom_site_fract_z
_atom_type_partial_charge
P0 P 0.25636 0.88824 0.02607 0.0
H1 H 0.28344 0.90635 0.10714 0.0
H2 H 0.25562 0.90982 0.1677 0.0
H3 H 0.15547 0.87607 0.10423 0.0
H4 H 0.18339 0.87319 0.04354 0.0
H5 H 0.28396 0.85719 0.96397 0.0
H6 H 0.3135 0.80034 0.96628 0.0
H7 H 0.30323 0.76805 0.09603 0.0
H8 H 0.27376 0.82522 0.09353 0.0
H9 H 0.24113 0.95467 0.96528 0.0
H10 H 0.20249 0.84771 0.98091 0.0
O11 O 0.28945 0.91727 0.02548 0.0
H12 H 0.20262 0.96941 0.89683 0.0
H13 H 0.16403 0.86219 0.9122 0.0
C14 C 0.23532 0.89018 0.07053 0.0
C15 C 0.25542 0.89991 0.10616 0.0
C16 C 0.23954 0.90165 0.1409 0.0
C17 C 0.20322 0.89348 0.14074 0.0
C18 C 0.1833 0.88321 0.10509 0.0
C19 C 0.19929 0.88139 0.07038 0.0
C20 C 0.2761 0.8452 0.02833 0.0
C21 C 0.28765 0.83771 0.99279 0.0
C22 C 0.30445 0.80515 0.99411 0.0
C23 C 0.31051 0.77958 0.03126 0.0
C24 C 0.29908 0.78728 0.06699 0.0
C25 C 0.28203 0.81987 0.06554 0.0
C26 C 0.22503 0.89998 0.97783 0.0
C27 C 0.22424 0.93439 0.95405 0.0
C28 C 0.20235 0.94273 0.91483 0.0
C29 C 0.18063 0.91683 0.89887 0.0
C30 C 0.18037 0.88274 0.92365 0.0
C31 C 0.20241 0.8744 0.96283 0.0
P32 P 0.71058 0.66998 0.63555 0.0
H33 H 0.74652 0.6399 0.57889 0.0
H34 H 0.72619 0.62436 0.51077 0.0
H35 H 0.61869 0.66057 0.51244 0.0
H36 H 0.63942 0.67599 0.58118 0.0
H37 H 0.76051 0.70612 0.69041 0.0
H38 H 0.79457 0.76053 0.67712 0.0
H39 H 0.73879 0.7829 0.54954 0.0
H40 H 0.70416 0.72921 0.56311 0.0
H41 H 0.65575 0.61737 0.64861 0.0
H42 H 0.69375 0.70945 0.69858 0.0
O43 O 0.74382 0.64122 0.65981 0.0
H44 H 0.61817 0.60305 0.70224 0.0
H45 H 0.65649 0.69497 0.75268 0.0
C46 C 0.69428 0.65812 0.58559 0.0
C47 C 0.71851 0.64427 0.56478 0.0
C48 C 0.70691 0.63578 0.52556 0.0
C49 C 0.67079 0.64122 0.50612 0.0
C50 C 0.64658 0.65567 0.52681 0.0
C51 C 0.65835 0.66441 0.5661 0.0
C52 C 0.72996 0.71339 0.62776 0.0
C53 C 0.75495 0.72321 0.65988 0.0
C54 C 0.77439 0.75427 0.65229 0.0
C55 C 0.76952 0.77567 0.6122 0.0
C56 C 0.74328 0.76664 0.58061 0.0
C57 C 0.72343 0.73593 0.58843 0.0
C58 C 0.67709 0.6649 0.66892 0.0
C59 C 0.6552 0.63516 0.6703 0.0
C60 C 0.63375 0.62692 0.7011 0.0
C61 C 0.63438 0.64785 0.73176 0.0
C62 C 0.6556 0.67822 0.72962 0.0
C63 C 0.67677 0.68665 0.69848 0.0
P64 P 0.8218 0.1933 0.03392 0.0
H65 H 0.79823 0.21878 0.94542 0.0
H66 H 0.80044 0.19215 0.88463 0.0
H67 H 0.83176 0.0911 0.96579 0.0
H68 H 0.82943 0.11796 0.02653 0.0
H69 H 0.8183 0.26704 0.04386 0.0
H70 H 0.76884 0.30704 0.044 0.0
H71 H 0.6938 0.22385 0.02368 0.0
H72 H 0.74383 0.1843 0.02176 0.0
H73 H 0.88288 0.14582 0.07147 0.0
H74 H 0.78507 0.17695 0.10717 0.0
O75 O 0.85781 0.21787 0.02793 0.0
H76 H 0.90167 0.11055 0.14159 0.0
H77 H 0.80396 0.14208 0.17737 0.0
C78 C 0.81388 0.17052 0.99053 0.0
C79 C 0.80451 0.19063 0.95011 0.0
C80 C 0.80569 0.17529 0.91532 0.0
C81 C 0.81659 0.13952 0.92036 0.0
C82 C 0.82372 0.11883 0.96091 0.0
C83 C 0.82235 0.13422 0.99573 0.0
C84 C 0.78465 0.22287 0.03232 0.0
C85 C 0.7912 0.25748 0.03897 0.0
C86 C 0.76281 0.28025 0.03952 0.0
C87 C 0.72722 0.26869 0.03417 0.0
C88 C 0.72077 0.23385 0.02738 0.0
C89 C 0.7493 0.21115 0.02643 0.0
C90 C 0.83257 0.16394 0.08396 0.0
C91 C 0.86518 0.14459 0.09417 0.0
C92 C 0.87583 0.12436 0.13417 0.0
C93 C 0.85426 0.12362 0.16489 0.0
C94 C 0.82117 0.14236 0.15431 0.0
C95 C 0.81032 0.16223 0.11407 0.0
P96 P 0.36954 0.26643 0.48199 0.0
H97 H 0.33601 0.263 0.55608 0.0
H98 H 0.33857 0.30145 0.60741 0.0
H99 H 0.4036 0.37452 0.53712 0.0
H100 H 0.39968 0.33683 0.48536 0.0
H101 H 0.36025 0.19026 0.48631 0.0
H102 H 0.3078 0.15281 0.48691 0.0
H103 H 0.23924 0.24603 0.46774 0.0
H104 H 0.29216 0.28358 0.46771 0.0
H105 H 0.43571 0.28741 0.45194 0.0
H106 H 0.32238 0.29716 0.40237 0.0
O107 O 0.40474 0.23941 0.50417 0.0
H108 H 0.44868 0.32184 0.38642 0.0
H109 H 0.33531 0.33159 0.33635 0.0
C110 C 0.36687 0.29736 0.51623 0.0
C111 C 0.35001 0.28777 0.55115 0.0
C112 C 0.35192 0.3096 0.58083 0.0
C113 C 0.37135 0.34117 0.57656 0.0
C114 C 0.38781 0.35083 0.54115 0.0
C115 C 0.38567 0.32911 0.51141 0.0
C116 C 0.33014 0.23968 0.4775 0.0
C117 C 0.33398 0.20276 0.48203 0.0
C118 C 0.30399 0.18133 0.48244 0.0
C119 C 0.26949 0.19648 0.47774 0.0
C120 C 0.2655 0.23366 0.47127 0.0
C121 C 0.29567 0.2551 0.47134 0.0
C122 C 0.37813 0.28926 0.43189 0.0
C123 C 0.41361 0.29657 0.42675 0.0
C124 C 0.421 0.31651 0.38941 0.0
C125 C 0.393 0.32946 0.35632 0.0
C126 C 0.35741 0.32168 0.36124 0.0
C127 C 0.35001 0.30201 0.39896 0.0
Eu128 Eu 0.02725 0.9594 0.51751 0.0
C129 C 0.93828 0.09941 0.47182 0.0
N130 N 0.972 0.09389 0.49445 0.0
C131 C 0.99164 0.1471 0.45472 0.0
C132 C 0.93026 0.12884 0.43872 0.0
C133 C 0.99851 0.11734 0.48692 0.0
C134 C 0.95742 0.15281 0.43039 0.0
C135 C 0.87702 0.07991 0.45762 0.0
C136 C 0.91208 0.07489 0.48105 0.0
C137 C 0.86918 0.10876 0.42403 0.0
C138 C 0.89569 0.13317 0.41466 0.0
Eu139 Eu 0.98104 0.04348 0.54856 0.0
N140 N 0.92044 0.04694 0.51361 0.0
C141 C 0.85054 0.05636 0.46934 0.0
C142 C 0.89378 0.02625 0.52753 0.0
C143 C 0.85881 0.02989 0.50498 0.0
H144 H 0.02495 0.11291 0.50577 0.0
H145 H 0.83805 0.01277 0.51566 0.0
H146 H 0.98213 0.89117 0.56115 0.0
H147 H 0.1713 0.9862 0.54753 0.0
H148 H 0.89876 0.0076 0.55672 0.0
H149 H 0.82331 0.05934 0.45217 0.0
H150 H 0.11009 0.99312 0.50775 0.0
H151 H 0.01274 0.16554 0.44859 0.0
H152 H 0.84248 0.11276 0.40552 0.0
H153 H 0.88913 0.15541 0.38882 0.0
H154 H 0.99363 0.83873 0.61857 0.0
H155 H 0.95228 0.17572 0.40522 0.0
H156 H 0.18584 0.93919 0.61062 0.0
N157 N 0.0356 0.90895 0.57161 0.0
C158 C 0.06952 0.90249 0.59351 0.0
C159 C 0.01513 0.85653 0.61197 0.0
C160 C 0.07724 0.87298 0.62656 0.0
C161 C 0.00862 0.88627 0.57972 0.0
C162 C 0.04953 0.84994 0.63563 0.0
N163 N 0.08821 0.95424 0.55115 0.0
C164 C 0.11512 0.97424 0.53676 0.0
C165 C 0.13156 0.92015 0.60628 0.0
C166 C 0.09629 0.92614 0.58359 0.0
C167 C 0.15845 0.94291 0.59401 0.0
C168 C 0.15032 0.96963 0.55859 0.0
H169 H 0.05442 0.827 0.66079 0.0
H170 H 0.11844 0.84529 0.67552 0.0
H171 H 0.16601 0.8864 0.65764 0.0
O172 O 0.0539 0.94902 0.466 0.0
O173 O 0.02446 0.95865 0.58606 0.0
O174 O 0.02942 0.0169 0.59325 0.0
O175 O 0.0166 0.91132 0.49258 0.0
O176 O 0.04996 0.01435 0.4978 0.0
O177 O 0.04092 0.04496 0.54937 0.0
O178 O 0.95312 0.05388 0.59898 0.0
O179 O 0.98616 0.04476 0.48085 0.0
O180 O 0.97936 0.98704 0.47241 0.0
O181 O 0.99115 0.09148 0.57383 0.0
O182 O 0.95998 0.9882 0.56992 0.0
O183 O 0.96737 0.95942 0.51658 0.0
C184 C 0.03589 0.98292 0.60793 0.0
C185 C 0.04276 0.89422 0.43731 0.0
C186 C 0.07057 0.87726 0.38212 0.0
C187 C 0.05173 0.84539 0.38627 0.0
C188 C 0.0243 0.8621 0.44069 0.0
C189 C 0.02874 0.83798 0.41527 0.0
C190 C 0.06575 0.90188 0.40759 0.0
C191 C 0.05828 0.03961 0.51976 0.0
C192 C 0.03804 0.91875 0.46563 0.0
C193 C 0.11209 0.86764 0.6498 0.0
C194 C 0.13913 0.89117 0.63974 0.0
C195 C 0.97491 0.02125 0.45787 0.0
C196 C 0.96347 0.10844 0.62801 0.0
C197 C 0.93285 0.1258 0.68067 0.0
C198 C 0.9525 0.15718 0.67833 0.0
C199 C 0.98277 0.14003 0.62637 0.0
C200 C 0.93868 0.10122 0.65564 0.0
C201 C 0.97733 0.16412 0.65146 0.0
C202 C 0.95148 0.96312 0.54787 0.0
C203 C 0.96894 0.0841 0.59987 0.0
H204 H 0.05451 0.82627 0.36669 0.0
H205 H 0.00642 0.85543 0.46316 0.0
H206 H 0.01433 0.81338 0.41812 0.0
H207 H 0.08028 0.92644 0.40478 0.0
H208 H 0.94892 0.17624 0.69772 0.0
H209 H 0.00204 0.14631 0.6055 0.0
H210 H 0.92351 0.07706 0.65709 0.0
H211 H 0.99237 0.18832 0.64999 0.0
Eu212 Eu 0.45632 0.48602 0.99715 0.0
C213 C 0.5897 0.57385 0.03901 0.0
N214 N 0.58552 0.53864 0.05248 0.0
C215 C 0.64246 0.52542 0.03576 0.0
C216 C 0.61984 0.58617 0.02125 0.0
C217 C 0.61188 0.51447 0.05277 0.0
C218 C 0.64618 0.56137 0.01927 0.0
C219 C 0.56859 0.63442 0.0325 0.0
C220 C 0.5644 0.59756 0.04466 0.0
C221 C 0.5975 0.64684 0.01262 0.0
C222 C 0.62313 0.62276 0.00709 0.0
Eu223 Eu 0.53293 0.52195 0.07961 0.0
N224 N 0.53719 0.58467 0.06472 0.0
C225 C 0.5444 0.6577 0.04215 0.0
C226 C 0.51561 0.60726 0.07745 0.0
C227 C 0.51822 0.64404 0.06545 0.0
H228 H 0.60878 0.48668 0.06532 0.0
H229 H 0.50037 0.66181 0.07469 0.0
H230 H 0.38887 0.5481 0.97972 0.0
H231 H 0.44848 0.34306 0.04778 0.0
H232 H 0.49655 0.59706 0.09728 0.0
H233 H 0.54664 0.68621 0.03331 0.0
H234 H 0.47421 0.39913 0.01563 0.0
H235 H 0.66301 0.50616 0.03514 0.0
H236 H 0.60092 0.67506 1.00263 0.0
H237 H 0.64584 0.63276 0.99281 0.0
H238 H 0.33153 0.55516 0.00323 0.0
H239 H 0.6698 0.56978 0.00593 0.0
H240 H 0.39253 0.34496 0.07678 0.0
N241 N 0.39886 0.49512 0.01366 0.0
C242 C 0.38426 0.46607 0.03448 0.0
C243 C 0.34638 0.53011 0.0129 0.0
C244 C 0.35073 0.46844 0.04711 0.0
C245 C 0.3794 0.52625 1.00046 0.0
C246 C 0.33229 0.50126 0.03706 0.0
N247 N 0.43348 0.43177 0.02723 0.0
C248 C 0.44971 0.39991 0.02817 0.0
C249 C 0.38622 0.40223 0.05953 0.0
C250 C 0.4017 0.43333 0.04069 0.0
C251 C 0.4036 0.36948 0.06258 0.0
C252 C 0.43521 0.36828 0.04626 0.0
H253 H 0.30648 0.5042 0.04621 0.0
H254 H 0.31051 0.43921 0.07818 0.0
H255 H 0.34163 0.38122 0.08906 0.0
O256 O 0.46736 0.46445 0.94387 0.0
O257 O 0.47045 0.45747 0.06518 0.0
O258 O 0.48032 0.50398 0.09888 0.0
O259 O 0.41445 0.48514 0.94306 0.0
O260 O 0.51166 0.4604 0.00521 0.0
O261 O 0.54048 0.46498 0.07194 0.0
O262 O 0.55839 0.54078 0.13668 0.0
O263 O 0.54109 0.52284 0.01271 0.0
O264 O 0.48493 0.53623 0.9747 0.0
O265 O 0.56037 0.48448 0.13324 0.0
O266 O 0.47589 0.54427 0.07075 0.0
O267 O 0.45291 0.54461 1.00145 0.0
C268 C 0.4687 0.47191 0.0977 0.0
C269 C 0.43381 0.48989 0.8784 0.0
C270 C 0.42375 0.48651 0.80433 0.0
C271 C 0.42999 0.52317 0.79469 0.0
C272 C 0.43984 0.52634 0.86817 0.0
C273 C 0.43808 0.54283 0.82646 0.0
C274 C 0.42598 0.47008 0.84659 0.0
C275 C 0.53637 0.4501 0.03866 0.0
C276 C 0.43546 0.47215 0.92209 0.0
C277 C 0.33605 0.4378 0.06787 0.0
C278 C 0.35372 0.40476 0.07398 0.0
C279 C 0.51991 0.53829 0.97839 0.0
C280 C 0.59032 0.49972 0.19815 0.0
C281 C 0.61642 0.51569 0.26484 0.0
C282 C 0.63178 0.4813 0.27829 0.0
C283 C 0.60593 0.4655 0.21249 0.0
C284 C 0.59544 0.52476 0.22464 0.0
C285 C 0.62646 0.45643 0.2523 0.0
C286 C 0.45489 0.55823 0.03544 0.0
C287 C 0.56934 0.50877 0.15543 0.0
H288 H 0.42805 0.53684 0.76258 0.0
H289 H 0.44567 0.54195 0.89241 0.0
H290 H 0.44271 0.57101 0.81869 0.0
H291 H 0.42193 0.44179 0.85492 0.0
H292 H 0.64766 0.4735 0.30921 0.0
H293 H 0.60248 0.4457 0.19283 0.0
H294 H 0.58364 0.55126 0.21391 0.0
H295 H 0.63835 0.43001 0.26303 0.0
H296 H 0.26474 0.13907 0.53876 0.0
H297 H 0.20372 0.2017 0.42666 0.0
H298 H 0.21343 0.10105 0.54724 0.0
H299 H 0.15214 0.16335 0.43515 0.0
H300 H 0.08554 0.05791 0.44721 0.0
H301 H 0.13637 0.09643 0.43527 0.0
H302 H 0.15071 0.11133 0.56303 0.0
H303 H 0.10006 0.07333 0.57488 0.0
C304 C 0.24041 0.14451 0.51575 0.0
C305 C 0.23822 0.17328 0.482 0.0
C306 C 0.211 0.12291 0.52076 0.0
C307 C 0.17884 0.12929 0.49187 0.0
C308 C 0.17672 0.15774 0.45772 0.0
C309 C 0.20606 0.17977 0.45304 0.0
C310 C 0.09964 0.06944 0.47266 0.0
C311 C 0.08892 0.06259 0.51197 0.0
C312 C 0.1285 0.09161 0.46576 0.0
C313 C 0.14748 0.10675 0.49827 0.0
C314 C 0.13673 0.09979 0.53752 0.0
C315 C 0.10762 0.07819 0.5442 0.0
H316 H 0.36372 0.74591 0.09243 0.0
H317 H 0.30078 0.73653 0.97335 0.0
H318 H 0.39735 0.69178 0.09325 0.0
H319 H 0.3341 0.6821 0.97432 0.0
H320 H 0.42918 0.61021 0.9685 0.0
H321 H 0.39305 0.66287 0.96783 0.0
H322 H 0.39205 0.62856 0.0998 0.0
H323 H 0.4287 0.57641 0.10044 0.0
C324 C 0.35672 0.73198 0.06672 0.0
C325 C 0.32964 0.74554 0.0328 0.0
C326 C 0.37598 0.70092 0.06717 0.0
C327 C 0.36851 0.68258 0.03379 0.0
C328 C 0.341 0.69587 1.00018 0.0
C329 C 0.32184 0.72701 0.99967 0.0
C330 C 0.42104 0.61392 0.99725 0.0
C331 C 0.43192 0.58942 0.03456 0.0
C332 C 0.40022 0.64399 0.99689 0.0
C333 C 0.38972 0.65005 0.03382 0.0
C334 C 0.40018 0.62509 0.07097 0.0
C335 C 0.42107 0.59515 0.07133 0.0
H336 H 0.80781 0.78714 0.549 0.0
H337 H 0.7868 0.83051 0.65383 0.0
H338 H 0.85057 0.83335 0.53428 0.0
H339 H 0.82832 0.87836 0.63796 0.0
H340 H 0.93375 0.93655 0.62422 0.0
H341 H 0.88868 0.89239 0.64 0.0
H342 H 0.85736 0.8925 0.50794 0.0
H343 H 0.90378 0.93474 0.49294 0.0
C344 C 0.81187 0.80713 0.56838 0.0
C345 C 0.79385 0.80541 0.60236 0.0
C346 C 0.83631 0.83384 0.55987 0.0
C347 C 0.84292 0.86006 0.58464 0.0
C348 C 0.82446 0.85847 0.61849 0.0
C349 C 0.80045 0.83124 0.62747 0.0
C350 C 0.91701 0.92711 0.59873 0.0
C351 C 0.92239 0.93871 0.55746 0.0
C352 C 0.89101 0.90193 0.60765 0.0
C353 C 0.86937 0.88837 0.57534 0.0
C354 C 0.87406 0.90131 0.53388 0.0
C355 C 0.90052 0.92579 0.52514 0.0
H356 H 0.65945 0.27597 0.98696 0.0
H357 H 0.72693 0.31635 0.08607 0.0
H358 H 0.61116 0.31673 0.98958 0.0
H359 H 0.6798 0.35855 0.08672 0.0
H360 H 0.57995 0.41057 0.10574 0.0
H361 H 0.62341 0.36427 0.10574 0.0
H362 H 0.59462 0.37804 0.9714 0.0
H363 H 0.55005 0.42342 0.97168 0.0
C364 C 0.664 0.29344 0.00938 0.0
C365 C 0.69724 0.29293 0.03613 0.0
C366 C 0.63644 0.31719 0.0105 0.0
C367 C 0.6415 0.34113 0.03825 0.0
C368 C 0.67462 0.34026 0.0653 0.0
C369 C 0.70197 0.31637 0.06444 0.0
C370 C 0.58272 0.40358 0.07621 0.0
C371 C 0.56162 0.42082 0.03869 0.0
C372 C 0.60785 0.37713 0.07616 0.0
C373 C 0.61288 0.36753 0.03852 0.0
C374 C 0.59123 0.38433 1.00106 0.0
C375 C 0.56577 0.41054 1.00117 0.0
H376 H 0.13631 0.91958 0.14219 0.0
H377 H 0.23199 0.8711 0.22332 0.0
H378 H 0.10763 0.91939 0.20292 0.0
H379 H 0.20375 0.87198 0.28404 0.0
H380 H 0.12128 0.83228 0.37011 0.0
H381 H 0.15546 0.83959 0.31322 0.0
H382 H 0.10914 0.94512 0.26628 0.0
H383 H 0.07424 0.93739 0.32321 0.0
C384 C 0.15128 0.90903 0.17298 0.0
C385 C 0.18635 0.89511 0.17784 0.0
C386 C 0.13501 0.90937 0.20783 0.0
C387 C 0.15339 0.89565 0.24835 0.0
C388 C 0.18875 0.88247 0.25324 0.0
C389 C 0.20504 0.88223 0.21843 0.0
C390 C 0.11865 0.85717 0.34785 0.0
C391 C 0.09488 0.88415 0.35087 0.0
C392 C 0.13845 0.86149 0.31541 0.0
C393 C 0.1349 0.89287 0.28504 0.0
C394 C 0.11214 0.92047 0.28894 0.0
C395 C 0.09246 0.91621 0.32171 0.0
H396 H 0.56597 0.6233 0.73037 0.0
H397 H 0.66036 0.64526 0.81447 0.0
H398 H 0.53734 0.59876 0.79024 0.0
H399 H 0.63165 0.62108 0.87413 0.0
H400 H 0.58746 0.52926 0.9631 0.0
H401 H 0.61406 0.55932 0.9043 0.0
H402 H 0.51404 0.6167 0.8513 0.0
H403 H 0.48786 0.58767 0.91138 0.0
C404 C 0.58044 0.62317 0.76161 0.0
C405 C 0.61543 0.6362 0.76769 0.0
C406 C 0.56398 0.60935 0.79584 0.0
C407 C 0.58234 0.60784 0.83685 0.0
C408 C 0.61697 0.62161 0.84288 0.0
C409 C 0.63326 0.63578 0.80871 0.0
C410 C 0.57138 0.54885 0.93947 0.0
C411 C 0.53572 0.55637 0.94225 0.0
C412 C 0.58656 0.56595 0.90562 0.0
C413 C 0.56619 0.59051 0.87326 0.0
C414 C 0.53033 0.59776 0.87567 0.0
C415 C 0.51533 0.58104 0.90999 0.0
H416 H 0.85477 0.15011 0.23566 0.0
H417 H 0.88469 0.057 0.19239 0.0
H418 H 0.88243 0.1233 0.30696 0.0
H419 H 0.91244 0.03016 0.26393 0.0
H420 H 0.92757 0.9857 0.40898 0.0
H421 H 0.89542 0.00858 0.33803 0.0
H422 H 0.94917 0.10823 0.33848 0.0
H423 H 0.98226 0.08499 0.4082 0.0
C424 C 0.86671 0.12366 0.24154 0.0
C425 C 0.86768 0.10564 0.20853 0.0
C426 C 0.88276 0.10848 0.28222 0.0
C427 C 0.89972 0.07481 0.29076 0.0
C428 C 0.89941 0.0561 0.25812 0.0
C429 C 0.88376 0.07151 0.21727 0.0
C430 C 0.93272 0.01235 0.39367 0.0
C431 C 0.95685 0.03389 0.41438 0.0
C432 C 0.91427 0.02542 0.35324 0.0
C433 C 0.91946 0.06031 0.33316 0.0
C434 C 0.94414 0.08149 0.3536 0.0
C435 C 0.96295 0.06824 0.39355 0.0
H436 H 0.38146 0.31796 0.66148 0.0
H437 H 0.37257 0.41388 0.5672 0.0
H438 H 0.39246 0.35341 0.71593 0.0
H439 H 0.38446 0.44918 0.62187 0.0
H440 H 0.45134 0.49264 0.73184 0.0
H441 H 0.43648 0.45834 0.67656 0.0
H442 H 0.3616 0.39799 0.74508 0.0
H443 H 0.3757 0.43277 0.79999 0.0
C444 C 0.38132 0.3466 0.65228 0.0
C445 C 0.37612 0.36299 0.60981 0.0
C446 C 0.38779 0.36691 0.68356 0.0
C447 C 0.3895 0.40407 0.67319 0.0
C448 C 0.38383 0.42055 0.63082 0.0
C449 C 0.37707 0.40027 0.59951 0.0
C450 C 0.43134 0.47241 0.73495 0.0
C451 C 0.41477 0.46553 0.77051 0.0
C452 C 0.42288 0.45271 0.70325 0.0
C453 C 0.39786 0.42548 0.70647 0.0
C454 C 0.3813 0.41853 0.74196 0.0
C455 C 0.38953 0.43841 0.7735 0.0
H456 H 0.7044 0.65248 0.43811 0.0
H457 H 0.6099 0.60619 0.48115 0.0
H458 H 0.68894 0.62857 0.37432 0.0
H459 H 0.59442 0.58219 0.41726 0.0
H460 H 0.56676 0.55735 0.28626 0.0
H461 H 0.57694 0.59433 0.3399 0.0
H462 H 0.69027 0.56795 0.36185 0.0
H463 H 0.68012 0.53175 0.30823 0.0
C464 C 0.68019 0.63737 0.43382 0.0
C465 C 0.65867 0.63077 0.465 0.0
C466 C 0.67131 0.62371 0.39725 0.0
C467 C 0.6407 0.60309 0.39092 0.0
C468 C 0.61805 0.59819 0.421 0.0
C469 C 0.62694 0.6119 0.45766 0.0
C470 C 0.59387 0.56013 0.30207 0.0
C471 C 0.62263 0.54154 0.29333 0.0
C472 C 0.59967 0.581 0.33298 0.0
C473 C 0.6344 0.58401 0.35525 0.0
C474 C 0.66325 0.56658 0.34505 0.0
C475 C 0.65742 0.54557 0.31457 0.0
H476 H 0.87498 0.09941 0.91748 0.0
H477 H 0.77795 0.14917 0.84075 0.0
H478 H 0.89569 0.08786 0.85564 0.0
H479 H 0.79864 0.13737 0.77856 0.0
H480 H 0.881 0.17128 0.68864 0.0
H481 H 0.84586 0.16571 0.74438 0.0
H482 H 0.89044 0.05986 0.79463 0.0
H483 H 0.92642 0.06596 0.73882 0.0
C484 C 0.85746 0.10678 0.88754 0.0
C485 C 0.82502 0.12566 0.88399 0.0
C486 C 0.86936 0.10012 0.85197 0.0
C487 C 0.84907 0.11214 0.81203 0.0
C488 C 0.81524 0.12839 0.80882 0.0
C489 C 0.80337 0.13514 0.84441 0.0
C490 C 0.88282 0.14659 0.71121 0.0
C491 C 0.90678 0.11926 0.70982 0.0
C492 C 0.86239 0.14321 0.74296 0.0
C493 C 0.86547 0.1124 0.7742 0.0
C494 C 0.88776 0.08408 0.77127 0.0
C495 C 0.90814 0.08743 0.73921 0.0
H496 H 0.43755 0.38557 0.34917 0.0
H497 H 0.36707 0.32329 0.27555 0.0
H498 H 0.45366 0.42046 0.28553 0.0
H499 H 0.38307 0.35849 0.21156 0.0
H500 H 0.46166 0.40002 0.11835 0.0
H501 H 0.43961 0.36651 0.17905 0.0
H502 H 0.42519 0.46411 0.22194 0.0
H503 H 0.44619 0.4977 0.16055 0.0
C504 C 0.42547 0.37941 0.31932 0.0
C505 C 0.4012 0.35161 0.3173 0.0
C506 C 0.43445 0.39956 0.28288 0.0
C507 C 0.41963 0.39218 0.24359 0.0
C508 C 0.39507 0.36459 0.24147 0.0
C509 C 0.38573 0.34466 0.27799 0.0
C510 C 0.45299 0.41437 0.14019 0.0
C511 C 0.45519 0.45151 0.13431 0.0
C512 C 0.4405 0.39518 0.17504 0.0
C513 C 0.43063 0.4127 0.20521 0.0
C514 C 0.43286 0.44986 0.19935 0.0
C515 C 0.44491 0.46907 0.16422 0.0
H516 H 0.20219 0.95263 0.82823 0.0
H517 H 0.11123 0.8993 0.87244 0.0
H518 H 0.16761 0.96689 0.75783 0.0
H519 H 0.07628 0.914 0.80191 0.0
H520 H 0.03459 0.91971 0.6623 0.0
H521 H 0.07068 0.9018 0.73186 0.0
H522 H 0.11842 0.00521 0.71993 0.0
H523 H 0.08386 0.0222 0.64984 0.0
C524 C 0.17465 0.94425 0.82295 0.0
C525 C 0.15934 0.92511 0.85597 0.0
C526 C 0.1548 0.95242 0.78258 0.0
C527 C 0.11906 0.94182 0.77421 0.0
C528 C 0.10387 0.92222 0.80714 0.0
C529 C 0.12383 0.91389 0.84758 0.0
C530 C 0.0533 0.93828 0.67436 0.0
C531 C 0.05682 0.9721 0.65044 0.0
C532 C 0.07359 0.92825 0.71442 0.0
C533 C 0.09757 0.95202 0.73149 0.0
C534 C 0.10071 0.986 0.70755 0.0
C535 C 0.0806 0.9959 0.66752 0.0
loop_
_geom_bond_atom_site_label_1
_geom_bond_atom_site_label_2
_geom_bond_distance
_geom_bond_site_symmetry_2
_ccdc_geom_bond_type
P0 O11 1.490 . S
P0 C14 1.812 . S
P0 C20 1.803 . S
P0 C26 1.819 1_554 S
H1 C15 0.941 . S
H2 C16 0.939 . S
H3 C18 0.940 . S
H4 C19 0.940 . S
H5 C21 0.939 . S
H6 C22 0.942 . S
H7 C24 0.940 . S
H8 C25 0.939 . S
H9 C27 0.941 . S
H10 C31 0.939 . S
O11 P0 1.490 . S
H12 C28 0.939 . S
H13 C30 0.940 . S
C14 P0 1.812 . S
C14 C15 1.389 . S
C14 C19 1.391 . S
C15 H1 0.941 . S
C15 C14 1.389 . S
C15 C16 1.397 . S
C16 H2 0.939 . S
C16 C15 1.397 . S
C16 C17 1.378 . S
C17 C16 1.378 . S
C17 C18 1.378 . S
C18 H3 0.940 . S
C18 C17 1.378 . S
C18 C19 1.396 . S
C19 H4 0.940 . S
C19 C14 1.391 . S
C19 C18 1.396 . S
C20 P0 1.803 . S
C20 C21 1.378 . S
C20 C25 1.400 . S
C21 H5 0.939 . S
C21 C20 1.378 . S
C21 C22 1.361 . S
C22 H6 0.942 . S
C22 C21 1.361 . S
C22 C23 1.369 . S
C23 C22 1.369 . S
C23 C24 1.404 . S
C24 H7 0.940 . S
C24 C23 1.404 . S
C24 C25 1.389 . S
C25 H8 0.939 . S
C25 C20 1.400 . S
C25 C24 1.389 . S
C26 P0 1.819 1_556 S
C26 C27 1.391 . S
C26 C31 1.391 . S
C27 H9 0.941 . S
C27 C26 1.391 . S
C27 C28 1.396 . S
C28 H12 0.939 . S
C28 C27 1.396 . S
C28 C29 1.397 . S
C29 C28 1.397 . S
C29 C30 1.385 . S
C30 H13 0.940 . S
C30 C29 1.385 . S
C30 C31 1.388 . S
C31 H10 0.939 . S
C31 C26 1.391 . S
C31 C30 1.388 . S
P32 O43 1.490 . S
P32 C46 1.812 . S
P32 C52 1.803 . S
P32 C58 1.819 . S
H33 C47 0.941 . S
H34 C48 0.939 . S
H35 C50 0.940 . S
H36 C51 0.940 . S
H37 C53 0.939 . S
H38 C54 0.942 . S
H39 C56 0.940 . S
H40 C57 0.939 . S
H41 C59 0.941 . S
H42 C63 0.939 . S
O43 P32 1.490 . S
H44 C60 0.939 . S
H45 C62 0.940 . S
C46 P32 1.812 . S
C46 C47 1.389 . S
C46 C51 1.391 . S
C47 H33 0.941 . S
C47 C46 1.389 . S
C47 C48 1.397 . S
C48 H34 0.939 . S
C48 C47 1.397 . S
C48 C49 1.378 . S
C49 C48 1.378 . S
C49 C50 1.378 . S
C50 H35 0.940 . S
C50 C49 1.378 . S
C50 C51 1.396 . S
C51 H36 0.940 . S
C51 C46 1.391 . S
C51 C50 1.396 . S
C52 P32 1.803 . S
C52 C53 1.378 . S
C52 C57 1.400 . S
C53 H37 0.939 . S
C53 C52 1.378 . S
C53 C54 1.361 . S
C54 H38 0.942 . S
C54 C53 1.361 . S
C54 C55 1.369 . S
C55 C54 1.369 . S
C55 C56 1.404 . S
C56 H39 0.940 . S
C56 C55 1.404 . S
C56 C57 1.389 . S
C57 H40 0.939 . S
C57 C52 1.400 . S
C57 C56 1.389 . S
C58 P32 1.819 . S
C58 C59 1.391 . S
C58 C63 1.391 . S
C59 H41 0.941 . S
C59 C58 1.391 . S
C59 C60 1.396 . S
C60 H44 0.939 . S
C60 C59 1.396 . S
C60 C61 1.397 . S
C61 C60 1.397 . S
C61 C62 1.385 . S
C62 H45 0.940 . S
C62 C61 1.385 . S
C62 C63 1.388 . S
C63 H42 0.939 . S
C63 C58 1.391 . S
C63 C62 1.388 . S
P64 O75 1.490 . S
P64 C78 1.812 . S
P64 C84 1.803 . S
P64 C90 1.819 . S
H65 C79 0.941 . S
H66 C80 0.939 . S
H67 C82 0.940 . S
H68 C83 0.940 . S
H69 C85 0.939 . S
H70 C86 0.942 . S
H71 C88 0.940 . S
H72 C89 0.939 . S
H73 C91 0.941 . S
H74 C95 0.939 . S
O75 P64 1.490 . S
H76 C92 0.939 . S
H77 C94 0.940 . S
C78 P64 1.812 . S
C78 C79 1.389 1_554 S
C78 C83 1.391 . S
C79 H65 0.941 . S
C79 C78 1.389 1_556 S
C79 C80 1.397 . S
C80 H66 0.939 . S
C80 C79 1.397 . S
C80 C81 1.378 . S
C81 C80 1.378 . S
C81 C82 1.378 . S
C82 H67 0.940 . S
C82 C81 1.378 . S
C82 C83 1.396 1_556 S
C83 H68 0.940 . S
C83 C78 1.391 . S
C83 C82 1.396 1_554 S
C84 P64 1.803 . S
C84 C85 1.378 . S
C84 C89 1.400 . S
C85 H69 0.939 . S
C85 C84 1.378 . S
C85 C86 1.361 . S
C86 H70 0.942 . S
C86 C85 1.361 . S
C86 C87 1.369 . S
C87 C86 1.369 . S
C87 C88 1.404 . S
C88 H71 0.940 . S
C88 C87 1.404 . S
C88 C89 1.389 . S
C89 H72 0.939 . S
C89 C84 1.400 . S
C89 C88 1.389 . S
C90 P64 1.819 . S
C90 C91 1.391 . S
C90 C95 1.391 . S
C91 H73 0.941 . S
C91 C90 1.391 . S
C91 C92 1.396 . S
C92 H76 0.939 . S
C92 C91 1.396 . S
C92 C93 1.397 . S
C93 C92 1.397 . S
C93 C94 1.385 . S
C94 H77 0.940 . S
C94 C93 1.385 . S
C94 C95 1.388 . S
C95 H74 0.939 . S
C95 C90 1.391 . S
C95 C94 1.388 . S
P96 O107 1.490 . S
P96 C110 1.812 . S
P96 C116 1.803 . S
P96 C122 1.819 . S
H97 C111 0.941 . S
H98 C112 0.939 . S
H99 C114 0.940 . S
H100 C115 0.940 . S
H101 C117 0.939 . S
H102 C118 0.942 . S
H103 C120 0.940 . S
H104 C121 0.939 . S
H105 C123 0.941 . S
H106 C127 0.939 . S
O107 P96 1.490 . S
H108 C124 0.939 . S
H109 C126 0.940 . S
C110 P96 1.812 . S
C110 C111 1.389 . S
C110 C115 1.391 . S
C111 H97 0.941 . S
C111 C110 1.389 . S
C111 C112 1.397 . S
C112 H98 0.939 . S
C112 C111 1.397 . S
C112 C113 1.378 . S
C113 C112 1.378 . S
C113 C114 1.378 . S
C114 H99 0.940 . S
C114 C113 1.378 . S
C114 C115 1.396 . S
C115 H100 0.940 . S
C115 C110 1.391 . S
C115 C114 1.396 . S
C116 P96 1.803 . S
C116 C117 1.378 . S
C116 C121 1.400 . S
C117 H101 0.939 . S
C117 C116 1.378 . S
C117 C118 1.361 . S
C118 H102 0.942 . S
C118 C117 1.361 . S
C118 C119 1.369 . S
C119 C118 1.369 . S
C119 C120 1.404 . S
C120 H103 0.940 . S
C120 C119 1.404 . S
C120 C121 1.389 . S
C121 H104 0.939 . S
C121 C116 1.400 . S
C121 C120 1.389 . S
C122 P96 1.819 . S
C122 C123 1.391 . S
C122 C127 1.391 . S
C123 H105 0.941 . S
C123 C122 1.391 . S
C123 C124 1.396 . S
C124 H108 0.939 . S
C124 C123 1.396 . S
C124 C125 1.397 . S
C125 C124 1.397 . S
C125 C126 1.385 . S
C126 H109 0.940 . S
C126 C125 1.385 . S
C126 C127 1.388 . S
C127 H106 0.939 . S
C127 C122 1.391 . S
C127 C126 1.388 . S
Eu128 N157 2.600 . S
Eu128 N163 2.562 . S
Eu128 O172 2.462 . S
Eu128 O173 2.373 . S
Eu128 O175 2.432 . S
Eu128 O176 2.291 1_565 S
Eu128 O180 2.334 1_455 S
Eu128 O183 2.372 1_455 S
Eu128 C192 2.787 . S
C129 N130 1.365 . S
C129 C132 1.405 . S
C129 C136 1.448 . S
N130 C129 1.365 . S
N130 C133 1.311 1_655 S
N130 Eu139 2.600 . S
C131 C133 1.397 1_655 S
C131 C134 1.367 . S
C131 H151 0.931 1_655 S
C132 C129 1.405 . S
C132 C134 1.403 . S
C132 C138 1.439 . S
C133 N130 1.311 1_455 S
C133 C131 1.397 1_455 S
C133 H144 0.938 . S
C134 C131 1.367 . S
C134 C132 1.403 . S
C134 H155 0.929 . S
C135 C136 1.430 . S
C135 C137 1.387 . S
C135 C141 1.404 . S
C136 C129 1.448 . S
C136 C135 1.430 . S
C136 N140 1.351 . S
C137 C135 1.387 . S
C137 C138 1.374 . S
C137 H152 0.931 . S
C138 C132 1.439 . S
C138 C137 1.374 . S
C138 H153 0.931 . S
Eu139 N130 2.600 . S
Eu139 N140 2.562 . S
Eu139 O174 2.335 1_655 S
Eu139 O177 2.372 1_655 S
Eu139 O178 2.462 . S
Eu139 O179 2.373 . S
Eu139 O181 2.432 . S
Eu139 O182 2.291 1_545 S
Eu139 C203 2.787 . S
N140 C136 1.351 . S
N140 Eu139 2.562 . S
N140 C142 1.325 . S
C141 C135 1.404 . S
C141 C143 1.366 . S
C141 H149 0.930 . S
C142 N140 1.325 . S
C142 C143 1.416 . S
C142 H148 0.929 . S
C143 C141 1.366 . S
C143 C142 1.416 . S
C143 H145 0.930 . S
H144 C133 0.938 . S
H145 C143 0.930 . S
H146 C161 0.930 1_655 S
H147 C168 0.930 . S
H148 C142 0.929 . S
H149 C141 0.930 . S
H150 C164 0.929 . S
H151 C131 0.931 1_455 S
H152 C137 0.931 . S
H153 C138 0.931 . S
H154 C159 0.931 1_655 S
H155 C134 0.929 . S
H156 C167 0.930 . S
N157 Eu128 2.600 . S
N157 C158 1.365 . S
N157 C161 1.319 . S
C158 N157 1.365 . S
C158 C160 1.405 . S
C158 C166 1.448 . S
C159 H154 0.931 1_455 S
C159 C161 1.397 . S
C159 C162 1.367 . S
C160 C158 1.405 . S
C160 C162 1.403 . S
C160 C193 1.439 . S
C161 H146 0.930 1_455 S
C161 N157 1.319 . S
C161 C159 1.397 . S
C162 C159 1.367 . S
C162 C160 1.403 . S
C162 H169 0.929 . S
N163 Eu128 2.562 . S
N163 C164 1.325 . S
N163 C166 1.351 . S
C164 H150 0.929 . S
C164 N163 1.325 . S
C164 C168 1.416 . S
C165 C166 1.430 . S
C165 C167 1.404 . S
C165 C194 1.387 . S
C166 C158 1.448 . S
C166 N163 1.351 . S
C166 C165 1.430 . S
C167 H156 0.930 . S
C167 C165 1.404 . S
C167 C168 1.366 . S
C168 H147 0.930 . S
C168 C164 1.416 . S
C168 C167 1.366 . S
H169 C162 0.929 . S
H170 C193 0.931 . S
H171 C194 0.931 . S
O172 Eu128 2.462 . S
O172 C192 1.252 . S
O173 Eu128 2.373 . S
O173 C184 1.249 . S
O174 Eu139 2.335 1_455 S
O174 C184 1.264 1_545 S
O175 Eu128 2.432 . S
O175 C192 1.268 . S
O176 Eu128 2.291 1_545 S
O176 C191 1.255 . S
O177 Eu139 2.372 1_455 S
O177 C191 1.257 . S
O178 Eu139 2.462 . S
O178 C203 1.252 . S
O179 Eu139 2.373 . S
O179 C195 1.249 . S
O180 Eu128 2.334 1_655 S
O180 C195 1.266 1_565 S
O181 Eu139 2.432 . S
O181 C203 1.268 . S
O182 Eu139 2.291 1_565 S
O182 C202 1.255 . S
O183 Eu128 2.372 1_655 S
O183 C202 1.257 . S
C184 O173 1.249 . S
C184 O174 1.264 1_565 S
C185 C188 1.382 . S
C185 C190 1.390 . S
C185 C192 1.506 . S
C186 C187 1.398 . S
C186 C190 1.392 . S
C187 C186 1.398 . S
C187 C189 1.372 . S
C187 H204 0.931 . S
C188 C185 1.382 . S
C188 C189 1.390 . S
C188 H205 0.931 . S
C189 C187 1.372 . S
C189 C188 1.390 . S
C189 H206 0.929 . S
C190 C185 1.390 . S
C190 C186 1.392 . S
C190 H207 0.930 . S
C191 O176 1.255 . S
C191 O177 1.257 . S
C192 Eu128 2.787 . S
C192 O172 1.252 . S
C192 O175 1.268 . S
C192 C185 1.506 . S
C193 C160 1.439 . S
C193 H170 0.931 . S
C193 C194 1.374 . S
C194 C165 1.387 . S
C194 H171 0.931 . S
C194 C193 1.374 . S
C195 O179 1.249 . S
C195 O180 1.266 1_545 S
C196 C199 1.382 . S
C196 C200 1.390 . S
C196 C203 1.506 . S
C197 C198 1.398 . S
C197 C200 1.392 . S
C198 C197 1.398 . S
C198 C201 1.372 . S
C198 H208 0.931 . S
C199 C196 1.382 . S
C199 C201 1.390 . S
C199 H209 0.931 . S
C200 C196 1.390 . S
C200 C197 1.392 . S
C200 H210 0.930 . S
C201 C198 1.372 . S
C201 C199 1.390 . S
C201 H211 0.929 . S
C202 O182 1.255 . S
C202 O183 1.257 . S
C203 Eu139 2.787 . S
C203 O178 1.252 . S
C203 O181 1.268 . S
C203 C196 1.506 . S
H204 C187 0.931 . S
H205 C188 0.931 . S
H206 C189 0.929 . S
H207 C190 0.930 . S
H208 C198 0.931 . S
H209 C199 0.931 . S
H210 C200 0.930 . S
H211 C201 0.929 . S
Eu212 N241 2.600 . S
Eu212 N247 2.562 1_556 S
Eu212 O256 2.462 . S
Eu212 O257 2.373 1_556 S
Eu212 O259 2.432 . S
Eu212 O260 2.291 1_556 S
Eu212 O264 2.335 . S
Eu212 O267 2.368 1_556 S
Eu212 C276 2.787 . S
C213 N214 1.365 . S
C213 C216 1.405 . S
C213 C220 1.448 . S
N214 C213 1.365 . S
N214 C217 1.319 . S
N214 Eu223 2.600 . S
C215 C217 1.397 . S
C215 C218 1.367 . S
C215 H235 0.931 . S
C216 C213 1.405 . S
C216 C218 1.403 . S
C216 C222 1.439 . S
C217 N214 1.319 . S
C217 C215 1.397 . S
C217 H228 0.930 . S
C218 C215 1.367 . S
C218 C216 1.403 . S
C218 H239 0.929 . S
C219 C220 1.430 . S
C219 C221 1.387 . S
C219 C225 1.404 . S
C220 C213 1.448 . S
C220 C219 1.430 . S
C220 N224 1.351 . S
C221 C219 1.387 . S
C221 C222 1.374 . S
C221 H236 0.931 . S
C222 C216 1.439 . S
C222 C221 1.374 . S
C222 H237 0.931 . S
Eu223 N214 2.600 . S
Eu223 N224 2.562 . S
Eu223 O258 2.335 . S
Eu223 O261 2.372 . S
Eu223 O262 2.462 . S
Eu223 O263 2.351 1_554 S
Eu223 O265 2.432 . S
Eu223 O266 2.291 . S
Eu223 C287 2.787 . S
N224 C220 1.351 . S
N224 Eu223 2.562 . S
N224 C226 1.325 . S
C225 C219 1.404 . S
C225 C227 1.366 . S
C225 H233 0.930 . S
C226 N224 1.325 . S
C226 C227 1.416 . S
C226 H232 0.929 . S
C227 C225 1.366 . S
C227 C226 1.416 . S
C227 H229 0.930 . S
H228 C217 0.930 . S
H229 C227 0.930 . S
H230 C245 0.930 . S
H231 C252 0.930 . S
H232 C226 0.929 . S
H233 C225 0.930 . S
H234 C248 0.929 . S
H235 C215 0.931 . S
H236 C221 0.931 . S
H237 C222 0.931 . S
H238 C243 0.931 . S
H239 C218 0.929 . S
H240 C251 0.930 . S
N241 Eu212 2.600 . S
N241 C242 1.365 1_556 S
N241 C245 1.319 . S
C242 N241 1.365 1_554 S
C242 C244 1.405 . S
C242 C250 1.448 . S
C243 H238 0.931 . S
C243 C245 1.397 . S
C243 C246 1.367 1_556 S
C244 C242 1.405 . S
C244 C246 1.403 . S
C244 C277 1.439 . S
C245 H230 0.930 . S
C245 N241 1.319 . S
C245 C243 1.397 . S
C246 C243 1.367 1_554 S
C246 C244 1.403 . S
C246 H253 0.929 . S
N247 Eu212 2.562 1_554 S
N247 C248 1.325 . S
N247 C250 1.351 . S
C248 H234 0.929 . S
C248 N247 1.325 . S
C248 C252 1.416 . S
C249 C250 1.430 . S
C249 C251 1.404 . S
C249 C278 1.387 . S
C250 C242 1.448 . S
C250 N247 1.351 . S
C250 C249 1.430 . S
C251 H240 0.930 . S
C251 C249 1.404 . S
C251 C252 1.366 . S
C252 H231 0.930 . S
C252 C248 1.416 . S
C252 C251 1.366 . S
H253 C246 0.929 . S
H254 C277 0.931 . S
H255 C278 0.931 . S
O256 Eu212 2.462 . S
O256 C276 1.252 . S
O257 Eu212 2.373 1_554 S
O257 C268 1.249 . S
O258 Eu223 2.335 . S
O258 C268 1.264 . S
O259 Eu212 2.432 . S
O259 C276 1.268 . S
O260 Eu212 2.291 1_554 S
O260 C275 1.255 . S
O261 Eu223 2.372 . S
O261 C275 1.257 . S
O262 Eu223 2.462 . S
O262 C287 1.252 . S
O263 Eu223 2.351 1_556 S
O263 C279 1.266 . S
O264 Eu212 2.335 . S
O264 C279 1.264 . S
O265 Eu223 2.432 . S
O265 C287 1.268 . S
O266 Eu223 2.291 . S
O266 C286 1.255 . S
O267 Eu212 2.368 1_554 S
O267 C286 1.264 . S
C268 O257 1.249 . S
C268 O258 1.264 . S
C269 C272 1.382 . S
C269 C274 1.390 . S
C269 C276 1.506 . S
C270 C271 1.398 . S
C270 C274 1.392 . S
C271 C270 1.398 . S
C271 C273 1.372 . S
C271 H288 0.931 . S
C272 C269 1.382 . S
C272 C273 1.390 . S
C272 H289 0.931 . S
C273 C271 1.372 . S
C273 C272 1.390 . S
C273 H290 0.929 . S
C274 C269 1.390 . S
C274 C270 1.392 . S
C274 H291 0.930 . S
C275 O260 1.255 . S
C275 O261 1.257 . S
C276 Eu212 2.787 . S
C276 O256 1.252 . S
C276 O259 1.268 . S
C276 C269 1.506 . S
C277 C244 1.439 . S
C277 H254 0.931 . S
C277 C278 1.374 . S
C278 C249 1.387 . S
C278 H255 0.931 . S
C278 C277 1.374 . S
C279 O263 1.266 . S
C279 O264 1.264 . S
C280 C283 1.382 . S
C280 C284 1.390 . S
C280 C287 1.506 . S
C281 C282 1.398 . S
C281 C284 1.392 . S
C282 C281 1.398 . S
C282 C285 1.372 . S
C282 H292 0.931 . S
C283 C280 1.382 . S
C283 C285 1.390 . S
C283 H293 0.931 . S
C284 C280 1.390 . S
C284 C281 1.392 . S
C284 H294 0.930 . S
C285 C282 1.372 . S
C285 C283 1.390 . S
C285 H295 0.929 . S
C286 O266 1.255 . S
C286 O267 1.264 . S
C287 Eu223 2.787 . S
C287 O262 1.252 . S
C287 O265 1.268 . S
C287 C280 1.506 . S
H288 C271 0.931 . S
H289 C272 0.931 . S
H290 C273 0.929 . S
H291 C274 0.930 . S
H292 C282 0.931 . S
H293 C283 0.931 . S
H294 C284 0.930 . S
H295 C285 0.929 . S
H296 C304 0.950 . S
H297 C309 0.950 . S
H298 C306 0.950 . S
H299 C308 0.950 . S
H300 C310 0.950 . S
H301 C312 0.950 . S
H302 C314 0.950 . S
H303 C315 0.950 . S
C304 H296 0.950 . S
C304 C305 1.386 . S
C304 C306 1.391 . S
C305 C304 1.386 . S
C305 C309 1.393 . S
C306 H298 0.950 . S
C306 C304 1.391 . S
C306 C307 1.400 . S
C307 C306 1.400 . S
C307 C308 1.398 . S
C307 C313 1.491 . S
C308 H299 0.950 . S
C308 C307 1.398 . S
C308 C309 1.391 . S
C309 H297 0.950 . S
C309 C305 1.393 . S
C309 C308 1.391 . S
C310 H300 0.950 . S
C310 C311 1.386 . S
C310 C312 1.391 . S
C311 C310 1.386 . S
C311 C315 1.393 . S
C312 H301 0.950 . S
C312 C310 1.391 . S
C312 C313 1.400 . S
C313 C307 1.491 . S
C313 C312 1.400 . S
C313 C314 1.398 . S
C314 H302 0.950 . S
C314 C313 1.398 . S
C314 C315 1.391 . S
C315 H303 0.950 . S
C315 C311 1.393 . S
C315 C314 1.391 . S
H316 C324 0.950 . S
H317 C329 0.950 1_556 S
H318 C326 0.950 . S
H319 C328 0.950 1_556 S
H320 C330 0.950 1_556 S
H321 C332 0.950 1_556 S
H322 C334 0.950 . S
H323 C335 0.950 . S
C324 H316 0.950 . S
C324 C325 1.386 . S
C324 C326 1.391 . S
C325 C324 1.386 . S
C325 C329 1.393 . S
C326 H318 0.950 . S
C326 C324 1.391 . S
C326 C327 1.400 . S
C327 C326 1.400 . S
C327 C328 1.398 . S
C327 C333 1.491 . S
C328 H319 0.950 1_554 S
C328 C327 1.398 . S
C328 C329 1.391 . S
C329 H317 0.950 1_554 S
C329 C325 1.393 . S
C329 C328 1.391 . S
C330 H320 0.950 1_554 S
C330 C331 1.386 . S
C330 C332 1.391 . S
C331 C330 1.386 . S
C331 C335 1.393 . S
C332 H321 0.950 1_554 S
C332 C330 1.391 . S
C332 C333 1.400 . S
C333 C327 1.491 . S
C333 C332 1.400 . S
C333 C334 1.398 . S
C334 H322 0.950 . S
C334 C333 1.398 . S
C334 C335 1.391 . S
C335 H323 0.950 . S
C335 C331 1.393 . S
C335 C334 1.391 . S
H336 C344 0.950 . S
H337 C349 0.950 . S
H338 C346 0.950 . S
H339 C348 0.950 . S
H340 C350 0.950 . S
H341 C352 0.950 . S
H342 C354 0.950 . S
H343 C355 0.950 . S
C344 H336 0.950 . S
C344 C345 1.386 . S
C344 C346 1.391 . S
C345 C344 1.386 . S
C345 C349 1.393 . S
C346 H338 0.950 . S
C346 C344 1.391 . S
C346 C347 1.400 . S
C347 C346 1.400 . S
C347 C348 1.398 . S
C347 C353 1.491 . S
C348 H339 0.950 . S
C348 C347 1.398 . S
C348 C349 1.391 . S
C349 H337 0.950 . S
C349 C345 1.393 . S
C349 C348 1.391 . S
C350 H340 0.950 . S
C350 C351 1.386 . S
C350 C352 1.391 . S
C351 C350 1.386 . S
C351 C355 1.393 . S
C352 H341 0.950 . S
C352 C350 1.391 . S
C352 C353 1.400 . S
C353 C347 1.491 . S
C353 C352 1.400 . S
C353 C354 1.398 . S
C354 H342 0.950 . S
C354 C353 1.398 . S
C354 C355 1.391 . S
C355 H343 0.950 . S
C355 C351 1.393 . S
C355 C354 1.391 . S
H356 C364 0.950 . S
H357 C369 0.950 . S
H358 C366 0.950 . S
H359 C368 0.950 . S
H360 C370 0.950 . S
H361 C372 0.950 . S
H362 C374 0.950 . S
H363 C375 0.950 . S
C364 H356 0.950 . S
C364 C365 1.386 . S
C364 C366 1.391 . S
C365 C364 1.386 . S
C365 C369 1.393 . S
C366 H358 0.950 . S
C366 C364 1.391 . S
C366 C367 1.400 . S
C367 C366 1.400 . S
C367 C368 1.398 . S
C367 C373 1.491 . S
C368 H359 0.950 . S
C368 C367 1.398 . S
C368 C369 1.391 . S
C369 H357 0.950 . S
C369 C365 1.393 . S
C369 C368 1.391 . S
C370 H360 0.950 . S
C370 C371 1.386 . S
C370 C372 1.391 . S
C371 C370 1.386 . S
C371 C375 1.393 . S
C372 H361 0.950 . S
C372 C370 1.391 . S
C372 C373 1.400 . S
C373 C367 1.491 . S
C373 C372 1.400 . S
C373 C374 1.398 . S
C374 H362 0.950 . S
C374 C373 1.398 . S
C374 C375 1.391 . S
C375 H363 0.950 . S
C375 C371 1.393 . S
C375 C374 1.391 . S
H376 C384 0.950 . S
H377 C389 0.950 . S
H378 C386 0.950 . S
H379 C388 0.950 . S
H380 C390 0.950 . S
H381 C392 0.950 . S
H382 C394 0.950 . S
H383 C395 0.950 . S
C384 H376 0.950 . S
C384 C385 1.386 . S
C384 C386 1.391 . S
C385 C384 1.386 . S
C385 C389 1.393 . S
C386 H378 0.950 . S
C386 C384 1.391 . S
C386 C387 1.400 . S
C387 C386 1.400 . S
C387 C388 1.398 . S
C387 C393 1.491 . S
C388 H379 0.950 . S
C388 C387 1.398 . S
C388 C389 1.391 . S
C389 H377 0.950 . S
C389 C385 1.393 . S
C389 C388 1.391 . S
C390 H380 0.950 . S
C390 C391 1.386 . S
C390 C392 1.391 . S
C391 C390 1.386 . S
C391 C395 1.393 . S
C392 H381 0.950 . S
C392 C390 1.391 . S
C392 C393 1.400 . S
C393 C387 1.491 . S
C393 C392 1.400 . S
C393 C394 1.398 . S
C394 H382 0.950 . S
C394 C393 1.398 . S
C394 C395 1.391 . S
C395 H383 0.950 . S
C395 C391 1.393 . S
C395 C394 1.391 . S
H396 C404 0.950 . S
H397 C409 0.950 . S
H398 C406 0.950 . S
H399 C408 0.950 . S
H400 C410 0.950 . S
H401 C412 0.950 . S
H402 C414 0.950 . S
H403 C415 0.950 . S
C404 H396 0.950 . S
C404 C405 1.386 . S
C404 C406 1.391 . S
C405 C404 1.386 . S
C405 C409 1.393 . S
C406 H398 0.950 . S
C406 C404 1.391 . S
C406 C407 1.400 . S
C407 C406 1.400 . S
C407 C408 1.398 . S
C407 C413 1.491 . S
C408 H399 0.950 . S
C408 C407 1.398 . S
C408 C409 1.391 . S
C409 H397 0.950 . S
C409 C405 1.393 . S
C409 C408 1.391 . S
C410 H400 0.950 . S
C410 C411 1.386 . S
C410 C412 1.391 . S
C411 C410 1.386 . S
C411 C415 1.393 . S
C412 H401 0.950 . S
C412 C410 1.391 . S
C412 C413 1.400 . S
C413 C407 1.491 . S
C413 C412 1.400 . S
C413 C414 1.398 . S
C414 H402 0.950 . S
C414 C413 1.398 . S
C414 C415 1.391 . S
C415 H403 0.950 . S
C415 C411 1.393 . S
C415 C414 1.391 . S
H416 C424 0.950 . S
H417 C429 0.950 . S
H418 C426 0.950 . S
H419 C428 0.950 . S
H420 C430 0.950 1_565 S
H421 C432 0.940 1_565 S
H422 C434 0.950 . S
H423 C435 0.950 . S
C424 H416 0.950 . S
C424 C425 1.386 . S
C424 C426 1.391 . S
C425 C424 1.386 . S
C425 C429 1.393 . S
C426 H418 0.950 . S
C426 C424 1.391 . S
C426 C427 1.400 . S
C427 C426 1.400 . S
C427 C428 1.398 . S
C427 C433 1.491 . S
C428 H419 0.950 . S
C428 C427 1.398 . S
C428 C429 1.391 . S
C429 H417 0.950 . S
C429 C425 1.393 . S
C429 C428 1.391 . S
C430 H420 0.950 1_545 S
C430 C431 1.386 . S
C430 C432 1.391 . S
C431 C430 1.386 . S
C431 C435 1.393 . S
C432 H421 0.940 1_545 S
C432 C430 1.391 . S
C432 C433 1.400 . S
C433 C427 1.491 . S
C433 C432 1.400 . S
C433 C434 1.398 . S
C434 H422 0.950 . S
C434 C433 1.398 . S
C434 C435 1.391 . S
C435 H423 0.950 . S
C435 C431 1.393 . S
C435 C434 1.391 . S
H436 C444 0.950 . S
H437 C449 0.950 . S
H438 C446 0.950 . S
H439 C448 0.950 . S
H440 C450 0.950 . S
H441 C452 0.950 . S
H442 C454 0.950 . S
H443 C455 0.950 . S
C444 H436 0.950 . S
C444 C445 1.386 . S
C444 C446 1.391 . S
C445 C444 1.386 . S
C445 C449 1.393 . S
C446 H438 0.950 . S
C446 C444 1.391 . S
C446 C447 1.400 . S
C447 C446 1.400 . S
C447 C448 1.398 . S
C447 C453 1.491 . S
C448 H439 0.950 . S
C448 C447 1.398 . S
C448 C449 1.391 . S
C449 H437 0.950 . S
C449 C445 1.393 . S
C449 C448 1.391 . S
C450 H440 0.950 . S
C450 C451 1.386 . S
C450 C452 1.391 . S
C451 C450 1.386 . S
C451 C455 1.393 . S
C452 H441 0.950 . S
C452 C450 1.391 . S
C452 C453 1.400 . S
C453 C447 1.491 . S
C453 C452 1.400 . S
C453 C454 1.398 . S
C454 H442 0.950 . S
C454 C453 1.398 . S
C454 C455 1.391 . S
C455 H443 0.950 . S
C455 C451 1.393 . S
C455 C454 1.391 . S
H456 C464 0.950 . S
H457 C469 0.950 . S
H458 C466 0.950 . S
H459 C468 0.950 . S
H460 C470 0.950 . S
H461 C472 0.950 . S
H462 C474 0.950 . S
H463 C475 0.950 . S
C464 H456 0.950 . S
C464 C465 1.386 . S
C464 C466 1.391 . S
C465 C464 1.386 . S
C465 C469 1.393 . S
C466 H458 0.950 . S
C466 C464 1.391 . S
C466 C467 1.400 . S
C467 C466 1.400 . S
C467 C468 1.398 . S
C467 C473 1.491 . S
C468 H459 0.950 . S
C468 C467 1.398 . S
C468 C469 1.391 . S
C469 H457 0.950 . S
C469 C465 1.393 . S
C469 C468 1.391 . S
C470 H460 0.950 . S
C470 C471 1.386 . S
C470 C472 1.391 . S
C471 C470 1.386 . S
C471 C475 1.393 . S
C472 H461 0.950 . S
C472 C470 1.391 . S
C472 C473 1.400 . S
C473 C467 1.491 . S
C473 C472 1.400 . S
C473 C474 1.398 . S
C474 H462 0.950 . S
C474 C473 1.398 . S
C474 C475 1.391 . S
C475 H463 0.950 . S
C475 C471 1.393 . S
C475 C474 1.391 . S
H476 C484 0.950 . S
H477 C489 0.950 . S
H478 C486 0.950 . S
H479 C488 0.950 . S
H480 C490 0.950 . S
H481 C492 0.950 . S
H482 C494 0.950 . S
H483 C495 0.950 . S
C484 H476 0.950 . S
C484 C485 1.386 . S
C484 C486 1.391 . S
C485 C484 1.386 . S
C485 C489 1.393 . S
C486 H478 0.950 . S
C486 C484 1.391 . S
C486 C487 1.400 . S
C487 C486 1.400 . S
C487 C488 1.398 . S
C487 C493 1.491 . S
C488 H479 0.950 . S
C488 C487 1.398 . S
C488 C489 1.391 . S
C489 H477 0.950 . S
C489 C485 1.393 . S
C489 C488 1.391 . S
C490 H480 0.950 . S
C490 C491 1.386 . S
C490 C492 1.391 . S
C491 C490 1.386 . S
C491 C495 1.393 . S
C492 H481 0.950 . S
C492 C490 1.391 . S
C492 C493 1.400 . S
C493 C487 1.491 . S
C493 C492 1.400 . S
C493 C494 1.398 . S
C494 H482 0.950 . S
C494 C493 1.398 . S
C494 C495 1.391 . S
C495 H483 0.950 . S
C495 C491 1.393 . S
C495 C494 1.391 . S
H496 C504 0.950 . S
H497 C509 0.950 . S
H498 C506 0.950 . S
H499 C508 0.950 . S
H500 C510 0.950 . S
H501 C512 0.950 . S
H502 C514 0.950 . S
H503 C515 0.950 . S
C504 H496 0.950 . S
C504 C505 1.386 . S
C504 C506 1.391 . S
C505 C504 1.386 . S
C505 C509 1.393 . S
C506 H498 0.950 . S
C506 C504 1.391 . S
C506 C507 1.400 . S
C507 C506 1.400 . S
C507 C508 1.398 . S
C507 C513 1.491 . S
C508 H499 0.950 . S
C508 C507 1.398 . S
C508 C509 1.391 . S
C509 H497 0.950 . S
C509 C505 1.393 . S
C509 C508 1.391 . S
C510 H500 0.950 . S
C510 C511 1.386 . S
C510 C512 1.391 . S
C511 C510 1.386 . S
C511 C515 1.393 . S
C512 H501 0.950 . S
C512 C510 1.391 . S
C512 C513 1.400 . S
C513 C507 1.491 . S
C513 C512 1.400 . S
C513 C514 1.398 . S
C514 H502 0.950 . S
C514 C513 1.398 . S
C514 C515 1.391 . S
C515 H503 0.950 . S
C515 C511 1.393 . S
C515 C514 1.391 . S
H516 C524 0.950 . S
H517 C529 0.950 . S
H518 C526 0.950 . S
H519 C528 0.950 . S
H520 C530 0.950 . S
H521 C532 0.950 . S
H522 C534 0.950 1_545 S
H523 C535 0.950 1_545 S
C524 H516 0.950 . S
C524 C525 1.386 . S
C524 C526 1.391 . S
C525 C524 1.386 . S
C525 C529 1.393 . S
C526 H518 0.950 . S
C526 C524 1.391 . S
C526 C527 1.400 . S
C527 C526 1.400 . S
C527 C528 1.398 . S
C527 C533 1.491 . S
C528 H519 0.950 . S
C528 C527 1.398 . S
C528 C529 1.391 . S
C529 H517 0.950 . S
C529 C525 1.393 . S
C529 C528 1.391 . S
C530 H520 0.950 . S
C530 C531 1.386 . S
C530 C532 1.391 . S
C531 C530 1.386 . S
C531 C535 1.393 . S
C532 H521 0.950 . S
C532 C530 1.391 . S
C532 C533 1.400 . S
C533 C527 1.491 . S
C533 C532 1.400 . S
C533 C534 1.398 . S
C534 H522 0.950 1_565 S
C534 C533 1.398 . S
C534 C535 1.391 . S
C535 H523 0.950 1_565 S
C535 C531 1.393 . S
C535 C534 1.391 . S
C311 C191 1.626 . S
C305 C119 1.619 . S
C325 C23 1.613 . S
C331 C286 1.601 . S
C345 C55 1.576 . S
C351 C202 1.616 . S
C365 C87 1.537 . S
C371 C275 1.588 . S
C391 C186 1.411 . S
C385 C17 1.544 . S
C411 C279 1.607 . S
C405 C61 1.524 . S
C425 C93 1.504 . S
C431 C195 1.598 . S
C445 C113 1.526 . S
C451 C270 1.391 . S
C471 C281 1.416 . S
C465 C49 1.482 . S
C491 C197 1.381 . S
C485 C81 1.508 . S
C511 C268 1.604 . S
C505 C125 1.590 . S
C525 C29 1.589 . S
C531 C184 1.597 . S
