# Generated by pormake.
# Topology zzz, (3,6)-cn, num edge types: 1
# Building blocks:
#     Node 0, Type 0, BuildingBlock: QEWDON_clean_linker_0, # of connection points: 3
#     Node 1, Type 0, BuildingBlock: QEWDON_clean_linker_0, # of connection points: 3
#     Node 2, Type 0, BuildingBlock: QEWDON_clean_linker_0, # of connection points: 3
#     Node 3, Type 0, BuildingBlock: QEWDON_clean_linker_0, # of connection points: 3
#     Node 4, Type 0, BuildingBlock: QEWDON_clean_linker_0, # of connection points: 3
#     Node 5, Type 0, BuildingBlock: QEWDON_clean_linker_0, # of connection points: 3
#     Node 6, Type 0, BuildingBlock: QEWDON_clean_linker_0, # of connection points: 3
#     Node 7, Type 0, BuildingBlock: QEWDON_clean_linker_0, # of connection points: 3
#     Node 8, Type 1, BuildingBlock: PAMTUU_clean_sbu_0, # of connection points: 6
#     Node 9, Type 1, BuildingBlock: PAMTUU_clean_sbu_0, # of connection points: 6
#     Node 10, Type 1, BuildingBlock: PAMTUU_clean_sbu_0, # of connection points: 6
#     Node 11, Type 1, BuildingBlock: PAMTUU_clean_sbu_0, # of connection points: 6
#     Edge 12, Type (0, 1), BuildingBlock: XUDNAN_clean_linker_2, # of connection points: 2
#     Edge 13, Type (0, 1), BuildingBlock: XUDNAN_clean_linker_2, # of connection points: 2
#     Edge 14, Type (0, 1), BuildingBlock: XUDNAN_clean_linker_2, # of connection points: 2
#     Edge 15, Type (0, 1), BuildingBlock: XUDNAN_clean_linker_2, # of connection points: 2
#     Edge 16, Type (0, 1), BuildingBlock: XUDNAN_clean_linker_2, # of connection points: 2
#     Edge 17, Type (0, 1), BuildingBlock: XUDNAN_clean_linker_2, # of connection points: 2
#     Edge 18, Type (0, 1), BuildingBlock: XUDNAN_clean_linker_2, # of connection points: 2
#     Edge 19, Type (0, 1), BuildingBlock: XUDNAN_clean_linker_2, # of connection points: 2
#     Edge 20, Type (0, 1), BuildingBlock: XUDNAN_clean_linker_2, # of connection points: 2
#     Edge 21, Type (0, 1), BuildingBlock: XUDNAN_clean_linker_2, # of connection points: 2
#     Edge 22, Type (0, 1), BuildingBlock: XUDNAN_clean_linker_2, # of connection points: 2
#     Edge 23, Type (0, 1), BuildingBlock: XUDNAN_clean_linker_2, # of connection points: 2
#     Edge 24, Type (0, 1), BuildingBlock: XUDNAN_clean_linker_2, # of connection points: 2
#     Edge 25, Type (0, 1), BuildingBlock: XUDNAN_clean_linker_2, # of connection points: 2
#     Edge 26, Type (0, 1), BuildingBlock: XUDNAN_clean_linker_2, # of connection points: 2
#     Edge 27, Type (0, 1), BuildingBlock: XUDNAN_clean_linker_2, # of connection points: 2
#     Edge 28, Type (0, 1), BuildingBlock: XUDNAN_clean_linker_2, # of connection points: 2
#     Edge 29, Type (0, 1), BuildingBlock: XUDNAN_clean_linker_2, # of connection points: 2
#     Edge 30, Type (0, 1), BuildingBlock: XUDNAN_clean_linker_2, # of connection points: 2
#     Edge 31, Type (0, 1), BuildingBlock: XUDNAN_clean_linker_2, # of connection points: 2
#     Edge 32, Type (0, 1), BuildingBlock: XUDNAN_clean_linker_2, # of connection points: 2
#     Edge 33, Type (0, 1), BuildingBlock: XUDNAN_clean_linker_2, # of connection points: 2
#     Edge 34, Type (0, 1), BuildingBlock: XUDNAN_clean_linker_2, # of connection points: 2
#     Edge 35, Type (0, 1), BuildingBlock: XUDNAN_clean_linker_2, # of connection points: 2
# Relax obj value: 0.135
# Max RMSD: 0.205
# Mean RMSD: 0.080
data_MOF--net-zzz--node1-PAMTUU_clean_sbu_0--node2-QEWDON_clean_linker_0--edge1-XUDNAN_clean_linker_2
_symmetry_space_group_name_H-M    P1
_symmetry_Int_Tables_number       1
_symmetry_cell_setting            triclinic
loop_
_symmetry_equiv_pos_as_xyz
'x, y, z'
_cell_length_a     54.566689
_cell_length_b     58.030776
_cell_length_c     15.087487
_cell_angle_alpha  100.99183
_cell_angle_beta   90.169928
_cell_angle_gamma 91.388143
loop_
_atom_site_label
_atom_site_type_symbol
_atom_site_fract_x
_atom_site_fract_y
_atom_site_fract_z
_atom_type_partial_charge
H0 H 0.77183 0.46312 0.31166 0.0
C1 C 0.78572 0.47116 0.35996 0.0
C2 C 0.80911 0.46149 0.35553 0.0
C3 C 0.77995 0.49062 0.42721 0.0
H4 H 0.84533 0.46457 0.41523 0.0
C5 C 0.82688 0.47118 0.42046 0.0
C6 C 0.82191 0.49021 0.48949 0.0
C7 C 0.79845 0.50024 0.4917 0.0
C8 C 0.75411 0.49944 0.43277 0.0
H9 H 0.79465 0.5153 0.54375 0.0
C10 C 0.73922 0.49882 0.35441 0.0
C11 C 0.7139 0.50437 0.36103 0.0
C12 C 0.74346 0.50669 0.51777 0.0
H13 H 0.75387 0.50703 0.57922 0.0
C14 C 0.71883 0.51247 0.52522 0.0
H15 H 0.74747 0.49407 0.28859 0.0
C16 C 0.70416 0.511 0.44841 0.0
H17 H 0.68492 0.51454 0.45875 0.0
H18 H 0.71083 0.51753 0.59145 0.0
H19 H 0.04787 0.75468 0.33287 0.0
C20 C 0.03895 0.76765 0.38277 0.0
C21 C 0.03703 0.7907 0.36805 0.0
C22 C 0.03008 0.76169 0.46351 0.0
H23 H 0.02676 0.82578 0.42454 0.0
C24 C 0.02659 0.80773 0.4343 0.0
C25 C 1.01799 0.80238 0.51548 0.0
C26 C 1.01956 0.77921 0.52931 0.0
C27 C 0.03274 0.73754 0.48169 0.0
H28 H 1.01278 0.77486 0.59169 0.0
C29 C 0.02717 0.71763 0.41469 0.0
C30 C 0.02886 0.69477 0.43336 0.0
C31 C 0.04059 0.73434 0.56726 0.0
H32 H 0.0454 0.74927 0.61978 0.0
C33 C 0.04251 0.71183 0.58596 0.0
H34 H 1.02131 0.71998 0.3484 0.0
C35 C 0.03658 0.69219 0.51992 0.0
H36 H 0.03767 0.67498 0.53733 0.0
H37 H 0.04845 0.70961 0.65226 0.0
H38 H 0.7805 0.03733 0.34287 0.0
C39 C 0.76738 0.03066 0.38586 0.0
C40 C 0.74605 0.04341 0.41097 0.0
C41 C 0.7709 0.00854 0.40898 0.0
H42 H 0.7113 0.04285 0.47915 0.0
C43 C 0.72862 0.03429 0.46464 0.0
C44 C 0.73163 0.01286 0.49234 0.0
C45 C 0.75286 0.99997 0.46394 0.0
C46 C 0.79147 0.99338 0.3653 0.0
H47 H 0.755 0.98315 0.48368 0.0
C48 C 0.81399 1.00295 0.33783 0.0
C49 C 0.83148 0.98834 0.28634 0.0
C50 C 0.78758 0.96887 0.34249 0.0
H51 H 0.77062 0.96064 0.3588 0.0
C52 C 0.80502 0.95446 0.29444 0.0
H53 H 0.81778 0.02167 0.35454 0.0
C54 C 0.82661 0.96403 0.26615 0.0
H55 H 0.83967 0.95225 0.22865 0.0
H56 H 0.80157 0.93568 0.27753 0.0
H57 H 0.53097 0.74208 0.04426 0.0
C58 C 0.52999 0.73764 0.11074 0.0
C59 C 0.52194 0.71482 0.11984 0.0
C60 C 0.53849 0.7541 0.18714 0.0
H61 H 0.51736 0.69123 0.21354 0.0
C62 C 0.52212 0.709 0.20569 0.0
C63 C 0.53104 0.72454 0.28109 0.0
C64 C 0.53897 0.74717 0.27249 0.0
C65 C 0.55043 0.77707 0.17738 0.0
H66 H 0.54629 0.75902 0.33141 0.0
C67 C 0.53959 0.79313 0.12929 0.0
C68 C 0.55141 0.81514 0.12647 0.0
C69 C 0.57345 0.78301 0.21872 0.0
H70 H 0.58257 0.77101 0.25407 0.0
C71 C 0.58525 0.80428 0.21448 0.0
H72 H 0.52189 0.78886 0.09689 0.0
C73 C 0.57438 0.8202 0.16931 0.0
H74 H 0.58428 0.83645 0.16667 0.0
H75 H 0.60302 0.80845 0.24641 0.0
H76 H 0.28644 0.47676 0.3934 0.0
C77 C 0.27337 0.48034 0.34409 0.0
C78 C 0.24864 0.47737 0.36225 0.0
C79 C 0.281 0.48841 0.26623 0.0
H80 H 0.21165 0.47924 0.31738 0.0
C81 C 0.23078 0.48068 0.29954 0.0
C82 C 0.23713 0.48796 0.21887 0.0
C83 C 0.26248 0.49226 0.20337 0.0
C84 C 0.3082 0.49269 0.25327 0.0
H85 H 0.26757 0.49879 0.14333 0.0
C86 C 0.32504 0.4973 0.32778 0.0
C87 C 0.35076 0.49911 0.31543 0.0
C88 C 0.31787 0.491 0.1661 0.0
H89 H 0.30616 0.48708 0.10692 0.0
C90 C 0.34305 0.49369 0.15336 0.0
H91 H 0.31831 0.49921 0.39587 0.0
C92 C 0.35931 0.49759 0.22671 0.0
H93 H 0.37864 0.49961 0.21345 0.0
H94 H 0.35009 0.49242 0.08564 0.0
H95 H 1.01584 0.26731 0.41767 0.0
C96 C 1.02389 0.25402 0.36654 0.0
C97 C 0.02563 0.23094 0.38153 0.0
C98 C 0.03163 0.25956 0.2837 0.0
H99 H 0.03433 0.19548 0.32337 0.0
C100 C 0.03477 0.21351 0.31341 0.0
C101 C 0.04223 0.21847 0.23029 0.0
C102 C 0.04099 0.24165 0.21645 0.0
C103 C 0.0285 0.28349 0.26373 0.0
H104 H 0.04693 0.24567 0.15251 0.0
C105 C 0.03496 0.30391 0.32736 0.0
C106 C 0.03335 0.32624 0.30417 0.0
C107 C 1.01947 0.28589 0.17852 0.0
H108 H 1.0138 0.27062 0.12893 0.0
C109 C 1.01757 0.308 0.15617 0.0
H110 H 0.04202 0.30243 0.39321 0.0
C111 C 1.02466 0.32805 0.21816 0.0
H112 H 1.02313 0.34507 0.19929 0.0
H113 H 1.01067 0.30959 0.09032 0.0
H114 H 0.2629 0.04505 0.38541 0.0
C115 C 0.27679 0.03833 0.33688 0.0
C116 C 0.30068 0.04746 0.35176 0.0
C117 C 0.27076 0.02082 0.26126 0.0
H118 H 0.33717 0.04722 0.299 0.0
C119 C 0.3188 0.03985 0.28762 0.0
C120 C 0.31409 0.02236 0.21113 0.0
C121 C 0.28971 0.01293 0.19798 0.0
C122 C 0.24445 0.01187 0.2493 0.0
H123 H 0.28568 0.99919 0.14013 0.0
C124 C 0.22881 0.01147 0.32473 0.0
C125 C 0.20311 0.00679 0.3142 0.0
C126 C 0.23411 1.0057 0.16248 0.0
H127 H 0.24508 1.006 0.10305 0.0
C128 C 0.20912 1.00015 0.15095 0.0
H129 H 0.23671 0.01491 0.39185 0.0
C130 C 0.19374 1.00106 0.22538 0.0
H131 H 0.17435 0.99786 0.21234 0.0
H132 H 0.20142 0.99584 0.08344 0.0
H133 H 0.54254 0.2615 0.64464 0.0
C134 C 0.53373 0.26751 0.589 0.0
C135 C 0.52896 0.29153 0.59628 0.0
C136 C 0.52872 0.2516 0.5072 0.0
H137 H 0.51609 0.31817 0.52769 0.0
C138 C 0.51899 0.2995 0.52263 0.0
C139 C 0.51514 0.28454 0.43968 0.0
C140 C 0.51959 0.26043 0.43212 0.0
C141 C 0.53714 0.22684 0.49511 0.0
H142 H 0.51707 0.2488 0.36727 0.0
C143 C 0.52978 0.21124 0.55277 0.0
C144 C 0.5392 0.18821 0.54045 0.0
C145 C 0.55379 0.21905 0.42568 0.0
H146 H 0.55995 0.23059 0.38118 0.0
C147 C 0.56317 0.19657 0.41387 0.0
H148 H 0.51688 0.21695 0.60643 0.0
C149 C 0.55603 0.18132 0.47058 0.0
H150 H 0.56333 0.16381 0.45836 0.0
H151 H 0.57605 0.19089 0.36018 0.0
Tb152 Tb 1.00972 0.01407 0.78398 0.0
Tb153 Tb 0.04558 1.00672 0.95228 0.0
C154 C 0.98832 0.01073 0.97739 0.0
C155 C 0.98079 0.05114 0.64579 0.0
C156 C 0.98172 0.09834 0.62133 0.0
C157 C 0.9625 0.08972 0.66873 0.0
C158 C 0.96199 0.06638 0.68039 0.0
C159 C 0.99949 0.05946 0.59535 0.0
C160 C 0.9999 0.08274 0.58302 0.0
C161 C 0.98206 0.02775 0.67135 0.0
O162 O 1.0237 0.04876 0.84813 0.0
O163 O 0.04735 0.04446 0.97091 0.0
O164 O 0.06983 0.01553 0.84779 0.0
O165 O 0.0456 0.00716 0.72043 0.0
O166 O 0.0531 1.00534 0.08821 0.0
O167 O 0.07938 0.99375 0.98414 0.0
O168 O 0.03081 0.97219 0.89066 0.0
O169 O 1.0089 0.97622 0.76349 0.0
O170 O 0.98552 1.0051 0.88919 0.0
O171 O 1.01011 0.01586 0.01438 0.0
C172 C 0.03742 0.05748 0.91896 0.0
O173 O 1.00165 0.01563 0.64857 0.0
O174 O 0.97585 0.02725 0.7542 0.0
C175 C 0.06725 0.01161 0.75942 0.0
C176 C 0.0751 0.97072 0.09559 0.0
C177 C 0.07665 0.92418 0.12654 0.0
C178 C 0.09619 0.93374 0.08358 0.0
C179 C 0.09547 0.95678 0.06875 0.0
C180 C 0.05598 0.96153 0.14168 0.0
C181 C 0.05681 0.93858 0.1573 0.0
C182 C 0.07308 0.99368 0.06724 0.0
C183 C 1.01794 0.96333 0.81782 0.0
H184 H 0.94825 0.10119 0.69948 0.0
H185 H 0.94731 0.06047 0.71955 0.0
H186 H 1.01422 0.04822 0.56729 0.0
H187 H 1.01462 0.08855 0.5439 0.0
H188 H 0.11171 0.9232 0.05864 0.0
H189 H 0.11049 0.96342 0.0332 0.0
H190 H 0.04006 0.97181 0.1638 0.0
H191 H 0.04175 0.93209 0.19297 0.0
Tb192 Tb 0.51113 0.98977 0.7349 0.0
Tb193 Tb 0.53341 0.01399 0.93028 0.0
C194 C 0.52518 0.95798 0.87389 0.0
C195 C 0.46921 0.99369 0.56446 0.0
C196 C 0.42852 0.02319 0.59206 0.0
C197 C 0.42532 0.99867 0.58149 0.0
C198 C 0.44547 0.98406 0.56781 0.0
C199 C 0.47206 0.018 0.56635 0.0
C200 C 0.45197 0.03258 0.58057 0.0
C201 C 0.49047 0.98022 0.58479 0.0
O202 O 0.47978 0.98941 0.82287 0.0
O203 O 0.49316 0.01588 0.9478 0.0
O204 O 0.53794 0.03921 0.84026 0.0
O205 O 0.50306 0.02711 0.76447 0.0
O206 O 0.55437 0.01371 0.04669 0.0
O207 O 0.53435 0.04444 0.03157 0.0
O208 O 0.5668 1.00565 0.85109 0.0
O209 O 0.5506 0.98922 0.71114 0.0
O210 O 0.52236 0.95942 0.78838 0.0
O211 O 0.5269 0.97686 0.93858 0.0
C212 C 0.47547 1.00307 0.90079 0.0
O213 O 0.51127 0.99203 0.59765 0.0
O214 O 0.48669 0.96773 0.64718 0.0
C215 C 0.51988 0.04346 0.78924 0.0
C216 C 0.5738 0.05069 0.09557 0.0
C217 C 0.61752 0.0779 0.13373 0.0
C218 C 0.59583 0.08469 0.18113 0.0
C219 C 0.57418 0.07113 0.16235 0.0
C220 C 0.59501 0.04454 0.04515 0.0
C221 C 0.61661 0.05783 0.0644 0.0
C222 C 0.55127 0.03608 0.07687 0.0
C223 C 0.56943 0.99621 0.76514 0.0
H224 H 0.40731 0.99077 0.58636 0.0
H225 H 0.44268 0.96545 0.56654 0.0
H226 H 0.49005 0.02615 0.56399 0.0
H227 H 0.45504 0.05134 0.58719 0.0
H228 H 0.5957 0.10018 0.23409 0.0
H229 H 0.55784 0.07641 0.20078 0.0
H230 H 0.59513 0.02905 0.99219 0.0
H231 H 0.63286 0.05156 0.0274 0.0
Tb232 Tb 0.51776 0.49842 0.92499 0.0
Tb233 Tb 0.54843 0.50563 0.74242 0.0
C234 C 0.49035 0.50383 0.74715 0.0
C235 C 0.49454 0.46094 0.08233 0.0
C236 C 0.4931 0.41651 0.13696 0.0
C237 C 0.47945 0.42023 0.06183 0.0
C238 C 0.4802 0.44204 0.03479 0.0
C239 C 0.50785 0.45743 0.15844 0.0
C240 C 0.50721 0.43552 0.18521 0.0
C241 C 0.49572 0.48408 0.05261 0.0
O242 O 0.52399 0.46396 0.84106 0.0
O243 O 0.55517 0.46913 0.74321 0.0
O244 O 0.5773 0.4983 0.83291 0.0
O245 O 0.5563 0.50406 0.96786 0.0
O246 O 0.54864 0.50396 0.60146 0.0
O247 O 0.57694 0.52306 0.68611 0.0
O248 O 0.54147 0.53986 0.82185 0.0
O249 O 0.51715 0.53669 0.94372 0.0
O250 O 0.49084 0.50974 0.83569 0.0
O251 O 0.5102 0.49659 0.70222 0.0
C252 C 0.54153 0.45568 0.78509 0.0
O253 O 0.51662 0.4957 0.06263 0.0
O254 O 0.48567 0.48491 0.9749 0.0
C255 C 0.57682 0.50088 0.92161 0.0
C256 C 0.55971 0.542 0.57794 0.0
C257 C 0.54977 0.58703 0.53925 0.0
C258 C 0.56757 0.57255 0.49004 0.0
C259 C 0.57272 0.55042 0.51015 0.0
C260 C 0.54137 0.55586 0.62414 0.0
C261 C 0.53691 0.57817 0.60699 0.0
C262 C 0.56612 0.51995 0.60753 0.0
C263 C 0.52894 0.54932 0.89279 0.0
H264 H 0.46839 0.40616 0.02265 0.0
H265 H 0.46958 0.44399 0.97603 0.0
H266 H 0.51885 0.47164 0.19729 0.0
H267 H 0.51757 0.43362 0.24459 0.0
H268 H 0.57762 0.57815 0.43591 0.0
H269 H 0.58694 0.54002 0.47327 0.0
H270 H 0.53068 0.54965 0.67538 0.0
H271 H 0.52359 0.5885 0.64901 0.0
Tb272 Tb 0.0383 0.52808 0.81019 0.0
Tb273 Tb 1.01923 0.49235 0.93779 0.0
C274 C 1.01679 0.54628 0.99655 0.0
C275 C 0.08538 0.55402 0.69955 0.0
C276 C 0.13197 0.53487 0.6989 0.0
C277 C 0.12606 0.55396 0.76635 0.0
C278 C 0.10279 0.56353 0.7668 0.0
C279 C 0.0931 0.53774 0.6243 0.0
C280 C 0.11612 0.52799 0.62468 0.0
C281 C 0.05895 0.55497 0.72093 0.0
O282 O 0.06831 0.52637 0.90516 0.0
O283 O 0.05943 0.49148 0.94913 0.0
O284 O 1.01929 0.47302 0.80021 0.0
O285 O 0.05094 0.49324 0.75077 0.0
O286 O 0.99878 0.48646 0.04899 0.0
O287 O 1.0189 0.45845 0.96839 0.0
O288 O 0.98549 0.50183 0.87346 0.0
O289 O 1.00084 0.52025 0.76153 0.0
O290 O 1.0145 0.54706 0.91106 0.0
O291 O 0.02476 0.5273 0.02141 0.0
C292 C 0.07512 0.50861 0.9414 0.0
O293 O 0.04584 0.53647 0.68355 0.0
O294 O 0.05384 0.56133 0.80648 0.0
C295 C 0.03737 0.47403 0.74434 0.0
C296 C 0.97967 0.44905 0.01678 0.0
C297 C 0.93516 0.42283 0.00451 0.0
C298 C 0.95649 0.4144 0.03918 0.0
C299 C 0.97855 0.4275 0.0457 0.0
C300 C 0.959 0.4566 0.97601 0.0
C301 C 0.937 0.44377 0.97044 0.0
C302 C 1.00214 0.46386 0.02964 0.0
C303 C 0.98244 0.51121 0.80101 0.0
H304 H 0.13849 0.56002 0.82254 0.0
H305 H 0.09763 0.57652 0.82478 0.0
H306 H 0.08042 0.53051 0.57015 0.0
H307 H 0.12089 0.51391 0.56981 0.0
H308 H 0.95591 0.39817 0.06463 0.0
H309 H 0.99449 0.42115 0.07564 0.0
H310 H 0.95949 0.47301 0.9519 0.0
H311 H 0.92111 0.45125 0.94475 0.0
H312 H 0.15683 0.98516 0.32805 0.0
H313 H 0.20917 0.0346 0.48469 0.0
H314 H 0.18096 0.03984 0.61273 0.0
H315 H 0.1036 0.01858 0.40664 0.0
H316 H 0.08413 0.99311 0.40788 0.0
H317 H 0.10916 0.99145 0.32954 0.0
H318 H 0.12641 0.9564 0.39071 0.0
H319 H 0.10143 0.95788 0.46924 0.0
H320 H 0.13264 0.95941 0.50986 0.0
H321 H 0.147 0.04016 0.72585 0.0
H322 H 0.10931 0.03681 0.81245 0.0
H323 H 0.07651 0.99046 0.58035 0.0
C324 C 0.16255 0.99731 0.38849 0.0
C325 C 0.1859 0.00919 0.39442 0.0
C326 C 0.19209 0.02456 0.47707 0.0
C327 C 0.17592 0.02794 0.55071 0.0
C328 C 0.15317 0.0162 0.54163 0.0
C329 C 0.14635 1.00133 0.46236 0.0
C330 C 0.12033 0.9916 0.46936 0.0
C331 C 0.1033 0.99914 0.39919 0.0
C332 C 0.12021 0.96473 0.4592 0.0
C333 C 0.11361 1.00336 0.56507 0.0
C334 C 0.13301 0.01727 0.6056 0.0
C335 C 0.13168 0.02941 0.69449 0.0
C336 C 0.11011 0.02734 0.74336 0.0
C337 C 0.08971 0.01347 0.70367 0.0
C338 C 0.09157 1.00142 0.61269 0.0
H339 H 0.568 0.15974 0.62187 0.0
H340 H 0.49215 0.1755 0.57883 0.0
H341 H 0.4788 0.14127 0.64464 0.0
H342 H 0.5621 0.0986 0.56309 0.0
H343 H 0.58301 0.09241 0.64774 0.0
H344 H 0.58654 0.11927 0.60543 0.0
H345 H 0.58412 0.14343 0.7681 0.0
H346 H 0.58084 0.1166 0.81106 0.0
H347 H 0.55828 0.139 0.83767 0.0
H348 H 0.47408 0.10208 0.69699 0.0
H349 H 0.47808 0.0643 0.74799 0.0
H350 H 0.55699 0.07497 0.76495 0.0
C351 C 0.54855 0.15629 0.62811 0.0
C352 C 0.53109 0.17046 0.5954 0.0
C353 C 0.50584 0.16521 0.60448 0.0
C354 C 0.49812 0.14565 0.64116 0.0
C355 C 0.51584 0.13164 0.67 0.0
C356 C 0.54055 0.13703 0.6656 0.0
C357 C 0.55594 0.11887 0.69915 0.0
C358 C 0.57289 0.10656 0.62439 0.0
C359 C 0.57066 0.13015 0.78405 0.0
C360 C 0.5361 0.10208 0.72129 0.0
C361 C 0.51308 0.10969 0.70347 0.0
C362 C 0.492 0.09628 0.71274 0.0
C363 C 0.49446 0.07473 0.74138 0.0
C364 C 0.5178 0.06673 0.7616 0.0
C365 C 0.53885 0.08078 0.75184 0.0
H366 H 0.39824 0.48249 0.31922 0.0
H367 H 0.34471 0.52312 0.4915 0.0
H368 H 0.37379 0.52775 0.61924 0.0
H369 H 0.42395 0.45296 0.48438 0.0
H370 H 0.45498 0.45484 0.44518 0.0
H371 H 0.42969 0.45398 0.36754 0.0
H372 H 0.44565 0.49272 0.32467 0.0
H373 H 0.47103 0.49366 0.40196 0.0
H374 H 0.45097 0.51824 0.41219 0.0
H375 H 0.40911 0.52786 0.7306 0.0
H376 H 0.44774 0.52474 0.8128 0.0
H377 H 0.4794 0.48623 0.56662 0.0
C378 C 0.39254 0.49265 0.38323 0.0
C379 C 0.36872 0.50227 0.39392 0.0
C380 C 0.36237 0.51502 0.48048 0.0
C381 C 0.37895 0.51795 0.55385 0.0
C382 C 0.40213 0.50826 0.54049 0.0
C383 C 0.40899 0.496 0.45704 0.0
C384 C 0.43521 0.48774 0.46004 0.0
C385 C 0.43599 0.46078 0.43799 0.0
C386 C 0.45169 0.49875 0.39592 0.0
C387 C 0.44204 0.49722 0.55831 0.0
C388 C 0.42263 0.50888 0.60369 0.0
C389 C 0.42441 0.51883 0.6954 0.0
C390 C 0.4465 0.51691 0.74175 0.0
C391 C 0.46683 0.50527 0.69676 0.0
C392 C 0.46437 0.49534 0.60343 0.0
H393 H 1.01443 0.34315 0.47108 0.0
H394 H 0.068 0.35867 0.27798 0.0
H395 H 0.07699 0.39744 0.37478 0.0
H396 H 0.98981 0.39929 0.51723 0.0
H397 H 0.98458 0.39993 0.63556 0.0
H398 H 0.98461 0.37229 0.55759 0.0
H399 H 1.01837 0.35739 0.65234 0.0
H400 H 1.01827 0.38495 0.73118 0.0
H401 H 0.04646 0.37439 0.67807 0.0
H402 H 0.07798 0.4356 0.48718 0.0
H403 H 0.07063 0.47036 0.60619 0.0
H404 H 1.01529 0.43038 0.72306 0.0
C405 C 0.02852 0.35451 0.45078 0.0
C406 C 0.04081 0.34794 0.36804 0.0
C407 C 0.05859 0.36344 0.34176 0.0
C408 C 0.06381 0.38544 0.39622 0.0
C409 C 0.05096 0.39171 0.47652 0.0
C410 C 0.03371 0.37669 0.50389 0.0
C411 C 1.02113 0.3884 0.58955 0.0
C412 C 0.99339 0.39008 0.57399 0.0
C413 C 0.02638 0.37551 0.66739 0.0
C414 C 0.03371 0.41241 0.60517 0.0
C415 C 0.05104 0.41391 0.53986 0.0
C416 C 0.06456 0.43459 0.53908 0.0
C417 C 0.06023 0.45426 0.60683 0.0
C418 C 0.04235 0.45316 0.6739 0.0
C419 C 0.02908 0.43186 0.67283 0.0
H420 H 0.8516 0.9769 0.11649 0.0
H421 H 0.86507 0.02032 0.3802 0.0
H422 H 0.90615 0.03153 0.3296 0.0
H423 H 0.91133 0.95486 0.08025 0.0
H424 H 0.91179 0.9554 0.96122 0.0
H425 H 0.88308 0.952 0.01638 0.0
H426 H 0.86635 0.98819 0.96091 0.0
H427 H 0.89496 0.9916 0.9049 0.0
H428 H 0.88331 0.01574 0.98571 0.0
H429 H 0.94772 0.03498 0.2526 0.0
H430 H 0.98389 0.03354 0.15349 0.0
H431 H 0.94267 0.98906 0.93749 0.0
C432 C 0.86307 0.98898 0.16349 0.0
C433 C 0.85497 0.9977 0.2528 0.0
C434 C 0.87062 0.01357 0.31149 0.0
C435 C 0.8941 0.01989 0.28334 0.0
C436 C 0.9017 0.01048 0.19565 0.0
C437 C 0.88642 0.99564 0.13616 0.0
C438 C 0.89891 0.98775 0.04578 0.0
C439 C 0.90142 0.96091 0.02471 0.0
C440 C 0.88506 0.99634 0.96984 0.0
C441 C 0.9238 1.00013 0.06375 0.0
C442 C 0.92511 0.01306 0.1508 0.0
C443 C 0.94668 0.02513 0.18409 0.0
C444 C 0.96724 0.02412 0.12719 0.0
C445 C 0.96627 0.01133 0.03708 0.0
C446 C 0.94407 0.99925 0.00542 0.0
H447 H 0.54998 0.86299 0.18589 0.0
H448 H 0.53012 0.80834 0.95691 0.0
H449 H 0.51952 0.83885 0.86928 0.0
H450 H 0.50298 0.90505 0.15025 0.0
H451 H 0.52338 0.93004 0.18551 0.0
H452 H 0.52688 0.90389 0.23192 0.0
H453 H 0.57215 0.90185 0.18075 0.0
H454 H 0.56874 0.92781 0.13331 0.0
H455 H 0.57921 0.90116 0.06362 0.0
H456 H 0.51521 0.87587 0.80183 0.0
H457 H 0.5145 0.91539 0.76409 0.0
H458 H 0.53722 0.94601 0.03805 0.0
C459 C 0.54305 0.85737 0.11767 0.0
C460 C 0.54092 0.83311 0.07838 0.0
C461 C 0.53165 0.82668 0.98905 0.0
C462 C 0.52577 0.84395 0.93855 0.0
C463 C 0.52899 0.86766 0.97844 0.0
C464 C 0.53709 0.87434 0.06659 0.0
C465 C 0.53987 0.90091 0.09307 0.0
C466 C 0.52222 0.91054 0.16973 0.0
C467 C 0.56658 0.90836 0.11921 0.0
C468 C 0.53255 0.90825 0.00554 0.0
C469 C 0.5263 0.88882 0.94024 0.0
C470 C 0.51983 0.89115 0.85294 0.0
C471 C 0.51959 0.91378 0.83203 0.0
C472 C 0.52573 0.93406 0.89791 0.0
C473 C 0.53223 0.93105 0.98601 0.0
H474 H 0.67037 0.52776 0.34237 0.0
H475 H 0.71851 0.47608 0.19067 0.0
H476 H 0.69021 0.47145 0.06088 0.0
H477 H 0.61492 0.49568 0.26706 0.0
H478 H 0.59758 0.52163 0.26502 0.0
H479 H 0.62292 0.52284 0.34258 0.0
H480 H 0.64279 0.55707 0.27828 0.0
H481 H 0.61753 0.55591 0.20027 0.0
H482 H 0.64848 0.55335 0.1588 0.0
H483 H 0.6557 0.47202 0.94562 0.0
H484 H 0.61736 0.47569 0.86176 0.0
H485 H 0.58954 0.52304 0.09518 0.0
C486 C 0.67515 0.51517 0.28291 0.0
C487 C 0.69723 0.50237 0.2789 0.0
C488 C 0.70235 0.48667 0.19689 0.0
C489 C 0.68613 0.4837 0.12231 0.0
C490 C 0.66446 0.49622 0.13003 0.0
C491 C 0.65886 0.51148 0.20877 0.0
C492 C 0.63371 0.52183 0.20205 0.0
C493 C 0.61626 0.51508 0.27339 0.0
C494 C 0.63577 0.54863 0.21033 0.0
C495 C 0.62591 0.5099 0.10727 0.0
C496 C 0.6441 0.49551 0.06618 0.0
C497 C 0.64135 0.48316 0.97759 0.0
C498 C 0.6195 0.48541 0.93025 0.0
C499 C 0.6003 0.49954 0.9717 0.0
C500 C 0.60371 0.51191 0.06165 0.0
H501 H 0.05101 0.65176 0.40065 0.0
H502 H 0.99133 0.68973 0.30861 0.0
H503 H 0.98025 0.65485 0.19345 0.0
H504 H 0.06855 0.62046 0.18665 0.0
H505 H 0.07508 0.59373 0.22551 0.0
H506 H 0.07801 0.62155 0.30201 0.0
H507 H 0.04807 0.60648 0.4125 0.0
H508 H 0.04495 0.57863 0.33601 0.0
H509 H 1.01811 0.59521 0.37287 0.0
H510 H 0.97704 0.61684 0.08325 0.0
H511 H 0.98197 0.57807 0.98481 0.0
H512 H 0.0418 0.56359 0.1543 0.0
C513 C 0.03537 0.6527 0.3573 0.0
C514 C 1.02213 0.67365 0.36381 0.0
C515 C 1.00209 0.67413 0.30421 0.0
C516 C 0.99546 0.6543 0.23912 0.0
C517 C 1.00886 0.63399 0.23495 0.0
C518 C 0.02834 0.63299 0.29258 0.0
C519 C 0.04005 0.60913 0.27249 0.0
C520 C 0.06702 0.61136 0.24501 0.0
C521 C 0.03764 0.59663 0.35329 0.0
C522 C 1.02435 0.59698 0.19349 0.0
C523 C 1.00645 0.61167 0.17312 0.0
C524 C 0.99073 0.60506 0.09932 0.0
C525 C 0.99367 0.58304 0.04388 0.0
C526 C 1.01199 0.56779 0.06299 0.0
C527 C 0.02722 0.57468 0.13972 0.0
H528 H 0.04922 0.20885 0.4978 0.0
H529 H 0.97797 0.23266 0.43434 0.0
H530 H 0.95822 0.20479 0.51859 0.0
H531 H 0.03588 0.15345 0.44647 0.0
H532 H 0.05314 0.14298 0.53219 0.0
H533 H 0.06236 0.16987 0.49837 0.0
H534 H 0.0596 0.19273 0.66296 0.0
H535 H 0.0512 0.16569 0.69871 0.0
H536 H 0.03187 0.19076 0.72604 0.0
H537 H 0.94647 0.16737 0.56835 0.0
H538 H 0.94372 0.12668 0.59405 0.0
H539 H 1.02279 0.12687 0.62631 0.0
C540 C 0.02956 0.20926 0.50731 0.0
C541 C 1.01508 0.22311 0.4613 0.0
C542 C 0.98934 0.22263 0.47124 0.0
C543 C 0.978 0.20664 0.51829 0.0
C544 C 0.99273 0.1916 0.55592 0.0
C545 C 1.01806 0.19324 0.55316 0.0
C546 C 0.0297 0.17269 0.58447 0.0
C547 C 0.04621 0.15896 0.51098 0.0
C548 C 0.04393 0.18096 0.67334 0.0
C549 C 1.00705 0.15841 0.59912 0.0
C550 C 0.98589 0.16976 0.58416 0.0
C551 C 0.96288 0.15869 0.5833 0.0
C552 C 0.96151 0.1355 0.59787 0.0
C553 C 0.98303 0.12348 0.61244 0.0
C554 C 1.00597 0.13543 0.61492 0.0
H555 H 0.33311 0.0846 0.38602 0.0
H556 H 0.2861 0.04106 0.51889 0.0
H557 H 0.31368 0.04739 0.64877 0.0
H558 H 0.37729 0.05725 0.38689 0.0
H559 H 0.40231 0.07849 0.41032 0.0
H560 H 0.37429 0.0867 0.366 0.0
H561 H 0.37061 0.12112 0.50178 0.0
H562 H 0.39918 0.11296 0.54631 0.0
H563 H 0.37213 0.11573 0.61539 0.0
H564 H 0.35131 0.03864 0.71352 0.0
H565 H 0.39076 0.01908 0.70774 0.0
H566 H 0.41831 0.06203 0.52321 0.0
C567 C 0.32825 0.07759 0.44529 0.0
C568 C 0.30826 0.06157 0.44097 0.0
C569 C 0.30152 0.05319 0.51966 0.0
C570 C 0.31735 0.05668 0.59429 0.0
C571 C 0.33989 0.06824 0.58847 0.0
C572 C 0.34506 0.07945 0.51675 0.0
C573 C 0.37246 0.08395 0.50968 0.0
C574 C 0.3821 0.07606 0.41257 0.0
C575 C 0.37897 0.10998 0.54549 0.0
C576 C 0.38184 0.06897 0.57369 0.0
C577 C 0.36295 0.06189 0.62441 0.0
C578 C 0.36627 0.04462 0.67606 0.0
C579 C 0.38864 0.03323 0.67103 0.0
C580 C 0.40733 0.03877 0.61332 0.0
C581 C 0.40437 0.05777 0.5687 0.0
H582 H 0.50216 0.32142 0.71582 0.0
H583 H 0.5763 0.3051 0.63043 0.0
H584 H 0.58938 0.34621 0.68864 0.0
H585 H 0.49865 0.36982 0.64114 0.0
H586 H 0.48131 0.38724 0.72996 0.0
H587 H 0.47879 0.35579 0.7114 0.0
H588 H 0.4918 0.35556 0.87648 0.0
H589 H 0.49312 0.38719 0.89678 0.0
H590 H 0.51937 0.37125 0.92195 0.0
H591 H 0.59134 0.39027 0.71271 0.0
H592 H 0.58401 0.43286 0.73156 0.0
H593 H 0.5087 0.42068 0.80531 0.0
C594 C 0.52149 0.32617 0.7162 0.0
C595 C 0.53835 0.31004 0.67062 0.0
C596 C 0.5633 0.31701 0.66764 0.0
C597 C 0.57079 0.34047 0.6993 0.0
C598 C 0.55318 0.35655 0.73578 0.0
C599 C 0.52919 0.34952 0.74778 0.0
C600 C 0.51315 0.37053 0.7776 0.0
C601 C 0.49174 0.37084 0.71102 0.0
C602 C 0.50383 0.37115 0.87399 0.0
C603 C 0.53142 0.39042 0.77482 0.0
C604 C 0.55446 0.38206 0.75111 0.0
C605 C 0.57358 0.39704 0.73423 0.0
C606 C 0.56916 0.42117 0.74384 0.0
C607 C 0.54583 0.4301 0.77028 0.0
C608 C 0.52684 0.41444 0.78633 0.0
H609 H 0.25497 0.51124 0.50656 0.0
H610 H 0.22309 0.44187 0.41921 0.0
H611 H 0.19853 0.44658 0.55777 0.0
H612 H 0.2409 0.5162 0.77463 0.0
H613 H 0.23357 0.54649 0.77861 0.0
H614 H 0.25848 0.53362 0.70941 0.0
H615 H 0.23881 0.54654 0.57137 0.0
H616 H 0.21403 0.55904 0.63898 0.0
H617 H 0.20774 0.5371 0.53899 0.0
H618 H 0.16751 0.46277 0.65983 0.0
H619 H 0.13231 0.48826 0.69746 0.0
H620 H 0.17959 0.54974 0.71451 0.0
C621 C 0.24398 0.49661 0.52081 0.0
C622 C 0.24103 0.47612 0.45453 0.0
C623 C 0.22581 0.45748 0.47086 0.0
C624 C 0.21193 0.46007 0.5498 0.0
C625 C 0.21312 0.4816 0.61031 0.0
C626 C 0.22915 0.49958 0.59726 0.0
C627 C 0.22199 0.52293 0.65374 0.0
C628 C 0.23979 0.53023 0.73387 0.0
C629 C 0.2205 0.54248 0.59726 0.0
C630 C 0.19714 0.51613 0.68626 0.0
C631 C 0.19342 0.49192 0.66759 0.0
C632 C 0.17046 0.48161 0.67678 0.0
C633 C 0.1505 0.49619 0.6973 0.0
C634 C 0.15359 0.52077 0.70711 0.0
C635 C 0.17724 0.53092 0.70817 0.0
H636 H 1.01395 0.8107 0.24449 0.0
H637 H 0.08548 0.79197 0.32749 0.0
H638 H 0.10485 0.82068 0.24608 0.0
H639 H 0.0339 0.82864 0.01838 0.0
H640 H 1.01266 0.85234 0.03817 0.0
H641 H 1.00531 0.82514 0.07449 0.0
H642 H 0.99846 0.84846 0.23632 0.0
H643 H 1.0066 0.87558 0.20222 0.0
H644 H 1.02304 0.8668 0.29363 0.0
H645 H 0.11508 0.85847 0.19678 0.0
H646 H 0.11579 0.89889 0.1678 0.0
H647 H 0.03747 0.89308 0.11396 0.0
C648 C 0.03374 0.81155 0.23982 0.0
C649 C 0.04831 0.7989 0.29037 0.0
C650 C 0.07412 0.80106 0.28694 0.0
C651 C 0.08522 0.81752 0.24154 0.0
C652 C 0.07021 0.83132 0.19894 0.0
C653 C 0.04498 0.82801 0.19537 0.0
C654 C 0.03264 0.84744 0.15895 0.0
C655 C 1.02041 0.83781 0.06702 0.0
C656 C 1.01412 0.86031 0.22685 0.0
C657 C 0.05463 0.86306 0.14879 0.0
C658 C 0.07618 0.85332 0.17048 0.0
C659 C 0.09843 0.86588 0.1765 0.0
C660 C 0.09865 0.8889 0.16002 0.0
C661 C 0.0767 0.89925 0.13825 0.0
C662 C 0.05457 0.88582 0.13088 0.0
H663 H 0.71744 0.0808 0.48144 0.0
H664 H 0.75825 0.05172 0.24148 0.0
H665 H 0.73511 0.07526 0.15504 0.0
H666 H 0.66702 0.06409 0.38806 0.0
H667 H 0.64769 0.0876 0.44007 0.0
H668 H 0.67513 0.082 0.49597 0.0
H669 H 0.69012 0.125 0.50279 0.0
H670 H 0.66236 0.13071 0.44623 0.0
H671 H 0.6918 0.13681 0.40074 0.0
H672 H 0.70011 0.08865 0.08159 0.0
H673 H 0.65739 0.08463 0.02883 0.0
H674 H 0.63282 0.09614 0.30638 0.0
C675 C 0.72197 0.07988 0.41113 0.0
C676 C 0.73932 0.06376 0.36861 0.0
C677 C 0.7453 0.06386 0.27732 0.0
C678 C 0.73203 0.0773 0.22691 0.0
C679 C 0.7124 0.09016 0.26756 0.0
C680 C 0.70737 0.09157 0.3584 0.0
C681 C 0.68136 0.09939 0.37988 0.0
C682 C 0.66699 0.08222 0.4286 0.0
C683 C 0.68143 0.12447 0.43568 0.0
C684 C 0.6716 0.09892 0.2854 0.0
C685 C 0.69029 0.09558 0.22274 0.0
C686 C 0.68544 0.09157 0.13021 0.0
C687 C 0.66101 0.08898 0.10077 0.0
C688 C 0.6417 0.08931 0.16353 0.0
C689 C 0.64709 0.09602 0.25673 0.0
H690 H 0.48684 0.67953 0.10128 0.0
H691 H 0.55018 0.70377 0.96887 0.0
H692 H 0.55516 0.66373 0.8819 0.0
H693 H 0.51421 0.63283 0.14929 0.0
H694 H 0.48832 0.61254 0.1358 0.0
H695 H 0.4835 0.64361 0.16423 0.0
H696 H 0.45542 0.64174 0.02441 0.0
H697 H 0.45926 0.61041 0.99695 0.0
H698 H 0.46624 0.62827 0.91434 0.0
H699 H 0.55962 0.62084 0.83881 0.0
H700 H 0.56071 0.5783 0.82608 0.0
H701 H 0.49654 0.57992 0.99709 0.0
C702 C 0.50101 0.67662 0.05053 0.0
C703 C 0.51817 0.69487 0.04209 0.0
C704 C 0.53659 0.69033 0.97575 0.0
C705 C 0.53975 0.66746 0.92689 0.0
C706 C 0.5243 0.6494 0.94502 0.0
C707 C 0.50496 0.65373 0.00405 0.0
C708 C 0.49359 0.63093 0.02282 0.0
C709 C 0.495 0.62994 0.12401 0.0
C710 C 0.46705 0.62764 0.9875 0.0
C711 C 0.51018 0.61309 0.96796 0.0
C712 C 0.52746 0.62423 0.92265 0.0
C713 C 0.54583 0.61193 0.87226 0.0
C714 C 0.54631 0.58762 0.86609 0.0
C715 C 0.52855 0.57548 0.9101 0.0
C716 C 0.51033 0.58855 0.96253 0.0
H717 H 0.83929 0.42498 0.36138 0.0
H718 H 0.79597 0.45623 0.17653 0.0
H719 H 0.81791 0.4335 0.0486 0.0
H720 H 0.89003 0.4385 0.28369 0.0
H721 H 0.90758 0.41334 0.2962 0.0
H722 H 0.88146 0.42084 0.36546 0.0
H723 H 0.86263 0.37914 0.30961 0.0
H724 H 0.88901 0.37155 0.23917 0.0
H725 H 0.85864 0.36804 0.19035 0.0
H726 H 0.85167 0.41922 0.94877 0.0
H727 H 0.89406 0.42011 0.89513 0.0
H728 H 0.91987 0.40376 0.14744 0.0
C729 C 0.83386 0.42633 0.29355 0.0
C730 C 0.81618 0.44261 0.27921 0.0
C731 C 0.80926 0.44371 0.18969 0.0
C732 C 0.82171 0.43076 0.11621 0.0
C733 C 0.84111 0.4169 0.13319 0.0
C734 C 0.84705 0.41448 0.22027 0.0
C735 C 0.87235 0.40454 0.22462 0.0
C736 C 0.88879 0.42027 0.29653 0.0
C737 C 0.87054 0.37932 0.24192 0.0
C738 C 0.88096 0.40474 0.12948 0.0
C739 C 0.86211 0.41019 0.07602 0.0
C740 C 0.86642 0.41457 0.9896 0.0
C741 C 0.89068 0.4153 0.96001 0.0
C742 C 0.91042 0.41268 0.01824 0.0
C743 C 0.90528 0.40556 0.10084 0.0
H744 H 0.06811 0.17918 0.24172 0.0
H745 H 0.02806 0.21204 0.05223 0.0
H746 H 0.02852 0.17501 0.94066 0.0
H747 H 0.10323 0.13604 0.0722 0.0
H748 H 0.09917 0.1136 0.13902 0.0
H749 H 0.1017 0.14405 0.1935 0.0
H750 H 0.06042 0.13975 0.27389 0.0
H751 H 0.05749 0.10951 0.21877 0.0
H752 H 0.03346 0.12953 0.20719 0.0
H753 H 0.02604 0.13294 0.86229 0.0
H754 H 1.02211 0.08988 0.82127 0.0
H755 H 0.06142 0.08375 0.06627 0.0
C756 C 0.06007 0.17882 0.17573 0.0
C757 C 0.04806 0.19859 0.15589 0.0
C758 C 0.03776 0.19734 0.06873 0.0
C759 C 0.03779 0.17627 0.00499 0.0
C760 C 0.04828 0.15667 0.02931 0.0
C761 C 0.05951 0.15784 0.11234 0.0
C762 C 0.0663 0.13371 0.12734 0.0
C763 C 0.09427 0.13174 0.13333 0.0
C764 C 0.05366 0.12779 0.21174 0.0
C765 C 0.05612 0.11862 0.0416 0.0
C766 C 0.04625 0.13221 0.98511 0.0
C767 C 0.03412 0.12216 0.90522 0.0
C768 C 0.03186 0.09761 0.88283 0.0
C769 C 0.04148 0.08332 0.94055 0.0
C770 C 0.05408 0.09409 0.02022 0.0
H771 H 0.36348 0.01853 0.25338 0.0
H772 H 0.31349 0.00925 0.02404 0.0
H773 H 0.34898 1.00217 0.92115 0.0
H774 H 0.40829 0.05204 0.16061 0.0
H775 H 0.43432 0.03992 0.20778 0.0
H776 H 0.40533 0.04128 0.26464 0.0
H777 H 0.40511 0.99683 0.26215 0.0
H778 H 0.43449 0.99503 0.20737 0.0
H779 H 0.40909 0.97671 0.1566 0.0
H780 H 0.39081 0.99772 0.84267 0.0
H781 H 0.43412 0.99657 0.79589 0.0
H782 H 0.45718 0.01251 0.07678 0.0
C783 C 0.35972 0.01517 0.18156 0.0
C784 C 0.33521 0.01478 0.14766 0.0
C785 C 0.33173 0.00948 0.05268 0.0
C786 C 0.35192 1.00563 0.99349 0.0
C787 C 0.37571 0.00717 0.02967 0.0
C788 C 0.37964 0.0118 0.12174 0.0
C789 C 0.40699 0.01364 0.14397 0.0
C790 C 0.41414 0.03819 0.19736 0.0
C791 C 0.41435 0.9944 0.19557 0.0
C792 C 0.41801 0.00954 0.04996 0.0
C793 C 0.39962 1.00554 0.98497 0.0
C794 C 0.40522 1.0009 0.89326 0.0
C795 C 0.43002 1.00024 0.86734 0.0
C796 C 0.44931 1.0045 0.93236 0.0
C797 C 0.44303 0.00939 0.02515 0.0
H798 H 0.54451 0.31469 0.37022 0.0
H799 H 0.472 0.28221 0.34347 0.0
H800 H 0.4591 0.31071 0.24974 0.0
H801 H 0.52567 0.37103 0.40747 0.0
H802 H 0.54995 0.38294 0.34762 0.0
H803 H 0.55504 0.35726 0.39496 0.0
H804 H 0.56755 0.33393 0.23846 0.0
H805 H 0.56313 0.35974 0.19069 0.0
H806 H 0.54725 0.33258 0.143 0.0
H807 H 0.45274 0.34691 0.17951 0.0
H808 H 0.45387 0.38531 0.13202 0.0
H809 H 0.53088 0.39426 0.20677 0.0
C810 C 0.52628 0.31288 0.34072 0.0
C811 C 0.5094 0.29585 0.36179 0.0
C812 C 0.48537 0.29462 0.32566 0.0
C813 C 0.47788 0.31093 0.27322 0.0
C814 C 0.49468 0.3283 0.25756 0.0
C815 C 0.51854 0.32909 0.28924 0.0
C816 C 0.5324 0.35075 0.27174 0.0
C817 C 0.54127 0.36641 0.36073 0.0
C818 C 0.55385 0.34383 0.2071 0.0
C819 C 0.51251 0.36245 0.22723 0.0
C820 C 0.49094 0.34917 0.21887 0.0
C821 C 0.4697 0.35714 0.1842 0.0
C822 C 0.47056 0.37905 0.15705 0.0
C823 C 0.49251 0.39299 0.1648 0.0
C824 C 0.51373 0.3843 0.20017 0.0
H825 H 0.19315 0.46307 0.1771 0.0
H826 H 0.23358 0.52422 0.12372 0.0
H827 H 0.19741 0.53504 0.04251 0.0
H828 H 0.15795 0.45015 0.96443 0.0
H829 H 0.13069 0.44151 0.01827 0.0
H830 H 0.16047 0.43748 0.06418 0.0
H831 H 0.14755 0.46154 0.21876 0.0
H832 H 0.11783 0.46582 0.17319 0.0
H833 H 0.13652 0.49084 0.22501 0.0
H834 H 0.15499 0.54122 0.97895 0.0
H835 H 0.11175 0.54109 0.93179 0.0
H836 H 0.09832 0.47582 0.02566 0.0
C837 C 0.1946 0.47868 0.1478 0.0
C838 C 0.21658 0.49277 0.15754 0.0
C839 C 0.21738 0.51286 0.11674 0.0
C840 C 0.19673 0.51927 0.07098 0.0
C841 C 0.17521 0.50542 0.06569 0.0
C842 C 0.17413 0.48537 0.10228 0.0
C843 C 0.14858 0.47391 0.09024 0.0
C844 C 0.14948 0.4493 0.03073 0.0
C845 C 0.13694 0.47298 0.18227 0.0
C846 C 0.13522 0.4908 0.04231 0.0
C847 C 0.15097 0.50884 0.02866 0.0
C848 C 0.14271 0.52699 0.98857 0.0
C849 C 0.11795 0.52672 0.96161 0.0
C850 C 0.10133 0.50833 0.97341 0.0
C851 C 0.11034 0.49011 0.01469 0.0
H852 H 0.9912 0.8406 0.4976 0.0
H853 H 0.02918 0.80925 0.69633 0.0
H854 H 0.02654 0.8464 0.80629 0.0
H855 H 0.02486 0.89045 0.53521 0.0
H856 H 1.001 0.91014 0.51815 0.0
H857 H 0.99876 0.87976 0.4644 0.0
H858 H 0.95652 0.87537 0.53808 0.0
H859 H 0.95833 0.90598 0.59099 0.0
H860 H 0.95343 0.88386 0.65877 0.0
H861 H 0.02779 0.8885 0.88231 0.0
H862 H 0.03154 0.93156 0.92074 0.0
H863 H 0.99548 0.93645 0.66803 0.0
C864 C 0.99826 0.8413 0.56523 0.0
C865 C 1.01042 0.82197 0.5882 0.0
C866 C 1.01942 0.82361 0.67739 0.0
C867 C 1.01814 0.84476 0.74024 0.0
C868 C 1.00772 0.86402 0.71291 0.0
C869 C 0.99765 0.86239 0.62773 0.0
C870 C 0.99104 0.88631 0.60982 0.0
C871 C 1.00474 0.89198 0.52706 0.0
C872 C 0.96317 0.88798 0.5988 0.0
C873 C 1.00011 0.90182 0.69645 0.0
C874 C 1.00914 0.88858 0.75583 0.0
C875 C 1.02032 0.89901 0.83713 0.0
C876 C 1.02249 0.92356 0.858 0.0
C877 C 1.01379 0.9375 0.79735 0.0
C878 C 1.0021 0.92637 0.71626 0.0
H879 H 0.70478 0.03619 0.63571 0.0
H880 H 0.70951 0.9689 0.45416 0.0
H881 H 0.6698 0.95644 0.51125 0.0
H882 H 0.67438 0.01411 0.82532 0.0
H883 H 0.65562 0.0396 0.8528 0.0
H884 H 0.68556 0.0421 0.80487 0.0
H885 H 0.66622 0.05967 0.6764 0.0
H886 H 0.63622 0.05698 0.72325 0.0
H887 H 0.6421 0.04348 0.60774 0.0
H888 H 0.62652 0.95359 0.5725 0.0
H889 H 0.58587 0.95871 0.64478 0.0
H890 H 0.60965 0.02702 0.79364 0.0
C891 C 0.6978 0.01857 0.60965 0.0
C892 C 0.71058 1.00344 0.5406 0.0
C893 C 0.70051 0.98066 0.50794 0.0
C894 C 0.67776 0.97352 0.53952 0.0
C895 C 0.66528 0.98919 0.605 0.0
C896 C 0.67521 0.0111 0.64106 0.0
C897 C 0.65765 0.02502 0.7081 0.0
C898 C 0.66898 0.03053 0.80343 0.0
C899 C 0.65011 0.04762 0.67699 0.0
C900 C 0.63608 0.00769 0.70324 0.0
C901 C 0.6408 0.98719 0.64276 0.0
C902 C 0.62292 0.96936 0.62132 0.0
C903 C 0.5998 0.97245 0.66257 0.0
C904 C 0.59461 0.99306 0.72611 0.0
C905 C 0.6132 0.01081 0.74711 0.0
H906 H 0.57069 0.70184 0.32476 0.0
H907 H 0.49728 0.72143 0.4101 0.0
H908 H 0.4958 0.69011 0.50044 0.0
H909 H 0.55997 0.64417 0.28336 0.0
H910 H 0.5887 0.63481 0.322 0.0
H911 H 0.5873 0.66232 0.28423 0.0
H912 H 0.60496 0.68473 0.43668 0.0
H913 H 0.60739 0.65717 0.47425 0.0
H914 H 0.59073 0.68079 0.54063 0.0
H915 H 0.49819 0.65114 0.54602 0.0
H916 H 0.50652 0.6115 0.56843 0.0
H917 H 0.5802 0.61767 0.46414 0.0
C918 C 0.55508 0.70057 0.36791 0.0
C919 C 0.53444 0.71462 0.3635 0.0
C920 C 0.51359 0.7115 0.41571 0.0
C921 C 0.5125 0.6935 0.46607 0.0
C922 C 0.53252 0.67887 0.46398 0.0
C923 C 0.55375 0.68262 0.41841 0.0
C924 C 0.57147 0.66279 0.41819 0.0
C925 C 0.57718 0.6503 0.3212 0.0
C926 C 0.59503 0.67191 0.47059 0.0
C927 C 0.55653 0.64688 0.46761 0.0
C928 C 0.53413 0.65649 0.49318 0.0
C929 C 0.51609 0.64391 0.53001 0.0
C930 C 0.52119 0.62122 0.54309 0.0
C931 C 0.54446 0.61114 0.52132 0.0
C932 C 0.56226 0.62444 0.48265 0.0
H933 H 0.85092 0.46555 0.58634 0.0
H934 H 0.84025 0.53554 0.53448 0.0
H935 H 0.87907 0.54902 0.61611 0.0
H936 H 0.87938 0.484 0.81506 0.0
H937 H 0.90015 0.4599 0.79678 0.0
H938 H 0.87045 0.45663 0.74267 0.0
H939 H 0.8913 0.44456 0.58728 0.0
H940 H 0.92103 0.44813 0.64092 0.0
H941 H 0.91408 0.46395 0.55246 0.0
H942 H 0.92211 0.55324 0.68422 0.0
H943 H 0.9631 0.54937 0.7495 0.0
H944 H 0.94504 0.47728 0.7674 0.0
C945 C 0.85642 0.48389 0.5944 0.0
C946 C 0.84232 0.49957 0.5545 0.0
C947 C 0.85039 0.52332 0.56558 0.0
C948 C 0.87257 0.53105 0.61127 0.0
C949 C 0.88639 0.51494 0.64706 0.0
C950 C 0.87833 0.49194 0.64087 0.0
C951 C 0.89699 0.47792 0.68245 0.0
C952 C 0.88609 0.4691 0.7641 0.0
C953 C 0.9064 0.45743 0.61155 0.0
C954 C 0.91708 0.49647 0.71159 0.0
C955 C 0.91066 0.51765 0.68977 0.0
C956 C 0.92702 0.53688 0.70322 0.0
C957 C 0.95035 0.53448 0.74004 0.0
C958 C 0.95721 0.51316 0.76481 0.0
C959 C 0.94016 0.49397 0.75101 0.0
loop_
_geom_bond_atom_site_label_1
_geom_bond_atom_site_label_2
_geom_bond_distance
_geom_bond_site_symmetry_2
_ccdc_geom_bond_type
H0 C1 0.949 . S
C1 H0 0.949 . S
C1 C2 1.395 . S
C1 C3 1.391 . S
C2 C1 1.395 . S
C2 C5 1.390 . S
C3 C1 1.391 . S
C3 C7 1.387 . S
C3 C8 1.491 . S
H4 C5 0.950 . S
C5 C2 1.390 . S
C5 H4 0.950 . S
C5 C6 1.378 . S
C6 C5 1.378 . S
C6 C7 1.409 . S
C7 C3 1.387 . S
C7 C6 1.409 . S
C7 H9 0.951 . S
C8 C3 1.491 . S
C8 C10 1.382 . S
C8 C12 1.404 . S
H9 C7 0.951 . S
C10 C8 1.382 . S
C10 C11 1.390 . S
C10 H15 0.949 . S
C11 C10 1.390 . S
C11 C16 1.399 . S
C12 C8 1.404 . S
C12 H13 0.950 . S
C12 C14 1.375 . S
H13 C12 0.950 . S
C14 C12 1.375 . S
C14 C16 1.382 . S
C14 H18 0.950 . S
H15 C10 0.949 . S
C16 C11 1.399 . S
C16 C14 1.382 . S
C16 H17 0.952 . S
H17 C16 0.952 . S
H18 C14 0.950 . S
H19 C20 0.949 . S
C20 H19 0.949 . S
C20 C21 1.395 . S
C20 C22 1.391 . S
C21 C20 1.395 . S
C21 C24 1.392 . S
C22 C20 1.391 . S
C22 C26 1.387 . S
C22 C27 1.491 . S
H23 C24 0.947 1_455 S
C24 C21 1.392 . S
C24 H23 0.947 1_655 S
C24 C25 1.380 . S
C25 C24 1.380 . S
C25 C26 1.409 . S
C26 C22 1.387 . S
C26 C25 1.409 . S
C26 H28 0.951 . S
C27 C22 1.491 . S
C27 C29 1.382 . S
C27 C31 1.404 . S
H28 C26 0.951 . S
C29 C27 1.382 . S
C29 C30 1.390 . S
C29 H34 0.949 1_655 S
C30 C29 1.390 . S
C30 C35 1.399 . S
C31 C27 1.404 . S
C31 H32 0.950 . S
C31 C33 1.375 . S
H32 C31 0.950 . S
C33 C31 1.375 . S
C33 C35 1.382 . S
C33 H37 0.950 . S
H34 C29 0.949 1_455 S
C35 C30 1.399 . S
C35 C33 1.382 . S
C35 H36 0.952 . S
H36 C35 0.952 . S
H37 C33 0.950 . S
H38 C39 0.949 . S
C39 H38 0.949 . S
C39 C40 1.396 . S
C39 C41 1.391 . S
C40 C39 1.396 . S
C40 C43 1.391 1_565 S
C41 C39 1.391 . S
C41 C45 1.387 . S
C41 C46 1.491 . S
H42 C43 0.950 . S
C43 C40 1.391 1_545 S
C43 H42 0.950 . S
C43 C44 1.373 1_545 S
C44 C43 1.373 1_565 S
C44 C45 1.413 . S
C45 C41 1.387 . S
C45 C44 1.413 . S
C45 H47 0.951 . S
C46 C41 1.491 . S
C46 C48 1.382 . S
C46 C50 1.404 . S
H47 C45 0.951 . S
C48 C46 1.382 . S
C48 C49 1.390 . S
C48 H53 0.949 1_565 S
C49 C48 1.390 . S
C49 C54 1.399 . S
C50 C46 1.404 . S
C50 H51 0.950 . S
C50 C52 1.375 . S
H51 C50 0.950 . S
C52 C50 1.375 . S
C52 C54 1.382 . S
C52 H56 0.950 . S
H53 C48 0.949 1_545 S
C54 C49 1.399 . S
C54 C52 1.382 . S
C54 H55 0.952 . S
H55 C54 0.952 . S
H56 C52 0.950 . S
H57 C58 0.949 . S
C58 H57 0.949 . S
C58 C59 1.395 . S
C58 C60 1.391 1_556 S
C59 C58 1.395 . S
C59 C62 1.390 1_556 S
C60 C58 1.391 1_554 S
C60 C64 1.387 . S
C60 C65 1.491 . S
H61 C62 0.950 . S
C62 C59 1.390 1_554 S
C62 H61 0.950 . S
C62 C63 1.378 . S
C63 C62 1.378 . S
C63 C64 1.409 . S
C64 C60 1.387 . S
C64 C63 1.409 . S
C64 H66 0.951 . S
C65 C60 1.491 . S
C65 C67 1.382 1_554 S
C65 C69 1.404 . S
H66 C64 0.951 . S
C67 C65 1.382 1_556 S
C67 C68 1.390 . S
C67 H72 0.949 . S
C68 C67 1.390 . S
C68 C73 1.399 1_556 S
C69 C65 1.404 . S
C69 H70 0.950 . S
C69 C71 1.375 . S
H70 C69 0.950 . S
C71 C69 1.375 . S
C71 C73 1.382 . S
C71 H75 0.950 . S
H72 C67 0.949 . S
C73 C68 1.399 1_554 S
C73 C71 1.382 . S
C73 H74 0.952 . S
H74 C73 0.952 . S
H75 C71 0.950 . S
H76 C77 0.949 . S
C77 H76 0.949 . S
C77 C78 1.395 . S
C77 C79 1.391 . S
C78 C77 1.395 . S
C78 C81 1.390 . S
C79 C77 1.391 . S
C79 C83 1.387 . S
C79 C84 1.491 . S
H80 C81 0.950 . S
C81 C78 1.390 . S
C81 H80 0.950 . S
C81 C82 1.378 . S
C82 C81 1.378 . S
C82 C83 1.409 . S
C83 C79 1.387 . S
C83 C82 1.409 . S
C83 H85 0.951 . S
C84 C79 1.491 . S
C84 C86 1.382 . S
C84 C88 1.404 . S
H85 C83 0.951 . S
C86 C84 1.382 . S
C86 C87 1.390 . S
C86 H91 0.949 . S
C87 C86 1.390 . S
C87 C92 1.399 . S
C88 C84 1.404 . S
C88 H89 0.950 . S
C88 C90 1.375 . S
H89 C88 0.950 . S
C90 C88 1.375 . S
C90 C92 1.382 . S
C90 H94 0.950 . S
H91 C86 0.949 . S
C92 C87 1.399 . S
C92 C90 1.382 . S
C92 H93 0.952 . S
H93 C92 0.952 . S
H94 C90 0.950 . S
H95 C96 0.949 . S
C96 H95 0.949 . S
C96 C97 1.395 . S
C96 C98 1.391 . S
C97 C96 1.395 . S
C97 C100 1.390 . S
C98 C96 1.391 . S
C98 C102 1.387 . S
C98 C103 1.484 1_455 S
H99 C100 0.950 . S
C100 C97 1.390 . S
C100 H99 0.950 . S
C100 C101 1.378 . S
C101 C100 1.378 . S
C101 C102 1.409 . S
C102 C98 1.387 . S
C102 C101 1.409 . S
C102 H104 0.951 . S
C103 C98 1.484 1_655 S
C103 C105 1.369 1_655 S
C103 C107 1.424 . S
H104 C102 0.951 . S
C105 C103 1.369 1_455 S
C105 C106 1.390 . S
C105 H110 0.949 . S
C106 C105 1.390 . S
C106 C111 1.399 1_455 S
C107 C103 1.424 . S
C107 H108 0.950 . S
C107 C109 1.375 . S
H108 C107 0.950 . S
C109 C107 1.375 . S
C109 C111 1.382 . S
C109 H113 0.950 . S
H110 C105 0.949 . S
C111 C106 1.399 1_655 S
C111 C109 1.382 . S
C111 H112 0.952 . S
H112 C111 0.952 . S
H113 C109 0.950 . S
H114 C115 0.949 . S
C115 H114 0.949 . S
C115 C116 1.394 . S
C115 C117 1.391 . S
C116 C115 1.394 . S
C116 C119 1.392 1_565 S
C117 C115 1.391 . S
C117 C121 1.387 . S
C117 C122 1.491 . S
H118 C119 0.950 . S
C119 C116 1.392 1_545 S
C119 H118 0.950 . S
C119 C120 1.379 1_545 S
C120 C119 1.379 1_565 S
C120 C121 1.410 . S
C121 C117 1.387 . S
C121 C120 1.410 . S
C121 H123 0.951 . S
C122 C117 1.491 . S
C122 C124 1.396 . S
C122 C126 1.404 . S
H123 C121 0.951 . S
C124 C122 1.396 . S
C124 C125 1.399 . S
C124 H129 0.927 1_565 S
C125 C124 1.399 . S
C125 C130 1.399 . S
C126 C122 1.404 . S
C126 H127 0.950 . S
C126 C128 1.375 . S
H127 C126 0.950 . S
C128 C126 1.375 . S
C128 C130 1.382 . S
C128 H132 0.950 . S
H129 C124 0.927 1_545 S
C130 C125 1.399 . S
C130 C128 1.382 . S
C130 H131 0.952 . S
H131 C130 0.952 . S
H132 C128 0.950 . S
H133 C134 0.949 . S
C134 H133 0.949 . S
C134 C135 1.395 . S
C134 C136 1.391 . S
C135 C134 1.395 . S
C135 C138 1.390 . S
C136 C134 1.391 . S
C136 C140 1.387 . S
C136 C141 1.491 . S
H137 C138 0.950 . S
C138 C135 1.390 . S
C138 H137 0.950 . S
C138 C139 1.378 . S
C139 C138 1.378 . S
C139 C140 1.409 . S
C140 C136 1.387 . S
C140 C139 1.409 . S
C140 H142 0.951 . S
C141 C136 1.491 . S
C141 C143 1.382 . S
C141 C145 1.404 . S
H142 C140 0.951 . S
C143 C141 1.382 . S
C143 C144 1.390 . S
C143 H148 0.949 . S
C144 C143 1.390 . S
C144 C149 1.399 . S
C145 C141 1.404 . S
C145 H146 0.950 . S
C145 C147 1.375 . S
H146 C145 0.950 . S
C147 C145 1.375 . S
C147 C149 1.382 . S
C147 H151 0.950 . S
H148 C143 0.949 . S
C149 C144 1.399 . S
C149 C147 1.382 . S
C149 H150 0.952 . S
H150 C149 0.952 . S
H151 C147 0.950 . S
Tb152 C161 2.764 . S
Tb152 O162 2.325 . S
Tb152 O165 2.303 1_655 S
Tb152 O169 2.322 1_545 S
Tb152 O170 2.349 . S
Tb152 O173 2.415 1_655 S
Tb152 O174 2.399 . S
Tb153 O163 2.322 1_565 S
Tb153 O164 2.349 . S
Tb153 O166 2.415 1_556 S
Tb153 O167 2.399 . S
Tb153 O168 2.325 . S
Tb153 O171 2.303 1_455 S
Tb153 C182 2.764 1_556 S
C154 O170 1.272 . S
C154 O171 1.253 1_545 S
C155 C158 1.358 . S
C155 C159 1.315 1_655 S
C155 C161 1.504 . S
C156 C157 1.373 . S
C156 C160 1.308 . S
C157 C156 1.373 . S
C157 C158 1.429 . S
C157 H184 0.932 . S
C158 C155 1.358 . S
C158 C157 1.429 . S
C158 H185 0.930 . S
C159 C155 1.315 1_455 S
C159 C160 1.392 1_455 S
C159 H186 0.951 . S
C160 C156 1.308 . S
C160 C159 1.392 1_655 S
C160 H187 0.929 1_655 S
C161 Tb152 2.764 . S
C161 C155 1.504 . S
C161 O173 1.239 1_655 S
C161 O174 1.263 . S
O162 Tb152 2.325 . S
O162 C172 1.236 1_655 S
O163 Tb153 2.322 1_545 S
O163 C172 1.257 . S
O164 Tb153 2.349 . S
O164 C175 1.266 . S
O165 Tb152 2.303 1_455 S
O165 C175 1.255 1_545 S
O166 Tb153 2.415 1_554 S
O166 C182 1.239 . S
O167 Tb153 2.399 . S
O167 C182 1.263 1_556 S
O168 Tb153 2.325 . S
O168 C183 1.236 1_455 S
O169 Tb152 2.322 1_565 S
O169 C183 1.257 . S
O170 Tb152 2.349 . S
O170 C154 1.272 . S
O171 Tb153 2.303 1_655 S
O171 C154 1.253 1_565 S
C172 O162 1.236 1_455 S
C172 O163 1.257 . S
O173 Tb152 2.415 1_455 S
O173 C161 1.239 1_455 S
O174 Tb152 2.399 . S
O174 C161 1.263 . S
C175 O164 1.266 . S
C175 O165 1.255 1_565 S
C176 C179 1.358 . S
C176 C180 1.332 . S
C176 C182 1.504 . S
C177 C178 1.373 . S
C177 C181 1.308 . S
C178 C177 1.373 . S
C178 C179 1.429 . S
C178 H188 0.932 . S
C179 C176 1.358 . S
C179 C178 1.429 . S
C179 H189 0.930 . S
C180 C176 1.332 . S
C180 C181 1.394 . S
C180 H190 0.932 1_455 S
C181 C177 1.308 . S
C181 C180 1.394 . S
C181 H191 0.929 1_455 S
C182 Tb153 2.764 1_554 S
C182 O166 1.239 . S
C182 O167 1.263 1_554 S
C182 C176 1.504 . S
C183 O168 1.236 1_655 S
C183 O169 1.257 . S
H184 C157 0.932 . S
H185 C158 0.930 . S
H186 C159 0.951 . S
H187 C160 0.929 1_455 S
H188 C178 0.932 . S
H189 C179 0.930 . S
H190 C180 0.932 1_655 S
H191 C181 0.929 1_655 S
Tb192 C201 2.764 . S
Tb192 O202 2.325 . S
Tb192 O205 2.303 1_565 S
Tb192 O209 2.322 . S
Tb192 O210 2.349 . S
Tb192 O213 2.415 1_565 S
Tb192 O214 2.399 . S
Tb193 O203 2.322 . S
Tb193 O204 2.349 . S
Tb193 O206 2.415 1_546 S
Tb193 O207 2.399 1_556 S
Tb193 O208 2.325 . S
Tb193 O211 2.303 1_545 S
Tb193 C222 2.764 1_556 S
C194 O210 1.261 . S
C194 O211 1.257 . S
C195 C198 1.358 . S
C195 C199 1.332 1_565 S
C195 C201 1.504 . S
C196 C197 1.373 . S
C196 C200 1.308 1_565 S
C197 C196 1.373 . S
C197 C198 1.429 . S
C197 H224 0.932 . S
C198 C195 1.358 . S
C198 C197 1.429 . S
C198 H225 0.930 . S
C199 C195 1.332 1_545 S
C199 C200 1.394 . S
C199 H226 0.932 . S
C200 C196 1.308 1_545 S
C200 C199 1.394 . S
C200 H227 0.929 . S
C201 Tb192 2.764 . S
C201 C195 1.504 . S
C201 O213 1.239 1_565 S
C201 O214 1.263 . S
O202 Tb192 2.325 . S
O202 C212 1.236 1_565 S
O203 Tb193 2.322 . S
O203 C212 1.257 . S
O204 Tb193 2.349 . S
O204 C215 1.261 . S
O205 Tb192 2.303 1_545 S
O205 C215 1.257 . S
O206 Tb193 2.415 1_564 S
O206 C222 1.239 1_565 S
O207 Tb193 2.399 1_554 S
O207 C222 1.263 . S
O208 Tb193 2.325 . S
O208 C223 1.236 1_545 S
O209 Tb192 2.322 . S
O209 C223 1.257 . S
O210 Tb192 2.349 . S
O210 C194 1.261 . S
O211 Tb193 2.303 1_565 S
O211 C194 1.257 . S
C212 O202 1.236 1_545 S
C212 O203 1.257 . S
O213 Tb192 2.415 1_545 S
O213 C201 1.239 1_545 S
O214 Tb192 2.399 . S
O214 C201 1.263 . S
C215 O204 1.261 . S
C215 O205 1.257 . S
C216 C219 1.358 . S
C216 C220 1.332 1_545 S
C216 C222 1.504 . S
C217 C218 1.373 . S
C217 C221 1.308 1_545 S
C218 C217 1.373 . S
C218 C219 1.429 . S
C218 H228 0.932 . S
C219 C216 1.358 . S
C219 C218 1.429 . S
C219 H229 0.930 . S
C220 C216 1.332 1_565 S
C220 C221 1.394 . S
C220 H230 0.932 . S
C221 C217 1.308 1_565 S
C221 C220 1.394 . S
C221 H231 0.929 . S
C222 Tb193 2.764 1_554 S
C222 O206 1.239 1_545 S
C222 O207 1.263 . S
C222 C216 1.504 . S
C223 O208 1.236 1_565 S
C223 O209 1.257 . S
H224 C197 0.932 . S
H225 C198 0.930 . S
H226 C199 0.932 . S
H227 C200 0.929 . S
H228 C218 0.932 . S
H229 C219 0.930 . S
H230 C220 0.932 . S
H231 C221 0.929 . S
Tb232 C241 2.764 1_556 S
Tb232 O242 2.325 . S
Tb232 O245 2.303 . S
Tb232 O249 2.322 . S
Tb232 O250 2.349 . S
Tb232 O253 2.415 1_556 S
Tb232 O254 2.399 1_556 S
Tb233 O243 2.322 . S
Tb233 O244 2.349 . S
Tb233 O246 2.415 . S
Tb233 O247 2.399 . S
Tb233 O248 2.325 . S
Tb233 O251 2.303 . S
Tb233 C262 2.764 . S
C234 O250 1.261 . S
C234 O251 1.257 . S
C235 C238 1.358 . S
C235 C239 1.332 . S
C235 C241 1.504 . S
C236 C237 1.373 . S
C236 C240 1.308 . S
C237 C236 1.373 . S
C237 C238 1.429 . S
C237 H264 0.932 . S
C238 C235 1.358 . S
C238 C237 1.429 . S
C238 H265 0.930 . S
C239 C235 1.332 . S
C239 C240 1.394 . S
C239 H266 0.932 . S
C240 C236 1.308 . S
C240 C239 1.394 . S
C240 H267 0.929 . S
C241 Tb232 2.764 1_554 S
C241 C235 1.504 . S
C241 O253 1.239 . S
C241 O254 1.263 . S
O242 Tb232 2.325 . S
O242 C252 1.236 . S
O243 Tb233 2.322 . S
O243 C252 1.257 . S
O244 Tb233 2.349 . S
O244 C255 1.261 . S
O245 Tb232 2.303 . S
O245 C255 1.257 . S
O246 Tb233 2.415 . S
O246 C262 1.239 . S
O247 Tb233 2.399 . S
O247 C262 1.263 . S
O248 Tb233 2.325 . S
O248 C263 1.236 . S
O249 Tb232 2.322 . S
O249 C263 1.257 . S
O250 Tb232 2.349 . S
O250 C234 1.261 . S
O251 Tb233 2.303 . S
O251 C234 1.257 . S
C252 O242 1.236 . S
C252 O243 1.257 . S
O253 Tb232 2.415 1_554 S
O253 C241 1.239 . S
O254 Tb232 2.399 1_554 S
O254 C241 1.263 . S
C255 O244 1.261 . S
C255 O245 1.257 . S
C256 C259 1.358 . S
C256 C260 1.332 . S
C256 C262 1.504 . S
C257 C258 1.373 . S
C257 C261 1.308 . S
C258 C257 1.373 . S
C258 C259 1.429 . S
C258 H268 0.932 . S
C259 C256 1.358 . S
C259 C258 1.429 . S
C259 H269 0.930 . S
C260 C256 1.332 . S
C260 C261 1.394 . S
C260 H270 0.932 . S
C261 C257 1.308 . S
C261 C260 1.394 . S
C261 H271 0.929 . S
C262 Tb233 2.764 . S
C262 O246 1.239 . S
C262 O247 1.263 . S
C262 C256 1.504 . S
C263 O248 1.236 . S
C263 O249 1.257 . S
H264 C237 0.932 . S
H265 C238 0.930 . S
H266 C239 0.932 . S
H267 C240 0.929 . S
H268 C258 0.932 . S
H269 C259 0.930 . S
H270 C260 0.932 . S
H271 C261 0.929 . S
Tb272 C281 2.764 . S
Tb272 O282 2.325 . S
Tb272 O285 2.303 . S
Tb272 O289 2.322 1_455 S
Tb272 O290 2.349 . S
Tb272 O293 2.415 . S
Tb272 O294 2.399 . S
Tb273 O283 2.322 1_655 S
Tb273 O284 2.349 . S
Tb273 O286 2.415 1_556 S
Tb273 O287 2.399 . S
Tb273 O288 2.325 . S
Tb273 O291 2.292 1_655 S
Tb273 C302 2.764 1_556 S
C274 O290 1.261 . S
C274 O291 1.266 . S
C275 C278 1.358 . S
C275 C279 1.332 . S
C275 C281 1.504 . S
C276 C277 1.373 . S
C276 C280 1.308 . S
C277 C276 1.373 . S
C277 C278 1.429 . S
C277 H304 0.932 . S
C278 C275 1.358 . S
C278 C277 1.429 . S
C278 H305 0.930 . S
C279 C275 1.332 . S
C279 C280 1.394 . S
C279 H306 0.932 . S
C280 C276 1.308 . S
C280 C279 1.394 . S
C280 H307 0.929 . S
C281 Tb272 2.764 . S
C281 C275 1.504 . S
C281 O293 1.239 . S
C281 O294 1.263 . S
O282 Tb272 2.325 . S
O282 C292 1.236 . S
O283 Tb273 2.322 1_455 S
O283 C292 1.257 . S
O284 Tb273 2.349 . S
O284 C295 1.261 1_655 S
O285 Tb272 2.303 . S
O285 C295 1.257 . S
O286 Tb273 2.415 1_554 S
O286 C302 1.239 . S
O287 Tb273 2.399 . S
O287 C302 1.263 1_556 S
O288 Tb273 2.325 . S
O288 C303 1.236 . S
O289 Tb272 2.322 1_655 S
O289 C303 1.257 . S
O290 Tb272 2.349 . S
O290 C274 1.261 . S
O291 Tb273 2.292 1_455 S
O291 C274 1.266 . S
C292 O282 1.236 . S
C292 O283 1.257 . S
O293 Tb272 2.415 . S
O293 C281 1.239 . S
O294 Tb272 2.399 . S
O294 C281 1.263 . S
C295 O284 1.261 1_455 S
C295 O285 1.257 . S
C296 C299 1.358 . S
C296 C300 1.332 . S
C296 C302 1.504 . S
C297 C298 1.373 . S
C297 C301 1.308 . S
C298 C297 1.373 . S
C298 C299 1.429 . S
C298 H308 0.932 . S
C299 C296 1.358 . S
C299 C298 1.429 . S
C299 H309 0.930 . S
C300 C296 1.332 . S
C300 C301 1.394 . S
C300 H310 0.932 . S
C301 C297 1.308 . S
C301 C300 1.394 . S
C301 H311 0.929 . S
C302 Tb273 2.764 1_554 S
C302 O286 1.239 . S
C302 O287 1.263 1_554 S
C302 C296 1.504 . S
C303 O288 1.236 . S
C303 O289 1.257 . S
H304 C277 0.932 . S
H305 C278 0.930 . S
H306 C279 0.932 . S
H307 C280 0.929 . S
H308 C298 0.932 . S
H309 C299 0.930 . S
H310 C300 0.932 . S
H311 C301 0.929 . S
H312 C324 0.930 . S
H313 C326 0.930 . S
H314 C327 0.930 . S
H315 C331 0.959 . S
H316 C331 0.959 . S
H317 C331 0.961 . S
H318 C332 0.960 . S
H319 C332 0.961 . S
H320 C332 0.959 . S
H321 C335 0.929 . S
H322 C336 0.931 . S
H323 C338 0.930 . S
C324 H312 0.930 . S
C324 C325 1.399 1_565 S
C324 C329 1.399 . S
C325 C324 1.399 1_545 S
C325 C326 1.376 . S
C326 H313 0.930 . S
C326 C325 1.376 . S
C326 C327 1.388 . S
C327 H314 0.930 . S
C327 C326 1.388 . S
C327 C328 1.390 . S
C328 C327 1.390 . S
C328 C329 1.394 1_545 S
C328 C334 1.465 . S
C329 C324 1.399 . S
C329 C328 1.394 1_565 S
C329 C330 1.516 . S
C330 C329 1.516 . S
C330 C331 1.502 . S
C330 C332 1.561 . S
C330 C333 1.526 . S
C331 H315 0.959 . S
C331 H316 0.959 . S
C331 H317 0.961 . S
C331 C330 1.502 . S
C332 H318 0.960 . S
C332 H319 0.961 . S
C332 H320 0.959 . S
C332 C330 1.561 . S
C333 C330 1.526 . S
C333 C334 1.396 1_565 S
C333 C338 1.390 . S
C334 C328 1.465 . S
C334 C333 1.396 1_545 S
C334 C335 1.399 . S
C335 H321 0.929 . S
C335 C334 1.399 . S
C335 C336 1.385 . S
C336 H322 0.931 . S
C336 C335 1.385 . S
C336 C337 1.389 . S
C337 C336 1.389 . S
C337 C338 1.387 1_545 S
C338 H323 0.930 . S
C338 C333 1.390 . S
C338 C337 1.387 1_565 S
H339 C351 0.930 . S
H340 C353 0.930 . S
H341 C354 0.930 . S
H342 C358 0.959 . S
H343 C358 0.959 . S
H344 C358 0.961 . S
H345 C359 0.960 1_554 S
H346 C359 0.961 1_554 S
H347 C359 0.959 . S
H348 C362 0.929 . S
H349 C363 0.931 . S
H350 C365 0.930 . S
C351 H339 0.930 . S
C351 C352 1.399 . S
C351 C356 1.399 . S
C352 C351 1.399 . S
C352 C353 1.376 . S
C353 H340 0.930 . S
C353 C352 1.376 . S
C353 C354 1.388 . S
C354 H341 0.930 . S
C354 C353 1.388 . S
C354 C355 1.390 . S
C355 C354 1.390 . S
C355 C356 1.394 . S
C355 C361 1.465 . S
C356 C351 1.399 . S
C356 C355 1.394 . S
C356 C357 1.516 . S
C357 C356 1.516 . S
C357 C358 1.502 . S
C357 C359 1.561 . S
C357 C360 1.526 . S
C358 H342 0.959 . S
C358 H343 0.959 . S
C358 H344 0.961 . S
C358 C357 1.502 . S
C359 H345 0.960 1_556 S
C359 H346 0.961 1_556 S
C359 H347 0.959 . S
C359 C357 1.561 . S
C360 C357 1.526 . S
C360 C361 1.396 . S
C360 C365 1.390 . S
C361 C355 1.465 . S
C361 C360 1.396 . S
C361 C362 1.399 . S
C362 H348 0.929 . S
C362 C361 1.399 . S
C362 C363 1.385 . S
C363 H349 0.931 . S
C363 C362 1.385 . S
C363 C364 1.389 . S
C364 C363 1.389 . S
C364 C365 1.387 . S
C365 H350 0.930 . S
C365 C360 1.390 . S
C365 C364 1.387 . S
H366 C378 0.930 . S
H367 C380 0.930 . S
H368 C381 0.930 . S
H369 C385 0.959 . S
H370 C385 0.959 . S
H371 C385 0.961 . S
H372 C386 0.960 . S
H373 C386 0.961 . S
H374 C386 0.959 . S
H375 C389 0.929 . S
H376 C390 0.931 . S
H377 C392 0.930 . S
C378 H366 0.930 . S
C378 C379 1.399 . S
C378 C383 1.399 . S
C379 C378 1.399 . S
C379 C380 1.376 . S
C380 H367 0.930 . S
C380 C379 1.376 . S
C380 C381 1.388 . S
C381 H368 0.930 . S
C381 C380 1.388 . S
C381 C382 1.390 . S
C382 C381 1.390 . S
C382 C383 1.394 . S
C382 C388 1.465 . S
C383 C378 1.399 . S
C383 C382 1.394 . S
C383 C384 1.516 . S
C384 C383 1.516 . S
C384 C385 1.502 . S
C384 C386 1.561 . S
C384 C387 1.526 . S
C385 H369 0.959 . S
C385 H370 0.959 . S
C385 H371 0.961 . S
C385 C384 1.502 . S
C386 H372 0.960 . S
C386 H373 0.961 . S
C386 H374 0.959 . S
C386 C384 1.561 . S
C387 C384 1.526 . S
C387 C388 1.396 . S
C387 C392 1.390 . S
C388 C382 1.465 . S
C388 C387 1.396 . S
C388 C389 1.399 . S
C389 H375 0.929 . S
C389 C388 1.399 . S
C389 C390 1.385 . S
C390 H376 0.931 . S
C390 C389 1.385 . S
C390 C391 1.389 . S
C391 C390 1.389 . S
C391 C392 1.387 . S
C392 H377 0.930 . S
C392 C387 1.390 . S
C392 C391 1.387 . S
H393 C405 0.930 1_655 S
H394 C407 0.930 . S
H395 C408 0.930 . S
H396 C412 0.959 . S
H397 C412 0.959 . S
H398 C412 0.961 . S
H399 C413 0.960 . S
H400 C413 0.961 . S
H401 C413 0.959 . S
H402 C416 0.929 . S
H403 C417 0.931 . S
H404 C419 0.911 1_655 S
C405 H393 0.930 1_455 S
C405 C406 1.399 . S
C405 C410 1.399 . S
C406 C405 1.399 . S
C406 C407 1.376 . S
C407 H394 0.930 . S
C407 C406 1.376 . S
C407 C408 1.388 . S
C408 H395 0.930 . S
C408 C407 1.388 . S
C408 C409 1.390 . S
C409 C408 1.390 . S
C409 C410 1.394 . S
C409 C415 1.465 . S
C410 C405 1.399 . S
C410 C409 1.394 . S
C410 C411 1.516 1_455 S
C411 C410 1.516 1_655 S
C411 C412 1.502 . S
C411 C413 1.561 1_655 S
C411 C414 1.526 1_655 S
C412 H396 0.959 . S
C412 H397 0.959 . S
C412 H398 0.961 . S
C412 C411 1.502 . S
C413 H399 0.960 . S
C413 H400 0.961 . S
C413 H401 0.959 . S
C413 C411 1.561 1_455 S
C414 C411 1.526 1_455 S
C414 C415 1.396 . S
C414 C419 1.398 . S
C415 C409 1.465 . S
C415 C414 1.396 . S
C415 C416 1.399 . S
C416 H402 0.929 . S
C416 C415 1.399 . S
C416 C417 1.385 . S
C417 H403 0.931 . S
C417 C416 1.385 . S
C417 C418 1.389 . S
C418 C417 1.389 . S
C418 C419 1.399 . S
C419 H404 0.911 1_455 S
C419 C414 1.398 . S
C419 C418 1.399 . S
H420 C432 0.930 . S
H421 C434 0.930 . S
H422 C435 0.930 . S
H423 C439 0.959 . S
H424 C439 0.959 1_556 S
H425 C439 0.961 . S
H426 C440 0.960 . S
H427 C440 0.961 . S
H428 C440 0.959 . S
H429 C443 0.929 . S
H430 C444 0.931 . S
H431 C446 0.930 1_556 S
C432 H420 0.930 . S
C432 C433 1.399 1_565 S
C432 C437 1.399 . S
C433 C432 1.399 1_545 S
C433 C434 1.376 . S
C434 H421 0.930 . S
C434 C433 1.376 . S
C434 C435 1.388 . S
C435 H422 0.930 . S
C435 C434 1.388 . S
C435 C436 1.390 . S
C436 C435 1.390 . S
C436 C437 1.394 1_545 S
C436 C442 1.465 . S
C437 C432 1.399 . S
C437 C436 1.394 1_565 S
C437 C438 1.516 . S
C438 C437 1.516 . S
C438 C439 1.502 . S
C438 C440 1.561 1_565 S
C438 C441 1.526 . S
C439 H423 0.959 . S
C439 H424 0.959 1_554 S
C439 H425 0.961 . S
C439 C438 1.502 . S
C440 H426 0.960 . S
C440 H427 0.961 . S
C440 H428 0.959 . S
C440 C438 1.561 1_545 S
C441 C438 1.526 . S
C441 C442 1.396 1_565 S
C441 C446 1.390 . S
C442 C436 1.465 . S
C442 C441 1.396 1_545 S
C442 C443 1.399 . S
C443 H429 0.929 . S
C443 C442 1.399 . S
C443 C444 1.385 . S
C444 H430 0.931 . S
C444 C443 1.385 . S
C444 C445 1.389 1_545 S
C445 C444 1.389 1_565 S
C445 C446 1.387 . S
C446 H431 0.930 1_554 S
C446 C441 1.390 . S
C446 C445 1.387 . S
H447 C459 0.930 1_554 S
H448 C461 0.930 . S
H449 C462 0.930 . S
H450 C466 0.959 . S
H451 C466 0.959 . S
H452 C466 0.961 . S
H453 C467 0.960 . S
H454 C467 0.961 . S
H455 C467 0.959 . S
H456 C470 0.929 . S
H457 C471 0.931 . S
H458 C473 0.930 . S
C459 H447 0.930 1_556 S
C459 C460 1.399 . S
C459 C464 1.399 . S
C460 C459 1.399 . S
C460 C461 1.376 . S
C461 H448 0.930 . S
C461 C460 1.376 . S
C461 C462 1.388 . S
C462 H449 0.930 . S
C462 C461 1.388 . S
C462 C463 1.390 . S
C463 C462 1.390 . S
C463 C464 1.394 . S
C463 C469 1.465 . S
C464 C459 1.399 . S
C464 C463 1.394 . S
C464 C465 1.516 1_556 S
C465 C464 1.516 1_554 S
C465 C466 1.502 . S
C465 C467 1.561 . S
C465 C468 1.526 1_554 S
C466 H450 0.959 . S
C466 H451 0.959 . S
C466 H452 0.961 . S
C466 C465 1.502 . S
C467 H453 0.960 . S
C467 H454 0.961 . S
C467 H455 0.959 . S
C467 C465 1.561 . S
C468 C465 1.526 1_556 S
C468 C469 1.396 . S
C468 C473 1.390 . S
C469 C463 1.465 . S
C469 C468 1.396 . S
C469 C470 1.399 . S
C470 H456 0.929 . S
C470 C469 1.399 . S
C470 C471 1.385 . S
C471 H457 0.931 . S
C471 C470 1.385 . S
C471 C472 1.389 . S
C472 C471 1.389 . S
C472 C473 1.387 . S
C473 H458 0.930 . S
C473 C468 1.390 . S
C473 C472 1.387 . S
H474 C486 0.930 . S
H475 C488 0.930 . S
H476 C489 0.930 . S
H477 C493 0.959 . S
H478 C493 0.959 . S
H479 C493 0.961 . S
H480 C494 0.960 . S
H481 C494 0.961 . S
H482 C494 0.959 . S
H483 C497 0.929 . S
H484 C498 0.931 1_556 S
H485 C500 0.930 . S
C486 H474 0.930 . S
C486 C487 1.399 . S
C486 C491 1.399 . S
C487 C486 1.399 . S
C487 C488 1.376 . S
C488 H475 0.930 . S
C488 C487 1.376 . S
C488 C489 1.388 . S
C489 H476 0.930 . S
C489 C488 1.388 . S
C489 C490 1.390 . S
C490 C489 1.390 . S
C490 C491 1.394 . S
C490 C496 1.465 . S
C491 C486 1.399 . S
C491 C490 1.394 . S
C491 C492 1.516 . S
C492 C491 1.516 . S
C492 C493 1.502 . S
C492 C494 1.561 . S
C492 C495 1.526 . S
C493 H477 0.959 . S
C493 H478 0.959 . S
C493 H479 0.961 . S
C493 C492 1.502 . S
C494 H480 0.960 . S
C494 H481 0.961 . S
C494 H482 0.959 . S
C494 C492 1.561 . S
C495 C492 1.526 . S
C495 C496 1.396 . S
C495 C500 1.390 . S
C496 C490 1.465 . S
C496 C495 1.396 . S
C496 C497 1.399 . S
C497 H483 0.929 . S
C497 C496 1.399 . S
C497 C498 1.385 . S
C498 H484 0.931 1_554 S
C498 C497 1.385 . S
C498 C499 1.389 . S
C499 C498 1.389 . S
C499 C500 1.387 . S
C500 H485 0.930 . S
C500 C495 1.390 . S
C500 C499 1.387 . S
H501 C513 0.930 . S
H502 C515 0.930 . S
H503 C516 0.930 . S
H504 C520 0.959 . S
H505 C520 0.959 . S
H506 C520 0.961 . S
H507 C521 0.960 . S
H508 C521 0.961 . S
H509 C521 0.959 1_655 S
H510 C524 0.929 1_556 S
H511 C525 0.931 . S
H512 C527 0.930 . S
C513 H501 0.930 . S
C513 C514 1.399 1_455 S
C513 C518 1.399 . S
C514 C513 1.399 1_655 S
C514 C515 1.376 . S
C515 H502 0.930 . S
C515 C514 1.376 . S
C515 C516 1.388 . S
C516 H503 0.930 . S
C516 C515 1.388 . S
C516 C517 1.390 . S
C517 C516 1.390 . S
C517 C518 1.394 1_655 S
C517 C523 1.465 . S
C518 C513 1.399 . S
C518 C517 1.394 1_455 S
C518 C519 1.516 . S
C519 C518 1.516 . S
C519 C520 1.502 . S
C519 C521 1.561 . S
C519 C522 1.526 . S
C520 H504 0.959 . S
C520 H505 0.959 . S
C520 H506 0.961 . S
C520 C519 1.502 . S
C521 H507 0.960 . S
C521 H508 0.961 . S
C521 H509 0.959 1_455 S
C521 C519 1.561 . S
C522 C519 1.526 . S
C522 C523 1.396 1_455 S
C522 C527 1.390 . S
C523 C517 1.465 . S
C523 C522 1.396 1_655 S
C523 C524 1.399 . S
C524 H510 0.929 1_554 S
C524 C523 1.399 . S
C524 C525 1.385 1_554 S
C525 H511 0.931 . S
C525 C524 1.385 1_556 S
C525 C526 1.392 1_655 S
C526 C525 1.392 1_455 S
C526 C527 1.385 1_556 S
C527 H512 0.930 . S
C527 C522 1.390 . S
C527 C526 1.385 1_554 S
H528 C540 0.930 . S
H529 C542 0.930 . S
H530 C543 0.930 . S
H531 C547 0.959 . S
H532 C547 0.959 . S
H533 C547 0.961 . S
H534 C548 0.958 1_455 S
H535 C548 0.961 . S
H536 C548 0.959 . S
H537 C551 0.929 . S
H538 C552 0.931 . S
H539 C554 0.930 . S
C540 H528 0.930 . S
C540 C541 1.399 . S
C540 C545 1.399 . S
C541 C540 1.399 . S
C541 C542 1.376 1_455 S
C542 H529 0.930 . S
C542 C541 1.376 1_655 S
C542 C543 1.388 . S
C543 H530 0.930 . S
C543 C542 1.388 . S
C543 C544 1.390 . S
C544 C543 1.390 . S
C544 C545 1.394 1_655 S
C544 C550 1.465 . S
C545 C540 1.399 . S
C545 C544 1.394 1_455 S
C545 C546 1.516 . S
C546 C545 1.516 . S
C546 C547 1.502 . S
C546 C548 1.561 1_455 S
C546 C549 1.526 1_455 S
C547 H531 0.959 . S
C547 H532 0.959 . S
C547 H533 0.961 . S
C547 C546 1.502 . S
C548 H534 0.958 1_655 S
C548 H535 0.961 . S
C548 H536 0.959 . S
C548 C546 1.561 1_655 S
C549 C546 1.526 1_655 S
C549 C550 1.396 . S
C549 C554 1.390 . S
C550 C544 1.465 . S
C550 C549 1.396 . S
C550 C551 1.399 . S
C551 H537 0.929 . S
C551 C550 1.399 . S
C551 C552 1.385 . S
C552 H538 0.931 . S
C552 C551 1.385 . S
C552 C553 1.389 . S
C553 C552 1.389 . S
C553 C554 1.387 . S
C554 H539 0.930 . S
C554 C549 1.390 . S
C554 C553 1.387 . S
H555 C567 0.930 . S
H556 C569 0.930 . S
H557 C570 0.930 . S
H558 C574 0.959 . S
H559 C574 0.959 . S
H560 C574 0.961 . S
H561 C575 0.960 . S
H562 C575 0.961 . S
H563 C575 0.959 . S
H564 C578 0.929 . S
H565 C579 0.931 . S
H566 C581 0.930 1_545 S
C567 H555 0.930 . S
C567 C568 1.401 1_545 S
C567 C572 1.399 . S
C568 C567 1.401 1_565 S
C568 C569 1.373 . S
C569 H556 0.930 . S
C569 C568 1.373 . S
C569 C570 1.388 . S
C570 H557 0.930 . S
C570 C569 1.388 . S
C570 C571 1.390 . S
C571 C570 1.390 . S
C571 C572 1.394 1_565 S
C571 C577 1.465 . S
C572 C567 1.399 . S
C572 C571 1.394 1_545 S
C572 C573 1.516 . S
C573 C572 1.516 . S
C573 C574 1.502 . S
C573 C575 1.561 . S
C573 C576 1.526 1_545 S
C574 H558 0.959 . S
C574 H559 0.959 . S
C574 H560 0.961 . S
C574 C573 1.502 . S
C575 H561 0.960 . S
C575 H562 0.961 . S
C575 H563 0.959 . S
C575 C573 1.561 . S
C576 C573 1.526 1_565 S
C576 C577 1.396 . S
C576 C581 1.390 . S
C577 C571 1.465 . S
C577 C576 1.396 . S
C577 C578 1.399 . S
C578 H564 0.929 . S
C578 C577 1.399 . S
C578 C579 1.385 . S
C579 H565 0.931 . S
C579 C578 1.385 . S
C579 C580 1.389 . S
C580 C579 1.389 . S
C580 C581 1.387 . S
C581 H566 0.930 1_565 S
C581 C576 1.390 . S
C581 C580 1.387 . S
H582 C594 0.930 . S
H583 C596 0.930 . S
H584 C597 0.930 . S
H585 C601 0.959 . S
H586 C601 0.959 . S
H587 C601 0.961 . S
H588 C602 0.960 1_554 S
H589 C602 0.961 1_554 S
H590 C602 0.959 . S
H591 C605 0.929 . S
H592 C606 0.931 . S
H593 C608 0.930 . S
C594 H582 0.930 . S
C594 C595 1.399 . S
C594 C599 1.399 . S
C595 C594 1.399 . S
C595 C596 1.376 . S
C596 H583 0.930 . S
C596 C595 1.376 . S
C596 C597 1.388 . S
C597 H584 0.930 . S
C597 C596 1.388 . S
C597 C598 1.390 . S
C598 C597 1.390 . S
C598 C599 1.394 . S
C598 C604 1.465 . S
C599 C594 1.399 . S
C599 C598 1.394 . S
C599 C600 1.516 . S
C600 C599 1.516 . S
C600 C601 1.502 . S
C600 C602 1.561 . S
C600 C603 1.526 . S
C601 H585 0.959 . S
C601 H586 0.959 . S
C601 H587 0.961 . S
C601 C600 1.502 . S
C602 H588 0.960 1_556 S
C602 H589 0.961 1_556 S
C602 H590 0.959 . S
C602 C600 1.561 . S
C603 C600 1.526 . S
C603 C604 1.396 . S
C603 C608 1.390 . S
C604 C598 1.465 . S
C604 C603 1.396 . S
C604 C605 1.399 . S
C605 H591 0.929 . S
C605 C604 1.399 . S
C605 C606 1.385 . S
C606 H592 0.931 . S
C606 C605 1.385 . S
C606 C607 1.389 . S
C607 C606 1.389 . S
C607 C608 1.387 . S
C608 H593 0.930 . S
C608 C603 1.390 . S
C608 C607 1.387 . S
H609 C621 0.930 . S
H610 C623 0.930 . S
H611 C624 0.930 . S
H612 C628 0.959 . S
H613 C628 0.959 . S
H614 C628 0.961 . S
H615 C629 0.960 . S
H616 C629 0.961 . S
H617 C629 0.959 . S
H618 C632 0.929 . S
H619 C633 0.931 . S
H620 C635 0.930 . S
C621 H609 0.930 . S
C621 C622 1.399 . S
C621 C626 1.399 . S
C622 C621 1.399 . S
C622 C623 1.376 . S
C623 H610 0.930 . S
C623 C622 1.376 . S
C623 C624 1.388 . S
C624 H611 0.930 . S
C624 C623 1.388 . S
C624 C625 1.390 . S
C625 C624 1.390 . S
C625 C626 1.394 . S
C625 C631 1.465 . S
C626 C621 1.399 . S
C626 C625 1.394 . S
C626 C627 1.516 . S
C627 C626 1.516 . S
C627 C628 1.502 . S
C627 C629 1.561 . S
C627 C630 1.526 . S
C628 H612 0.959 . S
C628 H613 0.959 . S
C628 H614 0.961 . S
C628 C627 1.502 . S
C629 H615 0.960 . S
C629 H616 0.961 . S
C629 H617 0.959 . S
C629 C627 1.561 . S
C630 C627 1.526 . S
C630 C631 1.396 . S
C630 C635 1.390 . S
C631 C625 1.465 . S
C631 C630 1.396 . S
C631 C632 1.399 . S
C632 H618 0.929 . S
C632 C631 1.399 . S
C632 C633 1.385 . S
C633 H619 0.931 . S
C633 C632 1.385 . S
C633 C634 1.389 . S
C634 C633 1.389 . S
C634 C635 1.387 . S
C635 H620 0.930 . S
C635 C630 1.390 . S
C635 C634 1.387 . S
H636 C648 0.930 . S
H637 C650 0.930 . S
H638 C651 0.930 . S
H639 C655 0.959 . S
H640 C655 0.959 . S
H641 C655 0.961 . S
H642 C656 0.960 . S
H643 C656 0.961 . S
H644 C656 0.959 . S
H645 C659 0.929 . S
H646 C660 0.931 . S
H647 C662 0.930 . S
C648 H636 0.930 . S
C648 C649 1.399 . S
C648 C653 1.399 1_655 S
C649 C648 1.399 . S
C649 C650 1.376 1_655 S
C650 H637 0.930 . S
C650 C649 1.376 1_455 S
C650 C651 1.388 . S
C651 H638 0.930 . S
C651 C650 1.388 . S
C651 C652 1.390 . S
C652 C651 1.390 . S
C652 C653 1.394 . S
C652 C658 1.465 . S
C653 C648 1.399 1_455 S
C653 C652 1.394 . S
C653 C654 1.516 . S
C654 C653 1.516 . S
C654 C655 1.502 . S
C654 C656 1.561 1_455 S
C654 C657 1.526 . S
C655 H639 0.959 . S
C655 H640 0.959 . S
C655 H641 0.961 . S
C655 C654 1.502 . S
C656 H642 0.960 . S
C656 H643 0.961 . S
C656 H644 0.959 . S
C656 C654 1.561 1_655 S
C657 C654 1.526 . S
C657 C658 1.396 . S
C657 C662 1.390 . S
C658 C652 1.465 . S
C658 C657 1.396 . S
C658 C659 1.399 . S
C659 H645 0.929 . S
C659 C658 1.399 . S
C659 C660 1.385 . S
C660 H646 0.931 . S
C660 C659 1.385 . S
C660 C661 1.389 . S
C661 C660 1.389 . S
C661 C662 1.387 . S
C662 H647 0.930 . S
C662 C657 1.390 . S
C662 C661 1.387 . S
H663 C675 0.930 . S
H664 C677 0.930 . S
H665 C678 0.930 . S
H666 C682 0.959 . S
H667 C682 0.959 . S
H668 C682 0.961 . S
H669 C683 0.960 . S
H670 C683 0.961 . S
H671 C683 0.959 . S
H672 C686 0.929 . S
H673 C687 0.931 . S
H674 C689 0.930 . S
C675 H663 0.930 . S
C675 C676 1.399 1_545 S
C675 C680 1.399 . S
C676 C675 1.399 1_565 S
C676 C677 1.376 . S
C677 H664 0.930 . S
C677 C676 1.376 . S
C677 C678 1.388 . S
C678 H665 0.930 . S
C678 C677 1.388 . S
C678 C679 1.390 . S
C679 C678 1.390 . S
C679 C680 1.394 1_565 S
C679 C685 1.465 . S
C680 C675 1.399 . S
C680 C679 1.394 1_545 S
C680 C681 1.516 . S
C681 C680 1.516 . S
C681 C682 1.502 . S
C681 C683 1.561 . S
C681 C684 1.526 . S
C682 H666 0.959 . S
C682 H667 0.959 . S
C682 H668 0.961 . S
C682 C681 1.502 . S
C683 H669 0.960 . S
C683 H670 0.961 . S
C683 H671 0.959 . S
C683 C681 1.561 . S
C684 C681 1.526 . S
C684 C685 1.396 1_545 S
C684 C689 1.390 . S
C685 C679 1.465 . S
C685 C684 1.396 1_565 S
C685 C686 1.399 . S
C686 H672 0.929 . S
C686 C685 1.399 . S
C686 C687 1.385 . S
C687 H673 0.931 . S
C687 C686 1.385 . S
C687 C688 1.389 1_565 S
C688 C687 1.389 1_545 S
C688 C689 1.387 . S
C689 H674 0.930 . S
C689 C684 1.390 . S
C689 C688 1.387 . S
H690 C702 0.930 1_554 S
H691 C704 0.930 . S
H692 C705 0.930 . S
H693 C709 0.959 . S
H694 C709 0.959 . S
H695 C709 0.961 . S
H696 C710 0.960 . S
H697 C710 0.961 . S
H698 C710 0.959 . S
H699 C713 0.929 . S
H700 C714 0.931 . S
H701 C716 0.930 1_554 S
C702 H690 0.930 1_556 S
C702 C703 1.399 . S
C702 C707 1.399 . S
C703 C702 1.399 . S
C703 C704 1.376 . S
C704 H691 0.930 . S
C704 C703 1.376 . S
C704 C705 1.388 . S
C705 H692 0.930 . S
C705 C704 1.388 . S
C705 C706 1.390 . S
C706 C705 1.390 . S
C706 C707 1.394 . S
C706 C712 1.465 . S
C707 C702 1.399 . S
C707 C706 1.394 . S
C707 C708 1.516 1_556 S
C708 C707 1.516 1_554 S
C708 C709 1.502 . S
C708 C710 1.561 . S
C708 C711 1.526 1_554 S
C709 H693 0.959 . S
C709 H694 0.959 . S
C709 H695 0.961 . S
C709 C708 1.502 . S
C710 H696 0.960 . S
C710 H697 0.961 . S
C710 H698 0.959 . S
C710 C708 1.561 . S
C711 C708 1.526 1_556 S
C711 C712 1.396 . S
C711 C716 1.390 . S
C712 C706 1.465 . S
C712 C711 1.396 . S
C712 C713 1.399 . S
C713 H699 0.929 . S
C713 C712 1.399 . S
C713 C714 1.385 . S
C714 H700 0.931 . S
C714 C713 1.385 . S
C714 C715 1.389 . S
C715 C714 1.389 . S
C715 C716 1.387 . S
C716 H701 0.930 1_556 S
C716 C711 1.390 . S
C716 C715 1.387 . S
H717 C729 0.930 . S
H718 C731 0.930 . S
H719 C732 0.930 . S
H720 C736 0.959 . S
H721 C736 0.959 . S
H722 C736 0.961 . S
H723 C737 0.960 . S
H724 C737 0.961 . S
H725 C737 0.959 . S
H726 C740 0.929 . S
H727 C741 0.931 . S
H728 C743 0.930 . S
C729 H717 0.930 . S
C729 C730 1.399 . S
C729 C734 1.399 . S
C730 C729 1.399 . S
C730 C731 1.376 . S
C731 H718 0.930 . S
C731 C730 1.376 . S
C731 C732 1.388 . S
C732 H719 0.930 . S
C732 C731 1.388 . S
C732 C733 1.390 . S
C733 C732 1.390 . S
C733 C734 1.394 . S
C733 C739 1.465 . S
C734 C729 1.399 . S
C734 C733 1.394 . S
C734 C735 1.516 . S
C735 C734 1.516 . S
C735 C736 1.502 . S
C735 C737 1.561 . S
C735 C738 1.526 . S
C736 H720 0.959 . S
C736 H721 0.959 . S
C736 H722 0.961 . S
C736 C735 1.502 . S
C737 H723 0.960 . S
C737 H724 0.961 . S
C737 H725 0.959 . S
C737 C735 1.561 . S
C738 C735 1.526 . S
C738 C739 1.396 . S
C738 C743 1.390 . S
C739 C733 1.465 . S
C739 C738 1.396 . S
C739 C740 1.399 . S
C740 H726 0.929 . S
C740 C739 1.399 . S
C740 C741 1.385 . S
C741 H727 0.931 . S
C741 C740 1.385 . S
C741 C742 1.389 . S
C742 C741 1.389 . S
C742 C743 1.387 . S
C743 H728 0.930 . S
C743 C738 1.390 . S
C743 C742 1.387 . S
H744 C756 0.930 . S
H745 C758 0.930 . S
H746 C759 0.930 . S
H747 C763 0.959 . S
H748 C763 0.959 . S
H749 C763 0.961 . S
H750 C764 0.960 . S
H751 C764 0.961 . S
H752 C764 0.959 1_655 S
H753 C767 0.929 . S
H754 C768 0.931 1_655 S
H755 C770 0.930 . S
C756 H744 0.930 . S
C756 C757 1.399 . S
C756 C761 1.399 . S
C757 C756 1.399 . S
C757 C758 1.376 1_454 S
C758 H745 0.930 . S
C758 C757 1.376 1_656 S
C758 C759 1.388 . S
C759 H746 0.930 . S
C759 C758 1.388 . S
C759 C760 1.390 1_656 S
C760 C759 1.390 1_454 S
C760 C761 1.394 . S
C760 C766 1.465 1_554 S
C761 C756 1.399 . S
C761 C760 1.394 . S
C761 C762 1.516 . S
C762 C761 1.516 . S
C762 C763 1.502 . S
C762 C764 1.561 . S
C762 C765 1.526 . S
C763 H747 0.959 . S
C763 H748 0.959 . S
C763 H749 0.961 . S
C763 C762 1.502 . S
C764 H750 0.960 . S
C764 H751 0.961 . S
C764 H752 0.959 1_455 S
C764 C762 1.561 . S
C765 C762 1.526 . S
C765 C766 1.396 1_554 S
C765 C770 1.390 . S
C766 C760 1.465 1_556 S
C766 C765 1.396 1_556 S
C766 C767 1.399 1_455 S
C767 H753 0.929 . S
C767 C766 1.399 1_655 S
C767 C768 1.385 1_655 S
C768 H754 0.931 1_455 S
C768 C767 1.385 1_455 S
C768 C769 1.389 . S
C769 C768 1.389 . S
C769 C770 1.387 1_556 S
C770 H755 0.930 . S
C770 C765 1.390 . S
C770 C769 1.387 1_554 S
H771 C783 0.930 . S
H772 C785 0.930 . S
H773 C786 0.930 . S
H774 C790 0.959 . S
H775 C790 0.959 . S
H776 C790 0.961 . S
H777 C791 0.960 . S
H778 C791 0.961 . S
H779 C791 0.959 . S
H780 C794 0.929 . S
H781 C795 0.931 . S
H782 C797 0.930 . S
C783 H771 0.930 . S
C783 C784 1.399 1_565 S
C783 C788 1.399 . S
C784 C783 1.399 1_545 S
C784 C785 1.376 . S
C785 H772 0.930 . S
C785 C784 1.376 . S
C785 C786 1.388 . S
C786 H773 0.930 . S
C786 C785 1.388 . S
C786 C787 1.390 . S
C787 C786 1.390 . S
C787 C788 1.394 1_545 S
C787 C793 1.465 1_554 S
C788 C783 1.399 . S
C788 C787 1.394 1_565 S
C788 C789 1.516 1_554 S
C789 C788 1.516 1_556 S
C789 C790 1.502 1_556 S
C789 C791 1.561 . S
C789 C792 1.526 . S
C790 H774 0.959 . S
C790 H775 0.959 . S
C790 H776 0.961 . S
C790 C789 1.502 1_554 S
C791 H777 0.960 . S
C791 H778 0.961 . S
C791 H779 0.959 . S
C791 C789 1.561 . S
C792 C789 1.526 . S
C792 C793 1.396 1_565 S
C792 C797 1.390 . S
C793 C787 1.465 1_556 S
C793 C792 1.396 1_545 S
C793 C794 1.399 . S
C794 H780 0.929 . S
C794 C793 1.399 . S
C794 C795 1.385 . S
C795 H781 0.931 . S
C795 C794 1.385 . S
C795 C796 1.389 . S
C796 C795 1.389 . S
C796 C797 1.387 1_545 S
C797 H782 0.930 . S
C797 C792 1.390 . S
C797 C796 1.387 1_565 S
H798 C810 0.930 . S
H799 C812 0.930 . S
H800 C813 0.930 . S
H801 C817 0.959 . S
H802 C817 0.959 . S
H803 C817 0.961 . S
H804 C818 0.960 . S
H805 C818 0.961 . S
H806 C818 0.959 . S
H807 C821 0.929 . S
H808 C822 0.931 . S
H809 C824 0.930 . S
C810 H798 0.930 . S
C810 C811 1.399 . S
C810 C815 1.399 . S
C811 C810 1.399 . S
C811 C812 1.376 . S
C812 H799 0.930 . S
C812 C811 1.376 . S
C812 C813 1.388 . S
C813 H800 0.930 . S
C813 C812 1.388 . S
C813 C814 1.390 . S
C814 C813 1.390 . S
C814 C815 1.394 . S
C814 C820 1.465 . S
C815 C810 1.399 . S
C815 C814 1.394 . S
C815 C816 1.516 . S
C816 C815 1.516 . S
C816 C817 1.502 . S
C816 C818 1.561 . S
C816 C819 1.526 . S
C817 H801 0.959 . S
C817 H802 0.959 . S
C817 H803 0.961 . S
C817 C816 1.502 . S
C818 H804 0.960 . S
C818 H805 0.961 . S
C818 H806 0.959 . S
C818 C816 1.561 . S
C819 C816 1.526 . S
C819 C820 1.396 . S
C819 C824 1.390 . S
C820 C814 1.465 . S
C820 C819 1.396 . S
C820 C821 1.399 . S
C821 H807 0.929 . S
C821 C820 1.399 . S
C821 C822 1.385 . S
C822 H808 0.931 . S
C822 C821 1.385 . S
C822 C823 1.389 . S
C823 C822 1.389 . S
C823 C824 1.387 . S
C824 H809 0.930 . S
C824 C819 1.390 . S
C824 C823 1.387 . S
H825 C837 0.930 . S
H826 C839 0.930 . S
H827 C840 0.930 1_556 S
H828 C844 0.959 . S
H829 C844 0.959 . S
H830 C844 0.961 . S
H831 C845 0.960 . S
H832 C845 0.961 . S
H833 C845 0.959 . S
H834 C848 0.929 . S
H835 C849 0.931 . S
H836 C851 0.930 . S
C837 H825 0.930 . S
C837 C838 1.399 . S
C837 C842 1.399 . S
C838 C837 1.399 . S
C838 C839 1.376 . S
C839 H826 0.930 . S
C839 C838 1.376 . S
C839 C840 1.388 . S
C840 H827 0.930 1_554 S
C840 C839 1.388 . S
C840 C841 1.390 . S
C841 C840 1.390 . S
C841 C842 1.394 . S
C841 C847 1.465 1_554 S
C842 C837 1.399 . S
C842 C841 1.394 . S
C842 C843 1.516 . S
C843 C842 1.516 . S
C843 C844 1.502 1_554 S
C843 C845 1.561 . S
C843 C846 1.526 1_554 S
C844 H828 0.959 . S
C844 H829 0.959 . S
C844 H830 0.961 . S
C844 C843 1.502 1_556 S
C845 H831 0.960 . S
C845 H832 0.961 . S
C845 H833 0.959 . S
C845 C843 1.561 . S
C846 C843 1.526 1_556 S
C846 C847 1.396 . S
C846 C851 1.390 . S
C847 C841 1.465 1_556 S
C847 C846 1.396 . S
C847 C848 1.399 . S
C848 H834 0.929 . S
C848 C847 1.399 . S
C848 C849 1.385 . S
C849 H835 0.931 . S
C849 C848 1.385 . S
C849 C850 1.389 . S
C850 C849 1.389 . S
C850 C851 1.387 . S
C851 H836 0.930 . S
C851 C846 1.390 . S
C851 C850 1.387 . S
H852 C864 0.930 . S
H853 C866 0.930 . S
H854 C867 0.930 . S
H855 C871 0.959 1_455 S
H856 C871 0.959 . S
H857 C871 0.961 . S
H858 C872 0.960 . S
H859 C872 0.961 . S
H860 C872 0.959 . S
H861 C875 0.929 . S
H862 C876 0.931 . S
H863 C878 0.930 . S
C864 H852 0.930 . S
C864 C865 1.399 . S
C864 C869 1.399 . S
C865 C864 1.399 . S
C865 C866 1.376 1_655 S
C866 H853 0.930 . S
C866 C865 1.376 1_455 S
C866 C867 1.388 . S
C867 H854 0.930 . S
C867 C866 1.388 . S
C867 C868 1.390 1_455 S
C868 C867 1.390 1_655 S
C868 C869 1.394 . S
C868 C874 1.465 . S
C869 C864 1.399 . S
C869 C868 1.394 . S
C869 C870 1.516 . S
C870 C869 1.516 . S
C870 C871 1.502 . S
C870 C872 1.561 . S
C870 C873 1.526 . S
C871 H855 0.959 1_655 S
C871 H856 0.959 . S
C871 H857 0.961 . S
C871 C870 1.502 . S
C872 H858 0.960 . S
C872 H859 0.961 . S
C872 H860 0.959 . S
C872 C870 1.561 . S
C873 C870 1.526 . S
C873 C874 1.396 . S
C873 C878 1.390 . S
C874 C868 1.465 . S
C874 C873 1.396 . S
C874 C875 1.399 1_655 S
C875 H861 0.929 . S
C875 C874 1.399 1_455 S
C875 C876 1.385 . S
C876 H862 0.931 . S
C876 C875 1.385 . S
C876 C877 1.389 1_455 S
C877 C876 1.389 1_655 S
C877 C878 1.387 . S
C878 H863 0.930 . S
C878 C873 1.390 . S
C878 C877 1.387 . S
H879 C891 0.930 . S
H880 C893 0.930 . S
H881 C894 0.930 . S
H882 C898 0.959 . S
H883 C898 0.959 . S
H884 C898 0.961 . S
H885 C899 0.960 . S
H886 C899 0.961 . S
H887 C899 0.959 . S
H888 C902 0.929 . S
H889 C903 0.931 . S
H890 C905 0.930 . S
C891 H879 0.930 . S
C891 C892 1.399 1_545 S
C891 C896 1.399 . S
C892 C891 1.399 1_565 S
C892 C893 1.376 . S
C893 H880 0.930 . S
C893 C892 1.376 . S
C893 C894 1.388 . S
C894 H881 0.930 . S
C894 C893 1.388 . S
C894 C895 1.390 . S
C895 C894 1.390 . S
C895 C896 1.394 1_565 S
C895 C901 1.465 . S
C896 C891 1.399 . S
C896 C895 1.394 1_545 S
C896 C897 1.516 . S
C897 C896 1.516 . S
C897 C898 1.502 . S
C897 C899 1.561 . S
C897 C900 1.526 . S
C898 H882 0.959 . S
C898 H883 0.959 . S
C898 H884 0.961 . S
C898 C897 1.502 . S
C899 H885 0.960 . S
C899 H886 0.961 . S
C899 H887 0.959 . S
C899 C897 1.561 . S
C900 C897 1.526 . S
C900 C901 1.396 1_545 S
C900 C905 1.390 . S
C901 C895 1.465 . S
C901 C900 1.396 1_565 S
C901 C902 1.399 . S
C902 H888 0.929 . S
C902 C901 1.399 . S
C902 C903 1.385 . S
C903 H889 0.931 . S
C903 C902 1.385 . S
C903 C904 1.389 . S
C904 C903 1.389 . S
C904 C905 1.387 1_565 S
C905 H890 0.930 . S
C905 C900 1.390 . S
C905 C904 1.387 1_545 S
H906 C918 0.930 . S
H907 C920 0.930 . S
H908 C921 0.930 . S
H909 C925 0.959 . S
H910 C925 0.959 . S
H911 C925 0.961 . S
H912 C926 0.960 . S
H913 C926 0.961 . S
H914 C926 0.959 . S
H915 C929 0.929 . S
H916 C930 0.931 . S
H917 C932 0.930 . S
C918 H906 0.930 . S
C918 C919 1.399 . S
C918 C923 1.399 . S
C919 C918 1.399 . S
C919 C920 1.376 . S
C920 H907 0.930 . S
C920 C919 1.376 . S
C920 C921 1.388 . S
C921 H908 0.930 . S
C921 C920 1.388 . S
C921 C922 1.390 . S
C922 C921 1.390 . S
C922 C923 1.394 . S
C922 C928 1.465 . S
C923 C918 1.399 . S
C923 C922 1.394 . S
C923 C924 1.516 . S
C924 C923 1.516 . S
C924 C925 1.502 . S
C924 C926 1.561 . S
C924 C927 1.526 . S
C925 H909 0.959 . S
C925 H910 0.959 . S
C925 H911 0.961 . S
C925 C924 1.502 . S
C926 H912 0.960 . S
C926 H913 0.961 . S
C926 H914 0.959 . S
C926 C924 1.561 . S
C927 C924 1.526 . S
C927 C928 1.396 . S
C927 C932 1.390 . S
C928 C922 1.465 . S
C928 C927 1.396 . S
C928 C929 1.399 . S
C929 H915 0.929 . S
C929 C928 1.399 . S
C929 C930 1.385 . S
C930 H916 0.931 . S
C930 C929 1.385 . S
C930 C931 1.389 . S
C931 C930 1.389 . S
C931 C932 1.387 . S
C932 H917 0.930 . S
C932 C927 1.390 . S
C932 C931 1.387 . S
H933 C945 0.930 . S
H934 C947 0.930 . S
H935 C948 0.930 . S
H936 C952 0.959 . S
H937 C952 0.959 . S
H938 C952 0.961 . S
H939 C953 0.960 . S
H940 C953 0.961 . S
H941 C953 0.959 . S
H942 C956 0.929 . S
H943 C957 0.931 . S
H944 C959 0.930 . S
C945 H933 0.930 . S
C945 C946 1.399 . S
C945 C950 1.399 . S
C946 C945 1.399 . S
C946 C947 1.376 . S
C947 H934 0.930 . S
C947 C946 1.376 . S
C947 C948 1.388 . S
C948 H935 0.930 . S
C948 C947 1.388 . S
C948 C949 1.390 . S
C949 C948 1.390 . S
C949 C950 1.394 . S
C949 C955 1.465 . S
C950 C945 1.399 . S
C950 C949 1.394 . S
C950 C951 1.516 . S
C951 C950 1.516 . S
C951 C952 1.502 . S
C951 C953 1.561 . S
C951 C954 1.526 . S
C952 H936 0.959 . S
C952 H937 0.959 . S
C952 H938 0.961 . S
C952 C951 1.502 . S
C953 H939 0.960 . S
C953 H940 0.961 . S
C953 H941 0.959 . S
C953 C951 1.561 . S
C954 C951 1.526 . S
C954 C955 1.396 . S
C954 C959 1.390 . S
C955 C949 1.465 . S
C955 C954 1.396 . S
C955 C956 1.399 . S
C956 H942 0.929 . S
C956 C955 1.399 . S
C956 C957 1.385 . S
C957 H943 0.931 . S
C957 C956 1.385 . S
C957 C958 1.389 . S
C958 C957 1.389 . S
C958 C959 1.387 . S
C959 H944 0.930 . S
C959 C954 1.390 . S
C959 C958 1.387 . S
C325 C125 1.989 1_545 S
C337 C175 2.013 1_545 S
C364 C215 1.827 . S
C352 C144 1.663 . S
C391 C234 2.013 . S
C379 C87 1.906 . S
C418 C295 1.418 . S
C406 C106 1.395 . S
C445 C154 1.988 1_564 S
C433 C49 1.982 1_545 S
C460 C68 1.742 . S
C472 C194 1.799 . S
C487 C11 2.007 . S
C499 C255 2.013 1_554 S
C514 C30 1.352 . S
C526 C274 1.416 . S
C553 C156 0.957 . S
C541 C97 0.842 . S
C580 C196 0.458 . S
C568 C116 0.565 . S
C607 C252 1.150 . S
C595 C135 0.926 . S
C622 C78 0.565 . S
C634 C276 0.381 . S
C649 C21 0.845 . S
C661 C177 0.938 . S
C688 C217 0.352 . S
C676 C40 0.550 . S
C715 C263 1.106 . S
C703 C59 1.089 . S
C730 C2 0.620 . S
C742 C297 0.404 . S
C757 C101 1.480 . S
C769 C172 1.551 . S
C784 C120 2.189 1_545 S
C796 C212 2.357 . S
C823 C236 1.496 . S
C811 C139 1.429 . S
C850 C292 2.330 . S
C838 C82 2.154 . S
C865 C25 1.507 . S
C877 C183 1.566 . S
C904 C223 2.362 . S
C892 C44 2.132 . S
C931 C257 1.467 . S
C919 C63 1.434 . S
C946 C6 2.135 . S
C958 C303 2.356 . S
