# Generated by pormake.
# Topology zzz, (3,6)-cn, num edge types: 1
# Building blocks:
#     Node 0, Type 0, BuildingBlock: BETDIP_clean_linker_0, # of connection points: 3
#     Node 1, Type 0, BuildingBlock: BETDIP_clean_linker_0, # of connection points: 3
#     Node 2, Type 0, BuildingBlock: BETDIP_clean_linker_0, # of connection points: 3
#     Node 3, Type 0, BuildingBlock: BETDIP_clean_linker_0, # of connection points: 3
#     Node 4, Type 0, BuildingBlock: BETDIP_clean_linker_0, # of connection points: 3
#     Node 5, Type 0, BuildingBlock: BETDIP_clean_linker_0, # of connection points: 3
#     Node 6, Type 0, BuildingBlock: BETDIP_clean_linker_0, # of connection points: 3
#     Node 7, Type 0, BuildingBlock: BETDIP_clean_linker_0, # of connection points: 3
#     Node 8, Type 1, BuildingBlock: KUMBUR_clean_sbu_1, # of connection points: 6
#     Node 9, Type 1, BuildingBlock: KUMBUR_clean_sbu_1, # of connection points: 6
#     Node 10, Type 1, BuildingBlock: KUMBUR_clean_sbu_1, # of connection points: 6
#     Node 11, Type 1, BuildingBlock: KUMBUR_clean_sbu_1, # of connection points: 6
#     Edge 12, Type (0, 1), BuildingBlock: AJUNOK_clean_linker_0, # of connection points: 2
#     Edge 13, Type (0, 1), BuildingBlock: AJUNOK_clean_linker_0, # of connection points: 2
#     Edge 14, Type (0, 1), BuildingBlock: AJUNOK_clean_linker_0, # of connection points: 2
#     Edge 15, Type (0, 1), BuildingBlock: AJUNOK_clean_linker_0, # of connection points: 2
#     Edge 16, Type (0, 1), BuildingBlock: AJUNOK_clean_linker_0, # of connection points: 2
#     Edge 17, Type (0, 1), BuildingBlock: AJUNOK_clean_linker_0, # of connection points: 2
#     Edge 18, Type (0, 1), BuildingBlock: AJUNOK_clean_linker_0, # of connection points: 2
#     Edge 19, Type (0, 1), BuildingBlock: AJUNOK_clean_linker_0, # of connection points: 2
#     Edge 20, Type (0, 1), BuildingBlock: AJUNOK_clean_linker_0, # of connection points: 2
#     Edge 21, Type (0, 1), BuildingBlock: AJUNOK_clean_linker_0, # of connection points: 2
#     Edge 22, Type (0, 1), BuildingBlock: AJUNOK_clean_linker_0, # of connection points: 2
#     Edge 23, Type (0, 1), BuildingBlock: AJUNOK_clean_linker_0, # of connection points: 2
#     Edge 24, Type (0, 1), BuildingBlock: AJUNOK_clean_linker_0, # of connection points: 2
#     Edge 25, Type (0, 1), BuildingBlock: AJUNOK_clean_linker_0, # of connection points: 2
#     Edge 26, Type (0, 1), BuildingBlock: AJUNOK_clean_linker_0, # of connection points: 2
#     Edge 27, Type (0, 1), BuildingBlock: AJUNOK_clean_linker_0, # of connection points: 2
#     Edge 28, Type (0, 1), BuildingBlock: AJUNOK_clean_linker_0, # of connection points: 2
#     Edge 29, Type (0, 1), BuildingBlock: AJUNOK_clean_linker_0, # of connection points: 2
#     Edge 30, Type (0, 1), BuildingBlock: AJUNOK_clean_linker_0, # of connection points: 2
#     Edge 31, Type (0, 1), BuildingBlock: AJUNOK_clean_linker_0, # of connection points: 2
#     Edge 32, Type (0, 1), BuildingBlock: AJUNOK_clean_linker_0, # of connection points: 2
#     Edge 33, Type (0, 1), BuildingBlock: AJUNOK_clean_linker_0, # of connection points: 2
#     Edge 34, Type (0, 1), BuildingBlock: AJUNOK_clean_linker_0, # of connection points: 2
#     Edge 35, Type (0, 1), BuildingBlock: AJUNOK_clean_linker_0, # of connection points: 2
# Relax obj value: 0.244
# Max RMSD: 0.125
# Mean RMSD: 0.085
data_MOF--net-zzz--node1-KUMBUR_clean_sbu_1--node2-BETDIP_clean_linker_0--edge1-AJUNOK_clean_linker_0
_symmetry_space_group_name_H-M    P1
_symmetry_Int_Tables_number       1
_symmetry_cell_setting            triclinic
loop_
_symmetry_equiv_pos_as_xyz
'x, y, z'
_cell_length_a     36.299333
_cell_length_b     36.340693
_cell_length_c     11.357191
_cell_angle_alpha  90.118401
_cell_angle_beta   90.608641
_cell_angle_gamma 90.254452
loop_
_atom_site_label
_atom_site_type_symbol
_atom_site_fract_x
_atom_site_fract_y
_atom_site_fract_z
_atom_type_partial_charge
H0 H 0.77466 0.53873 0.58007 0.0
H1 H 0.74621 0.56536 0.22005 0.0
H2 H 0.85911 0.55553 0.32111 0.0
H3 H 0.69596 0.59917 0.36933 0.0
C4 C 0.68973 0.57009 0.35963 0.0
C5 C 0.7829 0.5464 0.49213 0.0
C6 C 0.82153 0.54971 0.46502 0.0
C7 C 0.75517 0.55265 0.40231 0.0
C8 C 0.76651 0.56225 0.29004 0.0
C9 C 0.80331 0.56213 0.26039 0.0
C10 C 0.83057 0.55686 0.34725 0.0
N11 N 0.71623 0.54624 0.41633 0.0
H12 H 1.02271 0.78797 0.55248 0.0
H13 H 0.99512 0.76388 0.19003 0.0
H14 H 1.0076 0.87576 0.30252 0.0
H15 H 0.96358 0.70788 0.33101 0.0
C16 C 0.99318 0.70466 0.32207 0.0
C17 C 1.01495 0.79727 0.46524 0.0
C18 C 1.01152 0.83614 0.44234 0.0
C19 C 1.00826 0.77065 0.37288 0.0
C20 C 0.9986 0.78345 0.26157 0.0
C21 C 1.00124 0.82058 0.23418 0.0
C22 C 1.00557 0.84682 0.32477 0.0
N23 N 1.01579 0.73177 0.38264 0.0
H24 H 0.77686 1.01571 0.45692 0.0
H25 H 0.81745 0.08858 0.18723 0.0
H26 H 0.71186 0.10791 0.33812 0.0
H27 H 0.82216 1.01177 0.11496 0.0
C28 C 0.84432 1.01812 0.17693 0.0
C29 C 0.77337 0.03991 0.4026 0.0
C30 C 0.74091 0.06228 0.41518 0.0
C31 C 0.80102 0.04913 0.3169 0.0
C32 C 0.79637 0.08081 0.2495 0.0
C33 C 0.76464 0.10187 0.25751 0.0
C34 C 0.73732 0.0924 0.33866 0.0
N35 N 0.83363 1.0277 0.29534 0.0
H36 H 0.5285 0.79178 0.48855 0.0
H37 H 0.60055 0.81953 0.20429 0.0
H38 H 0.61012 0.71477 0.37379 0.0
H39 H 0.59765 0.87648 0.29863 0.0
C40 C 0.56818 0.87758 0.28166 0.0
C41 C 0.55121 0.78481 0.43191 0.0
C42 C 0.56899 0.74968 0.44498 0.0
C43 C 0.56392 0.81108 0.34631 0.0
C44 C 0.59243 0.80052 0.27171 0.0
C45 C 0.60734 0.76505 0.27259 0.0
C46 C 0.59749 0.74139 0.36629 0.0
N47 N 0.54689 0.84661 0.32481 0.0
H48 H 0.28546 0.52068 0.05295 0.0
H49 H 0.31254 0.56779 0.39306 0.0
H50 H 0.20763 0.58948 0.23717 0.0
H51 H 0.33556 0.49057 0.38349 0.0
C52 C 0.35424 0.50831 0.33528 0.0
C53 C 0.27769 0.53713 0.12815 0.0
C54 C 0.24211 0.55483 0.12966 0.0
C55 C 0.30324 0.54118 0.22605 0.0
C56 C 0.29329 0.56339 0.32063 0.0
C57 C 0.25969 0.58137 0.32143 0.0
C58 C 0.23429 0.57643 0.22923 0.0
N59 N 0.33972 0.52559 0.22999 0.0
H60 H 0.03879 0.29215 0.08198 0.0
H61 H 0.11372 0.3202 0.36305 0.0
H62 H 0.12096 0.21489 0.19637 0.0
H63 H 0.1115 0.37611 0.26538 0.0
C64 C 0.08237 0.37796 0.28448 0.0
C65 C 0.0619 0.28505 0.13835 0.0
C66 C 0.07913 0.24968 0.12605 0.0
C67 C 0.07577 0.31151 0.22248 0.0
C68 C 0.10474 0.30087 0.29709 0.0
C69 C 0.11938 0.26529 0.29697 0.0
C70 C 0.10837 0.24143 0.2042 0.0
N71 N 0.05981 0.3476 0.24172 0.0
H72 H 0.28277 0.06049 0.04635 0.0
H73 H 0.25087 0.97217 0.27892 0.0
H74 H 0.35028 0.96399 0.08383 0.0
H75 H 0.19192 0.99303 0.21452 0.0
C76 C 0.19734 1.0207 0.24698 0.0
C77 C 0.28753 0.03337 0.08247 0.0
C78 C 0.3192 1.01272 0.04712 0.0
C79 C 0.26169 1.0183 0.16459 0.0
C80 C 0.26874 0.98332 0.21206 0.0
C81 C 0.30029 0.96368 0.18257 0.0
C82 C 0.32472 0.97835 0.10012 0.0
N83 N 0.23051 0.03874 0.20768 0.0
H84 H 0.49756 0.29317 0.06155 0.0
H85 H 0.57753 0.25734 0.32193 0.0
H86 H 0.58604 0.36506 0.17455 0.0
H87 H 0.56448 0.20181 0.18454 0.0
C88 C 0.53824 0.20258 0.22935 0.0
C89 C 0.52189 0.29844 0.11502 0.0
C90 C 0.54147 0.33267 0.10321 0.0
C91 C 0.53524 0.27054 0.19448 0.0
C92 C 0.56737 0.27772 0.26017 0.0
C93 C 0.58585 0.31124 0.2519 0.0
C94 C 0.57238 0.33845 0.17611 0.0
N95 N 0.51697 0.23569 0.21316 0.0
Tb96 Tb 1.00297 0.06241 0.676 0.0
C97 C 0.11917 0.09262 1.02591 0.0
N98 N 0.12159 0.07151 0.92746 0.0
C99 C 0.18 0.09897 0.8823 0.0
C100 C 0.14642 0.11904 0.05327 0.0
C101 C 0.15147 0.07429 0.85546 0.0
C102 C 0.17752 0.12142 0.98181 0.0
C103 C 0.08288 0.11287 0.19133 0.0
C104 C 0.08809 0.08893 0.09563 0.0
C105 C 0.10906 0.14027 0.2155 0.0
C106 C 0.14123 0.14285 0.14872 0.0
Tb107 Tb 0.07545 1.02935 0.90216 0.0
N108 N 0.06308 0.062 0.06974 0.0
C109 C 0.05208 0.10793 0.26228 0.0
C110 C 0.03623 0.05379 0.14907 0.0
C111 C 1.02944 0.07742 0.24371 0.0
H112 H 0.15366 0.0569 0.77877 0.0
H113 H 1.00692 0.07193 0.30284 0.0
H114 H 0.92636 0.08883 0.80908 0.0
H115 H 1.02526 0.97437 0.29934 0.0
H116 H 1.02012 1.02894 0.14163 0.0
H117 H 0.04691 0.1262 0.33567 0.0
H118 H 0.04316 1.01833 0.45563 0.0
H119 H 0.20375 0.10087 0.82578 0.0
H120 H 0.10467 0.15897 0.28729 0.0
H121 H 0.16171 0.1636 0.1702 0.0
H122 H 0.86023 0.07277 0.80223 0.0
H123 H 0.19929 0.14109 1.00104 0.0
H124 H 0.96038 0.95388 0.27949 0.0
N125 N 0.94072 0.05177 0.67159 0.0
C126 C 0.92823 1.02731 0.58993 0.0
C127 C 0.87909 0.05968 0.74219 0.0
C128 C 0.8907 1.01743 0.58239 0.0
C129 C 0.91667 0.06847 0.74643 0.0
C130 C 0.86605 0.03389 0.66022 0.0
N131 N 0.98923 1.02204 0.52624 0.0
C132 C 1.01485 1.00956 0.44843 0.0
C133 C 0.94177 0.98713 0.42561 0.0
C134 C 0.95327 1.0123 0.5132 0.0
C135 C 0.96809 0.97322 0.3483 0.0
C136 C 1.00476 0.98467 0.35941 0.0
H137 H 0.83696 1.02708 0.65728 0.0
H138 H 0.85045 0.98314 0.49159 0.0
H139 H 0.89509 0.95711 0.35258 0.0
O140 O 1.02488 0.09646 0.54687 0.0
O141 O 1.00386 1.00109 0.68996 0.0
O142 O 0.05963 0.98465 0.77563 0.0
O143 O 0.96989 0.10558 0.61003 0.0
O144 O 0.06201 0.06306 0.61717 0.0
O145 O 0.09388 1.01967 0.72367 0.0
O146 O 0.08381 0.99205 0.04151 0.0
O147 O 0.07423 0.08816 0.84002 0.0
O148 O 1.01362 0.09979 0.82757 0.0
O149 O 0.12765 1.00562 0.926 0.0
O150 O 1.01657 1.01403 0.93876 0.0
O151 O 0.98746 0.06412 0.86231 0.0
C152 C 1.02984 0.97651 0.71182 0.0
C153 C 1.00814 0.15788 0.58318 0.0
C154 C 0.05644 0.20487 0.6064 0.0
C155 C 1.02855 0.23133 0.62285 0.0
C156 C 0.98112 0.18472 0.59951 0.0
C157 C 0.99139 0.2211 0.62197 0.0
C158 C 0.04555 0.16789 0.59327 0.0
C159 C 0.09071 0.04089 0.63119 0.0
C160 C 0.99767 0.11959 0.55392 0.0
C161 C 0.87909 0.99152 0.49764 0.0
C162 C 0.90452 0.97663 0.41869 0.0
C163 C 0.04682 0.11128 0.85658 0.0
C164 C 0.11952 0.94356 0.9638 0.0
C165 C 0.0866 0.88717 0.91226 0.0
C166 C 0.11614 0.87629 0.84157 0.0
C167 C 0.14911 0.93234 0.89353 0.0
C168 C 0.08955 0.91992 0.97696 0.0
C169 C 0.14752 0.89863 0.83388 0.0
C170 C 0.98694 0.03515 0.93069 0.0
C171 C 0.11585 0.98215 1.0019 0.0
H172 H 0.03477 0.26035 0.62952 0.0
H173 H 0.95213 0.17764 0.59389 0.0
H174 H 0.97039 0.24183 0.63332 0.0
H175 H 0.06624 0.14678 0.58614 0.0
H176 H 0.11508 0.85054 0.79343 0.0
H177 H 0.1727 0.95022 0.88115 0.0
H178 H 0.06797 0.92751 0.03735 0.0
H179 H 0.17022 0.89028 0.77906 0.0
Tb180 Tb 0.53807 0.08087 0.85946 0.0
C181 C 0.55123 0.91635 0.66984 0.0
N182 N 0.55834 0.94799 0.61064 0.0
C183 C 0.60669 0.91775 0.50515 0.0
C184 C 0.57049 0.88368 0.64464 0.0
C185 C 0.58491 0.94861 0.52597 0.0
C186 C 0.59919 0.88495 0.56373 0.0
C187 C 0.51324 0.88321 0.80856 0.0
C188 C 0.52298 0.91614 0.75072 0.0
C189 C 0.53131 0.85038 0.78009 0.0
C190 C 0.55969 0.85061 0.69758 0.0
Tb191 Tb 0.52009 0.99641 0.65095 0.0
N192 N 0.50505 0.94817 0.7725 0.0
C193 C 0.48517 0.8841 0.89175 0.0
C194 C 0.47774 0.949 0.85419 0.0
C195 C 0.46756 0.91725 0.91534 0.0
H196 H 0.58855 0.9725 0.47084 0.0
H197 H 0.44618 0.91845 0.98097 0.0
H198 H 0.49436 0.07407 0.11287 0.0
H199 H 0.57033 0.1995 0.59553 0.0
H200 H 0.46488 0.97421 0.87718 0.0
H201 H 0.47704 0.85947 0.93858 0.0
H202 H 0.5764 0.13524 0.6643 0.0
H203 H 0.62816 0.91886 0.43984 0.0
H204 H 0.52348 0.82467 0.8212 0.0
H205 H 0.573 0.82501 0.67455 0.0
H206 H 0.45692 0.11422 0.24007 0.0
H207 H 0.61497 0.86055 0.5433 0.0
H208 H 0.52373 0.24017 0.68462 0.0
N209 N 0.49949 0.11397 0.97682 0.0
C210 C 0.49145 0.14858 0.94012 0.0
C211 C 0.4663 0.12414 0.15572 0.0
C212 C 0.47053 0.17254 1.01043 0.0
C213 C 0.48709 0.10136 0.08299 0.0
C214 C 0.45797 0.1599 0.11932 0.0
N215 N 0.53172 0.13863 0.78247 0.0
C216 C 0.55567 0.15269 0.70183 0.0
C217 C 0.50409 0.19843 0.80487 0.0
C218 C 0.50786 0.16126 0.83844 0.0
C219 C 0.52579 0.2118 0.71304 0.0
C220 C 0.5523 0.18903 0.66307 0.0
H221 H 0.4422 0.17763 0.17651 0.0
H222 H 0.44822 0.22756 1.0251 0.0
H223 H 0.47771 0.2503 0.84517 0.0
O224 O 0.59525 0.08158 0.89696 0.0
O225 O 0.51114 0.09367 0.68762 0.0
O226 O 0.52985 0.04882 0.55682 0.0
O227 O 0.55702 0.1091 1.00974 0.0
O228 O 0.58673 0.06366 0.75147 0.0
O229 O 0.57342 1.02155 0.60237 0.0
O230 O 0.46694 0.98647 0.58239 0.0
O231 O 0.55208 0.98743 0.81593 0.0
O232 O 0.53032 1.02783 0.95377 0.0
O233 O 0.5147 0.97042 0.48538 0.0
O234 O 0.47097 1.02713 0.71578 0.0
O235 O 0.4873 0.0497 0.8974 0.0
C236 C 0.51962 0.08295 0.58007 0.0
C237 C 0.61239 0.14055 0.97065 0.0
C238 C 0.67181 0.17199 0.97325 0.0
C239 C 0.65411 0.20603 0.96266 0.0
C240 C 0.59501 0.17507 0.96434 0.0
C241 C 0.61574 0.20745 0.95714 0.0
C242 C 0.65074 0.13933 0.97366 0.0
C243 C 0.59692 0.04318 0.66007 0.0
C244 C 0.5912 0.10582 0.98072 0.0
C245 C 0.46446 0.20882 0.97276 0.0
C246 C 0.48116 0.22174 0.87 0.0
C247 C 0.54432 0.99551 0.92619 0.0
C248 C 0.46211 0.93107 0.4751 0.0
C249 C 0.40634 0.89542 0.43369 0.0
C250 C 0.42672 0.86279 0.43894 0.0
C251 C 0.48243 0.89824 0.47546 0.0
C252 C 0.42417 0.92929 0.45433 0.0
C253 C 0.46467 0.8643 0.46031 0.0
C254 C 0.46163 0.04079 0.81929 0.0
C255 C 0.47921 0.96768 0.49347 0.0
H256 H 0.66984 0.23143 0.96532 0.0
H257 H 0.56552 0.17738 0.96873 0.0
H258 H 0.60196 0.23378 0.95282 0.0
H259 H 0.66407 0.11293 0.98589 0.0
H260 H 0.41356 0.83643 0.42266 0.0
H261 H 0.51198 0.89867 0.48407 0.0
H262 H 0.40876 0.95475 0.44828 0.0
H263 H 0.4805 0.83917 0.46163 0.0
Tb264 Tb 0.57741 0.5302 0.6814 0.0
C265 C 0.42127 0.51981 0.93417 0.0
N266 N 0.43535 0.54448 0.85717 0.0
C267 C 0.37622 0.54918 0.76123 0.0
C268 C 0.38417 0.50833 0.92702 0.0
C269 C 0.41319 0.55986 0.77257 0.0
C270 C 0.36166 0.52316 0.83843 0.0
C271 C 0.43078 0.48158 0.10609 0.0
C272 C 0.44416 0.50644 1.0215 0.0
C273 C 0.39408 0.46933 0.0982 0.0
C274 C 0.37082 0.48263 1.00864 0.0
Tb275 Tb 0.49663 0.55873 0.8803 0.0
N276 N 0.47989 0.51749 1.02213 0.0
C277 C 0.45488 0.46947 0.19481 0.0
C278 C 0.5034 0.50621 0.10944 0.0
C279 C 0.4913 0.48207 0.19692 0.0
H280 H 0.42377 0.58081 0.71447 0.0
H281 H 0.51015 0.47291 0.26513 0.0
H282 H 0.65299 0.56281 0.81466 0.0
H283 H 0.51453 0.56165 0.2567 0.0
H284 H 0.53164 0.51552 0.11086 0.0
H285 H 0.44574 0.4503 0.26142 0.0
H286 H 0.52792 0.52152 0.42465 0.0
H287 H 0.35893 0.56122 0.69342 0.0
H288 H 0.38336 0.44983 0.16135 0.0
H289 H 0.34245 0.47327 1.00427 0.0
H290 H 0.69957 0.61103 0.77667 0.0
H291 H 0.33298 0.51507 0.82985 0.0
H292 H 0.55239 0.6168 0.22279 0.0
N293 N 0.6209 0.57521 0.66215 0.0
C294 C 0.61816 0.59533 0.56179 0.0
C295 C 0.67653 0.60726 0.71654 0.0
C296 C 0.64363 0.62367 0.53836 0.0
C297 C 0.6498 0.58044 0.73894 0.0
C298 C 0.67333 0.62912 0.61612 0.0
N299 N 0.56565 0.55945 0.50643 0.0
C300 C 0.54196 0.54762 0.41956 0.0
C301 C 0.58494 0.60925 0.38163 0.0
C302 C 0.58911 0.58792 0.48388 0.0
C303 C 0.55686 0.6005 0.30141 0.0
C304 C 0.53563 0.56918 0.31975 0.0
H305 H 0.69382 0.65022 0.59966 0.0
H306 H 0.65773 0.66763 0.41868 0.0
H307 H 0.60529 0.65475 0.2846 0.0
O308 O 0.58721 0.48245 0.57766 0.0
O309 O 0.57079 0.5893 0.73838 0.0
O310 O 0.50935 0.59734 0.73447 0.0
O311 O 0.63123 0.51701 0.63459 0.0
O312 O 0.52019 0.51226 0.62587 0.0
O313 O 0.48734 0.56116 0.6899 0.0
O314 O 0.51203 0.59353 1.01878 0.0
O315 O 0.50376 0.49738 0.86618 0.0
O316 O 0.56455 0.48825 0.81494 0.0
O317 O 0.45906 0.59964 0.93393 0.0
O318 O 0.55306 0.56385 0.96142 0.0
O319 O 0.59514 0.52622 0.86753 0.0
C320 C 0.54238 0.61067 0.71406 0.0
C321 C 0.64594 0.45493 0.61464 0.0
C322 C 0.66657 0.39322 0.56756 0.0
C323 C 0.6927 0.39476 0.65887 0.0
C324 C 0.67239 0.45653 0.70644 0.0
C325 C 0.69568 0.42658 0.72787 0.0
C326 C 0.6435 0.4233 0.54553 0.0
C327 C 0.48978 0.53234 0.62168 0.0
C328 C 0.62275 0.48669 0.58314 0.0
C329 C 0.6387 0.64546 0.43806 0.0
C330 C 0.6092 0.63829 0.36119 0.0
C331 C 0.53298 0.47571 0.85614 0.0
C332 C 0.49284 0.65405 0.97829 0.0
C333 C 0.53916 0.70324 0.9673 0.0
C334 C 0.51038 0.72884 0.95288 0.0
C335 C 0.46478 0.68004 0.96433 0.0
C336 C 0.52983 0.66568 0.97277 0.0
C337 C 0.47363 0.71714 0.94889 0.0
C338 C 0.58479 0.54585 0.9594 0.0
C339 C 0.48387 0.61502 1.00158 0.0
H340 H 0.71032 0.37145 0.6772 0.0
H341 H 0.67527 0.48084 0.76116 0.0
H342 H 0.71584 0.42796 0.79868 0.0
H343 H 0.62333 0.42191 0.47434 0.0
H344 H 0.51575 0.75813 0.95138 0.0
H345 H 0.4361 0.67172 0.96654 0.0
H346 H 0.55145 0.64539 0.97766 0.0
H347 H 0.45183 0.73717 0.93927 0.0
Tb348 Tb 0.04059 0.58549 0.67972 0.0
C349 C 0.08074 0.441 0.95608 0.0
N350 N 0.05368 0.44715 0.87487 0.0
C351 C 0.06291 0.38688 0.79336 0.0
C352 C 0.10055 0.40776 0.95719 0.0
C353 C 0.04443 0.42055 0.79416 0.0
C354 C 0.0911 0.38046 0.87529 0.0
C355 C 0.11783 0.46376 0.11972 0.0
C356 C 0.08881 0.46839 0.03764 0.0
C357 C 0.13822 0.43104 0.11931 0.0
C358 C 0.12936 0.40293 0.03909 0.0
Tb359 Tb 1.02522 0.50309 0.88639 0.0
N360 N 0.06954 0.50039 1.03189 0.0
C361 C 0.12606 0.49253 0.1977 0.0
C362 C 0.07655 0.5279 0.11147 0.0
C363 C 0.10502 0.52451 0.19457 0.0
H364 H 1.02186 0.42467 0.73292 0.0
H365 H 0.11082 0.5467 0.25582 0.0
H366 H 0.99516 0.65214 0.81695 0.0
H367 H 1.01693 0.51906 0.25477 0.0
H368 H 0.06062 0.55262 0.11199 0.0
H369 H 0.14861 0.49038 0.2604 0.0
H370 H 0.05526 0.53881 0.42246 0.0
H371 H 0.05521 0.36581 0.73017 0.0
H372 H 0.16098 0.42718 0.18043 0.0
H373 H 0.14513 0.3777 0.04059 0.0
H374 H 0.93955 0.68963 0.7805 0.0
H375 H 0.10526 0.35433 0.87532 0.0
H376 H 0.95546 0.54611 0.22319 0.0
N377 N 0.98897 0.62098 0.65889 0.0
C378 C 0.96915 0.61558 0.55797 0.0
C379 C 0.9475 0.66881 0.71751 0.0
C380 C 0.93672 0.63574 0.53527 0.0
C381 C 0.97886 0.64746 0.7382 0.0
C382 C 0.9263 0.66288 0.61584 0.0
N383 N 1.01249 0.57012 0.50322 0.0
C384 C 1.02724 0.54847 0.41698 0.0
C385 C 0.95883 0.58002 0.37985 0.0
C386 C 0.98036 0.58824 0.48065 0.0
C387 C 0.97148 0.55359 0.30071 0.0
C388 C 1.00621 0.53832 0.31818 0.0
H389 H 0.90161 0.67898 0.60127 0.0
H390 H 0.88977 0.64194 0.4176 0.0
H391 H 0.90926 0.59307 0.28221 0.0
O392 O 0.08156 0.60274 0.56106 0.0
O393 O 0.98371 0.5719 0.74279 0.0
O394 O 0.98326 0.50999 0.74382 0.0
O395 O 0.04932 0.64193 0.65379 0.0
O396 O 0.06331 0.53044 0.62509 0.0
O397 O 1.0203 0.49091 0.698 0.0
O398 O 0.98379 0.50913 1.01207 0.0
O399 O 0.08449 0.51549 0.85273 0.0
O400 O 0.08696 0.5771 0.80689 0.0
O401 O 0.99919 0.45541 0.95097 0.0
O402 O 1.01236 0.55888 0.96166 0.0
O403 O 0.04679 0.60275 0.86426 0.0
C404 C 0.96585 0.54093 0.72144 0.0
C405 C 0.11187 0.65608 0.63572 0.0
C406 C 0.17856 0.66088 0.63923 0.0
C407 C 0.17714 0.68809 0.72626 0.0
C408 C 0.1104 0.68358 0.72341 0.0
C409 C 0.14292 0.69943 0.76819 0.0
C410 C 0.14609 0.64532 0.59374 0.0
C411 C 0.04626 0.498 0.62219 0.0
C412 C 0.07837 0.63712 0.59166 0.0
C413 C 0.91505 0.62716 0.43586 0.0
C414 C 0.92581 0.59898 0.35958 0.0
C415 C 0.10295 0.5468 0.84638 0.0
C416 C 0.93617 0.46989 0.94777 0.0
C417 C 0.87713 0.49873 0.90557 0.0
C418 C 0.86987 0.47243 0.81768 0.0
C419 C 0.92871 0.44364 0.85912 0.0
C420 C 0.90973 0.49644 0.97222 0.0
C421 C 0.89554 0.44479 0.79541 0.0
C422 C 1.02751 0.59224 0.95571 0.0
C423 C 0.97345 0.4749 0.9983 0.0
H424 H 0.20221 0.7004 0.76109 0.0
H425 H 0.08429 0.69262 0.75828 0.0
H426 H 0.14156 0.72041 0.83576 0.0
H427 H 0.14768 0.62439 0.52562 0.0
H428 H 0.84431 0.47304 0.76764 0.0
H429 H 0.94886 0.42299 0.83633 0.0
H430 H 0.91492 0.5158 0.0434 0.0
H431 H 0.89001 0.42462 0.72718 0.0
C432 C 0.14754 0.05794 0.34842 0.0
C433 C 0.17556 1.03134 0.35417 0.0
C434 C 0.12096 0.06176 0.43877 0.0
C435 C 0.12085 0.03871 0.53891 0.0
H436 H 0.14544 0.07483 0.27097 0.0
H437 H 0.09994 0.08248 0.42928 0.0
S438 S 0.19124 0.96661 0.60122 0.0
N439 N 0.20299 0.98306 0.47158 0.0
N440 N 0.15451 0.99001 0.64075 0.0
C441 C 0.1501 1.01302 0.54755 0.0
C442 C 0.17684 1.00928 0.45552 0.0
C443 C 0.50149 0.17113 0.39575 0.0
C444 C 0.53075 0.17135 0.31477 0.0
C445 C 0.49716 0.14209 0.47873 0.0
C446 C 0.52159 0.11174 0.48367 0.0
H447 H 0.48225 0.1938 0.39676 0.0
H448 H 0.47486 0.14376 0.54106 0.0
S449 S 0.6038 0.10002 0.29587 0.0
N450 N 0.58532 0.13889 0.24977 0.0
N451 N 0.57657 0.0849 0.40073 0.0
C452 C 0.55051 0.11163 0.40217 0.0
C453 C 0.55526 0.14122 0.3197 0.0
C454 C 0.40722 0.48589 0.4631 0.0
C455 C 0.39238 0.51378 0.38979 0.0
C456 C 0.43987 0.49108 0.53127 0.0
C457 C 0.4588 0.52499 0.53342 0.0
H458 H 0.39289 0.45979 0.4699 0.0
H459 H 0.44921 0.46892 0.58763 0.0
S460 S 0.43256 0.60716 0.35719 0.0
N461 N 0.40085 0.57629 0.32074 0.0
N462 N 0.46022 0.58691 0.45337 0.0
C463 C 0.44457 0.55299 0.45943 0.0
C464 C 0.41206 0.54722 0.38665 0.0
C465 C 0.03539 0.41746 0.39885 0.0
C466 C 0.07195 0.40847 0.37012 0.0
C467 C 1.02737 0.44657 0.47865 0.0
C468 C 0.05534 0.46862 0.53192 0.0
H469 H 1.01282 0.40194 0.35988 0.0
H470 H 0.99886 0.45192 0.49867 0.0
S471 S 0.15556 0.45438 0.49687 0.0
N472 N 0.13649 0.42273 0.41096 0.0
N473 N 0.12107 0.47745 0.55448 0.0
C474 C 0.0918 0.45973 0.50441 0.0
C475 C 0.10008 0.42979 0.42567 0.0
C476 C 0.91021 0.0444 0.16503 0.0
C477 C 0.88302 1.0191 0.12666 0.0
C478 C 0.94372 0.04925 0.10263 0.0
C479 C 0.95268 1.02772 1.00274 0.0
H480 H 0.90474 0.06208 0.23964 0.0
H481 H 0.96212 0.071 0.13083 0.0
S482 S 0.89016 0.95956 0.86093 0.0
N483 N 0.86694 0.97389 0.97653 0.0
N484 N 0.92985 0.98193 0.86504 0.0
C485 C 0.92577 1.00238 0.96425 0.0
C486 C 0.89129 0.99822 1.02501 0.0
C487 C 0.52958 0.93108 0.19622 0.0
C488 C 0.55764 0.90447 0.18454 0.0
C489 C 0.52579 0.96098 0.11555 0.0
C490 C 0.54954 0.96541 1.01816 0.0
H491 H 0.51125 0.92964 0.27023 0.0
H492 H 0.50379 0.98053 0.12888 0.0
S493 S 0.62789 0.90396 0.94873 0.0
N494 N 0.61003 0.88577 0.06846 0.0
N495 N 0.60223 0.94003 0.91723 0.0
C496 C 0.57723 0.93866 1.00538 0.0
C497 C 0.58143 0.90891 0.088 0.0
C498 C 0.64225 0.52929 0.2463 0.0
C499 C 0.66519 0.56079 0.2537 0.0
C500 C 0.61641 0.52434 0.15155 0.0
C501 C 0.61192 0.55088 0.0611 0.0
H502 H 0.64359 0.5088 0.31527 0.0
H503 H 0.59948 0.49973 0.15002 0.0
S504 S 0.66769 0.63602 0.03259 0.0
N505 N 0.6833 0.61713 0.15514 0.0
N506 N 0.63418 0.60885 0.98469 0.0
C507 C 0.63495 0.58203 0.06766 0.0
C508 C 0.66156 0.58667 0.16156 0.0
C509 C 0.97847 0.65059 0.18988 0.0
C510 C 1.00537 0.67549 0.23377 0.0
C511 C 0.9864 0.62303 0.1057 0.0
C512 C 1.02123 0.62002 0.05402 0.0
H513 H 0.95041 0.65285 0.21978 0.0
H514 H 0.9646 0.60456 0.07767 0.0
S515 S 0.10188 0.67948 0.12927 0.0
N516 N 0.0691 0.69507 0.21599 0.0
N517 N 0.08328 0.64548 0.05172 0.0
C518 C 0.04849 0.6453 0.09427 0.0
C519 C 0.04078 0.67247 0.18467 0.0
C520 C 0.14017 0.21248 0.4191 0.0
C521 C 0.13851 0.25089 0.40712 0.0
C522 C 0.11633 0.19511 0.49836 0.0
C523 C 0.09497 0.21645 0.57653 0.0
H524 H 0.1536 0.19604 0.35308 0.0
H525 H 0.11241 0.16583 0.48847 0.0
S526 S 0.12391 0.31016 0.66819 0.0
N527 N 0.14447 0.30341 0.54089 0.0
N528 N 0.09964 0.27252 0.69453 0.0
C529 C 0.10809 0.25234 0.59788 0.0
C530 C 0.13192 0.26909 0.51467 0.0
C531 C 0.31546 0.93735 0.37827 0.0
C532 C 0.31279 0.93223 0.2556 0.0
C533 C 0.3427 0.91934 0.44387 0.0
C534 C 0.36813 0.89622 0.38805 0.0
H535 H 0.30022 0.95906 0.42115 0.0
H536 H 0.34728 0.9277 0.53454 0.0
S537 S 0.3633 0.86358 0.07899 0.0
N538 N 0.32977 0.89395 0.08925 0.0
N539 N 0.38239 0.86137 0.21143 0.0
C540 C 0.36094 0.88543 0.27123 0.0
C541 C 0.33274 0.90327 0.20496 0.0
C542 C 0.61157 0.3156 0.45512 0.0
C543 C 0.61664 0.32015 0.33335 0.0
C544 C 0.63325 0.33526 0.5361 0.0
C545 C 0.66023 0.36001 0.49709 0.0
H546 H 0.58819 0.30023 0.48785 0.0
H547 H 0.62566 0.33467 0.62803 0.0
S548 S 0.6909 0.37358 0.19065 0.0
N549 N 0.65618 0.34418 0.17962 0.0
N550 N 0.69597 0.38242 0.3327 0.0
C551 C 0.66915 0.3605 0.37744 0.0
C552 C 0.64743 0.3402 0.295 0.0
C553 C 0.24174 0.64256 0.39732 0.0
C554 C 0.25034 0.60561 0.42006 0.0
C555 C 0.2235 0.66369 0.48118 0.0
C556 C 0.21308 0.64811 0.58878 0.0
H557 H 0.24641 0.65417 0.3109 0.0
H558 H 0.21351 0.69065 0.45607 0.0
S559 S 0.23496 0.55469 0.69714 0.0
N560 N 0.25221 0.55604 0.56315 0.0
N561 N 0.21708 0.59577 0.72055 0.0
C562 C 0.22544 0.61272 0.61764 0.0
C563 C 0.24422 0.59128 0.53267 0.0
C564 C 0.04189 0.81096 0.06358 0.0
C565 C 1.01192 0.82999 0.11294 0.0
C566 C 0.06314 0.82706 0.97613 0.0
C567 C 0.05505 0.86263 0.93678 0.0
H568 H 0.05217 0.78585 0.10306 0.0
H569 H 0.08898 0.81405 0.95411 0.0
S570 S 0.9713 0.91635 1.00314 0.0
N571 N 0.96921 0.88063 0.09236 0.0
N572 N 1.00841 0.91042 0.92255 0.0
C573 C 1.02061 0.87781 0.96585 0.0
C574 C 0.99945 0.86187 0.05729 0.0
C575 C 0.74027 0.16359 0.20616 0.0
C576 C 0.75676 0.13064 0.16943 0.0
C577 C 0.71733 0.18313 0.12941 0.0
C578 C 0.7102 0.16973 1.01522 0.0
H579 H 0.74118 0.17153 0.29819 0.0
H580 H 0.70061 0.20491 0.16587 0.0
S581 S 0.75782 0.09345 0.86505 0.0
N582 N 0.77287 0.09179 1.00263 0.0
N583 N 0.73008 0.12927 0.85853 0.0
C584 C 0.73286 0.14193 0.97089 0.0
C585 C 0.75597 0.12178 0.04882 0.0
C586 C 0.62597 0.71202 0.15149 0.0
C587 C 0.62536 0.75032 0.16227 0.0
C588 C 0.59877 0.69486 0.0812 0.0
C589 C 0.5771 0.71584 1.0021 0.0
H590 H 0.64178 0.69615 0.21414 0.0
H591 H 0.59337 0.66608 0.09583 0.0
S592 S 0.60822 0.80709 0.89836 0.0
N593 N 0.63072 0.80103 1.02381 0.0
N594 N 0.58133 0.77065 0.87932 0.0
C595 C 0.59061 0.75127 0.97698 0.0
C596 C 0.6169 0.7678 0.05505 0.0
C597 C 0.79765 0.52498 0.07972 0.0
C598 C 0.8122 0.55644 0.13619 0.0
C599 C 0.81563 0.50942 0.98423 0.0
C600 C 0.84885 0.52467 0.9453 0.0
H601 H 0.77514 0.50964 0.11833 0.0
H602 H 0.80663 0.4825 0.95407 0.0
S603 S 0.88794 0.61539 1.03191 0.0
N604 N 0.85345 0.60876 0.12317 0.0
N605 N 0.88861 0.57886 0.9452 0.0
C606 C 0.85906 0.55999 0.98587 0.0
C607 C 0.84053 0.57593 0.08249 0.0
C608 C 0.03445 0.19849 0.05449 0.0
C609 C 0.0673 0.21907 0.03954 0.0
C610 C 1.0274 0.16485 0.99232 0.0
C611 C 0.05308 0.14935 0.91313 0.0
H612 H 1.0147 0.2075 0.11913 0.0
H613 H 1.00225 0.14992 1.01093 0.0
S614 S 0.14176 0.19372 0.83272 0.0
N615 N 0.12455 0.22192 0.93195 0.0
N616 N 0.11147 0.15995 0.81674 0.0
C617 C 0.08522 0.1705 0.89394 0.0
C618 C 0.09226 0.2047 0.9565 0.0
C619 C 0.36578 0.9999 0.88588 0.0
C620 C 0.3496 1.02545 0.96431 0.0
C621 C 0.40025 1.00633 0.8324 0.0
C622 C 0.42136 0.0382 0.857 0.0
H623 H 0.35244 0.9736 0.86995 0.0
H624 H 0.41114 0.98506 0.77599 0.0
S625 S 0.38431 0.12024 1.0113 0.0
N626 N 0.35281 0.0883 0.03429 0.0
N627 N 0.41697 0.10053 0.93304 0.0
C628 C 0.40314 0.06605 0.92127 0.0
C629 C 0.36761 0.05965 0.97481 0.0
C630 C 0.5026 0.38663 1.02277 0.0
C631 C 0.53363 0.36343 1.01523 0.0
C632 C 0.50142 0.42154 0.96517 0.0
C633 C 0.5318 0.43599 0.90223 0.0
H634 H 0.47983 0.37868 0.07816 0.0
H635 H 0.47687 0.43781 0.97372 0.0
S636 S 0.61765 0.3837 0.84352 0.0
N637 N 0.59328 0.35558 0.92571 0.0
N638 N 0.59228 0.42086 0.82602 0.0
C639 C 0.56187 0.41175 0.88838 0.0
C640 C 0.56244 0.37592 0.94274 0.0
C641 C 0.1892 0.58395 1.01132 0.0
C642 C 0.21145 0.55259 0.03464 0.0
C643 C 0.15559 0.5821 0.94685 0.0
C644 C 0.14185 0.5488 0.89973 0.0
H645 H 0.19719 0.6105 0.04703 0.0
H646 H 0.13959 0.60701 0.93764 0.0
S647 S 0.19373 0.46064 0.90173 0.0
N648 N 0.21963 0.48826 0.98389 0.0
N649 N 0.15762 0.48506 0.85962 0.0
C650 C 0.16543 0.51792 0.91134 0.0
C651 C 0.19976 0.51976 0.97848 0.0
C652 C 0.98702 0.88714 0.57626 0.0
C653 C 1.0174 0.86724 0.53203 0.0
C654 C 0.99122 0.92151 0.636 0.0
C655 C 1.0261 0.93822 0.65538 0.0
H656 H 0.95941 0.87676 0.56016 0.0
H657 H 0.96667 0.93547 0.66543 0.0
S658 S 0.11412 0.90066 0.54273 0.0
N659 N 0.08335 0.86922 0.50362 0.0
N660 N 0.09138 0.93261 0.61544 0.0
C661 C 0.05664 0.91867 0.61101 0.0
C662 C 0.05228 0.88382 0.54961 0.0
C663 C 0.68974 1.02129 0.50247 0.0
C664 C 0.70852 0.05534 0.49869 0.0
C665 C 0.65487 1.01737 0.55803 0.0
C666 C 0.63625 0.04716 0.61209 0.0
H667 H 0.70125 0.99771 0.45772 0.0
H668 H 0.64262 0.99043 0.55855 0.0
S669 S 0.67497 0.14166 0.63888 0.0
N670 N 0.70675 0.11897 0.5658 0.0
N671 N 0.64216 0.11144 0.66642 0.0
C672 C 0.65592 0.08073 0.61535 0.0
C673 C 0.69142 0.08481 0.55961 0.0
C674 C 0.52699 0.69623 0.51123 0.0
C675 C 0.55817 0.71903 0.53156 0.0
C676 C 0.52148 0.66243 0.57305 0.0
C677 C 0.54718 0.64882 0.65716 0.0
H678 H 0.50742 0.70369 0.44284 0.0
H679 H 0.49747 0.64602 0.5508 0.0
S680 S 0.6317 0.69927 0.75258 0.0
N681 N 0.61393 0.72589 0.64905 0.0
N682 N 0.6035 0.66367 0.76421 0.0
C683 C 0.5776 0.67214 0.68169 0.0
C684 C 0.58312 0.70653 0.61928 0.0
C685 C 0.86657 0.57135 0.6275 0.0
C686 C 0.85402 0.54339 0.5499 0.0
C687 C 0.90199 0.57011 0.68325 0.0
C688 C 0.92698 0.54079 0.66617 0.0
H689 H 0.84976 0.59555 0.64017 0.0
H690 H 0.91041 0.59318 0.73743 0.0
S691 S 0.90868 0.4611 0.46816 0.0
N692 N 0.8707 0.48576 0.4572 0.0
N693 N 0.93578 0.48318 0.56249 0.0
C694 C 0.91443 0.51242 0.59034 0.0
C695 C 0.87865 0.51383 0.53256 0.0
loop_
_geom_bond_atom_site_label_1
_geom_bond_atom_site_label_2
_geom_bond_distance
_geom_bond_site_symmetry_2
_ccdc_geom_bond_type
H0 C5 0.930 . S
H1 C8 0.930 . S
H2 C10 0.930 . S
H3 C4 1.016 . S
C4 H3 1.016 . S
C4 N11 1.286 . S
C5 H0 0.930 . S
C5 C6 1.397 . S
C5 C7 1.361 . S
C6 C5 1.397 . S
C6 C10 1.390 . S
C7 C5 1.361 . S
C7 C8 1.393 . S
C7 N11 1.413 . S
C8 H1 0.930 . S
C8 C7 1.393 . S
C8 C9 1.399 . S
C9 C8 1.399 . S
C9 C10 1.381 . S
C10 H2 0.930 . S
C10 C6 1.390 . S
C10 C9 1.381 . S
N11 C4 1.286 . S
N11 C7 1.413 . S
H12 C17 0.930 . S
H13 C20 0.930 . S
H14 C22 0.930 . S
H15 C16 1.016 . S
C16 H15 1.016 . S
C16 N23 1.275 1_655 S
C17 H12 0.930 . S
C17 C18 1.397 . S
C17 C19 1.361 . S
C18 C17 1.397 . S
C18 C22 1.390 . S
C19 C17 1.361 . S
C19 C20 1.393 . S
C19 N23 1.410 1_655 S
C20 H13 0.930 . S
C20 C19 1.393 . S
C20 C21 1.399 . S
C21 C20 1.399 . S
C21 C22 1.381 . S
C22 H14 0.930 . S
C22 C18 1.390 . S
C22 C21 1.381 . S
N23 C16 1.275 1_455 S
N23 C19 1.410 1_455 S
H24 C29 0.931 . S
H25 C32 0.930 . S
H26 C34 0.930 . S
H27 C28 1.016 . S
C28 H27 1.016 . S
C28 N35 1.286 1_565 S
C29 H24 0.931 . S
C29 C30 1.397 . S
C29 C31 1.361 . S
C30 C29 1.397 . S
C30 C34 1.390 . S
C31 C29 1.361 . S
C31 C32 1.393 . S
C31 N35 1.413 1_565 S
C32 H25 0.930 . S
C32 C31 1.393 . S
C32 C33 1.399 . S
C33 C32 1.399 . S
C33 C34 1.381 . S
C34 H26 0.930 . S
C34 C30 1.390 . S
C34 C33 1.381 . S
N35 C28 1.286 1_545 S
N35 C31 1.413 1_545 S
H36 C41 0.930 . S
H37 C44 0.930 . S
H38 C46 0.930 . S
H39 C40 1.016 . S
C40 H39 1.016 . S
C40 N47 1.286 . S
C41 H36 0.930 . S
C41 C42 1.397 . S
C41 C43 1.361 . S
C42 C41 1.397 . S
C42 C46 1.390 . S
C43 C41 1.361 . S
C43 C44 1.393 . S
C43 N47 1.413 . S
C44 H37 0.930 . S
C44 C43 1.393 . S
C44 C45 1.399 . S
C45 C44 1.399 . S
C45 C46 1.381 . S
C46 H38 0.930 . S
C46 C42 1.390 . S
C46 C45 1.381 . S
N47 C40 1.286 . S
N47 C43 1.413 . S
H48 C53 0.930 . S
H49 C56 0.930 . S
H50 C58 0.930 . S
H51 C52 1.016 . S
C52 H51 1.016 . S
C52 N59 1.286 . S
C53 H48 0.930 . S
C53 C54 1.397 . S
C53 C55 1.361 1_556 S
C54 C53 1.397 . S
C54 C58 1.390 1_556 S
C55 C53 1.361 1_554 S
C55 C56 1.393 . S
C55 N59 1.413 . S
C56 H49 0.930 . S
C56 C55 1.393 . S
C56 C57 1.399 . S
C57 C56 1.399 . S
C57 C58 1.381 . S
C58 H50 0.930 . S
C58 C54 1.390 1_554 S
C58 C57 1.381 . S
N59 C52 1.286 . S
N59 C55 1.413 . S
H60 C65 0.930 . S
H61 C68 0.930 . S
H62 C70 0.930 . S
H63 C64 1.016 . S
C64 H63 1.016 . S
C64 N71 1.286 . S
C65 H60 0.930 . S
C65 C66 1.397 . S
C65 C67 1.361 1_556 S
C66 C65 1.397 . S
C66 C70 1.390 1_556 S
C67 C65 1.361 1_554 S
C67 C68 1.393 . S
C67 N71 1.413 . S
C68 H61 0.930 . S
C68 C67 1.393 . S
C68 C69 1.399 . S
C69 C68 1.399 . S
C69 C70 1.381 . S
C70 H62 0.930 . S
C70 C66 1.390 1_554 S
C70 C69 1.381 . S
N71 C64 1.286 . S
N71 C67 1.413 . S
H72 C77 0.930 . S
H73 C80 0.930 . S
H74 C82 0.930 . S
H75 C76 1.016 . S
C76 H75 1.016 . S
C76 N83 1.286 . S
C77 H72 0.930 . S
C77 C78 1.397 . S
C77 C79 1.361 1_556 S
C78 C77 1.397 . S
C78 C82 1.390 1_556 S
C79 C77 1.361 1_554 S
C79 C80 1.393 . S
C79 N83 1.413 . S
C80 H73 0.930 . S
C80 C79 1.393 . S
C80 C81 1.399 . S
C81 C80 1.399 . S
C81 C82 1.381 . S
C82 H74 0.930 . S
C82 C78 1.390 1_554 S
C82 C81 1.381 . S
N83 C76 1.286 . S
N83 C79 1.413 . S
H84 C89 0.930 . S
H85 C92 0.930 . S
H86 C94 0.930 . S
H87 C88 1.016 . S
C88 H87 1.016 . S
C88 N95 1.286 . S
C89 H84 0.930 . S
C89 C90 1.397 . S
C89 C91 1.361 1_556 S
C90 C89 1.397 . S
C90 C94 1.390 1_556 S
C91 C89 1.361 1_554 S
C91 C92 1.393 . S
C91 N95 1.413 . S
C92 H85 0.930 . S
C92 C91 1.393 . S
C92 C93 1.399 . S
C93 C92 1.399 . S
C93 C94 1.381 . S
C94 H86 0.930 . S
C94 C90 1.390 1_554 S
C94 C93 1.381 . S
N95 C88 1.286 . S
N95 C91 1.413 . S
Tb96 N125 2.617 . S
Tb96 N131 2.572 . S
Tb96 O140 2.465 . S
Tb96 O141 2.387 1_545 S
Tb96 O143 2.428 . S
Tb96 O144 2.308 1_655 S
Tb96 O148 2.349 1_655 S
Tb96 O151 2.393 . S
Tb96 C160 2.802 . S
C97 N98 1.379 1_554 S
C97 C100 1.416 . S
C97 C104 1.424 . S
N98 C97 1.379 1_556 S
N98 C101 1.334 . S
N98 Tb107 2.617 1_545 S
C99 C101 1.390 . S
C99 C102 1.339 . S
C99 H119 0.930 . S
C100 C97 1.416 . S
C100 C102 1.416 1_554 S
C100 C106 1.448 . S
C101 N98 1.334 . S
C101 C99 1.390 . S
C101 H112 0.930 1_545 S
C102 C99 1.339 . S
C102 C100 1.416 1_556 S
C102 H123 0.930 . S
C103 C104 1.413 . S
C103 C105 1.427 . S
C103 C109 1.416 . S
C104 C97 1.424 . S
C104 C103 1.413 . S
C104 N108 1.361 . S
C105 C103 1.427 . S
C105 C106 1.328 . S
C105 H120 0.929 . S
C106 C100 1.448 . S
C106 C105 1.328 . S
C106 H121 0.930 . S
Tb107 N98 2.617 1_565 S
Tb107 N108 2.572 1_566 S
Tb107 O142 2.349 . S
Tb107 O145 2.393 . S
Tb107 O146 2.465 . S
Tb107 O147 2.387 1_565 S
Tb107 O149 2.428 . S
Tb107 O150 2.308 1_465 S
Tb107 C171 2.802 . S
N108 C104 1.361 . S
N108 Tb107 2.572 1_544 S
N108 C110 1.340 . S
C109 C103 1.416 . S
C109 C111 1.332 . S
C109 H117 0.931 . S
C110 N108 1.340 . S
C110 C111 1.407 . S
C110 H116 0.955 . S
C111 C109 1.332 . S
C111 C110 1.407 . S
C111 H113 0.929 . S
H112 C101 0.930 1_565 S
H113 C111 0.929 . S
H114 C129 0.930 . S
H115 C136 0.929 1_455 S
H116 C110 0.955 . S
H117 C109 0.931 . S
H118 C132 0.930 1_455 S
H119 C99 0.930 . S
H120 C105 0.929 . S
H121 C106 0.930 . S
H122 C127 0.930 . S
H123 C102 0.930 . S
H124 C135 0.931 . S
N125 Tb96 2.617 . S
N125 C126 1.379 1_545 S
N125 C129 1.334 . S
C126 N125 1.379 1_565 S
C126 C128 1.416 . S
C126 C134 1.424 . S
C127 H122 0.930 . S
C127 C129 1.390 . S
C127 C130 1.339 1_545 S
C128 C126 1.416 . S
C128 C130 1.416 . S
C128 C161 1.448 . S
C129 H114 0.930 . S
C129 N125 1.334 . S
C129 C127 1.390 . S
C130 C127 1.339 1_565 S
C130 C128 1.416 . S
C130 H137 0.930 . S
N131 Tb96 2.572 . S
N131 C132 1.340 . S
N131 C134 1.361 1_545 S
C132 H118 0.930 1_655 S
C132 N131 1.340 . S
C132 C136 1.407 1_545 S
C133 C134 1.413 . S
C133 C135 1.416 . S
C133 C162 1.427 . S
C134 C126 1.424 . S
C134 N131 1.361 1_565 S
C134 C133 1.413 . S
C135 H124 0.931 . S
C135 C133 1.416 . S
C135 C136 1.332 . S
C136 H115 0.929 1_655 S
C136 C132 1.407 1_565 S
C136 C135 1.332 . S
H137 C130 0.930 . S
H138 C161 0.930 . S
H139 C162 0.929 . S
O140 Tb96 2.465 . S
O140 C160 1.264 . S
O141 Tb96 2.387 1_565 S
O141 C152 1.264 . S
O142 Tb107 2.349 . S
O142 C152 1.243 1_455 S
O143 Tb96 2.428 . S
O143 C160 1.256 . S
O144 Tb96 2.308 1_455 S
O144 C159 1.266 . S
O145 Tb107 2.393 . S
O145 C159 1.248 1_565 S
O146 Tb107 2.465 . S
O146 C171 1.264 . S
O147 Tb107 2.387 1_545 S
O147 C163 1.264 . S
O148 Tb96 2.349 1_455 S
O148 C163 1.243 . S
O149 Tb107 2.428 . S
O149 C171 1.256 . S
O150 Tb107 2.308 1_645 S
O150 C170 1.266 . S
O151 Tb96 2.393 . S
O151 C170 1.248 . S
C152 O141 1.264 . S
C152 O142 1.243 1_655 S
C153 C156 1.399 . S
C153 C158 1.383 . S
C153 C160 1.496 . S
C154 C155 1.399 . S
C154 C158 1.389 . S
C155 C154 1.399 . S
C155 C157 1.380 . S
C155 H172 0.929 . S
C156 C153 1.399 . S
C156 C157 1.392 . S
C156 H173 0.929 . S
C157 C155 1.380 . S
C157 C156 1.392 . S
C157 H174 0.929 . S
C158 C153 1.383 . S
C158 C154 1.389 . S
C158 H175 0.931 1_655 S
C159 O144 1.266 . S
C159 O145 1.248 1_545 S
C160 Tb96 2.802 . S
C160 O140 1.264 . S
C160 O143 1.256 . S
C160 C153 1.496 . S
C161 C128 1.448 . S
C161 H138 0.930 . S
C161 C162 1.328 . S
C162 C133 1.427 . S
C162 H139 0.929 . S
C162 C161 1.328 . S
C163 O147 1.264 . S
C163 O148 1.243 . S
C164 C167 1.399 . S
C164 C168 1.383 . S
C164 C171 1.496 1_554 S
C165 C166 1.399 . S
C165 C168 1.389 . S
C166 C165 1.399 . S
C166 C169 1.380 . S
C166 H176 0.929 . S
C167 C164 1.399 . S
C167 C169 1.392 . S
C167 H177 0.929 1_554 S
C168 C164 1.383 . S
C168 C165 1.389 . S
C168 H178 0.931 . S
C169 C166 1.380 . S
C169 C167 1.392 . S
C169 H179 0.929 . S
C170 O150 1.266 . S
C170 O151 1.248 . S
C171 Tb107 2.802 . S
C171 O146 1.264 . S
C171 O149 1.256 . S
C171 C164 1.496 1_556 S
H172 C155 0.929 . S
H173 C156 0.929 . S
H174 C157 0.929 . S
H175 C158 0.931 1_455 S
H176 C166 0.929 . S
H177 C167 0.929 1_556 S
H178 C168 0.931 . S
H179 C169 0.929 . S
Tb180 N209 2.617 . S
Tb180 N215 2.572 . S
Tb180 O224 2.465 . S
Tb180 O225 2.387 . S
Tb180 O227 2.428 1_556 S
Tb180 O228 2.308 . S
Tb180 O232 2.349 1_545 S
Tb180 O235 2.393 . S
Tb180 C244 2.802 1_556 S
C181 N182 1.379 . S
C181 C184 1.416 . S
C181 C188 1.424 . S
N182 C181 1.379 . S
N182 C185 1.334 . S
N182 Tb191 2.617 . S
C183 C185 1.390 . S
C183 C186 1.339 . S
C183 H203 0.930 . S
C184 C181 1.416 . S
C184 C186 1.416 . S
C184 C190 1.448 . S
C185 N182 1.334 . S
C185 C183 1.390 . S
C185 H196 0.930 . S
C186 C183 1.339 . S
C186 C184 1.416 . S
C186 H207 0.930 . S
C187 C188 1.413 . S
C187 C189 1.427 . S
C187 C193 1.416 . S
C188 C181 1.424 . S
C188 C187 1.413 . S
C188 N192 1.361 . S
C189 C187 1.427 . S
C189 C190 1.328 . S
C189 H204 0.929 . S
C190 C184 1.448 . S
C190 C189 1.328 . S
C190 H205 0.930 . S
Tb191 N182 2.617 . S
Tb191 N192 2.572 . S
Tb191 O226 2.349 1_565 S
Tb191 O229 2.393 . S
Tb191 O230 2.465 . S
Tb191 O231 2.387 . S
Tb191 O233 2.428 . S
Tb191 O234 2.308 1_565 S
Tb191 C255 2.802 . S
N192 C188 1.361 . S
N192 Tb191 2.572 . S
N192 C194 1.340 . S
C193 C187 1.416 . S
C193 C195 1.332 . S
C193 H201 0.931 . S
C194 N192 1.340 . S
C194 C195 1.407 . S
C194 H200 0.930 . S
C195 C193 1.332 . S
C195 C194 1.407 . S
C195 H197 0.929 . S
H196 C185 0.930 . S
H197 C195 0.929 . S
H198 C213 0.930 . S
H199 C220 0.929 . S
H200 C194 0.930 . S
H201 C193 0.931 . S
H202 C216 0.930 . S
H203 C183 0.930 . S
H204 C189 0.929 . S
H205 C190 0.930 . S
H206 C211 0.930 . S
H207 C186 0.930 . S
H208 C219 0.931 . S
N209 Tb180 2.617 . S
N209 C210 1.379 . S
N209 C213 1.334 1_556 S
C210 N209 1.379 . S
C210 C212 1.416 . S
C210 C218 1.424 . S
C211 H206 0.930 . S
C211 C213 1.390 . S
C211 C214 1.339 1_554 S
C212 C210 1.416 . S
C212 C214 1.416 . S
C212 C245 1.448 . S
C213 H198 0.930 . S
C213 N209 1.334 1_554 S
C213 C211 1.390 . S
C214 C211 1.339 1_556 S
C214 C212 1.416 . S
C214 H221 0.930 1_556 S
N215 Tb180 2.572 . S
N215 C216 1.340 . S
N215 C218 1.361 . S
C216 H202 0.930 . S
C216 N215 1.340 . S
C216 C220 1.407 . S
C217 C218 1.413 . S
C217 C219 1.416 . S
C217 C246 1.427 . S
C218 C210 1.424 . S
C218 N215 1.361 . S
C218 C217 1.413 . S
C219 H208 0.931 . S
C219 C217 1.416 . S
C219 C220 1.332 . S
C220 H199 0.929 . S
C220 C216 1.407 . S
C220 C219 1.332 . S
H221 C214 0.930 1_554 S
H222 C245 0.930 . S
H223 C246 0.929 . S
O224 Tb180 2.465 . S
O224 C244 1.264 1_556 S
O225 Tb180 2.387 . S
O225 C236 1.264 . S
O226 Tb191 2.349 1_545 S
O226 C236 1.243 . S
O227 Tb180 2.428 1_554 S
O227 C244 1.256 . S
O228 Tb180 2.308 . S
O228 C243 1.275 . S
O229 Tb191 2.393 . S
O229 C243 1.243 1_565 S
O230 Tb191 2.465 . S
O230 C255 1.264 . S
O231 Tb191 2.387 . S
O231 C247 1.264 . S
O232 Tb180 2.349 1_565 S
O232 C247 1.243 . S
O233 Tb191 2.428 . S
O233 C255 1.256 . S
O234 Tb191 2.308 1_545 S
O234 C254 1.266 . S
O235 Tb180 2.393 . S
O235 C254 1.248 . S
C236 O225 1.264 . S
C236 O226 1.243 . S
C237 C240 1.399 . S
C237 C242 1.383 . S
C237 C244 1.496 . S
C238 C239 1.399 . S
C238 C242 1.389 . S
C239 C238 1.399 . S
C239 C241 1.380 . S
C239 H256 0.929 . S
C240 C237 1.399 . S
C240 C241 1.392 . S
C240 H257 0.929 . S
C241 C239 1.380 . S
C241 C240 1.392 . S
C241 H258 0.929 . S
C242 C237 1.383 . S
C242 C238 1.389 . S
C242 H259 0.931 . S
C243 O228 1.275 . S
C243 O229 1.243 1_545 S
C244 Tb180 2.802 1_554 S
C244 O224 1.264 1_554 S
C244 O227 1.256 . S
C244 C237 1.496 . S
C245 C212 1.448 . S
C245 H222 0.930 . S
C245 C246 1.328 . S
C246 C217 1.427 . S
C246 H223 0.929 . S
C246 C245 1.328 . S
C247 O231 1.264 . S
C247 O232 1.243 . S
C248 C251 1.399 . S
C248 C252 1.383 . S
C248 C255 1.496 . S
C249 C250 1.399 . S
C249 C252 1.389 . S
C250 C249 1.399 . S
C250 C253 1.380 . S
C250 H260 0.929 . S
C251 C248 1.399 . S
C251 C253 1.392 . S
C251 H261 0.929 . S
C252 C248 1.383 . S
C252 C249 1.389 . S
C252 H262 0.931 1_565 S
C253 C250 1.380 . S
C253 C251 1.392 . S
C253 H263 0.929 . S
C254 O234 1.266 . S
C254 O235 1.248 . S
C255 Tb191 2.802 . S
C255 O230 1.264 . S
C255 O233 1.256 . S
C255 C248 1.496 . S
H256 C239 0.929 . S
H257 C240 0.929 . S
H258 C241 0.929 . S
H259 C242 0.931 . S
H260 C250 0.929 . S
H261 C251 0.929 . S
H262 C252 0.931 1_545 S
H263 C253 0.929 . S
Tb264 N293 2.617 . S
Tb264 N299 2.572 . S
Tb264 O308 2.465 . S
Tb264 O309 2.387 . S
Tb264 O311 2.428 . S
Tb264 O312 2.308 . S
Tb264 O316 2.349 . S
Tb264 O319 2.393 . S
Tb264 C328 2.802 . S
C265 N266 1.379 1_554 S
C265 C268 1.416 . S
C265 C272 1.424 . S
N266 C265 1.379 1_556 S
N266 C269 1.334 . S
N266 Tb275 2.617 . S
C267 C269 1.390 . S
C267 C270 1.339 . S
C267 H287 0.930 . S
C268 C265 1.416 . S
C268 C270 1.416 1_554 S
C268 C274 1.448 . S
C269 N266 1.334 . S
C269 C267 1.390 . S
C269 H280 0.930 . S
C270 C267 1.339 . S
C270 C268 1.416 1_556 S
C270 H291 0.930 . S
C271 C272 1.413 . S
C271 C273 1.427 . S
C271 C277 1.416 . S
C272 C265 1.424 . S
C272 C271 1.413 . S
C272 N276 1.361 . S
C273 C271 1.427 . S
C273 C274 1.328 . S
C273 H288 0.929 . S
C274 C268 1.448 . S
C274 C273 1.328 . S
C274 H289 0.930 . S
Tb275 N266 2.617 . S
Tb275 N276 2.572 1_556 S
Tb275 O310 2.349 . S
Tb275 O313 2.393 . S
Tb275 O314 2.465 . S
Tb275 O315 2.387 . S
Tb275 O317 2.428 . S
Tb275 O318 2.308 . S
Tb275 C339 2.802 . S
N276 C272 1.361 . S
N276 Tb275 2.572 1_554 S
N276 C278 1.340 . S
C277 C271 1.416 . S
C277 C279 1.332 . S
C277 H285 0.931 . S
C278 N276 1.340 . S
C278 C279 1.407 . S
C278 H284 0.930 . S
C279 C277 1.332 . S
C279 C278 1.407 . S
C279 H281 0.929 . S
H280 C269 0.930 . S
H281 C279 0.929 . S
H282 C297 0.930 . S
H283 C304 0.929 . S
H284 C278 0.930 . S
H285 C277 0.931 . S
H286 C300 0.930 . S
H287 C267 0.930 . S
H288 C273 0.929 . S
H289 C274 0.930 . S
H290 C295 0.930 . S
H291 C270 0.930 . S
H292 C303 0.931 . S
N293 Tb264 2.617 . S
N293 C294 1.379 . S
N293 C297 1.334 . S
C294 N293 1.379 . S
C294 C296 1.416 . S
C294 C302 1.424 . S
C295 H290 0.930 . S
C295 C297 1.390 . S
C295 C298 1.339 . S
C296 C294 1.416 . S
C296 C298 1.416 . S
C296 C329 1.448 . S
C297 H282 0.930 . S
C297 N293 1.334 . S
C297 C295 1.390 . S
C298 C295 1.339 . S
C298 C296 1.416 . S
C298 H305 0.930 . S
N299 Tb264 2.572 . S
N299 C300 1.340 . S
N299 C302 1.361 . S
C300 H286 0.930 . S
C300 N299 1.340 . S
C300 C304 1.407 . S
C301 C302 1.413 . S
C301 C303 1.416 . S
C301 C330 1.427 . S
C302 C294 1.424 . S
C302 N299 1.361 . S
C302 C301 1.413 . S
C303 H292 0.931 . S
C303 C301 1.416 . S
C303 C304 1.332 . S
C304 H283 0.929 . S
C304 C300 1.407 . S
C304 C303 1.332 . S
H305 C298 0.930 . S
H306 C329 0.930 . S
H307 C330 0.929 . S
O308 Tb264 2.465 . S
O308 C328 1.264 . S
O309 Tb264 2.387 . S
O309 C320 1.264 . S
O310 Tb275 2.349 . S
O310 C320 1.243 . S
O311 Tb264 2.428 . S
O311 C328 1.256 . S
O312 Tb264 2.308 . S
O312 C327 1.266 . S
O313 Tb275 2.393 . S
O313 C327 1.248 . S
O314 Tb275 2.465 . S
O314 C339 1.264 . S
O315 Tb275 2.387 . S
O315 C331 1.264 . S
O316 Tb264 2.349 . S
O316 C331 1.243 . S
O317 Tb275 2.428 . S
O317 C339 1.256 . S
O318 Tb275 2.308 . S
O318 C338 1.266 . S
O319 Tb264 2.393 . S
O319 C338 1.248 . S
C320 O309 1.264 . S
C320 O310 1.243 . S
C321 C324 1.399 . S
C321 C326 1.383 . S
C321 C328 1.496 . S
C322 C323 1.399 . S
C322 C326 1.389 . S
C323 C322 1.399 . S
C323 C325 1.380 . S
C323 H340 0.929 . S
C324 C321 1.399 . S
C324 C325 1.392 . S
C324 H341 0.929 . S
C325 C323 1.380 . S
C325 C324 1.392 . S
C325 H342 0.929 . S
C326 C321 1.383 . S
C326 C322 1.389 . S
C326 H343 0.931 . S
C327 O312 1.266 . S
C327 O313 1.248 . S
C328 Tb264 2.802 . S
C328 O308 1.264 . S
C328 O311 1.256 . S
C328 C321 1.496 . S
C329 C296 1.448 . S
C329 H306 0.930 . S
C329 C330 1.328 . S
C330 C301 1.427 . S
C330 H307 0.929 . S
C330 C329 1.328 . S
C331 O315 1.264 . S
C331 O316 1.243 . S
C332 C335 1.399 . S
C332 C336 1.383 . S
C332 C339 1.496 1_554 S
C333 C334 1.399 . S
C333 C336 1.389 . S
C334 C333 1.399 . S
C334 C337 1.380 . S
C334 H344 0.929 . S
C335 C332 1.399 . S
C335 C337 1.392 . S
C335 H345 0.929 1_554 S
C336 C332 1.383 . S
C336 C333 1.389 . S
C336 H346 0.931 . S
C337 C334 1.380 . S
C337 C335 1.392 . S
C337 H347 0.929 . S
C338 O318 1.266 . S
C338 O319 1.248 . S
C339 Tb275 2.802 . S
C339 O314 1.264 . S
C339 O317 1.256 . S
C339 C332 1.496 1_556 S
H340 C323 0.929 . S
H341 C324 0.929 . S
H342 C325 0.929 . S
H343 C326 0.931 . S
H344 C334 0.929 . S
H345 C335 0.929 1_556 S
H346 C336 0.931 . S
H347 C337 0.929 . S
Tb348 N377 2.617 . S
Tb348 N383 2.572 . S
Tb348 O392 2.465 . S
Tb348 O393 2.387 1_455 S
Tb348 O395 2.428 . S
Tb348 O396 2.308 . S
Tb348 O400 2.349 . S
Tb348 O403 2.393 . S
Tb348 C412 2.802 . S
C349 N350 1.379 1_554 S
C349 C352 1.416 . S
C349 C356 1.424 . S
N350 C349 1.379 1_556 S
N350 C353 1.337 . S
N350 Tb359 2.617 1_455 S
C351 C353 1.397 . S
C351 C354 1.339 . S
C351 H371 0.930 . S
C352 C349 1.416 . S
C352 C354 1.416 1_554 S
C352 C358 1.448 . S
C353 N350 1.337 . S
C353 C351 1.397 . S
C353 H364 0.921 1_455 S
C354 C351 1.339 . S
C354 C352 1.416 1_556 S
C354 H375 0.930 . S
C355 C356 1.413 . S
C355 C357 1.427 . S
C355 C361 1.416 . S
C356 C349 1.424 . S
C356 C355 1.413 . S
C356 N360 1.361 . S
C357 C355 1.427 . S
C357 C358 1.328 . S
C357 H372 0.929 . S
C358 C352 1.448 . S
C358 C357 1.328 . S
C358 H373 0.930 . S
Tb359 N350 2.617 1_655 S
Tb359 N360 2.572 1_656 S
Tb359 O394 2.349 . S
Tb359 O397 2.393 . S
Tb359 O398 2.465 . S
Tb359 O399 2.387 1_655 S
Tb359 O401 2.428 . S
Tb359 O402 2.308 1_655 S
Tb359 C423 2.802 . S
N360 C356 1.361 . S
N360 Tb359 2.572 1_454 S
N360 C362 1.340 . S
C361 C355 1.416 . S
C361 C363 1.332 . S
C361 H369 0.931 . S
C362 N360 1.340 . S
C362 C363 1.407 . S
C362 H368 0.930 . S
C363 C361 1.332 . S
C363 C362 1.407 . S
C363 H365 0.929 . S
H364 C353 0.921 1_655 S
H365 C363 0.929 . S
H366 C381 0.930 . S
H367 C388 0.929 . S
H368 C362 0.930 . S
H369 C361 0.931 . S
H370 C384 0.930 . S
H371 C351 0.930 . S
H372 C357 0.929 . S
H373 C358 0.930 . S
H374 C379 0.930 . S
H375 C354 0.930 . S
H376 C387 0.931 . S
N377 Tb348 2.617 . S
N377 C378 1.379 1_455 S
N377 C381 1.334 . S
C378 N377 1.379 1_655 S
C378 C380 1.416 . S
C378 C386 1.424 . S
C379 H374 0.930 . S
C379 C381 1.390 . S
C379 C382 1.339 1_455 S
C380 C378 1.416 . S
C380 C382 1.416 . S
C380 C413 1.448 . S
C381 H366 0.930 . S
C381 N377 1.334 . S
C381 C379 1.390 . S
C382 C379 1.339 1_655 S
C382 C380 1.416 . S
C382 H389 0.930 . S
N383 Tb348 2.572 . S
N383 C384 1.340 . S
N383 C386 1.361 1_455 S
C384 H370 0.930 . S
C384 N383 1.340 . S
C384 C388 1.407 1_455 S
C385 C386 1.413 . S
C385 C387 1.416 . S
C385 C414 1.427 . S
C386 C378 1.424 . S
C386 N383 1.361 1_655 S
C386 C385 1.413 . S
C387 H376 0.931 . S
C387 C385 1.416 . S
C387 C388 1.332 . S
C388 H367 0.929 . S
C388 C384 1.407 1_655 S
C388 C387 1.332 . S
H389 C382 0.930 . S
H390 C413 0.930 . S
H391 C414 0.929 . S
O392 Tb348 2.465 . S
O392 C412 1.264 . S
O393 Tb348 2.387 1_655 S
O393 C404 1.264 . S
O394 Tb359 2.349 . S
O394 C404 1.243 . S
O395 Tb348 2.428 . S
O395 C412 1.256 . S
O396 Tb348 2.308 . S
O396 C411 1.266 . S
O397 Tb359 2.393 . S
O397 C411 1.248 1_655 S
O398 Tb359 2.465 . S
O398 C423 1.264 . S
O399 Tb359 2.387 1_455 S
O399 C415 1.264 . S
O400 Tb348 2.349 . S
O400 C415 1.243 . S
O401 Tb359 2.428 . S
O401 C423 1.256 . S
O402 Tb359 2.308 1_455 S
O402 C422 1.266 . S
O403 Tb348 2.393 . S
O403 C422 1.248 . S
C404 O393 1.264 . S
C404 O394 1.243 . S
C405 C408 1.399 . S
C405 C410 1.383 . S
C405 C412 1.496 . S
C406 C407 1.399 . S
C406 C410 1.389 . S
C407 C406 1.399 . S
C407 C409 1.380 . S
C407 H424 0.929 . S
C408 C405 1.399 . S
C408 C409 1.392 . S
C408 H425 0.929 . S
C409 C407 1.380 . S
C409 C408 1.392 . S
C409 H426 0.929 . S
C410 C405 1.383 . S
C410 C406 1.389 . S
C410 H427 0.931 . S
C411 O396 1.266 . S
C411 O397 1.248 1_455 S
C412 Tb348 2.802 . S
C412 O392 1.264 . S
C412 O395 1.256 . S
C412 C405 1.496 . S
C413 C380 1.448 . S
C413 H390 0.930 . S
C413 C414 1.328 . S
C414 C385 1.427 . S
C414 H391 0.929 . S
C414 C413 1.328 . S
C415 O399 1.264 . S
C415 O400 1.243 . S
C416 C419 1.399 . S
C416 C420 1.383 . S
C416 C423 1.496 1_554 S
C417 C418 1.399 . S
C417 C420 1.389 . S
C418 C417 1.399 . S
C418 C421 1.380 . S
C418 H428 0.929 . S
C419 C416 1.399 . S
C419 C421 1.392 . S
C419 H429 0.929 1_554 S
C420 C416 1.383 . S
C420 C417 1.389 . S
C420 H430 0.931 . S
C421 C418 1.380 . S
C421 C419 1.392 . S
C421 H431 0.929 . S
C422 O402 1.266 . S
C422 O403 1.248 . S
C423 Tb359 2.802 . S
C423 O398 1.264 . S
C423 O401 1.256 . S
C423 C416 1.496 1_556 S
H424 C407 0.929 . S
H425 C408 0.929 . S
H426 C409 0.929 . S
H427 C410 0.931 . S
H428 C418 0.929 . S
H429 C419 0.929 1_556 S
H430 C420 0.931 . S
H431 C421 0.929 . S
C432 C433 1.369 . S
C432 C434 1.419 . S
C432 H436 0.930 . S
C433 C432 1.369 . S
C433 C442 1.455 . S
C434 C432 1.419 . S
C434 C435 1.363 . S
C434 H437 0.929 . S
C435 C434 1.363 . S
C435 C441 1.428 1_545 S
H436 C432 0.930 . S
H437 C434 0.929 . S
S438 N439 1.613 . S
S438 N440 1.610 . S
N439 S438 1.613 . S
N439 C442 1.326 1_565 S
N440 S438 1.610 . S
N440 C441 1.351 . S
C441 C435 1.428 1_565 S
C441 N440 1.351 . S
C441 C442 1.431 1_565 S
C442 C433 1.455 . S
C442 N439 1.326 1_545 S
C442 C441 1.431 1_545 S
C443 C444 1.369 . S
C443 C445 1.419 . S
C443 H447 0.930 . S
C444 C443 1.369 . S
C444 C453 1.429 . S
C445 C443 1.419 . S
C445 C446 1.363 . S
C445 H448 0.929 . S
C446 C445 1.363 . S
C446 C452 1.428 . S
H447 C443 0.930 . S
H448 C445 0.929 . S
S449 N450 1.613 . S
S449 N451 1.610 . S
N450 S449 1.613 . S
N450 C453 1.350 . S
N451 S449 1.610 . S
N451 C452 1.351 . S
C452 C446 1.428 . S
C452 N451 1.351 . S
C452 C453 1.434 . S
C453 C444 1.429 . S
C453 N450 1.350 . S
C453 C452 1.434 . S
C454 C455 1.369 . S
C454 C456 1.419 . S
C454 H458 0.930 . S
C455 C454 1.369 . S
C455 C464 1.429 . S
C456 C454 1.419 . S
C456 C457 1.363 . S
C456 H459 0.929 . S
C457 C456 1.363 . S
C457 C463 1.428 . S
H458 C454 0.930 . S
H459 C456 0.929 . S
S460 N461 1.613 . S
S460 N462 1.610 . S
N461 S460 1.613 . S
N461 C464 1.350 . S
N462 S460 1.610 . S
N462 C463 1.351 . S
C463 C457 1.428 . S
C463 N462 1.351 . S
C463 C464 1.434 . S
C464 C455 1.429 . S
C464 N461 1.350 . S
C464 C463 1.434 . S
C465 C466 1.369 . S
C465 C467 1.419 . S
C465 H469 0.917 1_455 S
C466 C465 1.369 . S
C466 C475 1.429 . S
C467 C465 1.419 . S
C467 C468 1.363 . S
C467 H470 0.929 1_455 S
C468 C467 1.363 . S
C468 C474 1.428 . S
H469 C465 0.917 1_655 S
H470 C467 0.929 1_655 S
S471 N472 1.613 . S
S471 N473 1.610 . S
N472 S471 1.613 . S
N472 C475 1.350 . S
N473 S471 1.610 . S
N473 C474 1.351 . S
C474 C468 1.428 . S
C474 N473 1.351 . S
C474 C475 1.434 . S
C475 C466 1.429 . S
C475 N472 1.350 . S
C475 C474 1.434 . S
C476 C477 1.369 1_545 S
C476 C478 1.419 . S
C476 H480 0.930 . S
C477 C476 1.369 1_565 S
C477 C486 1.429 . S
C478 C476 1.419 . S
C478 C479 1.358 1_545 S
C478 H481 0.929 . S
C479 C478 1.358 1_565 S
C479 C485 1.437 . S
H480 C476 0.930 . S
H481 C478 0.929 . S
S482 N483 1.613 . S
S482 N484 1.610 1_554 S
N483 S482 1.613 . S
N483 C486 1.350 . S
N484 S482 1.610 1_556 S
N484 C485 1.351 1_556 S
C485 C479 1.437 . S
C485 N484 1.351 1_554 S
C485 C486 1.434 . S
C486 C477 1.429 . S
C486 N483 1.350 . S
C486 C485 1.434 . S
C487 C488 1.369 . S
C487 C489 1.419 . S
C487 H491 0.930 . S
C488 C487 1.369 . S
C488 C497 1.429 . S
C489 C487 1.419 . S
C489 C490 1.363 . S
C489 H492 0.929 . S
C490 C489 1.363 . S
C490 C496 1.428 . S
H491 C487 0.930 . S
H492 C489 0.929 . S
S493 N494 1.613 . S
S493 N495 1.610 1_554 S
N494 S493 1.613 . S
N494 C497 1.350 . S
N495 S493 1.610 1_556 S
N495 C496 1.351 1_556 S
C496 C490 1.428 . S
C496 N495 1.351 1_554 S
C496 C497 1.434 . S
C497 C488 1.429 . S
C497 N494 1.350 . S
C497 C496 1.434 . S
C498 C499 1.369 . S
C498 C500 1.419 . S
C498 H502 0.930 . S
C499 C498 1.369 . S
C499 C508 1.429 . S
C500 C498 1.419 . S
C500 C501 1.363 . S
C500 H503 0.929 . S
C501 C500 1.363 . S
C501 C507 1.428 . S
H502 C498 0.930 . S
H503 C500 0.929 . S
S504 N505 1.621 . S
S504 N506 1.607 1_554 S
N505 S504 1.621 . S
N505 C508 1.350 . S
N506 S504 1.607 1_556 S
N506 C507 1.351 1_556 S
C507 C501 1.428 . S
C507 N506 1.351 1_554 S
C507 C508 1.434 . S
C508 C499 1.429 . S
C508 N505 1.350 . S
C508 C507 1.434 . S
C509 C510 1.369 . S
C509 C511 1.419 . S
C509 H513 0.930 . S
C510 C509 1.369 . S
C510 C519 1.429 . S
C511 C509 1.419 . S
C511 C512 1.363 . S
C511 H514 0.929 1_554 S
C512 C511 1.363 . S
C512 C518 1.428 1_655 S
H513 C509 0.930 . S
H514 C511 0.929 1_556 S
S515 N516 1.613 . S
S515 N517 1.610 . S
N516 S515 1.613 . S
N516 C519 1.350 1_455 S
N517 S515 1.610 . S
N517 C518 1.351 . S
C518 C512 1.428 1_455 S
C518 N517 1.351 . S
C518 C519 1.434 1_455 S
C519 C510 1.429 . S
C519 N516 1.350 1_655 S
C519 C518 1.434 1_655 S
C520 C521 1.369 . S
C520 C522 1.419 . S
C520 H524 0.930 . S
C521 C520 1.369 . S
C521 C530 1.429 . S
C522 C520 1.419 . S
C522 C523 1.363 1_455 S
C522 H525 0.929 . S
C523 C522 1.363 1_655 S
C523 C529 1.428 . S
H524 C520 0.930 . S
H525 C522 0.929 . S
S526 N527 1.613 . S
S526 N528 1.610 . S
N527 S526 1.613 . S
N527 C530 1.350 1_655 S
N528 S526 1.610 . S
N528 C529 1.351 . S
C529 C523 1.428 . S
C529 N528 1.351 . S
C529 C530 1.434 1_655 S
C530 C521 1.429 . S
C530 N527 1.350 1_455 S
C530 C529 1.434 1_455 S
C531 C532 1.369 . S
C531 C533 1.419 . S
C531 H535 0.930 . S
C532 C531 1.369 . S
C532 C541 1.429 . S
C533 C531 1.419 . S
C533 C534 1.363 . S
C533 H536 0.929 . S
C534 C533 1.363 . S
C534 C540 1.428 . S
H535 C531 0.930 . S
H536 C533 0.929 . S
S537 N538 1.613 1_565 S
S537 N539 1.610 1_556 S
N538 S537 1.613 1_545 S
N538 C541 1.350 1_556 S
N539 S537 1.610 1_554 S
N539 C540 1.351 1_565 S
C540 C534 1.428 . S
C540 N539 1.351 1_545 S
C540 C541 1.434 . S
C541 C532 1.429 . S
C541 N538 1.350 1_554 S
C541 C540 1.434 . S
C542 C543 1.369 . S
C542 C544 1.419 . S
C542 H546 0.930 . S
C543 C542 1.369 . S
C543 C552 1.429 . S
C544 C542 1.419 . S
C544 C545 1.363 . S
C544 H547 0.929 . S
C545 C544 1.363 . S
C545 C551 1.428 . S
H546 C542 0.930 . S
H547 C544 0.929 . S
S548 N549 1.613 1_556 S
S548 N550 1.610 1_556 S
N549 S548 1.613 1_554 S
N549 C552 1.350 . S
N550 S548 1.610 1_554 S
N550 C551 1.351 . S
C551 C545 1.428 . S
C551 N550 1.351 . S
C551 C552 1.434 . S
C552 C543 1.429 . S
C552 N549 1.350 . S
C552 C551 1.434 . S
C553 C554 1.369 . S
C553 C555 1.419 . S
C553 H557 0.930 . S
C554 C553 1.369 . S
C554 C563 1.429 . S
C555 C553 1.419 . S
C555 C556 1.363 . S
C555 H558 0.929 . S
C556 C555 1.363 . S
C556 C562 1.428 . S
H557 C553 0.930 . S
H558 C555 0.929 . S
S559 N560 1.613 . S
S559 N561 1.610 . S
N560 S559 1.613 . S
N560 C563 1.350 . S
N561 S559 1.610 . S
N561 C562 1.351 . S
C562 C556 1.428 . S
C562 N561 1.351 . S
C562 C563 1.434 . S
C563 C554 1.429 . S
C563 N560 1.350 . S
C563 C562 1.434 . S
C564 C565 1.369 1_455 S
C564 C566 1.419 . S
C564 H568 0.930 . S
C565 C564 1.369 1_655 S
C565 C574 1.429 . S
C566 C564 1.419 . S
C566 C567 1.363 . S
C566 H569 0.929 . S
C567 C566 1.363 . S
C567 C573 1.428 1_455 S
H568 C564 0.930 . S
H569 C566 0.929 . S
S570 N571 1.613 . S
S570 N572 1.610 . S
N571 S570 1.613 . S
N571 C574 1.350 . S
N572 S570 1.610 . S
N572 C573 1.351 . S
C573 C567 1.428 1_655 S
C573 N572 1.351 . S
C573 C574 1.434 . S
C574 C565 1.429 . S
C574 N571 1.350 . S
C574 C573 1.434 . S
C575 C576 1.369 1_545 S
C575 C577 1.419 . S
C575 H579 0.930 . S
C576 C575 1.369 1_565 S
C576 C585 1.429 . S
C577 C575 1.419 . S
C577 C578 1.363 . S
C577 H580 0.929 . S
C578 C577 1.363 . S
C578 C584 1.440 . S
H579 C575 0.930 . S
H580 C577 0.929 . S
S581 N582 1.612 1_556 S
S581 N583 1.610 1_556 S
N582 S581 1.612 1_554 S
N582 C585 1.350 . S
N583 S581 1.610 1_554 S
N583 C584 1.348 1_565 S
C584 C578 1.440 . S
C584 N583 1.348 1_545 S
C584 C585 1.425 1_545 S
C585 C576 1.429 . S
C585 N582 1.350 . S
C585 C584 1.425 1_565 S
C586 C587 1.369 . S
C586 C588 1.419 . S
C586 H590 0.930 . S
C587 C586 1.369 . S
C587 C596 1.429 . S
C588 C586 1.419 . S
C588 C589 1.363 . S
C588 H591 0.929 . S
C589 C588 1.363 . S
C589 C595 1.428 . S
H590 C586 0.930 . S
H591 C588 0.929 . S
S592 N593 1.617 . S
S592 N594 1.611 . S
N593 S592 1.617 . S
N593 C596 1.350 . S
N594 S592 1.611 . S
N594 C595 1.351 . S
C595 C589 1.428 . S
C595 N594 1.351 . S
C595 C596 1.434 . S
C596 C587 1.429 . S
C596 N593 1.350 . S
C596 C595 1.434 . S
C597 C598 1.369 . S
C597 C599 1.419 . S
C597 H601 0.930 . S
C598 C597 1.369 . S
C598 C607 1.429 . S
C599 C597 1.419 . S
C599 C600 1.363 . S
C599 H602 0.929 . S
C600 C599 1.363 . S
C600 C606 1.428 . S
H601 C597 0.930 . S
H602 C599 0.929 . S
S603 N604 1.613 . S
S603 N605 1.610 . S
N604 S603 1.613 . S
N604 C607 1.350 . S
N605 S603 1.610 . S
N605 C606 1.351 . S
C606 C600 1.428 . S
C606 N605 1.351 . S
C606 C607 1.434 . S
C607 C598 1.429 . S
C607 N604 1.350 . S
C607 C606 1.434 . S
C608 C609 1.369 . S
C608 C610 1.419 . S
C608 H612 0.930 1_556 S
C609 C608 1.369 . S
C609 C618 1.429 . S
C610 C608 1.419 . S
C610 C611 1.363 . S
C610 H613 0.929 1_556 S
C611 C610 1.363 . S
C611 C617 1.428 . S
H612 C608 0.930 1_554 S
H613 C610 0.929 1_554 S
S614 N615 1.613 . S
S614 N616 1.610 . S
N615 S614 1.613 . S
N615 C618 1.350 . S
N616 S614 1.610 . S
N616 C617 1.351 . S
C617 C611 1.428 . S
C617 N616 1.351 . S
C617 C618 1.434 . S
C618 C609 1.429 . S
C618 N615 1.350 . S
C618 C617 1.434 . S
C619 C620 1.369 . S
C619 C621 1.419 . S
C619 H623 0.930 1_545 S
C620 C619 1.369 . S
C620 C629 1.429 . S
C621 C619 1.419 . S
C621 C622 1.363 . S
C621 H624 0.929 1_545 S
C622 C621 1.363 . S
C622 C628 1.428 . S
H623 C619 0.930 1_565 S
H624 C621 0.929 1_565 S
S625 N626 1.613 . S
S625 N627 1.610 . S
N626 S625 1.613 . S
N626 C629 1.350 . S
N627 S625 1.610 . S
N627 C628 1.351 . S
C628 C622 1.428 . S
C628 N627 1.351 . S
C628 C629 1.434 . S
C629 C620 1.429 . S
C629 N626 1.350 . S
C629 C628 1.434 . S
C630 C631 1.369 . S
C630 C632 1.419 . S
C630 H634 0.930 . S
C631 C630 1.369 . S
C631 C640 1.429 . S
C632 C630 1.419 . S
C632 C633 1.363 . S
C632 H635 0.929 . S
C633 C632 1.363 . S
C633 C639 1.428 . S
H634 C630 0.930 . S
H635 C632 0.929 . S
S636 N637 1.613 . S
S636 N638 1.610 . S
N637 S636 1.613 . S
N637 C640 1.350 . S
N638 S636 1.610 . S
N638 C639 1.351 . S
C639 C633 1.428 . S
C639 N638 1.351 . S
C639 C640 1.434 . S
C640 C631 1.429 . S
C640 N637 1.350 . S
C640 C639 1.434 . S
C641 C642 1.369 . S
C641 C643 1.419 . S
C641 H645 0.930 . S
C642 C641 1.369 . S
C642 C651 1.429 . S
C643 C641 1.419 . S
C643 C644 1.363 . S
C643 H646 0.929 . S
C644 C643 1.363 . S
C644 C650 1.428 . S
H645 C641 0.930 . S
H646 C643 0.929 . S
S647 N648 1.613 . S
S647 N649 1.610 . S
N648 S647 1.613 . S
N648 C651 1.350 1_554 S
N649 S647 1.610 . S
N649 C650 1.351 1_554 S
C650 C644 1.428 . S
C650 N649 1.351 1_556 S
C650 C651 1.434 . S
C651 C642 1.429 . S
C651 N648 1.350 1_556 S
C651 C650 1.434 . S
C652 C653 1.369 . S
C652 C654 1.419 . S
C652 H656 0.930 . S
C653 C652 1.369 . S
C653 C662 1.429 . S
C654 C652 1.419 . S
C654 C655 1.363 . S
C654 H657 0.929 . S
C655 C654 1.363 . S
C655 C661 1.428 . S
H656 C652 0.930 . S
H657 C654 0.929 . S
S658 N659 1.613 1_455 S
S658 N660 1.610 1_455 S
N659 S658 1.613 1_655 S
N659 C662 1.350 . S
N660 S658 1.610 1_655 S
N660 C661 1.351 . S
C661 C655 1.428 . S
C661 N660 1.351 . S
C661 C662 1.434 . S
C662 C653 1.429 . S
C662 N659 1.350 . S
C662 C661 1.434 . S
C663 C664 1.369 . S
C663 C665 1.419 . S
C663 H667 0.930 . S
C664 C663 1.369 . S
C664 C673 1.429 1_565 S
C665 C663 1.419 . S
C665 C666 1.363 . S
C665 H668 0.929 . S
C666 C665 1.363 . S
C666 C672 1.428 1_565 S
H667 C663 0.930 . S
H668 C665 0.929 . S
S669 N670 1.613 . S
S669 N671 1.610 . S
N670 S669 1.613 . S
N670 C673 1.350 . S
N671 S669 1.610 . S
N671 C672 1.351 . S
C672 C666 1.428 1_545 S
C672 N671 1.351 . S
C672 C673 1.434 . S
C673 C664 1.429 1_545 S
C673 N670 1.350 . S
C673 C672 1.434 . S
C674 C675 1.369 . S
C674 C676 1.419 . S
C674 H678 0.930 . S
C675 C674 1.369 . S
C675 C684 1.429 . S
C676 C674 1.419 . S
C676 C677 1.363 . S
C676 H679 0.929 . S
C677 C676 1.363 . S
C677 C683 1.428 . S
H678 C674 0.930 . S
H679 C676 0.929 . S
S680 N681 1.613 . S
S680 N682 1.610 . S
N681 S680 1.613 . S
N681 C684 1.350 . S
N682 S680 1.610 . S
N682 C683 1.351 . S
C683 C677 1.428 . S
C683 N682 1.351 . S
C683 C684 1.434 . S
C684 C675 1.429 . S
C684 N681 1.350 . S
C684 C683 1.434 . S
C685 C686 1.369 . S
C685 C687 1.419 . S
C685 H689 0.930 . S
C686 C685 1.369 . S
C686 C695 1.429 . S
C687 C685 1.419 . S
C687 C688 1.363 . S
C687 H690 0.929 . S
C688 C687 1.363 . S
C688 C694 1.428 . S
H689 C685 0.930 . S
H690 C687 0.929 . S
S691 N692 1.613 . S
S691 N693 1.610 . S
N692 S691 1.613 . S
N692 C695 1.350 . S
N693 S691 1.610 . S
N693 C694 1.351 . S
C694 C688 1.428 . S
C694 N693 1.351 . S
C694 C695 1.434 . S
C695 C686 1.429 . S
C695 N692 1.350 . S
C695 C694 1.434 . S
C433 C76 1.955 . S
C435 C159 2.186 . S
C446 C236 2.190 . S
C444 C88 1.956 . S
C457 C327 2.189 . S
C455 C52 1.944 . S
C468 C411 2.176 . S
C466 C64 1.945 . S
C479 C170 2.186 1_564 S
C477 C28 1.954 . S
C488 C40 1.953 . S
C490 C247 2.192 1_554 S
C499 C4 1.950 . S
C501 C338 2.190 1_554 S
C510 C16 1.953 . S
C512 C422 2.174 1_654 S
C523 C154 0.744 . S
C521 C69 0.753 . S
C534 C249 0.733 1_545 S
C532 C81 0.728 . S
C545 C322 0.755 . S
C543 C93 0.747 . S
C554 C57 0.748 . S
C556 C406 0.739 . S
C565 C21 0.759 . S
C567 C165 0.747 . S
C578 C238 0.745 . S
C576 C33 0.747 . S
C589 C333 0.751 . S
C587 C45 0.760 . S
C598 C9 0.749 . S
C600 C417 0.741 . S
C609 C66 2.047 . S
C611 C163 2.294 . S
C620 C78 2.050 . S
C622 C254 2.344 . S
C633 C331 2.311 . S
C631 C90 2.054 . S
C644 C415 2.317 . S
C642 C54 2.054 . S
C653 C18 2.032 . S
C655 C152 2.298 . S
C666 C243 2.341 1_565 S
C664 C30 2.046 . S
C677 C320 2.313 . S
C675 C42 2.044 . S
C686 C6 2.060 . S
C688 C404 2.313 . S
