# Generated by pormake.
# Topology pyr, (3,6)-cn, num edge types: 1
# Building blocks:
#     Node 0, Type 0, BuildingBlock: CUQRIR_clean_linker_1, # of connection points: 3
#     Node 1, Type 0, BuildingBlock: CUQRIR_clean_linker_1, # of connection points: 3
#     Node 2, Type 0, BuildingBlock: CUQRIR_clean_linker_1, # of connection points: 3
#     Node 3, Type 0, BuildingBlock: CUQRIR_clean_linker_1, # of connection points: 3
#     Node 4, Type 0, BuildingBlock: CUQRIR_clean_linker_1, # of connection points: 3
#     Node 5, Type 0, BuildingBlock: CUQRIR_clean_linker_1, # of connection points: 3
#     Node 6, Type 0, BuildingBlock: CUQRIR_clean_linker_1, # of connection points: 3
#     Node 7, Type 0, BuildingBlock: CUQRIR_clean_linker_1, # of connection points: 3
#     Node 8, Type 1, BuildingBlock: INOVEN_clean_sbu_0, # of connection points: 6
#     Node 9, Type 1, BuildingBlock: INOVEN_clean_sbu_0, # of connection points: 6
#     Node 10, Type 1, BuildingBlock: INOVEN_clean_sbu_0, # of connection points: 6
#     Node 11, Type 1, BuildingBlock: INOVEN_clean_sbu_0, # of connection points: 6
#     Edge 12, Type (0, 1), BuildingBlock: TEMPAE_clean_linker_10, # of connection points: 2
#     Edge 13, Type (0, 1), BuildingBlock: TEMPAE_clean_linker_10, # of connection points: 2
#     Edge 14, Type (0, 1), BuildingBlock: TEMPAE_clean_linker_10, # of connection points: 2
#     Edge 15, Type (0, 1), BuildingBlock: TEMPAE_clean_linker_10, # of connection points: 2
#     Edge 16, Type (0, 1), BuildingBlock: TEMPAE_clean_linker_10, # of connection points: 2
#     Edge 17, Type (0, 1), BuildingBlock: TEMPAE_clean_linker_10, # of connection points: 2
#     Edge 18, Type (0, 1), BuildingBlock: TEMPAE_clean_linker_10, # of connection points: 2
#     Edge 19, Type (0, 1), BuildingBlock: TEMPAE_clean_linker_10, # of connection points: 2
#     Edge 20, Type (0, 1), BuildingBlock: TEMPAE_clean_linker_10, # of connection points: 2
#     Edge 21, Type (0, 1), BuildingBlock: TEMPAE_clean_linker_10, # of connection points: 2
#     Edge 22, Type (0, 1), BuildingBlock: TEMPAE_clean_linker_10, # of connection points: 2
#     Edge 23, Type (0, 1), BuildingBlock: TEMPAE_clean_linker_10, # of connection points: 2
#     Edge 24, Type (0, 1), BuildingBlock: TEMPAE_clean_linker_10, # of connection points: 2
#     Edge 25, Type (0, 1), BuildingBlock: TEMPAE_clean_linker_10, # of connection points: 2
#     Edge 26, Type (0, 1), BuildingBlock: TEMPAE_clean_linker_10, # of connection points: 2
#     Edge 27, Type (0, 1), BuildingBlock: TEMPAE_clean_linker_10, # of connection points: 2
#     Edge 28, Type (0, 1), BuildingBlock: TEMPAE_clean_linker_10, # of connection points: 2
#     Edge 29, Type (0, 1), BuildingBlock: TEMPAE_clean_linker_10, # of connection points: 2
#     Edge 30, Type (0, 1), BuildingBlock: TEMPAE_clean_linker_10, # of connection points: 2
#     Edge 31, Type (0, 1), BuildingBlock: TEMPAE_clean_linker_10, # of connection points: 2
#     Edge 32, Type (0, 1), BuildingBlock: TEMPAE_clean_linker_10, # of connection points: 2
#     Edge 33, Type (0, 1), BuildingBlock: TEMPAE_clean_linker_10, # of connection points: 2
#     Edge 34, Type (0, 1), BuildingBlock: TEMPAE_clean_linker_10, # of connection points: 2
#     Edge 35, Type (0, 1), BuildingBlock: TEMPAE_clean_linker_10, # of connection points: 2
# Relax obj value: 0.195
# Max RMSD: 0.257
# Mean RMSD: 0.169
data_MOF--net-pyr--node1-INOVEN_clean_sbu_0--node2-CUQRIR_clean_linker_1--edge1-TEMPAE_clean_linker_10
_symmetry_space_group_name_H-M    P1
_symmetry_Int_Tables_number       1
_symmetry_cell_setting            triclinic
loop_
_symmetry_equiv_pos_as_xyz
'x, y, z'
_cell_length_a     35.881676
_cell_length_b     38.737076
_cell_length_c     34.47981
_cell_angle_alpha  90.282714
_cell_angle_beta   89.944848
_cell_angle_gamma 103.56178
loop_
_atom_site_label
_atom_site_type_symbol
_atom_site_fract_x
_atom_site_fract_y
_atom_site_fract_z
_atom_type_partial_charge
C0 C 0.34928 0.35858 0.23276 0.0
N1 N 0.3668 0.3315 0.23768 0.0
N2 N 0.35836 0.37428 0.19792 0.0
C3 C 0.31808 0.36598 0.25879 0.0
C4 C 0.38194 0.35552 0.1817 0.0
N5 N 0.38681 0.32916 0.20569 0.0
C6 C 0.40063 0.36377 0.14275 0.0
H7 H 0.29201 0.36595 0.24148 0.0
H8 H 0.328 0.39277 0.27189 0.0
H9 H 0.31006 0.34651 0.28249 0.0
H10 H 0.40523 0.39255 0.1365 0.0
H11 H 0.38158 0.34898 0.11988 0.0
H12 H 0.42847 0.35598 0.14167 0.0
C13 C 0.21352 0.85681 0.63459 0.0
N14 N 0.21405 0.88029 0.66385 0.0
N15 N 0.23942 0.83713 0.64087 0.0
C16 C 0.19207 0.85693 0.5971 0.0
C17 C 0.25565 0.84941 0.67524 0.0
N18 N 0.24035 0.8757 0.68905 0.0
C19 C 0.29066 0.83982 0.69188 0.0
H20 H 0.19178 0.83273 0.57964 0.0
H21 H 0.20596 0.88073 0.58007 0.0
H22 H 0.16215 0.85854 0.60312 0.0
H23 H 0.3161 0.8529 0.67455 0.0
H24 H 0.28778 0.81073 0.69012 0.0
H25 H 0.29543 0.84851 0.72255 0.0
C26 C 0.62338 0.38072 0.85732 0.0
N27 N 0.64556 0.37526 0.88835 0.0
N28 N 0.63799 0.41228 0.83876 0.0
C29 C 0.58907 0.35355 0.84279 0.0
C30 C 0.67038 0.42578 0.85992 0.0
N31 N 0.67549 0.40372 0.88944 0.0
C32 C 0.69637 0.46186 0.85316 0.0
H33 H 0.59177 0.32623 0.84935 0.0
H34 H 0.58563 0.35598 0.81102 0.0
H35 H 0.56292 0.3579 0.85728 0.0
H36 H 0.68049 0.48019 0.83994 0.0
H37 H 0.71983 0.45904 0.83329 0.0
H38 H 0.70954 0.47382 0.88065 0.0
C39 C 0.84684 0.70505 0.3581 0.0
N40 N 0.87936 0.72978 0.34746 0.0
N41 N 0.82519 0.71794 0.38463 0.0
C42 C 0.83688 0.66739 0.3432 0.0
C43 C 0.84586 0.75196 0.38973 0.0
N44 N 0.87897 0.75963 0.36822 0.0
C45 C 0.83271 0.77891 0.41469 0.0
H46 H 0.8191 0.66604 0.31668 0.0
H47 H 0.82045 0.6491 0.36513 0.0
H48 H 0.86306 0.65829 0.33554 0.0
H49 H 0.8443 0.77832 0.44443 0.0
H50 H 0.80096 0.77301 0.41631 0.0
H51 H 0.8433 0.80611 0.40308 0.0
C52 C 0.66905 0.83627 0.88631 0.0
N53 N 0.69548 0.82646 0.86342 0.0
N54 N 0.65063 0.85761 0.86666 0.0
C55 C 0.66484 0.82906 0.92917 0.0
C56 C 0.66684 0.86001 0.83094 0.0
N57 N 0.69472 0.84178 0.82914 0.0
C58 C 0.65449 0.87934 0.79732 0.0
H59 H 0.68775 0.81704 0.9406 0.0
H60 H 0.63671 0.81054 0.93464 0.0
H61 H 0.66538 0.85406 0.94523 0.0
H62 H 0.67133 0.90725 0.79683 0.0
H63 H 0.62371 0.87954 0.80006 0.0
H64 H 0.6594 0.86656 0.7695 0.0
C65 C 0.80665 0.27148 0.52336 0.0
N66 N 0.80515 0.24202 0.5015 0.0
N67 N 0.77408 0.28285 0.51895 0.0
C68 C 0.83991 0.28976 0.54809 0.0
C69 C 0.75281 0.25923 0.49396 0.0
N70 N 0.77164 0.23444 0.48335 0.0
C71 C 0.71561 0.263 0.47633 0.0
H72 H 0.83032 0.30567 0.57129 0.0
H73 H 0.86111 0.30797 0.5297 0.0
H74 H 0.85409 0.2701 0.56129 0.0
H75 H 0.72177 0.27905 0.44951 0.0
H76 H 0.69998 0.27659 0.49688 0.0
H77 H 0.69712 0.23672 0.46861 0.0
C78 C 0.34343 0.72345 0.24762 0.0
N79 N 0.37696 0.747 0.25792 0.0
N80 N 0.32587 0.735 0.21707 0.0
C81 C 0.32652 0.68937 0.26866 0.0
C82 C 0.34962 0.76685 0.20885 0.0
N83 N 0.38067 0.77486 0.23319 0.0
C84 C 0.34269 0.79009 0.17596 0.0
H85 H 0.33792 0.66765 0.25572 0.0
H86 H 0.29484 0.68213 0.26581 0.0
H87 H 0.33417 0.69167 0.2999 0.0
H88 H 0.32796 0.81019 0.18743 0.0
H89 H 0.32431 0.77431 0.15322 0.0
H90 H 0.37008 0.80429 0.16255 0.0
C91 C 0.1354 0.38899 0.74756 0.0
N92 N 0.15769 0.38372 0.71635 0.0
N93 N 0.14841 0.42143 0.7652 0.0
C94 C 0.10204 0.3613 0.76279 0.0
C95 C 0.18 0.43581 0.74322 0.0
N96 N 0.18607 0.41349 0.71392 0.0
C97 C 0.2045 0.47278 0.74896 0.0
H98 H 0.07544 0.36416 0.7481 0.0
H99 H 0.09847 0.36474 0.79443 0.0
H100 H 0.10598 0.33416 0.75713 0.0
H101 H 0.19579 0.48652 0.77438 0.0
H102 H 0.20239 0.489 0.72302 0.0
H103 H 0.23496 0.4716 0.75203 0.0
Gd104 Gd 0.04959 0.0843 0.49914 0.0
Gd105 Gd 0.0309 0.05169 0.57678 0.0
C106 C 0.07017 0.13706 0.57691 0.0
C107 C 0.06496 0.12169 0.43704 0.0
C108 C 0.10098 0.14487 0.42253 0.0
C109 C 0.12272 0.13148 0.39479 0.0
C110 C 0.11541 0.17919 0.43772 0.0
C111 C 0.17321 0.18537 0.39887 0.0
C112 C 0.15117 0.19936 0.42577 0.0
C113 C 0.15856 0.15137 0.38336 0.0
C114 C 0.10535 0.05801 0.533 0.0
C115 C 1.00598 1.00132 0.49716 0.0
C116 C 0.0235 1.01029 0.63626 0.0
C117 C 0.99206 0.98069 0.64853 0.0
C118 C 0.95451 0.97925 0.63613 0.0
C119 C 0.9989 0.95445 0.67353 0.0
C120 C 0.93026 0.92728 0.67632 0.0
C121 C 0.96827 0.92784 0.68723 0.0
C122 C 0.92396 0.95308 0.65009 0.0
C123 C 0.97622 0.08159 0.54943 0.0
O124 O 0.06303 0.13454 0.53883 0.0
O125 O 0.06467 0.10721 0.59767 0.0
O126 O 0.06481 0.08798 0.43859 0.0
O127 O 0.04883 0.13252 0.46744 0.0
O128 O 0.09716 0.05431 0.49654 0.0
O129 O 0.08462 0.07564 0.54868 0.0
O130 O 0.01536 1.00262 0.53474 0.0
O131 O 1.01074 0.03166 0.47788 0.0
O132 O 0.01549 0.04152 0.63689 0.0
O133 O 0.042 1.00494 0.60492 0.0
O134 O 0.98291 0.07833 0.5859 0.0
O135 O 0.99488 0.06439 0.52906 0.0
H136 H 0.11227 0.10526 0.38233 0.0
H137 H 0.0994 0.19031 0.45915 0.0
H138 H 0.16183 0.22569 0.43788 0.0
H139 H 0.17464 0.14034 0.36191 0.0
H140 H 0.94864 0.99912 0.61654 0.0
H141 H 0.02778 0.95493 0.68307 0.0
H142 H 0.97433 0.90812 0.70686 0.0
H143 H 0.89525 0.95414 0.64149 0.0
Gd144 Gd 0.5525 0.08089 0.09442 0.0
Gd145 Gd 0.48824 0.07544 0.05265 0.0
C146 C 0.49649 0.12349 0.12893 0.0
C147 C 0.62115 0.0898 0.12272 0.0
C148 C 0.64034 0.1071 0.15745 0.0
C149 C 0.61878 0.11735 0.18743 0.0
C150 C 0.67999 0.11172 0.1617 0.0
C151 C 0.6763 0.13535 0.22671 0.0
C152 C 0.69792 0.12583 0.19612 0.0
C153 C 0.63659 0.13127 0.22184 0.0
C154 C 0.49778 1.02427 0.12363 0.0
C155 C 0.54364 0.03379 1.01684 0.0
C156 C 0.42041 0.06656 1.02222 0.0
C157 C 0.40002 0.0474 0.98835 0.0
C158 C 0.39174 0.06679 0.9565 0.0
C159 C 0.38908 1.01011 0.98701 0.0
C160 C 0.36286 1.01205 0.92204 0.0
C161 C 0.37062 0.99265 0.95425 0.0
C162 C 0.37359 0.04935 0.92365 0.0
C163 C 0.54461 0.13215 1.02491 0.0
O164 O 0.53303 0.12383 0.12659 0.0
O165 O 0.47191 0.10122 0.10713 0.0
O166 O 0.59358 0.06201 0.12925 0.0
O167 O 0.61196 0.1106 0.09669 0.0
O168 O 0.51863 0.05006 0.1438 0.0
O169 O 0.50419 0.03154 0.08759 0.0
O170 O 0.50726 0.03383 1.01839 0.0
O171 O 0.56803 0.05476 0.04 0.0
O172 O 0.4488 0.09333 1.01439 0.0
O173 O 0.42811 0.04773 0.05111 0.0
O174 O 0.52393 0.10686 1.00404 0.0
O175 O 0.53645 0.12465 0.0604 0.0
H176 H 0.58803 0.11376 0.18456 0.0
H177 H 0.69694 0.10392 0.13868 0.0
H178 H 0.72863 0.12913 0.19888 0.0
H179 H 0.61907 0.1379 0.24503 0.0
H180 H 0.39975 0.09555 0.9568 0.0
H181 H 0.39484 0.99435 1.01115 0.0
H182 H 0.36218 0.96392 0.95432 0.0
H183 H 0.36858 0.06517 0.89925 0.0
Gd184 Gd 0.49702 0.54266 0.51967 0.0
Gd185 Gd 0.50614 0.59927 0.56702 0.0
C186 C 0.53461 0.53728 0.60785 0.0
C187 C 0.51331 0.49165 0.47928 0.0
C188 C 0.54593 0.47542 0.48441 0.0
C189 C 0.54705 0.4435 0.466 0.0
C190 C 0.57599 0.4918 0.50909 0.0
C191 C 0.60674 0.44286 0.49982 0.0
C192 C 0.60552 0.47535 0.51749 0.0
C193 C 0.57757 0.42763 0.47309 0.0
C194 C 0.42847 0.53615 0.55839 0.0
C195 C 0.47043 0.60839 0.48054 0.0
C196 C 0.49735 0.65492 0.60345 0.0
C197 C 0.47567 0.6806 0.59083 0.0
C198 C 0.49276 0.71704 0.59137 0.0
C199 C 0.43889 0.66859 0.57485 0.0
C200 C 0.43526 0.72931 0.56284 0.0
C201 C 0.41889 0.69267 0.5611 0.0
C202 C 0.47272 0.74128 0.57742 0.0
C203 C 0.57337 0.60075 0.52701 0.0
O204 O 0.52997 0.52469 0.57172 0.0
O205 O 0.5247 0.5673 0.61514 0.0
O206 O 0.48831 0.48622 0.50734 0.0
O207 O 0.52254 0.52475 0.46873 0.0
O208 O 0.43224 0.53067 0.5215 0.0
O209 O 0.46198 0.54711 0.57313 0.0
O210 O 0.47356 0.61953 0.51703 0.0
O211 O 0.47983 0.57807 0.47268 0.0
O212 O 0.52775 0.65463 0.58292 0.0
O213 O 0.4771 0.62303 0.61115 0.0
O214 O 0.57113 0.60578 0.56408 0.0
O215 O 0.53956 0.59415 0.51352 0.0
H216 H 0.52439 0.43086 0.44629 0.0
H217 H 0.57652 0.51725 0.52232 0.0
H218 H 0.62683 0.488 0.53847 0.0
H219 H 0.57805 0.40337 0.45762 0.0
H220 H 0.52151 0.72671 0.60267 0.0
H221 H 0.42528 0.64053 0.57322 0.0
H222 H 0.38986 0.68252 0.55078 0.0
H223 H 0.48612 0.76938 0.57888 0.0
Gd224 Gd 1.00039 0.54187 0.08017 0.0
Gd225 Gd 1.00066 0.60127 0.02564 0.0
C226 C 0.07519 0.60937 0.08134 0.0
C227 C 0.01982 0.48752 0.11026 0.0
C228 C 0.05685 0.47746 0.11549 0.0
C229 C 0.06811 0.47009 0.15291 0.0
C230 C 0.08218 0.47721 0.08438 0.0
C231 C 0.12943 0.46234 0.1283 0.0
C232 C 0.118 0.46958 0.09071 0.0
C233 C 0.10396 0.4628 0.15929 0.0
C234 C 0.96886 0.58962 0.12254 0.0
C235 C 0.92512 0.53241 0.02537 0.0
C236 C 0.98805 0.65809 0.99368 0.0
C237 C 0.95644 0.67425 0.98249 0.0
C238 C 0.96288 0.69979 0.95308 0.0
C239 C 0.91965 0.66324 0.99863 0.0
C240 C 0.89608 0.70325 0.95556 0.0
C241 C 0.88972 0.67781 0.9854 0.0
C242 C 0.93305 0.71413 0.9397 0.0
C243 C 0.03728 0.55666 0.98476 0.0
O244 O 0.05971 0.57651 0.09234 0.0
O245 O 0.05763 0.62543 0.05568 0.0
O246 O 0.01582 0.51496 0.13047 0.0
O247 O 1.00635 0.48745 0.07499 0.0
O248 O 0.97008 0.55786 0.13311 0.0
O249 O 0.9806 0.59308 0.08713 0.0
O250 O 0.94037 0.56552 1.01394 0.0
O251 O 0.94349 0.51697 0.05089 0.0
O252 O 0.99004 0.62954 0.97448 0.0
O253 O 0.99538 0.65597 0.03063 0.0
O254 O 0.0332 0.58742 0.97398 0.0
O255 O 0.02374 0.55163 1.01952 0.0
H256 H 0.04932 0.47055 0.17743 0.0
H257 H 0.07451 0.48316 0.05521 0.0
H258 H 0.13657 0.46906 0.06604 0.0
H259 H 0.11191 0.45807 0.18873 0.0
H260 H 0.99104 0.70841 0.94011 0.0
H261 H 0.91403 0.64316 1.02102 0.0
H262 H 0.86146 0.66871 0.99797 0.0
H263 H 0.93901 0.73398 0.91709 0.0
C264 C 0.36131 0.30947 0.3045 0.0
C265 C 0.35402 0.30332 0.26491 0.0
C266 C 0.33908 0.28741 0.33226 0.0
C267 C 0.30885 0.25912 0.31969 0.0
C268 C 0.3046 0.25056 0.27968 0.0
C269 C 0.32744 0.27285 0.25271 0.0
C270 C 0.34543 0.29665 0.37466 0.0
C271 C 0.27298 0.22044 0.26497 0.0
C272 C 0.24253 0.19192 0.38292 0.0
C273 C 0.21042 0.20669 0.38486 0.0
C274 C 0.27628 0.20997 0.36438 0.0
C275 C 0.27735 0.24301 0.34663 0.0
C276 C 0.24574 0.25892 0.35059 0.0
C277 C 0.21274 0.24064 0.36998 0.0
C278 C 0.30984 0.19276 0.36198 0.0
C279 C 0.24574 0.29423 0.33214 0.0
H280 H 0.38207 0.33321 0.31355 0.0
H281 H 0.32203 0.26852 0.22193 0.0
H282 H 0.32481 0.31229 0.38421 0.0
H283 H 0.34056 0.27235 0.39268 0.0
H284 H 0.3749 0.31286 0.38007 0.0
H285 H 0.2767 0.21458 0.23382 0.0
H286 H 0.27187 0.19598 0.28191 0.0
H287 H 0.24498 0.22761 0.26857 0.0
H288 H 0.24084 0.1658 0.39499 0.0
H289 H 0.18786 0.25198 0.37144 0.0
H290 H 0.33735 0.21272 0.36583 0.0
H291 H 0.31038 0.18046 0.33293 0.0
H292 H 0.30789 0.17169 0.38415 0.0
H293 H 0.27104 0.31471 0.342 0.0
H294 H 0.21947 0.3035 0.33921 0.0
H295 H 0.24774 0.29197 0.30014 0.0
C296 C 0.23722 0.89335 0.75699 0.0
C297 C 0.25498 0.89899 0.7208 0.0
C298 C 0.25382 0.91286 0.78957 0.0
C299 C 0.28858 0.93898 0.78538 0.0
C300 C 0.30579 0.94557 0.74833 0.0
C301 C 0.28904 0.925 0.71653 0.0
C302 C 0.23502 0.90455 0.82869 0.0
C303 C 0.34242 0.97359 0.74247 0.0
C304 C 0.31664 1.00698 0.86636 0.0
C305 C 0.3439 0.99347 0.88682 0.0
C306 C 0.29877 0.98981 0.83299 0.0
C307 C 0.30791 0.95807 0.82007 0.0
C308 C 0.33536 0.94427 0.84051 0.0
C309 C 0.3532 0.96225 0.87344 0.0
C310 C 0.27006 1.00558 0.81159 0.0
C311 C 0.3458 0.91039 0.82768 0.0
H312 H 0.21116 0.8727 0.75989 0.0
H313 H 0.30287 0.92861 0.68841 0.0
H314 H 0.25454 0.89451 0.84834 0.0
H315 H 0.22964 0.929 0.84211 0.0
H316 H 0.20743 0.88432 0.82677 0.0
H317 H 0.35008 0.97758 0.71131 0.0
H318 H 0.33966 0.99928 0.75508 0.0
H319 H 0.36634 0.96576 0.75774 0.0
H320 H 0.30887 1.03081 0.87669 0.0
H321 H 0.37475 0.95197 0.88852 0.0
H322 H 0.24155 0.98671 0.81181 0.0
H323 H 0.27877 1.01017 0.7808 0.0
H324 H 0.26716 1.03113 0.82457 0.0
H325 H 0.31976 0.88829 0.82694 0.0
H326 H 0.36723 0.90288 0.84715 0.0
H327 H 0.35767 0.91345 0.79785 0.0
C328 C 0.64724 0.4444 0.7741 0.0
C329 C 0.62297 0.42813 0.80451 0.0
C330 C 0.6337 0.46138 0.74201 0.0
C331 C 0.59423 0.46194 0.73851 0.0
C332 C 0.56938 0.44472 0.76858 0.0
C333 C 0.58385 0.42862 0.80084 0.0
C334 C 0.66211 0.47931 0.71189 0.0
C335 C 0.52711 0.44343 0.76685 0.0
C336 C 0.56245 0.53474 0.67651 0.0
C337 C 0.55081 0.51788 0.64058 0.0
C338 C 0.5768 0.51731 0.70769 0.0
C339 C 0.57931 0.48121 0.70438 0.0
C340 C 0.56749 0.46396 0.66819 0.0
C341 C 0.55399 0.48231 0.6371 0.0
C342 C 0.58958 0.5379 0.74446 0.0
C343 C 0.56857 0.42562 0.66238 0.0
H344 H 0.67726 0.44396 0.77535 0.0
H345 H 0.56436 0.41679 0.82368 0.0
H346 H 0.65412 0.46702 0.68305 0.0
H347 H 0.66148 0.50774 0.70968 0.0
H348 H 0.69185 0.47753 0.71872 0.0
H349 H 0.51088 0.42719 0.79054 0.0
H350 H 0.52256 0.47072 0.769 0.0
H351 H 0.51516 0.43223 0.73857 0.0
H352 H 0.56062 0.56206 0.68035 0.0
H353 H 0.54523 0.46838 0.61007 0.0
H354 H 0.61973 0.53743 0.75104 0.0
H355 H 0.57178 0.52526 0.76917 0.0
H356 H 0.58745 0.56599 0.74248 0.0
H357 H 0.59834 0.42252 0.66572 0.0
H358 H 0.55779 0.41539 0.63334 0.0
H359 H 0.55093 0.40902 0.68493 0.0
C360 C 0.88414 0.72155 0.2755 0.0
C361 C 0.90174 0.72414 0.31253 0.0
C362 C 0.89622 0.70332 0.24319 0.0
C363 C 0.92756 0.68658 0.24635 0.0
C364 C 0.94677 0.6906 0.28309 0.0
C365 C 0.93349 0.70841 0.31526 0.0
C366 C 0.87332 0.69984 0.20617 0.0
C367 C 0.9806 0.67444 0.28923 0.0
C368 C 0.93123 0.60305 0.18204 0.0
C369 C 0.95625 0.61617 0.15088 0.0
C370 C 0.92146 0.62525 0.21191 0.0
C371 C 0.9377 0.66257 0.2129 0.0
C372 C 0.96315 0.6762 0.18154 0.0
C373 C 0.97167 0.65334 0.15119 0.0
C374 C 0.89352 0.60833 0.24293 0.0
C375 C 0.9825 0.71513 0.18062 0.0
H376 H 0.85854 0.73161 0.27264 0.0
H377 H 0.94674 0.70817 0.34344 0.0
H378 H 0.89258 0.70731 0.18088 0.0
H379 H 0.85775 0.67172 0.20204 0.0
H380 H 0.8521 0.71663 0.20644 0.0
H381 H 0.99651 0.68446 0.31619 0.0
H382 H 0.9705 0.64517 0.29136 0.0
H383 H 1.00056 0.68021 0.26422 0.0
H384 H 0.91903 0.5747 0.18325 0.0
H385 H 0.99169 0.66453 0.12848 0.0
H386 H 0.86971 0.62209 0.245 0.0
H387 H 0.90812 0.61115 0.27151 0.0
H388 H 0.88124 0.57967 0.23727 0.0
H389 H 0.96068 0.73121 0.18025 0.0
H390 H 1.00147 0.72219 0.15498 0.0
H391 H 0.99985 0.72248 0.20733 0.0
C392 C 0.42732 0.28874 0.22564 0.0
C393 C 0.40532 0.30052 0.1972 0.0
C394 C 0.4432 0.2593 0.21897 0.0
C395 C 0.43804 0.24192 0.18244 0.0
C396 C 0.41635 0.2541 0.15341 0.0
C397 C 0.39954 0.28264 0.16148 0.0
C398 C 0.46491 0.24644 0.25117 0.0
C399 C 0.4107 0.23688 0.11379 0.0
C400 C 0.50696 0.18724 0.14743 0.0
C401 C 0.48387 0.15263 0.149 0.0
C402 C 0.49281 0.21653 0.15921 0.0
C403 C 0.45512 0.21097 0.17427 0.0
C404 C 0.43266 0.17581 0.17837 0.0
C405 C 0.447 0.1471 0.16488 0.0
C406 C 0.51728 0.25351 0.15309 0.0
C407 C 0.3929 0.16859 0.19559 0.0
H408 H 0.4317 0.30242 0.25334 0.0
H409 H 0.38127 0.29053 0.13999 0.0
H410 H 0.45177 0.21811 0.25736 0.0
H411 H 0.49495 0.24815 0.24212 0.0
H412 H 0.46516 0.26206 0.27832 0.0
H413 H 0.39543 0.25112 0.09362 0.0
H414 H 0.43886 0.23615 0.10089 0.0
H415 H 0.39392 0.20905 0.11634 0.0
H416 H 0.53524 0.19168 0.13451 0.0
H417 H 0.4291 0.12036 0.16606 0.0
H418 H 0.51965 0.26914 0.18037 0.0
H419 H 0.50353 0.26744 0.13124 0.0
H420 H 0.5466 0.2533 0.14286 0.0
H421 H 0.393 0.18394 0.22287 0.0
H422 H 0.38143 0.13995 0.20179 0.0
H423 H 0.37313 0.17728 0.17512 0.0
C424 C 0.16206 0.91108 0.66082 0.0
C425 C 0.20123 0.91232 0.65942 0.0
C426 C 0.14771 0.93847 0.64471 0.0
C427 C 0.17344 0.9674 0.62688 0.0
C428 C 0.2134 0.97016 0.62865 0.0
C429 C 0.2268 0.94231 0.64474 0.0
C430 C 0.10489 0.9348 0.64359 0.0
C431 C 0.24174 1.00076 0.61033 0.0
C432 C 0.13536 1.00655 0.53925 0.0
C433 C 0.12654 0.03682 0.55538 0.0
C434 C 0.1511 0.98386 0.5623 0.0
C435 C 0.15842 0.99208 0.60211 0.0
C436 C 0.15077 1.02332 0.61811 0.0
C437 C 0.13476 0.04531 0.5945 0.0
C438 C 0.15886 0.95057 0.54436 0.0
C439 C 0.15851 0.03298 0.66031 0.0
H440 H 0.14257 0.88738 0.67173 0.0
H441 H 0.25695 0.94247 0.64276 0.0
H442 H 0.09766 0.96027 0.65137 0.0
H443 H 0.09425 0.92777 0.6137 0.0
H444 H 0.08947 0.91384 0.66359 0.0
H445 H 0.27162 1.0018 0.61964 0.0
H446 H 0.24024 0.99782 0.5783 0.0
H447 H 0.2347 1.0264 0.61775 0.0
H448 H 0.12866 0.99994 0.50906 0.0
H449 H 0.12787 0.06884 0.6069 0.0
H450 H 0.14152 0.92683 0.55924 0.0
H451 H 0.18946 0.95021 0.5482 0.0
H452 H 0.15196 0.94832 0.51291 0.0
H453 H 0.13983 1.01273 0.67885 0.0
H454 H 0.1532 0.05939 0.66756 0.0
H455 H 0.18864 0.03314 0.66771 0.0
C456 C 0.70744 0.43014 0.95085 0.0
C457 C 0.70874 0.41171 0.91573 0.0
C458 C 0.74143 0.44821 0.9707 0.0
C459 C 0.77847 0.44864 0.95529 0.0
C460 C 0.77979 0.42891 0.92055 0.0
C461 C 0.7454 0.41116 0.90139 0.0
C462 C 0.7376 0.46843 1.00736 0.0
C463 C 0.81775 0.42797 0.90233 0.0
C464 C 0.86638 0.52628 0.98048 0.0
C465 C 0.88677 0.51152 1.00844 0.0
C466 C 0.83147 0.50655 0.96357 0.0
C467 C 0.81553 0.47062 0.97434 0.0
C468 C 0.8358 0.45569 1.00277 0.0
C469 C 0.87063 0.47599 1.0192 0.0
C470 C 0.81171 0.52425 0.93364 0.0
C471 C 0.82083 0.41783 1.01567 0.0
H472 H 0.67967 0.43222 0.96162 0.0
H473 H 0.74712 0.39837 0.87365 0.0
H474 H 0.75567 0.46125 0.03066 0.0
H475 H 0.74796 0.49732 1.00209 0.0
H476 H 0.70746 0.46321 1.01769 0.0
H477 H 0.81443 0.40945 0.87719 0.0
H478 H 0.83222 0.45496 0.89229 0.0
H479 H 0.83681 0.41983 0.92401 0.0
H480 H 0.87788 0.55343 0.97141 0.0
H481 H 0.88548 0.46369 0.0405 0.0
H482 H 0.78187 0.52333 0.94291 0.0
H483 H 0.81005 0.50966 0.90568 0.0
H484 H 0.8268 0.55238 0.92877 0.0
H485 H 0.79118 0.41417 0.02692 0.0
H486 H 0.83896 0.41004 0.03859 0.0
H487 H 0.8196 0.39959 0.99054 0.0
C488 C 0.78376 0.70348 0.4443 0.0
C489 C 0.7891 0.69973 0.40407 0.0
C490 C 0.74875 0.68747 0.46333 0.0
C491 C 0.71777 0.66554 0.44247 0.0
C492 C 0.72333 0.66081 0.40202 0.0
C493 C 0.75819 0.67823 0.38343 0.0
C494 C 0.74483 0.69447 0.50603 0.0
C495 C 0.69232 0.6371 0.37816 0.0
C496 C 0.64056 0.59993 0.503 0.0
C497 C 0.60941 0.61627 0.50374 0.0
C498 C 0.67505 0.61486 0.48244 0.0
C499 C 0.67983 0.64797 0.46288 0.0
C500 C 0.64834 0.66459 0.46381 0.0
C501 C 0.61372 0.64846 0.4835 0.0
C502 C 0.7065 0.59499 0.48167 0.0
C503 C 0.65154 0.70012 0.44475 0.0
H504 H 0.80718 0.71911 0.46119 0.0
H505 H 0.76107 0.67517 0.35243 0.0
H506 H 0.71911 0.70515 0.51116 0.0
H507 H 0.74074 0.66929 0.52238 0.0
H508 H 0.77033 0.71362 0.51788 0.0
H509 H 0.70176 0.63374 0.34797 0.0
H510 H 0.68344 0.61055 0.39181 0.0
H511 H 0.66669 0.64844 0.37716 0.0
H512 H 0.63786 0.57512 0.51837 0.0
H513 H 0.59021 0.66165 0.48397 0.0
H514 H 0.73186 0.61031 0.49767 0.0
H515 H 0.71564 0.59193 0.45134 0.0
H516 H 0.69738 0.56825 0.49493 0.0
H517 H 0.67599 0.71993 0.45745 0.0
H518 H 0.62506 0.71 0.44826 0.0
H519 H 0.65744 0.69819 0.41334 0.0
C520 C 0.31309 0.38159 0.14695 0.0
C521 C 0.33626 0.39573 0.17855 0.0
C522 C 0.2833 0.39682 0.13459 0.0
C523 C 0.27613 0.42654 0.1548 0.0
C524 C 0.30152 0.44267 0.18466 0.0
C525 C 0.33151 0.42717 0.19595 0.0
C526 C 0.2574 0.37911 0.10219 0.0
C527 C 0.29498 0.47424 0.20715 0.0
C528 C 0.20036 0.47154 0.11494 0.0
C529 C 0.16747 0.45393 0.13531 0.0
C530 C 0.2361 0.46334 0.12118 0.0
C531 C 0.23915 0.4371 0.14865 0.0
C532 C 0.20625 0.41967 0.16972 0.0
C533 C 0.1709 0.42806 0.1626 0.0
C534 C 0.27049 0.48247 0.09815 0.0
C535 C 0.20824 0.39171 0.19958 0.0
H536 H 0.31627 0.35694 0.13393 0.0
H537 H 0.34953 0.43802 0.22038 0.0
H538 H 0.22964 0.36444 0.11451 0.0
H539 H 0.25127 0.39919 0.08186 0.0
H540 H 0.27014 0.36003 0.08564 0.0
H541 H 0.32047 0.48715 0.22464 0.0
H542 H 0.28773 0.49421 0.1874 0.0
H543 H 0.27037 0.46535 0.22713 0.0
H544 H 0.19829 0.49197 0.09425 0.0
H545 H 0.14572 0.41382 0.17807 0.0
H546 H 0.28145 0.46308 0.08029 0.0
H547 H 0.29395 0.49547 0.11801 0.0
H548 H 0.26367 0.50292 0.07869 0.0
H549 H 0.21659 0.36888 0.1854 0.0
H550 H 0.18046 0.38178 0.2147 0.0
H551 H 0.23048 0.40266 0.22157 0.0
C552 C 0.66103 0.32142 0.92087 0.0
C553 C 0.63622 0.34432 0.91496 0.0
C554 C 0.64897 0.28821 0.94095 0.0
C555 C 0.61082 0.27654 0.95578 0.0
C556 C 0.5863 0.30031 0.95094 0.0
C557 C 0.59914 0.33329 0.93118 0.0
C558 C 0.67696 0.26495 0.94522 0.0
C559 C 0.54553 0.29029 0.96544 0.0
C560 C 0.56307 0.17518 0.96769 0.0
C561 C 0.56331 0.1691 1.0081 0.0
C562 C 0.57856 0.20915 0.95076 0.0
C563 C 0.59569 0.23914 0.97412 0.0
C564 C 0.59652 0.23314 1.01499 0.0
C565 C 0.58044 0.19878 0.03127 0.0
C566 C 0.57594 0.21302 0.90741 0.0
C567 C 0.61429 0.26331 0.04184 0.0
H568 H 0.68951 0.32876 0.90842 0.0
H569 H 0.57942 0.3503 0.92729 0.0
H570 H 0.67795 0.2565 0.97584 0.0
H571 H 0.6673 0.24057 0.9274 0.0
H572 H 0.70635 0.27864 0.93595 0.0
H573 H 0.53036 0.31192 0.96135 0.0
H574 H 0.52952 0.2663 0.94974 0.0
H575 H 0.54501 0.28356 0.9967 0.0
H576 H 0.55013 0.15313 0.94889 0.0
H577 H 0.58114 0.19526 0.0624 0.0
H578 H 0.60498 0.22319 0.89506 0.0
H579 H 0.55889 0.23271 0.90065 0.0
H580 H 0.56245 0.18752 0.89283 0.0
H581 H 0.64414 0.27531 0.03261 0.0
H582 H 0.61461 0.2546 0.07246 0.0
H583 H 0.5981 0.28439 0.04022 0.0
C584 C 0.91518 0.82338 0.35776 0.0
C585 C 0.91009 0.79112 0.37828 0.0
C586 C 0.93358 0.85722 0.37453 0.0
C587 C 0.94575 0.86049 0.41433 0.0
C588 C 0.94119 0.82777 0.43482 0.0
C589 C 0.92485 0.79437 0.41655 0.0
C590 C 0.93855 0.88947 0.34908 0.0
C591 C 0.9516 0.8274 0.47718 0.0
C592 C 0.01433 0.94215 0.46714 0.0
C593 C 0.99047 0.96535 0.47618 0.0
C594 C 1.00093 0.90936 0.44634 0.0
C595 C 0.96159 0.89733 0.43487 0.0
C596 C 0.93723 0.92058 0.44478 0.0
C597 C 0.95193 0.954 0.46402 0.0
C598 C 0.0299 0.88803 0.43676 0.0
C599 C 0.895 0.91041 0.43552 0.0
H600 H 0.90306 0.8225 0.3289 0.0
H601 H 0.92016 0.77043 0.43383 0.0
H602 H 0.91071 0.89709 0.34665 0.0
H603 H 0.96043 0.91246 0.3604 0.0
H604 H 0.94696 0.88321 0.31932 0.0
H605 H 0.98161 0.82475 0.47967 0.0
H606 H 0.94907 0.85196 0.49256 0.0
H607 H 0.9331 0.80432 0.49223 0.0
H608 H 0.04421 0.95 0.47569 0.0
H609 H 0.93269 0.97109 0.47032 0.0
H610 H 0.02051 0.86885 0.41271 0.0
H611 H 0.03505 0.87327 0.46295 0.0
H612 H 0.05778 0.90592 0.42871 0.0
H613 H 0.89037 0.92027 0.4062 0.0
H614 H 0.87834 0.92281 0.45636 0.0
H615 H 0.88343 0.88122 0.43596 0.0
C616 C 0.26083 0.78552 0.61713 0.0
C617 C 0.25763 0.82034 0.61177 0.0
C618 C 0.28755 0.77218 0.59579 0.0
C619 C 0.31134 0.79449 0.56863 0.0
C620 C 0.30439 0.82793 0.5595 0.0
C621 C 0.27778 0.84073 0.58168 0.0
C622 C 0.29355 0.73597 0.60583 0.0
C623 C 0.32805 0.85186 0.5297 0.0
C624 C 0.41011 0.78096 0.58306 0.0
C625 C 0.41063 0.75432 0.55564 0.0
C626 C 0.37938 0.79731 0.5848 0.0
C627 C 0.34852 0.78662 0.55843 0.0
C628 C 0.35139 0.76337 0.52744 0.0
C629 C 0.38264 0.74741 0.52636 0.0
C630 C 0.37788 0.82268 0.61793 0.0
C631 C 0.31992 0.75246 0.49778 0.0
H632 H 0.24473 0.76996 0.64029 0.0
H633 H 0.27507 0.86777 0.5777 0.0
H634 H 0.29663 0.72081 0.57914 0.0
H635 H 0.32039 0.7391 0.62287 0.0
H636 H 0.26949 0.72027 0.6233 0.0
H637 H 0.31252 0.87134 0.51831 0.0
H638 H 0.35504 0.86689 0.54332 0.0
H639 H 0.33577 0.83629 0.50513 0.0
H640 H 0.43165 0.78655 0.6057 0.0
H641 H 0.3836 0.72755 0.50435 0.0
H642 H 0.35624 0.80948 0.63947 0.0
H643 H 0.36919 0.84662 0.60741 0.0
H644 H 0.40595 0.83129 0.63293 0.0
H645 H 0.29849 0.72902 0.50864 0.0
H646 H 0.33142 0.74483 0.46991 0.0
H647 H 0.30497 0.774 0.49235 0.0
C648 C 0.73917 0.8189 0.78665 0.0
C649 C 0.72563 0.84744 0.8014 0.0
C650 C 0.77255 0.82485 0.76377 0.0
C651 C 0.79212 0.86015 0.75497 0.0
C652 C 0.77764 0.88891 0.76881 0.0
C653 C 0.74506 0.88217 0.79238 0.0
C654 C 0.78765 0.79358 0.75038 0.0
C655 C 0.79732 0.927 0.75994 0.0
C656 C 0.89747 0.89426 0.73425 0.0
C657 C 0.89687 0.90231 0.69461 0.0
C658 C 0.86393 0.87683 0.75361 0.0
C659 C 0.82882 0.86797 0.73305 0.0
C660 C 0.82862 0.87311 0.69248 0.0
C661 C 0.86274 0.88983 0.67367 0.0
C662 C 0.8655 0.87089 0.79679 0.0
C663 C 0.7918 0.86408 0.66948 0.0
H664 H 0.72425 0.79206 0.79401 0.0
H665 H 0.73561 0.90426 0.8051 0.0
H666 H 0.79314 0.79505 0.7187 0.0
H667 H 0.81539 0.79426 0.7649 0.0
H668 H 0.76751 0.76783 0.75705 0.0
H669 H 0.78067 0.94602 0.77046 0.0
H670 H 0.82598 0.93381 0.77389 0.0
H671 H 0.8017 0.9306 0.72822 0.0
H672 H 0.92348 0.90365 0.75091 0.0
H673 H 0.86216 0.89477 0.6428 0.0
H674 H 0.84776 0.84439 0.80478 0.0
H675 H 0.85369 0.89109 0.81238 0.0
H676 H 0.8953 0.87303 0.80705 0.0
H677 H 0.77406 0.83772 0.67788 0.0
H678 H 0.79719 0.86408 0.63775 0.0
H679 H 0.77488 0.88404 0.67585 0.0
C680 C 0.73355 0.18468 0.44566 0.0
C681 C 0.76437 0.21423 0.44816 0.0
C682 C 0.72224 0.16872 0.40967 0.0
C683 C 0.74224 0.18312 0.37578 0.0
C684 C 0.77496 0.21166 0.37875 0.0
C685 C 0.7857 0.22684 0.41513 0.0
C686 C 0.68746 0.13805 0.40761 0.0
C687 C 0.79692 0.22783 0.34332 0.0
C688 C 0.72171 0.13227 0.28098 0.0
C689 C 0.69468 0.14854 0.26407 0.0
C690 C 0.73778 0.14339 0.3173 0.0
C691 C 0.72633 0.17123 0.33709 0.0
C692 C 0.69946 0.18806 0.31996 0.0
C693 C 0.68407 0.17659 0.28357 0.0
C694 C 0.76653 0.12505 0.33476 0.0
C695 C 0.68672 0.21805 0.3402 0.0
H696 H 0.71741 0.17524 0.47164 0.0
H697 H 0.80945 0.24993 0.41766 0.0
H698 H 0.66337 0.14705 0.39405 0.0
H699 H 0.6934 0.11637 0.38924 0.0
H700 H 0.67822 0.12725 0.43678 0.0
H701 H 0.82421 0.24689 0.35106 0.0
H702 H 0.80345 0.20685 0.32428 0.0
H703 H 0.77909 0.24215 0.32631 0.0
H704 H 0.72964 0.11028 0.26622 0.0
H705 H 0.66365 0.1896 0.27034 0.0
H706 H 0.75515 0.1121 0.36235 0.0
H707 H 0.79349 0.14478 0.34178 0.0
H708 H 0.77333 0.10461 0.31503 0.0
H709 H 0.67345 0.20883 0.36853 0.0
H710 H 0.66569 0.22835 0.32279 0.0
H711 H 0.71187 0.24024 0.3462 0.0
C712 C 0.40623 0.75075 0.32528 0.0
C713 C 0.40343 0.73738 0.28692 0.0
C714 C 0.41987 0.73291 0.35698 0.0
C715 C 0.42892 0.69892 0.35186 0.0
C716 C 0.42641 0.68574 0.31291 0.0
C717 C 0.41542 0.70539 0.28167 0.0
C718 C 0.42325 0.75076 0.39617 0.0
C719 C 0.43313 0.6496 0.30339 0.0
C720 C 0.48593 0.64684 0.41908 0.0
C721 C 0.45944 0.63157 0.44806 0.0
C722 C 0.47727 0.6697 0.38953 0.0
C723 C 0.43994 0.67685 0.38633 0.0
C724 C 0.41291 0.66102 0.41561 0.0
C725 C 0.42323 0.63989 0.44614 0.0
C726 C 0.50919 0.68629 0.36218 0.0
C727 C 0.37237 0.66571 0.41524 0.0
H728 H 0.3962 0.77456 0.33105 0.0
H729 H 0.41254 0.69367 0.25289 0.0
H730 H 0.39422 0.74743 0.40891 0.0
H731 H 0.44151 0.73997 0.41656 0.0
H732 H 0.4354 0.77975 0.39306 0.0
H733 H 0.41363 0.63664 0.27981 0.0
H734 H 0.46287 0.65281 0.29262 0.0
H735 H 0.42878 0.63153 0.32869 0.0
H736 H 0.51433 0.64167 0.42 0.0
H737 H 0.40223 0.62901 0.46815 0.0
H738 H 0.50366 0.70955 0.34657 0.0
H739 H 0.51324 0.66606 0.3407 0.0
H740 H 0.53662 0.69489 0.37832 0.0
H741 H 0.37049 0.68804 0.43484 0.0
H742 H 0.35213 0.6416 0.42647 0.0
H743 H 0.36284 0.67134 0.38584 0.0
C744 C 0.09323 0.43936 0.80029 0.0
C745 C 0.13204 0.43722 0.79903 0.0
C746 C 0.07755 0.45571 0.83192 0.0
C747 C 0.10061 0.47098 0.8643 0.0
C748 C 0.13961 0.46815 0.86349 0.0
C749 C 0.15447 0.45141 0.83167 0.0
C750 C 0.036 0.45722 0.83023 0.0
C751 C 0.16623 0.48359 0.89623 0.0
C752 C 0.07249 0.54858 0.92211 0.0
C753 C 0.05502 0.53323 0.95684 0.0
C754 C 0.08724 0.5291 0.89293 0.0
C755 C 0.08501 0.49212 0.89696 0.0
C756 C 0.06775 0.4762 0.93215 0.0
C757 C 0.0532 0.49658 0.96128 0.0
C758 C 0.10515 0.54845 0.85717 0.0
C759 C 0.06405 0.43717 0.93883 0.0
H760 H 0.07505 0.42876 0.7759 0.0
H761 H 0.18416 0.44967 0.83221 0.0
H762 H 0.02117 0.44642 0.85736 0.0
H763 H 0.03391 0.48526 0.82792 0.0
H764 H 0.02079 0.44209 0.80518 0.0
H765 H 0.19509 0.47812 0.89283 0.0
H766 H 0.16942 0.51276 0.89757 0.0
H767 H 0.15391 0.47256 0.92432 0.0
H768 H 0.07452 0.57658 0.91729 0.0
H769 H 0.03971 0.48355 0.98714 0.0
H770 H 0.08888 0.53674 0.83104 0.0
H771 H 0.13493 0.54532 0.85371 0.0
H772 H 0.10578 0.57724 0.85824 0.0
H773 H 0.04567 0.4216 0.91594 0.0
H774 H 0.05145 0.42851 0.96762 0.0
H775 H 0.0926 0.43087 0.93667 0.0
C776 C 0.59813 0.86915 0.90745 0.0
C777 C 0.62983 0.88168 0.88339 0.0
C778 C 0.58084 0.89293 0.92764 0.0
C779 C 0.59515 0.93 0.92283 0.0
C780 C 0.62597 0.94263 0.89705 0.0
C781 C 0.64336 0.91836 0.87829 0.0
C782 C 0.5486 0.87844 0.95554 0.0
C783 C 0.64178 0.98188 0.89059 0.0
C784 C 0.5373 0.99487 0.95788 0.0
C785 C 0.5568 1.00781 0.99209 0.0
C786 C 0.54927 0.96935 0.93495 0.0
C787 C 0.58066 0.95576 0.94731 0.0
C788 C 0.59978 0.96821 0.98237 0.0
C789 C 0.58799 0.99447 1.004 0.0
C790 C 0.5289 0.95747 0.89721 0.0
C791 C 0.63274 0.95378 0.9971 0.0
H792 H 0.58768 0.8408 0.91129 0.0
H793 H 0.66862 0.92818 0.86076 0.0
H794 H 0.55825 0.88603 0.98562 0.0
H795 H 0.52375 0.89009 0.94965 0.0
H796 H 0.53897 0.84904 0.95387 0.0
H797 H 0.66248 0.98713 0.86612 0.0
H798 H 0.61819 0.99518 0.88456 0.0
H799 H 0.65664 0.99419 0.9172 0.0
H800 H 0.5131 1.00513 0.94873 0.0
H801 H 0.60267 1.00397 0.03083 0.0
H802 H 0.51796 0.92821 0.89694 0.0
H803 H 0.5494 0.96426 0.87275 0.0
H804 H 0.50452 0.97004 0.89213 0.0
H805 H 0.6241 0.92438 0.9987 0.0
H806 H 0.6427 0.96442 0.02623 0.0
H807 H 0.65723 0.96071 0.97667 0.0
C808 C 0.87121 0.23476 0.49247 0.0
C809 C 0.83232 0.22016 0.49951 0.0
C810 C 0.89764 0.21318 0.49281 0.0
C811 C 0.88447 0.17638 0.50013 0.0
C812 C 0.84478 0.16132 0.50439 0.0
C813 C 0.81925 0.18351 0.50424 0.0
C814 C 0.93973 0.23006 0.48778 0.0
C815 C 0.8295 0.1222 0.51212 0.0
C816 C 0.94656 0.10942 0.49568 0.0
C817 C 0.95461 0.10674 0.53513 0.0
C818 C 0.92511 0.13336 0.48316 0.0
C819 C 0.91186 0.15484 0.51088 0.0
C820 C 0.92147 0.15313 0.55046 0.0
C821 C 0.94255 0.12901 0.56205 0.0
C822 C 0.91546 0.13472 0.44071 0.0
C823 C 0.90816 0.17577 0.58095 0.0
H824 H 0.88093 0.26301 0.48741 0.0
H825 H 0.78901 0.17244 0.50936 0.0
H826 H 0.95421 0.23199 0.51641 0.0
H827 H 0.95349 0.21355 0.46866 0.0
H828 H 0.94455 0.25719 0.47544 0.0
H829 H 0.79779 0.11407 0.50939 0.0
H830 H 0.84235 0.10601 0.49176 0.0
H831 H 0.83745 0.11606 0.54197 0.0
H832 H 0.95637 0.09245 0.47485 0.0
H833 H 0.9493 0.1274 0.59254 0.0
H834 H 0.92006 0.16262 0.43086 0.0
H835 H 0.88472 0.12188 0.43618 0.0
H836 H 0.93285 0.1208 0.42235 0.0
H837 H 0.91628 0.20417 0.57264 0.0
H838 H 0.92048 0.17297 0.61 0.0
H839 H 0.87644 0.16805 0.58326 0.0
C840 C 0.28633 0.68401 0.17941 0.0
C841 C 0.29021 0.71732 0.1974 0.0
C842 C 0.25229 0.66697 0.15946 0.0
C843 C 0.22047 0.68303 0.15778 0.0
C844 C 0.22426 0.7166 0.17632 0.0
C845 C 0.25892 0.73334 0.19539 0.0
C846 C 0.25052 0.63173 0.13983 0.0
C847 C 0.19136 0.73471 0.17652 0.0
C848 C 0.14037 0.65409 0.08038 0.0
C849 C 0.11247 0.6287 0.10022 0.0
C850 C 0.17562 0.67135 0.09828 0.0
C851 C 0.18309 0.66437 0.13771 0.0
C852 C 0.15453 0.63933 0.158 0.0
C853 C 0.1203 0.62153 0.139 0.0
C854 C 0.20524 0.69674 0.07471 0.0
C855 C 0.15987 0.63154 0.20021 0.0
H856 H 0.31034 0.67151 0.1805 0.0
H857 H 0.26149 0.75893 0.20928 0.0
H858 H 0.22755 0.6109 0.15307 0.0
H859 H 0.24324 0.63331 0.10872 0.0
H860 H 0.27803 0.6234 0.14208 0.0
H861 H 0.19837 0.76037 0.19255 0.0
H862 H 0.1834 0.73975 0.14636 0.0
H863 H 0.16583 0.71713 0.1901 0.0
H864 H 0.13506 0.65987 0.05045 0.0
H865 H 0.09906 0.60234 0.15499 0.0
H866 H 0.23264 0.68812 0.07484 0.0
H867 H 0.21103 0.72364 0.08789 0.0
H868 H 0.19603 0.69849 0.04418 0.0
H869 H 0.1852 0.62004 0.20367 0.0
H870 H 0.13445 0.61275 0.21255 0.0
H871 H 0.16541 0.65656 0.21733 0.0
C872 C 0.2176 0.45152 0.65889 0.0
C873 C 0.21724 0.42348 0.68501 0.0
C874 C 0.2513 0.46925 0.6385 0.0
C875 C 0.28657 0.45875 0.64297 0.0
C876 C 0.28595 0.42935 0.66803 0.0
C877 C 0.25204 0.41285 0.68909 0.0
C878 C 0.24951 0.50065 0.6135 0.0
C879 C 0.32165 0.41581 0.67364 0.0
C880 C 0.36508 0.48882 0.56322 0.0
C881 C 0.39246 0.51679 0.58078 0.0
C882 C 0.33172 0.46958 0.58306 0.0
C883 C 0.32364 0.47857 0.62177 0.0
C884 C 0.35094 0.5071 0.6396 0.0
C885 C 0.38484 0.52522 0.61942 0.0
C886 C 0.30515 0.43908 0.56245 0.0
C887 C 0.34408 0.51892 0.68014 0.0
H888 H 0.19166 0.46107 0.65615 0.0
H889 H 0.25328 0.39249 0.71012 0.0
H890 H 0.26974 0.52478 0.62484 0.0
H891 H 0.25855 0.4963 0.58347 0.0
H892 H 0.2203 0.50569 0.61257 0.0
H893 H 0.31575 0.39028 0.68964 0.0
H894 H 0.33461 0.412 0.64515 0.0
H895 H 0.34313 0.43566 0.69019 0.0
H896 H 0.37005 0.48133 0.53368 0.0
H897 H 0.40515 0.54655 0.63381 0.0
H898 H 0.27652 0.44488 0.5588 0.0
H899 H 0.30116 0.41464 0.58016 0.0
H900 H 0.3161 0.43378 0.53341 0.0
H901 H 0.31571 0.52569 0.68174 0.0
H902 H 0.36652 0.54236 0.68961 0.0
H903 H 0.34348 0.49693 0.70077 0.0
C904 C 0.7134 0.77111 0.88047 0.0
C905 C 0.72372 0.8079 0.87555 0.0
C906 C 0.74063 0.75248 0.89213 0.0
C907 C 0.77885 0.77136 0.8995 0.0
C908 C 0.78931 0.80867 0.89419 0.0
C909 C 0.76152 0.8265 0.88219 0.0
C910 C 0.72851 0.71268 0.89661 0.0
C911 C 0.8297 0.8298 0.90166 0.0
C912 C 0.84028 0.73072 0.96721 0.0
C913 C 0.86459 0.71886 0.94109 0.0
C914 C 0.81202 0.74753 0.95401 0.0
C915 C 0.80769 0.7523 0.9137 0.0
C916 C 0.83148 0.73958 0.8871 0.0
C917 C 0.85974 0.72315 0.90113 0.0
C918 C 0.78737 0.76098 0.98327 0.0
C919 C 0.82739 0.74373 0.84387 0.0
H920 H 0.68401 0.75708 0.87495 0.0
H921 H 0.76907 0.85502 0.87819 0.0
H922 H 0.74681 0.69974 0.8783 0.0
H923 H 0.7325 0.70533 0.92712 0.0
H924 H 0.69806 0.70189 0.88839 0.0
H925 H 0.83321 0.85852 0.89555 0.0
H926 H 0.83752 0.82672 0.93236 0.0
H927 H 0.8502 0.81958 0.88333 0.0
H928 H 0.84412 0.72779 0.9981 0.0
H929 H 0.87811 0.7136 0.88076 0.0
H930 H 0.75662 0.74916 0.97742 0.0
H931 H 0.79184 0.79021 0.9806 0.0
H932 H 0.79388 0.75466 1.01355 0.0
H933 H 0.79737 0.73224 0.83477 0.0
H934 H 0.8467 0.7307 0.827 0.0
H935 H 0.83404 0.77233 0.83631 0.0
C936 C 0.39382 0.8405 0.24072 0.0
C937 C 0.40774 0.81013 0.23166 0.0
C938 C 0.40913 0.87465 0.22405 0.0
C939 C 0.44058 0.88025 0.19768 0.0
C940 C 0.45665 0.85035 0.19049 0.0
C941 C 0.43984 0.81611 0.20665 0.0
C942 C 0.38948 0.90424 0.23261 0.0
C943 C 0.49075 0.85398 0.16401 0.0
C944 C 0.45658 0.95898 0.12255 0.0
C945 C 0.48294 0.98688 0.14132 0.0
C946 C 0.44268 0.92481 0.14022 0.0
C947 C 0.45588 0.91688 0.17757 0.0
C948 C 0.48315 0.94477 0.19608 0.0
C949 C 0.4956 0.97885 0.17837 0.0
C950 C 0.41317 0.89714 0.11894 0.0
C951 C 0.49966 0.93855 0.23493 0.0
H952 H 0.36806 0.83663 0.25818 0.0
H953 H 0.4503 0.79331 0.19747 0.0
H954 H 0.41055 0.92819 0.24302 0.0
H955 H 0.37662 0.91165 0.20553 0.0
H956 H 0.36651 0.89662 0.2547 0.0
H957 H 0.5039 0.83079 0.16606 0.0
H958 H 0.48163 0.8562 0.13358 0.0
H959 H 0.51282 0.87848 0.17105 0.0
H960 H 0.44611 0.96403 0.09417 0.0
H961 H 0.51607 0.99939 0.1937 0.0
H962 H 0.38753 0.88788 0.13754 0.0
H963 H 0.42496 0.87373 0.11243 0.0
H964 H 0.40411 0.90733 0.0913 0.0
H965 H 0.47663 0.93305 0.25709 0.0
H966 H 0.5223 0.96168 0.24475 0.0
H967 H 0.51204 0.91487 0.23334 0.0
C968 C 0.11199 0.33853 0.67528 0.0
C969 C 0.14928 0.35182 0.69047 0.0
C970 C 0.10031 0.30465 0.65653 0.0
C971 C 0.12632 0.28225 0.65134 0.0
C972 C 0.16456 0.29609 0.66522 0.0
C973 C 0.17531 0.32997 0.68464 0.0
C974 C 0.05928 0.29231 0.64331 0.0
C975 C 0.19422 0.2746 0.66036 0.0
C976 C 0.08564 0.17917 0.63684 0.0
C977 C 0.08541 0.17405 0.59616 0.0
C978 C 0.09871 0.21343 0.65476 0.0
C979 C 0.11318 0.2446 0.63225 0.0
C980 C 0.11362 0.23946 0.5912 0.0
C981 C 0.09963 0.20503 0.57399 0.0
C982 C 0.09642 0.21633 0.69826 0.0
C983 C 0.12905 0.27063 0.56507 0.0
H984 H 0.09119 0.35449 0.67915 0.0
H985 H 0.20387 0.33867 0.69655 0.0
H986 H 0.05827 0.28626 0.6118 0.0
H987 H 0.04543 0.2674 0.65852 0.0
H988 H 0.04232 0.31239 0.64898 0.0
H989 H 0.22333 0.28981 0.66886 0.0
H990 H 0.18642 0.2504 0.6785 0.0
H991 H 0.195 0.26578 0.62976 0.0
H992 H 0.07486 0.15624 0.65498 0.0
H993 H 0.10016 0.20241 0.5427 0.0
H994 H 0.07817 0.2348 0.70612 0.0
H995 H 0.12538 0.22757 0.71038 0.0
H996 H 0.08445 0.19025 0.7121 0.0
H997 H 0.11081 0.29004 0.56736 0.0
H998 H 0.13006 0.26253 0.53421 0.0
H999 H 0.15837 0.28445 0.57441 0.0
C1000 C 0.77002 0.34069 0.49534 0.0
C1001 C 0.76815 0.31747 0.52655 0.0
C1002 C 0.74965 0.3673 0.49614 0.0
C1003 C 0.72836 0.37141 0.52971 0.0
C1004 C 0.73171 0.35172 0.56352 0.0
C1005 C 0.75103 0.32419 0.56127 0.0
C1006 C 0.74671 0.38742 0.45931 0.0
C1007 C 0.71133 0.35701 0.60056 0.0
C1008 C 0.6745 0.44424 0.52087 0.0
C1009 C 0.63781 0.42473 0.50973 0.0
C1010 C 0.70367 0.42716 0.53036 0.0
C1011 C 0.69675 0.3899 0.52634 0.0
C1012 C 0.65985 0.37002 0.51548 0.0
C1013 C 0.63069 0.38757 0.50839 0.0
C1014 C 0.74205 0.44929 0.54346 0.0
C1015 C 0.65147 0.33029 0.50926 0.0
H1016 H 0.78346 0.33502 0.46864 0.0
H1017 H 0.7499 0.30608 0.58533 0.0
H1018 H 0.71762 0.37786 0.44674 0.0
H1019 H 0.75087 0.41617 0.46541 0.0
H1020 H 0.76811 0.38378 0.43729 0.0
H1021 H 0.7237 0.34608 0.62593 0.0
H1022 H 0.71292 0.38564 0.6057 0.0
H1023 H 0.68061 0.3432 0.59824 0.0
H1024 H 0.68097 0.47297 0.52161 0.0
H1025 H 0.60233 0.37193 0.50132 0.0
H1026 H 0.76111 0.45641 0.51796 0.0
H1027 H 0.75621 0.43463 0.5642 0.0
H1028 H 0.73902 0.4744 0.55742 0.0
H1029 H 0.66862 0.32443 0.48435 0.0
H1030 H 0.62072 0.31862 0.50298 0.0
H1031 H 0.65973 0.31692 0.53512 0.0
loop_
_geom_bond_atom_site_label_1
_geom_bond_atom_site_label_2
_geom_bond_distance
_geom_bond_site_symmetry_2
_ccdc_geom_bond_type
C0 N1 1.317 . S
C0 N2 1.348 . S
C0 C3 1.485 . S
N1 C0 1.317 . S
N1 N5 1.370 . S
N2 C0 1.348 . S
N2 C4 1.346 . S
C3 C0 1.485 . S
C3 H7 0.960 . S
C3 H8 0.961 . S
C3 H9 0.960 . S
C4 N2 1.346 . S
C4 N5 1.307 . S
C4 C6 1.486 . S
N5 N1 1.370 . S
N5 C4 1.307 . S
C6 C4 1.486 . S
C6 H10 0.960 . S
C6 H11 0.960 . S
C6 H12 0.959 . S
H7 C3 0.960 . S
H8 C3 0.961 . S
H9 C3 0.960 . S
H10 C6 0.960 . S
H11 C6 0.960 . S
H12 C6 0.959 . S
C13 N14 1.317 . S
C13 N15 1.348 . S
C13 C16 1.485 . S
N14 C13 1.317 . S
N14 N18 1.370 . S
N15 C13 1.348 . S
N15 C17 1.346 . S
C16 C13 1.485 . S
C16 H20 0.960 . S
C16 H21 0.961 . S
C16 H22 0.960 . S
C17 N15 1.346 . S
C17 N18 1.307 . S
C17 C19 1.486 . S
N18 N14 1.370 . S
N18 C17 1.307 . S
C19 C17 1.486 . S
C19 H23 0.960 . S
C19 H24 0.960 . S
C19 H25 0.959 . S
H20 C16 0.960 . S
H21 C16 0.961 . S
H22 C16 0.960 . S
H23 C19 0.960 . S
H24 C19 0.960 . S
H25 C19 0.959 . S
C26 N27 1.317 . S
C26 N28 1.348 . S
C26 C29 1.485 . S
N27 C26 1.317 . S
N27 N31 1.370 . S
N28 C26 1.348 . S
N28 C30 1.346 . S
C29 C26 1.485 . S
C29 H33 0.960 . S
C29 H34 0.961 . S
C29 H35 0.960 . S
C30 N28 1.346 . S
C30 N31 1.307 . S
C30 C32 1.486 . S
N31 N27 1.370 . S
N31 C30 1.307 . S
C32 C30 1.486 . S
C32 H36 0.960 . S
C32 H37 0.960 . S
C32 H38 0.959 . S
H33 C29 0.960 . S
H34 C29 0.961 . S
H35 C29 0.960 . S
H36 C32 0.960 . S
H37 C32 0.960 . S
H38 C32 0.959 . S
C39 N40 1.317 . S
C39 N41 1.348 . S
C39 C42 1.485 . S
N40 C39 1.317 . S
N40 N44 1.370 . S
N41 C39 1.348 . S
N41 C43 1.346 . S
C42 C39 1.485 . S
C42 H46 0.960 . S
C42 H47 0.961 . S
C42 H48 0.960 . S
C43 N41 1.346 . S
C43 N44 1.307 . S
C43 C45 1.486 . S
N44 N40 1.370 . S
N44 C43 1.307 . S
C45 C43 1.486 . S
C45 H49 0.960 . S
C45 H50 0.960 . S
C45 H51 0.959 . S
H46 C42 0.960 . S
H47 C42 0.961 . S
H48 C42 0.960 . S
H49 C45 0.960 . S
H50 C45 0.960 . S
H51 C45 0.959 . S
C52 N53 1.317 . S
C52 N54 1.348 . S
C52 C55 1.485 . S
N53 C52 1.317 . S
N53 N57 1.370 . S
N54 C52 1.348 . S
N54 C56 1.346 . S
C55 C52 1.485 . S
C55 H59 0.960 . S
C55 H60 0.961 . S
C55 H61 0.960 . S
C56 N54 1.346 . S
C56 N57 1.307 . S
C56 C58 1.486 . S
N57 N53 1.370 . S
N57 C56 1.307 . S
C58 C56 1.486 . S
C58 H62 0.960 . S
C58 H63 0.960 . S
C58 H64 0.959 . S
H59 C55 0.960 . S
H60 C55 0.961 . S
H61 C55 0.960 . S
H62 C58 0.960 . S
H63 C58 0.960 . S
H64 C58 0.959 . S
C65 N66 1.317 . S
C65 N67 1.348 . S
C65 C68 1.485 . S
N66 C65 1.317 . S
N66 N70 1.370 . S
N67 C65 1.348 . S
N67 C69 1.346 . S
C68 C65 1.485 . S
C68 H72 0.960 . S
C68 H73 0.961 . S
C68 H74 0.960 . S
C69 N67 1.346 . S
C69 N70 1.307 . S
C69 C71 1.486 . S
N70 N66 1.370 . S
N70 C69 1.307 . S
C71 C69 1.486 . S
C71 H75 0.960 . S
C71 H76 0.960 . S
C71 H77 0.959 . S
H72 C68 0.960 . S
H73 C68 0.961 . S
H74 C68 0.960 . S
H75 C71 0.960 . S
H76 C71 0.960 . S
H77 C71 0.959 . S
C78 N79 1.317 . S
C78 N80 1.348 . S
C78 C81 1.485 . S
N79 C78 1.317 . S
N79 N83 1.370 . S
N80 C78 1.348 . S
N80 C82 1.346 . S
C81 C78 1.485 . S
C81 H85 0.960 . S
C81 H86 0.961 . S
C81 H87 0.960 . S
C82 N80 1.346 . S
C82 N83 1.307 . S
C82 C84 1.486 . S
N83 N79 1.370 . S
N83 C82 1.307 . S
C84 C82 1.486 . S
C84 H88 0.960 . S
C84 H89 0.960 . S
C84 H90 0.959 . S
H85 C81 0.960 . S
H86 C81 0.961 . S
H87 C81 0.960 . S
H88 C84 0.960 . S
H89 C84 0.960 . S
H90 C84 0.959 . S
C91 N92 1.317 . S
C91 N93 1.348 . S
C91 C94 1.485 . S
N92 C91 1.317 . S
N92 N96 1.370 . S
N93 C91 1.348 . S
N93 C95 1.346 . S
C94 C91 1.485 . S
C94 H98 0.960 . S
C94 H99 0.961 . S
C94 H100 0.960 . S
C95 N93 1.346 . S
C95 N96 1.307 . S
C95 C97 1.486 . S
N96 N92 1.370 . S
N96 C95 1.307 . S
C97 C95 1.486 . S
C97 H101 0.960 . S
C97 H102 0.960 . S
C97 H103 0.959 . S
H98 C94 0.960 . S
H99 C94 0.961 . S
H100 C94 0.960 . S
H101 C97 0.960 . S
H102 C97 0.960 . S
H103 C97 0.959 . S
Gd104 C107 2.818 . S
Gd104 O124 2.377 . S
Gd104 O126 2.448 . S
Gd104 O127 2.506 . S
Gd104 O128 2.435 . S
Gd104 O129 2.717 . S
Gd104 O131 2.395 1_545 S
Gd104 O135 2.327 . S
Gd105 C116 2.818 1_445 S
Gd105 O125 2.395 . S
Gd105 O129 2.327 . S
Gd105 O130 2.377 1_445 S
Gd105 O132 2.448 1_445 S
Gd105 O133 2.506 1_445 S
Gd105 O134 2.435 1_455 S
Gd105 O135 2.717 . S
C106 O124 1.240 . S
C106 O125 1.240 . S
C107 Gd104 2.818 . S
C107 C108 1.510 . S
C107 O126 1.249 . S
C107 O127 1.252 . S
C108 C107 1.510 . S
C108 C109 1.404 . S
C108 C110 1.352 . S
C109 C108 1.404 . S
C109 C113 1.389 . S
C109 H136 0.930 . S
C110 C108 1.352 . S
C110 C112 1.374 . S
C110 H137 0.931 . S
C111 C112 1.359 . S
C111 C113 1.364 . S
C112 C110 1.374 . S
C112 C111 1.359 . S
C112 H138 0.931 . S
C113 C109 1.389 . S
C113 C111 1.364 . S
C113 H139 0.931 . S
C114 O128 1.256 1_565 S
C114 O129 1.257 1_565 S
C115 O130 1.240 . S
C115 O131 1.240 1_655 S
C116 Gd105 2.818 1_665 S
C116 C117 1.510 . S
C116 O132 1.249 . S
C116 O133 1.252 . S
C117 C116 1.510 . S
C117 C118 1.404 . S
C117 C119 1.352 . S
C118 C117 1.404 . S
C118 C122 1.389 . S
C118 H140 0.930 . S
C119 C117 1.352 . S
C119 C121 1.374 . S
C119 H141 0.931 . S
C120 C121 1.359 . S
C120 C122 1.364 . S
C121 C119 1.374 . S
C121 C120 1.359 . S
C121 H142 0.931 . S
C122 C118 1.389 . S
C122 C120 1.364 . S
C122 H143 0.931 . S
C123 O134 1.256 . S
C123 O135 1.257 1_655 S
O124 Gd104 2.377 . S
O124 C106 1.240 . S
O125 Gd105 2.395 . S
O125 C106 1.240 . S
O126 Gd104 2.448 . S
O126 C107 1.249 . S
O127 Gd104 2.506 . S
O127 C107 1.252 . S
O128 Gd104 2.435 . S
O128 C114 1.256 1_545 S
O129 Gd104 2.717 . S
O129 Gd105 2.327 . S
O129 C114 1.257 1_545 S
O130 Gd105 2.377 1_665 S
O130 C115 1.240 . S
O131 Gd104 2.395 1_565 S
O131 C115 1.240 1_455 S
O132 Gd105 2.448 1_665 S
O132 C116 1.249 . S
O133 Gd105 2.506 1_665 S
O133 C116 1.252 . S
O134 Gd105 2.435 1_655 S
O134 C123 1.256 . S
O135 Gd104 2.327 . S
O135 Gd105 2.717 . S
O135 C123 1.257 1_455 S
H136 C109 0.930 . S
H137 C110 0.931 . S
H138 C112 0.931 . S
H139 C113 0.931 . S
H140 C118 0.930 . S
H141 C119 0.931 . S
H142 C121 0.931 . S
H143 C122 0.931 . S
Gd144 C147 2.818 . S
Gd144 O164 2.377 . S
Gd144 O166 2.448 . S
Gd144 O167 2.506 . S
Gd144 O168 2.435 1_545 S
Gd144 O169 2.717 . S
Gd144 O171 2.395 . S
Gd144 O175 2.327 . S
Gd145 C156 2.818 1_554 S
Gd145 O165 2.395 . S
Gd145 O169 2.327 . S
Gd145 O170 2.377 1_554 S
Gd145 O172 2.448 1_554 S
Gd145 O173 2.506 1_544 S
Gd145 O174 2.435 1_554 S
Gd145 O175 2.717 . S
C146 O164 1.240 . S
C146 O165 1.240 . S
C147 Gd144 2.818 . S
C147 C148 1.510 . S
C147 O166 1.249 . S
C147 O167 1.252 . S
C148 C147 1.510 . S
C148 C149 1.404 . S
C148 C150 1.352 . S
C149 C148 1.404 . S
C149 C153 1.389 . S
C149 H176 0.930 . S
C150 C148 1.352 . S
C150 C152 1.374 . S
C150 H177 0.931 . S
C151 C152 1.359 . S
C151 C153 1.364 . S
C152 C150 1.374 . S
C152 C151 1.359 . S
C152 H178 0.931 . S
C153 C149 1.389 . S
C153 C151 1.364 . S
C153 H179 0.931 . S
C154 O168 1.256 . S
C154 O169 1.257 1_565 S
C155 O170 1.240 1_554 S
C155 O171 1.240 . S
C156 Gd145 2.818 1_556 S
C156 C157 1.510 1_545 S
C156 O172 1.249 . S
C156 O173 1.252 1_545 S
C157 C156 1.510 1_565 S
C157 C158 1.404 . S
C157 C159 1.352 . S
C158 C157 1.404 . S
C158 C162 1.389 . S
C158 H180 0.930 1_565 S
C159 C157 1.352 . S
C159 C161 1.374 . S
C159 H181 0.931 . S
C160 C161 1.359 . S
C160 C162 1.364 . S
C161 C159 1.374 . S
C161 C160 1.359 . S
C161 H182 0.931 . S
C162 C158 1.389 . S
C162 C160 1.364 . S
C162 H183 0.931 . S
C163 O174 1.256 1_554 S
C163 O175 1.257 . S
O164 Gd144 2.377 . S
O164 C146 1.240 . S
O165 Gd145 2.395 . S
O165 C146 1.240 . S
O166 Gd144 2.448 . S
O166 C147 1.249 . S
O167 Gd144 2.506 . S
O167 C147 1.252 . S
O168 Gd144 2.435 1_565 S
O168 C154 1.256 . S
O169 Gd144 2.717 . S
O169 Gd145 2.327 . S
O169 C154 1.257 1_545 S
O170 Gd145 2.377 1_556 S
O170 C155 1.240 1_556 S
O171 Gd144 2.395 . S
O171 C155 1.240 . S
O172 Gd145 2.448 1_556 S
O172 C156 1.249 . S
O173 Gd145 2.506 1_566 S
O173 C156 1.252 1_565 S
O174 Gd145 2.435 1_556 S
O174 C163 1.256 1_556 S
O175 Gd144 2.327 . S
O175 Gd145 2.717 . S
O175 C163 1.257 . S
H176 C149 0.930 . S
H177 C150 0.931 . S
H178 C152 0.931 . S
H179 C153 0.931 . S
H180 C158 0.930 1_545 S
H181 C159 0.931 . S
H182 C161 0.931 . S
H183 C162 0.931 . S
Gd184 C187 2.818 . S
Gd184 O204 2.377 . S
Gd184 O206 2.448 . S
Gd184 O207 2.506 . S
Gd184 O208 2.435 . S
Gd184 O209 2.717 . S
Gd184 O211 2.395 . S
Gd184 O215 2.327 . S
Gd185 C196 2.818 . S
Gd185 O205 2.395 . S
Gd185 O209 2.327 . S
Gd185 O210 2.377 . S
Gd185 O212 2.448 . S
Gd185 O213 2.506 . S
Gd185 O214 2.435 . S
Gd185 O215 2.717 . S
C186 O204 1.240 . S
C186 O205 1.240 . S
C187 Gd184 2.818 . S
C187 C188 1.510 . S
C187 O206 1.249 . S
C187 O207 1.252 . S
C188 C187 1.510 . S
C188 C189 1.404 . S
C188 C190 1.352 . S
C189 C188 1.404 . S
C189 C193 1.389 . S
C189 H216 0.930 . S
C190 C188 1.352 . S
C190 C192 1.374 . S
C190 H217 0.931 . S
C191 C192 1.359 . S
C191 C193 1.364 . S
C192 C190 1.374 . S
C192 C191 1.359 . S
C192 H218 0.931 . S
C193 C189 1.389 . S
C193 C191 1.364 . S
C193 H219 0.931 . S
C194 O208 1.256 . S
C194 O209 1.257 . S
C195 O210 1.240 . S
C195 O211 1.240 . S
C196 Gd185 2.818 . S
C196 C197 1.510 . S
C196 O212 1.249 . S
C196 O213 1.252 . S
C197 C196 1.510 . S
C197 C198 1.404 . S
C197 C199 1.352 . S
C198 C197 1.404 . S
C198 C202 1.389 . S
C198 H220 0.930 . S
C199 C197 1.352 . S
C199 C201 1.374 . S
C199 H221 0.931 . S
C200 C201 1.359 . S
C200 C202 1.364 . S
C201 C199 1.374 . S
C201 C200 1.359 . S
C201 H222 0.931 . S
C202 C198 1.389 . S
C202 C200 1.364 . S
C202 H223 0.931 . S
C203 O214 1.256 . S
C203 O215 1.257 . S
O204 Gd184 2.377 . S
O204 C186 1.240 . S
O205 Gd185 2.395 . S
O205 C186 1.240 . S
O206 Gd184 2.448 . S
O206 C187 1.249 . S
O207 Gd184 2.506 . S
O207 C187 1.252 . S
O208 Gd184 2.435 . S
O208 C194 1.256 . S
O209 Gd184 2.717 . S
O209 Gd185 2.327 . S
O209 C194 1.257 . S
O210 Gd185 2.377 . S
O210 C195 1.240 . S
O211 Gd184 2.395 . S
O211 C195 1.240 . S
O212 Gd185 2.448 . S
O212 C196 1.249 . S
O213 Gd185 2.506 . S
O213 C196 1.252 . S
O214 Gd185 2.435 . S
O214 C203 1.256 . S
O215 Gd184 2.327 . S
O215 Gd185 2.717 . S
O215 C203 1.257 . S
H216 C189 0.930 . S
H217 C190 0.931 . S
H218 C192 0.931 . S
H219 C193 0.931 . S
H220 C198 0.930 . S
H221 C199 0.931 . S
H222 C201 0.931 . S
H223 C202 0.931 . S
Gd224 C227 2.818 . S
Gd224 O244 2.377 . S
Gd224 O246 2.448 . S
Gd224 O247 2.506 . S
Gd224 O248 2.435 1_455 S
Gd224 O249 2.717 1_455 S
Gd224 O251 2.395 1_455 S
Gd224 O255 2.327 1_554 S
Gd225 C236 2.818 1_455 S
Gd225 O245 2.395 1_556 S
Gd225 O249 2.327 1_456 S
Gd225 O250 2.377 1_455 S
Gd225 O252 2.448 1_455 S
Gd225 O253 2.506 1_455 S
Gd225 O254 2.435 . S
Gd225 O255 2.717 . S
C226 O244 1.240 . S
C226 O245 1.240 . S
C227 Gd224 2.818 . S
C227 C228 1.510 . S
C227 O246 1.249 . S
C227 O247 1.252 . S
C228 C227 1.510 . S
C228 C229 1.404 . S
C228 C230 1.352 . S
C229 C228 1.404 . S
C229 C233 1.389 . S
C229 H256 0.930 . S
C230 C228 1.352 . S
C230 C232 1.374 . S
C230 H257 0.931 . S
C231 C232 1.359 . S
C231 C233 1.364 . S
C232 C230 1.374 . S
C232 C231 1.359 . S
C232 H258 0.931 . S
C233 C229 1.389 . S
C233 C231 1.364 . S
C233 H259 0.931 . S
C234 O248 1.256 . S
C234 O249 1.257 . S
C235 O250 1.240 . S
C235 O251 1.240 1_556 S
C236 Gd225 2.818 1_655 S
C236 C237 1.510 . S
C236 O252 1.249 . S
C236 O253 1.252 . S
C237 C236 1.510 . S
C237 C238 1.404 . S
C237 C239 1.352 . S
C238 C237 1.404 . S
C238 C242 1.389 . S
C238 H260 0.930 . S
C239 C237 1.352 . S
C239 C241 1.374 . S
C239 H261 0.931 . S
C240 C241 1.359 . S
C240 C242 1.364 . S
C241 C239 1.374 . S
C241 C240 1.359 . S
C241 H262 0.931 . S
C242 C238 1.389 . S
C242 C240 1.364 . S
C242 H263 0.931 . S
C243 O254 1.256 . S
C243 O255 1.257 . S
O244 Gd224 2.377 . S
O244 C226 1.240 . S
O245 Gd225 2.395 1_554 S
O245 C226 1.240 . S
O246 Gd224 2.448 . S
O246 C227 1.249 . S
O247 Gd224 2.506 . S
O247 C227 1.252 . S
O248 Gd224 2.435 1_655 S
O248 C234 1.256 . S
O249 Gd224 2.717 1_655 S
O249 Gd225 2.327 1_654 S
O249 C234 1.257 . S
O250 Gd225 2.377 1_655 S
O250 C235 1.240 . S
O251 Gd224 2.395 1_655 S
O251 C235 1.240 1_554 S
O252 Gd225 2.448 1_655 S
O252 C236 1.249 . S
O253 Gd225 2.506 1_655 S
O253 C236 1.252 . S
O254 Gd225 2.435 . S
O254 C243 1.256 . S
O255 Gd224 2.327 1_556 S
O255 Gd225 2.717 . S
O255 C243 1.257 . S
H256 C229 0.930 . S
H257 C230 0.931 . S
H258 C232 0.931 . S
H259 C233 0.931 . S
H260 C238 0.930 . S
H261 C239 0.931 . S
H262 C241 0.931 . S
H263 C242 0.931 . S
C264 C265 1.391 . S
C264 C266 1.394 . S
C264 H280 0.931 . S
C265 C264 1.391 . S
C265 C269 1.376 . S
C266 C264 1.394 . S
C266 C267 1.369 . S
C266 C270 1.531 . S
C267 C266 1.369 . S
C267 C268 1.410 . S
C267 C275 1.503 . S
C268 C267 1.410 . S
C268 C269 1.392 . S
C268 C271 1.511 . S
C269 C265 1.376 . S
C269 C268 1.392 . S
C269 H281 0.929 . S
C270 C266 1.531 . S
C270 H282 0.960 . S
C270 H283 0.962 . S
C270 H284 0.960 . S
C271 C268 1.511 . S
C271 H285 0.961 . S
C271 H286 0.961 . S
C271 H287 0.961 . S
C272 C273 1.370 . S
C272 C274 1.363 . S
C272 H288 0.931 . S
C273 C272 1.370 . S
C273 C277 1.408 . S
C274 C272 1.363 . S
C274 C275 1.370 . S
C274 C278 1.524 . S
C275 C267 1.503 . S
C275 C274 1.370 . S
C275 C276 1.403 . S
C276 C275 1.403 . S
C276 C277 1.404 . S
C276 C279 1.539 . S
C277 C273 1.408 . S
C277 C276 1.404 . S
C277 H289 0.930 . S
C278 C274 1.524 . S
C278 H290 0.956 . S
C278 H291 0.961 . S
C278 H292 0.961 . S
C279 C276 1.539 . S
C279 H293 0.958 . S
C279 H294 0.961 . S
C279 H295 0.960 . S
H280 C264 0.931 . S
H281 C269 0.929 . S
H282 C270 0.960 . S
H283 C270 0.962 . S
H284 C270 0.960 . S
H285 C271 0.961 . S
H286 C271 0.961 . S
H287 C271 0.961 . S
H288 C272 0.931 . S
H289 C277 0.930 . S
H290 C278 0.956 . S
H291 C278 0.961 . S
H292 C278 0.961 . S
H293 C279 0.958 . S
H294 C279 0.961 . S
H295 C279 0.960 . S
C296 C297 1.391 . S
C296 C298 1.394 . S
C296 H312 0.931 . S
C297 C296 1.391 . S
C297 C301 1.376 . S
C298 C296 1.394 . S
C298 C299 1.369 . S
C298 C302 1.531 . S
C299 C298 1.369 . S
C299 C300 1.410 . S
C299 C307 1.503 . S
C300 C299 1.410 . S
C300 C301 1.392 . S
C300 C303 1.511 . S
C301 C297 1.376 . S
C301 C300 1.392 . S
C301 H313 0.929 . S
C302 C298 1.531 . S
C302 H314 0.960 . S
C302 H315 0.962 . S
C302 H316 0.960 . S
C303 C300 1.511 . S
C303 H317 0.961 . S
C303 H318 0.961 . S
C303 H319 0.961 . S
C304 C305 1.370 . S
C304 C306 1.363 . S
C304 H320 0.931 . S
C305 C304 1.370 . S
C305 C309 1.408 . S
C306 C304 1.363 . S
C306 C307 1.370 . S
C306 C310 1.524 . S
C307 C299 1.503 . S
C307 C306 1.370 . S
C307 C308 1.403 . S
C308 C307 1.403 . S
C308 C309 1.404 . S
C308 C311 1.539 . S
C309 C305 1.408 . S
C309 C308 1.404 . S
C309 H321 0.930 . S
C310 C306 1.524 . S
C310 H322 0.956 . S
C310 H323 0.961 . S
C310 H324 0.961 . S
C311 C308 1.539 . S
C311 H325 0.958 . S
C311 H326 0.961 . S
C311 H327 0.960 . S
H312 C296 0.931 . S
H313 C301 0.929 . S
H314 C302 0.960 . S
H315 C302 0.962 . S
H316 C302 0.960 . S
H317 C303 0.961 . S
H318 C303 0.961 . S
H319 C303 0.961 . S
H320 C304 0.931 . S
H321 C309 0.930 . S
H322 C310 0.956 . S
H323 C310 0.961 . S
H324 C310 0.961 . S
H325 C311 0.958 . S
H326 C311 0.961 . S
H327 C311 0.960 . S
C328 C329 1.391 . S
C328 C330 1.394 . S
C328 H344 0.931 . S
C329 C328 1.391 . S
C329 C333 1.376 . S
C330 C328 1.394 . S
C330 C331 1.369 . S
C330 C334 1.531 . S
C331 C330 1.369 . S
C331 C332 1.410 . S
C331 C339 1.503 . S
C332 C331 1.410 . S
C332 C333 1.392 . S
C332 C335 1.511 . S
C333 C329 1.376 . S
C333 C332 1.392 . S
C333 H345 0.929 . S
C334 C330 1.531 . S
C334 H346 0.960 . S
C334 H347 0.962 . S
C334 H348 0.960 . S
C335 C332 1.511 . S
C335 H349 0.961 . S
C335 H350 0.961 . S
C335 H351 0.961 . S
C336 C337 1.370 . S
C336 C338 1.363 . S
C336 H352 0.931 . S
C337 C336 1.370 . S
C337 C341 1.408 . S
C338 C336 1.363 . S
C338 C339 1.370 . S
C338 C342 1.524 . S
C339 C331 1.503 . S
C339 C338 1.370 . S
C339 C340 1.403 . S
C340 C339 1.403 . S
C340 C341 1.404 . S
C340 C343 1.539 . S
C341 C337 1.408 . S
C341 C340 1.404 . S
C341 H353 0.930 . S
C342 C338 1.524 . S
C342 H354 0.956 . S
C342 H355 0.961 . S
C342 H356 0.961 . S
C343 C340 1.539 . S
C343 H357 0.958 . S
C343 H358 0.961 . S
C343 H359 0.960 . S
H344 C328 0.931 . S
H345 C333 0.929 . S
H346 C334 0.960 . S
H347 C334 0.962 . S
H348 C334 0.960 . S
H349 C335 0.961 . S
H350 C335 0.961 . S
H351 C335 0.961 . S
H352 C336 0.931 . S
H353 C341 0.930 . S
H354 C342 0.956 . S
H355 C342 0.961 . S
H356 C342 0.961 . S
H357 C343 0.958 . S
H358 C343 0.961 . S
H359 C343 0.960 . S
C360 C361 1.391 . S
C360 C362 1.394 . S
C360 H376 0.931 . S
C361 C360 1.391 . S
C361 C365 1.376 . S
C362 C360 1.394 . S
C362 C363 1.369 . S
C362 C366 1.531 . S
C363 C362 1.369 . S
C363 C364 1.410 . S
C363 C371 1.503 . S
C364 C363 1.410 . S
C364 C365 1.392 . S
C364 C367 1.511 . S
C365 C361 1.376 . S
C365 C364 1.392 . S
C365 H377 0.929 . S
C366 C362 1.531 . S
C366 H378 0.960 . S
C366 H379 0.962 . S
C366 H380 0.960 . S
C367 C364 1.511 . S
C367 H381 0.961 . S
C367 H382 0.961 . S
C367 H383 0.961 . S
C368 C369 1.370 . S
C368 C370 1.363 . S
C368 H384 0.931 . S
C369 C368 1.370 . S
C369 C373 1.408 . S
C370 C368 1.363 . S
C370 C371 1.370 . S
C370 C374 1.524 . S
C371 C363 1.503 . S
C371 C370 1.370 . S
C371 C372 1.403 . S
C372 C371 1.403 . S
C372 C373 1.404 . S
C372 C375 1.539 . S
C373 C369 1.408 . S
C373 C372 1.404 . S
C373 H385 0.930 . S
C374 C370 1.524 . S
C374 H386 0.956 . S
C374 H387 0.961 . S
C374 H388 0.961 . S
C375 C372 1.539 . S
C375 H389 0.958 . S
C375 H390 0.961 1_655 S
C375 H391 0.960 . S
H376 C360 0.931 . S
H377 C365 0.929 . S
H378 C366 0.960 . S
H379 C366 0.962 . S
H380 C366 0.960 . S
H381 C367 0.961 . S
H382 C367 0.961 . S
H383 C367 0.961 . S
H384 C368 0.931 . S
H385 C373 0.930 . S
H386 C374 0.956 . S
H387 C374 0.961 . S
H388 C374 0.961 . S
H389 C375 0.958 . S
H390 C375 0.961 1_455 S
H391 C375 0.960 . S
C392 C393 1.391 . S
C392 C394 1.394 . S
C392 H408 0.931 . S
C393 C392 1.391 . S
C393 C397 1.376 . S
C394 C392 1.394 . S
C394 C395 1.369 . S
C394 C398 1.531 . S
C395 C394 1.369 . S
C395 C396 1.410 . S
C395 C403 1.503 . S
C396 C395 1.410 . S
C396 C397 1.392 . S
C396 C399 1.511 . S
C397 C393 1.376 . S
C397 C396 1.392 . S
C397 H409 0.929 . S
C398 C394 1.531 . S
C398 H410 0.960 . S
C398 H411 0.962 . S
C398 H412 0.960 . S
C399 C396 1.511 . S
C399 H413 0.961 . S
C399 H414 0.961 . S
C399 H415 0.961 . S
C400 C401 1.370 . S
C400 C402 1.363 . S
C400 H416 0.931 . S
C401 C400 1.370 . S
C401 C405 1.408 . S
C402 C400 1.363 . S
C402 C403 1.370 . S
C402 C406 1.524 . S
C403 C395 1.503 . S
C403 C402 1.370 . S
C403 C404 1.403 . S
C404 C403 1.403 . S
C404 C405 1.404 . S
C404 C407 1.539 . S
C405 C401 1.408 . S
C405 C404 1.404 . S
C405 H417 0.930 . S
C406 C402 1.524 . S
C406 H418 0.956 . S
C406 H419 0.961 . S
C406 H420 0.961 . S
C407 C404 1.539 . S
C407 H421 0.958 . S
C407 H422 0.961 . S
C407 H423 0.960 . S
H408 C392 0.931 . S
H409 C397 0.929 . S
H410 C398 0.960 . S
H411 C398 0.962 . S
H412 C398 0.960 . S
H413 C399 0.961 . S
H414 C399 0.961 . S
H415 C399 0.961 . S
H416 C400 0.931 . S
H417 C405 0.930 . S
H418 C406 0.956 . S
H419 C406 0.961 . S
H420 C406 0.961 . S
H421 C407 0.958 . S
H422 C407 0.961 . S
H423 C407 0.960 . S
C424 C425 1.391 . S
C424 C426 1.394 . S
C424 H440 0.931 . S
C425 C424 1.391 . S
C425 C429 1.376 . S
C426 C424 1.394 . S
C426 C427 1.369 . S
C426 C430 1.531 . S
C427 C426 1.369 . S
C427 C428 1.410 . S
C427 C435 1.503 . S
C428 C427 1.410 . S
C428 C429 1.392 . S
C428 C431 1.511 . S
C429 C425 1.376 . S
C429 C428 1.392 . S
C429 H441 0.929 . S
C430 C426 1.531 . S
C430 H442 0.960 . S
C430 H443 0.962 . S
C430 H444 0.960 . S
C431 C428 1.511 . S
C431 H445 0.961 . S
C431 H446 0.961 . S
C431 H447 0.961 . S
C432 C433 1.370 . S
C432 C434 1.363 . S
C432 H448 0.931 . S
C433 C432 1.370 . S
C433 C437 1.408 1_565 S
C434 C432 1.363 . S
C434 C435 1.370 . S
C434 C438 1.524 . S
C435 C427 1.503 . S
C435 C434 1.370 . S
C435 C436 1.403 . S
C436 C435 1.403 . S
C436 C437 1.404 1_565 S
C436 C439 1.539 1_565 S
C437 C433 1.408 1_545 S
C437 C436 1.404 1_545 S
C437 H449 0.930 . S
C438 C434 1.524 . S
C438 H450 0.956 . S
C438 H451 0.961 . S
C438 H452 0.961 . S
C439 C436 1.539 1_545 S
C439 H453 0.958 . S
C439 H454 0.961 . S
C439 H455 0.960 1_545 S
H440 C424 0.931 . S
H441 C429 0.929 . S
H442 C430 0.960 . S
H443 C430 0.962 . S
H444 C430 0.960 . S
H445 C431 0.961 . S
H446 C431 0.961 . S
H447 C431 0.961 . S
H448 C432 0.931 . S
H449 C437 0.930 . S
H450 C438 0.956 . S
H451 C438 0.961 . S
H452 C438 0.961 . S
H453 C439 0.958 . S
H454 C439 0.961 . S
H455 C439 0.960 1_565 S
C456 C457 1.391 . S
C456 C458 1.394 . S
C456 H472 0.931 . S
C457 C456 1.391 . S
C457 C461 1.376 . S
C458 C456 1.394 . S
C458 C459 1.369 . S
C458 C462 1.531 . S
C459 C458 1.369 . S
C459 C460 1.410 . S
C459 C467 1.503 . S
C460 C459 1.410 . S
C460 C461 1.392 . S
C460 C463 1.511 . S
C461 C457 1.376 . S
C461 C460 1.392 . S
C461 H473 0.929 . S
C462 C458 1.531 . S
C462 H474 0.960 . S
C462 H475 0.962 . S
C462 H476 0.960 . S
C463 C460 1.511 . S
C463 H477 0.961 . S
C463 H478 0.961 . S
C463 H479 0.961 . S
C464 C465 1.370 . S
C464 C466 1.363 . S
C464 H480 0.931 . S
C465 C464 1.370 . S
C465 C469 1.408 . S
C466 C464 1.363 . S
C466 C467 1.370 . S
C466 C470 1.524 . S
C467 C459 1.503 . S
C467 C466 1.370 . S
C467 C468 1.403 . S
C468 C467 1.403 . S
C468 C469 1.404 . S
C468 C471 1.539 . S
C469 C465 1.408 . S
C469 C468 1.404 . S
C469 H481 0.930 . S
C470 C466 1.524 . S
C470 H482 0.956 . S
C470 H483 0.961 . S
C470 H484 0.961 . S
C471 C468 1.539 . S
C471 H485 0.973 . S
C471 H486 0.961 . S
C471 H487 0.960 . S
H472 C456 0.931 . S
H473 C461 0.929 . S
H474 C462 0.960 . S
H475 C462 0.962 . S
H476 C462 0.960 . S
H477 C463 0.961 . S
H478 C463 0.961 . S
H479 C463 0.961 . S
H480 C464 0.931 . S
H481 C469 0.930 . S
H482 C470 0.956 . S
H483 C470 0.961 . S
H484 C470 0.961 . S
H485 C471 0.973 . S
H486 C471 0.961 . S
H487 C471 0.960 . S
C488 C489 1.391 . S
C488 C490 1.394 . S
C488 H504 0.931 . S
C489 C488 1.391 . S
C489 C493 1.376 . S
C490 C488 1.394 . S
C490 C491 1.369 . S
C490 C494 1.531 . S
C491 C490 1.369 . S
C491 C492 1.410 . S
C491 C499 1.503 . S
C492 C491 1.410 . S
C492 C493 1.392 . S
C492 C495 1.511 . S
C493 C489 1.376 . S
C493 C492 1.392 . S
C493 H505 0.929 . S
C494 C490 1.531 . S
C494 H506 0.960 . S
C494 H507 0.962 . S
C494 H508 0.960 . S
C495 C492 1.511 . S
C495 H509 0.961 . S
C495 H510 0.961 . S
C495 H511 0.961 . S
C496 C497 1.370 . S
C496 C498 1.363 . S
C496 H512 0.931 . S
C497 C496 1.370 . S
C497 C501 1.408 . S
C498 C496 1.363 . S
C498 C499 1.370 . S
C498 C502 1.524 . S
C499 C491 1.503 . S
C499 C498 1.370 . S
C499 C500 1.403 . S
C500 C499 1.403 . S
C500 C501 1.404 . S
C500 C503 1.539 . S
C501 C497 1.408 . S
C501 C500 1.404 . S
C501 H513 0.930 . S
C502 C498 1.524 . S
C502 H514 0.956 . S
C502 H515 0.961 . S
C502 H516 0.961 . S
C503 C500 1.539 . S
C503 H517 0.958 . S
C503 H518 0.961 . S
C503 H519 0.960 . S
H504 C488 0.931 . S
H505 C493 0.929 . S
H506 C494 0.960 . S
H507 C494 0.962 . S
H508 C494 0.960 . S
H509 C495 0.961 . S
H510 C495 0.961 . S
H511 C495 0.961 . S
H512 C496 0.931 . S
H513 C501 0.930 . S
H514 C502 0.956 . S
H515 C502 0.961 . S
H516 C502 0.961 . S
H517 C503 0.958 . S
H518 C503 0.961 . S
H519 C503 0.960 . S
C520 C521 1.391 . S
C520 C522 1.394 . S
C520 H536 0.931 . S
C521 C520 1.391 . S
C521 C525 1.376 . S
C522 C520 1.394 . S
C522 C523 1.369 . S
C522 C526 1.531 . S
C523 C522 1.369 . S
C523 C524 1.410 . S
C523 C531 1.503 . S
C524 C523 1.410 . S
C524 C525 1.392 . S
C524 C527 1.511 . S
C525 C521 1.376 . S
C525 C524 1.392 . S
C525 H537 0.929 . S
C526 C522 1.531 . S
C526 H538 0.960 . S
C526 H539 0.962 . S
C526 H540 0.960 . S
C527 C524 1.511 . S
C527 H541 0.961 . S
C527 H542 0.961 . S
C527 H543 0.961 . S
C528 C529 1.370 . S
C528 C530 1.363 . S
C528 H544 0.931 . S
C529 C528 1.370 . S
C529 C533 1.408 . S
C530 C528 1.363 . S
C530 C531 1.370 . S
C530 C534 1.524 . S
C531 C523 1.503 . S
C531 C530 1.370 . S
C531 C532 1.403 . S
C532 C531 1.403 . S
C532 C533 1.404 . S
C532 C535 1.539 . S
C533 C529 1.408 . S
C533 C532 1.404 . S
C533 H545 0.930 . S
C534 C530 1.524 . S
C534 H546 0.956 . S
C534 H547 0.961 . S
C534 H548 0.961 . S
C535 C532 1.539 . S
C535 H549 0.958 . S
C535 H550 0.961 . S
C535 H551 0.960 . S
H536 C520 0.931 . S
H537 C525 0.929 . S
H538 C526 0.960 . S
H539 C526 0.962 . S
H540 C526 0.960 . S
H541 C527 0.961 . S
H542 C527 0.961 . S
H543 C527 0.961 . S
H544 C528 0.931 . S
H545 C533 0.930 . S
H546 C534 0.956 . S
H547 C534 0.961 . S
H548 C534 0.961 . S
H549 C535 0.958 . S
H550 C535 0.961 . S
H551 C535 0.960 . S
C552 C553 1.391 . S
C552 C554 1.394 . S
C552 H568 0.931 . S
C553 C552 1.391 . S
C553 C557 1.376 . S
C554 C552 1.394 . S
C554 C555 1.369 . S
C554 C558 1.531 . S
C555 C554 1.369 . S
C555 C556 1.410 . S
C555 C563 1.503 . S
C556 C555 1.410 . S
C556 C557 1.392 . S
C556 C559 1.511 . S
C557 C553 1.376 . S
C557 C556 1.392 . S
C557 H569 0.929 . S
C558 C554 1.531 . S
C558 H570 0.960 . S
C558 H571 0.962 . S
C558 H572 0.960 . S
C559 C556 1.511 . S
C559 H573 0.961 . S
C559 H574 0.961 . S
C559 H575 0.961 . S
C560 C561 1.370 . S
C560 C562 1.363 . S
C560 H576 0.931 . S
C561 C560 1.370 . S
C561 C565 1.408 1_556 S
C562 C560 1.363 . S
C562 C563 1.370 . S
C562 C566 1.524 . S
C563 C555 1.503 . S
C563 C562 1.370 . S
C563 C564 1.403 . S
C564 C563 1.403 . S
C564 C565 1.404 1_556 S
C564 C567 1.539 1_556 S
C565 C561 1.408 1_554 S
C565 C564 1.404 1_554 S
C565 H577 0.930 . S
C566 C562 1.524 . S
C566 H578 0.956 . S
C566 H579 0.961 . S
C566 H580 0.961 . S
C567 C564 1.539 1_554 S
C567 H581 0.958 . S
C567 H582 0.961 . S
C567 H583 0.960 . S
H568 C552 0.931 . S
H569 C557 0.929 . S
H570 C558 0.960 . S
H571 C558 0.962 . S
H572 C558 0.960 . S
H573 C559 0.961 . S
H574 C559 0.961 . S
H575 C559 0.961 . S
H576 C560 0.931 . S
H577 C565 0.930 . S
H578 C566 0.956 . S
H579 C566 0.961 . S
H580 C566 0.961 . S
H581 C567 0.958 . S
H582 C567 0.961 . S
H583 C567 0.960 . S
C584 C585 1.391 . S
C584 C586 1.394 . S
C584 H600 0.931 . S
C585 C584 1.391 . S
C585 C589 1.376 . S
C586 C584 1.394 . S
C586 C587 1.369 . S
C586 C590 1.531 . S
C587 C586 1.369 . S
C587 C588 1.410 . S
C587 C595 1.503 . S
C588 C587 1.410 . S
C588 C589 1.392 . S
C588 C591 1.511 . S
C589 C585 1.376 . S
C589 C588 1.392 . S
C589 H601 0.929 . S
C590 C586 1.531 . S
C590 H602 0.960 . S
C590 H603 0.962 . S
C590 H604 0.960 . S
C591 C588 1.511 . S
C591 H605 0.961 . S
C591 H606 0.961 . S
C591 H607 0.961 . S
C592 C593 1.370 . S
C592 C594 1.363 . S
C592 H608 0.931 . S
C593 C592 1.370 . S
C593 C597 1.408 . S
C594 C592 1.363 . S
C594 C595 1.370 . S
C594 C598 1.524 . S
C595 C587 1.503 . S
C595 C594 1.370 . S
C595 C596 1.403 . S
C596 C595 1.403 . S
C596 C597 1.404 . S
C596 C599 1.539 . S
C597 C593 1.408 . S
C597 C596 1.404 . S
C597 H609 0.930 . S
C598 C594 1.524 . S
C598 H610 0.956 . S
C598 H611 0.961 . S
C598 H612 0.961 . S
C599 C596 1.539 . S
C599 H613 0.958 . S
C599 H614 0.961 . S
C599 H615 0.960 . S
H600 C584 0.931 . S
H601 C589 0.929 . S
H602 C590 0.960 . S
H603 C590 0.962 . S
H604 C590 0.960 . S
H605 C591 0.961 . S
H606 C591 0.961 . S
H607 C591 0.961 . S
H608 C592 0.931 . S
H609 C597 0.930 . S
H610 C598 0.956 . S
H611 C598 0.961 . S
H612 C598 0.961 . S
H613 C599 0.958 . S
H614 C599 0.961 . S
H615 C599 0.960 . S
C616 C617 1.391 . S
C616 C618 1.394 . S
C616 H632 0.931 . S
C617 C616 1.391 . S
C617 C621 1.376 . S
C618 C616 1.394 . S
C618 C619 1.369 . S
C618 C622 1.531 . S
C619 C618 1.369 . S
C619 C620 1.410 . S
C619 C627 1.503 . S
C620 C619 1.410 . S
C620 C621 1.392 . S
C620 C623 1.511 . S
C621 C617 1.376 . S
C621 C620 1.392 . S
C621 H633 0.929 . S
C622 C618 1.531 . S
C622 H634 0.960 . S
C622 H635 0.962 . S
C622 H636 0.960 . S
C623 C620 1.511 . S
C623 H637 0.961 . S
C623 H638 0.961 . S
C623 H639 0.961 . S
C624 C625 1.370 . S
C624 C626 1.363 . S
C624 H640 0.931 . S
C625 C624 1.370 . S
C625 C629 1.408 . S
C626 C624 1.363 . S
C626 C627 1.370 . S
C626 C630 1.524 . S
C627 C619 1.503 . S
C627 C626 1.370 . S
C627 C628 1.403 . S
C628 C627 1.403 . S
C628 C629 1.404 . S
C628 C631 1.539 . S
C629 C625 1.408 . S
C629 C628 1.404 . S
C629 H641 0.930 . S
C630 C626 1.524 . S
C630 H642 0.956 . S
C630 H643 0.961 . S
C630 H644 0.961 . S
C631 C628 1.539 . S
C631 H645 0.958 . S
C631 H646 0.961 . S
C631 H647 0.960 . S
H632 C616 0.931 . S
H633 C621 0.929 . S
H634 C622 0.960 . S
H635 C622 0.962 . S
H636 C622 0.960 . S
H637 C623 0.961 . S
H638 C623 0.961 . S
H639 C623 0.961 . S
H640 C624 0.931 . S
H641 C629 0.930 . S
H642 C630 0.956 . S
H643 C630 0.961 . S
H644 C630 0.961 . S
H645 C631 0.958 . S
H646 C631 0.961 . S
H647 C631 0.960 . S
C648 C649 1.391 . S
C648 C650 1.394 . S
C648 H664 0.931 . S
C649 C648 1.391 . S
C649 C653 1.376 . S
C650 C648 1.394 . S
C650 C651 1.369 . S
C650 C654 1.531 . S
C651 C650 1.369 . S
C651 C652 1.410 . S
C651 C659 1.503 . S
C652 C651 1.410 . S
C652 C653 1.392 . S
C652 C655 1.511 . S
C653 C649 1.376 . S
C653 C652 1.392 . S
C653 H665 0.929 . S
C654 C650 1.531 . S
C654 H666 0.960 . S
C654 H667 0.962 . S
C654 H668 0.960 . S
C655 C652 1.511 . S
C655 H669 0.961 . S
C655 H670 0.961 . S
C655 H671 0.961 . S
C656 C657 1.370 . S
C656 C658 1.363 . S
C656 H672 0.931 . S
C657 C656 1.370 . S
C657 C661 1.408 . S
C658 C656 1.363 . S
C658 C659 1.370 . S
C658 C662 1.524 . S
C659 C651 1.503 . S
C659 C658 1.370 . S
C659 C660 1.403 . S
C660 C659 1.403 . S
C660 C661 1.404 . S
C660 C663 1.539 . S
C661 C657 1.408 . S
C661 C660 1.404 . S
C661 H673 0.930 . S
C662 C658 1.524 . S
C662 H674 0.956 . S
C662 H675 0.961 . S
C662 H676 0.961 . S
C663 C660 1.539 . S
C663 H677 0.958 . S
C663 H678 0.961 . S
C663 H679 0.960 . S
H664 C648 0.931 . S
H665 C653 0.929 . S
H666 C654 0.960 . S
H667 C654 0.962 . S
H668 C654 0.960 . S
H669 C655 0.961 . S
H670 C655 0.961 . S
H671 C655 0.961 . S
H672 C656 0.931 . S
H673 C661 0.930 . S
H674 C662 0.956 . S
H675 C662 0.961 . S
H676 C662 0.961 . S
H677 C663 0.958 . S
H678 C663 0.961 . S
H679 C663 0.960 . S
C680 C681 1.391 . S
C680 C682 1.394 . S
C680 H696 0.931 . S
C681 C680 1.391 . S
C681 C685 1.376 . S
C682 C680 1.394 . S
C682 C683 1.369 . S
C682 C686 1.531 . S
C683 C682 1.369 . S
C683 C684 1.410 . S
C683 C691 1.503 . S
C684 C683 1.410 . S
C684 C685 1.392 . S
C684 C687 1.511 . S
C685 C681 1.376 . S
C685 C684 1.392 . S
C685 H697 0.929 . S
C686 C682 1.531 . S
C686 H698 0.960 . S
C686 H699 0.962 . S
C686 H700 0.960 . S
C687 C684 1.511 . S
C687 H701 0.961 . S
C687 H702 0.961 . S
C687 H703 0.961 . S
C688 C689 1.370 . S
C688 C690 1.363 . S
C688 H704 0.931 . S
C689 C688 1.370 . S
C689 C693 1.408 . S
C690 C688 1.363 . S
C690 C691 1.370 . S
C690 C694 1.524 . S
C691 C683 1.503 . S
C691 C690 1.370 . S
C691 C692 1.403 . S
C692 C691 1.403 . S
C692 C693 1.404 . S
C692 C695 1.539 . S
C693 C689 1.408 . S
C693 C692 1.404 . S
C693 H705 0.930 . S
C694 C690 1.524 . S
C694 H706 0.956 . S
C694 H707 0.961 . S
C694 H708 0.961 . S
C695 C692 1.539 . S
C695 H709 0.958 . S
C695 H710 0.961 . S
C695 H711 0.960 . S
H696 C680 0.931 . S
H697 C685 0.929 . S
H698 C686 0.960 . S
H699 C686 0.962 . S
H700 C686 0.960 . S
H701 C687 0.961 . S
H702 C687 0.961 . S
H703 C687 0.961 . S
H704 C688 0.931 . S
H705 C693 0.930 . S
H706 C694 0.956 . S
H707 C694 0.961 . S
H708 C694 0.961 . S
H709 C695 0.958 . S
H710 C695 0.961 . S
H711 C695 0.960 . S
C712 C713 1.391 . S
C712 C714 1.394 . S
C712 H728 0.931 . S
C713 C712 1.391 . S
C713 C717 1.376 . S
C714 C712 1.394 . S
C714 C715 1.369 . S
C714 C718 1.531 . S
C715 C714 1.369 . S
C715 C716 1.410 . S
C715 C723 1.503 . S
C716 C715 1.410 . S
C716 C717 1.392 . S
C716 C719 1.511 . S
C717 C713 1.376 . S
C717 C716 1.392 . S
C717 H729 0.929 . S
C718 C714 1.531 . S
C718 H730 0.960 . S
C718 H731 0.962 . S
C718 H732 0.960 . S
C719 C716 1.511 . S
C719 H733 0.961 . S
C719 H734 0.961 . S
C719 H735 0.961 . S
C720 C721 1.370 . S
C720 C722 1.363 . S
C720 H736 0.931 . S
C721 C720 1.370 . S
C721 C725 1.408 . S
C722 C720 1.363 . S
C722 C723 1.370 . S
C722 C726 1.524 . S
C723 C715 1.503 . S
C723 C722 1.370 . S
C723 C724 1.403 . S
C724 C723 1.403 . S
C724 C725 1.404 . S
C724 C727 1.539 . S
C725 C721 1.408 . S
C725 C724 1.404 . S
C725 H737 0.930 . S
C726 C722 1.524 . S
C726 H738 0.956 . S
C726 H739 0.961 . S
C726 H740 0.961 . S
C727 C724 1.539 . S
C727 H741 0.958 . S
C727 H742 0.961 . S
C727 H743 0.960 . S
H728 C712 0.931 . S
H729 C717 0.929 . S
H730 C718 0.960 . S
H731 C718 0.962 . S
H732 C718 0.960 . S
H733 C719 0.961 . S
H734 C719 0.961 . S
H735 C719 0.961 . S
H736 C720 0.931 . S
H737 C725 0.930 . S
H738 C726 0.956 . S
H739 C726 0.961 . S
H740 C726 0.961 . S
H741 C727 0.958 . S
H742 C727 0.961 . S
H743 C727 0.960 . S
C744 C745 1.391 . S
C744 C746 1.394 . S
C744 H760 0.931 . S
C745 C744 1.391 . S
C745 C749 1.376 . S
C746 C744 1.394 . S
C746 C747 1.369 . S
C746 C750 1.531 . S
C747 C746 1.369 . S
C747 C748 1.410 . S
C747 C755 1.503 . S
C748 C747 1.410 . S
C748 C749 1.392 . S
C748 C751 1.511 . S
C749 C745 1.376 . S
C749 C748 1.392 . S
C749 H761 0.929 . S
C750 C746 1.531 . S
C750 H762 0.960 . S
C750 H763 0.962 . S
C750 H764 0.960 . S
C751 C748 1.511 . S
C751 H765 0.961 . S
C751 H766 0.961 . S
C751 H767 0.961 . S
C752 C753 1.370 . S
C752 C754 1.363 . S
C752 H768 0.931 . S
C753 C752 1.370 . S
C753 C757 1.408 . S
C754 C752 1.363 . S
C754 C755 1.370 . S
C754 C758 1.524 . S
C755 C747 1.503 . S
C755 C754 1.370 . S
C755 C756 1.403 . S
C756 C755 1.403 . S
C756 C757 1.404 . S
C756 C759 1.539 . S
C757 C753 1.408 . S
C757 C756 1.404 . S
C757 H769 0.930 . S
C758 C754 1.524 . S
C758 H770 0.956 . S
C758 H771 0.961 . S
C758 H772 0.961 . S
C759 C756 1.539 . S
C759 H773 0.958 . S
C759 H774 0.961 . S
C759 H775 0.960 . S
H760 C744 0.931 . S
H761 C749 0.929 . S
H762 C750 0.960 . S
H763 C750 0.962 . S
H764 C750 0.960 . S
H765 C751 0.961 . S
H766 C751 0.961 . S
H767 C751 0.961 . S
H768 C752 0.931 . S
H769 C757 0.930 . S
H770 C758 0.956 . S
H771 C758 0.961 . S
H772 C758 0.961 . S
H773 C759 0.958 . S
H774 C759 0.961 . S
H775 C759 0.960 . S
C776 C777 1.391 . S
C776 C778 1.394 . S
C776 H792 0.931 . S
C777 C776 1.391 . S
C777 C781 1.376 . S
C778 C776 1.394 . S
C778 C779 1.369 . S
C778 C782 1.531 . S
C779 C778 1.369 . S
C779 C780 1.410 . S
C779 C787 1.503 . S
C780 C779 1.410 . S
C780 C781 1.392 . S
C780 C783 1.511 . S
C781 C777 1.376 . S
C781 C780 1.392 . S
C781 H793 0.929 . S
C782 C778 1.531 . S
C782 H794 0.960 . S
C782 H795 0.962 . S
C782 H796 0.960 . S
C783 C780 1.511 . S
C783 H797 0.961 . S
C783 H798 0.961 . S
C783 H799 0.961 . S
C784 C785 1.370 . S
C784 C786 1.363 . S
C784 H800 0.931 . S
C785 C784 1.370 . S
C785 C789 1.408 . S
C786 C784 1.363 . S
C786 C787 1.370 . S
C786 C790 1.524 . S
C787 C779 1.503 . S
C787 C786 1.370 . S
C787 C788 1.403 . S
C788 C787 1.403 . S
C788 C789 1.404 . S
C788 C791 1.539 . S
C789 C785 1.408 . S
C789 C788 1.404 . S
C789 H801 0.930 1_556 S
C790 C786 1.524 . S
C790 H802 0.956 . S
C790 H803 0.961 . S
C790 H804 0.961 . S
C791 C788 1.539 . S
C791 H805 0.958 1_556 S
C791 H806 0.961 1_556 S
C791 H807 0.960 . S
H792 C776 0.931 . S
H793 C781 0.929 . S
H794 C782 0.960 . S
H795 C782 0.962 . S
H796 C782 0.960 . S
H797 C783 0.961 . S
H798 C783 0.961 . S
H799 C783 0.961 . S
H800 C784 0.931 . S
H801 C789 0.930 1_554 S
H802 C790 0.956 . S
H803 C790 0.961 . S
H804 C790 0.961 . S
H805 C791 0.958 1_554 S
H806 C791 0.961 1_554 S
H807 C791 0.960 . S
C808 C809 1.391 . S
C808 C810 1.394 . S
C808 H824 0.931 . S
C809 C808 1.391 . S
C809 C813 1.376 . S
C810 C808 1.394 . S
C810 C811 1.369 . S
C810 C814 1.531 . S
C811 C810 1.369 . S
C811 C812 1.410 . S
C811 C819 1.503 . S
C812 C811 1.410 . S
C812 C813 1.392 . S
C812 C815 1.511 . S
C813 C809 1.376 . S
C813 C812 1.392 . S
C813 H825 0.929 . S
C814 C810 1.531 . S
C814 H826 0.960 . S
C814 H827 0.962 . S
C814 H828 0.960 . S
C815 C812 1.511 . S
C815 H829 0.961 . S
C815 H830 0.961 . S
C815 H831 0.961 . S
C816 C817 1.370 . S
C816 C818 1.363 . S
C816 H832 0.931 . S
C817 C816 1.370 . S
C817 C821 1.408 . S
C818 C816 1.363 . S
C818 C819 1.370 . S
C818 C822 1.524 . S
C819 C811 1.503 . S
C819 C818 1.370 . S
C819 C820 1.403 . S
C820 C819 1.403 . S
C820 C821 1.404 . S
C820 C823 1.539 . S
C821 C817 1.408 . S
C821 C820 1.404 . S
C821 H833 0.930 . S
C822 C818 1.524 . S
C822 H834 0.956 . S
C822 H835 0.961 . S
C822 H836 0.961 . S
C823 C820 1.539 . S
C823 H837 0.958 . S
C823 H838 0.961 . S
C823 H839 0.960 . S
H824 C808 0.931 . S
H825 C813 0.929 . S
H826 C814 0.960 . S
H827 C814 0.962 . S
H828 C814 0.960 . S
H829 C815 0.961 . S
H830 C815 0.961 . S
H831 C815 0.961 . S
H832 C816 0.931 . S
H833 C821 0.930 . S
H834 C822 0.956 . S
H835 C822 0.961 . S
H836 C822 0.961 . S
H837 C823 0.958 . S
H838 C823 0.961 . S
H839 C823 0.960 . S
C840 C841 1.391 . S
C840 C842 1.394 . S
C840 H856 0.931 . S
C841 C840 1.391 . S
C841 C845 1.376 . S
C842 C840 1.394 . S
C842 C843 1.369 . S
C842 C846 1.531 . S
C843 C842 1.369 . S
C843 C844 1.410 . S
C843 C851 1.503 . S
C844 C843 1.410 . S
C844 C845 1.392 . S
C844 C847 1.511 . S
C845 C841 1.376 . S
C845 C844 1.392 . S
C845 H857 0.929 . S
C846 C842 1.531 . S
C846 H858 0.960 . S
C846 H859 0.962 . S
C846 H860 0.960 . S
C847 C844 1.511 . S
C847 H861 0.961 . S
C847 H862 0.961 . S
C847 H863 0.961 . S
C848 C849 1.370 . S
C848 C850 1.363 . S
C848 H864 0.931 . S
C849 C848 1.370 . S
C849 C853 1.408 . S
C850 C848 1.363 . S
C850 C851 1.370 . S
C850 C854 1.524 . S
C851 C843 1.503 . S
C851 C850 1.370 . S
C851 C852 1.403 . S
C852 C851 1.403 . S
C852 C853 1.404 . S
C852 C855 1.539 . S
C853 C849 1.408 . S
C853 C852 1.404 . S
C853 H865 0.930 . S
C854 C850 1.524 . S
C854 H866 0.956 . S
C854 H867 0.961 . S
C854 H868 0.961 . S
C855 C852 1.539 . S
C855 H869 0.958 . S
C855 H870 0.961 . S
C855 H871 0.960 . S
H856 C840 0.931 . S
H857 C845 0.929 . S
H858 C846 0.960 . S
H859 C846 0.962 . S
H860 C846 0.960 . S
H861 C847 0.961 . S
H862 C847 0.961 . S
H863 C847 0.961 . S
H864 C848 0.931 . S
H865 C853 0.930 . S
H866 C854 0.956 . S
H867 C854 0.961 . S
H868 C854 0.961 . S
H869 C855 0.958 . S
H870 C855 0.961 . S
H871 C855 0.960 . S
C872 C873 1.391 . S
C872 C874 1.394 . S
C872 H888 0.931 . S
C873 C872 1.391 . S
C873 C877 1.376 . S
C874 C872 1.394 . S
C874 C875 1.369 . S
C874 C878 1.531 . S
C875 C874 1.369 . S
C875 C876 1.410 . S
C875 C883 1.503 . S
C876 C875 1.410 . S
C876 C877 1.392 . S
C876 C879 1.511 . S
C877 C873 1.376 . S
C877 C876 1.392 . S
C877 H889 0.929 . S
C878 C874 1.531 . S
C878 H890 0.960 . S
C878 H891 0.962 . S
C878 H892 0.960 . S
C879 C876 1.511 . S
C879 H893 0.961 . S
C879 H894 0.961 . S
C879 H895 0.961 . S
C880 C881 1.370 . S
C880 C882 1.363 . S
C880 H896 0.931 . S
C881 C880 1.370 . S
C881 C885 1.408 . S
C882 C880 1.363 . S
C882 C883 1.370 . S
C882 C886 1.524 . S
C883 C875 1.503 . S
C883 C882 1.370 . S
C883 C884 1.403 . S
C884 C883 1.403 . S
C884 C885 1.404 . S
C884 C887 1.539 . S
C885 C881 1.408 . S
C885 C884 1.404 . S
C885 H897 0.930 . S
C886 C882 1.524 . S
C886 H898 0.956 . S
C886 H899 0.961 . S
C886 H900 0.961 . S
C887 C884 1.539 . S
C887 H901 0.958 . S
C887 H902 0.961 . S
C887 H903 0.960 . S
H888 C872 0.931 . S
H889 C877 0.929 . S
H890 C878 0.960 . S
H891 C878 0.962 . S
H892 C878 0.960 . S
H893 C879 0.961 . S
H894 C879 0.961 . S
H895 C879 0.961 . S
H896 C880 0.931 . S
H897 C885 0.930 . S
H898 C886 0.956 . S
H899 C886 0.961 . S
H900 C886 0.961 . S
H901 C887 0.958 . S
H902 C887 0.961 . S
H903 C887 0.960 . S
C904 C905 1.391 . S
C904 C906 1.394 . S
C904 H920 0.931 . S
C905 C904 1.391 . S
C905 C909 1.376 . S
C906 C904 1.394 . S
C906 C907 1.369 . S
C906 C910 1.531 . S
C907 C906 1.369 . S
C907 C908 1.410 . S
C907 C915 1.503 . S
C908 C907 1.410 . S
C908 C909 1.392 . S
C908 C911 1.511 . S
C909 C905 1.376 . S
C909 C908 1.392 . S
C909 H921 0.929 . S
C910 C906 1.531 . S
C910 H922 0.960 . S
C910 H923 0.962 . S
C910 H924 0.960 . S
C911 C908 1.511 . S
C911 H925 0.961 . S
C911 H926 0.961 . S
C911 H927 0.961 . S
C912 C913 1.370 . S
C912 C914 1.363 . S
C912 H928 0.931 . S
C913 C912 1.370 . S
C913 C917 1.408 . S
C914 C912 1.363 . S
C914 C915 1.370 . S
C914 C918 1.524 . S
C915 C907 1.503 . S
C915 C914 1.370 . S
C915 C916 1.403 . S
C916 C915 1.403 . S
C916 C917 1.404 . S
C916 C919 1.539 . S
C917 C913 1.408 . S
C917 C916 1.404 . S
C917 H929 0.930 . S
C918 C914 1.524 . S
C918 H930 0.956 . S
C918 H931 0.961 . S
C918 H932 0.961 . S
C919 C916 1.539 . S
C919 H933 0.958 . S
C919 H934 0.961 . S
C919 H935 0.960 . S
H920 C904 0.931 . S
H921 C909 0.929 . S
H922 C910 0.960 . S
H923 C910 0.962 . S
H924 C910 0.960 . S
H925 C911 0.961 . S
H926 C911 0.961 . S
H927 C911 0.961 . S
H928 C912 0.931 . S
H929 C917 0.930 . S
H930 C918 0.956 . S
H931 C918 0.961 . S
H932 C918 0.961 . S
H933 C919 0.958 . S
H934 C919 0.961 . S
H935 C919 0.960 . S
C936 C937 1.391 . S
C936 C938 1.394 . S
C936 H952 0.931 . S
C937 C936 1.391 . S
C937 C941 1.376 . S
C938 C936 1.394 . S
C938 C939 1.369 . S
C938 C942 1.531 . S
C939 C938 1.369 . S
C939 C940 1.410 . S
C939 C947 1.503 . S
C940 C939 1.410 . S
C940 C941 1.392 . S
C940 C943 1.511 . S
C941 C937 1.376 . S
C941 C940 1.392 . S
C941 H953 0.929 . S
C942 C938 1.531 . S
C942 H954 0.960 . S
C942 H955 0.962 . S
C942 H956 0.960 . S
C943 C940 1.511 . S
C943 H957 0.961 . S
C943 H958 0.961 . S
C943 H959 0.961 . S
C944 C945 1.370 . S
C944 C946 1.363 . S
C944 H960 0.931 . S
C945 C944 1.370 . S
C945 C949 1.408 . S
C946 C944 1.363 . S
C946 C947 1.370 . S
C946 C950 1.524 . S
C947 C939 1.503 . S
C947 C946 1.370 . S
C947 C948 1.403 . S
C948 C947 1.403 . S
C948 C949 1.404 . S
C948 C951 1.539 . S
C949 C945 1.408 . S
C949 C948 1.404 . S
C949 H961 0.930 . S
C950 C946 1.524 . S
C950 H962 0.956 . S
C950 H963 0.961 . S
C950 H964 0.961 . S
C951 C948 1.539 . S
C951 H965 0.958 . S
C951 H966 0.961 . S
C951 H967 0.960 . S
H952 C936 0.931 . S
H953 C941 0.929 . S
H954 C942 0.960 . S
H955 C942 0.962 . S
H956 C942 0.960 . S
H957 C943 0.961 . S
H958 C943 0.961 . S
H959 C943 0.961 . S
H960 C944 0.931 . S
H961 C949 0.930 . S
H962 C950 0.956 . S
H963 C950 0.961 . S
H964 C950 0.961 . S
H965 C951 0.958 . S
H966 C951 0.961 . S
H967 C951 0.960 . S
C968 C969 1.391 . S
C968 C970 1.394 . S
C968 H984 0.931 . S
C969 C968 1.391 . S
C969 C973 1.376 . S
C970 C968 1.394 . S
C970 C971 1.369 . S
C970 C974 1.531 . S
C971 C970 1.369 . S
C971 C972 1.410 . S
C971 C979 1.503 . S
C972 C971 1.410 . S
C972 C973 1.392 . S
C972 C975 1.511 . S
C973 C969 1.376 . S
C973 C972 1.392 . S
C973 H985 0.929 . S
C974 C970 1.531 . S
C974 H986 0.960 . S
C974 H987 0.962 . S
C974 H988 0.960 . S
C975 C972 1.511 . S
C975 H989 0.961 . S
C975 H990 0.961 . S
C975 H991 0.961 . S
C976 C977 1.370 . S
C976 C978 1.363 . S
C976 H992 0.931 . S
C977 C976 1.370 . S
C977 C981 1.408 . S
C978 C976 1.363 . S
C978 C979 1.370 . S
C978 C982 1.524 . S
C979 C971 1.503 . S
C979 C978 1.370 . S
C979 C980 1.403 . S
C980 C979 1.403 . S
C980 C981 1.404 . S
C980 C983 1.539 . S
C981 C977 1.408 . S
C981 C980 1.404 . S
C981 H993 0.930 . S
C982 C978 1.524 . S
C982 H994 0.956 . S
C982 H995 0.961 . S
C982 H996 0.961 . S
C983 C980 1.539 . S
C983 H997 0.958 . S
C983 H998 0.961 . S
C983 H999 0.960 . S
H984 C968 0.931 . S
H985 C973 0.929 . S
H986 C974 0.960 . S
H987 C974 0.962 . S
H988 C974 0.960 . S
H989 C975 0.961 . S
H990 C975 0.961 . S
H991 C975 0.961 . S
H992 C976 0.931 . S
H993 C981 0.930 . S
H994 C982 0.956 . S
H995 C982 0.961 . S
H996 C982 0.961 . S
H997 C983 0.958 . S
H998 C983 0.961 . S
H999 C983 0.960 . S
C1000 C1001 1.391 . S
C1000 C1002 1.394 . S
C1000 H1016 0.931 . S
C1001 C1000 1.391 . S
C1001 C1005 1.376 . S
C1002 C1000 1.394 . S
C1002 C1003 1.369 . S
C1002 C1006 1.531 . S
C1003 C1002 1.369 . S
C1003 C1004 1.410 . S
C1003 C1011 1.503 . S
C1004 C1003 1.410 . S
C1004 C1005 1.392 . S
C1004 C1007 1.511 . S
C1005 C1001 1.376 . S
C1005 C1004 1.392 . S
C1005 H1017 0.929 . S
C1006 C1002 1.531 . S
C1006 H1018 0.960 . S
C1006 H1019 0.962 . S
C1006 H1020 0.960 . S
C1007 C1004 1.511 . S
C1007 H1021 0.961 . S
C1007 H1022 0.961 . S
C1007 H1023 0.961 . S
C1008 C1009 1.370 . S
C1008 C1010 1.363 . S
C1008 H1024 0.931 . S
C1009 C1008 1.370 . S
C1009 C1013 1.408 . S
C1010 C1008 1.363 . S
C1010 C1011 1.370 . S
C1010 C1014 1.524 . S
C1011 C1003 1.503 . S
C1011 C1010 1.370 . S
C1011 C1012 1.403 . S
C1012 C1011 1.403 . S
C1012 C1013 1.404 . S
C1012 C1015 1.539 . S
C1013 C1009 1.408 . S
C1013 C1012 1.404 . S
C1013 H1025 0.930 . S
C1014 C1010 1.524 . S
C1014 H1026 0.956 . S
C1014 H1027 0.961 . S
C1014 H1028 0.961 . S
C1015 C1012 1.539 . S
C1015 H1029 0.958 . S
C1015 H1030 0.961 . S
C1015 H1031 0.960 . S
H1016 C1000 0.931 . S
H1017 C1005 0.929 . S
H1018 C1006 0.960 . S
H1019 C1006 0.962 . S
H1020 C1006 0.960 . S
H1021 C1007 0.961 . S
H1022 C1007 0.961 . S
H1023 C1007 0.961 . S
H1024 C1008 0.931 . S
H1025 C1013 0.930 . S
H1026 C1014 0.956 . S
H1027 C1014 0.961 . S
H1028 C1014 0.961 . S
H1029 C1015 0.958 . S
H1030 C1015 0.961 . S
H1031 C1015 0.960 . S
C265 N1 0.898 . S
C273 C111 0.972 . S
C297 N18 1.042 . S
C305 C160 1.143 . S
C337 C186 2.059 . S
C329 N28 2.094 . S
C361 N40 2.605 . S
C369 C234 2.589 . S
C401 C146 2.415 . S
C393 N5 2.355 . S
C433 C114 0.731 . S
C425 N14 0.739 . S
C465 C235 2.016 . S
C457 N31 2.025 . S
C497 C203 1.375 . S
C489 N41 1.400 . S
C521 N2 1.314 . S
C529 C231 1.374 . S
C561 C163 2.465 1_556 S
C553 N27 2.518 . S
C585 N44 2.392 . S
C593 C115 2.445 . S
C617 N15 0.764 . S
C625 C200 0.719 . S
C657 C120 1.471 . S
C649 N57 1.504 . S
C681 N70 0.861 . S
C689 C151 0.965 . S
C713 N79 2.257 . S
C721 C195 2.315 . S
C745 N93 2.387 . S
C753 C243 2.365 . S
C777 N54 1.906 . S
C785 C155 2.025 1_566 S
C817 C123 1.491 . S
C809 N66 1.582 . S
C849 C226 1.412 . S
C841 N80 1.459 . S
C881 C194 1.690 . S
C873 N96 1.671 . S
C905 N53 1.490 . S
C913 C240 1.505 . S
C945 C154 2.125 . S
C937 N83 2.133 . S
C977 C106 2.618 . S
C969 N92 2.610 . S
C1001 N67 0.889 . S
C1009 C191 0.934 . S
