# Generated by pormake.
# Topology apo, (3,6)-cn, num edge types: 1
# Building blocks:
#     Node 0, Type 0, BuildingBlock: BELTOD_clean_linker_0, # of connection points: 3
#     Node 1, Type 0, BuildingBlock: BELTOD_clean_linker_0, # of connection points: 3
#     Node 2, Type 0, BuildingBlock: BELTOD_clean_linker_0, # of connection points: 3
#     Node 3, Type 0, BuildingBlock: BELTOD_clean_linker_0, # of connection points: 3
#     Node 4, Type 0, BuildingBlock: BELTOD_clean_linker_0, # of connection points: 3
#     Node 5, Type 0, BuildingBlock: BELTOD_clean_linker_0, # of connection points: 3
#     Node 6, Type 0, BuildingBlock: BELTOD_clean_linker_0, # of connection points: 3
#     Node 7, Type 0, BuildingBlock: BELTOD_clean_linker_0, # of connection points: 3
#     Node 8, Type 1, BuildingBlock: KUMBOL_clean_sbu_1, # of connection points: 6
#     Node 9, Type 1, BuildingBlock: KUMBOL_clean_sbu_1, # of connection points: 6
#     Node 10, Type 1, BuildingBlock: KUMBOL_clean_sbu_1, # of connection points: 6
#     Node 11, Type 1, BuildingBlock: KUMBOL_clean_sbu_1, # of connection points: 6
#     Edge 12, Type (0, 1), BuildingBlock: EZIPEK_clean_linker_0, # of connection points: 2
#     Edge 13, Type (0, 1), BuildingBlock: EZIPEK_clean_linker_0, # of connection points: 2
#     Edge 14, Type (0, 1), BuildingBlock: EZIPEK_clean_linker_0, # of connection points: 2
#     Edge 15, Type (0, 1), BuildingBlock: EZIPEK_clean_linker_0, # of connection points: 2
#     Edge 16, Type (0, 1), BuildingBlock: EZIPEK_clean_linker_0, # of connection points: 2
#     Edge 17, Type (0, 1), BuildingBlock: EZIPEK_clean_linker_0, # of connection points: 2
#     Edge 18, Type (0, 1), BuildingBlock: EZIPEK_clean_linker_0, # of connection points: 2
#     Edge 19, Type (0, 1), BuildingBlock: EZIPEK_clean_linker_0, # of connection points: 2
#     Edge 20, Type (0, 1), BuildingBlock: EZIPEK_clean_linker_0, # of connection points: 2
#     Edge 21, Type (0, 1), BuildingBlock: EZIPEK_clean_linker_0, # of connection points: 2
#     Edge 22, Type (0, 1), BuildingBlock: EZIPEK_clean_linker_0, # of connection points: 2
#     Edge 23, Type (0, 1), BuildingBlock: EZIPEK_clean_linker_0, # of connection points: 2
#     Edge 24, Type (0, 1), BuildingBlock: EZIPEK_clean_linker_0, # of connection points: 2
#     Edge 25, Type (0, 1), BuildingBlock: EZIPEK_clean_linker_0, # of connection points: 2
#     Edge 26, Type (0, 1), BuildingBlock: EZIPEK_clean_linker_0, # of connection points: 2
#     Edge 27, Type (0, 1), BuildingBlock: EZIPEK_clean_linker_0, # of connection points: 2
#     Edge 28, Type (0, 1), BuildingBlock: EZIPEK_clean_linker_0, # of connection points: 2
#     Edge 29, Type (0, 1), BuildingBlock: EZIPEK_clean_linker_0, # of connection points: 2
#     Edge 30, Type (0, 1), BuildingBlock: EZIPEK_clean_linker_0, # of connection points: 2
#     Edge 31, Type (0, 1), BuildingBlock: EZIPEK_clean_linker_0, # of connection points: 2
#     Edge 32, Type (0, 1), BuildingBlock: EZIPEK_clean_linker_0, # of connection points: 2
#     Edge 33, Type (0, 1), BuildingBlock: EZIPEK_clean_linker_0, # of connection points: 2
#     Edge 34, Type (0, 1), BuildingBlock: EZIPEK_clean_linker_0, # of connection points: 2
#     Edge 35, Type (0, 1), BuildingBlock: EZIPEK_clean_linker_0, # of connection points: 2
# Relax obj value: 0.007
# Max RMSD: 0.129
# Mean RMSD: 0.093
data_MOF--net-apo--node1-KUMBOL_clean_sbu_1--node2-BELTOD_clean_linker_0--edge1-EZIPEK_clean_linker_0
_symmetry_space_group_name_H-M    P1
_symmetry_Int_Tables_number       1
_symmetry_cell_setting            triclinic
loop_
_symmetry_equiv_pos_as_xyz
'x, y, z'
_cell_length_a     21.28625
_cell_length_b     36.631991
_cell_length_c     47.871101
_cell_angle_alpha  89.62365
_cell_angle_beta   89.983819
_cell_angle_gamma 90.261499
loop_
_atom_site_label
_atom_site_type_symbol
_atom_site_fract_x
_atom_site_fract_y
_atom_site_fract_z
_atom_type_partial_charge
P0 P 0.35429 0.35528 0.3957 0.0
H1 H 0.41334 0.31777 0.44267 0.0
H2 H 0.40625 0.32585 0.49342 0.0
H3 H 0.26196 0.40666 0.48152 0.0
H4 H 0.26931 0.39883 0.43057 0.0
H5 H 0.37642 0.29458 0.3578 0.0
H6 H 0.30546 0.25398 0.33229 0.0
H7 H 0.14622 0.30429 0.37195 0.0
H8 H 0.21753 0.34521 0.39768 0.0
H9 H 0.39917 0.42766 0.41085 0.0
H10 H 0.29779 0.37895 0.34235 0.0
O11 O 0.42812 0.34183 0.39038 0.0
H12 H 0.41041 0.48432 0.38373 0.0
H13 H 0.30902 0.43566 0.31541 0.0
C14 C 0.34264 0.3582 0.43289 0.0
C15 C 0.37981 0.33704 0.45092 0.0
C16 C 0.37577 0.34155 0.47983 0.0
C17 C 0.33389 0.36696 0.49107 0.0
C18 C 0.2946 0.38696 0.47312 0.0
C19 C 0.29883 0.38252 0.44415 0.0
C20 C 0.3022 0.32249 0.38 0.0
C21 C 0.32639 0.29654 0.36149 0.0
C22 C 0.28603 0.27343 0.34686 0.0
C23 C 0.22088 0.27612 0.3504 0.0
C24 C 0.19652 0.30176 0.36916 0.0
C25 C 0.23705 0.32491 0.38387 0.0
C26 C 0.34704 0.39917 0.37883 0.0
C27 C 0.37732 0.42954 0.39046 0.0
C28 C 0.38365 0.46187 0.37504 0.0
C29 C 0.36005 0.46414 0.34772 0.0
C30 C 0.32662 0.43452 0.33663 0.0
C31 C 0.32044 0.40213 0.35205 0.0
P32 P 0.30174 0.09626 0.90433 0.0
H33 H 0.32477 0.06174 0.85096 0.0
H34 H 0.26523 0.01693 0.82347 0.0
H35 H 0.11919 0.01617 0.88593 0.0
H36 H 0.17806 0.06117 0.91326 0.0
H37 H 0.40242 0.14989 0.90707 0.0
H38 H 0.43168 0.20154 0.87682 0.0
H39 H 0.26416 0.18476 0.82784 0.0
H40 H 0.2346 0.13299 0.8582 0.0
H41 H 0.30407 0.05631 0.95667 0.0
H42 H 0.21885 0.15485 0.92499 0.0
O43 O 0.37085 0.07637 0.91034 0.0
H44 H 0.25771 0.06733 1.00262 0.0
H45 H 0.17195 0.16586 0.97135 0.0
C46 C 0.2559 0.06468 0.88411 0.0
C47 C 0.27982 0.05202 0.85867 0.0
C48 C 0.2461 0.02652 0.84305 0.0
C49 C 0.18817 0.01328 0.85282 0.0
C50 C 0.16398 0.02611 0.87819 0.0
C51 C 0.19759 0.05177 0.89373 0.0
C52 C 0.3171 0.13724 0.88452 0.0
C53 C 0.37164 0.15749 0.89001 0.0
C54 C 0.38836 0.18685 0.87278 0.0
C55 C 0.35048 0.19647 0.84994 0.0
C56 C 0.29417 0.1774 0.84524 0.0
C57 C 0.27743 0.14795 0.86254 0.0
C58 C 0.26617 0.10524 0.93769 0.0
C59 C 0.27562 0.08041 0.95965 0.0
C60 C 0.24896 0.08657 0.98579 0.0
C61 C 0.21199 0.11752 0.99035 0.0
C62 C 0.20077 0.14196 0.96818 0.0
C63 C 0.22767 0.13575 0.94187 0.0
P64 P 0.86425 0.14594 0.60977 0.0
H65 H 0.91639 0.19082 0.56495 0.0
H66 H 0.90011 0.19212 0.51432 0.0
H67 H 0.76627 0.10388 0.52182 0.0
H68 H 0.78351 0.10207 0.57275 0.0
H69 H 0.8739 0.19388 0.6579 0.0
H70 H 0.79705 0.23091 0.68304 0.0
H71 H 0.65151 0.1948 0.62686 0.0
H72 H 0.72876 0.15799 0.60134 0.0
H73 H 0.95786 0.08856 0.60805 0.0
H74 H 0.7744 0.10361 0.6445 0.0
O75 O 0.93499 0.16426 0.61555 0.0
H76 H 0.97033 0.03187 0.63505 0.0
H77 H 0.78694 0.04677 0.67132 0.0
C78 C 0.85185 0.14596 0.57253 0.0
C79 C 0.88396 0.17147 0.55577 0.0
C80 C 0.87464 0.17231 0.5269 0.0
C81 C 0.83225 0.14802 0.51436 0.0
C82 C 0.79945 0.1227 0.53115 0.0
C83 C 0.80926 0.12167 0.5601 0.0
C84 C 0.80732 0.17387 0.62735 0.0
C85 C 0.82567 0.19419 0.65073 0.0
C86 C 0.78188 0.21516 0.66517 0.0
C87 C 0.71886 0.21571 0.65667 0.0
C88 C 0.70011 0.19487 0.63356 0.0
C89 C 0.74415 0.17405 0.61898 0.0
C90 C 0.86576 0.10061 0.62461 0.0
C91 C 0.91974 0.07928 0.62134 0.0
C92 C 0.92686 0.04698 0.63668 0.0
C93 C 0.87969 0.0354 0.65522 0.0
C94 C 0.82373 0.05535 0.65705 0.0
C95 C 0.81677 0.08783 0.64179 0.0
P96 P 0.80153 0.40426 0.10184 0.0
H97 H 0.79881 0.41741 0.16175 0.0
H98 H 0.73801 0.45941 0.19077 0.0
H99 H 0.63558 0.49537 0.11803 0.0
H100 H 0.69624 0.45333 0.08889 0.0
H101 H 0.91581 0.36054 0.10365 0.0
H102 H 0.94524 0.30648 0.13124 0.0
H103 H 0.75744 0.30037 0.16478 0.0
H104 H 0.7277 0.35423 0.137 0.0
H105 H 0.8449 0.41951 0.04518 0.0
H106 H 0.68433 0.36843 0.08456 0.0
O107 O 0.86797 0.42801 0.09756 0.0
H108 H 0.80074 0.40624 0.99922 0.0
H109 H 0.63984 0.35511 0.03808 0.0
C110 C 0.75092 0.43155 0.12329 0.0
C111 C 0.76233 0.43369 0.1521 0.0
C112 C 0.72793 0.45768 0.16863 0.0
C113 C 0.68226 0.48018 0.15648 0.0
C114 C 0.67037 0.4779 0.12771 0.0
C115 C 0.70479 0.45384 0.11117 0.0
C116 C 0.82013 0.36187 0.11896 0.0
C117 C 0.88073 0.34732 0.11666 0.0
C118 C 0.89745 0.31643 0.13219 0.0
C119 C 0.85351 0.29977 0.15006 0.0
C120 C 0.79182 0.31302 0.15107 0.0
C121 C 0.77505 0.34377 0.13539 0.0
C122 C 0.76776 0.39499 0.06822 0.0
C123 C 0.80007 0.40555 0.04397 0.0
C124 C 0.77494 0.39802 0.01775 0.0
C125 C 0.71725 0.37974 0.0154 0.0
C126 C 0.68448 0.36925 0.03963 0.0
C127 C 0.70982 0.37679 0.06599 0.0
P128 P 0.80033 0.60142 0.60407 0.0
H129 H 0.83915 0.64745 0.55767 0.0
H130 H 0.80207 0.65239 0.50929 0.0
H131 H 0.64244 0.58439 0.52959 0.0
H132 H 0.68037 0.57832 0.57759 0.0
H133 H 0.8881 0.61161 0.6494 0.0
H134 H 0.91594 0.66402 0.67846 0.0
H135 H 0.77469 0.72864 0.63693 0.0
H136 H 0.74707 0.67593 0.60746 0.0
H137 H 0.83245 0.52781 0.6232 0.0
H138 H 0.67522 0.6012 0.62975 0.0
O139 O 0.86979 0.5837 0.59553 0.0
H140 H 0.7761 0.4824 0.65136 0.0
H141 H 0.6175 0.55485 0.65713 0.0
C142 C 0.7627 0.61262 0.57136 0.0
C143 C 0.79536 0.63432 0.55193 0.0
C144 C 0.77432 0.63709 0.52435 0.0
C145 C 0.71995 0.6184 0.51586 0.0
C146 C 0.68463 0.59888 0.53577 0.0
C147 C 0.70631 0.59561 0.56327 0.0
C148 C 0.8165 0.64016 0.62593 0.0
C149 C 0.86305 0.63703 0.64649 0.0
C150 C 0.8788 0.66684 0.66313 0.0
C151 C 0.84773 0.70024 0.6597 0.0
C152 C 0.7994 0.7031 0.63977 0.0
C153 C 0.78382 0.67314 0.62295 0.0
C154 C 0.75766 0.56775 0.62413 0.0
C155 C 0.78555 0.53406 0.6304 0.0
C156 C 0.75338 0.50803 0.64639 0.0
C157 C 0.6924 0.51508 0.65601 0.0
C158 C 0.66434 0.5488 0.64966 0.0
C159 C 0.69716 0.57517 0.63412 0.0
P160 P 0.84098 0.86163 0.10984 0.0
H161 H 0.92056 0.87853 0.15744 0.0
H162 H 0.93802 0.93418 0.1845 0.0
H163 H 0.79978 0.99038 0.13459 0.0
H164 H 0.78287 0.93453 0.10708 0.0
H165 H 0.82624 0.78254 0.11261 0.0
H166 H 0.75489 0.74247 0.13908 0.0
H167 H 0.6557 0.83661 0.16941 0.0
H168 H 0.72729 0.87683 0.14301 0.0
H169 H 0.90382 0.90884 0.06958 0.0
H170 H 0.74574 0.83473 0.06995 0.0
O171 O 0.90904 0.8392 0.1105 0.0
H172 H 0.89254 0.91705 0.01886 0.0
H173 H 0.73428 0.84318 0.01924 0.0
C174 C 0.85161 0.90272 0.12984 0.0
C175 C 0.89419 0.90282 0.15216 0.0
C176 C 0.90393 0.93447 0.16769 0.0
C177 C 0.87056 0.96642 0.16139 0.0
C178 C 0.82625 0.96603 0.13963 0.0
C179 C 0.81683 0.9343 0.12392 0.0
C180 C 0.78285 0.83266 0.12629 0.0
C181 C 0.78891 0.79461 0.12477 0.0
C182 C 0.74825 0.77175 0.13982 0.0
C183 C 0.70059 0.78664 0.15642 0.0
C184 C 0.69254 0.82468 0.15686 0.0
C185 C 0.73338 0.84757 0.14182 0.0
C186 C 0.82514 0.87158 0.07359 0.0
C187 C 0.86599 0.8949 0.05884 0.0
C188 C 0.85979 0.89947 0.02995 0.0
C189 C 0.81261 0.88072 0.01536 0.0
C190 C 0.77088 0.85793 0.03018 0.0
C191 C 0.77728 0.85326 0.05911 0.0
P192 P 0.28946 0.89838 0.40564 0.0
H193 H 0.34258 0.87063 0.45735 0.0
H194 H 0.29829 0.8585 0.50371 0.0
H195 H 0.11542 0.89115 0.47431 0.0
H196 H 0.15928 0.90261 0.42765 0.0
H197 H 0.29176 0.88704 0.34516 0.0
H198 H 0.32358 0.83571 0.31641 0.0
H199 H 0.36212 0.77233 0.39061 0.0
H200 H 0.32684 0.82317 0.41966 0.0
H201 H 0.3018 0.97666 0.39448 0.0
H202 H 0.17274 0.88968 0.37392 0.0
O203 O 0.35889 0.91805 0.41184 0.0
H204 H 0.2418 0.01882 0.36497 0.0
H205 H 0.11245 0.93214 0.34438 0.0
C206 C 0.25442 0.8875 0.43898 0.0
C207 C 0.29282 0.87481 0.4607 0.0
C208 C 0.26766 0.868 0.48714 0.0
C209 C 0.20368 0.87392 0.49233 0.0
C210 C 0.16489 0.88633 0.4706 0.0
C211 C 0.19005 0.89282 0.44398 0.0
C212 C 0.30477 0.8587 0.3847 0.0
C213 C 0.30468 0.86178 0.35544 0.0
C214 C 0.32345 0.83259 0.33893 0.0
C215 C 0.34508 0.80027 0.35139 0.0
C216 C 0.34511 0.797 0.38064 0.0
C217 C 0.32489 0.82602 0.39718 0.0
C218 C 0.24194 0.93002 0.38614 0.0
C219 C 0.26052 0.96665 0.38373 0.0
C220 C 0.22655 0.99065 0.36685 0.0
C221 C 0.17348 0.97829 0.35231 0.0
C222 C 0.15379 0.9419 0.35527 0.0
C223 C 0.18784 0.91787 0.37217 0.0
P224 P 0.35908 0.64573 0.89395 0.0
H225 H 0.46216 0.61953 0.85926 0.0
H226 H 0.47811 0.56304 0.83335 0.0
H227 H 0.30079 0.52151 0.86383 0.0
H228 H 0.28657 0.5773 0.8913 0.0
H229 H 0.35622 0.71859 0.86871 0.0
H230 H 0.27519 0.75257 0.84353 0.0
H231 H 0.14623 0.66249 0.85409 0.0
H232 H 0.22722 0.62831 0.87963 0.0
H233 H 0.43449 0.61458 0.93824 0.0
H234 H 0.25067 0.66282 0.93039 0.0
O235 O 0.42522 0.67032 0.89217 0.0
H236 H 0.42211 0.61254 0.98923 0.0
H237 H 0.23783 0.65984 0.98127 0.0
C238 C 0.37278 0.60281 0.87698 0.0
C239 C 0.42711 0.59812 0.86085 0.0
C240 C 0.43631 0.56589 0.84605 0.0
C241 C 0.39065 0.53815 0.84668 0.0
C242 C 0.33669 0.54256 0.8632 0.0
C243 C 0.32828 0.57451 0.87858 0.0
C244 C 0.29821 0.67064 0.87587 0.0
C245 C 0.31076 0.70591 0.86564 0.0
C246 C 0.26462 0.72534 0.85122 0.0
C247 C 0.20519 0.70982 0.84677 0.0
C248 C 0.19218 0.67466 0.85711 0.0
C249 C 0.23847 0.65519 0.87161 0.0
C250 C 0.34358 0.6388 0.93054 0.0
C251 C 0.39102 0.62401 0.94742 0.0
C252 C 0.38408 0.62287 0.97643 0.0
C253 C 0.32915 0.63609 0.98888 0.0
C254 C 0.28044 0.64943 0.97193 0.0
C255 C 0.28778 0.65102 0.9429 0.0
C256 C 0.7883 0.10914 0.26702 0.0
C257 C 0.77449 0.05226 0.29248 0.0
C258 C 0.8112 0.08319 0.28554 0.0
C259 C 0.71606 0.04698 0.27945 0.0
C260 C 0.72843 0.10477 0.25484 0.0
C261 C 0.69309 0.07317 0.26066 0.0
N262 N 0.82329 0.13957 0.26198 0.0
C263 C 0.79887 0.168 0.24705 0.0
C264 C 0.70507 0.1328 0.23783 0.0
C265 C 0.74006 0.16482 0.2343 0.0
Gd266 Gd 0.07393 0.14147 0.22728 0.0
Gd267 Gd 0.92332 0.14132 0.28256 0.0
N268 N 0.86776 0.08914 0.29791 0.0
C269 C 0.79671 0.02811 0.31292 0.0
C270 C 0.88749 0.06696 0.31922 0.0
C271 C 0.85296 0.03583 0.32667 0.0
H272 H 0.92997 0.07309 0.33062 0.0
H273 H 0.86954 0.01798 0.34317 0.0
H274 H 0.04348 0.21871 0.19249 0.0
H275 H 0.82386 0.19349 0.24542 0.0
H276 H 0.08652 0.28131 0.18871 0.0
H277 H 0.76988 0.00407 0.31884 0.0
H278 H 0.68755 0.0232 0.28431 0.0
H279 H 0.18901 0.09043 0.25825 0.0
H280 H 0.65924 0.13052 0.22813 0.0
H281 H 0.72142 0.18726 0.22209 0.0
H282 H 0.27391 0.278 0.24458 0.0
H283 H 0.64723 0.0692 0.25132 0.0
H284 H 0.33399 0.16331 0.28476 0.0
H285 H 0.28885 0.10109 0.28254 0.0
N286 N 0.1739 0.14676 0.24858 0.0
C287 C 0.20048 0.18061 0.2477 0.0
C288 C 0.20654 0.11806 0.25978 0.0
C289 C 0.28943 0.15894 0.27433 0.0
C290 C 0.264 0.12382 0.27322 0.0
C291 C 0.25834 0.18776 0.26102 0.0
H292 H 0.3279 0.22924 0.27058 0.0
N293 N 0.115 0.20031 0.22008 0.0
C294 C 0.17061 0.20807 0.23274 0.0
C295 C 0.16574 0.27009 0.21542 0.0
C296 C 0.19693 0.2434 0.23116 0.0
C297 C 0.08588 0.22566 0.20364 0.0
C298 C 0.11039 0.26104 0.20132 0.0
O299 O 0.90935 0.11153 0.24137 0.0
O300 O 0.00964 0.09262 0.23021 0.0
O301 O 0.0729 0.14073 0.18091 0.0
O302 O 0.14312 0.11083 0.20509 0.0
O303 O 0.98967 0.09528 0.29077 0.0
O304 O 0.08033 0.10081 0.26329 0.0
O305 O 0.05935 0.18862 0.2559 0.0
O306 O 0.02127 0.16037 0.29496 0.0
O307 O 0.92225 0.14688 0.32756 0.0
O308 O 0.86652 0.18337 0.30219 0.0
O309 O 0.98071 0.16532 0.21331 0.0
O310 O 0.9397 0.18915 0.25379 0.0
C311 C 0.94852 0.09111 0.22698 0.0
C312 C 0.04726 0.08617 0.28396 0.0
C313 C 0.15029 0.10313 0.15545 0.0
C314 C 0.17087 0.10242 0.10532 0.0
C315 C 0.21837 0.05689 0.13554 0.0
C316 C 0.18915 0.07238 0.15859 0.0
C317 C 0.20952 0.07186 0.10907 0.0
C318 C 0.14052 0.11794 0.12855 0.0
C319 C 0.12113 0.11898 0.18059 0.0
C320 C 0.25328 0.25092 0.24529 0.0
C321 C 0.28392 0.22317 0.26016 0.0
H322 H 0.18441 0.29758 0.21372 0.0
C323 C 0.0569 0.18532 0.283 0.0
C324 C 0.94473 0.18899 0.22644 0.0
C325 C 0.82666 0.16532 0.34681 0.0
C326 C 0.79045 0.15567 0.39467 0.0
C327 C 0.7173 0.15032 0.35599 0.0
C328 C 0.76554 0.15834 0.33709 0.0
C329 C 0.72958 0.14898 0.38466 0.0
C330 C 0.83882 0.16395 0.37568 0.0
C331 C 0.87926 0.17188 0.32738 0.0
H332 H 0.24818 0.03326 0.13823 0.0
H333 H 0.19703 0.06015 0.17896 0.0
H334 H 0.23295 0.0596 0.09137 0.0
H335 H 0.11063 0.14154 0.12571 0.0
H336 H 0.67031 0.14493 0.34839 0.0
H337 H 0.75512 0.15878 0.31495 0.0
H338 H 0.69174 0.14261 0.39905 0.0
H339 H 0.88598 0.16893 0.38338 0.0
C340 C 0.7111 0.39297 0.76646 0.0
C341 C 0.7135 0.45564 0.78253 0.0
C342 C 0.68182 0.42207 0.77925 0.0
C343 C 0.77452 0.45989 0.77181 0.0
C344 C 0.77363 0.39652 0.757 0.0
C345 C 0.80457 0.43036 0.75911 0.0
N346 N 0.68017 0.36047 0.76526 0.0
C347 C 0.71148 0.32971 0.75725 0.0
C348 C 0.80406 0.36561 0.74675 0.0
C349 C 0.77317 0.33193 0.74734 0.0
Gd350 Gd 0.42635 0.36099 0.72545 0.0
Gd351 Gd 0.57477 0.36043 0.78105 0.0
N352 N 0.62291 0.41705 0.78944 0.0
C353 C 0.68348 0.48359 0.79715 0.0
C354 C 0.59489 0.44337 0.80511 0.0
C355 C 0.62428 0.47721 0.80886 0.0
H356 H 0.54969 0.43839 0.8146 0.0
H357 H 0.60131 0.49829 0.8208 0.0
H358 H 0.43787 0.28336 0.68663 0.0
H359 H 0.68933 0.30318 0.75869 0.0
H360 H 0.38472 0.224 0.68353 0.0
H361 H 0.70623 0.50979 0.80011 0.0
H362 H 0.79948 0.48556 0.77391 0.0
H363 H 0.32725 0.41461 0.7608 0.0
H364 H 0.85212 0.36717 0.73936 0.0
H365 H 0.79714 0.30757 0.74052 0.0
H366 H 0.20915 0.23373 0.74563 0.0
H367 H 0.85238 0.43367 0.75171 0.0
H368 H 0.17255 0.34926 0.78887 0.0
H369 H 0.22839 0.40862 0.78716 0.0
N370 N 0.33014 0.35864 0.74937 0.0
C371 C 0.29829 0.32641 0.74855 0.0
C372 C 0.30457 0.38831 0.7621 0.0
C373 C 0.21647 0.35163 0.77754 0.0
C374 C 0.24794 0.38514 0.77671 0.0
C375 C 0.24108 0.32186 0.76305 0.0
H376 H 0.16608 0.28396 0.77346 0.0
N377 N 0.37745 0.30368 0.71858 0.0
C378 C 0.323 0.29803 0.73296 0.0
C379 C 0.31398 0.2373 0.71388 0.0
C380 C 0.29037 0.26449 0.7313 0.0
C381 C 0.39806 0.27808 0.70004 0.0
C382 C 0.36736 0.2444 0.6978 0.0
O383 O 0.56949 0.4079 0.75182 0.0
O384 O 0.52211 0.38444 0.71239 0.0
O385 O 0.39476 0.35625 0.68223 0.0
O386 O 0.3772 0.40628 0.70561 0.0
O387 O 0.48266 0.38904 0.79165 0.0
O388 O 0.44149 0.41152 0.75059 0.0
O389 O 0.41596 0.33678 0.76906 0.0
O390 O 0.51263 0.31161 0.77448 0.0
O391 O 0.56259 0.36257 0.82628 0.0
O392 O 0.62827 0.32484 0.80824 0.0
O393 O 0.50276 0.32219 0.713 0.0
O394 O 0.58745 0.32285 0.74398 0.0
C395 C 0.55964 0.40824 0.72487 0.0
C396 C 0.45208 0.41453 0.77743 0.0
C397 C 0.33902 0.40477 0.65762 0.0
C398 C 0.31802 0.40604 0.6075 0.0
C399 C 0.27103 0.45127 0.63771 0.0
C400 C 0.3006 0.43554 0.66083 0.0
C401 C 0.27978 0.4367 0.61115 0.0
C402 C 0.34738 0.38991 0.6308 0.0
C403 C 0.3708 0.3888 0.6822 0.0
C404 C 0.23445 0.25944 0.74647 0.0
C405 C 0.20985 0.28805 0.76228 0.0
H406 H 0.29027 0.21119 0.71204 0.0
C407 C 0.45251 0.31156 0.77965 0.0
C408 C 0.5589 0.31161 0.72105 0.0
C409 C 0.65683 0.35164 0.85093 0.0
C410 C 0.69073 0.36281 0.89866 0.0
C411 C 0.76335 0.37247 0.86027 0.0
C412 C 0.71697 0.36186 0.84141 0.0
C413 C 0.75042 0.37288 0.88879 0.0
C414 C 0.64373 0.35234 0.87969 0.0
C415 C 0.60815 0.33985 0.83105 0.0
H416 H 0.24148 0.47496 0.64038 0.0
H417 H 0.2933 0.44743 0.68123 0.0
H418 H 0.25697 0.44942 0.59338 0.0
H419 H 0.37729 0.36636 0.62789 0.0
H420 H 0.80952 0.38023 0.85275 0.0
H421 H 0.72849 0.36136 0.81944 0.0
H422 H 0.78698 0.38106 0.90323 0.0
H423 H 0.59759 0.34453 0.88731 0.0
C424 C 0.78759 0.83779 0.7669 0.0
C425 C 0.77077 0.77988 0.79053 0.0
C426 C 0.80904 0.81052 0.78462 0.0
C427 C 0.71205 0.77639 0.77742 0.0
C428 C 0.72764 0.83512 0.75452 0.0
C429 C 0.69051 0.80396 0.75946 0.0
N430 N 0.82453 0.86759 0.76253 0.0
C431 C 0.80248 0.89687 0.74781 0.0
C432 C 0.70622 0.86422 0.73806 0.0
C433 C 0.7435 0.89544 0.73502 0.0
Gd434 Gd 0.07716 0.86398 0.7287 0.0
Gd435 Gd 0.92406 0.86692 0.78357 0.0
N436 N 0.86595 0.81477 0.79707 0.0
C437 C 0.79189 0.75413 0.81004 0.0
C438 C 0.88476 0.79092 0.8175 0.0
C439 C 0.84867 0.76 0.82389 0.0
H440 H 0.92747 0.7956 0.82913 0.0
H441 H 0.86443 0.74087 0.8397 0.0
H442 H 0.05791 0.94178 0.69363 0.0
H443 H 0.82984 0.92157 0.74604 0.0
H444 H 0.11035 0.00193 0.68893 0.0
H445 H 0.76388 0.73023 0.81515 0.0
H446 H 0.68231 0.75288 0.78153 0.0
H447 H 0.18597 0.80687 0.75796 0.0
H448 H 0.66039 0.86325 0.72824 0.0
H449 H 0.72668 0.91853 0.72299 0.0
H450 H 0.2988 0.98929 0.74331 0.0
H451 H 0.64453 0.80129 0.74997 0.0
H452 H 0.34396 0.8715 0.78211 0.0
H453 H 0.28908 0.81194 0.78044 0.0
N454 N 0.1785 0.86397 0.74905 0.0
C455 C 0.20996 0.89639 0.74805 0.0
C456 C 0.20761 0.8335 0.75945 0.0
C457 C 0.29787 0.86967 0.77261 0.0
C458 C 0.26696 0.83604 0.7718 0.0
C459 C 0.27003 0.90024 0.76018 0.0
H460 H 0.34689 0.93768 0.76839 0.0
N461 N 0.12613 0.92063 0.7216 0.0
C462 C 0.1833 0.92546 0.73369 0.0
C463 C 0.18791 0.98714 0.7156 0.0
C464 C 0.21527 0.95913 0.73143 0.0
C465 C 0.10114 0.94691 0.70472 0.0
C466 C 0.13107 0.98079 0.70182 0.0
O467 O 0.90872 0.83893 0.7419 0.0
O468 O 0.00769 0.81729 0.7319 0.0
O469 O 0.07432 0.86495 0.68255 0.0
O470 O 0.14167 0.83113 0.70532 0.0
O471 O 0.99275 0.8218 0.79376 0.0
O472 O 0.07917 0.82156 0.76334 0.0
O473 O 0.07079 0.91152 0.75843 0.0
O474 O 0.02431 0.88072 0.79389 0.0
O475 O 0.91872 0.87032 0.82867 0.0
O476 O 0.87503 0.91201 0.80343 0.0
O477 O 0.98613 0.89019 0.71505 0.0
O478 O 0.94286 0.91547 0.75487 0.0
C479 C 0.94687 0.81811 0.72738 0.0
C480 C 0.04765 0.80939 0.78532 0.0
C481 C 0.14667 0.82673 0.65523 0.0
C482 C 0.16629 0.83015 0.60509 0.0
C483 C 0.21302 0.78168 0.6328 0.0
C484 C 0.18475 0.79548 0.65672 0.0
C485 C 0.20417 0.79898 0.60715 0.0
C486 C 0.13658 0.84374 0.62916 0.0
C487 C 0.12016 0.84159 0.68124 0.0
C488 C 0.27375 0.96352 0.74457 0.0
C489 C 0.30108 0.93414 0.75889 0.0
H490 H 0.21099 0.01342 0.71334 0.0
C491 C 0.05377 0.90957 0.78465 0.0
C492 C 0.95441 0.91597 0.72777 0.0
C493 C 0.82817 0.89665 0.84731 0.0
C494 C 0.78713 0.89144 0.89482 0.0
C495 C 0.71595 0.89029 0.85518 0.0
C496 C 0.76672 0.8939 0.83683 0.0
C497 C 0.72599 0.88907 0.88404 0.0
C498 C 0.83809 0.8954 0.87637 0.0
C499 C 0.88293 0.89885 0.82853 0.0
H500 H 0.24237 0.75769 0.6342 0.0
H501 H 0.19304 0.7817 0.67646 0.0
H502 H 0.22723 0.78817 0.58881 0.0
H503 H 0.10745 0.86787 0.62764 0.0
H504 H 0.66868 0.88818 0.84701 0.0
H505 H 0.75797 0.89426 0.81455 0.0
H506 H 0.68617 0.88601 0.89797 0.0
H507 H 0.88544 0.89705 0.88464 0.0
C508 C 0.71414 0.66606 0.27105 0.0
C509 C 0.72512 0.7214 0.2982 0.0
C510 C 0.6889 0.69121 0.28944 0.0
C511 C 0.78583 0.72666 0.28736 0.0
C512 C 0.77598 0.67054 0.26094 0.0
C513 C 0.81116 0.70132 0.26875 0.0
N514 N 0.67934 0.6363 0.26409 0.0
C515 C 0.70523 0.60871 0.24898 0.0
C516 C 0.80129 0.6434 0.2439 0.0
C517 C 0.76603 0.6121 0.23823 0.0
Gd518 Gd 0.4304 0.6365 0.22525 0.0
Gd519 Gd 0.57695 0.634 0.28215 0.0
N520 N 0.62988 0.68556 0.2995 0.0
C521 C 0.69965 0.74511 0.31796 0.0
C522 C 0.60634 0.70743 0.32 0.0
C523 C 0.64031 0.73783 0.32914 0.0
H524 H 0.56115 0.70156 0.32936 0.0
H525 H 0.62087 0.75548 0.34496 0.0
H526 H 0.44883 0.55446 0.19684 0.0
H527 H 0.67976 0.58372 0.24554 0.0
H528 H 0.38781 0.49728 0.19113 0.0
H529 H 0.72596 0.76862 0.32517 0.0
H530 H 0.81404 0.74989 0.29364 0.0
H531 H 0.32611 0.70094 0.24517 0.0
H532 H 0.84863 0.64581 0.23575 0.0
H533 H 0.78591 0.59037 0.22588 0.0
H534 H 0.18525 0.52552 0.22925 0.0
H535 H 0.85855 0.70534 0.26102 0.0
H536 H 0.1489 0.64823 0.25886 0.0
H537 H 0.21493 0.70393 0.25941 0.0
N538 N 0.32456 0.64342 0.23864 0.0
C539 C 0.28814 0.61295 0.23668 0.0
C540 C 0.29827 0.67616 0.2456 0.0
C541 C 0.19797 0.6466 0.25299 0.0
C542 C 0.23509 0.67808 0.25338 0.0
C543 C 0.224 0.61364 0.24411 0.0
H544 H 0.1384 0.58168 0.24771 0.0
N545 N 0.37561 0.58179 0.2182 0.0
C546 C 0.31443 0.58124 0.2262 0.0
C547 C 0.3048 0.51875 0.2108 0.0
C548 C 0.27749 0.5495 0.22299 0.0
C549 C 0.40133 0.55277 0.20465 0.0
C550 C 0.36678 0.52056 0.20125 0.0
O551 O 0.59676 0.66283 0.24109 0.0
O552 O 0.49876 0.68426 0.22821 0.0
O553 O 0.42925 0.62807 0.18024 0.0
O554 O 0.38821 0.67671 0.19766 0.0
O555 O 0.51243 0.68251 0.28546 0.0
O556 O 0.41555 0.66788 0.2654 0.0
O557 O 0.43653 0.58636 0.25327 0.0
O558 O 0.479 0.61307 0.29185 0.0
O559 O 0.57232 0.62768 0.32733 0.0
O560 O 0.63367 0.59315 0.30324 0.0
O561 O 0.52314 0.61262 0.21226 0.0
O562 O 0.56621 0.58693 0.25203 0.0
C563 C 0.5605 0.68427 0.22593 0.0
C564 C 0.45139 0.68679 0.28255 0.0
C565 C 0.34221 0.65317 0.15638 0.0
C566 C 0.30208 0.64665 0.10896 0.0
C567 C 0.22967 0.65295 0.14776 0.0
C568 C 0.28017 0.65526 0.16628 0.0
C569 C 0.24046 0.64895 0.11919 0.0
C570 C 0.35287 0.64832 0.12768 0.0
C571 C 0.39633 0.65723 0.17532 0.0
C572 C 0.21427 0.54972 0.23137 0.0
C573 C 0.18759 0.58171 0.24188 0.0
H574 H 0.27797 0.49384 0.20799 0.0
C575 C 0.45157 0.58518 0.27987 0.0
C576 C 0.55692 0.58761 0.22487 0.0
C577 C 0.66858 0.6114 0.34812 0.0
C578 C 0.70454 0.61837 0.39618 0.0
C579 C 0.7776 0.62683 0.35775 0.0
C580 C 0.72979 0.61925 0.33871 0.0
C581 C 0.76518 0.62631 0.38635 0.0
C582 C 0.65605 0.61121 0.37701 0.0
C583 C 0.61748 0.6039 0.32811 0.0
H584 H 0.18205 0.6547 0.15555 0.0
H585 H 0.2705 0.65915 0.18819 0.0
H586 H 0.20086 0.64771 0.10502 0.0
H587 H 0.40055 0.6468 0.11978 0.0
H588 H 0.82455 0.6329 0.35031 0.0
H589 H 0.74093 0.61942 0.31667 0.0
H590 H 0.80297 0.63189 0.40089 0.0
H591 H 0.60912 0.60511 0.38457 0.0
C592 C 0.14355 0.00291 0.30506 0.0
C593 C 0.13782 0.00408 0.33453 0.0
C594 C 0.07641 0.06002 0.33101 0.0
C595 C 0.07734 0.05735 0.30131 0.0
N596 N 0.09896 0.02074 0.26059 0.0
N597 N 0.08681 0.02838 0.37526 0.0
C598 C 0.10737 0.02724 0.28842 0.0
C599 C 0.10037 0.03094 0.34739 0.0
N600 N 0.18468 0.97923 0.29296 0.0
N601 N 0.05602 0.09106 0.34378 0.0
H602 H 0.10371 0.00741 0.38802 0.0
H603 H 0.05391 0.04493 0.38507 0.0
H604 H 0.03937 0.11374 0.33303 0.0
H605 H 0.06152 0.09581 0.36507 0.0
H606 H 0.19598 0.98008 0.27178 0.0
H607 H 0.21144 0.96066 0.30444 0.0
H608 H 0.11489 0.99725 0.25076 0.0
H609 H 0.07021 0.03672 0.24793 0.0
C610 C 0.40246 0.47034 0.8395 0.0
C611 C 0.39759 0.50597 0.82818 0.0
C612 C 0.41805 0.48209 0.78126 0.0
C613 C 0.42383 0.44611 0.79292 0.0
N614 N 0.38538 0.40674 0.82961 0.0
N615 N 0.37775 0.54335 0.78758 0.0
C616 C 0.40535 0.44038 0.82107 0.0
C617 C 0.39829 0.51111 0.79881 0.0
N618 N 0.40573 0.46485 0.86769 0.0
N619 N 0.43222 0.48954 0.75396 0.0
H620 H 0.36143 0.56486 0.79974 0.0
H621 H 0.37026 0.54734 0.76627 0.0
H622 H 0.44196 0.47028 0.73885 0.0
H623 H 0.43825 0.51605 0.74637 0.0
H624 H 0.41478 0.43929 0.87649 0.0
H625 H 0.4051 0.48616 0.88202 0.0
H626 H 0.36741 0.40161 0.84952 0.0
H627 H 0.37765 0.38587 0.81529 0.0
C628 C 0.64539 0.45246 0.66344 0.0
C629 C 0.65927 0.48772 0.67385 0.0
C630 C 0.60524 0.47215 0.71747 0.0
C631 C 0.59576 0.43567 0.70789 0.0
N632 N 0.63274 0.38927 0.67649 0.0
N633 N 0.6694 0.52666 0.71409 0.0
C634 C 0.62296 0.42521 0.68212 0.0
C635 C 0.64432 0.49627 0.70188 0.0
N636 N 0.65282 0.44489 0.63576 0.0
N637 N 0.57579 0.48461 0.74084 0.0
H638 H 0.69967 0.54457 0.70364 0.0
H639 H 0.66569 0.53183 0.73541 0.0
H640 H 0.5464 0.46872 0.7532 0.0
H641 H 0.57609 0.51201 0.7466 0.0
H642 H 0.63815 0.42027 0.62704 0.0
H643 H 0.66774 0.46438 0.62119 0.0
H644 H 0.65692 0.38048 0.65884 0.0
H645 H 0.62508 0.36896 0.69145 0.0
C646 C 0.86893 0.00173 0.20618 0.0
C647 C 0.884 1.00032 0.17736 0.0
C648 C 0.93079 0.06147 0.18031 0.0
C649 C 0.92301 0.06074 0.20979 0.0
N650 N 0.89916 0.02546 0.25117 0.0
N651 N 0.93899 0.02636 0.13779 0.0
C652 C 0.89555 0.0297 0.22288 0.0
C653 C 0.91731 0.02961 0.16455 0.0
N654 N 0.82902 0.97643 0.21761 0.0
N655 N 0.95031 0.09274 0.16726 0.0
H656 H 0.93065 0.00343 0.12553 0.0
H657 H 0.96988 0.04501 0.12858 0.0
H658 H 0.9606 0.11647 0.17812 0.0
H659 H 0.95066 0.09613 0.14563 0.0
H660 H 0.81178 0.97833 0.23793 0.0
H661 H 0.80836 0.95567 0.20589 0.0
H662 H 0.88497 0.00176 0.26159 0.0
H663 H 0.92308 0.0439 0.26378 0.0
C664 C 0.87719 0.96851 0.66788 0.0
C665 C 0.89257 0.00494 0.67502 0.0
C666 C 0.94826 0.98343 0.7167 0.0
C667 C 0.93027 0.94692 0.7105 0.0
N668 N 0.86594 0.90573 0.68352 0.0
N669 N 0.93098 0.04799 0.70894 0.0
C670 C 0.89136 0.93973 0.68699 0.0
C671 C 0.92403 0.01264 0.7004 0.0
N672 N 0.85028 0.96134 0.64258 0.0
N673 N 0.99221 0.99017 0.73679 0.0
H674 H 0.91569 0.07032 0.69719 0.0
H675 H 0.94692 0.05507 0.72876 0.0
H676 H 0.01396 0.96951 0.74805 0.0
H677 H 0.01244 0.0157 0.74013 0.0
H678 H 0.84468 0.9351 0.63471 0.0
H679 H 0.83723 0.98189 0.62857 0.0
H680 H 0.83229 0.89967 0.66845 0.0
H681 H 0.87373 0.88428 0.69748 0.0
C682 C 0.66958 0.5446 0.1727 0.0
C683 C 0.64949 0.50767 0.17373 0.0
C684 C 0.57265 0.52243 0.21004 0.0
C685 C 0.58901 0.55999 0.20737 0.0
N686 N 0.64876 0.6076 0.18408 0.0
N687 N 0.57659 0.46181 0.18999 0.0
C688 C 0.63591 0.57131 0.18793 0.0
C689 C 0.59965 0.49665 0.19154 0.0
N690 N 0.72269 0.55387 0.15813 0.0
N691 N 0.53129 0.5113 0.23024 0.0
H692 H 0.59555 0.44213 0.17682 0.0
H693 H 0.53569 0.45311 0.19999 0.0
H694 H 0.5067 0.52938 0.24278 0.0
H695 H 0.52369 0.48407 0.23565 0.0
H696 H 0.74435 0.57935 0.15934 0.0
H697 H 0.74845 0.53518 0.1465 0.0
H698 H 0.67586 0.61777 0.16766 0.0
H699 H 0.62989 0.62801 0.19647 0.0
C700 C 0.44197 0.49342 0.31787 0.0
C701 C 0.3807 0.4946 0.32925 0.0
C702 C 0.36345 0.55408 0.30663 0.0
C703 C 0.42712 0.55444 0.29751 0.0
N704 N 0.53024 0.52747 0.3002 0.0
N705 N 0.28407 0.52676 0.33695 0.0
C706 C 0.46722 0.52494 0.30473 0.0
C707 C 0.34147 0.5251 0.32423 0.0
N708 N 0.47588 0.4618 0.31909 0.0
N709 N 0.32412 0.58146 0.29852 0.0
H710 H 0.26632 0.50557 0.34935 0.0
H711 H 0.25568 0.54981 0.3367 0.0
H712 H 0.33985 0.60416 0.28735 0.0
H713 H 0.27571 0.5809 0.30153 0.0
H714 H 0.51766 0.45804 0.30815 0.0
H715 H 0.45958 0.43802 0.32882 0.0
H716 H 0.5627 0.50877 0.30795 0.0
H717 H 0.55068 0.55027 0.29122 0.0
C718 C 0.09729 0.99658 0.8222 0.0
C719 C 0.1526 0.98589 0.83645 0.0
C720 C 0.14118 0.92368 0.81837 0.0
C721 C 0.08487 0.93439 0.80475 0.0
N722 N 0.99902 0.97684 0.80212 0.0
N723 N 0.22138 0.93817 0.85272 0.0
C724 C 0.05986 0.96964 0.8091 0.0
C725 C 0.17297 0.94904 0.83587 0.0
N726 N 0.08142 0.03264 0.82042 0.0
N727 N 0.16434 0.88937 0.81445 0.0
H728 H 0.24563 0.95604 0.86577 0.0
H729 H 0.23463 0.91108 0.8555 0.0
H730 H 0.14018 0.8694 0.80336 0.0
H731 H 0.20856 0.88104 0.8211 0.0
H732 H 0.04535 0.04222 0.80765 0.0
H733 H 0.10778 0.05338 0.82966 0.0
H734 H 0.97632 0.00103 0.80725 0.0
H735 H 0.96933 0.95701 0.79392 0.0
C736 C 0.13448 0.10335 0.02822 0.0
C737 C 0.18707 0.12394 0.01889 0.0
C738 C 0.20796 0.1435 0.0669 0.0
C739 C 0.16396 0.11718 0.07652 0.0
N740 N 0.08028 0.07466 0.06743 0.0
N741 N 0.27229 0.16555 0.02838 0.0
C742 C 0.12463 0.09847 0.05742 0.0
C743 C 0.22242 0.14537 0.0379 0.0
N744 N 0.09491 0.08817 0.009 0.0
N745 N 0.23667 0.166 0.08568 0.0
H746 H 0.28293 0.16834 0.0072 0.0
H747 H 0.30477 0.17829 0.04134 0.0
H748 H 0.22712 0.16472 0.10703 0.0
H749 H 0.2655 0.18786 0.08005 0.0
H750 H 0.0532 0.07479 0.01408 0.0
H751 H 0.10161 0.09151 0.98753 0.0
H752 H 0.05457 0.05684 0.05499 0.0
H753 H 0.07032 0.07215 0.08871 0.0
C754 C 0.37447 0.40154 0.53244 0.0
C755 C 0.33387 0.37424 0.52157 0.0
C756 C 0.28732 0.36468 0.56798 0.0
C757 C 0.3281 0.39189 0.57882 0.0
N758 N 0.41903 0.43062 0.5734 0.0
N759 N 0.26019 0.32509 0.5292 0.0
C760 C 0.37447 0.40853 0.56163 0.0
C761 C 0.29298 0.35425 0.53947 0.0
N762 N 0.41155 0.42158 0.51467 0.0
N763 N 0.24186 0.34976 0.58477 0.0
H764 H 0.26213 0.31737 0.50828 0.0
H765 H 0.2346 0.30696 0.54162 0.0
H766 H 0.23808 0.35571 0.60599 0.0
H767 H 0.2059 0.33297 0.57754 0.0
H768 H 0.43658 0.44471 0.52067 0.0
H769 H 0.41442 0.41652 0.49329 0.0
H770 H 0.45804 0.44066 0.56268 0.0
H771 H 0.41997 0.4365 0.59469 0.0
C772 C 0.70672 0.33751 0.97464 0.0
C773 C 0.6928 0.37155 0.98713 0.0
C774 C 0.66125 0.39689 0.94185 0.0
C775 C 0.6789 0.36363 0.92915 0.0
N776 N 0.70148 0.29954 0.93327 0.0
N777 N 0.64193 0.42997 0.98484 0.0
C778 C 0.69564 0.3329 0.9456 0.0
C779 C 0.66472 0.40001 0.97139 0.0
N780 N 0.73392 0.31047 0.99023 0.0
N781 N 0.64415 0.42591 0.92548 0.0
H782 H 0.64416 0.43274 0.00651 0.0
H783 H 0.61634 0.45051 0.97504 0.0
H784 H 0.6385 0.4239 0.90388 0.0
H785 H 0.63793 0.45225 0.93296 0.0
H786 H 0.75231 0.28668 0.9818 0.0
H787 H 0.74095 0.31255 0.01172 0.0
H788 H 0.70812 0.27532 0.94434 0.0
H789 H 0.6942 0.29564 0.91194 0.0
C790 C 0.78916 0.17991 0.47187 0.0
C791 C 0.82169 0.14974 0.48363 0.0
C792 C 0.83189 0.12261 0.43707 0.0
C793 C 0.80329 0.15402 0.42519 0.0
N794 N 0.76581 0.21558 0.43034 0.0
N795 N 0.88389 0.09556 0.47723 0.0
C796 C 0.78519 0.18359 0.44234 0.0
C797 C 0.84583 0.12192 0.46616 0.0
N798 N 0.76011 0.20439 0.48896 0.0
N799 N 0.84421 0.09307 0.42067 0.0
H800 H 0.89516 0.09417 0.49841 0.0
H801 H 0.90851 0.07689 0.46517 0.0
H802 H 0.83572 0.09281 0.3992 0.0
H803 H 0.85845 0.06789 0.42858 0.0
H804 H 0.73015 0.22472 0.48167 0.0
H805 H 0.7614 0.20248 0.5107 0.0
H806 H 0.75875 0.23948 0.44156 0.0
H807 H 0.76209 0.21923 0.40877 0.0
C808 C 0.78518 0.91654 0.97196 0.0
C809 C 0.80835 0.88397 0.98436 0.0
C810 C 0.81744 0.85605 0.93802 0.0
C811 C 0.79748 0.88931 0.92556 0.0
N812 N 0.7744 0.95334 0.9299 0.0
N813 N 0.85834 0.82544 0.97922 0.0
C814 C 0.78497 0.92022 0.94233 0.0
C815 C 0.82792 0.85447 0.96737 0.0
N816 N 0.76123 0.94343 0.98847 0.0
N817 N 0.82451 0.82565 0.9219 0.0
H818 H 0.867 0.82335 1.00062 0.0
H819 H 0.8798 0.80498 0.96769 0.0
H820 H 0.8184 0.82587 0.90028 0.0
H821 H 0.83188 0.79964 0.93012 0.0
H822 H 0.73743 0.96606 0.98064 0.0
H823 H 0.76058 0.94176 0.01022 0.0
H824 H 0.7718 0.97771 0.9409 0.0
H825 H 0.77369 0.95698 0.90827 0.0
C826 C 0.68317 0.64868 0.47153 0.0
C827 C 0.70395 0.61674 0.48561 0.0
C828 C 0.70384 0.58353 0.44124 0.0
C829 C 0.69363 0.61685 0.42683 0.0
N830 N 0.67323 0.68143 0.42746 0.0
N831 N 0.73962 0.55421 0.48374 0.0
C832 C 0.68244 0.64949 0.44178 0.0
C833 C 0.71478 0.58405 0.47052 0.0
N834 N 0.66353 0.67798 0.4867 0.0
N835 N 0.70358 0.55143 0.42685 0.0
H836 H 0.74955 0.55337 0.50505 0.0
H837 H 0.75533 0.53118 0.47325 0.0
H838 H 0.69692 0.55022 0.40529 0.0
H839 H 0.70405 0.52588 0.43652 0.0
H840 H 0.64257 0.70095 0.47791 0.0
H841 H 0.66329 0.67797 0.50851 0.0
H842 H 0.67236 0.70695 0.43688 0.0
H843 H 0.66937 0.68255 0.40574 0.0
C844 C 0.33588 0.67226 0.03309 0.0
C845 C 0.32449 0.63828 0.0198 0.0
C846 C 0.30163 0.6093 0.06511 0.0
C847 C 0.31295 0.64329 0.0784 0.0
N848 N 0.34649 0.70622 0.07629 0.0
N849 N 0.30262 0.57379 0.02234 0.0
C850 C 0.33188 0.67451 0.06272 0.0
C851 C 0.30919 0.60656 0.03562 0.0
N852 N 0.34934 0.7025 0.01718 0.0
N853 N 0.28276 0.57987 0.08081 0.0
H854 H 0.30483 0.57114 1.00068 0.0
H855 H 0.29774 0.54878 0.03251 0.0
H856 H 0.28077 0.58025 0.10258 0.0
H857 H 0.26695 0.55531 0.07256 0.0
H858 H 0.35107 0.72899 0.02482 0.0
H859 H 0.3565 0.70156 0.99565 0.0
H860 H 0.36747 0.7288 0.06682 0.0
H861 H 0.34044 0.70969 0.09771 0.0
C862 C 0.19805 0.89194 0.54252 0.0
C863 C 0.17891 0.86791 0.52102 0.0
C864 C 0.12869 0.82819 0.55583 0.0
C865 C 0.15951 0.84787 0.57726 0.0
N866 N 0.22478 0.89857 0.5914 0.0
N867 N 0.12673 0.81245 0.50677 0.0
C868 C 0.19349 0.88028 0.57082 0.0
C869 C 0.14326 0.83615 0.52747 0.0
N870 N 0.22081 0.9258 0.53575 0.0
N871 N 0.086 0.8017 0.56279 0.0
H872 H 0.1362 0.81741 0.48571 0.0
H873 H 0.10728 0.78677 0.51061 0.0
H874 H 0.07441 0.79568 0.58352 0.0
H875 H 0.05788 0.78838 0.54823 0.0
H876 H 0.23024 0.94589 0.55048 0.0
H877 H 0.22442 0.93499 0.51512 0.0
H878 H 0.25648 0.91971 0.58746 0.0
H879 H 0.22212 0.8912 0.61243 0.0
C880 C 0.14689 0.26845 0.31007 0.0
C881 C 0.17836 0.25305 0.33337 0.0
C882 C 0.1385 0.19261 0.32085 0.0
C883 C 0.09928 0.20867 0.30018 0.0
N884 N 0.061 0.26344 0.27743 0.0
N885 N 0.19746 0.20131 0.36352 0.0
C886 C 0.10222 0.24705 0.29534 0.0
C887 C 0.17203 0.21537 0.33958 0.0
N888 N 0.16111 0.30316 0.30143 0.0
N889 N 0.14758 0.15576 0.32137 0.0
H890 H 0.22278 0.21713 0.37769 0.0
H891 H 0.1886 0.17476 0.37047 0.0
H892 H 0.12789 0.13843 0.30664 0.0
H893 H 0.18054 0.14301 0.33418 0.0
H894 H 0.14543 0.31418 0.28257 0.0
H895 H 0.19327 0.31985 0.31178 0.0
H896 H 0.05656 0.29165 0.27545 0.0
H897 H 0.02731 0.24908 0.26626 0.0
C898 C 0.36925 0.2626 0.83956 0.0
C899 C 0.37163 0.22591 0.83061 0.0
C900 C 0.42307 0.24547 0.78705 0.0
C901 C 0.42534 0.28181 0.7972 0.0
N902 N 0.41759 0.32211 0.83655 0.0
N903 N 0.40826 0.18113 0.79776 0.0
C904 C 0.40266 0.28971 0.82433 0.0
C905 C 0.40031 0.21695 0.80477 0.0
N906 N 0.33487 0.2716 0.8626 0.0
N907 N 0.44236 0.23824 0.76046 0.0
H908 H 0.39157 0.15951 0.80999 0.0
H909 H 0.43525 0.17263 0.78089 0.0
H910 H 0.46223 0.25802 0.74745 0.0
H911 H 0.43522 0.21329 0.75064 0.0
H912 H 0.32642 0.2985 0.86841 0.0
H913 H 0.3099 0.25232 0.87435 0.0
H914 H 0.40755 0.32809 0.85732 0.0
H915 H 0.44692 0.34112 0.82691 0.0
C916 C 0.65407 0.22774 0.69947 0.0
C917 C 0.67269 0.23825 0.67216 0.0
C918 C 0.60312 0.2913 0.67434 0.0
C919 C 0.59257 0.28438 0.70337 0.0
N920 N 0.60709 0.24463 0.74348 0.0
N921 N 0.67227 0.28267 0.63483 0.0
C922 C 0.61788 0.25218 0.71589 0.0
C923 C 0.6488 0.27055 0.65984 0.0
N924 N 0.66917 0.19375 0.70931 0.0
N925 N 0.56974 0.3173 0.66018 0.0
H926 H 0.70596 0.26847 0.62346 0.0
H927 H 0.66269 0.30845 0.62659 0.0
H928 H 0.53824 0.33516 0.66932 0.0
H929 H 0.57012 0.31956 0.63847 0.0
H930 H 0.65146 0.18267 0.72779 0.0
H931 H 0.69517 0.17508 0.69774 0.0
H932 H 0.63179 0.22502 0.75478 0.0
H933 H 0.57493 0.25882 0.75555 0.0
C934 C 0.8673 0.23379 0.16333 0.0
C935 C 0.87369 0.27117 0.17013 0.0
C936 C 0.91078 0.25499 0.21703 0.0
C937 C 0.91158 0.21741 0.20925 0.0
N938 N 0.86741 0.171 0.17967 0.0
N939 N 0.90938 0.31801 0.20157 0.0
C940 C 0.88356 0.20677 0.18356 0.0
C941 C 0.8976 0.2819 0.19643 0.0
N942 N 0.84779 0.22421 0.13716 0.0
N943 N 0.91716 0.26535 0.24428 0.0
H944 H 0.89771 0.33896 0.18769 0.0
H945 H 0.93568 0.32701 0.21856 0.0
H946 H 0.91908 0.24752 0.26112 0.0
H947 H 0.91101 0.29206 0.25101 0.0
H948 H 0.84918 0.19767 0.12958 0.0
H949 H 0.83419 0.24335 0.12213 0.0
H950 H 0.84209 0.16148 0.16261 0.0
H951 H 0.87282 0.15127 0.19527 0.0
C952 C 0.85878 0.73188 0.7059 0.0
C953 C 0.86806 0.73225 0.67656 0.0
C954 C 0.92173 0.79146 0.68022 0.0
C955 C 0.91887 0.78888 0.70981 0.0
N956 N 0.89824 0.75186 0.75062 0.0
N957 N 0.91846 0.75931 0.63619 0.0
C958 C 0.89085 0.75783 0.72265 0.0
C959 C 0.90211 0.76129 0.66376 0.0
N960 N 0.81872 0.70699 0.71775 0.0
N961 N 0.94224 0.82291 0.66773 0.0
H962 H 0.90546 0.73765 0.62338 0.0
H963 H 0.94954 0.77754 0.62662 0.0
H964 H 0.95742 0.84535 0.67905 0.0
H965 H 0.93898 0.82786 0.64633 0.0
H966 H 0.80543 0.70786 0.73869 0.0
H967 H 0.79405 0.68774 0.70604 0.0
H968 H 0.88383 0.72793 0.76067 0.0
H969 H 0.92505 0.76906 0.76315 0.0
C970 C 0.67006 0.76162 0.20359 0.0
C971 C 0.66107 0.76226 0.17425 0.0
C972 C 0.58588 0.71155 0.17845 0.0
C973 C 0.59163 0.71261 0.20803 0.0
N974 N 0.6256 0.7461 0.24847 0.0
N975 N 0.60095 0.7432 0.13425 0.0
C976 C 0.62985 0.73981 0.22052 0.0
C977 C 0.61596 0.73886 0.16182 0.0
N978 N 0.71853 0.78073 0.21532 0.0
N979 N 0.55413 0.68358 0.16607 0.0
H980 H 0.62206 0.76294 0.12149 0.0
H981 H 0.56373 0.72958 0.1247 0.0
H982 H 0.53198 0.66309 0.17749 0.0
H983 H 0.55432 0.67898 0.14462 0.0
H984 H 0.73135 0.77782 0.23623 0.0
H985 H 0.7495 0.79693 0.20371 0.0
H986 H 0.64706 0.76824 0.25822 0.0
H987 H 0.59515 0.7314 0.2613 0.0
C988 C 0.42548 0.77806 0.31721 0.0
C989 C 0.37137 0.77088 0.3337 0.0
C990 C 0.37192 0.70736 0.31814 0.0
C991 C 0.42135 0.71586 0.29925 0.0
N992 N 0.48125 0.76233 0.27515 0.0
N993 N 0.2848 0.73063 0.34513 0.0
C994 C 0.44426 0.75211 0.29715 0.0
C995 C 0.34194 0.73608 0.33275 0.0
N996 N 0.46016 0.80906 0.32121 0.0
N997 N 0.35569 0.67186 0.32327 0.0
H998 H 0.26096 0.75119 0.35568 0.0
H999 H 0.25855 0.7068 0.34259 0.0
H1000 H 0.37936 0.6501 0.31428 0.0
H1001 H 0.32365 0.66402 0.33866 0.0
H1002 H 0.50329 0.81362 0.31143 0.0
H1003 H 0.44931 0.82832 0.3364 0.0
H1004 H 0.49538 0.78923 0.27155 0.0
H1005 H 0.49073 0.74477 0.25866 0.0
C1006 C 0.12521 0.75953 0.84653 0.0
C1007 C 0.15638 0.73139 0.83201 0.0
C1008 C 0.10115 0.74865 0.78905 0.0
C1009 C 0.07857 0.78054 0.80239 0.0
N1010 N 0.0758 0.81852 0.84371 0.0
N1011 N 0.17821 0.70011 0.78898 0.0
C1012 C 0.09154 0.78638 0.83122 0.0
C1013 C 0.14517 0.72599 0.80315 0.0
N1014 N 0.12768 0.76051 0.87506 0.0
N1015 N 0.07916 0.73952 0.76319 0.0
H1016 H 0.20971 0.68242 0.79875 0.0
H1017 H 0.17764 0.69784 0.7673 0.0
H1018 H 0.04514 0.75479 0.75277 0.0
H1019 H 0.0895 0.71495 0.75342 0.0
H1020 H 0.10033 0.77801 0.88701 0.0
H1021 H 0.15246 0.7414 0.88692 0.0
H1022 H 0.09163 0.82593 0.86347 0.0
H1023 H 0.05151 0.83936 0.83373 0.0
loop_
_geom_bond_atom_site_label_1
_geom_bond_atom_site_label_2
_geom_bond_distance
_geom_bond_site_symmetry_2
_ccdc_geom_bond_type
P0 O11 1.490 . S
P0 C14 1.812 . S
P0 C20 1.803 . S
P0 C26 1.819 . S
H1 C15 0.941 . S
H2 C16 0.939 . S
H3 C18 0.940 . S
H4 C19 0.940 . S
H5 C21 0.939 . S
H6 C22 0.942 . S
H7 C24 0.940 . S
H8 C25 0.939 . S
H9 C27 0.941 . S
H10 C31 0.939 . S
O11 P0 1.490 . S
H12 C28 0.939 . S
H13 C30 0.940 . S
C14 P0 1.812 . S
C14 C15 1.389 . S
C14 C19 1.391 . S
C15 H1 0.941 . S
C15 C14 1.389 . S
C15 C16 1.397 . S
C16 H2 0.939 . S
C16 C15 1.397 . S
C16 C17 1.378 . S
C17 C16 1.378 . S
C17 C18 1.378 . S
C18 H3 0.940 . S
C18 C17 1.378 . S
C18 C19 1.396 . S
C19 H4 0.940 . S
C19 C14 1.391 . S
C19 C18 1.396 . S
C20 P0 1.803 . S
C20 C21 1.378 . S
C20 C25 1.400 . S
C21 H5 0.939 . S
C21 C20 1.378 . S
C21 C22 1.361 . S
C22 H6 0.942 . S
C22 C21 1.361 . S
C22 C23 1.369 . S
C23 C22 1.369 . S
C23 C24 1.404 . S
C24 H7 0.940 . S
C24 C23 1.404 . S
C24 C25 1.389 . S
C25 H8 0.939 . S
C25 C20 1.400 . S
C25 C24 1.389 . S
C26 P0 1.819 . S
C26 C27 1.391 . S
C26 C31 1.391 . S
C27 H9 0.941 . S
C27 C26 1.391 . S
C27 C28 1.396 . S
C28 H12 0.939 . S
C28 C27 1.396 . S
C28 C29 1.397 . S
C29 C28 1.397 . S
C29 C30 1.385 . S
C30 H13 0.940 . S
C30 C29 1.385 . S
C30 C31 1.388 . S
C31 H10 0.939 . S
C31 C26 1.391 . S
C31 C30 1.388 . S
P32 O43 1.490 . S
P32 C46 1.812 . S
P32 C52 1.803 . S
P32 C58 1.819 . S
H33 C47 0.941 . S
H34 C48 0.939 1_565 S
H35 C50 0.940 . S
H36 C51 0.940 . S
H37 C53 0.939 . S
H38 C54 0.942 . S
H39 C56 0.940 . S
H40 C57 0.939 . S
H41 C59 0.941 . S
H42 C63 0.939 . S
O43 P32 1.490 . S
H44 C60 0.939 . S
H45 C62 0.940 . S
C46 P32 1.812 . S
C46 C47 1.389 . S
C46 C51 1.391 . S
C47 H33 0.941 . S
C47 C46 1.389 . S
C47 C48 1.397 . S
C48 H34 0.939 1_545 S
C48 C47 1.397 . S
C48 C49 1.378 . S
C49 C48 1.378 . S
C49 C50 1.378 . S
C50 H35 0.940 . S
C50 C49 1.378 . S
C50 C51 1.396 . S
C51 H36 0.940 . S
C51 C46 1.391 . S
C51 C50 1.396 . S
C52 P32 1.803 . S
C52 C53 1.378 . S
C52 C57 1.400 . S
C53 H37 0.939 . S
C53 C52 1.378 . S
C53 C54 1.361 . S
C54 H38 0.942 . S
C54 C53 1.361 . S
C54 C55 1.369 . S
C55 C54 1.369 . S
C55 C56 1.404 . S
C56 H39 0.940 . S
C56 C55 1.404 . S
C56 C57 1.389 . S
C57 H40 0.939 . S
C57 C52 1.400 . S
C57 C56 1.389 . S
C58 P32 1.819 . S
C58 C59 1.391 . S
C58 C63 1.391 . S
C59 H41 0.941 . S
C59 C58 1.391 . S
C59 C60 1.396 . S
C60 H44 0.939 . S
C60 C59 1.396 . S
C60 C61 1.397 . S
C61 C60 1.397 . S
C61 C62 1.385 . S
C62 H45 0.940 . S
C62 C61 1.385 . S
C62 C63 1.388 . S
C63 H42 0.939 . S
C63 C58 1.391 . S
C63 C62 1.388 . S
P64 O75 1.490 . S
P64 C78 1.812 . S
P64 C84 1.803 . S
P64 C90 1.819 . S
H65 C79 0.941 . S
H66 C80 0.939 . S
H67 C82 0.940 . S
H68 C83 0.940 . S
H69 C85 0.939 . S
H70 C86 0.942 . S
H71 C88 0.940 . S
H72 C89 0.939 . S
H73 C91 0.941 . S
H74 C95 0.939 . S
O75 P64 1.490 . S
H76 C92 0.939 . S
H77 C94 0.940 . S
C78 P64 1.812 . S
C78 C79 1.389 . S
C78 C83 1.391 . S
C79 H65 0.941 . S
C79 C78 1.389 . S
C79 C80 1.397 . S
C80 H66 0.939 . S
C80 C79 1.397 . S
C80 C81 1.378 . S
C81 C80 1.378 . S
C81 C82 1.378 . S
C82 H67 0.940 . S
C82 C81 1.378 . S
C82 C83 1.396 . S
C83 H68 0.940 . S
C83 C78 1.391 . S
C83 C82 1.396 . S
C84 P64 1.803 . S
C84 C85 1.378 . S
C84 C89 1.400 . S
C85 H69 0.939 . S
C85 C84 1.378 . S
C85 C86 1.361 . S
C86 H70 0.942 . S
C86 C85 1.361 . S
C86 C87 1.369 . S
C87 C86 1.369 . S
C87 C88 1.404 . S
C88 H71 0.940 . S
C88 C87 1.404 . S
C88 C89 1.389 . S
C89 H72 0.939 . S
C89 C84 1.400 . S
C89 C88 1.389 . S
C90 P64 1.819 . S
C90 C91 1.391 . S
C90 C95 1.391 . S
C91 H73 0.941 . S
C91 C90 1.391 . S
C91 C92 1.396 . S
C92 H76 0.939 . S
C92 C91 1.396 . S
C92 C93 1.397 . S
C93 C92 1.397 . S
C93 C94 1.385 . S
C94 H77 0.940 . S
C94 C93 1.385 . S
C94 C95 1.388 . S
C95 H74 0.939 . S
C95 C90 1.391 . S
C95 C94 1.388 . S
P96 O107 1.490 . S
P96 C110 1.812 . S
P96 C116 1.803 . S
P96 C122 1.819 . S
H97 C111 0.941 . S
H98 C112 0.939 . S
H99 C114 0.940 . S
H100 C115 0.940 . S
H101 C117 0.939 . S
H102 C118 0.942 . S
H103 C120 0.940 . S
H104 C121 0.939 . S
H105 C123 0.941 . S
H106 C127 0.939 . S
O107 P96 1.490 . S
H108 C124 0.939 . S
H109 C126 0.940 . S
C110 P96 1.812 . S
C110 C111 1.389 . S
C110 C115 1.391 . S
C111 H97 0.941 . S
C111 C110 1.389 . S
C111 C112 1.397 . S
C112 H98 0.939 . S
C112 C111 1.397 . S
C112 C113 1.378 . S
C113 C112 1.378 . S
C113 C114 1.378 . S
C114 H99 0.940 . S
C114 C113 1.378 . S
C114 C115 1.396 . S
C115 H100 0.940 . S
C115 C110 1.391 . S
C115 C114 1.396 . S
C116 P96 1.803 . S
C116 C117 1.378 . S
C116 C121 1.400 . S
C117 H101 0.939 . S
C117 C116 1.378 . S
C117 C118 1.361 . S
C118 H102 0.942 . S
C118 C117 1.361 . S
C118 C119 1.369 . S
C119 C118 1.369 . S
C119 C120 1.404 . S
C120 H103 0.940 . S
C120 C119 1.404 . S
C120 C121 1.389 . S
C121 H104 0.939 . S
C121 C116 1.400 . S
C121 C120 1.389 . S
C122 P96 1.819 . S
C122 C123 1.391 . S
C122 C127 1.391 . S
C123 H105 0.941 . S
C123 C122 1.391 . S
C123 C124 1.396 . S
C124 H108 0.939 . S
C124 C123 1.396 . S
C124 C125 1.397 . S
C125 C124 1.397 . S
C125 C126 1.385 . S
C126 H109 0.940 . S
C126 C125 1.385 . S
C126 C127 1.388 . S
C127 H106 0.939 . S
C127 C122 1.391 . S
C127 C126 1.388 . S
P128 O139 1.490 . S
P128 C142 1.812 . S
P128 C148 1.803 . S
P128 C154 1.819 . S
H129 C143 0.941 . S
H130 C144 0.939 . S
H131 C146 0.940 . S
H132 C147 0.940 . S
H133 C149 0.939 . S
H134 C150 0.942 . S
H135 C152 0.940 . S
H136 C153 0.939 . S
H137 C155 0.941 . S
H138 C159 0.939 . S
O139 P128 1.490 . S
H140 C156 0.939 . S
H141 C158 0.940 . S
C142 P128 1.812 . S
C142 C143 1.389 . S
C142 C147 1.391 . S
C143 H129 0.941 . S
C143 C142 1.389 . S
C143 C144 1.397 . S
C144 H130 0.939 . S
C144 C143 1.397 . S
C144 C145 1.378 . S
C145 C144 1.378 . S
C145 C146 1.378 . S
C146 H131 0.940 . S
C146 C145 1.378 . S
C146 C147 1.396 . S
C147 H132 0.940 . S
C147 C142 1.391 . S
C147 C146 1.396 . S
C148 P128 1.803 . S
C148 C149 1.378 . S
C148 C153 1.400 . S
C149 H133 0.939 . S
C149 C148 1.378 . S
C149 C150 1.361 . S
C150 H134 0.942 . S
C150 C149 1.361 . S
C150 C151 1.369 . S
C151 C150 1.369 . S
C151 C152 1.404 . S
C152 H135 0.940 . S
C152 C151 1.404 . S
C152 C153 1.389 . S
C153 H136 0.939 . S
C153 C148 1.400 . S
C153 C152 1.389 . S
C154 P128 1.819 . S
C154 C155 1.391 . S
C154 C159 1.391 . S
C155 H137 0.941 . S
C155 C154 1.391 . S
C155 C156 1.396 . S
C156 H140 0.939 . S
C156 C155 1.396 . S
C156 C157 1.397 . S
C157 C156 1.397 . S
C157 C158 1.385 . S
C158 H141 0.940 . S
C158 C157 1.385 . S
C158 C159 1.388 . S
C159 H138 0.939 . S
C159 C154 1.391 . S
C159 C158 1.388 . S
P160 O171 1.490 . S
P160 C174 1.812 . S
P160 C180 1.803 . S
P160 C186 1.819 . S
H161 C175 0.941 . S
H162 C176 0.939 . S
H163 C178 0.940 . S
H164 C179 0.940 . S
H165 C181 0.939 . S
H166 C182 0.942 . S
H167 C184 0.940 . S
H168 C185 0.939 . S
H169 C187 0.941 . S
H170 C191 0.939 . S
O171 P160 1.490 . S
H172 C188 0.939 . S
H173 C190 0.940 . S
C174 P160 1.812 . S
C174 C175 1.389 . S
C174 C179 1.391 . S
C175 H161 0.941 . S
C175 C174 1.389 . S
C175 C176 1.397 . S
C176 H162 0.939 . S
C176 C175 1.397 . S
C176 C177 1.378 . S
C177 C176 1.378 . S
C177 C178 1.378 . S
C178 H163 0.940 . S
C178 C177 1.378 . S
C178 C179 1.396 . S
C179 H164 0.940 . S
C179 C174 1.391 . S
C179 C178 1.396 . S
C180 P160 1.803 . S
C180 C181 1.378 . S
C180 C185 1.400 . S
C181 H165 0.939 . S
C181 C180 1.378 . S
C181 C182 1.361 . S
C182 H166 0.942 . S
C182 C181 1.361 . S
C182 C183 1.369 . S
C183 C182 1.369 . S
C183 C184 1.404 . S
C184 H167 0.940 . S
C184 C183 1.404 . S
C184 C185 1.389 . S
C185 H168 0.939 . S
C185 C180 1.400 . S
C185 C184 1.389 . S
C186 P160 1.819 . S
C186 C187 1.391 . S
C186 C191 1.391 . S
C187 H169 0.941 . S
C187 C186 1.391 . S
C187 C188 1.396 . S
C188 H172 0.939 . S
C188 C187 1.396 . S
C188 C189 1.397 . S
C189 C188 1.397 . S
C189 C190 1.385 . S
C190 H173 0.940 . S
C190 C189 1.385 . S
C190 C191 1.388 . S
C191 H170 0.939 . S
C191 C186 1.391 . S
C191 C190 1.388 . S
P192 O203 1.490 . S
P192 C206 1.812 . S
P192 C212 1.803 . S
P192 C218 1.819 . S
H193 C207 0.941 . S
H194 C208 0.939 . S
H195 C210 0.940 . S
H196 C211 0.940 . S
H197 C213 0.939 . S
H198 C214 0.942 . S
H199 C216 0.940 . S
H200 C217 0.939 . S
H201 C219 0.941 . S
H202 C223 0.939 . S
O203 P192 1.490 . S
H204 C220 0.939 1_545 S
H205 C222 0.940 . S
C206 P192 1.812 . S
C206 C207 1.389 . S
C206 C211 1.391 . S
C207 H193 0.941 . S
C207 C206 1.389 . S
C207 C208 1.397 . S
C208 H194 0.939 . S
C208 C207 1.397 . S
C208 C209 1.378 . S
C209 C208 1.378 . S
C209 C210 1.378 . S
C210 H195 0.940 . S
C210 C209 1.378 . S
C210 C211 1.396 . S
C211 H196 0.940 . S
C211 C206 1.391 . S
C211 C210 1.396 . S
C212 P192 1.803 . S
C212 C213 1.378 . S
C212 C217 1.400 . S
C213 H197 0.939 . S
C213 C212 1.378 . S
C213 C214 1.361 . S
C214 H198 0.942 . S
C214 C213 1.361 . S
C214 C215 1.369 . S
C215 C214 1.369 . S
C215 C216 1.404 . S
C216 H199 0.940 . S
C216 C215 1.404 . S
C216 C217 1.389 . S
C217 H200 0.939 . S
C217 C212 1.400 . S
C217 C216 1.389 . S
C218 P192 1.819 . S
C218 C219 1.391 . S
C218 C223 1.391 . S
C219 H201 0.941 . S
C219 C218 1.391 . S
C219 C220 1.396 . S
C220 H204 0.939 1_565 S
C220 C219 1.396 . S
C220 C221 1.397 . S
C221 C220 1.397 . S
C221 C222 1.385 . S
C222 H205 0.940 . S
C222 C221 1.385 . S
C222 C223 1.388 . S
C223 H202 0.939 . S
C223 C218 1.391 . S
C223 C222 1.388 . S
P224 O235 1.490 . S
P224 C238 1.812 . S
P224 C244 1.803 . S
P224 C250 1.819 . S
H225 C239 0.941 . S
H226 C240 0.939 . S
H227 C242 0.940 . S
H228 C243 0.940 . S
H229 C245 0.939 . S
H230 C246 0.942 . S
H231 C248 0.940 . S
H232 C249 0.939 . S
H233 C251 0.941 . S
H234 C255 0.939 . S
O235 P224 1.490 . S
H236 C252 0.939 . S
H237 C254 0.940 . S
C238 P224 1.812 . S
C238 C239 1.389 . S
C238 C243 1.391 . S
C239 H225 0.941 . S
C239 C238 1.389 . S
C239 C240 1.397 . S
C240 H226 0.939 . S
C240 C239 1.397 . S
C240 C241 1.378 . S
C241 C240 1.378 . S
C241 C242 1.378 . S
C242 H227 0.940 . S
C242 C241 1.378 . S
C242 C243 1.396 . S
C243 H228 0.940 . S
C243 C238 1.391 . S
C243 C242 1.396 . S
C244 P224 1.803 . S
C244 C245 1.378 . S
C244 C249 1.400 . S
C245 H229 0.939 . S
C245 C244 1.378 . S
C245 C246 1.361 . S
C246 H230 0.942 . S
C246 C245 1.361 . S
C246 C247 1.369 . S
C247 C246 1.369 . S
C247 C248 1.404 . S
C248 H231 0.940 . S
C248 C247 1.404 . S
C248 C249 1.389 . S
C249 H232 0.939 . S
C249 C244 1.400 . S
C249 C248 1.389 . S
C250 P224 1.819 . S
C250 C251 1.391 . S
C250 C255 1.391 . S
C251 H233 0.941 . S
C251 C250 1.391 . S
C251 C252 1.396 . S
C252 H236 0.939 . S
C252 C251 1.396 . S
C252 C253 1.397 . S
C253 C252 1.397 . S
C253 C254 1.385 . S
C254 H237 0.940 . S
C254 C253 1.385 . S
C254 C255 1.388 . S
C255 H234 0.939 . S
C255 C250 1.391 . S
C255 C254 1.388 . S
C256 C258 1.422 . S
C256 C260 1.415 . S
C256 N262 1.369 . S
C257 C258 1.421 . S
C257 C259 1.417 . S
C257 C269 1.422 . S
C258 C256 1.422 . S
C258 C257 1.421 . S
C258 N268 1.359 . S
C259 C257 1.417 . S
C259 C261 1.329 . S
C259 H278 0.930 . S
C260 C256 1.415 . S
C260 C261 1.437 . S
C260 C264 1.413 . S
C261 C259 1.329 . S
C261 C260 1.437 . S
C261 H283 0.929 . S
N262 C256 1.369 . S
N262 C263 1.338 . S
N262 Gd267 2.622 . S
C263 N262 1.338 . S
C263 C265 1.378 . S
C263 H275 0.929 . S
C264 C260 1.413 . S
C264 C265 1.348 . S
C264 H280 0.931 . S
C265 C263 1.378 . S
C265 C264 1.348 . S
C265 H281 0.930 . S
Gd266 N286 2.622 . S
Gd266 N293 2.570 . S
Gd266 O300 2.353 . S
Gd266 O301 2.468 . S
Gd266 O302 2.427 . S
Gd266 O304 2.388 . S
Gd266 O305 2.386 . S
Gd266 O309 2.307 . S
Gd266 C319 2.805 . S
Gd267 N262 2.622 . S
Gd267 N268 2.570 . S
Gd267 O299 2.386 . S
Gd267 O303 2.307 1_655 S
Gd267 O306 2.353 1_655 S
Gd267 O307 2.468 . S
Gd267 O308 2.427 . S
Gd267 O310 2.388 . S
Gd267 C331 2.805 . S
N268 C258 1.359 . S
N268 Gd267 2.570 . S
N268 C270 1.343 . S
C269 C257 1.422 . S
C269 C271 1.321 . S
C269 H277 0.931 1_545 S
C270 N268 1.343 . S
C270 C271 1.390 . S
C270 H272 0.931 . S
C271 C269 1.321 . S
C271 C270 1.390 . S
C271 H273 0.930 1_545 S
H272 C270 0.931 . S
H273 C271 0.930 1_565 S
H274 C297 0.931 . S
H275 C263 0.929 . S
H276 C298 0.930 . S
H277 C269 0.931 1_565 S
H278 C259 0.930 . S
H279 C288 0.929 . S
H280 C264 0.931 . S
H281 C265 0.930 . S
H282 C320 0.930 . S
H283 C261 0.929 . S
H284 C289 0.931 . S
H285 C290 0.930 . S
N286 Gd266 2.622 . S
N286 C287 1.369 . S
N286 C288 1.338 . S
C287 N286 1.369 . S
C287 C291 1.415 . S
C287 C294 1.422 . S
C288 H279 0.929 . S
C288 N286 1.338 . S
C288 C290 1.378 . S
C289 H284 0.931 . S
C289 C290 1.348 . S
C289 C291 1.413 . S
C290 H285 0.930 . S
C290 C288 1.378 . S
C290 C289 1.348 . S
C291 C287 1.415 . S
C291 C289 1.413 . S
C291 C321 1.437 . S
H292 C321 0.929 . S
N293 Gd266 2.570 . S
N293 C294 1.359 . S
N293 C297 1.343 . S
C294 C287 1.422 . S
C294 N293 1.359 . S
C294 C296 1.421 . S
C295 C296 1.422 . S
C295 C298 1.321 . S
C295 H322 0.931 . S
C296 C294 1.421 . S
C296 C295 1.422 . S
C296 C320 1.417 . S
C297 H274 0.931 . S
C297 N293 1.343 . S
C297 C298 1.390 . S
C298 H276 0.930 . S
C298 C295 1.321 . S
C298 C297 1.390 . S
O299 Gd267 2.386 . S
O299 C311 1.265 . S
O300 Gd266 2.353 . S
O300 C311 1.242 1_455 S
O301 Gd266 2.468 . S
O301 C319 1.263 . S
O302 Gd266 2.427 . S
O302 C319 1.252 . S
O303 Gd267 2.307 1_455 S
O303 C312 1.261 . S
O304 Gd266 2.388 . S
O304 C312 1.252 . S
O305 Gd266 2.386 . S
O305 C323 1.265 . S
O306 Gd267 2.353 1_455 S
O306 C323 1.242 . S
O307 Gd267 2.468 . S
O307 C331 1.263 . S
O308 Gd267 2.427 . S
O308 C331 1.252 . S
O309 Gd266 2.307 . S
O309 C324 1.261 1_455 S
O310 Gd267 2.388 . S
O310 C324 1.252 . S
C311 O299 1.265 . S
C311 O300 1.242 1_655 S
C312 O303 1.261 . S
C312 O304 1.252 . S
C313 C316 1.394 . S
C313 C318 1.370 . S
C313 C319 1.500 . S
C314 C317 1.383 . S
C314 C318 1.395 . S
C315 C316 1.396 . S
C315 C317 1.365 . S
C315 H332 0.929 . S
C316 C313 1.394 . S
C316 C315 1.396 . S
C316 H333 0.930 . S
C317 C314 1.383 . S
C317 C315 1.365 . S
C317 H334 0.931 . S
C318 C313 1.370 . S
C318 C314 1.395 . S
C318 H335 0.930 . S
C319 Gd266 2.805 . S
C319 O301 1.263 . S
C319 O302 1.252 . S
C319 C313 1.500 . S
C320 H282 0.930 . S
C320 C296 1.417 . S
C320 C321 1.329 . S
C321 C291 1.437 . S
C321 H292 0.929 . S
C321 C320 1.329 . S
H322 C295 0.931 . S
C323 O305 1.265 . S
C323 O306 1.242 . S
C324 O309 1.261 1_655 S
C324 O310 1.252 . S
C325 C328 1.394 . S
C325 C330 1.370 . S
C325 C331 1.500 . S
C326 C329 1.383 . S
C326 C330 1.395 . S
C327 C328 1.396 . S
C327 C329 1.365 . S
C327 H336 0.929 . S
C328 C325 1.394 . S
C328 C327 1.396 . S
C328 H337 0.930 . S
C329 C326 1.383 . S
C329 C327 1.365 . S
C329 H338 0.931 . S
C330 C325 1.370 . S
C330 C326 1.395 . S
C330 H339 0.930 . S
C331 Gd267 2.805 . S
C331 O307 1.263 . S
C331 O308 1.252 . S
C331 C325 1.500 . S
H332 C315 0.929 . S
H333 C316 0.930 . S
H334 C317 0.931 . S
H335 C318 0.930 . S
H336 C327 0.929 . S
H337 C328 0.930 . S
H338 C329 0.931 . S
H339 C330 0.930 . S
C340 C342 1.422 . S
C340 C344 1.415 . S
C340 N346 1.369 . S
C341 C342 1.421 . S
C341 C343 1.417 . S
C341 C353 1.422 . S
C342 C340 1.422 . S
C342 C341 1.421 . S
C342 N352 1.359 . S
C343 C341 1.417 . S
C343 C345 1.329 . S
C343 H362 0.930 . S
C344 C340 1.415 . S
C344 C345 1.437 . S
C344 C348 1.413 . S
C345 C343 1.329 . S
C345 C344 1.437 . S
C345 H367 0.929 . S
N346 C340 1.369 . S
N346 C347 1.338 . S
N346 Gd351 2.622 . S
C347 N346 1.338 . S
C347 C349 1.378 . S
C347 H359 0.929 . S
C348 C344 1.413 . S
C348 C349 1.348 . S
C348 H364 0.931 . S
C349 C347 1.378 . S
C349 C348 1.348 . S
C349 H365 0.930 . S
Gd350 N370 2.622 . S
Gd350 N377 2.570 . S
Gd350 O384 2.353 . S
Gd350 O385 2.468 . S
Gd350 O386 2.427 . S
Gd350 O388 2.388 . S
Gd350 O389 2.386 . S
Gd350 O393 2.307 . S
Gd350 C403 2.805 . S
Gd351 N346 2.622 . S
Gd351 N352 2.570 . S
Gd351 O383 2.386 . S
Gd351 O387 2.307 . S
Gd351 O390 2.353 . S
Gd351 O391 2.468 . S
Gd351 O392 2.427 . S
Gd351 O394 2.388 . S
Gd351 C415 2.805 . S
N352 C342 1.359 . S
N352 Gd351 2.570 . S
N352 C354 1.343 . S
C353 C341 1.422 . S
C353 C355 1.321 . S
C353 H361 0.931 . S
C354 N352 1.343 . S
C354 C355 1.390 . S
C354 H356 0.931 . S
C355 C353 1.321 . S
C355 C354 1.390 . S
C355 H357 0.930 . S
H356 C354 0.931 . S
H357 C355 0.930 . S
H358 C381 0.931 . S
H359 C347 0.929 . S
H360 C382 0.930 . S
H361 C353 0.931 . S
H362 C343 0.930 . S
H363 C372 0.929 . S
H364 C348 0.931 . S
H365 C349 0.930 . S
H366 C404 0.930 . S
H367 C345 0.929 . S
H368 C373 0.931 . S
H369 C374 0.930 . S
N370 Gd350 2.622 . S
N370 C371 1.369 . S
N370 C372 1.338 . S
C371 N370 1.369 . S
C371 C375 1.415 . S
C371 C378 1.422 . S
C372 H363 0.929 . S
C372 N370 1.338 . S
C372 C374 1.378 . S
C373 H368 0.931 . S
C373 C374 1.348 . S
C373 C375 1.413 . S
C374 H369 0.930 . S
C374 C372 1.378 . S
C374 C373 1.348 . S
C375 C371 1.415 . S
C375 C373 1.413 . S
C375 C405 1.437 . S
H376 C405 0.929 . S
N377 Gd350 2.570 . S
N377 C378 1.359 . S
N377 C381 1.343 . S
C378 C371 1.422 . S
C378 N377 1.359 . S
C378 C380 1.421 . S
C379 C380 1.422 . S
C379 C382 1.321 . S
C379 H406 0.931 . S
C380 C378 1.421 . S
C380 C379 1.422 . S
C380 C404 1.417 . S
C381 H358 0.931 . S
C381 N377 1.343 . S
C381 C382 1.390 . S
C382 H360 0.930 . S
C382 C379 1.321 . S
C382 C381 1.390 . S
O383 Gd351 2.386 . S
O383 C395 1.265 . S
O384 Gd350 2.353 . S
O384 C395 1.242 . S
O385 Gd350 2.468 . S
O385 C403 1.263 . S
O386 Gd350 2.427 . S
O386 C403 1.252 . S
O387 Gd351 2.307 . S
O387 C396 1.261 . S
O388 Gd350 2.388 . S
O388 C396 1.252 . S
O389 Gd350 2.386 . S
O389 C407 1.265 . S
O390 Gd351 2.353 . S
O390 C407 1.242 . S
O391 Gd351 2.468 . S
O391 C415 1.263 . S
O392 Gd351 2.427 . S
O392 C415 1.252 . S
O393 Gd350 2.307 . S
O393 C408 1.261 . S
O394 Gd351 2.388 . S
O394 C408 1.252 . S
C395 O383 1.265 . S
C395 O384 1.242 . S
C396 O387 1.261 . S
C396 O388 1.252 . S
C397 C400 1.394 . S
C397 C402 1.370 . S
C397 C403 1.500 . S
C398 C401 1.383 . S
C398 C402 1.395 . S
C399 C400 1.396 . S
C399 C401 1.365 . S
C399 H416 0.929 . S
C400 C397 1.394 . S
C400 C399 1.396 . S
C400 H417 0.930 . S
C401 C398 1.383 . S
C401 C399 1.365 . S
C401 H418 0.931 . S
C402 C397 1.370 . S
C402 C398 1.395 . S
C402 H419 0.930 . S
C403 Gd350 2.805 . S
C403 O385 1.263 . S
C403 O386 1.252 . S
C403 C397 1.500 . S
C404 H366 0.930 . S
C404 C380 1.417 . S
C404 C405 1.329 . S
C405 C375 1.437 . S
C405 H376 0.929 . S
C405 C404 1.329 . S
H406 C379 0.931 . S
C407 O389 1.265 . S
C407 O390 1.242 . S
C408 O393 1.261 . S
C408 O394 1.252 . S
C409 C412 1.394 . S
C409 C414 1.370 . S
C409 C415 1.500 . S
C410 C413 1.383 . S
C410 C414 1.395 . S
C411 C412 1.396 . S
C411 C413 1.365 . S
C411 H420 0.929 . S
C412 C409 1.394 . S
C412 C411 1.396 . S
C412 H421 0.930 . S
C413 C410 1.383 . S
C413 C411 1.365 . S
C413 H422 0.931 . S
C414 C409 1.370 . S
C414 C410 1.395 . S
C414 H423 0.930 . S
C415 Gd351 2.805 . S
C415 O391 1.263 . S
C415 O392 1.252 . S
C415 C409 1.500 . S
H416 C399 0.929 . S
H417 C400 0.930 . S
H418 C401 0.931 . S
H419 C402 0.930 . S
H420 C411 0.929 . S
H421 C412 0.930 . S
H422 C413 0.931 . S
H423 C414 0.930 . S
C424 C426 1.422 . S
C424 C428 1.415 . S
C424 N430 1.369 . S
C425 C426 1.421 . S
C425 C427 1.417 . S
C425 C437 1.422 . S
C426 C424 1.422 . S
C426 C425 1.421 . S
C426 N436 1.359 . S
C427 C425 1.417 . S
C427 C429 1.329 . S
C427 H446 0.930 . S
C428 C424 1.415 . S
C428 C429 1.437 . S
C428 C432 1.413 . S
C429 C427 1.329 . S
C429 C428 1.437 . S
C429 H451 0.929 . S
N430 C424 1.369 . S
N430 C431 1.338 . S
N430 Gd435 2.622 . S
C431 N430 1.338 . S
C431 C433 1.378 . S
C431 H443 0.929 . S
C432 C428 1.413 . S
C432 C433 1.348 . S
C432 H448 0.931 . S
C433 C431 1.378 . S
C433 C432 1.348 . S
C433 H449 0.930 . S
Gd434 N454 2.622 . S
Gd434 N461 2.570 . S
Gd434 O468 2.340 1_455 S
Gd434 O469 2.468 . S
Gd434 O470 2.427 . S
Gd434 O472 2.388 . S
Gd434 O473 2.386 . S
Gd434 O477 2.303 1_455 S
Gd434 C487 2.805 . S
Gd435 N430 2.622 . S
Gd435 N436 2.570 . S
Gd435 O467 2.386 . S
Gd435 O471 2.307 1_655 S
Gd435 O474 2.353 1_655 S
Gd435 O475 2.468 . S
Gd435 O476 2.427 . S
Gd435 O478 2.388 . S
Gd435 C499 2.805 . S
N436 C426 1.359 . S
N436 Gd435 2.570 . S
N436 C438 1.343 . S
C437 C425 1.422 . S
C437 C439 1.321 . S
C437 H445 0.931 . S
C438 N436 1.343 . S
C438 C439 1.390 . S
C438 H440 0.931 . S
C439 C437 1.321 . S
C439 C438 1.390 . S
C439 H441 0.930 . S
H440 C438 0.931 . S
H441 C439 0.930 . S
H442 C465 0.931 . S
H443 C431 0.929 . S
H444 C466 0.930 1_545 S
H445 C437 0.931 . S
H446 C427 0.930 . S
H447 C456 0.929 . S
H448 C432 0.931 . S
H449 C433 0.930 . S
H450 C488 0.930 . S
H451 C429 0.929 . S
H452 C457 0.931 . S
H453 C458 0.930 . S
N454 Gd434 2.622 . S
N454 C455 1.369 . S
N454 C456 1.338 . S
C455 N454 1.369 . S
C455 C459 1.415 . S
C455 C462 1.422 . S
C456 H447 0.929 . S
C456 N454 1.338 . S
C456 C458 1.378 . S
C457 H452 0.931 . S
C457 C458 1.348 . S
C457 C459 1.413 . S
C458 H453 0.930 . S
C458 C456 1.378 . S
C458 C457 1.348 . S
C459 C455 1.415 . S
C459 C457 1.413 . S
C459 C489 1.437 . S
H460 C489 0.929 . S
N461 Gd434 2.570 . S
N461 C462 1.359 . S
N461 C465 1.343 . S
C462 C455 1.422 . S
C462 N461 1.359 . S
C462 C464 1.421 . S
C463 C464 1.422 . S
C463 C466 1.321 . S
C463 H490 0.931 1_565 S
C464 C462 1.421 . S
C464 C463 1.422 . S
C464 C488 1.417 . S
C465 H442 0.931 . S
C465 N461 1.343 . S
C465 C466 1.390 . S
C466 H444 0.930 1_565 S
C466 C463 1.321 . S
C466 C465 1.390 . S
O467 Gd435 2.386 . S
O467 C479 1.265 . S
O468 Gd434 2.340 1_655 S
O468 C479 1.258 . S
O469 Gd434 2.468 . S
O469 C487 1.263 . S
O470 Gd434 2.427 . S
O470 C487 1.252 . S
O471 Gd435 2.307 1_455 S
O471 C480 1.261 . S
O472 Gd434 2.388 . S
O472 C480 1.252 . S
O473 Gd434 2.386 . S
O473 C491 1.265 . S
O474 Gd435 2.353 1_455 S
O474 C491 1.242 . S
O475 Gd435 2.468 . S
O475 C499 1.263 . S
O476 Gd435 2.427 . S
O476 C499 1.252 . S
O477 Gd434 2.303 1_655 S
O477 C492 1.266 . S
O478 Gd435 2.388 . S
O478 C492 1.252 . S
C479 O467 1.265 . S
C479 O468 1.258 . S
C480 O471 1.261 . S
C480 O472 1.252 . S
C481 C484 1.394 . S
C481 C486 1.370 . S
C481 C487 1.500 . S
C482 C485 1.383 . S
C482 C486 1.395 . S
C483 C484 1.396 . S
C483 C485 1.365 . S
C483 H500 0.929 . S
C484 C481 1.394 . S
C484 C483 1.396 . S
C484 H501 0.930 . S
C485 C482 1.383 . S
C485 C483 1.365 . S
C485 H502 0.931 . S
C486 C481 1.370 . S
C486 C482 1.395 . S
C486 H503 0.930 . S
C487 Gd434 2.805 . S
C487 O469 1.263 . S
C487 O470 1.252 . S
C487 C481 1.500 . S
C488 H450 0.930 . S
C488 C464 1.417 . S
C488 C489 1.329 . S
C489 C459 1.437 . S
C489 H460 0.929 . S
C489 C488 1.329 . S
H490 C463 0.931 1_545 S
C491 O473 1.265 . S
C491 O474 1.242 . S
C492 O477 1.266 . S
C492 O478 1.252 . S
C493 C496 1.394 . S
C493 C498 1.370 . S
C493 C499 1.500 . S
C494 C497 1.383 . S
C494 C498 1.395 . S
C495 C496 1.396 . S
C495 C497 1.365 . S
C495 H504 0.929 . S
C496 C493 1.394 . S
C496 C495 1.396 . S
C496 H505 0.930 . S
C497 C494 1.383 . S
C497 C495 1.365 . S
C497 H506 0.931 . S
C498 C493 1.370 . S
C498 C494 1.395 . S
C498 H507 0.930 . S
C499 Gd435 2.805 . S
C499 O475 1.263 . S
C499 O476 1.252 . S
C499 C493 1.500 . S
H500 C483 0.929 . S
H501 C484 0.930 . S
H502 C485 0.931 . S
H503 C486 0.930 . S
H504 C495 0.929 . S
H505 C496 0.930 . S
H506 C497 0.931 . S
H507 C498 0.930 . S
C508 C510 1.422 . S
C508 C512 1.415 . S
C508 N514 1.369 . S
C509 C510 1.421 . S
C509 C511 1.417 . S
C509 C521 1.422 . S
C510 C508 1.422 . S
C510 C509 1.421 . S
C510 N520 1.359 . S
C511 C509 1.417 . S
C511 C513 1.329 . S
C511 H530 0.930 . S
C512 C508 1.415 . S
C512 C513 1.437 . S
C512 C516 1.413 . S
C513 C511 1.329 . S
C513 C512 1.437 . S
C513 H535 0.929 . S
N514 C508 1.369 . S
N514 C515 1.338 . S
N514 Gd519 2.622 . S
C515 N514 1.338 . S
C515 C517 1.378 . S
C515 H527 0.929 . S
C516 C512 1.413 . S
C516 C517 1.348 . S
C516 H532 0.931 . S
C517 C515 1.378 . S
C517 C516 1.348 . S
C517 H533 0.930 . S
Gd518 N538 2.622 . S
Gd518 N545 2.570 . S
Gd518 O552 2.353 . S
Gd518 O553 2.468 . S
Gd518 O554 2.427 . S
Gd518 O556 2.388 . S
Gd518 O557 2.386 . S
Gd518 O561 2.307 . S
Gd518 C571 2.805 . S
Gd519 N514 2.622 . S
Gd519 N520 2.570 . S
Gd519 O551 2.386 . S
Gd519 O555 2.307 . S
Gd519 O558 2.353 . S
Gd519 O559 2.468 . S
Gd519 O560 2.427 . S
Gd519 O562 2.388 . S
Gd519 C583 2.805 . S
N520 C510 1.359 . S
N520 Gd519 2.570 . S
N520 C522 1.343 . S
C521 C509 1.422 . S
C521 C523 1.321 . S
C521 H529 0.931 . S
C522 N520 1.343 . S
C522 C523 1.390 . S
C522 H524 0.931 . S
C523 C521 1.321 . S
C523 C522 1.390 . S
C523 H525 0.930 . S
H524 C522 0.931 . S
H525 C523 0.930 . S
H526 C549 0.931 . S
H527 C515 0.929 . S
H528 C550 0.930 . S
H529 C521 0.931 . S
H530 C511 0.930 . S
H531 C540 0.929 . S
H532 C516 0.931 . S
H533 C517 0.930 . S
H534 C572 0.930 . S
H535 C513 0.929 . S
H536 C541 0.931 . S
H537 C542 0.930 . S
N538 Gd518 2.622 . S
N538 C539 1.369 . S
N538 C540 1.338 . S
C539 N538 1.369 . S
C539 C543 1.415 . S
C539 C546 1.422 . S
C540 H531 0.929 . S
C540 N538 1.338 . S
C540 C542 1.378 . S
C541 H536 0.931 . S
C541 C542 1.348 . S
C541 C543 1.413 . S
C542 H537 0.930 . S
C542 C540 1.378 . S
C542 C541 1.348 . S
C543 C539 1.415 . S
C543 C541 1.413 . S
C543 C573 1.437 . S
H544 C573 0.929 . S
N545 Gd518 2.570 . S
N545 C546 1.359 . S
N545 C549 1.343 . S
C546 C539 1.422 . S
C546 N545 1.359 . S
C546 C548 1.421 . S
C547 C548 1.422 . S
C547 C550 1.321 . S
C547 H574 0.931 . S
C548 C546 1.421 . S
C548 C547 1.422 . S
C548 C572 1.417 . S
C549 H526 0.931 . S
C549 N545 1.343 . S
C549 C550 1.390 . S
C550 H528 0.930 . S
C550 C547 1.321 . S
C550 C549 1.390 . S
O551 Gd519 2.386 . S
O551 C563 1.265 . S
O552 Gd518 2.353 . S
O552 C563 1.242 . S
O553 Gd518 2.468 . S
O553 C571 1.263 . S
O554 Gd518 2.427 . S
O554 C571 1.252 . S
O555 Gd519 2.307 . S
O555 C564 1.261 . S
O556 Gd518 2.388 . S
O556 C564 1.252 . S
O557 Gd518 2.386 . S
O557 C575 1.265 . S
O558 Gd519 2.353 . S
O558 C575 1.242 . S
O559 Gd519 2.468 . S
O559 C583 1.263 . S
O560 Gd519 2.427 . S
O560 C583 1.252 . S
O561 Gd518 2.307 . S
O561 C576 1.261 . S
O562 Gd519 2.388 . S
O562 C576 1.252 . S
C563 O551 1.265 . S
C563 O552 1.242 . S
C564 O555 1.261 . S
C564 O556 1.252 . S
C565 C568 1.394 . S
C565 C570 1.370 . S
C565 C571 1.500 . S
C566 C569 1.383 . S
C566 C570 1.395 . S
C567 C568 1.396 . S
C567 C569 1.365 . S
C567 H584 0.929 . S
C568 C565 1.394 . S
C568 C567 1.396 . S
C568 H585 0.930 . S
C569 C566 1.383 . S
C569 C567 1.365 . S
C569 H586 0.931 . S
C570 C565 1.370 . S
C570 C566 1.395 . S
C570 H587 0.930 . S
C571 Gd518 2.805 . S
C571 O553 1.263 . S
C571 O554 1.252 . S
C571 C565 1.500 . S
C572 H534 0.930 . S
C572 C548 1.417 . S
C572 C573 1.329 . S
C573 C543 1.437 . S
C573 H544 0.929 . S
C573 C572 1.329 . S
H574 C547 0.931 . S
C575 O557 1.265 . S
C575 O558 1.242 . S
C576 O561 1.261 . S
C576 O562 1.252 . S
C577 C580 1.394 . S
C577 C582 1.370 . S
C577 C583 1.500 . S
C578 C581 1.383 . S
C578 C582 1.395 . S
C579 C580 1.396 . S
C579 C581 1.365 . S
C579 H588 0.929 . S
C580 C577 1.394 . S
C580 C579 1.396 . S
C580 H589 0.930 . S
C581 C578 1.383 . S
C581 C579 1.365 . S
C581 H590 0.931 . S
C582 C577 1.370 . S
C582 C578 1.395 . S
C582 H591 0.930 . S
C583 Gd519 2.805 . S
C583 O559 1.263 . S
C583 O560 1.252 . S
C583 C577 1.500 . S
H584 C567 0.929 . S
H585 C568 0.930 . S
H586 C569 0.931 . S
H587 C570 0.930 . S
H588 C579 0.929 . S
H589 C580 0.930 . S
H590 C581 0.931 . S
H591 C582 0.930 . S
C592 C593 1.364 . S
C592 C598 1.379 . S
C592 N600 1.356 1_545 S
C593 C592 1.364 . S
C593 C599 1.369 . S
C594 C595 1.363 . S
C594 C599 1.379 . S
C594 N601 1.356 . S
C595 C594 1.363 . S
C595 C598 1.363 . S
N596 C598 1.356 . S
N596 H608 0.984 . S
N596 H609 0.985 . S
N597 C599 1.356 . S
N597 H602 0.984 1_545 S
N597 H603 0.985 . S
C598 C592 1.379 . S
C598 C595 1.363 . S
C598 N596 1.356 . S
C599 C593 1.369 . S
C599 C594 1.379 . S
C599 N597 1.356 . S
N600 C592 1.356 1_565 S
N600 H606 0.984 . S
N600 H607 0.984 . S
N601 C594 1.356 . S
N601 H604 0.984 . S
N601 H605 0.985 . S
H602 N597 0.984 1_565 S
H603 N597 0.985 . S
H604 N601 0.984 . S
H605 N601 0.985 . S
H606 N600 0.984 . S
H607 N600 0.984 . S
H608 N596 0.984 . S
H609 N596 0.985 . S
C610 C611 1.363 . S
C610 C616 1.379 . S
C610 N618 1.356 . S
C611 C610 1.363 . S
C611 C617 1.363 . S
C612 C613 1.363 . S
C612 C617 1.379 . S
C612 N619 1.356 . S
C613 C612 1.363 . S
C613 C616 1.363 . S
N614 C616 1.356 . S
N614 H626 0.984 . S
N614 H627 0.985 . S
N615 C617 1.356 . S
N615 H620 0.984 . S
N615 H621 0.985 . S
C616 C610 1.379 . S
C616 C613 1.363 . S
C616 N614 1.356 . S
C617 C611 1.363 . S
C617 C612 1.379 . S
C617 N615 1.356 . S
N618 C610 1.356 . S
N618 H624 0.984 . S
N618 H625 0.984 . S
N619 C612 1.356 . S
N619 H622 0.984 . S
N619 H623 0.985 . S
H620 N615 0.984 . S
H621 N615 0.985 . S
H622 N619 0.984 . S
H623 N619 0.985 . S
H624 N618 0.984 . S
H625 N618 0.984 . S
H626 N614 0.984 . S
H627 N614 0.985 . S
C628 C629 1.363 . S
C628 C634 1.379 . S
C628 N636 1.356 . S
C629 C628 1.363 . S
C629 C635 1.363 . S
C630 C631 1.363 . S
C630 C635 1.379 . S
C630 N637 1.356 . S
C631 C630 1.363 . S
C631 C634 1.363 . S
N632 C634 1.356 . S
N632 H644 0.984 . S
N632 H645 0.985 . S
N633 C635 1.356 . S
N633 H638 0.984 . S
N633 H639 0.985 . S
C634 C628 1.379 . S
C634 C631 1.363 . S
C634 N632 1.356 . S
C635 C629 1.363 . S
C635 C630 1.379 . S
C635 N633 1.356 . S
N636 C628 1.356 . S
N636 H642 0.984 . S
N636 H643 0.984 . S
N637 C630 1.356 . S
N637 H640 0.984 . S
N637 H641 0.985 . S
H638 N633 0.984 . S
H639 N633 0.985 . S
H640 N637 0.984 . S
H641 N637 0.985 . S
H642 N636 0.984 . S
H643 N636 0.984 . S
H644 N632 0.984 . S
H645 N632 0.985 . S
C646 C647 1.363 . S
C646 C652 1.379 . S
C646 N654 1.356 1_545 S
C647 C646 1.363 . S
C647 C653 1.363 . S
C648 C649 1.363 . S
C648 C653 1.379 . S
C648 N655 1.356 . S
C649 C648 1.363 . S
C649 C652 1.363 . S
N650 C652 1.356 . S
N650 H662 0.984 . S
N650 H663 0.985 . S
N651 C653 1.356 . S
N651 H656 0.984 1_545 S
N651 H657 0.985 . S
C652 C646 1.379 . S
C652 C649 1.363 . S
C652 N650 1.356 . S
C653 C647 1.363 . S
C653 C648 1.379 . S
C653 N651 1.356 . S
N654 C646 1.356 1_565 S
N654 H660 0.984 . S
N654 H661 0.984 . S
N655 C648 1.356 . S
N655 H658 0.984 1_655 S
N655 H659 0.985 1_655 S
H656 N651 0.984 1_565 S
H657 N651 0.985 . S
H658 N655 0.984 1_455 S
H659 N655 0.985 1_455 S
H660 N654 0.984 . S
H661 N654 0.984 . S
H662 N650 0.984 . S
H663 N650 0.985 . S
C664 C665 1.372 . S
C664 C670 1.379 . S
C664 N672 1.356 . S
C665 C664 1.372 . S
C665 C671 1.361 1_565 S
C666 C667 1.363 . S
C666 C671 1.379 1_565 S
C666 N673 1.356 . S
C667 C666 1.363 . S
C667 C670 1.363 . S
N668 C670 1.356 . S
N668 H680 0.984 . S
N668 H681 0.985 . S
N669 C671 1.356 . S
N669 H674 0.984 . S
N669 H675 0.985 . S
C670 C664 1.379 . S
C670 C667 1.363 . S
C670 N668 1.356 . S
C671 C665 1.361 1_545 S
C671 C666 1.379 1_545 S
C671 N669 1.356 . S
N672 C664 1.356 . S
N672 H678 0.984 . S
N672 H679 0.984 . S
N673 C666 1.356 . S
N673 H676 0.984 . S
N673 H677 0.985 1_655 S
H674 N669 0.984 . S
H675 N669 0.985 . S
H676 N673 0.984 . S
H677 N673 0.985 1_455 S
H678 N672 0.984 . S
H679 N672 0.984 . S
H680 N668 0.984 . S
H681 N668 0.985 . S
C682 C683 1.363 . S
C682 C688 1.379 . S
C682 N690 1.356 . S
C683 C682 1.363 . S
C683 C689 1.363 . S
C684 C685 1.363 . S
C684 C689 1.379 . S
C684 N691 1.356 . S
C685 C684 1.363 . S
C685 C688 1.363 . S
N686 C688 1.356 . S
N686 H698 0.984 . S
N686 H699 0.985 . S
N687 C689 1.356 . S
N687 H692 0.984 . S
N687 H693 0.985 . S
C688 C682 1.379 . S
C688 C685 1.363 . S
C688 N686 1.356 . S
C689 C683 1.363 . S
C689 C684 1.379 . S
C689 N687 1.356 . S
N690 C682 1.356 . S
N690 H696 0.984 . S
N690 H697 0.984 . S
N691 C684 1.356 . S
N691 H694 0.984 . S
N691 H695 0.985 . S
H692 N687 0.984 . S
H693 N687 0.985 . S
H694 N691 0.984 . S
H695 N691 0.985 . S
H696 N690 0.984 . S
H697 N690 0.984 . S
H698 N686 0.984 . S
H699 N686 0.985 . S
C700 C701 1.363 . S
C700 C706 1.379 . S
C700 N708 1.356 . S
C701 C700 1.363 . S
C701 C707 1.363 . S
C702 C703 1.363 . S
C702 C707 1.379 . S
C702 N709 1.356 . S
C703 C702 1.363 . S
C703 C706 1.363 . S
N704 C706 1.356 . S
N704 H716 0.984 . S
N704 H717 0.985 . S
N705 C707 1.356 . S
N705 H710 0.984 . S
N705 H711 0.985 . S
C706 C700 1.379 . S
C706 C703 1.363 . S
C706 N704 1.356 . S
C707 C701 1.363 . S
C707 C702 1.379 . S
C707 N705 1.356 . S
N708 C700 1.356 . S
N708 H714 0.984 . S
N708 H715 0.984 . S
N709 C702 1.356 . S
N709 H712 0.984 . S
N709 H713 0.985 . S
H710 N705 0.984 . S
H711 N705 0.985 . S
H712 N709 0.984 . S
H713 N709 0.985 . S
H714 N708 0.984 . S
H715 N708 0.984 . S
H716 N704 0.984 . S
H717 N704 0.985 . S
C718 C719 1.363 1_545 S
C718 C724 1.379 1_545 S
C718 N726 1.356 . S
C719 C718 1.363 1_565 S
C719 C725 1.363 . S
C720 C721 1.363 . S
C720 C725 1.379 . S
C720 N727 1.356 . S
C721 C720 1.363 . S
C721 C724 1.363 . S
N722 C724 1.356 . S
N722 H734 0.984 1_565 S
N722 H735 0.985 . S
N723 C725 1.356 . S
N723 H728 0.984 . S
N723 H729 0.985 . S
C724 C718 1.379 1_565 S
C724 C721 1.363 . S
C724 N722 1.356 . S
C725 C719 1.363 . S
C725 C720 1.379 . S
C725 N723 1.356 . S
N726 C718 1.356 . S
N726 H732 0.984 . S
N726 H733 0.984 . S
N727 C720 1.356 . S
N727 H730 0.984 . S
N727 H731 0.985 . S
H728 N723 0.984 . S
H729 N723 0.985 . S
H730 N727 0.984 . S
H731 N727 0.985 . S
H732 N726 0.984 . S
H733 N726 0.984 . S
H734 N722 0.984 1_545 S
H735 N722 0.985 . S
C736 C737 1.363 . S
C736 C742 1.379 . S
C736 N744 1.356 . S
C737 C736 1.363 . S
C737 C743 1.363 . S
C738 C739 1.363 . S
C738 C743 1.379 . S
C738 N745 1.356 . S
C739 C738 1.363 . S
C739 C742 1.363 . S
N740 C742 1.356 . S
N740 H752 0.984 . S
N740 H753 0.985 . S
N741 C743 1.356 . S
N741 H746 0.984 1_554 S
N741 H747 0.985 . S
C742 C736 1.379 . S
C742 C739 1.363 . S
C742 N740 1.356 . S
C743 C737 1.363 . S
C743 C738 1.379 . S
C743 N741 1.356 . S
N744 C736 1.356 . S
N744 H750 0.984 . S
N744 H751 0.984 1_554 S
N745 C738 1.356 . S
N745 H748 0.984 . S
N745 H749 0.985 . S
H746 N741 0.984 1_556 S
H747 N741 0.985 . S
H748 N745 0.984 . S
H749 N745 0.985 . S
H750 N744 0.984 . S
H751 N744 0.984 1_556 S
H752 N740 0.984 . S
H753 N740 0.985 . S
C754 C755 1.363 . S
C754 C760 1.379 . S
C754 N762 1.356 . S
C755 C754 1.363 . S
C755 C761 1.363 . S
C756 C757 1.363 . S
C756 C761 1.379 . S
C756 N763 1.356 . S
C757 C756 1.363 . S
C757 C760 1.363 . S
N758 C760 1.356 . S
N758 H770 0.984 . S
N758 H771 0.985 . S
N759 C761 1.356 . S
N759 H764 0.984 . S
N759 H765 0.985 . S
C760 C754 1.379 . S
C760 C757 1.363 . S
C760 N758 1.356 . S
C761 C755 1.363 . S
C761 C756 1.379 . S
C761 N759 1.356 . S
N762 C754 1.356 . S
N762 H768 0.984 . S
N762 H769 0.984 . S
N763 C756 1.356 . S
N763 H766 0.984 . S
N763 H767 0.985 . S
H764 N759 0.984 . S
H765 N759 0.985 . S
H766 N763 0.984 . S
H767 N763 0.985 . S
H768 N762 0.984 . S
H769 N762 0.984 . S
H770 N758 0.984 . S
H771 N758 0.985 . S
C772 C773 1.363 . S
C772 C778 1.379 . S
C772 N780 1.356 . S
C773 C772 1.363 . S
C773 C779 1.363 . S
C774 C775 1.363 . S
C774 C779 1.379 . S
C774 N781 1.356 . S
C775 C774 1.363 . S
C775 C778 1.363 . S
N776 C778 1.356 . S
N776 H788 0.984 . S
N776 H789 0.985 . S
N777 C779 1.356 . S
N777 H782 0.984 1_556 S
N777 H783 0.985 . S
C778 C772 1.379 . S
C778 C775 1.363 . S
C778 N776 1.356 . S
C779 C773 1.363 . S
C779 C774 1.379 . S
C779 N777 1.356 . S
N780 C772 1.356 . S
N780 H786 0.984 . S
N780 H787 0.984 1_556 S
N781 C774 1.356 . S
N781 H784 0.984 . S
N781 H785 0.985 . S
H782 N777 0.984 1_554 S
H783 N777 0.985 . S
H784 N781 0.984 . S
H785 N781 0.985 . S
H786 N780 0.984 . S
H787 N780 0.984 1_554 S
H788 N776 0.984 . S
H789 N776 0.985 . S
C790 C791 1.363 . S
C790 C796 1.379 . S
C790 N798 1.356 . S
C791 C790 1.363 . S
C791 C797 1.363 . S
C792 C793 1.363 . S
C792 C797 1.379 . S
C792 N799 1.356 . S
C793 C792 1.363 . S
C793 C796 1.363 . S
N794 C796 1.356 . S
N794 H806 0.984 . S
N794 H807 0.985 . S
N795 C797 1.356 . S
N795 H800 0.984 . S
N795 H801 0.985 . S
C796 C790 1.379 . S
C796 C793 1.363 . S
C796 N794 1.356 . S
C797 C791 1.363 . S
C797 C792 1.379 . S
C797 N795 1.356 . S
N798 C790 1.356 . S
N798 H804 0.984 . S
N798 H805 0.984 . S
N799 C792 1.356 . S
N799 H802 0.984 . S
N799 H803 0.985 . S
H800 N795 0.984 . S
H801 N795 0.985 . S
H802 N799 0.984 . S
H803 N799 0.985 . S
H804 N798 0.984 . S
H805 N798 0.984 . S
H806 N794 0.984 . S
H807 N794 0.985 . S
C808 C809 1.363 . S
C808 C814 1.379 . S
C808 N816 1.356 . S
C809 C808 1.363 . S
C809 C815 1.363 . S
C810 C811 1.363 . S
C810 C815 1.379 . S
C810 N817 1.356 . S
C811 C810 1.363 . S
C811 C814 1.363 . S
N812 C814 1.356 . S
N812 H824 0.984 . S
N812 H825 0.985 . S
N813 C815 1.356 1_554 S
N813 H818 0.984 . S
N813 H819 0.985 . S
C814 C808 1.379 . S
C814 C811 1.363 . S
C814 N812 1.356 . S
C815 C809 1.363 . S
C815 C810 1.379 . S
C815 N813 1.356 1_556 S
N816 C808 1.356 . S
N816 H822 0.984 . S
N816 H823 0.980 1_556 S
N817 C810 1.356 . S
N817 H820 0.984 . S
N817 H821 0.985 . S
H818 N813 0.984 . S
H819 N813 0.985 . S
H820 N817 0.984 . S
H821 N817 0.985 . S
H822 N816 0.984 . S
H823 N816 0.980 1_554 S
H824 N812 0.984 . S
H825 N812 0.985 . S
C826 C827 1.363 . S
C826 C832 1.379 . S
C826 N834 1.356 . S
C827 C826 1.363 . S
C827 C833 1.363 . S
C828 C829 1.363 . S
C828 C833 1.379 . S
C828 N835 1.356 . S
C829 C828 1.363 . S
C829 C832 1.363 . S
N830 C832 1.356 . S
N830 H842 0.984 . S
N830 H843 0.985 . S
N831 C833 1.356 . S
N831 H836 0.984 . S
N831 H837 0.985 . S
C832 C826 1.379 . S
C832 C829 1.363 . S
C832 N830 1.356 . S
C833 C827 1.363 . S
C833 C828 1.379 . S
C833 N831 1.356 . S
N834 C826 1.356 . S
N834 H840 0.984 . S
N834 H841 0.984 . S
N835 C828 1.356 . S
N835 H838 0.984 . S
N835 H839 0.985 . S
H836 N831 0.984 . S
H837 N831 0.985 . S
H838 N835 0.984 . S
H839 N835 0.985 . S
H840 N834 0.984 . S
H841 N834 0.984 . S
H842 N830 0.984 . S
H843 N830 0.985 . S
C844 C845 1.363 . S
C844 C850 1.379 . S
C844 N852 1.356 1_554 S
C845 C844 1.363 . S
C845 C851 1.363 . S
C846 C847 1.363 . S
C846 C851 1.379 . S
C846 N853 1.356 . S
C847 C846 1.363 . S
C847 C850 1.363 . S
N848 C850 1.356 . S
N848 H860 0.984 . S
N848 H861 0.985 . S
N849 C851 1.356 . S
N849 H854 0.984 1_554 S
N849 H855 0.985 . S
C850 C844 1.379 . S
C850 C847 1.363 . S
C850 N848 1.356 . S
C851 C845 1.363 . S
C851 C846 1.379 . S
C851 N849 1.356 . S
N852 C844 1.356 1_556 S
N852 H858 0.984 . S
N852 H859 0.984 . S
N853 C846 1.356 . S
N853 H856 0.984 . S
N853 H857 0.985 . S
H854 N849 0.984 1_556 S
H855 N849 0.985 . S
H856 N853 0.984 . S
H857 N853 0.985 . S
H858 N852 0.984 . S
H859 N852 0.984 . S
H860 N848 0.984 . S
H861 N848 0.985 . S
C862 C863 1.363 . S
C862 C868 1.379 . S
C862 N870 1.356 . S
C863 C862 1.363 . S
C863 C869 1.363 . S
C864 C865 1.363 . S
C864 C869 1.379 . S
C864 N871 1.356 . S
C865 C864 1.363 . S
C865 C868 1.363 . S
N866 C868 1.356 . S
N866 H878 0.984 . S
N866 H879 0.985 . S
N867 C869 1.356 . S
N867 H872 0.984 . S
N867 H873 0.985 . S
C868 C862 1.379 . S
C868 C865 1.363 . S
C868 N866 1.356 . S
C869 C863 1.363 . S
C869 C864 1.379 . S
C869 N867 1.356 . S
N870 C862 1.356 . S
N870 H876 0.984 . S
N870 H877 0.984 . S
N871 C864 1.356 . S
N871 H874 0.984 . S
N871 H875 0.985 . S
H872 N867 0.984 . S
H873 N867 0.985 . S
H874 N871 0.984 . S
H875 N871 0.985 . S
H876 N870 0.984 . S
H877 N870 0.984 . S
H878 N866 0.984 . S
H879 N866 0.985 . S
C880 C881 1.363 . S
C880 C886 1.379 . S
C880 N888 1.356 . S
C881 C880 1.363 . S
C881 C887 1.363 . S
C882 C883 1.363 . S
C882 C887 1.379 . S
C882 N889 1.356 . S
C883 C882 1.363 . S
C883 C886 1.363 . S
N884 C886 1.356 . S
N884 H896 0.984 . S
N884 H897 0.985 . S
N885 C887 1.356 . S
N885 H890 0.984 . S
N885 H891 0.985 . S
C886 C880 1.379 . S
C886 C883 1.363 . S
C886 N884 1.356 . S
C887 C881 1.363 . S
C887 C882 1.379 . S
C887 N885 1.356 . S
N888 C880 1.356 . S
N888 H894 0.984 . S
N888 H895 0.984 . S
N889 C882 1.356 . S
N889 H892 0.984 . S
N889 H893 0.985 . S
H890 N885 0.984 . S
H891 N885 0.985 . S
H892 N889 0.984 . S
H893 N889 0.985 . S
H894 N888 0.984 . S
H895 N888 0.984 . S
H896 N884 0.984 . S
H897 N884 0.985 . S
C898 C899 1.363 . S
C898 C904 1.379 . S
C898 N906 1.356 . S
C899 C898 1.363 . S
C899 C905 1.363 . S
C900 C901 1.363 . S
C900 C905 1.379 . S
C900 N907 1.356 . S
C901 C900 1.363 . S
C901 C904 1.363 . S
N902 C904 1.356 . S
N902 H914 0.984 . S
N902 H915 0.985 . S
N903 C905 1.356 . S
N903 H908 0.984 . S
N903 H909 0.985 . S
C904 C898 1.379 . S
C904 C901 1.363 . S
C904 N902 1.356 . S
C905 C899 1.363 . S
C905 C900 1.379 . S
C905 N903 1.356 . S
N906 C898 1.356 . S
N906 H912 0.984 . S
N906 H913 0.984 . S
N907 C900 1.356 . S
N907 H910 0.984 . S
N907 H911 0.985 . S
H908 N903 0.984 . S
H909 N903 0.985 . S
H910 N907 0.984 . S
H911 N907 0.985 . S
H912 N906 0.984 . S
H913 N906 0.984 . S
H914 N902 0.984 . S
H915 N902 0.985 . S
C916 C917 1.363 . S
C916 C922 1.379 . S
C916 N924 1.356 . S
C917 C916 1.363 . S
C917 C923 1.363 . S
C918 C919 1.363 . S
C918 C923 1.379 . S
C918 N925 1.356 . S
C919 C918 1.363 . S
C919 C922 1.363 . S
N920 C922 1.356 . S
N920 H932 0.984 . S
N920 H933 0.985 . S
N921 C923 1.356 . S
N921 H926 0.984 . S
N921 H927 0.985 . S
C922 C916 1.379 . S
C922 C919 1.363 . S
C922 N920 1.356 . S
C923 C917 1.363 . S
C923 C918 1.379 . S
C923 N921 1.356 . S
N924 C916 1.356 . S
N924 H930 0.984 . S
N924 H931 0.984 . S
N925 C918 1.356 . S
N925 H928 0.984 . S
N925 H929 0.985 . S
H926 N921 0.984 . S
H927 N921 0.985 . S
H928 N925 0.984 . S
H929 N925 0.985 . S
H930 N924 0.984 . S
H931 N924 0.984 . S
H932 N920 0.984 . S
H933 N920 0.985 . S
C934 C935 1.363 . S
C934 C940 1.379 . S
C934 N942 1.356 . S
C935 C934 1.363 . S
C935 C941 1.363 . S
C936 C937 1.363 . S
C936 C941 1.379 . S
C936 N943 1.356 . S
C937 C936 1.363 . S
C937 C940 1.363 . S
N938 C940 1.356 . S
N938 H950 0.984 . S
N938 H951 0.985 . S
N939 C941 1.356 . S
N939 H944 0.984 . S
N939 H945 0.985 . S
C940 C934 1.379 . S
C940 C937 1.363 . S
C940 N938 1.356 . S
C941 C935 1.363 . S
C941 C936 1.379 . S
C941 N939 1.356 . S
N942 C934 1.356 . S
N942 H948 0.984 . S
N942 H949 0.984 . S
N943 C936 1.356 . S
N943 H946 0.984 . S
N943 H947 0.985 . S
H944 N939 0.984 . S
H945 N939 0.985 . S
H946 N943 0.984 . S
H947 N943 0.985 . S
H948 N942 0.984 . S
H949 N942 0.984 . S
H950 N938 0.984 . S
H951 N938 0.985 . S
C952 C953 1.363 . S
C952 C958 1.379 . S
C952 N960 1.356 . S
C953 C952 1.363 . S
C953 C959 1.363 . S
C954 C955 1.363 . S
C954 C959 1.379 . S
C954 N961 1.356 . S
C955 C954 1.363 . S
C955 C958 1.363 . S
N956 C958 1.356 . S
N956 H968 0.984 . S
N956 H969 0.985 . S
N957 C959 1.356 . S
N957 H962 0.984 . S
N957 H963 0.985 . S
C958 C952 1.379 . S
C958 C955 1.363 . S
C958 N956 1.356 . S
C959 C953 1.363 . S
C959 C954 1.379 . S
C959 N957 1.356 . S
N960 C952 1.356 . S
N960 H966 0.984 . S
N960 H967 0.984 . S
N961 C954 1.356 . S
N961 H964 0.984 1_655 S
N961 H965 0.985 1_655 S
H962 N957 0.984 . S
H963 N957 0.985 . S
H964 N961 0.984 1_455 S
H965 N961 0.985 1_455 S
H966 N960 0.984 . S
H967 N960 0.984 . S
H968 N956 0.984 . S
H969 N956 0.985 . S
C970 C971 1.363 . S
C970 C976 1.379 . S
C970 N978 1.356 . S
C971 C970 1.363 . S
C971 C977 1.363 . S
C972 C973 1.363 . S
C972 C977 1.379 . S
C972 N979 1.356 . S
C973 C972 1.363 . S
C973 C976 1.363 . S
N974 C976 1.356 . S
N974 H986 0.984 . S
N974 H987 0.985 . S
N975 C977 1.356 . S
N975 H980 0.984 . S
N975 H981 0.985 . S
C976 C970 1.379 . S
C976 C973 1.363 . S
C976 N974 1.356 . S
C977 C971 1.363 . S
C977 C972 1.379 . S
C977 N975 1.356 . S
N978 C970 1.356 . S
N978 H984 0.984 . S
N978 H985 0.984 . S
N979 C972 1.356 . S
N979 H982 0.984 . S
N979 H983 0.985 . S
H980 N975 0.984 . S
H981 N975 0.985 . S
H982 N979 0.984 . S
H983 N979 0.985 . S
H984 N978 0.984 . S
H985 N978 0.984 . S
H986 N974 0.984 . S
H987 N974 0.985 . S
C988 C989 1.363 . S
C988 C994 1.379 . S
C988 N996 1.356 . S
C989 C988 1.363 . S
C989 C995 1.363 . S
C990 C991 1.363 . S
C990 C995 1.379 . S
C990 N997 1.356 . S
C991 C990 1.363 . S
C991 C994 1.363 . S
N992 C994 1.356 . S
N992 H1004 0.984 . S
N992 H1005 0.985 . S
N993 C995 1.356 . S
N993 H998 0.984 . S
N993 H999 0.985 . S
C994 C988 1.379 . S
C994 C991 1.363 . S
C994 N992 1.356 . S
C995 C989 1.363 . S
C995 C990 1.379 . S
C995 N993 1.356 . S
N996 C988 1.356 . S
N996 H1002 0.984 . S
N996 H1003 0.984 . S
N997 C990 1.356 . S
N997 H1000 0.984 . S
N997 H1001 0.985 . S
H998 N993 0.984 . S
H999 N993 0.985 . S
H1000 N997 0.984 . S
H1001 N997 0.985 . S
H1002 N996 0.984 . S
H1003 N996 0.984 . S
H1004 N992 0.984 . S
H1005 N992 0.985 . S
C1006 C1007 1.363 . S
C1006 C1012 1.379 . S
C1006 N1014 1.356 . S
C1007 C1006 1.363 . S
C1007 C1013 1.363 . S
C1008 C1009 1.363 . S
C1008 C1013 1.379 . S
C1008 N1015 1.356 . S
C1009 C1008 1.363 . S
C1009 C1012 1.363 . S
N1010 C1012 1.356 . S
N1010 H1022 0.984 . S
N1010 H1023 0.985 . S
N1011 C1013 1.356 . S
N1011 H1016 0.984 . S
N1011 H1017 0.985 . S
C1012 C1006 1.379 . S
C1012 C1009 1.363 . S
C1012 N1010 1.356 . S
C1013 C1007 1.363 . S
C1013 C1008 1.379 . S
C1013 N1011 1.356 . S
N1014 C1006 1.356 . S
N1014 H1020 0.984 . S
N1014 H1021 0.984 . S
N1015 C1008 1.356 . S
N1015 H1018 0.984 . S
N1015 H1019 0.985 . S
H1016 N1011 0.984 . S
H1017 N1011 0.985 . S
H1018 N1015 0.984 . S
H1019 N1015 0.985 . S
H1020 N1014 0.984 . S
H1021 N1014 0.984 . S
H1022 N1010 0.984 . S
H1023 N1010 0.985 . S
C593 C221 1.474 1_545 S
C595 C312 1.480 . S
C613 C396 1.485 . S
C611 C241 1.450 . S
C631 C395 1.486 . S
C629 C157 1.477 . S
C647 C177 1.439 1_545 S
C649 C311 1.491 . S
C667 C492 1.480 . S
C665 C93 1.437 1_565 S
C685 C576 1.485 . S
C683 C113 1.491 . S
C701 C29 1.430 . S
C703 C575 1.486 . S
C719 C49 1.491 1_565 S
C721 C491 1.492 . S
C739 C314 1.315 . S
C737 C61 1.516 1_554 S
C757 C398 1.320 . S
C755 C17 1.462 . S
C775 C410 1.393 . S
C773 C125 1.526 1_556 S
C793 C326 1.394 . S
C791 C81 1.484 . S
C811 C494 1.315 . S
C809 C189 1.449 1_556 S
C827 C145 1.510 . S
C829 C578 1.319 . S
C847 C566 1.394 . S
C845 C253 1.470 1_554 S
C863 C209 1.522 . S
C865 C482 1.394 . S
C883 C323 1.552 . S
C881 C23 1.494 . S
C901 C407 1.566 . S
C899 C55 1.554 . S
C917 C87 1.492 . S
C919 C408 1.534 . S
C937 C324 1.546 . S
C935 C119 1.539 . S
C955 C479 1.552 . S
C953 C151 1.550 . S
C971 C183 1.492 . S
C973 C563 1.565 . S
C989 C215 1.537 . S
C991 C564 1.534 . S
C1007 C247 1.488 . S
C1009 C480 1.546 . S
