# Generated by pormake.
# Topology rtl, (3,6)-cn, num edge types: 1
# Building blocks:
#     Node 0, Type 0, BuildingBlock: BETDIP_clean_linker_0, # of connection points: 3
#     Node 1, Type 0, BuildingBlock: BETDIP_clean_linker_0, # of connection points: 3
#     Node 2, Type 0, BuildingBlock: BETDIP_clean_linker_0, # of connection points: 3
#     Node 3, Type 0, BuildingBlock: BETDIP_clean_linker_0, # of connection points: 3
#     Node 4, Type 1, BuildingBlock: KUMBUR_clean_sbu_1, # of connection points: 6
#     Node 5, Type 1, BuildingBlock: KUMBUR_clean_sbu_1, # of connection points: 6
#     Edge 6, Type (0, 1), BuildingBlock: AJUNOK_clean_linker_0, # of connection points: 2
#     Edge 7, Type (0, 1), BuildingBlock: AJUNOK_clean_linker_0, # of connection points: 2
#     Edge 8, Type (0, 1), BuildingBlock: AJUNOK_clean_linker_0, # of connection points: 2
#     Edge 9, Type (0, 1), BuildingBlock: AJUNOK_clean_linker_0, # of connection points: 2
#     Edge 10, Type (0, 1), BuildingBlock: AJUNOK_clean_linker_0, # of connection points: 2
#     Edge 11, Type (0, 1), BuildingBlock: AJUNOK_clean_linker_0, # of connection points: 2
#     Edge 12, Type (0, 1), BuildingBlock: AJUNOK_clean_linker_0, # of connection points: 2
#     Edge 13, Type (0, 1), BuildingBlock: AJUNOK_clean_linker_0, # of connection points: 2
#     Edge 14, Type (0, 1), BuildingBlock: AJUNOK_clean_linker_0, # of connection points: 2
#     Edge 15, Type (0, 1), BuildingBlock: AJUNOK_clean_linker_0, # of connection points: 2
#     Edge 16, Type (0, 1), BuildingBlock: AJUNOK_clean_linker_0, # of connection points: 2
#     Edge 17, Type (0, 1), BuildingBlock: AJUNOK_clean_linker_0, # of connection points: 2
# Relax obj value: 0.054
# Max RMSD: 0.239
# Mean RMSD: 0.171
data_MOF--net-rtl--node1-KUMBUR_clean_sbu_1--node2-BETDIP_clean_linker_0--edge1-AJUNOK_clean_linker_0
_symmetry_space_group_name_H-M    P1
_symmetry_Int_Tables_number       1
_symmetry_cell_setting            triclinic
loop_
_symmetry_equiv_pos_as_xyz
'x, y, z'
_cell_length_a     26.146748
_cell_length_b     26.65562
_cell_length_c     20.534338
_cell_angle_alpha  74.313575
_cell_angle_beta   99.224954
_cell_angle_gamma 91.8567
loop_
_atom_site_label
_atom_site_type_symbol
_atom_site_fract_x
_atom_site_fract_y
_atom_site_fract_z
_atom_type_partial_charge
H0 H 0.20921 0.82605 0.90671 0.0
H1 H 0.22861 0.7789 0.12687 0.0
H2 H 0.12182 0.90289 0.01252 0.0
H3 H 0.26224 0.70758 0.11628 0.0
C4 C 0.28002 0.71736 0.0703 0.0
C5 C 0.19955 0.83039 0.95435 0.0
C6 C 0.16255 0.86769 0.95289 0.0
C7 C 0.22348 0.79782 0.01656 0.0
C8 C 0.21025 0.80338 0.07827 0.0
C9 C 0.17307 0.84078 0.0778 0.0
C10 C 0.14978 0.87321 0.0144 0.0
N11 N 0.26097 0.76069 0.01479 0.0
H12 H 0.71263 0.72065 0.79432 0.0
H13 H 0.71624 0.75007 0.57832 0.0
H14 H 0.60743 0.6415 0.67151 0.0
H15 H 0.80329 0.75111 0.61855 0.0
C16 C 0.80189 0.77899 0.64832 0.0
C17 C 0.69746 0.71397 0.74511 0.0
C18 C 0.65691 0.67811 0.7401 0.0
C19 C 0.72033 0.739 0.68718 0.0
C20 C 0.69999 0.73022 0.62364 0.0
C21 C 0.65948 0.69524 0.61767 0.0
C22 C 0.63845 0.66895 0.67605 0.0
N23 N 0.76395 0.77226 0.69292 0.0
H24 H 0.7876 0.21877 1.00904 0.0
H25 H 0.8008 0.21001 0.22429 0.0
H26 H 0.91114 0.13016 0.15465 0.0
H27 H 0.71952 0.23749 0.19695 0.0
C28 C 0.71404 0.26177 0.14455 0.0
C29 C 0.80767 0.205 0.06112 0.0
C30 C 0.85164 0.17246 0.0754 0.0
C31 C 0.78845 0.21876 0.11424 0.0
C32 C 0.81407 0.19981 0.18225 0.0
C33 C 0.85824 0.1679 0.19633 0.0
C34 C 0.87696 0.15498 0.14301 0.0
N35 N 0.74429 0.25249 0.09707 0.0
H36 H 0.31774 0.30711 0.3537 0.0
H37 H 0.31172 0.31696 0.55897 0.0
H38 H 0.42156 0.40741 0.44306 0.0
H39 H 0.27912 0.23794 0.57273 0.0
C40 C 0.25595 0.23668 0.52439 0.0
C41 C 0.33207 0.32267 0.39671 0.0
C42 C 0.37277 0.35874 0.39187 0.0
C43 C 0.3106 0.30569 0.45768 0.0
C44 C 0.32888 0.32739 0.51265 0.0
C45 C 0.36953 0.36338 0.50801 0.0
C46 C 0.39111 0.3786 0.44761 0.0
N47 N 0.27056 0.26757 0.46182 0.0
Tb48 Tb 0.05781 0.97449 0.53101 0.0
C49 C 0.94399 0.17211 0.49929 0.0
N50 N 0.98577 0.15244 0.54697 0.0
C51 C 0.02839 0.23475 0.5158 0.0
C52 C 0.94399 0.22275 0.4549 0.0
C53 C 0.02585 0.18459 0.55937 0.0
C54 C 0.98783 0.25346 0.46215 0.0
C55 C 0.85367 0.16285 0.45456 0.0
C56 C 0.89953 0.1429 0.49899 0.0
C57 C 0.85428 0.21189 0.40707 0.0
C58 C 0.89947 0.24177 0.40714 0.0
Tb59 Tb 0.97905 0.06733 0.6096 0.0
N60 N 0.90101 0.09511 0.54417 0.0
C61 C 0.80853 0.13331 0.46037 0.0
C62 C 0.85669 0.06724 0.55281 0.0
C63 C 0.80985 0.08572 0.51064 0.0
H64 H 0.05596 0.17197 0.60304 0.0
H65 H 0.77497 0.06306 0.5164 0.0
H66 H 1.01245 0.85746 0.595 0.0
H67 H 0.25433 0.04693 0.55451 0.0
H68 H 0.85792 0.03024 0.59121 0.0
H69 H 0.77238 0.14727 0.42729 0.0
H70 H 0.16443 0.04418 0.49761 0.0
H71 H 0.06123 0.25924 0.52441 0.0
H72 H 0.81973 0.2276 0.37144 0.0
H73 H 0.89897 0.28025 0.37182 0.0
H74 H 0.0415 0.778 0.68707 0.0
H75 H 0.98954 0.29256 0.42904 0.0
H76 H 0.28776 0.97752 0.65868 0.0
N77 N 0.08258 0.898 0.61182 0.0
C78 C 0.13181 0.89517 0.64587 0.0
C79 C 0.06717 0.81086 0.67634 0.0
C80 C 0.15 0.85098 0.69911 0.0
C81 C 0.05068 0.85596 0.62451 0.0
C82 C 0.11676 0.80866 0.71458 0.0
N83 N 0.14439 0.978 0.57375 0.0
C84 C 0.17737 0.01534 0.54516 0.0
C85 C 0.2153 0.93585 0.65984 0.0
C86 C 0.16354 0.93716 0.62696 0.0
C87 C 0.2477 0.97697 0.63495 0.0
C88 C 0.22893 0.01629 0.57634 0.0
H89 H 0.12924 0.7739 0.75514 0.0
H90 H 0.21535 0.81712 0.77618 0.0
H91 H 0.27281 0.89139 0.74139 0.0
O92 O 0.10315 0.96245 0.46084 0.0
O93 O 0.04901 0.95515 0.63963 0.0
O94 O 0.05284 0.03252 0.66787 0.0
O95 O 0.02728 0.93038 0.46221 0.0
O96 O 0.0757 0.05847 0.50794 0.0
O97 O 0.06194 0.08225 0.60386 0.0
O98 O 0.94655 0.03757 0.69921 0.0
O99 O 0.94849 0.0483 0.51382 0.0
O100 O 0.01928 0.04549 0.46274 0.0
O101 O 0.96272 0.11894 0.66543 0.0
O102 O 0.9527 0.98578 0.62695 0.0
O103 O 0.97681 0.95094 0.54258 0.0
C104 C 0.06356 0.9826 0.68332 0.0
C105 C 0.08943 0.88765 0.42145 0.0
C106 C 0.1225 0.84717 0.34258 0.0
C107 C 0.13815 0.80341 0.39752 0.0
C108 C 0.10553 0.84359 0.47551 0.0
C109 C 0.12933 0.80156 0.46341 0.0
C110 C 0.09762 0.88909 0.35478 0.0
C111 C 0.08611 0.08782 0.55071 0.0
C112 C 0.06897 0.93449 0.43415 0.0
C113 C 0.20071 0.85044 0.73449 0.0
C114 C 0.23335 0.89282 0.71485 0.0
C115 C 0.97106 0.05917 0.45946 0.0
C116 C 0.96864 0.0819 0.78391 0.0
C117 C 0.95756 0.09991 0.89072 0.0
C118 C 1.00651 0.07746 0.92086 0.0
C119 C 0.01779 0.06027 0.81424 0.0
C120 C 0.93885 0.10221 0.82204 0.0
C121 C 0.03659 0.05807 0.88252 0.0
C122 C 0.94857 0.95055 0.59136 0.0
C123 C 0.94708 0.08218 0.71343 0.0
H124 H 0.15733 0.7707 0.38938 0.0
H125 H 0.10085 0.84194 0.52717 0.0
H126 H 0.14179 0.76778 0.50549 0.0
H127 H 0.0864 0.9235 0.31295 0.0
H128 H 0.02146 0.07513 0.97397 0.0
H129 H 0.04134 0.04472 0.78547 0.0
H130 H 0.90069 0.11862 0.79887 0.0
H131 H 0.07435 0.04096 0.90589 0.0
Tb132 Tb 0.46171 0.48828 0.99698 0.0
C133 C 0.66624 0.58175 0.06776 0.0
N134 N 0.64634 0.53645 0.10256 0.0
C135 C 0.72527 0.49155 0.10559 0.0
C136 C 0.7155 0.58323 0.04774 0.0
C137 C 0.67667 0.49243 0.1255 0.0
C138 C 0.7444 0.53694 0.06539 0.0
C139 C 0.65854 0.67578 0.02385 0.0
C140 C 0.63827 0.62739 0.05562 0.0
C141 C 0.70671 0.6773 1.00144 0.0
C142 C 0.73503 0.63106 0.01307 0.0
Tb143 Tb 0.56501 0.54303 0.12869 0.0
N144 N 0.59116 0.62419 0.07623 0.0
C145 C 0.62983 0.72107 0.01604 0.0
C146 C 0.56386 0.66822 0.07135 0.0
C147 C 0.58253 0.71728 0.04056 0.0
H148 H 0.66448 0.45817 0.16086 0.0
H149 H 0.5605 0.75211 0.03581 0.0
H150 H 0.35247 0.54759 0.99367 0.0
H151 H 0.50471 0.28287 0.04018 0.0
H152 H 0.52756 0.66535 0.09086 0.0
H153 H 0.64408 0.75908 0.99198 0.0
H154 H 0.51594 0.37673 0.9918 0.0
H155 H 0.74846 0.45613 0.12261 0.0
H156 H 0.72272 0.71403 0.97598 0.0
H157 H 0.77261 0.6329 0.99673 0.0
H158 H 0.2683 0.52416 0.03358 0.0
H159 H 0.78239 0.53634 0.05091 0.0
H160 H 0.4297 0.2514 0.09914 0.0
N161 N 0.38242 0.47016 0.02983 0.0
C162 C 0.37202 0.41915 0.05624 0.0
C163 C 0.29735 0.49428 0.04091 0.0
C164 C 0.32457 0.40375 0.07935 0.0
C165 C 0.3452 0.50756 0.01898 0.0
C166 C 0.28723 0.44222 0.07211 0.0
N167 N 0.45281 0.39934 0.03198 0.0
C168 C 0.48519 0.36404 0.02143 0.0
C169 C 0.39946 0.32902 0.08436 0.0
C170 C 0.40906 0.38254 0.05887 0.0
C171 C 0.43555 0.29289 0.08013 0.0
C172 C 0.47804 0.31051 0.04713 0.0
H173 H 0.25021 0.43204 0.08918 0.0
H174 H 0.27989 0.338 0.12689 0.0
H175 H 0.34547 0.27242 0.13111 0.0
O176 O 0.43036 0.45659 0.91602 0.0
O177 O 0.44442 0.4833 0.09982 0.0
O178 O 0.52307 0.47153 0.17063 0.0
O179 O 0.42992 0.53925 0.9026 0.0
O180 O 0.54118 0.4552 0.02194 0.0
O181 O 0.57217 0.46031 0.13215 0.0
O182 O 0.54826 0.57455 0.20698 0.0
O183 O 0.54848 0.58203 0.01768 0.0
O184 O 0.5369 0.51513 0.96803 0.0
O185 O 0.6211 0.53687 0.21621 0.0
O186 O 0.48575 0.57253 0.11255 0.0
O187 O 0.44935 0.56876 1.00266 0.0
C188 C 0.47301 0.46246 0.15913 0.0
C189 C 0.44212 0.50876 0.8076 0.0
C190 C 0.44502 0.47995 0.70497 0.0
C191 C 0.48324 0.51723 0.68698 0.0
C192 C 0.48025 0.54583 0.78858 0.0
C193 C 0.50066 0.54991 0.72862 0.0
C194 C 0.42438 0.47622 0.76524 0.0
C195 C 0.57051 0.43756 0.08221 0.0
C196 C 0.42179 0.50196 0.87241 0.0
C197 C 0.31584 0.35067 0.10797 0.0
C198 C 0.35328 0.31335 0.1106 0.0
C199 C 0.55603 0.56103 0.96902 0.0
C200 C 0.62113 0.60621 0.26729 0.0
C201 C 0.63794 0.65608 0.35223 0.0
C202 C 0.67311 0.6868 0.31365 0.0
C203 C 0.65716 0.63687 0.23048 0.0
C204 C 0.61193 0.61566 0.32867 0.0
C205 C 0.68254 0.6772 0.2532 0.0
C206 C 0.45045 0.58661 0.05714 0.0
C207 C 0.59403 0.56365 0.24305 0.0
H208 H 0.49917 0.52156 0.64023 0.0
H209 H 0.49436 0.57157 0.81999 0.0
H210 H 0.53005 0.57853 0.71434 0.0
H211 H 0.39515 0.44736 0.77984 0.0
H212 H 0.6945 0.71738 0.33131 0.0
H213 H 0.66647 0.62921 0.18482 0.0
H214 H 0.5849 0.59156 0.35811 0.0
H215 H 0.7103 0.70054 0.22445 0.0
C216 C 0.20009 0.17228 0.59208 0.0
C217 C 0.21173 0.19968 0.52734 0.0
C218 C 0.15931 0.13667 0.59894 0.0
C219 C 0.12853 0.12651 0.5413 0.0
H220 H 0.22285 0.17839 0.63821 0.0
H221 H 0.15227 0.11641 0.65 0.0
S222 S 0.14145 0.18849 0.35985 0.0
N223 N 0.18807 0.21471 0.40399 0.0
N224 N 0.11165 0.14744 0.41704 0.0
C225 C 0.13946 0.15364 0.47611 0.0
C226 C 0.18091 0.19032 0.46904 0.0
C227 C 0.34367 0.69027 1.00513 0.0
C228 C 0.32304 0.68373 0.06625 0.0
C229 C 0.38459 0.65839 1.00195 0.0
C230 C 0.40685 0.61966 0.06004 0.0
H231 H 0.32812 0.72002 0.95938 0.0
H232 H 0.39942 0.66462 0.95408 0.0
S233 S 0.36494 0.58481 0.23091 0.0
N234 N 0.32648 0.63388 0.18496 0.0
N235 N 0.4036 0.57494 0.17935 0.0
C236 C 0.38616 0.61246 0.12104 0.0
C237 C 0.34421 0.64424 0.124 0.0
C238 C 0.86517 0.83201 0.58053 0.0
C239 C 0.83804 0.82382 0.63638 0.0
C240 C 0.90003 0.87317 0.56608 0.0
C241 C 0.90995 0.90796 0.6073 0.0
H242 H 0.85924 0.80632 0.54718 0.0
H243 H 0.91946 0.87745 0.52213 0.0
S244 S 0.84983 0.90259 0.76165 0.0
N245 N 0.82364 0.85353 0.73384 0.0
N246 N 0.88969 0.9304 0.70802 0.0
C247 C 0.88305 0.90007 0.6638 0.0
C248 C 0.84705 0.85819 0.67805 0.0
C249 C 0.65401 0.31806 0.17715 0.0
C250 C 0.67558 0.30524 0.1252 0.0
C251 C 0.61941 0.36018 0.16237 0.0
C252 C 0.60466 0.39119 0.09489 0.0
H253 H 0.66465 0.29584 0.23005 0.0
H254 H 0.60453 0.36881 0.20446 0.0
S255 S 0.64754 0.37195 0.93942 0.0
N256 N 0.67778 0.32539 1.00287 0.0
N257 N 0.61305 0.40471 0.97518 0.0
C258 C 0.6249 0.37794 0.04212 0.0
C259 C 0.66032 0.33501 0.05723 0.0
C260 C 0.19793 0.84292 0.20064 0.0
C261 C 0.15894 0.84551 0.14375 0.0
C262 C 0.1858 0.84436 0.26425 0.0
C263 C 0.13425 0.84927 0.27346 0.0
H264 H 0.23831 0.83953 0.19617 0.0
H265 H 0.21704 0.84145 0.30676 0.0
S266 S 0.01742 0.85665 0.14253 0.0
N267 N 0.06609 0.85196 0.10213 0.0
N268 N 0.04386 0.85663 0.22118 0.0
C269 C 0.0949 0.85297 0.21713 0.0
C270 C 0.10708 0.85068 0.15246 0.0
C271 C 0.61069 0.67364 0.84043 0.0
C272 C 0.63463 0.64809 0.80145 0.0
C273 C 0.58516 0.64535 0.89422 0.0
C274 C 0.58369 0.59043 0.91226 0.0
H275 H 0.61022 0.71581 0.82784 0.0
H276 H 0.56556 0.66679 0.921 0.0
S277 S 0.64226 0.50533 0.82703 0.0
N278 N 0.65604 0.56496 0.78507 0.0
N279 N 0.60944 0.51201 0.88653 0.0
C280 C 0.60828 0.56466 0.87408 0.0
C281 C 0.63355 0.59338 0.81892 0.0
C282 C 0.93596 0.15666 0.28685 0.0
C283 C 0.8841 0.14453 0.26688 0.0
C284 C 0.96416 0.12857 0.34933 0.0
C285 C 0.94135 0.08739 0.39335 0.0
H286 H 0.95508 0.18731 0.25319 0.0
H287 H 1.00392 0.13919 0.36335 0.0
S288 S 0.80804 0.03807 0.36188 0.0
N289 N 0.81167 0.08784 0.29441 0.0
N290 N 0.86494 0.03427 0.41147 0.0
C291 C 0.88961 0.07487 0.37383 0.0
C292 C 0.86084 0.10373 0.31062 0.0
C293 C 0.35433 0.41305 0.59108 0.0
C294 C 0.38882 0.38723 0.56472 0.0
C295 C 0.3727 0.44175 0.63806 0.0
C296 C 0.42616 0.44565 0.66013 0.0
H297 H 0.31306 0.41286 0.57315 0.0
H298 H 0.34497 0.46261 0.65525 0.0
S299 S 0.53178 0.37916 0.61368 0.0
N300 N 0.47842 0.36306 0.56927 0.0
N301 N 0.51287 0.4169 0.65743 0.0
C302 C 0.46078 0.41787 0.63669 0.0
C303 C 0.44213 0.38867 0.58908 0.0
C304 C 0.64666 0.63315 0.54424 0.0
C305 C 0.64244 0.68405 0.55058 0.0
C306 C 0.64147 0.6236 0.47945 0.0
C307 C 0.63186 0.66468 0.4191 0.0
H308 H 0.65733 0.60107 0.58944 0.0
H309 H 0.64832 0.58443 0.47666 0.0
S310 S 0.60799 0.80322 0.40862 0.0
N311 N 0.62121 0.77465 0.49158 0.0
N312 N 0.61119 0.75676 0.37002 0.0
C313 C 0.62337 0.71495 0.42505 0.0
C314 C 0.62873 0.72462 0.49076 0.0
C315 C 0.88468 0.10152 0.03465 0.0
C316 C 0.87161 0.15457 0.02166 0.0
C317 C 0.91145 0.08409 0.99107 0.0
C318 C 0.92539 0.11888 0.93223 0.0
H319 H 0.87554 0.07341 0.08019 0.0
H320 H 0.92212 0.04322 1.00408 0.0
S321 S 0.89792 0.26085 0.8724 0.0
N322 N 0.8731 0.24139 0.94413 0.0
N323 N 0.92229 0.20806 0.86081 0.0
C324 C 0.91039 0.17147 0.91646 0.0
C325 C 0.88361 0.18946 0.96143 0.0
C326 C 0.36894 0.41254 0.27072 0.0
C327 C 0.39651 0.37784 0.32885 0.0
C328 C 0.3939 0.43923 0.21585 0.0
C329 C 0.44719 0.43176 0.21662 0.0
H330 H 0.32847 0.42111 0.26917 0.0
H331 H 0.37161 0.46748 0.17377 0.0
S332 S 0.53562 0.34214 0.3559 0.0
N333 N 0.47917 0.33583 0.38349 0.0
N334 N 0.52583 0.38468 0.27977 0.0
C335 C 0.47465 0.39573 0.27375 0.0
C336 C 0.44934 0.36901 0.32984 0.0
C337 C 0.15481 0.94663 0.8525 0.0
C338 C 0.13509 0.89867 0.88638 0.0
C339 C 0.13047 0.97471 0.78725 0.0
C340 C 0.08619 0.9552 0.754 0.0
H341 H 0.18961 0.962 0.87613 0.0
H342 H 0.14721 0.01104 0.76182 0.0
S343 S 0.01777 0.83329 0.8237 0.0
N344 N 0.06775 0.83416 0.88386 0.0
N345 N 0.02191 0.88681 0.76149 0.0
C346 C 0.06558 0.90792 0.78826 0.0
C347 C 0.09012 0.87962 0.8545 0.0
loop_
_geom_bond_atom_site_label_1
_geom_bond_atom_site_label_2
_geom_bond_distance
_geom_bond_site_symmetry_2
_ccdc_geom_bond_type
H0 C5 0.930 . S
H1 C8 0.930 . S
H2 C10 0.930 . S
H3 C4 1.016 . S
C4 H3 1.016 . S
C4 N11 1.286 . S
C5 H0 0.930 . S
C5 C6 1.397 . S
C5 C7 1.361 1_556 S
C6 C5 1.397 . S
C6 C10 1.390 1_556 S
C7 C5 1.361 1_554 S
C7 C8 1.393 . S
C7 N11 1.413 . S
C8 H1 0.930 . S
C8 C7 1.393 . S
C8 C9 1.399 . S
C9 C8 1.399 . S
C9 C10 1.381 . S
C10 H2 0.930 . S
C10 C6 1.390 1_554 S
C10 C9 1.381 . S
N11 C4 1.286 . S
N11 C7 1.413 . S
H12 C17 0.930 . S
H13 C20 0.930 . S
H14 C22 0.930 . S
H15 C16 1.016 . S
C16 H15 1.016 . S
C16 N23 1.286 . S
C17 H12 0.930 . S
C17 C18 1.397 . S
C17 C19 1.361 . S
C18 C17 1.397 . S
C18 C22 1.390 . S
C19 C17 1.361 . S
C19 C20 1.393 . S
C19 N23 1.413 . S
C20 H13 0.930 . S
C20 C19 1.393 . S
C20 C21 1.399 . S
C21 C20 1.399 . S
C21 C22 1.381 . S
C22 H14 0.930 . S
C22 C18 1.390 . S
C22 C21 1.381 . S
N23 C16 1.286 . S
N23 C19 1.413 . S
H24 C29 0.930 1_556 S
H25 C32 0.930 . S
H26 C34 0.930 . S
H27 C28 1.016 . S
C28 H27 1.016 . S
C28 N35 1.286 . S
C29 H24 0.930 1_554 S
C29 C30 1.397 . S
C29 C31 1.361 . S
C30 C29 1.397 . S
C30 C34 1.390 . S
C31 C29 1.361 . S
C31 C32 1.393 . S
C31 N35 1.413 . S
C32 H25 0.930 . S
C32 C31 1.393 . S
C32 C33 1.399 . S
C33 C32 1.399 . S
C33 C34 1.381 . S
C34 H26 0.930 . S
C34 C30 1.390 . S
C34 C33 1.381 . S
N35 C28 1.286 . S
N35 C31 1.413 . S
H36 C41 0.930 . S
H37 C44 0.930 . S
H38 C46 0.930 . S
H39 C40 1.016 . S
C40 H39 1.016 . S
C40 N47 1.286 . S
C41 H36 0.930 . S
C41 C42 1.397 . S
C41 C43 1.361 . S
C42 C41 1.397 . S
C42 C46 1.390 . S
C43 C41 1.361 . S
C43 C44 1.393 . S
C43 N47 1.413 . S
C44 H37 0.930 . S
C44 C43 1.393 . S
C44 C45 1.399 . S
C45 C44 1.399 . S
C45 C46 1.381 . S
C46 H38 0.930 . S
C46 C42 1.390 . S
C46 C45 1.381 . S
N47 C40 1.286 . S
N47 C43 1.413 . S
Tb48 N77 2.617 . S
Tb48 N83 2.572 . S
Tb48 O92 2.465 . S
Tb48 O93 2.387 . S
Tb48 O95 2.428 . S
Tb48 O96 2.308 1_565 S
Tb48 O100 2.349 1_465 S
Tb48 O103 2.393 1_455 S
Tb48 C112 2.802 . S
C49 N50 1.379 . S
C49 C52 1.416 . S
C49 C56 1.424 . S
N50 C49 1.379 . S
N50 C53 1.334 1_655 S
N50 Tb59 2.617 . S
C51 C53 1.390 . S
C51 C54 1.339 1_455 S
C51 H71 0.930 . S
C52 C49 1.416 . S
C52 C54 1.416 . S
C52 C58 1.448 . S
C53 N50 1.334 1_455 S
C53 C51 1.390 . S
C53 H64 0.930 . S
C54 C51 1.339 1_655 S
C54 C52 1.416 . S
C54 H75 0.930 . S
C55 C56 1.413 . S
C55 C57 1.427 . S
C55 C61 1.416 . S
C56 C49 1.424 . S
C56 C55 1.413 . S
C56 N60 1.361 . S
C57 C55 1.427 . S
C57 C58 1.328 . S
C57 H72 0.929 . S
C58 C52 1.448 . S
C58 C57 1.328 . S
C58 H73 0.930 . S
Tb59 N50 2.617 . S
Tb59 N60 2.572 . S
Tb59 O94 2.349 1_655 S
Tb59 O97 2.393 1_655 S
Tb59 O98 2.465 . S
Tb59 O99 2.387 . S
Tb59 O101 2.428 . S
Tb59 O102 2.308 1_545 S
Tb59 C123 2.802 . S
N60 C56 1.361 . S
N60 Tb59 2.572 . S
N60 C62 1.340 . S
C61 C55 1.416 . S
C61 C63 1.332 . S
C61 H69 0.931 . S
C62 N60 1.340 . S
C62 C63 1.407 . S
C62 H68 0.930 . S
C63 C61 1.332 . S
C63 C62 1.407 . S
C63 H65 0.929 . S
H64 C53 0.930 . S
H65 C63 0.929 . S
H66 C81 0.930 1_655 S
H67 C88 0.929 . S
H68 C62 0.930 . S
H69 C61 0.931 . S
H70 C84 0.930 . S
H71 C51 0.930 . S
H72 C57 0.929 . S
H73 C58 0.930 . S
H74 C79 0.930 1_655 S
H75 C54 0.930 . S
H76 C87 0.931 . S
N77 Tb48 2.617 . S
N77 C78 1.379 . S
N77 C81 1.334 . S
C78 N77 1.379 . S
C78 C80 1.416 . S
C78 C86 1.424 . S
C79 H74 0.930 1_455 S
C79 C81 1.390 . S
C79 C82 1.339 . S
C80 C78 1.416 . S
C80 C82 1.416 . S
C80 C113 1.448 . S
C81 H66 0.930 1_455 S
C81 N77 1.334 . S
C81 C79 1.390 . S
C82 C79 1.339 . S
C82 C80 1.416 . S
C82 H89 0.930 . S
N83 Tb48 2.572 . S
N83 C84 1.340 . S
N83 C86 1.361 . S
C84 H70 0.930 . S
C84 N83 1.340 . S
C84 C88 1.407 . S
C85 C86 1.413 . S
C85 C87 1.416 . S
C85 C114 1.427 . S
C86 C78 1.424 . S
C86 N83 1.361 . S
C86 C85 1.413 . S
C87 H76 0.931 . S
C87 C85 1.416 . S
C87 C88 1.332 . S
C88 H67 0.929 . S
C88 C84 1.407 . S
C88 C87 1.332 . S
H89 C82 0.930 . S
H90 C113 0.930 . S
H91 C114 0.929 . S
O92 Tb48 2.465 . S
O92 C112 1.264 . S
O93 Tb48 2.387 . S
O93 C104 1.264 . S
O94 Tb59 2.349 1_455 S
O94 C104 1.243 1_545 S
O95 Tb48 2.428 . S
O95 C112 1.256 . S
O96 Tb48 2.308 1_545 S
O96 C111 1.266 . S
O97 Tb59 2.393 1_455 S
O97 C111 1.248 . S
O98 Tb59 2.465 . S
O98 C123 1.264 . S
O99 Tb59 2.387 . S
O99 C115 1.264 . S
O100 Tb48 2.349 1_645 S
O100 C115 1.243 . S
O101 Tb59 2.428 . S
O101 C123 1.256 . S
O102 Tb59 2.308 1_565 S
O102 C122 1.266 . S
O103 Tb48 2.393 1_655 S
O103 C122 1.248 . S
C104 O93 1.264 . S
C104 O94 1.243 1_565 S
C105 C108 1.399 . S
C105 C110 1.383 . S
C105 C112 1.496 . S
C106 C107 1.399 . S
C106 C110 1.389 . S
C107 C106 1.399 . S
C107 C109 1.380 . S
C107 H124 0.929 . S
C108 C105 1.399 . S
C108 C109 1.392 . S
C108 H125 0.929 . S
C109 C107 1.380 . S
C109 C108 1.392 . S
C109 H126 0.929 . S
C110 C105 1.383 . S
C110 C106 1.389 . S
C110 H127 0.931 . S
C111 O96 1.266 . S
C111 O97 1.248 . S
C112 Tb48 2.802 . S
C112 O92 1.264 . S
C112 O95 1.256 . S
C112 C105 1.496 . S
C113 C80 1.448 . S
C113 H90 0.930 . S
C113 C114 1.328 . S
C114 C85 1.427 . S
C114 H91 0.929 . S
C114 C113 1.328 . S
C115 O99 1.264 . S
C115 O100 1.243 . S
C116 C119 1.399 . S
C116 C120 1.383 . S
C116 C123 1.496 . S
C117 C118 1.399 . S
C117 C120 1.389 . S
C118 C117 1.399 . S
C118 C121 1.380 . S
C118 H128 0.929 . S
C119 C116 1.399 . S
C119 C121 1.392 . S
C119 H129 0.929 . S
C120 C116 1.383 . S
C120 C117 1.389 . S
C120 H130 0.931 . S
C121 C118 1.380 . S
C121 C119 1.392 . S
C121 H131 0.929 . S
C122 O102 1.266 . S
C122 O103 1.248 . S
C123 Tb59 2.802 . S
C123 O98 1.264 . S
C123 O101 1.256 . S
C123 C116 1.496 . S
H124 C107 0.929 . S
H125 C108 0.929 . S
H126 C109 0.929 . S
H127 C110 0.931 . S
H128 C118 0.929 . S
H129 C119 0.929 . S
H130 C120 0.931 . S
H131 C121 0.929 . S
Tb132 N161 2.617 . S
Tb132 N167 2.572 . S
Tb132 O176 2.465 1_554 S
Tb132 O177 2.387 . S
Tb132 O179 2.428 1_554 S
Tb132 O180 2.308 . S
Tb132 O184 2.349 1_554 S
Tb132 O187 2.393 . S
Tb132 C196 2.802 1_554 S
C133 N134 1.379 . S
C133 C136 1.416 . S
C133 C140 1.424 . S
N134 C133 1.379 . S
N134 C137 1.334 . S
N134 Tb143 2.617 . S
C135 C137 1.390 . S
C135 C138 1.339 . S
C135 H155 0.930 . S
C136 C133 1.416 . S
C136 C138 1.416 . S
C136 C142 1.448 . S
C137 N134 1.334 . S
C137 C135 1.390 . S
C137 H148 0.930 . S
C138 C135 1.339 . S
C138 C136 1.416 . S
C138 H159 0.930 . S
C139 C140 1.413 . S
C139 C141 1.427 . S
C139 C145 1.416 . S
C140 C133 1.424 . S
C140 C139 1.413 . S
C140 N144 1.361 . S
C141 C139 1.427 . S
C141 C142 1.328 . S
C141 H156 0.929 . S
C142 C136 1.448 . S
C142 C141 1.328 . S
C142 H157 0.930 . S
Tb143 N134 2.617 . S
Tb143 N144 2.572 . S
Tb143 O178 2.349 . S
Tb143 O181 2.393 . S
Tb143 O182 2.465 . S
Tb143 O183 2.387 . S
Tb143 O185 2.428 . S
Tb143 O186 2.308 . S
Tb143 C207 2.802 . S
N144 C140 1.361 . S
N144 Tb143 2.572 . S
N144 C146 1.340 . S
C145 C139 1.416 . S
C145 C147 1.332 . S
C145 H153 0.931 . S
C146 N144 1.340 . S
C146 C147 1.407 . S
C146 H152 0.930 . S
C147 C145 1.332 . S
C147 C146 1.407 . S
C147 H149 0.929 . S
H148 C137 0.930 . S
H149 C147 0.929 . S
H150 C165 0.930 . S
H151 C172 0.929 . S
H152 C146 0.930 . S
H153 C145 0.931 . S
H154 C168 0.930 . S
H155 C135 0.930 . S
H156 C141 0.929 . S
H157 C142 0.930 . S
H158 C163 0.930 . S
H159 C138 0.930 . S
H160 C171 0.931 . S
N161 Tb132 2.617 . S
N161 C162 1.379 . S
N161 C165 1.334 1_554 S
C162 N161 1.379 . S
C162 C164 1.416 . S
C162 C170 1.424 . S
C163 H158 0.930 . S
C163 C165 1.390 . S
C163 C166 1.339 1_556 S
C164 C162 1.416 . S
C164 C166 1.416 . S
C164 C197 1.448 . S
C165 H150 0.930 . S
C165 N161 1.334 1_556 S
C165 C163 1.390 . S
C166 C163 1.339 1_554 S
C166 C164 1.416 . S
C166 H173 0.930 . S
N167 Tb132 2.572 . S
N167 C168 1.340 . S
N167 C170 1.361 . S
C168 H154 0.930 . S
C168 N167 1.340 . S
C168 C172 1.407 . S
C169 C170 1.413 . S
C169 C171 1.416 . S
C169 C198 1.427 . S
C170 C162 1.424 . S
C170 N167 1.361 . S
C170 C169 1.413 . S
C171 H160 0.931 . S
C171 C169 1.416 . S
C171 C172 1.332 . S
C172 H151 0.929 . S
C172 C168 1.407 . S
C172 C171 1.332 . S
H173 C166 0.930 . S
H174 C197 0.930 . S
H175 C198 0.929 . S
O176 Tb132 2.465 1_556 S
O176 C196 1.264 . S
O177 Tb132 2.387 . S
O177 C188 1.264 . S
O178 Tb143 2.349 . S
O178 C188 1.243 . S
O179 Tb132 2.428 1_556 S
O179 C196 1.256 . S
O180 Tb132 2.308 . S
O180 C195 1.266 . S
O181 Tb143 2.393 . S
O181 C195 1.248 . S
O182 Tb143 2.465 . S
O182 C207 1.264 . S
O183 Tb143 2.387 . S
O183 C199 1.264 1_554 S
O184 Tb132 2.349 1_556 S
O184 C199 1.243 . S
O185 Tb143 2.428 . S
O185 C207 1.256 . S
O186 Tb143 2.308 . S
O186 C206 1.266 . S
O187 Tb132 2.393 . S
O187 C206 1.248 . S
C188 O177 1.264 . S
C188 O178 1.243 . S
C189 C192 1.399 . S
C189 C194 1.383 . S
C189 C196 1.496 . S
C190 C191 1.399 . S
C190 C194 1.389 . S
C191 C190 1.399 . S
C191 C193 1.380 . S
C191 H208 0.929 . S
C192 C189 1.399 . S
C192 C193 1.392 . S
C192 H209 0.929 . S
C193 C191 1.380 . S
C193 C192 1.392 . S
C193 H210 0.929 . S
C194 C189 1.383 . S
C194 C190 1.389 . S
C194 H211 0.931 . S
C195 O180 1.266 . S
C195 O181 1.248 . S
C196 Tb132 2.802 1_556 S
C196 O176 1.264 . S
C196 O179 1.256 . S
C196 C189 1.496 . S
C197 C164 1.448 . S
C197 H174 0.930 . S
C197 C198 1.328 . S
C198 C169 1.427 . S
C198 H175 0.929 . S
C198 C197 1.328 . S
C199 O183 1.264 1_556 S
C199 O184 1.243 . S
C200 C203 1.399 . S
C200 C204 1.383 . S
C200 C207 1.496 . S
C201 C202 1.399 . S
C201 C204 1.389 . S
C202 C201 1.399 . S
C202 C205 1.380 . S
C202 H212 0.929 . S
C203 C200 1.399 . S
C203 C205 1.392 . S
C203 H213 0.929 . S
C204 C200 1.383 . S
C204 C201 1.389 . S
C204 H214 0.931 . S
C205 C202 1.380 . S
C205 C203 1.392 . S
C205 H215 0.929 . S
C206 O186 1.266 . S
C206 O187 1.248 . S
C207 Tb143 2.802 . S
C207 O182 1.264 . S
C207 O185 1.256 . S
C207 C200 1.496 . S
H208 C191 0.929 . S
H209 C192 0.929 . S
H210 C193 0.929 . S
H211 C194 0.931 . S
H212 C202 0.929 . S
H213 C203 0.929 . S
H214 C204 0.931 . S
H215 C205 0.929 . S
C216 C217 1.369 . S
C216 C218 1.419 . S
C216 H220 0.930 . S
C217 C216 1.369 . S
C217 C226 1.429 . S
C218 C216 1.419 . S
C218 C219 1.363 . S
C218 H221 0.929 . S
C219 C218 1.363 . S
C219 C225 1.428 . S
H220 C216 0.930 . S
H221 C218 0.929 . S
S222 N223 1.613 . S
S222 N224 1.610 . S
N223 S222 1.613 . S
N223 C226 1.350 . S
N224 S222 1.610 . S
N224 C225 1.351 . S
C225 C219 1.428 . S
C225 N224 1.351 . S
C225 C226 1.434 . S
C226 C217 1.429 . S
C226 N223 1.350 . S
C226 C225 1.434 . S
C227 C228 1.369 . S
C227 C229 1.419 . S
C227 H231 0.930 1_554 S
C228 C227 1.369 . S
C228 C237 1.429 . S
C229 C227 1.419 . S
C229 C230 1.363 . S
C229 H232 0.929 1_554 S
C230 C229 1.363 . S
C230 C236 1.428 . S
H231 C227 0.930 1_556 S
H232 C229 0.929 1_556 S
S233 N234 1.613 . S
S233 N235 1.610 . S
N234 S233 1.613 . S
N234 C237 1.350 . S
N235 S233 1.610 . S
N235 C236 1.351 . S
C236 C230 1.428 . S
C236 N235 1.351 . S
C236 C237 1.434 . S
C237 C228 1.429 . S
C237 N234 1.350 . S
C237 C236 1.434 . S
C238 C239 1.369 . S
C238 C240 1.419 . S
C238 H242 0.930 . S
C239 C238 1.369 . S
C239 C248 1.429 . S
C240 C238 1.419 . S
C240 C241 1.363 . S
C240 H243 0.929 . S
C241 C240 1.363 . S
C241 C247 1.428 . S
H242 C238 0.930 . S
H243 C240 0.929 . S
S244 N245 1.613 . S
S244 N246 1.610 . S
N245 S244 1.613 . S
N245 C248 1.350 . S
N246 S244 1.610 . S
N246 C247 1.351 . S
C247 C241 1.428 . S
C247 N246 1.351 . S
C247 C248 1.434 . S
C248 C239 1.429 . S
C248 N245 1.350 . S
C248 C247 1.434 . S
C249 C250 1.369 . S
C249 C251 1.419 . S
C249 H253 0.930 . S
C250 C249 1.369 . S
C250 C259 1.429 . S
C251 C249 1.419 . S
C251 C252 1.363 . S
C251 H254 0.929 . S
C252 C251 1.363 . S
C252 C258 1.428 . S
H253 C249 0.930 . S
H254 C251 0.929 . S
S255 N256 1.613 . S
S255 N257 1.610 . S
N256 S255 1.613 . S
N256 C259 1.350 1_556 S
N257 S255 1.610 . S
N257 C258 1.351 1_556 S
C258 C252 1.428 . S
C258 N257 1.351 1_554 S
C258 C259 1.434 . S
C259 C250 1.429 . S
C259 N256 1.350 1_554 S
C259 C258 1.434 . S
C260 C261 1.369 . S
C260 C262 1.419 . S
C260 H264 0.930 . S
C261 C260 1.369 . S
C261 C270 1.429 . S
C262 C260 1.419 . S
C262 C263 1.363 . S
C262 H265 0.929 . S
C263 C262 1.363 . S
C263 C269 1.428 . S
H264 C260 0.930 . S
H265 C262 0.929 . S
S266 N267 1.613 . S
S266 N268 1.610 . S
N267 S266 1.613 . S
N267 C270 1.350 . S
N268 S266 1.610 . S
N268 C269 1.351 . S
C269 C263 1.428 . S
C269 N268 1.351 . S
C269 C270 1.434 . S
C270 C261 1.429 . S
C270 N267 1.350 . S
C270 C269 1.434 . S
C271 C272 1.369 . S
C271 C273 1.419 . S
C271 H275 0.930 . S
C272 C271 1.369 . S
C272 C281 1.429 . S
C273 C271 1.419 . S
C273 C274 1.363 . S
C273 H276 0.929 . S
C274 C273 1.363 . S
C274 C280 1.428 . S
H275 C271 0.930 . S
H276 C273 0.929 . S
S277 N278 1.613 . S
S277 N279 1.610 . S
N278 S277 1.613 . S
N278 C281 1.350 . S
N279 S277 1.610 . S
N279 C280 1.351 . S
C280 C274 1.428 . S
C280 N279 1.351 . S
C280 C281 1.434 . S
C281 C272 1.429 . S
C281 N278 1.350 . S
C281 C280 1.434 . S
C282 C283 1.369 . S
C282 C284 1.419 . S
C282 H286 0.930 . S
C283 C282 1.369 . S
C283 C292 1.429 . S
C284 C282 1.419 . S
C284 C285 1.363 . S
C284 H287 0.929 . S
C285 C284 1.363 . S
C285 C291 1.428 . S
H286 C282 0.930 . S
H287 C284 0.929 . S
S288 N289 1.613 . S
S288 N290 1.610 . S
N289 S288 1.613 . S
N289 C292 1.350 . S
N290 S288 1.610 . S
N290 C291 1.351 . S
C291 C285 1.428 . S
C291 N290 1.351 . S
C291 C292 1.434 . S
C292 C283 1.429 . S
C292 N289 1.350 . S
C292 C291 1.434 . S
C293 C294 1.369 . S
C293 C295 1.419 . S
C293 H297 0.930 . S
C294 C293 1.369 . S
C294 C303 1.429 . S
C295 C293 1.419 . S
C295 C296 1.363 . S
C295 H298 0.929 . S
C296 C295 1.363 . S
C296 C302 1.428 . S
H297 C293 0.930 . S
H298 C295 0.929 . S
S299 N300 1.613 . S
S299 N301 1.610 . S
N300 S299 1.613 . S
N300 C303 1.350 . S
N301 S299 1.610 . S
N301 C302 1.351 . S
C302 C296 1.428 . S
C302 N301 1.351 . S
C302 C303 1.434 . S
C303 C294 1.429 . S
C303 N300 1.350 . S
C303 C302 1.434 . S
C304 C305 1.369 . S
C304 C306 1.419 . S
C304 H308 0.930 . S
C305 C304 1.369 . S
C305 C314 1.429 . S
C306 C304 1.419 . S
C306 C307 1.363 . S
C306 H309 0.929 . S
C307 C306 1.363 . S
C307 C313 1.428 . S
H308 C304 0.930 . S
H309 C306 0.929 . S
S310 N311 1.613 . S
S310 N312 1.610 . S
N311 S310 1.613 . S
N311 C314 1.350 . S
N312 S310 1.610 . S
N312 C313 1.351 . S
C313 C307 1.428 . S
C313 N312 1.351 . S
C313 C314 1.434 . S
C314 C305 1.429 . S
C314 N311 1.350 . S
C314 C313 1.434 . S
C315 C316 1.369 . S
C315 C317 1.419 . S
C315 H319 0.930 . S
C316 C315 1.369 . S
C316 C325 1.429 . S
C317 C315 1.419 . S
C317 C318 1.363 . S
C317 H320 0.929 . S
C318 C317 1.363 . S
C318 C324 1.428 . S
H319 C315 0.930 . S
H320 C317 0.929 . S
S321 N322 1.613 . S
S321 N323 1.610 . S
N322 S321 1.613 . S
N322 C325 1.350 . S
N323 S321 1.610 . S
N323 C324 1.351 . S
C324 C318 1.428 . S
C324 N323 1.351 . S
C324 C325 1.434 . S
C325 C316 1.429 . S
C325 N322 1.350 . S
C325 C324 1.434 . S
C326 C327 1.369 . S
C326 C328 1.419 . S
C326 H330 0.930 . S
C327 C326 1.369 . S
C327 C336 1.429 . S
C328 C326 1.419 . S
C328 C329 1.363 . S
C328 H331 0.929 . S
C329 C328 1.363 . S
C329 C335 1.428 . S
H330 C326 0.930 . S
H331 C328 0.929 . S
S332 N333 1.613 . S
S332 N334 1.610 . S
N333 S332 1.613 . S
N333 C336 1.350 . S
N334 S332 1.610 . S
N334 C335 1.351 . S
C335 C329 1.428 . S
C335 N334 1.351 . S
C335 C336 1.434 . S
C336 C327 1.429 . S
C336 N333 1.350 . S
C336 C335 1.434 . S
C337 C338 1.369 . S
C337 C339 1.419 . S
C337 H341 0.930 . S
C338 C337 1.369 . S
C338 C347 1.429 . S
C339 C337 1.419 . S
C339 C340 1.363 . S
C339 H342 0.929 1_565 S
C340 C339 1.363 . S
C340 C346 1.428 . S
H341 C337 0.930 . S
H342 C339 0.929 1_545 S
S343 N344 1.613 . S
S343 N345 1.610 . S
N344 S343 1.613 . S
N344 C347 1.350 . S
N345 S343 1.610 . S
N345 C346 1.351 . S
C346 C340 1.428 . S
C346 N345 1.351 . S
C346 C347 1.434 . S
C347 C338 1.429 . S
C347 N344 1.350 . S
C347 C346 1.434 . S
C219 C111 1.636 . S
C217 C40 1.639 . S
C228 C4 1.644 . S
C230 C206 1.636 . S
C239 C16 1.631 . S
C241 C122 1.652 . S
C250 C28 1.604 . S
C252 C195 1.611 . S
C263 C106 1.412 . S
C261 C9 1.587 . S
C274 C199 1.689 . S
C272 C18 1.683 . S
C283 C33 1.627 . S
C285 C115 1.649 . S
C294 C45 1.592 . S
C296 C190 1.432 . S
C307 C201 1.402 . S
C305 C21 1.562 . S
C318 C117 1.357 . S
C316 C30 1.550 1_556 S
C329 C188 1.628 . S
C327 C42 1.612 . S
C338 C6 1.572 . S
C340 C104 1.599 . S
