# Generated by pormake.
# Topology eea, (3,6)-cn, num edge types: 1
# Building blocks:
#     Node 0, Type 0, BuildingBlock: BETDAH_clean_linker_0, # of connection points: 3
#     Node 1, Type 0, BuildingBlock: BETDAH_clean_linker_0, # of connection points: 3
#     Node 2, Type 0, BuildingBlock: BETDAH_clean_linker_0, # of connection points: 3
#     Node 3, Type 0, BuildingBlock: BETDAH_clean_linker_0, # of connection points: 3
#     Node 4, Type 0, BuildingBlock: BETDAH_clean_linker_0, # of connection points: 3
#     Node 5, Type 0, BuildingBlock: BETDAH_clean_linker_0, # of connection points: 3
#     Node 6, Type 0, BuildingBlock: BETDAH_clean_linker_0, # of connection points: 3
#     Node 7, Type 0, BuildingBlock: BETDAH_clean_linker_0, # of connection points: 3
#     Node 8, Type 0, BuildingBlock: BETDAH_clean_linker_0, # of connection points: 3
#     Node 9, Type 0, BuildingBlock: BETDAH_clean_linker_0, # of connection points: 3
#     Node 10, Type 0, BuildingBlock: BETDAH_clean_linker_0, # of connection points: 3
#     Node 11, Type 0, BuildingBlock: BETDAH_clean_linker_0, # of connection points: 3
#     Node 12, Type 0, BuildingBlock: BETDAH_clean_linker_0, # of connection points: 3
#     Node 13, Type 0, BuildingBlock: BETDAH_clean_linker_0, # of connection points: 3
#     Node 14, Type 0, BuildingBlock: BETDAH_clean_linker_0, # of connection points: 3
#     Node 15, Type 0, BuildingBlock: BETDAH_clean_linker_0, # of connection points: 3
#     Node 16, Type 0, BuildingBlock: BETDAH_clean_linker_0, # of connection points: 3
#     Node 17, Type 0, BuildingBlock: BETDAH_clean_linker_0, # of connection points: 3
#     Node 18, Type 1, BuildingBlock: CIFDUS_clean_sbu_1, # of connection points: 6
#     Node 19, Type 1, BuildingBlock: CIFDUS_clean_sbu_1, # of connection points: 6
#     Node 20, Type 1, BuildingBlock: CIFDUS_clean_sbu_1, # of connection points: 6
#     Node 21, Type 1, BuildingBlock: CIFDUS_clean_sbu_1, # of connection points: 6
#     Node 22, Type 1, BuildingBlock: CIFDUS_clean_sbu_1, # of connection points: 6
#     Node 23, Type 1, BuildingBlock: CIFDUS_clean_sbu_1, # of connection points: 6
#     Node 24, Type 1, BuildingBlock: CIFDUS_clean_sbu_1, # of connection points: 6
#     Node 25, Type 1, BuildingBlock: CIFDUS_clean_sbu_1, # of connection points: 6
#     Node 26, Type 1, BuildingBlock: CIFDUS_clean_sbu_1, # of connection points: 6
#     Edge 27, Type (0, 1), BuildingBlock: MIFKUJ_clean_linker_0, # of connection points: 2
#     Edge 28, Type (0, 1), BuildingBlock: MIFKUJ_clean_linker_0, # of connection points: 2
#     Edge 29, Type (0, 1), BuildingBlock: MIFKUJ_clean_linker_0, # of connection points: 2
#     Edge 30, Type (0, 1), BuildingBlock: MIFKUJ_clean_linker_0, # of connection points: 2
#     Edge 31, Type (0, 1), BuildingBlock: MIFKUJ_clean_linker_0, # of connection points: 2
#     Edge 32, Type (0, 1), BuildingBlock: MIFKUJ_clean_linker_0, # of connection points: 2
#     Edge 33, Type (0, 1), BuildingBlock: MIFKUJ_clean_linker_0, # of connection points: 2
#     Edge 34, Type (0, 1), BuildingBlock: MIFKUJ_clean_linker_0, # of connection points: 2
#     Edge 35, Type (0, 1), BuildingBlock: MIFKUJ_clean_linker_0, # of connection points: 2
#     Edge 36, Type (0, 1), BuildingBlock: MIFKUJ_clean_linker_0, # of connection points: 2
#     Edge 37, Type (0, 1), BuildingBlock: MIFKUJ_clean_linker_0, # of connection points: 2
#     Edge 38, Type (0, 1), BuildingBlock: MIFKUJ_clean_linker_0, # of connection points: 2
#     Edge 39, Type (0, 1), BuildingBlock: MIFKUJ_clean_linker_0, # of connection points: 2
#     Edge 40, Type (0, 1), BuildingBlock: MIFKUJ_clean_linker_0, # of connection points: 2
#     Edge 41, Type (0, 1), BuildingBlock: MIFKUJ_clean_linker_0, # of connection points: 2
#     Edge 42, Type (0, 1), BuildingBlock: MIFKUJ_clean_linker_0, # of connection points: 2
#     Edge 43, Type (0, 1), BuildingBlock: MIFKUJ_clean_linker_0, # of connection points: 2
#     Edge 44, Type (0, 1), BuildingBlock: MIFKUJ_clean_linker_0, # of connection points: 2
#     Edge 45, Type (0, 1), BuildingBlock: MIFKUJ_clean_linker_0, # of connection points: 2
#     Edge 46, Type (0, 1), BuildingBlock: MIFKUJ_clean_linker_0, # of connection points: 2
#     Edge 47, Type (0, 1), BuildingBlock: MIFKUJ_clean_linker_0, # of connection points: 2
#     Edge 48, Type (0, 1), BuildingBlock: MIFKUJ_clean_linker_0, # of connection points: 2
#     Edge 49, Type (0, 1), BuildingBlock: MIFKUJ_clean_linker_0, # of connection points: 2
#     Edge 50, Type (0, 1), BuildingBlock: MIFKUJ_clean_linker_0, # of connection points: 2
#     Edge 51, Type (0, 1), BuildingBlock: MIFKUJ_clean_linker_0, # of connection points: 2
#     Edge 52, Type (0, 1), BuildingBlock: MIFKUJ_clean_linker_0, # of connection points: 2
#     Edge 53, Type (0, 1), BuildingBlock: MIFKUJ_clean_linker_0, # of connection points: 2
#     Edge 54, Type (0, 1), BuildingBlock: MIFKUJ_clean_linker_0, # of connection points: 2
#     Edge 55, Type (0, 1), BuildingBlock: MIFKUJ_clean_linker_0, # of connection points: 2
#     Edge 56, Type (0, 1), BuildingBlock: MIFKUJ_clean_linker_0, # of connection points: 2
#     Edge 57, Type (0, 1), BuildingBlock: MIFKUJ_clean_linker_0, # of connection points: 2
#     Edge 58, Type (0, 1), BuildingBlock: MIFKUJ_clean_linker_0, # of connection points: 2
#     Edge 59, Type (0, 1), BuildingBlock: MIFKUJ_clean_linker_0, # of connection points: 2
#     Edge 60, Type (0, 1), BuildingBlock: MIFKUJ_clean_linker_0, # of connection points: 2
#     Edge 61, Type (0, 1), BuildingBlock: MIFKUJ_clean_linker_0, # of connection points: 2
#     Edge 62, Type (0, 1), BuildingBlock: MIFKUJ_clean_linker_0, # of connection points: 2
#     Edge 63, Type (0, 1), BuildingBlock: MIFKUJ_clean_linker_0, # of connection points: 2
#     Edge 64, Type (0, 1), BuildingBlock: MIFKUJ_clean_linker_0, # of connection points: 2
#     Edge 65, Type (0, 1), BuildingBlock: MIFKUJ_clean_linker_0, # of connection points: 2
#     Edge 66, Type (0, 1), BuildingBlock: MIFKUJ_clean_linker_0, # of connection points: 2
#     Edge 67, Type (0, 1), BuildingBlock: MIFKUJ_clean_linker_0, # of connection points: 2
#     Edge 68, Type (0, 1), BuildingBlock: MIFKUJ_clean_linker_0, # of connection points: 2
#     Edge 69, Type (0, 1), BuildingBlock: MIFKUJ_clean_linker_0, # of connection points: 2
#     Edge 70, Type (0, 1), BuildingBlock: MIFKUJ_clean_linker_0, # of connection points: 2
#     Edge 71, Type (0, 1), BuildingBlock: MIFKUJ_clean_linker_0, # of connection points: 2
#     Edge 72, Type (0, 1), BuildingBlock: MIFKUJ_clean_linker_0, # of connection points: 2
#     Edge 73, Type (0, 1), BuildingBlock: MIFKUJ_clean_linker_0, # of connection points: 2
#     Edge 74, Type (0, 1), BuildingBlock: MIFKUJ_clean_linker_0, # of connection points: 2
#     Edge 75, Type (0, 1), BuildingBlock: MIFKUJ_clean_linker_0, # of connection points: 2
#     Edge 76, Type (0, 1), BuildingBlock: MIFKUJ_clean_linker_0, # of connection points: 2
#     Edge 77, Type (0, 1), BuildingBlock: MIFKUJ_clean_linker_0, # of connection points: 2
#     Edge 78, Type (0, 1), BuildingBlock: MIFKUJ_clean_linker_0, # of connection points: 2
#     Edge 79, Type (0, 1), BuildingBlock: MIFKUJ_clean_linker_0, # of connection points: 2
#     Edge 80, Type (0, 1), BuildingBlock: MIFKUJ_clean_linker_0, # of connection points: 2
# Relax obj value: 0.084
# Max RMSD: 0.118
# Mean RMSD: 0.102
data_MOF--net-eea--node1-CIFDUS_clean_sbu_1--node2-BETDAH_clean_linker_0--edge1-MIFKUJ_clean_linker_0
_symmetry_space_group_name_H-M    P1
_symmetry_Int_Tables_number       1
_symmetry_cell_setting            triclinic
loop_
_symmetry_equiv_pos_as_xyz
'x, y, z'
_cell_length_a     75.403117
_cell_length_b     74.796239
_cell_length_c     58.162142
_cell_angle_alpha  90.18475
_cell_angle_beta   90.179294
_cell_angle_gamma 120.03708
loop_
_atom_site_label
_atom_site_type_symbol
_atom_site_fract_x
_atom_site_fract_y
_atom_site_fract_z
_atom_type_partial_charge
H0 H 0.24767 0.09732 0.40073 0.0
H1 H 0.25659 0.15842 0.39106 0.0
H2 H 0.23434 0.11418 0.33537 0.0
C3 C 0.24711 0.10883 0.38992 0.0
C4 C 0.24036 0.10358 0.36724 0.0
C5 C 0.25346 0.12862 0.39873 0.0
C6 C 0.2516 0.14298 0.3847 0.0
C7 C 0.24455 0.13767 0.36176 0.0
C8 C 0.23918 0.11804 0.35314 0.0
N9 N 0.2445 0.15223 0.34626 0.0
C10 C 0.23675 0.16515 0.35141 0.0
H11 H 0.91049 0.15594 0.39346 0.0
H12 H 0.85218 0.10017 0.3846 0.0
H13 H 0.89569 0.12314 0.32923 0.0
C14 C 0.89969 0.14309 0.38284 0.0
C15 C 0.90528 0.14106 0.36051 0.0
C16 C 0.88059 0.12847 0.39178 0.0
C17 C 0.86707 0.11143 0.37804 0.0
C18 C 0.87246 0.1097 0.35528 0.0
C19 C 0.89153 0.12455 0.3467 0.0
N20 N 0.85866 0.09403 0.34005 0.0
C21 C 0.84601 0.07355 0.34621 0.0
H22 H 0.85367 0.75693 0.40182 0.0
H23 H 0.90902 0.7549 0.39041 0.0
H24 H 0.88176 0.77144 0.33526 0.0
C25 C 0.86578 0.75866 0.39039 0.0
C26 C 0.86588 0.76463 0.36762 0.0
C27 C 0.88123 0.75518 0.39878 0.0
C28 C 0.89708 0.75766 0.38406 0.0
C29 C 0.89726 0.76367 0.36105 0.0
C30 C 0.88158 0.76693 0.35299 0.0
N31 N 0.91257 0.76616 0.34522 0.0
C32 C 0.93265 0.77201 0.35098 0.0
H33 H 0.10187 0.25212 0.62335 0.0
H34 H 0.16296 0.26357 0.63784 0.0
H35 H 0.11593 0.23672 0.68916 0.0
C36 C 0.11302 0.25175 0.63486 0.0
C37 C 0.10674 0.24364 0.65685 0.0
C38 C 0.13342 0.25958 0.62778 0.0
C39 C 0.14716 0.25767 0.64277 0.0
C40 C 0.14073 0.24917 0.66486 0.0
C41 C 0.12071 0.24275 0.67196 0.0
N42 N 0.15439 0.24819 0.68092 0.0
C43 C 0.16718 0.24034 0.67578 0.0
H44 H 0.75958 0.85508 0.62149 0.0
H45 H 0.75131 0.90665 0.63732 0.0
H46 H 0.77465 0.88242 0.68897 0.0
C47 C 0.76057 0.86658 0.63367 0.0
C48 C 0.76816 0.86735 0.65582 0.0
C49 C 0.75422 0.88044 0.62703 0.0
C50 C 0.75601 0.89573 0.64251 0.0
C51 C 0.76338 0.89641 0.66499 0.0
C52 C 0.76892 0.88185 0.6717 0.0
N53 N 0.76496 0.91121 0.68137 0.0
C54 C 0.77287 0.93199 0.67637 0.0
H55 H 0.16054 0.91048 0.62002 0.0
H56 H 0.10961 0.84877 0.629 0.0
H57 H 0.12857 0.89339 0.68406 0.0
C58 C 0.14836 0.89888 0.6305 0.0
C59 C 0.1459 0.90418 0.65279 0.0
C60 C 0.13569 0.87891 0.62171 0.0
C61 C 0.11939 0.86438 0.63529 0.0
C62 C 0.11675 0.86971 0.65781 0.0
C63 C 0.13018 0.88954 0.66651 0.0
N64 N 0.10249 0.85476 0.67307 0.0
C65 C 0.0816 0.84288 0.66871 0.0
H66 H 0.91868 0.43582 0.73779 0.0
H67 H 0.92065 0.49293 0.72273 0.0
H68 H 0.90355 0.44663 0.66978 0.0
C69 C 0.91684 0.44564 0.72547 0.0
C70 C 0.9106 0.43866 0.7029 0.0
C71 C 0.9207 0.46513 0.73262 0.0
C72 C 0.91759 0.47778 0.71726 0.0
C73 C 0.91122 0.47094 0.6945 0.0
C74 C 0.90806 0.45158 0.68742 0.0
N75 N 0.9088 0.48344 0.67792 0.0
C76 C 0.90165 0.49695 0.68266 0.0
H77 H 0.57574 0.49248 0.72517 0.0
H78 H 0.52193 0.43192 0.71854 0.0
H79 H 0.56472 0.45794 0.66292 0.0
C80 C 0.56614 0.4785 0.71547 0.0
C81 C 0.57253 0.47666 0.69351 0.0
C82 C 0.54823 0.46232 0.72527 0.0
C83 C 0.53584 0.44461 0.71162 0.0
C84 C 0.54162 0.44337 0.68882 0.0
C85 C 0.56 0.45929 0.68013 0.0
N86 N 0.52947 0.42661 0.6738 0.0
C87 C 0.51559 0.40659 0.68047 0.0
H88 H 0.51855 0.09037 0.73258 0.0
H89 H 0.57139 0.08302 0.72423 0.0
H90 H 0.5504 0.10551 0.66845 0.0
C91 C 0.53086 0.0913 0.72211 0.0
C92 C 0.53285 0.09846 0.6996 0.0
C93 C 0.54431 0.08524 0.73121 0.0
C94 C 0.56094 0.08779 0.7177 0.0
C95 C 0.56316 0.09528 0.69502 0.0
C96 C 0.54897 0.10034 0.68609 0.0
N97 N 0.57823 0.0961 0.67991 0.0
C98 C 0.59855 0.10342 0.68588 0.0
H99 H 0.76971 0.58892 0.95583 0.0
H100 H 0.82745 0.59255 0.97026 0.0
H101 H 0.78107 0.5723 0.02261 0.0
C102 C 0.77984 0.58714 0.96772 0.0
C103 C 0.77312 0.57987 0.9899 0.0
C104 C 0.79946 0.59202 0.96065 0.0
C105 C 0.81232 0.58898 0.97576 0.0
C106 C 0.80565 0.58194 0.9983 0.0
C107 C 0.78625 0.57789 0.00535 0.0
N108 N 0.81807 0.5791 0.01452 0.0
C109 C 0.83167 0.57236 0.00904 0.0
H110 H 0.42002 0.18277 0.96123 0.0
H111 H 0.42262 0.24111 0.97126 0.0
H112 H 0.43946 0.21392 0.02617 0.0
C113 C 0.42328 0.19589 0.97201 0.0
C114 C 0.43052 0.19664 0.99439 0.0
C115 C 0.42056 0.21182 0.96312 0.0
C116 C 0.42465 0.22866 0.97761 0.0
C117 C 0.43129 0.22925 1.00051 0.0
C118 C 0.43419 0.21326 0.00866 0.0
N119 N 0.43477 0.24532 0.01611 0.0
C120 C 0.44155 0.26566 0.00994 0.0
H121 H 0.82843 0.24176 0.95415 0.0
H122 H 0.77383 0.18278 0.96413 0.0
H123 H 0.79575 0.22917 0.01759 0.0
C124 C 0.81575 0.23115 0.96483 0.0
C125 C 0.8136 0.23766 0.9866 0.0
C126 C 0.80167 0.21138 0.9565 0.0
C127 C 0.78474 0.19816 0.97022 0.0
C128 C 0.78274 0.20459 0.99246 0.0
C129 C 0.79724 0.22429 1.00049 0.0
N130 N 0.76727 0.19127 0.00789 0.0
C131 C 0.74708 0.17759 0.00174 0.0
H132 H 0.5852 0.76933 0.07208 0.0
H133 H 0.59043 0.82751 0.05417 0.0
H134 H 0.56784 0.778 0.00437 0.0
C135 C 0.58341 0.77903 0.05953 0.0
C136 C 0.57554 0.7711 0.03769 0.0
C137 C 0.58899 0.79932 0.06548 0.0
C138 C 0.58633 0.81187 0.04951 0.0
C139 C 0.57872 0.80412 0.02731 0.0
C140 C 0.57385 0.78395 0.02138 0.0
N141 N 0.57603 0.81619 0.0104 0.0
C142 C 0.5694 0.83013 0.01511 0.0
H143 H 0.24404 0.82106 0.0624 0.0
H144 H 0.18594 0.76569 0.0509 0.0
H145 H 0.23095 0.79028 0.997 0.0
C146 C 0.23359 0.80846 0.05126 0.0
C147 C 0.23966 0.80725 0.02893 0.0
C148 C 0.21435 0.79353 0.05945 0.0
C149 C 0.20091 0.77723 0.0448 0.0
C150 C 0.20697 0.77608 0.02214 0.0
C151 C 0.22628 0.79118 0.01438 0.0
N152 N 0.19391 0.76048 0.00636 0.0
C153 C 0.18057 0.74004 0.01215 0.0
H154 H 0.18646 0.42239 0.06815 0.0
H155 H 0.24069 0.41827 0.05644 0.0
H156 H 0.21536 0.43783 0.00205 0.0
C157 C 0.19858 0.42401 0.05681 0.0
C158 C 0.19927 0.43072 0.03427 0.0
C159 C 0.21347 0.41961 0.06498 0.0
C160 C 0.22925 0.42185 0.05029 0.0
C161 C 0.2299 0.42848 0.02747 0.0
C162 C 0.21484 0.43276 0.01961 0.0
N163 N 0.2449 0.43018 0.01161 0.0
C164 C 0.26546 0.43813 0.01702 0.0
H165 H 0.43651 0.91962 0.2877 0.0
H166 H 0.49435 0.92466 0.30424 0.0
H167 H 0.44865 0.90765 0.35669 0.0
C168 C 0.44657 0.91864 0.30036 0.0
C169 C 0.43996 0.91301 0.32306 0.0
C170 C 0.46616 0.92317 0.29365 0.0
C171 C 0.47918 0.92119 0.30945 0.0
C172 C 0.47258 0.9152 0.3322 0.0
C173 C 0.45327 0.91164 0.33896 0.0
N174 N 0.48515 0.91327 0.34899 0.0
C175 C 0.49881 0.90641 0.3443 0.0
H176 H 0.09308 0.52123 0.28891 0.0
H177 H 0.08456 0.57306 0.30253 0.0
H178 H 0.10651 0.54905 0.35593 0.0
C179 C 0.09386 0.53298 0.30053 0.0
C180 C 0.1009 0.53387 0.32296 0.0
C181 C 0.08792 0.54695 0.29287 0.0
C182 C 0.08892 0.56202 0.30824 0.0
C183 C 0.09558 0.56271 0.3311 0.0
C184 C 0.1011 0.5483 0.33847 0.0
N185 N 0.09692 0.57766 0.34709 0.0
C186 C 0.1044 0.59827 0.34161 0.0
H187 H 0.48982 0.5738 0.28517 0.0
H188 H 0.4407 0.51256 0.30038 0.0
H189 H 0.46444 0.55966 0.35308 0.0
C190 C 0.47877 0.56285 0.29721 0.0
C191 C 0.47828 0.56919 0.31968 0.0
C192 C 0.46553 0.54247 0.29019 0.0
C193 C 0.45096 0.52838 0.30567 0.0
C194 C 0.45056 0.53464 0.32848 0.0
C195 C 0.46457 0.55492 0.33548 0.0
N196 N 0.43732 0.52055 0.34517 0.0
C197 C 0.41625 0.50838 0.34218 0.0
O198 O 0.45801 0.98154 0.00763 0.0
Mn199 Mn 0.48777 0.00578 0.01301 0.0
O200 O 0.43955 0.98542 0.03537 0.0
Mn201 Mn 0.4589 0.01149 0.04553 0.0
O202 O 0.51786 0.02993 0.01839 0.0
O203 O 0.49778 0.98551 0.00322 0.0
Mn204 Mn 0.51394 -6e-05 0.98028 0.0
O205 O 0.48823 0.01725 0.97949 0.0
O206 O 0.53553 0.02448 0.99096 0.0
O207 O 0.48752 0.99592 0.04727 0.0
O208 O 0.47504 0.0119 0.0693 0.0
O209 O 0.51717 0.97802 0.98034 0.0
O210 O 0.49874 0.00093 0.95648 0.0
C211 C 0.46762 0.03437 0.01983 0.0
C212 C 0.44127 0.97547 0.01863 0.0
C213 C 0.53457 0.03493 0.00768 0.0
C214 C 0.50413 0.9727 0.99701 0.0
C215 C 0.49112 0.01238 0.95923 0.0
C216 C 0.48441 0.00181 0.06707 0.0
O217 O 0.47752 0.02473 0.02418 0.0
O218 O 0.45398 0.03158 0.03504 0.0
O219 O 0.02744 0.47763 0.00782 0.0
Mn220 Mn 0.00362 0.48387 0.01106 0.0
O221 O 0.02485 0.46007 0.03996 0.0
Mn222 Mn 0.9983 0.45302 0.04786 0.0
O223 O 0.97991 0.49061 0.01438 0.0
O224 O 0.02302 0.51265 0.99859 0.0
Mn225 Mn 0.00975 0.51705 0.97644 0.0
O226 O 0.99263 0.47128 0.97766 0.0
O227 O 0.98772 0.5171 0.99032 0.0
O228 O 0.01387 0.49616 0.04477 0.0
O229 O 0.99642 0.46996 0.06913 0.0
O230 O 0.03459 0.54034 0.97707 0.0
O231 O 0.00387 0.49819 0.95363 0.0
C232 C 0.9773 0.43555 0.02194 0.0
C233 C 0.03417 0.46914 0.0217 0.0
C234 C 0.97653 0.50443 0.00573 0.0
C235 C 0.03751 0.53153 0.99468 0.0
C236 C 0.99498 0.47897 0.95731 0.0
C237 C 0.00733 0.48916 0.06518 0.0
O238 O 0.98465 0.45534 0.02425 0.0
O239 O 0.98031 0.42664 0.03939 0.0
O240 O 0.55294 0.52829 0.01585 0.0
Mn241 Mn 0.52339 0.52198 0.00927 0.0
O242 O 0.56551 0.53999 0.98162 0.0
Mn243 Mn 0.54618 0.54799 0.97641 0.0
O244 O 0.49282 0.51434 0.00482 0.0
O245 O 0.51416 0.49282 0.02011 0.0
Mn246 Mn 0.49914 0.48935 0.04449 0.0
O247 O 0.52299 0.53346 0.04258 0.0
O248 O 0.47705 0.4913 0.0334 0.0
O249 O 0.52277 0.50946 0.97554 0.0
O250 O 0.52841 0.53491 0.95304 0.0
O251 O 0.49883 0.46508 0.0417 0.0
O252 O 0.51519 0.50767 0.06673 0.0
C253 C 0.54567 0.57173 0.99152 0.0
C254 C 0.56694 0.53338 1.00103 0.0
C255 C 0.47672 0.50184 0.01627 0.0
C256 C 0.50948 0.47378 0.02348 0.0
C257 C 0.52176 0.52656 0.06307 0.0
C258 C 0.52226 0.5161 0.95529 0.0
O259 O 0.53374 0.55298 1.0 0.0
O260 O 0.55825 0.57472 0.97488 0.0
O261 O 0.12538 0.3119 0.33684 0.0
Mn262 Mn 0.15476 0.33677 0.34262 0.0
O263 O 0.11045 0.31237 0.3688 0.0
Mn264 Mn 0.13031 0.33967 0.37324 0.0
O265 O 0.18581 0.36133 0.34523 0.0
O266 O 0.16392 0.3167 0.33333 0.0
Mn267 Mn 0.18023 0.32674 0.30977 0.0
O268 O 0.15397 0.34564 0.30821 0.0
O269 O 0.20207 0.35124 0.32022 0.0
O270 O 0.15627 0.32726 0.37749 0.0
O271 O 0.14642 0.34505 0.39817 0.0
O272 O 0.17885 0.30211 0.31534 0.0
O273 O 0.16534 0.32889 0.28628 0.0
C274 C 0.13137 0.36394 0.35792 0.0
C275 C 0.11032 0.30343 0.35047 0.0
C276 C 0.20215 0.36433 0.33447 0.0
C277 C 0.16718 0.3013 0.33207 0.0
C278 C 0.15681 0.3397 0.28845 0.0
C279 C 0.15436 0.33389 0.39732 0.0
O280 O 0.14389 0.35755 0.35018 0.0
O281 O 0.11788 0.35371 0.37354 0.0
O282 O 0.69532 0.81346 0.34051 0.0
Mn283 Mn 0.67068 0.81822 0.34545 0.0
O284 O 0.69463 0.79951 0.37416 0.0
Mn285 Mn 0.667 0.78952 0.37913 0.0
O286 O 0.64589 0.82322 0.34978 0.0
O287 O 0.68945 0.84817 0.33571 0.0
Mn288 Mn 0.67589 0.85316 0.31429 0.0
O289 O 0.66093 0.80801 0.3112 0.0
O290 O 0.65227 0.85017 0.32719 0.0
O291 O 0.68009 0.82918 0.38008 0.0
O292 O 0.66137 0.80217 0.4021 0.0
O293 O 0.69971 0.87737 0.317 0.0
O294 O 0.67222 0.83646 0.28964 0.0
C295 C 0.64755 0.76854 0.35522 0.0
C296 C 0.70333 0.80701 0.35525 0.0
C297 C 0.64124 0.83628 0.34157 0.0
C298 C 0.70361 0.86733 0.33242 0.0
C299 C 0.66383 0.81705 0.29159 0.0
C300 C 0.67247 0.82145 0.39993 0.0
O301 O 0.65107 0.78768 0.35526 0.0
O302 O 0.65405 0.76279 0.37284 0.0
O303 O 0.2203 0.86235 0.34191 0.0
Mn304 Mn 0.18998 0.8562 0.33986 0.0
O305 O 0.23573 0.88519 0.31327 0.0
Mn306 Mn 0.21431 0.8893 0.30492 0.0
O307 O 0.16022 0.85238 0.33582 0.0
O308 O 0.1813 0.82591 0.35019 0.0
Mn309 Mn 0.15807 0.82317 0.36146 0.0
O310 O 0.19136 0.86614 0.37395 0.0
O311 O 0.14003 0.81914 0.33841 0.0
O312 O 0.1882 0.84533 0.30585 0.0
O313 O 0.19697 0.87197 0.28258 0.0
O314 O 0.1564 0.80049 0.37195 0.0
O315 O 0.16049 0.84129 0.38444 0.0
C316 C 0.20544 0.90521 0.32754 0.0
C317 C 0.23604 0.87376 0.32936 0.0
C318 C 0.14285 0.83628 0.33182 0.0
C319 C 0.17293 0.80739 0.35976 0.0
C320 C 0.1765 0.85847 0.38827 0.0
C321 C 0.18923 0.85279 0.28572 0.0
O322 O 0.2002 0.88592 0.33021 0.0
O323 O 0.21639 0.91427 0.30962 0.0
O324 O 0.79428 0.64484 0.67229 0.0
Mn325 Mn 0.8225 0.67135 0.67826 0.0
O326 O 0.77815 0.6458 0.70359 0.0
Mn327 Mn 0.79665 0.67332 0.70909 0.0
O328 O 0.85117 0.69835 0.68379 0.0
O329 O 0.8357 0.65418 0.67029 0.0
Mn330 Mn 0.85667 0.66922 0.65238 0.0
O331 O 0.82274 0.67956 0.64344 0.0
O332 O 0.87498 0.69203 0.66882 0.0
O333 O 0.82379 0.66215 0.71273 0.0
O334 O 0.81412 0.68006 0.73321 0.0
O335 O 0.8568 0.64514 0.65512 0.0
O336 O 0.84631 0.67409 0.62611 0.0
C337 C 0.79619 0.69624 0.69216 0.0
C338 C 0.77876 0.6367 0.68553 0.0
C339 C 0.86993 0.70333 0.68008 0.0
C340 C 0.8409 0.64013 0.66779 0.0
C341 C 0.83237 0.67892 0.62546 0.0
C342 C 0.82305 0.66984 0.73217 0.0
O343 O 0.80826 0.68932 0.68445 0.0
O344 O 0.78424 0.68754 0.70955 0.0
O345 O 0.36015 0.14212 0.67573 0.0
Mn346 Mn 0.33747 0.15007 0.67882 0.0
O347 O 0.3557 0.12217 0.7064 0.0
Mn348 Mn 0.3303 0.11785 0.71557 0.0
O349 O 0.3154 0.15899 0.68095 0.0
O350 O 0.35801 0.17871 0.6666 0.0
Mn351 Mn 0.34697 0.18052 0.64072 0.0
O352 O 0.32511 0.13726 0.6458 0.0
O353 O 0.32283 0.1797 0.6499 0.0
O354 O 0.34841 0.16223 0.71259 0.0
O355 O 0.33132 0.13607 0.73723 0.0
O356 O 0.37081 0.20476 0.64239 0.0
O357 O 0.34545 0.16076 0.62096 0.0
C358 C 0.30752 0.10186 0.69052 0.0
C359 C 0.36565 0.13189 0.68867 0.0
C360 C 0.31195 0.17066 0.6676 0.0
C361 C 0.37228 0.19757 0.66209 0.0
C362 C 0.33121 0.14273 0.62504 0.0
C363 C 0.34295 0.15518 0.73325 0.0
O364 O 0.31776 0.1219 0.6922 0.0
O365 O 0.30943 0.09223 0.70798 0.0
O366 O 0.88627 0.19399 0.67814 0.0
Mn367 Mn 0.85674 0.1898 0.67325 0.0
O368 O 0.90781 0.22238 0.65812 0.0
Mn369 Mn 0.88782 0.22586 0.64413 0.0
O370 O 0.82725 0.1858 0.66795 0.0
O371 O 0.8452 0.15929 0.68217 0.0
Mn372 Mn 0.82599 0.15503 0.70239 0.0
O373 O 0.85674 0.19944 0.70755 0.0
O374 O 0.80573 0.15765 0.68807 0.0
O375 O 0.85657 0.18068 0.63856 0.0
O376 O 0.8755 0.20985 0.61873 0.0
O377 O 0.82458 0.13044 0.70127 0.0
O378 O 0.83725 0.17099 0.72803 0.0
C379 C 0.87379 0.23939 0.6628 0.0
C380 C 0.90435 0.20759 0.67152 0.0
C381 C 0.80914 0.17221 0.67444 0.0
C382 C 0.83913 0.13985 0.68643 0.0
C383 C 0.84915 0.19029 0.72671 0.0
C384 C 0.86355 0.19044 0.61947 0.0
O385 O 0.86864 0.22006 0.66471 0.0
O386 O 0.88797 0.25002 0.64798 0.0
H387 H 0.25469 0.84812 0.02176 0.0
H388 H 0.29041 0.87432 0.01399 0.0
H389 H 0.30708 0.8269 0.01317 0.0
H390 H 0.27122 0.80063 0.0205 0.0
H391 H 0.33111 0.86164 0.04331 0.0
H392 H 0.30762 0.84756 0.96436 0.0
H393 H 0.28444 0.84353 0.93224 0.0
H394 H 0.29807 0.90613 0.94168 0.0
H395 H 0.32113 0.91044 0.97404 0.0
H396 H 0.4348 0.93612 0.01645 0.0
H397 H 0.40118 0.9043 0.01326 0.0
H398 H 0.37224 0.94108 0.00376 0.0
H399 H 0.40552 0.97253 0.00704 0.0
H400 H 0.35538 0.90846 0.9761 0.0
H401 H 0.374 0.92316 0.05529 0.0
H402 H 0.39444 0.92939 0.09064 0.0
H403 H 0.38738 0.8689 0.08508 0.0
H404 H 0.3672 0.86245 0.04941 0.0
C405 C 0.26597 0.84335 0.01943 0.0
C406 C 0.26041 0.82251 0.02144 0.0
C407 C 0.28628 0.85823 0.01504 0.0
C408 C 0.30129 0.85246 0.01294 0.0
C409 C 0.29565 0.83157 0.01464 0.0
C410 C 0.27526 0.81664 0.01866 0.0
C411 C 0.32302 0.86846 0.01028 0.0
C412 C 0.33663 0.8716 0.02838 0.0
C413 C 0.32983 0.88184 0.9912 0.0
C414 C 0.31602 0.87928 0.97169 0.0
C415 C 0.30556 0.86042 0.95968 0.0
C416 C 0.29247 0.85809 0.94141 0.0
C417 C 0.28977 0.87455 0.93494 0.0
C418 C 0.30018 0.89339 0.9467 0.0
C419 C 0.31329 0.89579 0.96498 0.0
C420 C 0.42127 0.93723 0.01297 0.0
C421 C 0.42257 0.95658 0.01173 0.0
C422 C 0.40212 0.91916 0.01143 0.0
C423 C 0.38422 0.92038 0.00847 0.0
C424 C 0.38582 0.93977 0.00598 0.0
C425 C 0.4048 0.9577 0.00778 0.0
C426 C 0.36361 0.90175 0.00915 0.0
C427 C 0.35011 0.8982 0.99078 0.0
C428 C 0.35674 0.88838 0.02834 0.0
C429 C 0.36942 0.89247 0.0494 0.0
C430 C 0.37708 0.9113 0.06138 0.0
C431 C 0.38855 0.91485 0.08154 0.0
C432 C 0.39229 0.89959 0.09004 0.0
C433 C 0.38455 0.88075 0.07841 0.0
C434 C 0.37311 0.87715 0.05821 0.0
H435 H 0.40112 0.90234 0.10569 0.0
H436 H 0.27963 0.87273 0.92079 0.0
H437 H 0.15809 0.40542 0.03132 0.0
H438 H 0.13227 0.41533 0.02282 0.0
H439 H 0.18021 0.4784 0.01294 0.0
H440 H 0.20611 0.46839 0.02097 0.0
H441 H 0.14821 0.47218 0.04501 0.0
H442 H 0.15593 0.45376 0.96759 0.0
H443 H 0.15718 0.43083 0.93787 0.0
H444 H 0.09552 0.38432 0.95382 0.0
H445 H 0.09399 0.40685 0.98385 0.0
H446 H 0.07337 0.50096 0.01553 0.0
H447 H 0.10437 0.49788 0.01245 0.0
H448 H 0.06664 0.43144 0.013 0.0
H449 H 0.03602 0.43454 0.01635 0.0
H450 H 0.09673 0.44355 0.98203 0.0
H451 H 0.08851 0.45646 0.06051 0.0
H452 H 0.08528 0.47487 0.094 0.0
H453 H 0.14509 0.52651 0.08096 0.0
H454 H 0.1485 0.50856 0.04703 0.0
C455 C 0.16304 0.4213 0.0269 0.0
C456 C 0.18395 0.43617 0.02659 0.0
C457 C 0.14836 0.42694 0.02207 0.0
C458 C 0.1544 0.44757 0.01719 0.0
C459 C 0.17532 0.4624 0.01657 0.0
C460 C 0.19003 0.45668 0.021 0.0
C461 C 0.13874 0.45375 0.01411 0.0
C462 C 0.13724 0.46641 0.03093 0.0
C463 C 0.12405 0.44548 0.99622 0.0
C464 C 0.1249 0.43196 0.97807 0.0
C465 C 0.14269 0.43858 0.96487 0.0
C466 C 0.14344 0.42567 0.94795 0.0
C467 C 0.12645 0.40612 0.94398 0.0
C468 C 0.10866 0.39946 0.9569 0.0
C469 C 0.10784 0.41231 0.97386 0.0
C470 C 0.07183 0.48578 0.01444 0.0
C471 C 0.05249 0.46796 0.01599 0.0
C472 C 0.08945 0.48402 0.01289 0.0
C473 C 0.08777 0.46441 0.01262 0.0
C474 C 0.0683 0.44669 0.0131 0.0
C475 C 0.05084 0.44846 0.01501 0.0
C476 C 0.1061 0.46199 0.01297 0.0
C477 C 0.10802 0.44987 0.99577 0.0
C478 C 0.12083 0.47025 0.03092 0.0
C479 C 0.11858 0.48134 0.05092 0.0
C480 C 0.10084 0.47189 0.06453 0.0
C481 C 0.099 0.4822 0.08365 0.0
C482 C 0.11492 0.5019 0.08953 0.0
C483 C 0.13273 0.5113 0.07631 0.0
C484 C 0.1346 0.50107 0.0571 0.0
H485 H 0.1135 0.50983 0.10439 0.0
H486 H 0.12707 0.39614 0.93087 0.0
H487 H 0.54962 0.73815 0.0633 0.0
H488 H 0.53896 0.70187 0.05686 0.0
H489 H 0.57466 0.71809 0.99465 0.0
H490 H 0.58503 0.75455 1.00085 0.0
H491 H 0.53952 0.68367 0.98806 0.0
H492 H 0.5937 0.70537 0.04388 0.0
H493 H 0.61332 0.72094 0.07946 0.0
H494 H 0.56012 0.68227 0.1198 0.0
H495 H 0.54032 0.66608 0.08432 0.0
H496 H 0.56845 0.61072 0.97585 0.0
H497 H 0.5662 0.6408 0.98558 0.0
H498 H 0.51882 0.60557 0.03482 0.0
H499 H 0.52081 0.57445 0.02492 0.0
H500 H 0.55235 0.64585 0.04989 0.0
H501 H 0.50364 0.61778 0.98787 0.0
H502 H 0.49171 0.6016 0.9497 0.0
H503 H 0.54197 0.65418 0.91781 0.0
H504 H 0.55433 0.67059 0.9558 0.0
C505 C 0.55516 0.73394 0.04823 0.0
C506 C 0.56828 0.7491 0.03267 0.0
C507 C 0.54912 0.71324 0.04461 0.0
C508 C 0.5563 0.70729 0.02552 0.0
C509 C 0.56895 0.72234 0.00953 0.0
C510 C 0.57486 0.74312 0.01304 0.0
C511 C 0.55085 0.68542 0.02254 0.0
C512 C 0.54231 0.6754 0.00158 0.0
C513 C 0.55414 0.67446 0.04027 0.0
C514 C 0.56551 0.68477 0.06154 0.0
C515 C 0.58616 0.70035 0.06035 0.0
C516 C 0.59734 0.70917 0.08049 0.0
C517 C 0.58794 0.70272 0.10191 0.0
C518 C 0.56736 0.6873 0.1032 0.0
C519 C 0.55619 0.6782 0.0831 0.0
C520 C 0.55737 0.60904 0.98872 0.0
C521 C 0.54449 0.58994 0.99931 0.0
C522 C 0.55609 0.62638 0.99416 0.0
C523 C 0.54195 0.62523 0.01036 0.0
C524 C 0.52955 0.60653 0.02187 0.0
C525 C 0.53073 0.58886 0.01626 0.0
C526 C 0.54126 0.64422 0.01542 0.0
C527 C 0.5488 0.65384 0.03671 0.0
C528 C 0.53764 0.65497 0.9977 0.0
C529 C 0.52989 0.64543 0.97472 0.0
C530 C 0.51216 0.62589 0.97272 0.0
C531 C 0.50533 0.61667 0.95111 0.0
C532 C 0.51607 0.62686 0.93135 0.0
C533 C 0.53363 0.64632 0.93314 0.0
C534 C 0.54052 0.65562 0.9547 0.0
H535 H 0.51078 0.61968 0.91464 0.0
H536 H 0.59663 0.70963 0.11749 0.0
H537 H 0.85374 0.25247 0.9959 0.0
H538 H 0.8802 0.28874 1.00116 0.0
H539 H 0.83393 0.30654 0.99794 0.0
H540 H 0.80737 0.27009 0.9929 0.0
H541 H 0.86622 0.32798 0.96713 0.0
H542 H 0.85742 0.31165 0.0473 0.0
H543 H 0.85433 0.29089 0.08148 0.0
H544 H 0.91529 0.30184 0.07083 0.0
H545 H 0.91865 0.32243 0.03637 0.0
H546 H 0.94049 0.43265 0.01249 0.0
H547 H 0.90985 0.39935 0.00332 0.0
H548 H 0.94809 0.37317 0.98829 0.0
H549 H 0.97853 0.40637 0.99669 0.0
H550 H 0.91799 0.35715 0.02979 0.0
H551 H 0.92575 0.36937 0.94849 0.0
H552 H 0.92983 0.38944 0.91339 0.0
H553 H 0.87168 0.38519 0.9255 0.0
H554 H 0.86748 0.36544 0.96099 0.0
C555 C 0.84925 0.26413 0.99697 0.0
C556 C 0.82866 0.25869 0.99424 0.0
C557 C 0.8643 0.28478 0.99991 0.0
C558 C 0.85899 0.30029 0.99993 0.0
C559 C 0.8383 0.29476 0.99799 0.0
C560 C 0.82318 0.27403 0.99533 0.0
C561 C 0.87529 0.32228 1.00026 0.0
C562 C 0.87728 0.3345 0.98107 0.0
C563 C 0.89002 0.33054 0.01815 0.0
C564 C 0.88823 0.31849 0.03914 0.0
C565 C 0.87013 0.30954 0.05216 0.0
C566 C 0.86833 0.29781 0.0716 0.0
C567 C 0.88459 0.29502 0.0783 0.0
C568 C 0.90271 0.30401 0.06561 0.0
C569 C 0.90458 0.31575 0.04614 0.0
C570 C 0.94236 0.42021 0.00564 0.0
C571 C 0.9618 0.42203 0.00514 0.0
C572 C 0.92486 0.40109 1.00087 0.0
C573 C 0.92681 0.38381 0.99561 0.0
C574 C 0.94632 0.38633 0.99246 0.0
C575 C 0.9637 0.4054 0.99684 0.0
C576 C 0.90888 0.36272 0.99664 0.0
C577 C 0.90668 0.35069 0.01607 0.0
C578 C 0.8941 0.35455 0.97892 0.0
C579 C 0.89646 0.36625 0.95758 0.0
C580 C 0.91396 0.37295 0.94383 0.0
C581 C 0.91628 0.38422 0.92384 0.0
C582 C 0.90107 0.38867 0.91728 0.0
C583 C 0.88348 0.38179 0.93066 0.0
C584 C 0.88113 0.37057 0.95072 0.0
H585 H 0.90289 0.3974 0.90179 0.0
H586 H 0.88316 0.28591 0.09334 0.0
H587 H 0.75937 0.59683 0.02182 0.0
H588 H 0.72354 0.58738 0.02863 0.0
H589 H 0.70362 0.53798 0.9788 0.0
H590 H 0.73929 0.54795 0.97145 0.0
H591 H 0.68706 0.56069 0.97012 0.0
H592 H 0.69682 0.52962 0.03869 0.0
H593 H 0.71419 0.53032 0.07498 0.0
H594 H 0.70144 0.57604 0.10247 0.0
H595 H 0.68419 0.57577 0.06623 0.0
H596 H 0.58165 0.51145 0.97979 0.0
H597 H 0.61636 0.51688 0.98322 0.0
H598 H 0.6301 0.56263 0.03626 0.0
H599 H 0.59484 0.55607 0.03384 0.0
H600 H 0.65062 0.54415 0.0447 0.0
H601 H 0.63995 0.57463 0.97732 0.0
H602 H 0.62375 0.57555 0.94078 0.0
H603 H 0.64007 0.53343 0.91034 0.0
H604 H 0.65586 0.53181 0.94683 0.0
C605 C 0.74721 0.58381 0.01265 0.0
C606 C 0.75182 0.57308 0.99612 0.0
C607 C 0.72683 0.57837 0.01657 0.0
C608 C 0.71091 0.5619 0.00429 0.0
C609 C 0.71565 0.55077 0.98839 0.0
C610 C 0.73594 0.55641 0.98423 0.0
C611 C 0.6894 0.55701 0.00651 0.0
C612 C 0.67899 0.55675 0.98639 0.0
C613 C 0.67919 0.5528 0.02787 0.0
C614 C 0.68936 0.55278 0.04971 0.0
C615 C 0.69783 0.5399 0.05243 0.0
C616 C 0.70763 0.54021 0.07299 0.0
C617 C 0.70895 0.55325 0.091 0.0
C618 C 0.70042 0.56596 0.0885 0.0
C619 C 0.6906 0.56571 0.06798 0.0
C620 C 0.59196 0.52214 0.99267 0.0
C621 C 0.58582 0.53336 0.00659 0.0
C622 C 0.6118 0.52542 0.99446 0.0
C623 C 0.62604 0.54068 0.00945 0.0
C624 C 0.61943 0.5509 0.02446 0.0
C625 C 0.59934 0.54714 0.02314 0.0
C626 C 0.64805 0.54705 0.00814 0.0
C627 C 0.65864 0.54793 0.02841 0.0
C628 C 0.65856 0.55204 0.98688 0.0
C629 C 0.64891 0.55294 0.96492 0.0
C630 C 0.6399 0.56541 0.9629 0.0
C631 C 0.63077 0.56604 0.94219 0.0
C632 C 0.63077 0.55447 0.92327 0.0
C633 C 0.63995 0.54229 0.92502 0.0
C634 C 0.64898 0.54149 0.94572 0.0
H635 H 0.62372 0.55499 0.90724 0.0
H636 H 0.71656 0.55347 0.1069 0.0
H637 H 0.46396 0.20128 0.01876 0.0
H638 H 0.47421 0.17522 0.02419 0.0
H639 H 0.41872 0.13 0.98986 0.0
H640 H 0.40761 0.15516 0.98672 0.0
H641 H 0.42571 0.11131 0.01894 0.0
H642 H 0.47144 0.16271 0.96374 0.0
H643 H 0.49786 0.1975 0.95132 0.0
H644 H 0.539 0.19861 0.00329 0.0
H645 H 0.51272 0.16394 0.01617 0.0
H646 H 0.44777 0.03706 0.98263 0.0
H647 H 0.44488 0.06782 0.97677 0.0
H648 H 0.49744 0.10269 0.02075 0.0
H649 H 0.50072 0.07208 0.02586 0.0
H650 H 0.49419 0.12765 0.99081 0.0
H651 H 0.44709 0.07342 0.04244 0.0
H652 H 0.41942 0.03872 0.05341 0.0
H653 H 0.37906 0.04276 0.00415 0.0
H654 H 0.40652 0.07734 0.99271 0.0
C655 C 0.45369 0.18558 0.01308 0.0
C656 C 0.43517 0.1804 0.0018 0.0
C657 C 0.45976 0.17078 0.01575 0.0
C658 C 0.44769 0.15075 0.0066 0.0
C659 C 0.42856 0.14533 0.99684 0.0
C660 C 0.42226 0.15984 0.99482 0.0
C661 C 0.45473 0.13533 0.00633 0.0
C662 C 0.44061 0.11493 0.01243 0.0
C663 C 0.47443 0.13998 0.99864 0.0
C664 C 0.49006 0.16088 0.99107 0.0
C665 C 0.48607 0.17046 0.97261 0.0
C666 C 0.50102 0.19014 0.96548 0.0
C667 C 0.52007 0.20028 0.97655 0.0
C668 C 0.52422 0.19076 0.99477 0.0
C669 C 0.50931 0.17111 0.00199 0.0
C670 C 0.45961 0.05167 0.98962 0.0
C671 C 0.47443 0.05221 0.00476 0.0
C672 C 0.45761 0.06912 0.98681 0.0
C673 C 0.47034 0.08727 0.99925 0.0
C674 C 0.48719 0.08874 0.01131 0.0
C675 C 0.48935 0.07132 0.01384 0.0
C676 C 0.4647 0.10357 0.00209 0.0
C677 C 0.47923 0.12411 0.99701 0.0
C678 C 0.44515 0.099 0.01017 0.0
C679 C 0.42895 0.07786 0.01653 0.0
C680 C 0.43239 0.0668 0.03378 0.0
C681 C 0.41672 0.04718 0.04012 0.0
C682 C 0.39752 0.03852 0.02944 0.0
C683 C 0.39394 0.04945 0.01237 0.0
C684 C 0.40955 0.06904 0.00595 0.0
H685 H 0.3854 0.02336 0.03443 0.0
H686 H 0.53164 0.2155 0.97098 0.0
H687 H 0.72633 0.13649 0.00835 0.0
H688 H 0.689 0.11429 0.01053 0.0
H689 H 0.68152 0.16644 0.99437 0.0
H690 H 0.71894 0.18868 0.99254 0.0
H691 H 0.6575 0.14506 0.02978 0.0
H692 H 0.67064 0.12891 0.95457 0.0
H693 H 0.68766 0.11887 0.92531 0.0
H694 H 0.66652 0.06068 0.95893 0.0
H695 H 0.64965 0.07051 0.98862 0.0
H696 H 0.54817 0.07626 0.00386 0.0
H697 H 0.58445 0.10376 0.00494 0.0
H698 H 0.60147 0.05948 0.02748 0.0
H699 H 0.56555 0.03228 0.02643 0.0
H700 H 0.61983 0.07908 0.98654 0.0
H701 H 0.60791 0.09612 0.06265 0.0
H702 H 0.59067 0.10619 0.09158 0.0
H703 H 0.60892 0.16271 0.05543 0.0
H704 H 0.62598 0.1528 0.02602 0.0
C705 C 0.71663 0.14303 0.00482 0.0
C706 C 0.72526 0.16406 0.99985 0.0
C707 C 0.69535 0.13041 0.00613 0.0
C708 C 0.68242 0.13866 0.0024 0.0
C709 C 0.69117 0.15974 0.99725 0.0
C710 C 0.71246 0.17235 0.99598 0.0
C711 C 0.65984 0.12531 0.00435 0.0
C712 C 0.64919 0.13079 0.02005 0.0
C713 C 0.64902 0.10657 0.99187 0.0
C714 C 0.65903 0.10053 0.97394 0.0
C715 C 0.66975 0.11404 0.95583 0.0
C716 C 0.67936 0.10838 0.93915 0.0
C717 C 0.67822 0.08917 0.94029 0.0
C718 C 0.66742 0.07556 0.95808 0.0
C719 C 0.65781 0.08117 0.97483 0.0
C720 C 0.55964 0.07274 0.01005 0.0
C721 C 0.55421 0.05234 0.0154 0.0
C722 C 0.58032 0.08834 0.01046 0.0
C723 C 0.59563 0.08356 0.0161 0.0
C724 C 0.58992 0.06346 0.02301 0.0
C725 C 0.56941 0.048 0.02264 0.0
C726 C 0.61762 0.09858 0.01234 0.0
C727 C 0.62813 0.09343 0.99616 0.0
C728 C 0.6282 0.11759 0.02429 0.0
C729 C 0.61799 0.12358 0.04196 0.0
C730 C 0.60806 0.11059 0.06071 0.0
C731 C 0.59836 0.11629 0.07723 0.0
C732 C 0.59863 0.13504 0.0753 0.0
C733 C 0.60867 0.14816 0.05687 0.0
C734 C 0.61837 0.14251 0.04028 0.0
H735 H 0.59112 0.13943 0.08811 0.0
H736 H 0.68567 0.08482 0.92736 0.0
H737 H 0.82385 0.53641 0.98909 0.0
H738 H 0.84628 0.52128 0.98961 0.0
H739 H 0.8921 0.57465 0.02682 0.0
H740 H 0.86985 0.58979 0.0259 0.0
H741 H 0.90905 0.56449 0.99331 0.0
H742 H 0.85965 0.52733 0.05334 0.0
H743 H 0.82512 0.50487 0.06909 0.0
H744 H 0.81608 0.45638 0.02241 0.0
H745 H 0.85047 0.47865 0.0062 0.0
H746 H 0.97723 0.53501 0.03109 0.0
H747 H 0.94964 0.54312 0.03397 0.0
H748 H 0.90903 0.48683 0.99737 0.0
H749 H 0.93653 0.47832 0.99537 0.0
H750 H 0.88783 0.49609 0.02769 0.0
H751 H 0.93668 0.53176 0.96844 0.0
H752 H 0.97109 0.55338 0.95206 0.0
H753 H 0.98053 0.60405 0.99537 0.0
H754 H 0.94628 0.58262 0.01229 0.0
C755 C 0.83886 0.54492 0.99707 0.0
C756 C 0.8454 0.56428 0.00722 0.0
C757 C 0.85154 0.53621 0.99759 0.0
C758 C 0.87079 0.54671 0.00851 0.0
C759 C 0.87733 0.56626 0.01831 0.0
C760 C 0.86471 0.57494 0.01771 0.0
C761 C 0.88448 0.53776 0.00951 0.0
C762 C 0.90445 0.54964 1.00108 0.0
C763 C 0.87826 0.518 0.01883 0.0
C764 C 0.85752 0.50474 0.02838 0.0
C765 C 0.85021 0.51195 0.04628 0.0
C766 C 0.83069 0.49924 0.05533 0.0
C767 C 0.81839 0.47924 0.0467 0.0
C768 C 0.8256 0.47189 0.02904 0.0
C769 C 0.84511 0.48454 0.01993 0.0
C770 C 0.96215 0.52401 0.02452 0.0
C771 C 0.95881 0.50601 0.01317 0.0
C772 C 0.94647 0.52873 0.02593 0.0
C773 C 0.92745 0.51587 0.01529 0.0
C774 C 0.92361 0.49702 0.00557 0.0
C775 C 0.93925 0.49212 0.00452 0.0
C776 C 0.91256 0.52319 0.01222 0.0
C777 C 0.89238 0.51094 0.01996 0.0
C778 C 0.91846 0.54255 0.00205 0.0
C779 C 0.93899 0.55553 0.99176 0.0
C780 C 0.94615 0.54747 0.97458 0.0
C781 C 0.96562 0.55969 0.96519 0.0
C782 C 0.978 0.58006 0.97271 0.0
C783 C 0.97093 0.58826 0.98959 0.0
C784 C 0.95149 0.57609 0.99907 0.0
H785 H 0.99307 0.5895 0.96542 0.0
H786 H 0.80329 0.46941 0.05375 0.0
H787 H 0.48154 0.29394 0.00736 0.0
H788 H 0.49669 0.33155 0.00457 0.0
H789 H 0.43614 0.3242 0.00398 0.0
H790 H 0.42104 0.28654 0.00661 0.0
H791 H 0.45992 0.3503 0.97102 0.0
H792 H 0.46633 0.3413 0.05178 0.0
H793 H 0.47699 0.33001 0.08635 0.0
H794 H 0.54006 0.36705 0.06693 0.0
H795 H 0.52977 0.37835 0.03206 0.0
H796 H 0.47935 0.45032 0.99514 0.0
H797 H 0.47004 0.415 0.98856 0.0
H798 H 0.53171 0.42951 0.0056 0.0
H799 H 0.53981 0.46455 0.01621 0.0
H800 H 0.50956 0.39935 0.02803 0.0
H801 H 0.50209 0.4098 0.94692 0.0
H802 H 0.48986 0.42296 0.91539 0.0
H803 H 0.42767 0.3837 0.93686 0.0
H804 H 0.43953 0.37049 0.96862 0.0
C805 C 0.47154 0.30045 0.00643 0.0
C806 C 0.45022 0.28758 0.00684 0.0
C807 C 0.48018 0.32188 0.00506 0.0
C808 C 0.46756 0.33071 0.00422 0.0
C809 C 0.44616 0.31772 0.00456 0.0
C810 C 0.43754 0.29628 0.00596 0.0
C811 C 0.4766 0.35342 0.00225 0.0
C812 C 0.47078 0.36108 0.98349 0.0
C813 C 0.49108 0.36747 0.01827 0.0
C814 C 0.49725 0.36044 0.03911 0.0
C815 C 0.48246 0.34686 0.05472 0.0
C816 C 0.48844 0.3405 0.07442 0.0
C817 C 0.50918 0.34774 0.07878 0.0
C818 C 0.52399 0.3614 0.06349 0.0
C819 C 0.5181 0.36779 0.04377 0.0
C820 C 0.4913 0.44631 0.99618 0.0
C821 C 0.5103 0.46016 0.00603 0.0
C822 C 0.48594 0.42583 0.99236 0.0
C823 C 0.50015 0.41917 0.99611 0.0
C824 C 0.52029 0.434 0.00269 0.0
C825 C 0.5252 0.45427 0.00809 0.0
C826 C 0.49318 0.39657 0.99644 0.0
C827 C 0.49922 0.38879 0.01507 0.0
C828 C 0.47888 0.38235 0.98027 0.0
C829 C 0.47172 0.38913 0.96009 0.0
C830 C 0.48581 0.40388 0.94479 0.0
C831 C 0.47894 0.4114 0.92694 0.0
C832 C 0.458 0.40415 0.92412 0.0
C833 C 0.44387 0.38925 0.93902 0.0
C834 C 0.45065 0.38168 0.95688 0.0
H835 H 0.45273 0.4101 0.91038 0.0
H836 H 0.51378 0.34282 0.09404 0.0
H837 H 0.19176 0.71168 0.0208 0.0
H838 H 0.16915 0.674 0.02241 0.0
H839 H 0.11689 0.68152 0.00923 0.0
H840 H 0.13951 0.71914 0.00782 0.0
H841 H 0.11046 0.65606 0.04474 0.0
H842 H 0.13638 0.66414 0.96754 0.0
H843 H 0.16321 0.6751 0.93802 0.0
H844 H 0.1845 0.63706 0.96864 0.0
H845 H 0.15796 0.62607 0.99853 0.0
H846 H 0.0313 0.55626 0.02089 0.0
H847 H 0.05717 0.59141 0.02565 0.0
H848 H 0.10407 0.57515 0.01453 0.0
H849 H 0.07707 0.54031 0.00342 0.0
H850 H 0.11648 0.6059 0.99425 0.0
H851 H 0.08878 0.59736 0.07247 0.0
H852 H 0.0597 0.58561 0.09922 0.0
H853 H 0.04122 0.62497 0.06608 0.0
H854 H 0.07007 0.63686 0.03915 0.0
C855 C 0.1754 0.70518 0.01846 0.0
C856 C 0.16718 0.71808 0.01459 0.0
C857 C 0.16256 0.68372 0.01912 0.0
C858 C 0.14134 0.67492 0.01578 0.0
C859 C 0.1332 0.68796 0.01189 0.0
C860 C 0.14605 0.70939 0.01121 0.0
C861 C 0.12739 0.65224 0.01743 0.0
C862 C 0.11174 0.64501 0.03374 0.0
C863 C 0.12937 0.63785 0.00345 0.0
C864 C 0.14534 0.64449 0.98546 0.0
C865 C 0.14691 0.65827 0.96812 0.0
C866 C 0.16204 0.66445 0.95128 0.0
C867 C 0.1756 0.65684 0.9515 0.0
C868 C 0.17402 0.64298 0.96851 0.0
C869 C 0.15893 0.63676 0.9854 0.0
C870 C 0.04716 0.5599 0.02058 0.0
C871 C 0.05211 0.54548 0.01191 0.0
C872 C 0.0623 0.58039 0.02365 0.0
C873 C 0.08319 0.5866 0.02153 0.0
C874 C 0.08823 0.57122 0.01621 0.0
C875 C 0.07281 0.55098 0.01067 0.0
C876 C 0.09924 0.6092 0.02201 0.0
C877 C 0.11535 0.61661 0.00593 0.0
C878 C 0.09779 0.62388 0.03637 0.0
C879 C 0.08161 0.61802 0.05389 0.0
C880 C 0.07862 0.60364 0.07108 0.0
C881 C 0.06213 0.5969 0.0862 0.0
C882 C 0.04863 0.60454 0.08435 0.0
C883 C 0.05172 0.61912 0.06756 0.0
C884 C 0.06819 0.62594 0.05245 0.0
H885 H 0.03578 0.59916 0.09594 0.0
H886 H 0.1873 0.66165 0.93846 0.0
H887 H 0.2869 0.41913 0.02704 0.0
H888 H 0.32426 0.43447 0.02564 0.0
H889 H 0.33059 0.49348 0.00836 0.0
H890 H 0.29314 0.47797 0.00951 0.0
H891 H 0.35413 0.48484 0.98094 0.0
H892 H 0.34357 0.48545 0.06163 0.0
H893 H 0.32794 0.4713 0.09925 0.0
H894 H 0.34884 0.42748 0.09556 0.0
H895 H 0.3643 0.44114 0.05773 0.0
H896 H 0.46541 0.53029 0.0034 0.0
H897 H 0.42993 0.52378 1.00103 0.0
H898 H 0.40702 0.45892 0.01258 0.0
H899 H 0.44191 0.46526 0.01497 0.0
H900 H 0.39356 0.47705 0.04464 0.0
H901 H 0.401 0.47428 0.96223 0.0
H902 H 0.41641 0.48825 0.92449 0.0
H903 H 0.40174 0.53654 0.93176 0.0
H904 H 0.38655 0.52304 0.96977 0.0
C905 C 0.29636 0.43543 0.02333 0.0
C906 C 0.28741 0.44753 0.01871 0.0
C907 C 0.31765 0.4442 0.0225 0.0
C908 C 0.33026 0.46521 0.01711 0.0
C909 C 0.32119 0.47729 0.0126 0.0
C910 C 0.29989 0.46849 0.01344 0.0
C911 C 0.35284 0.4743 0.01569 0.0
C912 C 0.36284 0.48348 0.99503 0.0
C913 C 0.36422 0.47248 0.03399 0.0
C914 C 0.35495 0.46423 0.05676 0.0
C915 C 0.34469 0.47269 0.06875 0.0
C916 C 0.33588 0.46477 0.09013 0.0
C917 C 0.33736 0.44847 0.09977 0.0
C918 C 0.34769 0.44009 0.08806 0.0
C919 C 0.35649 0.44793 0.06667 0.0
C920 C 0.45273 0.51462 0.00475 0.0
C921 C 0.45631 0.4983 0.00963 0.0
C922 C 0.43253 0.51093 0.0035 0.0
C923 C 0.41589 0.49089 0.00697 0.0
C924 C 0.41962 0.47451 0.01014 0.0
C925 C 0.43956 0.47816 0.01146 0.0
C926 C 0.39463 0.48679 0.00963 0.0
C927 C 0.3849 0.47867 0.03067 0.0
C928 C 0.3836 0.48962 0.9917 0.0
C929 C 0.39294 0.49785 0.969 0.0
C930 C 0.40131 0.48804 0.95593 0.0
C931 C 0.40994 0.49583 0.93445 0.0
C932 C 0.41013 0.51332 0.92577 0.0
C933 C 0.40165 0.52303 0.93854 0.0
C934 C 0.39303 0.51532 0.96005 0.0
H935 H 0.4168 0.51931 0.90912 0.0
H936 H 0.33054 0.44236 0.11632 0.0
H937 H 0.56358 0.84976 0.98006 0.0
H938 H 0.54795 0.87165 0.98154 0.0
H939 H 0.54036 0.86263 0.05489 0.0
H940 H 0.55583 0.8404 0.05327 0.0
H941 H 0.50573 0.85913 0.03364 0.0
H942 H 0.57884 0.90758 0.03342 0.0
H943 H 0.61383 0.92211 0.01809 0.0
H944 H 0.59415 0.93453 0.95374 0.0
H945 H 0.55899 0.91983 0.96859 0.0
H946 H 0.51187 0.96488 0.04064 0.0
H947 H 0.51833 0.93643 0.04922 0.0
H948 H 0.49273 0.90881 0.98338 0.0
H949 H 0.48538 0.93635 0.97539 0.0
H950 H 0.54368 0.9309 0.00428 0.0
H951 H 0.47082 0.87571 0.99998 0.0
H952 H 0.43513 0.86137 0.0128 0.0
H953 H 0.45382 0.86133 0.08263 0.0
H954 H 0.48978 0.87633 0.0702 0.0
C955 C 0.55868 0.85261 0.99649 0.0
C956 C 0.56103 0.84373 0.0166 0.0
C957 C 0.54975 0.86508 0.99734 0.0
C958 C 0.54317 0.86898 0.01838 0.0
C959 C 0.54536 0.85986 0.0385 0.0
C960 C 0.55429 0.84733 0.03761 0.0
C961 C 0.53423 0.88276 0.01928 0.0
C962 C 0.51417 0.8749 0.0275 0.0
C963 C 0.54501 0.90324 0.01086 0.0
C964 C 0.56626 0.91251 0.00209 0.0
C965 C 0.58196 0.91334 0.01597 0.0
C966 C 0.60182 0.92161 0.00737 0.0
C967 C 0.6062 0.92921 0.98495 0.0
C968 C 0.59074 0.92863 0.97111 0.0
C969 C 0.57085 0.92037 0.97962 0.0
C970 C 0.50621 0.95189 0.02886 0.0
C971 C 0.4978 0.95259 0.00754 0.0
C972 C 0.51025 0.93585 0.03355 0.0
C973 C 0.50593 0.92048 0.01694 0.0
C974 C 0.49572 0.92017 0.99667 0.0
C975 C 0.49135 0.93587 0.99222 0.0
C976 C 0.5153 0.90722 0.01856 0.0
C977 C 0.53543 0.9152 0.01071 0.0
C978 C 0.50449 0.8868 0.0268 0.0
C979 C 0.48297 0.8775 0.03425 0.0
C980 C 0.46735 0.87297 0.01811 0.0
C981 C 0.44708 0.86467 0.02528 0.0
C982 C 0.44222 0.86054 0.04854 0.0
C983 C 0.45762 0.86463 0.06464 0.0
C984 C 0.47796 0.87307 0.05755 0.0
H985 H 0.4265 0.85409 0.05408 0.0
H986 H 0.62158 0.93558 0.97831 0.0
H987 H 0.92009 0.18146 0.35024 0.0
H988 H 0.95575 0.20724 0.34122 0.0
H989 H 0.97242 0.15992 0.34458 0.0
H990 H 0.93669 0.13406 0.35306 0.0
H991 H 0.99378 0.19653 0.37541 0.0
H992 H 0.97458 0.17897 0.29433 0.0
H993 H 0.95228 0.17481 0.26121 0.0
H994 H 0.96752 0.23814 0.26784 0.0
H995 H 0.98977 0.24261 0.30111 0.0
H996 H 0.09909 0.26331 0.35861 0.0
H997 H 0.06435 0.23336 0.35468 0.0
H998 H 0.0436 0.27279 0.32547 0.0
H999 H 0.0783 0.30237 0.3289 0.0
H1000 H 0.02379 0.23851 0.30541 0.0
H1001 H 0.03702 0.25961 0.38155 0.0
H1002 H 0.04974 0.26855 0.42133 0.0
H1003 H 0.03815 0.20684 0.43198 0.0
H1004 H 0.02611 0.19773 0.39194 0.0
C1005 C 0.93135 0.17659 0.34847 0.0
C1006 C 0.92586 0.15593 0.35215 0.0
C1007 C 0.9516 0.19122 0.34328 0.0
C1008 C 0.96659 0.18537 0.34208 0.0
C1009 C 0.96097 0.16461 0.34521 0.0
C1010 C 0.94067 0.14992 0.35 0.0
C1011 C 0.98844 0.20127 0.34031 0.0
C1012 C 0.00065 0.20536 0.35994 0.0
C1013 C 0.99667 0.21368 0.32064 0.0
C1014 C 0.98381 0.2111 0.3002 0.0
C1015 C 0.97314 0.19198 0.28874 0.0
C1016 C 0.96051 0.18958 0.26994 0.0
C1017 C 0.95848 0.2062 0.26243 0.0
C1018 C 0.96913 0.22529 0.27365 0.0
C1019 C 0.9818 0.22778 0.29243 0.0
C1020 C 0.08715 0.2653 0.35071 0.0
C1021 C 0.0912 0.2849 0.34374 0.0
C1022 C 0.06731 0.24831 0.34871 0.0
C1023 C 0.05124 0.25084 0.34006 0.0
C1024 C 0.05567 0.27035 0.33208 0.0
C1025 C 0.07548 0.28724 0.33397 0.0
C1026 C 0.02965 0.23358 0.34053 0.0
C1027 C 0.01734 0.22935 0.32077 0.0
C1028 C 0.02086 0.22188 0.36068 0.0
C1029 C 0.03098 0.22808 0.38355 0.0
C1030 C 0.03779 0.24811 0.3921 0.0
C1031 C 0.04478 0.25319 0.41476 0.0
C1032 C 0.04478 0.2383 0.42915 0.0
C1033 C 0.03827 0.21842 0.42077 0.0
C1034 C 0.03147 0.21332 0.39805 0.0
H1035 H 0.04961 0.24214 0.44685 0.0
H1036 H 0.94866 0.20428 0.24791 0.0
H1037 H 0.8246 0.74108 0.37323 0.0
H1038 H 0.79865 0.75056 0.36431 0.0
H1039 H 0.84527 0.80819 0.33572 0.0
H1040 H 0.87138 0.79884 0.34487 0.0
H1041 H 0.81991 0.8124 0.36809 0.0
H1042 H 0.81189 0.77112 0.30015 0.0
H1043 H 0.80677 0.73963 0.28041 0.0
H1044 H 0.74961 0.70365 0.31538 0.0
H1045 H 0.75449 0.73487 0.33552 0.0
H1046 H 0.74093 0.83575 0.33771 0.0
H1047 H 0.77096 0.83108 0.33315 0.0
H1048 H 0.73471 0.76795 0.35578 0.0
H1049 H 0.70522 0.77258 0.36036 0.0
H1050 H 0.75773 0.76998 0.32076 0.0
H1051 H 0.76507 0.80457 0.39217 0.0
H1052 H 0.76851 0.83188 0.41873 0.0
H1053 H 0.82426 0.87568 0.38553 0.0
H1054 H 0.82092 0.84868 0.35843 0.0
C1055 C 0.82925 0.75567 0.36483 0.0
C1056 C 0.84995 0.76924 0.35971 0.0
C1057 C 0.81444 0.76102 0.35965 0.0
C1058 C 0.82006 0.78002 0.34923 0.0
C1059 C 0.84066 0.79343 0.34368 0.0
C1060 C 0.85549 0.78802 0.34873 0.0
C1061 C 0.80452 0.78623 0.3453 0.0
C1062 C 0.80655 0.8035 0.35724 0.0
C1063 C 0.78676 0.77405 0.33191 0.0
C1064 C 0.78359 0.75535 0.31938 0.0
C1065 C 0.79826 0.75648 0.30368 0.0
C1066 C 0.7954 0.73868 0.29242 0.0
C1067 C 0.77788 0.71965 0.29665 0.0
C1068 C 0.76316 0.7184 0.3121 0.0
C1069 C 0.76594 0.73615 0.3234 0.0
C1070 C 0.73946 0.82086 0.34128 0.0
C1071 C 0.72094 0.80454 0.34947 0.0
C1072 C 0.75655 0.81822 0.33883 0.0
C1073 C 0.75505 0.79917 0.34425 0.0
C1074 C 0.73623 0.78273 0.35144 0.0
C1075 C 0.71942 0.78543 0.35414 0.0
C1076 C 0.77302 0.79615 0.34363 0.0
C1077 C 0.77138 0.77935 0.331 0.0
C1078 C 0.79078 0.80829 0.35711 0.0
C1079 C 0.79251 0.82471 0.37294 0.0
C1080 C 0.77788 0.8201 0.39027 0.0
C1081 C 0.77985 0.83551 0.40548 0.0
C1082 C 0.79653 0.85553 0.40373 0.0
C1083 C 0.81129 0.86018 0.38678 0.0
C1084 C 0.80935 0.84484 0.37146 0.0
H1085 H 0.79806 0.86743 0.41558 0.0
H1086 H 0.77572 0.70588 0.28794 0.0
H1087 H 0.20332 0.07194 0.35287 0.0
H1088 H 0.19437 0.03574 0.3473 0.0
H1089 H 0.25764 0.05305 0.35835 0.0
H1090 H 0.2665 0.08902 0.36365 0.0
H1091 H 0.24118 0.02407 0.32649 0.0
H1092 H 0.22399 0.03616 0.40106 0.0
H1093 H 0.20741 0.04735 0.42949 0.0
H1094 H 0.1482 -0.00043 0.4066 0.0
H1095 H 0.16443 0.9887 0.37717 0.0
H1096 H 0.23281 0.93083 0.35845 0.0
H1097 H 0.23642 0.96435 0.36793 0.0
H1098 H 0.17584 0.94375 0.34104 0.0
H1099 H 0.17241 0.91027 0.33109 0.0
H1100 H 0.18974 0.97375 0.38061 0.0
H1101 H 0.21072 0.9627 0.3051 0.0
H1102 H 0.23038 0.95405 0.27795 0.0
H1103 H 0.28673 0.00184 0.30721 0.0
H1104 H 0.26739 0.01046 0.33489 0.0
C1105 C 0.21532 0.06799 0.35337 0.0
C1106 C 0.23555 0.08306 0.35867 0.0
C1107 C 0.2102 0.04736 0.35043 0.0
C1108 C 0.22529 0.04166 0.35285 0.0
C1109 C 0.24574 0.05706 0.35649 0.0
C1110 C 0.25081 0.07757 0.35949 0.0
C1111 C 0.21978 0.01964 0.3533 0.0
C1112 C 0.23001 0.01312 0.33842 0.0
C1113 C 0.20525 0.00536 0.36894 0.0
C1114 C 0.19543 0.01179 0.38667 0.0
C1115 C 0.20743 0.02818 0.40187 0.0
C1116 C 0.19809 0.03445 0.41821 0.0
C1117 C 0.17676 0.02413 0.41994 0.0
C1118 C 0.16473 0.00757 0.40523 0.0
C1119 C 0.17398 0.00141 0.38863 0.0
C1120 C 0.21975 0.93298 0.35597 0.0
C1121 C 0.20224 0.91795 0.34428 0.0
C1122 C 0.22197 0.95226 0.36103 0.0
C1123 C 0.20657 0.95661 0.35469 0.0
C1124 C 0.18791 0.94066 0.34597 0.0
C1125 C 0.18581 0.92142 0.34063 0.0
C1126 C 0.21112 0.97828 0.35378 0.0
C1127 C 0.20077 0.98472 0.3686 0.0
C1128 C 0.226 0.99269 0.33852 0.0
C1129 C 0.23757 0.98699 0.32233 0.0
C1130 C 0.22728 0.97113 0.30601 0.0
C1131 C 0.23838 0.96628 0.29047 0.0
C1132 C 0.25979 0.97733 0.29091 0.0
C1133 C 0.27015 0.99323 0.30693 0.0
C1134 C 0.25912 0.99808 0.32258 0.0
H1135 H 0.26834 0.97361 0.27879 0.0
H1136 H 0.16957 0.02895 0.43269 0.0
H1137 H 0.51222 0.58396 0.34674 0.0
H1138 H 0.53889 0.62023 0.35174 0.0
H1139 H 0.50286 0.63912 0.3116 0.0
H1140 H 0.47664 0.6028 0.30592 0.0
H1141 H 0.54035 0.65729 0.29637 0.0
H1142 H 0.51044 0.64757 0.3714 0.0
H1143 H 0.4977 0.62975 0.40839 0.0
H1144 H 0.5577 0.64026 0.42507 0.0
H1145 H 0.57075 0.65787 0.38801 0.0
H1146 H 0.61232 0.76607 0.33704 0.0
H1147 H 0.58042 0.73342 0.32847 0.0
H1148 H 0.61218 0.6996 0.33896 0.0
H1149 H 0.6439 0.73173 0.34617 0.0
H1150 H 0.57412 0.69146 0.36978 0.0
H1151 H 0.60213 0.69474 0.29404 0.0
H1152 H 0.61606 0.711 0.25664 0.0
H1153 H 0.56025 0.7109 0.24138 0.0
H1154 H 0.54621 0.69512 0.27906 0.0
C1155 C 0.50989 0.59596 0.33952 0.0
C1156 C 0.49244 0.59082 0.32619 0.0
C1157 C 0.52506 0.61665 0.34236 0.0
C1158 C 0.5228 0.63247 0.33224 0.0
C1159 C 0.50494 0.62723 0.31958 0.0
C1160 C 0.48994 0.60656 0.31648 0.0
C1161 C 0.5397 0.65428 0.3333 0.0
C1162 C 0.54738 0.66489 0.31251 0.0
C1163 C 0.54926 0.6641 0.35427 0.0
C1164 C 0.54155 0.65396 0.37684 0.0
C1165 C 0.52091 0.64601 0.3829 0.0
C1166 C 0.51362 0.63594 0.40389 0.0
C1167 C 0.52687 0.63385 0.41906 0.0
C1168 C 0.54745 0.64189 0.4133 0.0
C1169 C 0.55481 0.65195 0.39232 0.0
C1170 C 0.61264 0.75176 0.33643 0.0
C1171 C 0.63052 0.75141 0.34247 0.0
C1172 C 0.5944 0.73314 0.33187 0.0
C1173 C 0.594 0.71418 0.33354 0.0
C1174 C 0.61219 0.71407 0.33776 0.0
C1175 C 0.63032 0.73249 0.3417 0.0
C1176 C 0.57458 0.69422 0.33293 0.0
C1177 C 0.5666 0.68396 0.35378 0.0
C1178 C 0.56488 0.6846 0.31207 0.0
C1179 C 0.57333 0.69424 0.28958 0.0
C1180 C 0.59299 0.69856 0.28292 0.0
C1181 C 0.60087 0.70761 0.26162 0.0
C1182 C 0.5891 0.71212 0.2467 0.0
C1183 C 0.56939 0.70752 0.25302 0.0
C1184 C 0.56148 0.69857 0.27436 0.0
H1185 H 0.59521 0.71908 0.23019 0.0
H1186 H 0.5212 0.62602 0.43528 0.0
H1187 H 0.4194 0.93253 0.30877 0.0
H1188 H 0.38414 0.92288 0.31653 0.0
H1189 H 0.37818 0.87455 0.36175 0.0
H1190 H 0.41315 0.88301 0.35247 0.0
H1191 H 0.34602 0.86069 0.33436 0.0
H1192 H 0.38222 0.92173 0.38233 0.0
H1193 H 0.4085 0.95808 0.38959 0.0
H1194 H 0.38148 0.97784 0.33774 0.0
H1195 H 0.35519 0.94165 0.32999 0.0
H1196 H 0.24583 0.85236 0.36119 0.0
H1197 H 0.27968 0.85539 0.36706 0.0
H1198 H 0.30431 0.89944 0.31189 0.0
H1199 H 0.27131 0.89654 0.30574 0.0
H1200 H 0.32616 0.91276 0.35438 0.0
H1201 H 0.29637 0.85624 0.3004 0.0
H1202 H 0.27257 0.82136 0.28549 0.0
H1203 H 0.28898 0.79468 0.34104 0.0
H1204 H 0.31251 0.82942 0.35662 0.0
C1205 C 0.41062 0.91973 0.32023 0.0
C1206 C 0.41913 0.90845 0.32984 0.0
C1207 C 0.3905 0.91445 0.325 0.0
C1208 C 0.37862 0.89828 0.34015 0.0
C1209 C 0.38714 0.88722 0.35017 0.0
C1210 C 0.40721 0.89223 0.34503 0.0
C1211 C 0.35697 0.89231 0.34436 0.0
C1212 C 0.34164 0.87192 0.33944 0.0
C1213 C 0.35129 0.90711 0.35036 0.0
C1214 C 0.36671 0.92895 0.35562 0.0
C1215 C 0.38188 0.93383 0.37249 0.0
C1216 C 0.3968 0.95441 0.37666 0.0
C1217 C 0.39665 0.97025 0.36414 0.0
C1218 C 0.38155 0.96556 0.34747 0.0
C1219 C 0.3666 0.94503 0.34323 0.0
C1220 C 0.25847 0.86259 0.35029 0.0
C1221 C 0.25581 0.87435 0.33318 0.0
C1222 C 0.27772 0.86425 0.35361 0.0
C1223 C 0.29443 0.87776 0.33997 0.0
C1224 C 0.29163 0.88907 0.3227 0.0
C1225 C 0.27263 0.88734 0.31926 0.0
C1226 C 0.31533 0.88133 0.34386 0.0
C1227 C 0.33052 0.90132 0.35027 0.0
C1228 C 0.32088 0.86634 0.33859 0.0
C1229 C 0.30583 0.84543 0.33001 0.0
C1230 C 0.29455 0.84294 0.30976 0.0
C1231 C 0.28118 0.82319 0.3011 0.0
C1232 C 0.27915 0.8058 0.31237 0.0
C1233 C 0.29043 0.80813 0.33239 0.0
C1234 C 0.30375 0.82786 0.34119 0.0
H1235 H 0.26896 0.79056 0.30546 0.0
H1236 H 0.40825 0.98616 0.36735 0.0
H1237 H 0.0879 0.50447 0.35654 0.0
H1238 H 0.09849 0.47846 0.36146 0.0
H1239 H 0.14278 0.50697 0.30722 0.0
H1240 H 0.13209 0.53264 0.30216 0.0
H1241 H 0.11763 0.46521 0.30066 0.0
H1242 H 0.15755 0.5117 0.36396 0.0
H1243 H 0.1609 0.53052 0.40012 0.0
H1244 H 0.1199 0.47346 0.43356 0.0
H1245 H 0.1161 0.45435 0.39756 0.0
H1246 H 0.15216 0.39041 0.32125 0.0
H1247 H 0.15288 0.42321 0.31248 0.0
H1248 H 0.11368 0.41353 0.37064 0.0
H1249 H 0.11349 0.38244 0.37978 0.0
H1250 H 0.14334 0.45032 0.37237 0.0
H1251 H 0.09649 0.40406 0.31478 0.0
H1252 H 0.08528 0.38137 0.2806 0.0
H1253 H 0.12883 0.43151 0.23915 0.0
H1254 H 0.14055 0.45441 0.27321 0.0
C1255 C 0.10021 0.50536 0.34613 0.0
C1256 C 0.10924 0.52041 0.32901 0.0
C1257 C 0.1062 0.49054 0.34885 0.0
C1258 C 0.12143 0.49085 0.33464 0.0
C1259 C 0.13096 0.50644 0.31823 0.0
C1260 C 0.12494 0.5211 0.31546 0.0
C1261 C 0.12674 0.47435 0.33587 0.0
C1262 C 0.12357 0.46208 0.31622 0.0
C1263 C 0.13392 0.47003 0.35634 0.0
C1264 C 0.1365 0.48162 0.37802 0.0
C1265 C 0.14918 0.50319 0.37899 0.0
C1266 C 0.15116 0.5139 0.39947 0.0
C1267 C 0.14061 0.5032 0.41912 0.0
C1268 C 0.12808 0.48174 0.41835 0.0
C1269 C 0.12603 0.47097 0.39792 0.0
C1270 C 0.14393 0.39554 0.33215 0.0
C1271 C 0.13288 0.38375 0.35123 0.0
C1272 C 0.14422 0.41412 0.32708 0.0
C1273 C 0.13348 0.42091 0.3411 0.0
C1274 C 0.12235 0.40889 0.35976 0.0
C1275 C 0.12217 0.39082 0.36484 0.0
C1276 C 0.13344 0.44049 0.33743 0.0
C1277 C 0.13779 0.4536 0.35659 0.0
C1278 C 0.12624 0.44481 0.31691 0.0
C1279 C 0.11972 0.43083 0.29664 0.0
C1280 C 0.10392 0.41016 0.29847 0.0
C1281 C 0.09741 0.39728 0.27909 0.0
C1282 C 0.10642 0.40496 0.25774 0.0
C1283 C 0.12194 0.42554 0.25572 0.0
C1284 C 0.12855 0.43847 0.27506 0.0
H1285 H 0.10131 0.39498 0.24275 0.0
H1286 H 0.14216 0.51152 0.43495 0.0
H1287 H 0.3912 0.5141 0.37007 0.0
H1288 H 0.35364 0.49341 0.37154 0.0
H1289 H 0.35422 0.45467 0.31672 0.0
H1290 H 0.39179 0.47553 0.31519 0.0
H1291 H 0.32645 0.46707 0.30938 0.0
H1292 H 0.34544 0.43813 0.37276 0.0
H1293 H 0.36326 0.44091 0.40937 0.0
H1294 H 0.32929 0.46566 0.44243 0.0
H1295 H 0.31143 0.46325 0.40591 0.0
H1296 H 0.23426 0.37742 0.30556 0.0
H1297 H 0.26832 0.40592 0.30918 0.0
H1298 H 0.25177 0.42581 0.37114 0.0
H1299 H 0.21673 0.39563 0.3683 0.0
H1300 H 0.28687 0.42891 0.37799 0.0
H1301 H 0.27143 0.46259 0.31522 0.0
H1302 H 0.26061 0.46903 0.27749 0.0
H1303 H 0.2899 0.43973 0.24345 0.0
H1304 H 0.3013 0.43362 0.28094 0.0
C1305 C 0.3832 0.50115 0.35835 0.0
C1306 C 0.39415 0.49634 0.34244 0.0
C1307 C 0.36181 0.48927 0.35932 0.0
C1308 C 0.35108 0.47233 0.34442 0.0
C1309 C 0.36216 0.46763 0.32843 0.0
C1310 C 0.38356 0.47951 0.3275 0.0
C1311 C 0.32829 0.45995 0.34469 0.0
C1312 C 0.31779 0.45856 0.32434 0.0
C1313 C 0.31691 0.44973 0.36452 0.0
C1314 C 0.32721 0.45064 0.38659 0.0
C1315 C 0.34183 0.44424 0.38782 0.0
C1316 C 0.35194 0.44575 0.40855 0.0
C1317 C 0.34744 0.45349 0.42821 0.0
C1318 C 0.33276 0.45967 0.42719 0.0
C1319 C 0.32262 0.45821 0.40649 0.0
C1320 C 0.23748 0.38771 0.3201 0.0
C1321 C 0.22246 0.38382 0.33683 0.0
C1322 C 0.2572 0.40453 0.32182 0.0
C1323 C 0.26282 0.41867 0.34001 0.0
C1324 C 0.24786 0.4153 0.3567 0.0
C1325 C 0.22779 0.39806 0.35508 0.0
C1326 C 0.28484 0.43534 0.34222 0.0
C1327 C 0.29535 0.43762 0.36308 0.0
C1328 C 0.29639 0.44671 0.32286 0.0
C1329 C 0.28693 0.44742 0.30083 0.0
C1330 C 0.27522 0.45721 0.2997 0.0
C1331 C 0.26927 0.46108 0.27835 0.0
C1332 C 0.27471 0.45493 0.25809 0.0
C1333 C 0.28582 0.44461 0.25913 0.0
C1334 C 0.29209 0.44101 0.2804 0.0
H1335 H 0.27017 0.45803 0.24158 0.0
H1336 H 0.3553 0.45468 0.44423 0.0
H1337 H 0.49905 0.88013 0.31228 0.0
H1338 H 0.52098 0.86439 0.31254 0.0
H1339 H 0.55019 0.89788 0.37489 0.0
H1340 H 0.5286 0.91376 0.37432 0.0
H1341 H 0.57777 0.90018 0.34513 0.0
H1342 H 0.5129 0.84532 0.3743 0.0
H1343 H 0.47589 0.82007 0.37263 0.0
H1344 H 0.48477 0.79287 0.31179 0.0
H1345 H 0.5218 0.81812 0.31296 0.0
H1346 H 0.63359 0.85368 0.37834 0.0
H1347 H 0.60601 0.862 0.38049 0.0
H1348 H 0.5792 0.8268 0.31838 0.0
H1349 H 0.60653 0.81823 0.31656 0.0
H1350 H 0.54982 0.8244 0.34616 0.0
H1351 H 0.61292 0.87742 0.31548 0.0
H1352 H 0.65001 0.90228 0.31452 0.0
H1353 H 0.64459 0.93319 0.37414 0.0
H1354 H 0.6075 0.90826 0.37571 0.0
C1355 C 0.51034 0.88419 0.32584 0.0
C1356 C 0.51244 0.89819 0.34317 0.0
C1357 C 0.52268 0.87508 0.32612 0.0
C1358 C 0.53707 0.87977 0.34391 0.0
C1359 C 0.53921 0.89402 0.36103 0.0
C1360 C 0.52696 0.90312 0.36068 0.0
C1361 C 0.55034 0.87035 0.34466 0.0
C1362 C 0.57162 0.88361 0.3457 0.0
C1363 C 0.54237 0.84871 0.34445 0.0
C1364 C 0.52007 0.83376 0.34358 0.0
C1365 C 0.50693 0.83409 0.36044 0.0
C1366 C 0.48595 0.81974 0.35961 0.0
C1367 C 0.47798 0.80491 0.34208 0.0
C1368 C 0.49096 0.80439 0.32534 0.0
C1369 C 0.51194 0.8187 0.32608 0.0
C1370 C 0.62122 0.84694 0.36586 0.0
C1371 C 0.62185 0.83509 0.34752 0.0
C1372 C 0.60566 0.85191 0.36687 0.0
C1373 C 0.59081 0.84538 0.3493 0.0
C1374 C 0.59049 0.83203 0.33208 0.0
C1375 C 0.606 0.82702 0.33114 0.0
C1376 C 0.57716 0.85427 0.34736 0.0
C1377 C 0.55591 0.84096 0.34579 0.0
C1378 C 0.58513 0.87589 0.34667 0.0
C1379 C 0.60747 0.89081 0.34588 0.0
C1380 C 0.61967 0.88938 0.32853 0.0
C1381 C 0.64069 0.90351 0.32785 0.0
C1382 C 0.64966 0.91927 0.3443 0.0
C1383 C 0.63762 0.92094 0.36144 0.0
C1384 C 0.6166 0.90681 0.36224 0.0
H1385 H 0.66593 0.93022 0.34372 0.0
H1386 H 0.46174 0.7938 0.34149 0.0
H1387 H 0.10417 0.62409 0.37332 0.0
H1388 H 0.12073 0.66175 0.37099 0.0
H1389 H 0.14176 0.6598 0.30258 0.0
H1390 H 0.1253 0.62188 0.30514 0.0
H1391 H 0.17214 0.69098 0.33007 0.0
H1392 H 0.10194 0.66733 0.30945 0.0
H1393 H 0.0646 0.64639 0.31501 0.0
H1394 H 0.07004 0.67733 0.37917 0.0
H1395 H 0.10746 0.69819 0.37423 0.0
H1396 H 0.18201 0.79694 0.31806 0.0
H1397 H 0.17546 0.76193 0.30909 0.0
H1398 H 0.16891 0.74759 0.38136 0.0
H1399 H 0.17614 0.78242 0.39036 0.0
H1400 H 0.1315 0.72543 0.34426 0.0
H1401 H 0.199 0.7413 0.37077 0.0
H1402 H 0.23673 0.76111 0.37018 0.0
H1403 H 0.23621 0.74465 0.29928 0.0
H1404 H 0.19835 0.72508 0.29934 0.0
C1405 C 0.11219 0.63174 0.35774 0.0
C1406 C 0.11332 0.62031 0.33928 0.0
C1407 C 0.12165 0.65321 0.3564 0.0
C1408 C 0.13226 0.66359 0.33648 0.0
C1409 C 0.13358 0.6521 0.31806 0.0
C1410 C 0.1241 0.63053 0.31944 0.0
C1411 C 0.14182 0.68641 0.33517 0.0
C1412 C 0.16318 0.6985 0.33262 0.0
C1413 C 0.1302 0.69626 0.33894 0.0
C1414 C 0.10756 0.68429 0.34149 0.0
C1415 C 0.09519 0.66964 0.32478 0.0
C1416 C 0.074 0.65776 0.32783 0.0
C1417 C 0.06496 0.66052 0.34744 0.0
C1418 C 0.07707 0.67522 0.36399 0.0
C1419 C 0.09827 0.6871 0.36105 0.0
C1420 C 0.18052 0.78674 0.33203 0.0
C1421 C 0.17955 0.79232 0.35489 0.0
C1422 C 0.17642 0.76665 0.32689 0.0
C1423 C 0.17142 0.75218 0.3446 0.0
C1424 C 0.17276 0.75855 0.3675 0.0
C1425 C 0.17714 0.77855 0.37261 0.0
C1426 C 0.16172 0.72982 0.33959 0.0
C1427 C 0.14032 0.71785 0.34101 0.0
C1428 C 0.17327 0.7201 0.33524 0.0
C1429 C 0.19591 0.73199 0.33497 0.0
C1430 C 0.20692 0.74218 0.35496 0.0
C1431 C 0.22831 0.7533 0.35475 0.0
C1432 C 0.23884 0.75411 0.33471 0.0
C1433 C 0.228 0.74398 0.31478 0.0
C1434 C 0.20658 0.73289 0.31489 0.0
H1435 H 0.2554 0.76243 0.33469 0.0
H1436 H 0.04856 0.65127 0.3498 0.0
H1437 H 0.81084 0.0521 0.37033 0.0
H1438 H 0.78926 0.01426 0.37211 0.0
H1439 H 0.83199 0.00783 0.32852 0.0
H1440 H 0.85335 0.04555 0.32663 0.0
H1441 H 0.79235 0.98282 0.31477 0.0
H1442 H 0.83064 0.99927 0.38627 0.0
H1443 H 0.84281 0.01761 0.42336 0.0
H1444 H 0.78066 0.99171 0.44621 0.0
H1445 H 0.76813 0.97345 0.40914 0.0
H1446 H 0.74163 0.87632 0.32004 0.0
H1447 H 0.77098 0.91076 0.32694 0.0
H1448 H 0.73663 0.92149 0.37897 0.0
H1449 H 0.7078 0.88678 0.37273 0.0
H1450 H 0.77419 0.94456 0.38844 0.0
H1451 H 0.7347 0.93085 0.31899 0.0
H1452 H 0.71976 0.91499 0.28142 0.0
H1453 H 0.78 0.93745 0.25394 0.0
H1454 H 0.79531 0.95317 0.29147 0.0
C1455 C 0.81561 0.0425 0.36137 0.0
C1456 C 0.83373 0.05146 0.34859 0.0
C1457 C 0.80335 0.02096 0.36237 0.0
C1458 C 0.80914 0.0082 0.35064 0.0
C1459 C 0.82726 0.01734 0.33775 0.0
C1460 C 0.83948 0.03881 0.33679 0.0
C1461 C 0.79625 0.98533 0.35151 0.0
C1462 C 0.78865 0.97437 0.33083 0.0
C1463 C 0.79089 0.97441 0.3725 0.0
C1464 C 0.79846 0.98511 0.3949 0.0
C1465 C 0.81958 0.99758 0.39917 0.0
C1466 C 0.82654 0.00795 0.42019 0.0
C1467 C 0.81252 0.00585 0.43712 0.0
C1468 C 0.79151 0.99333 0.43309 0.0
C1469 C 0.78447 0.98295 0.41209 0.0
C1470 C 0.74095 0.88549 0.33411 0.0
C1471 C 0.72247 0.87894 0.34585 0.0
C1472 C 0.75753 0.90544 0.33761 0.0
C1473 C 0.75567 0.91914 0.35266 0.0
C1474 C 0.73839 0.9114 0.36694 0.0
C1475 C 0.72197 0.89135 0.36368 0.0
C1476 C 0.7702 0.94184 0.35165 0.0
C1477 C 0.77807 0.95286 0.37229 0.0
C1478 C 0.77537 0.95289 0.33058 0.0
C1479 C 0.76614 0.94291 0.30818 0.0
C1480 C 0.74476 0.9322 0.30503 0.0
C1481 C 0.73622 0.92327 0.28371 0.0
C1482 C 0.74892 0.92514 0.26533 0.0
C1483 C 0.77018 0.93594 0.26822 0.0
C1484 C 0.77879 0.94484 0.28951 0.0
H1485 H 0.74228 0.91827 0.24883 0.0
H1486 H 0.81793 0.01391 0.45337 0.0
H1487 H 0.95314 0.76019 0.32342 0.0
H1488 H 0.99024 0.77457 0.32191 0.0
H1489 H 0.99803 0.81482 0.37915 0.0
H1490 H 0.96064 0.80057 0.38027 0.0
H1491 H 0.02556 0.83552 0.34572 0.0
H1492 H 0.00383 0.77318 0.38679 0.0
H1493 H 0.98246 0.73595 0.39455 0.0
H1494 H 0.0033 0.72184 0.33213 0.0
H1495 H 0.02454 0.75899 0.32377 0.0
H1496 H 0.13144 0.86002 0.35581 0.0
H1497 H 0.09601 0.85211 0.36096 0.0
H1498 H 0.07638 0.80615 0.30709 0.0
H1499 H 0.11161 0.81347 0.30267 0.0
H1500 H 0.05555 0.78974 0.34464 0.0
H1501 H 0.07599 0.85307 0.30297 0.0
H1502 H 0.09764 0.8905 0.29652 0.0
H1503 H 0.07973 0.90298 0.36193 0.0
H1504 H 0.05829 0.86559 0.36898 0.0
C1505 C 0.9628 0.77188 0.33589 0.0
C1506 C 0.95425 0.77911 0.3522 0.0
C1507 C 0.98396 0.78011 0.33501 0.0
C1508 C 0.99693 0.7956 0.35062 0.0
C1509 C 0.98831 0.80283 0.36702 0.0
C1510 C 0.96704 0.7946 0.3678 0.0
C1511 C 0.01944 0.80427 0.34931 0.0
C1512 C 0.0322 0.82558 0.34584 0.0
C1513 C 0.02809 0.79129 0.34937 0.0
C1514 C 0.01568 0.7689 0.35458 0.0
C1515 C 0.00378 0.76215 0.37465 0.0
C1516 C 0.99168 0.74105 0.37915 0.0
C1517 C 0.99149 0.72653 0.36382 0.0
C1518 C 0.00346 0.7331 0.34399 0.0
C1519 C 0.01555 0.75418 0.33937 0.0
C1520 C 0.11967 0.84895 0.34434 0.0
C1521 C 0.1242 0.83755 0.32857 0.0
C1522 C 0.09938 0.84427 0.34746 0.0
C1523 C 0.08346 0.82843 0.33449 0.0
C1524 C 0.08835 0.81832 0.3174 0.0
C1525 C 0.10851 0.82273 0.31459 0.0
C1526 C 0.06159 0.82088 0.33999 0.0
C1527 C 0.04897 0.79974 0.34455 0.0
C1528 C 0.05318 0.83406 0.3411 0.0
C1529 C 0.06569 0.85652 0.3366 0.0
C1530 C 0.07677 0.86379 0.31605 0.0
C1531 C 0.08901 0.885 0.31229 0.0
C1532 C 0.09011 0.89911 0.32883 0.0
C1533 C 0.0789 0.89203 0.34915 0.0
C1534 C 0.0667 0.87083 0.35303 0.0
H1535 H 0.0996 0.91552 0.32589 0.0
H1536 H 0.9821 0.71021 0.36732 0.0
H1537 H 0.2554 0.20642 0.34571 0.0
H1538 H 0.23902 0.22776 0.34618 0.0
H1539 H 0.18074 0.17363 0.36039 0.0
H1540 H 0.19712 0.15231 0.35972 0.0
H1541 H 0.1794 0.20056 0.3259 0.0
H1542 H 0.20882 0.20638 0.40455 0.0
H1543 H 0.23895 0.2159 0.42934 0.0
H1544 H 0.26999 0.2765 0.3997 0.0
H1545 H 0.24009 0.26728 0.37471 0.0
H1546 H 0.1344 0.26188 0.33573 0.0
H1547 H 0.14077 0.23397 0.34651 0.0
H1548 H 0.20038 0.27996 0.3726 0.0
H1549 H 0.19165 0.30622 0.36686 0.0
H1550 H 0.19844 0.25244 0.38808 0.0
H1551 H 0.17984 0.25314 0.30696 0.0
H1552 H 0.15716 0.24834 0.27392 0.0
H1553 H 0.11634 0.18577 0.29443 0.0
H1554 H 0.13867 0.19026 0.32765 0.0
C1555 C 0.23914 0.19921 0.34914 0.0
C1556 C 0.22749 0.17792 0.35316 0.0
C1557 C 0.22979 0.21133 0.34928 0.0
C1558 C 0.20868 0.20228 0.3535 0.0
C1559 C 0.19703 0.1809 0.35713 0.0
C1560 C 0.20639 0.1688 0.35699 0.0
C1561 C 0.19885 0.21514 0.35517 0.0
C1562 C 0.1835 0.21208 0.33936 0.0
C1563 C 0.20472 0.23054 0.37221 0.0
C1564 C 0.22228 0.23613 0.38783 0.0
C1565 C 0.22208 0.22172 0.40338 0.0
C1566 C 0.23911 0.22706 0.41743 0.0
C1567 C 0.25637 0.24678 0.41609 0.0
C1568 C 0.25661 0.26124 0.40076 0.0
C1569 C 0.23962 0.25599 0.3867 0.0
C1570 C 0.14803 0.26554 0.34559 0.0
C1571 C 0.16283 0.28619 0.35009 0.0
C1572 C 0.15223 0.24969 0.3507 0.0
C1573 C 0.17189 0.25461 0.3586 0.0
C1574 C 0.18512 0.27504 0.36623 0.0
C1575 C 0.18004 0.29036 0.36316 0.0
C1576 C 0.17966 0.23958 0.35749 0.0
C1577 C 0.19441 0.24168 0.37387 0.0
C1578 C 0.17444 0.2246 0.3396 0.0
C1579 C 0.16075 0.22215 0.31999 0.0
C1580 C 0.16594 0.23843 0.3045 0.0
C1581 C 0.15316 0.23574 0.28574 0.0
C1582 C 0.13528 0.21679 0.28214 0.0
C1583 C 0.13014 0.20047 0.29728 0.0
C1584 C 0.14284 0.20307 0.31608 0.0
H1585 H 0.12543 0.21473 0.26759 0.0
H1586 H 0.26956 0.25086 0.42694 0.0
H1587 H 0.58988 0.51859 0.6919 0.0
H1588 H 0.62596 0.54386 0.68459 0.0
H1589 H 0.63829 0.49428 0.67181 0.0
H1590 H 0.60221 0.46898 0.67897 0.0
H1591 H 0.66482 0.52508 0.70521 0.0
H1592 H 0.63879 0.52096 0.62727 0.0
H1593 H 0.61454 0.52212 0.59956 0.0
H1594 H 0.63268 0.58386 0.62145 0.0
H1595 H 0.65691 0.58299 0.6494 0.0
H1596 H 0.76945 0.59635 0.68008 0.0
H1597 H 0.73465 0.5663 0.67551 0.0
H1598 H 0.71003 0.60742 0.6719 0.0
H1599 H 0.7444 0.63698 0.67596 0.0
H1600 H 0.68998 0.5778 0.64366 0.0
H1601 H 0.71099 0.58399 0.72201 0.0
H1602 H 0.7322 0.5858 0.75525 0.0
H1603 H 0.7209 0.52475 0.73999 0.0
H1604 H 0.69984 0.5227 0.7064 0.0
C1605 C 0.60026 0.51316 0.68713 0.0
C1606 C 0.59334 0.49192 0.68582 0.0
C1607 C 0.62079 0.52754 0.68298 0.0
C1608 C 0.6347 0.52085 0.67767 0.0
C1609 C 0.62773 0.49967 0.67586 0.0
C1610 C 0.60715 0.48529 0.67972 0.0
C1611 C 0.65669 0.53602 0.67502 0.0
C1612 C 0.6705 0.53635 0.69146 0.0
C1613 C 0.66376 0.55117 0.65768 0.0
C1614 C 0.64963 0.55189 0.64042 0.0
C1615 C 0.63757 0.53476 0.62618 0.0
C1616 C 0.62383 0.53537 0.61044 0.0
C1617 C 0.62207 0.55305 0.60875 0.0
C1618 C 0.63409 0.57018 0.62275 0.0
C1619 C 0.64786 0.56966 0.63849 0.0
C1620 C 0.75657 0.59879 0.67758 0.0
C1621 C 0.75939 0.61879 0.67817 0.0
C1622 C 0.73675 0.58172 0.67525 0.0
C1623 C 0.71969 0.58461 0.67362 0.0
C1624 C 0.72287 0.60474 0.67302 0.0
C1625 C 0.74249 0.62163 0.67534 0.0
C1626 C 0.69837 0.567 0.67389 0.0
C1627 C 0.68456 0.56626 0.65711 0.0
C1628 C 0.69115 0.55201 0.69154 0.0
C1629 C 0.70414 0.55333 0.71143 0.0
C1630 C 0.71324 0.57105 0.72555 0.0
C1631 C 0.72519 0.5721 0.7445 0.0
C1632 C 0.72798 0.55544 0.74966 0.0
C1633 C 0.71879 0.53768 0.73591 0.0
C1634 C 0.70686 0.53657 0.7169 0.0
H1635 H 0.7372 0.55626 0.76436 0.0
H1636 H 0.61139 0.55347 0.59659 0.0
H1637 H 0.4917 0.0733 0.69905 0.0
H1638 H 0.46571 0.08219 0.68843 0.0
H1639 H 0.51317 0.14327 0.66915 0.0
H1640 H 0.53937 0.13434 0.67989 0.0
H1641 H 0.48515 0.14279 0.70035 0.0
H1642 H 0.48249 0.11053 0.6279 0.0
H1643 H 0.48031 0.08258 0.6033 0.0
H1644 H 0.42159 0.04023 0.63185 0.0
H1645 H 0.42353 0.06784 0.65685 0.0
H1646 H 0.40294 0.16272 0.67356 0.0
H1647 H 0.43428 0.16053 0.66863 0.0
H1648 H 0.40059 0.09596 0.68647 0.0
H1649 H 0.36968 0.09819 0.69182 0.0
H1650 H 0.42507 0.10293 0.64924 0.0
H1651 H 0.42851 0.12805 0.72512 0.0
H1652 H 0.43144 0.14982 0.75841 0.0
H1653 H 0.48704 0.19969 0.73115 0.0
H1654 H 0.48424 0.17835 0.69739 0.0
C1655 C 0.49655 0.0885 0.69217 0.0
C1656 C 0.51744 0.10319 0.69029 0.0
C1657 C 0.48172 0.09352 0.68596 0.0
C1658 C 0.48753 0.11331 0.67776 0.0
C1659 C 0.50842 0.12785 0.67524 0.0
C1660 C 0.52331 0.12275 0.68129 0.0
C1661 C 0.47173 0.11924 0.67424 0.0
C1662 C 0.47232 0.13463 0.68858 0.0
C1663 C 0.45461 0.10781 0.65968 0.0
C1664 C 0.45319 0.09128 0.64428 0.0
C1665 C 0.46915 0.09524 0.62899 0.0
C1666 C 0.46795 0.07945 0.61498 0.0
C1667 C 0.45082 0.05964 0.61602 0.0
C1668 C 0.43483 0.05559 0.63104 0.0
C1669 C 0.43595 0.07132 0.64509 0.0
C1670 C 0.40228 0.14806 0.67607 0.0
C1671 C 0.38399 0.13061 0.68303 0.0
C1672 C 0.42013 0.14685 0.67342 0.0
C1673 C 0.4197 0.12808 0.67724 0.0
C1674 C 0.40123 0.11056 0.68338 0.0
C1675 C 0.38362 0.11186 0.68647 0.0
C1676 C 0.43843 0.12646 0.67549 0.0
C1677 C 0.43828 0.11175 0.6603 0.0
C1678 C 0.45567 0.13802 0.68986 0.0
C1679 C 0.45593 0.15174 0.70846 0.0
C1680 C 0.44104 0.14385 0.72585 0.0
C1681 C 0.44276 0.15605 0.7449 0.0
C1682 C 0.45941 0.17608 0.74685 0.0
C1683 C 0.47413 0.18417 0.72954 0.0
C1684 C 0.47244 0.17206 0.71041 0.0
H1685 H 0.4611 0.18521 0.76194 0.0
H1686 H 0.44994 0.04743 0.60518 0.0
H1687 H 0.9326 0.42008 0.7147 0.0
H1688 H 0.92298 0.38414 0.70927 0.0
H1689 H 0.87041 0.37387 0.66914 0.0
H1690 H 0.87923 0.40974 0.67598 0.0
H1691 H 0.85903 0.34423 0.69861 0.0
H1692 H 0.91368 0.37442 0.64466 0.0
H1693 H 0.94836 0.39939 0.6311 0.0
H1694 H 0.97464 0.37798 0.68202 0.0
H1695 H 0.94012 0.35302 0.69606 0.0
H1696 H 0.84361 0.24763 0.6534 0.0
H1697 H 0.84712 0.28111 0.6629 0.0
H1698 H 0.89463 0.29236 0.71198 0.0
H1699 H 0.89095 0.25876 0.70254 0.0
H1700 H 0.90788 0.32111 0.6765 0.0
H1701 H 0.85241 0.29176 0.73083 0.0
H1702 H 0.81738 0.26605 0.74263 0.0
H1703 H 0.7925 0.28543 0.68795 0.0
H1704 H 0.82744 0.31117 0.67573 0.0
C1705 C 0.91896 0.41021 0.70472 0.0
C1706 C 0.9065 0.41773 0.69611 0.0
C1707 C 0.91362 0.38966 0.70134 0.0
C1708 C 0.89603 0.37623 0.68863 0.0
C1709 C 0.88404 0.38392 0.67905 0.0
C1710 C 0.88922 0.40449 0.68275 0.0
C1711 C 0.8896 0.35396 0.68671 0.0
C1712 C 0.86965 0.33921 0.69338 0.0
C1713 C 0.9035 0.3473 0.68032 0.0
C1714 C 0.92429 0.36191 0.6715 0.0
C1715 C 0.92685 0.37508 0.65302 0.0
C1716 C 0.94649 0.38923 0.64525 0.0
C1717 C 0.96369 0.3903 0.65572 0.0
C1718 C 0.9613 0.37713 0.67392 0.0
C1719 C 0.9417 0.36294 0.68176 0.0
C1720 C 0.85373 0.2566 0.66739 0.0
C1721 C 0.86681 0.25054 0.67746 0.0
C1722 C 0.85602 0.27593 0.67252 0.0
C1723 C 0.87142 0.28939 0.68784 0.0
C1724 C 0.88277 0.28227 0.69998 0.0
C1725 C 0.88032 0.26286 0.69497 0.0
C1726 C 0.87749 0.31157 0.68874 0.0
C1727 C 0.89734 0.32624 0.68171 0.0
C1728 C 0.86347 0.31814 0.6945 0.0
C1729 C 0.84249 0.30329 0.70232 0.0
C1730 C 0.83946 0.2905 0.72132 0.0
C1731 C 0.81963 0.27593 0.72807 0.0
C1732 C 0.80272 0.27409 0.71602 0.0
C1733 C 0.80562 0.2869 0.69728 0.0
C1734 C 0.82542 0.30152 0.69047 0.0
H1735 H 0.78738 0.26274 0.72122 0.0
H1736 H 0.97888 0.40131 0.64972 0.0
H1737 H 0.1858 0.91858 0.66237 0.0
H1738 H 0.2124 0.95467 0.66784 0.0
H1739 H 0.16632 0.97279 0.66643 0.0
H1740 H 0.13962 0.93646 0.66081 0.0
H1741 H 0.1971 0.99457 0.6359 0.0
H1742 H 0.1925 0.9772 0.71577 0.0
H1743 H 0.19124 0.95596 0.74873 0.0
H1744 H 0.25146 0.96713 0.7326 0.0
H1745 H 0.25299 0.98823 0.69934 0.0
H1746 H 0.27067 0.09846 0.68113 0.0
H1747 H 0.24076 0.06483 0.67154 0.0
H1748 H 0.28073 0.04127 0.65389 0.0
H1749 H 0.31049 0.0749 0.66274 0.0
H1750 H 0.25192 0.02306 0.69529 0.0
H1751 H 0.25585 0.03682 0.61472 0.0
H1752 H 0.25791 0.05686 0.58026 0.0
H1753 H 0.19986 0.05124 0.59674 0.0
H1754 H 0.19763 0.03144 0.63157 0.0
C1755 C 0.18137 0.93025 0.66398 0.0
C1756 C 0.16078 0.92491 0.66146 0.0
C1757 C 0.19653 0.95084 0.66704 0.0
C1758 C 0.19135 0.96644 0.6676 0.0
C1759 C 0.17062 0.96098 0.66608 0.0
C1760 C 0.1554 0.94029 0.66312 0.0
C1761 C 0.20777 0.98845 0.66774 0.0
C1762 C 0.20883 0.00093 0.64918 0.0
C1763 C 0.22346 0.99651 0.68463 0.0
C1764 C 0.22281 0.98422 0.70496 0.0
C1765 C 0.20544 0.97506 0.71918 0.0
C1766 C 0.20468 0.96304 0.73793 0.0
C1767 C 0.22125 0.96017 0.74274 0.0
C1768 C 0.23864 0.96937 0.72886 0.0
C1769 C 0.23948 0.9814 0.71008 0.0
C1770 C 0.27307 0.0866 0.67353 0.0
C1771 C 0.29286 0.08932 0.67251 0.0
C1772 C 0.25598 0.06724 0.66855 0.0
C1773 C 0.25861 0.05051 0.66252 0.0
C1774 C 0.2784 0.05396 0.65868 0.0
C1775 C 0.2954 0.07334 0.66328 0.0
C1776 C 0.24114 0.02907 0.6635 0.0
C1777 C 0.23998 0.01673 0.68225 0.0
C1778 C 0.22547 0.02105 0.64673 0.0
C1779 C 0.22673 0.03296 0.62592 0.0
C1780 C 0.24365 0.0401 0.61116 0.0
C1781 C 0.24482 0.05135 0.59152 0.0
C1782 C 0.22907 0.0554 0.58636 0.0
C1783 C 0.21208 0.04814 0.6008 0.0
C1784 C 0.21085 0.0369 0.62049 0.0
H1785 H 0.23 0.06411 0.57114 0.0
H1786 H 0.22062 0.95083 0.75724 0.0
H1787 H 0.09318 0.26532 0.68117 0.0
H1788 H 0.05745 0.25578 0.68815 0.0
H1789 H 0.03713 0.19697 0.65474 0.0
H1790 H 0.07292 0.20691 0.64717 0.0
H1791 H 0.01732 0.21501 0.63831 0.0
H1792 H 0.03386 0.2024 0.71518 0.0
H1793 H 0.05407 0.21196 0.75114 0.0
H1794 H 0.04232 0.26193 0.76177 0.0
H1795 H 0.02223 0.2528 0.72576 0.0
H1796 H 0.91203 0.17647 0.66198 0.0
H1797 H 0.94592 0.17916 0.66307 0.0
H1798 H 0.97141 0.2392 0.69519 0.0
H1799 H 0.93777 0.23654 0.69392 0.0
H1800 H 0.98794 0.21836 0.71328 0.0
H1801 H 0.97446 0.2348 0.63872 0.0
H1802 H 0.95719 0.2306 0.60141 0.0
H1803 H 0.96604 0.1797 0.58448 0.0
H1804 H 0.983 0.18331 0.62193 0.0
C1805 C 0.08101 0.25022 0.67579 0.0
C1806 C 0.08557 0.23668 0.66393 0.0
C1807 C 0.06065 0.24474 0.6798 0.0
C1808 C 0.04457 0.22552 0.67223 0.0
C1809 C 0.04926 0.21182 0.66081 0.0
C1810 C 0.06962 0.2174 0.65662 0.0
C1811 C 0.0229 0.22029 0.67471 0.0
C1812 C 0.01072 0.21523 0.65479 0.0
C1813 C 0.01461 0.22156 0.69604 0.0
C1814 C 0.02664 0.22697 0.71772 0.0
C1815 C 0.03569 0.21549 0.72513 0.0
C1816 C 0.0471 0.22082 0.74553 0.0
C1817 C 0.0495 0.23755 0.75872 0.0
C1818 C 0.04045 0.24897 0.75155 0.0
C1819 C 0.02902 0.2437 0.73117 0.0
C1820 C 0.92476 0.18982 0.67007 0.0
C1821 C 0.92237 0.20616 0.67824 0.0
C1822 C 0.94413 0.19151 0.67036 0.0
C1823 C 0.96123 0.20951 0.67895 0.0
C1824 C 0.95846 0.22518 0.6885 0.0
C1825 C 0.93924 0.2236 0.68794 0.0
C1826 C 0.98225 0.21273 0.67694 0.0
C1827 C 0.99437 0.21764 0.69687 0.0
C1828 C 0.99066 0.21186 0.6555 0.0
C1829 C 0.97965 0.20906 0.63337 0.0
C1830 C 0.9724 0.22247 0.62724 0.0
C1831 C 0.96274 0.22025 0.60601 0.0
C1832 C 0.96042 0.20483 0.59063 0.0
C1833 C 0.96775 0.19158 0.59646 0.0
C1834 C 0.97736 0.19368 0.6177 0.0
H1835 H 0.95302 0.2032 0.57416 0.0
H1836 H 0.05834 0.24165 0.77451 0.0
H1837 H 0.75395 0.83721 0.68843 0.0
H1838 H 0.76384 0.81077 0.69341 0.0
H1839 H 0.80976 0.83983 0.6408 0.0
H1840 H 0.79937 0.86573 0.63535 0.0
H1841 H 0.78692 0.79999 0.63251 0.0
H1842 H 0.82176 0.84138 0.6997 0.0
H1843 H 0.82385 0.85919 0.73624 0.0
H1844 H 0.77922 0.8017 0.76612 0.0
H1845 H 0.77662 0.78359 0.72969 0.0
H1846 H 0.82374 0.72691 0.66269 0.0
H1847 H 0.82416 0.75945 0.6535 0.0
H1848 H 0.7683 0.73849 0.69162 0.0
H1849 H 0.76718 0.70645 0.69988 0.0
H1850 H 0.80285 0.77782 0.7062 0.0
H1851 H 0.76247 0.73778 0.6415 0.0
H1852 H 0.75527 0.71752 0.60575 0.0
H1853 H 0.80468 0.76963 0.57219 0.0
H1854 H 0.81251 0.79008 0.60801 0.0
C1855 C 0.76642 0.83809 0.67834 0.0
C1856 C 0.77598 0.85338 0.66156 0.0
C1857 C 0.7721 0.82306 0.68117 0.0
C1858 C 0.78768 0.82342 0.66757 0.0
C1859 C 0.79771 0.83923 0.65144 0.0
C1860 C 0.79185 0.85403 0.64841 0.0
C1861 C 0.7925 0.80651 0.66882 0.0
C1862 C 0.79093 0.79548 0.64855 0.0
C1863 C 0.79713 0.80025 0.68985 0.0
C1864 C 0.79894 0.81114 0.71189 0.0
C1865 C 0.81232 0.83255 0.71402 0.0
C1866 C 0.81359 0.8427 0.73473 0.0
C1867 C 0.80166 0.83159 0.75348 0.0
C1868 C 0.78846 0.81029 0.75159 0.0
C1869 C 0.7871 0.80008 0.73093 0.0
C1870 C 0.81139 0.72917 0.66862 0.0
C1871 C 0.79573 0.71428 0.68244 0.0
C1872 C 0.8117 0.74772 0.66351 0.0
C1873 C 0.79647 0.75141 0.6724 0.0
C1874 C 0.78035 0.73606 0.68497 0.0
C1875 C 0.77982 0.71768 0.68965 0.0
C1876 C 0.79719 0.7714 0.66997 0.0
C1877 C 0.79959 0.78287 0.69006 0.0
C1878 C 0.79277 0.77773 0.64895 0.0
C1879 C 0.7884 0.76531 0.6276 0.0
C1880 C 0.77207 0.74481 0.62666 0.0
C1881 C 0.76781 0.73331 0.60634 0.0
C1882 C 0.7796 0.74223 0.58675 0.0
C1883 C 0.79564 0.76269 0.58743 0.0
C1884 C 0.80003 0.77423 0.60774 0.0
H1885 H 0.77623 0.73333 0.571 0.0
H1886 H 0.80267 0.83948 0.76948 0.0
H1887 H 0.05409 0.83458 0.63403 0.0
H1888 H 0.01647 0.81359 0.63698 0.0
H1889 H 0.02245 0.80279 0.70872 0.0
H1890 H 0.05977 0.82342 0.70563 0.0
H1891 H 0.99621 0.76757 0.68655 0.0
H1892 H 0.00725 0.83774 0.69107 0.0
H1893 H 0.01925 0.87286 0.67636 0.0
H1894 H 0.98214 0.84742 0.61574 0.0
H1895 H 0.97006 0.81216 0.63003 0.0
H1896 H 0.89402 0.71612 0.71839 0.0
H1897 H 0.92987 0.74399 0.71855 0.0
H1898 H 0.92131 0.76248 0.65107 0.0
H1899 H 0.88534 0.73567 0.65177 0.0
H1900 H 0.9491 0.79418 0.66988 0.0
H1901 H 0.93824 0.72582 0.66132 0.0
H1902 H 0.92633 0.68953 0.67131 0.0
H1903 H 0.96314 0.7092 0.73272 0.0
H1904 H 0.97507 0.74561 0.72323 0.0
C1905 C 0.04723 0.82763 0.65033 0.0
C1906 C 0.05958 0.83039 0.6696 0.0
C1907 C 0.02582 0.8158 0.65207 0.0
C1908 C 0.01662 0.80675 0.67315 0.0
C1909 C 0.02916 0.80958 0.6923 0.0
C1910 C 0.05043 0.82133 0.69054 0.0
C1911 C 0.99401 0.7938 0.67543 0.0
C1912 C 0.98591 0.77347 0.68321 0.0
C1913 C 0.98049 0.80118 0.67013 0.0
C1914 C 0.98791 0.82236 0.66152 0.0
C1915 C 0.00179 0.83965 0.67453 0.0
C1916 C 0.00856 0.85957 0.66629 0.0
C1917 C 0.00151 0.86237 0.6451 0.0
C1918 C 0.98762 0.84524 0.63213 0.0
C1919 C 0.98078 0.8253 0.64031 0.0
C1920 C 0.89956 0.727 0.70431 0.0
C1921 C 0.88692 0.72407 0.68526 0.0
C1922 C 0.92018 0.74259 0.70409 0.0
C1923 C 0.92859 0.75487 0.68441 0.0
C1924 C 0.91537 0.75321 0.66641 0.0
C1925 C 0.89469 0.73801 0.66692 0.0
C1926 C 0.9512 0.76796 0.6815 0.0
C1927 C 0.95933 0.78825 0.6734 0.0
C1928 C 0.96474 0.76032 0.6858 0.0
C1929 C 0.95734 0.73842 0.69171 0.0
C1930 C 0.94365 0.72239 0.67705 0.0
C1931 C 0.93692 0.7018 0.68261 0.0
C1932 C 0.94392 0.69706 0.70267 0.0
C1933 C 0.95769 0.71289 0.71721 0.0
C1934 C 0.96444 0.7335 0.71176 0.0
H1935 H 0.93872 0.68111 0.70693 0.0
H1936 H 0.00676 0.8778 0.63876 0.0
H1937 H 0.15498 0.19979 0.67659 0.0
H1938 H 0.17707 0.18429 0.67654 0.0
H1939 H 0.23041 0.24512 0.67203 0.0
H1940 H 0.20827 0.26048 0.67177 0.0
H1941 H 0.23283 0.21885 0.64266 0.0
H1942 H 0.21518 0.2173 0.72321 0.0
H1943 H 0.19132 0.20742 0.75584 0.0
H1944 H 0.16737 0.14329 0.73969 0.0
H1945 H 0.19094 0.15281 0.70678 0.0
H1946 H 0.31562 0.20822 0.67048 0.0
H1947 H 0.28835 0.21656 0.67415 0.0
H1948 H 0.24372 0.1517 0.67946 0.0
H1949 H 0.27145 0.14336 0.67683 0.0
H1950 H 0.23319 0.175 0.70633 0.0
H1951 H 0.25172 0.17562 0.62796 0.0
H1952 H 0.27563 0.18464 0.5955 0.0
H1953 H 0.29666 0.24902 0.60651 0.0
H1954 H 0.2731 0.2404 0.63927 0.0
C1955 C 0.17143 0.20973 0.67534 0.0
C1956 C 0.18006 0.23122 0.67392 0.0
C1957 C 0.18403 0.20092 0.67554 0.0
C1958 C 0.20544 0.21354 0.67454 0.0
C1959 C 0.21395 0.23506 0.67282 0.0
C1960 C 0.20135 0.24384 0.6726 0.0
C1961 C 0.21912 0.20453 0.67482 0.0
C1962 C 0.233 0.20942 0.6567 0.0
C1963 C 0.2188 0.19146 0.69263 0.0
C1964 C 0.20464 0.18577 0.71239 0.0
C1965 C 0.2047 0.2011 0.7265 0.0
C1966 C 0.19126 0.19556 0.74507 0.0
C1967 C 0.17779 0.17474 0.74979 0.0
C1968 C 0.17778 0.15941 0.73599 0.0
C1969 C 0.19119 0.16487 0.71739 0.0
C1970 C 0.30002 0.19577 0.67283 0.0
C1971 C 0.29553 0.17516 0.67314 0.0
C1972 C 0.28443 0.20052 0.67483 0.0
C1973 C 0.2639 0.18473 0.67639 0.0
C1974 C 0.25944 0.16412 0.67807 0.0
C1975 C 0.27522 0.15936 0.67657 0.0
C1976 C 0.24735 0.19001 0.67459 0.0
C1977 C 0.23287 0.18429 0.69223 0.0
C1978 C 0.24689 0.20215 0.65619 0.0
C1979 C 0.2607 0.20736 0.63613 0.0
C1980 C 0.26149 0.1917 0.6235 0.0
C1981 C 0.27499 0.19675 0.60506 0.0
C1982 C 0.28767 0.21739 0.59896 0.0
C1983 C 0.28682 0.23304 0.61125 0.0
C1984 C 0.27338 0.22808 0.62973 0.0
H1985 H 0.29813 0.22127 0.5847 0.0
H1986 H 0.1674 0.17049 0.76418 0.0
H1987 H 0.7733 0.95419 0.63931 0.0
H1988 H 0.78995 0.99207 0.63699 0.0
H1989 H 0.8111 0.99718 0.70707 0.0
H1990 H 0.79426 0.95946 0.70938 0.0
H1991 H 0.79559 0.02142 0.7008 0.0
H1992 H 0.844 0.00915 0.66148 0.0
H1993 H 0.85652 0.99392 0.63263 0.0
H1994 H 0.83771 0.01965 0.5783 0.0
H1995 H 0.82482 0.03482 0.60685 0.0
H1996 H 0.86275 0.12697 0.70639 0.0
H1997 H 0.85558 0.0916 0.70083 0.0
H1998 H 0.82314 0.08722 0.63802 0.0
H1999 H 0.82991 0.12256 0.64392 0.0
H2000 H 0.84492 0.063 0.63988 0.0
H2001 H 0.79637 0.07519 0.68118 0.0
H2002 H 0.78434 0.08992 0.71117 0.0
H2003 H 0.80446 0.0637 0.7636 0.0
H2004 H 0.81699 0.04915 0.73391 0.0
C2005 C 0.78156 0.96352 0.65412 0.0
C2006 C 0.78259 0.95416 0.67452 0.0
C2007 C 0.79115 0.9851 0.65278 0.0
C2008 C 0.80197 0.99753 0.6718 0.0
C2009 C 0.80288 0.98797 0.69218 0.0
C2010 C 0.7933 0.96647 0.69349 0.0
C2011 C 0.81181 0.02044 0.67086 0.0
C2012 C 0.8066 0.0305 0.68765 0.0
C2013 C 0.82589 0.03233 0.65347 0.0
C2014 C 0.83325 0.02292 0.63628 0.0
C2015 C 0.84233 0.01138 0.64337 0.0
C2016 C 0.84954 0.0028 0.62708 0.0
C2017 C 0.84786 0.00577 0.60364 0.0
C2018 C 0.83897 0.01733 0.59646 0.0
C2019 C 0.83172 0.02593 0.61268 0.0
C2020 C 0.85535 0.119 0.69055 0.0
C2021 C 0.84695 0.12752 0.67553 0.0
C2022 C 0.85087 0.0986 0.68766 0.0
C2023 C 0.83837 0.08665 0.66935 0.0
C2024 C 0.83272 0.09618 0.65235 0.0
C2025 C 0.83696 0.11655 0.65547 0.0
C2026 C 0.82879 0.06384 0.66989 0.0
C2027 C 0.83397 0.05385 0.65303 0.0
C2028 C 0.81482 0.05198 0.6874 0.0
C2029 C 0.80797 0.06139 0.70529 0.0
C2030 C 0.79857 0.07287 0.69909 0.0
C2031 C 0.79157 0.0811 0.71605 0.0
C2032 C 0.79372 0.07783 0.73928 0.0
C2033 C 0.80288 0.06631 0.7456 0.0
C2034 C 0.80995 0.05808 0.72871 0.0
H2035 H 0.78822 0.08416 0.75237 0.0
H2036 H 0.85349 0.99916 0.59105 0.0
H2037 H 0.52495 0.3779 0.69408 0.0
H2038 H 0.50152 0.34035 0.69569 0.0
H2039 H 0.45175 0.34897 0.67301 0.0
H2040 H 0.47516 0.38644 0.67158 0.0
H2041 H 0.44139 0.32409 0.70969 0.0
H2042 H 0.47349 0.32997 0.63679 0.0
H2043 H 0.50216 0.33957 0.61005 0.0
H2044 H 0.51996 0.30154 0.64732 0.0
H2045 H 0.49154 0.29191 0.67447 0.0
H2046 H 0.36395 0.22457 0.68049 0.0
H2047 H 0.38967 0.2598 0.68687 0.0
H2048 H 0.43618 0.24218 0.69019 0.0
H2049 H 0.41022 0.20695 0.67873 0.0
H2050 H 0.45074 0.27219 0.66653 0.0
H2051 H 0.41586 0.26562 0.73966 0.0
H2052 H 0.38476 0.25518 0.7627 0.0
H2053 H 0.37095 0.29491 0.72274 0.0
H2054 H 0.40184 0.30547 0.69943 0.0
C2055 C 0.50894 0.37166 0.68971 0.0
C2056 C 0.50159 0.38482 0.68319 0.0
C2057 C 0.49566 0.35028 0.69035 0.0
C2058 C 0.47491 0.34185 0.68435 0.0
C2059 C 0.46767 0.35514 0.67778 0.0
C2060 C 0.48096 0.37648 0.67711 0.0
C2061 C 0.46044 0.3193 0.686 0.0
C2062 C 0.44339 0.31268 0.70026 0.0
C2063 C 0.4633 0.30445 0.67405 0.0
C2064 C 0.48055 0.31045 0.65787 0.0
C2065 C 0.48365 0.32384 0.63945 0.0
C2066 C 0.49982 0.32924 0.62417 0.0
C2067 C 0.51292 0.32124 0.62704 0.0
C2068 C 0.50984 0.30777 0.64515 0.0
C2069 C 0.4937 0.30233 0.66048 0.0
C2070 C 0.37951 0.22797 0.68375 0.0
C2071 C 0.38503 0.21297 0.6794 0.0
C2072 C 0.39445 0.24842 0.68764 0.0
C2073 C 0.41521 0.25416 0.68988 0.0
C2074 C 0.42038 0.23845 0.68852 0.0
C2075 C 0.40547 0.2181 0.68269 0.0
C2076 C 0.43144 0.27659 0.69061 0.0
C2077 C 0.44887 0.28335 0.67662 0.0
C2078 C 0.42893 0.29169 0.7028 0.0
C2079 C 0.41116 0.28633 0.71787 0.0
C2080 C 0.40625 0.2722 0.73592 0.0
C2081 C 0.38862 0.26623 0.74897 0.0
C2082 C 0.37589 0.27438 0.74419 0.0
C2083 C 0.38084 0.28866 0.72648 0.0
C2084 C 0.39845 0.29471 0.71342 0.0
H2085 H 0.36219 0.26962 0.7542 0.0
H2086 H 0.52542 0.32542 0.61519 0.0
H2087 H 0.61937 0.08606 0.66899 0.0
H2088 H 0.65663 0.1019 0.66629 0.0
H2089 H 0.66415 0.15604 0.70188 0.0
H2090 H 0.62664 0.14019 0.70412 0.0
H2091 H 0.68936 0.16686 0.66541 0.0
H2092 H 0.67401 0.122 0.72921 0.0
H2093 H 0.65547 0.0893 0.75049 0.0
H2094 H 0.6756 0.05987 0.70199 0.0
H2095 H 0.69399 0.09231 0.68017 0.0
H2096 H 0.79727 0.19954 0.68766 0.0
H2097 H 0.76146 0.19169 0.68839 0.0
H2098 H 0.74363 0.13691 0.64767 0.0
H2099 H 0.7792 0.14473 0.64699 0.0
H2100 H 0.72457 0.12915 0.69039 0.0
H2101 H 0.73853 0.17454 0.62571 0.0
H2102 H 0.75767 0.20787 0.60572 0.0
H2103 H 0.74119 0.23724 0.6583 0.0
H2104 H 0.72217 0.20411 0.6788 0.0
C2105 C 0.62904 0.10118 0.67658 0.0
C2106 C 0.62039 0.11183 0.68715 0.0
C2107 C 0.65029 0.11026 0.67499 0.0
C2108 C 0.66323 0.13009 0.68412 0.0
C2109 C 0.65449 0.14072 0.69478 0.0
C2110 C 0.63315 0.13162 0.69629 0.0
C2111 C 0.68583 0.1396 0.68221 0.0
C2112 C 0.69713 0.15878 0.67121 0.0
C2113 C 0.69597 0.12903 0.68964 0.0
C2114 C 0.68526 0.10957 0.70295 0.0
C2115 C 0.67439 0.10852 0.723 0.0
C2116 C 0.66391 0.09003 0.73516 0.0
C2117 C 0.66432 0.07251 0.72757 0.0
C2118 C 0.67528 0.07346 0.70784 0.0
C2119 C 0.68575 0.0919 0.69557 0.0
C2120 C 0.78583 0.1865 0.67781 0.0
C2121 C 0.79093 0.17291 0.6669 0.0
C2122 C 0.76537 0.18187 0.67848 0.0
C2123 C 0.74989 0.16358 0.66829 0.0
C2124 C 0.75533 0.15103 0.65572 0.0
C2125 C 0.77567 0.15566 0.65504 0.0
C2126 C 0.72794 0.15604 0.67296 0.0
C2127 C 0.7168 0.13728 0.6847 0.0
C2128 C 0.71808 0.1671 0.66644 0.0
C2129 C 0.72912 0.18691 0.65391 0.0
C2130 C 0.73911 0.18814 0.6331 0.0
C2131 C 0.74992 0.20699 0.62166 0.0
C2132 C 0.7507 0.22468 0.63077 0.0
C2133 C 0.74059 0.22353 0.65128 0.0
C2134 C 0.72978 0.20472 0.66281 0.0
H2135 H 0.75909 0.23926 0.6219 0.0
H2136 H 0.65618 0.0582 0.737 0.0
H2137 H 0.87724 0.49886 0.65061 0.0
H2138 H 0.8612 0.52036 0.65105 0.0
H2139 H 0.88961 0.54588 0.71673 0.0
H2140 H 0.90551 0.524 0.71636 0.0
H2141 H 0.8496 0.53598 0.71612 0.0
H2142 H 0.90808 0.57356 0.66769 0.0
H2143 H 0.9313 0.57881 0.63542 0.0
H2144 H 0.88221 0.56289 0.58736 0.0
H2145 H 0.8586 0.55725 0.61937 0.0
H2146 H 0.84551 0.62962 0.71078 0.0
H2147 H 0.8496 0.59956 0.71651 0.0
H2148 H 0.81992 0.57458 0.65129 0.0
H2149 H 0.81592 0.6047 0.64564 0.0
H2150 H 0.85931 0.58312 0.65154 0.0
H2151 H 0.80136 0.54796 0.69971 0.0
H2152 H 0.77872 0.54467 0.73181 0.0
H2153 H 0.82651 0.55636 0.78012 0.0
H2154 H 0.84983 0.56064 0.74825 0.0
C2155 C 0.88002 0.50908 0.66512 0.0
C2156 C 0.8925 0.5099 0.68345 0.0
C2157 C 0.87094 0.52141 0.66533 0.0
C2158 C 0.87432 0.53489 0.68383 0.0
C2159 C 0.88677 0.53558 0.70229 0.0
C2160 C 0.89587 0.52319 0.70207 0.0
C2161 C 0.86474 0.5481 0.68382 0.0
C2162 C 0.85191 0.54648 0.70214 0.0
C2163 C 0.86732 0.5614 0.66527 0.0
C2164 C 0.8815 0.56475 0.64597 0.0
C2165 C 0.90218 0.57099 0.65026 0.0
C2166 C 0.91542 0.57407 0.63201 0.0
C2167 C 0.90822 0.57112 0.60936 0.0
C2168 C 0.88776 0.56513 0.60492 0.0
C2169 C 0.87444 0.562 0.62311 0.0
C2170 C 0.83849 0.61698 0.69852 0.0
C2171 C 0.8305 0.61947 0.67775 0.0
C2172 C 0.84117 0.59993 0.70158 0.0
C2173 C 0.83555 0.58507 0.68402 0.0
C2174 C 0.82463 0.58599 0.66492 0.0
C2175 C 0.82191 0.603 0.66195 0.0
C2176 C 0.84404 0.57091 0.68377 0.0
C2177 C 0.85681 0.57247 0.66543 0.0
C2178 C 0.84142 0.55763 0.70227 0.0
C2179 C 0.82742 0.55479 0.72155 0.0
C2180 C 0.80716 0.55009 0.71716 0.0
C2181 C 0.79422 0.54811 0.73532 0.0
C2182 C 0.80125 0.55049 0.75798 0.0
C2183 C 0.82121 0.55477 0.76253 0.0
C2184 C 0.8343 0.55699 0.74443 0.0
H2185 H 0.7912 0.54891 0.77204 0.0
H2186 H 0.9185 0.57352 0.59526 0.0
H2187 H 0.4885 0.96298 0.28024 0.0
H2188 H 0.49287 0.97597 0.24073 0.0
H2189 H 0.46094 0.9133 0.21505 0.0
H2190 H 0.45664 0.9004 0.25457 0.0
H2191 H 0.49346 0.93722 0.18903 0.0
H2192 H 0.43684 0.94026 0.22035 0.0
H2193 H 0.4176 0.94955 0.24736 0.0
H2194 H 0.45791 0.01386 0.23349 0.0
H2195 H 0.4777 0.005 0.20675 0.0
H2196 H 0.47414 0.96223 0.07651 0.0
H2197 H 0.47172 0.94776 0.11485 0.0
H2198 H 0.49975 0.00905 0.14437 0.0
H2199 H 0.50112 0.0233 0.10622 0.0
H2200 H 0.46751 0.98427 0.1681 0.0
H2201 H 0.52541 0.97984 0.13827 0.0
H2202 H 0.54187 0.9691 0.109 0.0
H2203 H 0.49593 0.9056 0.11884 0.0
H2204 H 0.47909 0.91601 0.14801 0.0
C2205 C 0.483 0.95208 0.26603 0.0
C2206 C 0.47268 0.93077 0.27016 0.0
C2207 C 0.4852 0.95946 0.24357 0.0
C2208 C 0.47699 0.94557 0.225 0.0
C2209 C 0.46738 0.92426 0.22913 0.0
C2210 C 0.46509 0.9169 0.25159 0.0
C2211 C 0.47821 0.95323 0.20126 0.0
C2212 C 0.48763 0.94737 0.18443 0.0
C2213 C 0.47063 0.96653 0.19529 0.0
C2214 C 0.45897 0.97195 0.21175 0.0
C2215 C 0.4418 0.9564 0.22327 0.0
C2216 C 0.43075 0.96159 0.2385 0.0
C2217 C 0.43657 0.98228 0.2422 0.0
C2218 C 0.45345 0.99783 0.23066 0.0
C2219 C 0.46461 0.99273 0.21548 0.0
C2220 C 0.48039 0.97261 0.09113 0.0
C2221 C 0.48817 0.99387 0.08848 0.0
C2222 C 0.47888 0.96435 0.11306 0.0
C2223 C 0.48571 0.97733 0.13255 0.0
C2224 C 0.49433 0.99871 0.12966 0.0
C2225 C 0.4954 0.00688 0.10786 0.0
C2226 C 0.48333 0.96874 0.15607 0.0
C2227 C 0.4735 0.97427 0.17281 0.0
C2228 C 0.49035 0.955 0.16197 0.0
C2229 C 0.50096 0.94871 0.1452 0.0
C2230 C 0.51884 0.9636 0.13417 0.0
C2231 C 0.52821 0.95757 0.11759 0.0
C2232 C 0.51993 0.93669 0.11203 0.0
C2233 C 0.50233 0.92177 0.12316 0.0
C2234 C 0.49289 0.92772 0.13975 0.0
H2235 H 0.52717 0.93206 0.09912 0.0
H2236 H 0.42796 0.98626 0.25395 0.0
H2237 H 0.10605 0.54229 0.25485 0.0
H2238 H 0.09215 0.53368 0.216 0.0
H2239 H 0.04034 0.53942 0.23683 0.0
H2240 H 0.05379 0.54704 0.27643 0.0
H2241 H 0.02927 0.50409 0.21077 0.0
H2242 H 0.08061 0.57787 0.2045 0.0
H2243 H 0.11591 0.60679 0.21004 0.0
H2244 H 0.13891 0.57561 0.16807 0.0
H2245 H 0.10377 0.54647 0.16243 0.0
H2246 H 0.98855 0.49696 0.10026 0.0
H2247 H 0.00272 0.50882 0.13888 0.0
H2248 H 0.06109 0.51789 0.11588 0.0
H2249 H 0.04721 0.50747 0.07701 0.0
H2250 H 0.06916 0.54537 0.1438 0.0
H2251 H 0.0237 0.47335 0.14816 0.0
H2252 H 0.9921 0.43945 0.14515 0.0
H2253 H 0.96162 0.46008 0.1913 0.0
H2254 H 0.99296 0.49419 0.1944 0.0
C2255 C 0.09173 0.54183 0.25117 0.0
C2256 C 0.08097 0.5453 0.26869 0.0
C2257 C 0.08386 0.537 0.2289 0.0
C2258 C 0.06531 0.53611 0.22343 0.0
C2259 C 0.05472 0.54008 0.24071 0.0
C2260 C 0.06252 0.54471 0.2632 0.0
C2261 C 0.05701 0.53084 0.19966 0.0
C2262 C 0.03772 0.5133 0.19608 0.0
C2263 C 0.06865 0.54212 0.18047 0.0
C2264 C 0.0896 0.56005 0.18304 0.0
C2265 C 0.09321 0.57724 0.19643 0.0
C2266 C 0.11318 0.59364 0.19961 0.0
C2267 C 0.12964 0.59304 0.1894 0.0
C2268 C 0.12615 0.57608 0.17592 0.0
C2269 C 0.10621 0.55965 0.17266 0.0
C2270 C 0.00464 0.5024 0.10334 0.0
C2271 C 0.017 0.50195 0.08563 0.0
C2272 C 0.01262 0.50865 0.12553 0.0
C2273 C 0.03287 0.51374 0.1306 0.0
C2274 C 0.04544 0.51411 0.11255 0.0
C2275 C 0.03762 0.50843 0.09023 0.0
C2276 C 0.04098 0.51872 0.1546 0.0
C2277 C 0.06039 0.53613 0.15831 0.0
C2278 C 0.02978 0.5067 0.1738 0.0
C2279 C 0.01062 0.48646 0.17125 0.0
C2280 C 0.01019 0.47076 0.15743 0.0
C2281 C 0.99234 0.45147 0.15578 0.0
C2282 C 0.97484 0.44764 0.16796 0.0
C2283 C 0.97516 0.46308 0.18183 0.0
C2284 C 0.99297 0.48239 0.18354 0.0
H2285 H 0.96106 0.43268 0.16671 0.0
H2286 H 0.1451 0.60572 0.19195 0.0
H2287 H 0.4964 0.53692 0.27567 0.0
H2288 H 0.50613 0.53587 0.23577 0.0
H2289 H 0.45177 0.53581 0.21218 0.0
H2290 H 0.44183 0.5364 0.25228 0.0
H2291 H 0.45988 0.5115 0.18553 0.0
H2292 H 0.49881 0.58076 0.21577 0.0
H2293 H 0.52229 0.60835 0.24233 0.0
H2294 H 0.56976 0.59434 0.22733 0.0
H2295 H 0.54647 0.56645 0.20097 0.0
H2296 H 0.49513 0.53991 0.07158 0.0
H2297 H 0.48471 0.5441 0.11022 0.0
H2298 H 0.53579 0.541 0.13931 0.0
H2299 H 0.54594 0.53645 0.10079 0.0
H2300 H 0.52846 0.56813 0.16253 0.0
H2301 H 0.49042 0.49856 0.13428 0.0
H2302 H 0.46737 0.46944 0.10915 0.0
H2303 H 0.41878 0.48239 0.12139 0.0
H2304 H 0.44166 0.51186 0.14627 0.0
C2305 C 0.48624 0.536 0.26191 0.0
C2306 C 0.46827 0.53649 0.26687 0.0
C2307 C 0.49193 0.53571 0.23916 0.0
C2308 C 0.47996 0.53632 0.22097 0.0
C2309 C 0.46132 0.53548 0.22595 0.0
C2310 C 0.45554 0.53564 0.24878 0.0
C2311 C 0.48732 0.53871 0.19689 0.0
C2312 C 0.47472 0.52409 0.18039 0.0
C2313 C 0.50694 0.55486 0.19032 0.0
C2314 C 0.52082 0.57138 0.20655 0.0
C2315 C 0.51419 0.58342 0.21831 0.0
C2316 C 0.52748 0.59914 0.2333 0.0
C2317 C 0.54749 0.60307 0.23654 0.0
C2318 C 0.55425 0.59127 0.22483 0.0
C2319 C 0.54101 0.57551 0.20986 0.0
C2320 C 0.50473 0.54126 0.08615 0.0
C2321 C 0.52156 0.53826 0.08326 0.0
C2322 C 0.49852 0.5432 0.10823 0.0
C2323 C 0.50922 0.5424 0.12765 0.0
C2324 C 0.52725 0.54155 0.12458 0.0
C2325 C 0.53324 0.53928 0.10256 0.0
C2326 C 0.50102 0.54094 0.15117 0.0
C2327 C 0.5135 0.55569 0.1676 0.0
C2328 C 0.48137 0.52479 0.15769 0.0
C2329 C 0.4679 0.50769 0.14182 0.0
C2330 C 0.47494 0.49545 0.1313 0.0
C2331 C 0.46187 0.47881 0.11718 0.0
C2332 C 0.44165 0.47412 0.11359 0.0
C2333 C 0.43447 0.48609 0.1241 0.0
C2334 C 0.4475 0.50279 0.13818 0.0
H2335 H 0.43153 0.46117 0.10275 0.0
H2336 H 0.55777 0.61529 0.2481 0.0
H2337 H 0.89888 0.45964 0.77153 0.0
H2338 H 0.91104 0.46058 0.81093 0.0
H2339 H 0.9725 0.48407 0.7857 0.0
H2340 H 0.96022 0.48294 0.7463 0.0
H2341 H 0.96096 0.45079 0.81253 0.0
H2342 H 0.9615 0.51444 0.81793 0.0
H2343 H 0.94682 0.5371 0.81258 0.0
H2344 H 0.89865 0.50035 0.85989 0.0
H2345 H 0.91288 0.47724 0.86526 0.0
H2346 H 0.01369 0.47679 0.91922 0.0
H2347 H -0.00052 0.4732 0.88081 0.0
H2348 H 0.93951 0.45157 0.90966 0.0
H2349 H 0.95414 0.45607 0.94849 0.0
H2350 H 0.94946 0.48333 0.88102 0.0
H2351 H 0.95137 0.41986 0.8754 0.0
H2352 H 0.96857 0.39942 0.88021 0.0
H2353 H 0.01514 0.43873 0.83253 0.0
H2354 H 0.99834 0.45955 0.82764 0.0
C2355 C 0.9151 0.46582 0.77461 0.0
C2356 C 0.92875 0.47173 0.75611 0.0
C2357 C 0.92203 0.46617 0.79704 0.0
C2358 C 0.94269 0.47236 0.80128 0.0
C2359 C 0.9565 0.4792 0.78285 0.0
C2360 C 0.94957 0.47888 0.76044 0.0
C2361 C 0.94957 0.47039 0.82466 0.0
C2362 C 0.95862 0.45807 0.82747 0.0
C2363 C 0.94628 0.47964 0.8442 0.0
C2364 C 0.93818 0.49402 0.84189 0.0
C2365 C 0.94774 0.51115 0.82716 0.0
C2366 C 0.93949 0.52407 0.8241 0.0
C2367 C 0.92178 0.52014 0.83585 0.0
C2368 C 0.91236 0.50336 0.85079 0.0
C2369 C 0.92053 0.49036 0.85388 0.0
C2370 C 0.99726 0.47007 0.91733 0.0
C2371 C 0.98497 0.46629 0.93682 0.0
C2372 C 0.98914 0.46829 0.8953 0.0
C2373 C 0.96837 0.46214 0.8922 0.0
C2374 C 0.9556 0.45642 0.91159 0.0
C2375 C 0.96383 0.45844 0.93377 0.0
C2376 C 0.96066 0.46349 0.86897 0.0
C2377 C 0.95156 0.47583 0.86614 0.0
C2378 C 0.96418 0.45449 0.84932 0.0
C2379 C 0.97361 0.44127 0.85119 0.0
C2380 C 0.96525 0.42411 0.86591 0.0
C2381 C 0.97496 0.41249 0.86868 0.0
C2382 C 0.99294 0.41778 0.85669 0.0
C2383 C 0.00119 0.43463 0.84178 0.0
C2384 C 0.99155 0.44631 0.83895 0.0
H2385 H 0.00048 0.40882 0.85894 0.0
H2386 H 0.91538 0.53012 0.83341 0.0
H2387 H 0.51029 0.44616 0.74655 0.0
H2388 H 0.50345 0.45079 0.78654 0.0
H2389 H 0.56844 0.48946 0.7988 0.0
H2390 H 0.57534 0.48225 0.7607 0.0
H2391 H 0.55666 0.47154 0.83319 0.0
H2392 H 0.52995 0.50648 0.78997 0.0
H2393 H 0.50899 0.51176 0.76113 0.0
H2394 H 0.4541 0.46698 0.79497 0.0
H2395 H 0.47474 0.46119 0.82383 0.0
H2396 H 0.55429 0.53089 0.92688 0.0
H2397 H 0.55616 0.5184 0.88884 0.0
H2398 H 0.49557 0.46585 0.8973 0.0
H2399 H 0.49339 0.47887 0.93575 0.0
H2400 H 0.50233 0.48733 0.85427 0.0
H2401 H 0.53959 0.46229 0.90242 0.0
H2402 H 0.56732 0.46909 0.92989 0.0
H2403 H 0.61196 0.51172 0.88256 0.0
H2404 H 0.58454 0.50555 0.85509 0.0
C2405 C 0.52314 0.45525 0.75791 0.0
C2406 C 0.5434 0.46421 0.74986 0.0
C2407 C 0.51918 0.45827 0.78078 0.0
C2408 C 0.53535 0.47096 0.79588 0.0
C2409 C 0.55552 0.4796 0.78784 0.0
C2410 C 0.55947 0.47583 0.76554 0.0
C2411 C 0.53174 0.4751 0.82017 0.0
C2412 C 0.54484 0.47518 0.83751 0.0
C2413 C 0.51638 0.4799 0.82633 0.0
C2414 C 0.50389 0.48317 0.80887 0.0
C2415 C 0.51341 0.4976 0.79113 0.0
C2416 C 0.50158 0.50071 0.7748 0.0
C2417 C 0.48022 0.48965 0.77616 0.0
C2418 C 0.47065 0.47549 0.79389 0.0
C2419 C 0.4824 0.47228 0.81024 0.0
C2420 C 0.54143 0.51648 0.92081 0.0
C2421 C 0.52372 0.50572 0.93432 0.0
C2422 C 0.54254 0.50937 0.89903 0.0
C2423 C 0.52611 0.49109 0.89025 0.0
C2424 C 0.50847 0.47998 0.90383 0.0
C2425 C 0.5073 0.48722 0.92583 0.0
C2426 C 0.52746 0.48408 0.86668 0.0
C2427 C 0.51393 0.48346 0.84962 0.0
C2428 C 0.54351 0.48047 0.86034 0.0
C2429 C 0.55996 0.48345 0.8767 0.0
C2430 C 0.55531 0.47315 0.89791 0.0
C2431 C 0.57099 0.47694 0.91351 0.0
C2432 C 0.59139 0.49086 0.90801 0.0
C2433 C 0.59617 0.50097 0.88686 0.0
C2434 C 0.58057 0.49731 0.87126 0.0
H2435 H 0.60349 0.49381 0.92013 0.0
H2436 H 0.47109 0.49209 0.76352 0.0
H2437 H 0.57157 0.09064 0.76615 0.0
H2438 H 0.56298 0.07839 0.80603 0.0
H2439 H 0.49873 0.0471 0.78877 0.0
H2440 H 0.50701 0.05796 0.749 0.0
H2441 H 0.51603 0.08007 0.8286 0.0
H2442 H 0.50878 0.01671 0.79721 0.0
H2443 H 0.52087 0.99631 0.77595 0.0
H2444 H 0.57035 0.01492 0.82418 0.0
H2445 H 0.55875 0.03579 0.84549 0.0
H2446 H 0.46371 0.00828 0.92557 0.0
H2447 H 0.47371 0.02259 0.88652 0.0
H2448 H 0.53674 0.05783 0.90859 0.0
H2449 H 0.52668 0.04474 0.94761 0.0
H2450 H 0.52121 0.02362 0.86684 0.0
H2451 H 0.52849 0.08725 0.89808 0.0
H2452 H 0.51561 0.10673 0.91978 0.0
H2453 H 0.4659 0.08731 0.87168 0.0
H2454 H 0.47823 0.06722 0.85002 0.0
C2455 C 0.55566 0.08073 0.77074 0.0
C2456 C 0.53998 0.07574 0.75449 0.0
C2457 C 0.55079 0.07389 0.79351 0.0
C2458 C 0.53022 0.06216 0.80027 0.0
C2459 C 0.51466 0.05637 0.78389 0.0
C2460 C 0.51948 0.06274 0.7612 0.0
C2461 C 0.52461 0.05674 0.8246 0.0
C2462 C 0.51711 0.0677 0.83695 0.0
C2463 C 0.52613 0.04068 0.8354 0.0
C2464 C 0.5331 0.02809 0.82271 0.0
C2465 C 0.5224 0.01669 0.8031 0.0
C2466 C 0.52912 0.00499 0.79108 0.0
C2467 C 0.54642 0.00439 0.79865 0.0
C2468 C 0.55699 0.01545 0.8183 0.0
C2469 C 0.55035 0.02723 0.83035 0.0
C2470 C 0.47945 0.01999 0.9223 0.0
C2471 C 0.49435 0.0259 0.93962 0.0
C2472 C 0.48522 0.02782 0.89999 0.0
C2473 C 0.50599 0.04104 0.89477 0.0
C2474 C 0.52066 0.04769 0.91234 0.0
C2475 C 0.51483 0.0405 0.93467 0.0
C2476 C 0.51267 0.04699 0.87079 0.0
C2477 C 0.52029 0.03609 0.85851 0.0
C2478 C 0.5113 0.06312 0.86003 0.0
C2479 C 0.50408 0.07548 0.87267 0.0
C2480 C 0.51466 0.0869 0.89231 0.0
C2481 C 0.50749 0.09809 0.90457 0.0
C2482 C 0.48989 0.09818 0.89717 0.0
C2483 C 0.47949 0.08715 0.87743 0.0
C2484 C 0.48655 0.07585 0.86517 0.0
H2485 H 0.48437 0.10687 0.90668 0.0
H2486 H 0.5516 0.99531 0.78933 0.0
H2487 H 0.16101 0.25909 0.59694 0.0
H2488 H 0.16864 0.27363 0.55805 0.0
H2489 H 0.12748 0.29723 0.5677 0.0
H2490 H 0.12079 0.28414 0.60685 0.0
H2491 H 0.12173 0.26564 0.52748 0.0
H2492 H 0.16503 0.33137 0.56382 0.0
H2493 H 0.19293 0.35503 0.58977 0.0
H2494 H 0.2361 0.34642 0.55023 0.0
H2495 H 0.20832 0.32232 0.5243 0.0
H2496 H 0.12498 0.32107 0.42926 0.0
H2497 H 0.12458 0.30851 0.46764 0.0
H2498 H 0.18196 0.31078 0.45466 0.0
H2499 H 0.18261 0.32393 0.41546 0.0
H2500 H 0.18181 0.32846 0.49668 0.0
H2501 H 0.13763 0.26555 0.45719 0.0
H2502 H 0.10888 0.2382 0.43507 0.0
H2503 H 0.06609 0.23958 0.48253 0.0
H2504 H 0.09446 0.26757 0.50436 0.0
C2505 C 0.154 0.26785 0.59107 0.0
C2506 C 0.13993 0.27001 0.60499 0.0
C2507 C 0.15834 0.27609 0.56881 0.0
C2508 C 0.1486 0.28646 0.56011 0.0
C2509 C 0.13515 0.28927 0.57416 0.0
C2510 C 0.13115 0.28148 0.59646 0.0
C2511 C 0.1506 0.2924 0.5356 0.0
C2512 C 0.13473 0.27948 0.52066 0.0
C2513 C 0.16782 0.31019 0.52693 0.0
C2514 C 0.18455 0.32478 0.54235 0.0
C2515 C 0.18041 0.33428 0.56085 0.0
C2516 C 0.19622 0.34783 0.57551 0.0
C2517 C 0.21627 0.35216 0.57172 0.0
C2518 C 0.22055 0.343 0.55319 0.0
C2519 C 0.20478 0.3294 0.5385 0.0
C2520 C 0.13754 0.31878 0.43436 0.0
C2521 C 0.15394 0.32363 0.41928 0.0
C2522 C 0.13718 0.31145 0.45638 0.0
C2523 C 0.15313 0.30852 0.46408 0.0
C2524 C 0.16945 0.3129 0.44902 0.0
C2525 C 0.16976 0.32023 0.42662 0.0
C2526 C 0.15275 0.30165 0.48819 0.0
C2527 C 0.16884 0.31449 0.50324 0.0
C2528 C 0.13547 0.28381 0.49711 0.0
C2529 C 0.11826 0.26879 0.48238 0.0
C2530 C 0.12209 0.26043 0.4626 0.0
C2531 C 0.10584 0.24475 0.45013 0.0
C2532 C 0.0857 0.23713 0.45742 0.0
C2533 C 0.0817 0.24552 0.47685 0.0
C2534 C 0.09786 0.26137 0.48921 0.0
H2535 H 0.07325 0.22461 0.44808 0.0
H2536 H 0.22849 0.36266 0.58308 0.0
H2537 H 0.71508 0.85512 0.61316 0.0
H2538 H 0.70253 0.84659 0.5734 0.0
H2539 H 0.76272 0.89086 0.54874 0.0
H2540 H 0.77503 0.89966 0.58856 0.0
H2541 H 0.73514 0.89341 0.52432 0.0
H2542 H 0.74495 0.8385 0.54921 0.0
H2543 H 0.74139 0.81017 0.57388 0.0
H2544 H 0.67663 0.77646 0.56065 0.0
H2545 H 0.67971 0.80477 0.53625 0.0
H2546 H 0.71168 0.85283 0.40845 0.0
H2547 H 0.72752 0.86444 0.4466 0.0
H2548 H 0.66878 0.82634 0.47842 0.0
H2549 H 0.65301 0.8147 0.44058 0.0
H2550 H 0.6986 0.82044 0.49789 0.0
H2551 H 0.68972 0.87813 0.47611 0.0
H2552 H 0.69453 0.90597 0.44977 0.0
H2553 H 0.75984 0.93367 0.45617 0.0
H2554 H 0.75538 0.90578 0.48231 0.0
C2555 C 0.72539 0.86337 0.59917 0.0
C2556 C 0.74583 0.87835 0.60368 0.0
C2557 C 0.71835 0.85827 0.57651 0.0
C2558 C 0.73178 0.86783 0.55805 0.0
C2559 C 0.75209 0.88327 0.56267 0.0
C2560 C 0.75908 0.88844 0.58534 0.0
C2561 C 0.72465 0.86187 0.53392 0.0
C2562 C 0.72743 0.87746 0.51851 0.0
C2563 C 0.71448 0.84102 0.52629 0.0
C2564 C 0.71254 0.82393 0.54107 0.0
C2565 C 0.72991 0.82516 0.55173 0.0
C2566 C 0.72798 0.80907 0.56565 0.0
C2567 C 0.70879 0.79155 0.56889 0.0
C2568 C 0.69149 0.79006 0.55817 0.0
C2569 C 0.69332 0.80613 0.54429 0.0
C2570 C 0.70207 0.84753 0.42356 0.0
C2571 C 0.68108 0.83304 0.42156 0.0
C2572 C 0.71116 0.85392 0.44536 0.0
C2573 C 0.69934 0.84607 0.46538 0.0
C2574 C 0.67823 0.83241 0.46326 0.0
C2575 C 0.6692 0.82602 0.44161 0.0
C2576 C 0.70873 0.85197 0.48865 0.0
C2577 C 0.70643 0.83636 0.50382 0.0
C2578 C 0.71955 0.87277 0.49606 0.0
C2579 C 0.72222 0.88983 0.48098 0.0
C2580 C 0.7051 0.89013 0.47182 0.0
C2581 C 0.70776 0.90589 0.45692 0.0
C2582 C 0.72748 0.92155 0.45125 0.0
C2583 C 0.74458 0.92152 0.46056 0.0
C2584 C 0.74199 0.90575 0.47542 0.0
H2585 H 0.72952 0.93373 0.43968 0.0
H2586 H 0.70733 0.77911 0.57965 0.0
H2587 H 0.10936 0.85679 0.58616 0.0
H2588 H 0.11899 0.85381 0.5465 0.0
H2589 H 0.18281 0.88739 0.5658 0.0
H2590 H 0.17344 0.8895 0.60533 0.0
H2591 H 0.17015 0.90427 0.52705 0.0
H2592 H 0.1679 0.84284 0.55514 0.0
H2593 H 0.15186 0.80908 0.57448 0.0
H2594 H 0.10385 0.7841 0.52372 0.0
H2595 H 0.11942 0.81787 0.5043 0.0
H2596 H 0.20826 0.8769 0.41966 0.0
H2597 H 0.2043 0.88261 0.46074 0.0
H2598 H 0.14138 0.86549 0.44821 0.0
H2599 H 0.14537 0.86055 0.40755 0.0
H2600 H 0.15632 0.84104 0.48425 0.0
H2601 H 0.15513 0.9034 0.46065 0.0
H2602 H 0.17011 0.93724 0.44155 0.0
H2603 H 0.22378 0.96013 0.48424 0.0
H2604 H 0.20924 0.9262 0.50324 0.0
C2605 C 0.12539 0.86304 0.58204 0.0
C2606 C 0.14064 0.87379 0.59875 0.0
C2607 C 0.13087 0.86147 0.55941 0.0
C2608 C 0.15163 0.87072 0.55327 0.0
C2609 C 0.16675 0.88043 0.57016 0.0
C2610 C 0.16132 0.88167 0.59272 0.0
C2611 C 0.15779 0.87135 0.52903 0.0
C2612 C 0.16734 0.89047 0.51777 0.0
C2613 C 0.15398 0.85334 0.51697 0.0
C2614 C 0.14469 0.83296 0.52842 0.0
C2615 C 0.1538 0.83021 0.54823 0.0
C2616 C 0.14482 0.81106 0.55918 0.0
C2617 C 0.1268 0.79447 0.55038 0.0
C2618 C 0.11778 0.79698 0.53055 0.0
C2619 C 0.12669 0.81613 0.51955 0.0
C2620 C 0.19394 0.87532 0.42556 0.0
C2621 C 0.17713 0.86831 0.4105 0.0
C2622 C 0.1916 0.8783 0.449 0.0
C2623 C 0.17247 0.87426 0.45739 0.0
C2624 C 0.15621 0.86866 0.44203 0.0
C2625 C 0.15859 0.86597 0.41881 0.0
C2626 C 0.16852 0.87392 0.48229 0.0
C2627 C 0.15933 0.85484 0.49366 0.0
C2628 C 0.17249 0.8919 0.49444 0.0
C2629 C 0.18131 0.91219 0.48299 0.0
C2630 C 0.17027 0.91554 0.46567 0.0
C2631 C 0.17864 0.93475 0.45494 0.0
C2632 C 0.19794 0.95079 0.46158 0.0
C2633 C 0.20888 0.94766 0.47903 0.0
C2634 C 0.20059 0.92844 0.48977 0.0
H2635 H 0.20438 0.96567 0.45328 0.0
H2636 H 0.11987 0.77965 0.55888 0.0
H2637 H 0.62879 0.81791 0.07887 0.0
H2638 H 0.64132 0.82023 0.11841 0.0
H2639 H 0.57986 0.79666 0.14372 0.0
H2640 H 0.56751 0.79474 0.10425 0.0
H2641 H 0.6076 0.82526 0.17255 0.0
H2642 H 0.59995 0.7662 0.13069 0.0
H2643 H 0.60698 0.74881 0.09906 0.0
H2644 H 0.67005 0.77736 0.12002 0.0
H2645 H 0.66367 0.79594 0.15103 0.0
H2646 H 0.62332 0.79465 0.28187 0.0
H2647 H 0.60888 0.79026 0.243 0.0
H2648 H 0.66894 0.81218 0.21431 0.0
H2649 H 0.68325 0.81653 0.25301 0.0
H2650 H 0.64077 0.78346 0.18736 0.0
H2651 H 0.65065 0.84488 0.22546 0.0
H2652 H 0.64628 0.86648 0.25446 0.0
H2653 H 0.58174 0.83566 0.24 0.0
H2654 H 0.58566 0.81364 0.21118 0.0
C2655 C 0.6182 0.81407 0.09303 0.0
C2656 C 0.5973 0.80651 0.08875 0.0
C2657 C 0.62527 0.8151 0.11553 0.0
C2658 C 0.61144 0.80819 0.13399 0.0
C2659 C 0.59079 0.80201 0.12977 0.0
C2660 C 0.58376 0.80106 0.10729 0.0
C2661 C 0.61805 0.80595 0.15739 0.0
C2662 C 0.61461 0.8159 0.17586 0.0
C2663 C 0.62761 0.79406 0.1616 0.0
C2664 C 0.63137 0.7827 0.14303 0.0
C2665 C 0.61538 0.769 0.12841 0.0
C2666 C 0.61926 0.7589 0.11057 0.0
C2667 C 0.63894 0.76189 0.10756 0.0
C2668 C 0.65482 0.77508 0.12233 0.0
C2669 C 0.6511 0.78551 0.13996 0.0
C2670 C 0.63316 0.79737 0.26719 0.0
C2671 C 0.65431 0.8055 0.27035 0.0
C2672 C 0.62501 0.79534 0.24502 0.0
C2673 C 0.63793 0.8014 0.22576 0.0
C2674 C 0.65868 0.80751 0.22888 0.0
C2675 C 0.66682 0.80968 0.25099 0.0
C2676 C 0.63041 0.80285 0.20255 0.0
C2677 C 0.63364 0.79272 0.18411 0.0
C2678 C 0.62092 0.8148 0.19831 0.0
C2679 C 0.6184 0.82734 0.21645 0.0
C2680 C 0.63547 0.84247 0.22873 0.0
C2681 C 0.63309 0.85486 0.24507 0.0
C2682 C 0.61373 0.85238 0.24916 0.0
C2683 C 0.59671 0.8375 0.23691 0.0
C2684 C 0.599 0.82505 0.22059 0.0
H2685 H 0.61193 0.86204 0.26175 0.0
H2686 H 0.64193 0.75402 0.09378 0.0
H2687 H 0.18105 0.79551 0.07481 0.0
H2688 H 0.17542 0.80402 0.11404 0.0
H2689 H 0.23078 0.80571 0.13677 0.0
H2690 H 0.23625 0.79705 0.0979 0.0
H2691 H 0.20192 0.78652 0.16716 0.0
H2692 H 0.23003 0.84949 0.12652 0.0
H2693 H 0.23377 0.87414 0.09631 0.0
H2694 H 0.17582 0.86776 0.11485 0.0
H2695 H 0.17152 0.84273 0.14492 0.0
H2696 H 0.21419 0.83839 0.27404 0.0
H2697 H 0.2181 0.82735 0.23578 0.0
H2698 H 0.16496 0.82981 0.21227 0.0
H2699 H 0.16223 0.8426 0.25027 0.0
H2700 H 0.19326 0.84699 0.18216 0.0
H2701 H 0.16757 0.78228 0.22479 0.0
H2702 H 0.16953 0.76185 0.25693 0.0
H2703 H 0.2296 0.77605 0.23544 0.0
H2704 H 0.22813 0.79681 0.2034 0.0
C2705 C 0.19172 0.79728 0.08836 0.0
C2706 C 0.209 0.79552 0.08344 0.0
C2707 C 0.18867 0.80241 0.11064 0.0
C2708 C 0.20282 0.80575 0.1283 0.0
C2709 C 0.21967 0.80325 0.12348 0.0
C2710 C 0.22276 0.79826 0.10129 0.0
C2711 C 0.20019 0.81179 0.15187 0.0
C2712 C 0.20009 0.79979 0.17042 0.0
C2713 C 0.19798 0.82922 0.1562 0.0
C2714 C 0.20029 0.84393 0.13776 0.0
C2715 C 0.21793 0.85309 0.12396 0.0
C2716 C 0.22019 0.86719 0.1069 0.0
C2717 C 0.205 0.87244 0.10359 0.0
C2718 C 0.18754 0.86362 0.11737 0.0
C2719 C 0.18518 0.84945 0.13442 0.0
C2720 C 0.20294 0.83584 0.26087 0.0
C2721 C 0.18746 0.84059 0.26518 0.0
C2722 C 0.20521 0.82961 0.23894 0.0
C2723 C 0.19153 0.82721 0.2211 0.0
C2724 C 0.17564 0.83138 0.22571 0.0
C2725 C 0.17382 0.83831 0.24747 0.0
C2726 C 0.19428 0.82129 0.19742 0.0
C2727 C 0.19468 0.83348 0.17884 0.0
C2728 C 0.19731 0.80435 0.19309 0.0
C2729 C 0.19776 0.79115 0.21178 0.0
C2730 C 0.18119 0.78103 0.22694 0.0
C2731 C 0.18223 0.76943 0.24516 0.0
C2732 C 0.19968 0.76767 0.24824 0.0
C2733 C 0.21609 0.77742 0.23304 0.0
C2734 C 0.21515 0.78908 0.21484 0.0
H2735 H 0.20048 0.75873 0.2624 0.0
H2736 H 0.2068 0.8834 0.09041 0.0
H2737 H 0.20374 0.38135 0.08027 0.0
H2738 H 0.19266 0.36799 0.11935 0.0
H2739 H 0.20677 0.4287 0.14215 0.0
H2740 H 0.21789 0.44197 0.1033 0.0
H2741 H 0.21697 0.4092 0.17472 0.0
H2742 H 0.15786 0.39192 0.12474 0.0
H2743 H 0.13465 0.37506 0.09174 0.0
H2744 H 0.12461 0.31599 0.11389 0.0
H2745 H 0.14793 0.33254 0.14684 0.0
H2746 H 0.16491 0.37908 0.27921 0.0
H2747 H 0.17173 0.39436 0.24066 0.0
H2748 H 0.15092 0.33413 0.21069 0.0
H2749 H 0.14287 0.31888 0.24866 0.0
H2750 H 0.14401 0.35467 0.18175 0.0
H2751 H 0.20564 0.36874 0.22455 0.0
H2752 H 0.22592 0.3807 0.26047 0.0
H2753 H 0.22993 0.43977 0.25351 0.0
H2754 H 0.21029 0.42835 0.21724 0.0
C2755 C 0.20509 0.39189 0.09388 0.0
C2756 C 0.2118 0.41268 0.089 0.0
C2757 C 0.19854 0.38425 0.11607 0.0
C2758 C 0.19855 0.3973 0.13356 0.0
C2759 C 0.20656 0.41835 0.12894 0.0
C2760 C 0.213 0.42594 0.10682 0.0
C2761 C 0.18908 0.38902 0.15624 0.0
C2762 C 0.20097 0.39738 0.17622 0.0
C2763 C 0.16833 0.37327 0.15831 0.0
C2764 C 0.15481 0.3635 0.1381 0.0
C2765 C 0.15087 0.37538 0.12242 0.0
C2766 C 0.13765 0.36586 0.10377 0.0
C2767 C 0.12819 0.34448 0.10069 0.0
C2768 C 0.13196 0.33256 0.11626 0.0
C2769 C 0.14517 0.34199 0.13492 0.0
C2770 C 0.16079 0.36905 0.26428 0.0
C2771 C 0.15354 0.34784 0.26684 0.0
C2772 C 0.16513 0.37782 0.24228 0.0
C2773 C 0.16269 0.36552 0.22279 0.0
C2774 C 0.1532 0.34405 0.22535 0.0
C2775 C 0.14853 0.3353 0.24712 0.0
C2776 C 0.17186 0.37472 0.20019 0.0
C2777 C 0.15998 0.36654 0.18023 0.0
C2778 C 0.19276 0.39005 0.19806 0.0
C2779 C 0.20653 0.39772 0.21831 0.0
C2780 C 0.21118 0.38439 0.23055 0.0
C2781 C 0.22256 0.39106 0.25095 0.0
C2782 C 0.22924 0.41098 0.25929 0.0
C2783 C 0.22492 0.4244 0.24698 0.0
C2784 C 0.21384 0.41792 0.22639 0.0
H2785 H 0.2377 0.41596 0.27532 0.0
H2786 H 0.11791 0.33714 0.08628 0.0
H2787 H 0.81279 0.63115 0.94673 0.0
H2788 H 0.81744 0.64359 0.90702 0.0
H2789 H 0.8028 0.58316 0.88244 0.0
H2790 H 0.79875 0.57097 0.92228 0.0
H2791 H 0.8334 0.61173 0.85894 0.0
H2792 H 0.76757 0.60034 0.88203 0.0
H2793 H 0.74297 0.60414 0.90643 0.0
H2794 H 0.7744 0.66931 0.8933 0.0
H2795 H 0.79942 0.66598 0.86913 0.0
H2796 H 0.81652 0.63117 0.74207 0.0
H2797 H 0.81232 0.61645 0.78073 0.0
H2798 H 0.83021 0.67598 0.81075 0.0
H2799 H 0.8343 0.69062 0.77241 0.0
H2800 H 0.79559 0.64579 0.83055 0.0
H2801 H 0.86211 0.65771 0.80979 0.0
H2802 H 0.88663 0.65446 0.78471 0.0
H2803 H 0.85409 0.58879 0.79423 0.0
H2804 H 0.82878 0.5915 0.81863 0.0
C2805 C 0.81112 0.62077 0.93279 0.0
C2806 C 0.80588 0.6003 0.93735 0.0
C2807 C 0.81344 0.62774 0.91015 0.0
C2808 C 0.81009 0.6142 0.89171 0.0
C2809 C 0.80543 0.59387 0.89638 0.0
C2810 C 0.80329 0.58696 0.91905 0.0
C2811 C 0.81155 0.62122 0.86757 0.0
C2812 C 0.82485 0.61885 0.85266 0.0
C2813 C 0.80068 0.63089 0.85947 0.0
C2814 C 0.78553 0.63292 0.87393 0.0
C2815 C 0.76936 0.61551 0.88449 0.0
C2816 C 0.75531 0.61758 0.89826 0.0
C2817 C 0.75715 0.63697 0.90146 0.0
C2818 C 0.77301 0.65431 0.89084 0.0
C2819 C 0.78713 0.65234 0.87708 0.0
C2820 C 0.82023 0.64121 0.75693 0.0
C2821 C 0.82601 0.66209 0.75428 0.0
C2822 C 0.81752 0.63275 0.77899 0.0
C2823 C 0.82076 0.64511 0.79862 0.0
C2824 C 0.82739 0.66612 0.79589 0.0
C2825 C 0.83006 0.67453 0.77398 0.0
C2826 C 0.81756 0.6364 0.82213 0.0
C2827 C 0.80395 0.63847 0.83687 0.0
C2828 C 0.82813 0.62649 0.83016 0.0
C2829 C 0.84342 0.62479 0.81579 0.0
C2830 C 0.86002 0.64253 0.80631 0.0
C2831 C 0.87402 0.64077 0.79216 0.0
C2832 C 0.87179 0.62139 0.78772 0.0
C2833 C 0.8556 0.60374 0.79749 0.0
C2834 C 0.84141 0.60537 0.81144 0.0
H2835 H 0.88268 0.62005 0.77681 0.0
H2836 H 0.74627 0.63854 0.91213 0.0
H2837 H 0.39482 0.22434 0.94373 0.0
H2838 H 0.38203 0.21886 0.90401 0.0
H2839 H 0.41599 0.1879 0.8886 0.0
H2840 H 0.43091 0.19597 0.92644 0.0
H2841 H 0.42019 0.20851 0.85596 0.0
H2842 H 0.35882 0.1639 0.89874 0.0
H2843 H 0.33183 0.1557 0.92748 0.0
H2844 H 0.31528 0.19618 0.89348 0.0
H2845 H 0.34233 0.20481 0.86472 0.0
H2846 H 0.36976 0.14949 0.75744 0.0
H2847 H 0.3832 0.16256 0.79574 0.0
H2848 H 0.35491 0.20043 0.79419 0.0
H2849 H 0.34071 0.18657 0.75567 0.0
H2850 H 0.34734 0.18013 0.83434 0.0
H2851 H 0.4095 0.22191 0.79056 0.0
H2852 H 0.43866 0.2305 0.76491 0.0
H2853 H 0.45315 0.1905 0.80337 0.0
H2854 H 0.42394 0.1815 0.82904 0.0
C2855 C 0.3999 0.2168 0.93167 0.0
C2856 C 0.41361 0.21022 0.93867 0.0
C2857 C 0.39218 0.21323 0.90903 0.0
C2858 C 0.39752 0.20243 0.89318 0.0
C2859 C 0.41143 0.1962 0.90022 0.0
C2860 C 0.41975 0.20054 0.92226 0.0
C2861 C 0.38986 0.19834 0.86886 0.0
C2862 C 0.40412 0.20192 0.85149 0.0
C2863 C 0.36905 0.19047 0.8625 0.0
C2864 C 0.35277 0.1852 0.87976 0.0
C2865 C 0.34952 0.17116 0.8975 0.0
C2866 C 0.3342 0.16642 0.91377 0.0
C2867 C 0.3219 0.17548 0.91235 0.0
C2868 C 0.32485 0.18922 0.8946 0.0
C2869 C 0.34016 0.19403 0.87831 0.0
C2870 C 0.36693 0.16109 0.765 0.0
C2871 C 0.35463 0.16743 0.75344 0.0
C2872 C 0.37459 0.16854 0.78695 0.0
C2873 C 0.37037 0.18276 0.79786 0.0
C2874 C 0.35848 0.18957 0.78608 0.0
C2875 C 0.35063 0.18193 0.76398 0.0
C2876 C 0.37764 0.18955 0.82191 0.0
C2877 C 0.36333 0.18658 0.83908 0.0
C2878 C 0.39831 0.19724 0.8284 0.0
C2879 C 0.41454 0.20104 0.81163 0.0
C2880 C 0.41871 0.21471 0.79329 0.0
C2881 C 0.4353 0.21971 0.77882 0.0
C2882 C 0.4478 0.21115 0.78258 0.0
C2883 C 0.4435 0.19719 0.80051 0.0
C2884 C 0.42694 0.19212 0.81501 0.0
H2885 H 0.4609 0.21549 0.77165 0.0
H2886 H 0.31006 0.1718 0.92497 0.0
H2887 H 0.77459 0.19355 0.92045 0.0
H2888 H 0.78333 0.1906 0.88041 0.0
H2889 H 0.84621 0.2137 0.90061 0.0
H2890 H 0.83753 0.21614 0.94041 0.0
H2891 H 0.84198 0.23603 0.86464 0.0
H2892 H 0.81979 0.16605 0.88546 0.0
H2893 H 0.79579 0.13167 0.90107 0.0
H2894 H 0.75161 0.1229 0.84899 0.0
H2895 H 0.77525 0.1574 0.83328 0.0
H2896 H 0.87718 0.20439 0.76183 0.0
H2897 H 0.86959 0.21014 0.80146 0.0
H2898 H 0.81235 0.20381 0.77832 0.0
H2899 H 0.82032 0.19908 0.73881 0.0
H2900 H 0.8134 0.17342 0.81522 0.0
H2901 H 0.8356 0.2439 0.79503 0.0
H2902 H 0.86 0.27808 0.77932 0.0
H2903 H 0.90442 0.28561 0.83054 0.0
H2904 H 0.88038 0.25122 0.84625 0.0
C2905 C 0.79011 0.19741 0.9164 0.0
C2906 C 0.80543 0.20534 0.93346 0.0
C2907 C 0.79513 0.19588 0.89354 0.0
C2908 C 0.81551 0.20227 0.88754 0.0
C2909 C 0.83049 0.20899 0.90482 0.0
C2910 C 0.82547 0.21031 0.92755 0.0
C2911 C 0.8216 0.20306 0.86318 0.0
C2912 C 0.83586 0.2223 0.85391 0.0
C2913 C 0.81338 0.18522 0.84911 0.0
C2914 C 0.79919 0.16441 0.85836 0.0
C2915 C 0.80488 0.15687 0.87746 0.0
C2916 C 0.79136 0.13735 0.88631 0.0
C2917 C 0.77216 0.12514 0.87608 0.0
C2918 C 0.76647 0.13239 0.85693 0.0
C2919 C 0.77993 0.15193 0.84803 0.0
C2920 C 0.86362 0.20547 0.76509 0.0
C2921 C 0.84958 0.20187 0.7473 0.0
C2922 C 0.8591 0.20838 0.7877 0.0
C2923 C 0.84031 0.20716 0.79272 0.0
C2924 C 0.82692 0.20483 0.77474 0.0
C2925 C 0.83165 0.20247 0.75217 0.0
C2926 C 0.83372 0.20634 0.81681 0.0
C2927 C 0.81943 0.18711 0.826 0.0
C2928 C 0.84188 0.22416 0.83083 0.0
C2929 C 0.85632 0.24487 0.82158 0.0
C2930 C 0.85066 0.25273 0.80275 0.0
C2931 C 0.86441 0.27216 0.79389 0.0
C2932 C 0.88379 0.28398 0.80387 0.0
C2933 C 0.88942 0.27641 0.82279 0.0
C2934 C 0.87575 0.25694 0.83167 0.0
H2935 H 0.89441 0.29903 0.79699 0.0
H2936 H 0.7617 0.11003 0.88295 0.0
H2937 H 0.28094 0.11894 0.4166 0.0
H2938 H 0.29123 0.12072 0.45661 0.0
H2939 H 0.25863 0.15245 0.47429 0.0
H2940 H 0.24722 0.14977 0.43398 0.0
H2941 H 0.30224 0.16796 0.49425 0.0
H2942 H 0.23505 0.10848 0.48757 0.0
H2943 H 0.20747 0.07547 0.472 0.0
H2944 H 0.24397 0.04713 0.48449 0.0
H2945 H 0.27198 0.0801 0.49963 0.0
H2946 H 0.29933 0.14785 0.61553 0.0
H2947 H 0.28565 0.14673 0.577 0.0
H2948 H 0.31845 0.1176 0.55092 0.0
H2949 H 0.33327 0.11992 0.58936 0.0
H2950 H 0.27302 0.10143 0.53598 0.0
H2951 H 0.34063 0.16019 0.5402 0.0
H2952 H 0.36959 0.19306 0.55405 0.0
H2953 H 0.33414 0.22293 0.54441 0.0
H2954 H 0.30472 0.19006 0.53108 0.0
C2955 C 0.27586 0.1263 0.42893 0.0
C2956 C 0.26275 0.13371 0.42219 0.0
C2957 C 0.28185 0.12735 0.4518 0.0
C2958 C 0.27534 0.13631 0.46844 0.0
C2959 C 0.26361 0.14526 0.46164 0.0
C2960 C 0.25722 0.14385 0.43864 0.0
C2961 C 0.2804 0.13547 0.49292 0.0
C2962 C 0.29555 0.15353 0.50363 0.0
C2963 C 0.27217 0.11644 0.5047 0.0
C2964 C 0.25573 0.09686 0.49453 0.0
C2965 C 0.23736 0.09533 0.48663 0.0
C2966 C 0.2216 0.07659 0.47796 0.0
C2967 C 0.22396 0.05921 0.47731 0.0
C2968 C 0.24216 0.0606 0.48504 0.0
C2969 C 0.25799 0.07932 0.49364 0.0
C2970 C 0.3029 0.14035 0.6018 0.0
C2971 C 0.31691 0.13341 0.60556 0.0
C2972 C 0.2954 0.14011 0.57972 0.0
C2973 C 0.30132 0.13241 0.56109 0.0
C2974 C 0.31384 0.12375 0.56511 0.0
C2975 C 0.32196 0.12467 0.58711 0.0
C2976 C 0.29484 0.13393 0.5374 0.0
C2977 C 0.27951 0.11594 0.52679 0.0
C2978 C 0.30306 0.15302 0.52565 0.0
C2979 C 0.32024 0.17247 0.53518 0.0
C2980 C 0.33878 0.1736 0.5416 0.0
C2981 C 0.35535 0.19229 0.54921 0.0
C2982 C 0.35367 0.21004 0.55025 0.0
C2983 C 0.33538 0.20913 0.54374 0.0
C2984 C 0.31874 0.19046 0.53621 0.0
H2985 H 0.36657 0.22453 0.55598 0.0
H2986 H 0.21163 0.04463 0.47093 0.0
H2987 H 0.88384 0.16361 0.4096 0.0
H2988 H 0.87877 0.17049 0.44936 0.0
H2989 H 0.86055 0.1077 0.46729 0.0
H2990 H 0.86532 0.10063 0.42714 0.0
H2991 H 0.8368 0.12035 0.48844 0.0
H2992 H 0.90931 0.14792 0.47906 0.0
H2993 H 0.9429 0.16888 0.46057 0.0
H2994 H 0.94016 0.22397 0.47365 0.0
H2995 H 0.90641 0.20332 0.4919 0.0
H2996 H 0.85371 0.15008 0.61053 0.0
H2997 H 0.85415 0.13556 0.57251 0.0
H2998 H 0.86586 0.19226 0.5403 0.0
H2999 H 0.86491 0.20649 0.57753 0.0
H3000 H 0.8944 0.17979 0.52857 0.0
H3001 H 0.82211 0.15417 0.53217 0.0
H3002 H 0.78783 0.13523 0.5496 0.0
H3003 H 0.78986 0.07891 0.54635 0.0
H3004 H 0.82435 0.09763 0.5292 0.0
C3005 C 0.87864 0.15123 0.42199 0.0
C3006 C 0.87515 0.13163 0.41535 0.0
C3007 C 0.87584 0.15521 0.44473 0.0
C3008 C 0.86979 0.13977 0.46146 0.0
C3009 C 0.8654 0.11989 0.45471 0.0
C3010 C 0.86804 0.11584 0.4318 0.0
C3011 C 0.8683 0.14461 0.48595 0.0
C3012 C 0.84955 0.13306 0.49737 0.0
C3013 C 0.88479 0.16153 0.49748 0.0
C3014 C 0.90524 0.17402 0.48672 0.0
C3015 C 0.91581 0.16448 0.47787 0.0
C3016 C 0.93489 0.17632 0.46744 0.0
C3017 C 0.94364 0.19773 0.4659 0.0
C3018 C 0.93336 0.20737 0.47484 0.0
C3019 C 0.91426 0.19561 0.48526 0.0
C3020 C 0.8558 0.15916 0.59526 0.0
C3021 C 0.85945 0.17948 0.59709 0.0
C3022 C 0.85624 0.15096 0.57361 0.0
C3023 C 0.86041 0.16302 0.55368 0.0
C3024 C 0.86295 0.18282 0.55547 0.0
C3025 C 0.8623 0.19087 0.57683 0.0
C3026 C 0.86288 0.15565 0.53085 0.0
C3027 C 0.88182 0.1668 0.51975 0.0
C3028 C 0.84656 0.13861 0.51952 0.0
C3029 C 0.82588 0.12732 0.52974 0.0
C3030 C 0.81533 0.13778 0.53541 0.0
C3031 C 0.79585 0.12709 0.54518 0.0
C3032 C 0.78671 0.10589 0.54917 0.0
C3033 C 0.797 0.09534 0.54331 0.0
C3034 C 0.8165 0.10598 0.53356 0.0
H3035 H 0.77161 0.09763 0.55673 0.0
H3036 H 0.95841 0.20686 0.45781 0.0
H3037 H 0.88022 0.77615 0.43616 0.0
H3038 H 0.87015 0.76286 0.47506 0.0
H3039 H 0.86833 0.70636 0.45497 0.0
H3040 H 0.87811 0.71964 0.41561 0.0
H3041 H 0.83352 0.69891 0.47685 0.0
H3042 H 0.90551 0.74034 0.49149 0.0
H3043 H 0.93918 0.77217 0.48954 0.0
H3044 H 0.9159 0.80485 0.52835 0.0
H3045 H 0.88198 0.77325 0.5303 0.0
H3046 H 0.8262 0.6572 0.58669 0.0
H3047 H 0.83244 0.67079 0.54794 0.0
H3048 H 0.83738 0.72749 0.57312 0.0
H3049 H 0.83197 0.71399 0.6126 0.0
H3050 H 0.86958 0.73556 0.5484 0.0
H3051 H 0.79742 0.69274 0.53507 0.0
H3052 H 0.7642 0.66037 0.53691 0.0
H3053 H 0.78806 0.62967 0.49552 0.0
H3054 H 0.82151 0.66179 0.49365 0.0
C3055 C 0.8782 0.76111 0.44024 0.0
C3056 C 0.88006 0.74894 0.42305 0.0
C3057 C 0.87241 0.75351 0.46244 0.0
C3058 C 0.86853 0.73363 0.46796 0.0
C3059 C 0.87125 0.72175 0.45105 0.0
C3060 C 0.87708 0.7294 0.42872 0.0
C3061 C 0.86052 0.72502 0.49104 0.0
C3062 C 0.84152 0.70675 0.49252 0.0
C3063 C 0.87064 0.73561 0.51144 0.0
C3064 C 0.89118 0.75447 0.51092 0.0
C3065 C 0.90755 0.75434 0.49954 0.0
C3066 C 0.92668 0.77233 0.49843 0.0
C3067 C 0.92967 0.79053 0.50878 0.0
C3068 C 0.91356 0.79074 0.52035 0.0
C3069 C 0.89439 0.77278 0.5215 0.0
C3070 C 0.82778 0.67225 0.58385 0.0
C3071 C 0.82843 0.68449 0.60255 0.0
C3072 C 0.83136 0.68004 0.56163 0.0
C3073 C 0.83525 0.70014 0.55744 0.0
C3074 C 0.83437 0.7119 0.57592 0.0
C3075 C 0.83094 0.7041 0.5984 0.0
C3076 C 0.8425 0.70936 0.53433 0.0
C3077 C 0.86143 0.72777 0.53279 0.0
C3078 C 0.83232 0.69883 0.51387 0.0
C3079 C 0.812 0.67967 0.51429 0.0
C3080 C 0.7956 0.67908 0.5264 0.0
C3081 C 0.77673 0.66077 0.52745 0.0
C3082 C 0.77403 0.64297 0.51636 0.0
C3083 C 0.79017 0.64347 0.50409 0.0
C3084 C 0.80907 0.66174 0.50297 0.0
H3085 H 0.75942 0.62879 0.51726 0.0
H3086 H 0.94448 0.80446 0.50786 0.0
loop_
_geom_bond_atom_site_label_1
_geom_bond_atom_site_label_2
_geom_bond_distance
_geom_bond_site_symmetry_2
_ccdc_geom_bond_type
H0 C3 0.929 . S
H1 C6 0.929 . S
H2 C8 0.930 . S
C3 H0 0.929 . S
C3 C4 1.398 . S
C3 C5 1.396 . S
C4 C3 1.398 . S
C4 C8 1.407 . S
C5 C3 1.396 . S
C5 C6 1.394 . S
C6 H1 0.929 . S
C6 C5 1.394 . S
C6 C7 1.382 . S
C7 C6 1.382 . S
C7 C8 1.392 . S
C7 N9 1.420 . S
C8 H2 0.930 . S
C8 C4 1.407 . S
C8 C7 1.392 . S
N9 C7 1.420 . S
N9 C10 1.244 . S
C10 N9 1.244 . S
H11 C14 0.929 . S
H12 C17 0.929 . S
H13 C19 0.930 . S
C14 H11 0.929 . S
C14 C15 1.398 . S
C14 C16 1.396 . S
C15 C14 1.398 . S
C15 C19 1.407 . S
C16 C14 1.396 . S
C16 C17 1.394 . S
C17 H12 0.929 . S
C17 C16 1.394 . S
C17 C18 1.382 . S
C18 C17 1.382 . S
C18 C19 1.392 . S
C18 N20 1.420 . S
C19 H13 0.930 . S
C19 C15 1.407 . S
C19 C18 1.392 . S
N20 C18 1.420 . S
N20 C21 1.244 . S
C21 N20 1.244 . S
H22 C25 0.929 . S
H23 C28 0.929 . S
H24 C30 0.930 . S
C25 H22 0.929 . S
C25 C26 1.398 . S
C25 C27 1.396 . S
C26 C25 1.398 . S
C26 C30 1.407 . S
C27 C25 1.396 . S
C27 C28 1.394 . S
C28 H23 0.929 . S
C28 C27 1.394 . S
C28 C29 1.382 . S
C29 C28 1.382 . S
C29 C30 1.392 . S
C29 N31 1.420 . S
C30 H24 0.930 . S
C30 C26 1.407 . S
C30 C29 1.392 . S
N31 C29 1.420 . S
N31 C32 1.244 . S
C32 N31 1.244 . S
H33 C36 0.929 . S
H34 C39 0.929 . S
H35 C41 0.930 . S
C36 H33 0.929 . S
C36 C37 1.398 . S
C36 C38 1.396 . S
C37 C36 1.398 . S
C37 C41 1.407 . S
C38 C36 1.396 . S
C38 C39 1.394 . S
C39 H34 0.929 . S
C39 C38 1.394 . S
C39 C40 1.382 . S
C40 C39 1.382 . S
C40 C41 1.392 . S
C40 N42 1.420 . S
C41 H35 0.930 . S
C41 C37 1.407 . S
C41 C40 1.392 . S
N42 C40 1.420 . S
N42 C43 1.244 . S
C43 N42 1.244 . S
H44 C47 0.929 . S
H45 C50 0.929 . S
H46 C52 0.930 . S
C47 H44 0.929 . S
C47 C48 1.398 . S
C47 C49 1.396 . S
C48 C47 1.398 . S
C48 C52 1.407 . S
C49 C47 1.396 . S
C49 C50 1.394 . S
C50 H45 0.929 . S
C50 C49 1.394 . S
C50 C51 1.382 . S
C51 C50 1.382 . S
C51 C52 1.392 . S
C51 N53 1.420 . S
C52 H46 0.930 . S
C52 C48 1.407 . S
C52 C51 1.392 . S
N53 C51 1.420 . S
N53 C54 1.244 . S
C54 N53 1.244 . S
H55 C58 0.929 . S
H56 C61 0.929 . S
H57 C63 0.930 . S
C58 H55 0.929 . S
C58 C59 1.398 . S
C58 C60 1.396 . S
C59 C58 1.398 . S
C59 C63 1.407 . S
C60 C58 1.396 . S
C60 C61 1.394 . S
C61 H56 0.929 . S
C61 C60 1.394 . S
C61 C62 1.382 . S
C62 C61 1.382 . S
C62 C63 1.392 . S
C62 N64 1.420 . S
C63 H57 0.930 . S
C63 C59 1.407 . S
C63 C62 1.392 . S
N64 C62 1.420 . S
N64 C65 1.244 . S
C65 N64 1.244 . S
H66 C69 0.929 . S
H67 C72 0.929 . S
H68 C74 0.930 . S
C69 H66 0.929 . S
C69 C70 1.398 . S
C69 C71 1.396 . S
C70 C69 1.398 . S
C70 C74 1.407 . S
C71 C69 1.396 . S
C71 C72 1.394 . S
C72 H67 0.929 . S
C72 C71 1.394 . S
C72 C73 1.382 . S
C73 C72 1.382 . S
C73 C74 1.392 . S
C73 N75 1.420 . S
C74 H68 0.930 . S
C74 C70 1.407 . S
C74 C73 1.392 . S
N75 C73 1.420 . S
N75 C76 1.244 . S
C76 N75 1.244 . S
H77 C80 0.929 . S
H78 C83 0.929 . S
H79 C85 0.930 . S
C80 H77 0.929 . S
C80 C81 1.398 . S
C80 C82 1.396 . S
C81 C80 1.398 . S
C81 C85 1.407 . S
C82 C80 1.396 . S
C82 C83 1.394 . S
C83 H78 0.929 . S
C83 C82 1.394 . S
C83 C84 1.382 . S
C84 C83 1.382 . S
C84 C85 1.392 . S
C84 N86 1.420 . S
C85 H79 0.930 . S
C85 C81 1.407 . S
C85 C84 1.392 . S
N86 C84 1.420 . S
N86 C87 1.244 . S
C87 N86 1.244 . S
H88 C91 0.929 . S
H89 C94 0.929 . S
H90 C96 0.930 . S
C91 H88 0.929 . S
C91 C92 1.398 . S
C91 C93 1.396 . S
C92 C91 1.398 . S
C92 C96 1.407 . S
C93 C91 1.396 . S
C93 C94 1.394 . S
C94 H89 0.929 . S
C94 C93 1.394 . S
C94 C95 1.382 . S
C95 C94 1.382 . S
C95 C96 1.392 . S
C95 N97 1.420 . S
C96 H90 0.930 . S
C96 C92 1.407 . S
C96 C95 1.392 . S
N97 C95 1.420 . S
N97 C98 1.244 . S
C98 N97 1.244 . S
H99 C102 0.929 . S
H100 C105 0.929 . S
H101 C107 0.930 . S
C102 H99 0.929 . S
C102 C103 1.398 . S
C102 C104 1.396 . S
C103 C102 1.398 . S
C103 C107 1.407 1_556 S
C104 C102 1.396 . S
C104 C105 1.394 . S
C105 H100 0.929 . S
C105 C104 1.394 . S
C105 C106 1.382 . S
C106 C105 1.382 . S
C106 C107 1.392 1_556 S
C106 N108 1.420 1_556 S
C107 H101 0.930 . S
C107 C103 1.407 1_554 S
C107 C106 1.392 1_554 S
N108 C106 1.420 1_554 S
N108 C109 1.244 1_554 S
C109 N108 1.244 1_556 S
H110 C113 0.929 . S
H111 C116 0.929 . S
H112 C118 0.930 . S
C113 H110 0.929 . S
C113 C114 1.398 . S
C113 C115 1.396 . S
C114 C113 1.398 . S
C114 C118 1.407 1_556 S
C115 C113 1.396 . S
C115 C116 1.394 . S
C116 H111 0.929 . S
C116 C115 1.394 . S
C116 C117 1.382 . S
C117 C116 1.382 . S
C117 C118 1.392 1_556 S
C117 N119 1.420 1_556 S
C118 H112 0.930 . S
C118 C114 1.407 1_554 S
C118 C117 1.392 1_554 S
N119 C117 1.420 1_554 S
N119 C120 1.244 . S
C120 N119 1.244 . S
H121 C124 0.929 . S
H122 C127 0.929 . S
H123 C129 0.930 . S
C124 H121 0.929 . S
C124 C125 1.398 . S
C124 C126 1.396 . S
C125 C124 1.398 . S
C125 C129 1.407 1_556 S
C126 C124 1.396 . S
C126 C127 1.394 . S
C127 H122 0.929 . S
C127 C126 1.394 . S
C127 C128 1.382 . S
C128 C127 1.382 . S
C128 C129 1.392 1_556 S
C128 N130 1.420 1_556 S
C129 H123 0.930 . S
C129 C125 1.407 1_554 S
C129 C128 1.392 1_554 S
N130 C128 1.420 1_554 S
N130 C131 1.244 1_554 S
C131 N130 1.244 1_556 S
H132 C135 0.929 . S
H133 C138 0.929 . S
H134 C140 0.902 1_556 S
C135 H132 0.929 . S
C135 C136 1.398 . S
C135 C137 1.396 . S
C136 C135 1.398 . S
C136 C140 1.407 . S
C137 C135 1.396 . S
C137 C138 1.394 . S
C138 H133 0.929 . S
C138 C137 1.394 . S
C138 C139 1.382 . S
C139 C138 1.382 . S
C139 C140 1.392 . S
C139 N141 1.420 . S
C140 H134 0.902 1_554 S
C140 C136 1.407 . S
C140 C139 1.392 . S
N141 C139 1.420 . S
N141 C142 1.244 . S
C142 N141 1.244 . S
H143 C146 0.929 . S
H144 C149 0.929 . S
H145 C151 0.930 1_556 S
C146 H143 0.929 . S
C146 C147 1.398 . S
C146 C148 1.396 . S
C147 C146 1.398 . S
C147 C151 1.407 . S
C148 C146 1.396 . S
C148 C149 1.394 . S
C149 H144 0.929 . S
C149 C148 1.394 . S
C149 C150 1.382 . S
C150 C149 1.382 . S
C150 C151 1.392 . S
C150 N152 1.420 . S
C151 H145 0.930 1_554 S
C151 C147 1.407 . S
C151 C150 1.392 . S
N152 C150 1.420 . S
N152 C153 1.244 . S
C153 N152 1.244 . S
H154 C157 0.929 . S
H155 C160 0.929 . S
H156 C162 0.930 . S
C157 H154 0.929 . S
C157 C158 1.398 . S
C157 C159 1.396 . S
C158 C157 1.398 . S
C158 C162 1.407 . S
C159 C157 1.396 . S
C159 C160 1.394 . S
C160 H155 0.929 . S
C160 C159 1.394 . S
C160 C161 1.382 . S
C161 C160 1.382 . S
C161 C162 1.392 . S
C161 N163 1.420 . S
C162 H156 0.930 . S
C162 C158 1.407 . S
C162 C161 1.392 . S
N163 C161 1.420 . S
N163 C164 1.244 . S
C164 N163 1.244 . S
H165 C168 0.929 . S
H166 C171 0.929 . S
H167 C173 0.930 . S
C168 H165 0.929 . S
C168 C169 1.398 . S
C168 C170 1.396 . S
C169 C168 1.398 . S
C169 C173 1.407 . S
C170 C168 1.396 . S
C170 C171 1.394 . S
C171 H166 0.929 . S
C171 C170 1.394 . S
C171 C172 1.382 . S
C172 C171 1.382 . S
C172 C173 1.392 . S
C172 N174 1.420 . S
C173 H167 0.930 . S
C173 C169 1.407 . S
C173 C172 1.392 . S
N174 C172 1.420 . S
N174 C175 1.244 . S
C175 N174 1.244 . S
H176 C179 0.929 . S
H177 C182 0.929 . S
H178 C184 0.930 . S
C179 H176 0.929 . S
C179 C180 1.398 . S
C179 C181 1.396 . S
C180 C179 1.398 . S
C180 C184 1.407 . S
C181 C179 1.396 . S
C181 C182 1.394 . S
C182 H177 0.929 . S
C182 C181 1.394 . S
C182 C183 1.382 . S
C183 C182 1.382 . S
C183 C184 1.392 . S
C183 N185 1.420 . S
C184 H178 0.930 . S
C184 C180 1.407 . S
C184 C183 1.392 . S
N185 C183 1.420 . S
N185 C186 1.244 . S
C186 N185 1.244 . S
H187 C190 0.929 . S
H188 C193 0.929 . S
H189 C195 0.930 . S
C190 H187 0.929 . S
C190 C191 1.398 . S
C190 C192 1.396 . S
C191 C190 1.398 . S
C191 C195 1.407 . S
C192 C190 1.396 . S
C192 C193 1.394 . S
C193 H188 0.929 . S
C193 C192 1.394 . S
C193 C194 1.382 . S
C194 C193 1.382 . S
C194 C195 1.392 . S
C194 N196 1.420 . S
C195 H189 0.930 . S
C195 C191 1.407 . S
C195 C194 1.392 . S
N196 C194 1.420 . S
N196 C197 1.244 . S
C197 N196 1.244 . S
O198 Mn199 2.163 1_565 S
O198 C212 1.244 . S
Mn199 O198 2.163 1_545 S
Mn199 O202 2.160 . S
Mn199 O203 2.221 1_545 S
Mn199 O205 2.163 1_554 S
Mn199 O207 2.160 . S
Mn199 O217 2.221 . S
O200 Mn201 2.087 1_565 S
O200 C212 1.256 . S
Mn201 O200 2.087 1_545 S
Mn201 O208 2.089 1_545 S
Mn201 O217 2.290 . S
Mn201 O218 2.251 . S
O202 Mn199 2.160 . S
O202 C213 1.239 . S
O203 Mn199 2.221 1_565 S
O203 Mn204 2.290 1_564 S
O203 C214 1.278 1_554 S
Mn204 O203 2.290 1_546 S
Mn204 O206 2.089 . S
Mn204 O209 2.251 1_545 S
Mn204 O210 2.087 . S
O205 Mn199 2.163 1_556 S
O205 C215 1.244 . S
O206 Mn204 2.089 . S
O206 C213 1.256 1_556 S
O207 Mn199 2.160 . S
O207 C216 1.239 1_545 S
O208 Mn201 2.089 1_565 S
O208 C216 1.256 . S
O209 Mn204 2.251 1_565 S
O209 C214 1.241 . S
O210 Mn204 2.087 . S
O210 C215 1.256 . S
C211 O217 1.278 . S
C211 O218 1.241 . S
C212 O198 1.244 . S
C212 O200 1.256 . S
C213 O202 1.239 . S
C213 O206 1.256 1_554 S
C214 O203 1.278 1_556 S
C214 O209 1.241 . S
C215 O205 1.244 . S
C215 O210 1.256 . S
C216 O207 1.239 1_565 S
C216 O208 1.256 . S
O217 Mn199 2.221 . S
O217 Mn201 2.290 . S
O217 C211 1.278 . S
O218 Mn201 2.251 . S
O218 C211 1.241 . S
O219 Mn220 2.163 . S
O219 C233 1.244 . S
Mn220 O219 2.163 . S
Mn220 O223 2.160 1_455 S
Mn220 O224 2.221 . S
Mn220 O226 2.163 1_454 S
Mn220 O228 2.160 . S
Mn220 O238 2.221 1_455 S
O221 Mn222 2.087 . S
O221 C233 1.256 . S
Mn222 O221 2.087 . S
Mn222 O229 2.089 . S
Mn222 O238 2.290 1_455 S
Mn222 O239 2.251 1_455 S
O223 Mn220 2.160 1_655 S
O223 C234 1.239 . S
O224 Mn220 2.221 . S
O224 Mn225 2.290 1_554 S
O224 C235 1.262 1_554 S
Mn225 O224 2.290 1_556 S
Mn225 O227 2.089 1_455 S
Mn225 O230 2.251 . S
Mn225 O231 2.087 . S
O226 Mn220 2.163 1_656 S
O226 C236 1.244 . S
O227 Mn225 2.089 1_655 S
O227 C234 1.256 1_556 S
O228 Mn220 2.160 . S
O228 C237 1.239 . S
O229 Mn222 2.089 . S
O229 C237 1.256 . S
O230 Mn225 2.251 . S
O230 C235 1.279 . S
O231 Mn225 2.087 . S
O231 C236 1.256 1_455 S
C232 O238 1.278 . S
C232 O239 1.241 . S
C233 O219 1.244 . S
C233 O221 1.256 . S
C234 O223 1.239 . S
C234 O227 1.256 1_554 S
C235 O224 1.262 1_556 S
C235 O230 1.279 . S
C236 O226 1.244 . S
C236 O231 1.256 1_655 S
C237 O228 1.239 . S
C237 O229 1.256 . S
O238 Mn220 2.221 1_655 S
O238 Mn222 2.290 1_655 S
O238 C232 1.278 . S
O239 Mn222 2.251 1_655 S
O239 C232 1.241 . S
O240 Mn241 2.163 . S
O240 C254 1.244 . S
Mn241 O240 2.163 . S
Mn241 O244 2.158 1_554 S
Mn241 O245 2.221 . S
Mn241 O247 2.163 . S
Mn241 O249 2.160 1_554 S
Mn241 O259 2.221 1_554 S
O242 Mn243 2.087 . S
O242 C254 1.256 1_556 S
Mn243 O242 2.087 . S
Mn243 O250 2.089 . S
Mn243 O259 2.290 . S
Mn243 O260 2.255 1_556 S
O244 Mn241 2.158 1_556 S
O244 C255 1.232 1_556 S
O245 Mn241 2.221 . S
O245 Mn246 2.290 . S
O245 C256 1.278 . S
Mn246 O245 2.290 . S
Mn246 O248 2.089 . S
Mn246 O251 2.251 . S
Mn246 O252 2.087 . S
O247 Mn241 2.163 . S
O247 C257 1.244 . S
O248 Mn246 2.089 . S
O248 C255 1.256 . S
O249 Mn241 2.160 1_556 S
O249 C258 1.239 . S
O250 Mn243 2.089 . S
O250 C258 1.256 . S
O251 Mn246 2.251 . S
O251 C256 1.241 . S
O252 Mn246 2.087 . S
O252 C257 1.256 . S
C253 O259 1.278 1_554 S
C253 O260 1.240 . S
C254 O240 1.244 . S
C254 O242 1.256 1_554 S
C255 O244 1.232 1_554 S
C255 O248 1.256 . S
C256 O245 1.278 . S
C256 O251 1.241 . S
C257 O247 1.244 . S
C257 O252 1.256 . S
C258 O249 1.239 . S
C258 O250 1.256 . S
O259 Mn241 2.221 1_556 S
O259 Mn243 2.290 . S
O259 C253 1.278 1_556 S
O260 Mn243 2.255 1_554 S
O260 C253 1.240 . S
O261 Mn262 2.163 . S
O261 C275 1.244 . S
Mn262 O261 2.163 . S
Mn262 O265 2.160 . S
Mn262 O266 2.221 . S
Mn262 O268 2.163 . S
Mn262 O270 2.160 . S
Mn262 O280 2.221 . S
O263 Mn264 2.087 . S
O263 C275 1.256 . S
Mn264 O263 2.087 . S
Mn264 O271 2.089 . S
Mn264 O280 2.290 . S
Mn264 O281 2.251 . S
O265 Mn262 2.160 . S
O265 C276 1.239 . S
O266 Mn262 2.221 . S
O266 Mn267 2.290 . S
O266 C277 1.278 . S
Mn267 O266 2.290 . S
Mn267 O269 2.089 . S
Mn267 O272 2.251 . S
Mn267 O273 2.087 . S
O268 Mn262 2.163 . S
O268 C278 1.244 . S
O269 Mn267 2.089 . S
O269 C276 1.256 . S
O270 Mn262 2.160 . S
O270 C279 1.239 . S
O271 Mn264 2.089 . S
O271 C279 1.256 . S
O272 Mn267 2.251 . S
O272 C277 1.241 . S
O273 Mn267 2.087 . S
O273 C278 1.256 . S
C274 O280 1.278 . S
C274 O281 1.241 . S
C275 O261 1.244 . S
C275 O263 1.256 . S
C276 O265 1.239 . S
C276 O269 1.256 . S
C277 O266 1.278 . S
C277 O272 1.241 . S
C278 O268 1.244 . S
C278 O273 1.256 . S
C279 O270 1.239 . S
C279 O271 1.256 . S
O280 Mn262 2.221 . S
O280 Mn264 2.290 . S
O280 C274 1.278 . S
O281 Mn264 2.251 . S
O281 C274 1.241 . S
O282 Mn283 2.163 . S
O282 C296 1.244 . S
Mn283 O282 2.163 . S
Mn283 O286 2.160 . S
Mn283 O287 2.221 . S
Mn283 O289 2.163 . S
Mn283 O291 2.160 . S
Mn283 O301 2.221 . S
O284 Mn285 2.087 . S
O284 C296 1.256 . S
Mn285 O284 2.087 . S
Mn285 O292 2.089 . S
Mn285 O301 2.290 . S
Mn285 O302 2.251 . S
O286 Mn283 2.160 . S
O286 C297 1.239 . S
O287 Mn283 2.221 . S
O287 Mn288 2.290 . S
O287 C298 1.278 . S
Mn288 O287 2.290 . S
Mn288 O290 2.089 . S
Mn288 O293 2.251 . S
Mn288 O294 2.087 . S
O289 Mn283 2.163 . S
O289 C299 1.244 . S
O290 Mn288 2.089 . S
O290 C297 1.256 . S
O291 Mn283 2.160 . S
O291 C300 1.239 . S
O292 Mn285 2.089 . S
O292 C300 1.256 . S
O293 Mn288 2.251 . S
O293 C298 1.241 . S
O294 Mn288 2.087 . S
O294 C299 1.256 . S
C295 O301 1.278 . S
C295 O302 1.241 . S
C296 O282 1.244 . S
C296 O284 1.256 . S
C297 O286 1.239 . S
C297 O290 1.256 . S
C298 O287 1.278 . S
C298 O293 1.241 . S
C299 O289 1.244 . S
C299 O294 1.256 . S
C300 O291 1.239 . S
C300 O292 1.256 . S
O301 Mn283 2.221 . S
O301 Mn285 2.290 . S
O301 C295 1.278 . S
O302 Mn285 2.251 . S
O302 C295 1.241 . S
O303 Mn304 2.163 . S
O303 C317 1.244 . S
Mn304 O303 2.163 . S
Mn304 O307 2.160 . S
Mn304 O308 2.221 . S
Mn304 O310 2.163 . S
Mn304 O312 2.160 . S
Mn304 O322 2.221 . S
O305 Mn306 2.087 . S
O305 C317 1.256 . S
Mn306 O305 2.087 . S
Mn306 O313 2.089 . S
Mn306 O322 2.290 . S
Mn306 O323 2.251 . S
O307 Mn304 2.160 . S
O307 C318 1.239 . S
O308 Mn304 2.221 . S
O308 Mn309 2.290 . S
O308 C319 1.278 . S
Mn309 O308 2.290 . S
Mn309 O311 2.089 . S
Mn309 O314 2.251 . S
Mn309 O315 2.087 . S
O310 Mn304 2.163 . S
O310 C320 1.244 . S
O311 Mn309 2.089 . S
O311 C318 1.256 . S
O312 Mn304 2.160 . S
O312 C321 1.239 . S
O313 Mn306 2.089 . S
O313 C321 1.256 . S
O314 Mn309 2.251 . S
O314 C319 1.241 . S
O315 Mn309 2.087 . S
O315 C320 1.256 . S
C316 O322 1.278 . S
C316 O323 1.241 . S
C317 O303 1.244 . S
C317 O305 1.256 . S
C318 O307 1.239 . S
C318 O311 1.256 . S
C319 O308 1.278 . S
C319 O314 1.241 . S
C320 O310 1.244 . S
C320 O315 1.256 . S
C321 O312 1.239 . S
C321 O313 1.256 . S
O322 Mn304 2.221 . S
O322 Mn306 2.290 . S
O322 C316 1.278 . S
O323 Mn306 2.251 . S
O323 C316 1.241 . S
O324 Mn325 2.163 . S
O324 C338 1.244 . S
Mn325 O324 2.163 . S
Mn325 O328 2.160 . S
Mn325 O329 2.221 . S
Mn325 O331 2.163 . S
Mn325 O333 2.160 . S
Mn325 O343 2.221 . S
O326 Mn327 2.087 . S
O326 C338 1.256 . S
Mn327 O326 2.087 . S
Mn327 O334 2.089 . S
Mn327 O343 2.290 . S
Mn327 O344 2.251 . S
O328 Mn325 2.160 . S
O328 C339 1.239 . S
O329 Mn325 2.221 . S
O329 Mn330 2.290 . S
O329 C340 1.278 . S
Mn330 O329 2.290 . S
Mn330 O332 2.089 . S
Mn330 O335 2.251 . S
Mn330 O336 2.087 . S
O331 Mn325 2.163 . S
O331 C341 1.244 . S
O332 Mn330 2.089 . S
O332 C339 1.256 . S
O333 Mn325 2.160 . S
O333 C342 1.239 . S
O334 Mn327 2.089 . S
O334 C342 1.256 . S
O335 Mn330 2.251 . S
O335 C340 1.241 . S
O336 Mn330 2.087 . S
O336 C341 1.256 . S
C337 O343 1.278 . S
C337 O344 1.241 . S
C338 O324 1.244 . S
C338 O326 1.256 . S
C339 O328 1.239 . S
C339 O332 1.256 . S
C340 O329 1.278 . S
C340 O335 1.241 . S
C341 O331 1.244 . S
C341 O336 1.256 . S
C342 O333 1.239 . S
C342 O334 1.256 . S
O343 Mn325 2.221 . S
O343 Mn327 2.290 . S
O343 C337 1.278 . S
O344 Mn327 2.251 . S
O344 C337 1.241 . S
O345 Mn346 2.163 . S
O345 C359 1.244 . S
Mn346 O345 2.163 . S
Mn346 O349 2.160 . S
Mn346 O350 2.221 . S
Mn346 O352 2.163 . S
Mn346 O354 2.160 . S
Mn346 O364 2.221 . S
O347 Mn348 2.087 . S
O347 C359 1.256 . S
Mn348 O347 2.087 . S
Mn348 O355 2.089 . S
Mn348 O364 2.290 . S
Mn348 O365 2.251 . S
O349 Mn346 2.160 . S
O349 C360 1.239 . S
O350 Mn346 2.221 . S
O350 Mn351 2.290 . S
O350 C361 1.278 . S
Mn351 O350 2.290 . S
Mn351 O353 2.089 . S
Mn351 O356 2.251 . S
Mn351 O357 2.087 . S
O352 Mn346 2.163 . S
O352 C362 1.244 . S
O353 Mn351 2.089 . S
O353 C360 1.256 . S
O354 Mn346 2.160 . S
O354 C363 1.239 . S
O355 Mn348 2.089 . S
O355 C363 1.256 . S
O356 Mn351 2.251 . S
O356 C361 1.241 . S
O357 Mn351 2.087 . S
O357 C362 1.256 . S
C358 O364 1.278 . S
C358 O365 1.241 . S
C359 O345 1.244 . S
C359 O347 1.256 . S
C360 O349 1.239 . S
C360 O353 1.256 . S
C361 O350 1.278 . S
C361 O356 1.241 . S
C362 O352 1.244 . S
C362 O357 1.256 . S
C363 O354 1.239 . S
C363 O355 1.256 . S
O364 Mn346 2.221 . S
O364 Mn348 2.290 . S
O364 C358 1.278 . S
O365 Mn348 2.251 . S
O365 C358 1.241 . S
O366 Mn367 2.163 . S
O366 C380 1.244 . S
Mn367 O366 2.163 . S
Mn367 O370 2.160 . S
Mn367 O371 2.221 . S
Mn367 O373 2.163 . S
Mn367 O375 2.160 . S
Mn367 O385 2.221 . S
O368 Mn369 2.087 . S
O368 C380 1.256 . S
Mn369 O368 2.087 . S
Mn369 O376 2.089 . S
Mn369 O385 2.290 . S
Mn369 O386 2.251 . S
O370 Mn367 2.160 . S
O370 C381 1.239 . S
O371 Mn367 2.221 . S
O371 Mn372 2.290 . S
O371 C382 1.278 . S
Mn372 O371 2.290 . S
Mn372 O374 2.089 . S
Mn372 O377 2.251 . S
Mn372 O378 2.087 . S
O373 Mn367 2.163 . S
O373 C383 1.244 . S
O374 Mn372 2.089 . S
O374 C381 1.256 . S
O375 Mn367 2.160 . S
O375 C384 1.239 . S
O376 Mn369 2.089 . S
O376 C384 1.256 . S
O377 Mn372 2.251 . S
O377 C382 1.241 . S
O378 Mn372 2.087 . S
O378 C383 1.256 . S
C379 O385 1.278 . S
C379 O386 1.241 . S
C380 O366 1.244 . S
C380 O368 1.256 . S
C381 O370 1.239 . S
C381 O374 1.256 . S
C382 O371 1.278 . S
C382 O377 1.241 . S
C383 O373 1.244 . S
C383 O378 1.256 . S
C384 O375 1.239 . S
C384 O376 1.256 . S
O385 Mn367 2.221 . S
O385 Mn369 2.290 . S
O385 C379 1.278 . S
O386 Mn369 2.251 . S
O386 C379 1.241 . S
H387 C405 0.951 . S
H388 C407 0.951 . S
H389 C409 0.950 . S
H390 C410 0.950 . S
H391 C412 0.950 . S
H392 C415 0.950 . S
H393 C416 0.950 . S
H394 C418 0.950 . S
H395 C419 0.950 . S
H396 C420 0.951 . S
H397 C422 0.951 . S
H398 C424 0.950 . S
H399 C425 0.950 . S
H400 C427 0.950 . S
H401 C430 0.950 . S
H402 C431 0.950 . S
H403 C433 0.950 . S
H404 C434 0.950 . S
C405 H387 0.951 . S
C405 C406 1.366 . S
C405 C407 1.388 . S
C406 C405 1.366 . S
C406 C410 1.385 . S
C407 H388 0.951 . S
C407 C405 1.388 . S
C407 C408 1.366 . S
C408 C407 1.366 . S
C408 C409 1.414 . S
C408 C411 1.499 . S
C409 H389 0.950 . S
C409 C408 1.414 . S
C409 C410 1.374 . S
C410 H390 0.950 . S
C410 C406 1.385 . S
C410 C409 1.374 . S
C411 C408 1.499 . S
C411 C412 1.373 . S
C411 C413 1.389 1_554 S
C412 H391 0.950 . S
C412 C411 1.373 . S
C412 C428 1.377 . S
C413 C411 1.389 1_556 S
C413 C414 1.524 . S
C413 C427 1.377 . S
C414 C413 1.524 . S
C414 C415 1.397 . S
C414 C419 1.363 . S
C415 H392 0.950 . S
C415 C414 1.397 . S
C415 C416 1.334 . S
C416 H393 0.950 . S
C416 C415 1.334 . S
C416 C417 1.287 . S
C417 C416 1.287 . S
C417 C418 1.524 . S
C417 H436 0.913 . S
C418 H394 0.950 . S
C418 C417 1.524 . S
C418 C419 1.415 . S
C419 H395 0.950 . S
C419 C414 1.363 . S
C419 C418 1.415 . S
C420 H396 0.951 . S
C420 C421 1.366 . S
C420 C422 1.388 . S
C421 C420 1.366 . S
C421 C425 1.385 . S
C422 H397 0.951 . S
C422 C420 1.388 . S
C422 C423 1.366 . S
C423 C422 1.366 . S
C423 C424 1.414 . S
C423 C426 1.499 . S
C424 H398 0.950 . S
C424 C423 1.414 . S
C424 C425 1.374 . S
C425 H399 0.950 . S
C425 C421 1.385 . S
C425 C424 1.374 . S
C426 C423 1.499 . S
C426 C427 1.373 1_554 S
C426 C428 1.389 . S
C427 H400 0.950 . S
C427 C413 1.377 . S
C427 C426 1.373 1_556 S
C428 C412 1.377 . S
C428 C426 1.389 . S
C428 C429 1.524 . S
C429 C428 1.524 . S
C429 C430 1.397 . S
C429 C434 1.363 . S
C430 H401 0.950 . S
C430 C429 1.397 . S
C430 C431 1.334 . S
C431 H402 0.950 . S
C431 C430 1.334 . S
C431 C432 1.287 . S
C432 C431 1.287 . S
C432 C433 1.524 . S
C432 H435 0.999 . S
C433 H403 0.950 . S
C433 C432 1.524 . S
C433 C434 1.415 . S
C434 H404 0.950 . S
C434 C429 1.363 . S
C434 C433 1.415 . S
H435 C432 0.999 . S
H436 C417 0.913 . S
H437 C455 0.951 . S
H438 C457 0.951 . S
H439 C459 0.950 . S
H440 C460 0.950 . S
H441 C462 0.950 . S
H442 C465 0.950 . S
H443 C466 0.950 . S
H444 C468 0.950 . S
H445 C469 0.950 . S
H446 C470 0.951 . S
H447 C472 0.951 . S
H448 C474 0.950 . S
H449 C475 0.950 . S
H450 C477 0.950 1_556 S
H451 C480 0.950 . S
H452 C481 0.950 . S
H453 C483 0.950 . S
H454 C484 0.950 . S
C455 H437 0.951 . S
C455 C456 1.366 . S
C455 C457 1.388 . S
C456 C455 1.366 . S
C456 C460 1.385 . S
C457 H438 0.951 . S
C457 C455 1.388 . S
C457 C458 1.366 . S
C458 C457 1.366 . S
C458 C459 1.414 . S
C458 C461 1.499 . S
C459 H439 0.950 . S
C459 C458 1.414 . S
C459 C460 1.374 . S
C460 H440 0.950 . S
C460 C456 1.385 . S
C460 C459 1.374 . S
C461 C458 1.499 . S
C461 C462 1.373 . S
C461 C463 1.389 . S
C462 H441 0.950 . S
C462 C461 1.373 . S
C462 C478 1.377 . S
C463 C461 1.389 . S
C463 C464 1.524 1_554 S
C463 C477 1.377 . S
C464 C463 1.524 1_556 S
C464 C465 1.397 . S
C464 C469 1.363 . S
C465 H442 0.950 . S
C465 C464 1.397 . S
C465 C466 1.334 . S
C466 H443 0.950 . S
C466 C465 1.334 . S
C466 C467 1.287 . S
C467 C466 1.287 . S
C467 C468 1.524 . S
C467 H486 0.913 . S
C468 H444 0.950 . S
C468 C467 1.524 . S
C468 C469 1.415 . S
C469 H445 0.950 . S
C469 C464 1.363 . S
C469 C468 1.415 . S
C470 H446 0.951 . S
C470 C471 1.366 . S
C470 C472 1.388 . S
C471 C470 1.366 . S
C471 C475 1.385 . S
C472 H447 0.951 . S
C472 C470 1.388 . S
C472 C473 1.366 . S
C473 C472 1.366 . S
C473 C474 1.414 . S
C473 C476 1.499 . S
C474 H448 0.950 . S
C474 C473 1.414 . S
C474 C475 1.374 . S
C475 H449 0.950 . S
C475 C471 1.385 . S
C475 C474 1.374 . S
C476 C473 1.499 . S
C476 C477 1.373 . S
C476 C478 1.389 . S
C477 H450 0.950 1_554 S
C477 C463 1.377 . S
C477 C476 1.373 . S
C478 C462 1.377 . S
C478 C476 1.389 . S
C478 C479 1.524 . S
C479 C478 1.524 . S
C479 C480 1.397 . S
C479 C484 1.363 . S
C480 H451 0.950 . S
C480 C479 1.397 . S
C480 C481 1.334 . S
C481 H452 0.950 . S
C481 C480 1.334 . S
C481 C482 1.287 . S
C482 C481 1.287 . S
C482 C483 1.524 . S
C482 H485 0.999 . S
C483 H453 0.950 . S
C483 C482 1.524 . S
C483 C484 1.415 . S
C484 H454 0.950 . S
C484 C479 1.363 . S
C484 C483 1.415 . S
H485 C482 0.999 . S
H486 C467 0.913 . S
H487 C505 0.951 . S
H488 C507 0.951 . S
H489 C509 0.950 1_556 S
H490 C510 0.950 1_556 S
H491 C512 0.950 . S
H492 C515 0.950 . S
H493 C516 0.950 . S
H494 C518 0.950 . S
H495 C519 0.950 . S
H496 C520 0.951 . S
H497 C522 0.951 . S
H498 C524 0.950 . S
H499 C525 0.950 . S
H500 C527 0.950 . S
H501 C530 0.950 . S
H502 C531 0.950 . S
H503 C533 0.950 . S
H504 C534 0.950 . S
C505 H487 0.951 . S
C505 C506 1.366 . S
C505 C507 1.388 . S
C506 C505 1.366 . S
C506 C510 1.385 . S
C507 H488 0.951 . S
C507 C505 1.388 . S
C507 C508 1.366 . S
C508 C507 1.366 . S
C508 C509 1.414 . S
C508 C511 1.499 . S
C509 H489 0.950 1_554 S
C509 C508 1.414 . S
C509 C510 1.374 . S
C510 H490 0.950 1_554 S
C510 C506 1.385 . S
C510 C509 1.374 . S
C511 C508 1.499 . S
C511 C512 1.373 1_554 S
C511 C513 1.389 . S
C512 H491 0.950 . S
C512 C511 1.373 1_556 S
C512 C528 1.377 . S
C513 C511 1.389 . S
C513 C514 1.524 . S
C513 C527 1.377 . S
C514 C513 1.524 . S
C514 C515 1.397 . S
C514 C519 1.363 . S
C515 H492 0.950 . S
C515 C514 1.397 . S
C515 C516 1.334 . S
C516 H493 0.950 . S
C516 C515 1.334 . S
C516 C517 1.287 . S
C517 C516 1.287 . S
C517 C518 1.524 . S
C517 H536 0.913 . S
C518 H494 0.950 . S
C518 C517 1.524 . S
C518 C519 1.415 . S
C519 H495 0.950 . S
C519 C514 1.363 . S
C519 C518 1.415 . S
C520 H496 0.951 . S
C520 C521 1.366 1_556 S
C520 C522 1.388 . S
C521 C520 1.366 1_554 S
C521 C525 1.385 . S
C522 H497 0.951 . S
C522 C520 1.388 . S
C522 C523 1.366 1_556 S
C523 C522 1.366 1_554 S
C523 C524 1.414 . S
C523 C526 1.499 . S
C524 H498 0.950 . S
C524 C523 1.414 . S
C524 C525 1.374 . S
C525 H499 0.950 . S
C525 C521 1.385 . S
C525 C524 1.374 . S
C526 C523 1.499 . S
C526 C527 1.373 . S
C526 C528 1.389 1_554 S
C527 H500 0.950 . S
C527 C513 1.377 . S
C527 C526 1.373 . S
C528 C512 1.377 . S
C528 C526 1.389 1_556 S
C528 C529 1.524 . S
C529 C528 1.524 . S
C529 C530 1.397 . S
C529 C534 1.363 . S
C530 H501 0.950 . S
C530 C529 1.397 . S
C530 C531 1.334 . S
C531 H502 0.950 . S
C531 C530 1.334 . S
C531 C532 1.287 . S
C532 C531 1.287 . S
C532 C533 1.524 . S
C532 H535 0.999 . S
C533 H503 0.950 . S
C533 C532 1.524 . S
C533 C534 1.415 . S
C534 H504 0.950 . S
C534 C529 1.363 . S
C534 C533 1.415 . S
H535 C532 0.999 . S
H536 C517 0.913 . S
H537 C555 0.946 1_554 S
H538 C557 0.960 . S
H539 C559 0.950 . S
H540 C560 0.950 . S
H541 C562 0.950 . S
H542 C565 0.950 . S
H543 C566 0.950 . S
H544 C568 0.950 . S
H545 C569 0.950 . S
H546 C570 0.949 1_556 S
H547 C572 0.951 . S
H548 C574 0.950 . S
H549 C575 0.950 . S
H550 C577 0.950 . S
H551 C580 0.950 . S
H552 C581 0.950 . S
H553 C583 0.950 . S
H554 C584 0.950 . S
C555 H537 0.946 1_556 S
C555 C556 1.376 . S
C555 C557 1.385 1_556 S
C556 C555 1.376 . S
C556 C560 1.385 . S
C557 H538 0.960 . S
C557 C555 1.385 1_554 S
C557 C558 1.361 1_554 S
C558 C557 1.361 1_556 S
C558 C559 1.414 . S
C558 C561 1.500 . S
C559 H539 0.950 . S
C559 C558 1.414 . S
C559 C560 1.374 . S
C560 H540 0.950 . S
C560 C556 1.385 . S
C560 C559 1.374 . S
C561 C558 1.500 . S
C561 C562 1.389 . S
C561 C563 1.374 1_556 S
C562 H541 0.950 . S
C562 C561 1.389 . S
C562 C578 1.377 . S
C563 C561 1.374 1_554 S
C563 C564 1.524 . S
C563 C577 1.377 . S
C564 C563 1.524 . S
C564 C565 1.397 . S
C564 C569 1.363 . S
C565 H542 0.950 . S
C565 C564 1.397 . S
C565 C566 1.334 . S
C566 H543 0.950 . S
C566 C565 1.334 . S
C566 C567 1.287 . S
C567 C566 1.287 . S
C567 C568 1.524 . S
C567 H586 0.913 . S
C568 H544 0.950 . S
C568 C567 1.524 . S
C568 C569 1.415 . S
C569 H545 0.950 . S
C569 C564 1.363 . S
C569 C568 1.415 . S
C570 H546 0.949 1_554 S
C570 C571 1.369 . S
C570 C572 1.387 1_554 S
C571 C570 1.369 . S
C571 C575 1.385 . S
C572 H547 0.951 . S
C572 C570 1.387 1_556 S
C572 C573 1.366 1_556 S
C573 C572 1.366 1_554 S
C573 C574 1.414 . S
C573 C576 1.498 1_554 S
C574 H548 0.950 . S
C574 C573 1.414 . S
C574 C575 1.374 . S
C575 H549 0.950 . S
C575 C571 1.385 . S
C575 C574 1.374 . S
C576 C573 1.498 1_556 S
C576 C577 1.371 1_556 S
C576 C578 1.392 . S
C577 H550 0.950 . S
C577 C563 1.377 . S
C577 C576 1.371 1_554 S
C578 C562 1.377 . S
C578 C576 1.392 . S
C578 C579 1.524 . S
C579 C578 1.524 . S
C579 C580 1.397 . S
C579 C584 1.363 . S
C580 H551 0.950 . S
C580 C579 1.397 . S
C580 C581 1.334 . S
C581 H552 0.950 . S
C581 C580 1.334 . S
C581 C582 1.287 . S
C582 C581 1.287 . S
C582 C583 1.524 . S
C582 H585 0.999 . S
C583 H553 0.950 . S
C583 C582 1.524 . S
C583 C584 1.415 . S
C584 H554 0.950 . S
C584 C579 1.363 . S
C584 C583 1.415 . S
H585 C582 0.999 . S
H586 C567 0.913 . S
H587 C605 0.951 . S
H588 C607 0.951 . S
H589 C609 0.950 . S
H590 C610 0.950 . S
H591 C612 0.950 . S
H592 C615 0.950 . S
H593 C616 0.950 . S
H594 C618 0.950 . S
H595 C619 0.950 . S
H596 C620 0.951 . S
H597 C622 0.951 . S
H598 C624 0.950 . S
H599 C625 0.950 . S
H600 C627 0.950 . S
H601 C630 0.950 . S
H602 C631 0.950 . S
H603 C633 0.950 . S
H604 C634 0.950 . S
C605 H587 0.951 . S
C605 C606 1.366 1_554 S
C605 C607 1.388 . S
C606 C605 1.366 1_556 S
C606 C610 1.385 . S
C607 H588 0.951 . S
C607 C605 1.388 . S
C607 C608 1.364 . S
C608 C607 1.364 . S
C608 C609 1.415 1_554 S
C608 C611 1.498 . S
C609 H589 0.950 . S
C609 C608 1.415 1_556 S
C609 C610 1.374 . S
C610 H590 0.950 . S
C610 C606 1.385 . S
C610 C609 1.374 . S
C611 C608 1.498 . S
C611 C612 1.350 1_554 S
C611 C613 1.413 . S
C612 H591 0.950 . S
C612 C611 1.350 1_556 S
C612 C628 1.377 . S
C613 C611 1.413 . S
C613 C614 1.524 . S
C613 C627 1.377 . S
C614 C613 1.524 . S
C614 C615 1.397 . S
C614 C619 1.363 . S
C615 H592 0.950 . S
C615 C614 1.397 . S
C615 C616 1.334 . S
C616 H593 0.950 . S
C616 C615 1.334 . S
C616 C617 1.287 . S
C617 C616 1.287 . S
C617 C618 1.524 . S
C617 H636 0.913 . S
C618 H594 0.950 . S
C618 C617 1.524 . S
C618 C619 1.415 . S
C619 H595 0.950 . S
C619 C614 1.363 . S
C619 C618 1.415 . S
C620 H596 0.951 . S
C620 C621 1.366 1_556 S
C620 C622 1.388 . S
C621 C620 1.366 1_554 S
C621 C625 1.385 . S
C622 H597 0.951 . S
C622 C620 1.388 . S
C622 C623 1.366 1_556 S
C623 C622 1.366 1_554 S
C623 C624 1.414 . S
C623 C626 1.499 . S
C624 H598 0.950 . S
C624 C623 1.414 . S
C624 C625 1.374 . S
C625 H599 0.950 . S
C625 C621 1.385 . S
C625 C624 1.374 . S
C626 C623 1.499 . S
C626 C627 1.373 . S
C626 C628 1.389 1_554 S
C627 H600 0.950 . S
C627 C613 1.377 . S
C627 C626 1.373 . S
C628 C612 1.377 . S
C628 C626 1.389 1_556 S
C628 C629 1.524 . S
C629 C628 1.524 . S
C629 C630 1.397 . S
C629 C634 1.363 . S
C630 H601 0.950 . S
C630 C629 1.397 . S
C630 C631 1.334 . S
C631 H602 0.950 . S
C631 C630 1.334 . S
C631 C632 1.287 . S
C632 C631 1.287 . S
C632 C633 1.524 . S
C632 H635 0.999 . S
C633 H603 0.950 . S
C633 C632 1.524 . S
C633 C634 1.415 . S
C634 H604 0.950 . S
C634 C629 1.363 . S
C634 C633 1.415 . S
H635 C632 0.999 . S
H636 C617 0.913 . S
H637 C655 0.951 . S
H638 C657 0.951 . S
H639 C659 0.950 . S
H640 C660 0.950 . S
H641 C662 0.950 . S
H642 C665 0.950 . S
H643 C666 0.950 . S
H644 C668 0.950 1_554 S
H645 C669 0.950 . S
H646 C670 0.951 . S
H647 C672 0.951 . S
H648 C674 0.950 . S
H649 C675 0.950 . S
H650 C677 0.947 1_556 S
H651 C680 0.950 . S
H652 C681 0.950 . S
H653 C683 0.966 . S
H654 C684 0.950 1_556 S
C655 H637 0.951 . S
C655 C656 1.362 1_554 S
C655 C657 1.388 . S
C656 C655 1.362 1_556 S
C656 C660 1.388 . S
C657 H638 0.951 . S
C657 C655 1.388 . S
C657 C658 1.369 . S
C658 C657 1.369 . S
C658 C659 1.411 1_554 S
C658 C661 1.499 . S
C659 H639 0.950 . S
C659 C658 1.411 1_556 S
C659 C660 1.374 . S
C660 H640 0.950 . S
C660 C656 1.388 . S
C660 C659 1.374 . S
C661 C658 1.499 . S
C661 C662 1.377 . S
C661 C663 1.388 1_554 S
C662 H641 0.950 . S
C662 C661 1.377 . S
C662 C678 1.377 . S
C663 C661 1.388 1_556 S
C663 C664 1.524 . S
C663 C677 1.374 1_556 S
C664 C663 1.524 . S
C664 C665 1.397 . S
C664 C669 1.363 1_556 S
C665 H642 0.950 . S
C665 C664 1.397 . S
C665 C666 1.334 . S
C666 H643 0.950 . S
C666 C665 1.334 . S
C666 C667 1.287 . S
C667 C666 1.287 . S
C667 C668 1.524 . S
C667 H686 0.913 . S
C668 H644 0.950 1_556 S
C668 C667 1.524 . S
C668 C669 1.415 1_556 S
C669 H645 0.950 . S
C669 C664 1.363 1_554 S
C669 C668 1.415 1_554 S
C670 H646 0.951 . S
C670 C671 1.366 1_556 S
C670 C672 1.388 . S
C671 C670 1.366 1_554 S
C671 C675 1.385 . S
C672 H647 0.951 . S
C672 C670 1.388 . S
C672 C673 1.366 1_556 S
C673 C672 1.366 1_554 S
C673 C674 1.414 . S
C673 C676 1.499 . S
C674 H648 0.950 . S
C674 C673 1.414 . S
C674 C675 1.374 . S
C675 H649 0.950 . S
C675 C671 1.385 . S
C675 C674 1.374 . S
C676 C673 1.499 . S
C676 C677 1.379 . S
C676 C678 1.389 . S
C677 H650 0.947 1_554 S
C677 C663 1.374 1_554 S
C677 C676 1.379 . S
C678 C662 1.377 . S
C678 C676 1.389 . S
C678 C679 1.524 . S
C679 C678 1.524 . S
C679 C680 1.397 . S
C679 C684 1.363 . S
C680 H651 0.950 . S
C680 C679 1.397 . S
C680 C681 1.334 . S
C681 H652 0.950 . S
C681 C680 1.334 . S
C681 C682 1.287 . S
C682 C681 1.287 . S
C682 C683 1.524 . S
C682 H685 0.999 . S
C683 H653 0.966 . S
C683 C682 1.524 . S
C683 C684 1.415 . S
C684 H654 0.950 1_554 S
C684 C679 1.363 . S
C684 C683 1.415 . S
H685 C682 0.999 . S
H686 C667 0.913 . S
H687 C705 0.951 . S
H688 C707 0.951 . S
H689 C709 0.950 . S
H690 C710 0.956 . S
H691 C712 0.950 . S
H692 C715 0.950 . S
H693 C716 0.950 . S
H694 C718 0.950 . S
H695 C719 0.950 . S
H696 C720 0.951 . S
H697 C722 0.951 . S
H698 C724 0.950 . S
H699 C725 0.950 . S
H700 C727 0.950 . S
H701 C730 0.950 . S
H702 C731 0.950 . S
H703 C733 0.950 . S
H704 C734 0.950 . S
C705 H687 0.951 . S
C705 C706 1.366 . S
C705 C707 1.388 . S
C706 C705 1.366 . S
C706 C710 1.381 1_554 S
C707 H688 0.951 . S
C707 C705 1.388 . S
C707 C708 1.366 . S
C708 C707 1.366 . S
C708 C709 1.414 1_554 S
C708 C711 1.499 . S
C709 H689 0.950 . S
C709 C708 1.414 1_556 S
C709 C710 1.373 . S
C710 H690 0.956 . S
C710 C706 1.381 1_556 S
C710 C709 1.373 . S
C711 C708 1.499 . S
C711 C712 1.373 . S
C711 C713 1.389 1_554 S
C712 H691 0.950 . S
C712 C711 1.373 . S
C712 C728 1.377 . S
C713 C711 1.389 1_556 S
C713 C714 1.524 . S
C713 C727 1.377 . S
C714 C713 1.524 . S
C714 C715 1.397 . S
C714 C719 1.363 . S
C715 H692 0.950 . S
C715 C714 1.397 . S
C715 C716 1.334 . S
C716 H693 0.950 . S
C716 C715 1.334 . S
C716 C717 1.287 . S
C717 C716 1.287 . S
C717 C718 1.524 . S
C717 H736 0.913 . S
C718 H694 0.950 . S
C718 C717 1.524 . S
C718 C719 1.415 . S
C719 H695 0.950 . S
C719 C714 1.363 . S
C719 C718 1.415 . S
C720 H696 0.951 . S
C720 C721 1.366 . S
C720 C722 1.388 . S
C721 C720 1.366 . S
C721 C725 1.385 . S
C722 H697 0.951 . S
C722 C720 1.388 . S
C722 C723 1.366 . S
C723 C722 1.366 . S
C723 C724 1.414 . S
C723 C726 1.499 . S
C724 H698 0.950 . S
C724 C723 1.414 . S
C724 C725 1.374 . S
C725 H699 0.950 . S
C725 C721 1.385 . S
C725 C724 1.374 . S
C726 C723 1.499 . S
C726 C727 1.373 1_554 S
C726 C728 1.389 . S
C727 H700 0.950 . S
C727 C713 1.377 . S
C727 C726 1.373 1_556 S
C728 C712 1.377 . S
C728 C726 1.389 . S
C728 C729 1.524 . S
C729 C728 1.524 . S
C729 C730 1.397 . S
C729 C734 1.363 . S
C730 H701 0.950 . S
C730 C729 1.397 . S
C730 C731 1.334 . S
C731 H702 0.950 . S
C731 C730 1.334 . S
C731 C732 1.287 . S
C732 C731 1.287 . S
C732 C733 1.524 . S
C732 H735 0.999 . S
C733 H703 0.950 . S
C733 C732 1.524 . S
C733 C734 1.415 . S
C734 H704 0.950 . S
C734 C729 1.363 . S
C734 C733 1.415 . S
H735 C732 0.999 . S
H736 C717 0.913 . S
H737 C755 0.951 . S
H738 C757 0.951 . S
H739 C759 0.950 . S
H740 C760 0.950 . S
H741 C762 0.950 1_556 S
H742 C765 0.950 . S
H743 C766 0.950 . S
H744 C768 0.950 . S
H745 C769 0.950 . S
H746 C770 0.951 . S
H747 C772 0.951 . S
H748 C774 0.950 . S
H749 C775 0.960 . S
H750 C777 0.950 . S
H751 C780 0.950 . S
H752 C781 0.950 . S
H753 C783 0.950 . S
H754 C784 0.948 1_554 S
C755 H737 0.951 . S
C755 C756 1.366 1_556 S
C755 C757 1.388 . S
C756 C755 1.366 1_554 S
C756 C760 1.385 . S
C757 H738 0.951 . S
C757 C755 1.388 . S
C757 C758 1.366 1_556 S
C758 C757 1.366 1_554 S
C758 C759 1.414 . S
C758 C761 1.499 . S
C759 H739 0.950 . S
C759 C758 1.414 . S
C759 C760 1.374 . S
C760 H740 0.950 . S
C760 C756 1.385 . S
C760 C759 1.374 . S
C761 C758 1.499 . S
C761 C762 1.373 . S
C761 C763 1.389 . S
C762 H741 0.950 1_554 S
C762 C761 1.373 . S
C762 C778 1.377 . S
C763 C761 1.389 . S
C763 C764 1.524 . S
C763 C777 1.377 . S
C764 C763 1.524 . S
C764 C765 1.397 . S
C764 C769 1.363 . S
C765 H742 0.950 . S
C765 C764 1.397 . S
C765 C766 1.334 . S
C766 H743 0.950 . S
C766 C765 1.334 . S
C766 C767 1.287 . S
C767 C766 1.287 . S
C767 C768 1.524 . S
C767 H786 0.913 . S
C768 H744 0.950 . S
C768 C767 1.524 . S
C768 C769 1.415 . S
C769 H745 0.950 . S
C769 C764 1.363 . S
C769 C768 1.415 . S
C770 H746 0.951 . S
C770 C771 1.366 . S
C770 C772 1.388 . S
C771 C770 1.366 . S
C771 C775 1.375 1_554 S
C772 H747 0.951 . S
C772 C770 1.388 . S
C772 C773 1.366 . S
C773 C772 1.366 . S
C773 C774 1.414 1_554 S
C773 C776 1.499 . S
C774 H748 0.950 . S
C774 C773 1.414 1_556 S
C774 C775 1.375 . S
C775 H749 0.960 . S
C775 C771 1.375 1_556 S
C775 C774 1.375 . S
C776 C773 1.499 . S
C776 C777 1.373 . S
C776 C778 1.389 . S
C777 H750 0.950 . S
C777 C763 1.377 . S
C777 C776 1.373 . S
C778 C762 1.377 . S
C778 C776 1.389 . S
C778 C779 1.524 1_554 S
C779 C778 1.524 1_556 S
C779 C780 1.397 . S
C779 C784 1.364 . S
C780 H751 0.950 . S
C780 C779 1.397 . S
C780 C781 1.334 . S
C781 H752 0.950 . S
C781 C780 1.334 . S
C781 C782 1.287 . S
C782 C781 1.287 . S
C782 C783 1.524 . S
C782 H785 0.999 . S
C783 H753 0.950 . S
C783 C782 1.524 . S
C783 C784 1.416 . S
C784 H754 0.948 1_556 S
C784 C779 1.364 . S
C784 C783 1.416 . S
H785 C782 0.999 . S
H786 C767 0.913 . S
H787 C805 0.951 . S
H788 C807 0.951 . S
H789 C809 0.950 . S
H790 C810 0.950 . S
H791 C812 0.950 . S
H792 C815 0.950 . S
H793 C816 0.950 . S
H794 C818 0.950 . S
H795 C819 0.950 . S
H796 C820 0.951 . S
H797 C822 0.951 . S
H798 C824 0.950 . S
H799 C825 0.950 . S
H800 C827 0.950 . S
H801 C830 0.950 . S
H802 C831 0.950 . S
H803 C833 0.950 . S
H804 C834 0.950 . S
C805 H787 0.951 . S
C805 C806 1.366 . S
C805 C807 1.388 . S
C806 C805 1.366 . S
C806 C810 1.385 . S
C807 H788 0.951 . S
C807 C805 1.388 . S
C807 C808 1.366 . S
C808 C807 1.366 . S
C808 C809 1.414 . S
C808 C811 1.499 . S
C809 H789 0.950 . S
C809 C808 1.414 . S
C809 C810 1.374 . S
C810 H790 0.950 . S
C810 C806 1.385 . S
C810 C809 1.374 . S
C811 C808 1.499 . S
C811 C812 1.373 1_554 S
C811 C813 1.389 . S
C812 H791 0.950 . S
C812 C811 1.373 1_556 S
C812 C828 1.377 . S
C813 C811 1.389 . S
C813 C814 1.524 . S
C813 C827 1.377 . S
C814 C813 1.524 . S
C814 C815 1.397 . S
C814 C819 1.363 . S
C815 H792 0.950 . S
C815 C814 1.397 . S
C815 C816 1.334 . S
C816 H793 0.950 . S
C816 C815 1.334 . S
C816 C817 1.287 . S
C817 C816 1.287 . S
C817 C818 1.524 . S
C817 H836 0.913 . S
C818 H794 0.950 . S
C818 C817 1.524 . S
C818 C819 1.415 . S
C819 H795 0.950 . S
C819 C814 1.363 . S
C819 C818 1.415 . S
C820 H796 0.951 . S
C820 C821 1.366 . S
C820 C822 1.388 . S
C821 C820 1.366 . S
C821 C825 1.385 . S
C822 H797 0.951 . S
C822 C820 1.388 . S
C822 C823 1.366 . S
C823 C822 1.366 . S
C823 C824 1.414 . S
C823 C826 1.499 . S
C824 H798 0.950 . S
C824 C823 1.414 . S
C824 C825 1.374 . S
C825 H799 0.950 . S
C825 C821 1.385 . S
C825 C824 1.374 . S
C826 C823 1.499 . S
C826 C827 1.373 . S
C826 C828 1.389 1_554 S
C827 H800 0.950 . S
C827 C813 1.377 . S
C827 C826 1.373 . S
C828 C812 1.377 . S
C828 C826 1.389 1_556 S
C828 C829 1.524 . S
C829 C828 1.524 . S
C829 C830 1.397 . S
C829 C834 1.363 . S
C830 H801 0.950 . S
C830 C829 1.397 . S
C830 C831 1.334 . S
C831 H802 0.950 . S
C831 C830 1.334 . S
C831 C832 1.287 . S
C832 C831 1.287 . S
C832 C833 1.524 . S
C832 H835 0.999 . S
C833 H803 0.950 . S
C833 C832 1.524 . S
C833 C834 1.415 . S
C834 H804 0.950 . S
C834 C829 1.363 . S
C834 C833 1.415 . S
H835 C832 0.999 . S
H836 C817 0.913 . S
H837 C855 0.951 . S
H838 C857 0.951 . S
H839 C859 0.950 . S
H840 C860 0.950 . S
H841 C862 0.950 . S
H842 C865 0.950 . S
H843 C866 0.950 . S
H844 C868 0.950 . S
H845 C869 0.950 . S
H846 C870 0.944 1_556 S
H847 C872 0.958 . S
H848 C874 0.950 . S
H849 C875 0.950 . S
H850 C877 0.950 . S
H851 C880 0.950 . S
H852 C881 0.950 . S
H853 C883 0.950 . S
H854 C884 0.950 . S
C855 H837 0.951 . S
C855 C856 1.366 . S
C855 C857 1.388 . S
C856 C855 1.366 . S
C856 C860 1.385 . S
C857 H838 0.951 . S
C857 C855 1.388 . S
C857 C858 1.366 . S
C858 C857 1.366 . S
C858 C859 1.414 . S
C858 C861 1.499 . S
C859 H839 0.950 . S
C859 C858 1.414 . S
C859 C860 1.374 . S
C860 H840 0.950 . S
C860 C856 1.385 . S
C860 C859 1.374 . S
C861 C858 1.499 . S
C861 C862 1.373 . S
C861 C863 1.389 1_554 S
C862 H841 0.950 . S
C862 C861 1.373 . S
C862 C878 1.377 . S
C863 C861 1.389 1_556 S
C863 C864 1.524 . S
C863 C877 1.377 . S
C864 C863 1.524 . S
C864 C865 1.397 . S
C864 C869 1.363 . S
C865 H842 0.950 . S
C865 C864 1.397 . S
C865 C866 1.334 . S
C866 H843 0.950 . S
C866 C865 1.334 . S
C866 C867 1.287 . S
C867 C866 1.287 . S
C867 C868 1.524 . S
C867 H886 0.913 . S
C868 H844 0.950 . S
C868 C867 1.524 . S
C868 C869 1.415 . S
C869 H845 0.950 . S
C869 C864 1.363 . S
C869 C868 1.415 . S
C870 H846 0.944 1_554 S
C870 C871 1.366 . S
C870 C872 1.388 . S
C871 C870 1.366 . S
C871 C875 1.385 . S
C872 H847 0.958 . S
C872 C870 1.388 . S
C872 C873 1.366 . S
C873 C872 1.366 . S
C873 C874 1.414 . S
C873 C876 1.499 . S
C874 H848 0.950 . S
C874 C873 1.414 . S
C874 C875 1.374 . S
C875 H849 0.950 . S
C875 C871 1.385 . S
C875 C874 1.374 . S
C876 C873 1.499 . S
C876 C877 1.373 1_554 S
C876 C878 1.389 . S
C877 H850 0.950 . S
C877 C863 1.377 . S
C877 C876 1.373 1_556 S
C878 C862 1.377 . S
C878 C876 1.389 . S
C878 C879 1.524 . S
C879 C878 1.524 . S
C879 C880 1.397 . S
C879 C884 1.363 . S
C880 H851 0.950 . S
C880 C879 1.397 . S
C880 C881 1.334 . S
C881 H852 0.950 . S
C881 C880 1.334 . S
C881 C882 1.287 . S
C882 C881 1.287 . S
C882 C883 1.524 . S
C882 H885 0.999 . S
C883 H853 0.950 . S
C883 C882 1.524 . S
C883 C884 1.415 . S
C884 H854 0.950 . S
C884 C879 1.363 . S
C884 C883 1.415 . S
H885 C882 0.999 . S
H886 C867 0.913 . S
H887 C905 0.951 . S
H888 C907 0.951 . S
H889 C909 0.950 . S
H890 C910 0.950 . S
H891 C912 0.950 . S
H892 C915 0.950 . S
H893 C916 0.950 . S
H894 C918 0.950 . S
H895 C919 0.950 . S
H896 C920 0.951 1_556 S
H897 C922 0.951 1_556 S
H898 C924 0.950 . S
H899 C925 0.950 . S
H900 C927 0.950 . S
H901 C930 0.950 . S
H902 C931 0.950 . S
H903 C933 0.950 . S
H904 C934 0.950 . S
C905 H887 0.951 . S
C905 C906 1.366 . S
C905 C907 1.388 . S
C906 C905 1.366 . S
C906 C910 1.385 . S
C907 H888 0.951 . S
C907 C905 1.388 . S
C907 C908 1.366 . S
C908 C907 1.366 . S
C908 C909 1.414 . S
C908 C911 1.499 . S
C909 H889 0.950 . S
C909 C908 1.414 . S
C909 C910 1.374 . S
C910 H890 0.950 . S
C910 C906 1.385 . S
C910 C909 1.374 . S
C911 C908 1.499 . S
C911 C912 1.373 1_554 S
C911 C913 1.389 . S
C912 H891 0.950 . S
C912 C911 1.373 1_556 S
C912 C928 1.377 . S
C913 C911 1.389 . S
C913 C914 1.524 . S
C913 C927 1.377 . S
C914 C913 1.524 . S
C914 C915 1.397 . S
C914 C919 1.363 . S
C915 H892 0.950 . S
C915 C914 1.397 . S
C915 C916 1.334 . S
C916 H893 0.950 . S
C916 C915 1.334 . S
C916 C917 1.287 . S
C917 C916 1.287 . S
C917 C918 1.524 . S
C917 H936 0.913 . S
C918 H894 0.950 . S
C918 C917 1.524 . S
C918 C919 1.415 . S
C919 H895 0.950 . S
C919 C914 1.363 . S
C919 C918 1.415 . S
C920 H896 0.951 1_554 S
C920 C921 1.366 . S
C920 C922 1.388 . S
C921 C920 1.366 . S
C921 C925 1.385 . S
C922 H897 0.951 1_554 S
C922 C920 1.388 . S
C922 C923 1.366 . S
C923 C922 1.366 . S
C923 C924 1.414 . S
C923 C926 1.499 . S
C924 H898 0.950 . S
C924 C923 1.414 . S
C924 C925 1.374 . S
C925 H899 0.950 . S
C925 C921 1.385 . S
C925 C924 1.374 . S
C926 C923 1.499 . S
C926 C927 1.373 . S
C926 C928 1.389 1_554 S
C927 H900 0.950 . S
C927 C913 1.377 . S
C927 C926 1.373 . S
C928 C912 1.377 . S
C928 C926 1.389 1_556 S
C928 C929 1.524 . S
C929 C928 1.524 . S
C929 C930 1.397 . S
C929 C934 1.363 . S
C930 H901 0.950 . S
C930 C929 1.397 . S
C930 C931 1.334 . S
C931 H902 0.950 . S
C931 C930 1.334 . S
C931 C932 1.287 . S
C932 C931 1.287 . S
C932 C933 1.524 . S
C932 H935 0.999 . S
C933 H903 0.950 . S
C933 C932 1.524 . S
C933 C934 1.415 . S
C934 H904 0.950 . S
C934 C929 1.363 . S
C934 C933 1.415 . S
H935 C932 0.999 . S
H936 C917 0.913 . S
H937 C955 0.951 . S
H938 C957 0.951 . S
H939 C959 0.950 . S
H940 C960 0.950 . S
H941 C962 0.950 . S
H942 C965 0.950 . S
H943 C966 0.950 . S
H944 C968 0.950 . S
H945 C969 0.950 . S
H946 C970 0.951 . S
H947 C972 0.951 . S
H948 C974 0.950 . S
H949 C975 0.950 . S
H950 C977 0.963 . S
H951 C980 0.950 1_556 S
H952 C981 0.950 . S
H953 C983 0.950 . S
H954 C984 0.950 . S
C955 H937 0.951 . S
C955 C956 1.366 1_556 S
C955 C957 1.388 . S
C956 C955 1.366 1_554 S
C956 C960 1.385 . S
C957 H938 0.951 . S
C957 C955 1.388 . S
C957 C958 1.366 1_556 S
C958 C957 1.366 1_554 S
C958 C959 1.414 . S
C958 C961 1.499 . S
C959 H939 0.950 . S
C959 C958 1.414 . S
C959 C960 1.374 . S
C960 H940 0.950 . S
C960 C956 1.385 . S
C960 C959 1.374 . S
C961 C958 1.499 . S
C961 C962 1.373 . S
C961 C963 1.389 . S
C962 H941 0.950 . S
C962 C961 1.373 . S
C962 C978 1.377 . S
C963 C961 1.389 . S
C963 C964 1.524 1_554 S
C963 C977 1.374 1_554 S
C964 C963 1.524 1_556 S
C964 C965 1.397 1_556 S
C964 C969 1.363 . S
C965 H942 0.950 . S
C965 C964 1.397 1_554 S
C965 C966 1.334 . S
C966 H943 0.950 . S
C966 C965 1.334 . S
C966 C967 1.287 1_554 S
C967 C966 1.287 1_556 S
C967 C968 1.524 . S
C967 H986 0.913 . S
C968 H944 0.950 . S
C968 C967 1.524 . S
C968 C969 1.415 . S
C969 H945 0.950 . S
C969 C964 1.363 . S
C969 C968 1.415 . S
C970 H946 0.951 . S
C970 C971 1.366 . S
C970 C972 1.388 . S
C971 C970 1.366 . S
C971 C975 1.385 1_554 S
C972 H947 0.951 . S
C972 C970 1.388 . S
C972 C973 1.366 . S
C973 C972 1.366 . S
C973 C974 1.414 1_554 S
C973 C976 1.499 . S
C974 H948 0.950 . S
C974 C973 1.414 1_556 S
C974 C975 1.374 . S
C975 H949 0.950 . S
C975 C971 1.385 1_556 S
C975 C974 1.374 . S
C976 C973 1.499 . S
C976 C977 1.364 1_554 S
C976 C978 1.389 . S
C977 H950 0.963 . S
C977 C963 1.374 1_556 S
C977 C976 1.364 1_556 S
C978 C962 1.377 . S
C978 C976 1.389 . S
C978 C979 1.524 . S
C979 C978 1.524 . S
C979 C980 1.397 . S
C979 C984 1.363 . S
C980 H951 0.950 1_554 S
C980 C979 1.397 . S
C980 C981 1.334 . S
C981 H952 0.950 . S
C981 C980 1.334 . S
C981 C982 1.287 . S
C982 C981 1.287 . S
C982 C983 1.524 . S
C982 H985 0.999 . S
C983 H953 0.950 . S
C983 C982 1.524 . S
C983 C984 1.415 . S
C984 H954 0.950 . S
C984 C979 1.363 . S
C984 C983 1.415 . S
H985 C982 0.999 . S
H986 C967 0.913 . S
H987 C1005 0.951 . S
H988 C1007 0.951 . S
H989 C1009 0.950 . S
H990 C1010 0.950 . S
H991 C1012 0.950 1_655 S
H992 C1015 0.950 . S
H993 C1016 0.950 . S
H994 C1018 0.950 . S
H995 C1019 0.950 . S
H996 C1020 0.951 . S
H997 C1022 0.951 . S
H998 C1024 0.950 . S
H999 C1025 0.950 . S
H1000 C1027 0.950 . S
H1001 C1030 0.950 . S
H1002 C1031 0.950 . S
H1003 C1033 0.950 . S
H1004 C1034 0.950 . S
C1005 H987 0.951 . S
C1005 C1006 1.366 . S
C1005 C1007 1.388 . S
C1006 C1005 1.366 . S
C1006 C1010 1.385 . S
C1007 H988 0.951 . S
C1007 C1005 1.388 . S
C1007 C1008 1.366 . S
C1008 C1007 1.366 . S
C1008 C1009 1.414 . S
C1008 C1011 1.499 . S
C1009 H989 0.950 . S
C1009 C1008 1.414 . S
C1009 C1010 1.374 . S
C1010 H990 0.950 . S
C1010 C1006 1.385 . S
C1010 C1009 1.374 . S
C1011 C1008 1.499 . S
C1011 C1012 1.373 1_655 S
C1011 C1013 1.389 . S
C1012 H991 0.950 1_455 S
C1012 C1011 1.373 1_455 S
C1012 C1028 1.377 . S
C1013 C1011 1.389 . S
C1013 C1014 1.524 . S
C1013 C1027 1.377 1_655 S
C1014 C1013 1.524 . S
C1014 C1015 1.397 . S
C1014 C1019 1.363 . S
C1015 H992 0.950 . S
C1015 C1014 1.397 . S
C1015 C1016 1.334 . S
C1016 H993 0.950 . S
C1016 C1015 1.334 . S
C1016 C1017 1.287 . S
C1017 C1016 1.287 . S
C1017 C1018 1.524 . S
C1017 H1036 0.913 . S
C1018 H994 0.950 . S
C1018 C1017 1.524 . S
C1018 C1019 1.415 . S
C1019 H995 0.950 . S
C1019 C1014 1.363 . S
C1019 C1018 1.415 . S
C1020 H996 0.951 . S
C1020 C1021 1.366 . S
C1020 C1022 1.388 . S
C1021 C1020 1.366 . S
C1021 C1025 1.385 . S
C1022 H997 0.951 . S
C1022 C1020 1.388 . S
C1022 C1023 1.366 . S
C1023 C1022 1.366 . S
C1023 C1024 1.414 . S
C1023 C1026 1.499 . S
C1024 H998 0.950 . S
C1024 C1023 1.414 . S
C1024 C1025 1.374 . S
C1025 H999 0.950 . S
C1025 C1021 1.385 . S
C1025 C1024 1.374 . S
C1026 C1023 1.499 . S
C1026 C1027 1.373 . S
C1026 C1028 1.389 . S
C1027 H1000 0.950 . S
C1027 C1013 1.377 1_455 S
C1027 C1026 1.373 . S
C1028 C1012 1.377 . S
C1028 C1026 1.389 . S
C1028 C1029 1.524 . S
C1029 C1028 1.524 . S
C1029 C1030 1.397 . S
C1029 C1034 1.363 . S
C1030 H1001 0.950 . S
C1030 C1029 1.397 . S
C1030 C1031 1.334 . S
C1031 H1002 0.950 . S
C1031 C1030 1.334 . S
C1031 C1032 1.287 . S
C1032 C1031 1.287 . S
C1032 C1033 1.524 . S
C1032 H1035 0.999 . S
C1033 H1003 0.950 . S
C1033 C1032 1.524 . S
C1033 C1034 1.415 . S
C1034 H1004 0.950 . S
C1034 C1029 1.363 . S
C1034 C1033 1.415 . S
H1035 C1032 0.999 . S
H1036 C1017 0.913 . S
H1037 C1055 0.951 . S
H1038 C1057 0.951 . S
H1039 C1059 0.950 . S
H1040 C1060 0.950 . S
H1041 C1062 0.950 . S
H1042 C1065 0.950 . S
H1043 C1066 0.950 . S
H1044 C1068 0.950 . S
H1045 C1069 0.950 . S
H1046 C1070 0.951 . S
H1047 C1072 0.951 . S
H1048 C1074 0.950 . S
H1049 C1075 0.950 . S
H1050 C1077 0.950 . S
H1051 C1080 0.950 . S
H1052 C1081 0.950 . S
H1053 C1083 0.950 . S
H1054 C1084 0.950 . S
C1055 H1037 0.951 . S
C1055 C1056 1.366 . S
C1055 C1057 1.388 . S
C1056 C1055 1.366 . S
C1056 C1060 1.385 . S
C1057 H1038 0.951 . S
C1057 C1055 1.388 . S
C1057 C1058 1.366 . S
C1058 C1057 1.366 . S
C1058 C1059 1.414 . S
C1058 C1061 1.499 . S
C1059 H1039 0.950 . S
C1059 C1058 1.414 . S
C1059 C1060 1.374 . S
C1060 H1040 0.950 . S
C1060 C1056 1.385 . S
C1060 C1059 1.374 . S
C1061 C1058 1.499 . S
C1061 C1062 1.373 . S
C1061 C1063 1.389 . S
C1062 H1041 0.950 . S
C1062 C1061 1.373 . S
C1062 C1078 1.377 . S
C1063 C1061 1.389 . S
C1063 C1064 1.524 . S
C1063 C1077 1.377 . S
C1064 C1063 1.524 . S
C1064 C1065 1.397 . S
C1064 C1069 1.363 . S
C1065 H1042 0.950 . S
C1065 C1064 1.397 . S
C1065 C1066 1.334 . S
C1066 H1043 0.950 . S
C1066 C1065 1.334 . S
C1066 C1067 1.287 . S
C1067 C1066 1.287 . S
C1067 C1068 1.524 . S
C1067 H1086 0.913 . S
C1068 H1044 0.950 . S
C1068 C1067 1.524 . S
C1068 C1069 1.415 . S
C1069 H1045 0.950 . S
C1069 C1064 1.363 . S
C1069 C1068 1.415 . S
C1070 H1046 0.951 . S
C1070 C1071 1.366 . S
C1070 C1072 1.388 . S
C1071 C1070 1.366 . S
C1071 C1075 1.385 . S
C1072 H1047 0.951 . S
C1072 C1070 1.388 . S
C1072 C1073 1.366 . S
C1073 C1072 1.366 . S
C1073 C1074 1.414 . S
C1073 C1076 1.499 . S
C1074 H1048 0.950 . S
C1074 C1073 1.414 . S
C1074 C1075 1.374 . S
C1075 H1049 0.950 . S
C1075 C1071 1.385 . S
C1075 C1074 1.374 . S
C1076 C1073 1.499 . S
C1076 C1077 1.373 . S
C1076 C1078 1.389 . S
C1077 H1050 0.950 . S
C1077 C1063 1.377 . S
C1077 C1076 1.373 . S
C1078 C1062 1.377 . S
C1078 C1076 1.389 . S
C1078 C1079 1.524 . S
C1079 C1078 1.524 . S
C1079 C1080 1.397 . S
C1079 C1084 1.363 . S
C1080 H1051 0.950 . S
C1080 C1079 1.397 . S
C1080 C1081 1.334 . S
C1081 H1052 0.950 . S
C1081 C1080 1.334 . S
C1081 C1082 1.287 . S
C1082 C1081 1.287 . S
C1082 C1083 1.524 . S
C1082 H1085 0.999 . S
C1083 H1053 0.950 . S
C1083 C1082 1.524 . S
C1083 C1084 1.415 . S
C1084 H1054 0.950 . S
C1084 C1079 1.363 . S
C1084 C1083 1.415 . S
H1085 C1082 0.999 . S
H1086 C1067 0.913 . S
H1087 C1105 0.951 . S
H1088 C1107 0.951 . S
H1089 C1109 0.950 . S
H1090 C1110 0.950 . S
H1091 C1112 0.950 . S
H1092 C1115 0.950 . S
H1093 C1116 0.950 . S
H1094 C1118 0.950 1_565 S
H1095 C1119 0.968 . S
H1096 C1120 0.951 . S
H1097 C1122 0.951 . S
H1098 C1124 0.950 . S
H1099 C1125 0.950 . S
H1100 C1127 0.950 . S
H1101 C1130 0.950 . S
H1102 C1131 0.950 . S
H1103 C1133 0.950 . S
H1104 C1134 0.950 . S
C1105 H1087 0.951 . S
C1105 C1106 1.366 . S
C1105 C1107 1.388 . S
C1106 C1105 1.366 . S
C1106 C1110 1.385 . S
C1107 H1088 0.951 . S
C1107 C1105 1.388 . S
C1107 C1108 1.366 . S
C1108 C1107 1.366 . S
C1108 C1109 1.414 . S
C1108 C1111 1.499 . S
C1109 H1089 0.950 . S
C1109 C1108 1.414 . S
C1109 C1110 1.374 . S
C1110 H1090 0.950 . S
C1110 C1106 1.385 . S
C1110 C1109 1.374 . S
C1111 C1108 1.499 . S
C1111 C1112 1.373 . S
C1111 C1113 1.389 . S
C1112 H1091 0.950 . S
C1112 C1111 1.373 . S
C1112 C1128 1.340 1_545 S
C1113 C1111 1.389 . S
C1113 C1114 1.524 . S
C1113 C1127 1.377 1_545 S
C1114 C1113 1.524 . S
C1114 C1115 1.397 . S
C1114 C1119 1.361 1_545 S
C1115 H1092 0.950 . S
C1115 C1114 1.397 . S
C1115 C1116 1.334 . S
C1116 H1093 0.950 . S
C1116 C1115 1.334 . S
C1116 C1117 1.287 . S
C1117 C1116 1.287 . S
C1117 C1118 1.524 . S
C1117 H1136 0.913 . S
C1118 H1094 0.950 1_545 S
C1118 C1117 1.524 . S
C1118 C1119 1.401 1_545 S
C1119 H1095 0.968 . S
C1119 C1114 1.361 1_565 S
C1119 C1118 1.401 1_565 S
C1120 H1096 0.951 . S
C1120 C1121 1.366 . S
C1120 C1122 1.388 . S
C1121 C1120 1.366 . S
C1121 C1125 1.385 . S
C1122 H1097 0.951 . S
C1122 C1120 1.388 . S
C1122 C1123 1.366 . S
C1123 C1122 1.366 . S
C1123 C1124 1.414 . S
C1123 C1126 1.499 . S
C1124 H1098 0.950 . S
C1124 C1123 1.414 . S
C1124 C1125 1.374 . S
C1125 H1099 0.950 . S
C1125 C1121 1.385 . S
C1125 C1124 1.374 . S
C1126 C1123 1.499 . S
C1126 C1127 1.373 . S
C1126 C1128 1.406 . S
C1127 H1100 0.950 . S
C1127 C1113 1.377 1_565 S
C1127 C1126 1.373 . S
C1128 C1112 1.340 1_565 S
C1128 C1126 1.406 . S
C1128 C1129 1.543 . S
C1129 C1128 1.543 . S
C1129 C1130 1.397 . S
C1129 C1134 1.363 1_565 S
C1130 H1101 0.950 . S
C1130 C1129 1.397 . S
C1130 C1131 1.334 . S
C1131 H1102 0.950 . S
C1131 C1130 1.334 . S
C1131 C1132 1.287 . S
C1132 C1131 1.287 . S
C1132 C1133 1.524 1_565 S
C1132 H1135 0.999 . S
C1133 H1103 0.950 . S
C1133 C1132 1.524 1_545 S
C1133 C1134 1.415 . S
C1134 H1104 0.950 . S
C1134 C1129 1.363 1_545 S
C1134 C1133 1.415 . S
H1135 C1132 0.999 . S
H1136 C1117 0.913 . S
H1137 C1155 0.951 . S
H1138 C1157 0.951 . S
H1139 C1159 0.950 . S
H1140 C1160 0.950 . S
H1141 C1162 0.950 . S
H1142 C1165 0.950 . S
H1143 C1166 0.950 . S
H1144 C1168 0.950 . S
H1145 C1169 0.950 . S
H1146 C1170 0.951 . S
H1147 C1172 0.951 . S
H1148 C1174 0.950 . S
H1149 C1175 0.950 . S
H1150 C1177 0.950 . S
H1151 C1180 0.950 . S
H1152 C1181 0.950 . S
H1153 C1183 0.950 . S
H1154 C1184 0.950 . S
C1155 H1137 0.951 . S
C1155 C1156 1.366 . S
C1155 C1157 1.388 . S
C1156 C1155 1.366 . S
C1156 C1160 1.385 . S
C1157 H1138 0.951 . S
C1157 C1155 1.388 . S
C1157 C1158 1.366 . S
C1158 C1157 1.366 . S
C1158 C1159 1.414 . S
C1158 C1161 1.499 . S
C1159 H1139 0.950 . S
C1159 C1158 1.414 . S
C1159 C1160 1.374 . S
C1160 H1140 0.950 . S
C1160 C1156 1.385 . S
C1160 C1159 1.374 . S
C1161 C1158 1.499 . S
C1161 C1162 1.373 . S
C1161 C1163 1.389 . S
C1162 H1141 0.950 . S
C1162 C1161 1.373 . S
C1162 C1178 1.377 . S
C1163 C1161 1.389 . S
C1163 C1164 1.524 . S
C1163 C1177 1.377 . S
C1164 C1163 1.524 . S
C1164 C1165 1.397 . S
C1164 C1169 1.363 . S
C1165 H1142 0.950 . S
C1165 C1164 1.397 . S
C1165 C1166 1.334 . S
C1166 H1143 0.950 . S
C1166 C1165 1.334 . S
C1166 C1167 1.287 . S
C1167 C1166 1.287 . S
C1167 C1168 1.524 . S
C1167 H1186 0.913 . S
C1168 H1144 0.950 . S
C1168 C1167 1.524 . S
C1168 C1169 1.415 . S
C1169 H1145 0.950 . S
C1169 C1164 1.363 . S
C1169 C1168 1.415 . S
C1170 H1146 0.951 . S
C1170 C1171 1.366 . S
C1170 C1172 1.388 . S
C1171 C1170 1.366 . S
C1171 C1175 1.385 . S
C1172 H1147 0.951 . S
C1172 C1170 1.388 . S
C1172 C1173 1.366 . S
C1173 C1172 1.366 . S
C1173 C1174 1.414 . S
C1173 C1176 1.499 . S
C1174 H1148 0.950 . S
C1174 C1173 1.414 . S
C1174 C1175 1.374 . S
C1175 H1149 0.950 . S
C1175 C1171 1.385 . S
C1175 C1174 1.374 . S
C1176 C1173 1.499 . S
C1176 C1177 1.373 . S
C1176 C1178 1.389 . S
C1177 H1150 0.950 . S
C1177 C1163 1.377 . S
C1177 C1176 1.373 . S
C1178 C1162 1.377 . S
C1178 C1176 1.389 . S
C1178 C1179 1.524 . S
C1179 C1178 1.524 . S
C1179 C1180 1.397 . S
C1179 C1184 1.363 . S
C1180 H1151 0.950 . S
C1180 C1179 1.397 . S
C1180 C1181 1.334 . S
C1181 H1152 0.950 . S
C1181 C1180 1.334 . S
C1181 C1182 1.287 . S
C1182 C1181 1.287 . S
C1182 C1183 1.524 . S
C1182 H1185 0.999 . S
C1183 H1153 0.950 . S
C1183 C1182 1.524 . S
C1183 C1184 1.415 . S
C1184 H1154 0.950 . S
C1184 C1179 1.363 . S
C1184 C1183 1.415 . S
H1185 C1182 0.999 . S
H1186 C1167 0.913 . S
H1187 C1205 0.951 . S
H1188 C1207 0.951 . S
H1189 C1209 0.950 . S
H1190 C1210 0.950 . S
H1191 C1212 0.950 . S
H1192 C1215 0.950 . S
H1193 C1216 0.950 . S
H1194 C1218 0.950 . S
H1195 C1219 0.950 . S
H1196 C1220 0.951 . S
H1197 C1222 0.951 . S
H1198 C1224 0.950 . S
H1199 C1225 0.950 . S
H1200 C1227 0.950 . S
H1201 C1230 0.950 . S
H1202 C1231 0.950 . S
H1203 C1233 0.950 . S
H1204 C1234 0.950 . S
C1205 H1187 0.951 . S
C1205 C1206 1.366 . S
C1205 C1207 1.388 . S
C1206 C1205 1.366 . S
C1206 C1210 1.385 . S
C1207 H1188 0.951 . S
C1207 C1205 1.388 . S
C1207 C1208 1.366 . S
C1208 C1207 1.366 . S
C1208 C1209 1.414 . S
C1208 C1211 1.499 . S
C1209 H1189 0.950 . S
C1209 C1208 1.414 . S
C1209 C1210 1.374 . S
C1210 H1190 0.950 . S
C1210 C1206 1.385 . S
C1210 C1209 1.374 . S
C1211 C1208 1.499 . S
C1211 C1212 1.373 . S
C1211 C1213 1.389 . S
C1212 H1191 0.950 . S
C1212 C1211 1.373 . S
C1212 C1228 1.377 . S
C1213 C1211 1.389 . S
C1213 C1214 1.524 . S
C1213 C1227 1.377 . S
C1214 C1213 1.524 . S
C1214 C1215 1.397 . S
C1214 C1219 1.363 . S
C1215 H1192 0.950 . S
C1215 C1214 1.397 . S
C1215 C1216 1.334 . S
C1216 H1193 0.950 . S
C1216 C1215 1.334 . S
C1216 C1217 1.287 . S
C1217 C1216 1.287 . S
C1217 C1218 1.524 . S
C1217 H1236 0.913 . S
C1218 H1194 0.950 . S
C1218 C1217 1.524 . S
C1218 C1219 1.415 . S
C1219 H1195 0.950 . S
C1219 C1214 1.363 . S
C1219 C1218 1.415 . S
C1220 H1196 0.951 . S
C1220 C1221 1.366 . S
C1220 C1222 1.388 . S
C1221 C1220 1.366 . S
C1221 C1225 1.385 . S
C1222 H1197 0.951 . S
C1222 C1220 1.388 . S
C1222 C1223 1.366 . S
C1223 C1222 1.366 . S
C1223 C1224 1.414 . S
C1223 C1226 1.499 . S
C1224 H1198 0.950 . S
C1224 C1223 1.414 . S
C1224 C1225 1.374 . S
C1225 H1199 0.950 . S
C1225 C1221 1.385 . S
C1225 C1224 1.374 . S
C1226 C1223 1.499 . S
C1226 C1227 1.373 . S
C1226 C1228 1.389 . S
C1227 H1200 0.950 . S
C1227 C1213 1.377 . S
C1227 C1226 1.373 . S
C1228 C1212 1.377 . S
C1228 C1226 1.389 . S
C1228 C1229 1.524 . S
C1229 C1228 1.524 . S
C1229 C1230 1.397 . S
C1229 C1234 1.363 . S
C1230 H1201 0.950 . S
C1230 C1229 1.397 . S
C1230 C1231 1.334 . S
C1231 H1202 0.950 . S
C1231 C1230 1.334 . S
C1231 C1232 1.287 . S
C1232 C1231 1.287 . S
C1232 C1233 1.524 . S
C1232 H1235 0.999 . S
C1233 H1203 0.950 . S
C1233 C1232 1.524 . S
C1233 C1234 1.415 . S
C1234 H1204 0.950 . S
C1234 C1229 1.363 . S
C1234 C1233 1.415 . S
H1235 C1232 0.999 . S
H1236 C1217 0.913 . S
H1237 C1255 0.951 . S
H1238 C1257 0.951 . S
H1239 C1259 0.950 . S
H1240 C1260 0.950 . S
H1241 C1262 0.950 . S
H1242 C1265 0.950 . S
H1243 C1266 0.950 . S
H1244 C1268 0.950 . S
H1245 C1269 0.950 . S
H1246 C1270 0.951 . S
H1247 C1272 0.951 . S
H1248 C1274 0.950 . S
H1249 C1275 0.950 . S
H1250 C1277 0.950 . S
H1251 C1280 0.950 . S
H1252 C1281 0.950 . S
H1253 C1283 0.950 . S
H1254 C1284 0.950 . S
C1255 H1237 0.951 . S
C1255 C1256 1.366 . S
C1255 C1257 1.388 . S
C1256 C1255 1.366 . S
C1256 C1260 1.385 . S
C1257 H1238 0.951 . S
C1257 C1255 1.388 . S
C1257 C1258 1.366 . S
C1258 C1257 1.366 . S
C1258 C1259 1.414 . S
C1258 C1261 1.499 . S
C1259 H1239 0.950 . S
C1259 C1258 1.414 . S
C1259 C1260 1.374 . S
C1260 H1240 0.950 . S
C1260 C1256 1.385 . S
C1260 C1259 1.374 . S
C1261 C1258 1.499 . S
C1261 C1262 1.373 . S
C1261 C1263 1.389 . S
C1262 H1241 0.950 . S
C1262 C1261 1.373 . S
C1262 C1278 1.377 . S
C1263 C1261 1.389 . S
C1263 C1264 1.524 . S
C1263 C1277 1.377 . S
C1264 C1263 1.524 . S
C1264 C1265 1.397 . S
C1264 C1269 1.363 . S
C1265 H1242 0.950 . S
C1265 C1264 1.397 . S
C1265 C1266 1.334 . S
C1266 H1243 0.950 . S
C1266 C1265 1.334 . S
C1266 C1267 1.287 . S
C1267 C1266 1.287 . S
C1267 C1268 1.524 . S
C1267 H1286 0.913 . S
C1268 H1244 0.950 . S
C1268 C1267 1.524 . S
C1268 C1269 1.415 . S
C1269 H1245 0.950 . S
C1269 C1264 1.363 . S
C1269 C1268 1.415 . S
C1270 H1246 0.951 . S
C1270 C1271 1.366 . S
C1270 C1272 1.388 . S
C1271 C1270 1.366 . S
C1271 C1275 1.385 . S
C1272 H1247 0.951 . S
C1272 C1270 1.388 . S
C1272 C1273 1.366 . S
C1273 C1272 1.366 . S
C1273 C1274 1.414 . S
C1273 C1276 1.499 . S
C1274 H1248 0.950 . S
C1274 C1273 1.414 . S
C1274 C1275 1.374 . S
C1275 H1249 0.950 . S
C1275 C1271 1.385 . S
C1275 C1274 1.374 . S
C1276 C1273 1.499 . S
C1276 C1277 1.373 . S
C1276 C1278 1.389 . S
C1277 H1250 0.950 . S
C1277 C1263 1.377 . S
C1277 C1276 1.373 . S
C1278 C1262 1.377 . S
C1278 C1276 1.389 . S
C1278 C1279 1.524 . S
C1279 C1278 1.524 . S
C1279 C1280 1.397 . S
C1279 C1284 1.363 . S
C1280 H1251 0.950 . S
C1280 C1279 1.397 . S
C1280 C1281 1.334 . S
C1281 H1252 0.950 . S
C1281 C1280 1.334 . S
C1281 C1282 1.287 . S
C1282 C1281 1.287 . S
C1282 C1283 1.524 . S
C1282 H1285 0.999 . S
C1283 H1253 0.950 . S
C1283 C1282 1.524 . S
C1283 C1284 1.415 . S
C1284 H1254 0.950 . S
C1284 C1279 1.363 . S
C1284 C1283 1.415 . S
H1285 C1282 0.999 . S
H1286 C1267 0.913 . S
H1287 C1305 0.951 . S
H1288 C1307 0.951 . S
H1289 C1309 0.950 . S
H1290 C1310 0.950 . S
H1291 C1312 0.950 . S
H1292 C1315 0.950 . S
H1293 C1316 0.950 . S
H1294 C1318 0.950 . S
H1295 C1319 0.950 . S
H1296 C1320 0.951 . S
H1297 C1322 0.951 . S
H1298 C1324 0.950 . S
H1299 C1325 0.950 . S
H1300 C1327 0.950 . S
H1301 C1330 0.950 . S
H1302 C1331 0.950 . S
H1303 C1333 0.950 . S
H1304 C1334 0.950 . S
C1305 H1287 0.951 . S
C1305 C1306 1.366 . S
C1305 C1307 1.388 . S
C1306 C1305 1.366 . S
C1306 C1310 1.385 . S
C1307 H1288 0.951 . S
C1307 C1305 1.388 . S
C1307 C1308 1.366 . S
C1308 C1307 1.366 . S
C1308 C1309 1.414 . S
C1308 C1311 1.499 . S
C1309 H1289 0.950 . S
C1309 C1308 1.414 . S
C1309 C1310 1.374 . S
C1310 H1290 0.950 . S
C1310 C1306 1.385 . S
C1310 C1309 1.374 . S
C1311 C1308 1.499 . S
C1311 C1312 1.373 . S
C1311 C1313 1.389 . S
C1312 H1291 0.950 . S
C1312 C1311 1.373 . S
C1312 C1328 1.377 . S
C1313 C1311 1.389 . S
C1313 C1314 1.524 . S
C1313 C1327 1.377 . S
C1314 C1313 1.524 . S
C1314 C1315 1.397 . S
C1314 C1319 1.363 . S
C1315 H1292 0.950 . S
C1315 C1314 1.397 . S
C1315 C1316 1.334 . S
C1316 H1293 0.950 . S
C1316 C1315 1.334 . S
C1316 C1317 1.287 . S
C1317 C1316 1.287 . S
C1317 C1318 1.524 . S
C1317 H1336 0.913 . S
C1318 H1294 0.950 . S
C1318 C1317 1.524 . S
C1318 C1319 1.415 . S
C1319 H1295 0.950 . S
C1319 C1314 1.363 . S
C1319 C1318 1.415 . S
C1320 H1296 0.951 . S
C1320 C1321 1.366 . S
C1320 C1322 1.388 . S
C1321 C1320 1.366 . S
C1321 C1325 1.385 . S
C1322 H1297 0.951 . S
C1322 C1320 1.388 . S
C1322 C1323 1.366 . S
C1323 C1322 1.366 . S
C1323 C1324 1.414 . S
C1323 C1326 1.499 . S
C1324 H1298 0.950 . S
C1324 C1323 1.414 . S
C1324 C1325 1.374 . S
C1325 H1299 0.950 . S
C1325 C1321 1.385 . S
C1325 C1324 1.374 . S
C1326 C1323 1.499 . S
C1326 C1327 1.373 . S
C1326 C1328 1.389 . S
C1327 H1300 0.950 . S
C1327 C1313 1.377 . S
C1327 C1326 1.373 . S
C1328 C1312 1.377 . S
C1328 C1326 1.389 . S
C1328 C1329 1.524 . S
C1329 C1328 1.524 . S
C1329 C1330 1.397 . S
C1329 C1334 1.363 . S
C1330 H1301 0.950 . S
C1330 C1329 1.397 . S
C1330 C1331 1.334 . S
C1331 H1302 0.950 . S
C1331 C1330 1.334 . S
C1331 C1332 1.287 . S
C1332 C1331 1.287 . S
C1332 C1333 1.524 . S
C1332 H1335 0.999 . S
C1333 H1303 0.950 . S
C1333 C1332 1.524 . S
C1333 C1334 1.415 . S
C1334 H1304 0.950 . S
C1334 C1329 1.363 . S
C1334 C1333 1.415 . S
H1335 C1332 0.999 . S
H1336 C1317 0.913 . S
H1337 C1355 0.951 . S
H1338 C1357 0.951 . S
H1339 C1359 0.950 . S
H1340 C1360 0.950 . S
H1341 C1362 0.950 . S
H1342 C1365 0.950 . S
H1343 C1366 0.950 . S
H1344 C1368 0.950 . S
H1345 C1369 0.950 . S
H1346 C1370 0.951 . S
H1347 C1372 0.951 . S
H1348 C1374 0.950 . S
H1349 C1375 0.950 . S
H1350 C1377 0.950 . S
H1351 C1380 0.950 . S
H1352 C1381 0.950 . S
H1353 C1383 0.950 . S
H1354 C1384 0.950 . S
C1355 H1337 0.951 . S
C1355 C1356 1.366 . S
C1355 C1357 1.388 . S
C1356 C1355 1.366 . S
C1356 C1360 1.385 . S
C1357 H1338 0.951 . S
C1357 C1355 1.388 . S
C1357 C1358 1.366 . S
C1358 C1357 1.366 . S
C1358 C1359 1.414 . S
C1358 C1361 1.499 . S
C1359 H1339 0.950 . S
C1359 C1358 1.414 . S
C1359 C1360 1.374 . S
C1360 H1340 0.950 . S
C1360 C1356 1.385 . S
C1360 C1359 1.374 . S
C1361 C1358 1.499 . S
C1361 C1362 1.373 . S
C1361 C1363 1.389 . S
C1362 H1341 0.950 . S
C1362 C1361 1.373 . S
C1362 C1378 1.377 . S
C1363 C1361 1.389 . S
C1363 C1364 1.524 . S
C1363 C1377 1.377 . S
C1364 C1363 1.524 . S
C1364 C1365 1.397 . S
C1364 C1369 1.363 . S
C1365 H1342 0.950 . S
C1365 C1364 1.397 . S
C1365 C1366 1.334 . S
C1366 H1343 0.950 . S
C1366 C1365 1.334 . S
C1366 C1367 1.287 . S
C1367 C1366 1.287 . S
C1367 C1368 1.524 . S
C1367 H1386 0.913 . S
C1368 H1344 0.950 . S
C1368 C1367 1.524 . S
C1368 C1369 1.415 . S
C1369 H1345 0.950 . S
C1369 C1364 1.363 . S
C1369 C1368 1.415 . S
C1370 H1346 0.951 . S
C1370 C1371 1.366 . S
C1370 C1372 1.388 . S
C1371 C1370 1.366 . S
C1371 C1375 1.385 . S
C1372 H1347 0.951 . S
C1372 C1370 1.388 . S
C1372 C1373 1.366 . S
C1373 C1372 1.366 . S
C1373 C1374 1.414 . S
C1373 C1376 1.499 . S
C1374 H1348 0.950 . S
C1374 C1373 1.414 . S
C1374 C1375 1.374 . S
C1375 H1349 0.950 . S
C1375 C1371 1.385 . S
C1375 C1374 1.374 . S
C1376 C1373 1.499 . S
C1376 C1377 1.373 . S
C1376 C1378 1.389 . S
C1377 H1350 0.950 . S
C1377 C1363 1.377 . S
C1377 C1376 1.373 . S
C1378 C1362 1.377 . S
C1378 C1376 1.389 . S
C1378 C1379 1.524 . S
C1379 C1378 1.524 . S
C1379 C1380 1.397 . S
C1379 C1384 1.363 . S
C1380 H1351 0.950 . S
C1380 C1379 1.397 . S
C1380 C1381 1.334 . S
C1381 H1352 0.950 . S
C1381 C1380 1.334 . S
C1381 C1382 1.287 . S
C1382 C1381 1.287 . S
C1382 C1383 1.524 . S
C1382 H1385 0.999 . S
C1383 H1353 0.950 . S
C1383 C1382 1.524 . S
C1383 C1384 1.415 . S
C1384 H1354 0.950 . S
C1384 C1379 1.363 . S
C1384 C1383 1.415 . S
H1385 C1382 0.999 . S
H1386 C1367 0.913 . S
H1387 C1405 0.951 . S
H1388 C1407 0.951 . S
H1389 C1409 0.950 . S
H1390 C1410 0.950 . S
H1391 C1412 0.950 . S
H1392 C1415 0.950 . S
H1393 C1416 0.950 . S
H1394 C1418 0.950 . S
H1395 C1419 0.950 . S
H1396 C1420 0.951 . S
H1397 C1422 0.951 . S
H1398 C1424 0.950 . S
H1399 C1425 0.950 . S
H1400 C1427 0.950 . S
H1401 C1430 0.950 . S
H1402 C1431 0.950 . S
H1403 C1433 0.950 . S
H1404 C1434 0.950 . S
C1405 H1387 0.951 . S
C1405 C1406 1.366 . S
C1405 C1407 1.388 . S
C1406 C1405 1.366 . S
C1406 C1410 1.385 . S
C1407 H1388 0.951 . S
C1407 C1405 1.388 . S
C1407 C1408 1.366 . S
C1408 C1407 1.366 . S
C1408 C1409 1.414 . S
C1408 C1411 1.499 . S
C1409 H1389 0.950 . S
C1409 C1408 1.414 . S
C1409 C1410 1.374 . S
C1410 H1390 0.950 . S
C1410 C1406 1.385 . S
C1410 C1409 1.374 . S
C1411 C1408 1.499 . S
C1411 C1412 1.373 . S
C1411 C1413 1.389 . S
C1412 H1391 0.950 . S
C1412 C1411 1.373 . S
C1412 C1428 1.377 . S
C1413 C1411 1.389 . S
C1413 C1414 1.524 . S
C1413 C1427 1.377 . S
C1414 C1413 1.524 . S
C1414 C1415 1.397 . S
C1414 C1419 1.363 . S
C1415 H1392 0.950 . S
C1415 C1414 1.397 . S
C1415 C1416 1.334 . S
C1416 H1393 0.950 . S
C1416 C1415 1.334 . S
C1416 C1417 1.287 . S
C1417 C1416 1.287 . S
C1417 C1418 1.524 . S
C1417 H1436 0.913 . S
C1418 H1394 0.950 . S
C1418 C1417 1.524 . S
C1418 C1419 1.415 . S
C1419 H1395 0.950 . S
C1419 C1414 1.363 . S
C1419 C1418 1.415 . S
C1420 H1396 0.951 . S
C1420 C1421 1.366 . S
C1420 C1422 1.388 . S
C1421 C1420 1.366 . S
C1421 C1425 1.385 . S
C1422 H1397 0.951 . S
C1422 C1420 1.388 . S
C1422 C1423 1.366 . S
C1423 C1422 1.366 . S
C1423 C1424 1.414 . S
C1423 C1426 1.499 . S
C1424 H1398 0.950 . S
C1424 C1423 1.414 . S
C1424 C1425 1.374 . S
C1425 H1399 0.950 . S
C1425 C1421 1.385 . S
C1425 C1424 1.374 . S
C1426 C1423 1.499 . S
C1426 C1427 1.373 . S
C1426 C1428 1.389 . S
C1427 H1400 0.950 . S
C1427 C1413 1.377 . S
C1427 C1426 1.373 . S
C1428 C1412 1.377 . S
C1428 C1426 1.389 . S
C1428 C1429 1.524 . S
C1429 C1428 1.524 . S
C1429 C1430 1.397 . S
C1429 C1434 1.363 . S
C1430 H1401 0.950 . S
C1430 C1429 1.397 . S
C1430 C1431 1.334 . S
C1431 H1402 0.950 . S
C1431 C1430 1.334 . S
C1431 C1432 1.287 . S
C1432 C1431 1.287 . S
C1432 C1433 1.524 . S
C1432 H1435 0.999 . S
C1433 H1403 0.950 . S
C1433 C1432 1.524 . S
C1433 C1434 1.415 . S
C1434 H1404 0.950 . S
C1434 C1429 1.363 . S
C1434 C1433 1.415 . S
H1435 C1432 0.999 . S
H1436 C1417 0.913 . S
H1437 C1455 0.951 . S
H1438 C1457 0.951 . S
H1439 C1459 0.950 . S
H1440 C1460 0.950 . S
H1441 C1462 0.950 . S
H1442 C1465 0.950 . S
H1443 C1466 0.950 . S
H1444 C1468 0.950 . S
H1445 C1469 0.950 . S
H1446 C1470 0.951 . S
H1447 C1472 0.951 . S
H1448 C1474 0.950 . S
H1449 C1475 0.950 . S
H1450 C1477 0.950 . S
H1451 C1480 0.950 . S
H1452 C1481 0.950 . S
H1453 C1483 0.950 . S
H1454 C1484 0.950 . S
C1455 H1437 0.951 . S
C1455 C1456 1.366 . S
C1455 C1457 1.388 . S
C1456 C1455 1.366 . S
C1456 C1460 1.385 . S
C1457 H1438 0.951 . S
C1457 C1455 1.388 . S
C1457 C1458 1.366 . S
C1458 C1457 1.366 . S
C1458 C1459 1.414 . S
C1458 C1461 1.499 1_545 S
C1459 H1439 0.950 . S
C1459 C1458 1.414 . S
C1459 C1460 1.374 . S
C1460 H1440 0.950 . S
C1460 C1456 1.385 . S
C1460 C1459 1.374 . S
C1461 C1458 1.499 1_565 S
C1461 C1462 1.373 . S
C1461 C1463 1.389 . S
C1462 H1441 0.950 . S
C1462 C1461 1.373 . S
C1462 C1478 1.377 . S
C1463 C1461 1.389 . S
C1463 C1464 1.524 . S
C1463 C1477 1.377 . S
C1464 C1463 1.524 . S
C1464 C1465 1.397 . S
C1464 C1469 1.363 . S
C1465 H1442 0.950 . S
C1465 C1464 1.397 . S
C1465 C1466 1.334 1_565 S
C1466 H1443 0.950 . S
C1466 C1465 1.334 1_545 S
C1466 C1467 1.287 1_545 S
C1467 C1466 1.287 1_565 S
C1467 C1468 1.524 . S
C1467 H1486 0.913 1_565 S
C1468 H1444 0.950 . S
C1468 C1467 1.524 . S
C1468 C1469 1.415 . S
C1469 H1445 0.950 . S
C1469 C1464 1.363 . S
C1469 C1468 1.415 . S
C1470 H1446 0.951 . S
C1470 C1471 1.366 . S
C1470 C1472 1.388 . S
C1471 C1470 1.366 . S
C1471 C1475 1.385 . S
C1472 H1447 0.951 . S
C1472 C1470 1.388 . S
C1472 C1473 1.366 . S
C1473 C1472 1.366 . S
C1473 C1474 1.414 . S
C1473 C1476 1.499 . S
C1474 H1448 0.950 . S
C1474 C1473 1.414 . S
C1474 C1475 1.374 . S
C1475 H1449 0.950 . S
C1475 C1471 1.385 . S
C1475 C1474 1.374 . S
C1476 C1473 1.499 . S
C1476 C1477 1.373 . S
C1476 C1478 1.389 . S
C1477 H1450 0.950 . S
C1477 C1463 1.377 . S
C1477 C1476 1.373 . S
C1478 C1462 1.377 . S
C1478 C1476 1.389 . S
C1478 C1479 1.524 . S
C1479 C1478 1.524 . S
C1479 C1480 1.397 . S
C1479 C1484 1.363 . S
C1480 H1451 0.950 . S
C1480 C1479 1.397 . S
C1480 C1481 1.334 . S
C1481 H1452 0.950 . S
C1481 C1480 1.334 . S
C1481 C1482 1.287 . S
C1482 C1481 1.287 . S
C1482 C1483 1.524 . S
C1482 H1485 0.999 . S
C1483 H1453 0.950 . S
C1483 C1482 1.524 . S
C1483 C1484 1.415 . S
C1484 H1454 0.950 . S
C1484 C1479 1.363 . S
C1484 C1483 1.415 . S
H1485 C1482 0.999 . S
H1486 C1467 0.913 1_545 S
H1487 C1505 0.951 . S
H1488 C1507 0.951 . S
H1489 C1509 0.950 . S
H1490 C1510 0.950 . S
H1491 C1512 0.950 . S
H1492 C1515 0.950 . S
H1493 C1516 0.950 . S
H1494 C1518 0.950 . S
H1495 C1519 0.950 . S
H1496 C1520 0.951 . S
H1497 C1522 0.951 . S
H1498 C1524 0.950 . S
H1499 C1525 0.950 . S
H1500 C1527 0.950 . S
H1501 C1530 0.950 . S
H1502 C1531 0.950 . S
H1503 C1533 0.950 . S
H1504 C1534 0.950 . S
C1505 H1487 0.951 . S
C1505 C1506 1.366 . S
C1505 C1507 1.388 . S
C1506 C1505 1.366 . S
C1506 C1510 1.385 . S
C1507 H1488 0.951 . S
C1507 C1505 1.388 . S
C1507 C1508 1.366 . S
C1508 C1507 1.366 . S
C1508 C1509 1.414 . S
C1508 C1511 1.499 1_655 S
C1509 H1489 0.950 . S
C1509 C1508 1.414 . S
C1509 C1510 1.374 . S
C1510 H1490 0.950 . S
C1510 C1506 1.385 . S
C1510 C1509 1.374 . S
C1511 C1508 1.499 1_455 S
C1511 C1512 1.373 . S
C1511 C1513 1.389 . S
C1512 H1491 0.950 . S
C1512 C1511 1.373 . S
C1512 C1528 1.377 . S
C1513 C1511 1.389 . S
C1513 C1514 1.524 . S
C1513 C1527 1.377 . S
C1514 C1513 1.524 . S
C1514 C1515 1.397 . S
C1514 C1519 1.363 . S
C1515 H1492 0.950 . S
C1515 C1514 1.397 . S
C1515 C1516 1.334 1_455 S
C1516 H1493 0.950 . S
C1516 C1515 1.334 1_655 S
C1516 C1517 1.287 . S
C1517 C1516 1.287 . S
C1517 C1518 1.524 1_655 S
C1517 H1536 0.913 . S
C1518 H1494 0.950 . S
C1518 C1517 1.524 1_455 S
C1518 C1519 1.415 . S
C1519 H1495 0.950 . S
C1519 C1514 1.363 . S
C1519 C1518 1.415 . S
C1520 H1496 0.951 . S
C1520 C1521 1.366 . S
C1520 C1522 1.388 . S
C1521 C1520 1.366 . S
C1521 C1525 1.385 . S
C1522 H1497 0.951 . S
C1522 C1520 1.388 . S
C1522 C1523 1.366 . S
C1523 C1522 1.366 . S
C1523 C1524 1.414 . S
C1523 C1526 1.499 . S
C1524 H1498 0.950 . S
C1524 C1523 1.414 . S
C1524 C1525 1.374 . S
C1525 H1499 0.950 . S
C1525 C1521 1.385 . S
C1525 C1524 1.374 . S
C1526 C1523 1.499 . S
C1526 C1527 1.373 . S
C1526 C1528 1.389 . S
C1527 H1500 0.950 . S
C1527 C1513 1.377 . S
C1527 C1526 1.373 . S
C1528 C1512 1.377 . S
C1528 C1526 1.389 . S
C1528 C1529 1.524 . S
C1529 C1528 1.524 . S
C1529 C1530 1.397 . S
C1529 C1534 1.363 . S
C1530 H1501 0.950 . S
C1530 C1529 1.397 . S
C1530 C1531 1.334 . S
C1531 H1502 0.950 . S
C1531 C1530 1.334 . S
C1531 C1532 1.287 . S
C1532 C1531 1.287 . S
C1532 C1533 1.524 . S
C1532 H1535 0.999 . S
C1533 H1503 0.950 . S
C1533 C1532 1.524 . S
C1533 C1534 1.415 . S
C1534 H1504 0.950 . S
C1534 C1529 1.363 . S
C1534 C1533 1.415 . S
H1535 C1532 0.999 . S
H1536 C1517 0.913 . S
H1537 C1555 0.951 . S
H1538 C1557 0.951 . S
H1539 C1559 0.950 . S
H1540 C1560 0.950 . S
H1541 C1562 0.950 . S
H1542 C1565 0.950 . S
H1543 C1566 0.950 . S
H1544 C1568 0.950 . S
H1545 C1569 0.950 . S
H1546 C1570 0.951 . S
H1547 C1572 0.951 . S
H1548 C1574 0.950 . S
H1549 C1575 0.950 . S
H1550 C1577 0.950 . S
H1551 C1580 0.950 . S
H1552 C1581 0.950 . S
H1553 C1583 0.950 . S
H1554 C1584 0.950 . S
C1555 H1537 0.951 . S
C1555 C1556 1.366 . S
C1555 C1557 1.388 . S
C1556 C1555 1.366 . S
C1556 C1560 1.385 . S
C1557 H1538 0.951 . S
C1557 C1555 1.388 . S
C1557 C1558 1.366 . S
C1558 C1557 1.366 . S
C1558 C1559 1.414 . S
C1558 C1561 1.499 . S
C1559 H1539 0.950 . S
C1559 C1558 1.414 . S
C1559 C1560 1.374 . S
C1560 H1540 0.950 . S
C1560 C1556 1.385 . S
C1560 C1559 1.374 . S
C1561 C1558 1.499 . S
C1561 C1562 1.373 . S
C1561 C1563 1.389 . S
C1562 H1541 0.950 . S
C1562 C1561 1.373 . S
C1562 C1578 1.377 . S
C1563 C1561 1.389 . S
C1563 C1564 1.524 . S
C1563 C1577 1.377 . S
C1564 C1563 1.524 . S
C1564 C1565 1.397 . S
C1564 C1569 1.363 . S
C1565 H1542 0.950 . S
C1565 C1564 1.397 . S
C1565 C1566 1.334 . S
C1566 H1543 0.950 . S
C1566 C1565 1.334 . S
C1566 C1567 1.287 . S
C1567 C1566 1.287 . S
C1567 C1568 1.524 . S
C1567 H1586 0.913 . S
C1568 H1544 0.950 . S
C1568 C1567 1.524 . S
C1568 C1569 1.415 . S
C1569 H1545 0.950 . S
C1569 C1564 1.363 . S
C1569 C1568 1.415 . S
C1570 H1546 0.951 . S
C1570 C1571 1.366 . S
C1570 C1572 1.388 . S
C1571 C1570 1.366 . S
C1571 C1575 1.385 . S
C1572 H1547 0.951 . S
C1572 C1570 1.388 . S
C1572 C1573 1.366 . S
C1573 C1572 1.366 . S
C1573 C1574 1.414 . S
C1573 C1576 1.499 . S
C1574 H1548 0.950 . S
C1574 C1573 1.414 . S
C1574 C1575 1.374 . S
C1575 H1549 0.950 . S
C1575 C1571 1.385 . S
C1575 C1574 1.374 . S
C1576 C1573 1.499 . S
C1576 C1577 1.373 . S
C1576 C1578 1.389 . S
C1577 H1550 0.950 . S
C1577 C1563 1.377 . S
C1577 C1576 1.373 . S
C1578 C1562 1.377 . S
C1578 C1576 1.389 . S
C1578 C1579 1.524 . S
C1579 C1578 1.524 . S
C1579 C1580 1.397 . S
C1579 C1584 1.363 . S
C1580 H1551 0.950 . S
C1580 C1579 1.397 . S
C1580 C1581 1.334 . S
C1581 H1552 0.950 . S
C1581 C1580 1.334 . S
C1581 C1582 1.287 . S
C1582 C1581 1.287 . S
C1582 C1583 1.524 . S
C1582 H1585 0.999 . S
C1583 H1553 0.950 . S
C1583 C1582 1.524 . S
C1583 C1584 1.415 . S
C1584 H1554 0.950 . S
C1584 C1579 1.363 . S
C1584 C1583 1.415 . S
H1585 C1582 0.999 . S
H1586 C1567 0.913 . S
H1587 C1605 0.951 . S
H1588 C1607 0.951 . S
H1589 C1609 0.950 . S
H1590 C1610 0.950 . S
H1591 C1612 0.950 . S
H1592 C1615 0.950 . S
H1593 C1616 0.950 . S
H1594 C1618 0.950 . S
H1595 C1619 0.950 . S
H1596 C1620 0.951 . S
H1597 C1622 0.951 . S
H1598 C1624 0.950 . S
H1599 C1625 0.950 . S
H1600 C1627 0.950 . S
H1601 C1630 0.950 . S
H1602 C1631 0.950 . S
H1603 C1633 0.950 . S
H1604 C1634 0.950 . S
C1605 H1587 0.951 . S
C1605 C1606 1.366 . S
C1605 C1607 1.388 . S
C1606 C1605 1.366 . S
C1606 C1610 1.385 . S
C1607 H1588 0.951 . S
C1607 C1605 1.388 . S
C1607 C1608 1.366 . S
C1608 C1607 1.366 . S
C1608 C1609 1.414 . S
C1608 C1611 1.499 . S
C1609 H1589 0.950 . S
C1609 C1608 1.414 . S
C1609 C1610 1.374 . S
C1610 H1590 0.950 . S
C1610 C1606 1.385 . S
C1610 C1609 1.374 . S
C1611 C1608 1.499 . S
C1611 C1612 1.373 . S
C1611 C1613 1.389 . S
C1612 H1591 0.950 . S
C1612 C1611 1.373 . S
C1612 C1628 1.377 . S
C1613 C1611 1.389 . S
C1613 C1614 1.524 . S
C1613 C1627 1.377 . S
C1614 C1613 1.524 . S
C1614 C1615 1.397 . S
C1614 C1619 1.363 . S
C1615 H1592 0.950 . S
C1615 C1614 1.397 . S
C1615 C1616 1.334 . S
C1616 H1593 0.950 . S
C1616 C1615 1.334 . S
C1616 C1617 1.287 . S
C1617 C1616 1.287 . S
C1617 C1618 1.524 . S
C1617 H1636 0.913 . S
C1618 H1594 0.950 . S
C1618 C1617 1.524 . S
C1618 C1619 1.415 . S
C1619 H1595 0.950 . S
C1619 C1614 1.363 . S
C1619 C1618 1.415 . S
C1620 H1596 0.951 . S
C1620 C1621 1.366 . S
C1620 C1622 1.388 . S
C1621 C1620 1.366 . S
C1621 C1625 1.385 . S
C1622 H1597 0.951 . S
C1622 C1620 1.388 . S
C1622 C1623 1.366 . S
C1623 C1622 1.366 . S
C1623 C1624 1.414 . S
C1623 C1626 1.499 . S
C1624 H1598 0.950 . S
C1624 C1623 1.414 . S
C1624 C1625 1.374 . S
C1625 H1599 0.950 . S
C1625 C1621 1.385 . S
C1625 C1624 1.374 . S
C1626 C1623 1.499 . S
C1626 C1627 1.373 . S
C1626 C1628 1.389 . S
C1627 H1600 0.950 . S
C1627 C1613 1.377 . S
C1627 C1626 1.373 . S
C1628 C1612 1.377 . S
C1628 C1626 1.389 . S
C1628 C1629 1.524 . S
C1629 C1628 1.524 . S
C1629 C1630 1.397 . S
C1629 C1634 1.363 . S
C1630 H1601 0.950 . S
C1630 C1629 1.397 . S
C1630 C1631 1.334 . S
C1631 H1602 0.950 . S
C1631 C1630 1.334 . S
C1631 C1632 1.287 . S
C1632 C1631 1.287 . S
C1632 C1633 1.524 . S
C1632 H1635 0.999 . S
C1633 H1603 0.950 . S
C1633 C1632 1.524 . S
C1633 C1634 1.415 . S
C1634 H1604 0.950 . S
C1634 C1629 1.363 . S
C1634 C1633 1.415 . S
H1635 C1632 0.999 . S
H1636 C1617 0.913 . S
H1637 C1655 0.951 . S
H1638 C1657 0.951 . S
H1639 C1659 0.950 . S
H1640 C1660 0.950 . S
H1641 C1662 0.950 . S
H1642 C1665 0.950 . S
H1643 C1666 0.950 . S
H1644 C1668 0.950 . S
H1645 C1669 0.950 . S
H1646 C1670 0.951 . S
H1647 C1672 0.951 . S
H1648 C1674 0.950 . S
H1649 C1675 0.950 . S
H1650 C1677 0.950 . S
H1651 C1680 0.950 . S
H1652 C1681 0.950 . S
H1653 C1683 0.950 . S
H1654 C1684 0.950 . S
C1655 H1637 0.951 . S
C1655 C1656 1.366 . S
C1655 C1657 1.388 . S
C1656 C1655 1.366 . S
C1656 C1660 1.385 . S
C1657 H1638 0.951 . S
C1657 C1655 1.388 . S
C1657 C1658 1.366 . S
C1658 C1657 1.366 . S
C1658 C1659 1.414 . S
C1658 C1661 1.499 . S
C1659 H1639 0.950 . S
C1659 C1658 1.414 . S
C1659 C1660 1.374 . S
C1660 H1640 0.950 . S
C1660 C1656 1.385 . S
C1660 C1659 1.374 . S
C1661 C1658 1.499 . S
C1661 C1662 1.373 . S
C1661 C1663 1.389 . S
C1662 H1641 0.950 . S
C1662 C1661 1.373 . S
C1662 C1678 1.377 . S
C1663 C1661 1.389 . S
C1663 C1664 1.524 . S
C1663 C1677 1.377 . S
C1664 C1663 1.524 . S
C1664 C1665 1.397 . S
C1664 C1669 1.363 . S
C1665 H1642 0.950 . S
C1665 C1664 1.397 . S
C1665 C1666 1.334 . S
C1666 H1643 0.950 . S
C1666 C1665 1.334 . S
C1666 C1667 1.287 . S
C1667 C1666 1.287 . S
C1667 C1668 1.524 . S
C1667 H1686 0.913 . S
C1668 H1644 0.950 . S
C1668 C1667 1.524 . S
C1668 C1669 1.415 . S
C1669 H1645 0.950 . S
C1669 C1664 1.363 . S
C1669 C1668 1.415 . S
C1670 H1646 0.951 . S
C1670 C1671 1.366 . S
C1670 C1672 1.388 . S
C1671 C1670 1.366 . S
C1671 C1675 1.385 . S
C1672 H1647 0.951 . S
C1672 C1670 1.388 . S
C1672 C1673 1.366 . S
C1673 C1672 1.366 . S
C1673 C1674 1.414 . S
C1673 C1676 1.499 . S
C1674 H1648 0.950 . S
C1674 C1673 1.414 . S
C1674 C1675 1.374 . S
C1675 H1649 0.950 . S
C1675 C1671 1.385 . S
C1675 C1674 1.374 . S
C1676 C1673 1.499 . S
C1676 C1677 1.373 . S
C1676 C1678 1.389 . S
C1677 H1650 0.950 . S
C1677 C1663 1.377 . S
C1677 C1676 1.373 . S
C1678 C1662 1.377 . S
C1678 C1676 1.389 . S
C1678 C1679 1.524 . S
C1679 C1678 1.524 . S
C1679 C1680 1.397 . S
C1679 C1684 1.363 . S
C1680 H1651 0.950 . S
C1680 C1679 1.397 . S
C1680 C1681 1.334 . S
C1681 H1652 0.950 . S
C1681 C1680 1.334 . S
C1681 C1682 1.287 . S
C1682 C1681 1.287 . S
C1682 C1683 1.524 . S
C1682 H1685 0.999 . S
C1683 H1653 0.950 . S
C1683 C1682 1.524 . S
C1683 C1684 1.415 . S
C1684 H1654 0.950 . S
C1684 C1679 1.363 . S
C1684 C1683 1.415 . S
H1685 C1682 0.999 . S
H1686 C1667 0.913 . S
H1687 C1705 0.951 . S
H1688 C1707 0.951 . S
H1689 C1709 0.950 . S
H1690 C1710 0.950 . S
H1691 C1712 0.950 . S
H1692 C1715 0.950 . S
H1693 C1716 0.950 . S
H1694 C1718 0.950 . S
H1695 C1719 0.950 . S
H1696 C1720 0.951 . S
H1697 C1722 0.951 . S
H1698 C1724 0.950 . S
H1699 C1725 0.950 . S
H1700 C1727 0.950 . S
H1701 C1730 0.950 . S
H1702 C1731 0.950 . S
H1703 C1733 0.950 . S
H1704 C1734 0.950 . S
C1705 H1687 0.951 . S
C1705 C1706 1.366 . S
C1705 C1707 1.388 . S
C1706 C1705 1.366 . S
C1706 C1710 1.385 . S
C1707 H1688 0.951 . S
C1707 C1705 1.388 . S
C1707 C1708 1.366 . S
C1708 C1707 1.366 . S
C1708 C1709 1.414 . S
C1708 C1711 1.499 . S
C1709 H1689 0.950 . S
C1709 C1708 1.414 . S
C1709 C1710 1.374 . S
C1710 H1690 0.950 . S
C1710 C1706 1.385 . S
C1710 C1709 1.374 . S
C1711 C1708 1.499 . S
C1711 C1712 1.373 . S
C1711 C1713 1.389 . S
C1712 H1691 0.950 . S
C1712 C1711 1.373 . S
C1712 C1728 1.377 . S
C1713 C1711 1.389 . S
C1713 C1714 1.524 . S
C1713 C1727 1.377 . S
C1714 C1713 1.524 . S
C1714 C1715 1.397 . S
C1714 C1719 1.363 . S
C1715 H1692 0.950 . S
C1715 C1714 1.397 . S
C1715 C1716 1.334 . S
C1716 H1693 0.950 . S
C1716 C1715 1.334 . S
C1716 C1717 1.287 . S
C1717 C1716 1.287 . S
C1717 C1718 1.524 . S
C1717 H1736 0.913 . S
C1718 H1694 0.950 . S
C1718 C1717 1.524 . S
C1718 C1719 1.415 . S
C1719 H1695 0.950 . S
C1719 C1714 1.363 . S
C1719 C1718 1.415 . S
C1720 H1696 0.951 . S
C1720 C1721 1.366 . S
C1720 C1722 1.388 . S
C1721 C1720 1.366 . S
C1721 C1725 1.385 . S
C1722 H1697 0.951 . S
C1722 C1720 1.388 . S
C1722 C1723 1.366 . S
C1723 C1722 1.366 . S
C1723 C1724 1.414 . S
C1723 C1726 1.499 . S
C1724 H1698 0.950 . S
C1724 C1723 1.414 . S
C1724 C1725 1.374 . S
C1725 H1699 0.950 . S
C1725 C1721 1.385 . S
C1725 C1724 1.374 . S
C1726 C1723 1.499 . S
C1726 C1727 1.373 . S
C1726 C1728 1.389 . S
C1727 H1700 0.950 . S
C1727 C1713 1.377 . S
C1727 C1726 1.373 . S
C1728 C1712 1.377 . S
C1728 C1726 1.389 . S
C1728 C1729 1.524 . S
C1729 C1728 1.524 . S
C1729 C1730 1.397 . S
C1729 C1734 1.363 . S
C1730 H1701 0.950 . S
C1730 C1729 1.397 . S
C1730 C1731 1.334 . S
C1731 H1702 0.950 . S
C1731 C1730 1.334 . S
C1731 C1732 1.287 . S
C1732 C1731 1.287 . S
C1732 C1733 1.524 . S
C1732 H1735 0.999 . S
C1733 H1703 0.950 . S
C1733 C1732 1.524 . S
C1733 C1734 1.415 . S
C1734 H1704 0.950 . S
C1734 C1729 1.363 . S
C1734 C1733 1.415 . S
H1735 C1732 0.999 . S
H1736 C1717 0.913 . S
H1737 C1755 0.951 . S
H1738 C1757 0.951 . S
H1739 C1759 0.950 . S
H1740 C1760 0.950 . S
H1741 C1762 0.950 . S
H1742 C1765 0.950 . S
H1743 C1766 0.950 . S
H1744 C1768 0.950 . S
H1745 C1769 0.950 . S
H1746 C1770 0.951 . S
H1747 C1772 0.951 . S
H1748 C1774 0.950 . S
H1749 C1775 0.950 . S
H1750 C1777 0.950 . S
H1751 C1780 0.950 . S
H1752 C1781 0.950 . S
H1753 C1783 0.950 . S
H1754 C1784 0.950 . S
C1755 H1737 0.951 . S
C1755 C1756 1.366 . S
C1755 C1757 1.388 . S
C1756 C1755 1.366 . S
C1756 C1760 1.385 . S
C1757 H1738 0.951 . S
C1757 C1755 1.388 . S
C1757 C1758 1.366 . S
C1758 C1757 1.366 . S
C1758 C1759 1.414 . S
C1758 C1761 1.499 . S
C1759 H1739 0.950 . S
C1759 C1758 1.414 . S
C1759 C1760 1.374 . S
C1760 H1740 0.950 . S
C1760 C1756 1.385 . S
C1760 C1759 1.374 . S
C1761 C1758 1.499 . S
C1761 C1762 1.373 . S
C1761 C1763 1.389 . S
C1762 H1741 0.950 . S
C1762 C1761 1.373 . S
C1762 C1778 1.377 1_565 S
C1763 C1761 1.389 . S
C1763 C1764 1.524 . S
C1763 C1777 1.377 1_565 S
C1764 C1763 1.524 . S
C1764 C1765 1.397 . S
C1764 C1769 1.363 . S
C1765 H1742 0.950 . S
C1765 C1764 1.397 . S
C1765 C1766 1.334 . S
C1766 H1743 0.950 . S
C1766 C1765 1.334 . S
C1766 C1767 1.287 . S
C1767 C1766 1.287 . S
C1767 C1768 1.524 . S
C1767 H1786 0.913 . S
C1768 H1744 0.950 . S
C1768 C1767 1.524 . S
C1768 C1769 1.415 . S
C1769 H1745 0.950 . S
C1769 C1764 1.363 . S
C1769 C1768 1.415 . S
C1770 H1746 0.951 . S
C1770 C1771 1.366 . S
C1770 C1772 1.388 . S
C1771 C1770 1.366 . S
C1771 C1775 1.385 . S
C1772 H1747 0.951 . S
C1772 C1770 1.388 . S
C1772 C1773 1.366 . S
C1773 C1772 1.366 . S
C1773 C1774 1.414 . S
C1773 C1776 1.499 . S
C1774 H1748 0.950 . S
C1774 C1773 1.414 . S
C1774 C1775 1.374 . S
C1775 H1749 0.950 . S
C1775 C1771 1.385 . S
C1775 C1774 1.374 . S
C1776 C1773 1.499 . S
C1776 C1777 1.373 . S
C1776 C1778 1.389 . S
C1777 H1750 0.950 . S
C1777 C1763 1.377 1_545 S
C1777 C1776 1.373 . S
C1778 C1762 1.377 1_545 S
C1778 C1776 1.389 . S
C1778 C1779 1.524 . S
C1779 C1778 1.524 . S
C1779 C1780 1.397 . S
C1779 C1784 1.363 . S
C1780 H1751 0.950 . S
C1780 C1779 1.397 . S
C1780 C1781 1.334 . S
C1781 H1752 0.950 . S
C1781 C1780 1.334 . S
C1781 C1782 1.287 . S
C1782 C1781 1.287 . S
C1782 C1783 1.524 . S
C1782 H1785 0.999 . S
C1783 H1753 0.950 . S
C1783 C1782 1.524 . S
C1783 C1784 1.415 . S
C1784 H1754 0.950 . S
C1784 C1779 1.363 . S
C1784 C1783 1.415 . S
H1785 C1782 0.999 . S
H1786 C1767 0.913 . S
H1787 C1805 0.951 . S
H1788 C1807 0.951 . S
H1789 C1809 0.950 . S
H1790 C1810 0.950 . S
H1791 C1812 0.950 . S
H1792 C1815 0.950 . S
H1793 C1816 0.950 . S
H1794 C1818 0.950 . S
H1795 C1819 0.950 . S
H1796 C1820 0.951 . S
H1797 C1822 0.951 . S
H1798 C1824 0.950 . S
H1799 C1825 0.950 . S
H1800 C1827 0.950 . S
H1801 C1830 0.950 . S
H1802 C1831 0.950 . S
H1803 C1833 0.950 . S
H1804 C1834 0.950 . S
C1805 H1787 0.951 . S
C1805 C1806 1.366 . S
C1805 C1807 1.388 . S
C1806 C1805 1.366 . S
C1806 C1810 1.385 . S
C1807 H1788 0.951 . S
C1807 C1805 1.388 . S
C1807 C1808 1.366 . S
C1808 C1807 1.366 . S
C1808 C1809 1.414 . S
C1808 C1811 1.499 . S
C1809 H1789 0.950 . S
C1809 C1808 1.414 . S
C1809 C1810 1.374 . S
C1810 H1790 0.950 . S
C1810 C1806 1.385 . S
C1810 C1809 1.374 . S
C1811 C1808 1.499 . S
C1811 C1812 1.373 . S
C1811 C1813 1.389 . S
C1812 H1791 0.950 . S
C1812 C1811 1.373 . S
C1812 C1828 1.377 1_455 S
C1813 C1811 1.389 . S
C1813 C1814 1.524 . S
C1813 C1827 1.377 1_455 S
C1814 C1813 1.524 . S
C1814 C1815 1.397 . S
C1814 C1819 1.363 . S
C1815 H1792 0.950 . S
C1815 C1814 1.397 . S
C1815 C1816 1.334 . S
C1816 H1793 0.950 . S
C1816 C1815 1.334 . S
C1816 C1817 1.287 . S
C1817 C1816 1.287 . S
C1817 C1818 1.524 . S
C1817 H1836 0.913 . S
C1818 H1794 0.950 . S
C1818 C1817 1.524 . S
C1818 C1819 1.415 . S
C1819 H1795 0.950 . S
C1819 C1814 1.363 . S
C1819 C1818 1.415 . S
C1820 H1796 0.951 . S
C1820 C1821 1.366 . S
C1820 C1822 1.388 . S
C1821 C1820 1.366 . S
C1821 C1825 1.385 . S
C1822 H1797 0.951 . S
C1822 C1820 1.388 . S
C1822 C1823 1.366 . S
C1823 C1822 1.366 . S
C1823 C1824 1.414 . S
C1823 C1826 1.499 . S
C1824 H1798 0.950 . S
C1824 C1823 1.414 . S
C1824 C1825 1.374 . S
C1825 H1799 0.950 . S
C1825 C1821 1.385 . S
C1825 C1824 1.374 . S
C1826 C1823 1.499 . S
C1826 C1827 1.373 . S
C1826 C1828 1.389 . S
C1827 H1800 0.950 . S
C1827 C1813 1.377 1_655 S
C1827 C1826 1.373 . S
C1828 C1812 1.377 1_655 S
C1828 C1826 1.389 . S
C1828 C1829 1.524 . S
C1829 C1828 1.524 . S
C1829 C1830 1.397 . S
C1829 C1834 1.363 . S
C1830 H1801 0.950 . S
C1830 C1829 1.397 . S
C1830 C1831 1.334 . S
C1831 H1802 0.950 . S
C1831 C1830 1.334 . S
C1831 C1832 1.287 . S
C1832 C1831 1.287 . S
C1832 C1833 1.524 . S
C1832 H1835 0.999 . S
C1833 H1803 0.950 . S
C1833 C1832 1.524 . S
C1833 C1834 1.415 . S
C1834 H1804 0.950 . S
C1834 C1829 1.363 . S
C1834 C1833 1.415 . S
H1835 C1832 0.999 . S
H1836 C1817 0.913 . S
H1837 C1855 0.951 . S
H1838 C1857 0.951 . S
H1839 C1859 0.950 . S
H1840 C1860 0.950 . S
H1841 C1862 0.950 . S
H1842 C1865 0.950 . S
H1843 C1866 0.950 . S
H1844 C1868 0.950 . S
H1845 C1869 0.950 . S
H1846 C1870 0.951 . S
H1847 C1872 0.951 . S
H1848 C1874 0.950 . S
H1849 C1875 0.950 . S
H1850 C1877 0.950 . S
H1851 C1880 0.950 . S
H1852 C1881 0.950 . S
H1853 C1883 0.950 . S
H1854 C1884 0.950 . S
C1855 H1837 0.951 . S
C1855 C1856 1.366 . S
C1855 C1857 1.388 . S
C1856 C1855 1.366 . S
C1856 C1860 1.385 . S
C1857 H1838 0.951 . S
C1857 C1855 1.388 . S
C1857 C1858 1.366 . S
C1858 C1857 1.366 . S
C1858 C1859 1.414 . S
C1858 C1861 1.499 . S
C1859 H1839 0.950 . S
C1859 C1858 1.414 . S
C1859 C1860 1.374 . S
C1860 H1840 0.950 . S
C1860 C1856 1.385 . S
C1860 C1859 1.374 . S
C1861 C1858 1.499 . S
C1861 C1862 1.373 . S
C1861 C1863 1.389 . S
C1862 H1841 0.950 . S
C1862 C1861 1.373 . S
C1862 C1878 1.377 . S
C1863 C1861 1.389 . S
C1863 C1864 1.524 . S
C1863 C1877 1.377 . S
C1864 C1863 1.524 . S
C1864 C1865 1.397 . S
C1864 C1869 1.363 . S
C1865 H1842 0.950 . S
C1865 C1864 1.397 . S
C1865 C1866 1.334 . S
C1866 H1843 0.950 . S
C1866 C1865 1.334 . S
C1866 C1867 1.287 . S
C1867 C1866 1.287 . S
C1867 C1868 1.524 . S
C1867 H1886 0.913 . S
C1868 H1844 0.950 . S
C1868 C1867 1.524 . S
C1868 C1869 1.415 . S
C1869 H1845 0.950 . S
C1869 C1864 1.363 . S
C1869 C1868 1.415 . S
C1870 H1846 0.951 . S
C1870 C1871 1.366 . S
C1870 C1872 1.388 . S
C1871 C1870 1.366 . S
C1871 C1875 1.385 . S
C1872 H1847 0.951 . S
C1872 C1870 1.388 . S
C1872 C1873 1.366 . S
C1873 C1872 1.366 . S
C1873 C1874 1.414 . S
C1873 C1876 1.499 . S
C1874 H1848 0.950 . S
C1874 C1873 1.414 . S
C1874 C1875 1.374 . S
C1875 H1849 0.950 . S
C1875 C1871 1.385 . S
C1875 C1874 1.374 . S
C1876 C1873 1.499 . S
C1876 C1877 1.373 . S
C1876 C1878 1.389 . S
C1877 H1850 0.950 . S
C1877 C1863 1.377 . S
C1877 C1876 1.373 . S
C1878 C1862 1.377 . S
C1878 C1876 1.389 . S
C1878 C1879 1.524 . S
C1879 C1878 1.524 . S
C1879 C1880 1.397 . S
C1879 C1884 1.363 . S
C1880 H1851 0.950 . S
C1880 C1879 1.397 . S
C1880 C1881 1.334 . S
C1881 H1852 0.950 . S
C1881 C1880 1.334 . S
C1881 C1882 1.287 . S
C1882 C1881 1.287 . S
C1882 C1883 1.524 . S
C1882 H1885 0.999 . S
C1883 H1853 0.950 . S
C1883 C1882 1.524 . S
C1883 C1884 1.415 . S
C1884 H1854 0.950 . S
C1884 C1879 1.363 . S
C1884 C1883 1.415 . S
H1885 C1882 0.999 . S
H1886 C1867 0.913 . S
H1887 C1905 0.951 . S
H1888 C1907 0.951 . S
H1889 C1909 0.950 . S
H1890 C1910 0.950 . S
H1891 C1912 0.950 . S
H1892 C1915 0.950 1_455 S
H1893 C1916 0.950 . S
H1894 C1918 0.950 . S
H1895 C1919 0.950 . S
H1896 C1920 0.951 . S
H1897 C1922 0.951 . S
H1898 C1924 0.950 . S
H1899 C1925 0.950 . S
H1900 C1927 0.950 . S
H1901 C1930 0.950 . S
H1902 C1931 0.950 . S
H1903 C1933 0.950 . S
H1904 C1934 0.950 . S
C1905 H1887 0.951 . S
C1905 C1906 1.366 . S
C1905 C1907 1.388 . S
C1906 C1905 1.366 . S
C1906 C1910 1.385 . S
C1907 H1888 0.951 . S
C1907 C1905 1.388 . S
C1907 C1908 1.366 . S
C1908 C1907 1.366 . S
C1908 C1909 1.414 . S
C1908 C1911 1.499 1_455 S
C1909 H1889 0.950 . S
C1909 C1908 1.414 . S
C1909 C1910 1.374 . S
C1910 H1890 0.950 . S
C1910 C1906 1.385 . S
C1910 C1909 1.374 . S
C1911 C1908 1.499 1_655 S
C1911 C1912 1.373 . S
C1911 C1913 1.389 . S
C1912 H1891 0.950 . S
C1912 C1911 1.373 . S
C1912 C1928 1.377 . S
C1913 C1911 1.389 . S
C1913 C1914 1.524 . S
C1913 C1927 1.377 . S
C1914 C1913 1.524 . S
C1914 C1915 1.397 . S
C1914 C1919 1.363 . S
C1915 H1892 0.950 1_655 S
C1915 C1914 1.397 . S
C1915 C1916 1.334 1_655 S
C1916 H1893 0.950 . S
C1916 C1915 1.334 1_455 S
C1916 C1917 1.287 1_455 S
C1917 C1916 1.287 1_655 S
C1917 C1918 1.524 . S
C1917 H1936 0.913 1_655 S
C1918 H1894 0.950 . S
C1918 C1917 1.524 . S
C1918 C1919 1.415 . S
C1919 H1895 0.950 . S
C1919 C1914 1.363 . S
C1919 C1918 1.415 . S
C1920 H1896 0.951 . S
C1920 C1921 1.366 . S
C1920 C1922 1.388 . S
C1921 C1920 1.366 . S
C1921 C1925 1.385 . S
C1922 H1897 0.951 . S
C1922 C1920 1.388 . S
C1922 C1923 1.366 . S
C1923 C1922 1.366 . S
C1923 C1924 1.414 . S
C1923 C1926 1.499 . S
C1924 H1898 0.950 . S
C1924 C1923 1.414 . S
C1924 C1925 1.374 . S
C1925 H1899 0.950 . S
C1925 C1921 1.385 . S
C1925 C1924 1.374 . S
C1926 C1923 1.499 . S
C1926 C1927 1.373 . S
C1926 C1928 1.389 . S
C1927 H1900 0.950 . S
C1927 C1913 1.377 . S
C1927 C1926 1.373 . S
C1928 C1912 1.377 . S
C1928 C1926 1.389 . S
C1928 C1929 1.524 . S
C1929 C1928 1.524 . S
C1929 C1930 1.397 . S
C1929 C1934 1.363 . S
C1930 H1901 0.950 . S
C1930 C1929 1.397 . S
C1930 C1931 1.334 . S
C1931 H1902 0.950 . S
C1931 C1930 1.334 . S
C1931 C1932 1.287 . S
C1932 C1931 1.287 . S
C1932 C1933 1.524 . S
C1932 H1935 0.999 . S
C1933 H1903 0.950 . S
C1933 C1932 1.524 . S
C1933 C1934 1.415 . S
C1934 H1904 0.950 . S
C1934 C1929 1.363 . S
C1934 C1933 1.415 . S
H1935 C1932 0.999 . S
H1936 C1917 0.913 1_455 S
H1937 C1955 0.951 . S
H1938 C1957 0.951 . S
H1939 C1959 0.950 . S
H1940 C1960 0.950 . S
H1941 C1962 0.950 . S
H1942 C1965 0.950 . S
H1943 C1966 0.950 . S
H1944 C1968 0.950 . S
H1945 C1969 0.950 . S
H1946 C1970 0.951 . S
H1947 C1972 0.951 . S
H1948 C1974 0.950 . S
H1949 C1975 0.950 . S
H1950 C1977 0.950 . S
H1951 C1980 0.950 . S
H1952 C1981 0.950 . S
H1953 C1983 0.950 . S
H1954 C1984 0.950 . S
C1955 H1937 0.951 . S
C1955 C1956 1.366 . S
C1955 C1957 1.388 . S
C1956 C1955 1.366 . S
C1956 C1960 1.385 . S
C1957 H1938 0.951 . S
C1957 C1955 1.388 . S
C1957 C1958 1.366 . S
C1958 C1957 1.366 . S
C1958 C1959 1.414 . S
C1958 C1961 1.499 . S
C1959 H1939 0.950 . S
C1959 C1958 1.414 . S
C1959 C1960 1.374 . S
C1960 H1940 0.950 . S
C1960 C1956 1.385 . S
C1960 C1959 1.374 . S
C1961 C1958 1.499 . S
C1961 C1962 1.373 . S
C1961 C1963 1.389 . S
C1962 H1941 0.950 . S
C1962 C1961 1.373 . S
C1962 C1978 1.377 . S
C1963 C1961 1.389 . S
C1963 C1964 1.524 . S
C1963 C1977 1.377 . S
C1964 C1963 1.524 . S
C1964 C1965 1.397 . S
C1964 C1969 1.363 . S
C1965 H1942 0.950 . S
C1965 C1964 1.397 . S
C1965 C1966 1.334 . S
C1966 H1943 0.950 . S
C1966 C1965 1.334 . S
C1966 C1967 1.287 . S
C1967 C1966 1.287 . S
C1967 C1968 1.524 . S
C1967 H1986 0.913 . S
C1968 H1944 0.950 . S
C1968 C1967 1.524 . S
C1968 C1969 1.415 . S
C1969 H1945 0.950 . S
C1969 C1964 1.363 . S
C1969 C1968 1.415 . S
C1970 H1946 0.951 . S
C1970 C1971 1.366 . S
C1970 C1972 1.388 . S
C1971 C1970 1.366 . S
C1971 C1975 1.385 . S
C1972 H1947 0.951 . S
C1972 C1970 1.388 . S
C1972 C1973 1.366 . S
C1973 C1972 1.366 . S
C1973 C1974 1.414 . S
C1973 C1976 1.499 . S
C1974 H1948 0.950 . S
C1974 C1973 1.414 . S
C1974 C1975 1.374 . S
C1975 H1949 0.950 . S
C1975 C1971 1.385 . S
C1975 C1974 1.374 . S
C1976 C1973 1.499 . S
C1976 C1977 1.373 . S
C1976 C1978 1.389 . S
C1977 H1950 0.950 . S
C1977 C1963 1.377 . S
C1977 C1976 1.373 . S
C1978 C1962 1.377 . S
C1978 C1976 1.389 . S
C1978 C1979 1.524 . S
C1979 C1978 1.524 . S
C1979 C1980 1.397 . S
C1979 C1984 1.363 . S
C1980 H1951 0.950 . S
C1980 C1979 1.397 . S
C1980 C1981 1.334 . S
C1981 H1952 0.950 . S
C1981 C1980 1.334 . S
C1981 C1982 1.287 . S
C1982 C1981 1.287 . S
C1982 C1983 1.524 . S
C1982 H1985 0.999 . S
C1983 H1953 0.950 . S
C1983 C1982 1.524 . S
C1983 C1984 1.415 . S
C1984 H1954 0.950 . S
C1984 C1979 1.363 . S
C1984 C1983 1.415 . S
H1985 C1982 0.999 . S
H1986 C1967 0.913 . S
H1987 C2005 0.951 . S
H1988 C2007 0.951 . S
H1989 C2009 0.950 . S
H1990 C2010 0.950 . S
H1991 C2012 0.950 . S
H1992 C2015 0.950 . S
H1993 C2016 0.950 . S
H1994 C2018 0.950 . S
H1995 C2019 0.950 . S
H1996 C2020 0.951 . S
H1997 C2022 0.951 . S
H1998 C2024 0.950 . S
H1999 C2025 0.950 . S
H2000 C2027 0.950 . S
H2001 C2030 0.950 . S
H2002 C2031 0.950 . S
H2003 C2033 0.950 . S
H2004 C2034 0.950 . S
C2005 H1987 0.951 . S
C2005 C2006 1.366 . S
C2005 C2007 1.388 . S
C2006 C2005 1.366 . S
C2006 C2010 1.385 . S
C2007 H1988 0.951 . S
C2007 C2005 1.388 . S
C2007 C2008 1.366 . S
C2008 C2007 1.366 . S
C2008 C2009 1.414 . S
C2008 C2011 1.499 1_565 S
C2009 H1989 0.950 . S
C2009 C2008 1.414 . S
C2009 C2010 1.374 . S
C2010 H1990 0.950 . S
C2010 C2006 1.385 . S
C2010 C2009 1.374 . S
C2011 C2008 1.499 1_545 S
C2011 C2012 1.373 . S
C2011 C2013 1.389 . S
C2012 H1991 0.950 . S
C2012 C2011 1.373 . S
C2012 C2028 1.377 . S
C2013 C2011 1.389 . S
C2013 C2014 1.524 . S
C2013 C2027 1.377 . S
C2014 C2013 1.524 . S
C2014 C2015 1.397 . S
C2014 C2019 1.363 . S
C2015 H1992 0.950 . S
C2015 C2014 1.397 . S
C2015 C2016 1.334 . S
C2016 H1993 0.950 . S
C2016 C2015 1.334 . S
C2016 C2017 1.287 . S
C2017 C2016 1.287 . S
C2017 C2018 1.524 . S
C2017 H2036 0.913 . S
C2018 H1994 0.950 . S
C2018 C2017 1.524 . S
C2018 C2019 1.415 . S
C2019 H1995 0.950 . S
C2019 C2014 1.363 . S
C2019 C2018 1.415 . S
C2020 H1996 0.951 . S
C2020 C2021 1.366 . S
C2020 C2022 1.388 . S
C2021 C2020 1.366 . S
C2021 C2025 1.385 . S
C2022 H1997 0.951 . S
C2022 C2020 1.388 . S
C2022 C2023 1.366 . S
C2023 C2022 1.366 . S
C2023 C2024 1.414 . S
C2023 C2026 1.499 . S
C2024 H1998 0.950 . S
C2024 C2023 1.414 . S
C2024 C2025 1.374 . S
C2025 H1999 0.950 . S
C2025 C2021 1.385 . S
C2025 C2024 1.374 . S
C2026 C2023 1.499 . S
C2026 C2027 1.373 . S
C2026 C2028 1.389 . S
C2027 H2000 0.950 . S
C2027 C2013 1.377 . S
C2027 C2026 1.373 . S
C2028 C2012 1.377 . S
C2028 C2026 1.389 . S
C2028 C2029 1.524 . S
C2029 C2028 1.524 . S
C2029 C2030 1.397 . S
C2029 C2034 1.363 . S
C2030 H2001 0.950 . S
C2030 C2029 1.397 . S
C2030 C2031 1.334 . S
C2031 H2002 0.950 . S
C2031 C2030 1.334 . S
C2031 C2032 1.287 . S
C2032 C2031 1.287 . S
C2032 C2033 1.524 . S
C2032 H2035 0.999 . S
C2033 H2003 0.950 . S
C2033 C2032 1.524 . S
C2033 C2034 1.415 . S
C2034 H2004 0.950 . S
C2034 C2029 1.363 . S
C2034 C2033 1.415 . S
H2035 C2032 0.999 . S
H2036 C2017 0.913 . S
H2037 C2055 0.951 . S
H2038 C2057 0.951 . S
H2039 C2059 0.950 . S
H2040 C2060 0.950 . S
H2041 C2062 0.950 . S
H2042 C2065 0.950 . S
H2043 C2066 0.950 . S
H2044 C2068 0.950 . S
H2045 C2069 0.950 . S
H2046 C2070 0.951 . S
H2047 C2072 0.951 . S
H2048 C2074 0.950 . S
H2049 C2075 0.950 . S
H2050 C2077 0.950 . S
H2051 C2080 0.950 . S
H2052 C2081 0.950 . S
H2053 C2083 0.950 . S
H2054 C2084 0.950 . S
C2055 H2037 0.951 . S
C2055 C2056 1.366 . S
C2055 C2057 1.388 . S
C2056 C2055 1.366 . S
C2056 C2060 1.385 . S
C2057 H2038 0.951 . S
C2057 C2055 1.388 . S
C2057 C2058 1.366 . S
C2058 C2057 1.366 . S
C2058 C2059 1.414 . S
C2058 C2061 1.499 . S
C2059 H2039 0.950 . S
C2059 C2058 1.414 . S
C2059 C2060 1.374 . S
C2060 H2040 0.950 . S
C2060 C2056 1.385 . S
C2060 C2059 1.374 . S
C2061 C2058 1.499 . S
C2061 C2062 1.373 . S
C2061 C2063 1.389 . S
C2062 H2041 0.950 . S
C2062 C2061 1.373 . S
C2062 C2078 1.377 . S
C2063 C2061 1.389 . S
C2063 C2064 1.524 . S
C2063 C2077 1.377 . S
C2064 C2063 1.524 . S
C2064 C2065 1.397 . S
C2064 C2069 1.363 . S
C2065 H2042 0.950 . S
C2065 C2064 1.397 . S
C2065 C2066 1.334 . S
C2066 H2043 0.950 . S
C2066 C2065 1.334 . S
C2066 C2067 1.287 . S
C2067 C2066 1.287 . S
C2067 C2068 1.524 . S
C2067 H2086 0.913 . S
C2068 H2044 0.950 . S
C2068 C2067 1.524 . S
C2068 C2069 1.415 . S
C2069 H2045 0.950 . S
C2069 C2064 1.363 . S
C2069 C2068 1.415 . S
C2070 H2046 0.951 . S
C2070 C2071 1.366 . S
C2070 C2072 1.388 . S
C2071 C2070 1.366 . S
C2071 C2075 1.385 . S
C2072 H2047 0.951 . S
C2072 C2070 1.388 . S
C2072 C2073 1.366 . S
C2073 C2072 1.366 . S
C2073 C2074 1.414 . S
C2073 C2076 1.499 . S
C2074 H2048 0.950 . S
C2074 C2073 1.414 . S
C2074 C2075 1.374 . S
C2075 H2049 0.950 . S
C2075 C2071 1.385 . S
C2075 C2074 1.374 . S
C2076 C2073 1.499 . S
C2076 C2077 1.373 . S
C2076 C2078 1.389 . S
C2077 H2050 0.950 . S
C2077 C2063 1.377 . S
C2077 C2076 1.373 . S
C2078 C2062 1.377 . S
C2078 C2076 1.389 . S
C2078 C2079 1.524 . S
C2079 C2078 1.524 . S
C2079 C2080 1.397 . S
C2079 C2084 1.363 . S
C2080 H2051 0.950 . S
C2080 C2079 1.397 . S
C2080 C2081 1.334 . S
C2081 H2052 0.950 . S
C2081 C2080 1.334 . S
C2081 C2082 1.287 . S
C2082 C2081 1.287 . S
C2082 C2083 1.524 . S
C2082 H2085 0.999 . S
C2083 H2053 0.950 . S
C2083 C2082 1.524 . S
C2083 C2084 1.415 . S
C2084 H2054 0.950 . S
C2084 C2079 1.363 . S
C2084 C2083 1.415 . S
H2085 C2082 0.999 . S
H2086 C2067 0.913 . S
H2087 C2105 0.951 . S
H2088 C2107 0.951 . S
H2089 C2109 0.950 . S
H2090 C2110 0.950 . S
H2091 C2112 0.950 . S
H2092 C2115 0.950 . S
H2093 C2116 0.950 . S
H2094 C2118 0.950 . S
H2095 C2119 0.950 . S
H2096 C2120 0.951 . S
H2097 C2122 0.951 . S
H2098 C2124 0.950 . S
H2099 C2125 0.950 . S
H2100 C2127 0.950 . S
H2101 C2130 0.950 . S
H2102 C2131 0.950 . S
H2103 C2133 0.950 . S
H2104 C2134 0.950 . S
C2105 H2087 0.951 . S
C2105 C2106 1.366 . S
C2105 C2107 1.388 . S
C2106 C2105 1.366 . S
C2106 C2110 1.385 . S
C2107 H2088 0.951 . S
C2107 C2105 1.388 . S
C2107 C2108 1.366 . S
C2108 C2107 1.366 . S
C2108 C2109 1.414 . S
C2108 C2111 1.499 . S
C2109 H2089 0.950 . S
C2109 C2108 1.414 . S
C2109 C2110 1.374 . S
C2110 H2090 0.950 . S
C2110 C2106 1.385 . S
C2110 C2109 1.374 . S
C2111 C2108 1.499 . S
C2111 C2112 1.373 . S
C2111 C2113 1.389 . S
C2112 H2091 0.950 . S
C2112 C2111 1.373 . S
C2112 C2128 1.377 . S
C2113 C2111 1.389 . S
C2113 C2114 1.524 . S
C2113 C2127 1.377 . S
C2114 C2113 1.524 . S
C2114 C2115 1.397 . S
C2114 C2119 1.363 . S
C2115 H2092 0.950 . S
C2115 C2114 1.397 . S
C2115 C2116 1.334 . S
C2116 H2093 0.950 . S
C2116 C2115 1.334 . S
C2116 C2117 1.287 . S
C2117 C2116 1.287 . S
C2117 C2118 1.524 . S
C2117 H2136 0.913 . S
C2118 H2094 0.950 . S
C2118 C2117 1.524 . S
C2118 C2119 1.415 . S
C2119 H2095 0.950 . S
C2119 C2114 1.363 . S
C2119 C2118 1.415 . S
C2120 H2096 0.951 . S
C2120 C2121 1.366 . S
C2120 C2122 1.388 . S
C2121 C2120 1.366 . S
C2121 C2125 1.385 . S
C2122 H2097 0.951 . S
C2122 C2120 1.388 . S
C2122 C2123 1.366 . S
C2123 C2122 1.366 . S
C2123 C2124 1.414 . S
C2123 C2126 1.499 . S
C2124 H2098 0.950 . S
C2124 C2123 1.414 . S
C2124 C2125 1.374 . S
C2125 H2099 0.950 . S
C2125 C2121 1.385 . S
C2125 C2124 1.374 . S
C2126 C2123 1.499 . S
C2126 C2127 1.373 . S
C2126 C2128 1.389 . S
C2127 H2100 0.950 . S
C2127 C2113 1.377 . S
C2127 C2126 1.373 . S
C2128 C2112 1.377 . S
C2128 C2126 1.389 . S
C2128 C2129 1.524 . S
C2129 C2128 1.524 . S
C2129 C2130 1.397 . S
C2129 C2134 1.363 . S
C2130 H2101 0.950 . S
C2130 C2129 1.397 . S
C2130 C2131 1.334 . S
C2131 H2102 0.950 . S
C2131 C2130 1.334 . S
C2131 C2132 1.287 . S
C2132 C2131 1.287 . S
C2132 C2133 1.524 . S
C2132 H2135 0.999 . S
C2133 H2103 0.950 . S
C2133 C2132 1.524 . S
C2133 C2134 1.415 . S
C2134 H2104 0.950 . S
C2134 C2129 1.363 . S
C2134 C2133 1.415 . S
H2135 C2132 0.999 . S
H2136 C2117 0.913 . S
H2137 C2155 0.951 . S
H2138 C2157 0.951 . S
H2139 C2159 0.950 . S
H2140 C2160 0.950 . S
H2141 C2162 0.950 . S
H2142 C2165 0.950 . S
H2143 C2166 0.950 . S
H2144 C2168 0.950 . S
H2145 C2169 0.950 . S
H2146 C2170 0.951 . S
H2147 C2172 0.951 . S
H2148 C2174 0.950 . S
H2149 C2175 0.950 . S
H2150 C2177 0.950 . S
H2151 C2180 0.950 . S
H2152 C2181 0.950 . S
H2153 C2183 0.950 . S
H2154 C2184 0.950 . S
C2155 H2137 0.951 . S
C2155 C2156 1.366 . S
C2155 C2157 1.388 . S
C2156 C2155 1.366 . S
C2156 C2160 1.385 . S
C2157 H2138 0.951 . S
C2157 C2155 1.388 . S
C2157 C2158 1.366 . S
C2158 C2157 1.366 . S
C2158 C2159 1.414 . S
C2158 C2161 1.499 . S
C2159 H2139 0.950 . S
C2159 C2158 1.414 . S
C2159 C2160 1.374 . S
C2160 H2140 0.950 . S
C2160 C2156 1.385 . S
C2160 C2159 1.374 . S
C2161 C2158 1.499 . S
C2161 C2162 1.373 . S
C2161 C2163 1.389 . S
C2162 H2141 0.950 . S
C2162 C2161 1.373 . S
C2162 C2178 1.377 . S
C2163 C2161 1.389 . S
C2163 C2164 1.524 . S
C2163 C2177 1.377 . S
C2164 C2163 1.524 . S
C2164 C2165 1.397 . S
C2164 C2169 1.363 . S
C2165 H2142 0.950 . S
C2165 C2164 1.397 . S
C2165 C2166 1.334 . S
C2166 H2143 0.950 . S
C2166 C2165 1.334 . S
C2166 C2167 1.287 . S
C2167 C2166 1.287 . S
C2167 C2168 1.524 . S
C2167 H2186 0.913 . S
C2168 H2144 0.950 . S
C2168 C2167 1.524 . S
C2168 C2169 1.415 . S
C2169 H2145 0.950 . S
C2169 C2164 1.363 . S
C2169 C2168 1.415 . S
C2170 H2146 0.951 . S
C2170 C2171 1.366 . S
C2170 C2172 1.388 . S
C2171 C2170 1.366 . S
C2171 C2175 1.385 . S
C2172 H2147 0.951 . S
C2172 C2170 1.388 . S
C2172 C2173 1.366 . S
C2173 C2172 1.366 . S
C2173 C2174 1.414 . S
C2173 C2176 1.499 . S
C2174 H2148 0.950 . S
C2174 C2173 1.414 . S
C2174 C2175 1.374 . S
C2175 H2149 0.950 . S
C2175 C2171 1.385 . S
C2175 C2174 1.374 . S
C2176 C2173 1.499 . S
C2176 C2177 1.373 . S
C2176 C2178 1.389 . S
C2177 H2150 0.950 . S
C2177 C2163 1.377 . S
C2177 C2176 1.373 . S
C2178 C2162 1.377 . S
C2178 C2176 1.389 . S
C2178 C2179 1.524 . S
C2179 C2178 1.524 . S
C2179 C2180 1.397 . S
C2179 C2184 1.363 . S
C2180 H2151 0.950 . S
C2180 C2179 1.397 . S
C2180 C2181 1.334 . S
C2181 H2152 0.950 . S
C2181 C2180 1.334 . S
C2181 C2182 1.287 . S
C2182 C2181 1.287 . S
C2182 C2183 1.524 . S
C2182 H2185 0.999 . S
C2183 H2153 0.950 . S
C2183 C2182 1.524 . S
C2183 C2184 1.415 . S
C2184 H2154 0.950 . S
C2184 C2179 1.363 . S
C2184 C2183 1.415 . S
H2185 C2182 0.999 . S
H2186 C2167 0.913 . S
H2187 C2205 0.951 . S
H2188 C2207 0.951 . S
H2189 C2209 0.950 . S
H2190 C2210 0.950 . S
H2191 C2212 0.950 . S
H2192 C2215 0.950 . S
H2193 C2216 0.950 . S
H2194 C2218 0.950 . S
H2195 C2219 0.950 1_545 S
H2196 C2220 0.951 . S
H2197 C2222 0.951 . S
H2198 C2224 0.950 1_545 S
H2199 C2225 0.950 . S
H2200 C2227 0.950 . S
H2201 C2230 0.950 . S
H2202 C2231 0.950 . S
H2203 C2233 0.950 . S
H2204 C2234 0.950 . S
C2205 H2187 0.951 . S
C2205 C2206 1.366 . S
C2205 C2207 1.388 . S
C2206 C2205 1.366 . S
C2206 C2210 1.385 . S
C2207 H2188 0.951 . S
C2207 C2205 1.388 . S
C2207 C2208 1.366 . S
C2208 C2207 1.366 . S
C2208 C2209 1.414 . S
C2208 C2211 1.499 . S
C2209 H2189 0.950 . S
C2209 C2208 1.414 . S
C2209 C2210 1.374 . S
C2210 H2190 0.950 . S
C2210 C2206 1.385 . S
C2210 C2209 1.374 . S
C2211 C2208 1.499 . S
C2211 C2212 1.373 . S
C2211 C2213 1.389 . S
C2212 H2191 0.950 . S
C2212 C2211 1.373 . S
C2212 C2228 1.377 . S
C2213 C2211 1.389 . S
C2213 C2214 1.524 . S
C2213 C2227 1.377 . S
C2214 C2213 1.524 . S
C2214 C2215 1.397 . S
C2214 C2219 1.363 . S
C2215 H2192 0.950 . S
C2215 C2214 1.397 . S
C2215 C2216 1.334 . S
C2216 H2193 0.950 . S
C2216 C2215 1.334 . S
C2216 C2217 1.287 . S
C2217 C2216 1.287 . S
C2217 C2218 1.524 1_565 S
C2217 H2236 0.913 . S
C2218 H2194 0.950 . S
C2218 C2217 1.524 1_545 S
C2218 C2219 1.415 1_545 S
C2219 H2195 0.950 1_565 S
C2219 C2214 1.363 . S
C2219 C2218 1.415 1_565 S
C2220 H2196 0.951 . S
C2220 C2221 1.366 . S
C2220 C2222 1.388 . S
C2221 C2220 1.366 . S
C2221 C2225 1.385 1_565 S
C2222 H2197 0.951 . S
C2222 C2220 1.388 . S
C2222 C2223 1.366 . S
C2223 C2222 1.366 . S
C2223 C2224 1.414 . S
C2223 C2226 1.499 . S
C2224 H2198 0.950 1_565 S
C2224 C2223 1.414 . S
C2224 C2225 1.374 1_565 S
C2225 H2199 0.950 . S
C2225 C2221 1.385 1_545 S
C2225 C2224 1.374 1_545 S
C2226 C2223 1.499 . S
C2226 C2227 1.373 . S
C2226 C2228 1.389 . S
C2227 H2200 0.950 . S
C2227 C2213 1.377 . S
C2227 C2226 1.373 . S
C2228 C2212 1.377 . S
C2228 C2226 1.389 . S
C2228 C2229 1.524 . S
C2229 C2228 1.524 . S
C2229 C2230 1.397 . S
C2229 C2234 1.363 . S
C2230 H2201 0.950 . S
C2230 C2229 1.397 . S
C2230 C2231 1.334 . S
C2231 H2202 0.950 . S
C2231 C2230 1.334 . S
C2231 C2232 1.287 . S
C2232 C2231 1.287 . S
C2232 C2233 1.524 . S
C2232 H2235 0.999 . S
C2233 H2203 0.950 . S
C2233 C2232 1.524 . S
C2233 C2234 1.415 . S
C2234 H2204 0.950 . S
C2234 C2229 1.363 . S
C2234 C2233 1.415 . S
H2235 C2232 0.999 . S
H2236 C2217 0.913 . S
H2237 C2255 0.951 . S
H2238 C2257 0.951 . S
H2239 C2259 0.950 . S
H2240 C2260 0.950 . S
H2241 C2262 0.950 . S
H2242 C2265 0.950 . S
H2243 C2266 0.950 . S
H2244 C2268 0.950 . S
H2245 C2269 0.950 . S
H2246 C2270 0.951 1_655 S
H2247 C2272 0.951 . S
H2248 C2274 0.950 . S
H2249 C2275 0.950 . S
H2250 C2277 0.950 . S
H2251 C2280 0.950 . S
H2252 C2281 0.950 . S
H2253 C2283 0.950 . S
H2254 C2284 0.950 . S
C2255 H2237 0.951 . S
C2255 C2256 1.366 . S
C2255 C2257 1.388 . S
C2256 C2255 1.366 . S
C2256 C2260 1.385 . S
C2257 H2238 0.951 . S
C2257 C2255 1.388 . S
C2257 C2258 1.366 . S
C2258 C2257 1.366 . S
C2258 C2259 1.414 . S
C2258 C2261 1.499 . S
C2259 H2239 0.950 . S
C2259 C2258 1.414 . S
C2259 C2260 1.374 . S
C2260 H2240 0.950 . S
C2260 C2256 1.385 . S
C2260 C2259 1.374 . S
C2261 C2258 1.499 . S
C2261 C2262 1.373 . S
C2261 C2263 1.389 . S
C2262 H2241 0.950 . S
C2262 C2261 1.373 . S
C2262 C2278 1.377 . S
C2263 C2261 1.389 . S
C2263 C2264 1.524 . S
C2263 C2277 1.377 . S
C2264 C2263 1.524 . S
C2264 C2265 1.397 . S
C2264 C2269 1.363 . S
C2265 H2242 0.950 . S
C2265 C2264 1.397 . S
C2265 C2266 1.334 . S
C2266 H2243 0.950 . S
C2266 C2265 1.334 . S
C2266 C2267 1.287 . S
C2267 C2266 1.287 . S
C2267 C2268 1.524 . S
C2267 H2286 0.913 . S
C2268 H2244 0.950 . S
C2268 C2267 1.524 . S
C2268 C2269 1.415 . S
C2269 H2245 0.950 . S
C2269 C2264 1.363 . S
C2269 C2268 1.415 . S
C2270 H2246 0.951 1_455 S
C2270 C2271 1.366 . S
C2270 C2272 1.388 . S
C2271 C2270 1.366 . S
C2271 C2275 1.385 . S
C2272 H2247 0.951 . S
C2272 C2270 1.388 . S
C2272 C2273 1.366 . S
C2273 C2272 1.366 . S
C2273 C2274 1.414 . S
C2273 C2276 1.499 . S
C2274 H2248 0.950 . S
C2274 C2273 1.414 . S
C2274 C2275 1.374 . S
C2275 H2249 0.950 . S
C2275 C2271 1.385 . S
C2275 C2274 1.374 . S
C2276 C2273 1.499 . S
C2276 C2277 1.373 . S
C2276 C2278 1.389 . S
C2277 H2250 0.950 . S
C2277 C2263 1.377 . S
C2277 C2276 1.373 . S
C2278 C2262 1.377 . S
C2278 C2276 1.389 . S
C2278 C2279 1.524 . S
C2279 C2278 1.524 . S
C2279 C2280 1.397 . S
C2279 C2284 1.363 1_455 S
C2280 H2251 0.950 . S
C2280 C2279 1.397 . S
C2280 C2281 1.334 1_455 S
C2281 H2252 0.950 . S
C2281 C2280 1.334 1_655 S
C2281 C2282 1.287 . S
C2282 C2281 1.287 . S
C2282 C2283 1.524 . S
C2282 H2285 0.999 . S
C2283 H2253 0.950 . S
C2283 C2282 1.524 . S
C2283 C2284 1.415 . S
C2284 H2254 0.950 . S
C2284 C2279 1.363 1_655 S
C2284 C2283 1.415 . S
H2285 C2282 0.999 . S
H2286 C2267 0.913 . S
H2287 C2305 0.951 . S
H2288 C2307 0.951 . S
H2289 C2309 0.950 . S
H2290 C2310 0.950 . S
H2291 C2312 0.950 . S
H2292 C2315 0.950 . S
H2293 C2316 0.950 . S
H2294 C2318 0.950 . S
H2295 C2319 0.950 . S
H2296 C2320 0.951 . S
H2297 C2322 0.951 . S
H2298 C2324 0.950 . S
H2299 C2325 0.950 . S
H2300 C2327 0.950 . S
H2301 C2330 0.950 . S
H2302 C2331 0.950 . S
H2303 C2333 0.950 . S
H2304 C2334 0.950 . S
C2305 H2287 0.951 . S
C2305 C2306 1.366 . S
C2305 C2307 1.388 . S
C2306 C2305 1.366 . S
C2306 C2310 1.385 . S
C2307 H2288 0.951 . S
C2307 C2305 1.388 . S
C2307 C2308 1.366 . S
C2308 C2307 1.366 . S
C2308 C2309 1.414 . S
C2308 C2311 1.499 . S
C2309 H2289 0.950 . S
C2309 C2308 1.414 . S
C2309 C2310 1.374 . S
C2310 H2290 0.950 . S
C2310 C2306 1.385 . S
C2310 C2309 1.374 . S
C2311 C2308 1.499 . S
C2311 C2312 1.373 . S
C2311 C2313 1.389 . S
C2312 H2291 0.950 . S
C2312 C2311 1.373 . S
C2312 C2328 1.377 . S
C2313 C2311 1.389 . S
C2313 C2314 1.524 . S
C2313 C2327 1.377 . S
C2314 C2313 1.524 . S
C2314 C2315 1.397 . S
C2314 C2319 1.363 . S
C2315 H2292 0.950 . S
C2315 C2314 1.397 . S
C2315 C2316 1.334 . S
C2316 H2293 0.950 . S
C2316 C2315 1.334 . S
C2316 C2317 1.287 . S
C2317 C2316 1.287 . S
C2317 C2318 1.524 . S
C2317 H2336 0.913 . S
C2318 H2294 0.950 . S
C2318 C2317 1.524 . S
C2318 C2319 1.415 . S
C2319 H2295 0.950 . S
C2319 C2314 1.363 . S
C2319 C2318 1.415 . S
C2320 H2296 0.951 . S
C2320 C2321 1.366 . S
C2320 C2322 1.388 . S
C2321 C2320 1.366 . S
C2321 C2325 1.385 . S
C2322 H2297 0.951 . S
C2322 C2320 1.388 . S
C2322 C2323 1.366 . S
C2323 C2322 1.366 . S
C2323 C2324 1.414 . S
C2323 C2326 1.499 . S
C2324 H2298 0.950 . S
C2324 C2323 1.414 . S
C2324 C2325 1.374 . S
C2325 H2299 0.950 . S
C2325 C2321 1.385 . S
C2325 C2324 1.374 . S
C2326 C2323 1.499 . S
C2326 C2327 1.373 . S
C2326 C2328 1.389 . S
C2327 H2300 0.950 . S
C2327 C2313 1.377 . S
C2327 C2326 1.373 . S
C2328 C2312 1.377 . S
C2328 C2326 1.389 . S
C2328 C2329 1.524 . S
C2329 C2328 1.524 . S
C2329 C2330 1.397 . S
C2329 C2334 1.363 . S
C2330 H2301 0.950 . S
C2330 C2329 1.397 . S
C2330 C2331 1.334 . S
C2331 H2302 0.950 . S
C2331 C2330 1.334 . S
C2331 C2332 1.287 . S
C2332 C2331 1.287 . S
C2332 C2333 1.524 . S
C2332 H2335 0.999 . S
C2333 H2303 0.950 . S
C2333 C2332 1.524 . S
C2333 C2334 1.415 . S
C2334 H2304 0.950 . S
C2334 C2329 1.363 . S
C2334 C2333 1.415 . S
H2335 C2332 0.999 . S
H2336 C2317 0.913 . S
H2337 C2355 0.951 . S
H2338 C2357 0.951 . S
H2339 C2359 0.950 . S
H2340 C2360 0.950 . S
H2341 C2362 0.950 . S
H2342 C2365 0.950 . S
H2343 C2366 0.950 . S
H2344 C2368 0.950 . S
H2345 C2369 0.950 . S
H2346 C2370 0.941 1_455 S
H2347 C2372 0.951 1_455 S
H2348 C2374 0.950 . S
H2349 C2375 0.950 . S
H2350 C2377 0.950 . S
H2351 C2380 0.950 . S
H2352 C2381 0.950 . S
H2353 C2383 0.950 . S
H2354 C2384 0.950 1_455 S
C2355 H2337 0.951 . S
C2355 C2356 1.366 . S
C2355 C2357 1.388 . S
C2356 C2355 1.366 . S
C2356 C2360 1.385 . S
C2357 H2338 0.951 . S
C2357 C2355 1.388 . S
C2357 C2358 1.366 . S
C2358 C2357 1.366 . S
C2358 C2359 1.414 . S
C2358 C2361 1.499 . S
C2359 H2339 0.950 . S
C2359 C2358 1.414 . S
C2359 C2360 1.374 . S
C2360 H2340 0.950 . S
C2360 C2356 1.385 . S
C2360 C2359 1.374 . S
C2361 C2358 1.499 . S
C2361 C2362 1.373 . S
C2361 C2363 1.389 . S
C2362 H2341 0.950 . S
C2362 C2361 1.373 . S
C2362 C2378 1.377 . S
C2363 C2361 1.389 . S
C2363 C2364 1.524 . S
C2363 C2377 1.377 . S
C2364 C2363 1.524 . S
C2364 C2365 1.397 . S
C2364 C2369 1.363 . S
C2365 H2342 0.950 . S
C2365 C2364 1.397 . S
C2365 C2366 1.334 . S
C2366 H2343 0.950 . S
C2366 C2365 1.334 . S
C2366 C2367 1.287 . S
C2367 C2366 1.287 . S
C2367 C2368 1.524 . S
C2367 H2386 0.913 . S
C2368 H2344 0.950 . S
C2368 C2367 1.524 . S
C2368 C2369 1.415 . S
C2369 H2345 0.950 . S
C2369 C2364 1.363 . S
C2369 C2368 1.415 . S
C2370 H2346 0.941 1_655 S
C2370 C2371 1.372 . S
C2370 C2372 1.391 . S
C2371 C2370 1.372 . S
C2371 C2375 1.385 . S
C2372 H2347 0.951 1_655 S
C2372 C2370 1.391 . S
C2372 C2373 1.366 . S
C2373 C2372 1.366 . S
C2373 C2374 1.414 . S
C2373 C2376 1.499 . S
C2374 H2348 0.950 . S
C2374 C2373 1.414 . S
C2374 C2375 1.374 . S
C2375 H2349 0.950 . S
C2375 C2371 1.385 . S
C2375 C2374 1.374 . S
C2376 C2373 1.499 . S
C2376 C2377 1.373 . S
C2376 C2378 1.389 . S
C2377 H2350 0.950 . S
C2377 C2363 1.377 . S
C2377 C2376 1.373 . S
C2378 C2362 1.377 . S
C2378 C2376 1.389 . S
C2378 C2379 1.524 . S
C2379 C2378 1.524 . S
C2379 C2380 1.397 . S
C2379 C2384 1.363 . S
C2380 H2351 0.950 . S
C2380 C2379 1.397 . S
C2380 C2381 1.334 . S
C2381 H2352 0.950 . S
C2381 C2380 1.334 . S
C2381 C2382 1.287 . S
C2382 C2381 1.287 . S
C2382 C2383 1.524 1_655 S
C2382 H2385 0.972 1_655 S
C2383 H2353 0.950 . S
C2383 C2382 1.524 1_455 S
C2383 C2384 1.415 1_455 S
C2384 H2354 0.950 1_655 S
C2384 C2379 1.363 . S
C2384 C2383 1.415 1_655 S
H2385 C2382 0.972 1_455 S
H2386 C2367 0.913 . S
H2387 C2405 0.951 . S
H2388 C2407 0.951 . S
H2389 C2409 0.950 . S
H2390 C2410 0.950 . S
H2391 C2412 0.950 . S
H2392 C2415 0.950 . S
H2393 C2416 0.950 . S
H2394 C2418 0.950 . S
H2395 C2419 0.950 . S
H2396 C2420 0.951 . S
H2397 C2422 0.951 . S
H2398 C2424 0.950 . S
H2399 C2425 0.950 . S
H2400 C2427 0.950 . S
H2401 C2430 0.950 . S
H2402 C2431 0.950 . S
H2403 C2433 0.950 . S
H2404 C2434 0.950 . S
C2405 H2387 0.951 . S
C2405 C2406 1.366 . S
C2405 C2407 1.388 . S
C2406 C2405 1.366 . S
C2406 C2410 1.385 . S
C2407 H2388 0.951 . S
C2407 C2405 1.388 . S
C2407 C2408 1.366 . S
C2408 C2407 1.366 . S
C2408 C2409 1.414 . S
C2408 C2411 1.499 . S
C2409 H2389 0.950 . S
C2409 C2408 1.414 . S
C2409 C2410 1.374 . S
C2410 H2390 0.950 . S
C2410 C2406 1.385 . S
C2410 C2409 1.374 . S
C2411 C2408 1.499 . S
C2411 C2412 1.373 . S
C2411 C2413 1.389 . S
C2412 H2391 0.950 . S
C2412 C2411 1.373 . S
C2412 C2428 1.377 . S
C2413 C2411 1.389 . S
C2413 C2414 1.524 . S
C2413 C2427 1.377 . S
C2414 C2413 1.524 . S
C2414 C2415 1.397 . S
C2414 C2419 1.363 . S
C2415 H2392 0.950 . S
C2415 C2414 1.397 . S
C2415 C2416 1.334 . S
C2416 H2393 0.950 . S
C2416 C2415 1.334 . S
C2416 C2417 1.287 . S
C2417 C2416 1.287 . S
C2417 C2418 1.524 . S
C2417 H2436 0.913 . S
C2418 H2394 0.950 . S
C2418 C2417 1.524 . S
C2418 C2419 1.415 . S
C2419 H2395 0.950 . S
C2419 C2414 1.363 . S
C2419 C2418 1.415 . S
C2420 H2396 0.951 . S
C2420 C2421 1.366 . S
C2420 C2422 1.388 . S
C2421 C2420 1.366 . S
C2421 C2425 1.385 . S
C2422 H2397 0.951 . S
C2422 C2420 1.388 . S
C2422 C2423 1.366 . S
C2423 C2422 1.366 . S
C2423 C2424 1.414 . S
C2423 C2426 1.499 . S
C2424 H2398 0.950 . S
C2424 C2423 1.414 . S
C2424 C2425 1.374 . S
C2425 H2399 0.950 . S
C2425 C2421 1.385 . S
C2425 C2424 1.374 . S
C2426 C2423 1.499 . S
C2426 C2427 1.373 . S
C2426 C2428 1.389 . S
C2427 H2400 0.950 . S
C2427 C2413 1.377 . S
C2427 C2426 1.373 . S
C2428 C2412 1.377 . S
C2428 C2426 1.389 . S
C2428 C2429 1.524 . S
C2429 C2428 1.524 . S
C2429 C2430 1.397 . S
C2429 C2434 1.363 . S
C2430 H2401 0.950 . S
C2430 C2429 1.397 . S
C2430 C2431 1.334 . S
C2431 H2402 0.950 . S
C2431 C2430 1.334 . S
C2431 C2432 1.287 . S
C2432 C2431 1.287 . S
C2432 C2433 1.524 . S
C2432 H2435 0.999 . S
C2433 H2403 0.950 . S
C2433 C2432 1.524 . S
C2433 C2434 1.415 . S
C2434 H2404 0.950 . S
C2434 C2429 1.363 . S
C2434 C2433 1.415 . S
H2435 C2432 0.999 . S
H2436 C2417 0.913 . S
H2437 C2455 0.951 . S
H2438 C2457 0.951 . S
H2439 C2459 0.950 . S
H2440 C2460 0.950 . S
H2441 C2462 0.950 . S
H2442 C2465 0.950 . S
H2443 C2466 0.951 . S
H2444 C2468 0.950 . S
H2445 C2469 0.950 . S
H2446 C2470 0.951 . S
H2447 C2472 0.951 . S
H2448 C2474 0.950 . S
H2449 C2475 0.950 . S
H2450 C2477 0.950 . S
H2451 C2480 0.950 . S
H2452 C2481 0.950 . S
H2453 C2483 0.950 . S
H2454 C2484 0.950 . S
C2455 H2437 0.951 . S
C2455 C2456 1.366 . S
C2455 C2457 1.388 . S
C2456 C2455 1.366 . S
C2456 C2460 1.385 . S
C2457 H2438 0.951 . S
C2457 C2455 1.388 . S
C2457 C2458 1.366 . S
C2458 C2457 1.366 . S
C2458 C2459 1.414 . S
C2458 C2461 1.499 . S
C2459 H2439 0.950 . S
C2459 C2458 1.414 . S
C2459 C2460 1.374 . S
C2460 H2440 0.950 . S
C2460 C2456 1.385 . S
C2460 C2459 1.374 . S
C2461 C2458 1.499 . S
C2461 C2462 1.373 . S
C2461 C2463 1.389 . S
C2462 H2441 0.950 . S
C2462 C2461 1.373 . S
C2462 C2478 1.377 . S
C2463 C2461 1.389 . S
C2463 C2464 1.524 . S
C2463 C2477 1.377 . S
C2464 C2463 1.524 . S
C2464 C2465 1.397 . S
C2464 C2469 1.363 . S
C2465 H2442 0.950 . S
C2465 C2464 1.397 . S
C2465 C2466 1.334 . S
C2466 H2443 0.951 . S
C2466 C2465 1.334 . S
C2466 C2467 1.287 . S
C2467 C2466 1.287 . S
C2467 C2468 1.524 . S
C2467 H2486 0.913 1_545 S
C2468 H2444 0.950 . S
C2468 C2467 1.524 . S
C2468 C2469 1.415 . S
C2469 H2445 0.950 . S
C2469 C2464 1.363 . S
C2469 C2468 1.415 . S
C2470 H2446 0.951 . S
C2470 C2471 1.366 . S
C2470 C2472 1.388 . S
C2471 C2470 1.366 . S
C2471 C2475 1.385 . S
C2472 H2447 0.951 . S
C2472 C2470 1.388 . S
C2472 C2473 1.366 . S
C2473 C2472 1.366 . S
C2473 C2474 1.414 . S
C2473 C2476 1.499 . S
C2474 H2448 0.950 . S
C2474 C2473 1.414 . S
C2474 C2475 1.374 . S
C2475 H2449 0.950 . S
C2475 C2471 1.385 . S
C2475 C2474 1.374 . S
C2476 C2473 1.499 . S
C2476 C2477 1.373 . S
C2476 C2478 1.389 . S
C2477 H2450 0.950 . S
C2477 C2463 1.377 . S
C2477 C2476 1.373 . S
C2478 C2462 1.377 . S
C2478 C2476 1.389 . S
C2478 C2479 1.524 . S
C2479 C2478 1.524 . S
C2479 C2480 1.397 . S
C2479 C2484 1.363 . S
C2480 H2451 0.950 . S
C2480 C2479 1.397 . S
C2480 C2481 1.334 . S
C2481 H2452 0.950 . S
C2481 C2480 1.334 . S
C2481 C2482 1.287 . S
C2482 C2481 1.287 . S
C2482 C2483 1.524 . S
C2482 H2485 0.999 . S
C2483 H2453 0.950 . S
C2483 C2482 1.524 . S
C2483 C2484 1.415 . S
C2484 H2454 0.950 . S
C2484 C2479 1.363 . S
C2484 C2483 1.415 . S
H2485 C2482 0.999 . S
H2486 C2467 0.913 1_565 S
H2487 C2505 0.951 . S
H2488 C2507 0.951 . S
H2489 C2509 0.950 . S
H2490 C2510 0.950 . S
H2491 C2512 0.950 . S
H2492 C2515 0.950 . S
H2493 C2516 0.950 . S
H2494 C2518 0.950 . S
H2495 C2519 0.950 . S
H2496 C2520 0.951 . S
H2497 C2522 0.951 . S
H2498 C2524 0.950 . S
H2499 C2525 0.950 . S
H2500 C2527 0.950 . S
H2501 C2530 0.950 . S
H2502 C2531 0.950 . S
H2503 C2533 0.950 . S
H2504 C2534 0.950 . S
C2505 H2487 0.951 . S
C2505 C2506 1.366 . S
C2505 C2507 1.388 . S
C2506 C2505 1.366 . S
C2506 C2510 1.385 . S
C2507 H2488 0.951 . S
C2507 C2505 1.388 . S
C2507 C2508 1.366 . S
C2508 C2507 1.366 . S
C2508 C2509 1.414 . S
C2508 C2511 1.499 . S
C2509 H2489 0.950 . S
C2509 C2508 1.414 . S
C2509 C2510 1.374 . S
C2510 H2490 0.950 . S
C2510 C2506 1.385 . S
C2510 C2509 1.374 . S
C2511 C2508 1.499 . S
C2511 C2512 1.373 . S
C2511 C2513 1.389 . S
C2512 H2491 0.950 . S
C2512 C2511 1.373 . S
C2512 C2528 1.377 . S
C2513 C2511 1.389 . S
C2513 C2514 1.524 . S
C2513 C2527 1.377 . S
C2514 C2513 1.524 . S
C2514 C2515 1.397 . S
C2514 C2519 1.363 . S
C2515 H2492 0.950 . S
C2515 C2514 1.397 . S
C2515 C2516 1.334 . S
C2516 H2493 0.950 . S
C2516 C2515 1.334 . S
C2516 C2517 1.287 . S
C2517 C2516 1.287 . S
C2517 C2518 1.524 . S
C2517 H2536 0.913 . S
C2518 H2494 0.950 . S
C2518 C2517 1.524 . S
C2518 C2519 1.415 . S
C2519 H2495 0.950 . S
C2519 C2514 1.363 . S
C2519 C2518 1.415 . S
C2520 H2496 0.951 . S
C2520 C2521 1.366 . S
C2520 C2522 1.388 . S
C2521 C2520 1.366 . S
C2521 C2525 1.385 . S
C2522 H2497 0.951 . S
C2522 C2520 1.388 . S
C2522 C2523 1.366 . S
C2523 C2522 1.366 . S
C2523 C2524 1.414 . S
C2523 C2526 1.499 . S
C2524 H2498 0.950 . S
C2524 C2523 1.414 . S
C2524 C2525 1.374 . S
C2525 H2499 0.950 . S
C2525 C2521 1.385 . S
C2525 C2524 1.374 . S
C2526 C2523 1.499 . S
C2526 C2527 1.373 . S
C2526 C2528 1.389 . S
C2527 H2500 0.950 . S
C2527 C2513 1.377 . S
C2527 C2526 1.373 . S
C2528 C2512 1.377 . S
C2528 C2526 1.389 . S
C2528 C2529 1.524 . S
C2529 C2528 1.524 . S
C2529 C2530 1.397 . S
C2529 C2534 1.363 . S
C2530 H2501 0.950 . S
C2530 C2529 1.397 . S
C2530 C2531 1.334 . S
C2531 H2502 0.950 . S
C2531 C2530 1.334 . S
C2531 C2532 1.287 . S
C2532 C2531 1.287 . S
C2532 C2533 1.524 . S
C2532 H2535 0.999 . S
C2533 H2503 0.950 . S
C2533 C2532 1.524 . S
C2533 C2534 1.415 . S
C2534 H2504 0.950 . S
C2534 C2529 1.363 . S
C2534 C2533 1.415 . S
H2535 C2532 0.999 . S
H2536 C2517 0.913 . S
H2537 C2555 0.951 . S
H2538 C2557 0.951 . S
H2539 C2559 0.950 . S
H2540 C2560 0.950 . S
H2541 C2562 0.950 . S
H2542 C2565 0.950 . S
H2543 C2566 0.950 . S
H2544 C2568 0.950 . S
H2545 C2569 0.950 . S
H2546 C2570 0.951 . S
H2547 C2572 0.951 . S
H2548 C2574 0.950 . S
H2549 C2575 0.950 . S
H2550 C2577 0.950 . S
H2551 C2580 0.950 . S
H2552 C2581 0.950 . S
H2553 C2583 0.950 . S
H2554 C2584 0.950 . S
C2555 H2537 0.951 . S
C2555 C2556 1.366 . S
C2555 C2557 1.388 . S
C2556 C2555 1.366 . S
C2556 C2560 1.385 . S
C2557 H2538 0.951 . S
C2557 C2555 1.388 . S
C2557 C2558 1.366 . S
C2558 C2557 1.366 . S
C2558 C2559 1.414 . S
C2558 C2561 1.499 . S
C2559 H2539 0.950 . S
C2559 C2558 1.414 . S
C2559 C2560 1.374 . S
C2560 H2540 0.950 . S
C2560 C2556 1.385 . S
C2560 C2559 1.374 . S
C2561 C2558 1.499 . S
C2561 C2562 1.373 . S
C2561 C2563 1.389 . S
C2562 H2541 0.950 . S
C2562 C2561 1.373 . S
C2562 C2578 1.377 . S
C2563 C2561 1.389 . S
C2563 C2564 1.524 . S
C2563 C2577 1.377 . S
C2564 C2563 1.524 . S
C2564 C2565 1.397 . S
C2564 C2569 1.363 . S
C2565 H2542 0.950 . S
C2565 C2564 1.397 . S
C2565 C2566 1.334 . S
C2566 H2543 0.950 . S
C2566 C2565 1.334 . S
C2566 C2567 1.287 . S
C2567 C2566 1.287 . S
C2567 C2568 1.524 . S
C2567 H2586 0.913 . S
C2568 H2544 0.950 . S
C2568 C2567 1.524 . S
C2568 C2569 1.415 . S
C2569 H2545 0.950 . S
C2569 C2564 1.363 . S
C2569 C2568 1.415 . S
C2570 H2546 0.951 . S
C2570 C2571 1.366 . S
C2570 C2572 1.388 . S
C2571 C2570 1.366 . S
C2571 C2575 1.385 . S
C2572 H2547 0.951 . S
C2572 C2570 1.388 . S
C2572 C2573 1.366 . S
C2573 C2572 1.366 . S
C2573 C2574 1.414 . S
C2573 C2576 1.499 . S
C2574 H2548 0.950 . S
C2574 C2573 1.414 . S
C2574 C2575 1.374 . S
C2575 H2549 0.950 . S
C2575 C2571 1.385 . S
C2575 C2574 1.374 . S
C2576 C2573 1.499 . S
C2576 C2577 1.373 . S
C2576 C2578 1.389 . S
C2577 H2550 0.950 . S
C2577 C2563 1.377 . S
C2577 C2576 1.373 . S
C2578 C2562 1.377 . S
C2578 C2576 1.389 . S
C2578 C2579 1.524 . S
C2579 C2578 1.524 . S
C2579 C2580 1.397 . S
C2579 C2584 1.363 . S
C2580 H2551 0.950 . S
C2580 C2579 1.397 . S
C2580 C2581 1.334 . S
C2581 H2552 0.950 . S
C2581 C2580 1.334 . S
C2581 C2582 1.287 . S
C2582 C2581 1.287 . S
C2582 C2583 1.524 . S
C2582 H2585 0.999 . S
C2583 H2553 0.950 . S
C2583 C2582 1.524 . S
C2583 C2584 1.415 . S
C2584 H2554 0.950 . S
C2584 C2579 1.363 . S
C2584 C2583 1.415 . S
H2585 C2582 0.999 . S
H2586 C2567 0.913 . S
H2587 C2605 0.951 . S
H2588 C2607 0.951 . S
H2589 C2609 0.950 . S
H2590 C2610 0.950 . S
H2591 C2612 0.950 . S
H2592 C2615 0.950 . S
H2593 C2616 0.950 . S
H2594 C2618 0.950 . S
H2595 C2619 0.950 . S
H2596 C2620 0.951 . S
H2597 C2622 0.951 . S
H2598 C2624 0.950 . S
H2599 C2625 0.950 . S
H2600 C2627 0.950 . S
H2601 C2630 0.950 . S
H2602 C2631 0.950 . S
H2603 C2633 0.950 . S
H2604 C2634 0.950 . S
C2605 H2587 0.951 . S
C2605 C2606 1.366 . S
C2605 C2607 1.388 . S
C2606 C2605 1.366 . S
C2606 C2610 1.385 . S
C2607 H2588 0.951 . S
C2607 C2605 1.388 . S
C2607 C2608 1.366 . S
C2608 C2607 1.366 . S
C2608 C2609 1.414 . S
C2608 C2611 1.499 . S
C2609 H2589 0.950 . S
C2609 C2608 1.414 . S
C2609 C2610 1.374 . S
C2610 H2590 0.950 . S
C2610 C2606 1.385 . S
C2610 C2609 1.374 . S
C2611 C2608 1.499 . S
C2611 C2612 1.373 . S
C2611 C2613 1.389 . S
C2612 H2591 0.950 . S
C2612 C2611 1.373 . S
C2612 C2628 1.377 . S
C2613 C2611 1.389 . S
C2613 C2614 1.524 . S
C2613 C2627 1.377 . S
C2614 C2613 1.524 . S
C2614 C2615 1.397 . S
C2614 C2619 1.363 . S
C2615 H2592 0.950 . S
C2615 C2614 1.397 . S
C2615 C2616 1.334 . S
C2616 H2593 0.950 . S
C2616 C2615 1.334 . S
C2616 C2617 1.287 . S
C2617 C2616 1.287 . S
C2617 C2618 1.524 . S
C2617 H2636 0.913 . S
C2618 H2594 0.950 . S
C2618 C2617 1.524 . S
C2618 C2619 1.415 . S
C2619 H2595 0.950 . S
C2619 C2614 1.363 . S
C2619 C2618 1.415 . S
C2620 H2596 0.951 . S
C2620 C2621 1.366 . S
C2620 C2622 1.388 . S
C2621 C2620 1.366 . S
C2621 C2625 1.385 . S
C2622 H2597 0.951 . S
C2622 C2620 1.388 . S
C2622 C2623 1.366 . S
C2623 C2622 1.366 . S
C2623 C2624 1.414 . S
C2623 C2626 1.499 . S
C2624 H2598 0.950 . S
C2624 C2623 1.414 . S
C2624 C2625 1.374 . S
C2625 H2599 0.950 . S
C2625 C2621 1.385 . S
C2625 C2624 1.374 . S
C2626 C2623 1.499 . S
C2626 C2627 1.373 . S
C2626 C2628 1.389 . S
C2627 H2600 0.950 . S
C2627 C2613 1.377 . S
C2627 C2626 1.373 . S
C2628 C2612 1.377 . S
C2628 C2626 1.389 . S
C2628 C2629 1.524 . S
C2629 C2628 1.524 . S
C2629 C2630 1.397 . S
C2629 C2634 1.363 . S
C2630 H2601 0.950 . S
C2630 C2629 1.397 . S
C2630 C2631 1.334 . S
C2631 H2602 0.950 . S
C2631 C2630 1.334 . S
C2631 C2632 1.287 . S
C2632 C2631 1.287 . S
C2632 C2633 1.524 . S
C2632 H2635 0.999 . S
C2633 H2603 0.950 . S
C2633 C2632 1.524 . S
C2633 C2634 1.415 . S
C2634 H2604 0.950 . S
C2634 C2629 1.363 . S
C2634 C2633 1.415 . S
H2635 C2632 0.999 . S
H2636 C2617 0.913 . S
H2637 C2655 0.951 . S
H2638 C2657 0.951 . S
H2639 C2659 0.950 . S
H2640 C2660 0.950 . S
H2641 C2662 0.950 . S
H2642 C2665 0.950 . S
H2643 C2666 0.950 . S
H2644 C2668 0.950 . S
H2645 C2669 0.950 . S
H2646 C2670 0.951 . S
H2647 C2672 0.951 . S
H2648 C2674 0.950 . S
H2649 C2675 0.950 . S
H2650 C2677 0.950 . S
H2651 C2680 0.950 . S
H2652 C2681 0.950 . S
H2653 C2683 0.950 . S
H2654 C2684 0.950 . S
C2655 H2637 0.951 . S
C2655 C2656 1.366 . S
C2655 C2657 1.388 . S
C2656 C2655 1.366 . S
C2656 C2660 1.385 . S
C2657 H2638 0.951 . S
C2657 C2655 1.388 . S
C2657 C2658 1.366 . S
C2658 C2657 1.366 . S
C2658 C2659 1.414 . S
C2658 C2661 1.499 . S
C2659 H2639 0.950 . S
C2659 C2658 1.414 . S
C2659 C2660 1.374 . S
C2660 H2640 0.950 . S
C2660 C2656 1.385 . S
C2660 C2659 1.374 . S
C2661 C2658 1.499 . S
C2661 C2662 1.373 . S
C2661 C2663 1.389 . S
C2662 H2641 0.950 . S
C2662 C2661 1.373 . S
C2662 C2678 1.377 . S
C2663 C2661 1.389 . S
C2663 C2664 1.524 . S
C2663 C2677 1.377 . S
C2664 C2663 1.524 . S
C2664 C2665 1.397 . S
C2664 C2669 1.363 . S
C2665 H2642 0.950 . S
C2665 C2664 1.397 . S
C2665 C2666 1.334 . S
C2666 H2643 0.950 . S
C2666 C2665 1.334 . S
C2666 C2667 1.287 . S
C2667 C2666 1.287 . S
C2667 C2668 1.524 . S
C2667 H2686 0.913 . S
C2668 H2644 0.950 . S
C2668 C2667 1.524 . S
C2668 C2669 1.415 . S
C2669 H2645 0.950 . S
C2669 C2664 1.363 . S
C2669 C2668 1.415 . S
C2670 H2646 0.951 . S
C2670 C2671 1.366 . S
C2670 C2672 1.388 . S
C2671 C2670 1.366 . S
C2671 C2675 1.385 . S
C2672 H2647 0.951 . S
C2672 C2670 1.388 . S
C2672 C2673 1.366 . S
C2673 C2672 1.366 . S
C2673 C2674 1.414 . S
C2673 C2676 1.499 . S
C2674 H2648 0.950 . S
C2674 C2673 1.414 . S
C2674 C2675 1.374 . S
C2675 H2649 0.950 . S
C2675 C2671 1.385 . S
C2675 C2674 1.374 . S
C2676 C2673 1.499 . S
C2676 C2677 1.373 . S
C2676 C2678 1.389 . S
C2677 H2650 0.950 . S
C2677 C2663 1.377 . S
C2677 C2676 1.373 . S
C2678 C2662 1.377 . S
C2678 C2676 1.389 . S
C2678 C2679 1.524 . S
C2679 C2678 1.524 . S
C2679 C2680 1.397 . S
C2679 C2684 1.363 . S
C2680 H2651 0.950 . S
C2680 C2679 1.397 . S
C2680 C2681 1.334 . S
C2681 H2652 0.950 . S
C2681 C2680 1.334 . S
C2681 C2682 1.287 . S
C2682 C2681 1.287 . S
C2682 C2683 1.524 . S
C2682 H2685 0.999 . S
C2683 H2653 0.950 . S
C2683 C2682 1.524 . S
C2683 C2684 1.415 . S
C2684 H2654 0.950 . S
C2684 C2679 1.363 . S
C2684 C2683 1.415 . S
H2685 C2682 0.999 . S
H2686 C2667 0.913 . S
H2687 C2705 0.951 . S
H2688 C2707 0.951 . S
H2689 C2709 0.950 . S
H2690 C2710 0.950 . S
H2691 C2712 0.950 . S
H2692 C2715 0.950 . S
H2693 C2716 0.950 . S
H2694 C2718 0.950 . S
H2695 C2719 0.950 . S
H2696 C2720 0.951 . S
H2697 C2722 0.951 . S
H2698 C2724 0.950 . S
H2699 C2725 0.950 . S
H2700 C2727 0.950 . S
H2701 C2730 0.950 . S
H2702 C2731 0.950 . S
H2703 C2733 0.950 . S
H2704 C2734 0.950 . S
C2705 H2687 0.951 . S
C2705 C2706 1.366 . S
C2705 C2707 1.388 . S
C2706 C2705 1.366 . S
C2706 C2710 1.385 . S
C2707 H2688 0.951 . S
C2707 C2705 1.388 . S
C2707 C2708 1.366 . S
C2708 C2707 1.366 . S
C2708 C2709 1.414 . S
C2708 C2711 1.499 . S
C2709 H2689 0.950 . S
C2709 C2708 1.414 . S
C2709 C2710 1.374 . S
C2710 H2690 0.950 . S
C2710 C2706 1.385 . S
C2710 C2709 1.374 . S
C2711 C2708 1.499 . S
C2711 C2712 1.373 . S
C2711 C2713 1.389 . S
C2712 H2691 0.950 . S
C2712 C2711 1.373 . S
C2712 C2728 1.377 . S
C2713 C2711 1.389 . S
C2713 C2714 1.524 . S
C2713 C2727 1.377 . S
C2714 C2713 1.524 . S
C2714 C2715 1.397 . S
C2714 C2719 1.363 . S
C2715 H2692 0.950 . S
C2715 C2714 1.397 . S
C2715 C2716 1.334 . S
C2716 H2693 0.950 . S
C2716 C2715 1.334 . S
C2716 C2717 1.287 . S
C2717 C2716 1.287 . S
C2717 C2718 1.524 . S
C2717 H2736 0.913 . S
C2718 H2694 0.950 . S
C2718 C2717 1.524 . S
C2718 C2719 1.415 . S
C2719 H2695 0.950 . S
C2719 C2714 1.363 . S
C2719 C2718 1.415 . S
C2720 H2696 0.951 . S
C2720 C2721 1.366 . S
C2720 C2722 1.388 . S
C2721 C2720 1.366 . S
C2721 C2725 1.385 . S
C2722 H2697 0.951 . S
C2722 C2720 1.388 . S
C2722 C2723 1.366 . S
C2723 C2722 1.366 . S
C2723 C2724 1.414 . S
C2723 C2726 1.499 . S
C2724 H2698 0.950 . S
C2724 C2723 1.414 . S
C2724 C2725 1.374 . S
C2725 H2699 0.950 . S
C2725 C2721 1.385 . S
C2725 C2724 1.374 . S
C2726 C2723 1.499 . S
C2726 C2727 1.373 . S
C2726 C2728 1.389 . S
C2727 H2700 0.950 . S
C2727 C2713 1.377 . S
C2727 C2726 1.373 . S
C2728 C2712 1.377 . S
C2728 C2726 1.389 . S
C2728 C2729 1.524 . S
C2729 C2728 1.524 . S
C2729 C2730 1.397 . S
C2729 C2734 1.363 . S
C2730 H2701 0.950 . S
C2730 C2729 1.397 . S
C2730 C2731 1.334 . S
C2731 H2702 0.950 . S
C2731 C2730 1.334 . S
C2731 C2732 1.287 . S
C2732 C2731 1.287 . S
C2732 C2733 1.524 . S
C2732 H2735 0.999 . S
C2733 H2703 0.950 . S
C2733 C2732 1.524 . S
C2733 C2734 1.415 . S
C2734 H2704 0.950 . S
C2734 C2729 1.363 . S
C2734 C2733 1.415 . S
H2735 C2732 0.999 . S
H2736 C2717 0.913 . S
H2737 C2755 0.951 . S
H2738 C2757 0.951 . S
H2739 C2759 0.950 . S
H2740 C2760 0.950 . S
H2741 C2762 0.950 . S
H2742 C2765 0.950 . S
H2743 C2766 0.950 . S
H2744 C2768 0.950 . S
H2745 C2769 0.950 . S
H2746 C2770 0.951 . S
H2747 C2772 0.951 . S
H2748 C2774 0.950 . S
H2749 C2775 0.950 . S
H2750 C2777 0.950 . S
H2751 C2780 0.950 . S
H2752 C2781 0.950 . S
H2753 C2783 0.950 . S
H2754 C2784 0.950 . S
C2755 H2737 0.951 . S
C2755 C2756 1.366 . S
C2755 C2757 1.388 . S
C2756 C2755 1.366 . S
C2756 C2760 1.385 . S
C2757 H2738 0.951 . S
C2757 C2755 1.388 . S
C2757 C2758 1.366 . S
C2758 C2757 1.366 . S
C2758 C2759 1.414 . S
C2758 C2761 1.499 . S
C2759 H2739 0.950 . S
C2759 C2758 1.414 . S
C2759 C2760 1.374 . S
C2760 H2740 0.950 . S
C2760 C2756 1.385 . S
C2760 C2759 1.374 . S
C2761 C2758 1.499 . S
C2761 C2762 1.373 . S
C2761 C2763 1.389 . S
C2762 H2741 0.950 . S
C2762 C2761 1.373 . S
C2762 C2778 1.377 . S
C2763 C2761 1.389 . S
C2763 C2764 1.524 . S
C2763 C2777 1.377 . S
C2764 C2763 1.524 . S
C2764 C2765 1.397 . S
C2764 C2769 1.363 . S
C2765 H2742 0.950 . S
C2765 C2764 1.397 . S
C2765 C2766 1.334 . S
C2766 H2743 0.950 . S
C2766 C2765 1.334 . S
C2766 C2767 1.287 . S
C2767 C2766 1.287 . S
C2767 C2768 1.524 . S
C2767 H2786 0.913 . S
C2768 H2744 0.950 . S
C2768 C2767 1.524 . S
C2768 C2769 1.415 . S
C2769 H2745 0.950 . S
C2769 C2764 1.363 . S
C2769 C2768 1.415 . S
C2770 H2746 0.951 . S
C2770 C2771 1.366 . S
C2770 C2772 1.388 . S
C2771 C2770 1.366 . S
C2771 C2775 1.385 . S
C2772 H2747 0.951 . S
C2772 C2770 1.388 . S
C2772 C2773 1.366 . S
C2773 C2772 1.366 . S
C2773 C2774 1.414 . S
C2773 C2776 1.499 . S
C2774 H2748 0.950 . S
C2774 C2773 1.414 . S
C2774 C2775 1.374 . S
C2775 H2749 0.950 . S
C2775 C2771 1.385 . S
C2775 C2774 1.374 . S
C2776 C2773 1.499 . S
C2776 C2777 1.373 . S
C2776 C2778 1.389 . S
C2777 H2750 0.950 . S
C2777 C2763 1.377 . S
C2777 C2776 1.373 . S
C2778 C2762 1.377 . S
C2778 C2776 1.389 . S
C2778 C2779 1.524 . S
C2779 C2778 1.524 . S
C2779 C2780 1.397 . S
C2779 C2784 1.363 . S
C2780 H2751 0.950 . S
C2780 C2779 1.397 . S
C2780 C2781 1.334 . S
C2781 H2752 0.950 . S
C2781 C2780 1.334 . S
C2781 C2782 1.287 . S
C2782 C2781 1.287 . S
C2782 C2783 1.524 . S
C2782 H2785 0.999 . S
C2783 H2753 0.950 . S
C2783 C2782 1.524 . S
C2783 C2784 1.415 . S
C2784 H2754 0.950 . S
C2784 C2779 1.363 . S
C2784 C2783 1.415 . S
H2785 C2782 0.999 . S
H2786 C2767 0.913 . S
H2787 C2805 0.951 . S
H2788 C2807 0.951 . S
H2789 C2809 0.950 . S
H2790 C2810 0.950 . S
H2791 C2812 0.950 . S
H2792 C2815 0.950 . S
H2793 C2816 0.950 . S
H2794 C2818 0.950 . S
H2795 C2819 0.950 . S
H2796 C2820 0.951 . S
H2797 C2822 0.951 . S
H2798 C2824 0.950 . S
H2799 C2825 0.950 . S
H2800 C2827 0.950 . S
H2801 C2830 0.950 . S
H2802 C2831 0.950 . S
H2803 C2833 0.950 . S
H2804 C2834 0.950 . S
C2805 H2787 0.951 . S
C2805 C2806 1.366 . S
C2805 C2807 1.388 . S
C2806 C2805 1.366 . S
C2806 C2810 1.385 . S
C2807 H2788 0.951 . S
C2807 C2805 1.388 . S
C2807 C2808 1.366 . S
C2808 C2807 1.366 . S
C2808 C2809 1.414 . S
C2808 C2811 1.499 . S
C2809 H2789 0.950 . S
C2809 C2808 1.414 . S
C2809 C2810 1.374 . S
C2810 H2790 0.950 . S
C2810 C2806 1.385 . S
C2810 C2809 1.374 . S
C2811 C2808 1.499 . S
C2811 C2812 1.373 . S
C2811 C2813 1.389 . S
C2812 H2791 0.950 . S
C2812 C2811 1.373 . S
C2812 C2828 1.377 . S
C2813 C2811 1.389 . S
C2813 C2814 1.524 . S
C2813 C2827 1.377 . S
C2814 C2813 1.524 . S
C2814 C2815 1.397 . S
C2814 C2819 1.363 . S
C2815 H2792 0.950 . S
C2815 C2814 1.397 . S
C2815 C2816 1.334 . S
C2816 H2793 0.950 . S
C2816 C2815 1.334 . S
C2816 C2817 1.287 . S
C2817 C2816 1.287 . S
C2817 C2818 1.524 . S
C2817 H2836 0.913 . S
C2818 H2794 0.950 . S
C2818 C2817 1.524 . S
C2818 C2819 1.415 . S
C2819 H2795 0.950 . S
C2819 C2814 1.363 . S
C2819 C2818 1.415 . S
C2820 H2796 0.951 . S
C2820 C2821 1.366 . S
C2820 C2822 1.388 . S
C2821 C2820 1.366 . S
C2821 C2825 1.385 . S
C2822 H2797 0.951 . S
C2822 C2820 1.388 . S
C2822 C2823 1.366 . S
C2823 C2822 1.366 . S
C2823 C2824 1.414 . S
C2823 C2826 1.499 . S
C2824 H2798 0.950 . S
C2824 C2823 1.414 . S
C2824 C2825 1.374 . S
C2825 H2799 0.950 . S
C2825 C2821 1.385 . S
C2825 C2824 1.374 . S
C2826 C2823 1.499 . S
C2826 C2827 1.373 . S
C2826 C2828 1.389 . S
C2827 H2800 0.950 . S
C2827 C2813 1.377 . S
C2827 C2826 1.373 . S
C2828 C2812 1.377 . S
C2828 C2826 1.389 . S
C2828 C2829 1.524 . S
C2829 C2828 1.524 . S
C2829 C2830 1.397 . S
C2829 C2834 1.363 . S
C2830 H2801 0.950 . S
C2830 C2829 1.397 . S
C2830 C2831 1.334 . S
C2831 H2802 0.950 . S
C2831 C2830 1.334 . S
C2831 C2832 1.287 . S
C2832 C2831 1.287 . S
C2832 C2833 1.524 . S
C2832 H2835 0.999 . S
C2833 H2803 0.950 . S
C2833 C2832 1.524 . S
C2833 C2834 1.415 . S
C2834 H2804 0.950 . S
C2834 C2829 1.363 . S
C2834 C2833 1.415 . S
H2835 C2832 0.999 . S
H2836 C2817 0.913 . S
H2837 C2855 0.951 . S
H2838 C2857 0.951 . S
H2839 C2859 0.950 . S
H2840 C2860 0.950 . S
H2841 C2862 0.950 . S
H2842 C2865 0.950 . S
H2843 C2866 0.950 . S
H2844 C2868 0.950 . S
H2845 C2869 0.950 . S
H2846 C2870 0.951 . S
H2847 C2872 0.951 . S
H2848 C2874 0.950 . S
H2849 C2875 0.950 . S
H2850 C2877 0.950 . S
H2851 C2880 0.950 . S
H2852 C2881 0.950 . S
H2853 C2883 0.950 . S
H2854 C2884 0.950 . S
C2855 H2837 0.951 . S
C2855 C2856 1.366 . S
C2855 C2857 1.388 . S
C2856 C2855 1.366 . S
C2856 C2860 1.385 . S
C2857 H2838 0.951 . S
C2857 C2855 1.388 . S
C2857 C2858 1.366 . S
C2858 C2857 1.366 . S
C2858 C2859 1.414 . S
C2858 C2861 1.499 . S
C2859 H2839 0.950 . S
C2859 C2858 1.414 . S
C2859 C2860 1.374 . S
C2860 H2840 0.950 . S
C2860 C2856 1.385 . S
C2860 C2859 1.374 . S
C2861 C2858 1.499 . S
C2861 C2862 1.373 . S
C2861 C2863 1.389 . S
C2862 H2841 0.950 . S
C2862 C2861 1.373 . S
C2862 C2878 1.377 . S
C2863 C2861 1.389 . S
C2863 C2864 1.524 . S
C2863 C2877 1.377 . S
C2864 C2863 1.524 . S
C2864 C2865 1.397 . S
C2864 C2869 1.363 . S
C2865 H2842 0.950 . S
C2865 C2864 1.397 . S
C2865 C2866 1.334 . S
C2866 H2843 0.950 . S
C2866 C2865 1.334 . S
C2866 C2867 1.287 . S
C2867 C2866 1.287 . S
C2867 C2868 1.524 . S
C2867 H2886 0.913 . S
C2868 H2844 0.950 . S
C2868 C2867 1.524 . S
C2868 C2869 1.415 . S
C2869 H2845 0.950 . S
C2869 C2864 1.363 . S
C2869 C2868 1.415 . S
C2870 H2846 0.951 . S
C2870 C2871 1.366 . S
C2870 C2872 1.388 . S
C2871 C2870 1.366 . S
C2871 C2875 1.385 . S
C2872 H2847 0.951 . S
C2872 C2870 1.388 . S
C2872 C2873 1.366 . S
C2873 C2872 1.366 . S
C2873 C2874 1.414 . S
C2873 C2876 1.499 . S
C2874 H2848 0.950 . S
C2874 C2873 1.414 . S
C2874 C2875 1.374 . S
C2875 H2849 0.950 . S
C2875 C2871 1.385 . S
C2875 C2874 1.374 . S
C2876 C2873 1.499 . S
C2876 C2877 1.373 . S
C2876 C2878 1.389 . S
C2877 H2850 0.950 . S
C2877 C2863 1.377 . S
C2877 C2876 1.373 . S
C2878 C2862 1.377 . S
C2878 C2876 1.389 . S
C2878 C2879 1.524 . S
C2879 C2878 1.524 . S
C2879 C2880 1.397 . S
C2879 C2884 1.363 . S
C2880 H2851 0.950 . S
C2880 C2879 1.397 . S
C2880 C2881 1.334 . S
C2881 H2852 0.950 . S
C2881 C2880 1.334 . S
C2881 C2882 1.287 . S
C2882 C2881 1.287 . S
C2882 C2883 1.524 . S
C2882 H2885 0.999 . S
C2883 H2853 0.950 . S
C2883 C2882 1.524 . S
C2883 C2884 1.415 . S
C2884 H2854 0.950 . S
C2884 C2879 1.363 . S
C2884 C2883 1.415 . S
H2885 C2882 0.999 . S
H2886 C2867 0.913 . S
H2887 C2905 0.951 . S
H2888 C2907 0.951 . S
H2889 C2909 0.950 . S
H2890 C2910 0.950 . S
H2891 C2912 0.950 . S
H2892 C2915 0.950 . S
H2893 C2916 0.950 . S
H2894 C2918 0.950 . S
H2895 C2919 0.950 . S
H2896 C2920 0.951 . S
H2897 C2922 0.951 . S
H2898 C2924 0.950 . S
H2899 C2925 0.950 . S
H2900 C2927 0.950 . S
H2901 C2930 0.950 . S
H2902 C2931 0.950 . S
H2903 C2933 0.950 . S
H2904 C2934 0.950 . S
C2905 H2887 0.951 . S
C2905 C2906 1.366 . S
C2905 C2907 1.388 . S
C2906 C2905 1.366 . S
C2906 C2910 1.385 . S
C2907 H2888 0.951 . S
C2907 C2905 1.388 . S
C2907 C2908 1.366 . S
C2908 C2907 1.366 . S
C2908 C2909 1.414 . S
C2908 C2911 1.499 . S
C2909 H2889 0.950 . S
C2909 C2908 1.414 . S
C2909 C2910 1.374 . S
C2910 H2890 0.950 . S
C2910 C2906 1.385 . S
C2910 C2909 1.374 . S
C2911 C2908 1.499 . S
C2911 C2912 1.373 . S
C2911 C2913 1.389 . S
C2912 H2891 0.950 . S
C2912 C2911 1.373 . S
C2912 C2928 1.377 . S
C2913 C2911 1.389 . S
C2913 C2914 1.524 . S
C2913 C2927 1.377 . S
C2914 C2913 1.524 . S
C2914 C2915 1.397 . S
C2914 C2919 1.363 . S
C2915 H2892 0.950 . S
C2915 C2914 1.397 . S
C2915 C2916 1.334 . S
C2916 H2893 0.950 . S
C2916 C2915 1.334 . S
C2916 C2917 1.287 . S
C2917 C2916 1.287 . S
C2917 C2918 1.524 . S
C2917 H2936 0.913 . S
C2918 H2894 0.950 . S
C2918 C2917 1.524 . S
C2918 C2919 1.415 . S
C2919 H2895 0.950 . S
C2919 C2914 1.363 . S
C2919 C2918 1.415 . S
C2920 H2896 0.951 . S
C2920 C2921 1.366 . S
C2920 C2922 1.388 . S
C2921 C2920 1.366 . S
C2921 C2925 1.385 . S
C2922 H2897 0.951 . S
C2922 C2920 1.388 . S
C2922 C2923 1.366 . S
C2923 C2922 1.366 . S
C2923 C2924 1.414 . S
C2923 C2926 1.499 . S
C2924 H2898 0.950 . S
C2924 C2923 1.414 . S
C2924 C2925 1.374 . S
C2925 H2899 0.950 . S
C2925 C2921 1.385 . S
C2925 C2924 1.374 . S
C2926 C2923 1.499 . S
C2926 C2927 1.373 . S
C2926 C2928 1.389 . S
C2927 H2900 0.950 . S
C2927 C2913 1.377 . S
C2927 C2926 1.373 . S
C2928 C2912 1.377 . S
C2928 C2926 1.389 . S
C2928 C2929 1.524 . S
C2929 C2928 1.524 . S
C2929 C2930 1.397 . S
C2929 C2934 1.363 . S
C2930 H2901 0.950 . S
C2930 C2929 1.397 . S
C2930 C2931 1.334 . S
C2931 H2902 0.950 . S
C2931 C2930 1.334 . S
C2931 C2932 1.287 . S
C2932 C2931 1.287 . S
C2932 C2933 1.524 . S
C2932 H2935 0.999 . S
C2933 H2903 0.950 . S
C2933 C2932 1.524 . S
C2933 C2934 1.415 . S
C2934 H2904 0.950 . S
C2934 C2929 1.363 . S
C2934 C2933 1.415 . S
H2935 C2932 0.999 . S
H2936 C2917 0.913 . S
H2937 C2955 0.951 . S
H2938 C2957 0.951 . S
H2939 C2959 0.950 . S
H2940 C2960 0.950 . S
H2941 C2962 0.950 . S
H2942 C2965 0.950 . S
H2943 C2966 0.950 . S
H2944 C2968 0.950 . S
H2945 C2969 0.950 . S
H2946 C2970 0.951 . S
H2947 C2972 0.951 . S
H2948 C2974 0.950 . S
H2949 C2975 0.950 . S
H2950 C2977 0.950 . S
H2951 C2980 0.950 . S
H2952 C2981 0.950 . S
H2953 C2983 0.950 . S
H2954 C2984 0.950 . S
C2955 H2937 0.951 . S
C2955 C2956 1.366 . S
C2955 C2957 1.388 . S
C2956 C2955 1.366 . S
C2956 C2960 1.385 . S
C2957 H2938 0.951 . S
C2957 C2955 1.388 . S
C2957 C2958 1.366 . S
C2958 C2957 1.366 . S
C2958 C2959 1.414 . S
C2958 C2961 1.499 . S
C2959 H2939 0.950 . S
C2959 C2958 1.414 . S
C2959 C2960 1.374 . S
C2960 H2940 0.950 . S
C2960 C2956 1.385 . S
C2960 C2959 1.374 . S
C2961 C2958 1.499 . S
C2961 C2962 1.373 . S
C2961 C2963 1.389 . S
C2962 H2941 0.950 . S
C2962 C2961 1.373 . S
C2962 C2978 1.377 . S
C2963 C2961 1.389 . S
C2963 C2964 1.524 . S
C2963 C2977 1.377 . S
C2964 C2963 1.524 . S
C2964 C2965 1.397 . S
C2964 C2969 1.363 . S
C2965 H2942 0.950 . S
C2965 C2964 1.397 . S
C2965 C2966 1.334 . S
C2966 H2943 0.950 . S
C2966 C2965 1.334 . S
C2966 C2967 1.287 . S
C2967 C2966 1.287 . S
C2967 C2968 1.524 . S
C2967 H2986 0.913 . S
C2968 H2944 0.950 . S
C2968 C2967 1.524 . S
C2968 C2969 1.415 . S
C2969 H2945 0.950 . S
C2969 C2964 1.363 . S
C2969 C2968 1.415 . S
C2970 H2946 0.951 . S
C2970 C2971 1.366 . S
C2970 C2972 1.388 . S
C2971 C2970 1.366 . S
C2971 C2975 1.385 . S
C2972 H2947 0.951 . S
C2972 C2970 1.388 . S
C2972 C2973 1.366 . S
C2973 C2972 1.366 . S
C2973 C2974 1.414 . S
C2973 C2976 1.499 . S
C2974 H2948 0.950 . S
C2974 C2973 1.414 . S
C2974 C2975 1.374 . S
C2975 H2949 0.950 . S
C2975 C2971 1.385 . S
C2975 C2974 1.374 . S
C2976 C2973 1.499 . S
C2976 C2977 1.373 . S
C2976 C2978 1.389 . S
C2977 H2950 0.950 . S
C2977 C2963 1.377 . S
C2977 C2976 1.373 . S
C2978 C2962 1.377 . S
C2978 C2976 1.389 . S
C2978 C2979 1.524 . S
C2979 C2978 1.524 . S
C2979 C2980 1.397 . S
C2979 C2984 1.363 . S
C2980 H2951 0.950 . S
C2980 C2979 1.397 . S
C2980 C2981 1.334 . S
C2981 H2952 0.950 . S
C2981 C2980 1.334 . S
C2981 C2982 1.287 . S
C2982 C2981 1.287 . S
C2982 C2983 1.524 . S
C2982 H2985 0.999 . S
C2983 H2953 0.950 . S
C2983 C2982 1.524 . S
C2983 C2984 1.415 . S
C2984 H2954 0.950 . S
C2984 C2979 1.363 . S
C2984 C2983 1.415 . S
H2985 C2982 0.999 . S
H2986 C2967 0.913 . S
H2987 C3005 0.951 . S
H2988 C3007 0.951 . S
H2989 C3009 0.950 . S
H2990 C3010 0.950 . S
H2991 C3012 0.950 . S
H2992 C3015 0.950 . S
H2993 C3016 0.950 . S
H2994 C3018 0.950 . S
H2995 C3019 0.950 . S
H2996 C3020 0.951 . S
H2997 C3022 0.951 . S
H2998 C3024 0.950 . S
H2999 C3025 0.950 . S
H3000 C3027 0.950 . S
H3001 C3030 0.950 . S
H3002 C3031 0.950 . S
H3003 C3033 0.950 . S
H3004 C3034 0.950 . S
C3005 H2987 0.951 . S
C3005 C3006 1.366 . S
C3005 C3007 1.388 . S
C3006 C3005 1.366 . S
C3006 C3010 1.385 . S
C3007 H2988 0.951 . S
C3007 C3005 1.388 . S
C3007 C3008 1.366 . S
C3008 C3007 1.366 . S
C3008 C3009 1.414 . S
C3008 C3011 1.499 . S
C3009 H2989 0.950 . S
C3009 C3008 1.414 . S
C3009 C3010 1.374 . S
C3010 H2990 0.950 . S
C3010 C3006 1.385 . S
C3010 C3009 1.374 . S
C3011 C3008 1.499 . S
C3011 C3012 1.373 . S
C3011 C3013 1.389 . S
C3012 H2991 0.950 . S
C3012 C3011 1.373 . S
C3012 C3028 1.377 . S
C3013 C3011 1.389 . S
C3013 C3014 1.524 . S
C3013 C3027 1.377 . S
C3014 C3013 1.524 . S
C3014 C3015 1.397 . S
C3014 C3019 1.363 . S
C3015 H2992 0.950 . S
C3015 C3014 1.397 . S
C3015 C3016 1.334 . S
C3016 H2993 0.950 . S
C3016 C3015 1.334 . S
C3016 C3017 1.287 . S
C3017 C3016 1.287 . S
C3017 C3018 1.524 . S
C3017 H3036 0.913 . S
C3018 H2994 0.950 . S
C3018 C3017 1.524 . S
C3018 C3019 1.415 . S
C3019 H2995 0.950 . S
C3019 C3014 1.363 . S
C3019 C3018 1.415 . S
C3020 H2996 0.951 . S
C3020 C3021 1.366 . S
C3020 C3022 1.388 . S
C3021 C3020 1.366 . S
C3021 C3025 1.385 . S
C3022 H2997 0.951 . S
C3022 C3020 1.388 . S
C3022 C3023 1.366 . S
C3023 C3022 1.366 . S
C3023 C3024 1.414 . S
C3023 C3026 1.499 . S
C3024 H2998 0.950 . S
C3024 C3023 1.414 . S
C3024 C3025 1.374 . S
C3025 H2999 0.950 . S
C3025 C3021 1.385 . S
C3025 C3024 1.374 . S
C3026 C3023 1.499 . S
C3026 C3027 1.373 . S
C3026 C3028 1.389 . S
C3027 H3000 0.950 . S
C3027 C3013 1.377 . S
C3027 C3026 1.373 . S
C3028 C3012 1.377 . S
C3028 C3026 1.389 . S
C3028 C3029 1.524 . S
C3029 C3028 1.524 . S
C3029 C3030 1.397 . S
C3029 C3034 1.363 . S
C3030 H3001 0.950 . S
C3030 C3029 1.397 . S
C3030 C3031 1.334 . S
C3031 H3002 0.950 . S
C3031 C3030 1.334 . S
C3031 C3032 1.287 . S
C3032 C3031 1.287 . S
C3032 C3033 1.524 . S
C3032 H3035 0.999 . S
C3033 H3003 0.950 . S
C3033 C3032 1.524 . S
C3033 C3034 1.415 . S
C3034 H3004 0.950 . S
C3034 C3029 1.363 . S
C3034 C3033 1.415 . S
H3035 C3032 0.999 . S
H3036 C3017 0.913 . S
H3037 C3055 0.951 . S
H3038 C3057 0.951 . S
H3039 C3059 0.950 . S
H3040 C3060 0.950 . S
H3041 C3062 0.950 . S
H3042 C3065 0.950 . S
H3043 C3066 0.950 . S
H3044 C3068 0.950 . S
H3045 C3069 0.950 . S
H3046 C3070 0.951 . S
H3047 C3072 0.951 . S
H3048 C3074 0.950 . S
H3049 C3075 0.950 . S
H3050 C3077 0.950 . S
H3051 C3080 0.950 . S
H3052 C3081 0.950 . S
H3053 C3083 0.950 . S
H3054 C3084 0.950 . S
C3055 H3037 0.951 . S
C3055 C3056 1.366 . S
C3055 C3057 1.388 . S
C3056 C3055 1.366 . S
C3056 C3060 1.385 . S
C3057 H3038 0.951 . S
C3057 C3055 1.388 . S
C3057 C3058 1.366 . S
C3058 C3057 1.366 . S
C3058 C3059 1.414 . S
C3058 C3061 1.499 . S
C3059 H3039 0.950 . S
C3059 C3058 1.414 . S
C3059 C3060 1.374 . S
C3060 H3040 0.950 . S
C3060 C3056 1.385 . S
C3060 C3059 1.374 . S
C3061 C3058 1.499 . S
C3061 C3062 1.373 . S
C3061 C3063 1.389 . S
C3062 H3041 0.950 . S
C3062 C3061 1.373 . S
C3062 C3078 1.377 . S
C3063 C3061 1.389 . S
C3063 C3064 1.524 . S
C3063 C3077 1.377 . S
C3064 C3063 1.524 . S
C3064 C3065 1.397 . S
C3064 C3069 1.363 . S
C3065 H3042 0.950 . S
C3065 C3064 1.397 . S
C3065 C3066 1.334 . S
C3066 H3043 0.950 . S
C3066 C3065 1.334 . S
C3066 C3067 1.287 . S
C3067 C3066 1.287 . S
C3067 C3068 1.524 . S
C3067 H3086 0.913 . S
C3068 H3044 0.950 . S
C3068 C3067 1.524 . S
C3068 C3069 1.415 . S
C3069 H3045 0.950 . S
C3069 C3064 1.363 . S
C3069 C3068 1.415 . S
C3070 H3046 0.951 . S
C3070 C3071 1.366 . S
C3070 C3072 1.388 . S
C3071 C3070 1.366 . S
C3071 C3075 1.385 . S
C3072 H3047 0.951 . S
C3072 C3070 1.388 . S
C3072 C3073 1.366 . S
C3073 C3072 1.366 . S
C3073 C3074 1.414 . S
C3073 C3076 1.499 . S
C3074 H3048 0.950 . S
C3074 C3073 1.414 . S
C3074 C3075 1.374 . S
C3075 H3049 0.950 . S
C3075 C3071 1.385 . S
C3075 C3074 1.374 . S
C3076 C3073 1.499 . S
C3076 C3077 1.373 . S
C3076 C3078 1.389 . S
C3077 H3050 0.950 . S
C3077 C3063 1.377 . S
C3077 C3076 1.373 . S
C3078 C3062 1.377 . S
C3078 C3076 1.389 . S
C3078 C3079 1.524 . S
C3079 C3078 1.524 . S
C3079 C3080 1.397 . S
C3079 C3084 1.363 . S
C3080 H3051 0.950 . S
C3080 C3079 1.397 . S
C3080 C3081 1.334 . S
C3081 H3052 0.950 . S
C3081 C3080 1.334 . S
C3081 C3082 1.287 . S
C3082 C3081 1.287 . S
C3082 C3083 1.524 . S
C3082 H3085 0.999 . S
C3083 H3053 0.950 . S
C3083 C3082 1.524 . S
C3083 C3084 1.415 . S
C3084 H3054 0.950 . S
C3084 C3079 1.363 . S
C3084 C3083 1.415 . S
H3085 C3082 0.999 . S
H3086 C3067 0.913 . S
C406 C147 1.404 . S
C421 C212 1.382 . S
C456 C158 1.386 . S
C471 C233 1.359 . S
C506 C136 1.335 . S
C521 C253 1.197 . S
C556 C125 1.333 . S
C571 C232 1.188 . S
C621 C254 1.376 . S
C606 C103 1.403 . S
C656 C114 1.356 . S
C671 C211 1.208 . S
C721 C213 1.365 . S
C706 C131 1.408 1_554 S
C771 C234 1.366 . S
C756 C109 1.396 1_554 S
C806 C120 1.460 . S
C821 C256 1.257 . S
C856 C153 1.429 . S
C871 C235 1.225 1_554 S
C906 C164 1.377 . S
C921 C255 1.340 . S
C971 C214 1.247 1_554 S
C956 C142 1.444 . S
C1021 C275 1.382 . S
C1006 C15 1.404 . S
C1056 C26 1.385 . S
C1071 C296 1.358 . S
C1106 C4 1.335 . S
C1121 C316 1.198 . S
C1156 C191 1.333 . S
C1171 C295 1.189 . S
C1206 C169 1.403 . S
C1221 C317 1.374 . S
C1256 C180 1.353 . S
C1271 C274 1.206 . S
C1306 C197 1.407 . S
C1321 C276 1.366 . S
C1356 C175 1.397 . S
C1371 C297 1.366 . S
C1421 C319 1.256 . S
C1406 C186 1.460 . S
C1456 C21 1.430 . S
C1471 C298 1.240 . S
C1521 C318 1.341 . S
C1506 C32 1.378 . S
C1556 C10 1.445 . S
C1571 C277 1.249 . S
C1621 C338 1.382 . S
C1606 C81 1.404 . S
C1656 C92 1.385 . S
C1671 C359 1.358 . S
C1721 C379 1.196 . S
C1706 C70 1.335 . S
C1771 C358 1.188 . S
C1756 C59 1.333 . S
C1821 C380 1.375 . S
C1806 C37 1.402 . S
C1856 C48 1.353 . S
C1871 C337 1.207 . S
C1906 C65 1.407 . S
C1921 C339 1.366 . S
C1956 C43 1.396 . S
C1971 C360 1.366 . S
C2021 C382 1.258 . S
C2006 C54 1.460 . S
C2056 C87 1.429 . S
C2071 C361 1.239 . S
C2106 C98 1.378 . S
C2121 C381 1.341 . S
C2156 C76 1.444 . S
C2171 C340 1.247 . S
C2206 C170 1.485 . S
C2221 C216 1.470 . S
C2271 C237 1.510 . S
C2256 C181 1.523 . S
C2306 C192 1.556 . S
C2321 C257 1.504 . S
C2356 C71 1.630 . S
C2371 C236 1.575 . S
C2406 C82 1.560 . S
C2421 C258 1.544 . S
C2471 C215 1.538 . S
C2456 C93 1.590 . S
C2506 C38 1.485 . S
C2521 C279 1.471 . S
C2556 C49 1.523 . S
C2571 C300 1.509 . S
C2606 C60 1.556 . S
C2621 C320 1.503 . S
C2656 C137 1.630 . S
C2671 C299 1.576 . S
C2721 C321 1.543 . S
C2706 C148 1.559 . S
C2756 C159 1.590 . S
C2771 C278 1.539 . S
C2806 C104 1.485 . S
C2821 C342 1.470 . S
C2856 C115 1.523 . S
C2871 C363 1.509 . S
C2921 C383 1.503 . S
C2906 C126 1.556 . S
C2956 C5 1.630 . S
C2971 C362 1.576 . S
C3006 C16 1.560 . S
C3021 C384 1.543 . S
C3056 C27 1.590 . S
C3071 C341 1.538 . S
