# Generated by pormake.
# Topology pyr, (3,6)-cn, num edge types: 1
# Building blocks:
#     Node 0, Type 0, BuildingBlock: BETDIP_clean_linker_0, # of connection points: 3
#     Node 1, Type 0, BuildingBlock: BETDIP_clean_linker_0, # of connection points: 3
#     Node 2, Type 0, BuildingBlock: BETDIP_clean_linker_0, # of connection points: 3
#     Node 3, Type 0, BuildingBlock: BETDIP_clean_linker_0, # of connection points: 3
#     Node 4, Type 0, BuildingBlock: BETDIP_clean_linker_0, # of connection points: 3
#     Node 5, Type 0, BuildingBlock: BETDIP_clean_linker_0, # of connection points: 3
#     Node 6, Type 0, BuildingBlock: BETDIP_clean_linker_0, # of connection points: 3
#     Node 7, Type 0, BuildingBlock: BETDIP_clean_linker_0, # of connection points: 3
#     Node 8, Type 1, BuildingBlock: PAMTOO_clean_sbu_0, # of connection points: 6
#     Node 9, Type 1, BuildingBlock: PAMTOO_clean_sbu_0, # of connection points: 6
#     Node 10, Type 1, BuildingBlock: PAMTOO_clean_sbu_0, # of connection points: 6
#     Node 11, Type 1, BuildingBlock: PAMTOO_clean_sbu_0, # of connection points: 6
#     Edge 12, Type (0, 1), BuildingBlock: OJICUG_clean_linker_0, # of connection points: 2
#     Edge 13, Type (0, 1), BuildingBlock: OJICUG_clean_linker_0, # of connection points: 2
#     Edge 14, Type (0, 1), BuildingBlock: OJICUG_clean_linker_0, # of connection points: 2
#     Edge 15, Type (0, 1), BuildingBlock: OJICUG_clean_linker_0, # of connection points: 2
#     Edge 16, Type (0, 1), BuildingBlock: OJICUG_clean_linker_0, # of connection points: 2
#     Edge 17, Type (0, 1), BuildingBlock: OJICUG_clean_linker_0, # of connection points: 2
#     Edge 18, Type (0, 1), BuildingBlock: OJICUG_clean_linker_0, # of connection points: 2
#     Edge 19, Type (0, 1), BuildingBlock: OJICUG_clean_linker_0, # of connection points: 2
#     Edge 20, Type (0, 1), BuildingBlock: OJICUG_clean_linker_0, # of connection points: 2
#     Edge 21, Type (0, 1), BuildingBlock: OJICUG_clean_linker_0, # of connection points: 2
#     Edge 22, Type (0, 1), BuildingBlock: OJICUG_clean_linker_0, # of connection points: 2
#     Edge 23, Type (0, 1), BuildingBlock: OJICUG_clean_linker_0, # of connection points: 2
#     Edge 24, Type (0, 1), BuildingBlock: OJICUG_clean_linker_0, # of connection points: 2
#     Edge 25, Type (0, 1), BuildingBlock: OJICUG_clean_linker_0, # of connection points: 2
#     Edge 26, Type (0, 1), BuildingBlock: OJICUG_clean_linker_0, # of connection points: 2
#     Edge 27, Type (0, 1), BuildingBlock: OJICUG_clean_linker_0, # of connection points: 2
#     Edge 28, Type (0, 1), BuildingBlock: OJICUG_clean_linker_0, # of connection points: 2
#     Edge 29, Type (0, 1), BuildingBlock: OJICUG_clean_linker_0, # of connection points: 2
#     Edge 30, Type (0, 1), BuildingBlock: OJICUG_clean_linker_0, # of connection points: 2
#     Edge 31, Type (0, 1), BuildingBlock: OJICUG_clean_linker_0, # of connection points: 2
#     Edge 32, Type (0, 1), BuildingBlock: OJICUG_clean_linker_0, # of connection points: 2
#     Edge 33, Type (0, 1), BuildingBlock: OJICUG_clean_linker_0, # of connection points: 2
#     Edge 34, Type (0, 1), BuildingBlock: OJICUG_clean_linker_0, # of connection points: 2
#     Edge 35, Type (0, 1), BuildingBlock: OJICUG_clean_linker_0, # of connection points: 2
# Relax obj value: 0.185
# Max RMSD: 0.220
# Mean RMSD: 0.131
data_MOF--net-pyr--node1-PAMTOO_clean_sbu_0--node2-BETDIP_clean_linker_0--edge1-OJICUG_clean_linker_0
_symmetry_space_group_name_H-M    P1
_symmetry_Int_Tables_number       1
_symmetry_cell_setting            triclinic
loop_
_symmetry_equiv_pos_as_xyz
'x, y, z'
_cell_length_a     27.482634
_cell_length_b     28.168549
_cell_length_c     28.355862
_cell_angle_alpha  89.985615
_cell_angle_beta   89.301119
_cell_angle_gamma 110.72146
loop_
_atom_site_label
_atom_site_type_symbol
_atom_site_fract_x
_atom_site_fract_y
_atom_site_fract_z
_atom_type_partial_charge
H0 H 0.38028 0.33932 0.31174 0.0
H1 H 0.43599 0.31774 0.17497 0.0
H2 H 0.47589 0.24788 0.29624 0.0
H3 H 0.35883 0.32573 0.15388 0.0
C4 C 0.34821 0.34824 0.1804 0.0
C5 C 0.4051 0.32505 0.29051 0.0
C6 C 0.42848 0.29293 0.31049 0.0
C7 C 0.40699 0.33357 0.24193 0.0
C8 C 0.43492 0.31166 0.2127 0.0
C9 C 0.45989 0.28023 0.23204 0.0
C10 C 0.45822 0.27309 0.28119 0.0
N11 N 0.37505 0.3593 0.22388 0.0
H12 H 0.12371 0.80055 0.8354 0.0
H13 H 0.16782 0.76075 0.70025 0.0
H14 H 0.21584 0.70535 0.82638 0.0
H15 H 0.08458 0.77496 0.68106 0.0
C16 C 0.09493 0.81018 0.70074 0.0
C17 C 0.14091 0.77784 0.81504 0.0
C18 C 0.169 0.75146 0.83747 0.0
C19 C 0.13877 0.7799 0.76597 0.0
C20 C 0.16604 0.75594 0.7382 0.0
C21 C 0.19463 0.7293 0.75993 0.0
C22 C 0.19326 0.72499 0.80943 0.0
N23 N 0.11597 0.81333 0.74647 0.0
H24 H 0.73264 0.46089 0.89285 0.0
H25 H 0.60405 0.32221 0.86843 0.0
H26 H 0.70451 0.33253 0.98558 0.0
H27 H 0.61903 0.35682 0.79107 0.0
C28 C 0.62475 0.39645 0.79745 0.0
C29 C 0.71017 0.42236 0.90348 0.0
C30 C 0.72585 0.39996 0.94229 0.0
C31 C 0.66638 0.395 0.87665 0.0
C32 C 0.63767 0.34386 0.88873 0.0
C33 C 0.65249 0.32071 0.92737 0.0
C34 C 0.69535 0.34966 0.95436 0.0
N35 N 0.65203 0.42049 0.83849 0.0
H36 H 0.81018 0.62316 0.40595 0.0
H37 H 0.93996 0.76296 0.38741 0.0
H38 H 0.81715 0.75398 0.48662 0.0
H39 H 0.92347 0.73136 0.30585 0.0
C40 C 0.91849 0.69172 0.31138 0.0
C41 C 0.82986 0.6626 0.4152 0.0
C42 C 0.80908 0.6849 0.45074 0.0
C43 C 0.87556 0.69108 0.39061 0.0
C44 C 0.90304 0.74186 0.40422 0.0
C45 C 0.88352 0.7642 0.44109 0.0
C46 C 0.8351 0.73595 0.46161 0.0
N47 N 0.89328 0.66687 0.35341 0.0
H48 H 0.59233 0.77325 0.9794 0.0
H49 H 0.64938 0.75469 0.84273 0.0
H50 H 0.54502 0.83728 0.85888 0.0
H51 H 0.66299 0.68683 0.87591 0.0
C52 C 0.67795 0.70488 0.9092 0.0
C53 C 0.59103 0.7773 0.94146 0.0
C54 C 0.56541 0.80784 0.92225 0.0
C55 C 0.61907 0.75575 0.91252 0.0
C56 C 0.62247 0.76605 0.86383 0.0
C57 C 0.59696 0.7965 0.84363 0.0
C58 C 0.56515 0.81382 0.87314 0.0
N59 N 0.65073 0.7317 0.9342 0.0
H60 H 0.91442 0.29701 0.35026 0.0
H61 H 0.87047 0.35301 0.47813 0.0
H62 H 0.81383 0.38375 0.34536 0.0
H63 H 0.98542 0.29721 0.39205 0.0
C64 C 0.96569 0.28347 0.42545 0.0
C65 C 0.89643 0.32096 0.36745 0.0
C66 C 0.86386 0.33984 0.34148 0.0
C67 C 0.90091 0.32775 0.41657 0.0
C68 C 0.87066 0.35175 0.43993 0.0
C69 C 0.83849 0.37146 0.41439 0.0
C70 C 0.83863 0.36862 0.36504 0.0
N71 N 0.92914 0.30421 0.44399 0.0
H72 H 0.2967 0.63219 0.2678 0.0
H73 H 0.43146 0.76788 0.28712 0.0
H74 H 0.32047 0.76356 0.18066 0.0
H75 H 0.43251 0.73402 0.35842 0.0
C76 C 0.41596 0.69294 0.35636 0.0
C77 C 0.31971 0.67084 0.25778 0.0
C78 C 0.30235 0.69511 0.22167 0.0
C79 C 0.36569 0.69657 0.28246 0.0
C80 C 0.39547 0.74742 0.26951 0.0
C81 C 0.37848 0.77215 0.23332 0.0
C82 C 0.33248 0.74529 0.20964 0.0
N83 N 0.38022 0.66996 0.31973 0.0
H84 H 0.08668 0.32495 0.77952 0.0
H85 H 0.22647 0.45838 0.77567 0.0
H86 H 0.2046 0.34065 0.67369 0.0
H87 H 0.1769 0.4941 0.81482 0.0
C88 C 0.15022 0.4645 0.83684 0.0
C89 C 0.124 0.34657 0.76355 0.0
C90 C 0.14194 0.32724 0.72392 0.0
C91 C 0.15333 0.39461 0.78186 0.0
C92 C 0.20223 0.42245 0.76106 0.0
C93 C 0.22114 0.40268 0.72231 0.0
C94 C 0.19039 0.35564 0.70395 0.0
N95 N 0.13312 0.41295 0.82172 0.0
Dy96 Dy 0.07759 0.06045 0.55532 0.0
Dy97 Dy 0.9626 0.03397 0.60637 0.0
C98 C 0.05828 0.13262 0.63282 0.0
O99 O 0.07299 1.01743 0.62266 0.0
O100 O 0.98724 0.96868 0.62341 0.0
O101 O 0.159 0.0797 0.57044 0.0
O102 O 0.13178 0.06496 0.49836 0.0
O103 O 0.94669 0.98155 0.54464 0.0
O104 O 0.02975 0.98572 0.52423 0.0
O105 O 0.97288 0.10087 0.56048 0.0
O106 O 0.04006 0.10291 0.51009 0.0
O107 O 0.88162 1.02559 0.60384 0.0
O108 O 0.91769 1.02169 0.67109 0.0
C109 C 0.0354 0.97478 0.63322 0.0
O110 O 0.07967 0.13104 0.5916 0.0
O111 O 0.02185 0.09231 0.6504 0.0
C112 C 0.21858 0.11989 0.50998 0.0
C113 C 0.308 0.19136 0.46894 0.0
C114 C 0.31123 0.14929 0.49348 0.0
C115 C 0.26678 0.1138 0.51381 0.0
C116 C 0.21571 0.16373 0.4887 0.0
C117 C 0.26027 0.19937 0.46829 0.0
C118 C 0.17189 0.0786 0.52621 0.0
C119 C 0.97893 0.96486 0.52104 0.0
C120 C 1.00166 0.11824 0.52261 0.0
C121 C 0.82627 0.98192 0.66712 0.0
C122 C 0.73079 0.91552 0.70376 0.0
C123 C 0.75061 0.90441 0.66081 0.0
C124 C 0.79814 0.9376 0.64245 0.0
C125 C 0.80673 0.99266 0.70986 0.0
C126 C 0.75977 0.95986 0.7281 0.0
C127 C 0.8752 1.01911 0.64938 0.0
H128 H 0.34758 0.14242 0.49464 0.0
H129 H 0.26962 0.08038 0.5307 0.0
H130 H 0.17874 0.16919 0.48596 0.0
H131 H 0.25657 0.23117 0.44915 0.0
H132 H 0.72939 0.87037 0.64147 0.0
H133 H 0.81281 0.92874 0.60924 0.0
H134 H 0.82801 1.02662 0.72939 0.0
H135 H 0.74682 0.96889 0.76203 0.0
Dy136 Dy 0.45701 1.03172 1.05834 0.0
Dy137 Dy 0.57567 0.05739 0.09932 0.0
C138 C 0.47986 0.9677 0.14335 0.0
O139 O 0.47761 0.10755 0.09039 0.0
O140 O 0.5404 0.10507 0.14192 0.0
O141 O 0.37681 1.02011 0.07538 0.0
O142 O 0.40035 1.01327 1.0031 0.0
O143 O 0.58391 0.12064 1.04932 0.0
O144 O 0.50771 0.09062 1.00724 0.0
O145 O 0.56858 1.00529 1.03866 0.0
O146 O 0.47992 0.96746 1.03334 0.0
O147 O 0.65748 0.07548 0.08525 0.0
O148 O 0.62802 0.06482 0.15727 0.0
C149 C 0.50682 0.12534 0.12701 0.0
O150 O 0.4502 0.99227 0.12843 0.0
O151 O 0.52866 0.98162 0.1298 0.0
C152 C 0.31927 0.95703 1.02816 0.0
C153 C 0.24858 0.86262 0.99985 0.0
C154 C 0.29201 0.86522 1.02688 0.0
C155 C 0.32726 0.91221 1.04084 0.0
C156 C 0.27345 0.95431 1.00555 0.0
C157 C 0.23812 0.90736 0.99167 0.0
C158 C 0.36147 1.00609 1.03258 0.0
C159 C 0.55501 0.12379 1.01376 0.0
C160 C 0.52708 0.96818 1.02453 0.0
C161 C 0.70992 0.12695 0.1433 0.0
C162 C 0.77937 0.21651 0.18211 0.0
C163 C 0.73848 0.21805 0.15359 0.0
C164 C 0.70382 0.17349 0.13445 0.0
C165 C 0.75297 0.12575 0.16843 0.0
C166 C 0.78767 0.17035 0.18765 0.0
C167 C 0.66922 0.0795 0.12982 0.0
H168 H 0.30088 0.83135 1.03384 0.0
H169 H 0.36251 0.91381 1.0586 0.0
H170 H 0.26679 0.98865 0.99564 0.0
H171 H 0.20538 0.90676 0.97046 0.0
H172 H 0.73133 0.25317 0.14873 0.0
H173 H 0.67077 0.17497 0.11484 0.0
H174 H 0.75814 0.09001 0.17536 0.0
H175 H 0.81841 0.16793 0.21 0.0
Dy176 Dy 0.50274 0.49284 0.54887 0.0
Dy177 Dy 0.5205 0.59328 0.61404 0.0
C178 C 0.55733 0.50317 0.64983 0.0
O179 O 0.43846 0.47002 0.6023 0.0
O180 O 0.4352 0.54869 0.61549 0.0
O181 O 0.48599 0.41207 0.54248 0.0
O182 O 0.50503 0.45981 0.48036 0.0
O183 O 0.50487 0.61277 0.54061 0.0
O184 O 0.45635 0.5342 0.51294 0.0
O185 O 0.60086 0.60344 0.58761 0.0
O186 O 0.57486 0.55272 0.52261 0.0
O187 O 0.53706 0.67407 0.6209 0.0
O188 O 0.51483 0.62523 0.68223 0.0
C189 C 0.41498 0.49927 0.62009 0.0
O190 O 0.55779 0.48921 0.60559 0.0
O191 O 0.53784 0.53789 0.66186 0.0
C192 C 0.54807 0.40148 0.48853 0.0
C193 C 0.64663 0.39378 0.47156 0.0
C194 C 0.62416 0.38527 0.51696 0.0
C195 C 0.5755 0.38917 0.52538 0.0
C196 C 0.56926 0.40721 0.44268 0.0
C197 C 0.61807 0.40355 0.43429 0.0
C198 C 0.50263 0.41664 0.49883 0.0
C199 C 0.47203 0.58411 0.50992 0.0
C200 C 0.61077 0.58762 0.54612 0.0
C201 C 0.47459 0.68559 0.67414 0.0
C202 C 0.37853 0.69789 0.69274 0.0
C203 C 0.39896 0.70328 0.64661 0.0
C204 C 0.44633 0.69675 0.6373 0.0
C205 C 0.45535 0.68287 0.72053 0.0
C206 C 0.40767 0.68862 0.7297 0.0
C207 C 0.51917 0.6691 0.66417 0.0
H208 H 0.64508 0.37761 0.54639 0.0
H209 H 0.56052 0.38468 0.56122 0.0
H210 H 0.54908 0.41676 0.41364 0.0
H211 H 0.63381 0.4091 0.39867 0.0
H212 H 0.37732 0.71056 0.61754 0.0
H213 H 0.45971 0.69854 0.60102 0.0
H214 H 0.47618 0.67412 0.74951 0.0
H215 H 0.39322 0.6852 0.76573 0.0
Dy216 Dy 0.0212 0.60717 1.05063 0.0
Dy217 Dy 0.01163 0.50203 0.10711 0.0
C218 C 0.96908 0.58551 0.15276 0.0
O219 O 0.08486 0.62855 0.10374 0.0
O220 O 0.09548 0.55191 0.10761 0.0
O221 O 0.03189 0.68698 1.05038 0.0
O222 O 0.0214 0.64573 0.98466 0.0
O223 O 0.03323 0.49241 1.03223 0.0
O224 O 0.07447 0.57571 1.01184 0.0
O225 O 0.93057 0.48579 0.08134 0.0
O226 O 0.94886 0.54781 1.02386 0.0
O227 O 0.99549 0.4211 0.10948 0.0
O228 O 0.02605 0.46706 0.17075 0.0
C229 C 0.11204 0.60068 0.11646 0.0
O230 O 0.96551 0.60166 0.10998 0.0
O231 O 0.99068 0.55133 0.16035 0.0
C232 C 0.97556 0.70107 0.99416 0.0
C233 C 0.88119 0.71099 0.96701 0.0
C234 C 0.88807 0.69799 1.01363 0.0
C235 C 0.93462 0.69281 1.027 0.0
C236 C 0.9697 0.71618 0.94809 0.0
C237 C 0.92286 0.72103 0.93457 0.0
C238 C 0.02051 0.68652 1.00577 0.0
C239 C 0.0645 0.52721 1.00408 0.0
C240 C 0.91736 0.50592 1.04386 0.0
C241 C 0.06171 0.40522 0.15185 0.0
C242 C 0.15355 0.38254 0.15952 0.0
C243 C 0.14285 0.40369 0.11776 0.0
C244 C 0.09758 0.41522 0.11408 0.0
C245 C 0.07146 0.38283 0.1931 0.0
C246 C 0.11701 0.37161 0.19694 0.0
C247 C 0.01775 0.42359 0.15023 0.0
H248 H 0.85655 0.68939 1.03927 0.0
H249 H 0.93762 0.68016 1.06255 0.0
H250 H 1.00056 0.72219 0.92209 0.0
H251 H 0.91882 0.7316 0.8985 0.0
H252 H 0.17044 0.41315 0.08856 0.0
H253 H 0.09142 0.43343 0.08219 0.0
H254 H 0.04458 0.37535 0.2228 0.0
H255 H 0.12393 0.35488 0.22941 0.0
C256 C 0.3963 0.29855 0.39344 0.0
C257 C 0.41126 0.27085 0.3583 0.0
H258 H 0.35109 0.29489 0.45657 0.0
C259 C 0.40017 0.21863 0.36578 0.0
H260 H 0.40532 0.33903 0.38961 0.0
C261 C 0.37062 0.19397 0.40458 0.0
C262 C 0.35063 0.22058 0.43655 0.0
H263 H 0.40988 0.19534 0.33964 0.0
H264 H 0.3594 0.15309 0.40697 0.0
C265 C 0.36552 0.27346 0.43191 0.0
C266 C 0.1496 0.77425 0.91988 0.0
C267 C 0.18317 0.76219 0.88798 0.0
H268 H 0.14411 0.81592 0.98179 0.0
C269 C 0.23476 0.77135 0.9017 0.0
H270 H 0.10914 0.76609 0.9114 0.0
C271 C 0.25416 0.79843 0.94253 0.0
C272 C 0.22276 0.81768 0.97019 0.0
H273 H 0.26229 0.76307 0.87855 0.0
H274 H 0.29548 0.80953 0.94896 0.0
C275 C 0.16942 0.8024 0.96043 0.0
C276 C 0.59751 0.40438 0.7146 0.0
C277 C 0.60973 0.42558 0.75974 0.0
H278 H 0.57257 0.4123 0.64465 0.0
C279 C 0.60621 0.4735 0.76817 0.0
H280 H 0.59981 0.36754 0.70696 0.0
C281 C 0.58973 0.49897 0.7325 0.0
C282 C 0.57736 0.47762 0.68726 0.0
H283 H 0.61515 0.49088 0.80257 0.0
H284 H 0.58656 0.53538 0.74043 0.0
C285 C 0.58208 0.43021 0.67876 0.0
C286 C 0.93729 0.68418 0.22584 0.0
C287 C 0.92962 0.66275 0.27125 0.0
H288 H 0.95443 0.67639 0.15309 0.0
C289 C 0.933 0.61442 0.2774 0.0
H290 H 0.93486 0.72128 0.21997 0.0
C291 C 0.94501 0.58871 0.23897 0.0
C292 C 0.95275 0.61031 0.19342 0.0
H293 H 0.92738 0.5969 0.31201 0.0
H294 H 0.94846 0.55206 0.24496 0.0
C295 C 0.94817 0.65817 0.18741 0.0
C296 C 0.44939 0.22426 0.16159 0.0
C297 C 0.47839 0.24689 0.20128 0.0
H298 H 0.4355 0.16894 0.1076 0.0
C299 C 0.52008 0.23169 0.21449 0.0
H300 H 0.41637 0.23385 0.15068 0.0
C301 C 0.53047 0.19289 0.19009 0.0
C302 C 0.49966 0.16888 0.15177 0.0
H303 H 0.54374 0.24875 0.24454 0.0
H304 H 0.56182 0.18108 0.20182 0.0
C305 C 0.46 0.18613 0.13714 0.0
C306 C 0.10687 0.90226 0.69756 0.0
C307 C 0.07903 0.85208 0.68395 0.0
H308 H 0.11507 0.98061 0.69168 0.0
C309 C 0.03563 0.84227 0.65495 0.0
H310 H 0.14067 0.91083 0.71979 0.0
C311 C 0.01998 0.88204 0.64016 0.0
C312 C 0.04852 0.93238 0.65293 0.0
H313 H 0.01353 0.80384 0.64416 0.0
H314 H 0.98657 0.87357 0.61757 0.0
C315 C 0.09222 0.94213 0.6816 0.0
C316 C 0.79376 0.48116 0.97346 0.0
C317 C 0.77433 0.42776 0.96976 0.0
H318 H 0.85404 0.54756 0.99939 0.0
C319 C 0.80225 0.40082 0.99247 0.0
H320 H 0.7736 0.50372 0.95754 0.0
C321 C 0.8471 0.42605 1.01828 0.0
C322 C 0.86675 0.47914 1.02088 0.0
H323 H 0.79049 0.36003 0.98957 0.0
H324 H 0.86767 0.404 1.0346 0.0
C325 C 0.83972 0.50647 0.99805 0.0
C326 C 0.71722 0.6225 0.4523 0.0
C327 C 0.75967 0.65626 0.47637 0.0
H328 H 0.63733 0.57467 0.45528 0.0
C329 C 0.75349 0.66525 0.52467 0.0
H330 H 0.7203 0.61498 0.41515 0.0
C331 C 0.7054 0.64292 0.54768 0.0
C332 C 0.66261 0.61043 0.52311 0.0
H333 H 0.78575 0.69018 0.54468 0.0
H334 H 0.70174 0.65131 0.58454 0.0
C335 C 0.66939 0.59974 0.4754 0.0
C336 C 0.27978 0.38086 0.21116 0.0
C337 C 0.29957 0.35904 0.17449 0.0
H338 H 0.21829 0.40528 0.23512 0.0
C339 C 0.27119 0.34521 0.13271 0.0
H340 H 0.3006 0.39196 0.24388 0.0
C341 C 0.22381 0.35279 0.12774 0.0
C342 C 0.20365 0.37399 0.16466 0.0
H343 H 0.28542 0.32807 0.10403 0.0
H344 H 0.20255 0.34131 0.09528 0.0
C345 C 0.23231 0.38809 0.20634 0.0
C346 C 0.57037 0.24484 0.94542 0.0
C347 C 0.62494 0.26617 0.94058 0.0
H348 H 0.50479 0.18218 0.97214 0.0
C349 C 0.65446 0.23647 0.95351 0.0
H350 H 0.5465 0.26669 0.93586 0.0
C351 C 0.63089 0.18888 0.97453 0.0
C352 C 0.5769 0.16893 0.98251 0.0
H353 H 0.69642 0.25109 0.94932 0.0
H354 H 0.65537 0.16845 0.98631 0.0
C355 C 0.54649 0.19646 0.96614 0.0
C356 C 0.90656 0.82511 0.50883 0.0
C357 C 0.91253 0.81589 0.46057 0.0
H358 H 0.92009 0.87945 0.56419 0.0
C359 C 0.94374 0.85673 0.43222 0.0
H360 H 0.88526 0.79469 0.53275 0.0
C361 C 0.96648 0.90562 0.45156 0.0
C362 C 0.95692 0.91449 0.49898 0.0
H363 H 0.94955 0.8513 0.39508 0.0
H364 H 0.99015 0.93663 0.42927 0.0
C365 C 0.92706 0.87377 0.52728 0.0
C366 C 0.24441 0.67097 0.74586 0.0
C367 C 0.23438 0.71494 0.73333 0.0
H368 H 0.29814 0.63139 0.74301 0.0
C369 C 0.26906 0.74988 0.70197 0.0
H370 H 0.21815 0.64296 0.76939 0.0
C371 C 0.31475 0.74302 0.68663 0.0
C372 C 0.3268 0.70138 0.70272 0.0
H373 H 0.26297 0.78446 0.69202 0.0
H374 H 0.34217 0.77192 0.66464 0.0
C375 C 0.29031 0.66448 0.73103 0.0
C376 C 0.63843 0.79794 0.763 0.0
C377 C 0.61443 0.82035 0.79612 0.0
H378 H 0.69593 0.81102 0.70801 0.0
C379 C 0.61776 0.87077 0.78777 0.0
H380 H 0.63441 0.75843 0.76602 0.0
C381 C 0.65065 0.8999 0.75267 0.0
C382 C 0.68247 0.88014 0.72619 0.0
H383 H 0.59977 0.89027 0.81105 0.0
H384 H 0.65519 0.93961 0.74973 0.0
C385 C 0.67311 0.82787 0.72893 0.0
C386 C 0.79426 0.30789 0.28103 0.0
C387 C 0.84677 0.31983 0.29337 0.0
H388 H 0.7326 0.26693 0.23578 0.0
C389 C 0.87937 0.30478 0.26274 0.0
H390 H 0.76702 0.31723 0.30368 0.0
C391 C 0.8586 0.27401 0.22381 0.0
C392 C 0.80526 0.25903 0.21421 0.0
H393 H 0.92023 0.31422 0.27031 0.0
H394 H 0.88356 0.25978 0.20271 0.0
C395 C 0.77404 0.27844 0.24178 0.0
C396 C 0.40959 0.60955 0.39645 0.0
C397 C 0.42825 0.66306 0.39516 0.0
H398 H 0.40848 0.54226 0.43352 0.0
C399 C 0.45997 0.68948 0.432 0.0
H400 H 0.38501 0.58794 0.36862 0.0
C401 C 0.47311 0.6636 0.46899 0.0
C402 C 0.4552 0.61014 0.4705 0.0
H403 H 0.47492 0.73061 0.43224 0.0
H404 H 0.49784 0.68595 0.49641 0.0
C405 C 0.42299 0.58335 0.43373 0.0
C406 C 0.14211 0.53162 0.89087 0.0
C407 C 0.12872 0.47985 0.88024 0.0
H408 H 0.13257 0.58731 0.93797 0.0
C409 C 0.095 0.44373 0.91114 0.0
H410 H 0.16811 0.56031 0.86773 0.0
C411 C 0.07481 0.45914 0.95158 0.0
C412 C 0.08764 0.51103 0.96201 0.0
H413 H 0.08407 0.40354 0.90412 0.0
H414 H 0.04872 0.43023 0.97445 0.0
C415 C 0.12175 0.54707 0.93118 0.0
C416 C 0.5888 0.87502 0.98338 0.0
C417 C 0.55123 0.84374 0.9528 0.0
H418 H 0.61086 0.93899 1.02923 0.0
C419 C 0.50431 0.85243 0.94713 0.0
H420 H 0.62579 0.86997 0.98772 0.0
C421 C 0.49561 0.89225 0.97118 0.0
C422 C 0.5343 0.9247 1.00024 0.0
H423 H 0.47497 0.82913 0.92338 0.0
H424 H 0.4594 0.89857 0.96592 0.0
C425 C 0.58058 0.91514 1.00657 0.0
C426 C 0.01311 0.2225 0.43293 0.0
C427 C 0.97569 0.24172 0.45038 0.0
H428 H 0.051 0.16822 0.44187 0.0
C429 C 0.94676 0.21968 0.49087 0.0
H430 H 0.03578 0.2388 0.40156 0.0
C431 C 0.95495 0.17928 0.51348 0.0
C432 C 0.99252 0.1599 0.49642 0.0
H433 H 0.91741 0.23331 0.50513 0.0
H434 H 0.93178 0.16353 0.54472 0.0
C435 C 0.02165 0.18202 0.45585 0.0
C436 C 0.23776 0.61857 0.18181 0.0
C437 C 0.25254 0.66941 0.19638 0.0
H438 H 0.18223 0.55704 0.14472 0.0
C439 C 0.22033 0.69688 0.18472 0.0
H440 H 0.26176 0.59639 0.18985 0.0
C441 C 0.17543 0.67477 0.15831 0.0
C442 C 0.16094 0.62426 0.14312 0.0
H443 H 0.22976 0.73577 0.19613 0.0
H444 H 0.15183 0.69734 0.15017 0.0
C445 C 0.19243 0.59622 0.15551 0.0
C446 C 0.3046 0.4019 0.68688 0.0
C447 C 0.27305 0.42966 0.70022 0.0
H448 H 0.37299 0.40162 0.65072 0.0
C449 C 0.28961 0.48155 0.68862 0.0
H450 H 0.29357 0.36212 0.69614 0.0
C451 C 0.33584 0.50455 0.66262 0.0
C452 C 0.36605 0.47593 0.6476 0.0
H453 H 0.26606 0.50388 0.69826 0.0
H454 H 0.34739 0.54444 0.65365 0.0
C455 C 0.35017 0.42457 0.66067 0.0
C456 C 0.75107 0.72982 0.96719 0.0
C457 C 0.72948 0.7061 0.92489 0.0
H458 H 0.81639 0.75064 1.01332 0.0
C459 C 0.75835 0.68489 0.8962 0.0
H460 H 0.72985 0.74678 0.98994 0.0
C461 C 0.80799 0.68733 0.90946 0.0
C462 C 0.82964 0.71086 0.95184 0.0
H463 H 0.74258 0.66653 0.86336 0.0
H464 H 0.82901 0.66992 0.88695 0.0
C465 C 0.80062 0.73204 0.98059 0.0
C466 C 0.46078 0.84241 0.2064 0.0
C467 C 0.40762 0.82581 0.2185 0.0
H468 H 0.52543 0.90022 0.17313 0.0
C469 C 0.38026 0.85885 0.21033 0.0
H470 H 0.48286 0.8178 0.21191 0.0
C471 C 0.4043 0.90571 0.18785 0.0
C472 C 0.45661 0.92116 0.17305 0.0
H473 H 0.33937 0.84746 0.2197 0.0
H474 H 0.38121 0.929 0.1806 0.0
C475 C 0.48501 0.88957 0.18387 0.0
C476 C 0.09143 0.23282 0.72924 0.0
C477 C 0.11178 0.27756 0.70216 0.0
H478 H 0.05826 0.15113 0.72849 0.0
C479 C 0.10925 0.27393 0.65274 0.0
H480 H 0.09295 0.23443 0.76738 0.0
C481 C 0.09094 0.22681 0.63077 0.0
C482 C 0.07352 0.1819 0.65756 0.0
H483 H 0.12349 0.30771 0.63085 0.0
H484 H 0.09116 0.22557 0.59257 0.0
C485 C 0.07206 0.18523 0.70704 0.0
C486 C 0.78289 0.42525 0.42092 0.0
C487 C 0.79634 0.38467 0.43786 0.0
H488 H 0.72512 0.45999 0.41839 0.0
C489 C 0.76273 0.35054 0.47039 0.0
H490 H 0.80816 0.45235 0.39608 0.0
C491 C 0.71496 0.35463 0.48284 0.0
C492 C 0.69978 0.39288 0.46295 0.0
H493 H 0.77152 0.3184 0.48352 0.0
H494 H 0.68867 0.32607 0.50588 0.0
C495 C 0.73509 0.42924 0.43324 0.0
loop_
_geom_bond_atom_site_label_1
_geom_bond_atom_site_label_2
_geom_bond_distance
_geom_bond_site_symmetry_2
_ccdc_geom_bond_type
H0 C5 0.930 . S
H1 C8 0.930 . S
H2 C10 0.930 . S
H3 C4 1.016 . S
C4 H3 1.016 . S
C4 N11 1.286 . S
C5 H0 0.930 . S
C5 C6 1.397 . S
C5 C7 1.361 . S
C6 C5 1.397 . S
C6 C10 1.390 . S
C7 C5 1.361 . S
C7 C8 1.393 . S
C7 N11 1.413 . S
C8 H1 0.930 . S
C8 C7 1.393 . S
C8 C9 1.399 . S
C9 C8 1.399 . S
C9 C10 1.381 . S
C10 H2 0.930 . S
C10 C6 1.390 . S
C10 C9 1.381 . S
N11 C4 1.286 . S
N11 C7 1.413 . S
H12 C17 0.930 . S
H13 C20 0.930 . S
H14 C22 0.930 . S
H15 C16 1.016 . S
C16 H15 1.016 . S
C16 N23 1.286 . S
C17 H12 0.930 . S
C17 C18 1.397 . S
C17 C19 1.361 . S
C18 C17 1.397 . S
C18 C22 1.390 . S
C19 C17 1.361 . S
C19 C20 1.393 . S
C19 N23 1.413 . S
C20 H13 0.930 . S
C20 C19 1.393 . S
C20 C21 1.399 . S
C21 C20 1.399 . S
C21 C22 1.381 . S
C22 H14 0.930 . S
C22 C18 1.390 . S
C22 C21 1.381 . S
N23 C16 1.286 . S
N23 C19 1.413 . S
H24 C29 0.930 . S
H25 C32 0.930 . S
H26 C34 0.930 . S
H27 C28 1.016 . S
C28 H27 1.016 . S
C28 N35 1.286 . S
C29 H24 0.930 . S
C29 C30 1.397 . S
C29 C31 1.361 . S
C30 C29 1.397 . S
C30 C34 1.390 . S
C31 C29 1.361 . S
C31 C32 1.393 . S
C31 N35 1.413 . S
C32 H25 0.930 . S
C32 C31 1.393 . S
C32 C33 1.399 . S
C33 C32 1.399 . S
C33 C34 1.381 . S
C34 H26 0.930 . S
C34 C30 1.390 . S
C34 C33 1.381 . S
N35 C28 1.286 . S
N35 C31 1.413 . S
H36 C41 0.930 . S
H37 C44 0.930 . S
H38 C46 0.930 . S
H39 C40 1.016 . S
C40 H39 1.016 . S
C40 N47 1.286 . S
C41 H36 0.930 . S
C41 C42 1.397 . S
C41 C43 1.361 . S
C42 C41 1.397 . S
C42 C46 1.390 . S
C43 C41 1.361 . S
C43 C44 1.393 . S
C43 N47 1.413 . S
C44 H37 0.930 . S
C44 C43 1.393 . S
C44 C45 1.399 . S
C45 C44 1.399 . S
C45 C46 1.381 . S
C46 H38 0.930 . S
C46 C42 1.390 . S
C46 C45 1.381 . S
N47 C40 1.286 . S
N47 C43 1.413 . S
H48 C53 0.930 . S
H49 C56 0.930 . S
H50 C58 0.930 . S
H51 C52 1.016 . S
C52 H51 1.016 . S
C52 N59 1.286 . S
C53 H48 0.930 . S
C53 C54 1.397 . S
C53 C55 1.361 . S
C54 C53 1.397 . S
C54 C58 1.390 . S
C55 C53 1.361 . S
C55 C56 1.393 . S
C55 N59 1.413 . S
C56 H49 0.930 . S
C56 C55 1.393 . S
C56 C57 1.399 . S
C57 C56 1.399 . S
C57 C58 1.381 . S
C58 H50 0.930 . S
C58 C54 1.390 . S
C58 C57 1.381 . S
N59 C52 1.286 . S
N59 C55 1.413 . S
H60 C65 0.930 . S
H61 C68 0.930 . S
H62 C70 0.930 . S
H63 C64 1.018 1_455 S
C64 H63 1.018 1_655 S
C64 N71 1.286 . S
C65 H60 0.930 . S
C65 C66 1.397 . S
C65 C67 1.361 . S
C66 C65 1.397 . S
C66 C70 1.390 . S
C67 C65 1.361 . S
C67 C68 1.393 . S
C67 N71 1.413 . S
C68 H61 0.930 . S
C68 C67 1.393 . S
C68 C69 1.399 . S
C69 C68 1.399 . S
C69 C70 1.381 . S
C70 H62 0.930 . S
C70 C66 1.390 . S
C70 C69 1.381 . S
N71 C64 1.286 . S
N71 C67 1.413 . S
H72 C77 0.930 . S
H73 C80 0.930 . S
H74 C82 0.930 . S
H75 C76 1.016 . S
C76 H75 1.016 . S
C76 N83 1.286 . S
C77 H72 0.930 . S
C77 C78 1.397 . S
C77 C79 1.361 . S
C78 C77 1.397 . S
C78 C82 1.390 . S
C79 C77 1.361 . S
C79 C80 1.393 . S
C79 N83 1.413 . S
C80 H73 0.930 . S
C80 C79 1.393 . S
C80 C81 1.399 . S
C81 C80 1.399 . S
C81 C82 1.381 . S
C82 H74 0.930 . S
C82 C78 1.390 . S
C82 C81 1.381 . S
N83 C76 1.286 . S
N83 C79 1.413 . S
H84 C89 0.930 . S
H85 C92 0.930 . S
H86 C94 0.930 . S
H87 C88 1.016 . S
C88 H87 1.016 . S
C88 N95 1.286 . S
C89 H84 0.930 . S
C89 C90 1.397 . S
C89 C91 1.361 . S
C90 C89 1.397 . S
C90 C94 1.390 . S
C91 C89 1.361 . S
C91 C92 1.393 . S
C91 N95 1.413 . S
C92 H85 0.930 . S
C92 C91 1.393 . S
C92 C93 1.399 . S
C93 C92 1.399 . S
C93 C94 1.381 . S
C94 H86 0.930 . S
C94 C90 1.390 . S
C94 C93 1.381 . S
N95 C88 1.286 . S
N95 C91 1.413 . S
Dy96 O99 2.307 1_545 S
Dy96 O101 2.395 . S
Dy96 O102 2.379 . S
Dy96 O104 2.339 1_545 S
Dy96 O106 2.298 . S
Dy96 O110 2.275 . S
Dy96 C118 2.738 . S
Dy97 O100 2.299 1_655 S
Dy97 O103 2.275 . S
Dy97 O105 2.307 1_565 S
Dy97 O107 2.395 . S
Dy97 O108 2.379 . S
Dy97 O111 2.339 1_565 S
Dy97 C127 2.738 . S
C98 O110 1.254 . S
C98 O111 1.257 1_455 S
O99 Dy96 2.307 1_565 S
O99 C109 1.266 . S
O100 Dy97 2.299 1_455 S
O100 C109 1.234 . S
O101 Dy96 2.395 . S
O101 C118 1.255 . S
O102 Dy96 2.379 . S
O102 C118 1.249 . S
O103 Dy97 2.275 . S
O103 C119 1.254 . S
O104 Dy96 2.339 1_565 S
O104 C119 1.257 1_455 S
O105 Dy97 2.307 1_545 S
O105 C120 1.266 . S
O106 Dy96 2.298 . S
O106 C120 1.236 1_455 S
O107 Dy97 2.395 . S
O107 C127 1.255 . S
O108 Dy97 2.379 . S
O108 C127 1.249 . S
C109 O99 1.266 . S
C109 O100 1.234 . S
O110 Dy96 2.275 . S
O110 C98 1.254 . S
O111 Dy97 2.339 1_545 S
O111 C98 1.257 1_655 S
C112 C115 1.344 . S
C112 C116 1.328 . S
C112 C118 1.516 . S
C113 C114 1.304 . S
C113 C117 1.323 . S
C114 C113 1.304 . S
C114 C115 1.371 . S
C114 H128 0.930 . S
C115 C112 1.344 . S
C115 C114 1.371 . S
C115 H129 0.931 . S
C116 C112 1.328 . S
C116 C117 1.433 . S
C116 H130 0.931 . S
C117 C113 1.323 . S
C117 C116 1.433 . S
C117 H131 0.933 . S
C118 Dy96 2.738 . S
C118 O101 1.255 . S
C118 O102 1.249 . S
C118 C112 1.516 . S
C119 O103 1.254 . S
C119 O104 1.257 1_655 S
C120 O105 1.266 . S
C120 O106 1.236 1_655 S
C121 C124 1.344 . S
C121 C125 1.328 . S
C121 C127 1.516 . S
C122 C123 1.304 . S
C122 C126 1.323 . S
C123 C122 1.304 . S
C123 C124 1.371 . S
C123 H132 0.930 . S
C124 C121 1.344 . S
C124 C123 1.371 . S
C124 H133 0.931 . S
C125 C121 1.328 . S
C125 C126 1.433 . S
C125 H134 0.931 . S
C126 C122 1.323 . S
C126 C125 1.433 . S
C126 H135 0.933 . S
C127 Dy97 2.738 . S
C127 O107 1.255 . S
C127 O108 1.249 . S
C127 C121 1.516 . S
H128 C114 0.930 . S
H129 C115 0.931 . S
H130 C116 0.931 . S
H131 C117 0.933 . S
H132 C123 0.930 . S
H133 C124 0.931 . S
H134 C125 0.931 . S
H135 C126 0.933 . S
Dy136 O139 2.307 1_556 S
Dy136 O141 2.395 1_545 S
Dy136 O142 2.379 1_545 S
Dy136 O144 2.339 . S
Dy136 O146 2.298 1_545 S
Dy136 O150 2.275 1_546 S
Dy136 C158 2.738 1_545 S
Dy137 O140 2.298 . S
Dy137 O143 2.275 1_554 S
Dy137 O145 2.307 1_544 S
Dy137 O147 2.395 . S
Dy137 O148 2.379 . S
Dy137 O151 2.339 1_545 S
Dy137 C167 2.738 . S
C138 O150 1.254 . S
C138 O151 1.257 . S
O139 Dy136 2.307 1_554 S
O139 C149 1.266 . S
O140 Dy137 2.298 . S
O140 C149 1.236 . S
O141 Dy136 2.395 1_565 S
O141 C158 1.255 . S
O142 Dy136 2.379 1_565 S
O142 C158 1.249 . S
O143 Dy137 2.275 1_556 S
O143 C159 1.254 . S
O144 Dy136 2.339 . S
O144 C159 1.257 . S
O145 Dy137 2.307 1_566 S
O145 C160 1.266 . S
O146 Dy136 2.298 1_565 S
O146 C160 1.236 . S
O147 Dy137 2.395 . S
O147 C167 1.255 . S
O148 Dy137 2.379 . S
O148 C167 1.249 . S
C149 O139 1.266 . S
C149 O140 1.236 . S
O150 Dy136 2.275 1_564 S
O150 C138 1.254 . S
O151 Dy137 2.339 1_565 S
O151 C138 1.257 . S
C152 C155 1.344 . S
C152 C156 1.328 . S
C152 C158 1.516 . S
C153 C154 1.304 . S
C153 C157 1.323 . S
C154 C153 1.304 . S
C154 C155 1.371 . S
C154 H168 0.930 . S
C155 C152 1.344 . S
C155 C154 1.371 . S
C155 H169 0.931 . S
C156 C152 1.328 . S
C156 C157 1.433 . S
C156 H170 0.931 . S
C157 C153 1.323 . S
C157 C156 1.433 . S
C157 H171 0.933 . S
C158 Dy136 2.738 1_565 S
C158 O141 1.255 . S
C158 O142 1.249 . S
C158 C152 1.516 . S
C159 O143 1.254 . S
C159 O144 1.257 . S
C160 O145 1.266 . S
C160 O146 1.236 . S
C161 C164 1.344 . S
C161 C165 1.328 . S
C161 C167 1.516 . S
C162 C163 1.304 . S
C162 C166 1.323 . S
C163 C162 1.304 . S
C163 C164 1.371 . S
C163 H172 0.930 . S
C164 C161 1.344 . S
C164 C163 1.371 . S
C164 H173 0.931 . S
C165 C161 1.328 . S
C165 C166 1.433 . S
C165 H174 0.931 . S
C166 C162 1.323 . S
C166 C165 1.433 . S
C166 H175 0.933 . S
C167 Dy137 2.738 . S
C167 O147 1.255 . S
C167 O148 1.249 . S
C167 C161 1.516 . S
H168 C154 0.930 . S
H169 C155 0.931 . S
H170 C156 0.931 . S
H171 C157 0.933 . S
H172 C163 0.930 . S
H173 C164 0.931 . S
H174 C165 0.931 . S
H175 C166 0.933 . S
Dy176 O179 2.307 . S
Dy176 O181 2.395 . S
Dy176 O182 2.379 . S
Dy176 O184 2.339 . S
Dy176 O186 2.298 . S
Dy176 O190 2.275 . S
Dy176 C198 2.738 . S
Dy177 O180 2.298 . S
Dy177 O183 2.275 . S
Dy177 O185 2.307 . S
Dy177 O187 2.395 . S
Dy177 O188 2.379 . S
Dy177 O191 2.339 . S
Dy177 C207 2.738 . S
C178 O190 1.254 . S
C178 O191 1.257 . S
O179 Dy176 2.307 . S
O179 C189 1.266 . S
O180 Dy177 2.298 . S
O180 C189 1.236 . S
O181 Dy176 2.395 . S
O181 C198 1.255 . S
O182 Dy176 2.379 . S
O182 C198 1.249 . S
O183 Dy177 2.275 . S
O183 C199 1.254 . S
O184 Dy176 2.339 . S
O184 C199 1.257 . S
O185 Dy177 2.307 . S
O185 C200 1.266 . S
O186 Dy176 2.298 . S
O186 C200 1.236 . S
O187 Dy177 2.395 . S
O187 C207 1.255 . S
O188 Dy177 2.379 . S
O188 C207 1.249 . S
C189 O179 1.266 . S
C189 O180 1.236 . S
O190 Dy176 2.275 . S
O190 C178 1.254 . S
O191 Dy177 2.339 . S
O191 C178 1.257 . S
C192 C195 1.344 . S
C192 C196 1.328 . S
C192 C198 1.516 . S
C193 C194 1.304 . S
C193 C197 1.323 . S
C194 C193 1.304 . S
C194 C195 1.371 . S
C194 H208 0.930 . S
C195 C192 1.344 . S
C195 C194 1.371 . S
C195 H209 0.931 . S
C196 C192 1.328 . S
C196 C197 1.433 . S
C196 H210 0.931 . S
C197 C193 1.323 . S
C197 C196 1.433 . S
C197 H211 0.933 . S
C198 Dy176 2.738 . S
C198 O181 1.255 . S
C198 O182 1.249 . S
C198 C192 1.516 . S
C199 O183 1.254 . S
C199 O184 1.257 . S
C200 O185 1.266 . S
C200 O186 1.236 . S
C201 C204 1.344 . S
C201 C205 1.328 . S
C201 C207 1.516 . S
C202 C203 1.304 . S
C202 C206 1.323 . S
C203 C202 1.304 . S
C203 C204 1.371 . S
C203 H212 0.930 . S
C204 C201 1.344 . S
C204 C203 1.371 . S
C204 H213 0.931 . S
C205 C201 1.328 . S
C205 C206 1.433 . S
C205 H214 0.931 . S
C206 C202 1.323 . S
C206 C205 1.433 . S
C206 H215 0.933 . S
C207 Dy177 2.738 . S
C207 O187 1.255 . S
C207 O188 1.249 . S
C207 C201 1.516 . S
H208 C194 0.930 . S
H209 C195 0.931 . S
H210 C196 0.931 . S
H211 C197 0.933 . S
H212 C203 0.930 . S
H213 C204 0.931 . S
H214 C205 0.931 . S
H215 C206 0.933 . S
Dy216 O219 2.307 1_556 S
Dy216 O221 2.395 1_455 S
Dy216 O222 2.379 1_455 S
Dy216 O224 2.339 . S
Dy216 O226 2.298 1_455 S
Dy216 O230 2.275 1_456 S
Dy216 C238 2.738 1_455 S
Dy217 O220 2.298 . S
Dy217 O223 2.275 1_554 S
Dy217 O225 2.307 1_455 S
Dy217 O227 2.395 . S
Dy217 O228 2.379 . S
Dy217 O231 2.339 1_455 S
Dy217 C247 2.738 . S
C218 O230 1.254 . S
C218 O231 1.257 . S
O219 Dy216 2.307 1_554 S
O219 C229 1.266 . S
O220 Dy217 2.298 . S
O220 C229 1.236 . S
O221 Dy216 2.395 1_655 S
O221 C238 1.255 . S
O222 Dy216 2.379 1_655 S
O222 C238 1.249 . S
O223 Dy217 2.275 1_556 S
O223 C239 1.254 . S
O224 Dy216 2.339 . S
O224 C239 1.257 . S
O225 Dy217 2.307 1_655 S
O225 C240 1.266 1_554 S
O226 Dy216 2.298 1_655 S
O226 C240 1.236 . S
O227 Dy217 2.395 . S
O227 C247 1.255 . S
O228 Dy217 2.379 . S
O228 C247 1.249 . S
C229 O219 1.266 . S
C229 O220 1.236 . S
O230 Dy216 2.275 1_654 S
O230 C218 1.254 . S
O231 Dy217 2.339 1_655 S
O231 C218 1.257 . S
C232 C235 1.344 . S
C232 C236 1.328 . S
C232 C238 1.516 . S
C233 C234 1.304 . S
C233 C237 1.323 . S
C234 C233 1.304 . S
C234 C235 1.371 . S
C234 H248 0.930 . S
C235 C232 1.344 . S
C235 C234 1.371 . S
C235 H249 0.931 . S
C236 C232 1.328 . S
C236 C237 1.433 . S
C236 H250 0.931 . S
C237 C233 1.323 . S
C237 C236 1.433 . S
C237 H251 0.933 . S
C238 Dy216 2.738 1_655 S
C238 O221 1.255 . S
C238 O222 1.249 . S
C238 C232 1.516 . S
C239 O223 1.254 . S
C239 O224 1.257 . S
C240 O225 1.266 1_556 S
C240 O226 1.236 . S
C241 C244 1.344 . S
C241 C245 1.328 . S
C241 C247 1.516 . S
C242 C243 1.304 . S
C242 C246 1.323 . S
C243 C242 1.304 . S
C243 C244 1.371 . S
C243 H252 0.930 . S
C244 C241 1.344 . S
C244 C243 1.371 . S
C244 H253 0.931 . S
C245 C241 1.328 . S
C245 C246 1.433 . S
C245 H254 0.931 . S
C246 C242 1.323 . S
C246 C245 1.433 . S
C246 H255 0.933 . S
C247 Dy217 2.738 . S
C247 O227 1.255 . S
C247 O228 1.249 . S
C247 C241 1.516 . S
H248 C234 0.930 . S
H249 C235 0.931 . S
H250 C236 0.931 . S
H251 C237 0.933 . S
H252 C243 0.930 . S
H253 C244 0.931 . S
H254 C245 0.931 . S
H255 C246 0.933 . S
C256 C257 1.387 . S
C256 H260 0.950 . S
C256 C265 1.390 . S
C257 C256 1.387 . S
C257 C259 1.387 . S
H258 C265 0.950 . S
C259 C257 1.387 . S
C259 C261 1.390 . S
C259 H263 0.950 . S
H260 C256 0.950 . S
C261 C259 1.390 . S
C261 C262 1.387 . S
C261 H264 0.950 . S
C262 C261 1.387 . S
C262 C265 1.387 . S
H263 C259 0.950 . S
H264 C261 0.950 . S
C265 C256 1.390 . S
C265 H258 0.950 . S
C265 C262 1.387 . S
C266 C267 1.387 . S
C266 H270 0.950 . S
C266 C275 1.390 . S
C267 C266 1.387 . S
C267 C269 1.387 . S
H268 C275 0.950 . S
C269 C267 1.387 . S
C269 C271 1.390 . S
C269 H273 0.950 . S
H270 C266 0.950 . S
C271 C269 1.390 . S
C271 C272 1.387 . S
C271 H274 0.950 . S
C272 C271 1.387 . S
C272 C275 1.387 . S
H273 C269 0.950 . S
H274 C271 0.950 . S
C275 C266 1.390 . S
C275 H268 0.950 . S
C275 C272 1.387 . S
C276 C277 1.387 . S
C276 H280 0.950 . S
C276 C285 1.390 . S
C277 C276 1.387 . S
C277 C279 1.387 . S
H278 C285 0.950 . S
C279 C277 1.387 . S
C279 C281 1.390 . S
C279 H283 0.950 . S
H280 C276 0.950 . S
C281 C279 1.390 . S
C281 C282 1.387 . S
C281 H284 0.950 . S
C282 C281 1.387 . S
C282 C285 1.387 . S
H283 C279 0.950 . S
H284 C281 0.950 . S
C285 C276 1.390 . S
C285 H278 0.950 . S
C285 C282 1.387 . S
C286 C287 1.387 . S
C286 H290 0.950 . S
C286 C295 1.390 . S
C287 C286 1.387 . S
C287 C289 1.387 . S
H288 C295 0.950 1_455 S
C289 C287 1.387 . S
C289 C291 1.390 . S
C289 H293 0.950 . S
H290 C286 0.950 . S
C291 C289 1.390 . S
C291 C292 1.387 . S
C291 H294 0.950 . S
C292 C291 1.387 . S
C292 C295 1.387 . S
H293 C289 0.950 . S
H294 C291 0.950 . S
C295 C286 1.390 . S
C295 H288 0.950 1_655 S
C295 C292 1.387 . S
C296 C297 1.387 . S
C296 H300 0.950 . S
C296 C305 1.390 . S
C297 C296 1.387 . S
C297 C299 1.387 . S
H298 C305 0.950 . S
C299 C297 1.387 . S
C299 C301 1.390 . S
C299 H303 0.950 . S
H300 C296 0.950 . S
C301 C299 1.390 . S
C301 C302 1.387 . S
C301 H304 0.950 . S
C302 C301 1.387 . S
C302 C305 1.387 . S
H303 C299 0.950 . S
H304 C301 0.950 . S
C305 C296 1.390 . S
C305 H298 0.950 . S
C305 C302 1.387 . S
C306 C307 1.387 . S
C306 H310 0.950 . S
C306 C315 1.390 . S
C307 C306 1.387 . S
C307 C309 1.387 1_455 S
H308 C315 0.950 . S
C309 C307 1.387 1_655 S
C309 C311 1.390 . S
C309 H313 0.950 . S
H310 C306 0.950 . S
C311 C309 1.390 . S
C311 C312 1.387 1_655 S
C311 H314 0.950 . S
C312 C311 1.387 1_455 S
C312 C315 1.387 . S
H313 C309 0.950 . S
H314 C311 0.950 . S
C315 C306 1.390 . S
C315 H308 0.950 . S
C315 C312 1.387 . S
C316 C317 1.387 . S
C316 H320 0.950 . S
C316 C325 1.390 . S
C317 C316 1.387 . S
C317 C319 1.387 . S
H318 C325 0.950 . S
C319 C317 1.387 . S
C319 C321 1.390 . S
C319 H323 0.950 . S
H320 C316 0.950 . S
C321 C319 1.390 . S
C321 C322 1.387 . S
C321 H324 0.950 . S
C322 C321 1.387 . S
C322 C325 1.387 . S
H323 C319 0.950 . S
H324 C321 0.950 . S
C325 C316 1.390 . S
C325 H318 0.950 . S
C325 C322 1.387 . S
C326 C327 1.387 . S
C326 H330 0.950 . S
C326 C335 1.390 . S
C327 C326 1.387 . S
C327 C329 1.387 . S
H328 C335 0.950 . S
C329 C327 1.387 . S
C329 C331 1.390 . S
C329 H333 0.950 . S
H330 C326 0.950 . S
C331 C329 1.390 . S
C331 C332 1.387 . S
C331 H334 0.950 . S
C332 C331 1.387 . S
C332 C335 1.387 . S
H333 C329 0.950 . S
H334 C331 0.950 . S
C335 C326 1.390 . S
C335 H328 0.950 . S
C335 C332 1.387 . S
C336 C337 1.387 . S
C336 H340 0.950 . S
C336 C345 1.390 . S
C337 C336 1.387 . S
C337 C339 1.387 . S
H338 C345 0.950 . S
C339 C337 1.387 . S
C339 C341 1.390 . S
C339 H343 0.950 . S
H340 C336 0.950 . S
C341 C339 1.390 . S
C341 C342 1.387 . S
C341 H344 0.950 . S
C342 C341 1.387 . S
C342 C345 1.387 . S
H343 C339 0.950 . S
H344 C341 0.950 . S
C345 C336 1.390 . S
C345 H338 0.950 . S
C345 C342 1.387 . S
C346 C347 1.387 . S
C346 H350 0.950 . S
C346 C355 1.390 . S
C347 C346 1.387 . S
C347 C349 1.387 . S
H348 C355 0.950 . S
C349 C347 1.387 . S
C349 C351 1.390 . S
C349 H353 0.950 . S
H350 C346 0.950 . S
C351 C349 1.390 . S
C351 C352 1.387 . S
C351 H354 0.950 . S
C352 C351 1.387 . S
C352 C355 1.387 . S
H353 C349 0.950 . S
H354 C351 0.950 . S
C355 C346 1.390 . S
C355 H348 0.950 . S
C355 C352 1.387 . S
C356 C357 1.387 . S
C356 H360 0.950 . S
C356 C365 1.390 . S
C357 C356 1.387 . S
C357 C359 1.387 . S
H358 C365 0.950 . S
C359 C357 1.387 . S
C359 C361 1.390 . S
C359 H363 0.950 . S
H360 C356 0.950 . S
C361 C359 1.390 . S
C361 C362 1.387 . S
C361 H364 0.950 . S
C362 C361 1.387 . S
C362 C365 1.387 . S
H363 C359 0.950 . S
H364 C361 0.950 . S
C365 C356 1.390 . S
C365 H358 0.950 . S
C365 C362 1.387 . S
C366 C367 1.387 . S
C366 H370 0.950 . S
C366 C375 1.390 . S
C367 C366 1.387 . S
C367 C369 1.387 . S
H368 C375 0.950 . S
C369 C367 1.387 . S
C369 C371 1.390 . S
C369 H373 0.950 . S
H370 C366 0.950 . S
C371 C369 1.390 . S
C371 C372 1.387 . S
C371 H374 0.950 . S
C372 C371 1.387 . S
C372 C375 1.387 . S
H373 C369 0.950 . S
H374 C371 0.950 . S
C375 C366 1.390 . S
C375 H368 0.950 . S
C375 C372 1.387 . S
C376 C377 1.387 . S
C376 H380 0.950 . S
C376 C385 1.390 . S
C377 C376 1.387 . S
C377 C379 1.387 . S
H378 C385 0.950 . S
C379 C377 1.387 . S
C379 C381 1.390 . S
C379 H383 0.950 . S
H380 C376 0.950 . S
C381 C379 1.390 . S
C381 C382 1.387 . S
C381 H384 0.950 . S
C382 C381 1.387 . S
C382 C385 1.387 . S
H383 C379 0.950 . S
H384 C381 0.950 . S
C385 C376 1.390 . S
C385 H378 0.950 . S
C385 C382 1.387 . S
C386 C387 1.387 . S
C386 H390 0.950 . S
C386 C395 1.390 . S
C387 C386 1.387 . S
C387 C389 1.387 . S
H388 C395 0.950 . S
C389 C387 1.387 . S
C389 C391 1.390 . S
C389 H393 0.950 . S
H390 C386 0.950 . S
C391 C389 1.390 . S
C391 C392 1.387 . S
C391 H394 0.950 . S
C392 C391 1.387 . S
C392 C395 1.387 . S
H393 C389 0.950 . S
H394 C391 0.950 . S
C395 C386 1.390 . S
C395 H388 0.950 . S
C395 C392 1.387 . S
C396 C397 1.387 . S
C396 H400 0.950 . S
C396 C405 1.390 . S
C397 C396 1.387 . S
C397 C399 1.387 . S
H398 C405 0.950 . S
C399 C397 1.387 . S
C399 C401 1.390 . S
C399 H403 0.950 . S
H400 C396 0.950 . S
C401 C399 1.390 . S
C401 C402 1.387 . S
C401 H404 0.950 . S
C402 C401 1.387 . S
C402 C405 1.387 . S
H403 C399 0.950 . S
H404 C401 0.950 . S
C405 C396 1.390 . S
C405 H398 0.950 . S
C405 C402 1.387 . S
C406 C407 1.387 . S
C406 H410 0.950 . S
C406 C415 1.390 . S
C407 C406 1.387 . S
C407 C409 1.387 . S
H408 C415 0.950 . S
C409 C407 1.387 . S
C409 C411 1.390 . S
C409 H413 0.950 . S
H410 C406 0.950 . S
C411 C409 1.390 . S
C411 C412 1.387 . S
C411 H414 0.950 . S
C412 C411 1.387 . S
C412 C415 1.387 . S
H413 C409 0.950 . S
H414 C411 0.950 . S
C415 C406 1.390 . S
C415 H408 0.950 . S
C415 C412 1.387 . S
C416 C417 1.387 . S
C416 H420 0.950 . S
C416 C425 1.390 . S
C417 C416 1.387 . S
C417 C419 1.387 . S
H418 C425 0.950 . S
C419 C417 1.387 . S
C419 C421 1.390 . S
C419 H423 0.950 . S
H420 C416 0.950 . S
C421 C419 1.390 . S
C421 C422 1.387 . S
C421 H424 0.950 . S
C422 C421 1.387 . S
C422 C425 1.387 . S
H423 C419 0.950 . S
H424 C421 0.950 . S
C425 C416 1.390 . S
C425 H418 0.950 . S
C425 C422 1.387 . S
C426 C427 1.387 . S
C426 H430 0.950 . S
C426 C435 1.390 . S
C427 C426 1.387 . S
C427 C429 1.387 1_455 S
H428 C435 0.950 . S
C429 C427 1.387 1_655 S
C429 C431 1.390 . S
C429 H433 0.950 . S
H430 C426 0.950 . S
C431 C429 1.390 . S
C431 C432 1.387 . S
C431 H434 0.950 . S
C432 C431 1.387 . S
C432 C435 1.387 1_655 S
H433 C429 0.950 . S
H434 C431 0.950 . S
C435 C426 1.390 . S
C435 H428 0.950 . S
C435 C432 1.387 1_455 S
C436 C437 1.387 . S
C436 H440 0.950 . S
C436 C445 1.390 . S
C437 C436 1.387 . S
C437 C439 1.387 . S
H438 C445 0.950 . S
C439 C437 1.387 . S
C439 C441 1.390 . S
C439 H443 0.950 . S
H440 C436 0.950 . S
C441 C439 1.390 . S
C441 C442 1.387 . S
C441 H444 0.950 . S
C442 C441 1.387 . S
C442 C445 1.387 . S
H443 C439 0.950 . S
H444 C441 0.950 . S
C445 C436 1.390 . S
C445 H438 0.950 . S
C445 C442 1.387 . S
C446 C447 1.387 . S
C446 H450 0.950 . S
C446 C455 1.390 . S
C447 C446 1.387 . S
C447 C449 1.387 . S
H448 C455 0.950 . S
C449 C447 1.387 . S
C449 C451 1.390 . S
C449 H453 0.950 . S
H450 C446 0.950 . S
C451 C449 1.390 . S
C451 C452 1.387 . S
C451 H454 0.950 . S
C452 C451 1.387 . S
C452 C455 1.387 . S
H453 C449 0.950 . S
H454 C451 0.950 . S
C455 C446 1.390 . S
C455 H448 0.950 . S
C455 C452 1.387 . S
C456 C457 1.387 . S
C456 H460 0.950 . S
C456 C465 1.390 . S
C457 C456 1.387 . S
C457 C459 1.387 . S
H458 C465 0.950 . S
C459 C457 1.387 . S
C459 C461 1.390 . S
C459 H463 0.950 . S
H460 C456 0.950 . S
C461 C459 1.390 . S
C461 C462 1.387 . S
C461 H464 0.950 . S
C462 C461 1.387 . S
C462 C465 1.387 . S
H463 C459 0.950 . S
H464 C461 0.950 . S
C465 C456 1.390 . S
C465 H458 0.950 . S
C465 C462 1.387 . S
C466 C467 1.387 . S
C466 H470 0.950 . S
C466 C475 1.390 . S
C467 C466 1.387 . S
C467 C469 1.387 . S
H468 C475 0.950 . S
C469 C467 1.387 . S
C469 C471 1.390 . S
C469 H473 0.950 . S
H470 C466 0.950 . S
C471 C469 1.390 . S
C471 C472 1.387 . S
C471 H474 0.950 . S
C472 C471 1.387 . S
C472 C475 1.387 . S
H473 C469 0.950 . S
H474 C471 0.950 . S
C475 C466 1.390 . S
C475 H468 0.950 . S
C475 C472 1.387 . S
C476 C477 1.387 . S
C476 H480 0.950 . S
C476 C485 1.390 . S
C477 C476 1.387 . S
C477 C479 1.387 . S
H478 C485 0.950 . S
C479 C477 1.387 . S
C479 C481 1.390 . S
C479 H483 0.950 . S
H480 C476 0.950 . S
C481 C479 1.390 . S
C481 C482 1.387 . S
C481 H484 0.950 . S
C482 C481 1.387 . S
C482 C485 1.387 . S
H483 C479 0.950 . S
H484 C481 0.950 . S
C485 C476 1.390 . S
C485 H478 0.950 . S
C485 C482 1.387 . S
C486 C487 1.387 . S
C486 H490 0.950 . S
C486 C495 1.390 . S
C487 C486 1.387 . S
C487 C489 1.387 . S
H488 C495 0.950 . S
C489 C487 1.387 . S
C489 C491 1.390 . S
C489 H493 0.950 . S
H490 C486 0.950 . S
C491 C489 1.390 . S
C491 C492 1.387 . S
C491 H494 0.950 . S
C492 C491 1.387 . S
C492 C495 1.387 . S
H493 C489 0.950 . S
H494 C491 0.950 . S
C495 C486 1.390 . S
C495 H488 0.950 . S
C495 C492 1.387 . S
C257 C6 1.057 . S
C262 C113 1.106 . S
C267 C18 1.224 . S
C272 C153 1.249 . S
C282 C178 2.593 . S
C277 C28 2.647 . S
C287 C40 2.005 . S
C292 C218 1.945 . S
C302 C149 1.771 . S
C297 C9 1.640 . S
C312 C109 1.791 . S
C307 C16 1.647 . S
C322 C240 1.808 . S
C317 C30 1.835 . S
C332 C200 1.507 . S
C327 C42 1.545 . S
C337 C4 1.461 . S
C342 C242 1.452 . S
C352 C159 2.409 . S
C347 C33 2.446 . S
C357 C45 1.987 . S
C362 C119 1.956 . S
C367 C21 1.500 . S
C372 C202 1.571 . S
C382 C122 1.116 . S
C377 C57 1.083 . S
C387 C66 1.214 . S
C392 C162 1.260 . S
C397 C76 2.700 . S
C402 C199 2.638 . S
C407 C88 1.919 . S
C412 C239 1.890 . S
C417 C54 1.657 . S
C422 C160 1.787 . S
C432 C120 1.876 . S
C427 C64 1.774 1_455 S
C442 C229 1.729 . S
C437 C78 1.770 . S
C452 C189 1.577 . S
C447 C93 1.604 . S
C457 C52 1.459 . S
C462 C233 1.526 . S
C472 C138 2.399 . S
C467 C81 2.432 . S
C482 C98 1.930 . S
C477 C90 1.964 . S
C487 C69 1.486 . S
C492 C193 1.582 . S
