# Generated by pormake.
# Topology anh, (6,3)-cn, num edge types: 1
# Building blocks:
#     Node 0, Type 0, BuildingBlock: PAMTOO_clean_sbu_0, # of connection points: 6
#     Node 1, Type 0, BuildingBlock: PAMTOO_clean_sbu_0, # of connection points: 6
#     Node 2, Type 0, BuildingBlock: PAMTOO_clean_sbu_0, # of connection points: 6
#     Node 3, Type 1, BuildingBlock: KAKCAD_clean_linker_0, # of connection points: 3
#     Node 4, Type 1, BuildingBlock: KAKCAD_clean_linker_0, # of connection points: 3
#     Node 5, Type 1, BuildingBlock: KAKCAD_clean_linker_0, # of connection points: 3
#     Node 6, Type 1, BuildingBlock: KAKCAD_clean_linker_0, # of connection points: 3
#     Node 7, Type 1, BuildingBlock: KAKCAD_clean_linker_0, # of connection points: 3
#     Node 8, Type 1, BuildingBlock: KAKCAD_clean_linker_0, # of connection points: 3
#     Edge 9, Type (0, 1), None
#     Edge 10, Type (0, 1), None
#     Edge 11, Type (0, 1), None
#     Edge 12, Type (0, 1), None
#     Edge 13, Type (0, 1), None
#     Edge 14, Type (0, 1), None
#     Edge 15, Type (0, 1), None
#     Edge 16, Type (0, 1), None
#     Edge 17, Type (0, 1), None
#     Edge 18, Type (0, 1), None
#     Edge 19, Type (0, 1), None
#     Edge 20, Type (0, 1), None
#     Edge 21, Type (0, 1), None
#     Edge 22, Type (0, 1), None
#     Edge 23, Type (0, 1), None
#     Edge 24, Type (0, 1), None
#     Edge 25, Type (0, 1), None
#     Edge 26, Type (0, 1), None
# Relax obj value: 0.289
# Max RMSD: 0.240
# Mean RMSD: 0.181
data_MOF--net-anh--node1-PAMTOO_clean_sbu_0--node2-KAKCAD_clean_linker_0--edge1-none
_symmetry_space_group_name_H-M    P1
_symmetry_Int_Tables_number       1
_symmetry_cell_setting            triclinic
loop_
_symmetry_equiv_pos_as_xyz
'x, y, z'
_cell_length_a     19.471548
_cell_length_b     19.052874
_cell_length_c     37.817367
_cell_angle_alpha  88.464662
_cell_angle_beta   95.372018
_cell_angle_gamma 93.337164
loop_
_atom_site_label
_atom_site_type_symbol
_atom_site_fract_x
_atom_site_fract_y
_atom_site_fract_z
_atom_type_partial_charge
Dy0 Dy 1.11886 0.67204 0.1357 0.0
Dy1 Dy 1.10635 0.50343 0.12018 0.0
C2 C 1.104 0.61826 0.05945 0.0
O3 O 1.00584 0.64379 0.14236 0.0
O4 O 0.99665 0.53608 0.11554 0.0
O5 O 0.14519 0.77601 0.1153 0.0
O6 O 1.11238 0.76217 0.16847 0.0
O7 O 1.08955 0.51724 0.17713 0.0
O8 O 0.15998 0.61616 0.18483 0.0
O9 O 0.22115 0.52633 0.13081 0.0
O10 O 0.22535 0.64627 0.12203 0.0
O11 O 1.13506 0.39773 0.13348 0.0
O12 O 1.05896 0.41643 0.08918 0.0
C13 C 0.96804 0.58902 0.12914 0.0
O14 O 1.07094 0.65272 0.08116 0.0
O15 O 1.1356 0.56202 0.07093 0.0
C16 C 0.2055 0.84562 0.15975 0.0
C17 C 0.33704 0.90878 0.18171 0.0
C18 C 0.30417 0.92453 0.14797 0.0
C19 C 0.23899 0.89331 0.13714 0.0
C20 C 0.23704 0.83227 0.19403 0.0
C21 C 0.30181 0.86373 0.20491 0.0
C22 C 0.14208 0.80476 0.14603 0.0
C23 C 1.12934 0.55962 0.19783 0.0
C24 C 0.25653 0.58644 0.12604 0.0
C25 C 1.03636 0.3183 0.1273 0.0
C26 C 0.93379 0.2346 0.1597 0.0
C27 C 0.9956 0.25703 0.17938 0.0
C28 C 1.04625 0.29822 0.16342 0.0
C29 C 0.97598 0.29313 0.10717 0.0
C30 C 0.9252 0.25164 0.12319 0.0
C31 C 1.08575 0.3698 0.11157 0.0
H32 H 0.32987 0.9588 0.1294 0.0
H33 H 0.21587 0.90436 0.11053 0.0
H34 H 0.21279 0.79587 0.2122 0.0
H35 H 0.32481 0.8518 0.23142 0.0
H36 H 1.00448 0.24356 0.20738 0.0
H37 H 1.09228 0.31593 0.1798 0.0
H38 H 0.96698 0.30743 0.07927 0.0
H39 H 0.8781 0.23524 0.10731 0.0
Dy40 Dy 0.62394 1.00875 0.51016 0.0
Dy41 Dy 0.79356 1.0127 0.51845 0.0
C42 C 0.70817 1.00865 0.58532 0.0
O43 O 0.65457 0.12271 0.50163 0.0
O44 O 0.7664 0.12285 0.52727 0.0
O45 O 0.52789 0.9818 0.53281 0.0
O46 O 0.527 0.02821 0.47987 0.0
O47 O 0.75741 0.04686 0.46328 0.0
O48 O 0.6596 0.97568 0.4591 0.0
O49 O 0.76283 0.89827 0.51098 0.0
O50 O 0.65004 0.89841 0.5244 0.0
O51 O 0.88884 0.98637 0.49848 0.0
O52 O 0.89134 0.04832 0.54587 0.0
C53 C 0.71197 0.15639 0.51457 0.0
O54 O 0.66082 0.04105 0.56518 0.0
O55 O 0.75861 0.97967 0.57135 0.0
C56 C 0.44173 0.93708 0.48993 0.0
C57 C 0.36194 0.81596 0.46618 0.0
C58 C 0.36851 0.83288 0.50231 0.0
C59 C 0.40794 0.89296 0.51406 0.0
C60 C 0.43215 0.92202 0.45357 0.0
C61 C 0.39265 0.86225 0.44187 0.0
C62 C 0.49069 0.99498 0.50312 0.0
C63 C 0.70846 1.01183 0.44393 0.0
C64 C 0.705 0.8648 0.51888 0.0
C65 C 0.97014 0.08408 0.50422 0.0
C66 C 1.03697 0.20331 0.47368 0.0
C67 C 1.00052 0.15217 0.45206 0.0
C68 C 0.9674 0.09337 0.4671 0.0
C69 C 1.00962 0.13321 0.52585 0.0
C70 C 1.04272 0.19232 0.51073 0.0
C71 C 0.92616 0.02832 0.52039 0.0
H72 H 0.34544 0.79834 0.52169 0.0
H73 H 0.41396 0.90359 0.54221 0.0
H74 H 0.45666 0.95522 0.43415 0.0
H75 H 0.38707 0.85167 0.41371 0.0
H76 H 0.9964 0.15828 0.42339 0.0
H77 H 0.93771 0.05656 0.44954 0.0
H78 H 1.01255 0.12738 0.55452 0.0
H79 H 1.07027 0.23085 0.52812 0.0
Dy80 Dy 0.70455 0.47384 0.84273 0.0
Dy81 Dy 0.54404 0.44926 0.81476 0.0
C82 C 0.65661 0.46402 0.7612 0.0
O83 O 0.65968 0.57865 0.84642 0.0
O84 O 0.57168 0.56325 0.80294 0.0
O85 O 0.7791 0.50291 0.88642 0.0
O86 O 0.81322 0.48402 0.83465 0.0
O87 O 0.5516 0.48724 0.87077 0.0
O88 O 0.64845 0.43079 0.88769 0.0
O89 O 0.57589 0.34054 0.83085 0.0
O90 O 0.69411 0.35876 0.83076 0.0
O91 O 0.43676 0.42939 0.82451 0.0
O92 O 0.46492 0.44655 0.7708 0.0
C93 C 0.6141 0.60506 0.82289 0.0
O94 O 0.69368 0.50256 0.78488 0.0
O95 O 0.60526 0.42261 0.77067 0.0
C96 C 0.85475 0.58818 0.86409 0.0
C97 C 0.88894 0.73388 0.8661 0.0
C98 C 0.90746 0.68969 0.89548 0.0
C99 C 0.89061 0.61753 0.89445 0.0
C100 C 0.83487 0.63243 0.83493 0.0
C101 C 0.8525 0.70454 0.83578 0.0
C102 C 0.82779 0.51452 0.86523 0.0
C103 C 0.59389 0.46102 0.89608 0.0
C104 C 0.63808 0.31622 0.83095 0.0
C105 C 0.37311 0.50827 0.78806 0.0
C106 C 0.31234 0.63421 0.80024 0.0
C107 C 0.37271 0.63572 0.78285 0.0
C108 C 0.40246 0.57315 0.77642 0.0
C109 C 0.30966 0.50646 0.8028 0.0
C110 C 0.2791 0.5692 0.80862 0.0
C111 C 0.41556 0.44668 0.79181 0.0
H112 H 0.93702 0.71058 0.91891 0.0
H113 H 0.90475 0.58476 0.91755 0.0
H114 H 0.80489 0.61149 0.8116 0.0
H115 H 0.83812 0.73731 0.81272 0.0
H116 H 0.39892 0.68537 0.77616 0.0
H117 H 0.45116 0.57613 0.76469 0.0
H118 H 0.28651 0.45719 0.8122 0.0
H119 H 0.23263 0.56713 0.82238 0.0
C120 C 0.73716 0.0744 0.38775 0.0
C121 C 0.70612 1.0161 0.40481 0.0
C122 C 0.73077 0.08076 0.35067 0.0
C123 C 0.69439 0.02816 0.32981 0.0
C124 C 0.66606 0.96835 0.34713 0.0
C125 C 0.67105 0.96288 0.38417 0.0
C126 C 0.68293 0.03707 0.29038 0.0
C127 C 0.7329 0.07211 0.27072 0.0
C128 C 0.7204 0.08342 0.23374 0.0
C129 C 0.6574 0.0573 0.21622 0.0
C130 C 0.60779 1.02066 0.2354 0.0
C131 C 0.62053 1.01189 0.27229 0.0
C132 C 0.54186 0.9909 0.2177 0.0
C133 C 0.49688 0.03333 0.19665 0.0
C134 C 0.52097 0.92055 0.22466 0.0
C135 C 0.45537 0.89374 0.21209 0.0
C136 C 0.40864 0.93683 0.19254 0.0
C137 C 0.77327 0.12305 0.21382 0.0
C138 C 0.80994 0.1825 0.22876 0.0
C139 C 0.78848 0.1015 0.18024 0.0
C140 C 0.84006 0.13789 0.16239 0.0
C141 C 0.87766 0.19637 0.17782 0.0
C142 C 0.86145 0.21856 0.21105 0.0
C143 C 0.43066 1.00657 0.18424 0.0
H144 H 0.76435 0.11639 0.40306 0.0
H145 H 0.75251 0.12803 0.33851 0.0
H146 H 0.63942 0.9257 0.33212 0.0
H147 H 0.64747 0.91685 0.39665 0.0
H148 H 0.78219 0.08985 0.28414 0.0
H149 H 0.5804 0.98663 0.28699 0.0
H150 H 0.64682 0.06539 0.1878 0.0
H151 H 0.51178 0.08791 0.19115 0.0
H152 H 0.55511 0.88656 0.24048 0.0
H153 H 0.44101 0.83923 0.21807 0.0
H154 H 0.79855 0.20159 0.25418 0.0
H155 H 0.76166 0.05558 0.1681 0.0
H156 H 0.39594 0.04119 0.16928 0.0
H157 H 0.88828 0.26439 0.22331 0.0
H158 H 0.85156 0.1193 0.1369 0.0
C159 C 0.63306 0.42554 0.69836 0.0
C160 C 0.66932 0.47063 0.7233 0.0
C161 C 0.64245 0.43349 0.66232 0.0
C162 C 0.68808 0.48687 0.65036 0.0
C163 C 0.72465 0.53182 0.67527 0.0
C164 C 0.71558 0.5236 0.71143 0.0
C165 C 0.69702 0.49541 0.61193 0.0
C166 C 0.6967 0.56203 0.59529 0.0
C167 C 0.70288 0.57004 0.55863 0.0
C168 C 0.70975 0.51012 0.53838 0.0
C169 C 0.70994 0.44301 0.55499 0.0
C170 C 0.70395 0.43639 0.59157 0.0
C171 C 0.71474 0.37764 0.5354 0.0
C172 C 0.65452 0.34305 0.51948 0.0
C173 C 0.77569 0.34147 0.54039 0.0
C174 C 0.7756 0.27065 0.53158 0.0
C175 C 0.71421 0.23416 0.51798 0.0
C176 C 0.70003 0.64172 0.54245 0.0
C177 C 0.64228 0.6808 0.54603 0.0
C178 C 0.75775 0.67488 0.52804 0.0
C179 C 0.75896 0.74703 0.51917 0.0
C180 C 0.70218 0.78699 0.52432 0.0
C181 C 0.6431 0.75231 0.53688 0.0
C182 C 0.65426 0.27194 0.51071 0.0
H183 H 0.59691 0.38431 0.7066 0.0
H184 H 0.61297 0.39854 0.6437 0.0
H185 H 0.76061 0.57303 0.66681 0.0
H186 H 0.74414 0.55934 0.72998 0.0
H187 H 0.69056 0.60793 0.61081 0.0
H188 H 0.70454 0.38462 0.60423 0.0
H189 H 0.71391 0.51552 0.51005 0.0
H190 H 0.60654 0.36958 0.51616 0.0
H191 H 0.82236 0.36678 0.55327 0.0
H192 H 0.82298 0.24367 0.53724 0.0
H193 H 0.59723 0.6564 0.55718 0.0
H194 H 0.80317 0.6459 0.52539 0.0
H195 H 0.60616 0.24573 0.50014 0.0
H196 H 0.59812 0.78086 0.54101 0.0
H197 H 0.80515 0.77184 0.50939 0.0
C198 C 0.1868 0.67252 0.01889 0.0
C199 C 1.11845 0.65435 0.026 0.0
C200 C 0.20037 0.72182 -0.00813 0.0
C201 C 0.14567 0.75312 0.9714 0.0
C202 C 1.07732 0.73126 0.97758 0.0
C203 C 1.06398 0.68342 0.00489 0.0
C204 C 0.15844 0.80553 0.94237 0.0
C205 C 0.20809 0.79422 0.91897 0.0
C206 C 0.20807 0.83143 0.88644 0.0
C207 C 0.15958 0.88227 0.87789 0.0
C208 C 1.10484 0.88884 0.89918 0.0
C209 C 1.11114 0.85759 0.93355 0.0
C210 C 1.0332 0.89862 0.88161 0.0
C211 C 0.97745 0.89715 0.90298 0.0
C212 C 1.01784 0.8749 0.84649 0.0
C213 C 0.96149 0.82746 0.83875 0.0
C214 C 0.91877 0.80702 0.86546 0.0
C215 C 0.2405 0.79916 0.85767 0.0
C216 C 0.31053 0.78452 0.86202 0.0
C217 C 0.19722 0.76792 0.82986 0.0
C218 C 0.22191 0.71749 0.80902 0.0
C219 C 0.29052 0.69885 0.81522 0.0
C220 C 0.33563 0.73513 0.84059 0.0
C221 C 0.92179 0.84825 0.89585 0.0
H222 H 0.22967 0.65191 0.03557 0.0
H223 H 0.25354 0.73694 0.98774 0.0
H224 H 1.03362 0.75155 0.96154 0.0
H225 H 1.01091 0.67053 0.0102 0.0
H226 H 0.24112 0.75043 0.92391 0.0
H227 H 1.07269 0.86499 0.95172 0.0
H228 H 0.15825 0.90742 0.85185 0.0
H229 H 0.98295 0.92229 0.9285 0.0
H230 H 1.05498 0.88087 0.82697 0.0
H231 H 0.95835 0.7991 0.81415 0.0
H232 H 0.34437 0.80729 0.8836 0.0
H233 H 0.14263 0.77736 0.82645 0.0
H234 H 0.88669 0.83638 0.91608 0.0
H235 H 0.38873 0.72088 0.84595 0.0
H236 H 0.18644 0.68982 0.78967 0.0
C237 C 1.08936 0.50708 0.25427 0.0
C238 C 1.14037 0.54413 0.23622 0.0
C239 C 1.0986 0.49742 0.2912 0.0
C240 C 0.15966 0.52342 0.31059 0.0
C241 C 0.2119 0.55732 0.29196 0.0
C242 C 0.20195 0.56841 0.25532 0.0
C243 C 0.16819 0.51826 0.35011 0.0
C244 C 0.14165 0.45938 0.36858 0.0
C245 C 0.14949 0.45537 0.40599 0.0
C246 C 0.18574 0.51069 0.42497 0.0
C247 C 0.21343 0.56927 0.40676 0.0
C248 C 0.20322 0.57314 0.36961 0.0
C249 C 0.25433 0.62703 0.42562 0.0
C250 C 0.22754 0.66354 0.45253 0.0
C251 C 0.31854 0.64998 0.41418 0.0
C252 C 0.35395 0.7101 0.42811 0.0
C253 C 0.32583 0.74909 0.45371 0.0
C254 C 1.12002 0.39282 0.42478 0.0
C255 C 1.05384 0.36413 0.41334 0.0
C256 C 0.15818 0.36003 0.45337 0.0
C257 C 1.13124 0.29882 0.46956 0.0
C258 C 1.06567 0.26925 0.45746 0.0
C259 C 1.027 0.3032 0.42947 0.0
C260 C 0.26301 0.72429 0.46646 0.0
H261 H 1.04135 0.48785 0.24005 0.0
H262 H 1.05698 0.47159 0.30459 0.0
H263 H 0.26056 0.57602 0.30568 0.0
H264 H 0.24265 0.59601 0.24191 0.0
H265 H 1.11612 0.41575 0.35385 0.0
H266 H 0.22216 0.62005 0.35594 0.0
H267 H 0.19268 0.50814 0.45374 0.0
H268 H 0.17788 0.64695 0.46161 0.0
H269 H 0.34069 0.62209 0.39377 0.0
H270 H 0.40316 0.72655 0.41847 0.0
H271 H 1.02258 0.38894 0.39187 0.0
H272 H 0.20958 0.3806 0.46259 0.0
H273 H 0.24006 0.7532 0.48619 0.0
H274 H 0.9756 0.28286 0.4201 0.0
H275 H 0.16239 0.27374 0.49098 0.0
C276 C 0.65677 0.04426 0.63972 0.0
C277 C 0.70215 1.00249 0.62397 0.0
C278 C 0.64773 0.03625 0.67578 0.0
C279 C 0.68339 0.98591 0.69689 0.0
C280 C 0.7291 0.94429 0.68129 0.0
C281 C 0.73876 0.95283 0.64517 0.0
C282 C 0.67198 0.97694 0.73499 0.0
C283 C 0.65808 0.91003 0.74982 0.0
C284 C 0.64301 0.90153 0.78541 0.0
C285 C 0.64264 0.96184 0.8065 0.0
C286 C 0.65728 0.02947 0.79175 0.0
C287 C 0.67199 0.03598 0.75619 0.0
C288 C 0.65493 0.09564 0.81147 0.0
C289 C 0.59122 0.12059 0.81846 0.0
C290 C 0.71413 0.14162 0.81534 0.0
C291 C 0.70921 0.21216 0.82379 0.0
C292 C 0.64471 0.23884 0.82819 0.0
C293 C 0.62768 0.82879 0.79927 0.0
C294 C 0.57882 0.78376 0.78001 0.0
C295 C 0.66773 0.8008 0.82856 0.0
C296 C 0.66156 0.72857 0.83714 0.0
C297 C 0.6149 0.68286 0.81673 0.0
C298 C 0.57239 0.71191 0.78865 0.0
C299 C 0.58611 0.19149 0.82673 0.0
H300 H 0.62775 0.08297 0.62414 0.0
H301 H 0.61167 0.06859 0.68703 0.0
H302 H 0.75755 0.9054 0.69705 0.0
H303 H 0.77379 0.91959 0.63374 0.0
H304 H 0.65797 0.86426 0.73337 0.0
H305 H 0.68266 0.08786 0.74475 0.0
H306 H 0.63052 0.9563 0.83385 0.0
H307 H 0.54459 0.08666 0.81496 0.0
H308 H 0.76371 0.12396 0.80956 0.0
H309 H 0.75559 0.24657 0.82488 0.0
H310 H 0.5472 0.80383 0.7573 0.0
H311 H 0.70639 0.83397 0.84361 0.0
H312 H 0.5356 0.20985 0.83014 0.0
H313 H 0.53596 0.67876 0.77231 0.0
H314 H 0.69519 0.70824 0.85899 0.0
C315 C 0.63181 0.44416 0.96056 0.0
C316 C 0.58759 0.47538 0.93392 0.0
C317 C 0.63304 0.46413 -0.00414 0.0
C318 C 0.59032 0.5161 0.00546 0.0
C319 C 0.54377 0.54513 0.9791 0.0
C320 C 0.54238 0.52492 0.94366 0.0
C321 C 0.5965 0.54133 0.04262 0.0
C322 C 0.66193 0.55235 0.06115 0.0
C323 C 0.66995 0.57369 0.09662 0.0
C324 C 0.6097 0.5855 0.11379 0.0
C325 C 0.54287 0.57483 0.09519 0.0
C326 C 0.5376 0.55313 0.05977 0.0
C327 C 0.47629 0.58183 0.11146 0.0
C328 C 0.43824 0.52097 0.12191 0.0
C329 C 0.44264 0.64542 0.10819 0.0
C330 C 0.37234 0.64763 0.11422 0.0
C331 C 0.33331 0.58604 0.12325 0.0
C332 C 0.74256 0.57809 0.11432 0.0
C333 C 0.7804 0.51715 0.11643 0.0
C334 C 0.77928 0.64311 0.12101 0.0
C335 C 0.85223 0.64706 0.12784 0.0
C336 C 0.89023 0.58616 0.12759 0.0
C337 C 0.85267 0.52106 0.12288 0.0
C338 C 0.36807 0.52304 0.12787 0.0
H339 H 0.66688 0.40536 0.95405 0.0
H340 H 0.66829 0.43945 0.01562 0.0
H341 H 0.5103 0.58542 0.98561 0.0
H342 H 0.50785 0.55014 0.92376 0.0
H343 H 0.70765 0.54415 0.04779 0.0
H344 H 0.48685 0.5436 0.04575 0.0
H345 H 0.61459 0.60088 0.14131 0.0
H346 H 0.46192 0.47078 0.12363 0.0
H347 H 0.46974 0.69279 0.09909 0.0
H348 H 0.34792 0.69724 0.11035 0.0
H349 H 0.75416 0.46637 0.11088 0.0
H350 H 0.75212 0.69127 0.11874 0.0
H351 H 0.34044 0.47442 0.13484 0.0
H352 H 0.8794 0.47276 0.12283 0.0
H353 H 0.87904 0.69816 0.13127 0.0
loop_
_geom_bond_atom_site_label_1
_geom_bond_atom_site_label_2
_geom_bond_distance
_geom_bond_site_symmetry_2
_ccdc_geom_bond_type
Dy0 O3 2.307 1_455 S
Dy0 O5 2.395 . S
Dy0 O6 2.379 . S
Dy0 O8 2.339 . S
Dy0 O10 2.298 . S
Dy0 O14 2.275 . S
Dy0 C22 2.738 . S
Dy1 O4 2.298 . S
Dy1 O7 2.275 . S
Dy1 O9 2.307 1_655 S
Dy1 O11 2.395 . S
Dy1 O12 2.379 . S
Dy1 O15 2.339 . S
Dy1 C31 2.738 . S
C2 O14 1.254 . S
C2 O15 1.257 1_455 S
O3 Dy0 2.307 1_655 S
O3 C13 1.266 . S
O4 Dy1 2.298 . S
O4 C13 1.236 . S
O5 Dy0 2.395 . S
O5 C22 1.255 . S
O6 Dy0 2.379 . S
O6 C22 1.249 . S
O7 Dy1 2.275 . S
O7 C23 1.254 1_655 S
O8 Dy0 2.339 . S
O8 C23 1.257 . S
O9 Dy1 2.307 1_455 S
O9 C24 1.266 . S
O10 Dy0 2.298 . S
O10 C24 1.236 . S
O11 Dy1 2.395 . S
O11 C31 1.255 . S
O12 Dy1 2.379 . S
O12 C31 1.249 . S
C13 O3 1.266 . S
C13 O4 1.236 . S
O14 Dy0 2.275 . S
O14 C2 1.254 . S
O15 Dy1 2.339 . S
O15 C2 1.257 1_655 S
C16 C19 1.344 . S
C16 C20 1.328 . S
C16 C22 1.516 . S
C17 C18 1.304 . S
C17 C21 1.323 . S
C18 C17 1.304 . S
C18 C19 1.371 . S
C18 H32 0.930 . S
C19 C16 1.344 . S
C19 C18 1.371 . S
C19 H33 0.931 . S
C20 C16 1.328 . S
C20 C21 1.433 . S
C20 H34 0.931 . S
C21 C17 1.323 . S
C21 C20 1.433 . S
C21 H35 0.933 . S
C22 Dy0 2.738 . S
C22 O5 1.255 . S
C22 O6 1.249 . S
C22 C16 1.516 . S
C23 O7 1.254 1_455 S
C23 O8 1.257 . S
C24 O9 1.266 . S
C24 O10 1.236 . S
C25 C28 1.344 . S
C25 C29 1.328 . S
C25 C31 1.516 . S
C26 C27 1.304 . S
C26 C30 1.323 . S
C27 C26 1.304 . S
C27 C28 1.371 . S
C27 H36 0.930 . S
C28 C25 1.344 . S
C28 C27 1.371 . S
C28 H37 0.931 . S
C29 C25 1.328 . S
C29 C30 1.433 . S
C29 H38 0.931 . S
C30 C26 1.323 . S
C30 C29 1.433 . S
C30 H39 0.933 . S
C31 Dy1 2.738 . S
C31 O11 1.255 . S
C31 O12 1.249 . S
C31 C25 1.516 . S
H32 C18 0.930 . S
H33 C19 0.931 . S
H34 C20 0.931 . S
H35 C21 0.933 . S
H36 C27 0.930 . S
H37 C28 0.931 . S
H38 C29 0.931 . S
H39 C30 0.933 . S
Dy40 O43 2.307 1_565 S
Dy40 O45 2.395 . S
Dy40 O46 2.379 . S
Dy40 O48 2.339 . S
Dy40 O50 2.298 . S
Dy40 O54 2.275 1_565 S
Dy40 C62 2.738 . S
Dy41 O44 2.298 . S
Dy41 O47 2.275 . S
Dy41 O49 2.307 1_545 S
Dy41 O51 2.395 . S
Dy41 O52 2.379 . S
Dy41 O55 2.339 . S
Dy41 C71 2.738 . S
C42 O54 1.254 . S
C42 O55 1.257 . S
O43 Dy40 2.307 1_545 S
O43 C53 1.266 . S
O44 Dy41 2.298 . S
O44 C53 1.236 . S
O45 Dy40 2.395 . S
O45 C62 1.255 . S
O46 Dy40 2.379 . S
O46 C62 1.249 . S
O47 Dy41 2.275 . S
O47 C63 1.254 . S
O48 Dy40 2.339 . S
O48 C63 1.257 1_565 S
O49 Dy41 2.307 1_565 S
O49 C64 1.266 . S
O50 Dy40 2.298 . S
O50 C64 1.236 . S
O51 Dy41 2.395 . S
O51 C71 1.255 . S
O52 Dy41 2.379 . S
O52 C71 1.249 . S
C53 O43 1.266 . S
C53 O44 1.236 . S
O54 Dy40 2.275 1_545 S
O54 C42 1.254 . S
O55 Dy41 2.339 . S
O55 C42 1.257 . S
C56 C59 1.344 . S
C56 C60 1.328 . S
C56 C62 1.516 . S
C57 C58 1.304 . S
C57 C61 1.323 . S
C58 C57 1.304 . S
C58 C59 1.371 . S
C58 H72 0.930 . S
C59 C56 1.344 . S
C59 C58 1.371 . S
C59 H73 0.931 . S
C60 C56 1.328 . S
C60 C61 1.433 . S
C60 H74 0.931 . S
C61 C57 1.323 . S
C61 C60 1.433 . S
C61 H75 0.933 . S
C62 Dy40 2.738 . S
C62 O45 1.255 . S
C62 O46 1.249 . S
C62 C56 1.516 . S
C63 O47 1.254 . S
C63 O48 1.257 1_545 S
C64 O49 1.266 . S
C64 O50 1.236 . S
C65 C68 1.344 . S
C65 C69 1.328 . S
C65 C71 1.516 . S
C66 C67 1.304 . S
C66 C70 1.323 . S
C67 C66 1.304 . S
C67 C68 1.371 . S
C67 H76 0.930 . S
C68 C65 1.344 . S
C68 C67 1.371 . S
C68 H77 0.931 . S
C69 C65 1.328 . S
C69 C70 1.433 . S
C69 H78 0.931 . S
C70 C66 1.323 . S
C70 C69 1.433 . S
C70 H79 0.933 . S
C71 Dy41 2.738 . S
C71 O51 1.255 . S
C71 O52 1.249 . S
C71 C65 1.516 . S
H72 C58 0.930 . S
H73 C59 0.931 . S
H74 C60 0.931 . S
H75 C61 0.933 . S
H76 C67 0.930 . S
H77 C68 0.931 . S
H78 C69 0.931 . S
H79 C70 0.933 . S
Dy80 O83 2.307 . S
Dy80 O85 2.395 . S
Dy80 O86 2.379 . S
Dy80 O88 2.339 . S
Dy80 O90 2.298 . S
Dy80 O94 2.275 . S
Dy80 C102 2.738 . S
Dy81 O84 2.298 . S
Dy81 O87 2.275 . S
Dy81 O89 2.307 . S
Dy81 O91 2.395 . S
Dy81 O92 2.379 . S
Dy81 O95 2.339 . S
Dy81 C111 2.738 . S
C82 O94 1.254 . S
C82 O95 1.257 . S
O83 Dy80 2.307 . S
O83 C93 1.266 . S
O84 Dy81 2.298 . S
O84 C93 1.236 . S
O85 Dy80 2.395 . S
O85 C102 1.255 . S
O86 Dy80 2.379 . S
O86 C102 1.249 . S
O87 Dy81 2.275 . S
O87 C103 1.254 . S
O88 Dy80 2.339 . S
O88 C103 1.257 . S
O89 Dy81 2.307 . S
O89 C104 1.266 . S
O90 Dy80 2.298 . S
O90 C104 1.236 . S
O91 Dy81 2.395 . S
O91 C111 1.255 . S
O92 Dy81 2.379 . S
O92 C111 1.249 . S
C93 O83 1.266 . S
C93 O84 1.236 . S
O94 Dy80 2.275 . S
O94 C82 1.254 . S
O95 Dy81 2.339 . S
O95 C82 1.257 . S
C96 C99 1.344 . S
C96 C100 1.328 . S
C96 C102 1.516 . S
C97 C98 1.304 . S
C97 C101 1.323 . S
C98 C97 1.304 . S
C98 C99 1.371 . S
C98 H112 0.930 . S
C99 C96 1.344 . S
C99 C98 1.371 . S
C99 H113 0.931 . S
C100 C96 1.328 . S
C100 C101 1.433 . S
C100 H114 0.931 . S
C101 C97 1.323 . S
C101 C100 1.433 . S
C101 H115 0.933 . S
C102 Dy80 2.738 . S
C102 O85 1.255 . S
C102 O86 1.249 . S
C102 C96 1.516 . S
C103 O87 1.254 . S
C103 O88 1.257 . S
C104 O89 1.266 . S
C104 O90 1.236 . S
C105 C108 1.344 . S
C105 C109 1.328 . S
C105 C111 1.516 . S
C106 C107 1.304 . S
C106 C110 1.323 . S
C107 C106 1.304 . S
C107 C108 1.371 . S
C107 H116 0.930 . S
C108 C105 1.344 . S
C108 C107 1.371 . S
C108 H117 0.931 . S
C109 C105 1.328 . S
C109 C110 1.433 . S
C109 H118 0.931 . S
C110 C106 1.323 . S
C110 C109 1.433 . S
C110 H119 0.933 . S
C111 Dy81 2.738 . S
C111 O91 1.255 . S
C111 O92 1.249 . S
C111 C105 1.516 . S
H112 C98 0.930 . S
H113 C99 0.931 . S
H114 C100 0.931 . S
H115 C101 0.933 . S
H116 C107 0.930 . S
H117 C108 0.931 . S
H118 C109 0.931 . S
H119 C110 0.933 . S
C120 C121 1.386 . S
C120 C122 1.397 . S
C120 H144 0.931 . S
C121 C120 1.386 . S
C121 C125 1.397 1_545 S
C122 C120 1.397 . S
C122 C123 1.384 . S
C122 H145 0.930 . S
C123 C122 1.384 . S
C123 C124 1.377 1_545 S
C123 C126 1.481 . S
C124 C123 1.377 1_565 S
C124 C125 1.389 . S
C124 H146 0.929 . S
C125 C121 1.397 1_565 S
C125 C124 1.389 . S
C125 H147 0.931 . S
C126 C123 1.481 . S
C126 C127 1.387 . S
C126 C131 1.390 . S
C127 C126 1.387 . S
C127 C128 1.401 . S
C127 H148 0.930 . S
C128 C127 1.401 . S
C128 C129 1.376 . S
C128 C137 1.511 . S
C129 C128 1.376 . S
C129 C130 1.392 . S
C129 H150 0.931 . S
C130 C129 1.392 . S
C130 C131 1.361 . S
C130 C132 1.500 1_545 S
C131 C126 1.390 . S
C131 C130 1.361 . S
C131 H149 0.931 1_545 S
C132 C130 1.500 1_565 S
C132 C133 1.371 . S
C132 C134 1.365 . S
C133 C132 1.371 . S
C133 C143 1.386 . S
C133 H151 0.931 1_565 S
C134 C132 1.365 . S
C134 C135 1.409 . S
C134 H152 0.929 . S
C135 C134 1.409 . S
C135 C136 1.380 . S
C135 H153 0.930 . S
C136 C135 1.380 . S
C136 C143 1.357 . S
C137 C128 1.511 . S
C137 C138 1.341 . S
C137 C139 1.371 . S
C138 C137 1.341 . S
C138 C142 1.394 . S
C138 H154 0.930 . S
C139 C137 1.371 . S
C139 C140 1.392 . S
C139 H155 0.931 . S
C140 C139 1.392 . S
C140 C141 1.331 . S
C140 H158 0.932 . S
C141 C140 1.331 . S
C141 C142 1.336 . S
C142 C138 1.394 . S
C142 C141 1.336 . S
C142 H157 0.929 . S
C143 C133 1.386 . S
C143 C136 1.357 . S
C143 H156 0.928 . S
H144 C120 0.931 . S
H145 C122 0.930 . S
H146 C124 0.929 . S
H147 C125 0.931 . S
H148 C127 0.930 . S
H149 C131 0.931 1_565 S
H150 C129 0.931 . S
H151 C133 0.931 1_545 S
H152 C134 0.929 . S
H153 C135 0.930 . S
H154 C138 0.930 . S
H155 C139 0.931 . S
H156 C143 0.928 . S
H157 C142 0.929 . S
H158 C140 0.932 . S
C159 C160 1.386 . S
C159 C161 1.397 . S
C159 H183 0.931 . S
C160 C159 1.386 . S
C160 C164 1.397 . S
C161 C159 1.397 . S
C161 C162 1.384 . S
C161 H184 0.930 . S
C162 C161 1.384 . S
C162 C163 1.377 . S
C162 C165 1.481 . S
C163 C162 1.377 . S
C163 C164 1.389 . S
C163 H185 0.929 . S
C164 C160 1.397 . S
C164 C163 1.389 . S
C164 H186 0.931 . S
C165 C162 1.481 . S
C165 C166 1.387 . S
C165 C170 1.390 . S
C166 C165 1.387 . S
C166 C167 1.401 . S
C166 H187 0.930 . S
C167 C166 1.401 . S
C167 C168 1.376 . S
C167 C176 1.511 . S
C168 C167 1.376 . S
C168 C169 1.392 . S
C168 H189 0.931 . S
C169 C168 1.392 . S
C169 C170 1.361 . S
C169 C171 1.500 . S
C170 C165 1.390 . S
C170 C169 1.361 . S
C170 H188 0.931 . S
C171 C169 1.500 . S
C171 C172 1.371 . S
C171 C173 1.365 . S
C172 C171 1.371 . S
C172 C182 1.386 . S
C172 H190 0.931 . S
C173 C171 1.365 . S
C173 C174 1.409 . S
C173 H191 0.929 . S
C174 C173 1.409 . S
C174 C175 1.380 . S
C174 H192 0.930 . S
C175 C174 1.380 . S
C175 C182 1.357 . S
C176 C167 1.511 . S
C176 C177 1.341 . S
C176 C178 1.371 . S
C177 C176 1.341 . S
C177 C181 1.394 . S
C177 H193 0.930 . S
C178 C176 1.371 . S
C178 C179 1.392 . S
C178 H194 0.931 . S
C179 C178 1.392 . S
C179 C180 1.331 . S
C179 H197 0.932 . S
C180 C179 1.331 . S
C180 C181 1.336 . S
C181 C177 1.394 . S
C181 C180 1.336 . S
C181 H196 0.929 . S
C182 C172 1.386 . S
C182 C175 1.357 . S
C182 H195 0.928 . S
H183 C159 0.931 . S
H184 C161 0.930 . S
H185 C163 0.929 . S
H186 C164 0.931 . S
H187 C166 0.930 . S
H188 C170 0.931 . S
H189 C168 0.931 . S
H190 C172 0.931 . S
H191 C173 0.929 . S
H192 C174 0.930 . S
H193 C177 0.930 . S
H194 C178 0.931 . S
H195 C182 0.928 . S
H196 C181 0.929 . S
H197 C179 0.932 . S
C198 C199 1.386 . S
C198 C200 1.397 . S
C198 H222 0.931 . S
C199 C198 1.386 . S
C199 C203 1.397 1_455 S
C200 C198 1.397 . S
C200 C201 1.384 . S
C200 H223 0.930 . S
C201 C200 1.384 . S
C201 C202 1.377 1_455 S
C201 C204 1.481 1_554 S
C202 C201 1.377 1_655 S
C202 C203 1.389 . S
C202 H224 0.929 . S
C203 C199 1.397 1_655 S
C203 C202 1.389 . S
C203 H225 0.931 . S
C204 C201 1.481 1_556 S
C204 C205 1.387 . S
C204 C209 1.390 1_455 S
C205 C204 1.387 . S
C205 C206 1.401 . S
C205 H226 0.930 . S
C206 C205 1.401 . S
C206 C207 1.376 . S
C206 C215 1.511 . S
C207 C206 1.376 . S
C207 C208 1.392 1_455 S
C207 H228 0.931 . S
C208 C207 1.392 1_655 S
C208 C209 1.361 . S
C208 C210 1.500 . S
C209 C204 1.390 1_655 S
C209 C208 1.361 . S
C209 H227 0.931 . S
C210 C208 1.500 . S
C210 C211 1.371 . S
C210 C212 1.365 . S
C211 C210 1.371 . S
C211 C221 1.386 . S
C211 H229 0.931 . S
C212 C210 1.365 . S
C212 C213 1.409 . S
C212 H230 0.929 . S
C213 C212 1.409 . S
C213 C214 1.380 . S
C213 H231 0.930 . S
C214 C213 1.380 . S
C214 C221 1.357 . S
C215 C206 1.511 . S
C215 C216 1.341 . S
C215 C217 1.371 . S
C216 C215 1.341 . S
C216 C220 1.394 . S
C216 H232 0.930 . S
C217 C215 1.371 . S
C217 C218 1.392 . S
C217 H233 0.931 . S
C218 C217 1.392 . S
C218 C219 1.331 . S
C218 H236 0.932 . S
C219 C218 1.331 . S
C219 C220 1.336 . S
C220 C216 1.394 . S
C220 C219 1.336 . S
C220 H235 0.929 . S
C221 C211 1.386 . S
C221 C214 1.357 . S
C221 H234 0.928 . S
H222 C198 0.931 . S
H223 C200 0.930 . S
H224 C202 0.929 . S
H225 C203 0.931 . S
H226 C205 0.930 . S
H227 C209 0.931 . S
H228 C207 0.931 . S
H229 C211 0.931 . S
H230 C212 0.929 . S
H231 C213 0.930 . S
H232 C216 0.930 . S
H233 C217 0.931 . S
H234 C221 0.928 . S
H235 C220 0.929 . S
H236 C218 0.932 . S
C237 C238 1.386 . S
C237 C239 1.397 . S
C237 H261 0.931 . S
C238 C237 1.386 . S
C238 C242 1.397 1_655 S
C239 C237 1.397 . S
C239 C240 1.384 . S
C239 H262 0.930 . S
C240 C239 1.384 . S
C240 C241 1.377 1_655 S
C240 C243 1.481 1_655 S
C241 C240 1.377 1_455 S
C241 C242 1.389 . S
C241 H263 0.929 . S
C242 C238 1.397 1_455 S
C242 C241 1.389 . S
C242 H264 0.931 . S
C243 C240 1.481 1_455 S
C243 C244 1.384 1_455 S
C243 C248 1.393 . S
C244 C243 1.384 1_655 S
C244 C245 1.401 . S
C244 H265 0.930 . S
C245 C244 1.401 . S
C245 C246 1.376 1_655 S
C245 C254 1.511 . S
C246 C245 1.376 1_455 S
C246 C247 1.392 . S
C246 H267 0.931 . S
C247 C246 1.392 . S
C247 C248 1.361 . S
C247 C249 1.500 . S
C248 C243 1.393 . S
C248 C247 1.361 . S
C248 H266 0.931 . S
C249 C247 1.500 . S
C249 C250 1.371 . S
C249 C251 1.365 . S
C250 C249 1.371 . S
C250 C260 1.386 . S
C250 H268 0.931 . S
C251 C249 1.365 . S
C251 C252 1.409 . S
C251 H269 0.929 . S
C252 C251 1.409 . S
C252 C253 1.380 . S
C252 H270 0.930 . S
C253 C252 1.380 . S
C253 C260 1.357 . S
C254 C245 1.511 . S
C254 C255 1.341 . S
C254 C256 1.371 . S
C255 C254 1.341 . S
C255 C259 1.394 . S
C255 H271 0.930 . S
C256 C254 1.371 . S
C256 C257 1.392 . S
C256 H272 0.931 . S
C257 C256 1.392 . S
C257 C258 1.331 . S
C257 H275 0.932 . S
C258 C257 1.331 . S
C258 C259 1.336 . S
C259 C255 1.394 . S
C259 C258 1.336 . S
C259 H274 0.929 . S
C260 C250 1.386 . S
C260 C253 1.357 . S
C260 H273 0.928 . S
H261 C237 0.931 . S
H262 C239 0.930 . S
H263 C241 0.929 . S
H264 C242 0.931 . S
H265 C244 0.930 . S
H266 C248 0.931 . S
H267 C246 0.931 . S
H268 C250 0.931 . S
H269 C251 0.929 . S
H270 C252 0.930 . S
H271 C255 0.930 . S
H272 C256 0.931 . S
H273 C260 0.928 . S
H274 C259 0.929 . S
H275 C257 0.932 . S
C276 C277 1.386 1_565 S
C276 C278 1.397 . S
C276 H300 0.931 . S
C277 C276 1.386 1_545 S
C277 C281 1.397 . S
C278 C276 1.397 . S
C278 C279 1.384 1_565 S
C278 H301 0.930 . S
C279 C278 1.384 1_545 S
C279 C280 1.377 . S
C279 C282 1.481 . S
C280 C279 1.377 . S
C280 C281 1.389 . S
C280 H302 0.929 . S
C281 C277 1.397 . S
C281 C280 1.389 . S
C281 H303 0.931 . S
C282 C279 1.481 . S
C282 C283 1.387 1_545 S
C282 C287 1.390 . S
C283 C282 1.387 1_565 S
C283 C284 1.401 . S
C283 H304 0.930 . S
C284 C283 1.401 . S
C284 C285 1.365 1_565 S
C284 C293 1.511 . S
C285 C284 1.365 1_545 S
C285 C286 1.403 . S
C285 H306 0.931 . S
C286 C285 1.403 . S
C286 C287 1.361 . S
C286 C288 1.500 . S
C287 C282 1.390 . S
C287 C286 1.361 . S
C287 H305 0.931 . S
C288 C286 1.500 . S
C288 C289 1.371 . S
C288 C290 1.365 . S
C289 C288 1.371 . S
C289 C299 1.386 . S
C289 H307 0.931 . S
C290 C288 1.365 . S
C290 C291 1.409 . S
C290 H308 0.929 . S
C291 C290 1.409 . S
C291 C292 1.380 . S
C291 H309 0.930 . S
C292 C291 1.380 . S
C292 C299 1.357 . S
C293 C284 1.511 . S
C293 C294 1.341 . S
C293 C295 1.371 . S
C294 C293 1.341 . S
C294 C298 1.394 . S
C294 H310 0.930 . S
C295 C293 1.371 . S
C295 C296 1.392 . S
C295 H311 0.931 . S
C296 C295 1.392 . S
C296 C297 1.331 . S
C296 H314 0.932 . S
C297 C296 1.331 . S
C297 C298 1.336 . S
C298 C294 1.394 . S
C298 C297 1.336 . S
C298 H313 0.929 . S
C299 C289 1.386 . S
C299 C292 1.357 . S
C299 H312 0.928 . S
H300 C276 0.931 . S
H301 C278 0.930 . S
H302 C280 0.929 . S
H303 C281 0.931 . S
H304 C283 0.930 . S
H305 C287 0.931 . S
H306 C285 0.931 . S
H307 C289 0.931 . S
H308 C290 0.929 . S
H309 C291 0.930 . S
H310 C294 0.930 . S
H311 C295 0.931 . S
H312 C299 0.928 . S
H313 C298 0.929 . S
H314 C296 0.932 . S
C315 C316 1.386 . S
C315 C317 1.397 . S
C315 H339 0.931 . S
C316 C315 1.386 . S
C316 C320 1.397 . S
C317 C315 1.397 . S
C317 C318 1.384 1_556 S
C317 H340 0.930 1_556 S
C318 C317 1.384 1_554 S
C318 C319 1.377 1_554 S
C318 C321 1.481 . S
C319 C318 1.377 1_556 S
C319 C320 1.389 . S
C319 H341 0.929 1_556 S
C320 C316 1.397 . S
C320 C319 1.389 . S
C320 H342 0.931 . S
C321 C318 1.481 . S
C321 C322 1.387 . S
C321 C326 1.390 . S
C322 C321 1.387 . S
C322 C323 1.401 . S
C322 H343 0.930 . S
C323 C322 1.401 . S
C323 C324 1.376 . S
C323 C332 1.511 . S
C324 C323 1.376 . S
C324 C325 1.392 . S
C324 H345 0.931 . S
C325 C324 1.392 . S
C325 C326 1.361 . S
C325 C327 1.500 . S
C326 C321 1.390 . S
C326 C325 1.361 . S
C326 H344 0.931 . S
C327 C325 1.500 . S
C327 C328 1.371 . S
C327 C329 1.365 . S
C328 C327 1.371 . S
C328 C338 1.386 . S
C328 H346 0.931 . S
C329 C327 1.365 . S
C329 C330 1.409 . S
C329 H347 0.929 . S
C330 C329 1.409 . S
C330 C331 1.380 . S
C330 H348 0.930 . S
C331 C330 1.380 . S
C331 C338 1.357 . S
C332 C323 1.511 . S
C332 C333 1.341 . S
C332 C334 1.371 . S
C333 C332 1.341 . S
C333 C337 1.394 . S
C333 H349 0.930 . S
C334 C332 1.371 . S
C334 C335 1.392 . S
C334 H350 0.931 . S
C335 C334 1.392 . S
C335 C336 1.331 . S
C335 H353 0.932 . S
C336 C335 1.331 . S
C336 C337 1.336 . S
C337 C333 1.394 . S
C337 C336 1.336 . S
C337 H352 0.929 . S
C338 C328 1.386 . S
C338 C331 1.357 . S
C338 H351 0.928 . S
H339 C315 0.931 . S
H340 C317 0.930 1_554 S
H341 C319 0.929 1_554 S
H342 C320 0.931 . S
H343 C322 0.930 . S
H344 C326 0.931 . S
H345 C324 0.931 . S
H346 C328 0.931 . S
H347 C329 0.929 . S
H348 C330 0.930 . S
H349 C333 0.930 . S
H350 C334 0.931 . S
H351 C338 0.928 . S
H352 C337 0.929 . S
H353 C335 0.932 . S
C24 C331 4.851 . S
C66 C258 1.903 . S
C93 C297 2.929 . S
C13 C336 5.096 . S
C253 C57 1.685 . S
C292 C104 3.130 . S
C64 C180 2.999 . S
C97 C214 2.996 . S
C17 C136 2.185 . S
C175 C53 2.927 . S
C219 C106 1.861 . S
C26 C141 2.172 . S
C199 C2 1.390 . S
C63 C121 1.432 . S
C82 C160 1.301 . S
C277 C42 1.358 . S
C316 C103 2.111 . S
C23 C238 1.506 1_455 S
