# Generated by pormake.
# Topology zzz, (3,6)-cn, num edge types: 1
# Building blocks:
#     Node 0, Type 0, BuildingBlock: BELTOD_clean_linker_0, # of connection points: 3
#     Node 1, Type 0, BuildingBlock: BELTOD_clean_linker_0, # of connection points: 3
#     Node 2, Type 0, BuildingBlock: BELTOD_clean_linker_0, # of connection points: 3
#     Node 3, Type 0, BuildingBlock: BELTOD_clean_linker_0, # of connection points: 3
#     Node 4, Type 0, BuildingBlock: BELTOD_clean_linker_0, # of connection points: 3
#     Node 5, Type 0, BuildingBlock: BELTOD_clean_linker_0, # of connection points: 3
#     Node 6, Type 0, BuildingBlock: BELTOD_clean_linker_0, # of connection points: 3
#     Node 7, Type 0, BuildingBlock: BELTOD_clean_linker_0, # of connection points: 3
#     Node 8, Type 1, BuildingBlock: MIFKUJ_clean_sbu_0, # of connection points: 6
#     Node 9, Type 1, BuildingBlock: MIFKUJ_clean_sbu_0, # of connection points: 6
#     Node 10, Type 1, BuildingBlock: MIFKUJ_clean_sbu_0, # of connection points: 6
#     Node 11, Type 1, BuildingBlock: MIFKUJ_clean_sbu_0, # of connection points: 6
#     Edge 12, Type (0, 1), BuildingBlock: OJICUG_clean_linker_0, # of connection points: 2
#     Edge 13, Type (0, 1), BuildingBlock: OJICUG_clean_linker_0, # of connection points: 2
#     Edge 14, Type (0, 1), BuildingBlock: OJICUG_clean_linker_0, # of connection points: 2
#     Edge 15, Type (0, 1), BuildingBlock: OJICUG_clean_linker_0, # of connection points: 2
#     Edge 16, Type (0, 1), BuildingBlock: OJICUG_clean_linker_0, # of connection points: 2
#     Edge 17, Type (0, 1), BuildingBlock: OJICUG_clean_linker_0, # of connection points: 2
#     Edge 18, Type (0, 1), BuildingBlock: OJICUG_clean_linker_0, # of connection points: 2
#     Edge 19, Type (0, 1), BuildingBlock: OJICUG_clean_linker_0, # of connection points: 2
#     Edge 20, Type (0, 1), BuildingBlock: OJICUG_clean_linker_0, # of connection points: 2
#     Edge 21, Type (0, 1), BuildingBlock: OJICUG_clean_linker_0, # of connection points: 2
#     Edge 22, Type (0, 1), BuildingBlock: OJICUG_clean_linker_0, # of connection points: 2
#     Edge 23, Type (0, 1), BuildingBlock: OJICUG_clean_linker_0, # of connection points: 2
#     Edge 24, Type (0, 1), BuildingBlock: OJICUG_clean_linker_0, # of connection points: 2
#     Edge 25, Type (0, 1), BuildingBlock: OJICUG_clean_linker_0, # of connection points: 2
#     Edge 26, Type (0, 1), BuildingBlock: OJICUG_clean_linker_0, # of connection points: 2
#     Edge 27, Type (0, 1), BuildingBlock: OJICUG_clean_linker_0, # of connection points: 2
#     Edge 28, Type (0, 1), BuildingBlock: OJICUG_clean_linker_0, # of connection points: 2
#     Edge 29, Type (0, 1), BuildingBlock: OJICUG_clean_linker_0, # of connection points: 2
#     Edge 30, Type (0, 1), BuildingBlock: OJICUG_clean_linker_0, # of connection points: 2
#     Edge 31, Type (0, 1), BuildingBlock: OJICUG_clean_linker_0, # of connection points: 2
#     Edge 32, Type (0, 1), BuildingBlock: OJICUG_clean_linker_0, # of connection points: 2
#     Edge 33, Type (0, 1), BuildingBlock: OJICUG_clean_linker_0, # of connection points: 2
#     Edge 34, Type (0, 1), BuildingBlock: OJICUG_clean_linker_0, # of connection points: 2
#     Edge 35, Type (0, 1), BuildingBlock: OJICUG_clean_linker_0, # of connection points: 2
# Relax obj value: 0.303
# Max RMSD: 0.193
# Mean RMSD: 0.181
data_MOF--net-zzz--node1-MIFKUJ_clean_sbu_0--node2-BELTOD_clean_linker_0--edge1-OJICUG_clean_linker_0
_symmetry_space_group_name_H-M    P1
_symmetry_Int_Tables_number       1
_symmetry_cell_setting            triclinic
loop_
_symmetry_equiv_pos_as_xyz
'x, y, z'
_cell_length_a     41.093955
_cell_length_b     41.439423
_cell_length_c     15.395332
_cell_angle_alpha  89.704095
_cell_angle_beta   89.017698
_cell_angle_gamma 90.444694
loop_
_atom_site_label
_atom_site_type_symbol
_atom_site_fract_x
_atom_site_fract_y
_atom_site_fract_z
_atom_type_partial_charge
P0 P 0.70728 0.48333 0.12784 0.0
H1 H 0.71691 0.48435 0.31576 0.0
H2 H 0.76389 0.50327 0.39501 0.0
H3 H 0.79527 0.55971 0.17185 0.0
H4 H 0.74852 0.54011 0.09223 0.0
H5 H 0.63763 0.46944 0.11754 0.0
H6 H 0.59765 0.48293 0.00838 0.0
H7 H 0.66641 0.54872 0.88579 0.0
H8 H 0.70631 0.53563 -0.00351 0.0
H9 H 0.77197 0.45822 0.16229 0.0
H10 H 0.7124 0.47272 0.93725 0.0
O11 O 0.69201 0.45273 0.18692 0.0
H12 H 0.82045 0.45571 0.06821 0.0
H13 H 0.76087 0.47118 0.84405 0.0
C14 C 0.72909 0.51058 0.1976 0.0
C15 C 0.7329 0.50205 0.28507 0.0
C16 C 0.76002 0.51289 0.3305 0.0
C17 C 0.78384 0.5324 0.28899 0.0
C18 C 0.7777 0.54421 0.20511 0.0
C19 C 0.75048 0.53346 0.1599 0.0
C20 C 0.67518 0.50131 0.06524 0.0
C21 C 0.64387 0.48762 0.06922 0.0
C22 C 0.62094 0.49537 0.00659 0.0
C23 C 0.62907 0.51661 0.938 0.0
C24 C 0.6596 0.53211 0.93767 0.0
C25 C 0.68232 0.52486 0.00161 0.0
C26 C 0.7388 0.46759 0.05731 0.0
C27 C 0.76912 0.45994 0.09263 0.0
C28 C 0.79682 0.45842 0.03901 0.0
C29 C 0.79426 0.46415 0.94963 0.0
C30 C 0.76334 0.46737 0.91331 0.0
C31 C 0.73567 0.46861 0.96683 0.0
P32 P 0.03834 0.70923 0.10907 0.0
H33 H 0.03316 0.69961 0.29726 0.0
H34 H 0.01523 0.73755 0.40827 0.0
H35 H 0.96845 0.79468 0.2114 0.0
H36 H 0.98446 0.75537 0.10217 0.0
H37 H 0.06997 0.65149 0.04694 0.0
H38 H 0.05635 0.61439 0.93105 0.0
H39 H 0.96082 0.65621 0.91485 0.0
H40 H 0.97465 0.69384 0.03248 0.0
H41 H 0.06378 0.77414 0.13618 0.0
H42 H 0.03194 0.71726 0.91869 0.0
O43 O 0.07309 0.69904 0.15624 0.0
H44 H 0.05993 0.82321 0.04726 0.0
H45 H 0.0278 0.76592 0.83132 0.0
C46 C 0.01127 0.72539 0.19107 0.0
C47 C 0.01765 0.71939 0.27865 0.0
C48 C 0.00771 0.74143 0.34197 0.0
C49 C 0.99186 0.77011 0.31812 0.0
C50 C 0.98103 0.77322 0.23228 0.0
C51 C 0.99029 0.75066 0.16937 0.0
C52 C 0.02324 0.67524 0.04906 0.0
C53 C 0.04565 0.65207 0.02112 0.0
C54 C 0.038 0.63109 0.95405 0.0
C55 C 0.00781 0.63295 0.91321 0.0
C56 C 0.98427 0.65442 0.94547 0.0
C57 C 0.99204 0.67564 0.01304 0.0
C58 C 0.04715 0.74213 0.03521 0.0
C59 C 0.05703 0.77203 0.06872 0.0
C60 C 0.05482 0.80002 0.01812 0.0
C61 C 0.04285 0.79818 0.93352 0.0
C62 C 0.03648 0.76785 0.89718 0.0
C63 C 0.03875 0.73998 0.94753 0.0
P64 P 0.77978 -0.00184 0.14069 0.0
H65 H 0.7698 -0.00295 0.32924 0.0
H66 H 0.72363 0.97614 0.41288 0.0
H67 H 0.69529 0.91798 0.19432 0.0
H68 H 0.74143 0.9395 0.11032 0.0
H69 H 0.85036 0.00808 0.13378 0.0
H70 H 0.89065 -0.00282 0.01952 0.0
H71 H 0.81966 0.94062 0.88255 0.0
H72 H 0.77957 0.95064 -0.00145 0.0
H73 H 0.71335 0.01865 0.18161 0.0
H74 H 0.77542 0.01435 0.95282 0.0
O75 O 0.79514 0.02865 0.19781 0.0
H76 H 0.66564 0.02288 0.08963 0.0
H77 H 0.72758 0.01726 0.86133 0.0
C78 C 0.75907 0.97011 0.21305 0.0
C79 C 0.75472 0.97858 0.30049 0.0
C80 C 0.72806 0.96657 0.34848 0.0
C81 C 0.70523 0.94596 0.30957 0.0
C82 C 0.71208 0.93429 0.22564 0.0
C83 C 0.73888 0.94622 0.17786 0.0
C84 C 0.8117 0.9807 0.07413 0.0
C85 C 0.84369 -0.0077 0.08107 0.0
C86 C 0.86679 0.98601 0.01573 0.0
C87 C 0.85807 0.9684 0.94187 0.0
C88 C 0.8269 0.95435 0.93881 0.0
C89 C 0.80405 0.95994 0.00544 0.0
C90 C 0.74777 0.01399 0.07415 0.0
C91 C 0.71688 0.01929 0.11177 0.0
C92 C 0.68961 0.0219 0.05938 0.0
C93 C 0.69313 0.01959 0.96897 0.0
C94 C 0.72443 0.01853 0.93125 0.0
C95 C 0.75171 0.0164 0.98368 0.0
P96 P 0.44148 0.77233 0.13228 0.0
H97 H 0.44399 0.76083 0.3198 0.0
H98 H 0.46976 0.71724 0.39854 0.0
H99 H 0.52967 0.69651 0.17272 0.0
H100 H 0.50355 0.74038 0.09389 0.0
H101 H 0.40032 0.81722 0.04633 0.0
H102 H 0.41021 0.85894 0.93926 0.0
H103 H 0.51401 0.84978 0.97487 0.0
H104 H 0.50342 0.80578 0.07967 0.0
H105 H 0.40981 0.70933 0.14742 0.0
H106 H 0.45747 0.7664 0.94624 0.0
O107 O 0.40759 0.77853 0.19096 0.0
H108 H 0.4132 0.66163 0.05363 0.0
H109 H 0.4606 0.71932 0.85396 0.0
C110 C 0.47155 0.75382 0.20049 0.0
C111 C 0.46374 0.74802 0.28825 0.0
C112 C 0.47852 0.72283 0.33341 0.0
C113 C 0.50132 0.7028 0.29141 0.0
C114 C 0.51177 0.71107 0.20654 0.0
C115 C 0.49716 0.73653 0.16171 0.0
C116 C 0.45103 0.80897 0.07294 0.0
C117 C 0.42523 0.82475 0.03314 0.0
C118 C 0.43106 0.84885 0.97137 0.0
C119 C 0.46302 0.85843 0.94822 0.0
C120 C 0.48905 0.84305 0.99013 0.0
C121 C 0.48309 0.81826 0.0514 0.0
C122 C 0.43315 0.74152 0.05392 0.0
C123 C 0.41963 0.71197 0.08201 0.0
C124 C 0.42162 0.68479 0.02874 0.0
C125 C 0.43735 0.68707 0.94739 0.0
C126 C 0.44842 0.71717 0.91676 0.0
C127 C 0.44646 0.74417 0.96969 0.0
P128 P 0.28274 0.40403 0.06579 0.0
H129 H 0.2646 0.38849 0.88758 0.0
H130 H 0.22167 0.41076 0.79802 0.0
H131 H 0.21257 0.49133 0.97321 0.0
H132 H 0.25501 0.46878 0.06303 0.0
H133 H 0.33424 0.37289 0.15957 0.0
H134 H 0.37583 0.39359 0.2555 0.0
H135 H 0.35312 0.49095 0.17628 0.0
H136 H 0.31115 0.46991 0.0809 0.0
H137 H 0.21457 0.38523 0.06071 0.0
H138 H 0.28121 0.42099 0.25271 0.0
O139 O 0.28959 0.36659 0.03082 0.0
H140 H 0.16875 0.39655 0.15945 0.0
H141 H 0.23564 0.43109 0.35155 0.0
C142 C 0.26375 0.42726 0.98131 0.0
C143 C 0.25443 0.41165 0.90488 0.0
C144 C 0.22941 0.42411 0.85444 0.0
C145 C 0.21334 0.45252 0.87936 0.0
C146 C 0.22458 0.46951 0.95186 0.0
C147 C 0.24941 0.4569 0.00259 0.0
C148 C 0.31962 0.41976 0.11237 0.0
C149 C 0.3389 0.39865 0.16053 0.0
C150 C 0.36268 0.41059 0.21588 0.0
C151 C 0.36766 0.44402 0.22463 0.0
C152 C 0.3495 0.46508 0.1725 0.0
C153 C 0.32563 0.45305 0.11707 0.0
C154 C 0.25136 0.40254 0.14861 0.0
C155 C 0.21948 0.39458 0.12477 0.0
C156 C 0.19334 0.40126 0.18062 0.0
C157 C 0.19892 0.41504 0.26198 0.0
C158 C 0.23093 0.42054 0.2887 0.0
C159 C 0.257 0.4146 0.23207 0.0
P160 P 0.07382 0.27469 0.09161 0.0
H161 H 0.10721 0.24278 0.9485 0.0
H162 H 0.08706 0.20281 0.84842 0.0
H163 H 0.98845 0.2322 0.90708 0.0
H164 H 0.00858 0.26972 0.01268 0.0
H165 H 0.10651 0.31957 0.20541 0.0
H166 H 0.08707 0.36375 0.29622 0.0
H167 H 0.99267 0.35645 0.17966 0.0
H168 H 0.01247 0.31355 0.08568 0.0
H169 H 0.10311 0.21426 0.14845 0.0
H170 H 0.01147 0.26321 0.18032 0.0
O171 O 0.11447 0.27456 0.08949 0.0
H172 H 0.07938 0.16592 0.21619 0.0
H173 H 0.98723 0.21494 0.2434 0.0
C174 C 0.05969 0.26021 0.9881 0.0
C175 C 0.08128 0.24172 0.93751 0.0
C176 C 0.06961 0.21849 0.87999 0.0
C177 C 0.03595 0.21346 0.87084 0.0
C178 C 0.01452 0.23454 0.91419 0.0
C179 C 0.02621 0.25718 0.97322 0.0
C180 C 0.0611 0.31282 0.13796 0.0
C181 C 0.08194 0.32809 0.19674 0.0
C182 C 0.0708 0.35327 0.24921 0.0
C183 C 0.03828 0.36312 0.2456 0.0
C184 C 0.0178 0.349 0.18415 0.0
C185 C 0.02924 0.32434 0.13006 0.0
C186 C 0.05941 0.24274 0.16174 0.0
C187 C 0.07814 0.21492 0.172 0.0
C188 C 0.06431 0.18705 0.20901 0.0
C189 C 0.03126 0.1864 0.23468 0.0
C190 C 0.01285 0.21464 0.22589 0.0
C191 C 0.02682 0.24249 0.19004 0.0
P192 P 0.21355 0.10503 0.10935 0.0
H193 H 0.23022 0.12207 0.9282 0.0
H194 H 0.27207 0.10069 0.82935 0.0
H195 H 0.28689 0.02097 0.0054 0.0
H196 H 0.24658 0.04285 0.1046 0.0
H197 H 0.15156 0.13102 0.17343 0.0
H198 H 0.10645 0.10704 0.25709 0.0
H199 H 0.15264 0.0138 0.23727 0.0
H200 H 0.19561 0.03737 0.14914 0.0
H201 H 0.28073 0.12681 0.10046 0.0
H202 H 0.21535 0.08611 0.29534 0.0
O203 O 0.20512 0.14244 0.07657 0.0
H204 H 0.32715 0.11384 0.19152 0.0
H205 H 0.26172 0.07419 0.38713 0.0
C206 C 0.23402 0.08347 0.02274 0.0
C207 C 0.24155 0.09934 0.94403 0.0
C208 C 0.26585 0.0874 0.88816 0.0
C209 C 0.28279 0.05922 0.90986 0.0
C210 C 0.27389 0.04243 0.98613 0.0
C211 C 0.25006 0.05459 0.04228 0.0
C212 C 0.17705 0.08605 0.15377 0.0
C213 C 0.15138 0.10521 0.18482 0.0
C214 C 0.12578 0.09149 0.23413 0.0
C215 C 0.12575 0.05837 0.2553 0.0
C216 C 0.15112 0.03922 0.22151 0.0
C217 C 0.1762 0.05284 0.17088 0.0
C218 C 0.2446 0.10691 0.19022 0.0
C219 C 0.27623 0.11609 0.1639 0.0
C220 C 0.30272 0.10844 0.21529 0.0
C221 C 0.29774 0.09255 0.29495 0.0
C222 C 0.26593 0.08622 0.32525 0.0
C223 C 0.23945 0.09316 0.27284 0.0
P224 P 0.44267 0.20952 0.07323 0.0
H225 H 0.42147 0.22903 0.90026 0.0
H226 H 0.44167 0.27284 0.80746 0.0
H227 H 0.52981 0.27721 0.95589 0.0
H228 H 0.5096 0.23321 0.04785 0.0
H229 H 0.40609 0.15759 0.15662 0.0
H230 H 0.42254 0.11443 0.25341 0.0
H231 H 0.52337 0.13406 0.18723 0.0
H232 H 0.50657 0.17756 0.08979 0.0
H233 H 0.42842 0.27786 0.07911 0.0
H234 H 0.47149 0.20725 0.24883 0.0
O235 O 0.40298 0.20777 0.05215 0.0
H236 H 0.44655 0.32094 0.1753 0.0
H237 H 0.4896 0.25007 0.34387 0.0
C238 C 0.46401 0.2275 0.98114 0.0
C239 C 0.44578 0.23831 0.9106 0.0
C240 C 0.45711 0.26392 0.85844 0.0
C241 C 0.48696 0.27924 0.87571 0.0
C242 C 0.5067 0.26607 0.94056 0.0
C243 C 0.49534 0.2404 -0.00736 0.0
C244 C 0.45503 0.17072 0.11486 0.0
C245 C 0.43171 0.15185 0.15986 0.0
C246 C 0.44118 0.12716 0.2159 0.0
C247 C 0.47431 0.12102 0.22913 0.0
C248 C 0.49764 0.13851 0.17948 0.0
C249 C 0.48807 0.16311 0.12264 0.0
C250 C 0.44867 0.23929 0.15609 0.0
C251 C 0.44125 0.27154 0.13761 0.0
C252 C 0.45206 0.29614 0.19166 0.0
C253 C 0.47004 0.28874 0.26573 0.0
C254 C 0.47598 0.25635 0.28666 0.0
C255 C 0.46546 0.2318 0.23212 0.0
Zn256 Zn 0.98309 0.04833 0.57609 0.0
Zn257 Zn 0.00292 0.94712 0.59262 0.0
C258 C 0.98699 0.09878 0.69984 0.0
O259 O 0.95548 0.09315 0.70238 0.0
C260 C 0.00699 0.88856 0.5116 0.0
O261 O 0.03609 0.89454 0.54212 0.0
O262 O 0.9702 0.07491 0.47438 0.0
O263 O 0.01334 0.01278 0.5422 0.0
O264 O 0.03882 0.96804 0.51841 0.0
C265 C 0.98147 0.07064 0.3981 0.0
O266 O -0.00557 0.04275 0.37807 0.0
O267 O 0.00515 0.08092 0.65312 0.0
C268 C 0.00037 0.90732 0.73468 0.0
O269 O 0.97042 0.90712 0.706 0.0
O270 O 0.02101 0.92631 0.69894 0.0
O271 O 0.9691 0.98052 0.62882 0.0
O272 O 0.94487 0.02737 0.64047 0.0
O273 O 0.98505 0.9098 0.52195 0.0
C274 C 0.03649 -0.00186 0.50449 0.0
C275 C 0.94585 -0.00259 0.6592 0.0
Zn276 Zn 0.44286 0.00776 0.591 0.0
Zn277 Zn 0.54488 -0.00657 0.61297 0.0
C278 C 0.39202 0.01357 0.70416 0.0
O279 O 0.38714 0.98696 0.66004 0.0
C280 C 0.57936 0.96137 0.46987 0.0
O281 O 0.55606 0.97324 0.42212 0.0
O282 O 0.41271 0.01482 0.49116 0.0
O283 O 0.48758 0.02218 0.56206 0.0
O284 O 0.5379 0.03192 0.53156 0.0
C285 C 0.40499 0.04455 0.49044 0.0
O286 O 0.4197 0.0645 0.54326 0.0
O287 O 0.41843 0.02935 0.69069 0.0
C288 C 0.58379 0.98699 0.75716 0.0
O289 O 0.57944 0.95686 0.7335 0.0
O290 O 0.56846 0.00901 0.71785 0.0
O291 O 0.50351 0.96706 0.65112 0.0
O292 O 0.44975 0.96291 0.6366 0.0
O293 O 0.57794 0.96517 0.55167 0.0
C294 C 0.50838 0.03793 0.51732 0.0
C295 C 0.47636 0.95283 0.66859 0.0
Zn296 Zn 0.51277 0.448 0.57361 0.0
Zn297 Zn 0.48303 0.53916 0.60262 0.0
C298 C 0.52195 0.39895 0.69776 0.0
O299 O 0.55048 0.40072 0.65808 0.0
C300 C 0.50646 0.57705 0.45198 0.0
O301 O 0.4938 0.55331 0.40714 0.0
O302 O 0.52299 0.41486 0.48284 0.0
O303 O 0.47536 0.47262 0.52335 0.0
O304 O 0.44987 0.51886 0.52415 0.0
C305 C 0.49877 0.3955 0.48402 0.0
O306 O 0.47356 0.40161 0.53472 0.0
O307 O 0.50066 0.42007 0.67953 0.0
C308 C 0.47962 0.5805 0.73882 0.0
O309 O 0.51092 0.57766 0.72189 0.0
O310 O 0.45972 0.56397 0.6949 0.0
O311 O 0.51099 0.50632 0.66621 0.0
O312 O 0.54952 0.47771 0.60685 0.0
O313 O 0.50756 0.57436 0.53429 0.0
C314 C 0.45251 0.49025 0.49606 0.0
C315 C 0.54126 0.50154 0.65391 0.0
Zn316 Zn 0.05002 0.49195 0.57557 0.0
Zn317 Zn 0.9461 0.49259 0.59194 0.0
C318 C 0.09931 0.49396 0.69429 0.0
O319 O 0.10211 0.52111 0.65021 0.0
C320 C 0.90968 0.51765 0.44216 0.0
O321 O 0.93386 0.50663 0.39418 0.0
O322 O 0.08247 0.48654 0.47793 0.0
O323 O 0.00801 0.47022 0.54772 0.0
O324 O 0.95944 0.45309 0.52142 0.0
C325 C 0.09444 0.45833 0.4831 0.0
O326 O 0.08274 0.43809 0.5419 0.0
O327 O 0.07495 0.4756 0.67995 0.0
C328 C 0.9043 0.49981 0.73294 0.0
O329 O 0.90501 0.52884 0.69816 0.0
O330 O 0.92315 0.47846 0.70192 0.0
O331 O 0.98455 0.52346 0.61669 0.0
O332 O 0.03673 0.53696 0.60826 0.0
O333 O 0.91114 0.5154 0.5243 0.0
C334 C 0.98981 0.45056 0.50813 0.0
C335 C 0.00767 0.54314 0.63348 0.0
C336 C 0.09147 0.0113 0.3082 0.0
C337 C 0.1007 0.04393 0.31597 0.0
H338 H 0.06471 0.97134 0.36242 0.0
C339 C 0.08725 0.06187 0.38534 0.0
H340 H 0.10023 -0.00318 0.25451 0.0
C341 C 0.06596 0.04728 0.4462 0.0
C342 C 0.05819 0.01434 0.43997 0.0
H343 H 0.09385 0.08694 0.39449 0.0
H344 H 0.0562 0.06154 0.49923 0.0
C345 C 0.07092 -0.00338 0.37001 0.0
C346 C 0.46721 0.06954 0.31581 0.0
C347 C 0.4842 0.09867 0.30007 0.0
H348 H 0.46257 0.02695 0.39492 0.0
C349 C 0.50948 0.10732 0.35619 0.0
H350 H 0.44802 0.06183 0.27307 0.0
C351 C 0.51712 0.08765 0.4271 0.0
C352 C 0.4995 0.05909 0.44396 0.0
H353 H 0.52283 0.12973 0.34671 0.0
H354 H 0.53655 0.09501 0.46956 0.0
C355 C 0.47506 0.04983 0.38647 0.0
C356 C 0.41941 0.44086 0.30972 0.0
C357 C 0.39007 0.45666 0.29192 0.0
H358 H 0.46211 0.43924 0.38692 0.0
C359 C 0.38154 0.48375 0.34199 0.0
H360 H 0.42708 0.42026 0.27172 0.0
C361 C 0.40167 0.49456 0.40848 0.0
C362 C 0.43072 0.47842 0.42699 0.0
H363 H 0.3589 0.49623 0.33121 0.0
H364 H 0.39429 0.51538 0.44598 0.0
C365 C 0.43945 0.45162 0.37632 0.0
C366 C -0.00146 0.3773 0.36393 0.0
C367 C 0.02524 0.38613 0.31048 0.0
H368 H 0.96689 0.39061 0.46993 0.0
C369 C 0.03995 0.41646 0.32164 0.0
H370 H 0.98682 0.35398 0.35663 0.0
C371 C 0.02811 0.43756 0.38523 0.0
C372 C 0.0024 0.42821 0.44125 0.0
H373 H 0.06019 0.42404 0.28015 0.0
H374 H 0.0384 0.46155 0.38894 0.0
C375 C 0.98727 0.39812 0.42889 0.0
C376 C 0.8679 0.98397 0.78712 0.0
C377 C 0.87944 0.96962 0.86344 0.0
H378 H 0.88024 0.00433 0.66231 0.0
C379 C 0.91239 0.96105 0.86755 0.0
H380 H 0.84272 -0.00872 0.78293 0.0
C381 C 0.93367 0.96788 0.79769 0.0
C382 C 0.92244 0.98403 0.72368 0.0
H383 H 0.92188 0.9503 0.92609 0.0
H384 H 0.95929 0.9626 0.80407 0.0
C385 C 0.88932 -0.00847 0.71835 0.0
C386 C 0.44518 0.90798 0.86721 0.0
C387 C 0.46839 0.88358 0.87883 0.0
H388 H 0.42917 0.9478 0.79106 0.0
C389 C 0.4954 0.88278 0.82086 0.0
H390 H 0.42475 0.91058 0.91185 0.0
C391 C 0.49852 0.9053 0.75237 0.0
C392 C 0.47422 0.92838 0.73907 0.0
H393 H 0.51377 0.86436 0.82693 0.0
H394 H 0.51945 0.9042 0.70877 0.0
C395 C 0.44775 0.92957 0.79772 0.0
C396 C 0.6193 0.51298 0.77814 0.0
C397 C 0.60723 0.51914 0.86242 0.0
H398 H 0.60781 0.50258 0.64569 0.0
C399 C 0.57364 0.52351 0.87494 0.0
H400 H 0.64508 0.50921 0.76675 0.0
C401 C 0.55237 0.52003 0.8056 0.0
C402 C 0.56418 0.5116 0.7224 0.0
H403 H 0.5637 0.52835 0.93916 0.0
H404 H 0.52648 0.52205 0.81865 0.0
C405 C 0.59797 0.50902 0.70893 0.0
C406 C 0.97797 0.59102 0.82725 0.0
C407 C 0.00284 0.61426 0.83281 0.0
H408 H 0.96007 0.54985 0.75871 0.0
C409 C 0.02577 0.61722 0.76451 0.0
H410 H 0.96011 0.58826 0.87938 0.0
C411 C 0.02556 0.59565 0.69532 0.0
C412 C 0.00239 0.57062 0.69295 0.0
H413 H 0.04495 0.63528 0.76695 0.0
H414 H 0.04471 0.59744 0.64626 0.0
C415 C 0.97781 0.56925 0.75779 0.0
C416 C 0.02462 0.12595 0.23752 0.0
C417 C 0.01588 0.15643 0.26997 0.0
H418 H 0.02005 0.07468 0.25142 0.0
C419 C 0.99252 0.15812 0.3375 0.0
H420 H 0.04196 0.12378 0.18415 0.0
C421 C 0.97931 0.13007 0.37425 0.0
C422 C 0.98948 0.09959 0.34539 0.0
H423 H 0.98537 0.18108 0.36473 0.0
H424 H 0.96237 0.13236 0.42854 0.0
C425 C 0.0116 0.09779 0.275 0.0
C426 C 0.33158 0.09234 0.42716 0.0
C427 C 0.32567 0.08067 0.34377 0.0
H428 H 0.36189 0.09009 0.53841 0.0
C429 C 0.34596 0.05683 0.30801 0.0
H430 H 0.31607 0.11061 0.45572 0.0
C431 C 0.3717 0.04449 0.3559 0.0
C432 C 0.37783 0.05651 0.439 0.0
H433 H 0.34151 0.04744 0.2437 0.0
H434 H 0.38703 0.02599 0.32773 0.0
C435 C 0.35773 0.08065 0.474 0.0
C436 C 0.47581 0.31265 0.41235 0.0
C437 C 0.48168 0.31474 0.32255 0.0
H438 H 0.47722 0.33705 0.53412 0.0
C439 C 0.49718 0.34238 0.28741 0.0
H440 H 0.46384 0.29166 0.44091 0.0
C441 C 0.5053 0.36822 0.34112 0.0
C442 C 0.49748 0.36671 0.42994 0.0
H443 H 0.50224 0.34428 0.21827 0.0
H444 H 0.51581 0.38996 0.31264 0.0
C445 C 0.48344 0.33855 0.46549 0.0
C446 C 0.14946 0.44845 0.28633 0.0
C447 C 0.17151 0.4255 0.31718 0.0
H448 H 0.10778 0.47759 0.31604 0.0
C449 C 0.16819 0.41375 0.40228 0.0
H450 H 0.15193 0.45798 0.22086 0.0
C451 C 0.14292 0.42454 0.45577 0.0
C452 C 0.12106 0.44779 0.4256 0.0
H453 H 0.18508 0.39616 0.42715 0.0
H454 H 0.14077 0.415 0.52131 0.0
C455 C 0.12455 0.45984 0.34068 0.0
C456 C -4e-05 0.82929 0.86042 0.0
C457 C 0.03228 0.82748 0.88774 0.0
H458 H 0.96441 0.85626 0.79281 0.0
C459 C 0.05361 0.85348 0.87128 0.0
H460 H 0.98292 0.80975 0.87404 0.0
C461 C 0.04306 0.88028 0.82393 0.0
C462 C 0.01091 0.88153 0.79404 0.0
H463 H 0.07857 0.8526 0.89263 0.0
H464 H 0.06021 0.89958 0.80906 0.0
C465 C 0.98933 0.85609 0.8146 0.0
C466 C 0.66249 0.98154 0.87771 0.0
C467 C 0.66462 0.01207 0.91601 0.0
H468 H 0.63488 0.94948 0.79937 0.0
C469 C 0.63919 0.03407 0.90596 0.0
H470 H 0.6817 0.96406 0.88596 0.0
C471 C 0.61237 0.0259 0.85529 0.0
C472 C 0.6104 -0.00467 0.81628 0.0
H473 H 0.64036 0.05763 0.93599 0.0
H474 H 0.59331 0.04346 0.84636 0.0
C475 C 0.63553 0.97313 0.82901 0.0
C476 C 0.42438 0.63603 0.86783 0.0
C477 C 0.44727 0.6579 0.90035 0.0
H478 H 0.41672 0.59396 0.78991 0.0
C479 C 0.48055 0.65264 0.88564 0.0
H480 H 0.39859 0.63972 0.87915 0.0
C481 C 0.49092 0.62662 0.83617 0.0
C482 C 0.46816 0.60547 0.79957 0.0
H483 H 0.49859 0.66906 0.91146 0.0
H484 H 0.5168 0.62374 0.8245 0.0
C485 C 0.43477 0.61 0.81706 0.0
C486 C 0.82529 0.50355 0.85944 0.0
C487 C 0.8234 0.47276 0.89734 0.0
H488 H 0.85264 0.53646 0.77994 0.0
C489 C 0.84948 0.45141 0.88671 0.0
H490 H 0.80569 0.52064 0.8685 0.0
C491 C 0.87651 0.46036 0.83507 0.0
C492 C 0.87797 0.491 0.7952 0.0
H493 H 0.84856 0.42768 0.91652 0.0
H494 H 0.89595 0.44319 0.82526 0.0
C495 C 0.85235 0.51268 0.80947 0.0
C496 C -0.00506 0.16842 0.85592 0.0
C497 C 0.02326 0.18438 0.82479 0.0
H498 H 0.96146 0.12908 0.84107 0.0
C499 C 0.04007 0.17112 0.753 0.0
H500 H 0.98178 0.17702 0.91261 0.0
C501 C 0.02889 0.14276 0.71386 0.0
C502 C 0.00035 0.12733 0.74457 0.0
H503 H 0.06173 0.18275 0.72636 0.0
H504 H 0.04216 0.13336 0.65821 0.0
C505 C 0.98346 0.14053 0.81572 0.0
C506 C 0.31384 0.01516 0.83631 0.0
C507 C 0.31086 0.048 0.85637 0.0
H508 H 0.34196 0.97868 0.77364 0.0
C509 C 0.33563 0.06958 0.82883 0.0
H510 H 0.29515 -0.00201 0.85654 0.0
C511 C 0.36283 0.05844 0.78194 0.0
C512 C 0.36546 0.0256 0.76102 0.0
H513 H 0.33416 0.09498 0.84453 0.0
H514 H 0.38136 0.07557 0.76047 0.0
C515 C 0.34071 0.00414 0.78892 0.0
C516 C 0.52853 0.31678 0.8061 0.0
C517 C 0.49613 0.31024 0.83149 0.0
H518 H 0.56208 0.3499 0.74523 0.0
C519 C 0.47254 0.33411 0.81696 0.0
H520 H 0.5473 0.29901 0.81604 0.0
C521 C 0.48102 0.36342 0.77649 0.0
C522 C 0.5133 0.36963 0.74946 0.0
H523 H 0.44747 0.33024 0.83745 0.0
H524 H 0.46213 0.38094 0.76493 0.0
C525 C 0.53698 0.34605 0.7655 0.0
C526 C 0.17895 0.4959 0.81415 0.0
C527 C 0.1836 0.46317 0.83388 0.0
H528 H 0.14854 0.53123 0.7556 0.0
C529 C 0.15916 0.44075 0.81213 0.0
H530 H 0.19728 0.51375 0.83 0.0
C531 C 0.13097 0.4508 0.77014 0.0
C532 C 0.12679 0.48344 0.74842 0.0
H533 H 0.16176 0.41542 0.82795 0.0
H534 H 0.11294 0.4329 0.75258 0.0
C535 C 0.15097 0.50589 0.7716 0.0
C536 C 0.02108 0.80491 0.42383 0.0
C537 C 0.9928 0.79878 0.37631 0.0
H538 H 0.0475 0.83753 0.50291 0.0
C539 C 0.96798 0.82208 0.37734 0.0
H540 H 0.04117 0.78815 0.42319 0.0
C541 C 0.97189 0.85112 0.42295 0.0
C542 C 0.0008 0.85742 0.46764 0.0
H543 H 0.94584 0.81815 0.34163 0.0
H544 H 0.95272 0.86889 0.42134 0.0
C545 C 0.02497 0.83368 0.46879 0.0
C546 C 0.66801 0.93898 0.44022 0.0
C547 C 0.67219 0.94198 0.3497 0.0
H548 H 0.63526 0.94219 0.54938 0.0
C549 C 0.64446 0.94639 0.29861 0.0
H550 H 0.68878 0.93519 0.48132 0.0
C551 C 0.61377 0.95036 0.33749 0.0
C552 C 0.61006 0.95007 0.42837 0.0
H553 H 0.64672 0.94919 0.22877 0.0
H554 H 0.59333 0.95562 0.29636 0.0
C555 C 0.63728 0.94292 0.47915 0.0
C556 C 0.51447 0.66772 0.42075 0.0
C557 C 0.50977 0.67097 0.3308 0.0
H558 H 0.51782 0.63554 0.52962 0.0
C559 C 0.50872 0.64283 0.28007 0.0
H560 H 0.51572 0.68886 0.46164 0.0
C561 C 0.5099 0.61226 0.31896 0.0
C562 C 0.51227 0.60899 0.40958 0.0
H563 H 0.50476 0.64428 0.21079 0.0
H564 H 0.50721 0.59118 0.27829 0.0
C565 C 0.51584 0.63709 0.45966 0.0
C566 C 0.82078 0.53893 0.41677 0.0
C567 C 0.81685 0.53538 0.32681 0.0
H568 H 0.85326 0.53663 0.52377 0.0
C569 C 0.84464 0.53004 0.2742 0.0
H570 H 0.79995 0.54338 0.45898 0.0
C571 C 0.87521 0.52616 0.31121 0.0
C572 C 0.87874 0.5275 0.40171 0.0
H573 H 0.84252 0.52673 0.20478 0.0
H574 H 0.89574 0.52048 0.26912 0.0
C575 C 0.85139 0.53512 0.4538 0.0
loop_
_geom_bond_atom_site_label_1
_geom_bond_atom_site_label_2
_geom_bond_distance
_geom_bond_site_symmetry_2
_ccdc_geom_bond_type
P0 O11 1.490 . S
P0 C14 1.812 . S
P0 C20 1.803 . S
P0 C26 1.819 1_554 S
H1 C15 0.941 . S
H2 C16 0.939 . S
H3 C18 0.940 . S
H4 C19 0.940 . S
H5 C21 0.939 . S
H6 C22 0.942 . S
H7 C24 0.940 . S
H8 C25 0.939 . S
H9 C27 0.941 . S
H10 C31 0.939 . S
O11 P0 1.490 . S
H12 C28 0.939 . S
H13 C30 0.940 . S
C14 P0 1.812 . S
C14 C15 1.389 . S
C14 C19 1.391 . S
C15 H1 0.941 . S
C15 C14 1.389 . S
C15 C16 1.397 . S
C16 H2 0.939 . S
C16 C15 1.397 . S
C16 C17 1.378 . S
C17 C16 1.378 . S
C17 C18 1.378 . S
C18 H3 0.940 . S
C18 C17 1.378 . S
C18 C19 1.396 . S
C19 H4 0.940 . S
C19 C14 1.391 . S
C19 C18 1.396 . S
C20 P0 1.803 . S
C20 C21 1.378 1_554 S
C20 C25 1.400 . S
C21 H5 0.939 . S
C21 C20 1.378 1_556 S
C21 C22 1.361 . S
C22 H6 0.942 . S
C22 C21 1.361 . S
C22 C23 1.369 . S
C23 C22 1.369 . S
C23 C24 1.404 1_556 S
C24 H7 0.940 . S
C24 C23 1.404 1_554 S
C24 C25 1.389 . S
C25 H8 0.939 . S
C25 C20 1.400 . S
C25 C24 1.389 . S
C26 P0 1.819 1_556 S
C26 C27 1.391 . S
C26 C31 1.391 . S
C27 H9 0.941 . S
C27 C26 1.391 . S
C27 C28 1.396 . S
C28 H12 0.939 . S
C28 C27 1.396 . S
C28 C29 1.397 . S
C29 C28 1.397 . S
C29 C30 1.385 . S
C30 H13 0.940 . S
C30 C29 1.385 . S
C30 C31 1.388 . S
C31 H10 0.939 . S
C31 C26 1.391 . S
C31 C30 1.388 . S
P32 O43 1.490 . S
P32 C46 1.812 . S
P32 C52 1.803 . S
P32 C58 1.819 1_554 S
H33 C47 0.941 . S
H34 C48 0.939 . S
H35 C50 0.940 . S
H36 C51 0.940 . S
H37 C53 0.939 . S
H38 C54 0.942 . S
H39 C56 0.940 . S
H40 C57 0.939 . S
H41 C59 0.941 . S
H42 C63 0.939 1_655 S
O43 P32 1.490 . S
H44 C60 0.939 . S
H45 C62 0.940 . S
C46 P32 1.812 . S
C46 C47 1.389 . S
C46 C51 1.391 1_455 S
C47 H33 0.941 . S
C47 C46 1.389 . S
C47 C48 1.397 . S
C48 H34 0.939 . S
C48 C47 1.397 . S
C48 C49 1.401 . S
C49 C48 1.401 . S
C49 C50 1.363 1_455 S
C50 H35 0.940 . S
C50 C49 1.363 1_655 S
C50 C51 1.396 . S
C51 H36 0.940 . S
C51 C46 1.391 1_655 S
C51 C50 1.396 . S
C52 P32 1.803 . S
C52 C53 1.378 1_554 S
C52 C57 1.400 1_455 S
C53 H37 0.939 . S
C53 C52 1.378 1_556 S
C53 C54 1.361 . S
C54 H38 0.942 . S
C54 C53 1.361 . S
C54 C55 1.369 . S
C55 C54 1.369 . S
C55 C56 1.404 1_456 S
C56 H39 0.940 . S
C56 C55 1.404 1_654 S
C56 C57 1.389 . S
C57 H40 0.939 . S
C57 C52 1.400 1_655 S
C57 C56 1.389 . S
C58 P32 1.819 1_556 S
C58 C59 1.391 . S
C58 C63 1.391 . S
C59 H41 0.941 . S
C59 C58 1.391 . S
C59 C60 1.396 . S
C60 H44 0.939 . S
C60 C59 1.396 . S
C60 C61 1.397 . S
C61 C60 1.397 . S
C61 C62 1.385 1_455 S
C62 H45 0.940 . S
C62 C61 1.385 1_655 S
C62 C63 1.388 1_655 S
C63 H42 0.939 1_455 S
C63 C58 1.391 . S
C63 C62 1.388 1_455 S
P64 O75 1.490 . S
P64 C78 1.812 1_545 S
P64 C84 1.803 1_545 S
P64 C90 1.819 1_544 S
H65 C79 0.941 . S
H66 C80 0.939 1_545 S
H67 C82 0.940 . S
H68 C83 0.940 . S
H69 C85 0.939 . S
H70 C86 0.942 1_545 S
H71 C88 0.940 . S
H72 C89 0.939 . S
H73 C91 0.941 1_554 S
H74 C95 0.939 . S
O75 P64 1.490 . S
H76 C92 0.939 . S
H77 C94 0.940 . S
C78 P64 1.812 1_565 S
C78 C79 1.389 1_565 S
C78 C83 1.391 . S
C79 H65 0.941 . S
C79 C78 1.389 1_545 S
C79 C80 1.397 1_545 S
C80 H66 0.939 1_565 S
C80 C79 1.397 1_565 S
C80 C81 1.378 . S
C81 C80 1.378 . S
C81 C82 1.378 . S
C82 H67 0.940 . S
C82 C81 1.378 . S
C82 C83 1.396 . S
C83 H68 0.940 . S
C83 C78 1.391 . S
C83 C82 1.396 . S
C84 P64 1.803 1_565 S
C84 C85 1.378 1_564 S
C84 C89 1.400 . S
C85 H69 0.939 . S
C85 C84 1.378 1_546 S
C85 C86 1.361 1_545 S
C86 H70 0.942 1_565 S
C86 C85 1.361 1_565 S
C86 C87 1.369 . S
C87 C86 1.369 . S
C87 C88 1.404 1_556 S
C88 H71 0.940 . S
C88 C87 1.404 1_554 S
C88 C89 1.389 . S
C89 H72 0.939 . S
C89 C84 1.400 . S
C89 C88 1.389 . S
C90 P64 1.819 1_566 S
C90 C91 1.392 1_565 S
C90 C95 1.391 . S
C91 H73 0.941 1_556 S
C91 C90 1.392 1_545 S
C91 C92 1.397 1_545 S
C92 H76 0.939 . S
C92 C91 1.397 1_565 S
C92 C93 1.397 . S
C93 C92 1.397 . S
C93 C94 1.385 . S
C94 H77 0.940 . S
C94 C93 1.385 . S
C94 C95 1.388 . S
C95 H74 0.939 . S
C95 C90 1.391 . S
C95 C94 1.388 . S
P96 O107 1.490 . S
P96 C110 1.812 . S
P96 C116 1.803 . S
P96 C122 1.819 1_554 S
H97 C111 0.941 . S
H98 C112 0.939 . S
H99 C114 0.940 . S
H100 C115 0.940 . S
H101 C117 0.939 . S
H102 C118 0.942 . S
H103 C120 0.940 . S
H104 C121 0.939 . S
H105 C123 0.941 1_554 S
H106 C127 0.939 . S
O107 P96 1.490 . S
H108 C124 0.939 . S
H109 C126 0.940 . S
C110 P96 1.812 . S
C110 C111 1.389 . S
C110 C115 1.391 . S
C111 H97 0.941 . S
C111 C110 1.389 . S
C111 C112 1.397 . S
C112 H98 0.939 . S
C112 C111 1.397 . S
C112 C113 1.378 . S
C113 C112 1.378 . S
C113 C114 1.378 . S
C114 H99 0.940 . S
C114 C113 1.378 . S
C114 C115 1.396 . S
C115 H100 0.940 . S
C115 C110 1.391 . S
C115 C114 1.396 . S
C116 P96 1.803 . S
C116 C117 1.378 1_554 S
C116 C121 1.400 . S
C117 H101 0.939 . S
C117 C116 1.378 1_556 S
C117 C118 1.361 . S
C118 H102 0.942 . S
C118 C117 1.361 . S
C118 C119 1.369 . S
C119 C118 1.369 . S
C119 C120 1.404 1_556 S
C120 H103 0.940 . S
C120 C119 1.404 1_554 S
C120 C121 1.389 . S
C121 H104 0.939 . S
C121 C116 1.400 . S
C121 C120 1.389 . S
C122 P96 1.819 1_556 S
C122 C123 1.391 . S
C122 C127 1.391 . S
C123 H105 0.941 1_556 S
C123 C122 1.391 . S
C123 C124 1.396 . S
C124 H108 0.939 . S
C124 C123 1.396 . S
C124 C125 1.397 . S
C125 C124 1.397 . S
C125 C126 1.385 . S
C126 H109 0.940 . S
C126 C125 1.385 . S
C126 C127 1.388 . S
C127 H106 0.939 . S
C127 C122 1.391 . S
C127 C126 1.388 . S
P128 O139 1.490 . S
P128 C142 1.812 . S
P128 C148 1.803 . S
P128 C154 1.819 . S
H129 C143 0.941 . S
H130 C144 0.939 . S
H131 C146 0.940 . S
H132 C147 0.940 . S
H133 C149 0.939 . S
H134 C150 0.942 . S
H135 C152 0.940 . S
H136 C153 0.939 . S
H137 C155 0.941 . S
H138 C159 0.939 . S
O139 P128 1.490 . S
H140 C156 0.939 . S
H141 C158 0.940 . S
C142 P128 1.812 . S
C142 C143 1.389 1_554 S
C142 C147 1.391 . S
C143 H129 0.941 . S
C143 C142 1.389 1_556 S
C143 C144 1.397 . S
C144 H130 0.939 . S
C144 C143 1.397 . S
C144 C145 1.378 . S
C145 C144 1.378 . S
C145 C146 1.378 . S
C146 H131 0.940 . S
C146 C145 1.378 . S
C146 C147 1.396 1_556 S
C147 H132 0.940 . S
C147 C142 1.391 . S
C147 C146 1.396 1_554 S
C148 P128 1.803 . S
C148 C149 1.378 . S
C148 C153 1.400 . S
C149 H133 0.939 . S
C149 C148 1.378 . S
C149 C150 1.361 . S
C150 H134 0.942 . S
C150 C149 1.361 . S
C150 C151 1.369 . S
C151 C150 1.369 . S
C151 C152 1.404 . S
C152 H135 0.940 . S
C152 C151 1.404 . S
C152 C153 1.389 . S
C153 H136 0.939 . S
C153 C148 1.400 . S
C153 C152 1.389 . S
C154 P128 1.819 . S
C154 C155 1.391 . S
C154 C159 1.391 . S
C155 H137 0.941 . S
C155 C154 1.391 . S
C155 C156 1.396 . S
C156 H140 0.939 . S
C156 C155 1.396 . S
C156 C157 1.397 . S
C157 C156 1.397 . S
C157 C158 1.385 . S
C158 H141 0.940 . S
C158 C157 1.385 . S
C158 C159 1.388 . S
C159 H138 0.939 . S
C159 C154 1.391 . S
C159 C158 1.388 . S
P160 O171 1.490 . S
P160 C174 1.812 . S
P160 C180 1.803 . S
P160 C186 1.819 . S
H161 C175 0.941 . S
H162 C176 0.939 . S
H163 C178 0.948 . S
H164 C179 0.940 1_655 S
H165 C181 0.939 . S
H166 C182 0.942 . S
H167 C184 0.937 1_655 S
H168 C185 0.939 1_655 S
H169 C187 0.941 . S
H170 C191 0.939 . S
O171 P160 1.490 . S
H172 C188 0.939 . S
H173 C190 0.940 1_655 S
C174 P160 1.812 . S
C174 C175 1.389 1_554 S
C174 C179 1.391 . S
C175 H161 0.941 . S
C175 C174 1.389 1_556 S
C175 C176 1.397 . S
C176 H162 0.939 . S
C176 C175 1.397 . S
C176 C177 1.378 . S
C177 C176 1.378 . S
C177 C178 1.373 1_455 S
C178 H163 0.948 . S
C178 C177 1.373 1_655 S
C178 C179 1.393 1_656 S
C179 H164 0.940 1_455 S
C179 C174 1.391 . S
C179 C178 1.393 1_454 S
C180 P160 1.803 . S
C180 C181 1.378 . S
C180 C185 1.400 . S
C181 H165 0.939 . S
C181 C180 1.378 . S
C181 C182 1.361 . S
C182 H166 0.942 . S
C182 C181 1.361 . S
C182 C183 1.369 . S
C183 C182 1.369 . S
C183 C184 1.406 . S
C184 H167 0.937 1_455 S
C184 C183 1.406 . S
C184 C185 1.390 . S
C185 H168 0.939 1_455 S
C185 C180 1.400 . S
C185 C184 1.390 . S
C186 P160 1.819 . S
C186 C187 1.391 . S
C186 C191 1.391 . S
C187 H169 0.941 . S
C187 C186 1.391 . S
C187 C188 1.396 . S
C188 H172 0.939 . S
C188 C187 1.396 . S
C188 C189 1.397 . S
C189 C188 1.397 . S
C189 C190 1.385 . S
C190 H173 0.940 1_455 S
C190 C189 1.385 . S
C190 C191 1.388 . S
C191 H170 0.939 . S
C191 C186 1.391 . S
C191 C190 1.388 . S
P192 O203 1.490 . S
P192 C206 1.812 . S
P192 C212 1.803 . S
P192 C218 1.819 . S
H193 C207 0.941 . S
H194 C208 0.939 . S
H195 C210 0.940 . S
H196 C211 0.940 . S
H197 C213 0.939 . S
H198 C214 0.942 . S
H199 C216 0.940 . S
H200 C217 0.939 . S
H201 C219 0.941 . S
H202 C223 0.939 . S
O203 P192 1.490 . S
H204 C220 0.939 . S
H205 C222 0.940 . S
C206 P192 1.812 . S
C206 C207 1.389 1_554 S
C206 C211 1.391 . S
C207 H193 0.941 . S
C207 C206 1.389 1_556 S
C207 C208 1.397 . S
C208 H194 0.939 . S
C208 C207 1.397 . S
C208 C209 1.378 . S
C209 C208 1.378 . S
C209 C210 1.378 . S
C210 H195 0.940 . S
C210 C209 1.378 . S
C210 C211 1.396 1_556 S
C211 H196 0.940 . S
C211 C206 1.391 . S
C211 C210 1.396 1_554 S
C212 P192 1.803 . S
C212 C213 1.378 . S
C212 C217 1.400 . S
C213 H197 0.939 . S
C213 C212 1.378 . S
C213 C214 1.361 . S
C214 H198 0.942 . S
C214 C213 1.361 . S
C214 C215 1.369 . S
C215 C214 1.369 . S
C215 C216 1.404 . S
C216 H199 0.940 . S
C216 C215 1.404 . S
C216 C217 1.389 . S
C217 H200 0.939 . S
C217 C212 1.400 . S
C217 C216 1.389 . S
C218 P192 1.819 . S
C218 C219 1.391 . S
C218 C223 1.391 . S
C219 H201 0.941 . S
C219 C218 1.391 . S
C219 C220 1.396 . S
C220 H204 0.939 . S
C220 C219 1.396 . S
C220 C221 1.397 . S
C221 C220 1.397 . S
C221 C222 1.385 . S
C222 H205 0.940 . S
C222 C221 1.385 . S
C222 C223 1.388 . S
C223 H202 0.939 . S
C223 C218 1.391 . S
C223 C222 1.388 . S
P224 O235 1.490 . S
P224 C238 1.812 . S
P224 C244 1.803 . S
P224 C250 1.819 . S
H225 C239 0.941 . S
H226 C240 0.939 . S
H227 C242 0.940 . S
H228 C243 0.940 . S
H229 C245 0.939 . S
H230 C246 0.942 . S
H231 C248 0.940 . S
H232 C249 0.939 . S
H233 C251 0.941 . S
H234 C255 0.939 . S
O235 P224 1.490 . S
H236 C252 0.939 . S
H237 C254 0.940 . S
C238 P224 1.812 . S
C238 C239 1.389 1_554 S
C238 C243 1.391 . S
C239 H225 0.941 . S
C239 C238 1.389 1_556 S
C239 C240 1.397 . S
C240 H226 0.939 . S
C240 C239 1.397 . S
C240 C241 1.378 . S
C241 C240 1.378 . S
C241 C242 1.378 . S
C242 H227 0.940 . S
C242 C241 1.378 . S
C242 C243 1.396 1_556 S
C243 H228 0.940 . S
C243 C238 1.391 . S
C243 C242 1.396 1_554 S
C244 P224 1.803 . S
C244 C245 1.378 . S
C244 C249 1.400 . S
C245 H229 0.939 . S
C245 C244 1.378 . S
C245 C246 1.361 . S
C246 H230 0.942 . S
C246 C245 1.361 . S
C246 C247 1.369 . S
C247 C246 1.369 . S
C247 C248 1.404 . S
C248 H231 0.940 . S
C248 C247 1.404 . S
C248 C249 1.389 . S
C249 H232 0.939 . S
C249 C244 1.400 . S
C249 C248 1.389 . S
C250 P224 1.819 . S
C250 C251 1.391 . S
C250 C255 1.391 . S
C251 H233 0.941 . S
C251 C250 1.391 . S
C251 C252 1.396 . S
C252 H236 0.939 . S
C252 C251 1.396 . S
C252 C253 1.397 . S
C253 C252 1.397 . S
C253 C254 1.385 . S
C254 H237 0.940 . S
C254 C253 1.385 . S
C254 C255 1.388 . S
C255 H234 0.939 . S
C255 C250 1.391 . S
C255 C254 1.388 . S
Zn256 O262 1.969 . S
Zn256 O263 1.965 1_655 S
Zn256 O267 2.024 1_655 S
Zn256 O272 1.969 . S
Zn257 O264 1.969 . S
Zn257 O270 1.969 . S
Zn257 O271 1.965 1_455 S
Zn257 O273 2.024 1_455 S
C258 O259 1.229 1_455 S
C258 O267 1.058 . S
O259 C258 1.229 1_655 S
C260 O261 1.229 1_655 S
C260 O273 1.058 . S
O261 C260 1.229 1_455 S
O262 Zn256 1.969 . S
O262 C265 1.267 . S
O263 Zn256 1.965 1_455 S
O263 C274 1.260 . S
O264 Zn257 1.969 . S
O264 C274 1.258 1_565 S
C265 O262 1.267 . S
C265 O266 1.228 1_655 S
O266 C265 1.228 1_455 S
O267 Zn256 2.024 1_455 S
O267 C258 1.058 . S
C268 O269 1.228 1_455 S
C268 O270 1.267 . S
O269 C268 1.228 1_655 S
O270 Zn257 1.969 . S
O270 C268 1.267 . S
O271 Zn257 1.965 1_655 S
O271 C275 1.260 1_565 S
O272 Zn256 1.969 . S
O272 C275 1.258 . S
O273 Zn257 2.024 1_655 S
O273 C260 1.058 . S
C274 O263 1.260 . S
C274 O264 1.258 1_545 S
C275 O271 1.260 1_545 S
C275 O272 1.258 . S
Zn276 O282 1.969 1_545 S
Zn276 O283 1.965 . S
Zn276 O287 2.024 . S
Zn276 O292 1.969 1_545 S
Zn277 O284 1.968 1_565 S
Zn277 O290 1.969 1_565 S
Zn277 O291 1.965 . S
Zn277 O293 2.024 . S
C278 O279 1.229 . S
C278 O287 1.058 . S
O279 C278 1.229 . S
C280 O281 1.229 1_565 S
C280 O293 1.058 . S
O281 C280 1.229 1_545 S
O282 Zn276 1.969 1_565 S
O282 C285 1.267 1_565 S
O283 Zn276 1.965 . S
O283 C294 1.260 . S
O284 Zn277 1.968 1_545 S
O284 C294 1.258 . S
C285 O282 1.267 1_545 S
C285 O286 1.228 . S
O286 C285 1.228 . S
O287 Zn276 2.024 . S
O287 C278 1.058 . S
C288 O289 1.228 . S
C288 O290 1.267 1_565 S
O289 C288 1.228 . S
O290 Zn277 1.969 1_545 S
O290 C288 1.267 1_545 S
O291 Zn277 1.965 . S
O291 C295 1.260 . S
O292 Zn276 1.969 1_565 S
O292 C295 1.258 . S
O293 Zn277 2.024 . S
O293 C280 1.058 . S
C294 O283 1.260 . S
C294 O284 1.258 . S
C295 O291 1.260 . S
C295 O292 1.258 . S
Zn296 O302 1.969 . S
Zn296 O303 1.965 . S
Zn296 O307 2.024 . S
Zn296 O312 1.969 . S
Zn297 O304 1.969 . S
Zn297 O310 1.969 . S
Zn297 O311 1.965 . S
Zn297 O313 2.024 . S
C298 O299 1.229 . S
C298 O307 1.058 . S
O299 C298 1.229 . S
C300 O301 1.229 . S
C300 O313 1.058 . S
O301 C300 1.229 . S
O302 Zn296 1.969 . S
O302 C305 1.267 . S
O303 Zn296 1.965 . S
O303 C314 1.260 . S
O304 Zn297 1.969 . S
O304 C314 1.258 . S
C305 O302 1.267 . S
C305 O306 1.228 . S
O306 C305 1.228 . S
O307 Zn296 2.024 . S
O307 C298 1.058 . S
C308 O309 1.228 . S
C308 O310 1.267 . S
O309 C308 1.228 . S
O310 Zn297 1.969 . S
O310 C308 1.267 . S
O311 Zn297 1.965 . S
O311 C315 1.260 . S
O312 Zn296 1.969 . S
O312 C315 1.258 . S
O313 Zn297 2.024 . S
O313 C300 1.058 . S
C314 O303 1.260 . S
C314 O304 1.258 . S
C315 O311 1.260 . S
C315 O312 1.258 . S
Zn316 O322 1.969 . S
Zn316 O323 1.965 . S
Zn316 O327 2.024 . S
Zn316 O332 1.969 . S
Zn317 O324 1.969 . S
Zn317 O330 1.969 . S
Zn317 O331 1.965 . S
Zn317 O333 2.024 . S
C318 O319 1.229 . S
C318 O327 1.058 . S
O319 C318 1.229 . S
C320 O321 1.229 . S
C320 O333 1.058 . S
O321 C320 1.229 . S
O322 Zn316 1.969 . S
O322 C325 1.267 . S
O323 Zn316 1.965 . S
O323 C334 1.260 . S
O324 Zn317 1.969 . S
O324 C334 1.258 1_655 S
C325 O322 1.267 . S
C325 O326 1.228 . S
O326 C325 1.228 . S
O327 Zn316 2.024 . S
O327 C318 1.058 . S
C328 O329 1.228 . S
C328 O330 1.267 . S
O329 C328 1.228 . S
O330 Zn317 1.969 . S
O330 C328 1.267 . S
O331 Zn317 1.965 . S
O331 C335 1.260 1_655 S
O332 Zn316 1.969 . S
O332 C335 1.258 . S
O333 Zn317 2.024 . S
O333 C320 1.058 . S
C334 O323 1.260 . S
C334 O324 1.258 1_455 S
C335 O331 1.260 1_455 S
C335 O332 1.258 . S
C336 C337 1.387 . S
C336 H340 0.950 . S
C336 C345 1.390 . S
C337 C336 1.387 . S
C337 C339 1.387 . S
H338 C345 0.950 1_565 S
C339 C337 1.387 . S
C339 C341 1.390 . S
C339 H343 0.950 . S
H340 C336 0.950 . S
C341 C339 1.390 . S
C341 C342 1.387 . S
C341 H344 0.950 . S
C342 C341 1.387 . S
C342 C345 1.387 . S
H343 C339 0.950 . S
H344 C341 0.950 . S
C345 C336 1.390 . S
C345 H338 0.950 1_545 S
C345 C342 1.387 . S
C346 C347 1.387 . S
C346 H350 0.950 . S
C346 C355 1.390 . S
C347 C346 1.387 . S
C347 C349 1.387 . S
H348 C355 0.950 . S
C349 C347 1.387 . S
C349 C351 1.390 . S
C349 H353 0.950 . S
H350 C346 0.950 . S
C351 C349 1.390 . S
C351 C352 1.387 . S
C351 H354 0.950 . S
C352 C351 1.387 . S
C352 C355 1.387 . S
H353 C349 0.950 . S
H354 C351 0.950 . S
C355 C346 1.390 . S
C355 H348 0.950 . S
C355 C352 1.387 . S
C356 C357 1.387 . S
C356 H360 0.950 . S
C356 C365 1.390 . S
C357 C356 1.387 . S
C357 C359 1.387 . S
H358 C365 0.950 . S
C359 C357 1.387 . S
C359 C361 1.390 . S
C359 H363 0.950 . S
H360 C356 0.950 . S
C361 C359 1.390 . S
C361 C362 1.387 . S
C361 H364 0.950 . S
C362 C361 1.387 . S
C362 C365 1.387 . S
H363 C359 0.950 . S
H364 C361 0.950 . S
C365 C356 1.390 . S
C365 H358 0.950 . S
C365 C362 1.387 . S
C366 C367 1.387 1_655 S
C366 H370 0.950 . S
C366 C375 1.390 . S
C367 C366 1.387 1_455 S
C367 C369 1.387 . S
H368 C375 0.950 . S
C369 C367 1.387 . S
C369 C371 1.390 . S
C369 H373 0.950 . S
H370 C366 0.950 . S
C371 C369 1.390 . S
C371 C372 1.387 . S
C371 H374 0.950 . S
C372 C371 1.387 . S
C372 C375 1.387 1_455 S
H373 C369 0.950 . S
H374 C371 0.950 . S
C375 C366 1.390 . S
C375 H368 0.950 . S
C375 C372 1.387 1_655 S
C376 C377 1.387 . S
C376 H380 0.950 . S
C376 C385 1.390 . S
C377 C376 1.387 . S
C377 C379 1.387 . S
H378 C385 0.950 . S
C379 C377 1.387 . S
C379 C381 1.390 . S
C379 H383 0.950 . S
H380 C376 0.950 . S
C381 C379 1.390 . S
C381 C382 1.387 . S
C381 H384 0.950 1_565 S
C382 C381 1.387 . S
C382 C385 1.387 . S
H383 C379 0.950 . S
H384 C381 0.950 1_545 S
C385 C376 1.390 . S
C385 H378 0.950 . S
C385 C382 1.387 . S
C386 C387 1.387 . S
C386 H390 0.950 . S
C386 C395 1.390 . S
C387 C386 1.387 . S
C387 C389 1.387 . S
H388 C395 0.950 . S
C389 C387 1.387 . S
C389 C391 1.390 . S
C389 H393 0.950 . S
H390 C386 0.950 . S
C391 C389 1.390 . S
C391 C392 1.387 . S
C391 H394 0.950 . S
C392 C391 1.387 . S
C392 C395 1.387 . S
H393 C389 0.950 . S
H394 C391 0.950 . S
C395 C386 1.390 . S
C395 H388 0.950 . S
C395 C392 1.387 . S
C396 C397 1.387 . S
C396 H400 0.950 . S
C396 C405 1.390 . S
C397 C396 1.387 . S
C397 C399 1.387 . S
H398 C405 0.950 . S
C399 C397 1.387 . S
C399 C401 1.390 . S
C399 H403 0.950 . S
H400 C396 0.950 . S
C401 C399 1.390 . S
C401 C402 1.387 . S
C401 H404 0.950 . S
C402 C401 1.387 . S
C402 C405 1.387 . S
H403 C399 0.950 . S
H404 C401 0.950 . S
C405 C396 1.390 . S
C405 H398 0.950 . S
C405 C402 1.387 . S
C406 C407 1.379 1_455 S
C406 H410 0.950 . S
C406 C415 1.390 . S
C407 C406 1.379 1_655 S
C407 C409 1.394 . S
H408 C415 0.950 . S
C409 C407 1.394 . S
C409 C411 1.390 . S
C409 H413 0.950 . S
H410 C406 0.950 . S
C411 C409 1.390 . S
C411 C412 1.387 1_655 S
C411 H414 0.950 . S
C412 C411 1.387 1_455 S
C412 C415 1.387 . S
H413 C409 0.950 . S
H414 C411 0.950 . S
C415 C406 1.390 . S
C415 H408 0.950 . S
C415 C412 1.387 . S
C416 C417 1.387 1_655 S
C416 H420 0.950 . S
C416 C425 1.390 . S
C417 C416 1.387 1_455 S
C417 C419 1.387 . S
H418 C425 0.950 . S
C419 C417 1.387 . S
C419 C421 1.390 1_455 S
C419 H423 0.950 . S
H420 C416 0.950 . S
C421 C419 1.390 1_655 S
C421 C422 1.387 . S
C421 H424 0.950 . S
C422 C421 1.387 . S
C422 C425 1.387 . S
H423 C419 0.950 . S
H424 C421 0.950 . S
C425 C416 1.390 . S
C425 H418 0.950 . S
C425 C422 1.387 . S
C426 C427 1.387 . S
C426 H430 0.950 . S
C426 C435 1.390 . S
C427 C426 1.387 . S
C427 C429 1.387 . S
H428 C435 0.950 . S
C429 C427 1.387 . S
C429 C431 1.390 . S
C429 H433 0.950 . S
H430 C426 0.950 . S
C431 C429 1.390 . S
C431 C432 1.387 . S
C431 H434 0.951 1_545 S
C432 C431 1.387 . S
C432 C435 1.387 . S
H433 C429 0.950 . S
H434 C431 0.951 1_565 S
C435 C426 1.390 . S
C435 H428 0.950 . S
C435 C432 1.387 . S
C436 C437 1.387 . S
C436 H440 0.950 . S
C436 C445 1.390 . S
C437 C436 1.387 . S
C437 C439 1.387 . S
H438 C445 0.950 . S
C439 C437 1.387 . S
C439 C441 1.390 . S
C439 H443 0.950 . S
H440 C436 0.950 . S
C441 C439 1.390 . S
C441 C442 1.387 . S
C441 H444 0.950 . S
C442 C441 1.387 . S
C442 C445 1.387 . S
H443 C439 0.950 . S
H444 C441 0.950 . S
C445 C436 1.390 . S
C445 H438 0.950 . S
C445 C442 1.387 . S
C446 C447 1.387 . S
C446 H450 0.950 . S
C446 C455 1.390 . S
C447 C446 1.387 . S
C447 C449 1.387 . S
H448 C455 0.950 . S
C449 C447 1.387 . S
C449 C451 1.390 . S
C449 H453 0.950 . S
H450 C446 0.950 . S
C451 C449 1.390 . S
C451 C452 1.387 . S
C451 H454 0.950 . S
C452 C451 1.387 . S
C452 C455 1.387 . S
H453 C449 0.950 . S
H454 C451 0.950 . S
C455 C446 1.390 . S
C455 H448 0.950 . S
C455 C452 1.387 . S
C456 C457 1.387 . S
C456 H460 0.950 . S
C456 C465 1.390 1_655 S
C457 C456 1.387 . S
C457 C459 1.387 1_655 S
H458 C465 0.950 . S
C459 C457 1.387 1_455 S
C459 C461 1.390 . S
C459 H463 0.951 . S
H460 C456 0.950 . S
C461 C459 1.390 . S
C461 C462 1.387 . S
C461 H464 0.950 . S
C462 C461 1.387 . S
C462 C465 1.387 . S
H463 C459 0.951 . S
H464 C461 0.950 . S
C465 C456 1.390 1_455 S
C465 H458 0.950 . S
C465 C462 1.387 . S
C466 C467 1.387 . S
C466 H470 0.950 . S
C466 C475 1.390 . S
C467 C466 1.387 . S
C467 C469 1.387 . S
H468 C475 0.950 . S
C469 C467 1.387 . S
C469 C471 1.390 1_565 S
C469 H473 0.950 . S
H470 C466 0.950 . S
C471 C469 1.390 1_545 S
C471 C472 1.387 1_545 S
C471 H474 0.950 . S
C472 C471 1.387 1_565 S
C472 C475 1.387 . S
H473 C469 0.950 . S
H474 C471 0.950 . S
C475 C466 1.390 . S
C475 H468 0.950 . S
C475 C472 1.387 . S
C476 C477 1.387 . S
C476 H480 0.950 . S
C476 C485 1.390 . S
C477 C476 1.387 . S
C477 C479 1.387 . S
H478 C485 0.950 . S
C479 C477 1.387 . S
C479 C481 1.390 . S
C479 H483 0.950 . S
H480 C476 0.950 . S
C481 C479 1.390 . S
C481 C482 1.387 . S
C481 H484 0.950 . S
C482 C481 1.387 . S
C482 C485 1.387 . S
H483 C479 0.950 . S
H484 C481 0.950 . S
C485 C476 1.390 . S
C485 H478 0.950 . S
C485 C482 1.387 . S
C486 C487 1.387 . S
C486 H490 0.950 . S
C486 C495 1.390 . S
C487 C486 1.387 . S
C487 C489 1.387 . S
H488 C495 0.950 . S
C489 C487 1.387 . S
C489 C491 1.390 . S
C489 H493 0.950 . S
H490 C486 0.950 . S
C491 C489 1.390 . S
C491 C492 1.387 . S
C491 H494 0.950 . S
C492 C491 1.387 . S
C492 C495 1.387 . S
H493 C489 0.950 . S
H494 C491 0.950 . S
C495 C486 1.390 . S
C495 H488 0.950 . S
C495 C492 1.387 . S
C496 C497 1.387 . S
C496 H500 0.950 . S
C496 C505 1.390 . S
C497 C496 1.387 . S
C497 C499 1.387 . S
H498 C505 0.950 . S
C499 C497 1.387 . S
C499 C501 1.390 . S
C499 H503 0.950 . S
H500 C496 0.950 . S
C501 C499 1.390 . S
C501 C502 1.387 . S
C501 H504 0.950 . S
C502 C501 1.387 . S
C502 C505 1.387 . S
H503 C499 0.950 . S
H504 C501 0.950 . S
C505 C496 1.390 . S
C505 H498 0.950 . S
C505 C502 1.387 . S
C506 C507 1.387 . S
C506 H510 0.950 . S
C506 C515 1.390 . S
C507 C506 1.387 . S
C507 C509 1.387 . S
H508 C515 0.950 1_565 S
C509 C507 1.387 . S
C509 C511 1.390 . S
C509 H513 0.950 . S
H510 C506 0.950 . S
C511 C509 1.390 . S
C511 C512 1.387 . S
C511 H514 0.950 . S
C512 C511 1.387 . S
C512 C515 1.387 . S
H513 C509 0.950 . S
H514 C511 0.950 . S
C515 C506 1.390 . S
C515 H508 0.950 1_545 S
C515 C512 1.387 . S
C516 C517 1.387 . S
C516 H520 0.950 . S
C516 C525 1.390 . S
C517 C516 1.387 . S
C517 C519 1.387 . S
H518 C525 0.950 . S
C519 C517 1.387 . S
C519 C521 1.390 . S
C519 H523 0.950 . S
H520 C516 0.950 . S
C521 C519 1.390 . S
C521 C522 1.387 . S
C521 H524 0.950 . S
C522 C521 1.387 . S
C522 C525 1.387 . S
H523 C519 0.950 . S
H524 C521 0.950 . S
C525 C516 1.390 . S
C525 H518 0.950 . S
C525 C522 1.387 . S
C526 C527 1.387 . S
C526 H530 0.950 . S
C526 C535 1.390 . S
C527 C526 1.387 . S
C527 C529 1.387 . S
H528 C535 0.950 . S
C529 C527 1.387 . S
C529 C531 1.390 . S
C529 H533 0.950 . S
H530 C526 0.950 . S
C531 C529 1.390 . S
C531 C532 1.387 . S
C531 H534 0.950 . S
C532 C531 1.387 . S
C532 C535 1.387 . S
H533 C529 0.950 . S
H534 C531 0.950 . S
C535 C526 1.390 . S
C535 H528 0.950 . S
C535 C532 1.387 . S
C536 C537 1.387 1_455 S
C536 H540 0.950 . S
C536 C545 1.390 . S
C537 C536 1.387 1_655 S
C537 C539 1.387 . S
H538 C545 0.950 . S
C539 C537 1.387 . S
C539 C541 1.390 . S
C539 H543 0.950 . S
H540 C536 0.950 . S
C541 C539 1.390 . S
C541 C542 1.387 . S
C541 H544 0.950 . S
C542 C541 1.387 . S
C542 C545 1.387 1_655 S
H543 C539 0.950 . S
H544 C541 0.950 . S
C545 C536 1.390 . S
C545 H538 0.950 . S
C545 C542 1.387 1_455 S
C546 C547 1.387 . S
C546 H550 0.950 . S
C546 C555 1.390 . S
C547 C546 1.387 . S
C547 C549 1.387 . S
H548 C555 0.950 . S
C549 C547 1.387 . S
C549 C551 1.390 . S
C549 H553 0.950 . S
H550 C546 0.950 . S
C551 C549 1.390 . S
C551 C552 1.387 . S
C551 H554 0.950 . S
C552 C551 1.387 . S
C552 C555 1.387 . S
H553 C549 0.950 . S
H554 C551 0.950 . S
C555 C546 1.390 . S
C555 H548 0.950 . S
C555 C552 1.387 . S
C556 C557 1.387 . S
C556 H560 0.950 . S
C556 C565 1.390 . S
C557 C556 1.387 . S
C557 C559 1.387 . S
H558 C565 0.950 . S
C559 C557 1.387 . S
C559 C561 1.390 . S
C559 H563 0.950 . S
H560 C556 0.950 . S
C561 C559 1.390 . S
C561 C562 1.387 . S
C561 H564 0.950 . S
C562 C561 1.387 . S
C562 C565 1.387 . S
H563 C559 0.950 . S
H564 C561 0.950 . S
C565 C556 1.390 . S
C565 H558 0.950 . S
C565 C562 1.387 . S
C566 C567 1.387 . S
C566 H570 0.950 . S
C566 C575 1.390 . S
C567 C566 1.387 . S
C567 C569 1.387 . S
H568 C575 0.950 . S
C569 C567 1.387 . S
C569 C571 1.390 . S
C569 H573 0.950 . S
H570 C566 0.950 . S
C571 C569 1.390 . S
C571 C572 1.387 . S
C571 H574 0.950 . S
C572 C571 1.387 . S
C572 C575 1.387 . S
H573 C569 0.950 . S
H574 C571 0.950 . S
C575 C566 1.390 . S
C575 H568 0.950 . S
C575 C572 1.387 . S
C337 C215 1.749 . S
C342 C274 1.725 . S
C352 C294 1.555 . S
C347 C247 1.571 . S
C362 C314 1.797 . S
C357 C151 1.828 . S
C372 C334 1.563 . S
C367 C183 1.586 . S
C382 C275 1.808 1_565 S
C377 C87 1.721 . S
C387 C119 1.573 . S
C392 C295 1.559 . S
C397 C23 1.638 . S
C402 C315 1.723 . S
C407 C55 1.592 1_655 S
C412 C335 1.603 . S
C422 C265 0.876 . S
C417 C189 0.940 . S
C432 C285 1.020 . S
C427 C221 1.147 . S
C442 C305 0.919 . S
C437 C253 0.975 . S
C447 C157 1.081 . S
C452 C325 0.957 . S
C457 C61 0.868 1_655 S
C462 C268 0.855 . S
C472 C288 1.018 . S
C467 C93 1.009 . S
C482 C308 0.894 . S
C477 C125 0.912 . S
C487 C29 0.928 . S
C492 C328 0.933 . S
C497 C177 1.869 . S
C502 C258 1.816 . S
C507 C209 1.903 . S
C512 C278 1.827 . S
C522 C298 1.833 . S
C517 C241 1.874 . S
C532 C318 1.934 . S
C527 C145 2.011 . S
C537 C49 1.980 1_655 S
C542 C260 1.907 . S
C552 C280 1.849 . S
C547 C81 1.888 . S
C562 C300 1.790 . S
C557 C113 1.892 . S
C567 C17 1.950 . S
C572 C320 1.904 . S
