# Generated by pormake.
# Topology pyr, (3,6)-cn, num edge types: 1
# Building blocks:
#     Node 0, Type 0, BuildingBlock: BELTOD_clean_linker_0, # of connection points: 3
#     Node 1, Type 0, BuildingBlock: BELTOD_clean_linker_0, # of connection points: 3
#     Node 2, Type 0, BuildingBlock: BELTOD_clean_linker_0, # of connection points: 3
#     Node 3, Type 0, BuildingBlock: BELTOD_clean_linker_0, # of connection points: 3
#     Node 4, Type 0, BuildingBlock: BELTOD_clean_linker_0, # of connection points: 3
#     Node 5, Type 0, BuildingBlock: BELTOD_clean_linker_0, # of connection points: 3
#     Node 6, Type 0, BuildingBlock: BELTOD_clean_linker_0, # of connection points: 3
#     Node 7, Type 0, BuildingBlock: BELTOD_clean_linker_0, # of connection points: 3
#     Node 8, Type 1, BuildingBlock: FUNLAD_clean_sbu_0, # of connection points: 6
#     Node 9, Type 1, BuildingBlock: FUNLAD_clean_sbu_0, # of connection points: 6
#     Node 10, Type 1, BuildingBlock: FUNLAD_clean_sbu_0, # of connection points: 6
#     Node 11, Type 1, BuildingBlock: FUNLAD_clean_sbu_0, # of connection points: 6
#     Edge 12, Type (0, 1), BuildingBlock: CIFDUS_clean_linker_0, # of connection points: 2
#     Edge 13, Type (0, 1), BuildingBlock: CIFDUS_clean_linker_0, # of connection points: 2
#     Edge 14, Type (0, 1), BuildingBlock: CIFDUS_clean_linker_0, # of connection points: 2
#     Edge 15, Type (0, 1), BuildingBlock: CIFDUS_clean_linker_0, # of connection points: 2
#     Edge 16, Type (0, 1), BuildingBlock: CIFDUS_clean_linker_0, # of connection points: 2
#     Edge 17, Type (0, 1), BuildingBlock: CIFDUS_clean_linker_0, # of connection points: 2
#     Edge 18, Type (0, 1), BuildingBlock: CIFDUS_clean_linker_0, # of connection points: 2
#     Edge 19, Type (0, 1), BuildingBlock: CIFDUS_clean_linker_0, # of connection points: 2
#     Edge 20, Type (0, 1), BuildingBlock: CIFDUS_clean_linker_0, # of connection points: 2
#     Edge 21, Type (0, 1), BuildingBlock: CIFDUS_clean_linker_0, # of connection points: 2
#     Edge 22, Type (0, 1), BuildingBlock: CIFDUS_clean_linker_0, # of connection points: 2
#     Edge 23, Type (0, 1), BuildingBlock: CIFDUS_clean_linker_0, # of connection points: 2
#     Edge 24, Type (0, 1), BuildingBlock: CIFDUS_clean_linker_0, # of connection points: 2
#     Edge 25, Type (0, 1), BuildingBlock: CIFDUS_clean_linker_0, # of connection points: 2
#     Edge 26, Type (0, 1), BuildingBlock: CIFDUS_clean_linker_0, # of connection points: 2
#     Edge 27, Type (0, 1), BuildingBlock: CIFDUS_clean_linker_0, # of connection points: 2
#     Edge 28, Type (0, 1), BuildingBlock: CIFDUS_clean_linker_0, # of connection points: 2
#     Edge 29, Type (0, 1), BuildingBlock: CIFDUS_clean_linker_0, # of connection points: 2
#     Edge 30, Type (0, 1), BuildingBlock: CIFDUS_clean_linker_0, # of connection points: 2
#     Edge 31, Type (0, 1), BuildingBlock: CIFDUS_clean_linker_0, # of connection points: 2
#     Edge 32, Type (0, 1), BuildingBlock: CIFDUS_clean_linker_0, # of connection points: 2
#     Edge 33, Type (0, 1), BuildingBlock: CIFDUS_clean_linker_0, # of connection points: 2
#     Edge 34, Type (0, 1), BuildingBlock: CIFDUS_clean_linker_0, # of connection points: 2
#     Edge 35, Type (0, 1), BuildingBlock: CIFDUS_clean_linker_0, # of connection points: 2
# Relax obj value: 0.079
# Max RMSD: 0.073
# Mean RMSD: 0.037
data_MOF--net-pry--node1-FUNLAD_clean_sbu_0--node2-BELTOD_clean_linker_0--edge1-CIFDUS_clean_linker_0
_symmetry_space_group_name_H-M    P1
_symmetry_Int_Tables_number       1
_symmetry_cell_setting            triclinic
loop_
_symmetry_equiv_pos_as_xyz
'x, y, z'
_cell_length_a     36.237763
_cell_length_b     39.206216
_cell_length_c     38.755637
_cell_angle_alpha  89.85141
_cell_angle_beta   90.190281
_cell_angle_gamma 83.999425
loop_
_atom_site_label
_atom_site_type_symbol
_atom_site_fract_x
_atom_site_fract_y
_atom_site_fract_z
_atom_type_partial_charge
P0 P 0.16538 0.20104 0.20922 0.0
H1 H 0.23813 0.21961 0.1901 0.0
H2 H 0.28914 0.19139 0.1565 0.0
H3 H 0.22639 0.10504 0.13978 0.0
H4 H 0.17518 0.1336 0.17405 0.0
H5 H 0.11076 0.26002 0.2225 0.0
H6 H 0.0822 0.3062 0.1859 0.0
H7 H 0.13513 0.25668 0.09672 0.0
H8 H 0.16145 0.20964 0.13319 0.0
H9 H 0.18865 0.13731 0.24648 0.0
H10 H 0.08727 0.20377 0.2322 0.0
O11 O 0.18495 0.22531 0.23789 0.0
H12 H 0.15929 0.10623 0.29184 0.0
H13 H 0.05794 0.1731 0.27787 0.0
C14 C 0.20316 0.1784 0.18529 0.0
C15 C 0.23539 0.19444 0.17955 0.0
C16 C 0.26447 0.17838 0.15998 0.0
C17 C 0.26195 0.1459 0.14534 0.0
C18 C 0.22946 0.12984 0.15103 0.0
C19 C 0.20015 0.14613 0.17058 0.0
C20 C 0.13811 0.231 0.18082 0.0
C21 C 0.11527 0.25853 0.19491 0.0
C22 C 0.09948 0.2854 0.17387 0.0
C23 C 0.10673 0.28588 0.13813 0.0
C24 C 0.12845 0.25742 0.12392 0.0
C25 C 0.14379 0.23031 0.14497 0.0
C26 C 0.1401 0.17262 0.2352 0.0
C27 C 0.15967 0.14455 0.25219 0.0
C28 C 0.14287 0.1268 0.27835 0.0
C29 C 0.10628 0.13722 0.28875 0.0
C30 C 0.08628 0.16454 0.27077 0.0
C31 C 0.103 0.18202 0.24436 0.0
P32 P 0.37785 0.87405 0.6828 0.0
H33 H 0.43778 0.84731 0.72951 0.0
H34 H 0.4536 0.86223 0.78869 0.0
H35 H 0.34987 0.92657 0.7966 0.0
H36 H 0.33383 0.91104 0.73795 0.0
H37 H 0.41086 0.85579 0.61637 0.0
H38 H 0.43015 0.8015 0.58813 0.0
H39 H 0.40068 0.74688 0.67924 0.0
H40 H 0.38176 0.80197 0.70777 0.0
H41 H 0.33034 0.93914 0.68113 0.0
H42 H 0.32151 0.83467 0.65057 0.0
O43 O 0.40292 0.90318 0.66571 0.0
H44 H 0.26892 0.95635 0.65734 0.0
H45 H 0.26171 0.85198 0.62399 0.0
C46 C 0.38432 0.87752 0.72912 0.0
C47 C 0.41784 0.86372 0.74432 0.0
C48 C 0.42699 0.87246 0.77817 0.0
C49 C 0.40315 0.89588 0.79734 0.0
C50 C 0.36907 0.90881 0.78244 0.0
C51 C 0.35974 0.89967 0.7488 0.0
C52 C 0.39557 0.83307 0.66448 0.0
C53 C 0.40909 0.83222 0.63061 0.0
C54 C 0.41976 0.80102 0.61428 0.0
C55 C 0.41684 0.76965 0.63126 0.0
C56 C 0.40369 0.7705 0.6655 0.0
C57 C 0.39285 0.80196 0.68186 0.0
C58 C 0.33058 0.88554 0.66811 0.0
C59 C 0.31508 0.91981 0.66945 0.0
C60 C 0.28003 0.92974 0.65515 0.0
C61 C 0.25995 0.90579 0.63814 0.0
C62 C 0.2756 0.87129 0.63724 0.0
C63 C 0.31027 0.86127 0.65232 0.0
P64 P 0.66977 0.39599 0.95503 0.0
H65 H 0.71234 0.38582 0.01873 0.0
H66 H 0.75925 0.41891 0.04395 0.0
H67 H 0.72591 0.50244 0.9741 0.0
H68 H 0.67905 0.46971 0.94923 0.0
H69 H 0.60495 0.37452 0.92033 0.0
H70 H 0.55626 0.34216 0.93913 0.0
H71 H 0.59341 0.34916 0.04475 0.0
H72 H 0.64305 0.38262 0.02537 0.0
H73 H 0.70046 0.3794 0.88649 0.0
H74 H 0.61518 0.45083 0.93094 0.0
O75 O 0.69956 0.36087 0.95041 0.0
H76 H 0.67704 0.39465 0.82884 0.0
H77 H 0.59198 0.46676 0.87314 0.0
C78 C 0.69247 0.42499 0.98176 0.0
C79 C 0.71395 0.41185 1.00989 0.0
C80 C 0.74076 0.43077 0.02432 0.0
C81 C 0.74646 0.46295 1.01054 0.0
C82 C 0.72219 0.47752 0.98492 0.0
C83 C 0.69531 0.4587 0.97068 0.0
C84 C 0.62758 0.38172 0.97146 0.0
C85 C 0.60189 0.37087 0.9478 0.0
C86 C 0.57359 0.35216 0.95869 0.0
C87 C 0.57078 0.3429 0.99351 0.0
C88 C 0.59494 0.35577 0.01768 0.0
C89 C 0.6233 0.37496 1.00666 0.0
C90 C 0.65942 0.41392 0.91292 0.0
C91 C 0.67732 0.39905 0.88382 0.0
C92 C 0.66391 0.40782 0.85084 0.0
C93 C 0.63235 0.43153 0.84657 0.0
C94 C 0.61595 0.44796 0.87574 0.0
C95 C 0.62945 0.43923 0.90868 0.0
P96 P 0.88618 0.58582 0.41938 0.0
H97 H 0.90065 0.64743 0.38218 0.0
H98 H 0.92615 0.69969 0.39969 0.0
H99 H 0.9428 0.65907 0.50311 0.0
H100 H 0.91586 0.60699 0.48542 0.0
H101 H 0.88557 0.5232 0.37975 0.0
H102 H 0.93247 0.49775 0.34019 0.0
H103 H 0.01419 0.5546 0.38858 0.0
H104 H 0.96751 0.57929 0.42884 0.0
H105 H 0.83502 0.62571 0.4641 0.0
H106 H 0.86479 0.51865 0.44151 0.0
O107 O 0.86069 0.59582 0.38413 0.0
H108 H 0.77915 0.61153 0.49312 0.0
H109 H 0.8083 0.5044 0.47041 0.0
C110 C 0.90552 0.62391 0.43279 0.0
C111 C 0.90955 0.64985 0.40868 0.0
C112 C 0.92465 0.67953 0.41863 0.0
C113 C 0.93654 0.68352 0.45281 0.0
C114 C 0.93341 0.65693 0.47673 0.0
C115 C 0.91806 0.62724 0.46672 0.0
C116 C 0.92269 0.55397 0.40646 0.0
C117 C 0.91405 0.52853 0.38339 0.0
C118 C 0.94102 0.51391 0.36074 0.0
C119 C 0.97664 0.52505 0.36079 0.0
C120 C 0.98675 0.546 0.38781 0.0
C121 C 0.95984 0.56031 0.41071 0.0
C122 C 0.85427 0.57319 0.45094 0.0
C123 C 0.8304 0.59897 0.46662 0.0
C124 C 0.79828 0.59093 0.48295 0.0
C125 C 0.7894 0.55699 0.48357 0.0
C126 C 0.81478 0.53075 0.47037 0.0
C127 C 0.84701 0.53888 0.45385 0.0
P128 P 0.8842 0.89202 0.87191 0.0
H129 H 0.84911 0.9605 0.8871 0.0
H130 H 0.78654 0.98262 0.90451 0.0
H131 H 0.7503 0.88206 0.89044 0.0
H132 H 0.81335 0.86005 0.87275 0.0
H133 H 0.93794 0.83435 0.84901 0.0
H134 H 0.9597 0.77931 0.87612 0.0
H135 H 0.87631 0.7984 0.95516 0.0
H136 H 0.85636 0.85366 0.92914 0.0
H137 H 0.95604 0.90372 0.84317 0.0
H138 H 0.84444 0.90233 0.80486 0.0
O139 O 0.90923 0.91441 0.89806 0.0
H140 H 0.97495 0.92618 0.78784 0.0
H141 H 0.86336 0.92474 0.749 0.0
C142 C 0.83623 0.90842 0.87949 0.0
C143 C 0.82768 0.94321 0.88743 0.0
C144 C 0.79174 0.95589 0.89728 0.0
C145 C 0.76338 0.93405 0.89935 0.0
C146 C 0.77163 0.89944 0.88977 0.0
C147 C 0.80765 0.88685 0.87953 0.0
C148 C 0.89461 0.8479 0.88627 0.0
C149 C 0.9238 0.8263 0.87172 0.0
C150 C 0.93628 0.79472 0.88736 0.0
C151 C 0.92005 0.7842 0.91815 0.0
C152 C 0.89009 0.80561 0.93192 0.0
C153 C 0.878 0.83715 0.91652 0.0
C154 C 0.89873 0.90163 0.82843 0.0
C155 C 0.93566 0.90776 0.82267 0.0
C156 C 0.94641 0.92088 0.79102 0.0
C157 C 0.92056 0.92786 0.76408 0.0
C158 C 0.88397 0.91973 0.76918 0.0
C159 C 0.87312 0.90687 0.80113 0.0
P160 P 0.66087 0.19068 0.3345 0.0
H161 H 0.65608 0.26552 0.32823 0.0
H162 H 0.62607 0.3123 0.36237 0.0
H163 H 0.57584 0.23954 0.42617 0.0
H164 H 0.60626 0.19224 0.39141 0.0
H165 H 0.71688 0.13341 0.32119 0.0
H166 H 0.768 0.10546 0.35563 0.0
H167 H 0.72924 0.166 0.44385 0.0
H168 H 0.67923 0.19455 0.40905 0.0
H169 H 0.61569 0.20615 0.27326 0.0
H170 H 0.64576 0.11751 0.33728 0.0
O171 O 0.68749 0.20909 0.3064 0.0
H172 H 0.5881 0.17018 0.231 0.0
H173 H 0.61891 0.08109 0.29466 0.0
C174 C 0.63368 0.22514 0.35726 0.0
C175 C 0.63825 0.25938 0.3492 0.0
C176 C 0.62088 0.28633 0.36878 0.0
C177 C 0.59856 0.27984 0.39719 0.0
C178 C 0.59312 0.24549 0.4047 0.0
C179 C 0.61024 0.21843 0.38469 0.0
C180 C 0.69357 0.16568 0.36251 0.0
C181 C 0.71889 0.14011 0.34817 0.0
C182 C 0.74817 0.12408 0.36798 0.0
C183 C 0.75298 0.13347 0.40262 0.0
C184 C 0.7268 0.15837 0.41718 0.0
C185 C 0.69765 0.17449 0.39729 0.0
C186 C 0.63319 0.16461 0.30833 0.0
C187 C 0.61587 0.17898 0.2785 0.0
C188 C 0.60047 0.15824 0.2541 0.0
C189 C 0.60194 0.1225 0.25892 0.0
C190 C 0.6173 0.10844 0.28996 0.0
C191 C 0.63279 0.1293 0.3144 0.0
P192 P 0.43428 0.56365 0.05905 0.0
H193 H 0.39014 0.58948 0.99847 0.0
H194 H 0.32481 0.586 0.98306 0.0
H195 H 0.31443 0.51716 0.06879 0.0
H196 H 0.37941 0.52035 0.0838 0.0
H197 H 0.50564 0.58968 0.04686 0.0
H198 H 0.52397 0.64799 0.04619 0.0
H199 H 0.40853 0.68851 0.05185 0.0
H200 H 0.39071 0.63042 0.05391 0.0
H201 H 0.48694 0.5342 0.11171 0.0
H202 H 0.37977 0.59343 0.10808 0.0
O203 O 0.46595 0.53349 0.04394 0.0
H204 H 0.48559 0.53607 0.175 0.0
H205 H 0.3782 0.59531 0.17096 0.0
C206 C 0.38905 0.55635 0.04316 0.0
C207 C 0.37385 0.57342 0.01372 0.0
C208 C 0.33666 0.57134 1.00488 0.0
C209 C 0.31451 0.55203 0.02535 0.0
C210 C 0.33074 0.53291 0.05316 0.0
C211 C 0.36785 0.5347 0.06169 0.0
C212 C 0.44676 0.60572 0.04935 0.0
C213 C 0.48428 0.61117 0.04697 0.0
C214 C 0.49472 0.64451 0.04671 0.0
C215 C 0.46772 0.6729 0.04922 0.0
C216 C 0.43006 0.66722 0.05041 0.0
C217 C 0.41975 0.63396 0.05092 0.0
C218 C 0.433 0.56282 0.10536 0.0
C219 C 0.46299 0.54723 0.12452 0.0
C220 C 0.46231 0.54857 0.16058 0.0
C221 C 0.43162 0.56562 0.1778 0.0
C222 C 0.40187 0.5815 0.15838 0.0
C223 C 0.40276 0.5804 0.12247 0.0
P224 P 0.11904 0.41033 0.57866 0.0
H225 H 0.13865 0.39347 0.50745 0.0
H226 H 0.11323 0.34773 0.47603 0.0
H227 H 0.01436 0.36181 0.5384 0.0
H228 H 0.03858 0.40915 0.56759 0.0
H229 H 0.19539 0.39277 0.59992 0.0
H230 H 0.25283 0.41589 0.58597 0.0
H231 H 0.1924 0.49436 0.52306 0.0
H232 H 0.13443 0.4695 0.53602 0.0
H233 H 0.06279 0.38882 0.62416 0.0
H234 H 0.12055 0.4787 0.61014 0.0
O235 O 0.13224 0.37099 0.59374 0.0
H236 H 0.03672 0.41213 0.67801 0.0
H237 H 0.09505 0.50182 0.66472 0.0
C238 C 0.09149 0.40316 0.54138 0.0
C239 C 0.11031 0.3886 0.5126 0.0
C240 C 0.09583 0.36208 0.4948 0.0
C241 C 0.0631 0.34958 0.50659 0.0
C242 C 0.04035 0.36993 0.52948 0.0
C243 C 0.0545 0.39703 0.54661 0.0
C244 C 0.16077 0.42917 0.56859 0.0
C245 C 0.19434 0.41483 0.58296 0.0
C246 C 0.22727 0.42842 0.57528 0.0
C247 C 0.2273 0.45723 0.55362 0.0
C248 C 0.19339 0.47195 0.53956 0.0
C249 C 0.16028 0.45795 0.54703 0.0
C250 C 0.09354 0.43204 0.61315 0.0
C251 C 0.06889 0.41411 0.6321 0.0
C252 C 0.05394 0.42745 0.66287 0.0
C253 C 0.06402 0.45867 0.67548 0.0
C254 C 0.087 0.47761 0.65547 0.0
C255 C 0.10155 0.46442 0.62432 0.0
C256 C 0.03773 0.03246 0.4516 0.0
N257 N 0.01237 0.08769 0.54101 0.0
C258 C 0.04457 0.09975 0.53132 0.0
C259 C 0.04713 0.13473 0.52951 0.0
C260 C 0.01663 0.158 0.53878 0.0
C261 C 0.98467 0.14476 0.55158 0.0
C262 C 0.98298 0.10924 0.55216 0.0
Zn263 Zn 0.00762 0.03882 0.52576 0.0
C264 C 0.9371 0.035 0.48679 0.0
N265 N 1.00155 0.93991 0.48495 0.0
C266 C 0.03139 0.92056 0.47148 0.0
C267 C 0.96859 0.92694 0.48964 0.0
C268 C 0.96499 0.89289 0.48175 0.0
C269 C 0.99567 0.87189 0.46908 0.0
C270 C 0.02902 0.8862 0.46324 0.0
Zn271 Zn 1.00599 0.98791 0.50229 0.0
O272 O 0.02935 0.05267 0.47657 0.0
C273 C 0.07651 0.99188 0.54148 0.0
O274 O 0.03244 1.00106 0.455 0.0
H275 H 0.94526 0.9428 0.50041 0.0
H276 H 0.06738 0.08237 0.52187 0.0
H277 H 0.05732 0.9315 0.46806 0.0
O278 O 0.06229 0.02274 0.54465 0.0
O279 O 0.05866 0.97081 0.52511 0.0
H280 H 0.95746 0.09908 0.55936 0.0
O281 O 0.97963 0.97516 0.54953 0.0
O282 O 0.98535 0.02441 0.57467 0.0
O283 O 0.95311 1.00538 0.47992 0.0
O284 O 0.95326 0.05443 0.50672 0.0
C285 C 0.97521 0.99425 0.57603 0.0
H286 H 0.0721 0.14309 0.51858 0.0
H287 H 0.96069 0.16156 0.5597 0.0
H288 H 0.93855 0.88299 0.48592 0.0
H289 H 0.05329 0.87076 0.45356 0.0
C290 C 0.57026 0.98519 0.99721 0.0
N291 N 0.51135 0.08418 0.99541 0.0
C292 C 0.54679 0.09272 0.99528 0.0
C293 C 0.5537 0.12687 0.9967 0.0
C294 C 0.52396 0.15269 0.99939 0.0
C295 C 0.48766 0.14353 0.99598 0.0
C296 C 0.48196 0.10884 0.9937 0.0
Zn297 Zn 0.50467 0.03585 0.01307 0.0
C298 C 0.46726 0.99201 0.96694 0.0
N299 N 0.49551 0.93902 0.05983 0.0
C300 C 0.52563 0.91802 0.07072 0.0
C301 C 0.46136 0.92766 0.05775 0.0
C302 C 0.45666 0.89376 0.0658 0.0
C303 C 0.48753 0.87115 0.07532 0.0
C304 C 0.5223 0.8836 0.07829 0.0
Zn305 Zn 0.50117 0.98656 0.04039 0.0
O306 O 0.55555 0.01501 0.98908 0.0
C307 C 0.53915 0.03172 0.08561 0.0
O308 O 0.55389 0.96785 0.01907 0.0
H309 H 0.43793 0.94444 0.04829 0.0
H310 H 0.56998 0.07319 0.99737 0.0
H311 H 0.55254 0.92755 0.07216 0.0
O312 O 0.53392 0.04876 0.05781 0.0
O313 O 0.52762 1.00216 0.08746 0.0
H314 H 0.45394 0.10176 0.99358 0.0
O315 O 0.44867 1.0057 0.06168 0.0
O316 O 0.45367 0.05531 0.0373 0.0
O317 O 0.47489 0.97212 0.99268 0.0
O318 O 0.47544 0.02278 0.96845 0.0
C319 C 0.43567 0.03664 0.05646 0.0
H320 H 0.58221 0.13278 0.99789 0.0
H321 H 0.46386 0.16259 0.99755 0.0
H322 H 0.42953 0.88485 0.06274 0.0
H323 H 0.54668 0.86672 0.08557 0.0
C324 C 0.52292 0.45815 0.4875 0.0
N325 N 0.53695 0.48981 0.59012 0.0
C326 C 0.52843 0.4599 0.60445 0.0
C327 C 0.54474 0.44853 0.63577 0.0
C328 C 0.57036 0.46793 0.65177 0.0
C329 C 0.57848 0.49858 0.63643 0.0
C330 C 0.56115 0.50924 0.60569 0.0
Zn331 Zn 0.5154 0.50814 0.5444 0.0
C332 C 0.57427 0.53849 0.50457 0.0
N333 N 0.47507 0.55281 0.45007 0.0
C334 C 0.45514 0.53264 0.43038 0.0
C335 C 0.48655 0.5823 0.43737 0.0
C336 C 0.48011 0.5913 0.40282 0.0
C337 C 0.46171 0.56971 0.38132 0.0
C338 C 0.4481 0.54065 0.3958 0.0
Zn339 Zn 0.49416 0.53401 0.49645 0.0
O340 O 0.52813 0.45886 0.52 0.0
C341 C 0.43543 0.50353 0.53674 0.0
O342 O 0.50964 0.48555 0.47233 0.0
H343 H 0.50238 0.59792 0.45354 0.0
H344 H 0.50907 0.44493 0.5916 0.0
H345 H 0.44657 0.50917 0.44092 0.0
O346 O 0.46224 0.49564 0.55748 0.0
O347 O 0.44122 0.51896 0.50868 0.0
H348 H 0.56715 0.5332 0.59424 0.0
O349 O 0.47907 0.58206 0.52088 0.0
O350 O 0.50224 0.55771 0.56824 0.0
O351 O 0.54735 0.54898 0.48492 0.0
O352 O 0.56833 0.52056 0.53078 0.0
C353 C 0.48659 0.58413 0.55284 0.0
H354 H 0.5378 0.42477 0.64716 0.0
H355 H 0.59758 0.51448 0.64845 0.0
H356 H 0.49063 0.61418 0.39275 0.0
H357 H 0.43419 0.52304 0.38011 0.0
C358 C 1.00171 0.59893 0.99238 0.0
N359 N 1.00535 0.56113 0.09505 0.0
C360 C 0.0243 0.58506 0.11069 0.0
C361 C 0.02558 0.58688 0.14671 0.0
C362 C 0.00706 0.56392 0.16648 0.0
C363 C 0.9852 0.54166 0.1495 0.0
C364 C 0.98499 0.54046 0.1137 0.0
Zn365 Zn 0.0162 0.54638 0.04545 0.0
C366 C 0.95129 0.51842 1.01167 0.0
N367 N 0.04299 0.50629 0.94636 0.0
C368 C 0.06376 0.52687 0.92801 0.0
C369 C 0.0297 0.47851 0.93174 0.0
C370 C 0.03679 0.47093 0.89699 0.0
C371 C 0.05798 0.49203 0.87757 0.0
C372 C 0.07178 0.52008 0.89355 0.0
Zn373 Zn 0.03018 0.52169 0.99523 0.0
O374 O 0.9994 0.59647 0.02507 0.0
C375 C 0.09537 0.54922 0.02814 0.0
O376 O 0.01389 0.57248 0.97522 0.0
H377 H 0.01306 0.46266 0.94681 0.0
H378 H 0.0405 0.60112 0.09543 0.0
H379 H 0.07346 0.54924 0.93983 0.0
O380 O 0.07169 0.55869 0.05116 0.0
O381 O 0.08522 0.53316 1.00204 0.0
H382 H 0.97071 0.5211 0.10105 0.0
O383 O 0.04584 0.47076 0.01615 0.0
O384 O 0.0333 0.49649 0.0654 0.0
O385 O 0.97537 0.51031 0.98859 0.0
O386 O 0.96069 0.53351 0.03882 0.0
C387 C 0.0444 0.46937 0.04896 0.0
H388 H 0.04256 0.60461 0.15885 0.0
H389 H 0.96958 0.52423 0.16376 0.0
H390 H 0.02581 0.44897 0.88542 0.0
H391 H 0.08769 0.53725 0.87927 0.0
H392 H 0.10835 0.06916 0.30765 0.0
H393 H 0.06884 0.17128 0.34125 0.0
H394 H 0.04484 0.14808 0.39409 0.0
H395 H 0.03564 0.09916 0.43147 0.0
H396 H 0.07268 0.99649 0.39795 0.0
H397 H 0.09712 0.01945 0.34475 0.0
C398 C 0.09445 0.0863 0.32654 0.0
C399 C 0.09031 0.12201 0.3202 0.0
C400 C 0.08035 0.07268 0.35706 0.0
C401 C 0.07198 0.14374 0.345 0.0
C402 C 0.05843 0.13049 0.37543 0.0
C403 C 0.04911 0.08171 0.41259 0.0
C404 C 0.05247 0.04607 0.41895 0.0
C405 C 0.06254 0.09506 0.38182 0.0
C406 C 0.06969 0.02399 0.39387 0.0
C407 C 0.0837 0.03714 0.3634 0.0
H408 H 0.3985 0.96171 0.82091 0.0
H409 H 0.43435 0.85762 0.85131 0.0
H410 H 0.45547 0.87782 0.907 0.0
H411 H 0.46555 0.92537 0.94657 0.0
H412 H 0.43235 0.02961 0.91464 0.0
H413 H 0.40814 1.00909 0.86047 0.0
C414 C 0.41054 0.9434 0.83988 0.0
C415 C 0.41465 0.90813 0.8319 0.0
C416 C 0.42319 0.95528 0.87168 0.0
C417 C 0.43099 0.88488 0.85662 0.0
C418 C 0.443 0.89643 0.88855 0.0
C419 C 0.45271 0.94359 0.9279 0.0
C420 C 0.45072 0.97905 0.93486 0.0
C421 C 0.4395 0.93161 0.89631 0.0
C422 C 0.43435 1.00223 0.91007 0.0
C423 C 0.42048 0.9905 0.87901 0.0
H424 H 0.66717 0.44083 0.78584 0.0
H425 H 0.55895 0.43454 0.83004 0.0
H426 H 0.53034 0.44277 0.7731 0.0
H427 H 0.53596 0.45313 0.71083 0.0
H428 H 0.64394 0.46061 0.66691 0.0
H429 H 0.67297 0.4497 0.72351 0.0
C430 C 0.63736 0.44104 0.78293 0.0
C431 C 0.61519 0.43734 0.81207 0.0
C432 C 0.62113 0.44567 0.75015 0.0
C433 C 0.57655 0.43798 0.80803 0.0
C434 C 0.56019 0.44237 0.77547 0.0
C435 C 0.56587 0.45177 0.7137 0.0
C436 C 0.58791 0.45742 0.68501 0.0
C437 C 0.58219 0.44633 0.74638 0.0
C438 C 0.62657 0.45627 0.68887 0.0
C439 C 0.64311 0.45018 0.72114 0.0
H440 H 0.99738 0.57945 0.32696 0.0
H441 H 0.99857 0.46959 0.32004 0.0
H442 H 0.01389 0.47201 0.25858 0.0
H443 H 0.01652 0.50637 0.20586 0.0
H444 H 0.00767 0.61683 0.21239 0.0
H445 H 0.00661 0.61323 0.27531 0.0
C446 C 1.00245 0.55588 0.31232 0.0
C447 C 0.99711 0.52432 0.32789 0.0
C448 C 0.00905 0.55776 0.27686 0.0
C449 C 1.00282 0.49407 0.3085 0.0
C450 C 0.01114 0.49555 0.27338 0.0
C451 C 0.0144 0.52968 0.22107 0.0
C452 C 0.01123 0.56188 0.2045 0.0
C453 C 0.01248 0.52742 0.25706 0.0
C454 C 0.0099 0.59178 0.2245 0.0
C455 C 0.00913 0.58972 0.26046 0.0
H456 H 0.29184 0.0787 0.14575 0.0
H457 H 0.30232 0.17617 0.09679 0.0
H458 H 0.35601 0.15095 0.06453 0.0
H459 H 0.40149 0.10185 0.05154 0.0
H460 H 0.39139 1.00413 0.10019 0.0
H461 H 0.33603 0.02867 0.13075 0.0
C462 C 0.30558 0.0943 0.1277 0.0
C463 C 0.29313 0.12941 0.12404 0.0
C464 C 0.33668 0.07961 0.10916 0.0
C465 C 0.31159 0.14926 0.10067 0.0
C466 C 0.34226 0.13482 0.08205 0.0
C467 C 0.38711 0.08581 0.06867 0.0
C468 C 0.40081 0.05117 0.07357 0.0
C469 C 0.35534 0.10013 0.08636 0.0
C470 C 0.38163 0.03087 0.0959 0.0
C471 C 0.34992 0.04491 0.11346 0.0
H472 H 0.23679 0.9678 0.60739 0.0
H473 H 0.19982 0.86875 0.62959 0.0
H474 H 0.14168 0.88563 0.59959 0.0
H475 H 0.10019 0.92894 0.56792 0.0
H476 H 0.13431 0.02984 0.55171 0.0
H477 H 0.19417 0.012 0.57913 0.0
C478 C 0.21595 0.94993 0.60639 0.0
C479 C 0.22342 0.91678 0.62082 0.0
C480 C 0.18177 0.96019 0.59008 0.0
C481 C 0.19578 0.8941 0.61821 0.0
C482 C 0.16215 0.90384 0.60124 0.0
C483 C 0.12086 0.94692 0.57024 0.0
C484 C 0.11298 0.98057 0.55751 0.0
C485 C 0.15482 0.9368 0.58703 0.0
C486 C 0.13974 1.00379 0.56125 0.0
C487 C 0.17397 0.99359 0.57693 0.0
H488 H 0.79537 0.47959 0.96346 0.0
H489 H 0.77692 0.47746 0.07317 0.0
H490 H 0.8385 0.49657 0.08343 0.0
H491 H 0.8988 0.51101 0.06069 0.0
H492 H 0.91744 0.50837 0.9507 0.0
H493 H 0.85441 0.49412 0.94096 0.0
C494 C 0.80456 0.48399 0.9896 0.0
C495 C 0.7816 0.47777 0.01753 0.0
C496 C 0.84011 0.49378 0.99517 0.0
C497 C 0.79416 0.48246 0.05133 0.0
C498 C 0.82931 0.49324 0.05713 0.0
C499 C 0.88887 0.50754 0.03463 0.0
C500 C 0.9127 0.51071 1.00644 0.0
C501 C 0.85273 0.49854 0.02921 0.0
C502 C 0.8997 0.50584 0.97281 0.0
C503 C 0.86365 0.49779 0.9672 0.0
H504 H 0.72591 0.5883 0.4577 0.0
H505 H 0.76854 0.50934 0.52923 0.0
H506 H 0.70506 0.49715 0.54261 0.0
H507 H 0.63793 0.50871 0.53312 0.0
H508 H 0.5958 0.58607 0.45939 0.0
H509 H 0.65898 0.59933 0.44764 0.0
C510 C 0.72119 0.5687 0.47653 0.0
C511 C 0.75153 0.55001 0.49292 0.0
C512 C 0.68495 0.56154 0.48347 0.0
C513 C 0.74539 0.52408 0.51656 0.0
C514 C 0.70923 0.51717 0.52413 0.0
C515 C 0.64254 0.52856 0.51455 0.0
C516 C 0.61228 0.5465 0.4972 0.0
C517 C 0.67886 0.53569 0.50762 0.0
C518 C 0.61868 0.57189 0.47299 0.0
C519 C 0.65473 0.57951 0.46633 0.0
H520 H 0.09905 0.3536 0.15681 0.0
H521 H 0.08474 0.28798 0.06956 0.0
H522 H 0.06594 0.33826 0.03379 0.0
H523 H 0.05283 0.40168 0.02718 0.0
H524 H 0.06379 0.46557 0.11647 0.0
H525 H 0.08373 0.41535 0.15121 0.0
C526 C 0.09119 0.34996 0.13018 0.0
C527 C 0.09345 0.31659 0.11627 0.0
C528 C 0.07967 0.37898 0.10982 0.0
C529 C 0.08394 0.31311 0.08121 0.0
C530 C 0.0729 0.34197 0.06064 0.0
C531 C 0.05966 0.40455 0.0542 0.0
C532 C 0.05678 0.43759 0.06898 0.0
C533 C 0.07072 0.37516 0.0746 0.0
C534 C 0.06553 0.44064 0.10421 0.0
C535 C 0.07704 0.41184 0.12426 0.0
H536 H 0.59122 0.28887 0.03538 0.0
H537 H 0.50131 0.33168 0.97007 0.0
H538 H 0.47661 0.27606 0.96801 0.0
H539 H 0.48734 0.2134 0.97649 0.0
H540 H 0.57627 0.17202 0.04387 0.0
H541 H 0.5945 0.22913 0.05324 0.0
C542 C 0.56537 0.28658 0.02182 0.0
C543 C 0.54869 0.31423 1.00223 0.0
C544 C 0.55177 0.25448 0.02019 0.0
C545 C 0.51521 0.31054 0.98476 0.0
C546 C 0.50118 0.27869 0.98338 0.0
C547 C 0.51023 0.21692 0.99375 0.0
C548 C 0.53133 0.18822 1.00823 0.0
C549 C 0.52039 0.25007 0.99954 0.0
C550 C 0.5606 0.19342 0.03098 0.0
C551 C 0.57082 0.22616 0.03677 0.0
H552 H 0.98229 0.72167 0.4173 0.0
H553 H 0.92104 0.71885 0.51248 0.0
H554 H 0.93723 0.77582 0.52727 0.0
H555 H 0.96383 0.82822 0.51083 0.0
H556 H 0.02129 0.83306 0.41389 0.0
H557 H 0.01156 0.77336 0.40208 0.0
C558 C 0.97249 0.73353 0.44128 0.0
C559 C 0.9502 0.71618 0.46358 0.0
C560 C 0.98097 0.76668 0.44916 0.0
C561 C 0.93849 0.7315 0.49498 0.0
C562 C 0.94743 0.76421 0.50332 0.0
C563 C 0.97413 0.81622 0.48706 0.0
C564 C 0.99269 0.83508 0.46299 0.0
C565 C 0.96783 0.78231 0.4802 0.0
C566 C 0.00688 0.819 0.43279 0.0
C567 C 1.00116 0.78498 0.42596 0.0
H568 H 0.45506 0.70998 0.65533 0.0
H569 H 0.39967 0.75466 0.5647 0.0
H570 H 0.41681 0.7021 0.53252 0.0
H571 H 0.44775 0.64334 0.5296 0.0
H572 H 0.50256 0.59792 0.62018 0.0
H573 H 0.48535 0.6505 0.65262 0.0
C574 C 0.44647 0.70812 0.62864 0.0
C575 C 0.42633 0.73655 0.61251 0.0
C576 C 0.45644 0.67758 0.61009 0.0
C577 C 0.41574 0.73357 0.57773 0.0
C578 C 0.42539 0.70338 0.55927 0.0
C579 C 0.45604 0.64491 0.55642 0.0
C580 C 0.47654 0.61656 0.57227 0.0
C581 C 0.44591 0.67526 0.57507 0.0
C582 C 0.48681 0.61921 0.60717 0.0
C583 C 0.47694 0.64934 0.62582 0.0
H584 H 0.90606 0.91173 0.69676 0.0
H585 H 0.95995 0.98325 0.75869 0.0
H586 H 0.97974 0.01139 0.70662 0.0
H587 H 0.98353 0.01489 0.64303 0.0
H588 H 0.9322 0.94153 0.58119 0.0
H589 H 0.90949 0.91544 0.63319 0.0
C590 C 0.9219 0.93362 0.69884 0.0
C591 C 0.9316 0.94516 0.73174 0.0
C592 C 0.93371 0.94952 0.66861 0.0
C593 C 0.95247 0.97345 0.7338 0.0
C594 C 0.96368 0.98972 0.70397 0.0
C595 C 0.96705 0.99343 0.64094 0.0
C596 C 0.95953 0.98037 0.6081 0.0
C597 C 0.95472 0.97788 0.67117 0.0
C598 C 0.93851 0.95218 0.60603 0.0
C599 C 0.92549 0.93716 0.63583 0.0
H600 H 0.61325 0.12779 0.18981 0.0
H601 H 0.56247 0.06622 0.2648 0.0
H602 H 0.541 0.03064 0.21843 0.0
H603 H 0.53394 0.01877 0.15562 0.0
H604 H 0.58419 0.08237 0.0819 0.0
H605 H 0.60828 0.11509 0.12847 0.0
C606 C 0.5972 0.10679 0.19612 0.0
C607 C 0.58918 0.10011 0.23089 0.0
C608 C 0.58482 0.08656 0.16936 0.0
C609 C 0.56918 0.07206 0.23837 0.0
C610 C 0.55677 0.05171 0.21179 0.0
C611 C 0.55064 0.03944 0.14984 0.0
C612 C 0.55712 0.04798 0.11513 0.0
C613 C 0.56416 0.05885 0.17705 0.0
C614 C 0.57855 0.07517 0.10822 0.0
C615 C 0.59235 0.09406 0.13491 0.0
H616 H 0.48621 0.58158 0.22102 0.0
H617 H 0.37434 0.55331 0.21978 0.0
H618 H 0.37254 0.555 0.28279 0.0
H619 H 0.40373 0.56214 0.33817 0.0
H620 H 0.51634 0.58875 0.33937 0.0
H621 H 0.51659 0.59085 0.27648 0.0
C622 C 0.46154 0.57565 0.23463 0.0
C623 C 0.43058 0.56708 0.21592 0.0
C624 C 0.46071 0.57669 0.27078 0.0
C625 C 0.39848 0.56009 0.23371 0.0
C626 C 0.39746 0.56098 0.26969 0.0
C627 C 0.42828 0.56849 0.32465 0.0
C628 C 0.45996 0.57518 0.34345 0.0
C629 C 0.42853 0.56895 0.28848 0.0
C630 C 0.49138 0.58393 0.32558 0.0
C631 C 0.49171 0.58476 0.28958 0.0
H632 H 0.11211 0.47529 0.72397 0.0
H633 H 0.99679 0.46177 0.70781 0.0
H634 H 0.98474 0.47013 0.76957 0.0
H635 H 0.00778 0.47962 0.82831 0.0
H636 H 0.12365 0.49166 0.84389 0.0
H637 H 0.13485 0.48547 0.78204 0.0
C638 C 0.08419 0.47492 0.73389 0.0
C639 C 0.05526 0.46836 0.71152 0.0
C640 C 0.07776 0.47896 0.76928 0.0
C641 C 0.01939 0.46699 0.72471 0.0
C642 C 0.01258 0.47157 0.75994 0.0
C643 C 0.03551 0.48049 0.81811 0.0
C644 C 0.06489 0.48594 0.84048 0.0
C645 C 0.0417 0.47707 0.78253 0.0
C646 C 0.10061 0.48762 0.82703 0.0
C647 C 0.10701 0.48413 0.79174 0.0
H648 H 0.71992 0.90338 0.94515 0.0
H649 H 0.72266 0.995 0.88375 0.0
H650 H 0.6636 0.01886 0.9084 0.0
H651 H 0.61164 0.01441 0.94845 0.0
H652 H 0.60895 0.9227 1.00988 0.0
H653 H 0.66713 0.8983 0.9841 0.0
C654 C 0.70736 0.92837 0.93679 0.0
C655 C 0.72591 0.94733 0.91262 0.0
C656 C 0.67337 0.94209 0.95128 0.0
C657 C 0.70934 0.97993 0.90255 0.0
C658 C 0.67545 0.9936 0.9166 0.0
C659 C 0.62373 0.98907 0.95621 0.0
C660 C 0.6058 0.97056 0.98123 0.0
C661 C 0.65736 0.97507 0.94124 0.0
C662 C 0.62201 0.93768 0.9908 0.0
C663 C 0.65536 0.92362 0.97602 0.0
H664 H 0.78731 0.06761 0.40261 0.0
H665 H 0.79462 0.16735 0.44756 0.0
H666 H 0.85059 0.14533 0.47872 0.0
H667 H 0.89916 0.0986 0.49152 0.0
H668 H 0.89355 0.99925 0.44523 0.0
H669 H 0.83565 0.0204 0.41617 0.0
C670 C 0.80118 0.0846 0.41911 0.0
C671 C 0.78641 0.11914 0.4227 0.0
C672 C 0.8339 0.07188 0.43668 0.0
C673 C 0.80472 0.14054 0.44465 0.0
C674 C 0.83703 0.12803 0.46233 0.0
C675 C 0.88521 0.08145 0.47525 0.0
C676 C 0.90086 0.04736 0.47059 0.0
C677 C 0.85204 0.09385 0.45836 0.0
C678 C 0.88228 0.02562 0.4493 0.0
C679 C 0.84912 0.03771 0.43261 0.0
H680 H 0.25998 0.56598 0.07193 0.0
H681 H 0.279 0.54075 0.96482 0.0
H682 H 0.21217 0.53935 0.95579 0.0
H683 H 0.14903 0.54244 0.97928 0.0
H684 H 0.13013 0.56867 0.08638 0.0
H685 H 0.19641 0.57278 0.09451 0.0
C686 C 0.24938 0.56016 0.04664 0.0
C687 C 0.27417 0.553 0.01915 0.0
C688 C 0.21114 0.5596 0.0417 0.0
C689 C 0.26029 0.54623 0.98631 0.0
C690 C 0.2222 0.54535 0.98121 0.0
C691 C 0.15938 0.54925 1.00437 0.0
C692 C 0.13477 0.55492 0.03228 0.0
C693 C 0.19745 0.55158 1.00884 0.0
C694 C 0.14851 0.56414 0.0645 0.0
C695 C 0.1864 0.56636 0.0692 0.0
H696 H 0.28508 0.46318 0.59721 0.0
H697 H 0.24981 0.48218 0.49175 0.0
H698 H 0.3107 0.49981 0.47761 0.0
H699 H 0.37515 0.50626 0.49442 0.0
H700 H 0.41106 0.48292 0.59901 0.0
H701 H 0.34888 0.46953 0.61396 0.0
C702 C 0.29071 0.47088 0.57101 0.0
C703 C 0.26296 0.47099 0.54552 0.0
C704 C 0.32605 0.47977 0.56279 0.0
C705 C 0.2705 0.4821 0.51199 0.0
C706 C 0.30545 0.49185 0.50378 0.0
C707 C 0.36933 0.49832 0.5205 0.0
C708 C 0.39772 0.49545 0.54553 0.0
C709 C 0.3336 0.49024 0.52886 0.0
C710 C 0.38978 0.48508 0.57919 0.0
C711 C 0.35421 0.47755 0.58781 0.0
H712 H 0.94844 0.72199 0.89111 0.0
H713 H 0.92655 0.774 0.98812 0.0
H714 H 0.94935 0.72209 0.01937 0.0
H715 H 0.97541 0.66138 0.01972 0.0
H716 H 0.99935 0.60998 0.92275 0.0
H717 H 0.97664 0.662 0.89143 0.0
C718 C 0.94895 0.72218 0.91907 0.0
C719 C 0.93515 0.75212 0.93696 0.0
C720 C 0.96269 0.69214 0.93716 0.0
C721 C 0.93596 0.75137 0.97335 0.0
C722 C 0.94937 0.72164 0.99141 0.0
C723 C 0.97581 0.66156 0.99174 0.0
C724 C 0.98912 0.63156 0.97381 0.0
C725 C 0.96268 0.69178 0.97365 0.0
C726 C 0.98936 0.63252 0.93745 0.0
C727 C 0.97628 0.66235 0.91939 0.0
H728 H 0.43819 0.7232 0.09191 0.0
H729 H 0.52223 0.70174 0.01402 0.0
H730 H 0.53869 0.76049 0.01832 0.0
H731 H 0.526 0.81909 0.0412 0.0
H732 H 0.43912 0.84116 0.11604 0.0
H733 H 0.42674 0.78096 0.11589 0.0
C734 C 0.4599 0.73142 0.07562 0.0
C735 C 0.47863 0.70822 0.05236 0.0
C736 C 0.4687 0.7653 0.07775 0.0
C737 C 0.50743 0.71904 0.0322 0.0
C738 C 0.51676 0.75266 0.03454 0.0
C739 C 0.50489 0.81045 0.05793 0.0
C740 C 0.48359 0.83422 0.07875 0.0
C741 C 0.49726 0.77611 0.05691 0.0
C742 C 0.45581 0.82311 0.09988 0.0
C743 C 0.44868 0.78882 0.09969 0.0
H744 H 1.00053 0.31601 0.49907 0.0
H745 H 0.1191 0.29901 0.51558 0.0
H746 H 0.11436 0.23953 0.52933 0.0
H747 H 0.07685 0.19391 0.54217 0.0
H748 H 0.95914 0.20683 0.52062 0.0
H749 H 0.96305 0.26695 0.506 0.0
C750 C 0.02535 0.29904 0.50494 0.0
C751 C 0.06008 0.31214 0.5059 0.0
C752 C 0.02253 0.26449 0.51341 0.0
C753 C 0.09203 0.28976 0.51369 0.0
C754 C 0.08936 0.25572 0.52229 0.0
C755 C 0.052 0.20934 0.53345 0.0
C756 C 0.01783 0.19539 0.53242 0.0
C757 C 0.05473 0.24309 0.52303 0.0
C758 C 0.98585 0.21674 0.52241 0.0
C759 C 0.98812 0.25108 0.51342 0.0
H760 H 0.56562 0.34243 0.37659 0.0
H761 H 0.59577 0.28285 0.46796 0.0
H762 H 0.57435 0.33199 0.50422 0.0
H763 H 0.54957 0.39325 0.50994 0.0
H764 H 0.51953 0.45185 0.41769 0.0
H765 H 0.53859 0.40211 0.38221 0.0
C766 C 0.56754 0.34014 0.40445 0.0
C767 C 0.58252 0.3089 0.4194 0.0
C768 C 0.55534 0.36857 0.42515 0.0
C769 C 0.58411 0.30639 0.45563 0.0
C770 C 0.57209 0.33463 0.47643 0.0
C771 C 0.54705 0.39509 0.4821 0.0
C772 C 0.53324 0.42656 0.4667 0.0
C773 C 0.55802 0.36605 0.46149 0.0
C774 C 0.53007 0.42821 0.43048 0.0
C775 C 0.54101 0.39968 0.41001 0.0
loop_
_geom_bond_atom_site_label_1
_geom_bond_atom_site_label_2
_geom_bond_distance
_geom_bond_site_symmetry_2
_ccdc_geom_bond_type
P0 O11 1.490 . S
P0 C14 1.812 . S
P0 C20 1.803 . S
P0 C26 1.819 . S
H1 C15 0.941 . S
H2 C16 0.939 . S
H3 C18 0.940 . S
H4 C19 0.940 . S
H5 C21 0.939 . S
H6 C22 0.942 . S
H7 C24 0.940 . S
H8 C25 0.939 . S
H9 C27 0.941 . S
H10 C31 0.939 . S
O11 P0 1.490 . S
H12 C28 0.939 . S
H13 C30 0.940 . S
C14 P0 1.812 . S
C14 C15 1.389 . S
C14 C19 1.391 . S
C15 H1 0.941 . S
C15 C14 1.389 . S
C15 C16 1.397 . S
C16 H2 0.939 . S
C16 C15 1.397 . S
C16 C17 1.378 . S
C17 C16 1.378 . S
C17 C18 1.378 . S
C18 H3 0.940 . S
C18 C17 1.378 . S
C18 C19 1.396 . S
C19 H4 0.940 . S
C19 C14 1.391 . S
C19 C18 1.396 . S
C20 P0 1.803 . S
C20 C21 1.378 . S
C20 C25 1.400 . S
C21 H5 0.939 . S
C21 C20 1.378 . S
C21 C22 1.361 . S
C22 H6 0.942 . S
C22 C21 1.361 . S
C22 C23 1.369 . S
C23 C22 1.369 . S
C23 C24 1.404 . S
C24 H7 0.940 . S
C24 C23 1.404 . S
C24 C25 1.389 . S
C25 H8 0.939 . S
C25 C20 1.400 . S
C25 C24 1.389 . S
C26 P0 1.819 . S
C26 C27 1.391 . S
C26 C31 1.391 . S
C27 H9 0.941 . S
C27 C26 1.391 . S
C27 C28 1.396 . S
C28 H12 0.939 . S
C28 C27 1.396 . S
C28 C29 1.397 . S
C29 C28 1.397 . S
C29 C30 1.385 . S
C30 H13 0.940 . S
C30 C29 1.385 . S
C30 C31 1.388 . S
C31 H10 0.939 . S
C31 C26 1.391 . S
C31 C30 1.388 . S
P32 O43 1.490 . S
P32 C46 1.812 . S
P32 C52 1.803 . S
P32 C58 1.819 . S
H33 C47 0.941 . S
H34 C48 0.939 . S
H35 C50 0.940 . S
H36 C51 0.940 . S
H37 C53 0.939 . S
H38 C54 0.942 . S
H39 C56 0.940 . S
H40 C57 0.939 . S
H41 C59 0.941 . S
H42 C63 0.939 . S
O43 P32 1.490 . S
H44 C60 0.939 . S
H45 C62 0.940 . S
C46 P32 1.812 . S
C46 C47 1.389 . S
C46 C51 1.391 . S
C47 H33 0.941 . S
C47 C46 1.389 . S
C47 C48 1.397 . S
C48 H34 0.939 . S
C48 C47 1.397 . S
C48 C49 1.378 . S
C49 C48 1.378 . S
C49 C50 1.378 . S
C50 H35 0.940 . S
C50 C49 1.378 . S
C50 C51 1.396 . S
C51 H36 0.940 . S
C51 C46 1.391 . S
C51 C50 1.396 . S
C52 P32 1.803 . S
C52 C53 1.378 . S
C52 C57 1.400 . S
C53 H37 0.939 . S
C53 C52 1.378 . S
C53 C54 1.361 . S
C54 H38 0.942 . S
C54 C53 1.361 . S
C54 C55 1.369 . S
C55 C54 1.369 . S
C55 C56 1.404 . S
C56 H39 0.940 . S
C56 C55 1.404 . S
C56 C57 1.389 . S
C57 H40 0.939 . S
C57 C52 1.400 . S
C57 C56 1.389 . S
C58 P32 1.819 . S
C58 C59 1.391 . S
C58 C63 1.391 . S
C59 H41 0.941 . S
C59 C58 1.391 . S
C59 C60 1.396 . S
C60 H44 0.939 . S
C60 C59 1.396 . S
C60 C61 1.397 . S
C61 C60 1.397 . S
C61 C62 1.385 . S
C62 H45 0.940 . S
C62 C61 1.385 . S
C62 C63 1.388 . S
C63 H42 0.939 . S
C63 C58 1.391 . S
C63 C62 1.388 . S
P64 O75 1.490 . S
P64 C78 1.812 . S
P64 C84 1.803 . S
P64 C90 1.819 . S
H65 C79 0.941 . S
H66 C80 0.939 . S
H67 C82 0.940 . S
H68 C83 0.940 . S
H69 C85 0.939 . S
H70 C86 0.942 . S
H71 C88 0.940 . S
H72 C89 0.939 . S
H73 C91 0.941 . S
H74 C95 0.939 . S
O75 P64 1.490 . S
H76 C92 0.939 . S
H77 C94 0.940 . S
C78 P64 1.812 . S
C78 C79 1.389 . S
C78 C83 1.391 . S
C79 H65 0.941 . S
C79 C78 1.389 . S
C79 C80 1.397 . S
C80 H66 0.939 . S
C80 C79 1.397 . S
C80 C81 1.378 . S
C81 C80 1.378 . S
C81 C82 1.378 . S
C82 H67 0.940 . S
C82 C81 1.378 . S
C82 C83 1.396 . S
C83 H68 0.940 . S
C83 C78 1.391 . S
C83 C82 1.396 . S
C84 P64 1.803 . S
C84 C85 1.378 . S
C84 C89 1.400 . S
C85 H69 0.939 . S
C85 C84 1.378 . S
C85 C86 1.361 . S
C86 H70 0.942 . S
C86 C85 1.361 . S
C86 C87 1.369 . S
C87 C86 1.369 . S
C87 C88 1.404 . S
C88 H71 0.940 . S
C88 C87 1.404 . S
C88 C89 1.389 . S
C89 H72 0.939 . S
C89 C84 1.400 . S
C89 C88 1.389 . S
C90 P64 1.819 . S
C90 C91 1.391 . S
C90 C95 1.391 . S
C91 H73 0.941 . S
C91 C90 1.391 . S
C91 C92 1.396 . S
C92 H76 0.939 . S
C92 C91 1.396 . S
C92 C93 1.397 . S
C93 C92 1.397 . S
C93 C94 1.385 . S
C94 H77 0.940 . S
C94 C93 1.385 . S
C94 C95 1.388 . S
C95 H74 0.939 . S
C95 C90 1.391 . S
C95 C94 1.388 . S
P96 O107 1.490 . S
P96 C110 1.812 . S
P96 C116 1.803 . S
P96 C122 1.819 . S
H97 C111 0.941 . S
H98 C112 0.939 . S
H99 C114 0.940 . S
H100 C115 0.940 . S
H101 C117 0.939 . S
H102 C118 0.942 . S
H103 C120 0.940 . S
H104 C121 0.939 . S
H105 C123 0.941 . S
H106 C127 0.939 . S
O107 P96 1.490 . S
H108 C124 0.939 . S
H109 C126 0.940 . S
C110 P96 1.812 . S
C110 C111 1.389 . S
C110 C115 1.391 . S
C111 H97 0.941 . S
C111 C110 1.389 . S
C111 C112 1.397 . S
C112 H98 0.939 . S
C112 C111 1.397 . S
C112 C113 1.378 . S
C113 C112 1.378 . S
C113 C114 1.378 . S
C114 H99 0.940 . S
C114 C113 1.378 . S
C114 C115 1.396 . S
C115 H100 0.940 . S
C115 C110 1.391 . S
C115 C114 1.396 . S
C116 P96 1.803 . S
C116 C117 1.378 . S
C116 C121 1.400 . S
C117 H101 0.939 . S
C117 C116 1.378 . S
C117 C118 1.361 . S
C118 H102 0.942 . S
C118 C117 1.361 . S
C118 C119 1.369 . S
C119 C118 1.369 . S
C119 C120 1.404 . S
C120 H103 0.940 . S
C120 C119 1.404 . S
C120 C121 1.389 . S
C121 H104 0.939 . S
C121 C116 1.400 . S
C121 C120 1.389 . S
C122 P96 1.819 . S
C122 C123 1.391 . S
C122 C127 1.391 . S
C123 H105 0.941 . S
C123 C122 1.391 . S
C123 C124 1.396 . S
C124 H108 0.939 . S
C124 C123 1.396 . S
C124 C125 1.397 . S
C125 C124 1.397 . S
C125 C126 1.385 . S
C126 H109 0.940 . S
C126 C125 1.385 . S
C126 C127 1.388 . S
C127 H106 0.939 . S
C127 C122 1.391 . S
C127 C126 1.388 . S
P128 O139 1.490 . S
P128 C142 1.812 . S
P128 C148 1.803 . S
P128 C154 1.819 . S
H129 C143 0.941 . S
H130 C144 0.939 . S
H131 C146 0.940 . S
H132 C147 0.940 . S
H133 C149 0.939 . S
H134 C150 0.942 . S
H135 C152 0.940 . S
H136 C153 0.939 . S
H137 C155 0.941 . S
H138 C159 0.939 . S
O139 P128 1.490 . S
H140 C156 0.939 . S
H141 C158 0.940 . S
C142 P128 1.812 . S
C142 C143 1.389 . S
C142 C147 1.391 . S
C143 H129 0.941 . S
C143 C142 1.389 . S
C143 C144 1.397 . S
C144 H130 0.939 . S
C144 C143 1.397 . S
C144 C145 1.378 . S
C145 C144 1.378 . S
C145 C146 1.378 . S
C146 H131 0.940 . S
C146 C145 1.378 . S
C146 C147 1.396 . S
C147 H132 0.940 . S
C147 C142 1.391 . S
C147 C146 1.396 . S
C148 P128 1.803 . S
C148 C149 1.378 . S
C148 C153 1.400 . S
C149 H133 0.939 . S
C149 C148 1.378 . S
C149 C150 1.361 . S
C150 H134 0.942 . S
C150 C149 1.361 . S
C150 C151 1.369 . S
C151 C150 1.369 . S
C151 C152 1.404 . S
C152 H135 0.940 . S
C152 C151 1.404 . S
C152 C153 1.389 . S
C153 H136 0.939 . S
C153 C148 1.400 . S
C153 C152 1.389 . S
C154 P128 1.819 . S
C154 C155 1.391 . S
C154 C159 1.391 . S
C155 H137 0.941 . S
C155 C154 1.391 . S
C155 C156 1.396 . S
C156 H140 0.939 . S
C156 C155 1.396 . S
C156 C157 1.397 . S
C157 C156 1.397 . S
C157 C158 1.385 . S
C158 H141 0.940 . S
C158 C157 1.385 . S
C158 C159 1.388 . S
C159 H138 0.939 . S
C159 C154 1.391 . S
C159 C158 1.388 . S
P160 O171 1.490 . S
P160 C174 1.812 . S
P160 C180 1.803 . S
P160 C186 1.819 . S
H161 C175 0.941 . S
H162 C176 0.939 . S
H163 C178 0.940 . S
H164 C179 0.940 . S
H165 C181 0.939 . S
H166 C182 0.942 . S
H167 C184 0.940 . S
H168 C185 0.939 . S
H169 C187 0.941 . S
H170 C191 0.939 . S
O171 P160 1.490 . S
H172 C188 0.939 . S
H173 C190 0.940 . S
C174 P160 1.812 . S
C174 C175 1.389 . S
C174 C179 1.391 . S
C175 H161 0.941 . S
C175 C174 1.389 . S
C175 C176 1.397 . S
C176 H162 0.939 . S
C176 C175 1.397 . S
C176 C177 1.378 . S
C177 C176 1.378 . S
C177 C178 1.378 . S
C178 H163 0.940 . S
C178 C177 1.378 . S
C178 C179 1.396 . S
C179 H164 0.940 . S
C179 C174 1.391 . S
C179 C178 1.396 . S
C180 P160 1.803 . S
C180 C181 1.378 . S
C180 C185 1.400 . S
C181 H165 0.939 . S
C181 C180 1.378 . S
C181 C182 1.361 . S
C182 H166 0.942 . S
C182 C181 1.361 . S
C182 C183 1.369 . S
C183 C182 1.369 . S
C183 C184 1.404 . S
C184 H167 0.940 . S
C184 C183 1.404 . S
C184 C185 1.389 . S
C185 H168 0.939 . S
C185 C180 1.400 . S
C185 C184 1.389 . S
C186 P160 1.819 . S
C186 C187 1.391 . S
C186 C191 1.391 . S
C187 H169 0.941 . S
C187 C186 1.391 . S
C187 C188 1.396 . S
C188 H172 0.939 . S
C188 C187 1.396 . S
C188 C189 1.397 . S
C189 C188 1.397 . S
C189 C190 1.385 . S
C190 H173 0.940 . S
C190 C189 1.385 . S
C190 C191 1.388 . S
C191 H170 0.939 . S
C191 C186 1.391 . S
C191 C190 1.388 . S
P192 O203 1.490 . S
P192 C206 1.812 . S
P192 C212 1.803 . S
P192 C218 1.819 . S
H193 C207 0.941 . S
H194 C208 0.939 . S
H195 C210 0.940 . S
H196 C211 0.940 . S
H197 C213 0.939 . S
H198 C214 0.942 . S
H199 C216 0.940 . S
H200 C217 0.939 . S
H201 C219 0.941 . S
H202 C223 0.939 . S
O203 P192 1.490 . S
H204 C220 0.939 . S
H205 C222 0.940 . S
C206 P192 1.812 . S
C206 C207 1.389 . S
C206 C211 1.391 . S
C207 H193 0.941 . S
C207 C206 1.389 . S
C207 C208 1.397 . S
C208 H194 0.939 . S
C208 C207 1.397 . S
C208 C209 1.378 . S
C209 C208 1.378 . S
C209 C210 1.378 . S
C210 H195 0.940 . S
C210 C209 1.378 . S
C210 C211 1.396 . S
C211 H196 0.940 . S
C211 C206 1.391 . S
C211 C210 1.396 . S
C212 P192 1.803 . S
C212 C213 1.378 . S
C212 C217 1.400 . S
C213 H197 0.939 . S
C213 C212 1.378 . S
C213 C214 1.361 . S
C214 H198 0.942 . S
C214 C213 1.361 . S
C214 C215 1.369 . S
C215 C214 1.369 . S
C215 C216 1.404 . S
C216 H199 0.940 . S
C216 C215 1.404 . S
C216 C217 1.389 . S
C217 H200 0.939 . S
C217 C212 1.400 . S
C217 C216 1.389 . S
C218 P192 1.819 . S
C218 C219 1.391 . S
C218 C223 1.391 . S
C219 H201 0.941 . S
C219 C218 1.391 . S
C219 C220 1.396 . S
C220 H204 0.939 . S
C220 C219 1.396 . S
C220 C221 1.397 . S
C221 C220 1.397 . S
C221 C222 1.385 . S
C222 H205 0.940 . S
C222 C221 1.385 . S
C222 C223 1.388 . S
C223 H202 0.939 . S
C223 C218 1.391 . S
C223 C222 1.388 . S
P224 O235 1.490 . S
P224 C238 1.812 . S
P224 C244 1.803 . S
P224 C250 1.819 . S
H225 C239 0.941 . S
H226 C240 0.939 . S
H227 C242 0.940 . S
H228 C243 0.940 . S
H229 C245 0.939 . S
H230 C246 0.942 . S
H231 C248 0.940 . S
H232 C249 0.939 . S
H233 C251 0.941 . S
H234 C255 0.939 . S
O235 P224 1.490 . S
H236 C252 0.939 . S
H237 C254 0.940 . S
C238 P224 1.812 . S
C238 C239 1.389 . S
C238 C243 1.391 . S
C239 H225 0.941 . S
C239 C238 1.389 . S
C239 C240 1.397 . S
C240 H226 0.939 . S
C240 C239 1.397 . S
C240 C241 1.378 . S
C241 C240 1.378 . S
C241 C242 1.378 . S
C242 H227 0.940 . S
C242 C241 1.378 . S
C242 C243 1.396 . S
C243 H228 0.940 . S
C243 C238 1.391 . S
C243 C242 1.396 . S
C244 P224 1.803 . S
C244 C245 1.378 . S
C244 C249 1.400 . S
C245 H229 0.939 . S
C245 C244 1.378 . S
C245 C246 1.361 . S
C246 H230 0.942 . S
C246 C245 1.361 . S
C246 C247 1.369 . S
C247 C246 1.369 . S
C247 C248 1.404 . S
C248 H231 0.940 . S
C248 C247 1.404 . S
C248 C249 1.389 . S
C249 H232 0.939 . S
C249 C244 1.400 . S
C249 C248 1.389 . S
C250 P224 1.819 . S
C250 C251 1.391 . S
C250 C255 1.391 . S
C251 H233 0.941 . S
C251 C250 1.391 . S
C251 C252 1.396 . S
C252 H236 0.939 . S
C252 C251 1.396 . S
C252 C253 1.397 . S
C253 C252 1.397 . S
C253 C254 1.385 . S
C254 H237 0.940 . S
C254 C253 1.385 . S
C254 C255 1.388 . S
C255 H234 0.939 . S
C255 C250 1.391 . S
C255 C254 1.388 . S
C256 O272 1.251 . S
C256 O274 1.254 1_545 S
N257 C258 1.333 . S
N257 C262 1.307 . S
N257 Zn263 2.020 . S
C258 N257 1.333 . S
C258 C259 1.379 . S
C258 H276 0.952 . S
C259 C258 1.379 . S
C259 C260 1.390 . S
C259 H286 0.949 . S
C260 C259 1.390 . S
C260 C261 1.357 . S
C261 C260 1.357 . S
C261 C262 1.370 . S
C261 H287 0.950 . S
C262 N257 1.307 . S
C262 C261 1.370 . S
C262 H280 0.948 1_455 S
Zn263 N257 2.020 . S
Zn263 O272 2.039 . S
Zn263 O278 2.034 . S
Zn263 O282 2.025 1_455 S
Zn263 O284 2.024 1_455 S
C264 O283 1.246 1_545 S
C264 O284 1.249 . S
N265 C266 1.307 . S
N265 C267 1.333 . S
N265 Zn271 2.020 . S
C266 N265 1.307 . S
C266 C270 1.370 . S
C266 H277 0.948 1_655 S
C267 N265 1.333 . S
C267 C268 1.379 . S
C267 H275 0.952 . S
C268 C267 1.379 . S
C268 C269 1.390 . S
C268 H288 0.949 . S
C269 C268 1.390 . S
C269 C270 1.357 . S
C270 C266 1.370 . S
C270 C269 1.357 . S
C270 H289 0.950 1_655 S
Zn271 N265 2.020 . S
Zn271 O274 2.025 1_655 S
Zn271 O279 2.024 1_655 S
Zn271 O281 2.039 . S
Zn271 O283 2.034 . S
O272 C256 1.251 . S
O272 Zn263 2.039 . S
C273 O278 1.246 1_565 S
C273 O279 1.249 . S
O274 C256 1.254 1_565 S
O274 Zn271 2.025 1_455 S
H275 C267 0.952 . S
H276 C258 0.952 . S
H277 C266 0.948 1_455 S
O278 Zn263 2.034 . S
O278 C273 1.246 1_545 S
O279 Zn271 2.024 1_455 S
O279 C273 1.249 . S
H280 C262 0.948 1_655 S
O281 Zn271 2.039 . S
O281 C285 1.251 . S
O282 Zn263 2.025 1_655 S
O282 C285 1.254 1_545 S
O283 C264 1.246 1_565 S
O283 Zn271 2.034 . S
O284 Zn263 2.024 1_655 S
O284 C264 1.249 . S
C285 O281 1.251 . S
C285 O282 1.254 1_565 S
H286 C259 0.949 . S
H287 C261 0.950 . S
H288 C268 0.949 . S
H289 C270 0.950 1_455 S
C290 O306 1.251 1_565 S
C290 O308 1.254 1_556 S
N291 C292 1.333 . S
N291 C296 1.307 . S
N291 Zn297 2.020 . S
C292 N291 1.333 . S
C292 C293 1.379 . S
C292 H310 0.952 . S
C293 C292 1.379 . S
C293 C294 1.390 . S
C293 H320 0.949 . S
C294 C293 1.390 . S
C294 C295 1.357 . S
C295 C294 1.357 . S
C295 C296 1.370 . S
C295 H321 0.950 . S
C296 N291 1.307 . S
C296 C295 1.370 . S
C296 H314 0.948 . S
Zn297 N291 2.020 . S
Zn297 O306 2.039 . S
Zn297 O312 2.034 1_556 S
Zn297 O316 2.025 1_556 S
Zn297 O318 2.024 . S
C298 O317 1.246 . S
C298 O318 1.249 1_565 S
N299 C300 1.307 . S
N299 C301 1.333 . S
N299 Zn305 2.020 . S
C300 N299 1.307 . S
C300 C304 1.370 . S
C300 H311 0.948 . S
C301 N299 1.333 . S
C301 C302 1.379 . S
C301 H309 0.952 . S
C302 C301 1.379 . S
C302 C303 1.390 . S
C302 H322 0.949 . S
C303 C302 1.390 . S
C303 C304 1.357 . S
C304 C300 1.370 . S
C304 C303 1.357 . S
C304 H323 0.950 . S
Zn305 N299 2.020 . S
Zn305 O308 2.025 . S
Zn305 O313 2.024 . S
Zn305 O315 2.055 . S
Zn305 O317 2.034 1_554 S
O306 C290 1.251 1_545 S
O306 Zn297 2.039 . S
C307 O312 1.246 . S
C307 O313 1.249 1_545 S
O308 C290 1.254 1_554 S
O308 Zn305 2.025 . S
H309 C301 0.952 . S
H310 C292 0.952 . S
H311 C300 0.948 . S
O312 Zn297 2.034 1_554 S
O312 C307 1.246 . S
O313 Zn305 2.024 . S
O313 C307 1.249 1_565 S
H314 C296 0.948 . S
O315 Zn305 2.055 . S
O315 C319 1.218 1_565 S
O316 Zn297 2.025 1_554 S
O316 C319 1.254 . S
O317 C298 1.246 . S
O317 Zn305 2.034 1_556 S
O318 Zn297 2.024 . S
O318 C298 1.249 1_545 S
C319 O315 1.218 1_545 S
C319 O316 1.254 . S
H320 C293 0.949 . S
H321 C295 0.950 . S
H322 C302 0.949 . S
H323 C304 0.950 . S
C324 O340 1.251 . S
C324 O342 1.254 . S
N325 C326 1.333 . S
N325 C330 1.307 . S
N325 Zn331 2.020 . S
C326 N325 1.333 . S
C326 C327 1.379 . S
C326 H344 0.952 . S
C327 C326 1.379 . S
C327 C328 1.390 . S
C327 H354 0.949 . S
C328 C327 1.390 . S
C328 C329 1.357 . S
C329 C328 1.357 . S
C329 C330 1.370 . S
C329 H355 0.950 . S
C330 N325 1.307 . S
C330 C329 1.370 . S
C330 H348 0.948 . S
Zn331 N325 2.020 . S
Zn331 O340 2.039 . S
Zn331 O346 2.034 . S
Zn331 O350 2.025 . S
Zn331 O352 2.024 . S
C332 O351 1.246 . S
C332 O352 1.249 . S
N333 C334 1.307 . S
N333 C335 1.333 . S
N333 Zn339 2.020 . S
C334 N333 1.307 . S
C334 C338 1.370 . S
C334 H345 0.948 . S
C335 N333 1.333 . S
C335 C336 1.379 . S
C335 H343 0.952 . S
C336 C335 1.379 . S
C336 C337 1.390 . S
C336 H356 0.949 . S
C337 C336 1.390 . S
C337 C338 1.357 . S
C338 C334 1.370 . S
C338 C337 1.357 . S
C338 H357 0.950 . S
Zn339 N333 2.020 . S
Zn339 O342 2.025 . S
Zn339 O347 2.024 . S
Zn339 O349 2.039 . S
Zn339 O351 2.034 . S
O340 C324 1.251 . S
O340 Zn331 2.039 . S
C341 O346 1.246 . S
C341 O347 1.249 . S
O342 C324 1.254 . S
O342 Zn339 2.025 . S
H343 C335 0.952 . S
H344 C326 0.952 . S
H345 C334 0.948 . S
O346 Zn331 2.034 . S
O346 C341 1.246 . S
O347 Zn339 2.024 . S
O347 C341 1.249 . S
H348 C330 0.948 . S
O349 Zn339 2.039 . S
O349 C353 1.251 . S
O350 Zn331 2.025 . S
O350 C353 1.254 . S
O351 C332 1.246 . S
O351 Zn339 2.034 . S
O352 Zn331 2.024 . S
O352 C332 1.249 . S
C353 O349 1.251 . S
C353 O350 1.254 . S
H354 C327 0.949 . S
H355 C329 0.950 . S
H356 C336 0.949 . S
H357 C338 0.950 . S
C358 O374 1.251 1_556 S
C358 O376 1.254 . S
N359 C360 1.333 . S
N359 C364 1.307 . S
N359 Zn365 2.020 . S
C360 N359 1.333 . S
C360 C361 1.379 . S
C360 H378 0.952 . S
C361 C360 1.379 . S
C361 C362 1.390 . S
C361 H388 0.949 . S
C362 C361 1.390 . S
C362 C363 1.357 . S
C363 C362 1.357 . S
C363 C364 1.370 . S
C363 H389 0.950 . S
C364 N359 1.307 . S
C364 C363 1.370 . S
C364 H382 0.948 . S
Zn365 N359 2.020 . S
Zn365 O374 2.039 . S
Zn365 O380 2.034 1_655 S
Zn365 O384 2.025 1_655 S
Zn365 O386 2.024 . S
C366 O385 1.246 . S
C366 O386 1.249 1_556 S
N367 C368 1.307 . S
N367 C369 1.333 . S
N367 Zn373 2.020 . S
C368 N367 1.307 . S
C368 C372 1.370 . S
C368 H379 0.948 . S
C369 N367 1.333 . S
C369 C370 1.379 . S
C369 H377 0.952 . S
C370 C369 1.379 . S
C370 C371 1.390 . S
C370 H390 0.949 . S
C371 C370 1.390 . S
C371 C372 1.357 . S
C372 C368 1.370 . S
C372 C371 1.357 . S
C372 H391 0.950 . S
Zn373 N367 2.020 . S
Zn373 O376 2.025 1_455 S
Zn373 O381 2.024 . S
Zn373 O383 2.039 . S
Zn373 O385 2.034 1_455 S
O374 C358 1.251 1_554 S
O374 Zn365 2.039 . S
C375 O380 1.246 . S
C375 O381 1.249 1_554 S
O376 C358 1.254 . S
O376 Zn373 2.025 1_655 S
H377 C369 0.952 . S
H378 C360 0.952 . S
H379 C368 0.948 . S
O380 Zn365 2.034 1_455 S
O380 C375 1.246 . S
O381 Zn373 2.024 . S
O381 C375 1.249 1_556 S
H382 C364 0.948 . S
O383 Zn373 2.039 . S
O383 C387 1.251 1_556 S
O384 Zn365 2.025 1_455 S
O384 C387 1.254 . S
O385 C366 1.246 . S
O385 Zn373 2.034 1_655 S
O386 Zn365 2.024 . S
O386 C366 1.249 1_554 S
C387 O383 1.251 1_554 S
C387 O384 1.254 . S
H388 C361 0.949 . S
H389 C363 0.950 . S
H390 C370 0.949 . S
H391 C372 0.950 . S
H392 C398 0.930 . S
H393 C401 0.930 . S
H394 C402 0.930 . S
H395 C403 0.930 . S
H396 C406 0.930 1_565 S
H397 C407 0.930 . S
C398 H392 0.930 . S
C398 C399 1.355 . S
C398 C400 1.415 . S
C399 C398 1.355 . S
C399 C401 1.419 . S
C400 C398 1.415 . S
C400 C405 1.425 . S
C400 C407 1.409 . S
C401 H393 0.930 . S
C401 C399 1.419 . S
C401 C402 1.362 . S
C402 H394 0.930 . S
C402 C401 1.362 . S
C402 C405 1.409 . S
C403 H395 0.930 . S
C403 C404 1.355 . S
C403 C405 1.415 . S
C404 C403 1.355 . S
C404 C406 1.419 . S
C405 C400 1.425 . S
C405 C402 1.409 . S
C405 C403 1.415 . S
C406 H396 0.930 1_545 S
C406 C404 1.419 . S
C406 C407 1.362 . S
C407 H397 0.930 . S
C407 C400 1.409 . S
C407 C406 1.362 . S
H408 C414 0.930 . S
H409 C417 0.930 . S
H410 C418 0.930 . S
H411 C419 0.930 . S
H412 C422 0.930 1_545 S
H413 C423 0.931 1_545 S
C414 H408 0.930 . S
C414 C415 1.355 . S
C414 C416 1.415 . S
C415 C414 1.355 . S
C415 C417 1.419 . S
C416 C414 1.415 . S
C416 C421 1.425 . S
C416 C423 1.409 . S
C417 H409 0.930 . S
C417 C415 1.419 . S
C417 C418 1.362 . S
C418 H410 0.930 . S
C418 C417 1.362 . S
C418 C421 1.409 . S
C419 H411 0.930 . S
C419 C420 1.355 . S
C419 C421 1.415 . S
C420 C419 1.355 . S
C420 C422 1.419 . S
C421 C416 1.425 . S
C421 C418 1.409 . S
C421 C419 1.415 . S
C422 H412 0.930 1_565 S
C422 C420 1.419 . S
C422 C423 1.362 . S
C423 H413 0.931 1_565 S
C423 C416 1.409 . S
C423 C422 1.362 . S
H424 C430 0.930 . S
H425 C433 0.930 . S
H426 C434 0.930 . S
H427 C435 0.930 . S
H428 C438 0.930 . S
H429 C439 0.930 . S
C430 H424 0.930 . S
C430 C431 1.355 . S
C430 C432 1.415 . S
C431 C430 1.355 . S
C431 C433 1.419 . S
C432 C430 1.415 . S
C432 C437 1.425 . S
C432 C439 1.409 . S
C433 H425 0.930 . S
C433 C431 1.419 . S
C433 C434 1.362 . S
C434 H426 0.930 . S
C434 C433 1.362 . S
C434 C437 1.409 . S
C435 H427 0.930 . S
C435 C436 1.355 . S
C435 C437 1.415 . S
C436 C435 1.355 . S
C436 C438 1.419 . S
C437 C432 1.425 . S
C437 C434 1.409 . S
C437 C435 1.415 . S
C438 H428 0.930 . S
C438 C436 1.419 . S
C438 C439 1.362 . S
C439 H429 0.930 . S
C439 C432 1.409 . S
C439 C438 1.362 . S
H440 C446 0.930 . S
H441 C449 0.930 . S
H442 C450 0.930 . S
H443 C451 0.930 . S
H444 C454 0.930 . S
H445 C455 0.930 . S
C446 H440 0.930 . S
C446 C447 1.355 . S
C446 C448 1.415 . S
C447 C446 1.355 . S
C447 C449 1.419 . S
C448 C446 1.415 . S
C448 C453 1.425 . S
C448 C455 1.409 . S
C449 H441 0.930 . S
C449 C447 1.419 . S
C449 C450 1.362 . S
C450 H442 0.930 . S
C450 C449 1.362 . S
C450 C453 1.409 . S
C451 H443 0.930 . S
C451 C452 1.355 . S
C451 C453 1.415 . S
C452 C451 1.355 . S
C452 C454 1.419 . S
C453 C448 1.425 . S
C453 C450 1.409 . S
C453 C451 1.415 . S
C454 H444 0.930 . S
C454 C452 1.419 . S
C454 C455 1.362 . S
C455 H445 0.930 . S
C455 C448 1.409 . S
C455 C454 1.362 . S
H456 C462 0.930 . S
H457 C465 0.930 . S
H458 C466 0.930 . S
H459 C467 0.930 . S
H460 C470 0.930 1_565 S
H461 C471 0.930 1_565 S
C462 H456 0.930 . S
C462 C463 1.355 . S
C462 C464 1.415 . S
C463 C462 1.355 . S
C463 C465 1.419 . S
C464 C462 1.415 . S
C464 C469 1.425 . S
C464 C471 1.409 . S
C465 H457 0.930 . S
C465 C463 1.419 . S
C465 C466 1.362 . S
C466 H458 0.930 . S
C466 C465 1.362 . S
C466 C469 1.409 . S
C467 H459 0.930 . S
C467 C468 1.355 . S
C467 C469 1.415 . S
C468 C467 1.355 . S
C468 C470 1.419 . S
C469 C464 1.425 . S
C469 C466 1.409 . S
C469 C467 1.415 . S
C470 H460 0.930 1_545 S
C470 C468 1.419 . S
C470 C471 1.362 . S
C471 H461 0.930 1_545 S
C471 C464 1.409 . S
C471 C470 1.362 . S
H472 C478 0.930 . S
H473 C481 0.930 . S
H474 C482 0.930 . S
H475 C483 0.930 . S
H476 C486 0.930 . S
H477 C487 0.930 . S
C478 H472 0.930 . S
C478 C479 1.355 . S
C478 C480 1.415 . S
C479 C478 1.355 . S
C479 C481 1.419 . S
C480 C478 1.415 . S
C480 C485 1.425 . S
C480 C487 1.409 . S
C481 H473 0.930 . S
C481 C479 1.419 . S
C481 C482 1.362 . S
C482 H474 0.930 . S
C482 C481 1.362 . S
C482 C485 1.409 . S
C483 H475 0.930 . S
C483 C484 1.355 . S
C483 C485 1.415 . S
C484 C483 1.355 . S
C484 C486 1.419 . S
C485 C480 1.425 . S
C485 C482 1.409 . S
C485 C483 1.415 . S
C486 H476 0.930 . S
C486 C484 1.419 . S
C486 C487 1.362 . S
C487 H477 0.930 . S
C487 C480 1.409 . S
C487 C486 1.362 . S
H488 C494 0.930 . S
H489 C497 0.930 1_554 S
H490 C498 0.930 . S
H491 C499 0.930 1_554 S
H492 C502 0.930 . S
H493 C503 0.930 . S
C494 H488 0.930 . S
C494 C495 1.355 . S
C494 C496 1.415 . S
C495 C494 1.355 . S
C495 C497 1.419 . S
C496 C494 1.415 . S
C496 C501 1.425 . S
C496 C503 1.409 . S
C497 H489 0.930 1_556 S
C497 C495 1.419 . S
C497 C498 1.362 1_556 S
C498 H490 0.930 . S
C498 C497 1.362 1_554 S
C498 C501 1.409 1_554 S
C499 H491 0.930 1_556 S
C499 C500 1.355 . S
C499 C501 1.415 . S
C500 C499 1.355 . S
C500 C502 1.419 . S
C501 C496 1.425 . S
C501 C498 1.409 1_556 S
C501 C499 1.415 . S
C502 H492 0.930 . S
C502 C500 1.419 . S
C502 C503 1.362 . S
C503 H493 0.930 . S
C503 C496 1.409 . S
C503 C502 1.362 . S
H504 C510 0.930 . S
H505 C513 0.930 . S
H506 C514 0.930 . S
H507 C515 0.930 . S
H508 C518 0.930 . S
H509 C519 0.930 . S
C510 H504 0.930 . S
C510 C511 1.355 . S
C510 C512 1.415 . S
C511 C510 1.355 . S
C511 C513 1.419 . S
C512 C510 1.415 . S
C512 C517 1.425 . S
C512 C519 1.409 . S
C513 H505 0.930 . S
C513 C511 1.419 . S
C513 C514 1.362 . S
C514 H506 0.930 . S
C514 C513 1.362 . S
C514 C517 1.409 . S
C515 H507 0.930 . S
C515 C516 1.355 . S
C515 C517 1.415 . S
C516 C515 1.355 . S
C516 C518 1.419 . S
C517 C512 1.425 . S
C517 C514 1.409 . S
C517 C515 1.415 . S
C518 H508 0.930 . S
C518 C516 1.419 . S
C518 C519 1.362 . S
C519 H509 0.930 . S
C519 C512 1.409 . S
C519 C518 1.362 . S
H520 C526 0.930 . S
H521 C529 0.930 . S
H522 C530 0.930 . S
H523 C531 0.930 . S
H524 C534 0.930 . S
H525 C535 0.930 . S
C526 H520 0.930 . S
C526 C527 1.355 . S
C526 C528 1.415 . S
C527 C526 1.355 . S
C527 C529 1.419 . S
C528 C526 1.415 . S
C528 C533 1.425 . S
C528 C535 1.409 . S
C529 H521 0.930 . S
C529 C527 1.419 . S
C529 C530 1.362 . S
C530 H522 0.930 . S
C530 C529 1.362 . S
C530 C533 1.409 . S
C531 H523 0.930 . S
C531 C532 1.355 . S
C531 C533 1.415 . S
C532 C531 1.355 . S
C532 C534 1.419 . S
C533 C528 1.425 . S
C533 C530 1.409 . S
C533 C531 1.415 . S
C534 H524 0.930 . S
C534 C532 1.419 . S
C534 C535 1.362 . S
C535 H525 0.930 . S
C535 C528 1.409 . S
C535 C534 1.362 . S
H536 C542 0.930 . S
H537 C545 0.930 . S
H538 C546 0.930 . S
H539 C547 0.930 . S
H540 C550 0.930 . S
H541 C551 0.930 . S
C542 H536 0.930 . S
C542 C543 1.355 . S
C542 C544 1.415 . S
C543 C542 1.355 . S
C543 C545 1.419 . S
C544 C542 1.415 . S
C544 C549 1.425 . S
C544 C551 1.409 . S
C545 H537 0.930 . S
C545 C543 1.419 . S
C545 C546 1.362 . S
C546 H538 0.930 . S
C546 C545 1.362 . S
C546 C549 1.409 . S
C547 H539 0.930 . S
C547 C548 1.355 . S
C547 C549 1.415 . S
C548 C547 1.355 . S
C548 C550 1.419 . S
C549 C544 1.425 . S
C549 C546 1.409 . S
C549 C547 1.415 . S
C550 H540 0.930 . S
C550 C548 1.419 . S
C550 C551 1.362 . S
C551 H541 0.930 . S
C551 C544 1.409 . S
C551 C550 1.362 . S
H552 C558 0.930 . S
H553 C561 0.930 . S
H554 C562 0.930 . S
H555 C563 0.930 . S
H556 C566 0.930 . S
H557 C567 0.930 . S
C558 H552 0.930 . S
C558 C559 1.355 . S
C558 C560 1.415 . S
C559 C558 1.355 . S
C559 C561 1.419 . S
C560 C558 1.415 . S
C560 C565 1.425 . S
C560 C567 1.409 . S
C561 H553 0.930 . S
C561 C559 1.419 . S
C561 C562 1.362 . S
C562 H554 0.930 . S
C562 C561 1.362 . S
C562 C565 1.409 . S
C563 H555 0.930 . S
C563 C564 1.355 . S
C563 C565 1.415 . S
C564 C563 1.355 . S
C564 C566 1.419 . S
C565 C560 1.425 . S
C565 C562 1.409 . S
C565 C563 1.415 . S
C566 H556 0.930 . S
C566 C564 1.419 . S
C566 C567 1.362 . S
C567 H557 0.930 . S
C567 C560 1.409 . S
C567 C566 1.362 . S
H568 C574 0.930 . S
H569 C577 0.930 . S
H570 C578 0.930 . S
H571 C579 0.930 . S
H572 C582 0.930 . S
H573 C583 0.930 . S
C574 H568 0.930 . S
C574 C575 1.355 . S
C574 C576 1.415 . S
C575 C574 1.355 . S
C575 C577 1.419 . S
C576 C574 1.415 . S
C576 C581 1.425 . S
C576 C583 1.409 . S
C577 H569 0.930 . S
C577 C575 1.419 . S
C577 C578 1.362 . S
C578 H570 0.930 . S
C578 C577 1.362 . S
C578 C581 1.409 . S
C579 H571 0.930 . S
C579 C580 1.355 . S
C579 C581 1.415 . S
C580 C579 1.355 . S
C580 C582 1.419 . S
C581 C576 1.425 . S
C581 C578 1.409 . S
C581 C579 1.415 . S
C582 H572 0.930 . S
C582 C580 1.419 . S
C582 C583 1.362 . S
C583 H573 0.930 . S
C583 C576 1.409 . S
C583 C582 1.362 . S
H584 C590 0.930 . S
H585 C593 0.930 . S
H586 C594 0.930 1_545 S
H587 C595 0.930 1_545 S
H588 C598 0.930 1_455 S
H589 C599 0.930 1_455 S
C590 H584 0.930 . S
C590 C591 1.355 . S
C590 C592 1.415 . S
C591 C590 1.355 . S
C591 C593 1.419 . S
C592 C590 1.415 . S
C592 C597 1.425 . S
C592 C599 1.409 . S
C593 H585 0.930 . S
C593 C591 1.419 . S
C593 C594 1.362 . S
C594 H586 0.930 1_565 S
C594 C593 1.362 . S
C594 C597 1.409 . S
C595 H587 0.930 1_565 S
C595 C596 1.355 . S
C595 C597 1.415 . S
C596 C595 1.355 . S
C596 C598 1.419 . S
C597 C592 1.425 . S
C597 C594 1.409 . S
C597 C595 1.415 . S
C598 H588 0.930 1_655 S
C598 C596 1.419 . S
C598 C599 1.362 . S
C599 H589 0.930 1_655 S
C599 C592 1.409 . S
C599 C598 1.362 . S
H600 C606 0.930 . S
H601 C609 0.930 . S
H602 C610 0.930 . S
H603 C611 0.930 . S
H604 C614 0.930 . S
H605 C615 0.930 . S
C606 H600 0.930 . S
C606 C607 1.355 . S
C606 C608 1.415 . S
C607 C606 1.355 . S
C607 C609 1.419 . S
C608 C606 1.415 . S
C608 C613 1.425 . S
C608 C615 1.409 . S
C609 H601 0.930 . S
C609 C607 1.419 . S
C609 C610 1.362 . S
C610 H602 0.930 . S
C610 C609 1.362 . S
C610 C613 1.409 . S
C611 H603 0.930 . S
C611 C612 1.355 . S
C611 C613 1.415 . S
C612 C611 1.355 . S
C612 C614 1.419 . S
C613 C608 1.425 . S
C613 C610 1.409 . S
C613 C611 1.415 . S
C614 H604 0.930 . S
C614 C612 1.419 . S
C614 C615 1.362 . S
C615 H605 0.930 . S
C615 C608 1.409 . S
C615 C614 1.362 . S
H616 C622 0.930 . S
H617 C625 0.930 . S
H618 C626 0.930 . S
H619 C627 0.930 . S
H620 C630 0.930 . S
H621 C631 0.930 . S
C622 H616 0.930 . S
C622 C623 1.355 . S
C622 C624 1.415 . S
C623 C622 1.355 . S
C623 C625 1.419 . S
C624 C622 1.415 . S
C624 C629 1.425 . S
C624 C631 1.409 . S
C625 H617 0.930 . S
C625 C623 1.419 . S
C625 C626 1.362 . S
C626 H618 0.930 . S
C626 C625 1.362 . S
C626 C629 1.409 . S
C627 H619 0.930 . S
C627 C628 1.355 . S
C627 C629 1.415 . S
C628 C627 1.355 . S
C628 C630 1.419 . S
C629 C624 1.425 . S
C629 C626 1.409 . S
C629 C627 1.415 . S
C630 H620 0.930 . S
C630 C628 1.419 . S
C630 C631 1.362 . S
C631 H621 0.930 . S
C631 C624 1.409 . S
C631 C630 1.362 . S
H632 C638 0.930 . S
H633 C641 0.930 . S
H634 C642 0.930 . S
H635 C643 0.930 . S
H636 C646 0.930 . S
H637 C647 0.930 . S
C638 H632 0.930 . S
C638 C639 1.355 . S
C638 C640 1.415 . S
C639 C638 1.355 . S
C639 C641 1.419 . S
C640 C638 1.415 . S
C640 C645 1.425 . S
C640 C647 1.409 . S
C641 H633 0.930 . S
C641 C639 1.419 . S
C641 C642 1.362 . S
C642 H634 0.930 . S
C642 C641 1.362 . S
C642 C645 1.409 . S
C643 H635 0.930 . S
C643 C644 1.355 . S
C643 C645 1.415 . S
C644 C643 1.355 . S
C644 C646 1.419 . S
C645 C640 1.425 . S
C645 C642 1.409 . S
C645 C643 1.415 . S
C646 H636 0.930 . S
C646 C644 1.419 . S
C646 C647 1.362 . S
C647 H637 0.930 . S
C647 C640 1.409 . S
C647 C646 1.362 . S
H648 C654 0.930 . S
H649 C657 0.930 . S
H650 C658 0.930 1_545 S
H651 C659 0.930 1_545 S
H652 C662 0.930 . S
H653 C663 0.930 . S
C654 H648 0.930 . S
C654 C655 1.355 . S
C654 C656 1.415 . S
C655 C654 1.355 . S
C655 C657 1.419 . S
C656 C654 1.415 . S
C656 C661 1.425 . S
C656 C663 1.409 . S
C657 H649 0.930 . S
C657 C655 1.419 . S
C657 C658 1.362 . S
C658 H650 0.930 1_565 S
C658 C657 1.362 . S
C658 C661 1.409 . S
C659 H651 0.930 1_565 S
C659 C660 1.355 . S
C659 C661 1.415 . S
C660 C659 1.355 . S
C660 C662 1.419 . S
C661 C656 1.425 . S
C661 C658 1.409 . S
C661 C659 1.415 . S
C662 H652 0.930 . S
C662 C660 1.419 . S
C662 C663 1.362 . S
C663 H653 0.930 . S
C663 C656 1.409 . S
C663 C662 1.362 . S
H664 C670 0.930 . S
H665 C673 0.930 . S
H666 C674 0.930 . S
H667 C675 0.930 . S
H668 C678 0.930 . S
H669 C679 0.930 . S
C670 H664 0.930 . S
C670 C671 1.355 . S
C670 C672 1.415 . S
C671 C670 1.355 . S
C671 C673 1.419 . S
C672 C670 1.415 . S
C672 C677 1.425 . S
C672 C679 1.409 . S
C673 H665 0.930 . S
C673 C671 1.419 . S
C673 C674 1.362 . S
C674 H666 0.930 . S
C674 C673 1.362 . S
C674 C677 1.409 . S
C675 H667 0.930 . S
C675 C676 1.355 . S
C675 C677 1.415 . S
C676 C675 1.355 . S
C676 C678 1.419 . S
C677 C672 1.425 . S
C677 C674 1.409 . S
C677 C675 1.415 . S
C678 H668 0.930 . S
C678 C676 1.419 . S
C678 C679 1.362 . S
C679 H669 0.930 . S
C679 C672 1.409 . S
C679 C678 1.362 . S
H680 C686 0.930 . S
H681 C689 0.930 . S
H682 C690 0.930 1_556 S
H683 C691 0.930 1_556 S
H684 C694 0.930 . S
H685 C695 0.930 . S
C686 H680 0.930 . S
C686 C687 1.355 . S
C686 C688 1.415 . S
C687 C686 1.355 . S
C687 C689 1.419 . S
C688 C686 1.415 . S
C688 C693 1.425 . S
C688 C695 1.409 . S
C689 H681 0.930 . S
C689 C687 1.419 . S
C689 C690 1.362 . S
C690 H682 0.930 1_554 S
C690 C689 1.362 . S
C690 C693 1.409 . S
C691 H683 0.930 1_554 S
C691 C692 1.355 . S
C691 C693 1.415 . S
C692 C691 1.355 . S
C692 C694 1.419 . S
C693 C688 1.425 . S
C693 C690 1.409 . S
C693 C691 1.415 . S
C694 H684 0.930 . S
C694 C692 1.419 . S
C694 C695 1.362 . S
C695 H685 0.930 . S
C695 C688 1.409 . S
C695 C694 1.362 . S
H696 C702 0.930 . S
H697 C705 0.930 . S
H698 C706 0.930 . S
H699 C707 0.930 . S
H700 C710 0.930 . S
H701 C711 0.930 . S
C702 H696 0.930 . S
C702 C703 1.355 . S
C702 C704 1.415 . S
C703 C702 1.355 . S
C703 C705 1.419 . S
C704 C702 1.415 . S
C704 C709 1.425 . S
C704 C711 1.409 . S
C705 H697 0.930 . S
C705 C703 1.419 . S
C705 C706 1.362 . S
C706 H698 0.930 . S
C706 C705 1.362 . S
C706 C709 1.409 . S
C707 H699 0.930 . S
C707 C708 1.355 . S
C707 C709 1.415 . S
C708 C707 1.355 . S
C708 C710 1.419 . S
C709 C704 1.425 . S
C709 C706 1.409 . S
C709 C707 1.415 . S
C710 H700 0.930 . S
C710 C708 1.419 . S
C710 C711 1.362 . S
C711 H701 0.930 . S
C711 C704 1.409 . S
C711 C710 1.362 . S
H712 C718 0.930 . S
H713 C721 0.930 . S
H714 C722 0.930 . S
H715 C723 0.930 . S
H716 C726 0.930 . S
H717 C727 0.930 . S
C718 H712 0.930 . S
C718 C719 1.355 . S
C718 C720 1.415 . S
C719 C718 1.355 . S
C719 C721 1.419 . S
C720 C718 1.415 . S
C720 C725 1.425 . S
C720 C727 1.409 1_655 S
C721 H713 0.930 . S
C721 C719 1.419 . S
C721 C722 1.362 . S
C722 H714 0.930 . S
C722 C721 1.362 . S
C722 C725 1.409 . S
C723 H715 0.930 . S
C723 C724 1.355 . S
C723 C725 1.415 . S
C724 C723 1.355 . S
C724 C726 1.419 1_655 S
C725 C720 1.425 . S
C725 C722 1.409 . S
C725 C723 1.415 . S
C726 H716 0.930 . S
C726 C724 1.419 1_455 S
C726 C727 1.362 . S
C727 H717 0.930 . S
C727 C720 1.409 1_455 S
C727 C726 1.362 . S
H728 C734 0.930 . S
H729 C737 0.930 . S
H730 C738 0.930 . S
H731 C739 0.930 . S
H732 C742 0.930 . S
H733 C743 0.930 . S
C734 H728 0.930 . S
C734 C735 1.355 . S
C734 C736 1.415 . S
C735 C734 1.355 . S
C735 C737 1.419 . S
C736 C734 1.415 . S
C736 C741 1.425 . S
C736 C743 1.409 . S
C737 H729 0.930 . S
C737 C735 1.419 . S
C737 C738 1.362 . S
C738 H730 0.930 . S
C738 C737 1.362 . S
C738 C741 1.409 . S
C739 H731 0.930 . S
C739 C740 1.355 . S
C739 C741 1.415 . S
C740 C739 1.355 . S
C740 C742 1.419 . S
C741 C736 1.425 . S
C741 C738 1.409 . S
C741 C739 1.415 . S
C742 H732 0.930 . S
C742 C740 1.419 . S
C742 C743 1.362 . S
C743 H733 0.930 . S
C743 C736 1.409 . S
C743 C742 1.362 . S
H744 C750 0.930 . S
H745 C753 0.930 . S
H746 C754 0.930 . S
H747 C755 0.930 . S
H748 C758 0.930 . S
H749 C759 0.930 . S
C750 H744 0.930 . S
C750 C751 1.355 . S
C750 C752 1.415 . S
C751 C750 1.355 . S
C751 C753 1.419 . S
C752 C750 1.415 . S
C752 C757 1.425 . S
C752 C759 1.409 . S
C753 H745 0.930 . S
C753 C751 1.419 . S
C753 C754 1.362 . S
C754 H746 0.930 . S
C754 C753 1.362 . S
C754 C757 1.409 . S
C755 H747 0.930 . S
C755 C756 1.355 . S
C755 C757 1.415 . S
C756 C755 1.355 . S
C756 C758 1.419 . S
C757 C752 1.425 . S
C757 C754 1.409 . S
C757 C755 1.415 . S
C758 H748 0.930 . S
C758 C756 1.419 . S
C758 C759 1.362 . S
C759 H749 0.930 . S
C759 C752 1.409 . S
C759 C758 1.362 . S
H760 C766 0.930 . S
H761 C769 0.930 . S
H762 C770 0.930 . S
H763 C771 0.930 . S
H764 C774 0.930 . S
H765 C775 0.930 . S
C766 H760 0.930 . S
C766 C767 1.355 . S
C766 C768 1.415 . S
C767 C766 1.355 . S
C767 C769 1.419 . S
C768 C766 1.415 . S
C768 C773 1.425 . S
C768 C775 1.409 . S
C769 H761 0.930 . S
C769 C767 1.419 . S
C769 C770 1.362 . S
C770 H762 0.930 . S
C770 C769 1.362 . S
C770 C773 1.409 . S
C771 H763 0.930 . S
C771 C772 1.355 . S
C771 C773 1.415 . S
C772 C771 1.355 . S
C772 C774 1.419 . S
C773 C768 1.425 . S
C773 C770 1.409 . S
C773 C771 1.415 . S
C774 H764 0.930 . S
C774 C772 1.419 . S
C774 C775 1.362 . S
C775 H765 0.930 . S
C775 C768 1.409 . S
C775 C774 1.362 . S
C399 C29 2.260 . S
C404 C256 2.367 . S
C415 C49 2.241 . S
C420 C298 2.248 . S
C436 C328 1.051 . S
C431 C93 1.017 . S
C447 C119 1.030 . S
C452 C362 1.062 . S
C468 C319 1.834 . S
C463 C17 1.708 . S
C484 C273 1.866 . S
C479 C61 1.885 . S
C500 C366 1.344 . S
C495 C81 1.271 . S
C516 C332 1.452 . S
C511 C125 1.375 . S
C527 C23 2.108 . S
C532 C387 2.186 . S
C548 C294 1.115 . S
C543 C87 1.067 . S
C559 C113 1.173 . S
C564 C269 1.214 . S
C575 C55 2.170 . S
C580 C353 2.162 . S
C596 C285 2.300 . S
C591 C157 2.296 . S
C607 C189 2.213 . S
C612 C307 2.297 . S
C623 C221 1.041 . S
C628 C337 1.002 . S
C639 C253 1.064 . S
C644 C371 1.089 . S
C655 C145 1.883 . S
C660 C290 1.889 . S
C676 C264 1.797 . S
C671 C183 1.674 . S
C692 C375 1.377 . S
C687 C209 1.379 . S
C708 C341 1.386 . S
C703 C247 1.240 . S
C719 C151 2.199 . S
C724 C358 2.191 . S
C740 C303 1.178 . S
C735 C215 1.170 . S
C756 C260 1.160 . S
C751 C241 1.044 . S
C767 C177 2.130 . S
C772 C324 2.213 . S
