# Generated by pormake.
# Topology ptr, (4,4)-cn, num edge types: 1
# Building blocks:
#     Node 0, Type 0, BuildingBlock: TATPOV_clean_sbu_0, # of connection points: 4
#     Node 1, Type 0, BuildingBlock: TATPOV_clean_sbu_0, # of connection points: 4
#     Node 2, Type 0, BuildingBlock: TATPOV_clean_sbu_0, # of connection points: 4
#     Node 3, Type 0, BuildingBlock: TATPOV_clean_sbu_0, # of connection points: 4
#     Node 4, Type 0, BuildingBlock: TATPOV_clean_sbu_0, # of connection points: 4
#     Node 5, Type 0, BuildingBlock: TATPOV_clean_sbu_0, # of connection points: 4
#     Node 6, Type 0, BuildingBlock: TATPOV_clean_sbu_0, # of connection points: 4
#     Node 7, Type 0, BuildingBlock: TATPOV_clean_sbu_0, # of connection points: 4
#     Node 8, Type 0, BuildingBlock: TATPOV_clean_sbu_0, # of connection points: 4
#     Node 9, Type 0, BuildingBlock: TATPOV_clean_sbu_0, # of connection points: 4
#     Node 10, Type 0, BuildingBlock: TATPOV_clean_sbu_0, # of connection points: 4
#     Node 11, Type 0, BuildingBlock: TATPOV_clean_sbu_0, # of connection points: 4
#     Node 12, Type 0, BuildingBlock: TATPOV_clean_sbu_0, # of connection points: 4
#     Node 13, Type 0, BuildingBlock: TATPOV_clean_sbu_0, # of connection points: 4
#     Node 14, Type 0, BuildingBlock: TATPOV_clean_sbu_0, # of connection points: 4
#     Node 15, Type 0, BuildingBlock: TATPOV_clean_sbu_0, # of connection points: 4
#     Node 16, Type 0, BuildingBlock: TATPOV_clean_sbu_0, # of connection points: 4
#     Node 17, Type 0, BuildingBlock: TATPOV_clean_sbu_0, # of connection points: 4
#     Node 18, Type 1, BuildingBlock: MIFKUJ_clean_linker_1, # of connection points: 4
#     Node 19, Type 1, BuildingBlock: MIFKUJ_clean_linker_1, # of connection points: 4
#     Node 20, Type 1, BuildingBlock: MIFKUJ_clean_linker_1, # of connection points: 4
#     Node 21, Type 1, BuildingBlock: MIFKUJ_clean_linker_1, # of connection points: 4
#     Node 22, Type 1, BuildingBlock: MIFKUJ_clean_linker_1, # of connection points: 4
#     Node 23, Type 1, BuildingBlock: MIFKUJ_clean_linker_1, # of connection points: 4
#     Node 24, Type 1, BuildingBlock: MIFKUJ_clean_linker_1, # of connection points: 4
#     Node 25, Type 1, BuildingBlock: MIFKUJ_clean_linker_1, # of connection points: 4
#     Node 26, Type 1, BuildingBlock: MIFKUJ_clean_linker_1, # of connection points: 4
#     Node 27, Type 1, BuildingBlock: MIFKUJ_clean_linker_1, # of connection points: 4
#     Node 28, Type 1, BuildingBlock: MIFKUJ_clean_linker_1, # of connection points: 4
#     Node 29, Type 1, BuildingBlock: MIFKUJ_clean_linker_1, # of connection points: 4
#     Node 30, Type 1, BuildingBlock: MIFKUJ_clean_linker_1, # of connection points: 4
#     Node 31, Type 1, BuildingBlock: MIFKUJ_clean_linker_1, # of connection points: 4
#     Node 32, Type 1, BuildingBlock: MIFKUJ_clean_linker_1, # of connection points: 4
#     Node 33, Type 1, BuildingBlock: MIFKUJ_clean_linker_1, # of connection points: 4
#     Node 34, Type 1, BuildingBlock: MIFKUJ_clean_linker_1, # of connection points: 4
#     Node 35, Type 1, BuildingBlock: MIFKUJ_clean_linker_1, # of connection points: 4
#     Edge 36, Type (0, 1), BuildingBlock: XIVTED_clean_linker_0, # of connection points: 2
#     Edge 37, Type (0, 1), BuildingBlock: XIVTED_clean_linker_0, # of connection points: 2
#     Edge 38, Type (0, 1), BuildingBlock: XIVTED_clean_linker_0, # of connection points: 2
#     Edge 39, Type (0, 1), BuildingBlock: XIVTED_clean_linker_0, # of connection points: 2
#     Edge 40, Type (0, 1), BuildingBlock: XIVTED_clean_linker_0, # of connection points: 2
#     Edge 41, Type (0, 1), BuildingBlock: XIVTED_clean_linker_0, # of connection points: 2
#     Edge 42, Type (0, 1), BuildingBlock: XIVTED_clean_linker_0, # of connection points: 2
#     Edge 43, Type (0, 1), BuildingBlock: XIVTED_clean_linker_0, # of connection points: 2
#     Edge 44, Type (0, 1), BuildingBlock: XIVTED_clean_linker_0, # of connection points: 2
#     Edge 45, Type (0, 1), BuildingBlock: XIVTED_clean_linker_0, # of connection points: 2
#     Edge 46, Type (0, 1), BuildingBlock: XIVTED_clean_linker_0, # of connection points: 2
#     Edge 47, Type (0, 1), BuildingBlock: XIVTED_clean_linker_0, # of connection points: 2
#     Edge 48, Type (0, 1), BuildingBlock: XIVTED_clean_linker_0, # of connection points: 2
#     Edge 49, Type (0, 1), BuildingBlock: XIVTED_clean_linker_0, # of connection points: 2
#     Edge 50, Type (0, 1), BuildingBlock: XIVTED_clean_linker_0, # of connection points: 2
#     Edge 51, Type (0, 1), BuildingBlock: XIVTED_clean_linker_0, # of connection points: 2
#     Edge 52, Type (0, 1), BuildingBlock: XIVTED_clean_linker_0, # of connection points: 2
#     Edge 53, Type (0, 1), BuildingBlock: XIVTED_clean_linker_0, # of connection points: 2
#     Edge 54, Type (0, 1), BuildingBlock: XIVTED_clean_linker_0, # of connection points: 2
#     Edge 55, Type (0, 1), BuildingBlock: XIVTED_clean_linker_0, # of connection points: 2
#     Edge 56, Type (0, 1), BuildingBlock: XIVTED_clean_linker_0, # of connection points: 2
#     Edge 57, Type (0, 1), BuildingBlock: XIVTED_clean_linker_0, # of connection points: 2
#     Edge 58, Type (0, 1), BuildingBlock: XIVTED_clean_linker_0, # of connection points: 2
#     Edge 59, Type (0, 1), BuildingBlock: XIVTED_clean_linker_0, # of connection points: 2
#     Edge 60, Type (0, 1), BuildingBlock: XIVTED_clean_linker_0, # of connection points: 2
#     Edge 61, Type (0, 1), BuildingBlock: XIVTED_clean_linker_0, # of connection points: 2
#     Edge 62, Type (0, 1), BuildingBlock: XIVTED_clean_linker_0, # of connection points: 2
#     Edge 63, Type (0, 1), BuildingBlock: XIVTED_clean_linker_0, # of connection points: 2
#     Edge 64, Type (0, 1), BuildingBlock: XIVTED_clean_linker_0, # of connection points: 2
#     Edge 65, Type (0, 1), BuildingBlock: XIVTED_clean_linker_0, # of connection points: 2
#     Edge 66, Type (0, 1), BuildingBlock: XIVTED_clean_linker_0, # of connection points: 2
#     Edge 67, Type (0, 1), BuildingBlock: XIVTED_clean_linker_0, # of connection points: 2
#     Edge 68, Type (0, 1), BuildingBlock: XIVTED_clean_linker_0, # of connection points: 2
#     Edge 69, Type (0, 1), BuildingBlock: XIVTED_clean_linker_0, # of connection points: 2
#     Edge 70, Type (0, 1), BuildingBlock: XIVTED_clean_linker_0, # of connection points: 2
#     Edge 71, Type (0, 1), BuildingBlock: XIVTED_clean_linker_0, # of connection points: 2
#     Edge 72, Type (0, 1), BuildingBlock: XIVTED_clean_linker_0, # of connection points: 2
#     Edge 73, Type (0, 1), BuildingBlock: XIVTED_clean_linker_0, # of connection points: 2
#     Edge 74, Type (0, 1), BuildingBlock: XIVTED_clean_linker_0, # of connection points: 2
#     Edge 75, Type (0, 1), BuildingBlock: XIVTED_clean_linker_0, # of connection points: 2
#     Edge 76, Type (0, 1), BuildingBlock: XIVTED_clean_linker_0, # of connection points: 2
#     Edge 77, Type (0, 1), BuildingBlock: XIVTED_clean_linker_0, # of connection points: 2
#     Edge 78, Type (0, 1), BuildingBlock: XIVTED_clean_linker_0, # of connection points: 2
#     Edge 79, Type (0, 1), BuildingBlock: XIVTED_clean_linker_0, # of connection points: 2
#     Edge 80, Type (0, 1), BuildingBlock: XIVTED_clean_linker_0, # of connection points: 2
#     Edge 81, Type (0, 1), BuildingBlock: XIVTED_clean_linker_0, # of connection points: 2
#     Edge 82, Type (0, 1), BuildingBlock: XIVTED_clean_linker_0, # of connection points: 2
#     Edge 83, Type (0, 1), BuildingBlock: XIVTED_clean_linker_0, # of connection points: 2
#     Edge 84, Type (0, 1), BuildingBlock: XIVTED_clean_linker_0, # of connection points: 2
#     Edge 85, Type (0, 1), BuildingBlock: XIVTED_clean_linker_0, # of connection points: 2
#     Edge 86, Type (0, 1), BuildingBlock: XIVTED_clean_linker_0, # of connection points: 2
#     Edge 87, Type (0, 1), BuildingBlock: XIVTED_clean_linker_0, # of connection points: 2
#     Edge 88, Type (0, 1), BuildingBlock: XIVTED_clean_linker_0, # of connection points: 2
#     Edge 89, Type (0, 1), BuildingBlock: XIVTED_clean_linker_0, # of connection points: 2
#     Edge 90, Type (0, 1), BuildingBlock: XIVTED_clean_linker_0, # of connection points: 2
#     Edge 91, Type (0, 1), BuildingBlock: XIVTED_clean_linker_0, # of connection points: 2
#     Edge 92, Type (0, 1), BuildingBlock: XIVTED_clean_linker_0, # of connection points: 2
#     Edge 93, Type (0, 1), BuildingBlock: XIVTED_clean_linker_0, # of connection points: 2
#     Edge 94, Type (0, 1), BuildingBlock: XIVTED_clean_linker_0, # of connection points: 2
#     Edge 95, Type (0, 1), BuildingBlock: XIVTED_clean_linker_0, # of connection points: 2
#     Edge 96, Type (0, 1), BuildingBlock: XIVTED_clean_linker_0, # of connection points: 2
#     Edge 97, Type (0, 1), BuildingBlock: XIVTED_clean_linker_0, # of connection points: 2
#     Edge 98, Type (0, 1), BuildingBlock: XIVTED_clean_linker_0, # of connection points: 2
#     Edge 99, Type (0, 1), BuildingBlock: XIVTED_clean_linker_0, # of connection points: 2
#     Edge 100, Type (0, 1), BuildingBlock: XIVTED_clean_linker_0, # of connection points: 2
#     Edge 101, Type (0, 1), BuildingBlock: XIVTED_clean_linker_0, # of connection points: 2
#     Edge 102, Type (0, 1), BuildingBlock: XIVTED_clean_linker_0, # of connection points: 2
#     Edge 103, Type (0, 1), BuildingBlock: XIVTED_clean_linker_0, # of connection points: 2
#     Edge 104, Type (0, 1), BuildingBlock: XIVTED_clean_linker_0, # of connection points: 2
#     Edge 105, Type (0, 1), BuildingBlock: XIVTED_clean_linker_0, # of connection points: 2
#     Edge 106, Type (0, 1), BuildingBlock: XIVTED_clean_linker_0, # of connection points: 2
#     Edge 107, Type (0, 1), BuildingBlock: XIVTED_clean_linker_0, # of connection points: 2
# Relax obj value: 0.067
# Max RMSD: 0.225
# Mean RMSD: 0.107
data_MOF--net-ptr--node1-TATPOV_clean_sbu_0--node2-MIFKUJ_clean_linker_1--edge1-XIVTED_clean_linker_0
_symmetry_space_group_name_H-M    P1
_symmetry_Int_Tables_number       1
_symmetry_cell_setting            triclinic
loop_
_symmetry_equiv_pos_as_xyz
'x, y, z'
_cell_length_a     89.647953
_cell_length_b     90.908778
_cell_length_c     60.656867
_cell_angle_alpha  89.735031
_cell_angle_beta   90.730355
_cell_angle_gamma 121.41673
loop_
_atom_site_label
_atom_site_type_symbol
_atom_site_fract_x
_atom_site_fract_y
_atom_site_fract_z
_atom_type_partial_charge
Zn0 Zn 0.96026 0.35538 0.0112 0.0
Zn1 Zn 0.9901 0.35694 0.02078 0.0
O2 O 0.97176 0.3314 0.01345 0.0
O3 O 0.94653 0.32962 0.0088 0.0
O4 O 0.01088 0.35526 0.0303 0.0
O5 O 0.96172 0.36745 0.03961 0.0
O6 O 0.98603 0.36814 0.04794 0.0
C7 C 0.9554 0.32244 0.00936 0.0
C8 C 0.98823 0.37523 0.97997 0.0
O9 O 0.99769 0.37248 0.9932 0.0
O10 O 0.97217 0.36903 0.98383 0.0
C11 C 0.01396 0.34465 0.02088 0.0
O12 O 0.00445 0.33595 0.00366 0.0
C13 C 0.97438 0.37161 0.05279 0.0
Zn14 Zn 0.65072 0.60699 0.00267 0.0
Zn15 Zn 0.6508 0.63557 0.01176 0.0
O16 O 0.67648 0.64428 0.00279 0.0
O17 O 0.67609 0.62035 0.99579 0.0
O18 O 0.65132 0.65732 0.02064 0.0
O19 O 0.64347 0.598 0.03319 0.0
O20 O 0.6423 0.62107 0.04054 0.0
C21 C 0.68437 0.63661 0.99707 0.0
C22 C 0.62723 0.61166 0.97467 0.0
O23 O 0.63288 0.62544 0.98591 0.0
O24 O 0.63282 0.60168 0.9788 0.0
C25 C 0.66252 0.67227 0.0136 0.0
O26 O 0.67411 0.67392 0.99918 0.0
C27 C 0.6404 0.60672 0.04653 0.0
Zn28 Zn 0.34667 0.96819 0.02977 0.0
Zn29 Zn 0.35281 0.99976 0.02087 0.0
O30 O 0.32665 0.98532 0.0288 0.0
O31 O 0.3209 0.95874 0.03214 0.0
O32 O 0.35488 0.02182 0.01058 0.0
O33 O 0.35664 0.96711 0.00063 0.0
O34 O 0.36092 0.99274 0.99333 0.0
C35 C 0.3158 0.96935 0.0321 0.0
C36 C 0.37109 0.99535 0.06024 0.0
O37 O 0.36944 0.00561 0.04746 0.0
O38 O 0.36249 0.97925 0.05654 0.0
C39 C 0.35082 0.03082 0.02213 0.0
O40 O 0.34636 0.02657 0.04278 0.0
C41 C 0.36187 0.97977 0.98767 0.0
Zn42 Zn 0.04137 0.65321 0.01614 0.0
Zn43 Zn 0.00896 0.64735 0.0093 0.0
O44 O 0.02483 0.67331 0.01591 0.0
O45 O 0.0518 0.67888 0.01805 0.0
O46 O 0.9865 0.64592 1.00045 0.0
O47 O 0.0404 0.64198 0.98701 0.0
O48 O 0.01394 0.63733 0.98191 0.0
C49 C 0.04114 0.68402 0.01856 0.0
C50 C 0.01505 0.63114 0.04902 0.0
O51 O 0.00411 0.63248 0.03686 0.0
O52 O 0.03107 0.63883 0.0439 0.0
C53 C 0.98091 0.65429 0.01058 0.0
O54 O 0.98896 0.66266 0.02872 0.0
C55 C 0.02664 0.63602 0.97532 0.0
Zn56 Zn 0.35303 0.39222 0.03443 0.0
Zn57 Zn 0.35079 0.36356 0.01979 0.0
O58 O 0.32553 0.35563 0.02975 0.0
O59 O 0.32737 0.37978 0.03968 0.0
O60 O 0.3478 0.34165 0.00714 0.0
O61 O 0.36218 0.40387 0.00526 0.0
O62 O 0.36012 0.38009 0.99305 0.0
C63 C 0.31833 0.36364 0.03679 0.0
C64 C 0.37431 0.38264 0.05947 0.0
O65 O 0.3689 0.37059 0.04522 0.0
O66 O 0.36914 0.39321 0.05868 0.0
C67 C 0.34674 0.3295 0.01883 0.0
O68 O 0.34805 0.33119 0.04038 0.0
C69 C 0.36394 0.39555 0.98988 0.0
Zn70 Zn 0.65523 0.03424 0.00517 0.0
Zn71 Zn 0.64777 0.00245 0.0141 0.0
O72 O 0.67437 0.0168 0.00828 0.0
O73 O 0.68102 0.04367 0.00499 0.0
O74 O 0.6445 0.97949 0.02283 0.0
O75 O 0.6438 0.03488 0.03301 0.0
O76 O 0.63877 0.00912 0.04135 0.0
C77 C 0.68569 0.03273 0.00567 0.0
C78 C 0.63192 0.0085 0.97309 0.0
O79 O 0.63256 0.99782 0.98619 0.0
O80 O 0.64083 0.02451 0.97723 0.0
C81 C 0.65281 0.97374 0.0128 0.0
O82 O 0.66234 0.98224 0.99573 0.0
C83 C 0.63785 0.02227 0.04616 0.0
Zn84 Zn 0.62241 0.68 0.34834 0.0
Zn85 Zn 0.65512 0.68803 0.3558 0.0
O86 O 0.64095 0.66189 0.34919 0.0
O87 O 0.61346 0.65466 0.34628 0.0
O88 O 0.67847 0.69133 0.36448 0.0
O89 O 0.6218 0.69058 0.37698 0.0
O90 O 0.64877 0.69707 0.38337 0.0
C91 C 0.62487 0.65046 0.34624 0.0
C92 C 0.64776 0.70357 0.31606 0.0
O93 O 0.65908 0.70268 0.32802 0.0
O94 O 0.63174 0.69501 0.32118 0.0
C95 C 0.68532 0.68465 0.35318 0.0
O96 O 0.67778 0.67688 0.33452 0.0
C97 C 0.63528 0.6973 0.38926 0.0
Zn98 Zn 0.30015 0.94093 0.33425 0.0
Zn99 Zn 0.30559 0.97079 0.34888 0.0
O100 O 0.32941 0.97707 0.33594 0.0
O101 O 0.32324 0.9533 0.31853 0.0
O102 O 0.30967 0.99339 0.36077 0.0
O103 O 0.2989 0.93273 0.36548 0.0
O104 O 0.29866 0.95558 0.37678 0.0
C105 C 0.33396 0.96893 0.32337 0.0
C106 C 0.27558 0.94897 0.31643 0.0
O107 O 0.28568 0.96342 0.32583 0.0
O108 O 0.27818 0.93664 0.31877 0.0
C109 C 0.32074 0.00795 0.35263 0.0
O110 O 0.32989 0.00857 0.33553 0.0
C111 C 0.29742 0.94122 0.38088 0.0
Zn112 Zn 0.02256 0.30892 0.37655 0.0
Zn113 Zn 0.02779 0.33908 0.36087 0.0
O114 O 0.00196 0.32574 0.37047 0.0
O115 O 0.99791 0.30146 0.3843 0.0
O116 O 0.02995 0.36021 0.34678 0.0
O117 O 0.02849 0.30341 0.34671 0.0
O118 O 0.03393 0.32869 0.33511 0.0
C119 C 0.9922 0.31125 0.37979 0.0
C120 C 0.04906 0.33918 0.40057 0.0
O121 O 0.04566 0.34767 0.38671 0.0
O122 O 0.0412 0.32289 0.39937 0.0
C123 C 0.03116 0.37291 0.35715 0.0
O124 O 0.03189 0.37312 0.3788 0.0
C125 C 0.0334 0.31462 0.33162 0.0
Zn126 Zn 0.70749 0.97898 0.35543 0.0
Zn127 Zn 0.67767 0.97659 0.34333 0.0
O128 O 0.6951 0.00255 0.34964 0.0
O129 O 0.7203 0.00476 0.35671 0.0
O130 O 0.65615 0.97659 0.33307 0.0
O131 O 0.70709 0.96668 0.32769 0.0
O132 O 0.68306 0.96571 0.31697 0.0
C133 C 0.71135 0.01177 0.3544 0.0
C134 C 0.67912 0.95914 0.3856 0.0
O135 O 0.67 0.96149 0.37134 0.0
O136 O 0.69536 0.96565 0.38285 0.0
C137 C 0.65161 0.98593 0.34298 0.0
O138 O 0.66057 0.99476 0.36044 0.0
C139 C 0.69505 0.96245 0.31347 0.0
Zn140 Zn 0.02391 0.72951 0.37086 0.0
Zn141 Zn 0.02569 0.70325 0.35639 0.0
O142 O 0.00047 0.69201 0.36877 0.0
O143 O 0.00046 0.71393 0.38407 0.0
O144 O 0.0265 0.68292 0.34422 0.0
O145 O 0.02634 0.73897 0.34033 0.0
O146 O 0.03065 0.71861 0.32869 0.0
C147 C 0.99283 0.69798 0.37998 0.0
C148 C 0.05204 0.72797 0.39116 0.0
O149 O 0.04568 0.714 0.3801 0.0
O150 O 0.04532 0.73719 0.38938 0.0
C151 C 0.01803 0.66802 0.3529 0.0
O152 O 0.00885 0.66578 0.37065 0.0
C153 C 0.02998 0.73208 0.3249 0.0
Zn154 Zn 0.3153 0.36698 0.32947 0.0
Zn155 Zn 0.30983 0.3367 0.34241 0.0
O156 O 0.33594 0.35081 0.33418 0.0
O157 O 0.34118 0.37698 0.32814 0.0
O158 O 0.30802 0.31532 0.35502 0.0
O159 O 0.30479 0.36963 0.35704 0.0
O160 O 0.30215 0.34547 0.36884 0.0
C161 C 0.34656 0.36663 0.3298 0.0
C162 C 0.29127 0.33832 0.30116 0.0
O163 O 0.29294 0.32902 0.3156 0.0
O164 O 0.29989 0.3546 0.30308 0.0
C165 C 0.31028 0.30486 0.34385 0.0
O166 O 0.31267 0.30716 0.32249 0.0
C167 C 0.30049 0.35841 0.37198 0.0
Zn168 Zn 0.29795 0.02559 0.67055 0.0
Zn169 Zn 0.32796 0.02884 0.68371 0.0
O170 O 0.31181 0.00302 0.67572 0.0
O171 O 0.28635 0.99992 0.66762 0.0
O172 O 0.34932 0.02925 0.69533 0.0
O173 O 0.29664 0.03642 0.69885 0.0
O174 O 0.32091 0.03814 0.71016 0.0
C175 C 0.29581 0.99345 0.66999 0.0
C176 C 0.32725 0.04748 0.64232 0.0
O177 O 0.33622 0.04498 0.65667 0.0
O178 O 0.31086 0.04034 0.64432 0.0
C179 C 0.35611 0.02224 0.68465 0.0
O180 O 0.34973 0.01563 0.6651 0.0
C181 C 0.30834 0.04058 0.71354 0.0
Zn182 Zn 0.97754 0.27708 0.65785 0.0
Zn183 Zn 0.97705 0.30353 0.67553 0.0
O184 O 0.00308 0.31352 0.66783 0.0
O185 O 0.00375 0.29071 0.65734 0.0
O186 O 0.97789 0.32392 0.68994 0.0
O187 O 0.96549 0.26261 0.68449 0.0
O188 O 0.9673 0.28523 0.70028 0.0
C189 C 0.01163 0.30664 0.66169 0.0
C190 C 0.9569 0.28712 0.63258 0.0
O191 O 0.96021 0.29728 0.64881 0.0
O192 O 0.96351 0.27776 0.63194 0.0
C193 C 0.97799 0.33598 0.67911 0.0
O194 O 0.977 0.3351 0.65748 0.0
C195 C 0.96306 0.2695 0.70106 0.0
Zn196 Zn 0.68413 0.63617 0.69789 0.0
Zn197 Zn 0.68845 0.6669 0.6862 0.0
O198 O 0.66261 0.65193 0.69519 0.0
O199 O 0.65833 0.62617 0.70179 0.0
O200 O 0.69011 0.68888 0.67621 0.0
O201 O 0.69284 0.63444 0.668 0.0
O202 O 0.69553 0.65911 0.65849 0.0
C203 C 0.65249 0.63616 0.70031 0.0
C204 C 0.70911 0.66514 0.72528 0.0
O205 O 0.70608 0.67409 0.71179 0.0
O206 O 0.7011 0.64888 0.72329 0.0
C207 C 0.68216 0.6949 0.68648 0.0
O208 O 0.67359 0.68713 0.70445 0.0
C209 C 0.69672 0.64611 0.65379 0.0
Zn210 Zn 0.37856 0.32013 0.68638 0.0
Zn211 Zn 0.34667 0.31355 0.67663 0.0
O212 O 0.36037 0.33898 0.68682 0.0
O213 O 0.38636 0.34411 0.69672 0.0
O214 O 0.32395 0.311 0.66637 0.0
O215 O 0.38212 0.31479 0.65536 0.0
O216 O 0.35485 0.30712 0.6485 0.0
C217 C 0.37559 0.34907 0.69485 0.0
C218 C 0.35102 0.29277 0.71269 0.0
O219 O 0.34081 0.29628 0.70224 0.0
O220 O 0.36717 0.30079 0.70832 0.0
C221 C 0.31613 0.31649 0.67797 0.0
O222 O 0.32217 0.32251 0.69784 0.0
C223 C 0.36907 0.3085 0.64233 0.0
Zn224 Zn 0.68903 0.06276 0.68593 0.0
Zn225 Zn 0.69052 0.03467 0.67692 0.0
O226 O 0.66478 0.02519 0.68575 0.0
O227 O 0.66324 0.0483 0.69123 0.0
O228 O 0.69043 0.01317 0.66821 0.0
O229 O 0.69711 0.07197 0.65553 0.0
O230 O 0.69901 0.04928 0.64833 0.0
C231 C 0.65596 0.03208 0.69051 0.0
C232 C 0.71272 0.0583 0.71467 0.0
O233 O 0.70796 0.04492 0.70296 0.0
O234 O 0.70649 0.06777 0.7107 0.0
C235 C 0.68063 0.99871 0.67747 0.0
O236 O 0.67077 0.99776 0.6939 0.0
C237 C 0.70069 0.06354 0.64234 0.0
Zn238 Zn 0.97878 0.69616 0.65174 0.0
Zn239 Zn 0.97913 0.66887 0.66794 0.0
O240 O 0.00415 0.68469 0.65597 0.0
O241 O 0.00403 0.70754 0.64414 0.0
O242 O 0.98071 0.64959 0.68203 0.0
O243 O 0.97182 0.70062 0.68137 0.0
O244 O 0.97242 0.67829 0.69437 0.0
C245 C 0.01203 0.69963 0.64724 0.0
C246 C 0.95451 0.66405 0.62972 0.0
O247 O 0.95972 0.65737 0.64406 0.0
O248 O 0.96083 0.68017 0.62937 0.0
C249 C 0.97953 0.63689 0.6717 0.0
O250 O 0.97667 0.6356 0.6503 0.0
C251 C 0.97001 0.69078 0.69728 0.0
H252 H 0.11478 0.31878 0.15597 0.0
H253 H 0.0951 0.32152 0.18051 0.0
H254 H 0.07997 0.27211 0.20938 0.0
H255 H 0.09863 0.26889 0.18353 0.0
H256 H 0.1328 0.28902 0.18449 0.0
H257 H 0.13369 0.32486 0.10826 0.0
H258 H 0.11512 0.33275 0.08813 0.0
H259 H 0.0695 0.28412 0.10596 0.0
H260 H 0.08825 0.27619 0.12606 0.0
H261 H 0.15644 0.2786 0.10094 0.0
H262 H 0.18385 0.28799 0.08133 0.0
H263 H 0.21009 0.33355 0.12233 0.0
H264 H 0.18283 0.32426 0.14152 0.0
H265 H 0.14017 0.29965 0.10401 0.0
H266 H 0.16411 0.27319 0.15529 0.0
H267 H 0.18927 0.27731 0.17744 0.0
H268 H 0.19101 0.3198 0.21142 0.0
H269 H 0.16601 0.31561 0.18962 0.0
C270 C 0.10801 0.29348 0.16759 0.0
C271 C 0.10671 0.30822 0.16696 0.0
C272 C 0.09566 0.30992 0.18138 0.0
C273 C 0.08603 0.29715 0.19722 0.0
C274 C 0.08693 0.28214 0.19728 0.0
C275 C 0.09774 0.28032 0.18259 0.0
C276 C 0.12168 0.29278 0.15484 0.0
C277 C 0.13409 0.29086 0.16677 0.0
C278 C 0.12385 0.29592 0.13186 0.0
C279 C 0.11236 0.29994 0.11868 0.0
C280 C 0.11971 0.3158 0.10765 0.0
C281 C 0.10908 0.32037 0.09633 0.0
C282 C 0.09086 0.3091 0.09559 0.0
C283 C 0.08352 0.29302 0.10617 0.0
C284 C 0.09418 0.28851 0.11771 0.0
C285 C 0.16769 0.30067 0.12277 0.0
C286 C 0.16817 0.29052 0.10575 0.0
C287 C 0.1838 0.29584 0.09467 0.0
C288 C 0.19904 0.31154 0.10024 0.0
C289 C 0.19851 0.32149 0.11752 0.0
C290 C 0.18298 0.31614 0.12862 0.0
C291 C 0.15109 0.29583 0.13372 0.0
C292 C 0.13827 0.29687 0.12151 0.0
C293 C 0.149 0.29285 0.15666 0.0
C294 C 0.16321 0.2941 0.17085 0.0
C295 C 0.16983 0.28325 0.1677 0.0
C296 C 0.18411 0.28556 0.18034 0.0
C297 C 0.19207 0.29893 0.19597 0.0
C298 C 0.18517 0.30949 0.19934 0.0
C299 C 0.17083 0.30703 0.18701 0.0
H300 H 0.71289 0.87565 0.16091 0.0
H301 H 0.71595 0.898 0.18602 0.0
H302 H 0.66062 0.87852 0.17889 0.0
H303 H 0.65794 0.85669 0.15297 0.0
H304 H 0.68784 0.83882 0.17072 0.0
H305 H 0.70178 0.8817 0.11253 0.0
H306 H 0.69673 0.90239 0.09296 0.0
H307 H 0.64332 0.86201 0.07961 0.0
H308 H 0.64843 0.84141 0.09931 0.0
H309 H 0.65115 0.79782 0.09302 0.0
H310 H 0.64825 0.77315 0.07286 0.0
H311 H 0.69917 0.78585 0.09699 0.0
H312 H 0.70207 0.81057 0.11689 0.0
H313 H 0.67297 0.83156 0.09092 0.0
H314 H 0.6562 0.78864 0.14266 0.0
H315 H 0.65259 0.76637 0.16814 0.0
H316 H 0.70159 0.80275 0.20012 0.0
H317 H 0.70578 0.82473 0.17337 0.0
C318 C 0.68521 0.86457 0.15513 0.0
C319 C 0.70151 0.87643 0.1645 0.0
C320 C 0.70317 0.88909 0.17901 0.0
C321 C 0.68847 0.88993 0.18484 0.0
C322 C 0.67226 0.8784 0.17469 0.0
C323 C 0.67067 0.86585 0.15992 0.0
C324 C 0.68316 0.84988 0.14211 0.0
C325 C 0.68507 0.83737 0.15314 0.0
C326 C 0.67832 0.84756 0.11958 0.0
C327 C 0.67545 0.86006 0.10743 0.0
C328 C 0.68899 0.87733 0.10541 0.0
C329 C 0.68612 0.8891 0.09412 0.0
C330 C 0.66962 0.8838 0.08478 0.0
C331 C 0.65611 0.86648 0.08682 0.0
C332 C 0.65904 0.85469 0.09792 0.0
C333 C 0.67678 0.80599 0.10656 0.0
C334 C 0.66173 0.79536 0.09382 0.0
C335 C 0.66004 0.7812 0.08246 0.0
C336 C 0.67346 0.77754 0.08339 0.0
C337 C 0.68866 0.78841 0.09581 0.0
C338 C 0.69028 0.80247 0.10731 0.0
C339 C 0.67832 0.82062 0.11937 0.0
C340 C 0.67615 0.83305 0.10839 0.0
C341 C 0.68224 0.82251 0.14227 0.0
C342 C 0.68135 0.80841 0.15587 0.0
C343 C 0.66653 0.79171 0.15456 0.0
C344 C 0.66432 0.77902 0.16948 0.0
C345 C 0.67663 0.78282 0.1865 0.0
C346 C 0.69188 0.79931 0.18718 0.0
C347 C 0.69422 0.81196 0.17199 0.0
H348 H 0.0923 0.84363 0.16837 0.0
H349 H 0.07134 0.82091 0.19276 0.0
H350 H 0.10043 0.79519 0.18801 0.0
H351 H 0.12068 0.8175 0.16281 0.0
H352 H 0.13131 0.86294 0.1799 0.0
H353 H 0.08963 0.8276 0.11901 0.0
H354 H 0.07318 0.80152 0.09627 0.0
H355 H 0.1201 0.79966 0.08902 0.0
H356 H 0.13636 0.82575 0.11108 0.0
H357 H 0.17332 0.86696 0.1082 0.0
H358 H 0.19917 0.88676 0.08749 0.0
H359 H 0.19196 0.92877 0.10433 0.0
H360 H 0.16575 0.90864 0.1253 0.0
H361 H 0.14134 0.8573 0.10109 0.0
H362 H 0.18303 0.88536 0.15665 0.0
H363 H 0.20434 0.90539 0.18343 0.0
H364 H 0.16569 0.91502 0.20961 0.0
H365 H 0.14447 0.8956 0.18183 0.0
C366 C 0.10795 0.83217 0.16381 0.0
C367 C 0.09389 0.83289 0.17232 0.0
C368 C 0.08203 0.81995 0.1864 0.0
C369 C 0.08425 0.80624 0.19265 0.0
C370 C 0.09808 0.80533 0.18341 0.0
C371 C 0.10977 0.81815 0.16907 0.0
C372 C 0.12167 0.84679 0.15111 0.0
C373 C 0.13333 0.86206 0.16247 0.0
C374 C 0.12474 0.84502 0.12884 0.0
C375 C 0.11421 0.82864 0.11656 0.0
C376 C 0.09627 0.82146 0.11257 0.0
C377 C 0.08691 0.80656 0.09961 0.0
C378 C 0.09539 0.79865 0.09051 0.0
C379 C 0.11325 0.80567 0.09519 0.0
C380 C 0.12255 0.82052 0.10796 0.0
C381 C 0.16747 0.88626 0.11813 0.0
C382 C 0.17717 0.8804 0.10734 0.0
C383 C 0.19194 0.89174 0.09542 0.0
C384 C 0.19742 0.90927 0.09392 0.0
C385 C 0.188 0.91531 0.10516 0.0
C386 C 0.17306 0.90385 0.11713 0.0
C387 C 0.15137 0.8736 0.12987 0.0
C388 C 0.13916 0.85868 0.11833 0.0
C389 C 0.14856 0.87528 0.15242 0.0
C390 C 0.16215 0.88919 0.16677 0.0
C391 C 0.17927 0.89233 0.16738 0.0
C392 C 0.19146 0.90372 0.18284 0.0
C393 C 0.18666 0.9118 0.19847 0.0
C394 C 0.1697 0.90898 0.19765 0.0
C395 C 0.1576 0.89788 0.18182 0.0
H396 H 0.28627 0.17098 0.85734 0.0
H397 H 0.29054 0.19235 0.82945 0.0
H398 H 0.34139 0.22802 0.85767 0.0
H399 H 0.33743 0.20644 0.8847 0.0
H400 H 0.30483 0.15661 0.8591 0.0
H401 H 0.29307 0.18841 0.91057 0.0
H402 H 0.298 0.21431 0.92946 0.0
H403 H 0.34648 0.2224 0.95669 0.0
H404 H 0.34164 0.19665 0.93755 0.0
H405 H 0.34296 0.15645 0.93613 0.0
H406 H 0.34932 0.13686 0.95604 0.0
H407 H 0.30052 0.09343 0.93261 0.0
H408 H 0.29384 0.11306 0.91337 0.0
H409 H 0.31958 0.16452 0.93888 0.0
H410 H 0.33597 0.14043 0.87717 0.0
H411 H 0.33454 0.1196 0.85051 0.0
H412 H 0.27893 0.09829 0.84256 0.0
H413 H 0.28074 0.11969 0.86839 0.0
C414 C 0.3115 0.18707 0.87319 0.0
C415 C 0.29821 0.18352 0.85773 0.0
C416 C 0.30061 0.19579 0.84188 0.0
C417 C 0.31639 0.2118 0.84118 0.0
C418 C 0.3292 0.21569 0.85754 0.0
C419 C 0.32685 0.20342 0.87324 0.0
C420 C 0.31046 0.17313 0.88725 0.0
C421 C 0.30761 0.15817 0.87669 0.0
C422 C 0.31453 0.17534 0.9101 0.0
C423 C 0.31706 0.19062 0.92242 0.0
C424 C 0.30481 0.1958 0.92051 0.0
C425 C 0.30764 0.21061 0.93131 0.0
C426 C 0.32267 0.22044 0.9445 0.0
C427 C 0.3347 0.21501 0.94683 0.0
C428 C 0.33193 0.20028 0.93589 0.0
C429 C 0.31803 0.13627 0.92292 0.0
C430 C 0.33351 0.14273 0.93544 0.0
C431 C 0.33715 0.13154 0.94682 0.0
C432 C 0.32546 0.11364 0.94574 0.0
C433 C 0.30987 0.10717 0.93345 0.0
C434 C 0.3061 0.11838 0.92236 0.0
C435 C 0.31453 0.14833 0.91048 0.0
C436 C 0.31646 0.16286 0.92139 0.0
C437 C 0.3098 0.14589 0.88787 0.0
C438 C 0.30847 0.13158 0.87467 0.0
C439 C 0.32345 0.13106 0.8699 0.0
C440 C 0.32257 0.11908 0.8547 0.0
C441 C 0.30665 0.10736 0.84409 0.0
C442 C 0.2915 0.10738 0.84993 0.0
C443 C 0.29245 0.11949 0.86486 0.0
H444 H 0.84408 0.10794 0.84573 0.0
H445 H 0.81963 0.09252 0.81967 0.0
H446 H 0.78837 0.10541 0.85946 0.0
H447 H 0.813 0.12161 0.88444 0.0
H448 H 0.86055 0.14101 0.85112 0.0
H449 H 0.83099 0.09381 0.90365 0.0
H450 H 0.8062 0.07266 0.92581 0.0
H451 H 0.80292 0.11409 0.95524 0.0
H452 H 0.82744 0.13489 0.93345 0.0
H453 H 0.85952 0.17262 0.92877 0.0
H454 H 0.87513 0.19972 0.94855 0.0
H455 H 0.92405 0.20869 0.92321 0.0
H456 H 0.90823 0.1807 0.9042 0.0
H457 H 0.8591 0.1445 0.93241 0.0
H458 H 0.87482 0.18668 0.87126 0.0
H459 H 0.89293 0.20832 0.84377 0.0
H460 H 0.91837 0.18003 0.82996 0.0
H461 H 0.89982 0.15824 0.85692 0.0
C462 C 0.83041 0.11582 0.86727 0.0
C463 C 0.83184 0.10715 0.84904 0.0
C464 C 0.81781 0.09826 0.8342 0.0
C465 C 0.8021 0.09791 0.83731 0.0
C466 C 0.80038 0.10568 0.85632 0.0
C467 C 0.81441 0.1147 0.87094 0.0
C468 C 0.84614 0.12821 0.8804 0.0
C469 C 0.86041 0.14147 0.86898 0.0
C470 C 0.846 0.12905 0.9037 0.0
C471 C 0.83119 0.11596 0.91702 0.0
C472 C 0.82492 0.09827 0.91496 0.0
C473 C 0.81078 0.08622 0.92761 0.0
C474 C 0.80276 0.09171 0.94256 0.0
C475 C 0.80908 0.10942 0.94442 0.0
C476 C 0.82311 0.12137 0.93186 0.0
C477 C 0.88264 0.17456 0.91487 0.0
C478 C 0.87364 0.18026 0.9276 0.0
C479 C 0.88259 0.19593 0.93872 0.0
C480 C 0.90084 0.20655 0.9372 0.0
C481 C 0.90999 0.20079 0.92475 0.0
C482 C 0.90095 0.18488 0.91369 0.0
C483 C 0.87235 0.15789 0.90291 0.0
C484 C 0.85943 0.14366 0.9146 0.0
C485 C 0.87326 0.15647 0.87986 0.0
C486 C 0.88605 0.17093 0.86609 0.0
C487 C 0.88455 0.18537 0.86258 0.0
C488 C 0.89495 0.19774 0.8469 0.0
C489 C 0.90698 0.19582 0.83445 0.0
C490 C 0.909 0.18173 0.8389 0.0
C491 C 0.89852 0.16934 0.85443 0.0
H492 H 0.83458 0.68967 0.83126 0.0
H493 H 0.81139 0.68884 0.80879 0.0
H494 H 0.80942 0.72479 0.85293 0.0
H495 H 0.83353 0.72654 0.87497 0.0
H496 H 0.86515 0.71054 0.84049 0.0
H497 H 0.81561 0.67837 0.88422 0.0
H498 H 0.78905 0.66981 0.90472 0.0
H499 H 0.81779 0.71434 0.94697 0.0
H500 H 0.84453 0.72299 0.92616 0.0
H501 H 0.89774 0.72141 0.92635 0.0
H502 H 0.91505 0.71236 0.94753 0.0
H503 H 0.89171 0.66517 0.90949 0.0
H504 H 0.87492 0.67455 0.88818 0.0
H505 H 0.85949 0.70189 0.92142 0.0
H506 H 0.9116 0.72664 0.87089 0.0
H507 H 0.93233 0.72428 0.84716 0.0
H508 H 0.88931 0.67883 0.81656 0.0
H509 H 0.86881 0.68135 0.84 0.0
C510 C 0.83587 0.70814 0.85495 0.0
C511 C 0.82952 0.69772 0.83597 0.0
C512 C 0.81622 0.69716 0.82316 0.0
C513 C 0.80879 0.70678 0.82922 0.0
C514 C 0.81507 0.7173 0.84803 0.0
C515 C 0.82871 0.71817 0.86066 0.0
C516 C 0.84965 0.708 0.86879 0.0
C517 C 0.86387 0.70874 0.85821 0.0
C518 C 0.84816 0.70563 0.89195 0.0
C519 C 0.83198 0.70139 0.90357 0.0
C520 C 0.81617 0.68645 0.89768 0.0
C521 C 0.80104 0.68151 0.90948 0.0
C522 C 0.80143 0.69138 0.92748 0.0
C523 C 0.81716 0.70659 0.93307 0.0
C524 C 0.8324 0.71148 0.92131 0.0
C525 C 0.88531 0.69879 0.90548 0.0
C526 C 0.8965 0.70919 0.92255 0.0
C527 C 0.90627 0.70391 0.93472 0.0
C528 C 0.90485 0.68804 0.93018 0.0
C529 C 0.89345 0.67762 0.91316 0.0
C530 C 0.8838 0.68295 0.90096 0.0
C531 C 0.87451 0.70396 0.89292 0.0
C532 C 0.861 0.70434 0.90382 0.0
C533 C 0.87589 0.70613 0.86984 0.0
C534 C 0.88872 0.70422 0.85704 0.0
C535 C 0.90673 0.7161 0.8592 0.0
C536 C 0.91851 0.71475 0.84566 0.0
C537 C 0.91241 0.70134 0.83009 0.0
C538 C 0.89441 0.68916 0.82859 0.0
C539 C 0.88268 0.69067 0.84183 0.0
H540 H 0.8029 0.6607 0.51511 0.0
H541 H 0.78193 0.6631 0.53771 0.0
H542 H 0.73937 0.62038 0.50231 0.0
H543 H 0.76061 0.61812 0.47951 0.0
H544 H 0.80383 0.6294 0.51337 0.0
H545 H 0.79977 0.6705 0.46646 0.0
H546 H 0.78284 0.68022 0.446 0.0
H547 H 0.75994 0.63401 0.40605 0.0
H548 H 0.77733 0.62463 0.42636 0.0
H549 H 0.82897 0.62016 0.42957 0.0
H550 H 0.85682 0.6253 0.41525 0.0
H551 H 0.88471 0.66703 0.46197 0.0
H552 H 0.85705 0.66156 0.47632 0.0
H553 H 0.81618 0.64371 0.43409 0.0
H554 H 0.83384 0.61139 0.47936 0.0
H555 H 0.85501 0.60869 0.50239 0.0
H556 H 0.85417 0.64316 0.55031 0.0
H557 H 0.83401 0.64674 0.52689 0.0
C558 C 0.78326 0.6392 0.49576 0.0
C559 C 0.78904 0.65201 0.51202 0.0
C560 C 0.77705 0.65344 0.52479 0.0
C561 C 0.75901 0.64194 0.52174 0.0
C562 C 0.75321 0.62937 0.50503 0.0
C563 C 0.76528 0.62808 0.49201 0.0
C564 C 0.79628 0.63706 0.4838 0.0
C565 C 0.80659 0.63246 0.49603 0.0
C566 C 0.79945 0.64071 0.46112 0.0
C567 C 0.78963 0.64677 0.44805 0.0
C568 C 0.7911 0.6625 0.45327 0.0
C569 C 0.78135 0.66798 0.4416 0.0
C570 C 0.76989 0.65784 0.42446 0.0
C571 C 0.76876 0.64225 0.41897 0.0
C572 C 0.77861 0.63681 0.43062 0.0
C573 C 0.841 0.64031 0.4542 0.0
C574 C 0.84114 0.63042 0.4366 0.0
C575 C 0.85705 0.63339 0.42845 0.0
C576 C 0.87302 0.64639 0.43771 0.0
C577 C 0.8727 0.65658 0.45487 0.0
C578 C 0.85689 0.65358 0.46299 0.0
C579 C 0.82439 0.63679 0.46395 0.0
C580 C 0.81325 0.64015 0.45129 0.0
C581 C 0.82082 0.63254 0.48658 0.0
C582 C 0.83245 0.62947 0.50115 0.0
C583 C 0.8383 0.61848 0.49473 0.0
C584 C 0.85025 0.6168 0.50795 0.0
C585 C 0.85606 0.62562 0.52814 0.0
C586 C 0.84968 0.63602 0.53496 0.0
C587 C 0.83813 0.63805 0.52155 0.0
H588 H 0.38819 0.22164 0.4914 0.0
H589 H 0.39166 0.24518 0.51447 0.0
H590 H 0.33555 0.22244 0.51357 0.0
H591 H 0.33242 0.1995 0.48948 0.0
H592 H 0.36594 0.18505 0.50418 0.0
H593 H 0.37165 0.22535 0.44787 0.0
H594 H 0.36347 0.24394 0.42882 0.0
H595 H 0.3129 0.19951 0.41286 0.0
H596 H 0.32084 0.18099 0.43261 0.0
H597 H 0.32224 0.13924 0.43438 0.0
H598 H 0.31701 0.11305 0.4159 0.0
H599 H 0.37015 0.12719 0.43067 0.0
H600 H 0.37537 0.15347 0.44886 0.0
H601 H 0.34404 0.17278 0.42689 0.0
H602 H 0.3321 0.13435 0.48455 0.0
H603 H 0.33238 0.11334 0.50917 0.0
H604 H 0.38645 0.14986 0.52603 0.0
H605 H 0.38599 0.17105 0.50127 0.0
C606 C 0.36007 0.2089 0.48875 0.0
C607 C 0.3767 0.22191 0.49598 0.0
C608 C 0.37861 0.23528 0.50933 0.0
C609 C 0.36387 0.23569 0.5162 0.0
C610 C 0.34724 0.22277 0.50844 0.0
C611 C 0.34538 0.20955 0.49477 0.0
C612 C 0.35801 0.19404 0.47613 0.0
C613 C 0.36156 0.18256 0.4871 0.0
C614 C 0.35134 0.1904 0.45426 0.0
C615 C 0.34676 0.20177 0.44207 0.0
C616 C 0.3587 0.21961 0.4406 0.0
C617 C 0.35406 0.23022 0.42961 0.0
C618 C 0.33754 0.22316 0.41945 0.0
C619 C 0.32576 0.20528 0.42043 0.0
C620 C 0.33031 0.1947 0.43171 0.0
C621 C 0.34917 0.14827 0.44307 0.0
C622 C 0.33279 0.13676 0.43348 0.0
C623 C 0.32978 0.12173 0.42311 0.0
C624 C 0.34315 0.11803 0.4219 0.0
C625 C 0.35963 0.12974 0.43118 0.0
C626 C 0.36259 0.1447 0.4417 0.0
C627 C 0.35212 0.16386 0.45489 0.0
C628 C 0.34873 0.17544 0.44383 0.0
C629 C 0.35822 0.16727 0.477 0.0
C630 C 0.3591 0.1542 0.49078 0.0
C631 C 0.34415 0.13774 0.49315 0.0
C632 C 0.34435 0.1257 0.50726 0.0
C633 C 0.3595 0.12983 0.51949 0.0
C634 C 0.37455 0.14629 0.51696 0.0
C635 C 0.37433 0.15838 0.50277 0.0
H636 H 0.77058 0.17706 0.50002 0.0
H637 H 0.75119 0.1528 0.52342 0.0
H638 H 0.77249 0.12352 0.49706 0.0
H639 H 0.79242 0.14824 0.47429 0.0
H640 H 0.80711 0.19399 0.50287 0.0
H641 H 0.76118 0.15703 0.44773 0.0
H642 H 0.74577 0.12925 0.42841 0.0
H643 H 0.79455 0.14043 0.39992 0.0
H644 H 0.80991 0.16731 0.42029 0.0
H645 H 0.84216 0.20749 0.41899 0.0
H646 H 0.86873 0.23098 0.40282 0.0
H647 H 0.86387 0.26773 0.44201 0.0
H648 H 0.83655 0.24423 0.45734 0.0
H649 H 0.81068 0.19543 0.42135 0.0
H650 H 0.85478 0.21552 0.47522 0.0
H651 H 0.87872 0.23457 0.49987 0.0
H652 H 0.84552 0.24963 0.53103 0.0
H653 H 0.82133 0.22994 0.50653 0.0
C654 C 0.78277 0.16439 0.48524 0.0
C655 C 0.77094 0.16535 0.49913 0.0
C656 C 0.75975 0.15138 0.51237 0.0
C657 C 0.76017 0.13611 0.51204 0.0
C658 C 0.7719 0.1351 0.49784 0.0
C659 C 0.78317 0.14915 0.48464 0.0
C660 C 0.79557 0.17987 0.47278 0.0
C661 C 0.80765 0.19446 0.485 0.0
C662 C 0.79696 0.18001 0.44953 0.0
C663 C 0.78679 0.16417 0.43588 0.0
C664 C 0.76853 0.15344 0.43738 0.0
C665 C 0.7597 0.13764 0.42611 0.0
C666 C 0.76897 0.13244 0.41291 0.0
C667 C 0.78705 0.14375 0.41041 0.0
C668 C 0.79585 0.15931 0.42186 0.0
C669 C 0.83739 0.22399 0.4397 0.0
C670 C 0.84639 0.22061 0.42364 0.0
C671 C 0.86161 0.23404 0.41438 0.0
C672 C 0.8683 0.2511 0.42123 0.0
C673 C 0.85895 0.25464 0.43653 0.0
C674 C 0.84345 0.24121 0.44541 0.0
C675 C 0.82251 0.2094 0.45145 0.0
C676 C 0.80989 0.19513 0.43919 0.0
C677 C 0.8216 0.20881 0.47475 0.0
C678 C 0.83634 0.22146 0.48888 0.0
C679 C 0.85273 0.22311 0.48716 0.0
C680 C 0.86647 0.23413 0.50124 0.0
C681 C 0.86418 0.24381 0.51743 0.0
C682 C 0.84775 0.24227 0.51894 0.0
C683 C 0.83392 0.2311 0.50489 0.0
H684 H 0.96791 0.51444 0.19818 0.0
H685 H 0.96657 0.53508 0.17344 0.0
H686 H 0.02139 0.57163 0.18648 0.0
H687 H 0.02236 0.55123 0.21161 0.0
H688 H 0.98873 0.50094 0.19249 0.0
H689 H 0.97812 0.52966 0.24961 0.0
H690 H 0.98148 0.55455 0.26957 0.0
H691 H 0.03572 0.57207 0.28277 0.0
H692 H 0.03228 0.5471 0.26262 0.0
H693 H 0.03343 0.50247 0.26347 0.0
H694 H 0.03962 0.48272 0.2834 0.0
H695 H 0.98764 0.4404 0.26771 0.0
H696 H 0.98135 0.46021 0.24831 0.0
H697 H 0.01097 0.51227 0.26966 0.0
H698 H 0.02101 0.48428 0.20637 0.0
H699 H 0.01648 0.46142 0.18096 0.0
H700 H 0.96092 0.44175 0.18018 0.0
H701 H 0.96576 0.4651 0.20464 0.0
C702 C 0.99519 0.53136 0.20685 0.0
C703 C 0.97953 0.52703 0.19592 0.0
C704 C 0.97883 0.53881 0.18167 0.0
C705 C 0.99387 0.55507 0.17784 0.0
C706 C 0.00943 0.55944 0.18929 0.0
C707 C 0.01005 0.54774 0.20366 0.0
C708 C 0.9966 0.51836 0.22005 0.0
C709 C 0.99327 0.50324 0.20952 0.0
C710 C 0.00283 0.52155 0.24209 0.0
C711 C 0.00497 0.53657 0.25454 0.0
C712 C 0.99075 0.53888 0.25677 0.0
C713 C 0.99266 0.55304 0.2683 0.0
C714 C 0.00887 0.56525 0.27775 0.0
C715 C 0.02311 0.56294 0.27551 0.0
C716 C 0.02114 0.54864 0.26415 0.0
C717 C 0.00703 0.48281 0.25403 0.0
C718 C 0.02334 0.48895 0.2644 0.0
C719 C 0.02686 0.47767 0.2758 0.0
C720 C 0.01416 0.46 0.27696 0.0
C721 C 0.99779 0.4539 0.26675 0.0
C722 C 0.99421 0.46521 0.25558 0.0
C723 C 0.00336 0.49486 0.24194 0.0
C724 C 0.00632 0.50987 0.25269 0.0
C725 C 0.99662 0.4915 0.2201 0.0
C726 C 0.99372 0.47639 0.20726 0.0
C727 C 0.00785 0.47488 0.20088 0.0
C728 C 0.00521 0.46174 0.18642 0.0
C729 C 0.98835 0.44981 0.17821 0.0
C730 C 0.97415 0.45094 0.18563 0.0
C731 C 0.97684 0.46419 0.19979 0.0
H732 H 0.51223 0.43915 0.183 0.0
H733 H 0.48775 0.41933 0.15885 0.0
H734 H 0.4567 0.43867 0.18554 0.0
H735 H 0.4809 0.45798 0.20966 0.0
H736 H 0.5288 0.47572 0.18411 0.0
H737 H 0.49607 0.42759 0.23614 0.0
H738 H 0.46981 0.40689 0.25648 0.0
H739 H 0.46555 0.44903 0.28138 0.0
H740 H 0.4916 0.4694 0.26143 0.0
H741 H 0.52887 0.50854 0.26183 0.0
H742 H 0.54678 0.5338 0.28463 0.0
H743 H 0.59303 0.53372 0.2655 0.0
H744 H 0.57482 0.50829 0.24217 0.0
H745 H 0.52373 0.47724 0.26522 0.0
H746 H 0.54671 0.5231 0.21308 0.0
H747 H 0.56783 0.54733 0.19076 0.0
H748 H 0.58491 0.51503 0.16252 0.0
H749 H 0.56436 0.49114 0.1857 0.0
C750 C 0.49827 0.44979 0.1984 0.0
C751 C 0.50004 0.43891 0.18374 0.0
C752 C 0.48607 0.42766 0.1699 0.0
C753 C 0.47014 0.42724 0.17037 0.0
C754 C 0.46853 0.43823 0.1851 0.0
C755 C 0.48242 0.44937 0.1989 0.0
C756 C 0.51316 0.46242 0.21234 0.0
C757 C 0.52797 0.47583 0.20193 0.0
C758 C 0.51172 0.46289 0.23547 0.0
C759 C 0.49586 0.45004 0.24742 0.0
C760 C 0.48944 0.43229 0.24603 0.0
C761 C 0.47445 0.4205 0.25763 0.0
C762 C 0.46575 0.42633 0.27084 0.0
C763 C 0.47219 0.44411 0.27192 0.0
C764 C 0.48706 0.45579 0.26041 0.0
C765 C 0.55048 0.50646 0.25041 0.0
C766 C 0.54286 0.51386 0.26262 0.0
C767 C 0.55313 0.52827 0.27578 0.0
C768 C 0.57133 0.53563 0.27722 0.0
C769 C 0.57905 0.52836 0.26473 0.0
C770 C 0.56868 0.51385 0.25143 0.0
C771 C 0.53899 0.49089 0.23695 0.0
C772 C 0.52492 0.47685 0.24748 0.0
C773 C 0.54064 0.49036 0.21385 0.0
C774 C 0.55418 0.50538 0.20136 0.0
C775 C 0.55533 0.52137 0.2025 0.0
C776 C 0.56726 0.53516 0.1895 0.0
C777 C 0.57812 0.53317 0.17484 0.0
C778 C 0.57702 0.51716 0.17391 0.0
C779 C 0.56516 0.50342 0.18701 0.0
H780 H 0.55741 0.05073 0.19854 0.0
H781 H 0.57944 0.05205 0.17397 0.0
H782 H 0.55452 0.99658 0.17772 0.0
H783 H 0.53313 0.9956 0.2032 0.0
H784 H 0.51892 0.02801 0.18689 0.0
H785 H 0.56163 0.03925 0.24571 0.0
H786 H 0.5819 0.0329 0.26472 0.0
H787 H 0.53945 0.98079 0.27636 0.0
H788 H 0.51926 0.9872 0.25719 0.0
H789 H 0.47803 0.99205 0.26496 0.0
H790 H 0.4516 0.98772 0.28259 0.0
H791 H 0.46088 0.03551 0.25485 0.0
H792 H 0.48791 0.04045 0.23835 0.0
H793 H 0.51058 0.01227 0.26615 0.0
H794 H 0.46892 0.99632 0.2086 0.0
H795 H 0.44649 0.99581 0.18499 0.0
H796 H 0.48249 0.04893 0.16701 0.0
H797 H 0.5051 0.04907 0.19026 0.0
C798 C 0.5437 0.02309 0.2026 0.0
C799 C 0.55693 0.03892 0.19432 0.0
C800 C 0.56941 0.0396 0.18013 0.0
C801 C 0.56865 0.02438 0.17352 0.0
C802 C 0.55569 0.00858 0.18257 0.0
C803 C 0.54336 0.00796 0.19705 0.0
C804 C 0.52937 0.02219 0.21546 0.0
C805 C 0.51726 0.02497 0.20435 0.0
C806 C 0.5268 0.01729 0.23785 0.0
C807 C 0.53898 0.01367 0.24998 0.0
C808 C 0.55671 0.02647 0.25237 0.0
C809 C 0.56824 0.02285 0.26334 0.0
C810 C 0.56225 0.00633 0.27199 0.0
C811 C 0.54446 0.99358 0.26967 0.0
C812 C 0.5329 0.99725 0.25889 0.0
C813 C 0.48484 0.01642 0.24991 0.0
C814 C 0.47465 0.00182 0.26305 0.0
C815 C 0.45955 0.99932 0.27308 0.0
C816 C 0.45427 0.01125 0.26987 0.0
C817 C 0.4647 0.0261 0.25738 0.0
C818 C 0.48003 0.02883 0.24782 0.0
C819 C 0.50005 0.01833 0.23768 0.0
C820 C 0.51229 0.01563 0.2488 0.0
C821 C 0.50237 0.0226 0.21496 0.0
C822 C 0.48862 0.02277 0.20132 0.0
C823 C 0.47192 0.0079 0.19973 0.0
C824 C 0.45906 0.00769 0.18629 0.0
C825 C 0.46258 0.02238 0.17414 0.0
C826 C 0.47934 0.03732 0.1759 0.0
C827 C 0.49227 0.03747 0.18925 0.0
H828 H 0.47846 0.00637 0.85445 0.0
H829 H 0.45645 0.00645 0.87769 0.0
H830 H 0.41569 0.96312 0.84107 0.0
H831 H 0.43787 0.96296 0.81799 0.0
H832 H 0.48556 0.98134 0.85102 0.0
H833 H 0.4714 0.01334 0.80331 0.0
H834 H 0.45235 0.02056 0.78322 0.0
H835 H 0.43162 0.97372 0.74499 0.0
H836 H 0.45107 0.96674 0.76501 0.0
H837 H 0.49764 0.96286 0.76343 0.0
H838 H 0.52181 0.96517 0.74187 0.0
H839 H 0.5589 0.0065 0.78416 0.0
H840 H 0.53493 0.00504 0.80469 0.0
H841 H 0.48755 0.98514 0.7694 0.0
H842 H 0.50947 0.95784 0.82256 0.0
H843 H 0.53364 0.95926 0.84426 0.0
H844 H 0.54455 0.00726 0.87314 0.0
H845 H 0.52053 0.00574 0.8518 0.0
C846 C 0.4598 0.98464 0.83455 0.0
C847 C 0.46477 0.99696 0.85133 0.0
C848 C 0.45217 0.9971 0.86446 0.0
C849 C 0.43434 0.98479 0.86119 0.0
C850 C 0.42935 0.97268 0.84405 0.0
C851 C 0.44198 0.97263 0.8308 0.0
C852 C 0.47335 0.9839 0.82169 0.0
C853 C 0.48598 0.98213 0.83316 0.0
C854 C 0.47396 0.98507 0.79845 0.0
C855 C 0.46246 0.98937 0.78586 0.0
C856 C 0.46268 0.00457 0.79067 0.0
C857 C 0.45174 0.00866 0.7792 0.0
C858 C 0.44032 0.99765 0.7626 0.0
C859 C 0.44036 0.98257 0.75753 0.0
C860 C 0.45139 0.97851 0.76901 0.0
C861 C 0.51442 0.98344 0.78612 0.0
C862 C 0.51098 0.97242 0.76807 0.0
C863 C 0.52473 0.97367 0.75583 0.0
C864 C 0.54212 0.98578 0.76171 0.0
C865 C 0.54557 0.9968 0.77968 0.0
C866 C 0.53186 0.99586 0.79151 0.0
C867 C 0.49983 0.98248 0.79874 0.0
C868 C 0.48688 0.98385 0.7872 0.0
C869 C 0.49935 0.98168 0.82208 0.0
C870 C 0.51328 0.98172 0.83555 0.0
C871 C 0.51705 0.96859 0.83367 0.0
C872 C 0.53077 0.96938 0.84605 0.0
C873 C 0.541 0.98345 0.86016 0.0
C874 C 0.53699 0.99639 0.86217 0.0
C875 C 0.5232 0.99547 0.85013 0.0
H876 H 0.04077 0.5413 0.83614 0.0
H877 H 0.04317 0.56393 0.85999 0.0
H878 H 0.9918 0.55184 0.83844 0.0
H879 H 0.98909 0.52851 0.81561 0.0
H880 H 0.01891 0.50823 0.83971 0.0
H881 H 0.03047 0.55023 0.78347 0.0
H882 H 0.02564 0.57063 0.76289 0.0
H883 H 0.97422 0.52905 0.74347 0.0
H884 H 0.979 0.50875 0.76429 0.0
H885 H 0.97835 0.46589 0.7652 0.0
H886 H 0.97282 0.43991 0.74591 0.0
H887 H 0.0233 0.44964 0.76747 0.0
H888 H 0.02892 0.47577 0.7864 0.0
H889 H 0.00113 0.4985 0.76085 0.0
H890 H 0.98626 0.45828 0.81984 0.0
H891 H 0.9869 0.43748 0.84467 0.0
H892 H 0.04131 0.47412 0.85982 0.0
H893 H 0.04036 0.49508 0.83529 0.0
C894 C 0.01482 0.53325 0.82393 0.0
C895 C 0.03005 0.54357 0.83648 0.0
C896 C 0.03147 0.55666 0.84997 0.0
C897 C 0.0177 0.55981 0.85116 0.0
C898 C 0.00259 0.54968 0.83817 0.0
C899 C 0.00111 0.53646 0.82484 0.0
C900 C 0.01288 0.51843 0.81113 0.0
C901 C 0.01539 0.50632 0.82233 0.0
C902 C 0.00763 0.51557 0.78865 0.0
C903 C 0.00502 0.52797 0.77567 0.0
C904 C 0.0181 0.54552 0.77493 0.0
C905 C 0.01534 0.55717 0.76316 0.0
C906 C 0.99953 0.55145 0.75162 0.0
C907 C 0.9866 0.53383 0.75201 0.0
C908 C 0.98931 0.52222 0.76393 0.0
C909 C 0.00397 0.47271 0.7775 0.0
C910 C 0.98829 0.46251 0.76565 0.0
C911 C 0.98514 0.44767 0.75462 0.0
C912 C 0.99759 0.44269 0.75528 0.0
C913 C 0.01335 0.453 0.76696 0.0
C914 C 0.01656 0.46793 0.77781 0.0
C915 C 0.00711 0.48833 0.78949 0.0
C916 C 0.00487 0.50057 0.77815 0.0
C917 C 0.01236 0.49124 0.81194 0.0
C918 C 0.01329 0.47817 0.82561 0.0
C919 C 0.9984 0.46173 0.82826 0.0
C920 C 0.99883 0.44981 0.84242 0.0
C921 C 0.0142 0.45406 0.85426 0.0
C922 C 0.02921 0.47046 0.85121 0.0
C923 C 0.02872 0.48243 0.83711 0.0
H924 H 0.43929 0.5129 0.8499 0.0
H925 H 0.4199 0.48999 0.87494 0.0
H926 H 0.43112 0.45482 0.84192 0.0
H927 H 0.45129 0.47818 0.81763 0.0
H928 H 0.47432 0.52575 0.84659 0.0
H929 H 0.42279 0.49225 0.79875 0.0
H930 H 0.40224 0.46465 0.78068 0.0
H931 H 0.44435 0.46862 0.74233 0.0
H932 H 0.46502 0.49528 0.76133 0.0
H933 H 0.50372 0.53147 0.76306 0.0
H934 H 0.52956 0.55141 0.74254 0.0
H935 H 0.52956 0.59436 0.77298 0.0
H936 H 0.50374 0.57405 0.79416 0.0
H937 H 0.47175 0.52498 0.76495 0.0
H938 H 0.52022 0.54429 0.81138 0.0
H939 H 0.54593 0.56087 0.83469 0.0
H940 H 0.51687 0.57545 0.87619 0.0
H941 H 0.49135 0.55964 0.8518 0.0
C942 C 0.44656 0.49721 0.83171 0.0
C943 C 0.43748 0.50022 0.84798 0.0
C944 C 0.42625 0.48702 0.86216 0.0
C945 C 0.4238 0.47046 0.8604 0.0
C946 C 0.43279 0.46743 0.84389 0.0
C947 C 0.44417 0.48072 0.82981 0.0
C948 C 0.45942 0.51171 0.81788 0.0
C949 C 0.47354 0.52581 0.82872 0.0
C950 C 0.45881 0.51122 0.79451 0.0
C951 C 0.44559 0.49579 0.78179 0.0
C952 C 0.42764 0.48718 0.78652 0.0
C953 C 0.41588 0.47154 0.77607 0.0
C954 C 0.4218 0.46471 0.76009 0.0
C955 C 0.43949 0.4738 0.75441 0.0
C956 C 0.45128 0.48907 0.76528 0.0
C957 C 0.50178 0.55125 0.78013 0.0
C958 C 0.5091 0.54518 0.76509 0.0
C959 C 0.52388 0.55666 0.75324 0.0
C960 C 0.53164 0.57457 0.75591 0.0
C961 C 0.52405 0.58067 0.77066 0.0
C962 C 0.50925 0.5691 0.78271 0.0
C963 C 0.48684 0.53868 0.79367 0.0
C964 C 0.47223 0.52513 0.78284 0.0
C965 C 0.48764 0.53893 0.81698 0.0
C966 C 0.50386 0.55092 0.82956 0.0
C967 C 0.51951 0.55158 0.82496 0.0
C968 C 0.53417 0.56084 0.8386 0.0
C969 C 0.53342 0.56931 0.85753 0.0
C970 C 0.51796 0.56921 0.86166 0.0
C971 C 0.50332 0.56008 0.84781 0.0
H972 H 0.62021 0.83777 0.52974 0.0
H973 H 0.6193 0.85862 0.50485 0.0
H974 H 0.67358 0.89544 0.52037 0.0
H975 H 0.67426 0.87477 0.54524 0.0
H976 H 0.64054 0.82409 0.52574 0.0
H977 H 0.63132 0.85512 0.58202 0.0
H978 H 0.63628 0.88099 0.60109 0.0
H979 H 0.68975 0.89572 0.61468 0.0
H980 H 0.68475 0.8699 0.59535 0.0
H981 H 0.68619 0.82537 0.59305 0.0
H982 H 0.69228 0.8056 0.61322 0.0
H983 H 0.63821 0.76494 0.60527 0.0
H984 H 0.63219 0.78479 0.58528 0.0
H985 H 0.66294 0.83603 0.60286 0.0
H986 H 0.67407 0.8094 0.54071 0.0
H987 H 0.67114 0.78668 0.51639 0.0
H988 H 0.61506 0.76412 0.51448 0.0
H989 H 0.61833 0.78745 0.53786 0.0
C990 C 0.64724 0.85479 0.53957 0.0
C991 C 0.63181 0.85045 0.52796 0.0
C992 C 0.63134 0.86235 0.51369 0.0
C993 C 0.64634 0.87876 0.51065 0.0
C994 C 0.66165 0.88311 0.52265 0.0
C995 C 0.66209 0.87126 0.5369 0.0
C996 C 0.64842 0.84178 0.55307 0.0
C997 C 0.64501 0.82652 0.54279 0.0
C998 C 0.65478 0.84517 0.57509 0.0
C999 C 0.65769 0.86064 0.58716 0.0
C1000 C 0.64411 0.86394 0.58908 0.0
C1001 C 0.64693 0.87865 0.60011 0.0
C1002 C 0.66341 0.89039 0.60937 0.0
C1003 C 0.67696 0.887 0.60754 0.0
C1004 C 0.67409 0.8722 0.59665 0.0
C1005 C 0.65877 0.8065 0.5876 0.0
C1006 C 0.67566 0.8122 0.59571 0.0
C1007 C 0.67914 0.80088 0.60708 0.0
C1008 C 0.66572 0.78374 0.61081 0.0
C1009 C 0.64878 0.77812 0.60281 0.0
C1010 C 0.64535 0.78939 0.59127 0.0
C1011 C 0.65514 0.81847 0.57541 0.0
C1012 C 0.65815 0.83351 0.58595 0.0
C1013 C 0.64847 0.81494 0.5536 0.0
C1014 C 0.64642 0.80009 0.54097 0.0
C1015 C 0.66115 0.79942 0.53518 0.0
C1016 C 0.65941 0.78634 0.52136 0.0
C1017 C 0.64286 0.77356 0.51322 0.0
C1018 C 0.62806 0.77393 0.51992 0.0
C1019 C 0.62986 0.78717 0.53344 0.0
H1020 H 0.18735 0.77553 0.51887 0.0
H1021 H 0.16365 0.76081 0.49146 0.0
H1022 H 0.13402 0.77874 0.5255 0.0
H1023 H 0.15781 0.79384 0.5521 0.0
H1024 H 0.20501 0.81101 0.52454 0.0
H1025 H 0.16851 0.76071 0.57155 0.0
H1026 H 0.13884 0.74152 0.58552 0.0
H1027 H 0.14172 0.78456 0.61957 0.0
H1028 H 0.17069 0.80364 0.60503 0.0
H1029 H 0.20229 0.83721 0.60696 0.0
H1030 H 0.21736 0.86449 0.62634 0.0
H1031 H 0.26636 0.87566 0.59863 0.0
H1032 H 0.25122 0.84743 0.5802 0.0
H1033 H 0.20074 0.80925 0.60593 0.0
H1034 H 0.22043 0.85644 0.555 0.0
H1035 H 0.23929 0.8811 0.53179 0.0
H1036 H 0.25891 0.85166 0.50129 0.0
H1037 H 0.24091 0.82755 0.52563 0.0
C1038 C 0.17427 0.78558 0.53774 0.0
C1039 C 0.17559 0.776 0.52059 0.0
C1040 C 0.16203 0.76755 0.50501 0.0
C1041 C 0.14703 0.76873 0.50622 0.0
C1042 C 0.14549 0.77776 0.52394 0.0
C1043 C 0.15901 0.78622 0.53937 0.0
C1044 C 0.18949 0.79672 0.55233 0.0
C1045 C 0.20434 0.8104 0.54241 0.0
C1046 C 0.18825 0.79619 0.57561 0.0
C1047 C 0.17181 0.78369 0.58698 0.0
C1048 C 0.16281 0.76593 0.58226 0.0
C1049 C 0.14593 0.75497 0.59034 0.0
C1050 C 0.13791 0.76164 0.6033 0.0
C1051 C 0.14746 0.77913 0.60928 0.0
C1052 C 0.16416 0.79002 0.60116 0.0
C1053 C 0.22553 0.84023 0.59181 0.0
C1054 C 0.21636 0.84522 0.60544 0.0
C1055 C 0.22498 0.86102 0.6163 0.0
C1056 C 0.24299 0.87248 0.61358 0.0
C1057 C 0.25245 0.86714 0.60101 0.0
C1058 C 0.24379 0.85107 0.59032 0.0
C1059 C 0.21537 0.82442 0.57805 0.0
C1060 C 0.20178 0.80958 0.58811 0.0
C1061 C 0.21685 0.82466 0.55479 0.0
C1062 C 0.22953 0.84026 0.54239 0.0
C1063 C 0.22923 0.85551 0.54381 0.0
C1064 C 0.23984 0.86954 0.53024 0.0
C1065 C 0.25065 0.86844 0.51452 0.0
C1066 C 0.25109 0.8532 0.51344 0.0
C1067 C 0.24068 0.8393 0.52724 0.0
H1068 H 0.14441 0.34734 0.55243 0.0
H1069 H 0.12193 0.34779 0.53012 0.0
H1070 H 0.15966 0.39942 0.50847 0.0
H1071 H 0.18228 0.39871 0.53075 0.0
H1072 H 0.19209 0.37476 0.5242 0.0
H1073 H 0.15622 0.33978 0.60129 0.0
H1074 H 0.13074 0.33462 0.62157 0.0
H1075 H 0.14273 0.38612 0.60601 0.0
H1076 H 0.16821 0.39107 0.58521 0.0
H1077 H 0.22639 0.37892 0.60695 0.0
H1078 H 0.24438 0.36915 0.62456 0.0
H1079 H 0.22279 0.32574 0.57979 0.0
H1080 H 0.20505 0.33579 0.56207 0.0
H1081 H 0.19031 0.3613 0.60374 0.0
H1082 H 0.23945 0.3824 0.55274 0.0
H1083 H 0.25835 0.3809 0.52489 0.0
H1084 H 0.21302 0.34848 0.48424 0.0
H1085 H 0.19416 0.34931 0.51221 0.0
C1086 C 0.16497 0.37308 0.5435 0.0
C1087 C 0.14776 0.35894 0.54334 0.0
C1088 C 0.13488 0.35924 0.53055 0.0
C1089 C 0.13894 0.37368 0.51749 0.0
C1090 C 0.15612 0.38804 0.51814 0.0
C1091 C 0.16903 0.3877 0.53097 0.0
C1092 C 0.17898 0.37172 0.55478 0.0
C1093 C 0.19189 0.37203 0.54166 0.0
C1094 C 0.17843 0.36787 0.57747 0.0
C1095 C 0.1641 0.36578 0.59168 0.0
C1096 C 0.15357 0.35009 0.60257 0.0
C1097 C 0.13899 0.34719 0.61426 0.0
C1098 C 0.13465 0.35998 0.61553 0.0
C1099 C 0.14556 0.37593 0.60517 0.0
C1100 C 0.16016 0.3788 0.59336 0.0
C1101 C 0.21455 0.35821 0.58304 0.0
C1102 C 0.22561 0.36734 0.60089 0.0
C1103 C 0.23579 0.36166 0.61103 0.0
C1104 C 0.23501 0.34662 0.60364 0.0
C1105 C 0.22391 0.33751 0.58571 0.0
C1106 C 0.21375 0.34322 0.57555 0.0
C1107 C 0.20325 0.36392 0.57299 0.0
C1108 C 0.19086 0.36445 0.58638 0.0
C1109 C 0.20367 0.36762 0.55024 0.0
C1110 C 0.21536 0.36601 0.53456 0.0
C1111 C 0.23355 0.37465 0.53808 0.0
C1112 C 0.24432 0.37383 0.52221 0.0
C1113 C 0.23705 0.36465 0.5025 0.0
C1114 C 0.21889 0.35571 0.49928 0.0
C1115 C 0.20815 0.35627 0.51521 0.0
H1116 H -0.00012 0.38359 0.08537 0.0
H1117 H 0.96552 0.43891 0.14308 0.0
H1118 H 0.95251 0.38212 0.06644 0.0
H1119 H 0.00521 0.43176 0.17324 0.0
H1120 H 0.96147 0.41864 0.11435 0.0
H1121 H 0.00294 0.40163 0.11717 0.0
C1122 C 0.99007 0.38693 0.08796 0.0
C1123 C 0.97597 0.38138 0.0731 0.0
C1124 C 0.97099 0.42138 0.12732 0.0
C1125 C 0.97948 0.40209 0.10927 0.0
C1126 C 0.97325 0.43291 0.14391 0.0
C1127 C 0.98563 0.43702 0.16088 0.0
C1128 C 0.98132 0.41393 0.12734 0.0
C1129 C 0.99561 0.42915 0.16045 0.0
C1130 C 0.99183 0.39722 0.10611 0.0
C1131 C 0.96365 0.38611 0.07732 0.0
N1132 N 0.99329 0.41802 0.1439 0.0
N1133 N 0.96577 0.39625 0.09487 0.0
H1134 H 0.61964 0.61241 0.07384 0.0
H1135 H 0.61118 0.54262 0.16188 0.0
H1136 H 0.64663 0.58474 0.06952 0.0
H1137 H 0.57184 0.55606 0.15304 0.0
H1138 H 0.62866 0.56351 0.13351 0.0
H1139 H 0.60641 0.59723 0.10848 0.0
C1140 C 0.62299 0.60338 0.08037 0.0
C1141 C 0.63405 0.59964 0.06872 0.0
C1142 C 0.61627 0.56198 0.13795 0.0
C1143 C 0.61917 0.58245 0.10813 0.0
C1144 C 0.60623 0.55 0.15407 0.0
C1145 C 0.58985 0.54733 0.15965 0.0
C1146 C 0.60997 0.57147 0.12735 0.0
C1147 C 0.58439 0.55768 0.14937 0.0
C1148 C 0.6154 0.59468 0.10002 0.0
C1149 C 0.63797 0.58782 0.07784 0.0
N1150 N 0.59436 0.56919 0.13357 0.0
N1151 N 0.6305 0.5796 0.09693 0.0
H1152 H 0.36803 0.97918 0.09913 0.0
H1153 H 0.46695 0.0376 0.1334 0.0
H1154 H 0.40228 0.02619 0.06411 0.0
H1155 H 0.42707 0.0056 0.18025 0.0
H1156 H 0.44409 0.03376 0.10744 0.0
H1157 H 0.38987 0.98832 0.12863 0.0
C1158 C 0.38012 0.99153 0.09778 0.0
C1159 C 0.38342 0.00192 0.07914 0.0
C1160 C 0.4404 0.02777 0.12353 0.0
C1161 C 0.40861 0.01233 0.11267 0.0
C1162 C 0.45345 0.03 0.13843 0.0
C1163 C 0.44899 0.02171 0.15903 0.0
C1164 C 0.42277 0.01698 0.1291 0.0
C1165 C 0.43119 0.01184 0.16438 0.0
C1166 C 0.39255 0.99676 0.11466 0.0
C1167 C 0.39924 0.01783 0.07826 0.0
N1168 N 0.41875 0.00956 0.14942 0.0
N1169 N 0.41142 0.02244 0.09465 0.0
H1170 H 0.36196 0.95283 0.96794 0.0
H1171 H 0.43184 0.0115 0.87758 0.0
H1172 H 0.38022 0.00678 0.95921 0.0
H1173 H 0.40718 0.95618 0.88029 0.0
H1174 H 0.41212 0.00998 0.90624 0.0
H1175 H 0.37741 0.95365 0.93472 0.0
C1176 C 0.36913 0.96484 0.95895 0.0
C1177 C 0.36991 0.9798 0.9665 0.0
C1178 C 0.41089 0.99816 0.9004 0.0
C1179 C 0.38776 0.98085 0.92844 0.0
C1180 C 0.42218 0.99903 0.8841 0.0
C1181 C 0.42122 0.98396 0.87664 0.0
C1182 C 0.39866 0.98211 0.90947 0.0
C1183 C 0.40831 0.96811 0.88545 0.0
C1184 C 0.37792 0.96528 0.93993 0.0
C1185 C 0.3793 0.99495 0.95405 0.0
N1186 N 0.39767 0.96763 0.90155 0.0
N1187 N 0.38801 0.99513 0.93576 0.0
H1188 H 0.02049 0.40454 0.97432 0.0
H1189 H 0.99736 0.41877 0.85122 0.0
H1190 H 0.97231 0.36954 0.9401 0.0
H1191 H 0.03079 0.46115 0.89478 0.0
H1192 H 0.9939 0.39866 0.88037 0.0
H1193 H 0.03007 0.42347 0.9417 0.0
C1194 C 0.01212 0.4007 0.9598 0.0
C1195 C 0.99554 0.38561 0.95987 0.0
C1196 C 0.00216 0.41238 0.88341 0.0
C1197 C 0.00639 0.40688 0.92278 0.0
C1198 C 0.00406 0.42389 0.86684 0.0
C1199 C 0.01409 0.44174 0.87064 0.0
C1200 C 0.01046 0.4187 0.90391 0.0
C1201 C 0.02294 0.44753 0.89102 0.0
C1202 C 0.01752 0.4115 0.94132 0.0
C1203 C 0.98511 0.38119 0.94075 0.0
N1204 N 0.02078 0.43604 0.90699 0.0
N1205 N 0.99068 0.39178 0.923 0.0
H1206 H 0.6097 0.62796 0.9618 0.0
H1207 H 0.55328 0.55602 0.8705 0.0
H1208 H 0.61465 0.58433 0.94666 0.0
H1209 H 0.54682 0.59917 0.8823 0.0
H1210 H 0.5766 0.56733 0.89784 0.0
H1211 H 0.58733 0.61867 0.93249 0.0
C1212 C 0.60615 0.6165 0.95232 0.0
C1213 C 0.61404 0.60688 0.9568 0.0
C1214 C 0.5702 0.57444 0.89445 0.0
C1215 C 0.58856 0.59624 0.92337 0.0
C1216 C 0.55692 0.56804 0.87861 0.0
C1217 C 0.54812 0.57672 0.87384 0.0
C1218 C 0.57479 0.58965 0.9059 0.0
C1219 C 0.55317 0.59199 0.88552 0.0
C1220 C 0.59339 0.61121 0.93562 0.0
C1221 C 0.60893 0.59215 0.94397 0.0
N1222 N 0.56617 0.59798 0.90104 0.0
N1223 N 0.59656 0.58731 0.92796 0.0
H1224 H 0.99691 0.61455 0.95139 0.0
H1225 H 0.04648 0.59134 0.86214 0.0
H1226 H 0.05272 0.63622 0.95212 0.0
H1227 H 0.9915 0.55839 0.87601 0.0
H1228 H 0.04857 0.61135 0.89047 0.0
H1229 H 0.99442 0.59743 0.91893 0.0
C1230 C 0.00866 0.61585 0.9446 0.0
C1231 C 0.02504 0.62673 0.9546 0.0
C1232 C 0.03604 0.59978 0.88718 0.0
C1233 C 0.02226 0.60726 0.91747 0.0
C1234 C 0.03483 0.58828 0.87107 0.0
C1235 C 0.01882 0.57298 0.86677 0.0
C1236 C 0.02112 0.59609 0.89899 0.0
C1237 C 0.0041 0.57004 0.87854 0.0
C1238 C 0.00721 0.60603 0.92614 0.0
C1239 C 0.03981 0.62789 0.94508 0.0
N1240 N 0.00562 0.58144 0.89416 0.0
N1241 N 0.03807 0.61825 0.92708 0.0
H1242 H 0.38097 0.38835 0.95827 0.0
H1243 H 0.39292 0.46386 0.87833 0.0
H1244 H 0.36212 0.42227 0.97272 0.0
H1245 H 0.42891 0.44573 0.87918 0.0
H1246 H 0.37657 0.44369 0.90786 0.0
H1247 H 0.39382 0.40455 0.9241 0.0
C1248 C 0.37937 0.39906 0.95413 0.0
C1249 C 0.37062 0.40409 0.96841 0.0
C1250 C 0.38798 0.44406 0.90144 0.0
C1251 C 0.385 0.42241 0.92947 0.0
C1252 C 0.39739 0.45563 0.88465 0.0
C1253 C 0.41254 0.45677 0.87645 0.0
C1254 C 0.3936 0.43337 0.91001 0.0
C1255 C 0.41731 0.44532 0.88488 0.0
C1256 C 0.38674 0.40831 0.93474 0.0
C1257 C 0.36893 0.41807 0.96231 0.0
N1258 N 0.40793 0.43417 0.90131 0.0
N1259 N 0.37605 0.42673 0.94331 0.0
H1260 H 0.60375 0.97601 0.96392 0.0
H1261 H 0.5742 0.01097 0.86148 0.0
H1262 H 0.63351 0.02753 0.93752 0.0
H1263 H 0.54184 0.95972 0.88753 0.0
H1264 H 0.59794 0.01537 0.88599 0.0
H1265 H 0.58276 0.96797 0.93317 0.0
C1266 C 0.60601 0.98554 0.95152 0.0
C1267 C 0.62026 0.00253 0.95345 0.0
C1268 C 0.58573 0.00307 0.8863 0.0
C1269 C 0.59641 0.99347 0.91838 0.0
C1270 C 0.57219 0.00058 0.87229 0.0
C1271 C 0.55602 0.98506 0.87275 0.0
C1272 C 0.58307 0.99002 0.90114 0.0
C1273 C 0.55414 0.97189 0.88679 0.0
C1274 C 0.59402 0.98097 0.93402 0.0
C1275 C 0.62258 0.01435 0.93691 0.0
N1276 N 0.56744 0.97476 0.90071 0.0
N1277 N 0.61074 0.00963 0.92023 0.0
H1278 H 0.62385 0.99825 0.07961 0.0
H1279 H 0.58046 0.04527 0.13722 0.0
H1280 H 0.63206 0.0475 0.05919 0.0
H1281 H 0.58345 0.00437 0.16942 0.0
H1282 H 0.5986 0.04531 0.10788 0.0
H1283 H 0.60819 0.99918 0.11201 0.0
C1284 C 0.62246 0.00928 0.08197 0.0
C1285 C 0.62921 0.02277 0.06656 0.0
C1286 C 0.59542 0.0364 0.12144 0.0
C1287 C 0.61127 0.02384 0.10339 0.0
C1288 C 0.58513 0.03645 0.13838 0.0
C1289 C 0.58045 0.02488 0.15605 0.0
C1290 C 0.60097 0.02454 0.12185 0.0
C1291 C 0.58653 0.0134 0.15606 0.0
C1292 C 0.61356 0.00981 0.10046 0.0
C1293 C 0.62705 0.03675 0.07051 0.0
N1294 N 0.59641 0.01345 0.13915 0.0
N1295 N 0.61819 0.03685 0.0884 0.0
H1296 H 0.98321 0.60213 0.05771 0.0
H1297 H 0.01171 0.59052 0.17876 0.0
H1298 H 0.03411 0.63652 0.08649 0.0
H1299 H 0.97601 0.54697 0.13812 0.0
H1300 H 0.01485 0.60976 0.14857 0.0
H1301 H 0.97545 0.58392 0.09086 0.0
C1302 C 0.99264 0.60595 0.07111 0.0
C1303 C 0.00937 0.62072 0.06934 0.0
C1304 C 0.00619 0.59598 0.14642 0.0
C1305 C 0.00053 0.60029 0.10714 0.0
C1306 C 0.00445 0.58496 0.16358 0.0
C1307 C 0.99384 0.56701 0.16092 0.0
C1308 C 0.99709 0.58908 0.12651 0.0
C1309 C 0.98431 0.56068 0.14105 0.0
C1310 C 0.98823 0.59556 0.0899 0.0
C1311 C 0.02114 0.62511 0.0871 0.0
N1312 N 0.98625 0.5717 0.12454 0.0
N1313 N 0.01648 0.61496 0.10526 0.0
H1314 H 0.37481 0.39242 0.10165 0.0
H1315 H 0.47174 0.41955 0.12685 0.0
H1316 H 0.40225 0.37806 0.05715 0.0
H1317 H 0.43495 0.40958 0.17854 0.0
H1318 H 0.44725 0.40463 0.1007 0.0
H1319 H 0.39725 0.39939 0.12977 0.0
C1320 C 0.38552 0.39057 0.09792 0.0
C1321 C 0.38676 0.38473 0.07709 0.0
C1322 C 0.44458 0.4055 0.11785 0.0
C1323 C 0.4127 0.39302 0.10903 0.0
C1324 C 0.45854 0.41397 0.13283 0.0
C1325 C 0.45547 0.41614 0.15492 0.0
C1326 C 0.42748 0.39939 0.12494 0.0
C1327 C 0.43804 0.40872 0.16158 0.0
C1328 C 0.39828 0.39449 0.11398 0.0
C1329 C 0.40084 0.38249 0.07308 0.0
N1330 N 0.42476 0.40094 0.14661 0.0
N1331 N 0.4135 0.38696 0.08881 0.0
H1332 H 0.60961 0.70223 0.40413 0.0
H1333 H 0.66202 0.75768 0.51028 0.0
H1334 H 0.66144 0.71323 0.42077 0.0
H1335 H 0.61992 0.7599 0.47821 0.0
H1336 H 0.65987 0.73781 0.48152 0.0
H1337 H 0.61083 0.71923 0.4357 0.0
C1338 C 0.62123 0.70811 0.41451 0.0
C1339 C 0.63552 0.70639 0.40962 0.0
C1340 C 0.65108 0.74261 0.48094 0.0
C1341 C 0.63696 0.72599 0.44595 0.0
C1342 C 0.65232 0.75403 0.49728 0.0
C1343 C 0.64114 0.76057 0.49679 0.0
C1344 C 0.63843 0.73754 0.46412 0.0
C1345 C 0.62862 0.75503 0.47968 0.0
C1346 C 0.62192 0.71788 0.43252 0.0
C1347 C 0.65017 0.71429 0.42382 0.0
N1348 N 0.62763 0.74388 0.46411 0.0
N1349 N 0.65054 0.72381 0.44134 0.0
H1350 H 0.28044 0.94704 0.41385 0.0
H1351 H 0.28287 0.87953 0.49645 0.0
H1352 H 0.30531 0.91853 0.3988 0.0
H1353 H 0.24072 0.88953 0.49508 0.0
H1354 H 0.29659 0.89984 0.46612 0.0
H1355 H 0.27125 0.93197 0.44938 0.0
C1356 C 0.2842 0.93783 0.41817 0.0
C1357 C 0.29348 0.93387 0.40331 0.0
C1358 C 0.28443 0.89768 0.47268 0.0
C1359 C 0.28323 0.91684 0.44378 0.0
C1360 C 0.27651 0.88601 0.48992 0.0
C1361 C 0.2604 0.88251 0.49821 0.0
C1362 C 0.27635 0.90612 0.46381 0.0
C1363 C 0.25315 0.89181 0.48943 0.0
C1364 C 0.27889 0.9292 0.43834 0.0
C1365 C 0.29798 0.9218 0.40968 0.0
N1366 N 0.26112 0.9031 0.47262 0.0
N1367 N 0.29279 0.91369 0.42942 0.0
H1368 H 0.08006 0.37052 0.4003 0.0
H1369 H 0.10383 0.35942 0.52446 0.0
H1370 H 0.04678 0.32744 0.44214 0.0
H1371 H 0.1434 0.38633 0.47519 0.0
H1372 H 0.08144 0.35411 0.49695 0.0
H1373 H 0.10211 0.3826 0.43032 0.0
C1374 C 0.07731 0.36379 0.41589 0.0
C1375 C 0.06174 0.3479 0.41875 0.0
C1376 C 0.09506 0.36137 0.49227 0.0
C1377 C 0.08651 0.36164 0.45294 0.0
C1378 C 0.10785 0.36434 0.50793 0.0
C1379 C 0.12554 0.37302 0.50207 0.0
C1380 C 0.09993 0.36721 0.47059 0.0
C1381 C 0.12995 0.37957 0.48051 0.0
C1382 C 0.08986 0.37062 0.43291 0.0
C1383 C 0.05875 0.33962 0.4392 0.0
N1384 N 0.11721 0.37637 0.46546 0.0
N1385 N 0.071 0.34657 0.45548 0.0
H1386 H 0.02759 0.28411 0.31483 0.0
H1387 H 0.09469 0.32764 0.21751 0.0
H1388 H 0.05226 0.33827 0.29965 0.0
H1389 H 0.05529 0.27331 0.21747 0.0
H1390 H 0.08012 0.33181 0.24827 0.0
H1391 H 0.03859 0.27976 0.28028 0.0
C1392 C 0.03526 0.29507 0.3042 0.0
C1393 C 0.03909 0.3116 0.3102 0.0
C1394 C 0.07457 0.31901 0.24138 0.0
C1395 C 0.05182 0.30672 0.27076 0.0
C1396 C 0.08282 0.3166 0.22363 0.0
C1397 C 0.0763 0.30005 0.21474 0.0
C1398 C 0.05984 0.30477 0.25065 0.0
C1399 C 0.06106 0.28625 0.22397 0.0
C1400 C 0.04146 0.29256 0.28444 0.0
C1401 C 0.049 0.32531 0.2957 0.0
N1402 N 0.05347 0.28888 0.24155 0.0
N1403 N 0.05518 0.3226 0.27677 0.0
H1404 H 0.68083 0.725 0.29928 0.0
H1405 H 0.64506 0.76136 0.20552 0.0
H1406 H 0.62643 0.70748 0.28751 0.0
H1407 H 0.69919 0.77579 0.20927 0.0
H1408 H 0.63856 0.74156 0.23581 0.0
H1409 H 0.68844 0.7438 0.26682 0.0
C1410 C 0.6705 0.72505 0.28988 0.0
C1411 C 0.65297 0.71469 0.29623 0.0
C1412 C 0.65187 0.74894 0.22999 0.0
C1413 C 0.66156 0.7361 0.25925 0.0
C1414 C 0.65559 0.7602 0.21246 0.0
C1415 C 0.67269 0.77019 0.20455 0.0
C1416 C 0.66534 0.74765 0.24003 0.0
C1417 C 0.68583 0.76843 0.21488 0.0
C1418 C 0.67485 0.73576 0.27137 0.0
C1419 C 0.64013 0.71526 0.2834 0.0
N1420 N 0.68189 0.7574 0.23214 0.0
N1421 N 0.6447 0.72578 0.26566 0.0
H1422 H 0.24285 0.92084 0.31454 0.0
H1423 H 0.22094 0.93808 0.19667 0.0
H1424 H 0.27548 0.97093 0.28543 0.0
H1425 H 0.1799 0.9067 0.24233 0.0
H1426 H 0.24176 0.95018 0.22778 0.0
H1427 H 0.21988 0.91477 0.28743 0.0
C1428 C 0.24504 0.93064 0.30258 0.0
C1429 C 0.261 0.94638 0.30213 0.0
C1430 C 0.22812 0.94093 0.23098 0.0
C1431 C 0.23506 0.93939 0.27078 0.0
C1432 C 0.21629 0.934 0.21329 0.0
C1433 C 0.19873 0.92138 0.21702 0.0
C1434 C 0.22239 0.9348 0.25238 0.0
C1435 C 0.19331 0.91648 0.23881 0.0
C1436 C 0.23194 0.92721 0.28719 0.0
C1437 C 0.26326 0.95867 0.28632 0.0
N1438 N 0.20517 0.92294 0.25565 0.0
N1439 N 0.25054 0.95478 0.2709 0.0
H1440 H 0.71766 0.95211 0.30273 0.0
H1441 H 0.67139 0.90788 0.18794 0.0
H1442 H 0.67191 0.95152 0.2782 0.0
H1443 H 0.70852 0.89918 0.22254 0.0
H1444 H 0.67318 0.92642 0.21839 0.0
H1445 H 0.71657 0.93566 0.27065 0.0
C1446 C 0.70739 0.94859 0.29055 0.0
C1447 C 0.69479 0.95316 0.29329 0.0
C1448 C 0.68097 0.92048 0.21918 0.0
C1449 C 0.69347 0.93416 0.25631 0.0
C1450 C 0.67992 0.90984 0.20186 0.0
C1451 C 0.68987 0.90195 0.20253 0.0
C1452 C 0.69213 0.92333 0.23724 0.0
C1453 C 0.70086 0.90521 0.22093 0.0
C1454 C 0.70676 0.93913 0.27221 0.0
C1455 C 0.68185 0.94823 0.27683 0.0
N1456 N 0.70168 0.91561 0.23746 0.0
N1457 N 0.6815 0.93895 0.25902 0.0
H1458 H 0.04166 0.72343 0.28815 0.0
H1459 H 0.07074 0.81259 0.22921 0.0
H1460 H 0.02921 0.76044 0.31192 0.0
H1461 H 0.07269 0.77156 0.19636 0.0
H1462 H 0.05478 0.79302 0.2591 0.0
H1463 H 0.05242 0.74009 0.25396 0.0
C1464 C 0.04099 0.73491 0.28611 0.0
C1465 C 0.03469 0.74063 0.30307 0.0
C1466 C 0.05854 0.7882 0.24527 0.0
C1467 C 0.04707 0.75977 0.26415 0.0
C1468 C 0.06758 0.79938 0.228 0.0
C1469 C 0.07316 0.79381 0.21007 0.0
C1470 C 0.0552 0.7713 0.24493 0.0
C1471 C 0.06897 0.77658 0.20997 0.0
C1472 C 0.04714 0.74441 0.2666 0.0
C1473 C 0.0341 0.75559 0.29946 0.0
N1474 N 0.06038 0.76598 0.22722 0.0
N1475 N 0.04036 0.76469 0.28055 0.0
H1476 H 0.2908 0.354 0.26318 0.0
H1477 H 0.19744 0.27694 0.22142 0.0
H1478 H 0.26308 0.30504 0.29668 0.0
H1479 H 0.22285 0.3294 0.19838 0.0
H1480 H 0.22327 0.28481 0.24477 0.0
H1481 H 0.26818 0.34282 0.23477 0.0
C1482 C 0.27998 0.34081 0.26448 0.0
C1483 C 0.27869 0.33053 0.28255 0.0
C1484 C 0.22322 0.29452 0.23441 0.0
C1485 C 0.25248 0.31763 0.25 0.0
C1486 C 0.20857 0.29002 0.22107 0.0
C1487 C 0.20803 0.30262 0.20822 0.0
C1488 C 0.2374 0.31165 0.23459 0.0
C1489 C 0.22269 0.31938 0.2083 0.0
C1490 C 0.26703 0.33442 0.24822 0.0
C1491 C 0.26451 0.31343 0.2831 0.0
N1492 N 0.23671 0.32341 0.22134 0.0
N1493 N 0.25179 0.30756 0.26719 0.0
H1494 H 0.294 0.34006 0.41061 0.0
H1495 H 0.23868 0.37676 0.4613 0.0
H1496 H 0.28964 0.38078 0.38034 0.0
H1497 H 0.26041 0.35374 0.50273 0.0
H1498 H 0.25558 0.37619 0.43039 0.0
H1499 H 0.28012 0.34273 0.44379 0.0
C1500 C 0.2902 0.34958 0.41096 0.0
C1501 C 0.29291 0.36016 0.39262 0.0
C1502 C 0.25679 0.37138 0.44626 0.0
C1503 C 0.27699 0.36314 0.43029 0.0
C1504 C 0.24713 0.37167 0.46383 0.0
C1505 C 0.24823 0.36529 0.48444 0.0
C1506 C 0.26741 0.36436 0.4492 0.0
C1507 C 0.25935 0.35883 0.48701 0.0
C1508 C 0.28237 0.35114 0.4299 0.0
C1509 C 0.28781 0.37233 0.39402 0.0
N1510 N 0.26841 0.35835 0.46946 0.0
N1511 N 0.27996 0.37336 0.41241 0.0
H1512 H 0.69364 0.96495 0.42641 0.0
H1513 H 0.63068 0.87142 0.46954 0.0
H1514 H 0.64671 0.92982 0.39002 0.0
H1515 H 0.66284 0.914 0.51342 0.0
H1516 H 0.63534 0.892 0.44035 0.0
H1517 H 0.68224 0.94621 0.45852 0.0
C1518 C 0.68082 0.95333 0.4253 0.0
C1519 C 0.67113 0.94882 0.40557 0.0
C1520 C 0.64111 0.8968 0.4565 0.0
C1521 C 0.65811 0.92713 0.44213 0.0
C1522 C 0.63841 0.88506 0.47323 0.0
C1523 C 0.64665 0.89096 0.49393 0.0
C1524 C 0.65231 0.91452 0.4604 0.0
C1525 C 0.65665 0.90883 0.49758 0.0
C1526 C 0.67428 0.94267 0.44365 0.0
C1527 C 0.65455 0.93371 0.405 0.0
N1528 N 0.65944 0.91995 0.48089 0.0
N1529 N 0.64867 0.92317 0.42294 0.0
H1530 H 0.0714 0.75942 0.4104 0.0
H1531 H 0.13203 0.73752 0.48419 0.0
H1532 H 0.06722 0.70997 0.40679 0.0
H1533 H 0.13197 0.78492 0.48683 0.0
H1534 H 0.10966 0.7272 0.45466 0.0
H1535 H 0.09498 0.76898 0.437 0.0
C1536 C 0.07545 0.75052 0.41519 0.0
C1537 C 0.06716 0.73378 0.40642 0.0
C1538 C 0.11458 0.73984 0.46177 0.0
C1539 C 0.09444 0.74477 0.43731 0.0
C1540 C 0.12735 0.74575 0.47854 0.0
C1541 C 0.13369 0.76201 0.48821 0.0
C1542 C 0.1083 0.75037 0.45456 0.0
C1543 C 0.1272 0.77215 0.48027 0.0
C1544 C 0.08901 0.75603 0.43047 0.0
C1545 C 0.07322 0.72297 0.41317 0.0
N1546 N 0.11491 0.76615 0.46402 0.0
N1547 N 0.08647 0.72862 0.42836 0.0
H1548 H 0.33042 0.0507 0.74979 0.0
H1549 H 0.28703 0.09846 0.80603 0.0
H1550 H 0.28466 0.04959 0.72423 0.0
H1551 H 0.32509 0.09081 0.84003 0.0
H1552 H 0.2867 0.081 0.77568 0.0
H1553 H 0.32949 0.06585 0.78265 0.0
C1554 C 0.32014 0.05355 0.75111 0.0
C1555 C 0.30764 0.04891 0.73414 0.0
C1556 C 0.29505 0.08302 0.78982 0.0
C1557 C 0.30659 0.0663 0.77157 0.0
C1558 C 0.29515 0.09292 0.80734 0.0
C1559 C 0.306 0.09608 0.82585 0.0
C1560 C 0.30602 0.07629 0.79053 0.0
C1561 C 0.31663 0.0889 0.82606 0.0
C1562 C 0.31962 0.06218 0.76987 0.0
C1563 C 0.29461 0.05292 0.7368 0.0
N1564 N 0.31643 0.0794 0.80863 0.0
N1565 N 0.2945 0.06145 0.75504 0.0
H1566 H 0.95206 0.2356 0.70721 0.0
H1567 H 0.92148 0.23105 0.8318 0.0
H1568 H 0.95643 0.27949 0.74081 0.0
H1569 H 0.91343 0.18729 0.79403 0.0
H1570 H 0.93552 0.24954 0.79974 0.0
H1571 H 0.93926 0.21831 0.74 0.0
C1572 C 0.95034 0.24164 0.7215 0.0
C1573 C 0.95531 0.25906 0.72118 0.0
C1574 C 0.93073 0.23589 0.79857 0.0
C1575 C 0.94056 0.23917 0.75905 0.0
C1576 C 0.92267 0.22532 0.81683 0.0
C1577 C 0.91633 0.20757 0.81571 0.0
C1578 C 0.93244 0.22865 0.77906 0.0
C1579 C 0.9184 0.20092 0.79591 0.0
C1580 C 0.94299 0.23171 0.74029 0.0
C1581 C 0.95275 0.26611 0.7403 0.0
N1582 N 0.92623 0.21143 0.77845 0.0
N1583 N 0.94553 0.25613 0.75849 0.0
H1584 H 0.71059 0.65162 0.76484 0.0
H1585 H 0.80933 0.71957 0.7884 0.0
H1586 H 0.73808 0.69778 0.72563 0.0
H1587 H 0.77457 0.68885 0.84037 0.0
H1588 H 0.7839 0.71187 0.76457 0.0
H1589 H 0.73416 0.66465 0.79236 0.0
C1590 C 0.72154 0.66457 0.76212 0.0
C1591 C 0.72247 0.67361 0.74288 0.0
C1592 C 0.78183 0.70711 0.78134 0.0
C1593 C 0.74957 0.68848 0.77413 0.0
C1594 C 0.79629 0.71152 0.79487 0.0
C1595 C 0.79388 0.70488 0.81628 0.0
C1596 C 0.76494 0.69562 0.78916 0.0
C1597 C 0.77684 0.69429 0.82396 0.0
C1598 C 0.73493 0.67202 0.77788 0.0
C1599 C 0.73689 0.69039 0.74025 0.0
N1600 N 0.76297 0.68974 0.81027 0.0
N1601 N 0.75006 0.69719 0.75554 0.0
H1602 H 0.6953 0.61793 0.63567 0.0
H1603 H 0.75827 0.66998 0.53657 0.0
H1604 H 0.71272 0.67115 0.62217 0.0
H1605 H 0.73186 0.6147 0.54286 0.0
H1606 H 0.74067 0.67061 0.56666 0.0
H1607 H 0.70766 0.61634 0.60083 0.0
C1608 C 0.70165 0.62927 0.62532 0.0
C1609 C 0.70311 0.64475 0.63196 0.0
C1610 C 0.73854 0.65832 0.56125 0.0
C1611 C 0.71739 0.64303 0.592 0.0
C1612 C 0.7486 0.65796 0.54412 0.0
C1613 C 0.74659 0.64228 0.53734 0.0
C1614 C 0.72656 0.6429 0.57188 0.0
C1615 C 0.73377 0.62706 0.5475 0.0
C1616 C 0.70865 0.62834 0.60536 0.0
C1617 C 0.71135 0.65898 0.61775 0.0
N1618 N 0.72441 0.62778 0.56446 0.0
N1619 N 0.71836 0.65783 0.59854 0.0
H1620 H 0.35955 0.07728 0.6399 0.0
H1621 H 0.34345 0.09478 0.51499 0.0
H1622 H 0.31368 0.04314 0.6011 0.0
H1623 H 0.37438 0.13612 0.56104 0.0
H1624 H 0.33863 0.07398 0.54381 0.0
H1625 H 0.37097 0.09725 0.60835 0.0
C1626 C 0.35207 0.07387 0.62464 0.0
C1627 C 0.3356 0.05868 0.62308 0.0
C1628 C 0.34664 0.08762 0.5475 0.0
C1629 C 0.34856 0.08112 0.58718 0.0
C1630 C 0.34935 0.09951 0.5311 0.0
C1631 C 0.35901 0.11725 0.5357 0.0
C1632 C 0.35374 0.09344 0.56867 0.0
C1633 C 0.3668 0.12258 0.55673 0.0
C1634 C 0.35852 0.08525 0.60675 0.0
C1635 C 0.32634 0.05483 0.60303 0.0
N1636 N 0.36384 0.11071 0.57254 0.0
N1637 N 0.33294 0.06598 0.58589 0.0
H1638 H 0.92824 0.29043 0.6353 0.0
H1639 H 0.89951 0.26303 0.50965 0.0
H1640 H 0.95765 0.27947 0.58952 0.0
H1641 H 0.862 0.24936 0.56163 0.0
H1642 H 0.92309 0.2771 0.53696 0.0
H1643 H 0.90602 0.28332 0.60627 0.0
C1644 C 0.93018 0.28686 0.61904 0.0
C1645 C 0.94468 0.28537 0.61479 0.0
C1646 C 0.90968 0.27117 0.54229 0.0
C1647 C 0.9196 0.27748 0.58171 0.0
C1648 C 0.89618 0.26303 0.52675 0.0
C1649 C 0.87864 0.25461 0.53333 0.0
C1650 C 0.9057 0.27116 0.56457 0.0
C1651 C 0.87526 0.25565 0.55569 0.0
C1652 C 0.91749 0.28273 0.60259 0.0
C1653 C 0.94655 0.2806 0.59351 0.0
N1654 N 0.88867 0.26364 0.57054 0.0
N1655 N 0.93415 0.27681 0.57778 0.0
H1656 H 0.39613 0.30613 0.62635 0.0
H1657 H 0.34459 0.25143 0.51918 0.0
H1658 H 0.34386 0.2938 0.60966 0.0
H1659 H 0.38736 0.25002 0.55064 0.0
H1660 H 0.34676 0.27135 0.54786 0.0
H1661 H 0.39596 0.29059 0.59364 0.0
C1662 C 0.38468 0.30035 0.61568 0.0
C1663 C 0.3699 0.30113 0.62095 0.0
C1664 C 0.35573 0.26674 0.54829 0.0
C1665 C 0.36964 0.28321 0.5834 0.0
C1666 C 0.35445 0.25528 0.53201 0.0
C1667 C 0.36576 0.24888 0.53241 0.0
C1668 C 0.36851 0.27201 0.56496 0.0
C1669 C 0.37852 0.25473 0.54927 0.0
C1670 C 0.38458 0.2914 0.59704 0.0
C1671 C 0.35549 0.29342 0.60636 0.0
N1672 N 0.37951 0.2659 0.56482 0.0
N1673 N 0.35567 0.28467 0.5883 0.0
H1674 H 0.72234 0.05867 0.61562 0.0
H1675 H 0.72638 0.12434 0.52415 0.0
H1676 H 0.69377 0.08483 0.61883 0.0
H1677 H 0.76861 0.11526 0.53521 0.0
H1678 H 0.70995 0.1038 0.55332 0.0
H1679 H 0.73515 0.07354 0.58065 0.0
C1680 C 0.71857 0.06732 0.6088 0.0
C1681 C 0.70714 0.07069 0.6202 0.0
C1682 C 0.72275 0.1062 0.5492 0.0
C1683 C 0.72149 0.08746 0.58037 0.0
C1684 C 0.73218 0.11798 0.53261 0.0
C1685 C 0.74907 0.12183 0.52746 0.0
C1686 C 0.73016 0.09806 0.56068 0.0
C1687 C 0.75565 0.11272 0.53857 0.0
C1688 C 0.72592 0.07583 0.58896 0.0
C1689 C 0.70271 0.08203 0.61071 0.0
N1690 N 0.74624 0.10137 0.55482 0.0
N1691 N 0.7099 0.09002 0.59139 0.0
H1692 H 0.92361 0.63372 0.6366 0.0
H1693 H 0.88811 0.63303 0.51466 0.0
H1694 H 0.95415 0.67042 0.58617 0.0
H1695 H 0.85534 0.61801 0.57191 0.0
H1696 H 0.9127 0.63794 0.53837 0.0
H1697 H 0.89886 0.61938 0.61031 0.0
C1698 C 0.92522 0.63844 0.61984 0.0
C1699 C 0.94078 0.6533 0.61348 0.0
C1700 C 0.90001 0.63321 0.54563 0.0
C1701 C 0.9129 0.63701 0.58355 0.0
C1702 C 0.886 0.63031 0.53214 0.0
C1703 C 0.8698 0.62527 0.54146 0.0
C1704 C 0.89769 0.63081 0.5685 0.0
C1705 C 0.86773 0.62207 0.56421 0.0
C1706 C 0.91114 0.63035 0.60495 0.0
C1707 C 0.94226 0.65906 0.59169 0.0
N1708 N 0.88158 0.62502 0.57703 0.0
N1709 N 0.92847 0.65094 0.5775 0.0
H1710 H 0.96975 0.71914 0.71149 0.0
H1711 H 0.91421 0.6733 0.81818 0.0
H1712 H 0.95778 0.66873 0.73257 0.0
H1713 H 0.9375 0.72762 0.80539 0.0
H1714 H 0.93089 0.67151 0.78778 0.0
H1715 H 0.95873 0.72271 0.74637 0.0
C1716 C 0.96489 0.70885 0.72351 0.0
C1717 C 0.96454 0.69354 0.71902 0.0
C1718 C 0.93255 0.68387 0.79182 0.0
C1719 C 0.9518 0.69753 0.75899 0.0
C1720 C 0.92302 0.68489 0.80912 0.0
C1721 C 0.9244 0.70061 0.81417 0.0
C1722 C 0.94335 0.69863 0.77927 0.0
C1723 C 0.93611 0.71526 0.80208 0.0
C1724 C 0.95866 0.71093 0.74348 0.0
C1725 C 0.95823 0.68072 0.73531 0.0
N1726 N 0.94495 0.71388 0.78498 0.0
N1727 N 0.95192 0.68292 0.75448 0.0
H1728 H 0.36866 0.27944 0.73256 0.0
H1729 H 0.29491 0.22097 0.81995 0.0
H1730 H 0.31891 0.27628 0.7334 0.0
H1731 H 0.34685 0.22918 0.81867 0.0
H1732 H 0.30218 0.23991 0.78765 0.0
H1733 H 0.35951 0.25956 0.76314 0.0
C1734 C 0.35574 0.27453 0.73916 0.0
C1735 C 0.3446 0.27968 0.73044 0.0
C1736 C 0.31195 0.23757 0.79456 0.0
C1737 C 0.33395 0.25672 0.76592 0.0
C1738 C 0.30782 0.22677 0.81293 0.0
C1739 C 0.32037 0.22364 0.82221 0.0
C1740 C 0.32868 0.24514 0.78536 0.0
C1741 C 0.33688 0.23149 0.81247 0.0
C1742 C 0.3505 0.26313 0.75673 0.0
C1743 C 0.32793 0.27267 0.73964 0.0
N1744 N 0.3405 0.2418 0.79465 0.0
N1745 N 0.32311 0.26158 0.75702 0.0
H1746 H 0.73008 0.04206 0.72825 0.0
H1747 H 0.783 0.11175 0.82324 0.0
H1748 H 0.72468 0.08548 0.74298 0.0
H1749 H 0.78988 0.0689 0.81113 0.0
H1750 H 0.76096 0.10138 0.79422 0.0
H1751 H 0.7515 0.05086 0.75859 0.0
C1752 C 0.73336 0.0534 0.73783 0.0
C1753 C 0.72557 0.06306 0.73298 0.0
C1754 C 0.76718 0.09413 0.7979 0.0
C1755 C 0.74999 0.07315 0.76764 0.0
C1756 C 0.77971 0.09999 0.81468 0.0
C1757 C 0.78822 0.09109 0.81989 0.0
C1758 C 0.76306 0.07926 0.78595 0.0
C1759 C 0.78371 0.07621 0.80764 0.0
C1760 C 0.74558 0.05841 0.75513 0.0
C1761 C 0.73032 0.07763 0.74599 0.0
N1762 N 0.77142 0.07074 0.79122 0.0
N1763 N 0.74218 0.08219 0.76262 0.0
H1764 H 0.03802 0.36185 0.05399 0.0
H1765 H 0.06351 0.29006 0.06697 0.0
H1766 H 0.01851 0.31801 0.01044 0.0
H1767 H 0.0927 0.34004 0.09808 0.0
H1768 H 0.04543 0.29921 0.04789 0.0
H1769 H 0.05712 0.35345 0.07182 0.0
C1770 C 0.03783 0.35053 0.04808 0.0
C1771 C 0.02663 0.34062 0.0307 0.0
C1772 C 0.05583 0.30819 0.05884 0.0
C1773 C 0.04828 0.33081 0.05121 0.0
C1774 C 0.06605 0.30293 0.06984 0.0
C1775 C 0.07963 0.31432 0.08408 0.0
C1776 C 0.05907 0.32489 0.06232 0.0
C1777 C 0.08248 0.33091 0.08705 0.0
C1778 C 0.04873 0.34574 0.05826 0.0
C1779 C 0.02695 0.32607 0.02373 0.0
N1780 N 0.07225 0.33567 0.07635 0.0
N1781 N 0.03749 0.32153 0.03411 0.0
H1782 H 0.63903 0.67364 0.04077 0.0
H1783 H 0.69778 0.77566 0.05861 0.0
H1784 H 0.68759 0.70618 0.00703 0.0
H1785 H 0.64485 0.7447 0.08172 0.0
H1786 H 0.69468 0.75018 0.04059 0.0
H1787 H 0.6412 0.69934 0.05676 0.0
C1788 C 0.65012 0.68618 0.03665 0.0
C1789 C 0.66317 0.68773 0.02256 0.0
C1790 C 0.68371 0.74896 0.04951 0.0
C1791 C 0.66579 0.71723 0.04094 0.0
C1792 C 0.68551 0.76349 0.05991 0.0
C1793 C 0.67156 0.7623 0.07173 0.0
C1794 C 0.6679 0.73306 0.05111 0.0
C1795 C 0.65588 0.74623 0.07263 0.0
C1796 C 0.65133 0.70086 0.04576 0.0
C1797 C 0.67721 0.70435 0.01779 0.0
N1798 N 0.65451 0.73223 0.06258 0.0
N1799 N 0.6782 0.71842 0.02706 0.0
H1800 H 0.30219 0.98662 0.05247 0.0
H1801 H 0.20581 0.9032 0.05331 0.0
H1802 H 0.28758 0.93771 0.02303 0.0
H1803 H 0.22468 0.94185 0.10451 0.0
H1804 H 0.23371 0.92005 0.03462 0.0
H1805 H 0.2718 0.97422 0.0645 0.0
C1806 C 0.29252 0.9734 0.0482 0.0
C1807 C 0.29736 0.96308 0.03695 0.0
C1808 C 0.23168 0.92494 0.04982 0.0
C1809 C 0.26285 0.94903 0.05033 0.0
C1810 C 0.21579 0.91533 0.06053 0.0
C1811 C 0.21309 0.92093 0.08078 0.0
C1812 C 0.24498 0.94035 0.05933 0.0
C1813 C 0.22628 0.93701 0.08901 0.0
C1814 C 0.27528 0.96635 0.05515 0.0
C1815 C 0.28442 0.94603 0.0319 0.0
N1816 N 0.2418 0.94609 0.07838 0.0
N1817 N 0.26777 0.93954 0.03865 0.0
H1818 H 0.34583 0.05505 0.04185 0.0
H1819 H 0.32359 0.08493 0.92887 0.0
H1820 H 0.35125 0.03752 0.9781 0.0
H1821 H 0.33702 0.1154 0.98825 0.0
H1822 H 0.33092 0.06557 0.94761 0.0
H1823 H 0.34032 0.07587 0.02341 0.0
C1824 C 0.34599 0.05566 0.02401 0.0
C1825 C 0.34898 0.0445 0.01151 0.0
C1826 C 0.33231 0.07652 0.95653 0.0
C1827 C 0.34243 0.06804 0.99038 0.0
C1828 C 0.32801 0.08748 0.9459 0.0
C1829 C 0.32969 0.10175 0.95706 0.0
C1830 C 0.3381 0.07969 0.97859 0.0
C1831 C 0.33565 0.10458 0.97904 0.0
C1832 C 0.34285 0.06753 0.01352 0.0
C1833 C 0.34904 0.04586 0.98843 0.0
N1834 N 0.33954 0.09358 0.98916 0.0
N1835 N 0.34564 0.05729 0.97862 0.0
H1836 H 0.92102 0.30005 0.99924 0.0
H1837 H 0.93254 0.22281 0.95957 0.0
H1838 H 0.97074 0.3032 0.00352 0.0
H1839 H 0.88988 0.2294 0.94013 0.0
H1840 H 0.946 0.25041 0.97948 0.0
H1841 H 0.90815 0.27158 0.98278 0.0
C1842 C 0.92922 0.29469 0.99695 0.0
C1843 C 0.94706 0.30416 0.00257 0.0
C1844 C 0.93368 0.24573 0.97085 0.0
C1845 C 0.93235 0.27148 0.98341 0.0
C1846 C 0.92605 0.23006 0.95937 0.0
C1847 C 0.90993 0.22364 0.94836 0.0
C1848 C 0.92505 0.25492 0.97139 0.0
C1849 C 0.90207 0.23356 0.94881 0.0
C1850 C 0.92186 0.27844 0.9874 0.0
C1851 C 0.95696 0.29641 0.99932 0.0
N1852 N 0.90965 0.2486 0.96019 0.0
N1853 N 0.94949 0.28054 0.98979 0.0
H1854 H 0.70611 0.6243 0.99492 0.0
H1855 H 0.78613 0.70915 0.94174 0.0
H1856 H 0.7052 0.67094 0.98563 0.0
H1857 H 0.78087 0.65924 0.94405 0.0
H1858 H 0.75864 0.69725 0.96221 0.0
H1859 H 0.73575 0.6389 0.98127 0.0
C1860 C 0.7122 0.63769 0.99009 0.0
C1861 C 0.70306 0.64634 0.99112 0.0
C1862 C 0.7636 0.68898 0.95831 0.0
C1863 C 0.73717 0.66321 0.97516 0.0
C1864 C 0.77926 0.69575 0.94674 0.0
C1865 C 0.78559 0.68507 0.94099 0.0
C1866 C 0.75444 0.67149 0.96433 0.0
C1867 C 0.77627 0.66783 0.9478 0.0
C1868 C 0.72917 0.64605 0.98226 0.0
C1869 C 0.71177 0.66378 0.98497 0.0
N1870 N 0.76118 0.6616 0.95901 0.0
N1871 N 0.72833 0.67163 0.97698 0.0
H1872 H 0.96449 0.64213 0.97063 0.0
H1873 H 0.91281 0.69207 0.97459 0.0
H1874 H 0.96665 0.67241 0.02657 0.0
H1875 H 0.92039 0.67081 0.91524 0.0
H1876 H 0.92979 0.68243 0.99522 0.0
H1877 H 0.94493 0.64933 0.95177 0.0
C1878 C 0.96071 0.65014 0.97907 0.0
C1879 C 0.96735 0.65678 1.00018 0.0
C1880 C 0.92768 0.67985 0.97769 0.0
C1881 C 0.945 0.66518 0.97855 0.0
C1882 C 0.91809 0.68546 0.96585 0.0
C1883 C 0.91514 0.68229 0.94308 0.0
C1884 C 0.93432 0.67092 0.96674 0.0
C1885 C 0.92206 0.67335 0.93279 0.0
C1886 C 0.9496 0.65432 0.96823 0.0
C1887 C 0.96193 0.66707 0.01027 0.0
N1888 N 0.9313 0.668 0.94468 0.0
N1889 N 0.95114 0.67104 0.99932 0.0
H1890 H 0.34646 0.30201 0.03816 0.0
H1891 H 0.31844 0.24593 0.92719 0.0
H1892 H 0.33954 0.32027 0.9753 0.0
H1893 H 0.33446 0.2315 0.98673 0.0
H1894 H 0.32426 0.27241 0.94531 0.0
H1895 H 0.34052 0.27537 0.02029 0.0
C1896 C 0.34371 0.30044 0.02061 0.0
C1897 C 0.34351 0.31342 0.00822 0.0
C1898 C 0.32652 0.26347 0.95443 0.0
C1899 C 0.33661 0.28291 0.98769 0.0
C1900 C 0.32308 0.24828 0.94413 0.0
C1901 C 0.32595 0.23647 0.95547 0.0
C1902 C 0.33278 0.26685 0.97629 0.0
C1903 C 0.33222 0.24032 0.9773 0.0
C1904 C 0.34034 0.28523 0.01041 0.0
C1905 C 0.33987 0.31065 0.98551 0.0
N1906 N 0.33538 0.25515 0.98702 0.0
N1907 N 0.33652 0.2957 0.97601 0.0
H1908 H 0.71432 0.06313 0.01807 0.0
H1909 H 0.77462 0.06052 0.92918 0.0
H1910 H 0.6988 0.01573 0.98376 0.0
H1911 H 0.79556 0.09453 0.9855 0.0
H1912 H 0.74708 0.0431 0.9488 0.0
H1913 H 0.7444 0.07461 0.0065 0.0
C1914 C 0.71734 0.05506 0.00836 0.0
C1915 C 0.70412 0.03853 0.00173 0.0
C1916 C 0.75784 0.0542 0.95699 0.0
C1917 C 0.73837 0.05168 0.988 0.0
C1918 C 0.77359 0.06412 0.94583 0.0
C1919 C 0.78729 0.07924 0.95552 0.0
C1920 C 0.75578 0.0596 0.97777 0.0
C1921 C 0.78515 0.08329 0.97712 0.0
C1922 C 0.7345 0.06158 0.00182 0.0
C1923 C 0.70868 0.02854 0.98921 0.0
N1924 N 0.76959 0.07374 0.98734 0.0
N1925 N 0.72542 0.03542 0.9823 0.0
H1926 H 0.63319 0.95169 0.04597 0.0
H1927 H 0.69046 0.90788 0.0543 0.0
H1928 H 0.67418 0.9622 1.00037 0.0
H1929 H 0.64176 0.8882 0.08846 0.0
H1930 H 0.68537 0.92877 0.03551 0.0
H1931 H 0.63647 0.92894 0.0626 0.0
C1932 C 0.64278 0.94913 0.03934 0.0
C1933 C 0.65346 0.95892 0.02178 0.0
C1934 C 0.67575 0.91983 0.04703 0.0
C1935 C 0.65742 0.93304 0.04092 0.0
C1936 C 0.67871 0.908 0.05787 0.0
C1937 C 0.66653 0.89633 0.07299 0.0
C1938 C 0.66059 0.92016 0.05152 0.0
C1939 C 0.65141 0.89689 0.07679 0.0
C1940 C 0.64464 0.93614 0.04884 0.0
C1941 C 0.66566 0.95501 0.01386 0.0
N1942 N 0.64892 0.90869 0.06624 0.0
N1943 N 0.6674 0.94249 0.02361 0.0
H1944 H 0.02258 0.69738 0.03587 0.0
H1945 H 0.1072 0.79119 0.05331 0.0
H1946 H 0.07433 0.71179 0.01506 0.0
H1947 H 0.06183 0.77079 0.09474 0.0
H1948 H 0.09283 0.76437 0.03228 0.0
H1949 H 0.0345 0.7266 0.05044 0.0
C1950 C 0.03638 0.70677 0.034 0.0
C1951 C 0.04754 0.70213 0.02442 0.0
C1952 C 0.08598 0.76582 0.04588 0.0
C1953 C 0.06114 0.73544 0.04095 0.0
C1954 C 0.0942 0.78109 0.058 0.0
C1955 C 0.08588 0.78314 0.07617 0.0
C1956 C 0.06922 0.7525 0.05177 0.0
C1957 C 0.06878 0.76979 0.08092 0.0
C1958 C 0.04316 0.72337 0.04244 0.0
C1959 C 0.06531 0.71477 0.02252 0.0
N1960 N 0.06105 0.75496 0.0689 0.0
N1961 N 0.07157 0.73083 0.03078 0.0
H1962 H 0.29558 0.32877 0.04342 0.0
H1963 H 0.21982 0.34379 0.08389 0.0
H1964 H 0.29832 0.37761 0.043 0.0
H1965 H 0.21525 0.29421 0.08769 0.0
H1966 H 0.24765 0.35539 0.06544 0.0
H1967 H 0.26522 0.31482 0.05616 0.0
C1968 C 0.28976 0.33651 0.04577 0.0
C1969 C 0.29956 0.35441 0.04238 0.0
C1970 C 0.24061 0.34194 0.0702 0.0
C1971 C 0.26503 0.33863 0.05688 0.0
C1972 C 0.22473 0.33534 0.08083 0.0
C1973 C 0.21536 0.31809 0.08761 0.0
C1974 C 0.24735 0.33129 0.06637 0.0
C1975 C 0.22213 0.30761 0.08276 0.0
C1976 C 0.27248 0.32856 0.05309 0.0
C1977 C 0.29138 0.36382 0.04566 0.0
N1978 N 0.23785 0.31442 0.0726 0.0
N1979 N 0.27469 0.35584 0.0528 0.0
H1980 H 0.70165 0.69615 0.39336 0.0
H1981 H 0.76101 0.65469 0.38036 0.0
H1982 H 0.70239 0.67024 0.33428 0.0
H1983 H 0.7535 0.67348 0.44195 0.0
H1984 H 0.74203 0.66298 0.362 0.0
H1985 H 0.72358 0.69115 0.40994 0.0
C1986 C 0.70655 0.68957 0.38376 0.0
C1987 C 0.70005 0.68349 0.36243 0.0
C1988 C 0.74462 0.66535 0.37952 0.0
C1989 C 0.72512 0.67762 0.38143 0.0
C1990 C 0.75537 0.66052 0.39005 0.0
C1991 C 0.75887 0.66333 0.41279 0.0
C1992 C 0.73731 0.67308 0.39176 0.0
C1993 C 0.75141 0.67125 0.42436 0.0
C1994 C 0.71903 0.68665 0.3933 0.0
C1995 C 0.70694 0.67507 0.35081 0.0
N1996 N 0.74098 0.6758 0.41375 0.0
N1997 N 0.71902 0.6723 0.36051 0.0
H1998 H 0.30188 0.01146 0.38522 0.0
H1999 H 0.36423 0.11403 0.39331 0.0
H2000 H 0.34613 0.04119 0.34293 0.0
H2001 H 0.31466 0.08538 0.42617 0.0
H2002 H 0.3587 0.08728 0.37623 0.0
H2003 H 0.30715 0.03824 0.40185 0.0
C2004 C 0.3127 0.02361 0.37941 0.0
C2005 C 0.32358 0.02407 0.36263 0.0
C2006 C 0.34901 0.08685 0.38713 0.0
C2007 C 0.32973 0.05478 0.38169 0.0
C2008 C 0.3522 0.10209 0.39698 0.0
C2009 C 0.33988 0.10194 0.41118 0.0
C2010 C 0.33344 0.07127 0.39165 0.0
C2011 C 0.32443 0.08612 0.41515 0.0
C2012 C 0.31568 0.0389 0.38889 0.0
C2013 C 0.33738 0.04021 0.35577 0.0
N2014 N 0.32168 0.07143 0.40551 0.0
N2015 N 0.34009 0.05491 0.36538 0.0
H2016 H 0.9765 0.29581 0.41792 0.0
H2017 H 0.88109 0.26002 0.37937 0.0
H2018 H 0.96753 0.3146 0.35682 0.0
H2019 H 0.89582 0.2722 0.44783 0.0
H2020 H 0.91198 0.27856 0.36929 0.0
H2021 H 0.94629 0.28514 0.42835 0.0
C2022 C 0.96813 0.29774 0.40676 0.0
C2023 C 0.97438 0.30598 0.38647 0.0
C2024 C 0.90835 0.27747 0.38645 0.0
C2025 C 0.93984 0.2936 0.3981 0.0
C2026 C 0.89081 0.26691 0.39219 0.0
C2027 C 0.88601 0.26463 0.41443 0.0
C2028 C 0.92109 0.28531 0.40315 0.0
C2029 C 0.89902 0.27373 0.43049 0.0
C2030 C 0.95098 0.29178 0.41278 0.0
C2031 C 0.96312 0.3083 0.37263 0.0
N2032 N 0.91604 0.2834 0.42457 0.0
N2033 N 0.94619 0.30181 0.3785 0.0
H2034 H 0.02506 0.37389 0.31303 0.0
H2035 H 0.02982 0.46421 0.3175 0.0
H2036 H 0.03529 0.40307 0.37315 0.0
H2037 H 0.00708 0.42836 0.26325 0.0
H2038 H 0.03533 0.44375 0.33689 0.0
H2039 H 0.02198 0.39562 0.29328 0.0
C2040 C 0.02677 0.38492 0.32209 0.0
C2041 C 0.03036 0.3866 0.34484 0.0
C2042 C 0.02915 0.44038 0.32073 0.0
C2043 C 0.02683 0.41157 0.32224 0.0
C2044 C 0.02609 0.45208 0.30962 0.0
C2045 C 0.01792 0.44793 0.28877 0.0
C2046 C 0.02419 0.42452 0.31081 0.0
C2047 C 0.01322 0.43198 0.27941 0.0
C2048 C 0.02494 0.3973 0.31079 0.0
C2049 C 0.03244 0.4012 0.35564 0.0
N2050 N 0.01645 0.42087 0.29046 0.0
N2051 N 0.03063 0.41312 0.34425 0.0
H2052 H 0.64414 0.63892 0.32627 0.0
H2053 H 0.56343 0.54191 0.3182 0.0
H2054 H 0.59331 0.62136 0.35346 0.0
H2055 H 0.60345 0.5645 0.2687 0.0
H2056 H 0.57852 0.569 0.33869 0.0
H2057 H 0.63329 0.60961 0.31248 0.0
C2058 C 0.63082 0.62883 0.32972 0.0
C2059 C 0.61952 0.63255 0.34084 0.0
C2060 C 0.58408 0.56795 0.32346 0.0
C2061 C 0.60719 0.5992 0.32536 0.0
C2062 C 0.57545 0.55253 0.31168 0.0
C2063 C 0.58194 0.55105 0.29139 0.0
C2064 C 0.59944 0.58199 0.31506 0.0
C2065 C 0.59792 0.56508 0.2842 0.0
C2066 C 0.62465 0.61219 0.32175 0.0
C2067 C 0.60238 0.61905 0.34478 0.0
N2068 N 0.60605 0.58006 0.29592 0.0
N2069 N 0.59672 0.60299 0.337 0.0
H2070 H 0.34405 0.96337 0.28378 0.0
H2071 H 0.44359 0.00696 0.31266 0.0
H2072 H 0.36443 0.99347 0.34338 0.0
H2073 H 0.42646 0.00681 0.2459 0.0
H2074 H 0.41435 0.99884 0.3257 0.0
H2075 H 0.37396 0.97591 0.27049 0.0
C2076 C 0.35485 0.97269 0.294 0.0
C2077 C 0.35184 0.97742 0.31468 0.0
C2078 C 0.41711 0.00079 0.30824 0.0
C2079 C 0.38595 0.99145 0.29983 0.0
C2080 C 0.43367 0.00533 0.30084 0.0
C2081 C 0.43729 0.00755 0.27825 0.0
C2082 C 0.40407 0.998 0.29283 0.0
C2083 C 0.4241 0.00528 0.26347 0.0
C2084 C 0.37185 0.97986 0.28639 0.0
C2085 C 0.36625 0.98958 0.32729 0.0
N2086 N 0.40795 0.00037 0.27099 0.0
N2087 N 0.38277 0.996 0.31982 0.0
H2088 H 0.6422 0.00868 0.35616 0.0
H2089 H 0.56499 0.97791 0.26687 0.0
H2090 H 0.62855 0.96786 0.30925 0.0
H2091 H 0.58753 0.02585 0.30275 0.0
H2092 H 0.58583 0.97199 0.28519 0.0
H2093 H 0.61977 0.01303 0.33978 0.0
C2094 C 0.63441 0.00054 0.34251 0.0
C2095 C 0.63732 0.98792 0.33401 0.0
C2096 C 0.58619 0.98379 0.28907 0.0
C2097 C 0.6116 0.99287 0.31516 0.0
C2098 C 0.57426 0.98713 0.27872 0.0
C2099 C 0.57457 0.00242 0.28327 0.0
C2100 C 0.59843 0.99575 0.30424 0.0
C2101 C 0.58697 0.014 0.29858 0.0
C2102 C 0.62165 0.00309 0.33311 0.0
C2103 C 0.62682 0.97779 0.31627 0.0
N2104 N 0.59837 0.01042 0.30855 0.0
N2105 N 0.61442 0.98049 0.30743 0.0
H2106 H 0.03807 0.66827 0.31883 0.0
H2107 H 0.98688 0.56562 0.30831 0.0
H2108 H 0.99736 0.63384 0.36323 0.0
H2109 H 0.03521 0.59918 0.27476 0.0
H2110 H 0.9897 0.59065 0.32724 0.0
H2111 H 0.03655 0.64333 0.30121 0.0
C2112 C 0.02885 0.65549 0.32492 0.0
C2113 C 0.01781 0.65316 0.34253 0.0
C2114 C 0.99974 0.59255 0.31581 0.0
C2115 C 0.01593 0.62456 0.32233 0.0
C2116 C 0.99808 0.57828 0.30491 0.0
C2117 C 0.0108 0.58033 0.28989 0.0
C2118 C 0.01414 0.60907 0.31152 0.0
C2119 C 0.02517 0.59701 0.28633 0.0
C2120 C 0.02802 0.64126 0.31488 0.0
C2121 C 0.00614 0.63628 0.34974 0.0
N2122 N 0.02639 0.61076 0.29695 0.0
N2123 N 0.00544 0.62265 0.33954 0.0
H2124 H 0.37435 0.39807 0.34038 0.0
H2125 H 0.43808 0.39496 0.25704 0.0
H2126 H 0.36076 0.34993 0.30955 0.0
H2127 H 0.45672 0.43001 0.31243 0.0
H2128 H 0.4098 0.37775 0.27524 0.0
H2129 H 0.40467 0.41011 0.32957 0.0
C2130 C 0.37784 0.38999 0.33153 0.0
C2131 C 0.36512 0.37305 0.32573 0.0
C2132 C 0.42022 0.38905 0.28353 0.0
C2133 C 0.39966 0.3868 0.31292 0.0
C2134 C 0.43637 0.39885 0.27319 0.0
C2135 C 0.44967 0.41417 0.283 0.0
C2136 C 0.41736 0.39477 0.3036 0.0
C2137 C 0.44667 0.4186 0.30393 0.0
C2138 C 0.39514 0.39682 0.32544 0.0
C2139 C 0.37028 0.36306 0.31434 0.0
N2140 N 0.43075 0.40914 0.31333 0.0
N2141 N 0.38716 0.3702 0.30788 0.0
H2142 H 0.31316 0.30123 0.3882 0.0
H2143 H 0.32247 0.21876 0.37853 0.0
H2144 H 0.3121 0.27825 0.32561 0.0
H2145 H 0.34112 0.25312 0.43454 0.0
H2146 H 0.31437 0.23773 0.36006 0.0
H2147 H 0.31888 0.28072 0.40669 0.0
C2148 C 0.31397 0.29177 0.37834 0.0
C2149 C 0.31223 0.29152 0.35528 0.0
C2150 C 0.32024 0.24109 0.37639 0.0
C2151 C 0.31879 0.26799 0.37642 0.0
C2152 C 0.32479 0.23026 0.38695 0.0
C2153 C 0.33253 0.23444 0.40804 0.0
C2154 C 0.32321 0.25605 0.38715 0.0
C2155 C 0.33535 0.24954 0.41819 0.0
C2156 C 0.31733 0.28013 0.38892 0.0
C2157 C 0.31343 0.27896 0.3434 0.0
N2158 N 0.33063 0.25976 0.40769 0.0
N2159 N 0.31664 0.26768 0.35411 0.0
H2160 H 0.69575 0.03101 0.35751 0.0
H2161 H 0.78187 0.11121 0.4095 0.0
H2162 H 0.74579 0.03495 0.36286 0.0
H2163 H 0.73606 0.11356 0.39363 0.0
H2164 H 0.76812 0.08291 0.39263 0.0
H2165 H 0.70959 0.06099 0.37025 0.0
C2166 C 0.70965 0.03822 0.36108 0.0
C2167 C 0.71959 0.03039 0.35928 0.0
C2168 C 0.76105 0.0896 0.39265 0.0
C2169 C 0.73539 0.06451 0.37405 0.0
C2170 C 0.76897 0.10588 0.40221 0.0
C2171 C 0.76025 0.11497 0.40275 0.0
C2172 C 0.74412 0.08209 0.38369 0.0
C2173 C 0.74327 0.10702 0.39367 0.0
C2174 C 0.71752 0.05529 0.36841 0.0
C2175 C 0.73755 0.04034 0.36415 0.0
N2176 N 0.73572 0.091 0.38452 0.0
N2177 N 0.74479 0.05678 0.37145 0.0
H2178 H 0.96446 0.67008 0.36013 0.0
H2179 H 0.90227 0.65447 0.462 0.0
H2180 H 0.98124 0.70025 0.41993 0.0
H2181 H 0.88273 0.64562 0.39491 0.0
H2182 H 0.93134 0.66381 0.44828 0.0
H2183 H 0.93437 0.65386 0.37442 0.0
C2184 C 0.96185 0.67305 0.37638 0.0
C2185 C 0.97521 0.68656 0.38886 0.0
C2186 C 0.92063 0.65966 0.4366 0.0
C2187 C 0.94128 0.66808 0.40525 0.0
C2188 C 0.90405 0.65443 0.44437 0.0
C2189 C 0.89009 0.64968 0.42956 0.0
C2190 C 0.92333 0.65999 0.41384 0.0
C2191 C 0.89311 0.64926 0.40694 0.0
C2192 C 0.94475 0.6639 0.38443 0.0
C2193 C 0.97123 0.69003 0.40974 0.0
N2194 N 0.90948 0.65454 0.39971 0.0
N2195 N 0.95465 0.68084 0.41728 0.0
H2196 H 0.37347 0.00777 0.66673 0.0
H2197 H 0.42216 0.01148 0.77987 0.0
H2198 H 0.36995 0.03147 0.72638 0.0
H2199 H 0.43106 0.99342 0.7186 0.0
H2200 H 0.40285 0.01868 0.76043 0.0
H2201 H 0.39454 0.00234 0.68523 0.0
C2202 C 0.37721 0.01194 0.68367 0.0
C2203 C 0.36987 0.02005 0.69504 0.0
C2204 C 0.40906 0.01319 0.75119 0.0
C2205 C 0.39388 0.01374 0.71635 0.0
C2206 C 0.42017 0.00914 0.76228 0.0
C2207 C 0.42834 0.00188 0.75087 0.0
C2208 C 0.40595 0.0099 0.72849 0.0
C2209 C 0.42491 0.9988 0.72815 0.0
C2210 C 0.38923 0.00882 0.69422 0.0
C2211 C 0.37523 0.02517 0.71695 0.0
N2212 N 0.41397 0.00282 0.71772 0.0
N2213 N 0.38682 0.02185 0.72691 0.0
H2214 H 0.98484 0.344 0.72299 0.0
H2215 H 0.98381 0.43135 0.71386 0.0
H2216 H 0.97582 0.36274 0.66179 0.0
H2217 H 0.00344 0.41776 0.77077 0.0
H2218 H 0.97826 0.40503 0.69541 0.0
H2219 H 0.98913 0.3697 0.74166 0.0
C2220 C 0.98368 0.35348 0.71348 0.0
C2221 C 0.98 0.35122 0.69075 0.0
C2222 C 0.9838 0.40782 0.71193 0.0
C2223 C 0.9849 0.38071 0.71208 0.0
C2224 C 0.98687 0.42278 0.72251 0.0
C2225 C 0.99413 0.42677 0.74387 0.0
C2226 C 0.98785 0.39666 0.72286 0.0
C2227 C 0.99802 0.41529 0.75421 0.0
C2228 C 0.9862 0.36819 0.72415 0.0
C2229 C 0.97869 0.36397 0.6793 0.0
N2230 N 0.99479 0.40075 0.74364 0.0
N2231 N 0.98113 0.37816 0.69009 0.0
H2232 H 0.63809 0.65292 0.71986 0.0
H2233 H 0.54098 0.57153 0.71399 0.0
H2234 H 0.62492 0.60402 0.69176 0.0
H2235 H 0.56003 0.60503 0.771 0.0
H2236 H 0.56988 0.58847 0.69766 0.0
H2237 H 0.6074 0.64011 0.73093 0.0
C2238 C 0.62868 0.6396 0.71573 0.0
C2239 C 0.63396 0.62942 0.70508 0.0
C2240 C 0.5676 0.5922 0.71362 0.0
C2241 C 0.59915 0.61497 0.71716 0.0
C2242 C 0.55116 0.5825 0.72305 0.0
C2243 C 0.54812 0.58656 0.74421 0.0
C2244 C 0.58105 0.60626 0.72519 0.0
C2245 C 0.56171 0.60136 0.7547 0.0
C2246 C 0.61128 0.63233 0.72209 0.0
C2247 C 0.62136 0.61222 0.70015 0.0
N2248 N 0.57766 0.61062 0.74516 0.0
N2249 N 0.60451 0.60554 0.70619 0.0
H2250 H 0.66176 0.70727 0.70009 0.0
H2251 H 0.69315 0.77885 0.60562 0.0
H2252 H 0.7002 0.71559 0.65155 0.0
H2253 H 0.64651 0.76132 0.64368 0.0
H2254 H 0.69844 0.75841 0.62538 0.0
H2255 H 0.65865 0.72986 0.68277 0.0
C2256 C 0.66966 0.71394 0.6859 0.0
C2257 C 0.68119 0.70946 0.67718 0.0
C2258 C 0.68707 0.75907 0.62943 0.0
C2259 C 0.67766 0.73532 0.65726 0.0
C2260 C 0.6841 0.77078 0.61825 0.0
C2261 C 0.66933 0.77172 0.62297 0.0
C2262 C 0.67529 0.74834 0.6456 0.0
C2263 C 0.65794 0.76086 0.63934 0.0
C2264 C 0.66782 0.72679 0.67597 0.0
C2265 C 0.69108 0.71855 0.65875 0.0
N2266 N 0.66117 0.74964 0.65008 0.0
N2267 N 0.68907 0.73103 0.64937 0.0
H2268 H 0.3126 0.97524 0.66844 0.0
H2269 H 0.22951 0.89326 0.6137 0.0
H2270 H 0.26213 0.96972 0.65849 0.0
H2271 H 0.27555 0.8925 0.63344 0.0
H2272 H 0.24229 0.92191 0.62924 0.0
H2273 H 0.30018 0.94546 0.65553 0.0
C2274 C 0.2989 0.96774 0.66377 0.0
C2275 C 0.28842 0.97505 0.66443 0.0
C2276 C 0.24963 0.91551 0.63035 0.0
C2277 C 0.27426 0.94116 0.64949 0.0
C2278 C 0.24228 0.89905 0.62154 0.0
C2279 C 0.25132 0.89027 0.62259 0.0
C2280 C 0.26632 0.92352 0.64017 0.0
C2281 C 0.26811 0.89878 0.63228 0.0
C2282 C 0.29185 0.95078 0.65636 0.0
C2283 C 0.27077 0.96474 0.65815 0.0
N2284 N 0.27508 0.91496 0.64075 0.0
N2285 N 0.26433 0.94842 0.65085 0.0
H2286 H 0.03466 0.29645 0.66998 0.0
H2287 H 0.11145 0.36977 0.60286 0.0
H2288 H 0.03199 0.34018 0.64783 0.0
H2289 H 0.12016 0.34115 0.65312 0.0
H2290 H 0.0825 0.35953 0.61806 0.0
H2291 H 0.06595 0.31237 0.66265 0.0
C2292 C 0.04074 0.3095 0.66373 0.0
C2293 C 0.03078 0.31702 0.65939 0.0
C2294 C 0.0909 0.35575 0.62593 0.0
C2295 C 0.06651 0.3352 0.6506 0.0
C2296 C 0.10747 0.36163 0.61733 0.0
C2297 C 0.11821 0.35608 0.62646 0.0
C2298 C 0.08494 0.34405 0.64353 0.0
C2299 C 0.11218 0.34537 0.64509 0.0
C2300 C 0.0586 0.3186 0.65965 0.0
C2301 C 0.03928 0.33398 0.65142 0.0
N2302 N 0.09586 0.33947 0.65275 0.0
N2303 N 0.05667 0.34244 0.64687 0.0
H2304 H 0.2968 0.32806 0.69772 0.0
H2305 H 0.25242 0.3325 0.58466 0.0
H2306 H 0.30337 0.30932 0.63553 0.0
H2307 H 0.24189 0.34659 0.6479 0.0
H2308 H 0.27033 0.32302 0.60316 0.0
H2309 H 0.27578 0.33388 0.68004 0.0
C2310 C 0.29371 0.32501 0.68039 0.0
C2311 C 0.30196 0.31828 0.66808 0.0
C2312 C 0.26404 0.32812 0.61301 0.0
C2313 C 0.27799 0.32509 0.64765 0.0
C2314 C 0.25374 0.33348 0.60245 0.0
C2315 C 0.24567 0.34045 0.6147 0.0
C2316 C 0.26637 0.32978 0.636 0.0
C2317 C 0.2481 0.3416 0.63771 0.0
C2318 C 0.28171 0.32837 0.67029 0.0
C2319 C 0.29738 0.31456 0.64568 0.0
N2320 N 0.25826 0.33639 0.64758 0.0
N2321 N 0.28582 0.31814 0.63616 0.0
H2322 H 0.70085 0.99614 0.64596 0.0
H2323 H 0.6423 0.89335 0.63899 0.0
H2324 H 0.65742 0.96521 0.68894 0.0
H2325 H 0.69142 0.92338 0.6055 0.0
H2326 H 0.64716 0.91965 0.65666 0.0
H2327 H 0.69733 0.96974 0.63033 0.0
C2328 C 0.69063 0.98381 0.6522 0.0
C2329 C 0.67938 0.9829 0.66876 0.0
C2330 C 0.65692 0.92049 0.64553 0.0
C2331 C 0.6752 0.95263 0.6508 0.0
C2332 C 0.6541 0.90549 0.63534 0.0
C2333 C 0.66646 0.90618 0.62072 0.0
C2334 C 0.67214 0.93635 0.64091 0.0
C2335 C 0.68162 0.92224 0.61681 0.0
C2336 C 0.68864 0.96874 0.64327 0.0
C2337 C 0.6664 0.96655 0.67621 0.0
N2338 N 0.68399 0.9367 0.62674 0.0
N2339 N 0.66459 0.95207 0.66708 0.0
H2340 H 0.03149 0.73071 0.62721 0.0
H2341 H 0.11946 0.72856 0.62006 0.0
H2342 H 0.03461 0.68759 0.65131 0.0
H2343 H 0.11364 0.7707 0.59892 0.0
H2344 H 0.08839 0.71236 0.63035 0.0
H2345 H 0.06159 0.74467 0.61574 0.0
C2346 C 0.03851 0.72413 0.63014 0.0
C2347 C 0.03046 0.70794 0.64034 0.0
C2348 C 0.09398 0.72515 0.62345 0.0
C2349 C 0.06529 0.72402 0.62711 0.0
C2350 C 0.11164 0.73435 0.61753 0.0
C2351 C 0.11916 0.75109 0.60897 0.0
C2352 C 0.08388 0.73277 0.62057 0.0
C2353 C 0.10849 0.758 0.60594 0.0
C2354 C 0.05579 0.73215 0.62353 0.0
C2355 C 0.04032 0.7001 0.64355 0.0
N2356 N 0.09148 0.74885 0.61177 0.0
N2357 N 0.05728 0.70825 0.63698 0.0
H2358 H 0.98905 0.63775 0.71493 0.0
H2359 H 0.98501 0.54777 0.71041 0.0
H2360 H 0.97575 0.60686 0.65585 0.0
H2361 H 0.00694 0.5833 0.7651 0.0
H2362 H 0.97968 0.56826 0.69089 0.0
H2363 H 0.99378 0.61692 0.7343 0.0
C2364 C 0.98707 0.62656 0.70602 0.0
C2365 C 0.98201 0.62408 0.68369 0.0
C2366 C 0.98569 0.57158 0.70715 0.0
C2367 C 0.98742 0.60013 0.70585 0.0
C2368 C 0.98865 0.55986 0.71834 0.0
C2369 C 0.99645 0.56384 0.73941 0.0
C2370 C 0.99043 0.58736 0.71716 0.0
C2371 C 0.00108 0.57978 0.74879 0.0
C2372 C 0.98983 0.61469 0.7171 0.0
C2373 C 0.97968 0.60932 0.67304 0.0
N2374 N 0.99795 0.59092 0.73764 0.0
N2375 N 0.98238 0.59789 0.68423 0.0
H2376 H 0.36551 0.37123 0.67988 0.0
H2377 H 0.40632 0.43457 0.78248 0.0
H2378 H 0.39586 0.36503 0.73077 0.0
H2379 H 0.41218 0.45545 0.71705 0.0
H2380 H 0.39252 0.4055 0.7665 0.0
H2381 H 0.37372 0.39938 0.69609 0.0
C2382 C 0.37383 0.37577 0.69446 0.0
C2383 C 0.38023 0.36598 0.7039 0.0
C2384 C 0.3965 0.41645 0.75573 0.0
C2385 C 0.38897 0.39747 0.72274 0.0
C2386 C 0.4042 0.43293 0.7648 0.0
C2387 C 0.41029 0.44727 0.75098 0.0
C2388 C 0.39464 0.41435 0.73276 0.0
C2389 C 0.40756 0.44461 0.72815 0.0
C2390 C 0.37845 0.39173 0.70364 0.0
C2391 C 0.39087 0.37233 0.72283 0.0
N2392 N 0.39993 0.4284 0.71967 0.0
N2393 N 0.3948 0.38761 0.73174 0.0
H2394 H 0.63003 0.0381 0.68043 0.0
H2395 H 0.56955 0.98296 0.77566 0.0
H2396 H 0.63993 0.00222 0.71445 0.0
H2397 H 0.54813 0.99374 0.71815 0.0
H2398 H 0.59589 0.99049 0.75474 0.0
H2399 H 0.60026 0.02283 0.69474 0.0
C2400 C 0.62581 0.02684 0.69068 0.0
C2401 C 0.63738 0.0214 0.69637 0.0
C2402 C 0.58527 0.99087 0.74659 0.0
C2403 C 0.60361 0.0042 0.71319 0.0
C2404 C 0.57033 0.98665 0.7585 0.0
C2405 C 0.55678 0.98778 0.74852 0.0
C2406 C 0.5868 0.99673 0.72481 0.0
C2407 C 0.55833 0.99266 0.72632 0.0
C2408 C 0.60884 0.01811 0.69876 0.0
C2409 C 0.63132 0.00674 0.70966 0.0
N2410 N 0.57326 0.9973 0.7153 0.0
N2411 N 0.61492 0.99884 0.71806 0.0
loop_
_geom_bond_atom_site_label_1
_geom_bond_atom_site_label_2
_geom_bond_distance
_geom_bond_site_symmetry_2
_ccdc_geom_bond_type
Zn0 O3 2.031 1_554 S
Zn0 O5 2.049 . S
Zn0 O10 2.067 1_554 S
Zn1 O2 1.962 1_455 S
Zn1 O4 1.986 . S
Zn1 O6 1.996 1_455 S
Zn1 O9 1.943 1_554 S
O2 Zn1 1.962 1_655 S
O2 C7 1.267 . S
O3 Zn0 2.031 1_556 S
O3 C7 1.263 1_556 S
O4 Zn1 1.986 . S
O4 C11 1.262 . S
O5 Zn0 2.049 . S
O5 C13 1.260 . S
O6 Zn1 1.996 1_655 S
O6 C13 1.257 . S
C7 O2 1.267 . S
C7 O3 1.263 1_554 S
C8 O9 1.249 . S
C8 O10 1.270 1_455 S
O9 Zn1 1.943 1_556 S
O9 C8 1.249 . S
O10 Zn0 2.067 1_556 S
O10 C8 1.270 1_655 S
C11 O4 1.262 . S
C11 O12 1.232 . S
O12 C11 1.232 . S
C13 O5 1.260 . S
C13 O6 1.257 . S
Zn14 O17 2.031 1_554 S
Zn14 O19 2.049 . S
Zn14 O24 2.067 1_554 S
Zn15 O16 1.962 . S
Zn15 O18 1.986 . S
Zn15 O20 1.996 . S
Zn15 O23 1.943 1_554 S
O16 Zn15 1.962 . S
O16 C21 1.216 1_554 S
O17 Zn14 2.031 1_556 S
O17 C21 1.289 . S
O18 Zn15 1.986 . S
O18 C25 1.262 . S
O19 Zn14 2.049 . S
O19 C27 1.260 . S
O20 Zn15 1.996 . S
O20 C27 1.257 . S
C21 O16 1.216 1_556 S
C21 O17 1.289 . S
C22 O23 1.249 . S
C22 O24 1.270 . S
O23 Zn15 1.943 1_556 S
O23 C22 1.249 . S
O24 Zn14 2.067 1_556 S
O24 C22 1.270 . S
C25 O18 1.262 . S
C25 O26 1.232 . S
O26 C25 1.232 . S
C27 O19 1.260 . S
C27 O20 1.257 . S
Zn28 O31 2.031 . S
Zn28 O33 2.049 1_554 S
Zn28 O38 2.067 . S
Zn29 O30 1.962 1_545 S
Zn29 O32 1.986 1_554 S
Zn29 O34 1.996 1_544 S
Zn29 O37 1.943 . S
O30 Zn29 1.962 1_565 S
O30 C35 1.254 . S
O31 Zn28 2.031 . S
O31 C35 1.269 . S
O32 Zn29 1.986 1_556 S
O32 C39 1.262 . S
O33 Zn28 2.049 1_556 S
O33 C41 1.260 . S
O34 Zn29 1.996 1_566 S
O34 C41 1.257 . S
C35 O30 1.254 . S
C35 O31 1.269 . S
C36 O37 1.249 . S
C36 O38 1.270 1_545 S
O37 Zn29 1.943 . S
O37 C36 1.249 . S
O38 Zn28 2.067 . S
O38 C36 1.270 1_565 S
C39 O32 1.262 . S
C39 O40 1.232 1_556 S
O40 C39 1.232 1_554 S
C41 O33 1.260 . S
C41 O34 1.257 . S
Zn42 O45 2.031 . S
Zn42 O47 2.049 1_554 S
Zn42 O52 2.067 . S
Zn43 O44 1.962 1_655 S
Zn43 O46 1.986 1_554 S
Zn43 O48 1.996 1_654 S
Zn43 O51 1.943 . S
O44 Zn43 1.962 1_455 S
O44 C49 1.254 . S
O45 Zn42 2.031 . S
O45 C49 1.269 . S
O46 Zn43 1.986 1_556 S
O46 C53 1.262 . S
O47 Zn42 2.049 1_556 S
O47 C55 1.260 . S
O48 Zn43 1.996 1_456 S
O48 C55 1.257 . S
C49 O44 1.254 . S
C49 O45 1.269 . S
C50 O51 1.249 . S
C50 O52 1.270 1_655 S
O51 Zn43 1.943 . S
O51 C50 1.249 . S
O52 Zn42 2.067 . S
O52 C50 1.270 1_455 S
C53 O46 1.262 . S
C53 O54 1.232 1_556 S
O54 C53 1.232 1_554 S
C55 O47 1.260 . S
C55 O48 1.257 . S
Zn56 O59 2.031 . S
Zn56 O61 2.049 1_554 S
Zn56 O66 2.067 . S
Zn57 O58 1.962 . S
Zn57 O60 1.986 1_554 S
Zn57 O62 1.996 1_554 S
Zn57 O65 1.943 . S
O58 Zn57 1.962 . S
O58 C63 1.254 . S
O59 Zn56 2.031 . S
O59 C63 1.269 . S
O60 Zn57 1.986 1_556 S
O60 C67 1.262 . S
O61 Zn56 2.049 1_556 S
O61 C69 1.260 . S
O62 Zn57 1.996 1_556 S
O62 C69 1.257 . S
C63 O58 1.254 . S
C63 O59 1.269 . S
C64 O65 1.249 . S
C64 O66 1.270 . S
O65 Zn57 1.943 . S
O65 C64 1.249 . S
O66 Zn56 2.067 . S
O66 C64 1.270 . S
C67 O60 1.262 . S
C67 O68 1.232 1_556 S
O68 C67 1.232 1_554 S
C69 O61 1.260 . S
C69 O62 1.257 . S
Zn70 O73 2.031 1_554 S
Zn70 O75 2.049 . S
Zn70 O80 2.067 1_554 S
Zn71 O72 1.962 1_565 S
Zn71 O74 1.986 . S
Zn71 O76 1.996 1_565 S
Zn71 O79 1.945 1_554 S
O72 Zn71 1.962 1_545 S
O72 C77 1.254 . S
O73 Zn70 2.031 1_556 S
O73 C77 1.269 1_556 S
O74 Zn71 1.986 . S
O74 C81 1.262 . S
O75 Zn70 2.049 . S
O75 C83 1.260 . S
O76 Zn71 1.996 1_545 S
O76 C83 1.257 . S
C77 O72 1.254 . S
C77 O73 1.269 1_554 S
C78 O79 1.248 . S
C78 O80 1.270 1_565 S
O79 Zn71 1.945 1_556 S
O79 C78 1.248 . S
O80 Zn70 2.067 1_556 S
O80 C78 1.270 1_545 S
C81 O74 1.262 . S
C81 O82 1.232 . S
O82 C81 1.232 . S
C83 O75 1.260 . S
C83 O76 1.257 . S
Zn84 O87 2.031 . S
Zn84 O89 2.049 . S
Zn84 O94 2.067 . S
Zn85 O86 1.962 . S
Zn85 O88 1.986 . S
Zn85 O90 1.996 . S
Zn85 O93 1.943 . S
O86 Zn85 1.962 . S
O86 C91 1.254 . S
O87 Zn84 2.031 . S
O87 C91 1.269 . S
O88 Zn85 1.986 . S
O88 C95 1.262 . S
O89 Zn84 2.049 . S
O89 C97 1.260 . S
O90 Zn85 1.996 . S
O90 C97 1.257 . S
C91 O86 1.254 . S
C91 O87 1.269 . S
C92 O93 1.249 . S
C92 O94 1.270 . S
O93 Zn85 1.943 . S
O93 C92 1.249 . S
O94 Zn84 2.067 . S
O94 C92 1.270 . S
C95 O88 1.262 . S
C95 O96 1.232 . S
O96 C95 1.232 . S
C97 O89 1.260 . S
C97 O90 1.257 . S
Zn98 O101 2.031 . S
Zn98 O103 2.049 . S
Zn98 O108 2.067 . S
Zn99 O100 1.962 . S
Zn99 O102 1.986 1_565 S
Zn99 O104 1.996 . S
Zn99 O107 1.943 . S
O100 Zn99 1.962 . S
O100 C105 1.254 . S
O101 Zn98 2.031 . S
O101 C105 1.269 . S
O102 Zn99 1.986 1_545 S
O102 C109 1.262 . S
O103 Zn98 2.049 . S
O103 C111 1.260 . S
O104 Zn99 1.996 . S
O104 C111 1.257 . S
C105 O100 1.254 . S
C105 O101 1.269 . S
C106 O107 1.249 . S
C106 O108 1.270 . S
O107 Zn99 1.943 . S
O107 C106 1.249 . S
O108 Zn98 2.067 . S
O108 C106 1.270 . S
C109 O102 1.262 . S
C109 O110 1.232 . S
O110 C109 1.232 . S
C111 O103 1.260 . S
C111 O104 1.257 . S
Zn112 O115 2.031 . S
Zn112 O117 2.049 . S
Zn112 O122 2.067 . S
Zn113 O114 1.962 1_455 S
Zn113 O116 1.986 . S
Zn113 O118 1.996 . S
Zn113 O121 1.943 . S
O114 Zn113 1.962 1_655 S
O114 C119 1.254 . S
O115 Zn112 2.031 . S
O115 C119 1.269 1_455 S
O116 Zn113 1.986 . S
O116 C123 1.262 . S
O117 Zn112 2.049 . S
O117 C125 1.260 . S
O118 Zn113 1.996 . S
O118 C125 1.257 . S
C119 O114 1.254 . S
C119 O115 1.269 1_655 S
C120 O121 1.249 . S
C120 O122 1.270 . S
O121 Zn113 1.943 . S
O121 C120 1.249 . S
O122 Zn112 2.067 . S
O122 C120 1.270 . S
C123 O116 1.262 . S
C123 O124 1.232 . S
O124 C123 1.232 . S
C125 O117 1.260 . S
C125 O118 1.257 . S
Zn126 O129 2.031 . S
Zn126 O131 2.049 . S
Zn126 O136 2.067 . S
Zn127 O128 1.962 1_565 S
Zn127 O130 1.986 . S
Zn127 O132 1.996 . S
Zn127 O135 1.943 . S
O128 Zn127 1.962 1_545 S
O128 C133 1.254 . S
O129 Zn126 2.031 . S
O129 C133 1.269 1_565 S
O130 Zn127 1.986 . S
O130 C137 1.262 . S
O131 Zn126 2.049 . S
O131 C139 1.260 . S
O132 Zn127 1.996 . S
O132 C139 1.257 . S
C133 O128 1.254 . S
C133 O129 1.269 1_545 S
C134 O135 1.249 . S
C134 O136 1.270 . S
O135 Zn127 1.943 . S
O135 C134 1.249 . S
O136 Zn126 2.067 . S
O136 C134 1.270 . S
C137 O130 1.262 . S
C137 O138 1.232 . S
O138 C137 1.232 . S
C139 O131 1.260 . S
C139 O132 1.257 . S
Zn140 O143 2.031 . S
Zn140 O145 2.049 . S
Zn140 O150 2.067 . S
Zn141 O142 1.962 1_455 S
Zn141 O144 1.986 . S
Zn141 O146 1.996 . S
Zn141 O149 1.943 . S
O142 Zn141 1.962 1_655 S
O142 C147 1.254 . S
O143 Zn140 2.031 . S
O143 C147 1.269 1_455 S
O144 Zn141 1.986 . S
O144 C151 1.262 . S
O145 Zn140 2.049 . S
O145 C153 1.260 . S
O146 Zn141 1.996 . S
O146 C153 1.257 . S
C147 O142 1.254 . S
C147 O143 1.269 1_655 S
C148 O149 1.249 . S
C148 O150 1.270 . S
O149 Zn141 1.943 . S
O149 C148 1.249 . S
O150 Zn140 2.067 . S
O150 C148 1.270 . S
C151 O144 1.262 . S
C151 O152 1.232 . S
O152 C151 1.232 . S
C153 O145 1.260 . S
C153 O146 1.257 . S
Zn154 O157 2.031 . S
Zn154 O159 2.049 . S
Zn154 O164 2.067 . S
Zn155 O156 1.962 . S
Zn155 O158 1.986 . S
Zn155 O160 1.996 . S
Zn155 O163 1.943 . S
O156 Zn155 1.962 . S
O156 C161 1.254 . S
O157 Zn154 2.031 . S
O157 C161 1.269 . S
O158 Zn155 1.986 . S
O158 C165 1.262 . S
O159 Zn154 2.049 . S
O159 C167 1.260 . S
O160 Zn155 1.996 . S
O160 C167 1.257 . S
C161 O156 1.254 . S
C161 O157 1.269 . S
C162 O163 1.249 . S
C162 O164 1.270 . S
O163 Zn155 1.943 . S
O163 C162 1.249 . S
O164 Zn154 2.067 . S
O164 C162 1.270 . S
C165 O158 1.262 . S
C165 O166 1.232 . S
O166 C165 1.232 . S
C167 O159 1.260 . S
C167 O160 1.257 . S
Zn168 O171 2.031 . S
Zn168 O173 2.049 . S
Zn168 O178 2.067 . S
Zn169 O170 1.962 1_545 S
Zn169 O172 1.986 . S
Zn169 O174 1.996 . S
Zn169 O177 1.943 . S
O170 Zn169 1.962 1_565 S
O170 C175 1.254 . S
O171 Zn168 2.031 . S
O171 C175 1.269 1_545 S
O172 Zn169 1.986 . S
O172 C179 1.262 . S
O173 Zn168 2.049 . S
O173 C181 1.260 . S
O174 Zn169 1.996 . S
O174 C181 1.257 . S
C175 O170 1.254 . S
C175 O171 1.269 1_565 S
C176 O177 1.249 . S
C176 O178 1.270 . S
O177 Zn169 1.943 . S
O177 C176 1.249 . S
O178 Zn168 2.067 . S
O178 C176 1.270 . S
C179 O172 1.262 . S
C179 O180 1.232 . S
O180 C179 1.232 . S
C181 O173 1.260 . S
C181 O174 1.257 . S
Zn182 O185 2.043 . S
Zn182 O187 2.049 . S
Zn182 O192 2.067 . S
Zn183 O184 1.962 1_655 S
Zn183 O186 1.986 . S
Zn183 O188 1.996 . S
Zn183 O191 1.943 . S
O184 Zn183 1.962 1_455 S
O184 C189 1.254 . S
O185 Zn182 2.043 . S
O185 C189 1.257 1_655 S
O186 Zn183 1.986 . S
O186 C193 1.262 . S
O187 Zn182 2.049 . S
O187 C195 1.260 . S
O188 Zn183 1.996 . S
O188 C195 1.257 . S
C189 O184 1.254 . S
C189 O185 1.257 1_455 S
C190 O191 1.249 . S
C190 O192 1.270 . S
O191 Zn183 1.943 . S
O191 C190 1.249 . S
O192 Zn182 2.067 . S
O192 C190 1.270 . S
C193 O186 1.262 . S
C193 O194 1.232 . S
O194 C193 1.232 . S
C195 O187 1.260 . S
C195 O188 1.257 . S
Zn196 O199 2.031 . S
Zn196 O201 2.049 . S
Zn196 O206 2.067 . S
Zn197 O198 1.962 . S
Zn197 O200 1.986 . S
Zn197 O202 1.996 . S
Zn197 O205 1.943 . S
O198 Zn197 1.962 . S
O198 C203 1.254 . S
O199 Zn196 2.031 . S
O199 C203 1.269 . S
O200 Zn197 1.986 . S
O200 C207 1.262 . S
O201 Zn196 2.049 . S
O201 C209 1.260 . S
O202 Zn197 1.996 . S
O202 C209 1.257 . S
C203 O198 1.254 . S
C203 O199 1.269 . S
C204 O205 1.249 . S
C204 O206 1.270 . S
O205 Zn197 1.943 . S
O205 C204 1.249 . S
O206 Zn196 2.067 . S
O206 C204 1.270 . S
C207 O200 1.262 . S
C207 O208 1.232 . S
O208 C207 1.232 . S
C209 O201 1.260 . S
C209 O202 1.257 . S
Zn210 O213 2.031 . S
Zn210 O215 2.049 . S
Zn210 O220 2.067 . S
Zn211 O212 1.962 . S
Zn211 O214 1.986 . S
Zn211 O216 1.996 . S
Zn211 O219 1.943 . S
O212 Zn211 1.962 . S
O212 C217 1.254 . S
O213 Zn210 2.031 . S
O213 C217 1.269 . S
O214 Zn211 1.986 . S
O214 C221 1.262 . S
O215 Zn210 2.049 . S
O215 C223 1.260 . S
O216 Zn211 1.996 . S
O216 C223 1.257 . S
C217 O212 1.254 . S
C217 O213 1.269 . S
C218 O219 1.249 . S
C218 O220 1.270 . S
O219 Zn211 1.943 . S
O219 C218 1.249 . S
O220 Zn210 2.067 . S
O220 C218 1.270 . S
C221 O214 1.262 . S
C221 O222 1.232 . S
O222 C221 1.232 . S
C223 O215 1.260 . S
C223 O216 1.257 . S
Zn224 O227 2.031 . S
Zn224 O229 2.049 . S
Zn224 O234 2.067 . S
Zn225 O226 1.962 . S
Zn225 O228 1.986 1_545 S
Zn225 O230 1.996 . S
Zn225 O233 1.943 . S
O226 Zn225 1.962 . S
O226 C231 1.254 . S
O227 Zn224 2.031 . S
O227 C231 1.269 . S
O228 Zn225 1.986 1_565 S
O228 C235 1.262 . S
O229 Zn224 2.049 . S
O229 C237 1.260 . S
O230 Zn225 1.996 . S
O230 C237 1.257 . S
C231 O226 1.254 . S
C231 O227 1.269 . S
C232 O233 1.249 . S
C232 O234 1.270 . S
O233 Zn225 1.943 . S
O233 C232 1.249 . S
O234 Zn224 2.067 . S
O234 C232 1.270 . S
C235 O228 1.262 . S
C235 O236 1.232 . S
O236 C235 1.232 . S
C237 O229 1.260 . S
C237 O230 1.257 . S
Zn238 O241 2.031 . S
Zn238 O243 2.049 . S
Zn238 O248 2.067 . S
Zn239 O240 1.962 1_655 S
Zn239 O242 1.986 . S
Zn239 O244 1.996 . S
Zn239 O247 1.943 . S
O240 Zn239 1.962 1_455 S
O240 C245 1.254 . S
O241 Zn238 2.031 . S
O241 C245 1.269 1_655 S
O242 Zn239 1.986 . S
O242 C249 1.262 . S
O243 Zn238 2.049 . S
O243 C251 1.260 . S
O244 Zn239 1.996 . S
O244 C251 1.257 . S
C245 O240 1.254 . S
C245 O241 1.269 1_455 S
C246 O247 1.249 . S
C246 O248 1.270 . S
O247 Zn239 1.943 . S
O247 C246 1.249 . S
O248 Zn238 2.067 . S
O248 C246 1.270 . S
C249 O242 1.262 . S
C249 O250 1.232 . S
O250 C249 1.232 . S
C251 O243 1.260 . S
C251 O244 1.257 . S
H252 C271 0.949 . S
H253 C272 0.950 . S
H254 C274 0.950 . S
H255 C275 0.950 . S
H256 C277 0.950 . S
H257 C280 0.950 . S
H258 C281 0.950 . S
H259 C283 0.951 . S
H260 C284 0.949 . S
H261 C286 0.949 . S
H262 C287 0.950 . S
H263 C289 0.950 . S
H264 C290 0.950 . S
H265 C292 0.950 . S
H266 C295 0.950 . S
H267 C296 0.950 . S
H268 C298 0.951 . S
H269 C299 0.949 . S
C270 C271 1.376 . S
C270 C275 1.386 . S
C270 C276 1.483 . S
C271 H252 0.949 . S
C271 C270 1.376 . S
C271 C272 1.397 . S
C272 H253 0.950 . S
C272 C271 1.397 . S
C272 C273 1.391 . S
C273 C272 1.391 . S
C273 C274 1.405 . S
C274 H254 0.950 . S
C274 C273 1.405 . S
C274 C275 1.367 . S
C275 H255 0.950 . S
C275 C270 1.386 . S
C275 C274 1.367 . S
C276 C270 1.483 . S
C276 C277 1.382 . S
C276 C278 1.403 . S
C277 H256 0.950 . S
C277 C276 1.382 . S
C277 C293 1.411 . S
C278 C276 1.403 . S
C278 C279 1.489 . S
C278 C292 1.411 . S
C279 C278 1.489 . S
C279 C280 1.383 . S
C279 C284 1.382 . S
C280 H257 0.950 . S
C280 C279 1.383 . S
C280 C281 1.395 . S
C281 H258 0.950 . S
C281 C280 1.395 . S
C281 C282 1.288 . S
C282 C281 1.288 . S
C282 C283 1.392 . S
C283 H259 0.951 . S
C283 C282 1.392 . S
C283 C284 1.392 . S
C284 H260 0.949 . S
C284 C279 1.382 . S
C284 C283 1.392 . S
C285 C286 1.376 . S
C285 C290 1.386 . S
C285 C291 1.483 . S
C286 H261 0.949 . S
C286 C285 1.376 . S
C286 C287 1.397 . S
C287 H262 0.950 . S
C287 C286 1.397 . S
C287 C288 1.391 . S
C288 C287 1.391 . S
C288 C289 1.405 . S
C289 H263 0.950 . S
C289 C288 1.405 . S
C289 C290 1.367 . S
C290 H264 0.950 . S
C290 C285 1.386 . S
C290 C289 1.367 . S
C291 C285 1.483 . S
C291 C292 1.382 . S
C291 C293 1.403 . S
C292 H265 0.950 . S
C292 C278 1.411 . S
C292 C291 1.382 . S
C293 C277 1.411 . S
C293 C291 1.403 . S
C293 C294 1.489 . S
C294 C293 1.489 . S
C294 C295 1.383 . S
C294 C299 1.382 . S
C295 H266 0.950 . S
C295 C294 1.383 . S
C295 C296 1.395 . S
C296 H267 0.950 . S
C296 C295 1.395 . S
C296 C297 1.288 . S
C297 C296 1.288 . S
C297 C298 1.392 . S
C298 H268 0.951 . S
C298 C297 1.392 . S
C298 C299 1.392 . S
C299 H269 0.949 . S
C299 C294 1.382 . S
C299 C298 1.392 . S
H300 C319 0.949 . S
H301 C320 0.950 . S
H302 C322 0.950 . S
H303 C323 0.950 . S
H304 C325 0.950 . S
H305 C328 0.950 . S
H306 C329 0.950 . S
H307 C331 0.951 . S
H308 C332 0.949 . S
H309 C334 0.949 . S
H310 C335 0.950 . S
H311 C337 0.950 . S
H312 C338 0.950 . S
H313 C340 0.950 . S
H314 C343 0.950 . S
H315 C344 0.950 . S
H316 C346 0.951 . S
H317 C347 0.949 . S
C318 C319 1.376 . S
C318 C323 1.386 . S
C318 C324 1.483 . S
C319 H300 0.949 . S
C319 C318 1.376 . S
C319 C320 1.397 . S
C320 H301 0.950 . S
C320 C319 1.397 . S
C320 C321 1.391 . S
C321 C320 1.391 . S
C321 C322 1.405 . S
C322 H302 0.950 . S
C322 C321 1.405 . S
C322 C323 1.367 . S
C323 H303 0.950 . S
C323 C318 1.386 . S
C323 C322 1.367 . S
C324 C318 1.483 . S
C324 C325 1.382 . S
C324 C326 1.403 . S
C325 H304 0.950 . S
C325 C324 1.382 . S
C325 C341 1.411 . S
C326 C324 1.403 . S
C326 C327 1.489 . S
C326 C340 1.411 . S
C327 C326 1.489 . S
C327 C328 1.383 . S
C327 C332 1.382 . S
C328 H305 0.950 . S
C328 C327 1.383 . S
C328 C329 1.395 . S
C329 H306 0.950 . S
C329 C328 1.395 . S
C329 C330 1.288 . S
C330 C329 1.288 . S
C330 C331 1.392 . S
C331 H307 0.951 . S
C331 C330 1.392 . S
C331 C332 1.392 . S
C332 H308 0.949 . S
C332 C327 1.382 . S
C332 C331 1.392 . S
C333 C334 1.376 . S
C333 C338 1.386 . S
C333 C339 1.483 . S
C334 H309 0.949 . S
C334 C333 1.376 . S
C334 C335 1.397 . S
C335 H310 0.950 . S
C335 C334 1.397 . S
C335 C336 1.391 . S
C336 C335 1.391 . S
C336 C337 1.405 . S
C337 H311 0.950 . S
C337 C336 1.405 . S
C337 C338 1.367 . S
C338 H312 0.950 . S
C338 C333 1.386 . S
C338 C337 1.367 . S
C339 C333 1.483 . S
C339 C340 1.382 . S
C339 C341 1.403 . S
C340 H313 0.950 . S
C340 C326 1.411 . S
C340 C339 1.382 . S
C341 C325 1.411 . S
C341 C339 1.403 . S
C341 C342 1.489 . S
C342 C341 1.489 . S
C342 C343 1.383 . S
C342 C347 1.382 . S
C343 H314 0.950 . S
C343 C342 1.383 . S
C343 C344 1.395 . S
C344 H315 0.950 . S
C344 C343 1.395 . S
C344 C345 1.288 . S
C345 C344 1.288 . S
C345 C346 1.392 . S
C346 H316 0.951 . S
C346 C345 1.392 . S
C346 C347 1.392 . S
C347 H317 0.949 . S
C347 C342 1.382 . S
C347 C346 1.392 . S
H348 C367 0.949 . S
H349 C368 0.950 . S
H350 C370 0.950 . S
H351 C371 0.950 . S
H352 C373 0.950 . S
H353 C376 0.950 . S
H354 C377 0.950 . S
H355 C379 0.951 . S
H356 C380 0.949 . S
H357 C382 0.949 . S
H358 C383 0.950 . S
H359 C385 0.950 . S
H360 C386 0.950 . S
H361 C388 0.950 . S
H362 C391 0.950 . S
H363 C392 0.950 . S
H364 C394 0.951 . S
H365 C395 0.949 . S
C366 C367 1.376 . S
C366 C371 1.386 . S
C366 C372 1.483 . S
C367 H348 0.949 . S
C367 C366 1.376 . S
C367 C368 1.397 . S
C368 H349 0.950 . S
C368 C367 1.397 . S
C368 C369 1.391 . S
C369 C368 1.391 . S
C369 C370 1.405 . S
C370 H350 0.950 . S
C370 C369 1.405 . S
C370 C371 1.367 . S
C371 H351 0.950 . S
C371 C366 1.386 . S
C371 C370 1.367 . S
C372 C366 1.483 . S
C372 C373 1.382 . S
C372 C374 1.403 . S
C373 H352 0.950 . S
C373 C372 1.382 . S
C373 C389 1.411 . S
C374 C372 1.403 . S
C374 C375 1.489 . S
C374 C388 1.411 . S
C375 C374 1.489 . S
C375 C376 1.383 . S
C375 C380 1.382 . S
C376 H353 0.950 . S
C376 C375 1.383 . S
C376 C377 1.395 . S
C377 H354 0.950 . S
C377 C376 1.395 . S
C377 C378 1.288 . S
C378 C377 1.288 . S
C378 C379 1.392 . S
C379 H355 0.951 . S
C379 C378 1.392 . S
C379 C380 1.392 . S
C380 H356 0.949 . S
C380 C375 1.382 . S
C380 C379 1.392 . S
C381 C382 1.376 . S
C381 C386 1.386 . S
C381 C387 1.483 . S
C382 H357 0.949 . S
C382 C381 1.376 . S
C382 C383 1.397 . S
C383 H358 0.950 . S
C383 C382 1.397 . S
C383 C384 1.391 . S
C384 C383 1.391 . S
C384 C385 1.405 . S
C385 H359 0.950 . S
C385 C384 1.405 . S
C385 C386 1.367 . S
C386 H360 0.950 . S
C386 C381 1.386 . S
C386 C385 1.367 . S
C387 C381 1.483 . S
C387 C388 1.382 . S
C387 C389 1.403 . S
C388 H361 0.950 . S
C388 C374 1.411 . S
C388 C387 1.382 . S
C389 C373 1.411 . S
C389 C387 1.403 . S
C389 C390 1.489 . S
C390 C389 1.489 . S
C390 C391 1.383 . S
C390 C395 1.382 . S
C391 H362 0.950 . S
C391 C390 1.383 . S
C391 C392 1.395 . S
C392 H363 0.950 . S
C392 C391 1.395 . S
C392 C393 1.288 . S
C393 C392 1.288 . S
C393 C394 1.392 . S
C394 H364 0.951 . S
C394 C393 1.392 . S
C394 C395 1.392 . S
C395 H365 0.949 . S
C395 C390 1.382 . S
C395 C394 1.392 . S
H396 C415 0.949 . S
H397 C416 0.950 . S
H398 C418 0.950 . S
H399 C419 0.950 . S
H400 C421 0.950 . S
H401 C424 0.950 . S
H402 C425 0.950 . S
H403 C427 0.951 . S
H404 C428 0.949 . S
H405 C430 0.949 . S
H406 C431 0.950 . S
H407 C433 0.950 . S
H408 C434 0.950 . S
H409 C436 0.950 . S
H410 C439 0.950 . S
H411 C440 0.950 . S
H412 C442 0.951 . S
H413 C443 0.949 . S
C414 C415 1.376 . S
C414 C419 1.386 . S
C414 C420 1.483 . S
C415 H396 0.949 . S
C415 C414 1.376 . S
C415 C416 1.397 . S
C416 H397 0.950 . S
C416 C415 1.397 . S
C416 C417 1.391 . S
C417 C416 1.391 . S
C417 C418 1.405 . S
C418 H398 0.950 . S
C418 C417 1.405 . S
C418 C419 1.367 . S
C419 H399 0.950 . S
C419 C414 1.386 . S
C419 C418 1.367 . S
C420 C414 1.483 . S
C420 C421 1.382 . S
C420 C422 1.403 . S
C421 H400 0.950 . S
C421 C420 1.382 . S
C421 C437 1.411 . S
C422 C420 1.403 . S
C422 C423 1.489 . S
C422 C436 1.411 . S
C423 C422 1.489 . S
C423 C424 1.383 . S
C423 C428 1.382 . S
C424 H401 0.950 . S
C424 C423 1.383 . S
C424 C425 1.395 . S
C425 H402 0.950 . S
C425 C424 1.395 . S
C425 C426 1.288 . S
C426 C425 1.288 . S
C426 C427 1.392 . S
C427 H403 0.951 . S
C427 C426 1.392 . S
C427 C428 1.392 . S
C428 H404 0.949 . S
C428 C423 1.382 . S
C428 C427 1.392 . S
C429 C430 1.376 . S
C429 C434 1.386 . S
C429 C435 1.483 . S
C430 H405 0.949 . S
C430 C429 1.376 . S
C430 C431 1.397 . S
C431 H406 0.950 . S
C431 C430 1.397 . S
C431 C432 1.391 . S
C432 C431 1.391 . S
C432 C433 1.405 . S
C433 H407 0.950 . S
C433 C432 1.405 . S
C433 C434 1.367 . S
C434 H408 0.950 . S
C434 C429 1.386 . S
C434 C433 1.367 . S
C435 C429 1.483 . S
C435 C436 1.382 . S
C435 C437 1.403 . S
C436 H409 0.950 . S
C436 C422 1.411 . S
C436 C435 1.382 . S
C437 C421 1.411 . S
C437 C435 1.403 . S
C437 C438 1.489 . S
C438 C437 1.489 . S
C438 C439 1.383 . S
C438 C443 1.382 . S
C439 H410 0.950 . S
C439 C438 1.383 . S
C439 C440 1.395 . S
C440 H411 0.950 . S
C440 C439 1.395 . S
C440 C441 1.288 . S
C441 C440 1.288 . S
C441 C442 1.392 . S
C442 H412 0.951 . S
C442 C441 1.392 . S
C442 C443 1.392 . S
C443 H413 0.949 . S
C443 C438 1.382 . S
C443 C442 1.392 . S
H444 C463 0.949 . S
H445 C464 0.950 . S
H446 C466 0.950 . S
H447 C467 0.950 . S
H448 C469 0.950 . S
H449 C472 0.950 . S
H450 C473 0.950 . S
H451 C475 0.951 . S
H452 C476 0.949 . S
H453 C478 0.949 . S
H454 C479 0.950 . S
H455 C481 0.950 . S
H456 C482 0.950 . S
H457 C484 0.950 . S
H458 C487 0.950 . S
H459 C488 0.950 . S
H460 C490 0.951 . S
H461 C491 0.949 . S
C462 C463 1.376 . S
C462 C467 1.386 . S
C462 C468 1.483 . S
C463 H444 0.949 . S
C463 C462 1.376 . S
C463 C464 1.397 . S
C464 H445 0.950 . S
C464 C463 1.397 . S
C464 C465 1.391 . S
C465 C464 1.391 . S
C465 C466 1.405 . S
C466 H446 0.950 . S
C466 C465 1.405 . S
C466 C467 1.367 . S
C467 H447 0.950 . S
C467 C462 1.386 . S
C467 C466 1.367 . S
C468 C462 1.483 . S
C468 C469 1.382 . S
C468 C470 1.403 . S
C469 H448 0.950 . S
C469 C468 1.382 . S
C469 C485 1.411 . S
C470 C468 1.403 . S
C470 C471 1.489 . S
C470 C484 1.411 . S
C471 C470 1.489 . S
C471 C472 1.383 . S
C471 C476 1.382 . S
C472 H449 0.950 . S
C472 C471 1.383 . S
C472 C473 1.395 . S
C473 H450 0.950 . S
C473 C472 1.395 . S
C473 C474 1.288 . S
C474 C473 1.288 . S
C474 C475 1.392 . S
C475 H451 0.951 . S
C475 C474 1.392 . S
C475 C476 1.392 . S
C476 H452 0.949 . S
C476 C471 1.382 . S
C476 C475 1.392 . S
C477 C478 1.376 . S
C477 C482 1.386 . S
C477 C483 1.483 . S
C478 H453 0.949 . S
C478 C477 1.376 . S
C478 C479 1.397 . S
C479 H454 0.950 . S
C479 C478 1.397 . S
C479 C480 1.391 . S
C480 C479 1.391 . S
C480 C481 1.405 . S
C481 H455 0.950 . S
C481 C480 1.405 . S
C481 C482 1.367 . S
C482 H456 0.950 . S
C482 C477 1.386 . S
C482 C481 1.367 . S
C483 C477 1.483 . S
C483 C484 1.382 . S
C483 C485 1.403 . S
C484 H457 0.950 . S
C484 C470 1.411 . S
C484 C483 1.382 . S
C485 C469 1.411 . S
C485 C483 1.403 . S
C485 C486 1.489 . S
C486 C485 1.489 . S
C486 C487 1.383 . S
C486 C491 1.382 . S
C487 H458 0.950 . S
C487 C486 1.383 . S
C487 C488 1.395 . S
C488 H459 0.950 . S
C488 C487 1.395 . S
C488 C489 1.288 . S
C489 C488 1.288 . S
C489 C490 1.392 . S
C490 H460 0.951 . S
C490 C489 1.392 . S
C490 C491 1.392 . S
C491 H461 0.949 . S
C491 C486 1.382 . S
C491 C490 1.392 . S
H492 C511 0.949 . S
H493 C512 0.950 . S
H494 C514 0.950 . S
H495 C515 0.950 . S
H496 C517 0.950 . S
H497 C520 0.950 . S
H498 C521 0.950 . S
H499 C523 0.951 . S
H500 C524 0.949 . S
H501 C526 0.949 . S
H502 C527 0.950 . S
H503 C529 0.950 . S
H504 C530 0.950 . S
H505 C532 0.950 . S
H506 C535 0.950 . S
H507 C536 0.950 . S
H508 C538 0.951 . S
H509 C539 0.949 . S
C510 C511 1.376 . S
C510 C515 1.386 . S
C510 C516 1.483 . S
C511 H492 0.949 . S
C511 C510 1.376 . S
C511 C512 1.397 . S
C512 H493 0.950 . S
C512 C511 1.397 . S
C512 C513 1.391 . S
C513 C512 1.391 . S
C513 C514 1.405 . S
C514 H494 0.950 . S
C514 C513 1.405 . S
C514 C515 1.367 . S
C515 H495 0.950 . S
C515 C510 1.386 . S
C515 C514 1.367 . S
C516 C510 1.483 . S
C516 C517 1.382 . S
C516 C518 1.403 . S
C517 H496 0.950 . S
C517 C516 1.382 . S
C517 C533 1.411 . S
C518 C516 1.403 . S
C518 C519 1.489 . S
C518 C532 1.411 . S
C519 C518 1.489 . S
C519 C520 1.383 . S
C519 C524 1.382 . S
C520 H497 0.950 . S
C520 C519 1.383 . S
C520 C521 1.395 . S
C521 H498 0.950 . S
C521 C520 1.395 . S
C521 C522 1.288 . S
C522 C521 1.288 . S
C522 C523 1.392 . S
C523 H499 0.951 . S
C523 C522 1.392 . S
C523 C524 1.392 . S
C524 H500 0.949 . S
C524 C519 1.382 . S
C524 C523 1.392 . S
C525 C526 1.376 . S
C525 C530 1.386 . S
C525 C531 1.483 . S
C526 H501 0.949 . S
C526 C525 1.376 . S
C526 C527 1.397 . S
C527 H502 0.950 . S
C527 C526 1.397 . S
C527 C528 1.391 . S
C528 C527 1.391 . S
C528 C529 1.405 . S
C529 H503 0.950 . S
C529 C528 1.405 . S
C529 C530 1.367 . S
C530 H504 0.950 . S
C530 C525 1.386 . S
C530 C529 1.367 . S
C531 C525 1.483 . S
C531 C532 1.382 . S
C531 C533 1.403 . S
C532 H505 0.950 . S
C532 C518 1.411 . S
C532 C531 1.382 . S
C533 C517 1.411 . S
C533 C531 1.403 . S
C533 C534 1.489 . S
C534 C533 1.489 . S
C534 C535 1.383 . S
C534 C539 1.382 . S
C535 H506 0.950 . S
C535 C534 1.383 . S
C535 C536 1.395 . S
C536 H507 0.950 . S
C536 C535 1.395 . S
C536 C537 1.288 . S
C537 C536 1.288 . S
C537 C538 1.392 . S
C538 H508 0.951 . S
C538 C537 1.392 . S
C538 C539 1.392 . S
C539 H509 0.949 . S
C539 C534 1.382 . S
C539 C538 1.392 . S
H540 C559 0.949 . S
H541 C560 0.950 . S
H542 C562 0.950 . S
H543 C563 0.950 . S
H544 C565 0.950 . S
H545 C568 0.950 . S
H546 C569 0.950 . S
H547 C571 0.951 . S
H548 C572 0.949 . S
H549 C574 0.949 . S
H550 C575 0.950 . S
H551 C577 0.950 . S
H552 C578 0.950 . S
H553 C580 0.950 . S
H554 C583 0.950 . S
H555 C584 0.950 . S
H556 C586 0.951 . S
H557 C587 0.949 . S
C558 C559 1.376 . S
C558 C563 1.386 . S
C558 C564 1.483 . S
C559 H540 0.949 . S
C559 C558 1.376 . S
C559 C560 1.397 . S
C560 H541 0.950 . S
C560 C559 1.397 . S
C560 C561 1.391 . S
C561 C560 1.391 . S
C561 C562 1.405 . S
C562 H542 0.950 . S
C562 C561 1.405 . S
C562 C563 1.367 . S
C563 H543 0.950 . S
C563 C558 1.386 . S
C563 C562 1.367 . S
C564 C558 1.483 . S
C564 C565 1.382 . S
C564 C566 1.403 . S
C565 H544 0.950 . S
C565 C564 1.382 . S
C565 C581 1.411 . S
C566 C564 1.403 . S
C566 C567 1.489 . S
C566 C580 1.411 . S
C567 C566 1.489 . S
C567 C568 1.383 . S
C567 C572 1.382 . S
C568 H545 0.950 . S
C568 C567 1.383 . S
C568 C569 1.395 . S
C569 H546 0.950 . S
C569 C568 1.395 . S
C569 C570 1.288 . S
C570 C569 1.288 . S
C570 C571 1.392 . S
C571 H547 0.951 . S
C571 C570 1.392 . S
C571 C572 1.392 . S
C572 H548 0.949 . S
C572 C567 1.382 . S
C572 C571 1.392 . S
C573 C574 1.376 . S
C573 C578 1.386 . S
C573 C579 1.483 . S
C574 H549 0.949 . S
C574 C573 1.376 . S
C574 C575 1.397 . S
C575 H550 0.950 . S
C575 C574 1.397 . S
C575 C576 1.391 . S
C576 C575 1.391 . S
C576 C577 1.405 . S
C577 H551 0.950 . S
C577 C576 1.405 . S
C577 C578 1.367 . S
C578 H552 0.950 . S
C578 C573 1.386 . S
C578 C577 1.367 . S
C579 C573 1.483 . S
C579 C580 1.382 . S
C579 C581 1.403 . S
C580 H553 0.950 . S
C580 C566 1.411 . S
C580 C579 1.382 . S
C581 C565 1.411 . S
C581 C579 1.403 . S
C581 C582 1.489 . S
C582 C581 1.489 . S
C582 C583 1.383 . S
C582 C587 1.382 . S
C583 H554 0.950 . S
C583 C582 1.383 . S
C583 C584 1.395 . S
C584 H555 0.950 . S
C584 C583 1.395 . S
C584 C585 1.288 . S
C585 C584 1.288 . S
C585 C586 1.392 . S
C586 H556 0.951 . S
C586 C585 1.392 . S
C586 C587 1.392 . S
C587 H557 0.949 . S
C587 C582 1.382 . S
C587 C586 1.392 . S
H588 C607 0.949 . S
H589 C608 0.950 . S
H590 C610 0.950 . S
H591 C611 0.950 . S
H592 C613 0.950 . S
H593 C616 0.950 . S
H594 C617 0.950 . S
H595 C619 0.951 . S
H596 C620 0.949 . S
H597 C622 0.949 . S
H598 C623 0.950 . S
H599 C625 0.950 . S
H600 C626 0.950 . S
H601 C628 0.950 . S
H602 C631 0.950 . S
H603 C632 0.950 . S
H604 C634 0.951 . S
H605 C635 0.949 . S
C606 C607 1.376 . S
C606 C611 1.386 . S
C606 C612 1.483 . S
C607 H588 0.949 . S
C607 C606 1.376 . S
C607 C608 1.397 . S
C608 H589 0.950 . S
C608 C607 1.397 . S
C608 C609 1.391 . S
C609 C608 1.391 . S
C609 C610 1.405 . S
C610 H590 0.950 . S
C610 C609 1.405 . S
C610 C611 1.367 . S
C611 H591 0.950 . S
C611 C606 1.386 . S
C611 C610 1.367 . S
C612 C606 1.483 . S
C612 C613 1.382 . S
C612 C614 1.403 . S
C613 H592 0.950 . S
C613 C612 1.382 . S
C613 C629 1.411 . S
C614 C612 1.403 . S
C614 C615 1.489 . S
C614 C628 1.411 . S
C615 C614 1.489 . S
C615 C616 1.383 . S
C615 C620 1.382 . S
C616 H593 0.950 . S
C616 C615 1.383 . S
C616 C617 1.395 . S
C617 H594 0.950 . S
C617 C616 1.395 . S
C617 C618 1.288 . S
C618 C617 1.288 . S
C618 C619 1.392 . S
C619 H595 0.951 . S
C619 C618 1.392 . S
C619 C620 1.392 . S
C620 H596 0.949 . S
C620 C615 1.382 . S
C620 C619 1.392 . S
C621 C622 1.376 . S
C621 C626 1.386 . S
C621 C627 1.483 . S
C622 H597 0.949 . S
C622 C621 1.376 . S
C622 C623 1.397 . S
C623 H598 0.950 . S
C623 C622 1.397 . S
C623 C624 1.391 . S
C624 C623 1.391 . S
C624 C625 1.405 . S
C625 H599 0.950 . S
C625 C624 1.405 . S
C625 C626 1.367 . S
C626 H600 0.950 . S
C626 C621 1.386 . S
C626 C625 1.367 . S
C627 C621 1.483 . S
C627 C628 1.382 . S
C627 C629 1.403 . S
C628 H601 0.950 . S
C628 C614 1.411 . S
C628 C627 1.382 . S
C629 C613 1.411 . S
C629 C627 1.403 . S
C629 C630 1.489 . S
C630 C629 1.489 . S
C630 C631 1.383 . S
C630 C635 1.382 . S
C631 H602 0.950 . S
C631 C630 1.383 . S
C631 C632 1.395 . S
C632 H603 0.950 . S
C632 C631 1.395 . S
C632 C633 1.288 . S
C633 C632 1.288 . S
C633 C634 1.392 . S
C634 H604 0.951 . S
C634 C633 1.392 . S
C634 C635 1.392 . S
C635 H605 0.949 . S
C635 C630 1.382 . S
C635 C634 1.392 . S
H636 C655 0.949 . S
H637 C656 0.950 . S
H638 C658 0.950 . S
H639 C659 0.950 . S
H640 C661 0.950 . S
H641 C664 0.950 . S
H642 C665 0.950 . S
H643 C667 0.951 . S
H644 C668 0.949 . S
H645 C670 0.949 . S
H646 C671 0.950 . S
H647 C673 0.950 . S
H648 C674 0.950 . S
H649 C676 0.950 . S
H650 C679 0.950 . S
H651 C680 0.950 . S
H652 C682 0.951 . S
H653 C683 0.949 . S
C654 C655 1.376 . S
C654 C659 1.386 . S
C654 C660 1.483 . S
C655 H636 0.949 . S
C655 C654 1.376 . S
C655 C656 1.397 . S
C656 H637 0.950 . S
C656 C655 1.397 . S
C656 C657 1.391 . S
C657 C656 1.391 . S
C657 C658 1.405 . S
C658 H638 0.950 . S
C658 C657 1.405 . S
C658 C659 1.367 . S
C659 H639 0.950 . S
C659 C654 1.386 . S
C659 C658 1.367 . S
C660 C654 1.483 . S
C660 C661 1.382 . S
C660 C662 1.403 . S
C661 H640 0.950 . S
C661 C660 1.382 . S
C661 C677 1.411 . S
C662 C660 1.403 . S
C662 C663 1.489 . S
C662 C676 1.411 . S
C663 C662 1.489 . S
C663 C664 1.383 . S
C663 C668 1.382 . S
C664 H641 0.950 . S
C664 C663 1.383 . S
C664 C665 1.395 . S
C665 H642 0.950 . S
C665 C664 1.395 . S
C665 C666 1.288 . S
C666 C665 1.288 . S
C666 C667 1.392 . S
C667 H643 0.951 . S
C667 C666 1.392 . S
C667 C668 1.392 . S
C668 H644 0.949 . S
C668 C663 1.382 . S
C668 C667 1.392 . S
C669 C670 1.376 . S
C669 C674 1.386 . S
C669 C675 1.483 . S
C670 H645 0.949 . S
C670 C669 1.376 . S
C670 C671 1.397 . S
C671 H646 0.950 . S
C671 C670 1.397 . S
C671 C672 1.391 . S
C672 C671 1.391 . S
C672 C673 1.405 . S
C673 H647 0.950 . S
C673 C672 1.405 . S
C673 C674 1.367 . S
C674 H648 0.950 . S
C674 C669 1.386 . S
C674 C673 1.367 . S
C675 C669 1.483 . S
C675 C676 1.382 . S
C675 C677 1.403 . S
C676 H649 0.950 . S
C676 C662 1.411 . S
C676 C675 1.382 . S
C677 C661 1.411 . S
C677 C675 1.403 . S
C677 C678 1.489 . S
C678 C677 1.489 . S
C678 C679 1.383 . S
C678 C683 1.382 . S
C679 H650 0.950 . S
C679 C678 1.383 . S
C679 C680 1.395 . S
C680 H651 0.950 . S
C680 C679 1.395 . S
C680 C681 1.288 . S
C681 C680 1.288 . S
C681 C682 1.392 . S
C682 H652 0.951 . S
C682 C681 1.392 . S
C682 C683 1.392 . S
C683 H653 0.949 . S
C683 C678 1.382 . S
C683 C682 1.392 . S
H684 C703 0.949 . S
H685 C704 0.950 . S
H686 C706 0.950 . S
H687 C707 0.950 . S
H688 C709 0.950 . S
H689 C712 0.950 . S
H690 C713 0.950 . S
H691 C715 0.951 . S
H692 C716 0.949 . S
H693 C718 0.949 . S
H694 C719 0.950 . S
H695 C721 0.950 . S
H696 C722 0.950 . S
H697 C724 0.950 . S
H698 C727 0.950 . S
H699 C728 0.950 . S
H700 C730 0.951 . S
H701 C731 0.949 . S
C702 C703 1.376 . S
C702 C707 1.386 1_655 S
C702 C708 1.483 . S
C703 H684 0.949 . S
C703 C702 1.376 . S
C703 C704 1.397 . S
C704 H685 0.950 . S
C704 C703 1.397 . S
C704 C705 1.391 . S
C705 C704 1.391 . S
C705 C706 1.405 1_655 S
C706 H686 0.950 . S
C706 C705 1.405 1_455 S
C706 C707 1.367 . S
C707 H687 0.950 . S
C707 C702 1.386 1_455 S
C707 C706 1.367 . S
C708 C702 1.483 . S
C708 C709 1.382 . S
C708 C710 1.403 1_655 S
C709 H688 0.950 . S
C709 C708 1.382 . S
C709 C725 1.411 . S
C710 C708 1.403 1_455 S
C710 C711 1.489 . S
C710 C724 1.411 . S
C711 C710 1.489 . S
C711 C712 1.383 1_455 S
C711 C716 1.382 . S
C712 H689 0.950 . S
C712 C711 1.383 1_655 S
C712 C713 1.395 . S
C713 H690 0.950 . S
C713 C712 1.395 . S
C713 C714 1.288 1_655 S
C714 C713 1.288 1_455 S
C714 C715 1.392 . S
C715 H691 0.951 . S
C715 C714 1.392 . S
C715 C716 1.392 . S
C716 H692 0.949 . S
C716 C711 1.382 . S
C716 C715 1.392 . S
C717 C718 1.376 . S
C717 C722 1.386 1_455 S
C717 C723 1.483 . S
C718 H693 0.949 . S
C718 C717 1.376 . S
C718 C719 1.397 . S
C719 H694 0.950 . S
C719 C718 1.397 . S
C719 C720 1.391 . S
C720 C719 1.391 . S
C720 C721 1.405 1_455 S
C721 H695 0.950 . S
C721 C720 1.405 1_655 S
C721 C722 1.367 . S
C722 H696 0.950 . S
C722 C717 1.386 1_655 S
C722 C721 1.367 . S
C723 C717 1.483 . S
C723 C724 1.382 . S
C723 C725 1.403 1_455 S
C724 H697 0.950 . S
C724 C710 1.411 . S
C724 C723 1.382 . S
C725 C709 1.411 . S
C725 C723 1.403 1_655 S
C725 C726 1.489 . S
C726 C725 1.489 . S
C726 C727 1.383 1_655 S
C726 C731 1.382 . S
C727 H698 0.950 . S
C727 C726 1.383 1_455 S
C727 C728 1.395 . S
C728 H699 0.950 . S
C728 C727 1.395 . S
C728 C729 1.288 1_455 S
C729 C728 1.288 1_655 S
C729 C730 1.392 . S
C730 H700 0.951 . S
C730 C729 1.392 . S
C730 C731 1.392 . S
C731 H701 0.949 . S
C731 C726 1.382 . S
C731 C730 1.392 . S
H732 C751 0.949 . S
H733 C752 0.950 . S
H734 C754 0.950 . S
H735 C755 0.950 . S
H736 C757 0.950 . S
H737 C760 0.950 . S
H738 C761 0.950 . S
H739 C763 0.951 . S
H740 C764 0.949 . S
H741 C766 0.949 . S
H742 C767 0.950 . S
H743 C769 0.950 . S
H744 C770 0.950 . S
H745 C772 0.950 . S
H746 C775 0.950 . S
H747 C776 0.950 . S
H748 C778 0.951 . S
H749 C779 0.949 . S
C750 C751 1.376 . S
C750 C755 1.386 . S
C750 C756 1.483 . S
C751 H732 0.949 . S
C751 C750 1.376 . S
C751 C752 1.397 . S
C752 H733 0.950 . S
C752 C751 1.397 . S
C752 C753 1.391 . S
C753 C752 1.391 . S
C753 C754 1.405 . S
C754 H734 0.950 . S
C754 C753 1.405 . S
C754 C755 1.367 . S
C755 H735 0.950 . S
C755 C750 1.386 . S
C755 C754 1.367 . S
C756 C750 1.483 . S
C756 C757 1.382 . S
C756 C758 1.403 . S
C757 H736 0.950 . S
C757 C756 1.382 . S
C757 C773 1.411 . S
C758 C756 1.403 . S
C758 C759 1.489 . S
C758 C772 1.411 . S
C759 C758 1.489 . S
C759 C760 1.383 . S
C759 C764 1.382 . S
C760 H737 0.950 . S
C760 C759 1.383 . S
C760 C761 1.395 . S
C761 H738 0.950 . S
C761 C760 1.395 . S
C761 C762 1.288 . S
C762 C761 1.288 . S
C762 C763 1.392 . S
C763 H739 0.951 . S
C763 C762 1.392 . S
C763 C764 1.392 . S
C764 H740 0.949 . S
C764 C759 1.382 . S
C764 C763 1.392 . S
C765 C766 1.376 . S
C765 C770 1.386 . S
C765 C771 1.483 . S
C766 H741 0.949 . S
C766 C765 1.376 . S
C766 C767 1.397 . S
C767 H742 0.950 . S
C767 C766 1.397 . S
C767 C768 1.391 . S
C768 C767 1.391 . S
C768 C769 1.405 . S
C769 H743 0.950 . S
C769 C768 1.405 . S
C769 C770 1.367 . S
C770 H744 0.950 . S
C770 C765 1.386 . S
C770 C769 1.367 . S
C771 C765 1.483 . S
C771 C772 1.382 . S
C771 C773 1.403 . S
C772 H745 0.950 . S
C772 C758 1.411 . S
C772 C771 1.382 . S
C773 C757 1.411 . S
C773 C771 1.403 . S
C773 C774 1.489 . S
C774 C773 1.489 . S
C774 C775 1.383 . S
C774 C779 1.382 . S
C775 H746 0.950 . S
C775 C774 1.383 . S
C775 C776 1.395 . S
C776 H747 0.950 . S
C776 C775 1.395 . S
C776 C777 1.288 . S
C777 C776 1.288 . S
C777 C778 1.392 . S
C778 H748 0.951 . S
C778 C777 1.392 . S
C778 C779 1.392 . S
C779 H749 0.949 . S
C779 C774 1.382 . S
C779 C778 1.392 . S
H780 C799 0.949 . S
H781 C800 0.950 . S
H782 C802 0.950 . S
H783 C803 0.950 . S
H784 C805 0.950 . S
H785 C808 0.950 . S
H786 C809 0.950 . S
H787 C811 0.951 . S
H788 C812 0.949 . S
H789 C814 0.949 . S
H790 C815 0.950 . S
H791 C817 0.950 . S
H792 C818 0.950 . S
H793 C820 0.950 . S
H794 C823 0.950 . S
H795 C824 0.950 . S
H796 C826 0.951 . S
H797 C827 0.949 . S
C798 C799 1.376 . S
C798 C803 1.386 1_545 S
C798 C804 1.483 . S
C799 H780 0.949 . S
C799 C798 1.376 . S
C799 C800 1.397 . S
C800 H781 0.950 . S
C800 C799 1.397 . S
C800 C801 1.391 . S
C801 C800 1.391 . S
C801 C802 1.405 1_545 S
C802 H782 0.950 . S
C802 C801 1.405 1_565 S
C802 C803 1.367 . S
C803 H783 0.950 . S
C803 C798 1.386 1_565 S
C803 C802 1.367 . S
C804 C798 1.483 . S
C804 C805 1.382 . S
C804 C806 1.403 1_545 S
C805 H784 0.950 . S
C805 C804 1.382 . S
C805 C821 1.411 . S
C806 C804 1.403 1_565 S
C806 C807 1.489 . S
C806 C820 1.411 . S
C807 C806 1.489 . S
C807 C808 1.383 1_565 S
C807 C812 1.382 . S
C808 H785 0.950 . S
C808 C807 1.383 1_545 S
C808 C809 1.395 . S
C809 H786 0.950 . S
C809 C808 1.395 . S
C809 C810 1.288 1_545 S
C810 C809 1.288 1_565 S
C810 C811 1.392 . S
C811 H787 0.951 . S
C811 C810 1.392 . S
C811 C812 1.392 . S
C812 H788 0.949 . S
C812 C807 1.382 . S
C812 C811 1.392 . S
C813 C814 1.376 . S
C813 C818 1.386 1_565 S
C813 C819 1.483 . S
C814 H789 0.949 . S
C814 C813 1.376 . S
C814 C815 1.397 . S
C815 H790 0.950 . S
C815 C814 1.397 . S
C815 C816 1.391 . S
C816 C815 1.391 . S
C816 C817 1.405 1_565 S
C817 H791 0.950 . S
C817 C816 1.405 1_545 S
C817 C818 1.367 . S
C818 H792 0.950 . S
C818 C813 1.386 1_545 S
C818 C817 1.367 . S
C819 C813 1.483 . S
C819 C820 1.382 . S
C819 C821 1.403 1_565 S
C820 H793 0.950 . S
C820 C806 1.411 . S
C820 C819 1.382 . S
C821 C805 1.411 . S
C821 C819 1.403 1_545 S
C821 C822 1.489 . S
C822 C821 1.489 . S
C822 C823 1.383 1_545 S
C822 C827 1.382 . S
C823 H794 0.950 . S
C823 C822 1.383 1_565 S
C823 C824 1.395 . S
C824 H795 0.950 . S
C824 C823 1.395 . S
C824 C825 1.288 1_565 S
C825 C824 1.288 1_545 S
C825 C826 1.392 . S
C826 H796 0.951 . S
C826 C825 1.392 . S
C826 C827 1.392 . S
C827 H797 0.949 . S
C827 C822 1.382 . S
C827 C826 1.392 . S
H828 C847 0.949 . S
H829 C848 0.950 . S
H830 C850 0.950 . S
H831 C851 0.950 . S
H832 C853 0.950 . S
H833 C856 0.950 . S
H834 C857 0.950 . S
H835 C859 0.951 . S
H836 C860 0.949 . S
H837 C862 0.949 . S
H838 C863 0.950 . S
H839 C865 0.950 . S
H840 C866 0.950 . S
H841 C868 0.950 . S
H842 C871 0.950 . S
H843 C872 0.950 . S
H844 C874 0.951 . S
H845 C875 0.949 . S
C846 C847 1.411 . S
C846 C851 1.371 1_545 S
C846 C852 1.463 . S
C847 H828 0.949 . S
C847 C846 1.411 . S
C847 C848 1.397 . S
C848 H829 0.950 . S
C848 C847 1.397 . S
C848 C849 1.391 1_545 S
C849 C848 1.391 1_565 S
C849 C850 1.405 . S
C850 H830 0.950 . S
C850 C849 1.405 . S
C850 C851 1.367 . S
C851 H831 0.950 . S
C851 C846 1.371 1_565 S
C851 C850 1.367 . S
C852 C846 1.463 . S
C852 C853 1.382 . S
C852 C854 1.401 1_545 S
C853 H832 0.950 . S
C853 C852 1.382 . S
C853 C869 1.438 . S
C854 C852 1.401 1_565 S
C854 C855 1.476 . S
C854 C868 1.428 . S
C855 C854 1.476 . S
C855 C856 1.380 1_565 S
C855 C860 1.383 . S
C856 H833 0.950 . S
C856 C855 1.380 1_545 S
C856 C857 1.395 . S
C857 H834 0.950 . S
C857 C856 1.395 . S
C857 C858 1.288 . S
C858 C857 1.288 . S
C858 C859 1.392 1_545 S
C859 H835 0.951 . S
C859 C858 1.392 1_565 S
C859 C860 1.392 . S
C860 H836 0.949 . S
C860 C855 1.383 . S
C860 C859 1.392 . S
C861 C862 1.398 . S
C861 C866 1.377 1_565 S
C861 C867 1.498 . S
C862 H837 0.949 . S
C862 C861 1.398 . S
C862 C863 1.397 . S
C863 H838 0.950 . S
C863 C862 1.397 . S
C863 C864 1.391 1_565 S
C864 C863 1.391 1_545 S
C864 C865 1.405 . S
C865 H839 0.950 . S
C865 C864 1.405 . S
C865 C866 1.367 . S
C866 H840 0.950 . S
C866 C861 1.377 1_545 S
C866 C865 1.367 . S
C867 C861 1.498 . S
C867 C868 1.356 . S
C867 C869 1.398 1_565 S
C868 H841 0.950 . S
C868 C854 1.428 . S
C868 C867 1.356 . S
C869 C853 1.438 . S
C869 C867 1.398 1_545 S
C869 C870 1.476 . S
C870 C869 1.476 . S
C870 C871 1.363 1_545 S
C870 C875 1.392 . S
C871 H842 0.950 . S
C871 C870 1.363 1_565 S
C871 C872 1.395 . S
C872 H843 0.950 . S
C872 C871 1.395 . S
C872 C873 1.288 . S
C873 C872 1.288 . S
C873 C874 1.392 1_565 S
C874 H844 0.951 . S
C874 C873 1.392 1_545 S
C874 C875 1.392 . S
C875 H845 0.949 . S
C875 C870 1.392 . S
C875 C874 1.392 . S
H876 C895 0.949 . S
H877 C896 0.950 . S
H878 C898 0.950 . S
H879 C899 0.950 . S
H880 C901 0.950 . S
H881 C904 0.950 . S
H882 C905 0.950 . S
H883 C907 0.951 . S
H884 C908 0.949 . S
H885 C910 0.949 . S
H886 C911 0.950 . S
H887 C913 0.950 . S
H888 C914 0.950 . S
H889 C916 0.950 . S
H890 C919 0.950 . S
H891 C920 0.950 . S
H892 C922 0.951 . S
H893 C923 0.949 . S
C894 C895 1.376 . S
C894 C899 1.386 1_455 S
C894 C900 1.483 . S
C895 H876 0.949 . S
C895 C894 1.376 . S
C895 C896 1.397 . S
C896 H877 0.950 . S
C896 C895 1.397 . S
C896 C897 1.391 . S
C897 C896 1.391 . S
C897 C898 1.405 1_455 S
C898 H878 0.950 . S
C898 C897 1.405 1_655 S
C898 C899 1.367 . S
C899 H879 0.950 . S
C899 C894 1.386 1_655 S
C899 C898 1.367 . S
C900 C894 1.483 . S
C900 C901 1.382 . S
C900 C902 1.403 1_455 S
C901 H880 0.950 . S
C901 C900 1.382 . S
C901 C917 1.411 . S
C902 C900 1.403 1_655 S
C902 C903 1.489 . S
C902 C916 1.411 . S
C903 C902 1.489 . S
C903 C904 1.383 1_655 S
C903 C908 1.382 . S
C904 H881 0.950 . S
C904 C903 1.383 1_455 S
C904 C905 1.395 . S
C905 H882 0.950 . S
C905 C904 1.395 . S
C905 C906 1.288 1_455 S
C906 C905 1.288 1_655 S
C906 C907 1.392 . S
C907 H883 0.951 . S
C907 C906 1.392 . S
C907 C908 1.392 . S
C908 H884 0.949 . S
C908 C903 1.382 . S
C908 C907 1.392 . S
C909 C910 1.376 . S
C909 C914 1.386 1_655 S
C909 C915 1.483 . S
C910 H885 0.949 . S
C910 C909 1.376 . S
C910 C911 1.397 . S
C911 H886 0.950 . S
C911 C910 1.397 . S
C911 C912 1.391 . S
C912 C911 1.391 . S
C912 C913 1.405 1_655 S
C913 H887 0.950 . S
C913 C912 1.405 1_455 S
C913 C914 1.367 . S
C914 H888 0.950 . S
C914 C909 1.386 1_455 S
C914 C913 1.367 . S
C915 C909 1.483 . S
C915 C916 1.382 . S
C915 C917 1.403 1_655 S
C916 H889 0.950 . S
C916 C902 1.411 . S
C916 C915 1.382 . S
C917 C901 1.411 . S
C917 C915 1.403 1_455 S
C917 C918 1.489 . S
C918 C917 1.489 . S
C918 C919 1.383 1_455 S
C918 C923 1.382 . S
C919 H890 0.950 . S
C919 C918 1.383 1_655 S
C919 C920 1.395 . S
C920 H891 0.950 . S
C920 C919 1.395 . S
C920 C921 1.288 1_655 S
C921 C920 1.288 1_455 S
C921 C922 1.392 . S
C922 H892 0.951 . S
C922 C921 1.392 . S
C922 C923 1.392 . S
C923 H893 0.949 . S
C923 C918 1.382 . S
C923 C922 1.392 . S
H924 C943 0.949 . S
H925 C944 0.950 . S
H926 C946 0.950 . S
H927 C947 0.950 . S
H928 C949 0.950 . S
H929 C952 0.950 . S
H930 C953 0.950 . S
H931 C955 0.951 . S
H932 C956 0.949 . S
H933 C958 0.949 . S
H934 C959 0.950 . S
H935 C961 0.950 . S
H936 C962 0.950 . S
H937 C964 0.950 . S
H938 C967 0.950 . S
H939 C968 0.950 . S
H940 C970 0.951 . S
H941 C971 0.949 . S
C942 C943 1.376 . S
C942 C947 1.386 . S
C942 C948 1.483 . S
C943 H924 0.949 . S
C943 C942 1.376 . S
C943 C944 1.397 . S
C944 H925 0.950 . S
C944 C943 1.397 . S
C944 C945 1.391 . S
C945 C944 1.391 . S
C945 C946 1.405 . S
C946 H926 0.950 . S
C946 C945 1.405 . S
C946 C947 1.367 . S
C947 H927 0.950 . S
C947 C942 1.386 . S
C947 C946 1.367 . S
C948 C942 1.483 . S
C948 C949 1.382 . S
C948 C950 1.403 . S
C949 H928 0.950 . S
C949 C948 1.382 . S
C949 C965 1.411 . S
C950 C948 1.403 . S
C950 C951 1.489 . S
C950 C964 1.411 . S
C951 C950 1.489 . S
C951 C952 1.383 . S
C951 C956 1.382 . S
C952 H929 0.950 . S
C952 C951 1.383 . S
C952 C953 1.395 . S
C953 H930 0.950 . S
C953 C952 1.395 . S
C953 C954 1.288 . S
C954 C953 1.288 . S
C954 C955 1.392 . S
C955 H931 0.951 . S
C955 C954 1.392 . S
C955 C956 1.392 . S
C956 H932 0.949 . S
C956 C951 1.382 . S
C956 C955 1.392 . S
C957 C958 1.376 . S
C957 C962 1.386 . S
C957 C963 1.483 . S
C958 H933 0.949 . S
C958 C957 1.376 . S
C958 C959 1.397 . S
C959 H934 0.950 . S
C959 C958 1.397 . S
C959 C960 1.391 . S
C960 C959 1.391 . S
C960 C961 1.405 . S
C961 H935 0.950 . S
C961 C960 1.405 . S
C961 C962 1.367 . S
C962 H936 0.950 . S
C962 C957 1.386 . S
C962 C961 1.367 . S
C963 C957 1.483 . S
C963 C964 1.382 . S
C963 C965 1.403 . S
C964 H937 0.950 . S
C964 C950 1.411 . S
C964 C963 1.382 . S
C965 C949 1.411 . S
C965 C963 1.403 . S
C965 C966 1.489 . S
C966 C965 1.489 . S
C966 C967 1.383 . S
C966 C971 1.382 . S
C967 H938 0.950 . S
C967 C966 1.383 . S
C967 C968 1.395 . S
C968 H939 0.950 . S
C968 C967 1.395 . S
C968 C969 1.288 . S
C969 C968 1.288 . S
C969 C970 1.392 . S
C970 H940 0.951 . S
C970 C969 1.392 . S
C970 C971 1.392 . S
C971 H941 0.949 . S
C971 C966 1.382 . S
C971 C970 1.392 . S
H972 C991 0.949 . S
H973 C992 0.950 . S
H974 C994 0.950 . S
H975 C995 0.950 . S
H976 C997 0.950 . S
H977 C1000 0.950 . S
H978 C1001 0.950 . S
H979 C1003 0.951 . S
H980 C1004 0.949 . S
H981 C1006 0.949 . S
H982 C1007 0.950 . S
H983 C1009 0.950 . S
H984 C1010 0.950 . S
H985 C1012 0.950 . S
H986 C1015 0.950 . S
H987 C1016 0.950 . S
H988 C1018 0.951 . S
H989 C1019 0.949 . S
C990 C991 1.376 . S
C990 C995 1.386 . S
C990 C996 1.483 . S
C991 H972 0.949 . S
C991 C990 1.376 . S
C991 C992 1.397 . S
C992 H973 0.950 . S
C992 C991 1.397 . S
C992 C993 1.391 . S
C993 C992 1.391 . S
C993 C994 1.405 . S
C994 H974 0.950 . S
C994 C993 1.405 . S
C994 C995 1.367 . S
C995 H975 0.950 . S
C995 C990 1.386 . S
C995 C994 1.367 . S
C996 C990 1.483 . S
C996 C997 1.382 . S
C996 C998 1.403 . S
C997 H976 0.950 . S
C997 C996 1.382 . S
C997 C1013 1.411 . S
C998 C996 1.403 . S
C998 C999 1.489 . S
C998 C1012 1.411 . S
C999 C998 1.489 . S
C999 C1000 1.383 . S
C999 C1004 1.382 . S
C1000 H977 0.950 . S
C1000 C999 1.383 . S
C1000 C1001 1.395 . S
C1001 H978 0.950 . S
C1001 C1000 1.395 . S
C1001 C1002 1.288 . S
C1002 C1001 1.288 . S
C1002 C1003 1.392 . S
C1003 H979 0.951 . S
C1003 C1002 1.392 . S
C1003 C1004 1.392 . S
C1004 H980 0.949 . S
C1004 C999 1.382 . S
C1004 C1003 1.392 . S
C1005 C1006 1.376 . S
C1005 C1010 1.386 . S
C1005 C1011 1.483 . S
C1006 H981 0.949 . S
C1006 C1005 1.376 . S
C1006 C1007 1.397 . S
C1007 H982 0.950 . S
C1007 C1006 1.397 . S
C1007 C1008 1.391 . S
C1008 C1007 1.391 . S
C1008 C1009 1.405 . S
C1009 H983 0.950 . S
C1009 C1008 1.405 . S
C1009 C1010 1.367 . S
C1010 H984 0.950 . S
C1010 C1005 1.386 . S
C1010 C1009 1.367 . S
C1011 C1005 1.483 . S
C1011 C1012 1.382 . S
C1011 C1013 1.403 . S
C1012 H985 0.950 . S
C1012 C998 1.411 . S
C1012 C1011 1.382 . S
C1013 C997 1.411 . S
C1013 C1011 1.403 . S
C1013 C1014 1.489 . S
C1014 C1013 1.489 . S
C1014 C1015 1.383 . S
C1014 C1019 1.382 . S
C1015 H986 0.950 . S
C1015 C1014 1.383 . S
C1015 C1016 1.395 . S
C1016 H987 0.950 . S
C1016 C1015 1.395 . S
C1016 C1017 1.288 . S
C1017 C1016 1.288 . S
C1017 C1018 1.392 . S
C1018 H988 0.951 . S
C1018 C1017 1.392 . S
C1018 C1019 1.392 . S
C1019 H989 0.949 . S
C1019 C1014 1.382 . S
C1019 C1018 1.392 . S
H1020 C1039 0.949 . S
H1021 C1040 0.950 . S
H1022 C1042 0.950 . S
H1023 C1043 0.950 . S
H1024 C1045 0.950 . S
H1025 C1048 0.950 . S
H1026 C1049 0.950 . S
H1027 C1051 0.951 . S
H1028 C1052 0.949 . S
H1029 C1054 0.949 . S
H1030 C1055 0.950 . S
H1031 C1057 0.950 . S
H1032 C1058 0.950 . S
H1033 C1060 0.950 . S
H1034 C1063 0.950 . S
H1035 C1064 0.950 . S
H1036 C1066 0.951 . S
H1037 C1067 0.949 . S
C1038 C1039 1.376 . S
C1038 C1043 1.386 . S
C1038 C1044 1.483 . S
C1039 H1020 0.949 . S
C1039 C1038 1.376 . S
C1039 C1040 1.397 . S
C1040 H1021 0.950 . S
C1040 C1039 1.397 . S
C1040 C1041 1.391 . S
C1041 C1040 1.391 . S
C1041 C1042 1.405 . S
C1042 H1022 0.950 . S
C1042 C1041 1.405 . S
C1042 C1043 1.367 . S
C1043 H1023 0.950 . S
C1043 C1038 1.386 . S
C1043 C1042 1.367 . S
C1044 C1038 1.483 . S
C1044 C1045 1.382 . S
C1044 C1046 1.403 . S
C1045 H1024 0.950 . S
C1045 C1044 1.382 . S
C1045 C1061 1.411 . S
C1046 C1044 1.403 . S
C1046 C1047 1.489 . S
C1046 C1060 1.411 . S
C1047 C1046 1.489 . S
C1047 C1048 1.383 . S
C1047 C1052 1.382 . S
C1048 H1025 0.950 . S
C1048 C1047 1.383 . S
C1048 C1049 1.395 . S
C1049 H1026 0.950 . S
C1049 C1048 1.395 . S
C1049 C1050 1.288 . S
C1050 C1049 1.288 . S
C1050 C1051 1.392 . S
C1051 H1027 0.951 . S
C1051 C1050 1.392 . S
C1051 C1052 1.392 . S
C1052 H1028 0.949 . S
C1052 C1047 1.382 . S
C1052 C1051 1.392 . S
C1053 C1054 1.376 . S
C1053 C1058 1.386 . S
C1053 C1059 1.483 . S
C1054 H1029 0.949 . S
C1054 C1053 1.376 . S
C1054 C1055 1.397 . S
C1055 H1030 0.950 . S
C1055 C1054 1.397 . S
C1055 C1056 1.391 . S
C1056 C1055 1.391 . S
C1056 C1057 1.405 . S
C1057 H1031 0.950 . S
C1057 C1056 1.405 . S
C1057 C1058 1.367 . S
C1058 H1032 0.950 . S
C1058 C1053 1.386 . S
C1058 C1057 1.367 . S
C1059 C1053 1.483 . S
C1059 C1060 1.382 . S
C1059 C1061 1.403 . S
C1060 H1033 0.950 . S
C1060 C1046 1.411 . S
C1060 C1059 1.382 . S
C1061 C1045 1.411 . S
C1061 C1059 1.403 . S
C1061 C1062 1.489 . S
C1062 C1061 1.489 . S
C1062 C1063 1.383 . S
C1062 C1067 1.382 . S
C1063 H1034 0.950 . S
C1063 C1062 1.383 . S
C1063 C1064 1.395 . S
C1064 H1035 0.950 . S
C1064 C1063 1.395 . S
C1064 C1065 1.288 . S
C1065 C1064 1.288 . S
C1065 C1066 1.392 . S
C1066 H1036 0.951 . S
C1066 C1065 1.392 . S
C1066 C1067 1.392 . S
C1067 H1037 0.949 . S
C1067 C1062 1.382 . S
C1067 C1066 1.392 . S
H1068 C1087 0.949 . S
H1069 C1088 0.950 . S
H1070 C1090 0.950 . S
H1071 C1091 0.950 . S
H1072 C1093 0.950 . S
H1073 C1096 0.950 . S
H1074 C1097 0.950 . S
H1075 C1099 0.951 . S
H1076 C1100 0.949 . S
H1077 C1102 0.949 . S
H1078 C1103 0.950 . S
H1079 C1105 0.950 . S
H1080 C1106 0.950 . S
H1081 C1108 0.950 . S
H1082 C1111 0.950 . S
H1083 C1112 0.950 . S
H1084 C1114 0.951 . S
H1085 C1115 0.949 . S
C1086 C1087 1.376 . S
C1086 C1091 1.386 . S
C1086 C1092 1.483 . S
C1087 H1068 0.949 . S
C1087 C1086 1.376 . S
C1087 C1088 1.397 . S
C1088 H1069 0.950 . S
C1088 C1087 1.397 . S
C1088 C1089 1.391 . S
C1089 C1088 1.391 . S
C1089 C1090 1.405 . S
C1090 H1070 0.950 . S
C1090 C1089 1.405 . S
C1090 C1091 1.367 . S
C1091 H1071 0.950 . S
C1091 C1086 1.386 . S
C1091 C1090 1.367 . S
C1092 C1086 1.483 . S
C1092 C1093 1.382 . S
C1092 C1094 1.403 . S
C1093 H1072 0.950 . S
C1093 C1092 1.382 . S
C1093 C1109 1.411 . S
C1094 C1092 1.403 . S
C1094 C1095 1.489 . S
C1094 C1108 1.411 . S
C1095 C1094 1.489 . S
C1095 C1096 1.383 . S
C1095 C1100 1.382 . S
C1096 H1073 0.950 . S
C1096 C1095 1.383 . S
C1096 C1097 1.395 . S
C1097 H1074 0.950 . S
C1097 C1096 1.395 . S
C1097 C1098 1.288 . S
C1098 C1097 1.288 . S
C1098 C1099 1.392 . S
C1099 H1075 0.951 . S
C1099 C1098 1.392 . S
C1099 C1100 1.392 . S
C1100 H1076 0.949 . S
C1100 C1095 1.382 . S
C1100 C1099 1.392 . S
C1101 C1102 1.376 . S
C1101 C1106 1.386 . S
C1101 C1107 1.483 . S
C1102 H1077 0.949 . S
C1102 C1101 1.376 . S
C1102 C1103 1.397 . S
C1103 H1078 0.950 . S
C1103 C1102 1.397 . S
C1103 C1104 1.391 . S
C1104 C1103 1.391 . S
C1104 C1105 1.405 . S
C1105 H1079 0.950 . S
C1105 C1104 1.405 . S
C1105 C1106 1.367 . S
C1106 H1080 0.950 . S
C1106 C1101 1.386 . S
C1106 C1105 1.367 . S
C1107 C1101 1.483 . S
C1107 C1108 1.382 . S
C1107 C1109 1.403 . S
C1108 H1081 0.950 . S
C1108 C1094 1.411 . S
C1108 C1107 1.382 . S
C1109 C1093 1.411 . S
C1109 C1107 1.403 . S
C1109 C1110 1.489 . S
C1110 C1109 1.489 . S
C1110 C1111 1.383 . S
C1110 C1115 1.382 . S
C1111 H1082 0.950 . S
C1111 C1110 1.383 . S
C1111 C1112 1.395 . S
C1112 H1083 0.950 . S
C1112 C1111 1.395 . S
C1112 C1113 1.288 . S
C1113 C1112 1.288 . S
C1113 C1114 1.392 . S
C1114 H1084 0.951 . S
C1114 C1113 1.392 . S
C1114 C1115 1.392 . S
C1115 H1085 0.949 . S
C1115 C1110 1.382 . S
C1115 C1114 1.392 . S
H1116 C1122 0.978 . S
H1117 C1126 0.930 . S
H1118 C1131 0.929 . S
H1119 C1129 0.929 . S
H1120 C1124 0.929 . S
H1121 C1130 0.929 . S
C1122 H1116 0.978 . S
C1122 C1123 1.344 1_455 S
C1122 C1130 1.356 . S
C1123 C1122 1.344 1_655 S
C1123 C1131 1.433 . S
C1124 H1120 0.929 . S
C1124 C1126 1.378 . S
C1124 C1128 1.350 . S
C1125 C1128 1.463 . S
C1125 C1130 1.350 1_655 S
C1125 N1133 1.427 . S
C1126 H1117 0.930 . S
C1126 C1124 1.378 . S
C1126 C1127 1.367 . S
C1127 C1126 1.367 . S
C1127 C1129 1.433 1_655 S
C1128 C1124 1.350 . S
C1128 C1125 1.463 . S
C1128 N1132 1.427 1_655 S
C1129 H1119 0.929 . S
C1129 C1127 1.433 1_455 S
C1129 N1132 1.384 . S
C1130 H1121 0.929 . S
C1130 C1122 1.356 . S
C1130 C1125 1.350 1_455 S
C1131 H1118 0.929 . S
C1131 C1123 1.433 . S
C1131 N1133 1.384 . S
N1132 C1128 1.427 1_455 S
N1132 C1129 1.384 . S
N1133 C1125 1.427 . S
N1133 C1131 1.384 . S
H1134 C1140 0.930 . S
H1135 C1144 0.930 . S
H1136 C1149 0.929 . S
H1137 C1147 0.929 . S
H1138 C1142 0.929 . S
H1139 C1148 0.929 . S
C1140 H1134 0.930 . S
C1140 C1141 1.367 . S
C1140 C1148 1.378 . S
C1141 C1140 1.367 . S
C1141 C1149 1.433 . S
C1142 H1138 0.929 . S
C1142 C1144 1.378 . S
C1142 C1146 1.350 . S
C1143 C1146 1.463 . S
C1143 C1148 1.350 . S
C1143 N1151 1.427 . S
C1144 H1135 0.930 . S
C1144 C1142 1.378 . S
C1144 C1145 1.367 . S
C1145 C1144 1.367 . S
C1145 C1147 1.433 . S
C1146 C1142 1.350 . S
C1146 C1143 1.463 . S
C1146 N1150 1.427 . S
C1147 H1137 0.929 . S
C1147 C1145 1.433 . S
C1147 N1150 1.384 . S
C1148 H1139 0.929 . S
C1148 C1140 1.378 . S
C1148 C1143 1.350 . S
C1149 H1136 0.929 . S
C1149 C1141 1.433 . S
C1149 N1151 1.384 . S
N1150 C1146 1.427 . S
N1150 C1147 1.384 . S
N1151 C1143 1.427 . S
N1151 C1149 1.384 . S
H1152 C1158 0.930 . S
H1153 C1162 0.930 1_565 S
H1154 C1167 0.929 . S
H1155 C1165 0.929 . S
H1156 C1160 0.930 1_565 S
H1157 C1166 0.929 . S
C1158 H1152 0.930 . S
C1158 C1159 1.367 . S
C1158 C1166 1.378 . S
C1159 C1158 1.367 . S
C1159 C1167 1.433 . S
C1160 H1156 0.930 1_545 S
C1160 C1162 1.378 . S
C1160 C1164 1.350 . S
C1161 C1164 1.463 . S
C1161 C1166 1.350 . S
C1161 N1169 1.427 . S
C1162 H1153 0.930 1_545 S
C1162 C1160 1.378 . S
C1162 C1163 1.367 . S
C1163 C1162 1.367 . S
C1163 C1165 1.433 . S
C1164 C1160 1.350 . S
C1164 C1161 1.463 . S
C1164 N1168 1.427 . S
C1165 H1155 0.929 . S
C1165 C1163 1.433 . S
C1165 N1168 1.384 . S
C1166 H1157 0.929 . S
C1166 C1158 1.378 . S
C1166 C1161 1.350 . S
C1167 H1154 0.929 . S
C1167 C1159 1.433 . S
C1167 N1169 1.384 . S
N1168 C1164 1.427 . S
N1168 C1165 1.384 . S
N1169 C1161 1.427 . S
N1169 C1167 1.384 . S
H1170 C1176 0.930 . S
H1171 C1180 0.930 . S
H1172 C1185 0.929 . S
H1173 C1183 0.929 . S
H1174 C1178 0.929 . S
H1175 C1184 0.929 . S
C1176 H1170 0.930 . S
C1176 C1177 1.367 . S
C1176 C1184 1.378 . S
C1177 C1176 1.367 . S
C1177 C1185 1.433 1_565 S
C1178 H1174 0.929 . S
C1178 C1180 1.378 . S
C1178 C1182 1.350 1_545 S
C1179 C1182 1.463 . S
C1179 C1184 1.350 . S
C1179 N1187 1.427 1_565 S
C1180 H1171 0.930 . S
C1180 C1178 1.378 . S
C1180 C1181 1.367 1_545 S
C1181 C1180 1.367 1_565 S
C1181 C1183 1.433 . S
C1182 C1178 1.350 1_565 S
C1182 C1179 1.463 . S
C1182 N1186 1.427 . S
C1183 H1173 0.929 . S
C1183 C1181 1.433 . S
C1183 N1186 1.384 . S
C1184 H1175 0.929 . S
C1184 C1176 1.378 . S
C1184 C1179 1.350 . S
C1185 H1172 0.929 . S
C1185 C1177 1.433 1_545 S
C1185 N1187 1.384 . S
N1186 C1182 1.427 . S
N1186 C1183 1.384 . S
N1187 C1179 1.427 1_545 S
N1187 C1185 1.384 . S
H1188 C1194 0.930 . S
H1189 C1198 0.930 . S
H1190 C1203 0.929 . S
H1191 C1201 0.929 . S
H1192 C1196 0.929 . S
H1193 C1202 0.929 . S
C1194 H1188 0.930 . S
C1194 C1195 1.367 . S
C1194 C1202 1.378 . S
C1195 C1194 1.367 . S
C1195 C1203 1.433 1_455 S
C1196 H1192 0.929 . S
C1196 C1198 1.378 . S
C1196 C1200 1.350 1_655 S
C1197 C1200 1.463 . S
C1197 C1202 1.350 . S
C1197 N1205 1.427 1_455 S
C1198 H1189 0.930 . S
C1198 C1196 1.378 . S
C1198 C1199 1.367 1_655 S
C1199 C1198 1.367 1_455 S
C1199 C1201 1.433 . S
C1200 C1196 1.350 1_455 S
C1200 C1197 1.463 . S
C1200 N1204 1.427 . S
C1201 H1191 0.929 . S
C1201 C1199 1.433 . S
C1201 N1204 1.384 . S
C1202 H1193 0.929 . S
C1202 C1194 1.378 . S
C1202 C1197 1.350 . S
C1203 H1190 0.929 . S
C1203 C1195 1.433 1_655 S
C1203 N1205 1.384 . S
N1204 C1200 1.427 . S
N1204 C1201 1.384 . S
N1205 C1197 1.427 1_655 S
N1205 C1203 1.384 . S
H1206 C1212 0.930 . S
H1207 C1216 0.930 . S
H1208 C1221 0.929 . S
H1209 C1219 0.929 . S
H1210 C1214 0.929 . S
H1211 C1220 0.929 . S
C1212 H1206 0.930 . S
C1212 C1213 1.367 . S
C1212 C1220 1.378 . S
C1213 C1212 1.367 . S
C1213 C1221 1.433 . S
C1214 H1210 0.929 . S
C1214 C1216 1.378 . S
C1214 C1218 1.350 . S
C1215 C1218 1.463 . S
C1215 C1220 1.350 . S
C1215 N1223 1.427 . S
C1216 H1207 0.930 . S
C1216 C1214 1.378 . S
C1216 C1217 1.367 . S
C1217 C1216 1.367 . S
C1217 C1219 1.433 . S
C1218 C1214 1.350 . S
C1218 C1215 1.463 . S
C1218 N1222 1.427 . S
C1219 H1209 0.929 . S
C1219 C1217 1.433 . S
C1219 N1222 1.384 . S
C1220 H1211 0.929 . S
C1220 C1212 1.378 . S
C1220 C1215 1.350 . S
C1221 H1208 0.929 . S
C1221 C1213 1.433 . S
C1221 N1223 1.384 . S
N1222 C1218 1.427 . S
N1222 C1219 1.384 . S
N1223 C1215 1.427 . S
N1223 C1221 1.384 . S
H1224 C1230 0.930 . S
H1225 C1234 0.930 . S
H1226 C1239 0.929 . S
H1227 C1237 0.929 . S
H1228 C1232 0.929 . S
H1229 C1238 0.929 . S
C1230 H1224 0.930 . S
C1230 C1231 1.367 1_655 S
C1230 C1238 1.378 . S
C1231 C1230 1.367 1_455 S
C1231 C1239 1.433 . S
C1232 H1228 0.929 . S
C1232 C1234 1.378 . S
C1232 C1236 1.350 . S
C1233 C1236 1.463 . S
C1233 C1238 1.350 1_455 S
C1233 N1241 1.427 . S
C1234 H1225 0.930 . S
C1234 C1232 1.378 . S
C1234 C1235 1.367 . S
C1235 C1234 1.367 . S
C1235 C1237 1.433 1_455 S
C1236 C1232 1.350 . S
C1236 C1233 1.463 . S
C1236 N1240 1.427 1_455 S
C1237 H1227 0.929 . S
C1237 C1235 1.433 1_655 S
C1237 N1240 1.384 . S
C1238 H1229 0.929 . S
C1238 C1230 1.378 . S
C1238 C1233 1.350 1_655 S
C1239 H1226 0.929 . S
C1239 C1231 1.433 . S
C1239 N1241 1.384 . S
N1240 C1236 1.427 1_655 S
N1240 C1237 1.384 . S
N1241 C1233 1.427 . S
N1241 C1239 1.384 . S
H1242 C1248 0.930 . S
H1243 C1252 0.930 . S
H1244 C1257 0.929 . S
H1245 C1255 0.929 . S
H1246 C1250 0.929 . S
H1247 C1256 0.929 . S
C1248 H1242 0.930 . S
C1248 C1249 1.367 . S
C1248 C1256 1.378 . S
C1249 C1248 1.367 . S
C1249 C1257 1.433 . S
C1250 H1246 0.929 . S
C1250 C1252 1.378 . S
C1250 C1254 1.350 . S
C1251 C1254 1.463 . S
C1251 C1256 1.350 . S
C1251 N1259 1.427 . S
C1252 H1243 0.930 . S
C1252 C1250 1.378 . S
C1252 C1253 1.367 . S
C1253 C1252 1.367 . S
C1253 C1255 1.433 . S
C1254 C1250 1.350 . S
C1254 C1251 1.463 . S
C1254 N1258 1.427 . S
C1255 H1245 0.929 . S
C1255 C1253 1.433 . S
C1255 N1258 1.384 . S
C1256 H1247 0.929 . S
C1256 C1248 1.378 . S
C1256 C1251 1.350 . S
C1257 H1244 0.929 . S
C1257 C1249 1.433 . S
C1257 N1259 1.384 . S
N1258 C1254 1.427 . S
N1258 C1255 1.384 . S
N1259 C1251 1.427 . S
N1259 C1257 1.384 . S
H1260 C1266 0.930 . S
H1261 C1270 0.930 . S
H1262 C1275 0.929 . S
H1263 C1273 0.929 . S
H1264 C1268 0.929 . S
H1265 C1274 0.929 . S
C1266 H1260 0.930 . S
C1266 C1267 1.367 1_545 S
C1266 C1274 1.378 . S
C1267 C1266 1.367 1_565 S
C1267 C1275 1.433 . S
C1268 H1264 0.929 . S
C1268 C1270 1.378 . S
C1268 C1272 1.350 . S
C1269 C1272 1.463 . S
C1269 C1274 1.350 1_565 S
C1269 N1277 1.427 . S
C1270 H1261 0.930 . S
C1270 C1268 1.378 . S
C1270 C1271 1.367 . S
C1271 C1270 1.367 . S
C1271 C1273 1.433 1_565 S
C1272 C1268 1.350 . S
C1272 C1269 1.463 . S
C1272 N1276 1.427 1_565 S
C1273 H1263 0.929 . S
C1273 C1271 1.433 1_545 S
C1273 N1276 1.384 . S
C1274 H1265 0.929 . S
C1274 C1266 1.378 . S
C1274 C1269 1.350 1_545 S
C1275 H1262 0.929 . S
C1275 C1267 1.433 . S
C1275 N1277 1.384 . S
N1276 C1272 1.427 1_545 S
N1276 C1273 1.384 . S
N1277 C1269 1.427 . S
N1277 C1275 1.384 . S
H1278 C1284 0.891 1_565 S
H1279 C1288 0.930 . S
H1280 C1293 0.929 . S
H1281 C1291 0.929 . S
H1282 C1286 0.929 . S
H1283 C1292 0.941 . S
C1284 H1278 0.891 1_545 S
C1284 C1285 1.390 . S
C1284 C1292 1.408 1_545 S
C1285 C1284 1.390 . S
C1285 C1293 1.433 . S
C1286 H1282 0.929 . S
C1286 C1288 1.378 . S
C1286 C1290 1.350 . S
C1287 C1290 1.463 . S
C1287 C1292 1.328 1_545 S
C1287 N1295 1.427 . S
C1288 H1279 0.930 . S
C1288 C1286 1.378 . S
C1288 C1289 1.367 . S
C1289 C1288 1.367 . S
C1289 C1291 1.433 1_545 S
C1290 C1286 1.350 . S
C1290 C1287 1.463 . S
C1290 N1294 1.427 1_545 S
C1291 H1281 0.929 . S
C1291 C1289 1.433 1_565 S
C1291 N1294 1.384 . S
C1292 H1283 0.941 . S
C1292 C1284 1.408 1_565 S
C1292 C1287 1.328 1_565 S
C1293 H1280 0.929 . S
C1293 C1285 1.433 . S
C1293 N1295 1.384 . S
N1294 C1290 1.427 1_565 S
N1294 C1291 1.384 . S
N1295 C1287 1.427 . S
N1295 C1293 1.384 . S
H1296 C1302 0.930 . S
H1297 C1306 0.940 . S
H1298 C1311 0.929 1_455 S
H1299 C1309 0.929 . S
H1300 C1304 0.925 . S
H1301 C1310 0.929 . S
C1302 H1296 0.930 . S
C1302 C1303 1.367 . S
C1302 C1310 1.378 . S
C1303 C1302 1.367 . S
C1303 C1311 1.433 . S
C1304 H1300 0.925 . S
C1304 C1306 1.361 . S
C1304 C1308 1.348 1_455 S
C1305 C1308 1.463 . S
C1305 C1310 1.350 . S
C1305 N1313 1.414 . S
C1306 H1297 0.940 . S
C1306 C1304 1.361 . S
C1306 C1307 1.383 1_455 S
C1307 C1306 1.383 1_655 S
C1307 C1309 1.433 . S
C1308 C1304 1.348 1_655 S
C1308 C1305 1.463 . S
C1308 N1312 1.427 . S
C1309 H1299 0.929 . S
C1309 C1307 1.433 . S
C1309 N1312 1.384 . S
C1310 H1301 0.929 . S
C1310 C1302 1.378 . S
C1310 C1305 1.350 . S
C1311 H1298 0.929 1_655 S
C1311 C1303 1.433 . S
C1311 N1313 1.407 . S
N1312 C1308 1.427 . S
N1312 C1309 1.384 . S
N1313 C1305 1.414 . S
N1313 C1311 1.407 . S
H1314 C1320 0.930 . S
H1315 C1324 0.930 . S
H1316 C1329 0.929 . S
H1317 C1327 0.929 . S
H1318 C1322 0.929 . S
H1319 C1328 0.929 . S
C1320 H1314 0.930 . S
C1320 C1321 1.367 . S
C1320 C1328 1.378 . S
C1321 C1320 1.367 . S
C1321 C1329 1.433 . S
C1322 H1318 0.929 . S
C1322 C1324 1.378 . S
C1322 C1326 1.350 . S
C1323 C1326 1.463 . S
C1323 C1328 1.350 . S
C1323 N1331 1.427 . S
C1324 H1315 0.930 . S
C1324 C1322 1.378 . S
C1324 C1325 1.367 . S
C1325 C1324 1.367 . S
C1325 C1327 1.433 . S
C1326 C1322 1.350 . S
C1326 C1323 1.463 . S
C1326 N1330 1.427 . S
C1327 H1317 0.929 . S
C1327 C1325 1.433 . S
C1327 N1330 1.384 . S
C1328 H1319 0.929 . S
C1328 C1320 1.378 . S
C1328 C1323 1.350 . S
C1329 H1316 0.929 . S
C1329 C1321 1.433 . S
C1329 N1331 1.384 . S
N1330 C1326 1.427 . S
N1330 C1327 1.384 . S
N1331 C1323 1.427 . S
N1331 C1329 1.384 . S
H1332 C1338 0.930 . S
H1333 C1342 0.930 . S
H1334 C1347 0.929 . S
H1335 C1345 0.929 . S
H1336 C1340 0.929 . S
H1337 C1346 0.929 . S
C1338 H1332 0.930 . S
C1338 C1339 1.367 . S
C1338 C1346 1.378 . S
C1339 C1338 1.367 . S
C1339 C1347 1.433 . S
C1340 H1336 0.929 . S
C1340 C1342 1.378 . S
C1340 C1344 1.350 . S
C1341 C1344 1.463 . S
C1341 C1346 1.350 . S
C1341 N1349 1.427 . S
C1342 H1333 0.930 . S
C1342 C1340 1.378 . S
C1342 C1343 1.367 . S
C1343 C1342 1.367 . S
C1343 C1345 1.433 . S
C1344 C1340 1.350 . S
C1344 C1341 1.463 . S
C1344 N1348 1.427 . S
C1345 H1335 0.929 . S
C1345 C1343 1.433 . S
C1345 N1348 1.384 . S
C1346 H1337 0.929 . S
C1346 C1338 1.378 . S
C1346 C1341 1.350 . S
C1347 H1334 0.929 . S
C1347 C1339 1.433 . S
C1347 N1349 1.384 . S
N1348 C1344 1.427 . S
N1348 C1345 1.384 . S
N1349 C1341 1.427 . S
N1349 C1347 1.384 . S
H1350 C1356 0.930 . S
H1351 C1360 0.930 . S
H1352 C1365 0.929 . S
H1353 C1363 0.929 . S
H1354 C1358 0.929 . S
H1355 C1364 0.929 . S
C1356 H1350 0.930 . S
C1356 C1357 1.367 . S
C1356 C1364 1.378 . S
C1357 C1356 1.367 . S
C1357 C1365 1.433 . S
C1358 H1354 0.929 . S
C1358 C1360 1.378 . S
C1358 C1362 1.350 . S
C1359 C1362 1.463 . S
C1359 C1364 1.350 . S
C1359 N1367 1.427 . S
C1360 H1351 0.930 . S
C1360 C1358 1.378 . S
C1360 C1361 1.367 . S
C1361 C1360 1.367 . S
C1361 C1363 1.433 . S
C1362 C1358 1.350 . S
C1362 C1359 1.463 . S
C1362 N1366 1.427 . S
C1363 H1353 0.929 . S
C1363 C1361 1.433 . S
C1363 N1366 1.384 . S
C1364 H1355 0.929 . S
C1364 C1356 1.378 . S
C1364 C1359 1.350 . S
C1365 H1352 0.929 . S
C1365 C1357 1.433 . S
C1365 N1367 1.384 . S
N1366 C1362 1.427 . S
N1366 C1363 1.384 . S
N1367 C1359 1.427 . S
N1367 C1365 1.384 . S
H1368 C1374 0.930 . S
H1369 C1378 0.930 . S
H1370 C1383 0.929 . S
H1371 C1381 0.929 . S
H1372 C1376 0.929 . S
H1373 C1382 0.929 . S
C1374 H1368 0.930 . S
C1374 C1375 1.367 . S
C1374 C1382 1.378 . S
C1375 C1374 1.367 . S
C1375 C1383 1.433 . S
C1376 H1372 0.929 . S
C1376 C1378 1.378 . S
C1376 C1380 1.350 . S
C1377 C1380 1.463 . S
C1377 C1382 1.350 . S
C1377 N1385 1.427 . S
C1378 H1369 0.930 . S
C1378 C1376 1.378 . S
C1378 C1379 1.367 . S
C1379 C1378 1.367 . S
C1379 C1381 1.433 . S
C1380 C1376 1.350 . S
C1380 C1377 1.463 . S
C1380 N1384 1.427 . S
C1381 H1371 0.929 . S
C1381 C1379 1.433 . S
C1381 N1384 1.384 . S
C1382 H1373 0.929 . S
C1382 C1374 1.378 . S
C1382 C1377 1.350 . S
C1383 H1370 0.929 . S
C1383 C1375 1.433 . S
C1383 N1385 1.384 . S
N1384 C1380 1.427 . S
N1384 C1381 1.384 . S
N1385 C1377 1.427 . S
N1385 C1383 1.384 . S
H1386 C1392 0.930 . S
H1387 C1396 0.930 . S
H1388 C1401 0.929 . S
H1389 C1399 0.929 . S
H1390 C1394 0.929 . S
H1391 C1400 0.929 . S
C1392 H1386 0.930 . S
C1392 C1393 1.367 . S
C1392 C1400 1.378 . S
C1393 C1392 1.367 . S
C1393 C1401 1.433 . S
C1394 H1390 0.929 . S
C1394 C1396 1.378 . S
C1394 C1398 1.350 . S
C1395 C1398 1.463 . S
C1395 C1400 1.350 . S
C1395 N1403 1.427 . S
C1396 H1387 0.930 . S
C1396 C1394 1.378 . S
C1396 C1397 1.367 . S
C1397 C1396 1.367 . S
C1397 C1399 1.433 . S
C1398 C1394 1.350 . S
C1398 C1395 1.463 . S
C1398 N1402 1.427 . S
C1399 H1389 0.929 . S
C1399 C1397 1.433 . S
C1399 N1402 1.384 . S
C1400 H1391 0.929 . S
C1400 C1392 1.378 . S
C1400 C1395 1.350 . S
C1401 H1388 0.929 . S
C1401 C1393 1.433 . S
C1401 N1403 1.384 . S
N1402 C1398 1.427 . S
N1402 C1399 1.384 . S
N1403 C1395 1.427 . S
N1403 C1401 1.384 . S
H1404 C1410 0.930 . S
H1405 C1414 0.930 . S
H1406 C1419 0.929 . S
H1407 C1417 0.929 . S
H1408 C1412 0.929 . S
H1409 C1418 0.929 . S
C1410 H1404 0.930 . S
C1410 C1411 1.367 . S
C1410 C1418 1.378 . S
C1411 C1410 1.367 . S
C1411 C1419 1.433 . S
C1412 H1408 0.929 . S
C1412 C1414 1.378 . S
C1412 C1416 1.350 . S
C1413 C1416 1.463 . S
C1413 C1418 1.350 . S
C1413 N1421 1.427 . S
C1414 H1405 0.930 . S
C1414 C1412 1.378 . S
C1414 C1415 1.367 . S
C1415 C1414 1.367 . S
C1415 C1417 1.433 . S
C1416 C1412 1.350 . S
C1416 C1413 1.463 . S
C1416 N1420 1.427 . S
C1417 H1407 0.929 . S
C1417 C1415 1.433 . S
C1417 N1420 1.384 . S
C1418 H1409 0.929 . S
C1418 C1410 1.378 . S
C1418 C1413 1.350 . S
C1419 H1406 0.929 . S
C1419 C1411 1.433 . S
C1419 N1421 1.384 . S
N1420 C1416 1.427 . S
N1420 C1417 1.384 . S
N1421 C1413 1.427 . S
N1421 C1419 1.384 . S
H1422 C1428 0.930 . S
H1423 C1432 0.930 . S
H1424 C1437 0.929 . S
H1425 C1435 0.929 . S
H1426 C1430 0.929 . S
H1427 C1436 0.929 . S
C1428 H1422 0.930 . S
C1428 C1429 1.367 . S
C1428 C1436 1.378 . S
C1429 C1428 1.367 . S
C1429 C1437 1.433 . S
C1430 H1426 0.929 . S
C1430 C1432 1.378 . S
C1430 C1434 1.350 . S
C1431 C1434 1.463 . S
C1431 C1436 1.350 . S
C1431 N1439 1.427 . S
C1432 H1423 0.930 . S
C1432 C1430 1.378 . S
C1432 C1433 1.367 . S
C1433 C1432 1.367 . S
C1433 C1435 1.433 . S
C1434 C1430 1.350 . S
C1434 C1431 1.463 . S
C1434 N1438 1.427 . S
C1435 H1425 0.929 . S
C1435 C1433 1.433 . S
C1435 N1438 1.384 . S
C1436 H1427 0.929 . S
C1436 C1428 1.378 . S
C1436 C1431 1.350 . S
C1437 H1424 0.929 . S
C1437 C1429 1.433 . S
C1437 N1439 1.384 . S
N1438 C1434 1.427 . S
N1438 C1435 1.384 . S
N1439 C1431 1.427 . S
N1439 C1437 1.384 . S
H1440 C1446 0.930 . S
H1441 C1450 0.930 . S
H1442 C1455 0.929 . S
H1443 C1453 0.929 . S
H1444 C1448 0.929 . S
H1445 C1454 0.929 . S
C1446 H1440 0.930 . S
C1446 C1447 1.367 . S
C1446 C1454 1.378 . S
C1447 C1446 1.367 . S
C1447 C1455 1.433 . S
C1448 H1444 0.929 . S
C1448 C1450 1.378 . S
C1448 C1452 1.350 . S
C1449 C1452 1.463 . S
C1449 C1454 1.350 . S
C1449 N1457 1.427 . S
C1450 H1441 0.930 . S
C1450 C1448 1.378 . S
C1450 C1451 1.367 . S
C1451 C1450 1.367 . S
C1451 C1453 1.433 . S
C1452 C1448 1.350 . S
C1452 C1449 1.463 . S
C1452 N1456 1.427 . S
C1453 H1443 0.929 . S
C1453 C1451 1.433 . S
C1453 N1456 1.384 . S
C1454 H1445 0.929 . S
C1454 C1446 1.378 . S
C1454 C1449 1.350 . S
C1455 H1442 0.929 . S
C1455 C1447 1.433 . S
C1455 N1457 1.384 . S
N1456 C1452 1.427 . S
N1456 C1453 1.384 . S
N1457 C1449 1.427 . S
N1457 C1455 1.384 . S
H1458 C1464 0.930 . S
H1459 C1468 0.930 . S
H1460 C1473 0.929 . S
H1461 C1471 0.929 . S
H1462 C1466 0.929 . S
H1463 C1472 0.929 . S
C1464 H1458 0.930 . S
C1464 C1465 1.367 . S
C1464 C1472 1.378 . S
C1465 C1464 1.367 . S
C1465 C1473 1.433 . S
C1466 H1462 0.929 . S
C1466 C1468 1.378 . S
C1466 C1470 1.350 . S
C1467 C1470 1.463 . S
C1467 C1472 1.350 . S
C1467 N1475 1.427 . S
C1468 H1459 0.930 . S
C1468 C1466 1.378 . S
C1468 C1469 1.367 . S
C1469 C1468 1.367 . S
C1469 C1471 1.433 . S
C1470 C1466 1.350 . S
C1470 C1467 1.463 . S
C1470 N1474 1.427 . S
C1471 H1461 0.929 . S
C1471 C1469 1.433 . S
C1471 N1474 1.384 . S
C1472 H1463 0.929 . S
C1472 C1464 1.378 . S
C1472 C1467 1.350 . S
C1473 H1460 0.929 . S
C1473 C1465 1.433 . S
C1473 N1475 1.384 . S
N1474 C1470 1.427 . S
N1474 C1471 1.384 . S
N1475 C1467 1.427 . S
N1475 C1473 1.384 . S
H1476 C1482 0.930 . S
H1477 C1486 0.930 . S
H1478 C1491 0.929 . S
H1479 C1489 0.929 . S
H1480 C1484 0.929 . S
H1481 C1490 0.929 . S
C1482 H1476 0.930 . S
C1482 C1483 1.367 . S
C1482 C1490 1.378 . S
C1483 C1482 1.367 . S
C1483 C1491 1.433 . S
C1484 H1480 0.929 . S
C1484 C1486 1.378 . S
C1484 C1488 1.350 . S
C1485 C1488 1.463 . S
C1485 C1490 1.350 . S
C1485 N1493 1.427 . S
C1486 H1477 0.930 . S
C1486 C1484 1.378 . S
C1486 C1487 1.367 . S
C1487 C1486 1.367 . S
C1487 C1489 1.433 . S
C1488 C1484 1.350 . S
C1488 C1485 1.463 . S
C1488 N1492 1.427 . S
C1489 H1479 0.929 . S
C1489 C1487 1.433 . S
C1489 N1492 1.384 . S
C1490 H1481 0.929 . S
C1490 C1482 1.378 . S
C1490 C1485 1.350 . S
C1491 H1478 0.929 . S
C1491 C1483 1.433 . S
C1491 N1493 1.384 . S
N1492 C1488 1.427 . S
N1492 C1489 1.384 . S
N1493 C1485 1.427 . S
N1493 C1491 1.384 . S
H1494 C1500 0.930 . S
H1495 C1504 0.930 . S
H1496 C1509 0.929 . S
H1497 C1507 0.929 . S
H1498 C1502 0.929 . S
H1499 C1508 0.929 . S
C1500 H1494 0.930 . S
C1500 C1501 1.367 . S
C1500 C1508 1.378 . S
C1501 C1500 1.367 . S
C1501 C1509 1.433 . S
C1502 H1498 0.929 . S
C1502 C1504 1.378 . S
C1502 C1506 1.350 . S
C1503 C1506 1.463 . S
C1503 C1508 1.350 . S
C1503 N1511 1.427 . S
C1504 H1495 0.930 . S
C1504 C1502 1.378 . S
C1504 C1505 1.367 . S
C1505 C1504 1.367 . S
C1505 C1507 1.433 . S
C1506 C1502 1.350 . S
C1506 C1503 1.463 . S
C1506 N1510 1.427 . S
C1507 H1497 0.929 . S
C1507 C1505 1.433 . S
C1507 N1510 1.384 . S
C1508 H1499 0.929 . S
C1508 C1500 1.378 . S
C1508 C1503 1.350 . S
C1509 H1496 0.929 . S
C1509 C1501 1.433 . S
C1509 N1511 1.384 . S
N1510 C1506 1.427 . S
N1510 C1507 1.384 . S
N1511 C1503 1.427 . S
N1511 C1509 1.384 . S
H1512 C1518 0.930 . S
H1513 C1522 0.930 . S
H1514 C1527 0.929 . S
H1515 C1525 0.929 . S
H1516 C1520 0.929 . S
H1517 C1526 0.929 . S
C1518 H1512 0.930 . S
C1518 C1519 1.367 . S
C1518 C1526 1.378 . S
C1519 C1518 1.367 . S
C1519 C1527 1.433 . S
C1520 H1516 0.929 . S
C1520 C1522 1.378 . S
C1520 C1524 1.350 . S
C1521 C1524 1.463 . S
C1521 C1526 1.350 . S
C1521 N1529 1.427 . S
C1522 H1513 0.930 . S
C1522 C1520 1.378 . S
C1522 C1523 1.367 . S
C1523 C1522 1.367 . S
C1523 C1525 1.433 . S
C1524 C1520 1.350 . S
C1524 C1521 1.463 . S
C1524 N1528 1.427 . S
C1525 H1515 0.929 . S
C1525 C1523 1.433 . S
C1525 N1528 1.384 . S
C1526 H1517 0.929 . S
C1526 C1518 1.378 . S
C1526 C1521 1.350 . S
C1527 H1514 0.929 . S
C1527 C1519 1.433 . S
C1527 N1529 1.384 . S
N1528 C1524 1.427 . S
N1528 C1525 1.384 . S
N1529 C1521 1.427 . S
N1529 C1527 1.384 . S
H1530 C1536 0.930 . S
H1531 C1540 0.930 . S
H1532 C1545 0.929 . S
H1533 C1543 0.929 . S
H1534 C1538 0.929 . S
H1535 C1544 0.929 . S
C1536 H1530 0.930 . S
C1536 C1537 1.367 . S
C1536 C1544 1.378 . S
C1537 C1536 1.367 . S
C1537 C1545 1.433 . S
C1538 H1534 0.929 . S
C1538 C1540 1.378 . S
C1538 C1542 1.350 . S
C1539 C1542 1.463 . S
C1539 C1544 1.350 . S
C1539 N1547 1.427 . S
C1540 H1531 0.930 . S
C1540 C1538 1.378 . S
C1540 C1541 1.367 . S
C1541 C1540 1.367 . S
C1541 C1543 1.433 . S
C1542 C1538 1.350 . S
C1542 C1539 1.463 . S
C1542 N1546 1.427 . S
C1543 H1533 0.929 . S
C1543 C1541 1.433 . S
C1543 N1546 1.384 . S
C1544 H1535 0.929 . S
C1544 C1536 1.378 . S
C1544 C1539 1.350 . S
C1545 H1532 0.929 . S
C1545 C1537 1.433 . S
C1545 N1547 1.384 . S
N1546 C1542 1.427 . S
N1546 C1543 1.384 . S
N1547 C1539 1.427 . S
N1547 C1545 1.384 . S
H1548 C1554 0.930 . S
H1549 C1558 0.930 . S
H1550 C1563 0.929 . S
H1551 C1561 0.929 . S
H1552 C1556 0.929 . S
H1553 C1562 0.929 . S
C1554 H1548 0.930 . S
C1554 C1555 1.367 . S
C1554 C1562 1.378 . S
C1555 C1554 1.367 . S
C1555 C1563 1.433 . S
C1556 H1552 0.929 . S
C1556 C1558 1.378 . S
C1556 C1560 1.350 . S
C1557 C1560 1.463 . S
C1557 C1562 1.350 . S
C1557 N1565 1.427 . S
C1558 H1549 0.930 . S
C1558 C1556 1.378 . S
C1558 C1559 1.367 . S
C1559 C1558 1.367 . S
C1559 C1561 1.433 . S
C1560 C1556 1.350 . S
C1560 C1557 1.463 . S
C1560 N1564 1.427 . S
C1561 H1551 0.929 . S
C1561 C1559 1.433 . S
C1561 N1564 1.384 . S
C1562 H1553 0.929 . S
C1562 C1554 1.378 . S
C1562 C1557 1.350 . S
C1563 H1550 0.929 . S
C1563 C1555 1.433 . S
C1563 N1565 1.384 . S
N1564 C1560 1.427 . S
N1564 C1561 1.384 . S
N1565 C1557 1.427 . S
N1565 C1563 1.384 . S
H1566 C1572 0.930 . S
H1567 C1576 0.930 . S
H1568 C1581 0.929 . S
H1569 C1579 0.929 . S
H1570 C1574 0.929 . S
H1571 C1580 0.929 . S
C1572 H1566 0.930 . S
C1572 C1573 1.367 . S
C1572 C1580 1.378 . S
C1573 C1572 1.367 . S
C1573 C1581 1.433 . S
C1574 H1570 0.929 . S
C1574 C1576 1.378 . S
C1574 C1578 1.350 . S
C1575 C1578 1.463 . S
C1575 C1580 1.350 . S
C1575 N1583 1.427 . S
C1576 H1567 0.930 . S
C1576 C1574 1.378 . S
C1576 C1577 1.367 . S
C1577 C1576 1.367 . S
C1577 C1579 1.433 . S
C1578 C1574 1.350 . S
C1578 C1575 1.463 . S
C1578 N1582 1.427 . S
C1579 H1569 0.929 . S
C1579 C1577 1.433 . S
C1579 N1582 1.384 . S
C1580 H1571 0.929 . S
C1580 C1572 1.378 . S
C1580 C1575 1.350 . S
C1581 H1568 0.929 . S
C1581 C1573 1.433 . S
C1581 N1583 1.384 . S
N1582 C1578 1.427 . S
N1582 C1579 1.384 . S
N1583 C1575 1.427 . S
N1583 C1581 1.384 . S
H1584 C1590 0.930 . S
H1585 C1594 0.930 . S
H1586 C1599 0.929 . S
H1587 C1597 0.929 . S
H1588 C1592 0.929 . S
H1589 C1598 0.929 . S
C1590 H1584 0.930 . S
C1590 C1591 1.367 . S
C1590 C1598 1.378 . S
C1591 C1590 1.367 . S
C1591 C1599 1.433 . S
C1592 H1588 0.929 . S
C1592 C1594 1.378 . S
C1592 C1596 1.350 . S
C1593 C1596 1.463 . S
C1593 C1598 1.350 . S
C1593 N1601 1.427 . S
C1594 H1585 0.930 . S
C1594 C1592 1.378 . S
C1594 C1595 1.367 . S
C1595 C1594 1.367 . S
C1595 C1597 1.433 . S
C1596 C1592 1.350 . S
C1596 C1593 1.463 . S
C1596 N1600 1.427 . S
C1597 H1587 0.929 . S
C1597 C1595 1.433 . S
C1597 N1600 1.384 . S
C1598 H1589 0.929 . S
C1598 C1590 1.378 . S
C1598 C1593 1.350 . S
C1599 H1586 0.929 . S
C1599 C1591 1.433 . S
C1599 N1601 1.384 . S
N1600 C1596 1.427 . S
N1600 C1597 1.384 . S
N1601 C1593 1.427 . S
N1601 C1599 1.384 . S
H1602 C1608 0.930 . S
H1603 C1612 0.930 . S
H1604 C1617 0.929 . S
H1605 C1615 0.929 . S
H1606 C1610 0.929 . S
H1607 C1616 0.929 . S
C1608 H1602 0.930 . S
C1608 C1609 1.367 . S
C1608 C1616 1.378 . S
C1609 C1608 1.367 . S
C1609 C1617 1.433 . S
C1610 H1606 0.929 . S
C1610 C1612 1.378 . S
C1610 C1614 1.350 . S
C1611 C1614 1.463 . S
C1611 C1616 1.350 . S
C1611 N1619 1.427 . S
C1612 H1603 0.930 . S
C1612 C1610 1.378 . S
C1612 C1613 1.367 . S
C1613 C1612 1.367 . S
C1613 C1615 1.433 . S
C1614 C1610 1.350 . S
C1614 C1611 1.463 . S
C1614 N1618 1.427 . S
C1615 H1605 0.929 . S
C1615 C1613 1.433 . S
C1615 N1618 1.384 . S
C1616 H1607 0.929 . S
C1616 C1608 1.378 . S
C1616 C1611 1.350 . S
C1617 H1604 0.929 . S
C1617 C1609 1.433 . S
C1617 N1619 1.384 . S
N1618 C1614 1.427 . S
N1618 C1615 1.384 . S
N1619 C1611 1.427 . S
N1619 C1617 1.384 . S
H1620 C1626 0.930 . S
H1621 C1630 0.930 . S
H1622 C1635 0.929 . S
H1623 C1633 0.929 . S
H1624 C1628 0.929 . S
H1625 C1634 0.929 . S
C1626 H1620 0.930 . S
C1626 C1627 1.367 . S
C1626 C1634 1.378 . S
C1627 C1626 1.367 . S
C1627 C1635 1.433 . S
C1628 H1624 0.929 . S
C1628 C1630 1.378 . S
C1628 C1632 1.350 . S
C1629 C1632 1.463 . S
C1629 C1634 1.350 . S
C1629 N1637 1.427 . S
C1630 H1621 0.930 . S
C1630 C1628 1.378 . S
C1630 C1631 1.367 . S
C1631 C1630 1.367 . S
C1631 C1633 1.433 . S
C1632 C1628 1.350 . S
C1632 C1629 1.463 . S
C1632 N1636 1.427 . S
C1633 H1623 0.929 . S
C1633 C1631 1.433 . S
C1633 N1636 1.384 . S
C1634 H1625 0.929 . S
C1634 C1626 1.378 . S
C1634 C1629 1.350 . S
C1635 H1622 0.929 . S
C1635 C1627 1.433 . S
C1635 N1637 1.384 . S
N1636 C1632 1.427 . S
N1636 C1633 1.384 . S
N1637 C1629 1.427 . S
N1637 C1635 1.384 . S
H1638 C1644 0.930 . S
H1639 C1648 0.930 . S
H1640 C1653 0.929 . S
H1641 C1651 0.929 . S
H1642 C1646 0.929 . S
H1643 C1652 0.929 . S
C1644 H1638 0.930 . S
C1644 C1645 1.367 . S
C1644 C1652 1.378 . S
C1645 C1644 1.367 . S
C1645 C1653 1.433 . S
C1646 H1642 0.929 . S
C1646 C1648 1.378 . S
C1646 C1650 1.350 . S
C1647 C1650 1.463 . S
C1647 C1652 1.350 . S
C1647 N1655 1.427 . S
C1648 H1639 0.930 . S
C1648 C1646 1.378 . S
C1648 C1649 1.367 . S
C1649 C1648 1.367 . S
C1649 C1651 1.433 . S
C1650 C1646 1.350 . S
C1650 C1647 1.463 . S
C1650 N1654 1.427 . S
C1651 H1641 0.929 . S
C1651 C1649 1.433 . S
C1651 N1654 1.384 . S
C1652 H1643 0.929 . S
C1652 C1644 1.378 . S
C1652 C1647 1.350 . S
C1653 H1640 0.929 . S
C1653 C1645 1.433 . S
C1653 N1655 1.384 . S
N1654 C1650 1.427 . S
N1654 C1651 1.384 . S
N1655 C1647 1.427 . S
N1655 C1653 1.384 . S
H1656 C1662 0.930 . S
H1657 C1666 0.930 . S
H1658 C1671 0.929 . S
H1659 C1669 0.929 . S
H1660 C1664 0.929 . S
H1661 C1670 0.929 . S
C1662 H1656 0.930 . S
C1662 C1663 1.367 . S
C1662 C1670 1.378 . S
C1663 C1662 1.367 . S
C1663 C1671 1.433 . S
C1664 H1660 0.929 . S
C1664 C1666 1.378 . S
C1664 C1668 1.350 . S
C1665 C1668 1.463 . S
C1665 C1670 1.350 . S
C1665 N1673 1.427 . S
C1666 H1657 0.930 . S
C1666 C1664 1.378 . S
C1666 C1667 1.367 . S
C1667 C1666 1.367 . S
C1667 C1669 1.433 . S
C1668 C1664 1.350 . S
C1668 C1665 1.463 . S
C1668 N1672 1.427 . S
C1669 H1659 0.929 . S
C1669 C1667 1.433 . S
C1669 N1672 1.384 . S
C1670 H1661 0.929 . S
C1670 C1662 1.378 . S
C1670 C1665 1.350 . S
C1671 H1658 0.929 . S
C1671 C1663 1.433 . S
C1671 N1673 1.384 . S
N1672 C1668 1.427 . S
N1672 C1669 1.384 . S
N1673 C1665 1.427 . S
N1673 C1671 1.384 . S
H1674 C1680 0.930 . S
H1675 C1684 0.930 . S
H1676 C1689 0.929 . S
H1677 C1687 0.929 . S
H1678 C1682 0.929 . S
H1679 C1688 0.929 . S
C1680 H1674 0.930 . S
C1680 C1681 1.367 . S
C1680 C1688 1.378 . S
C1681 C1680 1.367 . S
C1681 C1689 1.433 . S
C1682 H1678 0.929 . S
C1682 C1684 1.378 . S
C1682 C1686 1.350 . S
C1683 C1686 1.463 . S
C1683 C1688 1.350 . S
C1683 N1691 1.427 . S
C1684 H1675 0.930 . S
C1684 C1682 1.378 . S
C1684 C1685 1.367 . S
C1685 C1684 1.367 . S
C1685 C1687 1.433 . S
C1686 C1682 1.350 . S
C1686 C1683 1.463 . S
C1686 N1690 1.427 . S
C1687 H1677 0.929 . S
C1687 C1685 1.433 . S
C1687 N1690 1.384 . S
C1688 H1679 0.929 . S
C1688 C1680 1.378 . S
C1688 C1683 1.350 . S
C1689 H1676 0.929 . S
C1689 C1681 1.433 . S
C1689 N1691 1.384 . S
N1690 C1686 1.427 . S
N1690 C1687 1.384 . S
N1691 C1683 1.427 . S
N1691 C1689 1.384 . S
H1692 C1698 0.930 . S
H1693 C1702 0.930 . S
H1694 C1707 0.929 . S
H1695 C1705 0.929 . S
H1696 C1700 0.929 . S
H1697 C1706 0.929 . S
C1698 H1692 0.930 . S
C1698 C1699 1.367 . S
C1698 C1706 1.378 . S
C1699 C1698 1.367 . S
C1699 C1707 1.433 . S
C1700 H1696 0.929 . S
C1700 C1702 1.378 . S
C1700 C1704 1.350 . S
C1701 C1704 1.463 . S
C1701 C1706 1.350 . S
C1701 N1709 1.427 . S
C1702 H1693 0.930 . S
C1702 C1700 1.378 . S
C1702 C1703 1.367 . S
C1703 C1702 1.367 . S
C1703 C1705 1.433 . S
C1704 C1700 1.350 . S
C1704 C1701 1.463 . S
C1704 N1708 1.427 . S
C1705 H1695 0.929 . S
C1705 C1703 1.433 . S
C1705 N1708 1.384 . S
C1706 H1697 0.929 . S
C1706 C1698 1.378 . S
C1706 C1701 1.350 . S
C1707 H1694 0.929 . S
C1707 C1699 1.433 . S
C1707 N1709 1.384 . S
N1708 C1704 1.427 . S
N1708 C1705 1.384 . S
N1709 C1701 1.427 . S
N1709 C1707 1.384 . S
H1710 C1716 0.930 . S
H1711 C1720 0.930 . S
H1712 C1725 0.929 . S
H1713 C1723 0.929 . S
H1714 C1718 0.929 . S
H1715 C1724 0.929 . S
C1716 H1710 0.930 . S
C1716 C1717 1.367 . S
C1716 C1724 1.378 . S
C1717 C1716 1.367 . S
C1717 C1725 1.433 . S
C1718 H1714 0.929 . S
C1718 C1720 1.378 . S
C1718 C1722 1.350 . S
C1719 C1722 1.463 . S
C1719 C1724 1.350 . S
C1719 N1727 1.427 . S
C1720 H1711 0.930 . S
C1720 C1718 1.378 . S
C1720 C1721 1.367 . S
C1721 C1720 1.367 . S
C1721 C1723 1.433 . S
C1722 C1718 1.350 . S
C1722 C1719 1.463 . S
C1722 N1726 1.427 . S
C1723 H1713 0.929 . S
C1723 C1721 1.433 . S
C1723 N1726 1.384 . S
C1724 H1715 0.929 . S
C1724 C1716 1.378 . S
C1724 C1719 1.350 . S
C1725 H1712 0.929 . S
C1725 C1717 1.433 . S
C1725 N1727 1.384 . S
N1726 C1722 1.427 . S
N1726 C1723 1.384 . S
N1727 C1719 1.427 . S
N1727 C1725 1.384 . S
H1728 C1734 0.930 . S
H1729 C1738 0.930 . S
H1730 C1743 0.929 . S
H1731 C1741 0.929 . S
H1732 C1736 0.929 . S
H1733 C1742 0.929 . S
C1734 H1728 0.930 . S
C1734 C1735 1.367 . S
C1734 C1742 1.378 . S
C1735 C1734 1.367 . S
C1735 C1743 1.433 . S
C1736 H1732 0.929 . S
C1736 C1738 1.378 . S
C1736 C1740 1.350 . S
C1737 C1740 1.463 . S
C1737 C1742 1.350 . S
C1737 N1745 1.427 . S
C1738 H1729 0.930 . S
C1738 C1736 1.378 . S
C1738 C1739 1.367 . S
C1739 C1738 1.367 . S
C1739 C1741 1.433 . S
C1740 C1736 1.350 . S
C1740 C1737 1.463 . S
C1740 N1744 1.427 . S
C1741 H1731 0.929 . S
C1741 C1739 1.433 . S
C1741 N1744 1.384 . S
C1742 H1733 0.929 . S
C1742 C1734 1.378 . S
C1742 C1737 1.350 . S
C1743 H1730 0.929 . S
C1743 C1735 1.433 . S
C1743 N1745 1.384 . S
N1744 C1740 1.427 . S
N1744 C1741 1.384 . S
N1745 C1737 1.427 . S
N1745 C1743 1.384 . S
H1746 C1752 0.930 . S
H1747 C1756 0.930 . S
H1748 C1761 0.929 . S
H1749 C1759 0.929 . S
H1750 C1754 0.929 . S
H1751 C1760 0.929 . S
C1752 H1746 0.930 . S
C1752 C1753 1.367 . S
C1752 C1760 1.378 . S
C1753 C1752 1.367 . S
C1753 C1761 1.433 . S
C1754 H1750 0.929 . S
C1754 C1756 1.378 . S
C1754 C1758 1.350 . S
C1755 C1758 1.463 . S
C1755 C1760 1.350 . S
C1755 N1763 1.427 . S
C1756 H1747 0.930 . S
C1756 C1754 1.378 . S
C1756 C1757 1.367 . S
C1757 C1756 1.367 . S
C1757 C1759 1.433 . S
C1758 C1754 1.350 . S
C1758 C1755 1.463 . S
C1758 N1762 1.427 . S
C1759 H1749 0.929 . S
C1759 C1757 1.433 . S
C1759 N1762 1.384 . S
C1760 H1751 0.929 . S
C1760 C1752 1.378 . S
C1760 C1755 1.350 . S
C1761 H1748 0.929 . S
C1761 C1753 1.433 . S
C1761 N1763 1.384 . S
N1762 C1758 1.427 . S
N1762 C1759 1.384 . S
N1763 C1755 1.427 . S
N1763 C1761 1.384 . S
H1764 C1770 0.930 . S
H1765 C1774 0.930 . S
H1766 C1779 0.929 . S
H1767 C1777 0.929 . S
H1768 C1772 0.929 . S
H1769 C1778 0.929 . S
C1770 H1764 0.930 . S
C1770 C1771 1.367 . S
C1770 C1778 1.378 . S
C1771 C1770 1.367 . S
C1771 C1779 1.433 . S
C1772 H1768 0.929 . S
C1772 C1774 1.378 . S
C1772 C1776 1.350 . S
C1773 C1776 1.463 . S
C1773 C1778 1.350 . S
C1773 N1781 1.427 . S
C1774 H1765 0.930 . S
C1774 C1772 1.378 . S
C1774 C1775 1.367 . S
C1775 C1774 1.367 . S
C1775 C1777 1.433 . S
C1776 C1772 1.350 . S
C1776 C1773 1.463 . S
C1776 N1780 1.427 . S
C1777 H1767 0.929 . S
C1777 C1775 1.433 . S
C1777 N1780 1.384 . S
C1778 H1769 0.929 . S
C1778 C1770 1.378 . S
C1778 C1773 1.350 . S
C1779 H1766 0.929 . S
C1779 C1771 1.433 . S
C1779 N1781 1.384 . S
N1780 C1776 1.427 . S
N1780 C1777 1.384 . S
N1781 C1773 1.427 . S
N1781 C1779 1.384 . S
H1782 C1788 0.930 . S
H1783 C1792 0.930 . S
H1784 C1797 0.929 . S
H1785 C1795 0.929 . S
H1786 C1790 0.929 . S
H1787 C1796 0.929 . S
C1788 H1782 0.930 . S
C1788 C1789 1.367 . S
C1788 C1796 1.378 . S
C1789 C1788 1.367 . S
C1789 C1797 1.433 . S
C1790 H1786 0.929 . S
C1790 C1792 1.378 . S
C1790 C1794 1.350 . S
C1791 C1794 1.463 . S
C1791 C1796 1.350 . S
C1791 N1799 1.427 . S
C1792 H1783 0.930 . S
C1792 C1790 1.378 . S
C1792 C1793 1.367 . S
C1793 C1792 1.367 . S
C1793 C1795 1.433 . S
C1794 C1790 1.350 . S
C1794 C1791 1.463 . S
C1794 N1798 1.427 . S
C1795 H1785 0.929 . S
C1795 C1793 1.433 . S
C1795 N1798 1.384 . S
C1796 H1787 0.929 . S
C1796 C1788 1.378 . S
C1796 C1791 1.350 . S
C1797 H1784 0.929 . S
C1797 C1789 1.433 . S
C1797 N1799 1.384 . S
N1798 C1794 1.427 . S
N1798 C1795 1.384 . S
N1799 C1791 1.427 . S
N1799 C1797 1.384 . S
H1800 C1806 0.930 . S
H1801 C1810 0.930 . S
H1802 C1815 0.929 . S
H1803 C1813 0.929 . S
H1804 C1808 0.929 . S
H1805 C1814 0.929 . S
C1806 H1800 0.930 . S
C1806 C1807 1.367 . S
C1806 C1814 1.378 . S
C1807 C1806 1.367 . S
C1807 C1815 1.433 . S
C1808 H1804 0.929 . S
C1808 C1810 1.378 . S
C1808 C1812 1.350 . S
C1809 C1812 1.463 . S
C1809 C1814 1.350 . S
C1809 N1817 1.427 . S
C1810 H1801 0.930 . S
C1810 C1808 1.378 . S
C1810 C1811 1.367 . S
C1811 C1810 1.367 . S
C1811 C1813 1.433 . S
C1812 C1808 1.350 . S
C1812 C1809 1.463 . S
C1812 N1816 1.427 . S
C1813 H1803 0.929 . S
C1813 C1811 1.433 . S
C1813 N1816 1.384 . S
C1814 H1805 0.929 . S
C1814 C1806 1.378 . S
C1814 C1809 1.350 . S
C1815 H1802 0.929 . S
C1815 C1807 1.433 . S
C1815 N1817 1.384 . S
N1816 C1812 1.427 . S
N1816 C1813 1.384 . S
N1817 C1809 1.427 . S
N1817 C1815 1.384 . S
H1818 C1824 0.930 . S
H1819 C1828 0.930 . S
H1820 C1833 0.929 . S
H1821 C1831 0.929 . S
H1822 C1826 0.929 . S
H1823 C1832 0.918 1_554 S
C1824 H1818 0.930 . S
C1824 C1825 1.367 1_554 S
C1824 C1832 1.378 1_554 S
C1825 C1824 1.367 1_556 S
C1825 C1833 1.433 . S
C1826 H1822 0.929 . S
C1826 C1828 1.378 . S
C1826 C1830 1.350 . S
C1827 C1830 1.463 . S
C1827 C1832 1.350 . S
C1827 N1835 1.427 . S
C1828 H1819 0.930 . S
C1828 C1826 1.378 . S
C1828 C1829 1.367 . S
C1829 C1828 1.367 . S
C1829 C1831 1.433 . S
C1830 C1826 1.350 . S
C1830 C1827 1.463 . S
C1830 N1834 1.427 . S
C1831 H1821 0.929 . S
C1831 C1829 1.433 . S
C1831 N1834 1.384 . S
C1832 H1823 0.918 1_556 S
C1832 C1824 1.378 1_556 S
C1832 C1827 1.350 . S
C1833 H1820 0.929 . S
C1833 C1825 1.433 . S
C1833 N1835 1.384 . S
N1834 C1830 1.427 . S
N1834 C1831 1.384 . S
N1835 C1827 1.427 . S
N1835 C1833 1.384 . S
H1836 C1842 0.930 . S
H1837 C1846 0.930 . S
H1838 C1851 0.909 1_554 S
H1839 C1849 0.929 . S
H1840 C1844 0.929 . S
H1841 C1850 0.929 . S
C1842 H1836 0.930 . S
C1842 C1843 1.367 . S
C1842 C1850 1.378 . S
C1843 C1842 1.367 . S
C1843 C1851 1.444 . S
C1844 H1840 0.929 . S
C1844 C1846 1.378 . S
C1844 C1848 1.350 . S
C1845 C1848 1.463 . S
C1845 C1850 1.350 . S
C1845 N1853 1.427 . S
C1846 H1837 0.930 . S
C1846 C1844 1.378 . S
C1846 C1847 1.367 . S
C1847 C1846 1.367 . S
C1847 C1849 1.433 . S
C1848 C1844 1.350 . S
C1848 C1845 1.463 . S
C1848 N1852 1.427 . S
C1849 H1839 0.929 . S
C1849 C1847 1.433 . S
C1849 N1852 1.384 . S
C1850 H1841 0.929 . S
C1850 C1842 1.378 . S
C1850 C1845 1.350 . S
C1851 H1838 0.909 1_556 S
C1851 C1843 1.444 . S
C1851 N1853 1.395 . S
N1852 C1848 1.427 . S
N1852 C1849 1.384 . S
N1853 C1845 1.427 . S
N1853 C1851 1.395 . S
H1854 C1860 0.930 . S
H1855 C1864 0.930 . S
H1856 C1869 0.929 1_554 S
H1857 C1867 0.929 . S
H1858 C1862 0.929 . S
H1859 C1868 0.929 . S
C1860 H1854 0.930 . S
C1860 C1861 1.367 . S
C1860 C1868 1.378 . S
C1861 C1860 1.367 . S
C1861 C1869 1.433 . S
C1862 H1858 0.929 . S
C1862 C1864 1.378 . S
C1862 C1866 1.350 . S
C1863 C1866 1.463 . S
C1863 C1868 1.350 . S
C1863 N1871 1.427 . S
C1864 H1855 0.930 . S
C1864 C1862 1.378 . S
C1864 C1865 1.367 . S
C1865 C1864 1.367 . S
C1865 C1867 1.433 . S
C1866 C1862 1.350 . S
C1866 C1863 1.463 . S
C1866 N1870 1.427 . S
C1867 H1857 0.929 . S
C1867 C1865 1.433 . S
C1867 N1870 1.384 . S
C1868 H1859 0.929 . S
C1868 C1860 1.378 . S
C1868 C1863 1.350 . S
C1869 H1856 0.929 1_556 S
C1869 C1861 1.433 . S
C1869 N1871 1.384 . S
N1870 C1866 1.427 . S
N1870 C1867 1.384 . S
N1871 C1863 1.427 . S
N1871 C1869 1.384 . S
H1872 C1878 0.930 . S
H1873 C1882 0.930 . S
H1874 C1887 0.929 . S
H1875 C1885 0.929 . S
H1876 C1880 0.929 . S
H1877 C1886 0.929 . S
C1878 H1872 0.930 . S
C1878 C1879 1.367 . S
C1878 C1886 1.378 . S
C1879 C1878 1.367 . S
C1879 C1887 1.433 1_556 S
C1880 H1876 0.929 . S
C1880 C1882 1.378 . S
C1880 C1884 1.350 . S
C1881 C1884 1.463 . S
C1881 C1886 1.350 . S
C1881 N1889 1.427 . S
C1882 H1873 0.930 . S
C1882 C1880 1.378 . S
C1882 C1883 1.367 . S
C1883 C1882 1.367 . S
C1883 C1885 1.433 . S
C1884 C1880 1.350 . S
C1884 C1881 1.463 . S
C1884 N1888 1.427 . S
C1885 H1875 0.929 . S
C1885 C1883 1.433 . S
C1885 N1888 1.384 . S
C1886 H1877 0.929 . S
C1886 C1878 1.378 . S
C1886 C1881 1.350 . S
C1887 H1874 0.929 . S
C1887 C1879 1.433 1_554 S
C1887 N1889 1.384 1_554 S
N1888 C1884 1.427 . S
N1888 C1885 1.384 . S
N1889 C1881 1.427 . S
N1889 C1887 1.384 1_556 S
H1890 C1896 0.930 . S
H1891 C1900 0.930 . S
H1892 C1905 0.929 . S
H1893 C1903 0.929 . S
H1894 C1898 0.929 . S
H1895 C1904 0.910 1_554 S
C1896 H1890 0.930 . S
C1896 C1897 1.367 1_554 S
C1896 C1904 1.378 1_554 S
C1897 C1896 1.367 1_556 S
C1897 C1905 1.433 . S
C1898 H1894 0.929 . S
C1898 C1900 1.378 . S
C1898 C1902 1.350 . S
C1899 C1902 1.463 . S
C1899 C1904 1.350 . S
C1899 N1907 1.427 . S
C1900 H1891 0.930 . S
C1900 C1898 1.378 . S
C1900 C1901 1.367 . S
C1901 C1900 1.367 . S
C1901 C1903 1.433 . S
C1902 C1898 1.350 . S
C1902 C1899 1.463 . S
C1902 N1906 1.427 . S
C1903 H1893 0.929 . S
C1903 C1901 1.433 . S
C1903 N1906 1.384 . S
C1904 H1895 0.910 1_556 S
C1904 C1896 1.378 1_556 S
C1904 C1899 1.350 . S
C1905 H1892 0.929 . S
C1905 C1897 1.433 . S
C1905 N1907 1.384 . S
N1906 C1902 1.427 . S
N1906 C1903 1.384 . S
N1907 C1899 1.427 . S
N1907 C1905 1.384 . S
H1908 C1914 0.930 . S
H1909 C1918 0.930 . S
H1910 C1923 0.929 . S
H1911 C1921 0.929 . S
H1912 C1916 0.929 . S
H1913 C1922 0.929 1_554 S
C1914 H1908 0.930 . S
C1914 C1915 1.367 1_554 S
C1914 C1922 1.378 1_554 S
C1915 C1914 1.367 1_556 S
C1915 C1923 1.433 . S
C1916 H1912 0.929 . S
C1916 C1918 1.378 . S
C1916 C1920 1.350 . S
C1917 C1920 1.463 . S
C1917 C1922 1.350 . S
C1917 N1925 1.427 . S
C1918 H1909 0.930 . S
C1918 C1916 1.378 . S
C1918 C1919 1.367 . S
C1919 C1918 1.367 . S
C1919 C1921 1.433 . S
C1920 C1916 1.350 . S
C1920 C1917 1.463 . S
C1920 N1924 1.427 . S
C1921 H1911 0.929 . S
C1921 C1919 1.433 . S
C1921 N1924 1.384 . S
C1922 H1913 0.929 1_556 S
C1922 C1914 1.378 1_556 S
C1922 C1917 1.350 . S
C1923 H1910 0.929 . S
C1923 C1915 1.433 . S
C1923 N1925 1.384 . S
N1924 C1920 1.427 . S
N1924 C1921 1.384 . S
N1925 C1917 1.427 . S
N1925 C1923 1.384 . S
H1926 C1932 0.930 . S
H1927 C1936 0.930 . S
H1928 C1941 0.929 . S
H1929 C1939 0.929 . S
H1930 C1934 0.929 . S
H1931 C1940 0.929 . S
C1932 H1926 0.930 . S
C1932 C1933 1.367 . S
C1932 C1940 1.378 . S
C1933 C1932 1.367 . S
C1933 C1941 1.433 . S
C1934 H1930 0.929 . S
C1934 C1936 1.378 . S
C1934 C1938 1.350 . S
C1935 C1938 1.463 . S
C1935 C1940 1.350 . S
C1935 N1943 1.427 . S
C1936 H1927 0.930 . S
C1936 C1934 1.378 . S
C1936 C1937 1.367 . S
C1937 C1936 1.367 . S
C1937 C1939 1.433 . S
C1938 C1934 1.350 . S
C1938 C1935 1.463 . S
C1938 N1942 1.427 . S
C1939 H1929 0.929 . S
C1939 C1937 1.433 . S
C1939 N1942 1.384 . S
C1940 H1931 0.929 . S
C1940 C1932 1.378 . S
C1940 C1935 1.350 . S
C1941 H1928 0.929 . S
C1941 C1933 1.433 . S
C1941 N1943 1.384 . S
N1942 C1938 1.427 . S
N1942 C1939 1.384 . S
N1943 C1935 1.427 . S
N1943 C1941 1.384 . S
H1944 C1950 0.930 . S
H1945 C1954 0.930 . S
H1946 C1959 0.929 . S
H1947 C1957 0.929 . S
H1948 C1952 0.929 . S
H1949 C1958 0.929 . S
C1950 H1944 0.930 . S
C1950 C1951 1.367 . S
C1950 C1958 1.378 . S
C1951 C1950 1.367 . S
C1951 C1959 1.433 . S
C1952 H1948 0.929 . S
C1952 C1954 1.378 . S
C1952 C1956 1.350 . S
C1953 C1956 1.463 . S
C1953 C1958 1.350 . S
C1953 N1961 1.427 . S
C1954 H1945 0.930 . S
C1954 C1952 1.378 . S
C1954 C1955 1.367 . S
C1955 C1954 1.367 . S
C1955 C1957 1.433 . S
C1956 C1952 1.350 . S
C1956 C1953 1.463 . S
C1956 N1960 1.427 . S
C1957 H1947 0.929 . S
C1957 C1955 1.433 . S
C1957 N1960 1.384 . S
C1958 H1949 0.929 . S
C1958 C1950 1.378 . S
C1958 C1953 1.350 . S
C1959 H1946 0.929 . S
C1959 C1951 1.433 . S
C1959 N1961 1.384 . S
N1960 C1956 1.427 . S
N1960 C1957 1.384 . S
N1961 C1953 1.427 . S
N1961 C1959 1.384 . S
H1962 C1968 0.930 . S
H1963 C1972 0.930 . S
H1964 C1977 0.929 . S
H1965 C1975 0.929 . S
H1966 C1970 0.929 . S
H1967 C1976 0.929 . S
C1968 H1962 0.930 . S
C1968 C1969 1.367 . S
C1968 C1976 1.378 . S
C1969 C1968 1.367 . S
C1969 C1977 1.433 . S
C1970 H1966 0.929 . S
C1970 C1972 1.378 . S
C1970 C1974 1.350 . S
C1971 C1974 1.463 . S
C1971 C1976 1.350 . S
C1971 N1979 1.427 . S
C1972 H1963 0.930 . S
C1972 C1970 1.378 . S
C1972 C1973 1.367 . S
C1973 C1972 1.367 . S
C1973 C1975 1.433 . S
C1974 C1970 1.350 . S
C1974 C1971 1.463 . S
C1974 N1978 1.427 . S
C1975 H1965 0.929 . S
C1975 C1973 1.433 . S
C1975 N1978 1.384 . S
C1976 H1967 0.929 . S
C1976 C1968 1.378 . S
C1976 C1971 1.350 . S
C1977 H1964 0.929 . S
C1977 C1969 1.433 . S
C1977 N1979 1.384 . S
N1978 C1974 1.427 . S
N1978 C1975 1.384 . S
N1979 C1971 1.427 . S
N1979 C1977 1.384 . S
H1980 C1986 0.930 . S
H1981 C1990 0.930 . S
H1982 C1995 0.929 . S
H1983 C1993 0.929 . S
H1984 C1988 0.929 . S
H1985 C1994 0.929 . S
C1986 H1980 0.930 . S
C1986 C1987 1.367 . S
C1986 C1994 1.378 . S
C1987 C1986 1.367 . S
C1987 C1995 1.433 . S
C1988 H1984 0.929 . S
C1988 C1990 1.378 . S
C1988 C1992 1.350 . S
C1989 C1992 1.463 . S
C1989 C1994 1.350 . S
C1989 N1997 1.427 . S
C1990 H1981 0.930 . S
C1990 C1988 1.378 . S
C1990 C1991 1.367 . S
C1991 C1990 1.367 . S
C1991 C1993 1.433 . S
C1992 C1988 1.350 . S
C1992 C1989 1.463 . S
C1992 N1996 1.427 . S
C1993 H1983 0.929 . S
C1993 C1991 1.433 . S
C1993 N1996 1.384 . S
C1994 H1985 0.929 . S
C1994 C1986 1.378 . S
C1994 C1989 1.350 . S
C1995 H1982 0.929 . S
C1995 C1987 1.433 . S
C1995 N1997 1.384 . S
N1996 C1992 1.427 . S
N1996 C1993 1.384 . S
N1997 C1989 1.427 . S
N1997 C1995 1.384 . S
H1998 C2004 0.930 . S
H1999 C2008 0.930 . S
H2000 C2013 0.929 . S
H2001 C2011 0.929 . S
H2002 C2006 0.929 . S
H2003 C2012 0.929 . S
C2004 H1998 0.930 . S
C2004 C2005 1.367 . S
C2004 C2012 1.378 . S
C2005 C2004 1.367 . S
C2005 C2013 1.433 . S
C2006 H2002 0.929 . S
C2006 C2008 1.378 . S
C2006 C2010 1.350 . S
C2007 C2010 1.463 . S
C2007 C2012 1.350 . S
C2007 N2015 1.427 . S
C2008 H1999 0.930 . S
C2008 C2006 1.378 . S
C2008 C2009 1.367 . S
C2009 C2008 1.367 . S
C2009 C2011 1.433 . S
C2010 C2006 1.350 . S
C2010 C2007 1.463 . S
C2010 N2014 1.427 . S
C2011 H2001 0.929 . S
C2011 C2009 1.433 . S
C2011 N2014 1.384 . S
C2012 H2003 0.929 . S
C2012 C2004 1.378 . S
C2012 C2007 1.350 . S
C2013 H2000 0.929 . S
C2013 C2005 1.433 . S
C2013 N2015 1.384 . S
N2014 C2010 1.427 . S
N2014 C2011 1.384 . S
N2015 C2007 1.427 . S
N2015 C2013 1.384 . S
H2016 C2022 0.930 . S
H2017 C2026 0.930 . S
H2018 C2031 0.929 . S
H2019 C2029 0.929 . S
H2020 C2024 0.929 . S
H2021 C2030 0.929 . S
C2022 H2016 0.930 . S
C2022 C2023 1.367 . S
C2022 C2030 1.378 . S
C2023 C2022 1.367 . S
C2023 C2031 1.433 . S
C2024 H2020 0.929 . S
C2024 C2026 1.378 . S
C2024 C2028 1.350 . S
C2025 C2028 1.463 . S
C2025 C2030 1.350 . S
C2025 N2033 1.427 . S
C2026 H2017 0.930 . S
C2026 C2024 1.378 . S
C2026 C2027 1.367 . S
C2027 C2026 1.367 . S
C2027 C2029 1.433 . S
C2028 C2024 1.350 . S
C2028 C2025 1.463 . S
C2028 N2032 1.427 . S
C2029 H2019 0.929 . S
C2029 C2027 1.433 . S
C2029 N2032 1.384 . S
C2030 H2021 0.929 . S
C2030 C2022 1.378 . S
C2030 C2025 1.350 . S
C2031 H2018 0.929 . S
C2031 C2023 1.433 . S
C2031 N2033 1.384 . S
N2032 C2028 1.427 . S
N2032 C2029 1.384 . S
N2033 C2025 1.427 . S
N2033 C2031 1.384 . S
H2034 C2040 0.930 . S
H2035 C2044 0.930 . S
H2036 C2049 0.929 . S
H2037 C2047 0.911 1_655 S
H2038 C2042 0.929 . S
H2039 C2048 0.929 . S
C2040 H2034 0.930 . S
C2040 C2041 1.367 . S
C2040 C2048 1.378 . S
C2041 C2040 1.367 . S
C2041 C2049 1.433 . S
C2042 H2038 0.929 . S
C2042 C2044 1.378 . S
C2042 C2046 1.350 . S
C2043 C2046 1.463 . S
C2043 C2048 1.350 . S
C2043 N2051 1.427 . S
C2044 H2035 0.930 . S
C2044 C2042 1.378 . S
C2044 C2045 1.367 . S
C2045 C2044 1.367 . S
C2045 C2047 1.419 . S
C2046 C2042 1.350 . S
C2046 C2043 1.463 . S
C2046 N2050 1.427 . S
C2047 H2037 0.911 1_455 S
C2047 C2045 1.419 . S
C2047 N2050 1.421 . S
C2048 H2039 0.929 . S
C2048 C2040 1.378 . S
C2048 C2043 1.350 . S
C2049 H2036 0.929 . S
C2049 C2041 1.433 . S
C2049 N2051 1.384 . S
N2050 C2046 1.427 . S
N2050 C2047 1.421 . S
N2051 C2043 1.427 . S
N2051 C2049 1.384 . S
H2052 C2058 0.930 . S
H2053 C2062 0.930 . S
H2054 C2067 0.929 . S
H2055 C2065 0.929 . S
H2056 C2060 0.929 . S
H2057 C2066 0.929 . S
C2058 H2052 0.930 . S
C2058 C2059 1.367 . S
C2058 C2066 1.378 . S
C2059 C2058 1.367 . S
C2059 C2067 1.433 . S
C2060 H2056 0.929 . S
C2060 C2062 1.378 . S
C2060 C2064 1.350 . S
C2061 C2064 1.463 . S
C2061 C2066 1.350 . S
C2061 N2069 1.427 . S
C2062 H2053 0.930 . S
C2062 C2060 1.378 . S
C2062 C2063 1.367 . S
C2063 C2062 1.367 . S
C2063 C2065 1.433 . S
C2064 C2060 1.350 . S
C2064 C2061 1.463 . S
C2064 N2068 1.427 . S
C2065 H2055 0.929 . S
C2065 C2063 1.433 . S
C2065 N2068 1.384 . S
C2066 H2057 0.929 . S
C2066 C2058 1.378 . S
C2066 C2061 1.350 . S
C2067 H2054 0.929 . S
C2067 C2059 1.433 . S
C2067 N2069 1.384 . S
N2068 C2064 1.427 . S
N2068 C2065 1.384 . S
N2069 C2061 1.427 . S
N2069 C2067 1.384 . S
H2070 C2076 0.930 . S
H2071 C2080 0.954 1_545 S
H2072 C2085 0.929 . S
H2073 C2083 0.929 . S
H2074 C2078 0.929 . S
H2075 C2084 0.929 . S
C2076 H2070 0.930 . S
C2076 C2077 1.367 . S
C2076 C2084 1.378 . S
C2077 C2076 1.367 . S
C2077 C2085 1.433 . S
C2078 H2074 0.929 . S
C2078 C2080 1.350 . S
C2078 C2082 1.350 . S
C2079 C2082 1.463 . S
C2079 C2084 1.350 . S
C2079 N2087 1.427 . S
C2080 H2071 0.954 1_565 S
C2080 C2078 1.350 . S
C2080 C2081 1.378 . S
C2081 C2080 1.378 . S
C2081 C2083 1.433 . S
C2082 C2078 1.350 . S
C2082 C2079 1.463 . S
C2082 N2086 1.427 . S
C2083 H2073 0.929 . S
C2083 C2081 1.433 . S
C2083 N2086 1.384 . S
C2084 H2075 0.929 . S
C2084 C2076 1.378 . S
C2084 C2079 1.350 . S
C2085 H2072 0.929 . S
C2085 C2077 1.433 . S
C2085 N2087 1.384 . S
N2086 C2082 1.427 . S
N2086 C2083 1.384 . S
N2087 C2079 1.427 . S
N2087 C2085 1.384 . S
H2088 C2094 0.930 . S
H2089 C2098 0.930 . S
H2090 C2103 0.929 . S
H2091 C2101 0.929 . S
H2092 C2096 0.929 . S
H2093 C2102 0.891 1_545 S
C2094 H2088 0.930 . S
C2094 C2095 1.367 . S
C2094 C2102 1.378 . S
C2095 C2094 1.367 . S
C2095 C2103 1.433 . S
C2096 H2092 0.929 . S
C2096 C2098 1.378 . S
C2096 C2100 1.350 . S
C2097 C2100 1.463 . S
C2097 C2102 1.350 . S
C2097 N2105 1.427 . S
C2098 H2089 0.930 . S
C2098 C2096 1.378 . S
C2098 C2099 1.367 . S
C2099 C2098 1.367 . S
C2099 C2101 1.433 1_565 S
C2100 C2096 1.350 . S
C2100 C2097 1.463 . S
C2100 N2104 1.479 . S
C2101 H2091 0.929 . S
C2101 C2099 1.433 1_545 S
C2101 N2104 1.347 1_545 S
C2102 H2093 0.891 1_565 S
C2102 C2094 1.378 . S
C2102 C2097 1.350 . S
C2103 H2090 0.929 . S
C2103 C2095 1.433 . S
C2103 N2105 1.384 . S
N2104 C2100 1.479 . S
N2104 C2101 1.347 1_565 S
N2105 C2097 1.427 . S
N2105 C2103 1.384 . S
H2106 C2112 0.930 . S
H2107 C2116 0.930 . S
H2108 C2121 0.929 1_655 S
H2109 C2119 0.929 . S
H2110 C2114 0.929 . S
H2111 C2120 0.929 . S
C2112 H2106 0.930 . S
C2112 C2113 1.367 . S
C2112 C2120 1.378 . S
C2113 C2112 1.367 . S
C2113 C2121 1.433 . S
C2114 H2110 0.929 . S
C2114 C2116 1.378 . S
C2114 C2118 1.350 1_655 S
C2115 C2118 1.463 . S
C2115 C2120 1.350 . S
C2115 N2123 1.427 . S
C2116 H2107 0.930 . S
C2116 C2114 1.378 . S
C2116 C2117 1.367 1_655 S
C2117 C2116 1.367 1_455 S
C2117 C2119 1.433 . S
C2118 C2114 1.350 1_455 S
C2118 C2115 1.463 . S
C2118 N2122 1.427 . S
C2119 H2109 0.929 . S
C2119 C2117 1.433 . S
C2119 N2122 1.384 . S
C2120 H2111 0.929 . S
C2120 C2112 1.378 . S
C2120 C2115 1.350 . S
C2121 H2108 0.929 1_455 S
C2121 C2113 1.433 . S
C2121 N2123 1.384 . S
N2122 C2118 1.427 . S
N2122 C2119 1.384 . S
N2123 C2115 1.427 . S
N2123 C2121 1.384 . S
H2124 C2130 0.930 . S
H2125 C2134 0.930 . S
H2126 C2139 0.929 . S
H2127 C2137 0.929 . S
H2128 C2132 0.929 . S
H2129 C2138 0.929 . S
C2130 H2124 0.930 . S
C2130 C2131 1.367 . S
C2130 C2138 1.378 . S
C2131 C2130 1.367 . S
C2131 C2139 1.433 . S
C2132 H2128 0.929 . S
C2132 C2134 1.378 . S
C2132 C2136 1.350 . S
C2133 C2136 1.463 . S
C2133 C2138 1.350 . S
C2133 N2141 1.427 . S
C2134 H2125 0.930 . S
C2134 C2132 1.378 . S
C2134 C2135 1.367 . S
C2135 C2134 1.367 . S
C2135 C2137 1.433 . S
C2136 C2132 1.350 . S
C2136 C2133 1.463 . S
C2136 N2140 1.427 . S
C2137 H2127 0.929 . S
C2137 C2135 1.433 . S
C2137 N2140 1.384 . S
C2138 H2129 0.929 . S
C2138 C2130 1.378 . S
C2138 C2133 1.350 . S
C2139 H2126 0.929 . S
C2139 C2131 1.433 . S
C2139 N2141 1.384 . S
N2140 C2136 1.427 . S
N2140 C2137 1.384 . S
N2141 C2133 1.427 . S
N2141 C2139 1.384 . S
H2142 C2148 0.930 . S
H2143 C2152 0.930 . S
H2144 C2157 0.929 . S
H2145 C2155 0.929 . S
H2146 C2150 0.929 . S
H2147 C2156 0.929 . S
C2148 H2142 0.930 . S
C2148 C2149 1.367 . S
C2148 C2156 1.378 . S
C2149 C2148 1.367 . S
C2149 C2157 1.433 . S
C2150 H2146 0.929 . S
C2150 C2152 1.378 . S
C2150 C2154 1.350 . S
C2151 C2154 1.463 . S
C2151 C2156 1.350 . S
C2151 N2159 1.427 . S
C2152 H2143 0.930 . S
C2152 C2150 1.378 . S
C2152 C2153 1.367 . S
C2153 C2152 1.367 . S
C2153 C2155 1.433 . S
C2154 C2150 1.350 . S
C2154 C2151 1.463 . S
C2154 N2158 1.427 . S
C2155 H2145 0.929 . S
C2155 C2153 1.433 . S
C2155 N2158 1.384 . S
C2156 H2147 0.929 . S
C2156 C2148 1.378 . S
C2156 C2151 1.350 . S
C2157 H2144 0.929 . S
C2157 C2149 1.433 . S
C2157 N2159 1.384 . S
N2158 C2154 1.427 . S
N2158 C2155 1.384 . S
N2159 C2151 1.427 . S
N2159 C2157 1.384 . S
H2160 C2166 0.930 . S
H2161 C2170 0.930 . S
H2162 C2175 0.929 . S
H2163 C2173 0.929 . S
H2164 C2168 0.929 . S
H2165 C2174 0.929 . S
C2166 H2160 0.930 . S
C2166 C2167 1.367 . S
C2166 C2174 1.378 . S
C2167 C2166 1.367 . S
C2167 C2175 1.433 . S
C2168 H2164 0.929 . S
C2168 C2170 1.378 . S
C2168 C2172 1.350 . S
C2169 C2172 1.463 . S
C2169 C2174 1.350 . S
C2169 N2177 1.427 . S
C2170 H2161 0.930 . S
C2170 C2168 1.378 . S
C2170 C2171 1.367 . S
C2171 C2170 1.367 . S
C2171 C2173 1.433 . S
C2172 C2168 1.350 . S
C2172 C2169 1.463 . S
C2172 N2176 1.427 . S
C2173 H2163 0.929 . S
C2173 C2171 1.433 . S
C2173 N2176 1.384 . S
C2174 H2165 0.929 . S
C2174 C2166 1.378 . S
C2174 C2169 1.350 . S
C2175 H2162 0.929 . S
C2175 C2167 1.433 . S
C2175 N2177 1.384 . S
N2176 C2172 1.427 . S
N2176 C2173 1.384 . S
N2177 C2169 1.427 . S
N2177 C2175 1.384 . S
H2178 C2184 0.930 . S
H2179 C2188 0.930 . S
H2180 C2193 0.929 . S
H2181 C2191 0.929 . S
H2182 C2186 0.929 . S
H2183 C2192 0.929 . S
C2184 H2178 0.930 . S
C2184 C2185 1.367 . S
C2184 C2192 1.378 . S
C2185 C2184 1.367 . S
C2185 C2193 1.433 . S
C2186 H2182 0.929 . S
C2186 C2188 1.378 . S
C2186 C2190 1.350 . S
C2187 C2190 1.463 . S
C2187 C2192 1.350 . S
C2187 N2195 1.427 . S
C2188 H2179 0.930 . S
C2188 C2186 1.378 . S
C2188 C2189 1.367 . S
C2189 C2188 1.367 . S
C2189 C2191 1.433 . S
C2190 C2186 1.350 . S
C2190 C2187 1.463 . S
C2190 N2194 1.427 . S
C2191 H2181 0.929 . S
C2191 C2189 1.433 . S
C2191 N2194 1.384 . S
C2192 H2183 0.929 . S
C2192 C2184 1.378 . S
C2192 C2187 1.350 . S
C2193 H2180 0.929 . S
C2193 C2185 1.433 . S
C2193 N2195 1.384 . S
N2194 C2190 1.427 . S
N2194 C2191 1.384 . S
N2195 C2187 1.427 . S
N2195 C2193 1.384 . S
H2196 C2202 0.930 1_565 S
H2197 C2206 0.930 . S
H2198 C2211 0.929 . S
H2199 C2209 0.929 . S
H2200 C2204 0.929 . S
H2201 C2210 0.929 1_565 S
C2202 H2196 0.930 1_545 S
C2202 C2203 1.367 . S
C2202 C2210 1.378 . S
C2203 C2202 1.367 . S
C2203 C2211 1.433 . S
C2204 H2200 0.929 . S
C2204 C2206 1.378 . S
C2204 C2208 1.350 . S
C2205 C2208 1.463 . S
C2205 C2210 1.350 . S
C2205 N2213 1.427 . S
C2206 H2197 0.930 . S
C2206 C2204 1.378 . S
C2206 C2207 1.367 . S
C2207 C2206 1.367 . S
C2207 C2209 1.433 1_545 S
C2208 C2204 1.350 . S
C2208 C2205 1.463 . S
C2208 N2212 1.427 1_545 S
C2209 H2199 0.929 . S
C2209 C2207 1.433 1_565 S
C2209 N2212 1.384 . S
C2210 H2201 0.929 1_545 S
C2210 C2202 1.378 . S
C2210 C2205 1.350 . S
C2211 H2198 0.929 . S
C2211 C2203 1.433 . S
C2211 N2213 1.384 . S
N2212 C2208 1.427 1_565 S
N2212 C2209 1.384 . S
N2213 C2205 1.427 . S
N2213 C2211 1.384 . S
H2214 C2220 0.930 . S
H2215 C2224 0.930 . S
H2216 C2229 0.929 . S
H2217 C2227 0.929 . S
H2218 C2222 0.929 . S
H2219 C2228 0.929 . S
C2220 H2214 0.930 . S
C2220 C2221 1.367 . S
C2220 C2228 1.378 . S
C2221 C2220 1.367 . S
C2221 C2229 1.433 . S
C2222 H2218 0.929 . S
C2222 C2224 1.378 . S
C2222 C2226 1.350 . S
C2223 C2226 1.463 . S
C2223 C2228 1.350 . S
C2223 N2231 1.427 . S
C2224 H2215 0.930 . S
C2224 C2222 1.378 . S
C2224 C2225 1.367 . S
C2225 C2224 1.367 . S
C2225 C2227 1.433 . S
C2226 C2222 1.350 . S
C2226 C2223 1.463 . S
C2226 N2230 1.427 . S
C2227 H2217 0.929 . S
C2227 C2225 1.433 . S
C2227 N2230 1.384 . S
C2228 H2219 0.929 . S
C2228 C2220 1.378 . S
C2228 C2223 1.350 . S
C2229 H2216 0.929 . S
C2229 C2221 1.433 . S
C2229 N2231 1.384 . S
N2230 C2226 1.427 . S
N2230 C2227 1.384 . S
N2231 C2223 1.427 . S
N2231 C2229 1.384 . S
H2232 C2238 0.930 . S
H2233 C2242 0.930 . S
H2234 C2247 0.929 . S
H2235 C2245 0.929 . S
H2236 C2240 0.929 . S
H2237 C2246 0.929 . S
C2238 H2232 0.930 . S
C2238 C2239 1.367 . S
C2238 C2246 1.378 . S
C2239 C2238 1.367 . S
C2239 C2247 1.433 . S
C2240 H2236 0.929 . S
C2240 C2242 1.378 . S
C2240 C2244 1.350 . S
C2241 C2244 1.463 . S
C2241 C2246 1.350 . S
C2241 N2249 1.427 . S
C2242 H2233 0.930 . S
C2242 C2240 1.378 . S
C2242 C2243 1.367 . S
C2243 C2242 1.367 . S
C2243 C2245 1.433 . S
C2244 C2240 1.350 . S
C2244 C2241 1.463 . S
C2244 N2248 1.427 . S
C2245 H2235 0.929 . S
C2245 C2243 1.433 . S
C2245 N2248 1.384 . S
C2246 H2237 0.929 . S
C2246 C2238 1.378 . S
C2246 C2241 1.350 . S
C2247 H2234 0.929 . S
C2247 C2239 1.433 . S
C2247 N2249 1.384 . S
N2248 C2244 1.427 . S
N2248 C2245 1.384 . S
N2249 C2241 1.427 . S
N2249 C2247 1.384 . S
H2250 C2256 0.930 . S
H2251 C2260 0.930 . S
H2252 C2265 0.929 . S
H2253 C2263 0.929 . S
H2254 C2258 0.929 . S
H2255 C2264 0.929 . S
C2256 H2250 0.930 . S
C2256 C2257 1.367 . S
C2256 C2264 1.378 . S
C2257 C2256 1.367 . S
C2257 C2265 1.433 . S
C2258 H2254 0.929 . S
C2258 C2260 1.378 . S
C2258 C2262 1.350 . S
C2259 C2262 1.463 . S
C2259 C2264 1.350 . S
C2259 N2267 1.427 . S
C2260 H2251 0.930 . S
C2260 C2258 1.378 . S
C2260 C2261 1.367 . S
C2261 C2260 1.367 . S
C2261 C2263 1.433 . S
C2262 C2258 1.350 . S
C2262 C2259 1.463 . S
C2262 N2266 1.427 . S
C2263 H2253 0.929 . S
C2263 C2261 1.433 . S
C2263 N2266 1.384 . S
C2264 H2255 0.929 . S
C2264 C2256 1.378 . S
C2264 C2259 1.350 . S
C2265 H2252 0.929 . S
C2265 C2257 1.433 . S
C2265 N2267 1.384 . S
N2266 C2262 1.427 . S
N2266 C2263 1.384 . S
N2267 C2259 1.427 . S
N2267 C2265 1.384 . S
H2268 C2274 0.930 . S
H2269 C2278 0.930 . S
H2270 C2283 0.929 . S
H2271 C2281 0.929 . S
H2272 C2276 0.929 . S
H2273 C2282 0.929 . S
C2274 H2268 0.930 . S
C2274 C2275 1.367 . S
C2274 C2282 1.378 . S
C2275 C2274 1.367 . S
C2275 C2283 1.433 . S
C2276 H2272 0.929 . S
C2276 C2278 1.378 . S
C2276 C2280 1.350 . S
C2277 C2280 1.463 . S
C2277 C2282 1.350 . S
C2277 N2285 1.427 . S
C2278 H2269 0.930 . S
C2278 C2276 1.378 . S
C2278 C2279 1.367 . S
C2279 C2278 1.367 . S
C2279 C2281 1.433 . S
C2280 C2276 1.350 . S
C2280 C2277 1.463 . S
C2280 N2284 1.427 . S
C2281 H2271 0.929 . S
C2281 C2279 1.433 . S
C2281 N2284 1.384 . S
C2282 H2273 0.929 . S
C2282 C2274 1.378 . S
C2282 C2277 1.350 . S
C2283 H2270 0.929 . S
C2283 C2275 1.433 . S
C2283 N2285 1.384 . S
N2284 C2280 1.427 . S
N2284 C2281 1.384 . S
N2285 C2277 1.427 . S
N2285 C2283 1.384 . S
H2286 C2292 0.930 . S
H2287 C2296 0.930 . S
H2288 C2301 0.929 . S
H2289 C2299 0.929 . S
H2290 C2294 0.929 . S
H2291 C2300 0.929 . S
C2292 H2286 0.930 . S
C2292 C2293 1.367 . S
C2292 C2300 1.378 . S
C2293 C2292 1.367 . S
C2293 C2301 1.433 . S
C2294 H2290 0.929 . S
C2294 C2296 1.378 . S
C2294 C2298 1.350 . S
C2295 C2298 1.463 . S
C2295 C2300 1.350 . S
C2295 N2303 1.427 . S
C2296 H2287 0.930 . S
C2296 C2294 1.378 . S
C2296 C2297 1.367 . S
C2297 C2296 1.367 . S
C2297 C2299 1.433 . S
C2298 C2294 1.350 . S
C2298 C2295 1.463 . S
C2298 N2302 1.427 . S
C2299 H2289 0.929 . S
C2299 C2297 1.433 . S
C2299 N2302 1.384 . S
C2300 H2291 0.929 . S
C2300 C2292 1.378 . S
C2300 C2295 1.350 . S
C2301 H2288 0.929 . S
C2301 C2293 1.433 . S
C2301 N2303 1.384 . S
N2302 C2298 1.427 . S
N2302 C2299 1.384 . S
N2303 C2295 1.427 . S
N2303 C2301 1.384 . S
H2304 C2310 0.930 . S
H2305 C2314 0.930 . S
H2306 C2319 0.929 . S
H2307 C2317 0.929 . S
H2308 C2312 0.929 . S
H2309 C2318 0.929 . S
C2310 H2304 0.930 . S
C2310 C2311 1.367 . S
C2310 C2318 1.378 . S
C2311 C2310 1.367 . S
C2311 C2319 1.433 . S
C2312 H2308 0.929 . S
C2312 C2314 1.378 . S
C2312 C2316 1.350 . S
C2313 C2316 1.463 . S
C2313 C2318 1.350 . S
C2313 N2321 1.427 . S
C2314 H2305 0.930 . S
C2314 C2312 1.378 . S
C2314 C2315 1.367 . S
C2315 C2314 1.367 . S
C2315 C2317 1.433 . S
C2316 C2312 1.350 . S
C2316 C2313 1.463 . S
C2316 N2320 1.427 . S
C2317 H2307 0.929 . S
C2317 C2315 1.433 . S
C2317 N2320 1.384 . S
C2318 H2309 0.929 . S
C2318 C2310 1.378 . S
C2318 C2313 1.350 . S
C2319 H2306 0.929 . S
C2319 C2311 1.433 . S
C2319 N2321 1.384 . S
N2320 C2316 1.427 . S
N2320 C2317 1.384 . S
N2321 C2313 1.427 . S
N2321 C2319 1.384 . S
H2322 C2328 0.930 . S
H2323 C2332 0.930 . S
H2324 C2337 0.929 . S
H2325 C2335 0.929 . S
H2326 C2330 0.929 . S
H2327 C2336 0.929 . S
C2328 H2322 0.930 . S
C2328 C2329 1.367 . S
C2328 C2336 1.378 . S
C2329 C2328 1.367 . S
C2329 C2337 1.433 . S
C2330 H2326 0.929 . S
C2330 C2332 1.378 . S
C2330 C2334 1.350 . S
C2331 C2334 1.463 . S
C2331 C2336 1.350 . S
C2331 N2339 1.427 . S
C2332 H2323 0.930 . S
C2332 C2330 1.378 . S
C2332 C2333 1.367 . S
C2333 C2332 1.367 . S
C2333 C2335 1.433 . S
C2334 C2330 1.350 . S
C2334 C2331 1.463 . S
C2334 N2338 1.427 . S
C2335 H2325 0.929 . S
C2335 C2333 1.433 . S
C2335 N2338 1.384 . S
C2336 H2327 0.929 . S
C2336 C2328 1.378 . S
C2336 C2331 1.350 . S
C2337 H2324 0.929 . S
C2337 C2329 1.433 . S
C2337 N2339 1.384 . S
N2338 C2334 1.427 . S
N2338 C2335 1.384 . S
N2339 C2331 1.427 . S
N2339 C2337 1.384 . S
H2340 C2346 0.930 . S
H2341 C2350 0.930 . S
H2342 C2355 0.929 . S
H2343 C2353 0.929 . S
H2344 C2348 0.929 . S
H2345 C2354 0.929 . S
C2346 H2340 0.930 . S
C2346 C2347 1.367 . S
C2346 C2354 1.378 . S
C2347 C2346 1.367 . S
C2347 C2355 1.433 . S
C2348 H2344 0.929 . S
C2348 C2350 1.378 . S
C2348 C2352 1.350 . S
C2349 C2352 1.463 . S
C2349 C2354 1.350 . S
C2349 N2357 1.427 . S
C2350 H2341 0.930 . S
C2350 C2348 1.378 . S
C2350 C2351 1.367 . S
C2351 C2350 1.367 . S
C2351 C2353 1.433 . S
C2352 C2348 1.350 . S
C2352 C2349 1.463 . S
C2352 N2356 1.427 . S
C2353 H2343 0.929 . S
C2353 C2351 1.433 . S
C2353 N2356 1.384 . S
C2354 H2345 0.929 . S
C2354 C2346 1.378 . S
C2354 C2349 1.350 . S
C2355 H2342 0.929 . S
C2355 C2347 1.433 . S
C2355 N2357 1.384 . S
N2356 C2352 1.427 . S
N2356 C2353 1.384 . S
N2357 C2349 1.427 . S
N2357 C2355 1.384 . S
H2358 C2364 0.930 . S
H2359 C2368 0.902 1_455 S
H2360 C2373 0.929 . S
H2361 C2371 0.929 . S
H2362 C2366 0.927 1_455 S
H2363 C2372 0.929 . S
C2364 H2358 0.930 . S
C2364 C2365 1.367 . S
C2364 C2372 1.378 . S
C2365 C2364 1.367 . S
C2365 C2373 1.433 . S
C2366 H2362 0.927 1_655 S
C2366 C2368 1.401 . S
C2366 C2370 1.350 . S
C2367 C2370 1.463 . S
C2367 C2372 1.350 . S
C2367 N2375 1.427 . S
C2368 H2359 0.902 1_655 S
C2368 C2366 1.401 . S
C2368 C2369 1.373 . S
C2369 C2368 1.373 . S
C2369 C2371 1.433 . S
C2370 C2366 1.350 . S
C2370 C2367 1.463 . S
C2370 N2374 1.427 . S
C2371 H2361 0.929 . S
C2371 C2369 1.433 . S
C2371 N2374 1.384 . S
C2372 H2363 0.929 . S
C2372 C2364 1.378 . S
C2372 C2367 1.350 . S
C2373 H2360 0.929 . S
C2373 C2365 1.433 . S
C2373 N2375 1.384 . S
N2374 C2370 1.427 . S
N2374 C2371 1.384 . S
N2375 C2367 1.427 . S
N2375 C2373 1.384 . S
H2376 C2382 0.930 . S
H2377 C2386 0.930 . S
H2378 C2391 0.929 . S
H2379 C2389 0.929 . S
H2380 C2384 0.929 . S
H2381 C2390 0.929 . S
C2382 H2376 0.930 . S
C2382 C2383 1.367 . S
C2382 C2390 1.378 . S
C2383 C2382 1.367 . S
C2383 C2391 1.433 . S
C2384 H2380 0.929 . S
C2384 C2386 1.378 . S
C2384 C2388 1.350 . S
C2385 C2388 1.463 . S
C2385 C2390 1.350 . S
C2385 N2393 1.427 . S
C2386 H2377 0.930 . S
C2386 C2384 1.378 . S
C2386 C2387 1.367 . S
C2387 C2386 1.367 . S
C2387 C2389 1.433 . S
C2388 C2384 1.350 . S
C2388 C2385 1.463 . S
C2388 N2392 1.427 . S
C2389 H2379 0.929 . S
C2389 C2387 1.433 . S
C2389 N2392 1.384 . S
C2390 H2381 0.929 . S
C2390 C2382 1.378 . S
C2390 C2385 1.350 . S
C2391 H2378 0.929 . S
C2391 C2383 1.433 . S
C2391 N2393 1.384 . S
N2392 C2388 1.427 . S
N2392 C2389 1.384 . S
N2393 C2385 1.427 . S
N2393 C2391 1.384 . S
H2394 C2400 0.930 . S
H2395 C2404 0.936 . S
H2396 C2409 0.929 . S
H2397 C2407 0.929 . S
H2398 C2402 0.924 1_565 S
H2399 C2408 0.929 . S
C2400 H2394 0.930 . S
C2400 C2401 1.367 . S
C2400 C2408 1.378 . S
C2401 C2400 1.367 . S
C2401 C2409 1.433 . S
C2402 H2398 0.924 1_545 S
C2402 C2404 1.386 1_545 S
C2402 C2406 1.350 . S
C2403 C2406 1.463 . S
C2403 C2408 1.350 . S
C2403 N2411 1.427 . S
C2404 H2395 0.936 . S
C2404 C2402 1.386 1_565 S
C2404 C2405 1.354 1_565 S
C2405 C2404 1.354 1_545 S
C2405 C2407 1.433 . S
C2406 C2402 1.350 . S
C2406 C2403 1.463 . S
C2406 N2410 1.427 . S
C2407 H2397 0.929 . S
C2407 C2405 1.433 . S
C2407 N2410 1.384 . S
C2408 H2399 0.929 . S
C2408 C2400 1.378 . S
C2408 C2403 1.350 . S
C2409 H2396 0.929 . S
C2409 C2401 1.433 . S
C2409 N2411 1.384 . S
N2410 C2406 1.427 . S
N2410 C2407 1.384 . S
N2411 C2403 1.427 . S
N2411 C2409 1.384 . S
C1123 C13 1.449 . S
C1127 C729 1.504 . S
C1141 C27 1.365 . S
C1145 C777 1.433 . S
C1163 C825 1.483 . S
C1159 C36 1.404 . S
C1177 C41 1.414 . S
C1181 C849 1.504 . S
C1195 C8 1.487 . S
C1199 C921 1.593 . S
C1213 C22 1.453 . S
C1217 C969 1.519 . S
C1231 C55 1.445 . S
C1235 C897 1.508 . S
C1253 C945 1.441 . S
C1249 C69 1.355 . S
C1271 C873 1.503 . S
C1267 C78 1.405 . S
C1285 C83 1.426 . S
C1289 C801 1.488 . S
C1307 C705 1.612 . S
C1303 C50 1.501 . S
C1321 C64 1.450 . S
C1325 C753 1.523 . S
C1339 C97 1.536 . S
C1343 C1017 1.650 . S
C1357 C111 1.412 . S
C1361 C1065 1.490 . S
C1379 C1089 1.581 . S
C1375 C120 1.539 . S
C1393 C125 1.468 . S
C1397 C273 1.553 . S
C1411 C92 1.666 . S
C1415 C345 1.728 . S
C1429 C106 1.493 . S
C1433 C393 1.568 . S
C1447 C139 1.490 . S
C1451 C321 1.593 . S
C1465 C153 1.411 . S
C1469 C369 1.478 . S
C1487 C297 1.571 . S
C1483 C162 1.535 . S
C1505 C1113 1.591 . S
C1501 C167 1.523 . S
C1523 C993 1.719 . S
C1519 C134 1.668 . S
C1541 C1041 1.588 . S
C1537 C148 1.515 . S
C1555 C181 1.504 . S
C1559 C441 1.594 . S
C1573 C195 1.384 . S
C1577 C489 1.467 . S
C1591 C204 1.542 . S
C1595 C513 1.590 . S
C1609 C209 1.506 . S
C1613 C561 1.606 . S
C1631 C633 1.734 . S
C1627 C176 1.666 . S
C1649 C681 1.585 . S
C1645 C190 1.516 . S
C1667 C609 1.659 . S
C1663 C223 1.545 . S
C1685 C657 1.507 . S
C1681 C237 1.417 . S
C1699 C246 1.517 . S
C1703 C585 1.554 . S
C1721 C537 1.525 . S
C1717 C251 1.449 . S
C1735 C218 1.656 . S
C1739 C417 1.731 . S
C1757 C465 1.574 . S
C1753 C232 1.512 . S
C1775 C282 1.485 . S
C1771 C11 1.458 . S
C1789 C25 1.344 . S
C1793 C336 1.341 . S
C1811 C384 1.438 . S
C1807 C35 1.459 . S
C1829 C432 1.458 . S
C1825 C39 1.462 . S
C1847 C480 1.534 . S
C1843 C7 1.550 1_556 S
C1865 C522 1.420 . S
C1861 C21 1.447 . S
C1879 C53 1.470 . S
C1883 C528 1.494 . S
C1897 C67 1.336 . S
C1901 C426 1.315 . S
C1915 C77 1.437 1_556 S
C1919 C474 1.395 . S
C1933 C81 1.485 . S
C1937 C330 1.480 . S
C1955 C378 1.510 . S
C1951 C49 1.553 . S
C1969 C63 1.425 . S
C1973 C288 1.406 . S
C1991 C570 1.448 . S
C1987 C95 1.431 . S
C2005 C109 1.422 . S
C2009 C624 1.411 . S
C2023 C119 1.514 . S
C2027 C672 1.493 . S
C2045 C720 1.283 . S
C2041 C123 1.279 . S
C2059 C91 1.510 . S
C2063 C768 1.487 . S
C2077 C105 1.267 . S
C2081 C816 1.274 . S
C2095 C137 1.312 . S
C2099 C810 1.301 . S
C2113 C151 1.181 . S
C2117 C714 1.185 . S
C2135 C762 1.388 . S
C2131 C161 1.415 . S
C2149 C165 1.457 . S
C2153 C618 1.438 . S
C2167 C133 1.585 . S
C2171 C666 1.542 . S
C2189 C576 1.488 . S
C2185 C147 1.508 . S
C2207 C858 1.330 . S
C2203 C179 1.319 . S
C2221 C193 1.172 . S
C2225 C912 1.179 . S
C2239 C203 1.415 . S
C2243 C960 1.395 . S
C2261 C1008 1.428 . S
C2257 C207 1.438 . S
C2279 C1056 1.556 . S
C2275 C175 1.588 . S
C2293 C189 1.507 . S
C2297 C1098 1.505 . S
C2311 C221 1.441 . S
C2315 C1104 1.443 . S
C2329 C235 1.417 . S
C2333 C1002 1.397 . S
C2351 C1050 1.467 . S
C2347 C245 1.493 . S
C2369 C906 1.264 . S
C2365 C249 1.262 . S
C2387 C954 1.482 . S
C2383 C217 1.515 . S
C2401 C231 1.287 . S
C2405 C864 1.287 . S
