# Generated by pormake.
# Topology nom, (4,4)-cn, num edge types: 1
# Building blocks:
#     Node 0, Type 0, BuildingBlock: NAHDIM_clean_linker_0, # of connection points: 4
#     Node 1, Type 0, BuildingBlock: NAHDIM_clean_linker_0, # of connection points: 4
#     Node 2, Type 0, BuildingBlock: NAHDIM_clean_linker_0, # of connection points: 4
#     Node 3, Type 0, BuildingBlock: NAHDIM_clean_linker_0, # of connection points: 4
#     Node 4, Type 0, BuildingBlock: NAHDIM_clean_linker_0, # of connection points: 4
#     Node 5, Type 0, BuildingBlock: NAHDIM_clean_linker_0, # of connection points: 4
#     Node 6, Type 1, BuildingBlock: QUQFOY_clean_sbu_1, # of connection points: 4
#     Node 7, Type 1, BuildingBlock: QUQFOY_clean_sbu_1, # of connection points: 4
#     Node 8, Type 1, BuildingBlock: QUQFOY_clean_sbu_1, # of connection points: 4
#     Node 9, Type 1, BuildingBlock: QUQFOY_clean_sbu_1, # of connection points: 4
#     Node 10, Type 1, BuildingBlock: QUQFOY_clean_sbu_1, # of connection points: 4
#     Node 11, Type 1, BuildingBlock: QUQFOY_clean_sbu_1, # of connection points: 4
#     Edge 12, Type (0, 1), BuildingBlock: UVAHIK_clean_linker_0, # of connection points: 2
#     Edge 13, Type (0, 1), BuildingBlock: UVAHIK_clean_linker_0, # of connection points: 2
#     Edge 14, Type (0, 1), BuildingBlock: UVAHIK_clean_linker_0, # of connection points: 2
#     Edge 15, Type (0, 1), BuildingBlock: UVAHIK_clean_linker_0, # of connection points: 2
#     Edge 16, Type (0, 1), BuildingBlock: UVAHIK_clean_linker_0, # of connection points: 2
#     Edge 17, Type (0, 1), BuildingBlock: UVAHIK_clean_linker_0, # of connection points: 2
#     Edge 18, Type (0, 1), BuildingBlock: UVAHIK_clean_linker_0, # of connection points: 2
#     Edge 19, Type (0, 1), BuildingBlock: UVAHIK_clean_linker_0, # of connection points: 2
#     Edge 20, Type (0, 1), BuildingBlock: UVAHIK_clean_linker_0, # of connection points: 2
#     Edge 21, Type (0, 1), BuildingBlock: UVAHIK_clean_linker_0, # of connection points: 2
#     Edge 22, Type (0, 1), BuildingBlock: UVAHIK_clean_linker_0, # of connection points: 2
#     Edge 23, Type (0, 1), BuildingBlock: UVAHIK_clean_linker_0, # of connection points: 2
#     Edge 24, Type (0, 1), BuildingBlock: UVAHIK_clean_linker_0, # of connection points: 2
#     Edge 25, Type (0, 1), BuildingBlock: UVAHIK_clean_linker_0, # of connection points: 2
#     Edge 26, Type (0, 1), BuildingBlock: UVAHIK_clean_linker_0, # of connection points: 2
#     Edge 27, Type (0, 1), BuildingBlock: UVAHIK_clean_linker_0, # of connection points: 2
#     Edge 28, Type (0, 1), BuildingBlock: UVAHIK_clean_linker_0, # of connection points: 2
#     Edge 29, Type (0, 1), BuildingBlock: UVAHIK_clean_linker_0, # of connection points: 2
#     Edge 30, Type (0, 1), BuildingBlock: UVAHIK_clean_linker_0, # of connection points: 2
#     Edge 31, Type (0, 1), BuildingBlock: UVAHIK_clean_linker_0, # of connection points: 2
#     Edge 32, Type (0, 1), BuildingBlock: UVAHIK_clean_linker_0, # of connection points: 2
#     Edge 33, Type (0, 1), BuildingBlock: UVAHIK_clean_linker_0, # of connection points: 2
#     Edge 34, Type (0, 1), BuildingBlock: UVAHIK_clean_linker_0, # of connection points: 2
#     Edge 35, Type (0, 1), BuildingBlock: UVAHIK_clean_linker_0, # of connection points: 2
# Relax obj value: 0.084
# Max RMSD: 0.156
# Mean RMSD: 0.147
data_MOF--net-nom--node1-QUQFOY_clean_sbu_1--node2-NAHDIM_clean_linker_0--edge1-UVAHIK_clean_linker_0
_symmetry_space_group_name_H-M    P1
_symmetry_Int_Tables_number       1
_symmetry_cell_setting            triclinic
loop_
_symmetry_equiv_pos_as_xyz
'x, y, z'
_cell_length_a     72.010188
_cell_length_b     72.179917
_cell_length_c     81.243086
_cell_angle_alpha  90.109333
_cell_angle_beta   90.124668
_cell_angle_gamma 119.99843
loop_
_atom_site_label
_atom_site_type_symbol
_atom_site_fract_x
_atom_site_fract_y
_atom_site_fract_z
_atom_type_partial_charge
C0 C 0.12881 0.5547 0.25533 0.0
C1 C 0.13969 0.55942 0.27231 0.0
C2 C 0.10756 0.54948 0.28875 0.0
C3 C 0.10016 0.52752 0.29048 0.0
C4 C 0.07888 0.51332 0.29504 0.0
C5 C 0.06459 0.52116 0.2976 0.0
C6 C 0.07215 0.54337 0.29618 0.0
C7 C 0.09371 0.55728 0.29212 0.0
C8 C 0.07158 0.48984 0.29682 0.0
C9 C 0.05737 0.55235 0.29843 0.0
C10 C 0.98848 0.4333 0.20322 0.0
C11 C 0.97853 0.44317 0.21428 0.0
C12 C 0.9802 0.44401 0.24428 0.0
C13 C 0.98117 0.46375 0.24672 0.0
C14 C 0.9889 0.47498 0.26159 0.0
C15 C 0.9958 0.4663 0.2742 0.0
C16 C 0.99378 0.4459 0.27205 0.0
C17 C 0.98569 0.43488 0.25715 0.0
C18 C 0.99031 0.49643 0.26366 0.0
C19 C 0.00106 0.43616 0.2852 0.0
C20 C 0.90037 0.42456 0.35675 0.0
C21 C 0.90773 0.44555 0.35133 0.0
C22 C 0.92979 0.46012 0.34992 0.0
C23 C 0.94473 0.45347 0.35386 0.0
C24 C 0.93732 0.43254 0.35987 0.0
C25 C 0.91519 0.41844 0.36144 0.0
C26 C 0.93713 0.48256 0.34405 0.0
C27 C 0.95275 0.42492 0.36432 0.0
C28 C 0.09488 0.56185 0.40038 0.0
C29 C 0.0834 0.54238 0.41166 0.0
C30 C 0.04624 0.52533 0.40315 0.0
C31 C 0.03402 0.53367 0.39659 0.0
C32 C 0.01891 0.52274 0.38409 0.0
C33 C 0.0158 0.50285 0.37836 0.0
C34 C 0.02696 0.4936 0.38591 0.0
C35 C 0.04214 0.505 0.39823 0.0
C36 C 0.00708 0.53289 0.37643 0.0
C37 C 0.02352 0.47211 0.38047 0.0
C38 C 0.04147 0.50597 0.30057 0.0
C39 C 0.029 0.4942 0.28714 0.0
C40 C 0.00719 0.4794 0.28885 0.0
C41 C 0.99719 0.47667 0.3043 0.0
C42 C 0.97513 0.46248 0.30633 0.0
C43 C 0.96551 0.4597 0.32168 0.0
C44 C 0.97761 0.47099 0.33558 0.0
C45 C 0.96804 0.46818 0.35128 0.0
C46 C 0.98074 0.47906 0.36493 0.0
C47 C 0.00282 0.49285 0.36334 0.0
C48 C 0.01255 0.49638 0.34768 0.0
C49 C 0.03467 0.51052 0.34562 0.0
C50 C 0.04418 0.51367 0.33023 0.0
C51 C 0.03196 0.50285 0.31628 0.0
C52 C 0.00967 0.48836 0.3181 0.0
C53 C 0.99992 0.48531 0.33378 0.0
C54 C 0.85218 0.38502 0.33969 0.0
C55 C 0.86344 0.40774 0.34671 0.0
O56 O 0.12777 0.56354 0.28363 0.0
O57 O 0.06229 0.53738 0.41387 0.0
O58 O 0.87916 0.40989 0.35772 0.0
O59 O 0.97447 0.43356 0.22961 0.0
H60 H 0.14102 0.54543 0.27636 0.0
H61 H 0.11257 0.54034 0.25591 0.0
H62 H 0.12724 0.5685 0.25112 0.0
H63 H 0.13821 0.55145 0.24612 0.0
H64 H 0.11088 0.52135 0.28832 0.0
H65 H 0.09964 0.57428 0.29088 0.0
H66 H 0.06133 0.48095 0.28613 0.0
H67 H 0.0853 0.48688 0.29732 0.0
H68 H 0.06183 0.4833 0.30813 0.0
H69 H 0.06515 0.56953 0.29504 0.0
H70 H 0.04268 0.54324 0.29082 0.0
H71 H 0.05232 0.55071 0.31149 0.0
H72 H 0.99069 0.46051 0.21526 0.0
H73 H 0.99175 0.44069 0.1908 0.0
H74 H 0.0039 0.43623 0.20864 0.0
H75 H 0.97766 0.41575 0.20197 0.0
H76 H 0.97612 0.47049 0.23697 0.0
H77 H 0.98454 0.41948 0.2552 0.0
H78 H 0.00741 0.50924 0.26356 0.0
H79 H 0.98174 0.49967 0.25369 0.0
H80 H 0.98347 0.49721 0.27571 0.0
H81 H 0.9988 0.42035 0.28146 0.0
H82 H 0.01829 0.44706 0.28803 0.0
H83 H 0.99192 0.43411 0.29669 0.0
H84 H 0.87072 0.4187 0.33605 0.0
H85 H 0.89627 0.45059 0.34831 0.0
H86 H 0.90932 0.40231 0.36587 0.0
H87 H 0.94441 0.48481 0.33166 0.0
H88 H 0.92372 0.48597 0.34328 0.0
H89 H 0.94964 0.49439 0.35247 0.0
H90 H 0.94436 0.40772 0.36771 0.0
H91 H 0.96361 0.42746 0.35382 0.0
H92 H 0.96285 0.43442 0.37488 0.0
H93 H 0.08402 0.52884 0.40564 0.0
H94 H 0.11188 0.56617 0.39867 0.0
H95 H 0.08697 0.5581 0.38811 0.0
H96 H 0.09435 0.5758 0.40564 0.0
H97 H 0.03712 0.54925 0.40072 0.0
H98 H 0.05103 0.4982 0.40384 0.0
H99 H 0.01167 0.53644 0.36328 0.0
H100 H 0.98954 0.52157 0.37684 0.0
H101 H 0.01061 0.54798 0.38275 0.0
H102 H 0.03135 0.46595 0.3889 0.0
H103 H 0.00611 0.46028 0.3798 0.0
H104 H 0.03025 0.47354 0.36795 0.0
H105 H 0.03648 0.49633 0.27517 0.0
H106 H 0.96506 0.45339 0.29606 0.0
H107 H 0.94848 0.4485 0.32251 0.0
H108 H 0.97341 0.47653 0.37699 0.0
H109 H 0.04492 0.51938 0.35587 0.0
H110 H 0.06127 0.52465 0.32941 0.0
H111 H 0.83956 0.38289 0.33073 0.0
H112 H 0.864 0.38204 0.33318 0.0
H113 H 0.84472 0.37302 0.34967 0.0
C114 C 0.32863 0.89344 0.56803 0.0
C115 C 0.34348 0.88781 0.55849 0.0
C116 C 0.3569 0.91325 0.53634 0.0
C117 C 0.37918 0.92213 0.53637 0.0
C118 C 0.39269 0.94341 0.53154 0.0
C119 C 0.38364 0.95612 0.52686 0.0
C120 C 0.36104 0.94691 0.52641 0.0
C121 C 0.34792 0.9254 0.5309 0.0
C122 C 0.41664 0.95247 0.53186 0.0
C123 C 0.35076 0.95998 0.52177 0.0
C124 C 0.46794 0.10328 0.60534 0.0
C125 C 0.4506 0.08622 0.59516 0.0
C126 C 0.44512 0.056 0.57806 0.0
C127 C 0.42633 0.05308 0.57036 0.0
C128 C 0.41745 0.03914 0.55689 0.0
C129 C 0.42774 0.02818 0.55086 0.0
C130 C 0.44634 0.03068 0.55885 0.0
C131 C 0.45467 0.04445 0.57246 0.0
C132 C 0.3973 0.03645 0.5489 0.0
C133 C 0.45766 0.01917 0.55276 0.0
C134 C 0.47971 0.11852 0.46299 0.0
C135 C 0.45845 0.11072 0.46805 0.0
C136 C 0.4448 0.08878 0.47096 0.0
C137 C 0.45272 0.07447 0.46908 0.0
C138 C 0.47417 0.08237 0.46397 0.0
C139 C 0.48723 0.10425 0.46069 0.0
C140 C 0.42183 0.08087 0.47584 0.0
C141 C 0.4833 0.06773 0.46179 0.0
C142 C 0.36118 0.96635 0.38336 0.0
C143 C 0.36857 0.95444 0.39478 0.0
C144 C 0.39457 0.97908 0.41522 0.0
C145 C 0.38067 0.98355 0.42428 0.0
C146 C 0.38763 0.9955 0.43893 0.0
C147 C 0.40871 0.00266 0.44476 0.0
C148 C 0.42256 0.99785 0.43573 0.0
C149 C 0.41538 0.98642 0.42094 0.0
C150 C 0.3726 0.00073 0.44808 0.0
C151 C 0.44508 0.00501 0.44155 0.0
C152 C 0.3978 0.97939 0.5238 0.0
C153 C 0.40618 0.99282 0.53753 0.0
C154 C 0.41958 0.01487 0.53577 0.0
C155 C 0.42475 0.02399 0.51988 0.0
C156 C 0.43844 0.0461 0.51768 0.0
C157 C 0.44309 0.05502 0.50202 0.0
C158 C 0.43416 0.04219 0.48795 0.0
C159 C 0.43848 0.05117 0.47199 0.0
C160 C 0.42954 0.03787 0.45827 0.0
C161 C 0.4166 0.01572 0.45998 0.0
C162 C 0.41212 0.00643 0.47583 0.0
C163 C 0.39948 0.98417 0.47799 0.0
C164 C 0.39489 0.97524 0.49367 0.0
C165 C 0.40276 0.98822 0.50778 0.0
C166 C 0.41608 0.01065 0.50585 0.0
C167 C 0.42075 0.01977 0.48987 0.0
C168 C 0.50888 0.15809 0.48486 0.0
C169 C 0.49588 0.15658 0.46944 0.0
O170 O 0.34393 0.89319 0.54206 0.0
O171 O 0.38897 0.96838 0.40069 0.0
O172 O 0.49319 0.13955 0.45976 0.0
O173 O 0.45472 0.07008 0.59065 0.0
H174 H 0.35988 0.89713 0.56392 0.0
H175 H 0.33471 0.91091 0.56731 0.0
H176 H 0.31214 0.88481 0.56281 0.0
H177 H 0.32803 0.88911 0.58122 0.0
H178 H 0.38594 0.91243 0.54039 0.0
H179 H 0.33063 0.91824 0.53088 0.0
H180 H 0.42357 0.96349 0.54253 0.0
H181 H 0.42096 0.93974 0.53301 0.0
H182 H 0.42405 0.96181 0.52052 0.0
H183 H 0.33306 0.95088 0.52324 0.0
H184 H 0.35741 0.97465 0.52949 0.0
H185 H 0.35446 0.96511 0.50875 0.0
H186 H 0.43401 0.08002 0.59991 0.0
H187 H 0.46028 0.10238 0.6176 0.0
H188 H 0.47808 0.09654 0.61008 0.0
H189 H 0.48023 0.13042 0.59029 0.0
H190 H 0.41858 0.06169 0.57475 0.0
H191 H 0.46908 0.04672 0.57855 0.0
H192 H 0.40113 0.04364 0.53643 0.0
H193 H 0.38535 0.01919 0.54743 0.0
H194 H 0.38995 0.0442 0.55612 0.0
H195 H 0.4725 0.02358 0.55988 0.0
H196 H 0.44674 0.00164 0.55372 0.0
H197 H 0.4619 0.02293 0.53958 0.0
H198 H 0.48006 0.15422 0.47333 0.0
H199 H 0.45226 0.12156 0.46928 0.0
H200 H 0.50359 0.11042 0.45659 0.0
H201 H 0.41923 0.0747 0.48863 0.0
H202 H 0.41757 0.09367 0.47521 0.0
H203 H 0.41079 0.06745 0.4677 0.0
H204 H 0.50107 0.07676 0.46083 0.0
H205 H 0.47867 0.05633 0.47221 0.0
H206 H 0.4767 0.0583 0.45032 0.0
H207 H 0.35709 0.94739 0.40518 0.0
H208 H 0.34479 0.95525 0.37862 0.0
H209 H 0.36077 0.9795 0.39013 0.0
H210 H 0.37231 0.97334 0.37278 0.0
H211 H 0.36461 0.97821 0.4198 0.0
H212 H 0.42599 0.98298 0.41378 0.0
H213 H 0.36871 0.9927 0.46024 0.0
H214 H 0.38048 0.01823 0.45036 0.0
H215 H 0.35739 0.99552 0.44125 0.0
H216 H 0.45235 0.99683 0.43477 0.0
H217 H 0.4552 0.02247 0.43955 0.0
H218 H 0.44527 0.00193 0.45492 0.0
H219 H 0.40219 0.98601 0.54979 0.0
H220 H 0.4457 0.05681 0.52805 0.0
H221 H 0.4537 0.07213 0.5011 0.0
H222 H 0.43297 0.04483 0.44605 0.0
H223 H 0.39289 0.9734 0.46758 0.0
H224 H 0.38501 0.95802 0.4946 0.0
H225 H 0.52485 0.16049 0.48139 0.0
H226 H 0.51113 0.1716 0.49282 0.0
H227 H 0.50026 0.14313 0.49213 0.0
C228 C 0.59498 0.48139 0.73282 0.0
C229 C 0.59934 0.47511 0.71579 0.0
C230 C 0.5763 0.48469 0.69992 0.0
C231 C 0.59082 0.50666 0.69811 0.0
C232 C 0.58366 0.52075 0.69345 0.0
C233 C 0.56147 0.51279 0.69087 0.0
C234 C 0.54688 0.49058 0.69236 0.0
C235 C 0.5546 0.47678 0.69653 0.0
C236 C 0.59978 0.54425 0.69162 0.0
C237 C 0.52306 0.48147 0.69008 0.0
C238 C 0.57256 0.6001 0.78535 0.0
C239 C 0.5527 0.58948 0.77427 0.0
C240 C 0.55323 0.58897 0.74428 0.0
C241 C 0.53472 0.569 0.74179 0.0
C242 C 0.53136 0.55794 0.72686 0.0
C243 C 0.54686 0.56704 0.71425 0.0
C244 C 0.56498 0.58765 0.71646 0.0
C245 C 0.56773 0.59849 0.7314 0.0
C246 C 0.51159 0.53626 0.72474 0.0
C247 C 0.58194 0.59781 0.70333 0.0
C248 C 0.49306 0.6086 0.63152 0.0
C249 C 0.47947 0.58761 0.63697 0.0
C250 C 0.48699 0.57308 0.63837 0.0
C251 C 0.50859 0.5798 0.63441 0.0
C252 C 0.52207 0.60074 0.62838 0.0
C253 C 0.51399 0.61477 0.6268 0.0
C254 C 0.47194 0.55064 0.64425 0.0
C255 C 0.54512 0.60843 0.62391 0.0
C256 C 0.5516 0.47292 0.58855 0.0
C257 C 0.55897 0.49174 0.57666 0.0
C258 C 0.53865 0.50848 0.58521 0.0
C259 C 0.51807 0.50001 0.59174 0.0
C260 C 0.51384 0.51084 0.60424 0.0
C261 C 0.53058 0.53077 0.61 0.0
C262 C 0.551 0.54014 0.60249 0.0
C263 C 0.55483 0.52884 0.59017 0.0
C264 C 0.49184 0.50055 0.61186 0.0
C265 C 0.56903 0.56169 0.60796 0.0
C266 C 0.55345 0.52787 0.68785 0.0
C267 C 0.55263 0.53953 0.70128 0.0
C268 C 0.54541 0.55414 0.69955 0.0
C269 C 0.53808 0.55682 0.68408 0.0
C270 C 0.53002 0.57083 0.68202 0.0
C271 C 0.52316 0.57358 0.66665 0.0
C272 C 0.52408 0.56241 0.65275 0.0
C273 C 0.51728 0.56518 0.63703 0.0
C274 C 0.51916 0.55437 0.62338 0.0
C275 C 0.52756 0.5407 0.62501 0.0
C276 C 0.53385 0.53725 0.64069 0.0
C277 C 0.54197 0.52325 0.64278 0.0
C278 C 0.54844 0.52018 0.65819 0.0
C279 C 0.54697 0.53092 0.67212 0.0
C280 C 0.539 0.54525 0.67028 0.0
C281 C 0.53222 0.54823 0.65457 0.0
C282 C 0.48489 0.64822 0.6487 0.0
C283 C 0.47318 0.62546 0.64175 0.0
O284 O 0.58248 0.47069 0.70516 0.0
O285 O 0.54269 0.4965 0.5745 0.0
O286 O 0.48647 0.62321 0.63057 0.0
O287 O 0.55781 0.59928 0.759 0.0
H288 H 0.61451 0.48842 0.7108 0.0
H289 H 0.57977 0.46827 0.73793 0.0
H290 H 0.59367 0.49604 0.73195 0.0
H291 H 0.6083 0.48485 0.74148 0.0
H292 H 0.60774 0.51293 0.70033 0.0
H293 H 0.54356 0.45978 0.69785 0.0
H294 H 0.59837 0.55317 0.70223 0.0
H295 H 0.61651 0.54732 0.6912 0.0
H296 H 0.59653 0.55066 0.68023 0.0
H297 H 0.51372 0.46428 0.69343 0.0
H298 H 0.51745 0.49049 0.69772 0.0
H299 H 0.51959 0.48315 0.67703 0.0
H300 H 0.54834 0.57237 0.77316 0.0
H301 H 0.56881 0.59254 0.79771 0.0
H302 H 0.58557 0.5981 0.77986 0.0
H303 H 0.57845 0.61749 0.78675 0.0
H304 H 0.52302 0.56193 0.75155 0.0
H305 H 0.58178 0.61406 0.7334 0.0
H306 H 0.51625 0.52373 0.72491 0.0
H307 H 0.49969 0.53275 0.73465 0.0
H308 H 0.50391 0.53526 0.71264 0.0
H309 H 0.59538 0.61366 0.70718 0.0
H310 H 0.58849 0.58717 0.70033 0.0
H311 H 0.5747 0.59988 0.69191 0.0
H312 H 0.4697 0.61456 0.65243 0.0
H313 H 0.46297 0.58254 0.64002 0.0
H314 H 0.52421 0.63091 0.62235 0.0
H315 H 0.47699 0.54846 0.65667 0.0
H316 H 0.45508 0.54715 0.64494 0.0
H317 H 0.47266 0.53883 0.63588 0.0
H318 H 0.55391 0.62564 0.62053 0.0
H319 H 0.55352 0.60591 0.6344 0.0
H320 H 0.54567 0.59897 0.61333 0.0
H321 H 0.57338 0.50567 0.58213 0.0
H322 H 0.56443 0.4688 0.59021 0.0
H323 H 0.54801 0.47731 0.60077 0.0
H324 H 0.53689 0.45865 0.58384 0.0
H325 H 0.5056 0.4844 0.58759 0.0
H326 H 0.57054 0.53576 0.58459 0.0
H327 H 0.49294 0.49704 0.62502 0.0
H328 H 0.48553 0.51178 0.61142 0.0
H329 H 0.48031 0.48544 0.60553 0.0
H330 H 0.58302 0.56794 0.59956 0.0
H331 H 0.56337 0.57343 0.60862 0.0
H332 H 0.57438 0.56028 0.62049 0.0
H333 H 0.55802 0.53743 0.71326 0.0
H334 H 0.52894 0.57982 0.69229 0.0
H335 H 0.51721 0.58467 0.66581 0.0
H336 H 0.51431 0.55686 0.61132 0.0
H337 H 0.54343 0.51446 0.63253 0.0
H338 H 0.55466 0.50931 0.65903 0.0
H339 H 0.47461 0.65043 0.65777 0.0
H340 H 0.49982 0.6512 0.65505 0.0
H341 H 0.48926 0.66017 0.63869 0.0
C342 C 0.12587 0.46054 0.91498 0.0
C343 C 0.13391 0.47442 0.89951 0.0
C344 C 0.10834 0.45434 0.87788 0.0
C345 C 0.10101 0.46836 0.87346 0.0
C346 C 0.08053 0.46055 0.8666 0.0
C347 C 0.0672 0.43829 0.86405 0.0
C348 C 0.07503 0.42425 0.86767 0.0
C349 C 0.09567 0.43253 0.8744 0.0
C350 C 0.07291 0.47603 0.86245 0.0
C351 C 0.06132 0.40046 0.86491 0.0
C352 C 0.92168 0.38122 0.93928 0.0
C353 C 0.93692 0.38053 0.92731 0.0
C354 C 0.96479 0.40401 0.90802 0.0
C355 C 0.96672 0.38756 0.90036 0.0
C356 C 0.98073 0.39196 0.88708 0.0
C357 C 0.99284 0.41316 0.8812 0.0
C358 C 0.99087 0.42973 0.88882 0.0
C359 C 0.97692 0.42492 0.9022 0.0
C360 C 0.9827 0.37397 0.87938 0.0
C361 C 0.00353 0.4525 0.88283 0.0
C362 C 0.91515 0.38244 0.78866 0.0
C363 C 0.92162 0.36793 0.79365 0.0
C364 C 0.94327 0.37494 0.79708 0.0
C365 C 0.95866 0.39695 0.79568 0.0
C366 C 0.95223 0.41147 0.7901 0.0
C367 C 0.93053 0.40393 0.78644 0.0
C368 C 0.94965 0.35886 0.80238 0.0
C369 C 0.96819 0.435 0.78836 0.0
C370 C 0.11824 0.43557 0.75177 0.0
C371 C 0.10395 0.44554 0.74984 0.0
C372 C 0.06603 0.42633 0.75658 0.0
C373 C 0.05076 0.40548 0.76095 0.0
C374 C 0.03431 0.40163 0.77206 0.0
C375 C 0.0329 0.4191 0.77853 0.0
C376 C 0.04729 0.44011 0.77304 0.0
C377 C 0.06385 0.44352 0.7622 0.0
C378 C 0.01905 0.37899 0.77743 0.0
C379 C 0.04568 0.45902 0.77911 0.0
C380 C 0.04456 0.42965 0.85885 0.0
C381 C 0.02946 0.42537 0.87118 0.0
C382 C 0.00798 0.41804 0.86735 0.0
C383 C 0.00124 0.41507 0.85072 0.0
C384 C 0.97988 0.40836 0.84641 0.0
C385 C 0.97336 0.40522 0.83001 0.0
C386 C 0.9879 0.40847 0.81729 0.0
C387 C 0.98131 0.40486 0.80059 0.0
C388 C 0.99629 0.40855 0.78825 0.0
C389 C 0.01776 0.41565 0.79212 0.0
C390 C 0.02459 0.41914 0.80876 0.0
C391 C 0.04603 0.42607 0.81312 0.0
C392 C 0.05266 0.4297 0.82948 0.0
C393 C 0.03804 0.42617 0.84217 0.0
C394 C 0.0163 0.41893 0.83809 0.0
C395 C 0.0096 0.41554 0.82136 0.0
C396 C 0.87687 0.37874 0.80989 0.0
C397 C 0.87757 0.36411 0.79653 0.0
O398 O 0.12745 0.46142 0.88563 0.0
O399 O 0.08295 0.42941 0.74726 0.0
O400 O 0.89423 0.3761 0.78574 0.0
O401 O 0.95148 0.4004 0.92097 0.0
H402 H 0.12677 0.48499 0.89959 0.0
H403 H 0.10806 0.45137 0.91497 0.0
H404 H 0.1318 0.44898 0.91542 0.0
H405 H 0.13135 0.47073 0.92621 0.0
H406 H 0.11123 0.48538 0.87545 0.0
H407 H 0.10168 0.4219 0.87759 0.0
H408 H 0.05933 0.47304 0.8706 0.0
H409 H 0.08577 0.49297 0.86396 0.0
H410 H 0.06694 0.47348 0.84956 0.0
H411 H 0.07 0.39177 0.86783 0.0
H412 H 0.04678 0.39406 0.87273 0.0
H413 H 0.05588 0.39722 0.85189 0.0
H414 H 0.94457 0.37115 0.93139 0.0
H415 H 0.92532 0.37597 0.95132 0.0
H416 H 0.9287 0.39844 0.94318 0.0
H417 H 0.8919 0.36402 0.92744 0.0
H418 H 0.95747 0.37128 0.90473 0.0
H419 H 0.97533 0.4375 0.90817 0.0
H420 H 0.97724 0.37179 0.86637 0.0
H421 H 0.99975 0.37804 0.87938 0.0
H422 H 0.97306 0.35857 0.88595 0.0
H423 H 0.99897 0.46324 0.88924 0.0
H424 H 0.02089 0.45863 0.8849 0.0
H425 H 0.00106 0.45311 0.86939 0.0
H426 H 0.8801 0.35178 0.80266 0.0
H427 H 0.90984 0.35111 0.79471 0.0
H428 H 0.92537 0.41492 0.78233 0.0
H429 H 0.95452 0.36154 0.81554 0.0
H430 H 0.93634 0.34212 0.80089 0.0
H431 H 0.96364 0.36098 0.79513 0.0
H432 H 0.96045 0.44436 0.78467 0.0
H433 H 0.97681 0.44147 0.8002 0.0
H434 H 0.98032 0.43729 0.77896 0.0
H435 H 0.10541 0.45409 0.76164 0.0
H436 H 0.13522 0.44825 0.7536 0.0
H437 H 0.11309 0.42493 0.76269 0.0
H438 H 0.11711 0.42588 0.74077 0.0
H439 H 0.0524 0.39231 0.75626 0.0
H440 H 0.07525 0.45963 0.7583 0.0
H441 H 0.02005 0.37771 0.79099 0.0
H442 H 0.00234 0.37475 0.7744 0.0
H443 H 0.02251 0.36721 0.77143 0.0
H444 H 0.05565 0.47361 0.77171 0.0
H445 H 0.02875 0.45536 0.77873 0.0
H446 H 0.05119 0.46247 0.7921 0.0
H447 H 0.03453 0.42782 0.88398 0.0
H448 H 0.96796 0.4055 0.85567 0.0
H449 H 0.95672 0.4001 0.82745 0.0
H450 H 0.99115 0.40576 0.77547 0.0
H451 H 0.058 0.42885 0.80392 0.0
H452 H 0.06937 0.43515 0.83209 0.0
H453 H 0.87456 0.3915 0.8043 0.0
H454 H 0.86356 0.36936 0.81861 0.0
H455 H 0.89214 0.3864 0.81696 0.0
C456 C 0.42596 0.89425 0.92364 0.0
C457 C 0.42 0.88332 0.94055 0.0
C458 C 0.44196 0.91567 0.9571 0.0
C459 C 0.42804 0.92402 0.95694 0.0
C460 C 0.43538 0.94539 0.96145 0.0
C461 C 0.45713 0.95873 0.96597 0.0
C462 C 0.47106 0.95018 0.96648 0.0
C463 C 0.46312 0.92862 0.96235 0.0
C464 C 0.41998 0.95382 0.96106 0.0
C465 C 0.49448 0.96392 0.97089 0.0
C466 C 0.5294 0.08392 0.87438 0.0
C467 C 0.52364 0.06757 0.88749 0.0
C468 C 0.50068 0.05328 0.91161 0.0
C469 C 0.51273 0.04492 0.91878 0.0
C470 C 0.50639 0.03362 0.93361 0.0
C471 C 0.48728 0.03008 0.9413 0.0
C472 C 0.47491 0.03818 0.93405 0.0
C473 C 0.48196 0.04994 0.91938 0.0
C474 C 0.52006 0.02527 0.94097 0.0
C475 C 0.45419 0.03424 0.94172 0.0
C476 C 0.52813 0.123 0.0267 0.0
C477 C 0.54119 0.11467 0.02187 0.0
C478 C 0.53264 0.0925 0.02005 0.0
C479 C 0.51048 0.07849 0.02283 0.0
C480 C 0.49744 0.0869 0.02812 0.0
C481 C 0.50656 0.10907 0.03024 0.0
C482 C 0.54724 0.08407 0.01512 0.0
C483 C 0.47382 0.07249 0.03136 0.0
C484 C 0.46281 0.92913 0.07046 0.0
C485 C 0.45656 0.94129 0.08265 0.0
C486 C 0.47679 0.97767 0.07271 0.0
C487 C 0.49718 0.98921 0.0658 0.0
C488 C 0.50121 0.0037 0.05296 0.0
C489 C 0.48448 0.00697 0.04726 0.0
C490 C 0.46424 0.99646 0.05507 0.0
C491 C 0.46057 0.9818 0.0677 0.0
C492 C 0.52305 0.01484 0.04503 0.0
C493 C 0.4463 1.00016 0.04967 0.0
C494 C 0.46571 0.98196 0.96889 0.0
C495 C 0.47043 0.99505 0.95508 0.0
C496 C 0.48011 0.01725 0.95662 0.0
C497 C 0.4848 0.0268 0.97242 0.0
C498 C 0.4944 0.04908 0.97445 0.0
C499 C 0.49924 0.05834 0.99005 0.0
C500 C 0.49529 0.04575 0.00422 0.0
C501 C 0.50085 0.05508 0.02013 0.0
C502 C 0.49706 0.04206 0.03389 0.0
C503 C 0.4876 0.01988 0.03227 0.0
C504 C 0.48157 0.01024 0.01652 0.0
C505 C 0.47173 0.98791 0.0145 0.0
C506 C 0.46608 0.97858 0.99896 0.0
C507 C 0.47047 0.99121 0.9848 0.0
C508 C 0.48012 0.01373 0.98656 0.0
C509 C 0.48559 0.02325 0.00245 0.0
C510 C 0.53588 0.16884 0.00893 0.0
C511 C 0.54879 0.15966 0.0169 0.0
O512 O 0.43582 0.89543 0.95203 0.0
O513 O 0.47303 0.96234 0.08396 0.0
O514 O 0.53599 0.14435 0.02834 0.0
O515 O 0.50663 0.0646 0.89732 0.0
H516 H 0.40443 0.88147 0.94461 0.0
H517 H 0.41355 0.8845 0.91432 0.0
H518 H 0.44167 0.8965 0.91954 0.0
H519 H 0.42707 0.91014 0.92421 0.0
H520 H 0.41148 0.91402 0.95324 0.0
H521 H 0.47369 0.92196 0.96256 0.0
H522 H 0.42405 0.96505 0.95059 0.0
H523 H 0.40306 0.94081 0.95961 0.0
H524 H 0.42145 0.96284 0.97254 0.0
H525 H 0.50365 0.95552 0.96875 0.0
H526 H 0.50187 0.97889 0.96357 0.0
H527 H 0.49604 0.96849 0.98408 0.0
H528 H 0.52219 0.05215 0.88335 0.0
H529 H 0.56038 0.10799 0.88103 0.0
H530 H 0.52586 0.07475 0.86246 0.0
H531 H 0.51547 0.08686 0.87324 0.0
H532 H 0.52718 0.04715 0.91291 0.0
H533 H 0.47271 0.05637 0.91377 0.0
H534 H 0.51152 0.00758 0.93982 0.0
H535 H 0.53582 0.03184 0.93474 0.0
H536 H 0.52288 0.02932 0.95428 0.0
H537 H 0.44564 0.04025 0.93393 0.0
H538 H 0.44348 0.01684 0.94382 0.0
H539 H 0.45755 0.04232 0.95389 0.0
H540 H 0.55354 0.15234 0.00685 0.0
H541 H 0.5581 0.12548 0.01972 0.0
H542 H 0.49673 0.11571 0.03422 0.0
H543 H 0.5433 0.07763 0.00239 0.0
H544 H 0.56442 0.0967 0.01555 0.0
H545 H 0.54478 0.07077 0.02335 0.0
H546 H 0.46556 0.08167 0.03403 0.0
H547 H 0.46599 0.06196 0.02055 0.0
H548 H 0.47168 0.06205 0.04204 0.0
H549 H 0.44173 0.94068 0.07795 0.0
H550 H 0.44984 0.91215 0.06951 0.0
H551 H 0.46533 0.93643 0.05805 0.0
H552 H 0.47788 0.92972 0.07443 0.0
H553 H 0.50966 0.98609 0.06999 0.0
H554 H 0.44502 0.97346 0.07355 0.0
H555 H 0.52154 0.01029 0.03182 0.0
H556 H 0.52985 0.03244 0.04564 0.0
H557 H 0.53442 0.01078 0.05104 0.0
H558 H 0.43243 0.99275 0.05819 0.0
H559 H 0.45216 0.01758 0.04888 0.0
H560 H 0.44074 0.99324 0.0372 0.0
H561 H 0.46727 0.98791 0.94289 0.0
H562 H 0.4982 0.05962 0.96398 0.0
H563 H 0.50641 0.07555 0.99084 0.0
H564 H 0.50154 0.04929 0.04603 0.0
H565 H 0.46827 0.97735 0.0249 0.0
H566 H 0.45847 0.96132 0.99816 0.0
H567 H 0.53059 0.17639 0.01836 0.0
H568 H 0.54569 0.18098 -0.00046 0.0
H569 H 0.52145 0.15583 0.00275 0.0
C570 C 0.66999 0.55899 0.07691 0.0
C571 C 0.66711 0.54666 0.09292 0.0
C572 C 0.66399 0.56915 0.11371 0.0
C573 C 0.64272 0.55613 0.11884 0.0
C574 C 0.63105 0.56515 0.12547 0.0
C575 C 0.64093 0.58764 0.12708 0.0
C576 C 0.66275 0.60071 0.12279 0.0
C577 C 0.67409 0.59123 0.11628 0.0
C578 C 0.60798 0.5507 0.13037 0.0
C579 C 0.67384 0.62471 0.1246 0.0
C580 C 0.5547 0.64659 0.05057 0.0
C581 C 0.57065 0.64727 0.06258 0.0
C582 C 0.57483 0.62382 0.08208 0.0
C583 C 0.59344 0.64022 0.08961 0.0
C584 C 0.60298 0.63583 0.10298 0.0
C585 C 0.59357 0.61472 0.1091 0.0
C586 C 0.5748 0.59821 0.10161 0.0
C587 C 0.56574 0.60299 0.08812 0.0
C588 C 0.62321 0.65375 0.11053 0.0
C589 C 0.56434 0.57553 0.10785 0.0
C590 C 0.54844 0.64853 0.20115 0.0
C591 C 0.56951 0.66273 0.19613 0.0
C592 C 0.58381 0.65533 0.19274 0.0
C593 C 0.57677 0.63325 0.19424 0.0
C594 C 0.55573 0.61904 0.19981 0.0
C595 C 0.54192 0.62695 0.20342 0.0
C596 C 0.60638 0.67108 0.18743 0.0
C597 C 0.54772 0.59543 0.20165 0.0
C598 C 0.69617 0.59351 0.24047 0.0
C599 C 0.67181 0.58356 0.2416 0.0
C600 C 0.65331 0.60282 0.23456 0.0
C601 C 0.65913 0.62368 0.23005 0.0
C602 C 0.64679 0.62759 0.21868 0.0
C603 C 0.62787 0.61016 0.21212 0.0
C604 C 0.62097 0.58916 0.21775 0.0
C605 C 0.63391 0.58568 0.22881 0.0
C606 C 0.65444 0.65023 0.21318 0.0
C607 C 0.60036 0.5703 0.21163 0.0
C608 C 0.62789 0.59742 0.13198 0.0
C609 C 0.6173 0.60183 0.1195 0.0
C610 C 0.6037 0.60986 0.1231 0.0
C611 C 0.60024 0.61339 0.13965 0.0
C612 C 0.58602 0.62068 0.14375 0.0
C613 C 0.58288 0.62429 0.16007 0.0
C614 C 0.594 0.62095 0.17292 0.0
C615 C 0.59121 0.62495 0.18954 0.0
C616 C 0.60234 0.62122 0.20202 0.0
C617 C 0.61636 0.61366 0.19837 0.0
C618 C 0.61948 0.60972 0.18181 0.0
C619 C 0.63361 0.60229 0.17766 0.0
C620 C 0.63629 0.5981 0.16138 0.0
C621 C 0.62528 0.6016 0.14857 0.0
C622 C 0.61127 0.60947 0.15242 0.0
C623 C 0.60823 0.61337 0.16907 0.0
C624 C 0.51498 0.65445 0.17997 0.0
C625 C 0.53017 0.66808 0.19382 0.0
O626 O 0.67499 0.56086 0.10608 0.0
O627 O 0.66693 0.59965 0.24411 0.0
O628 O 0.53418 0.65521 0.20418 0.0
O629 O 0.56518 0.62742 0.06905 0.0
H630 H 0.64966 0.53534 0.09439 0.0
H631 H 0.66054 0.5673 0.07743 0.0
H632 H 0.68712 0.57116 0.075 0.0
H633 H 0.6642 0.54782 0.06624 0.0
H634 H 0.63516 0.53893 0.11762 0.0
H635 H 0.69066 0.60111 0.11256 0.0
H636 H 0.59738 0.55391 0.12238 0.0
H637 H 0.60302 0.53349 0.12929 0.0
H638 H 0.60553 0.55412 0.14326 0.0
H639 H 0.69115 0.63256 0.12151 0.0
H640 H 0.66605 0.63111 0.11637 0.0
H641 H 0.67216 0.629 0.13742 0.0
H642 H 0.58768 0.65649 0.05848 0.0
H643 H 0.56354 0.65166 0.03852 0.0
H644 H 0.54433 0.62934 0.04677 0.0
H645 H 0.54242 0.66408 0.06225 0.0
H646 H 0.6007 0.65644 0.08507 0.0
H647 H 0.5514 0.59046 0.08224 0.0
H648 H 0.62007 0.65638 0.12345 0.0
H649 H 0.63592 0.64932 0.11078 0.0
H650 H 0.62929 0.66901 0.1037 0.0
H651 H 0.54885 0.56489 0.10156 0.0
H652 H 0.57526 0.56904 0.10583 0.0
H653 H 0.56148 0.57522 0.1213 0.0
H654 H 0.54532 0.68058 0.18814 0.0
H655 H 0.57493 0.67962 0.19507 0.0
H656 H 0.52571 0.61621 0.20757 0.0
H657 H 0.60852 0.6681 0.17435 0.0
H658 H 0.61011 0.68792 0.18869 0.0
H659 H 0.6181 0.66887 0.19485 0.0
H660 H 0.53058 0.58633 0.20529 0.0
H661 H 0.54972 0.5888 0.18987 0.0
H662 H 0.5574 0.59298 0.21114 0.0
H663 H 0.66529 0.57545 0.22953 0.0
H664 H 0.70047 0.58085 0.23867 0.0
H665 H 0.70229 0.60457 0.22981 0.0
H666 H 0.70418 0.60275 0.2518 0.0
H667 H 0.67397 0.63682 0.23483 0.0
H668 H 0.62904 0.56958 0.2328 0.0
H669 H 0.65662 0.65137 0.19961 0.0
H670 H 0.64216 0.6547 0.21618 0.0
H671 H 0.66982 0.66194 0.21913 0.0
H672 H 0.59544 0.55581 0.21924 0.0
H673 H 0.58725 0.57417 0.21164 0.0
H674 H 0.60254 0.56656 0.19877 0.0
H675 H 0.6196 0.59885 0.10677 0.0
H676 H 0.57709 0.62361 0.13438 0.0
H677 H 0.57166 0.62982 0.16247 0.0
H678 H 0.60011 0.62429 0.21474 0.0
H679 H 0.64273 0.59952 0.18696 0.0
H680 H 0.64724 0.59225 0.15894 0.0
H681 H 0.49963 0.6416 0.18511 0.0
H682 H 0.51159 0.66456 0.17159 0.0
H683 H 0.52248 0.64694 0.17264 0.0
O684 O 0.60835 0.41524 0.41816 0.0
Cd685 Cd 0.61394 0.40251 0.39724 0.0
Cd686 Cd 0.65455 0.43114 0.40424 0.0
O687 O 0.64201 0.43336 0.42647 0.0
O688 O 0.58903 0.37296 0.39451 0.0
O689 O 0.62182 0.37988 0.40088 0.0
C690 C 0.60182 0.36601 0.39851 0.0
C691 C 0.68427 0.42636 0.40278 0.0
C692 C 0.62223 0.42667 0.42895 0.0
C693 C 0.63519 0.43838 0.3738 0.0
O694 O 0.6501 0.44638 0.38449 0.0
O695 O 0.6195 0.41948 0.37555 0.0
O696 O 0.68627 0.44452 0.40697 0.0
O697 O 0.66519 0.41063 0.39994 0.0
O698 O 0.21858 0.58112 0.60501 0.0
Cd699 Cd 0.23802 0.59712 0.58534 0.0
Cd700 Cd 0.22531 0.62507 0.59269 0.0
O701 O 0.21412 0.60742 0.6141 0.0
O702 O 0.25725 0.5849 0.58249 0.0
O703 O 0.26899 0.61854 0.58975 0.0
C704 C 0.27302 0.6033 0.58679 0.0
C705 C 0.24618 0.66229 0.59285 0.0
C706 C 0.2114 0.58871 0.61577 0.0
C707 C 0.20997 0.60122 0.56064 0.0
O708 O 0.20745 0.61246 0.5715 0.0
O709 O 0.22313 0.59461 0.56309 0.0
O710 O 0.226 0.65271 0.59623 0.0
O711 O 0.25483 0.65061 0.59015 0.0
O712 O 0.61054 0.21292 0.75154 0.0
Cd713 Cd 0.62469 0.23259 0.73157 0.0
Cd714 Cd 0.59725 0.24595 0.73892 0.0
O715 O 0.5926 0.22846 0.76009 0.0
O716 O 0.65342 0.23519 0.7287 0.0
O717 O 0.64891 0.26218 0.73626 0.0
C718 C 0.66172 0.2549 0.73329 0.0
C719 C 0.60433 0.28113 0.74005 0.0
C720 C 0.59856 0.21475 0.76212 0.0
C721 C 0.59027 0.2224 0.70696 0.0
O722 O 0.58246 0.22933 0.71774 0.0
O723 O 0.60832 0.22365 0.70941 0.0
O724 O 0.58555 0.26532 0.74335 0.0
O725 O 0.61939 0.277 0.73657 0.0
O726 O 0.44374 0.65722 0.93183 0.0
Cd727 Cd 0.42765 0.65952 0.91162 0.0
Cd728 Cd 0.40101 0.61813 0.91821 0.0
O729 O 0.41892 0.62495 0.93959 0.0
O730 O 0.43853 0.69059 0.9083 0.0
O731 O 0.40512 0.66768 0.91559 0.0
C732 C 0.41975 0.6871 0.91235 0.0
C733 C 0.36369 0.59998 0.91894 0.0
C734 C 0.43679 0.64191 0.94208 0.0
C735 C 0.42552 0.62853 0.88645 0.0
O736 O 0.41397 0.61418 0.89679 0.0
O737 O 0.43176 0.64806 0.88947 0.0
O738 O 0.3743 0.59019 0.92134 0.0
O739 O 0.37439 0.62044 0.91674 0.0
O740 O 0.79926 0.36943 0.05733 0.0
Cd741 Cd 0.78048 0.36648 0.07737 0.0
Cd742 Cd 0.79481 0.40789 0.071 0.0
O743 O 0.80643 0.40164 0.04971 0.0
O744 O 0.75988 0.33528 0.07964 0.0
O745 O 0.74997 0.35887 0.07319 0.0
C746 C 0.74484 0.33919 0.07563 0.0
C747 C 0.77556 0.42594 0.07008 0.0
C748 C 0.80762 0.38487 0.04721 0.0
C749 C 0.80873 0.39712 0.1029 0.0
O750 O 0.8113 0.4115 0.09266 0.0
O751 O 0.79576 0.37753 0.09972 0.0
O752 O 0.79605 0.43584 0.06798 0.0
O753 O 0.7658 0.40545 0.0721 0.0
O754 O 0.41888 0.81985 0.24201 0.0
Cd755 Cd 0.41384 0.80119 0.26244 0.0
Cd756 Cd 0.37217 0.78475 0.25492 0.0
O757 O 0.38507 0.80302 0.23399 0.0
O758 O 0.43946 0.79787 0.26557 0.0
O759 O 0.40742 0.77126 0.25832 0.0
C760 C 0.42749 0.77812 0.26121 0.0
C761 C 0.34333 0.74995 0.25265 0.0
C762 C 0.40456 0.81712 0.23158 0.0
C763 C 0.38805 0.80926 0.28683 0.0
O764 O 0.37281 0.80012 0.2765 0.0
O765 O 0.40612 0.81075 0.28406 0.0
O766 O 0.3411 0.76628 0.24977 0.0
O767 O 0.36222 0.75332 0.25633 0.0
C768 C 0.17827 0.57566 0.26339 0.0
C769 C 0.16229 0.57835 0.27108 0.0
C770 C 0.19889 0.59306 0.26114 0.0
C771 C 0.23782 0.64472 0.27748 0.0
H772 H 0.26 0.65975 0.23305 0.0
C773 C 0.32418 0.71214 0.26263 0.0
C774 C 0.32443 0.72823 0.25277 0.0
C775 C 0.30529 0.69246 0.26439 0.0
C776 C 0.25403 0.65558 0.24551 0.0
H777 H 0.15559 0.60173 0.28237 0.0
H778 H 0.1919 0.63188 0.27906 0.0
H779 H 0.22492 0.62779 0.23771 0.0
H780 H 0.30555 0.73609 0.23641 0.0
H781 H 0.27277 0.70139 0.23905 0.0
H782 H 0.26695 0.67245 0.28529 0.0
C783 C 0.18828 0.61621 0.27473 0.0
C784 C 0.23407 0.63736 0.24817 0.0
C785 C 0.16751 0.59891 0.27664 0.0
C786 C 0.30579 0.72396 0.2441 0.0
C787 C 0.28708 0.70413 0.24556 0.0
C788 C 0.25798 0.66267 0.27486 0.0
C789 C 0.20405 0.61345 0.26684 0.0
C790 C 0.2257 0.63197 0.26415 0.0
C791 C 0.28655 0.68841 0.256 0.0
C792 C 0.26611 0.66839 0.25883 0.0
H793 H 0.17466 0.56007 0.25887 0.0
H794 H 0.21083 0.5906 0.25502 0.0
H795 H 0.23165 0.6408 0.28991 0.0
H796 H 0.33829 0.71508 0.26953 0.0
H797 H 0.30522 0.68051 0.27247 0.0
C798 C 0.50583 0.19509 0.46535 0.0
C799 C 0.50729 0.17737 0.4599 0.0
C800 C 0.51716 0.21481 0.45742 0.0
C801 C 0.54102 0.24022 0.41848 0.0
H802 H 0.57559 0.29075 0.44512 0.0
C803 C 0.57219 0.3278 0.39756 0.0
C804 C 0.59335 0.34303 0.40191 0.0
C805 C 0.56313 0.30662 0.4029 0.0
C806 C 0.56615 0.27676 0.43751 0.0
H807 H 0.52231 0.16672 0.44194 0.0
H808 H 0.54149 0.20107 0.42774 0.0
H809 H 0.55646 0.25565 0.45821 0.0
H810 H 0.62193 0.34776 0.41463 0.0
H811 H 0.60596 0.31083 0.42415 0.0
H812 H 0.55026 0.2615 0.39782 0.0
C813 C 0.53146 0.19953 0.43815 0.0
C814 C 0.55508 0.25673 0.44501 0.0
C815 C 0.52043 0.17987 0.44628 0.0
C816 C 0.60559 0.33642 0.41106 0.0
C817 C 0.59643 0.31532 0.41659 0.0
C818 C 0.55182 0.26034 0.41099 0.0
C819 C 0.53006 0.21722 0.44375 0.0
C820 C 0.54232 0.23829 0.43559 0.0
C821 C 0.57498 0.30035 0.41286 0.0
C822 C 0.56445 0.27881 0.42045 0.0
H823 H 0.49608 0.19371 0.47592 0.0
H824 H 0.51576 0.22819 0.46194 0.0
H825 H 0.53121 0.22623 0.41097 0.0
H826 H 0.56236 0.3324 0.3905 0.0
H827 H 0.54653 0.29542 0.39991 0.0
C828 C 0.43297 0.60967 0.64207 0.0
C829 C 0.45243 0.62099 0.63356 0.0
C830 C 0.41399 0.60715 0.6353 0.0
C831 C 0.39419 0.63186 0.60556 0.0
H832 H 0.34035 0.57893 0.61106 0.0
C833 C 0.31135 0.62533 0.59602 0.0
C834 C 0.29476 0.6063 0.58919 0.0
C835 C 0.33122 0.62724 0.59975 0.0
C836 C 0.35526 0.59376 0.60923 0.0
H837 H 0.46734 0.63871 0.61133 0.0
H838 H 0.43407 0.63405 0.59933 0.0
H839 H 0.37357 0.5812 0.62042 0.0
H840 H 0.28634 0.57469 0.58028 0.0
H841 H 0.32102 0.57814 0.58653 0.0
H842 H 0.37584 0.64436 0.59427 0.0
C843 C 0.4335 0.62717 0.61128 0.0
C844 C 0.37429 0.59513 0.61478 0.0
C845 C 0.4525 0.62966 0.61806 0.0
C846 C 0.29872 0.58953 0.58564 0.0
C847 C 0.31857 0.59144 0.58932 0.0
C848 C 0.37513 0.63049 0.60001 0.0
C849 C 0.41404 0.61604 0.61989 0.0
C850 C 0.39397 0.61425 0.61315 0.0
C851 C 0.33494 0.61017 0.5967 0.0
C852 C 0.35541 0.61146 0.60189 0.0
H853 H 0.43252 0.60314 0.65415 0.0
H854 H 0.39937 0.59879 0.64239 0.0
H855 H 0.40903 0.64689 0.60425 0.0
H856 H 0.3088 0.63854 0.59895 0.0
H857 H 0.3434 0.64182 0.60556 0.0
C858 C 0.8521 0.3627 0.7741 0.0
C859 C 0.85635 0.35291 0.7874 0.0
C860 C 0.83195 0.35267 0.76647 0.0
C861 C 0.78448 0.33439 0.75911 0.0
H862 H 0.7522 0.27256 0.75555 0.0
C863 C 0.69349 0.28748 0.74508 0.0
C864 C 0.68509 0.26819 0.73623 0.0
C865 C 0.71517 0.29873 0.74955 0.0
C866 C 0.76105 0.28986 0.75619 0.0
H867 H 0.84255 0.32547 0.80358 0.0
H868 H 0.80732 0.30813 0.79053 0.0
H869 H 0.78855 0.29002 0.76631 0.0
H870 H 0.69308 0.24615 0.72437 0.0
H871 H 0.73097 0.26606 0.73169 0.0
H872 H 0.7571 0.33421 0.74862 0.0
C873 C 0.81972 0.32316 0.78555 0.0
C874 C 0.78185 0.29989 0.76263 0.0
C875 C 0.83989 0.33311 0.79309 0.0
C876 C 0.69902 0.26088 0.73131 0.0
C877 C 0.72073 0.27223 0.73563 0.0
C878 C 0.76371 0.32436 0.75254 0.0
C879 C 0.81546 0.33278 0.77213 0.0
C880 C 0.79376 0.32226 0.76438 0.0
C881 C 0.729 0.29104 0.74514 0.0
C882 C 0.75162 0.30194 0.75116 0.0
H883 H 0.86432 0.37819 0.76967 0.0
H884 H 0.82932 0.36049 0.7561 0.0
H885 H 0.79306 0.35163 0.7604 0.0
H886 H 0.68315 0.29349 0.74912 0.0
H887 H 0.72085 0.313 0.75702 0.0
C888 C 0.39865 0.84462 0.93163 0.0
C889 C 0.41727 0.86111 0.93908 0.0
C890 C 0.39649 0.8245 0.92887 0.0
C891 C 0.41342 0.78764 0.94301 0.0
H892 H 0.40505 0.76667 0.89803 0.0
C893 C 0.39994 0.70389 0.92489 0.0
C894 C 0.41567 0.70513 0.91401 0.0
C895 C 0.3978 0.72186 0.9278 0.0
C896 C 0.4072 0.77228 0.91065 0.0
H897 H 0.44837 0.86929 0.94935 0.0
H898 H 0.44408 0.83386 0.94516 0.0
H899 H 0.40567 0.80029 0.90414 0.0
H900 H 0.44082 0.72574 0.89712 0.0
H901 H 0.43652 0.75687 0.90177 0.0
H902 H 0.4149 0.75962 0.94953 0.0
C903 C 0.43122 0.83664 0.94147 0.0
C904 C 0.40749 0.7914 0.91414 0.0
C905 C 0.43361 0.85691 0.94389 0.0
C906 C 0.42858 0.72435 0.90559 0.0
C907 C 0.4261 0.74212 0.9082 0.0
C908 C 0.41264 0.76827 0.93958 0.0
C909 C 0.41276 0.82037 0.93377 0.0
C910 C 0.41093 0.79939 0.93031 0.0
C911 C 0.41098 0.74115 0.91955 0.0
C912 C 0.40984 0.76061 0.92334 0.0
H913 H 0.38594 0.84747 0.92762 0.0
H914 H 0.38213 0.81217 0.92289 0.0
H915 H 0.41605 0.7935 0.95557 0.0
H916 H 0.38987 0.68931 0.93162 0.0
H917 H 0.38601 0.72076 0.93659 0.0
C918 C 0.66685 0.51164 0.08997 0.0
C919 C 0.67862 0.53398 0.09188 0.0
C920 C 0.67733 0.49993 0.08788 0.0
C921 C 0.7279 0.50529 0.07327 0.0
H922 H 0.70907 0.45183 0.0963 0.0
C923 C 0.77543 0.46048 0.07112 0.0
C924 C 0.76396 0.438 0.07106 0.0
C925 C 0.76483 0.47206 0.07328 0.0
C926 C 0.71433 0.46656 0.08957 0.0
H927 H 0.7106 0.56159 0.09314 0.0
H928 H 0.72901 0.54109 0.08944 0.0
H929 H 0.69123 0.47243 0.10144 0.0
H930 H 0.73227 0.41003 0.07275 0.0
H931 H 0.71364 0.43024 0.07611 0.0
H932 H 0.75078 0.49935 0.06121 0.0
C933 C 0.71164 0.53267 0.08954 0.0
C934 C 0.70416 0.4784 0.09259 0.0
C935 C 0.70115 0.54437 0.09177 0.0
C936 C 0.74157 0.42734 0.0728 0.0
C937 C 0.73092 0.43894 0.07486 0.0
C938 C 0.73797 0.49338 0.07016 0.0
C939 C 0.69983 0.51033 0.08748 0.0
C940 C 0.71086 0.49792 0.08449 0.0
C941 C 0.74246 0.46146 0.07532 0.0
C942 C 0.73135 0.47387 0.0783 0.0
H943 H 0.64948 0.50323 0.08984 0.0
H944 H 0.66779 0.48278 0.08614 0.0
H945 H 0.73319 0.52011 0.06665 0.0
H946 H 0.79272 0.46921 0.0699 0.0
H947 H 0.77429 0.48935 0.07381 0.0
C948 C 0.34356 0.85721 0.57341 0.0
C949 C 0.33584 0.86419 0.56031 0.0
C950 C 0.33518 0.8354 0.57636 0.0
C951 C 0.32153 0.78825 0.57597 0.0
H952 H 0.26007 0.75139 0.5713 0.0
C953 C 0.27888 0.69597 0.58364 0.0
C954 C 0.25846 0.68583 0.5909 0.0
C955 C 0.28928 0.71785 0.58004 0.0
C956 C 0.27724 0.76148 0.57283 0.0
H957 H 0.31297 0.85371 0.54018 0.0
H958 H 0.29874 0.81557 0.54498 0.0
H959 H 0.27639 0.78905 0.56435 0.0
H960 H 0.23339 0.69091 0.60079 0.0
H961 H 0.25169 0.72902 0.59493 0.0
H962 H 0.32221 0.76074 0.585 0.0
C963 C 0.31122 0.82698 0.55307 0.0
C964 C 0.28667 0.78305 0.56858 0.0
C965 C 0.31954 0.84883 0.55018 0.0
C966 C 0.24905 0.69818 0.59508 0.0
C967 C 0.25947 0.72003 0.59157 0.0
C968 C 0.31207 0.76665 0.58029 0.0
C969 C 0.31876 0.81998 0.56632 0.0
C970 C 0.30892 0.79677 0.57016 0.0
C971 C 0.27951 0.73007 0.58369 0.0
C972 C 0.28978 0.75302 0.57889 0.0
H973 H 0.35577 0.86869 0.58164 0.0
H974 H 0.34109 0.83066 0.58687 0.0
H975 H 0.33874 0.79827 0.57717 0.0
H976 H 0.28652 0.68687 0.5802 0.0
H977 H 0.30463 0.725 0.57387 0.0
C978 C 0.62121 0.45823 0.7245 0.0
C979 C 0.60225 0.45575 0.71742 0.0
C980 C 0.62377 0.44051 0.72714 0.0
C981 C 0.60815 0.38747 0.71258 0.0
H982 H 0.61633 0.374 0.75729 0.0
C983 C 0.624 0.31845 0.72909 0.0
C984 C 0.60797 0.30312 0.7393 0.0
C985 C 0.62569 0.33845 0.72684 0.0
C986 C 0.61424 0.37773 0.74475 0.0
H987 H 0.57098 0.43242 0.70764 0.0
H988 H 0.57597 0.40169 0.71161 0.0
H989 H 0.61471 0.40662 0.75184 0.0
H990 H 0.58186 0.29698 0.75577 0.0
H991 H 0.58537 0.33226 0.75228 0.0
H992 H 0.60777 0.35865 0.70547 0.0
C993 C 0.58876 0.41744 0.71515 0.0
C994 C 0.61337 0.39632 0.74164 0.0
C995 C 0.58596 0.43508 0.71287 0.0
C996 C 0.59434 0.30849 0.74781 0.0
C997 C 0.59637 0.32865 0.74586 0.0
C998 C 0.60952 0.36915 0.71564 0.0
C999 C 0.60758 0.42 0.72245 0.0
C1000 C 0.60999 0.40115 0.72556 0.0
C1001 C 0.61175 0.34361 0.7351 0.0
C1002 C 0.61226 0.36397 0.73177 0.0
H1003 H 0.63394 0.47392 0.72823 0.0
H1004 H 0.63842 0.44281 0.7328 0.0
H1005 H 0.60556 0.39094 0.70009 0.0
H1006 H 0.63463 0.31468 0.72231 0.0
H1007 H 0.63769 0.3498 0.7185 0.0
C1008 C 0.16778 0.51036 0.90243 0.0
C1009 C 0.1581 0.48818 0.89988 0.0
C1010 C 0.19004 0.52299 0.90387 0.0
C1011 C 0.24091 0.52291 0.89617 0.0
H1012 H 0.26376 0.56859 0.92863 0.0
C1013 C 0.32913 0.56532 0.91726 0.0
C1014 C 0.34 0.5878 0.91781 0.0
C1015 C 0.30695 0.55365 0.91497 0.0
C1016 C 0.25761 0.55602 0.91942 0.0
H1017 H 0.16411 0.46185 0.89671 0.0
H1018 H 0.20298 0.48376 0.89963 0.0
H1019 H 0.22509 0.54718 0.92446 0.0
H1020 H 0.33604 0.61564 0.91678 0.0
H1021 H 0.29709 0.59513 0.91302 0.0
H1022 H 0.27349 0.5315 0.89146 0.0
C1023 C 0.19345 0.49153 0.90017 0.0
C1024 C 0.23545 0.54378 0.91696 0.0
C1025 C 0.17118 0.47892 0.8986 0.0
C1026 C 0.32812 0.59834 0.91642 0.0
C1027 C 0.30584 0.58662 0.91431 0.0
C1028 C 0.26304 0.53502 0.89874 0.0
C1029 C 0.20316 0.51371 0.90297 0.0
C1030 C 0.2268 0.52703 0.90533 0.0
C1031 C 0.29509 0.56416 0.91334 0.0
C1032 C 0.27161 0.55165 0.91042 0.0
H1033 H 0.1581 0.51794 0.90348 0.0
H1034 H 0.19695 0.54005 0.90571 0.0
H1035 H 0.23489 0.51043 0.8869 0.0
H1036 H 0.3378 0.55669 0.91828 0.0
H1037 H 0.29905 0.53635 0.91449 0.0
C1038 C 0.5681 0.18477 0.04092 0.0
C1039 C 0.56876 0.1774 0.02501 0.0
C1040 C 0.58627 0.20235 0.0477 0.0
C1041 C 0.63623 0.25052 0.03562 0.0
H1042 H 0.65466 0.24988 0.0804 0.0
C1043 C 0.70734 0.32507 0.0651 0.0
C1044 C 0.72271 0.3214 0.07279 0.0
C1045 C 0.68727 0.3079 0.0607 0.0
C1046 C 0.64968 0.25029 0.06788 0.0
H1047 H 0.58874 0.18298 0.00361 0.0
H1048 H 0.62049 0.2136 0.01545 0.0
H1049 H 0.62246 0.21868 0.06956 0.0
H1050 H 0.7287 0.29691 0.08257 0.0
H1051 H 0.69371 0.26704 0.07495 0.0
H1052 H 0.6636 0.28192 0.0338 0.0
C1053 C 0.60597 0.20574 0.02271 0.0
C1054 C 0.63118 0.2325 0.06172 0.0
C1055 C 0.58789 0.1881 0.01599 0.0
C1056 C 0.71724 0.30029 0.07663 0.0
C1057 C 0.69713 0.28316 0.07234 0.0
C1058 C 0.6546 0.26835 0.04182 0.0
C1059 C 0.60533 0.21315 0.03859 0.0
C1060 C 0.62442 0.23232 0.04545 0.0
C1061 C 0.68209 0.28673 0.06402 0.0
C1062 C 0.66167 0.26836 0.05796 0.0
H1063 H 0.55343 0.17716 0.04801 0.0
H1064 H 0.58522 0.20785 0.05989 0.0
H1065 H 0.63128 0.25097 0.0231 0.0
H1066 H 0.71106 0.34115 0.06199 0.0
H1067 H 0.67591 0.31116 0.05446 0.0
C1068 C 0.52407 0.69924 0.19829 0.0
C1069 C 0.52034 0.67908 0.20336 0.0
C1070 C 0.51417 0.70913 0.20631 0.0
C1071 C 0.50038 0.73189 0.23028 0.0
H1072 H 0.44125 0.69782 0.24425 0.0
C1073 C 0.45812 0.7711 0.26318 0.0
C1074 C 0.43696 0.76434 0.25826 0.0
C1075 C 0.46805 0.75947 0.25859 0.0
C1076 C 0.45773 0.7076 0.24035 0.0
H1077 H 0.50262 0.65309 0.22046 0.0
H1078 H 0.48591 0.67065 0.23488 0.0
H1079 H 0.45908 0.68037 0.23149 0.0
H1080 H 0.40934 0.73969 0.24516 0.0
H1081 H 0.42677 0.71973 0.23677 0.0
H1082 H 0.49876 0.75921 0.23833 0.0
C1083 C 0.49641 0.67882 0.22463 0.0
C1084 C 0.46807 0.69755 0.23322 0.0
C1085 C 0.50619 0.66884 0.2165 0.0
C1086 C 0.42564 0.74526 0.24921 0.0
C1087 C 0.43564 0.73376 0.24445 0.0
C1088 C 0.49 0.74194 0.23727 0.0
C1089 C 0.50024 0.69909 0.21962 0.0
C1090 C 0.48948 0.70959 0.22795 0.0
C1091 C 0.45714 0.74096 0.24879 0.0
C1092 C 0.46848 0.72997 0.24229 0.0
H1093 H 0.53446 0.70724 0.18794 0.0
H1094 H 0.51711 0.72448 0.20182 0.0
H1095 H 0.51697 0.74167 0.22662 0.0
H1096 H 0.46722 0.78565 0.27028 0.0
H1097 H 0.48443 0.76524 0.2625 0.0
C1098 C 0.83921 0.40368 0.37077 0.0
C1099 C 0.84733 0.41218 0.35514 0.0
C1100 C 0.82279 0.40607 0.37776 0.0
C1101 C 0.79471 0.43726 0.37441 0.0
H1102 H 0.74805 0.38789 0.39565 0.0
C1103 C 0.72403 0.44139 0.40361 0.0
C1104 C 0.70342 0.42409 0.40035 0.0
C1105 C 0.74226 0.44002 0.39992 0.0
C1106 C 0.76092 0.4018 0.38971 0.0
H1107 H 0.8445 0.42962 0.33456 0.0
H1108 H 0.81581 0.43374 0.34668 0.0
H1109 H 0.77886 0.38593 0.38546 0.0
H1110 H 0.68578 0.39155 0.39109 0.0
H1111 H 0.71757 0.38924 0.38445 0.0
H1112 H 0.77647 0.45289 0.3781 0.0
C1113 C 0.82241 0.42563 0.35371 0.0
C1114 C 0.77871 0.40077 0.38405 0.0
C1115 C 0.8388 0.42323 0.34673 0.0
C1116 C 0.70143 0.40515 0.39379 0.0
C1117 C 0.71967 0.40379 0.39005 0.0
C1118 C 0.77694 0.4383 0.38007 0.0
C1119 C 0.81404 0.4169 0.36924 0.0
C1120 C 0.79573 0.41842 0.37617 0.0
C1121 C 0.74032 0.42134 0.39283 0.0
C1122 C 0.75972 0.42052 0.38765 0.0
H1123 H 0.8453 0.39482 0.37742 0.0
H1124 H 0.81686 0.39932 0.38981 0.0
H1125 H 0.80764 0.45123 0.36857 0.0
H1126 H 0.72614 0.45618 0.40875 0.0
H1127 H 0.7579 0.45369 0.40249 0.0
C1128 C 0.10919 0.53958 0.43122 0.0
C1129 C 0.09481 0.54697 0.42808 0.0
C1130 C 0.12094 0.54495 0.44587 0.0
C1131 C 0.1413 0.58543 0.4789 0.0
H1132 H 0.15054 0.54375 0.50203 0.0
C1133 C 0.18241 0.60255 0.54259 0.0
C1134 C 0.19708 0.59538 0.5453 0.0
C1135 C 0.16977 0.59658 0.52837 0.0
C1136 C 0.1483 0.55563 0.49561 0.0
H1137 H 0.08173 0.56608 0.43765 0.0
H1138 H 0.10204 0.57523 0.46344 0.0
H1139 H 0.12818 0.53304 0.47734 0.0
H1140 H 0.21008 0.57645 0.53509 0.0
H1141 H 0.18813 0.56621 0.51019 0.0
H1142 H 0.16146 0.60803 0.49714 0.0
C1143 C 0.10425 0.56531 0.45454 0.0
C1144 C 0.13547 0.54949 0.48148 0.0
C1145 C 0.09248 0.55992 0.43988 0.0
C1146 C 0.19892 0.58223 0.5334 0.0
C1147 C 0.18624 0.57624 0.51918 0.0
C1148 C 0.15412 0.59156 0.49303 0.0
C1149 C 0.11871 0.55798 0.45766 0.0
C1150 C 0.13187 0.56433 0.47294 0.0
C1151 C 0.17147 0.58329 0.51654 0.0
C1152 C 0.15781 0.57675 0.50153 0.0
H1153 H 0.11158 0.5299 0.42221 0.0
H1154 H 0.1322 0.53933 0.44777 0.0
H1155 H 0.13914 0.59734 0.47246 0.0
H1156 H 0.18053 0.61265 0.55152 0.0
H1157 H 0.15837 0.60208 0.52679 0.0
C1158 C 0.45035 0.12034 0.59513 0.0
C1159 C 0.45778 0.10278 0.58354 0.0
C1160 C 0.46987 0.13743 0.61013 0.0
C1161 C 0.526 0.14802 0.63056 0.0
H1162 H 0.52421 0.19763 0.64681 0.0
C1163 C 0.58624 0.20494 0.67936 0.0
C1164 C 0.57776 0.21203 0.69185 0.0
C1165 C 0.57388 0.19423 0.66553 0.0
C1166 C 0.52479 0.18371 0.64254 0.0
H1167 H 0.49031 0.10013 0.57251 0.0
H1168 H 0.52055 0.12929 0.59653 0.0
H1169 H 0.50018 0.17622 0.62466 0.0
H1170 H 0.54969 0.21356 0.6995 0.0
H1171 H 0.52812 0.19461 0.67566 0.0
H1172 H 0.55031 0.15521 0.64868 0.0
C1173 C 0.50443 0.12675 0.59613 0.0
C1174 C 0.51098 0.17143 0.62984 0.0
C1175 C 0.48608 0.10933 0.58063 0.0
C1176 C 0.55679 0.20843 0.69008 0.0
C1177 C 0.54443 0.19765 0.67633 0.0
C1178 C 0.53972 0.16021 0.64336 0.0
C1179 C 0.49613 0.13989 0.61094 0.0
C1180 C 0.51134 0.15338 0.62384 0.0
C1181 C 0.55275 0.19031 0.66391 0.0
C1182 C 0.53913 0.17809 0.64963 0.0
H1183 H 0.434 0.11716 0.59559 0.0
H1184 H 0.46556 0.14587 0.61894 0.0
H1185 H 0.52643 0.13401 0.62632 0.0
H1186 H 0.60237 0.20753 0.68031 0.0
H1187 H 0.58089 0.18905 0.65609 0.0
C1188 C 0.53536 0.61105 0.78289 0.0
C1189 C 0.5345 0.5912 0.78191 0.0
C1190 C 0.51973 0.61307 0.79157 0.0
C1191 C 0.48187 0.58741 0.82556 0.0
H1192 H 0.46249 0.627 0.81363 0.0
C1193 C 0.42638 0.60099 0.86817 0.0
C1194 C 0.43295 0.62255 0.87143 0.0
C1195 C 0.43525 0.59547 0.8551 0.0
C1196 C 0.4678 0.61591 0.81712 0.0
H1197 H 0.51625 0.55777 0.78867 0.0
H1198 H 0.48867 0.56114 0.80356 0.0
H1199 H 0.48439 0.62011 0.79435 0.0
H1200 H 0.45316 0.65512 0.86295 0.0
H1201 H 0.4688 0.64549 0.84026 0.0
H1202 H 0.46576 0.58353 0.84842 0.0
C1203 C 0.5016 0.57524 0.79787 0.0
C1204 C 0.48035 0.61198 0.8061 0.0
C1205 C 0.5173 0.57326 0.78926 0.0
C1206 C 0.44779 0.63837 0.86082 0.0
C1207 C 0.45666 0.63284 0.84774 0.0
C1208 C 0.4693 0.59128 0.83652 0.0
C1209 C 0.5029 0.59527 0.79945 0.0
C1210 C 0.48782 0.59794 0.81031 0.0
C1211 C 0.45088 0.61138 0.84499 0.0
C1212 C 0.4624 0.60582 0.83255 0.0
H1213 H 0.54853 0.62515 0.77739 0.0
H1214 H 0.52139 0.62878 0.7927 0.0
H1215 H 0.48764 0.57681 0.82936 0.0
H1216 H 0.41483 0.58837 0.876 0.0
H1217 H 0.4302 0.57876 0.85312 0.0
C1218 C 0.90399 0.34567 0.93106 0.0
C1219 C 0.91832 0.36954 0.91764 0.0
C1220 C 0.88952 0.34886 0.94782 0.0
C1221 C 0.87976 0.39442 0.96912 0.0
H1222 H 0.83379 0.34341 0.98917 0.0
C1223 C 0.82538 0.39831 0.01981 0.0
C1224 C 0.81904 0.3833 0.03261 0.0
C1225 C 0.83614 0.39665 0.00606 0.0
C1226 C 0.84679 0.35783 0.9839 0.0
H1227 H 0.91717 0.40276 0.90647 0.0
H1228 H 0.89225 0.40502 0.9335 0.0
H1229 H 0.85292 0.34005 0.96579 0.0
H1230 H 0.8194 0.355 0.04114 0.0
H1231 H 0.83856 0.35244 0.01749 0.0
H1232 H 0.87385 0.41223 0.98738 0.0
C1233 C 0.89545 0.39192 0.93282 0.0
C1234 C 0.85776 0.35588 0.97047 0.0
C1235 C 0.9101 0.39015 0.91553 0.0
C1236 C 0.82386 0.36672 0.03143 0.0
C1237 C 0.83476 0.36518 0.01779 0.0
C1238 C 0.86892 0.39639 0.98267 0.0
C1239 C 0.88605 0.372 0.94892 0.0
C1240 C 0.87436 0.37414 0.96299 0.0
C1241 C 0.84095 0.38004 0.00488 0.0
C1242 C 0.85232 0.3781 0.99027 0.0
H1243 H 0.90788 0.33301 0.93113 0.0
H1244 H 0.88322 0.33695 0.95742 0.0
H1245 H 0.89271 0.40877 0.96371 0.0
H1246 H 0.82186 0.41123 0.02032 0.0
H1247 H 0.84042 0.40822 0.99626 0.0
C1248 C 0.43065 0.91612 0.1038 0.0
C1249 C 0.45189 0.93062 0.0993 0.0
C1250 C 0.42619 0.90511 0.11868 0.0
C1251 C 0.45079 0.8872 0.15002 0.0
H1252 H 0.40151 0.87728 0.17595 0.0
C1253 C 0.43209 0.846 0.21364 0.0
C1254 C 0.41054 0.83068 0.21668 0.0
C1255 C 0.43768 0.859 0.1997 0.0
C1256 C 0.41522 0.87977 0.16877 0.0
H1257 H 0.48519 0.94458 0.10666 0.0
H1258 H 0.47741 0.92563 0.13289 0.0
H1259 H 0.41046 0.89898 0.15113 0.0
H1260 H 0.37799 0.81699 0.20741 0.0
H1261 H 0.38779 0.83957 0.18306 0.0
H1262 H 0.45548 0.8679 0.16766 0.0
C1263 C 0.46418 0.92276 0.12488 0.0
C1264 C 0.42035 0.8922 0.15456 0.0
C1265 C 0.46864 0.93376 0.10996 0.0
C1266 C 0.39473 0.82864 0.20546 0.0
C1267 C 0.40032 0.84168 0.19156 0.0
C1268 C 0.44568 0.8748 0.16427 0.0
C1269 C 0.4429 0.90824 0.12938 0.0
C1270 C 0.43808 0.8959 0.14493 0.0
C1271 C 0.42185 0.85702 0.18853 0.0
C1272 C 0.42773 0.8708 0.17372 0.0
H1273 H 0.41748 0.91307 0.09565 0.0
H1274 H 0.40966 0.89373 0.12162 0.0
H1275 H 0.46437 0.88948 0.14277 0.0
H1276 H 0.44467 0.84805 0.22205 0.0
H1277 H 0.45437 0.87082 0.19779 0.0
C1278 C 0.65016 0.54549 0.25182 0.0
C1279 C 0.66287 0.56739 0.25539 0.0
C1280 C 0.64342 0.53033 0.26439 0.0
C1281 C 0.6396 0.52442 0.31013 0.0
H1282 H 0.6426 0.47321 0.30097 0.0
C1283 C 0.64922 0.47403 0.36046 0.0
C1284 C 0.6358 0.4517 0.35975 0.0
C1285 C 0.64958 0.48692 0.34756 0.0
C1286 C 0.64141 0.48729 0.30363 0.0
H1287 H 0.67794 0.59069 0.27494 0.0
H1288 H 0.66689 0.56431 0.29687 0.0
H1289 H 0.64841 0.49823 0.27879 0.0
H1290 H 0.61234 0.42537 0.34485 0.0
H1291 H 0.61345 0.44804 0.32197 0.0
H1292 H 0.63362 0.51383 0.33518 0.0
C1293 C 0.66167 0.55874 0.28442 0.0
C1294 C 0.64465 0.50163 0.29093 0.0
C1295 C 0.66818 0.57389 0.27186 0.0
C1296 C 0.62285 0.44252 0.34575 0.0
C1297 C 0.62349 0.45545 0.33267 0.0
C1298 C 0.63664 0.51022 0.32285 0.0
C1299 C 0.64947 0.53672 0.28083 0.0
C1300 C 0.64412 0.52056 0.29405 0.0
C1301 C 0.63677 0.47779 0.33354 0.0
C1302 C 0.63783 0.4917 0.31977 0.0
H1303 H 0.64571 0.54004 0.23923 0.0
H1304 H 0.63368 0.51357 0.26119 0.0
H1305 H 0.63858 0.53855 0.31295 0.0
H1306 H 0.65932 0.48164 0.3711 0.0
H1307 H 0.66015 0.50407 0.34846 0.0
C1308 C 0.38761 0.94037 0.37682 0.0
C1309 C 0.36912 0.93652 0.38549 0.0
C1310 C 0.38826 0.92381 0.36848 0.0
C1311 C 0.35555 0.87426 0.34693 0.0
H1312 H 0.40371 0.86503 0.35342 0.0
C1313 C 0.36429 0.81318 0.30721 0.0
C1314 C 0.38503 0.81954 0.30151 0.0
C1315 C 0.36118 0.82449 0.31984 0.0
C1316 C 0.39025 0.86749 0.35134 0.0
H1317 H 0.3364 0.91265 0.3913 0.0
H1318 H 0.33738 0.88362 0.37621 0.0
H1319 H 0.40032 0.89096 0.37057 0.0
H1320 H 0.41883 0.84227 0.30492 0.0
H1321 H 0.41345 0.86255 0.32645 0.0
H1322 H 0.34603 0.85186 0.32712 0.0
C1323 C 0.35151 0.89939 0.37637 0.0
C1324 C 0.38826 0.88224 0.36124 0.0
C1325 C 0.35097 0.91592 0.38499 0.0
C1326 C 0.40266 0.83692 0.30912 0.0
C1327 C 0.39954 0.84848 0.32155 0.0
C1328 C 0.3577 0.85976 0.33684 0.0
C1329 C 0.37027 0.90318 0.36822 0.0
C1330 C 0.37109 0.88599 0.35894 0.0
C1331 C 0.37872 0.84268 0.32685 0.0
C1332 C 0.37528 0.85644 0.33872 0.0
H1333 H 0.40166 0.95618 0.37655 0.0
H1334 H 0.40274 0.92723 0.36197 0.0
H1335 H 0.34227 0.87703 0.34484 0.0
H1336 H 0.3504 0.79966 0.3017 0.0
H1337 H 0.34497 0.81919 0.32386 0.0
C1338 C 0.54929 0.47275 0.54899 0.0
C1339 C 0.56508 0.4863 0.56031 0.0
C1340 C 0.55507 0.46662 0.53441 0.0
C1341 C 0.60112 0.48119 0.50674 0.0
H1342 H 0.56796 0.42198 0.49265 0.0
C1343 C 0.63056 0.44631 0.45589 0.0
C1344 C 0.61535 0.43278 0.4442 0.0
C1345 C 0.62412 0.45276 0.46995 0.0
C1346 C 0.57724 0.43862 0.49632 0.0
H1347 H 0.59919 0.50362 0.56546 0.0
H1348 H 0.6093 0.49289 0.54007 0.0
H1349 H 0.55712 0.43379 0.5171 0.0
H1350 H 0.58139 0.41522 0.43826 0.0
H1351 H 0.57021 0.42658 0.46275 0.0
H1352 H 0.62132 0.48598 0.48602 0.0
C1353 C 0.5925 0.48739 0.54224 0.0
C1354 C 0.57101 0.4454 0.51031 0.0
C1355 C 0.58672 0.4935 0.5568 0.0
C1356 C 0.59353 0.42562 0.44702 0.0
C1357 C 0.5871 0.43205 0.46109 0.0
C1358 C 0.60736 0.4744 0.49277 0.0
C1359 C 0.57674 0.47379 0.53092 0.0
C1360 C 0.58293 0.46674 0.51573 0.0
C1361 C 0.60233 0.4458 0.47266 0.0
C1362 C 0.59555 0.45302 0.48744 0.0
H1363 H 0.53247 0.46671 0.55152 0.0
H1364 H 0.54255 0.45626 0.52588 0.0
H1365 H 0.61046 0.49781 0.51044 0.0
H1366 H 0.64749 0.45208 0.45413 0.0
H1367 H 0.63621 0.46311 0.47875 0.0
C1368 C 0.11066 0.45413 0.71944 0.0
C1369 C 0.11147 0.4612 0.73568 0.0
C1370 C 0.11947 0.46883 0.70659 0.0
C1371 C 0.15913 0.52593 0.69915 0.0
H1372 H 0.13621 0.512 0.65477 0.0
C1373 C 0.19503 0.58422 0.64382 0.0
C1374 C 0.1991 0.57524 0.62988 0.0
C1375 C 0.18313 0.57121 0.65697 0.0
C1376 C 0.14277 0.51607 0.66712 0.0
H1377 H 0.12118 0.48909 0.75111 0.0
H1378 H 0.13589 0.51475 0.72863 0.0
H1379 H 0.11668 0.48769 0.67726 0.0
H1380 H 0.19365 0.54556 0.61873 0.0
H1381 H 0.17268 0.52295 0.64153 0.0
H1382 H 0.18515 0.55443 0.68889 0.0
C1383 C 0.12906 0.4979 0.72584 0.0
C1384 C 0.13166 0.50212 0.68 0.0
C1385 C 0.12047 0.48321 0.73871 0.0
C1386 C 0.1909 0.55301 0.62931 0.0
C1387 C 0.17874 0.54002 0.64231 0.0
C1388 C 0.17009 0.54001 0.68628 0.0
C1389 C 0.12906 0.49095 0.70965 0.0
C1390 C 0.13988 0.50666 0.69615 0.0
C1391 C 0.17475 0.54897 0.65626 0.0
C1392 C 0.16221 0.53502 0.67011 0.0
H1393 H 0.10375 0.43724 0.71676 0.0
H1394 H 0.11937 0.46283 0.69435 0.0
H1395 H 0.16618 0.52985 0.71134 0.0
H1396 H 0.20115 0.60129 0.64462 0.0
H1397 H 0.18023 0.57848 0.6676 0.0
C1398 C 0.53981 0.10623 0.89718 0.0
C1399 C 0.54368 0.08283 0.89387 0.0
C1400 C 0.54321 0.12184 0.87899 0.0
C1401 C 0.55689 0.12273 0.82996 0.0
H1402 H 0.57324 0.18229 0.83596 0.0
C1403 C 0.59705 0.1848 0.77867 0.0
C1404 C 0.5911 0.20047 0.77662 0.0
C1405 C 0.58965 0.17096 0.79211 0.0
C1406 C 0.56834 0.16561 0.83404 0.0
H1407 H 0.56384 0.06866 0.87601 0.0
H1408 H 0.57026 0.09617 0.84833 0.0
H1409 H 0.56367 0.15887 0.85981 0.0
H1410 H 0.57269 0.21388 0.78716 0.0
H1411 H 0.55972 0.18963 0.81061 0.0
H1412 H 0.5619 0.12952 0.80421 0.0
C1413 C 0.56289 0.0978 0.8594 0.0
C1414 C 0.5628 0.15216 0.84772 0.0
C1415 C 0.56015 0.08143 0.87688 0.0
C1416 C 0.57764 0.20203 0.78838 0.0
C1417 C 0.57025 0.18818 0.80186 0.0
C1418 C 0.56237 0.13613 0.81629 0.0
C1419 C 0.55387 0.11711 0.86031 0.0
C1420 C 0.55744 0.13072 0.84581 0.0
C1421 C 0.57613 0.17245 0.80384 0.0
C1422 C 0.56858 0.15783 0.81821 0.0
H1423 H 0.53191 0.10772 0.90799 0.0
H1424 H 0.53874 0.13407 0.87934 0.0
H1425 H 0.55235 0.10614 0.82807 0.0
H1426 H 0.60742 0.18315 0.76987 0.0
H1427 H 0.59478 0.15926 0.79342 0.0
C1428 C 0.57291 0.68222 0.05856 0.0
C1429 C 0.56325 0.65848 0.07215 0.0
C1430 C 0.55517 0.67898 0.04178 0.0
C1431 C 0.49957 0.6334 0.02065 0.0
H1432 H 0.50478 0.68426 0.00019 0.0
C1433 C 0.44118 0.62895 0.96968 0.0
C1434 C 0.44982 0.6438 0.95678 0.0
C1435 C 0.45364 0.63082 0.9835 0.0
C1436 C 0.50331 0.66988 0.00558 0.0
H1437 H 0.52877 0.62552 0.08347 0.0
H1438 H 0.50148 0.62317 0.05639 0.0
H1439 H 0.52737 0.68779 0.02365 0.0
H1440 H 0.47844 0.67208 0.94817 0.0
H1441 H 0.50026 0.675 0.97195 0.0
H1442 H 0.47573 0.61544 0.00242 0.0
C1443 C 0.51786 0.63621 0.05701 0.0
C1444 C 0.51628 0.67192 0.01905 0.0
C1445 C 0.53434 0.63804 0.07433 0.0
C1446 C 0.47121 0.66047 0.95795 0.0
C1447 C 0.48371 0.66222 0.97167 0.0
C1448 C 0.48672 0.63132 0.00705 0.0
C1449 C 0.52843 0.65595 0.04079 0.0
C1450 C 0.51456 0.65372 0.02668 0.0
C1451 C 0.47508 0.64748 0.98466 0.0
C1452 C 0.48846 0.64956 0.99931 0.0
H1453 H 0.58953 0.6948 0.05845 0.0
H1454 H 0.56082 0.69079 0.0321 0.0
H1455 H 0.49812 0.61909 0.02616 0.0
H1456 H 0.42473 0.61597 0.96919 0.0
H1457 H 0.44636 0.61935 0.99336 0.0
C1458 C 0.95755 0.45769 0.19957 0.0
C1459 C 0.95803 0.44025 0.20672 0.0
C1460 C 0.93935 0.45468 0.19108 0.0
C1461 C 0.88181 0.4154 0.18283 0.0
H1462 H 0.89388 0.44463 0.14088 0.0
C1463 C 0.82209 0.38754 0.12823 0.0
C1464 C 0.82214 0.40323 0.11798 0.0
C1465 C 0.83669 0.39338 0.14127 0.0
C1466 C 0.89015 0.43662 0.15268 0.0
H1467 H 0.93971 0.40612 0.21106 0.0
H1468 H 0.90807 0.4007 0.19591 0.0
H1469 H 0.92314 0.4526 0.15974 0.0
H1470 H 0.83663 0.43744 0.11406 0.0
H1471 H 0.86189 0.44757 0.13686 0.0
H1472 H 0.84879 0.3989 0.17539 0.0
C1473 C 0.92155 0.41679 0.1971 0.0
C1474 C 0.90696 0.44121 0.16353 0.0
C1475 C 0.9397 0.41984 0.20569 0.0
C1476 C 0.83631 0.42491 0.12159 0.0
C1477 C 0.85086 0.43074 0.13462 0.0
C1478 C 0.86496 0.41074 0.17192 0.0
C1479 C 0.92132 0.43412 0.18941 0.0
C1480 C 0.90306 0.43048 0.17865 0.0
C1481 C 0.8516 0.41504 0.14433 0.0
C1482 C 0.869 0.42113 0.15664 0.0
H1483 H 0.97144 0.4736 0.20023 0.0
H1484 H 0.93958 0.46843 0.18554 0.0
H1485 H 0.87822 0.40705 0.19448 0.0
H1486 H 0.81135 0.37069 0.12581 0.0
H1487 H 0.83695 0.38089 0.14845 0.0
loop_
_geom_bond_atom_site_label_1
_geom_bond_atom_site_label_2
_geom_bond_distance
_geom_bond_site_symmetry_2
_ccdc_geom_bond_type
C0 C1 1.560 . S
C0 H61 0.959 . S
C0 H62 0.959 . S
C0 H63 0.960 . S
C1 C0 1.560 . S
C1 O56 1.426 . S
C1 H60 0.980 . S
C2 C3 1.407 . S
C2 C7 1.418 . S
C2 O56 1.334 . S
C3 C2 1.407 . S
C3 C4 1.360 . S
C3 H64 0.929 . S
C4 C3 1.360 . S
C4 C5 1.401 . S
C4 C8 1.527 . S
C5 C4 1.401 . S
C5 C6 1.405 . S
C5 C38 1.587 . S
C6 C5 1.405 . S
C6 C7 1.332 . S
C6 C9 1.496 . S
C7 C2 1.418 . S
C7 C6 1.332 . S
C7 H65 0.929 . S
C8 C4 1.527 . S
C8 H66 0.959 . S
C8 H67 0.961 . S
C8 H68 0.961 . S
C9 C6 1.496 . S
C9 H69 0.960 . S
C9 H70 0.960 . S
C9 H71 0.961 . S
C10 C11 1.517 . S
C10 H73 0.961 . S
C10 H74 0.960 . S
C10 H75 0.959 . S
C11 C10 1.517 . S
C11 O59 1.468 . S
C11 H72 0.980 . S
C12 C13 1.349 . S
C12 C17 1.367 . S
C12 O59 1.408 . S
C13 C12 1.349 . S
C13 C14 1.407 . S
C13 H76 0.930 . S
C14 C13 1.407 . S
C14 C15 1.449 . S
C14 C18 1.527 . S
C15 C14 1.449 . S
C15 C16 1.384 . S
C15 C40 1.553 1_655 S
C16 C15 1.384 . S
C16 C17 1.364 . S
C16 C19 1.450 . S
C17 C12 1.367 . S
C17 C16 1.364 . S
C17 H77 0.931 . S
C18 C14 1.527 . S
C18 H78 0.931 1_655 S
C18 H79 0.960 1_655 S
C18 H80 0.999 . S
C19 C16 1.450 . S
C19 H81 0.960 . S
C19 H82 0.960 1_655 S
C19 H83 0.960 . S
C20 C21 1.309 . S
C20 C25 1.304 . S
C20 O58 1.435 . S
C21 C20 1.309 . S
C21 C22 1.476 . S
C21 H85 0.930 . S
C22 C21 1.476 . S
C22 C23 1.400 . S
C22 C26 1.567 . S
C23 C22 1.400 . S
C23 C24 1.373 . S
C23 C45 1.432 . S
C24 C23 1.373 . S
C24 C25 1.339 . S
C24 C27 1.530 . S
C25 C20 1.304 . S
C25 C24 1.339 . S
C25 H86 0.930 . S
C26 C22 1.567 . S
C26 H87 0.961 . S
C26 H88 0.960 . S
C26 H89 0.958 . S
C27 C24 1.530 . S
C27 H90 0.961 . S
C27 H91 0.960 . S
C27 H92 0.960 . S
C28 C29 1.530 . S
C28 H94 0.961 . S
C28 H95 0.961 . S
C28 H96 0.959 . S
C29 C28 1.530 . S
C29 O57 1.412 . S
C29 H93 0.980 . S
C30 C31 1.288 . S
C30 C35 1.377 . S
C30 O57 1.393 . S
C31 C30 1.288 . S
C31 C32 1.369 . S
C31 H97 0.932 . S
C32 C31 1.369 . S
C32 C33 1.398 . S
C32 C36 1.527 . S
C33 C32 1.398 . S
C33 C34 1.380 . S
C33 C47 1.497 . S
C34 C33 1.380 . S
C34 C35 1.383 . S
C34 C37 1.603 . S
C35 C30 1.377 . S
C35 C34 1.383 . S
C35 H98 0.929 . S
C36 C32 1.527 . S
C36 H99 0.961 . S
C36 H100 0.959 . S
C36 H101 0.959 . S
C37 C34 1.603 . S
C37 H102 0.960 . S
C37 H103 0.962 . S
C37 H104 0.961 . S
C38 C5 1.587 . S
C38 C39 1.360 . S
C38 C51 1.412 . S
C39 C38 1.360 . S
C39 C40 1.365 . S
C39 H105 0.929 . S
C40 C15 1.553 1_455 S
C40 C39 1.365 . S
C40 C41 1.404 . S
C41 C40 1.404 . S
C41 C42 1.395 1_455 S
C41 C52 1.451 . S
C42 C41 1.395 1_655 S
C42 C43 1.322 . S
C42 H106 0.930 . S
C43 C42 1.322 . S
C43 C44 1.459 . S
C43 H107 0.929 . S
C44 C43 1.459 . S
C44 C45 1.445 . S
C44 C53 1.395 1_655 S
C45 C23 1.432 . S
C45 C44 1.445 . S
C45 C46 1.370 . S
C46 C45 1.370 . S
C46 C47 1.438 1_655 S
C46 H108 0.930 . S
C47 C33 1.497 . S
C47 C46 1.438 1_455 S
C47 C48 1.360 . S
C48 C47 1.360 . S
C48 C49 1.401 . S
C48 C53 1.446 . S
C49 C48 1.401 . S
C49 C50 1.347 . S
C49 H109 0.929 . S
C50 C49 1.347 . S
C50 C51 1.455 . S
C50 H110 0.930 . S
C51 C38 1.412 . S
C51 C50 1.455 . S
C51 C52 1.331 . S
C52 C41 1.451 . S
C52 C51 1.331 . S
C52 C53 1.497 . S
C53 C44 1.395 1_455 S
C53 C48 1.446 . S
C53 C52 1.497 . S
C54 C55 1.582 . S
C54 H111 0.962 . S
C54 H112 0.959 . S
C54 H113 0.958 . S
C55 C54 1.582 . S
C55 O58 1.458 . S
C55 H84 0.980 . S
O56 C1 1.426 . S
O56 C2 1.334 . S
O57 C29 1.412 . S
O57 C30 1.393 . S
O58 C20 1.435 . S
O58 C55 1.458 . S
O59 C11 1.468 . S
O59 C12 1.408 . S
H60 C1 0.980 . S
H61 C0 0.959 . S
H62 C0 0.959 . S
H63 C0 0.960 . S
H64 C3 0.929 . S
H65 C7 0.929 . S
H66 C8 0.959 . S
H67 C8 0.961 . S
H68 C8 0.961 . S
H69 C9 0.960 . S
H70 C9 0.960 . S
H71 C9 0.961 . S
H72 C11 0.980 . S
H73 C10 0.961 . S
H74 C10 0.960 . S
H75 C10 0.959 . S
H76 C13 0.930 . S
H77 C17 0.931 . S
H78 C18 0.931 1_455 S
H79 C18 0.960 1_455 S
H80 C18 0.999 . S
H81 C19 0.960 . S
H82 C19 0.960 1_455 S
H83 C19 0.960 . S
H84 C55 0.980 . S
H85 C21 0.930 . S
H86 C25 0.930 . S
H87 C26 0.961 . S
H88 C26 0.960 . S
H89 C26 0.958 . S
H90 C27 0.961 . S
H91 C27 0.960 . S
H92 C27 0.960 . S
H93 C29 0.980 . S
H94 C28 0.961 . S
H95 C28 0.961 . S
H96 C28 0.959 . S
H97 C31 0.932 . S
H98 C35 0.929 . S
H99 C36 0.961 . S
H100 C36 0.959 . S
H101 C36 0.959 . S
H102 C37 0.960 . S
H103 C37 0.962 . S
H104 C37 0.961 . S
H105 C39 0.929 . S
H106 C42 0.930 . S
H107 C43 0.929 . S
H108 C46 0.930 . S
H109 C49 0.929 . S
H110 C50 0.930 . S
H111 C54 0.962 . S
H112 C54 0.959 . S
H113 C54 0.958 . S
C114 C115 1.560 . S
C114 H175 0.959 . S
C114 H176 0.959 . S
C114 H177 0.960 . S
C115 C114 1.560 . S
C115 O170 1.426 . S
C115 H174 0.980 . S
C116 C117 1.407 . S
C116 C121 1.418 . S
C116 O170 1.334 . S
C117 C116 1.407 . S
C117 C118 1.360 . S
C117 H178 0.929 . S
C118 C117 1.360 . S
C118 C119 1.401 . S
C118 C122 1.527 . S
C119 C118 1.401 . S
C119 C120 1.405 . S
C119 C152 1.587 . S
C120 C119 1.405 . S
C120 C121 1.332 . S
C120 C123 1.496 . S
C121 C116 1.418 . S
C121 C120 1.332 . S
C121 H179 0.929 . S
C122 C118 1.527 . S
C122 H180 0.959 . S
C122 H181 0.961 . S
C122 H182 0.961 . S
C123 C120 1.496 . S
C123 H183 0.960 . S
C123 H184 0.960 . S
C123 H185 0.961 . S
C124 C125 1.517 . S
C124 H187 0.961 . S
C124 H188 0.960 . S
C124 H189 0.959 . S
C125 C124 1.517 . S
C125 O173 1.468 . S
C125 H186 0.980 . S
C126 C127 1.349 . S
C126 C131 1.367 . S
C126 O173 1.408 . S
C127 C126 1.349 . S
C127 C128 1.407 . S
C127 H190 0.930 . S
C128 C127 1.407 . S
C128 C129 1.449 . S
C128 C132 1.535 . S
C129 C128 1.449 . S
C129 C130 1.384 . S
C129 C154 1.553 . S
C130 C129 1.384 . S
C130 C131 1.364 . S
C130 C133 1.450 . S
C131 C126 1.367 . S
C131 C130 1.364 . S
C131 H191 0.931 . S
C132 C128 1.535 . S
C132 H192 0.959 . S
C132 H193 0.961 . S
C132 H194 0.959 . S
C133 C130 1.450 . S
C133 H195 0.960 . S
C133 H196 0.960 . S
C133 H197 0.960 . S
C134 C135 1.309 . S
C134 C139 1.304 . S
C134 O172 1.435 . S
C135 C134 1.309 . S
C135 C136 1.476 . S
C135 H199 0.930 . S
C136 C135 1.476 . S
C136 C137 1.400 . S
C136 C140 1.567 . S
C137 C136 1.400 . S
C137 C138 1.373 . S
C137 C159 1.432 . S
C138 C137 1.373 . S
C138 C139 1.339 . S
C138 C141 1.530 . S
C139 C134 1.304 . S
C139 C138 1.339 . S
C139 H200 0.930 . S
C140 C136 1.567 . S
C140 H201 0.961 . S
C140 H202 0.960 . S
C140 H203 0.958 . S
C141 C138 1.530 . S
C141 H204 0.961 . S
C141 H205 0.960 . S
C141 H206 0.960 . S
C142 C143 1.530 . S
C142 H208 0.961 . S
C142 H209 0.961 . S
C142 H210 0.959 . S
C143 C142 1.530 . S
C143 O171 1.412 . S
C143 H207 0.980 . S
C144 C145 1.288 . S
C144 C149 1.377 . S
C144 O171 1.393 . S
C145 C144 1.288 . S
C145 C146 1.369 . S
C145 H211 0.932 . S
C146 C145 1.369 . S
C146 C147 1.398 . S
C146 C150 1.527 1_565 S
C147 C146 1.398 . S
C147 C148 1.380 . S
C147 C161 1.497 1_565 S
C148 C147 1.380 . S
C148 C149 1.383 . S
C148 C151 1.603 . S
C149 C144 1.377 . S
C149 C148 1.383 . S
C149 H212 0.929 . S
C150 C146 1.527 1_545 S
C150 H213 0.961 . S
C150 H214 0.959 . S
C150 H215 0.959 . S
C151 C148 1.603 . S
C151 H216 0.960 . S
C151 H217 0.962 1_565 S
C151 H218 0.961 . S
C152 C119 1.587 . S
C152 C153 1.360 . S
C152 C165 1.412 . S
C153 C152 1.360 . S
C153 C154 1.365 1_565 S
C153 H219 0.929 . S
C154 C129 1.553 . S
C154 C153 1.365 1_545 S
C154 C155 1.404 . S
C155 C154 1.404 . S
C155 C156 1.395 . S
C155 C166 1.451 . S
C156 C155 1.395 . S
C156 C157 1.322 . S
C156 H220 0.930 . S
C157 C156 1.322 . S
C157 C158 1.459 . S
C157 H221 0.929 . S
C158 C157 1.459 . S
C158 C159 1.445 . S
C158 C167 1.395 . S
C159 C137 1.432 . S
C159 C158 1.445 . S
C159 C160 1.370 . S
C160 C159 1.370 . S
C160 C161 1.438 . S
C160 H222 0.930 . S
C161 C147 1.497 1_545 S
C161 C160 1.438 . S
C161 C162 1.360 . S
C162 C161 1.360 . S
C162 C163 1.401 1_545 S
C162 C167 1.446 . S
C163 C162 1.401 1_565 S
C163 C164 1.347 . S
C163 H223 0.929 . S
C164 C163 1.347 . S
C164 C165 1.455 . S
C164 H224 0.930 . S
C165 C152 1.412 . S
C165 C164 1.455 . S
C165 C166 1.331 1_565 S
C166 C155 1.451 . S
C166 C165 1.331 1_545 S
C166 C167 1.497 . S
C167 C158 1.395 . S
C167 C162 1.446 . S
C167 C166 1.497 . S
C168 C169 1.582 . S
C168 H225 0.962 . S
C168 H226 0.959 . S
C168 H227 0.958 . S
C169 C168 1.582 . S
C169 O172 1.458 . S
C169 H198 0.980 . S
O170 C115 1.426 . S
O170 C116 1.334 . S
O171 C143 1.412 . S
O171 C144 1.393 . S
O172 C134 1.435 . S
O172 C169 1.458 . S
O173 C125 1.468 . S
O173 C126 1.408 . S
H174 C115 0.980 . S
H175 C114 0.959 . S
H176 C114 0.959 . S
H177 C114 0.960 . S
H178 C117 0.929 . S
H179 C121 0.929 . S
H180 C122 0.959 . S
H181 C122 0.961 . S
H182 C122 0.961 . S
H183 C123 0.960 . S
H184 C123 0.960 . S
H185 C123 0.961 . S
H186 C125 0.980 . S
H187 C124 0.961 . S
H188 C124 0.960 . S
H189 C124 0.959 . S
H190 C127 0.930 . S
H191 C131 0.931 . S
H192 C132 0.959 . S
H193 C132 0.961 . S
H194 C132 0.959 . S
H195 C133 0.960 . S
H196 C133 0.960 . S
H197 C133 0.960 . S
H198 C169 0.980 . S
H199 C135 0.930 . S
H200 C139 0.930 . S
H201 C140 0.961 . S
H202 C140 0.960 . S
H203 C140 0.958 . S
H204 C141 0.961 . S
H205 C141 0.960 . S
H206 C141 0.960 . S
H207 C143 0.980 . S
H208 C142 0.961 . S
H209 C142 0.961 . S
H210 C142 0.959 . S
H211 C145 0.932 . S
H212 C149 0.929 . S
H213 C150 0.961 . S
H214 C150 0.959 . S
H215 C150 0.959 . S
H216 C151 0.960 . S
H217 C151 0.962 1_545 S
H218 C151 0.961 . S
H219 C153 0.929 . S
H220 C156 0.930 . S
H221 C157 0.929 . S
H222 C160 0.930 . S
H223 C163 0.929 . S
H224 C164 0.930 . S
H225 C168 0.962 . S
H226 C168 0.959 . S
H227 C168 0.958 . S
C228 C229 1.560 . S
C228 H289 0.959 . S
C228 H290 0.959 . S
C228 H291 0.960 . S
C229 C228 1.560 . S
C229 O284 1.426 . S
C229 H288 0.980 . S
C230 C231 1.407 . S
C230 C235 1.418 . S
C230 O284 1.334 . S
C231 C230 1.407 . S
C231 C232 1.360 . S
C231 H292 0.929 . S
C232 C231 1.360 . S
C232 C233 1.401 . S
C232 C236 1.527 . S
C233 C232 1.401 . S
C233 C234 1.405 . S
C233 C266 1.587 . S
C234 C233 1.405 . S
C234 C235 1.332 . S
C234 C237 1.496 . S
C235 C230 1.418 . S
C235 C234 1.332 . S
C235 H293 0.929 . S
C236 C232 1.527 . S
C236 H294 0.959 . S
C236 H295 0.961 . S
C236 H296 0.961 . S
C237 C234 1.496 . S
C237 H297 0.960 . S
C237 H298 0.960 . S
C237 H299 0.961 . S
C238 C239 1.517 . S
C238 H301 0.961 . S
C238 H302 0.960 . S
C238 H303 0.959 . S
C239 C238 1.517 . S
C239 O287 1.468 . S
C239 H300 0.980 . S
C240 C241 1.349 . S
C240 C245 1.367 . S
C240 O287 1.408 . S
C241 C240 1.349 . S
C241 C242 1.407 . S
C241 H304 0.930 . S
C242 C241 1.407 . S
C242 C243 1.449 . S
C242 C246 1.535 . S
C243 C242 1.449 . S
C243 C244 1.384 . S
C243 C268 1.553 . S
C244 C243 1.384 . S
C244 C245 1.364 . S
C244 C247 1.450 . S
C245 C240 1.367 . S
C245 C244 1.364 . S
C245 H305 0.931 . S
C246 C242 1.535 . S
C246 H306 0.959 . S
C246 H307 0.961 . S
C246 H308 0.959 . S
C247 C244 1.450 . S
C247 H309 0.960 . S
C247 H310 0.960 . S
C247 H311 0.960 . S
C248 C249 1.309 . S
C248 C253 1.304 . S
C248 O286 1.435 . S
C249 C248 1.309 . S
C249 C250 1.476 . S
C249 H313 0.930 . S
C250 C249 1.476 . S
C250 C251 1.400 . S
C250 C254 1.567 . S
C251 C250 1.400 . S
C251 C252 1.373 . S
C251 C273 1.432 . S
C252 C251 1.373 . S
C252 C253 1.339 . S
C252 C255 1.530 . S
C253 C248 1.304 . S
C253 C252 1.339 . S
C253 H314 0.930 . S
C254 C250 1.567 . S
C254 H315 0.961 . S
C254 H316 0.960 . S
C254 H317 0.958 . S
C255 C252 1.530 . S
C255 H318 0.961 . S
C255 H319 0.960 . S
C255 H320 0.960 . S
C256 C257 1.530 . S
C256 H322 0.961 . S
C256 H323 0.961 . S
C256 H324 0.959 . S
C257 C256 1.530 . S
C257 O285 1.412 . S
C257 H321 0.980 . S
C258 C259 1.288 . S
C258 C263 1.377 . S
C258 O285 1.393 . S
C259 C258 1.288 . S
C259 C260 1.369 . S
C259 H325 0.932 . S
C260 C259 1.369 . S
C260 C261 1.398 . S
C260 C264 1.527 . S
C261 C260 1.398 . S
C261 C262 1.380 . S
C261 C275 1.497 . S
C262 C261 1.380 . S
C262 C263 1.383 . S
C262 C265 1.603 . S
C263 C258 1.377 . S
C263 C262 1.383 . S
C263 H326 0.929 . S
C264 C260 1.527 . S
C264 H327 0.961 . S
C264 H328 0.959 . S
C264 H329 0.959 . S
C265 C262 1.603 . S
C265 H330 0.960 . S
C265 H331 0.962 . S
C265 H332 0.961 . S
C266 C233 1.587 . S
C266 C267 1.360 . S
C266 C279 1.412 . S
C267 C266 1.360 . S
C267 C268 1.365 . S
C267 H333 0.929 . S
C268 C243 1.553 . S
C268 C267 1.365 . S
C268 C269 1.404 . S
C269 C268 1.404 . S
C269 C270 1.395 . S
C269 C280 1.451 . S
C270 C269 1.395 . S
C270 C271 1.322 . S
C270 H334 0.930 . S
C271 C270 1.322 . S
C271 C272 1.459 . S
C271 H335 0.929 . S
C272 C271 1.459 . S
C272 C273 1.445 . S
C272 C281 1.395 . S
C273 C251 1.432 . S
C273 C272 1.445 . S
C273 C274 1.370 . S
C274 C273 1.370 . S
C274 C275 1.438 . S
C274 H336 0.930 . S
C275 C261 1.497 . S
C275 C274 1.438 . S
C275 C276 1.360 . S
C276 C275 1.360 . S
C276 C277 1.401 . S
C276 C281 1.446 . S
C277 C276 1.401 . S
C277 C278 1.347 . S
C277 H337 0.929 . S
C278 C277 1.347 . S
C278 C279 1.455 . S
C278 H338 0.930 . S
C279 C266 1.412 . S
C279 C278 1.455 . S
C279 C280 1.331 . S
C280 C269 1.451 . S
C280 C279 1.331 . S
C280 C281 1.497 . S
C281 C272 1.395 . S
C281 C276 1.446 . S
C281 C280 1.497 . S
C282 C283 1.582 . S
C282 H339 0.962 . S
C282 H340 0.959 . S
C282 H341 0.958 . S
C283 C282 1.582 . S
C283 O286 1.458 . S
C283 H312 0.980 . S
O284 C229 1.426 . S
O284 C230 1.334 . S
O285 C257 1.412 . S
O285 C258 1.393 . S
O286 C248 1.435 . S
O286 C283 1.458 . S
O287 C239 1.468 . S
O287 C240 1.408 . S
H288 C229 0.980 . S
H289 C228 0.959 . S
H290 C228 0.959 . S
H291 C228 0.960 . S
H292 C231 0.929 . S
H293 C235 0.929 . S
H294 C236 0.959 . S
H295 C236 0.961 . S
H296 C236 0.961 . S
H297 C237 0.960 . S
H298 C237 0.960 . S
H299 C237 0.961 . S
H300 C239 0.980 . S
H301 C238 0.961 . S
H302 C238 0.960 . S
H303 C238 0.959 . S
H304 C241 0.930 . S
H305 C245 0.931 . S
H306 C246 0.959 . S
H307 C246 0.961 . S
H308 C246 0.959 . S
H309 C247 0.960 . S
H310 C247 0.960 . S
H311 C247 0.960 . S
H312 C283 0.980 . S
H313 C249 0.930 . S
H314 C253 0.930 . S
H315 C254 0.961 . S
H316 C254 0.960 . S
H317 C254 0.958 . S
H318 C255 0.961 . S
H319 C255 0.960 . S
H320 C255 0.960 . S
H321 C257 0.980 . S
H322 C256 0.961 . S
H323 C256 0.961 . S
H324 C256 0.959 . S
H325 C259 0.932 . S
H326 C263 0.929 . S
H327 C264 0.961 . S
H328 C264 0.959 . S
H329 C264 0.959 . S
H330 C265 0.960 . S
H331 C265 0.962 . S
H332 C265 0.961 . S
H333 C267 0.929 . S
H334 C270 0.930 . S
H335 C271 0.929 . S
H336 C274 0.930 . S
H337 C277 0.929 . S
H338 C278 0.930 . S
H339 C282 0.962 . S
H340 C282 0.959 . S
H341 C282 0.958 . S
C342 C343 1.560 . S
C342 H403 0.959 . S
C342 H404 0.959 . S
C342 H405 0.960 . S
C343 C342 1.560 . S
C343 O398 1.426 . S
C343 H402 0.980 . S
C344 C345 1.407 . S
C344 C349 1.418 . S
C344 O398 1.334 . S
C345 C344 1.407 . S
C345 C346 1.360 . S
C345 H406 0.929 . S
C346 C345 1.360 . S
C346 C347 1.401 . S
C346 C350 1.527 . S
C347 C346 1.401 . S
C347 C348 1.405 . S
C347 C380 1.587 . S
C348 C347 1.405 . S
C348 C349 1.332 . S
C348 C351 1.496 . S
C349 C344 1.418 . S
C349 C348 1.332 . S
C349 H407 0.929 . S
C350 C346 1.527 . S
C350 H408 0.959 . S
C350 H409 0.961 . S
C350 H410 0.961 . S
C351 C348 1.496 . S
C351 H411 0.960 . S
C351 H412 0.960 . S
C351 H413 0.961 . S
C352 C353 1.517 . S
C352 H415 0.961 . S
C352 H416 0.960 . S
C352 H417 0.959 . S
C353 C352 1.517 . S
C353 O401 1.468 . S
C353 H414 0.980 . S
C354 C355 1.349 . S
C354 C359 1.367 . S
C354 O401 1.408 . S
C355 C354 1.349 . S
C355 C356 1.407 . S
C355 H418 0.930 . S
C356 C355 1.407 . S
C356 C357 1.449 . S
C356 C360 1.535 . S
C357 C356 1.449 . S
C357 C358 1.384 . S
C357 C382 1.553 1_655 S
C358 C357 1.384 . S
C358 C359 1.364 . S
C358 C361 1.450 . S
C359 C354 1.367 . S
C359 C358 1.364 . S
C359 H419 0.931 . S
C360 C356 1.535 . S
C360 H420 0.959 1_655 S
C360 H421 0.961 1_655 S
C360 H422 0.959 . S
C361 C358 1.450 . S
C361 H423 0.960 . S
C361 H424 0.960 1_655 S
C361 H425 0.960 . S
C362 C363 1.309 . S
C362 C367 1.304 . S
C362 O400 1.435 . S
C363 C362 1.309 . S
C363 C364 1.476 . S
C363 H427 0.930 . S
C364 C363 1.476 . S
C364 C365 1.400 . S
C364 C368 1.567 . S
C365 C364 1.400 . S
C365 C366 1.373 . S
C365 C387 1.432 . S
C366 C365 1.373 . S
C366 C367 1.339 . S
C366 C369 1.530 . S
C367 C362 1.304 . S
C367 C366 1.339 . S
C367 H428 0.930 . S
C368 C364 1.567 . S
C368 H429 0.961 . S
C368 H430 0.960 . S
C368 H431 0.958 . S
C369 C366 1.530 . S
C369 H432 0.961 . S
C369 H433 0.960 . S
C369 H434 0.960 . S
C370 C371 1.530 . S
C370 H436 0.961 . S
C370 H437 0.961 . S
C370 H438 0.959 . S
C371 C370 1.530 . S
C371 O399 1.412 . S
C371 H435 0.980 . S
C372 C373 1.288 . S
C372 C377 1.377 . S
C372 O399 1.393 . S
C373 C372 1.288 . S
C373 C374 1.369 . S
C373 H439 0.932 . S
C374 C373 1.369 . S
C374 C375 1.398 . S
C374 C378 1.527 . S
C375 C374 1.398 . S
C375 C376 1.380 . S
C375 C389 1.497 . S
C376 C375 1.380 . S
C376 C377 1.383 . S
C376 C379 1.603 . S
C377 C372 1.377 . S
C377 C376 1.383 . S
C377 H440 0.929 . S
C378 C374 1.527 . S
C378 H441 0.961 . S
C378 H442 0.959 . S
C378 H443 0.959 . S
C379 C376 1.603 . S
C379 H444 0.960 . S
C379 H445 0.962 . S
C379 H446 0.961 . S
C380 C347 1.587 . S
C380 C381 1.360 . S
C380 C393 1.412 . S
C381 C380 1.360 . S
C381 C382 1.365 . S
C381 H447 0.929 . S
C382 C357 1.553 1_455 S
C382 C381 1.365 . S
C382 C383 1.404 . S
C383 C382 1.404 . S
C383 C384 1.395 1_455 S
C383 C394 1.451 . S
C384 C383 1.395 1_655 S
C384 C385 1.322 . S
C384 H448 0.930 . S
C385 C384 1.322 . S
C385 C386 1.459 . S
C385 H449 0.929 . S
C386 C385 1.459 . S
C386 C387 1.445 . S
C386 C395 1.395 1_655 S
C387 C365 1.432 . S
C387 C386 1.445 . S
C387 C388 1.370 . S
C388 C387 1.370 . S
C388 C389 1.438 1_655 S
C388 H450 0.930 . S
C389 C375 1.497 . S
C389 C388 1.438 1_455 S
C389 C390 1.360 . S
C390 C389 1.360 . S
C390 C391 1.401 . S
C390 C395 1.446 . S
C391 C390 1.401 . S
C391 C392 1.347 . S
C391 H451 0.929 . S
C392 C391 1.347 . S
C392 C393 1.455 . S
C392 H452 0.930 . S
C393 C380 1.412 . S
C393 C392 1.455 . S
C393 C394 1.331 . S
C394 C383 1.451 . S
C394 C393 1.331 . S
C394 C395 1.497 . S
C395 C386 1.395 1_455 S
C395 C390 1.446 . S
C395 C394 1.497 . S
C396 C397 1.582 . S
C396 H453 0.962 . S
C396 H454 0.959 . S
C396 H455 0.958 . S
C397 C396 1.582 . S
C397 O400 1.458 . S
C397 H426 0.980 . S
O398 C343 1.426 . S
O398 C344 1.334 . S
O399 C371 1.412 . S
O399 C372 1.393 . S
O400 C362 1.435 . S
O400 C397 1.458 . S
O401 C353 1.468 . S
O401 C354 1.408 . S
H402 C343 0.980 . S
H403 C342 0.959 . S
H404 C342 0.959 . S
H405 C342 0.960 . S
H406 C345 0.929 . S
H407 C349 0.929 . S
H408 C350 0.959 . S
H409 C350 0.961 . S
H410 C350 0.961 . S
H411 C351 0.960 . S
H412 C351 0.960 . S
H413 C351 0.961 . S
H414 C353 0.980 . S
H415 C352 0.961 . S
H416 C352 0.960 . S
H417 C352 0.959 . S
H418 C355 0.930 . S
H419 C359 0.931 . S
H420 C360 0.959 1_455 S
H421 C360 0.961 1_455 S
H422 C360 0.959 . S
H423 C361 0.960 . S
H424 C361 0.960 1_455 S
H425 C361 0.960 . S
H426 C397 0.980 . S
H427 C363 0.930 . S
H428 C367 0.930 . S
H429 C368 0.961 . S
H430 C368 0.960 . S
H431 C368 0.958 . S
H432 C369 0.961 . S
H433 C369 0.960 . S
H434 C369 0.960 . S
H435 C371 0.980 . S
H436 C370 0.961 . S
H437 C370 0.961 . S
H438 C370 0.959 . S
H439 C373 0.932 . S
H440 C377 0.929 . S
H441 C378 0.961 . S
H442 C378 0.959 . S
H443 C378 0.959 . S
H444 C379 0.960 . S
H445 C379 0.962 . S
H446 C379 0.961 . S
H447 C381 0.929 . S
H448 C384 0.930 . S
H449 C385 0.929 . S
H450 C388 0.930 . S
H451 C391 0.929 . S
H452 C392 0.930 . S
H453 C396 0.962 . S
H454 C396 0.959 . S
H455 C396 0.958 . S
C456 C457 1.560 . S
C456 H517 0.959 . S
C456 H518 0.959 . S
C456 H519 0.960 . S
C457 C456 1.560 . S
C457 O512 1.426 . S
C457 H516 0.980 . S
C458 C459 1.407 . S
C458 C463 1.418 . S
C458 O512 1.334 . S
C459 C458 1.407 . S
C459 C460 1.360 . S
C459 H520 0.929 . S
C460 C459 1.360 . S
C460 C461 1.401 . S
C460 C464 1.527 . S
C461 C460 1.401 . S
C461 C462 1.405 . S
C461 C494 1.587 . S
C462 C461 1.405 . S
C462 C463 1.332 . S
C462 C465 1.496 . S
C463 C458 1.418 . S
C463 C462 1.332 . S
C463 H521 0.929 . S
C464 C460 1.527 . S
C464 H522 0.959 . S
C464 H523 0.961 . S
C464 H524 0.961 . S
C465 C462 1.496 . S
C465 H525 0.960 . S
C465 H526 0.960 . S
C465 H527 0.961 . S
C466 C467 1.517 . S
C466 H529 0.961 . S
C466 H530 0.960 . S
C466 H531 0.959 . S
C467 C466 1.517 . S
C467 O515 1.468 . S
C467 H528 0.980 . S
C468 C469 1.349 . S
C468 C473 1.367 . S
C468 O515 1.408 . S
C469 C468 1.349 . S
C469 C470 1.407 . S
C469 H532 0.930 . S
C470 C469 1.407 . S
C470 C471 1.449 . S
C470 C474 1.535 . S
C471 C470 1.449 . S
C471 C472 1.384 . S
C471 C496 1.553 . S
C472 C471 1.384 . S
C472 C473 1.364 . S
C472 C475 1.450 . S
C473 C468 1.367 . S
C473 C472 1.364 . S
C473 H533 0.931 . S
C474 C470 1.535 . S
C474 H534 0.959 . S
C474 H535 0.961 . S
C474 H536 0.959 . S
C475 C472 1.450 . S
C475 H537 0.960 . S
C475 H538 0.960 . S
C475 H539 0.960 . S
C476 C477 1.309 . S
C476 C481 1.304 . S
C476 O514 1.435 . S
C477 C476 1.309 . S
C477 C478 1.476 . S
C477 H541 0.930 . S
C478 C477 1.476 . S
C478 C479 1.400 . S
C478 C482 1.567 . S
C479 C478 1.400 . S
C479 C480 1.373 . S
C479 C501 1.432 . S
C480 C479 1.373 . S
C480 C481 1.339 . S
C480 C483 1.530 . S
C481 C476 1.304 . S
C481 C480 1.339 . S
C481 H542 0.930 . S
C482 C478 1.567 . S
C482 H543 0.961 . S
C482 H544 0.960 . S
C482 H545 0.958 . S
C483 C480 1.530 . S
C483 H546 0.961 . S
C483 H547 0.960 . S
C483 H548 0.960 . S
C484 C485 1.530 . S
C484 H550 0.961 . S
C484 H551 0.961 . S
C484 H552 0.959 . S
C485 C484 1.530 . S
C485 O513 1.412 . S
C485 H549 0.980 . S
C486 C487 1.288 . S
C486 C491 1.377 . S
C486 O513 1.393 . S
C487 C486 1.288 . S
C487 C488 1.369 . S
C487 H553 0.932 . S
C488 C487 1.369 . S
C488 C489 1.410 . S
C488 C492 1.527 1_565 S
C489 C488 1.410 . S
C489 C490 1.382 . S
C489 C503 1.486 1_565 S
C490 C489 1.382 . S
C490 C491 1.383 . S
C490 C493 1.603 . S
C491 C486 1.377 . S
C491 C490 1.383 . S
C491 H554 0.929 . S
C492 C488 1.527 1_545 S
C492 H555 0.961 . S
C492 H556 0.959 . S
C492 H557 0.959 . S
C493 C490 1.603 . S
C493 H558 0.960 . S
C493 H559 0.962 1_565 S
C493 H560 0.961 . S
C494 C461 1.587 . S
C494 C495 1.360 . S
C494 C507 1.412 . S
C495 C494 1.360 . S
C495 C496 1.365 1_565 S
C495 H561 0.929 . S
C496 C471 1.553 . S
C496 C495 1.365 1_545 S
C496 C497 1.404 . S
C497 C496 1.404 . S
C497 C498 1.395 . S
C497 C508 1.451 . S
C498 C497 1.395 . S
C498 C499 1.322 . S
C498 H562 0.930 . S
C499 C498 1.322 . S
C499 C500 1.459 1_556 S
C499 H563 0.929 . S
C500 C499 1.459 1_554 S
C500 C501 1.445 . S
C500 C509 1.394 1_554 S
C501 C479 1.432 . S
C501 C500 1.445 . S
C501 C502 1.370 . S
C502 C501 1.370 . S
C502 C503 1.438 . S
C502 H564 0.930 . S
C503 C489 1.486 1_545 S
C503 C502 1.438 . S
C503 C504 1.360 . S
C504 C503 1.360 . S
C504 C505 1.401 1_545 S
C504 C509 1.436 1_554 S
C505 C504 1.401 1_565 S
C505 C506 1.347 1_554 S
C505 H565 0.929 . S
C506 C505 1.347 1_556 S
C506 C507 1.455 . S
C506 H566 0.930 . S
C507 C494 1.412 . S
C507 C506 1.455 . S
C507 C508 1.331 1_565 S
C508 C497 1.451 . S
C508 C507 1.331 1_545 S
C508 C509 1.508 . S
C509 C500 1.394 1_556 S
C509 C504 1.436 1_556 S
C509 C508 1.508 . S
C510 C511 1.582 . S
C510 H567 0.962 . S
C510 H568 0.959 . S
C510 H569 0.958 . S
C511 C510 1.582 . S
C511 O514 1.458 . S
C511 H540 0.980 . S
O512 C457 1.426 . S
O512 C458 1.334 . S
O513 C485 1.412 . S
O513 C486 1.393 . S
O514 C476 1.435 . S
O514 C511 1.458 . S
O515 C467 1.468 . S
O515 C468 1.408 . S
H516 C457 0.980 . S
H517 C456 0.959 . S
H518 C456 0.959 . S
H519 C456 0.960 . S
H520 C459 0.929 . S
H521 C463 0.929 . S
H522 C464 0.959 . S
H523 C464 0.961 . S
H524 C464 0.961 . S
H525 C465 0.960 . S
H526 C465 0.960 . S
H527 C465 0.961 . S
H528 C467 0.980 . S
H529 C466 0.961 . S
H530 C466 0.960 . S
H531 C466 0.959 . S
H532 C469 0.930 . S
H533 C473 0.931 . S
H534 C474 0.959 . S
H535 C474 0.961 . S
H536 C474 0.959 . S
H537 C475 0.960 . S
H538 C475 0.960 . S
H539 C475 0.960 . S
H540 C511 0.980 . S
H541 C477 0.930 . S
H542 C481 0.930 . S
H543 C482 0.961 . S
H544 C482 0.960 . S
H545 C482 0.958 . S
H546 C483 0.961 . S
H547 C483 0.960 . S
H548 C483 0.960 . S
H549 C485 0.980 . S
H550 C484 0.961 . S
H551 C484 0.961 . S
H552 C484 0.959 . S
H553 C487 0.932 . S
H554 C491 0.929 . S
H555 C492 0.961 . S
H556 C492 0.959 . S
H557 C492 0.959 . S
H558 C493 0.960 . S
H559 C493 0.962 1_545 S
H560 C493 0.961 . S
H561 C495 0.929 . S
H562 C498 0.930 . S
H563 C499 0.929 . S
H564 C502 0.930 . S
H565 C505 0.929 . S
H566 C506 0.930 . S
H567 C510 0.962 . S
H568 C510 0.959 . S
H569 C510 0.958 . S
C570 C571 1.560 . S
C570 H631 0.959 . S
C570 H632 0.959 . S
C570 H633 0.960 . S
C571 C570 1.560 . S
C571 O626 1.426 . S
C571 H630 0.980 . S
C572 C573 1.407 . S
C572 C577 1.418 . S
C572 O626 1.334 . S
C573 C572 1.407 . S
C573 C574 1.360 . S
C573 H634 0.929 . S
C574 C573 1.360 . S
C574 C575 1.401 . S
C574 C578 1.527 . S
C575 C574 1.401 . S
C575 C576 1.405 . S
C575 C608 1.587 . S
C576 C575 1.405 . S
C576 C577 1.332 . S
C576 C579 1.496 . S
C577 C572 1.418 . S
C577 C576 1.332 . S
C577 H635 0.929 . S
C578 C574 1.527 . S
C578 H636 0.959 . S
C578 H637 0.961 . S
C578 H638 0.961 . S
C579 C576 1.496 . S
C579 H639 0.960 . S
C579 H640 0.960 . S
C579 H641 0.961 . S
C580 C581 1.517 . S
C580 H643 0.961 . S
C580 H644 0.960 . S
C580 H645 0.959 . S
C581 C580 1.517 . S
C581 O629 1.468 . S
C581 H642 0.980 . S
C582 C583 1.349 . S
C582 C587 1.367 . S
C582 O629 1.408 . S
C583 C582 1.349 . S
C583 C584 1.407 . S
C583 H646 0.930 . S
C584 C583 1.407 . S
C584 C585 1.449 . S
C584 C588 1.535 . S
C585 C584 1.449 . S
C585 C586 1.384 . S
C585 C610 1.553 . S
C586 C585 1.384 . S
C586 C587 1.364 . S
C586 C589 1.450 . S
C587 C582 1.367 . S
C587 C586 1.364 . S
C587 H647 0.931 . S
C588 C584 1.535 . S
C588 H648 0.959 . S
C588 H649 0.961 . S
C588 H650 0.959 . S
C589 C586 1.450 . S
C589 H651 0.960 . S
C589 H652 0.960 . S
C589 H653 0.960 . S
C590 C591 1.309 . S
C590 C595 1.304 . S
C590 O628 1.435 . S
C591 C590 1.309 . S
C591 C592 1.476 . S
C591 H655 0.930 . S
C592 C591 1.476 . S
C592 C593 1.400 . S
C592 C596 1.567 . S
C593 C592 1.400 . S
C593 C594 1.373 . S
C593 C615 1.432 . S
C594 C593 1.373 . S
C594 C595 1.339 . S
C594 C597 1.530 . S
C595 C590 1.304 . S
C595 C594 1.339 . S
C595 H656 0.930 . S
C596 C592 1.567 . S
C596 H657 0.961 . S
C596 H658 0.960 . S
C596 H659 0.958 . S
C597 C594 1.530 . S
C597 H660 0.961 . S
C597 H661 0.960 . S
C597 H662 0.960 . S
C598 C599 1.530 . S
C598 H664 0.961 . S
C598 H665 0.961 . S
C598 H666 0.959 . S
C599 C598 1.530 . S
C599 O627 1.412 . S
C599 H663 0.980 . S
C600 C601 1.288 . S
C600 C605 1.377 . S
C600 O627 1.393 . S
C601 C600 1.288 . S
C601 C602 1.369 . S
C601 H667 0.932 . S
C602 C601 1.369 . S
C602 C603 1.398 . S
C602 C606 1.527 . S
C603 C602 1.398 . S
C603 C604 1.380 . S
C603 C617 1.497 . S
C604 C603 1.380 . S
C604 C605 1.383 . S
C604 C607 1.603 . S
C605 C600 1.377 . S
C605 C604 1.383 . S
C605 H668 0.929 . S
C606 C602 1.527 . S
C606 H669 0.961 . S
C606 H670 0.959 . S
C606 H671 0.959 . S
C607 C604 1.603 . S
C607 H672 0.960 . S
C607 H673 0.962 . S
C607 H674 0.961 . S
C608 C575 1.587 . S
C608 C609 1.360 . S
C608 C621 1.412 . S
C609 C608 1.360 . S
C609 C610 1.365 . S
C609 H675 0.929 . S
C610 C585 1.553 . S
C610 C609 1.365 . S
C610 C611 1.404 . S
C611 C610 1.404 . S
C611 C612 1.395 . S
C611 C622 1.451 . S
C612 C611 1.395 . S
C612 C613 1.322 . S
C612 H676 0.930 . S
C613 C612 1.322 . S
C613 C614 1.459 . S
C613 H677 0.929 . S
C614 C613 1.459 . S
C614 C615 1.445 . S
C614 C623 1.395 . S
C615 C593 1.432 . S
C615 C614 1.445 . S
C615 C616 1.370 . S
C616 C615 1.370 . S
C616 C617 1.438 . S
C616 H678 0.930 . S
C617 C603 1.497 . S
C617 C616 1.438 . S
C617 C618 1.360 . S
C618 C617 1.360 . S
C618 C619 1.401 . S
C618 C623 1.446 . S
C619 C618 1.401 . S
C619 C620 1.347 . S
C619 H679 0.929 . S
C620 C619 1.347 . S
C620 C621 1.455 . S
C620 H680 0.930 . S
C621 C608 1.412 . S
C621 C620 1.455 . S
C621 C622 1.331 . S
C622 C611 1.451 . S
C622 C621 1.331 . S
C622 C623 1.497 . S
C623 C614 1.395 . S
C623 C618 1.446 . S
C623 C622 1.497 . S
C624 C625 1.582 . S
C624 H681 0.962 . S
C624 H682 0.959 . S
C624 H683 0.958 . S
C625 C624 1.582 . S
C625 O628 1.458 . S
C625 H654 0.980 . S
O626 C571 1.426 . S
O626 C572 1.334 . S
O627 C599 1.412 . S
O627 C600 1.393 . S
O628 C590 1.435 . S
O628 C625 1.458 . S
O629 C581 1.468 . S
O629 C582 1.408 . S
H630 C571 0.980 . S
H631 C570 0.959 . S
H632 C570 0.959 . S
H633 C570 0.960 . S
H634 C573 0.929 . S
H635 C577 0.929 . S
H636 C578 0.959 . S
H637 C578 0.961 . S
H638 C578 0.961 . S
H639 C579 0.960 . S
H640 C579 0.960 . S
H641 C579 0.961 . S
H642 C581 0.980 . S
H643 C580 0.961 . S
H644 C580 0.960 . S
H645 C580 0.959 . S
H646 C583 0.930 . S
H647 C587 0.931 . S
H648 C588 0.959 . S
H649 C588 0.961 . S
H650 C588 0.959 . S
H651 C589 0.960 . S
H652 C589 0.960 . S
H653 C589 0.960 . S
H654 C625 0.980 . S
H655 C591 0.930 . S
H656 C595 0.930 . S
H657 C596 0.961 . S
H658 C596 0.960 . S
H659 C596 0.958 . S
H660 C597 0.961 . S
H661 C597 0.960 . S
H662 C597 0.960 . S
H663 C599 0.980 . S
H664 C598 0.961 . S
H665 C598 0.961 . S
H666 C598 0.959 . S
H667 C601 0.932 . S
H668 C605 0.929 . S
H669 C606 0.961 . S
H670 C606 0.959 . S
H671 C606 0.959 . S
H672 C607 0.960 . S
H673 C607 0.962 . S
H674 C607 0.961 . S
H675 C609 0.929 . S
H676 C612 0.930 . S
H677 C613 0.929 . S
H678 C616 0.930 . S
H679 C619 0.929 . S
H680 C620 0.930 . S
H681 C624 0.962 . S
H682 C624 0.959 . S
H683 C624 0.958 . S
O684 Cd685 2.223 . S
O684 C692 1.315 . S
Cd685 O684 2.223 . S
Cd685 O688 2.297 . S
Cd685 O689 2.439 . S
Cd685 O695 2.240 . S
Cd686 O687 2.240 . S
Cd686 O694 2.223 . S
Cd686 O696 2.297 . S
Cd686 O697 2.439 . S
O687 Cd686 2.240 . S
O687 C692 1.279 . S
O688 Cd685 2.297 . S
O688 C690 1.247 . S
O689 Cd685 2.439 . S
O689 C690 1.208 . S
C690 O688 1.247 . S
C690 O689 1.208 . S
C691 O696 1.247 . S
C691 O697 1.208 . S
C692 O684 1.315 . S
C692 O687 1.279 . S
C693 O694 1.315 . S
C693 O695 1.279 . S
O694 Cd686 2.223 . S
O694 C693 1.315 . S
O695 Cd685 2.240 . S
O695 C693 1.279 . S
O696 Cd686 2.297 . S
O696 C691 1.247 . S
O697 Cd686 2.439 . S
O697 C691 1.208 . S
O698 Cd699 2.223 . S
O698 C706 1.315 . S
Cd699 O698 2.223 . S
Cd699 O702 2.297 . S
Cd699 O703 2.439 . S
Cd699 O709 2.240 . S
Cd700 O701 2.240 . S
Cd700 O708 2.223 . S
Cd700 O710 2.297 . S
Cd700 O711 2.439 . S
O701 Cd700 2.240 . S
O701 C706 1.279 . S
O702 Cd699 2.297 . S
O702 C704 1.247 . S
O703 Cd699 2.439 . S
O703 C704 1.208 . S
C704 O702 1.247 . S
C704 O703 1.208 . S
C705 O710 1.247 . S
C705 O711 1.208 . S
C706 O698 1.315 . S
C706 O701 1.279 . S
C707 O708 1.315 . S
C707 O709 1.279 . S
O708 Cd700 2.223 . S
O708 C707 1.315 . S
O709 Cd699 2.240 . S
O709 C707 1.279 . S
O710 Cd700 2.297 . S
O710 C705 1.247 . S
O711 Cd700 2.439 . S
O711 C705 1.208 . S
O712 Cd713 2.223 . S
O712 C720 1.315 . S
Cd713 O712 2.223 . S
Cd713 O716 2.297 . S
Cd713 O717 2.439 . S
Cd713 O723 2.240 . S
Cd714 O715 2.240 . S
Cd714 O722 2.223 . S
Cd714 O724 2.297 . S
Cd714 O725 2.439 . S
O715 Cd714 2.240 . S
O715 C720 1.279 . S
O716 Cd713 2.297 . S
O716 C718 1.247 . S
O717 Cd713 2.439 . S
O717 C718 1.208 . S
C718 O716 1.247 . S
C718 O717 1.208 . S
C719 O724 1.247 . S
C719 O725 1.208 . S
C720 O712 1.315 . S
C720 O715 1.279 . S
C721 O722 1.315 . S
C721 O723 1.279 . S
O722 Cd714 2.223 . S
O722 C721 1.315 . S
O723 Cd713 2.240 . S
O723 C721 1.279 . S
O724 Cd714 2.297 . S
O724 C719 1.247 . S
O725 Cd714 2.439 . S
O725 C719 1.208 . S
O726 Cd727 2.223 . S
O726 C734 1.315 . S
Cd727 O726 2.223 . S
Cd727 O730 2.297 . S
Cd727 O731 2.439 . S
Cd727 O737 2.240 . S
Cd728 O729 2.240 . S
Cd728 O736 2.223 . S
Cd728 O738 2.297 . S
Cd728 O739 2.439 . S
O729 Cd728 2.240 . S
O729 C734 1.279 . S
O730 Cd727 2.297 . S
O730 C732 1.247 . S
O731 Cd727 2.439 . S
O731 C732 1.208 . S
C732 O730 1.247 . S
C732 O731 1.208 . S
C733 O738 1.247 . S
C733 O739 1.208 . S
C734 O726 1.315 . S
C734 O729 1.279 . S
C735 O736 1.315 . S
C735 O737 1.279 . S
O736 Cd728 2.223 . S
O736 C735 1.315 . S
O737 Cd727 2.240 . S
O737 C735 1.279 . S
O738 Cd728 2.297 . S
O738 C733 1.247 . S
O739 Cd728 2.439 . S
O739 C733 1.208 . S
O740 Cd741 2.223 . S
O740 C748 1.315 . S
Cd741 O740 2.223 . S
Cd741 O744 2.297 . S
Cd741 O745 2.439 . S
Cd741 O751 2.240 . S
Cd742 O743 2.240 . S
Cd742 O750 2.223 . S
Cd742 O752 2.297 . S
Cd742 O753 2.439 . S
O743 Cd742 2.240 . S
O743 C748 1.279 . S
O744 Cd741 2.297 . S
O744 C746 1.247 . S
O745 Cd741 2.439 . S
O745 C746 1.208 . S
C746 O744 1.247 . S
C746 O745 1.208 . S
C747 O752 1.247 . S
C747 O753 1.208 . S
C748 O740 1.315 . S
C748 O743 1.279 . S
C749 O750 1.315 . S
C749 O751 1.279 . S
O750 Cd742 2.223 . S
O750 C749 1.315 . S
O751 Cd741 2.240 . S
O751 C749 1.279 . S
O752 Cd742 2.297 . S
O752 C747 1.247 . S
O753 Cd742 2.439 . S
O753 C747 1.208 . S
O754 Cd755 2.223 . S
O754 C762 1.315 . S
Cd755 O754 2.223 . S
Cd755 O758 2.297 . S
Cd755 O759 2.439 . S
Cd755 O765 2.240 . S
Cd756 O757 2.240 . S
Cd756 O764 2.223 . S
Cd756 O766 2.297 . S
Cd756 O767 2.439 . S
O757 Cd756 2.240 . S
O757 C762 1.279 . S
O758 Cd755 2.297 . S
O758 C760 1.247 . S
O759 Cd755 2.439 . S
O759 C760 1.208 . S
C760 O758 1.247 . S
C760 O759 1.208 . S
C761 O766 1.247 . S
C761 O767 1.208 . S
C762 O754 1.315 . S
C762 O757 1.279 . S
C763 O764 1.315 . S
C763 O765 1.279 . S
O764 Cd756 2.223 . S
O764 C763 1.315 . S
O765 Cd755 2.240 . S
O765 C763 1.279 . S
O766 Cd756 2.297 . S
O766 C761 1.247 . S
O767 Cd756 2.439 . S
O767 C761 1.208 . S
C768 C769 1.349 . S
C768 C770 1.327 . S
C768 H793 0.950 . S
C769 C768 1.349 . S
C769 C785 1.349 . S
C770 C768 1.327 . S
C770 C789 1.429 . S
C770 H794 0.950 . S
C771 C788 1.574 . S
C771 C790 1.368 . S
C771 H795 0.949 . S
H772 C776 0.949 . S
C773 C774 1.349 . S
C773 C775 1.327 . S
C773 H796 0.950 . S
C774 C773 1.349 . S
C774 C786 1.349 . S
C775 C773 1.327 . S
C775 C791 1.429 . S
C775 H797 0.950 . S
C776 H772 0.949 . S
C776 C784 1.574 . S
C776 C792 1.368 . S
H777 C785 0.950 . S
H778 C783 0.950 . S
H779 C784 0.949 . S
H780 C786 0.950 . S
H781 C787 0.950 . S
H782 C788 0.949 . S
C783 H778 0.950 . S
C783 C785 1.327 . S
C783 C789 1.429 . S
C784 C776 1.574 . S
C784 H779 0.949 . S
C784 C790 1.368 . S
C785 C769 1.349 . S
C785 H777 0.950 . S
C785 C783 1.327 . S
C786 C774 1.349 . S
C786 H780 0.950 . S
C786 C787 1.327 . S
C787 H781 0.950 . S
C787 C786 1.327 . S
C787 C791 1.429 . S
C788 C771 1.574 . S
C788 H782 0.949 . S
C788 C792 1.368 . S
C789 C770 1.429 . S
C789 C783 1.429 . S
C789 C790 1.523 . S
C790 C771 1.368 . S
C790 C784 1.368 . S
C790 C789 1.523 . S
C791 C775 1.429 . S
C791 C787 1.429 . S
C791 C792 1.523 . S
C792 C776 1.368 . S
C792 C788 1.368 . S
C792 C791 1.523 . S
H793 C768 0.950 . S
H794 C770 0.950 . S
H795 C771 0.949 . S
H796 C773 0.950 . S
H797 C775 0.950 . S
C798 C799 1.349 . S
C798 C800 1.327 . S
C798 H823 0.950 . S
C799 C798 1.349 . S
C799 C815 1.349 . S
C800 C798 1.327 . S
C800 C819 1.429 . S
C800 H824 0.950 . S
C801 C818 1.574 . S
C801 C820 1.368 . S
C801 H825 0.949 . S
H802 C806 0.949 . S
C803 C804 1.349 . S
C803 C805 1.327 . S
C803 H826 0.950 . S
C804 C803 1.349 . S
C804 C816 1.349 . S
C805 C803 1.327 . S
C805 C821 1.429 . S
C805 H827 0.950 . S
C806 H802 0.949 . S
C806 C814 1.574 . S
C806 C822 1.368 . S
H807 C815 0.950 . S
H808 C813 0.950 . S
H809 C814 0.949 . S
H810 C816 0.950 . S
H811 C817 0.950 . S
H812 C818 0.949 . S
C813 H808 0.950 . S
C813 C815 1.327 . S
C813 C819 1.429 . S
C814 C806 1.574 . S
C814 H809 0.949 . S
C814 C820 1.368 . S
C815 C799 1.349 . S
C815 H807 0.950 . S
C815 C813 1.327 . S
C816 C804 1.349 . S
C816 H810 0.950 . S
C816 C817 1.327 . S
C817 H811 0.950 . S
C817 C816 1.327 . S
C817 C821 1.429 . S
C818 C801 1.574 . S
C818 H812 0.949 . S
C818 C822 1.368 . S
C819 C800 1.429 . S
C819 C813 1.429 . S
C819 C820 1.523 . S
C820 C801 1.368 . S
C820 C814 1.368 . S
C820 C819 1.523 . S
C821 C805 1.429 . S
C821 C817 1.429 . S
C821 C822 1.523 . S
C822 C806 1.368 . S
C822 C818 1.368 . S
C822 C821 1.523 . S
H823 C798 0.950 . S
H824 C800 0.950 . S
H825 C801 0.949 . S
H826 C803 0.950 . S
H827 C805 0.950 . S
C828 C829 1.349 . S
C828 C830 1.327 . S
C828 H853 0.950 . S
C829 C828 1.349 . S
C829 C845 1.349 . S
C830 C828 1.327 . S
C830 C849 1.429 . S
C830 H854 0.950 . S
C831 C848 1.574 . S
C831 C850 1.368 . S
C831 H855 0.949 . S
H832 C836 0.949 . S
C833 C834 1.349 . S
C833 C835 1.327 . S
C833 H856 0.950 . S
C834 C833 1.349 . S
C834 C846 1.349 . S
C835 C833 1.327 . S
C835 C851 1.429 . S
C835 H857 0.950 . S
C836 H832 0.949 . S
C836 C844 1.574 . S
C836 C852 1.368 . S
H837 C845 0.950 . S
H838 C843 0.950 . S
H839 C844 0.949 . S
H840 C846 0.950 . S
H841 C847 0.950 . S
H842 C848 0.949 . S
C843 H838 0.950 . S
C843 C845 1.327 . S
C843 C849 1.429 . S
C844 C836 1.574 . S
C844 H839 0.949 . S
C844 C850 1.368 . S
C845 C829 1.349 . S
C845 H837 0.950 . S
C845 C843 1.327 . S
C846 C834 1.349 . S
C846 H840 0.950 . S
C846 C847 1.327 . S
C847 H841 0.950 . S
C847 C846 1.327 . S
C847 C851 1.429 . S
C848 C831 1.574 . S
C848 H842 0.949 . S
C848 C852 1.368 . S
C849 C830 1.429 . S
C849 C843 1.429 . S
C849 C850 1.523 . S
C850 C831 1.368 . S
C850 C844 1.368 . S
C850 C849 1.523 . S
C851 C835 1.429 . S
C851 C847 1.429 . S
C851 C852 1.523 . S
C852 C836 1.368 . S
C852 C848 1.368 . S
C852 C851 1.523 . S
H853 C828 0.950 . S
H854 C830 0.950 . S
H855 C831 0.949 . S
H856 C833 0.950 . S
H857 C835 0.950 . S
C858 C859 1.349 . S
C858 C860 1.327 . S
C858 H883 0.950 . S
C859 C858 1.349 . S
C859 C875 1.349 . S
C860 C858 1.327 . S
C860 C879 1.429 . S
C860 H884 0.950 . S
C861 C878 1.574 . S
C861 C880 1.368 . S
C861 H885 0.949 . S
H862 C866 0.949 . S
C863 C864 1.349 . S
C863 C865 1.327 . S
C863 H886 0.950 . S
C864 C863 1.349 . S
C864 C876 1.349 . S
C865 C863 1.327 . S
C865 C881 1.429 . S
C865 H887 0.950 . S
C866 H862 0.949 . S
C866 C874 1.574 . S
C866 C882 1.368 . S
H867 C875 0.950 . S
H868 C873 0.950 . S
H869 C874 0.949 . S
H870 C876 0.950 . S
H871 C877 0.950 . S
H872 C878 0.949 . S
C873 H868 0.950 . S
C873 C875 1.327 . S
C873 C879 1.429 . S
C874 C866 1.574 . S
C874 H869 0.949 . S
C874 C880 1.368 . S
C875 C859 1.349 . S
C875 H867 0.950 . S
C875 C873 1.327 . S
C876 C864 1.349 . S
C876 H870 0.950 . S
C876 C877 1.327 . S
C877 H871 0.950 . S
C877 C876 1.327 . S
C877 C881 1.429 . S
C878 C861 1.574 . S
C878 H872 0.949 . S
C878 C882 1.368 . S
C879 C860 1.429 . S
C879 C873 1.429 . S
C879 C880 1.523 . S
C880 C861 1.368 . S
C880 C874 1.368 . S
C880 C879 1.523 . S
C881 C865 1.429 . S
C881 C877 1.429 . S
C881 C882 1.523 . S
C882 C866 1.368 . S
C882 C878 1.368 . S
C882 C881 1.523 . S
H883 C858 0.950 . S
H884 C860 0.950 . S
H885 C861 0.949 . S
H886 C863 0.950 . S
H887 C865 0.950 . S
C888 C889 1.349 . S
C888 C890 1.327 . S
C888 H913 0.950 . S
C889 C888 1.349 . S
C889 C905 1.349 . S
C890 C888 1.327 . S
C890 C909 1.429 . S
C890 H914 0.950 . S
C891 C908 1.574 . S
C891 C910 1.368 . S
C891 H915 0.949 . S
H892 C896 0.949 . S
C893 C894 1.349 . S
C893 C895 1.327 . S
C893 H916 0.950 . S
C894 C893 1.349 . S
C894 C906 1.349 . S
C895 C893 1.327 . S
C895 C911 1.429 . S
C895 H917 0.950 . S
C896 H892 0.949 . S
C896 C904 1.574 . S
C896 C912 1.368 . S
H897 C905 0.950 . S
H898 C903 0.950 . S
H899 C904 0.949 . S
H900 C906 0.950 . S
H901 C907 0.950 . S
H902 C908 0.949 . S
C903 H898 0.950 . S
C903 C905 1.327 . S
C903 C909 1.429 . S
C904 C896 1.574 . S
C904 H899 0.949 . S
C904 C910 1.368 . S
C905 C889 1.349 . S
C905 H897 0.950 . S
C905 C903 1.327 . S
C906 C894 1.349 . S
C906 H900 0.950 . S
C906 C907 1.327 . S
C907 H901 0.950 . S
C907 C906 1.327 . S
C907 C911 1.429 . S
C908 C891 1.574 . S
C908 H902 0.949 . S
C908 C912 1.368 . S
C909 C890 1.429 . S
C909 C903 1.429 . S
C909 C910 1.523 . S
C910 C891 1.368 . S
C910 C904 1.368 . S
C910 C909 1.523 . S
C911 C895 1.429 . S
C911 C907 1.429 . S
C911 C912 1.523 . S
C912 C896 1.368 . S
C912 C908 1.368 . S
C912 C911 1.523 . S
H913 C888 0.950 . S
H914 C890 0.950 . S
H915 C891 0.949 . S
H916 C893 0.950 . S
H917 C895 0.950 . S
C918 C919 1.349 . S
C918 C920 1.327 . S
C918 H943 0.950 . S
C919 C918 1.349 . S
C919 C935 1.349 . S
C920 C918 1.327 . S
C920 C939 1.429 . S
C920 H944 0.950 . S
C921 C938 1.574 . S
C921 C940 1.368 . S
C921 H945 0.949 . S
H922 C926 0.949 . S
C923 C924 1.349 . S
C923 C925 1.327 . S
C923 H946 0.950 . S
C924 C923 1.349 . S
C924 C936 1.349 . S
C925 C923 1.327 . S
C925 C941 1.429 . S
C925 H947 0.950 . S
C926 H922 0.949 . S
C926 C934 1.574 . S
C926 C942 1.368 . S
H927 C935 0.950 . S
H928 C933 0.950 . S
H929 C934 0.949 . S
H930 C936 0.950 . S
H931 C937 0.950 . S
H932 C938 0.949 . S
C933 H928 0.950 . S
C933 C935 1.327 . S
C933 C939 1.429 . S
C934 C926 1.574 . S
C934 H929 0.949 . S
C934 C940 1.368 . S
C935 C919 1.349 . S
C935 H927 0.950 . S
C935 C933 1.327 . S
C936 C924 1.349 . S
C936 H930 0.950 . S
C936 C937 1.327 . S
C937 H931 0.950 . S
C937 C936 1.327 . S
C937 C941 1.429 . S
C938 C921 1.574 . S
C938 H932 0.949 . S
C938 C942 1.368 . S
C939 C920 1.429 . S
C939 C933 1.429 . S
C939 C940 1.523 . S
C940 C921 1.368 . S
C940 C934 1.368 . S
C940 C939 1.523 . S
C941 C925 1.429 . S
C941 C937 1.429 . S
C941 C942 1.523 . S
C942 C926 1.368 . S
C942 C938 1.368 . S
C942 C941 1.523 . S
H943 C918 0.950 . S
H944 C920 0.950 . S
H945 C921 0.949 . S
H946 C923 0.950 . S
H947 C925 0.950 . S
C948 C949 1.349 . S
C948 C950 1.327 . S
C948 H973 0.950 . S
C949 C948 1.349 . S
C949 C965 1.349 . S
C950 C948 1.327 . S
C950 C969 1.429 . S
C950 H974 0.950 . S
C951 C968 1.574 . S
C951 C970 1.368 . S
C951 H975 0.949 . S
H952 C956 0.949 . S
C953 C954 1.349 . S
C953 C955 1.327 . S
C953 H976 0.950 . S
C954 C953 1.349 . S
C954 C966 1.349 . S
C955 C953 1.327 . S
C955 C971 1.429 . S
C955 H977 0.950 . S
C956 H952 0.949 . S
C956 C964 1.574 . S
C956 C972 1.368 . S
H957 C965 0.950 . S
H958 C963 0.950 . S
H959 C964 0.949 . S
H960 C966 0.950 . S
H961 C967 0.950 . S
H962 C968 0.949 . S
C963 H958 0.950 . S
C963 C965 1.327 . S
C963 C969 1.429 . S
C964 C956 1.574 . S
C964 H959 0.949 . S
C964 C970 1.368 . S
C965 C949 1.349 . S
C965 H957 0.950 . S
C965 C963 1.327 . S
C966 C954 1.349 . S
C966 H960 0.950 . S
C966 C967 1.327 . S
C967 H961 0.950 . S
C967 C966 1.327 . S
C967 C971 1.429 . S
C968 C951 1.574 . S
C968 H962 0.949 . S
C968 C972 1.368 . S
C969 C950 1.429 . S
C969 C963 1.429 . S
C969 C970 1.523 . S
C970 C951 1.368 . S
C970 C964 1.368 . S
C970 C969 1.523 . S
C971 C955 1.429 . S
C971 C967 1.429 . S
C971 C972 1.523 . S
C972 C956 1.368 . S
C972 C968 1.368 . S
C972 C971 1.523 . S
H973 C948 0.950 . S
H974 C950 0.950 . S
H975 C951 0.949 . S
H976 C953 0.950 . S
H977 C955 0.950 . S
C978 C979 1.349 . S
C978 C980 1.327 . S
C978 H1003 0.950 . S
C979 C978 1.349 . S
C979 C995 1.349 . S
C980 C978 1.327 . S
C980 C999 1.429 . S
C980 H1004 0.950 . S
C981 C998 1.574 . S
C981 C1000 1.368 . S
C981 H1005 0.949 . S
H982 C986 0.949 . S
C983 C984 1.349 . S
C983 C985 1.327 . S
C983 H1006 0.950 . S
C984 C983 1.349 . S
C984 C996 1.349 . S
C985 C983 1.327 . S
C985 C1001 1.429 . S
C985 H1007 0.950 . S
C986 H982 0.949 . S
C986 C994 1.574 . S
C986 C1002 1.368 . S
H987 C995 0.950 . S
H988 C993 0.950 . S
H989 C994 0.949 . S
H990 C996 0.950 . S
H991 C997 0.950 . S
H992 C998 0.949 . S
C993 H988 0.950 . S
C993 C995 1.327 . S
C993 C999 1.429 . S
C994 C986 1.574 . S
C994 H989 0.949 . S
C994 C1000 1.368 . S
C995 C979 1.349 . S
C995 H987 0.950 . S
C995 C993 1.327 . S
C996 C984 1.349 . S
C996 H990 0.950 . S
C996 C997 1.327 . S
C997 H991 0.950 . S
C997 C996 1.327 . S
C997 C1001 1.429 . S
C998 C981 1.574 . S
C998 H992 0.949 . S
C998 C1002 1.368 . S
C999 C980 1.429 . S
C999 C993 1.429 . S
C999 C1000 1.523 . S
C1000 C981 1.368 . S
C1000 C994 1.368 . S
C1000 C999 1.523 . S
C1001 C985 1.429 . S
C1001 C997 1.429 . S
C1001 C1002 1.523 . S
C1002 C986 1.368 . S
C1002 C998 1.368 . S
C1002 C1001 1.523 . S
H1003 C978 0.950 . S
H1004 C980 0.950 . S
H1005 C981 0.949 . S
H1006 C983 0.950 . S
H1007 C985 0.950 . S
C1008 C1009 1.349 . S
C1008 C1010 1.327 . S
C1008 H1033 0.950 . S
C1009 C1008 1.349 . S
C1009 C1025 1.349 . S
C1010 C1008 1.327 . S
C1010 C1029 1.429 . S
C1010 H1034 0.950 . S
C1011 C1028 1.574 . S
C1011 C1030 1.368 . S
C1011 H1035 0.949 . S
H1012 C1016 0.949 . S
C1013 C1014 1.349 . S
C1013 C1015 1.327 . S
C1013 H1036 0.950 . S
C1014 C1013 1.349 . S
C1014 C1026 1.349 . S
C1015 C1013 1.327 . S
C1015 C1031 1.429 . S
C1015 H1037 0.950 . S
C1016 H1012 0.949 . S
C1016 C1024 1.574 . S
C1016 C1032 1.368 . S
H1017 C1025 0.950 . S
H1018 C1023 0.950 . S
H1019 C1024 0.949 . S
H1020 C1026 0.950 . S
H1021 C1027 0.950 . S
H1022 C1028 0.949 . S
C1023 H1018 0.950 . S
C1023 C1025 1.327 . S
C1023 C1029 1.429 . S
C1024 C1016 1.574 . S
C1024 H1019 0.949 . S
C1024 C1030 1.368 . S
C1025 C1009 1.349 . S
C1025 H1017 0.950 . S
C1025 C1023 1.327 . S
C1026 C1014 1.349 . S
C1026 H1020 0.950 . S
C1026 C1027 1.327 . S
C1027 H1021 0.950 . S
C1027 C1026 1.327 . S
C1027 C1031 1.429 . S
C1028 C1011 1.574 . S
C1028 H1022 0.949 . S
C1028 C1032 1.368 . S
C1029 C1010 1.429 . S
C1029 C1023 1.429 . S
C1029 C1030 1.523 . S
C1030 C1011 1.368 . S
C1030 C1024 1.368 . S
C1030 C1029 1.523 . S
C1031 C1015 1.429 . S
C1031 C1027 1.429 . S
C1031 C1032 1.523 . S
C1032 C1016 1.368 . S
C1032 C1028 1.368 . S
C1032 C1031 1.523 . S
H1033 C1008 0.950 . S
H1034 C1010 0.950 . S
H1035 C1011 0.949 . S
H1036 C1013 0.950 . S
H1037 C1015 0.950 . S
C1038 C1039 1.349 . S
C1038 C1040 1.327 . S
C1038 H1063 0.950 . S
C1039 C1038 1.349 . S
C1039 C1055 1.349 . S
C1040 C1038 1.327 . S
C1040 C1059 1.429 . S
C1040 H1064 0.950 . S
C1041 C1058 1.574 . S
C1041 C1060 1.368 . S
C1041 H1065 0.949 . S
H1042 C1046 0.949 . S
C1043 C1044 1.349 . S
C1043 C1045 1.327 . S
C1043 H1066 0.950 . S
C1044 C1043 1.349 . S
C1044 C1056 1.349 . S
C1045 C1043 1.327 . S
C1045 C1061 1.429 . S
C1045 H1067 0.950 . S
C1046 H1042 0.949 . S
C1046 C1054 1.574 . S
C1046 C1062 1.368 . S
H1047 C1055 0.950 . S
H1048 C1053 0.950 . S
H1049 C1054 0.949 . S
H1050 C1056 0.950 . S
H1051 C1057 0.950 . S
H1052 C1058 0.949 . S
C1053 H1048 0.950 . S
C1053 C1055 1.327 . S
C1053 C1059 1.429 . S
C1054 C1046 1.574 . S
C1054 H1049 0.949 . S
C1054 C1060 1.368 . S
C1055 C1039 1.349 . S
C1055 H1047 0.950 . S
C1055 C1053 1.327 . S
C1056 C1044 1.349 . S
C1056 H1050 0.950 . S
C1056 C1057 1.327 . S
C1057 H1051 0.950 . S
C1057 C1056 1.327 . S
C1057 C1061 1.429 . S
C1058 C1041 1.574 . S
C1058 H1052 0.949 . S
C1058 C1062 1.368 . S
C1059 C1040 1.429 . S
C1059 C1053 1.429 . S
C1059 C1060 1.523 . S
C1060 C1041 1.368 . S
C1060 C1054 1.368 . S
C1060 C1059 1.523 . S
C1061 C1045 1.429 . S
C1061 C1057 1.429 . S
C1061 C1062 1.523 . S
C1062 C1046 1.368 . S
C1062 C1058 1.368 . S
C1062 C1061 1.523 . S
H1063 C1038 0.950 . S
H1064 C1040 0.950 . S
H1065 C1041 0.949 . S
H1066 C1043 0.950 . S
H1067 C1045 0.950 . S
C1068 C1069 1.349 . S
C1068 C1070 1.327 . S
C1068 H1093 0.950 . S
C1069 C1068 1.349 . S
C1069 C1085 1.349 . S
C1070 C1068 1.327 . S
C1070 C1089 1.429 . S
C1070 H1094 0.950 . S
C1071 C1088 1.574 . S
C1071 C1090 1.368 . S
C1071 H1095 0.949 . S
H1072 C1076 0.949 . S
C1073 C1074 1.349 . S
C1073 C1075 1.327 . S
C1073 H1096 0.950 . S
C1074 C1073 1.349 . S
C1074 C1086 1.349 . S
C1075 C1073 1.327 . S
C1075 C1091 1.429 . S
C1075 H1097 0.950 . S
C1076 H1072 0.949 . S
C1076 C1084 1.574 . S
C1076 C1092 1.368 . S
H1077 C1085 0.950 . S
H1078 C1083 0.950 . S
H1079 C1084 0.949 . S
H1080 C1086 0.950 . S
H1081 C1087 0.950 . S
H1082 C1088 0.949 . S
C1083 H1078 0.950 . S
C1083 C1085 1.327 . S
C1083 C1089 1.429 . S
C1084 C1076 1.574 . S
C1084 H1079 0.949 . S
C1084 C1090 1.368 . S
C1085 C1069 1.349 . S
C1085 H1077 0.950 . S
C1085 C1083 1.327 . S
C1086 C1074 1.349 . S
C1086 H1080 0.950 . S
C1086 C1087 1.327 . S
C1087 H1081 0.950 . S
C1087 C1086 1.327 . S
C1087 C1091 1.429 . S
C1088 C1071 1.574 . S
C1088 H1082 0.949 . S
C1088 C1092 1.368 . S
C1089 C1070 1.429 . S
C1089 C1083 1.429 . S
C1089 C1090 1.523 . S
C1090 C1071 1.368 . S
C1090 C1084 1.368 . S
C1090 C1089 1.523 . S
C1091 C1075 1.429 . S
C1091 C1087 1.429 . S
C1091 C1092 1.523 . S
C1092 C1076 1.368 . S
C1092 C1088 1.368 . S
C1092 C1091 1.523 . S
H1093 C1068 0.950 . S
H1094 C1070 0.950 . S
H1095 C1071 0.949 . S
H1096 C1073 0.950 . S
H1097 C1075 0.950 . S
C1098 C1099 1.349 . S
C1098 C1100 1.327 . S
C1098 H1123 0.950 . S
C1099 C1098 1.349 . S
C1099 C1115 1.349 . S
C1100 C1098 1.327 . S
C1100 C1119 1.429 . S
C1100 H1124 0.950 . S
C1101 C1118 1.574 . S
C1101 C1120 1.368 . S
C1101 H1125 0.949 . S
H1102 C1106 0.949 . S
C1103 C1104 1.349 . S
C1103 C1105 1.327 . S
C1103 H1126 0.950 . S
C1104 C1103 1.349 . S
C1104 C1116 1.349 . S
C1105 C1103 1.327 . S
C1105 C1121 1.429 . S
C1105 H1127 0.950 . S
C1106 H1102 0.949 . S
C1106 C1114 1.574 . S
C1106 C1122 1.368 . S
H1107 C1115 0.950 . S
H1108 C1113 0.950 . S
H1109 C1114 0.949 . S
H1110 C1116 0.950 . S
H1111 C1117 0.950 . S
H1112 C1118 0.949 . S
C1113 H1108 0.950 . S
C1113 C1115 1.327 . S
C1113 C1119 1.429 . S
C1114 C1106 1.574 . S
C1114 H1109 0.949 . S
C1114 C1120 1.368 . S
C1115 C1099 1.349 . S
C1115 H1107 0.950 . S
C1115 C1113 1.327 . S
C1116 C1104 1.349 . S
C1116 H1110 0.950 . S
C1116 C1117 1.327 . S
C1117 H1111 0.950 . S
C1117 C1116 1.327 . S
C1117 C1121 1.429 . S
C1118 C1101 1.574 . S
C1118 H1112 0.949 . S
C1118 C1122 1.368 . S
C1119 C1100 1.429 . S
C1119 C1113 1.429 . S
C1119 C1120 1.523 . S
C1120 C1101 1.368 . S
C1120 C1114 1.368 . S
C1120 C1119 1.523 . S
C1121 C1105 1.429 . S
C1121 C1117 1.429 . S
C1121 C1122 1.523 . S
C1122 C1106 1.368 . S
C1122 C1118 1.368 . S
C1122 C1121 1.523 . S
H1123 C1098 0.950 . S
H1124 C1100 0.950 . S
H1125 C1101 0.949 . S
H1126 C1103 0.950 . S
H1127 C1105 0.950 . S
C1128 C1129 1.349 . S
C1128 C1130 1.327 . S
C1128 H1153 0.950 . S
C1129 C1128 1.349 . S
C1129 C1145 1.349 . S
C1130 C1128 1.327 . S
C1130 C1149 1.429 . S
C1130 H1154 0.950 . S
C1131 C1148 1.574 . S
C1131 C1150 1.368 . S
C1131 H1155 0.949 . S
H1132 C1136 0.949 . S
C1133 C1134 1.349 . S
C1133 C1135 1.327 . S
C1133 H1156 0.950 . S
C1134 C1133 1.349 . S
C1134 C1146 1.349 . S
C1135 C1133 1.327 . S
C1135 C1151 1.429 . S
C1135 H1157 0.950 . S
C1136 H1132 0.949 . S
C1136 C1144 1.574 . S
C1136 C1152 1.368 . S
H1137 C1145 0.950 . S
H1138 C1143 0.950 . S
H1139 C1144 0.949 . S
H1140 C1146 0.950 . S
H1141 C1147 0.950 . S
H1142 C1148 0.949 . S
C1143 H1138 0.950 . S
C1143 C1145 1.327 . S
C1143 C1149 1.429 . S
C1144 C1136 1.574 . S
C1144 H1139 0.949 . S
C1144 C1150 1.368 . S
C1145 C1129 1.349 . S
C1145 H1137 0.950 . S
C1145 C1143 1.327 . S
C1146 C1134 1.349 . S
C1146 H1140 0.950 . S
C1146 C1147 1.327 . S
C1147 H1141 0.950 . S
C1147 C1146 1.327 . S
C1147 C1151 1.429 . S
C1148 C1131 1.574 . S
C1148 H1142 0.949 . S
C1148 C1152 1.368 . S
C1149 C1130 1.429 . S
C1149 C1143 1.429 . S
C1149 C1150 1.523 . S
C1150 C1131 1.368 . S
C1150 C1144 1.368 . S
C1150 C1149 1.523 . S
C1151 C1135 1.429 . S
C1151 C1147 1.429 . S
C1151 C1152 1.523 . S
C1152 C1136 1.368 . S
C1152 C1148 1.368 . S
C1152 C1151 1.523 . S
H1153 C1128 0.950 . S
H1154 C1130 0.950 . S
H1155 C1131 0.949 . S
H1156 C1133 0.950 . S
H1157 C1135 0.950 . S
C1158 C1159 1.349 . S
C1158 C1160 1.327 . S
C1158 H1183 0.950 . S
C1159 C1158 1.349 . S
C1159 C1175 1.349 . S
C1160 C1158 1.327 . S
C1160 C1179 1.429 . S
C1160 H1184 0.950 . S
C1161 C1178 1.574 . S
C1161 C1180 1.368 . S
C1161 H1185 0.949 . S
H1162 C1166 0.949 . S
C1163 C1164 1.349 . S
C1163 C1165 1.327 . S
C1163 H1186 0.950 . S
C1164 C1163 1.349 . S
C1164 C1176 1.349 . S
C1165 C1163 1.327 . S
C1165 C1181 1.429 . S
C1165 H1187 0.950 . S
C1166 H1162 0.949 . S
C1166 C1174 1.574 . S
C1166 C1182 1.368 . S
H1167 C1175 0.950 . S
H1168 C1173 0.950 . S
H1169 C1174 0.949 . S
H1170 C1176 0.950 . S
H1171 C1177 0.950 . S
H1172 C1178 0.949 . S
C1173 H1168 0.950 . S
C1173 C1175 1.327 . S
C1173 C1179 1.429 . S
C1174 C1166 1.574 . S
C1174 H1169 0.949 . S
C1174 C1180 1.368 . S
C1175 C1159 1.349 . S
C1175 H1167 0.950 . S
C1175 C1173 1.327 . S
C1176 C1164 1.349 . S
C1176 H1170 0.950 . S
C1176 C1177 1.327 . S
C1177 H1171 0.950 . S
C1177 C1176 1.327 . S
C1177 C1181 1.429 . S
C1178 C1161 1.574 . S
C1178 H1172 0.949 . S
C1178 C1182 1.368 . S
C1179 C1160 1.429 . S
C1179 C1173 1.429 . S
C1179 C1180 1.523 . S
C1180 C1161 1.368 . S
C1180 C1174 1.368 . S
C1180 C1179 1.523 . S
C1181 C1165 1.429 . S
C1181 C1177 1.429 . S
C1181 C1182 1.523 . S
C1182 C1166 1.368 . S
C1182 C1178 1.368 . S
C1182 C1181 1.523 . S
H1183 C1158 0.950 . S
H1184 C1160 0.950 . S
H1185 C1161 0.949 . S
H1186 C1163 0.950 . S
H1187 C1165 0.950 . S
C1188 C1189 1.349 . S
C1188 C1190 1.327 . S
C1188 H1213 0.950 . S
C1189 C1188 1.349 . S
C1189 C1205 1.349 . S
C1190 C1188 1.327 . S
C1190 C1209 1.429 . S
C1190 H1214 0.950 . S
C1191 C1208 1.574 . S
C1191 C1210 1.368 . S
C1191 H1215 0.949 . S
H1192 C1196 0.949 . S
C1193 C1194 1.349 . S
C1193 C1195 1.327 . S
C1193 H1216 0.950 . S
C1194 C1193 1.349 . S
C1194 C1206 1.349 . S
C1195 C1193 1.327 . S
C1195 C1211 1.429 . S
C1195 H1217 0.950 . S
C1196 H1192 0.949 . S
C1196 C1204 1.574 . S
C1196 C1212 1.368 . S
H1197 C1205 0.950 . S
H1198 C1203 0.950 . S
H1199 C1204 0.949 . S
H1200 C1206 0.950 . S
H1201 C1207 0.950 . S
H1202 C1208 0.949 . S
C1203 H1198 0.950 . S
C1203 C1205 1.327 . S
C1203 C1209 1.429 . S
C1204 C1196 1.574 . S
C1204 H1199 0.949 . S
C1204 C1210 1.368 . S
C1205 C1189 1.349 . S
C1205 H1197 0.950 . S
C1205 C1203 1.327 . S
C1206 C1194 1.349 . S
C1206 H1200 0.950 . S
C1206 C1207 1.327 . S
C1207 H1201 0.950 . S
C1207 C1206 1.327 . S
C1207 C1211 1.429 . S
C1208 C1191 1.574 . S
C1208 H1202 0.949 . S
C1208 C1212 1.368 . S
C1209 C1190 1.429 . S
C1209 C1203 1.429 . S
C1209 C1210 1.523 . S
C1210 C1191 1.368 . S
C1210 C1204 1.368 . S
C1210 C1209 1.523 . S
C1211 C1195 1.429 . S
C1211 C1207 1.429 . S
C1211 C1212 1.523 . S
C1212 C1196 1.368 . S
C1212 C1208 1.368 . S
C1212 C1211 1.523 . S
H1213 C1188 0.950 . S
H1214 C1190 0.950 . S
H1215 C1191 0.949 . S
H1216 C1193 0.950 . S
H1217 C1195 0.950 . S
C1218 C1219 1.349 . S
C1218 C1220 1.327 . S
C1218 H1243 0.950 . S
C1219 C1218 1.349 . S
C1219 C1235 1.349 . S
C1220 C1218 1.327 . S
C1220 C1239 1.429 . S
C1220 H1244 0.950 . S
C1221 C1238 1.574 . S
C1221 C1240 1.368 . S
C1221 H1245 0.949 . S
H1222 C1226 0.979 . S
C1223 C1224 1.349 . S
C1223 C1225 1.327 . S
C1223 H1246 0.950 . S
C1224 C1223 1.349 . S
C1224 C1236 1.349 . S
C1225 C1223 1.327 . S
C1225 C1241 1.429 . S
C1225 H1247 0.950 . S
C1226 H1222 0.979 . S
C1226 C1234 1.547 1_554 S
C1226 C1242 1.362 1_554 S
H1227 C1235 0.950 . S
H1228 C1233 0.950 . S
H1229 C1234 0.949 . S
H1230 C1236 0.950 . S
H1231 C1237 0.950 . S
H1232 C1238 0.949 . S
C1233 H1228 0.950 . S
C1233 C1235 1.327 . S
C1233 C1239 1.429 . S
C1234 C1226 1.547 1_556 S
C1234 H1229 0.949 . S
C1234 C1240 1.368 . S
C1235 C1219 1.349 . S
C1235 H1227 0.950 . S
C1235 C1233 1.327 . S
C1236 C1224 1.349 . S
C1236 H1230 0.950 . S
C1236 C1237 1.327 . S
C1237 H1231 0.950 . S
C1237 C1236 1.327 . S
C1237 C1241 1.429 . S
C1238 C1221 1.574 . S
C1238 H1232 0.949 . S
C1238 C1242 1.368 . S
C1239 C1220 1.429 . S
C1239 C1233 1.429 . S
C1239 C1240 1.523 . S
C1240 C1221 1.368 . S
C1240 C1234 1.368 . S
C1240 C1239 1.523 . S
C1241 C1225 1.429 . S
C1241 C1237 1.429 . S
C1241 C1242 1.523 1_554 S
C1242 C1226 1.362 1_556 S
C1242 C1238 1.368 . S
C1242 C1241 1.523 1_556 S
H1243 C1218 0.950 . S
H1244 C1220 0.950 . S
H1245 C1221 0.949 . S
H1246 C1223 0.950 . S
H1247 C1225 0.950 . S
C1248 C1249 1.349 . S
C1248 C1250 1.327 . S
C1248 H1273 0.950 . S
C1249 C1248 1.349 . S
C1249 C1265 1.349 . S
C1250 C1248 1.327 . S
C1250 C1269 1.429 . S
C1250 H1274 0.950 . S
C1251 C1268 1.574 . S
C1251 C1270 1.368 . S
C1251 H1275 0.949 . S
H1252 C1256 0.949 . S
C1253 C1254 1.349 . S
C1253 C1255 1.327 . S
C1253 H1276 0.950 . S
C1254 C1253 1.349 . S
C1254 C1266 1.349 . S
C1255 C1253 1.327 . S
C1255 C1271 1.429 . S
C1255 H1277 0.950 . S
C1256 H1252 0.949 . S
C1256 C1264 1.574 . S
C1256 C1272 1.368 . S
H1257 C1265 0.950 . S
H1258 C1263 0.950 . S
H1259 C1264 0.949 . S
H1260 C1266 0.950 . S
H1261 C1267 0.950 . S
H1262 C1268 0.949 . S
C1263 H1258 0.950 . S
C1263 C1265 1.327 . S
C1263 C1269 1.429 . S
C1264 C1256 1.574 . S
C1264 H1259 0.949 . S
C1264 C1270 1.368 . S
C1265 C1249 1.349 . S
C1265 H1257 0.950 . S
C1265 C1263 1.327 . S
C1266 C1254 1.349 . S
C1266 H1260 0.950 . S
C1266 C1267 1.327 . S
C1267 H1261 0.950 . S
C1267 C1266 1.327 . S
C1267 C1271 1.429 . S
C1268 C1251 1.574 . S
C1268 H1262 0.949 . S
C1268 C1272 1.368 . S
C1269 C1250 1.429 . S
C1269 C1263 1.429 . S
C1269 C1270 1.523 . S
C1270 C1251 1.368 . S
C1270 C1264 1.368 . S
C1270 C1269 1.523 . S
C1271 C1255 1.429 . S
C1271 C1267 1.429 . S
C1271 C1272 1.523 . S
C1272 C1256 1.368 . S
C1272 C1268 1.368 . S
C1272 C1271 1.523 . S
H1273 C1248 0.950 . S
H1274 C1250 0.950 . S
H1275 C1251 0.949 . S
H1276 C1253 0.950 . S
H1277 C1255 0.950 . S
C1278 C1279 1.349 . S
C1278 C1280 1.327 . S
C1278 H1303 0.950 . S
C1279 C1278 1.349 . S
C1279 C1295 1.349 . S
C1280 C1278 1.327 . S
C1280 C1299 1.429 . S
C1280 H1304 0.950 . S
C1281 C1298 1.574 . S
C1281 C1300 1.368 . S
C1281 H1305 0.949 . S
H1282 C1286 0.949 . S
C1283 C1284 1.349 . S
C1283 C1285 1.327 . S
C1283 H1306 0.950 . S
C1284 C1283 1.349 . S
C1284 C1296 1.349 . S
C1285 C1283 1.327 . S
C1285 C1301 1.429 . S
C1285 H1307 0.950 . S
C1286 H1282 0.949 . S
C1286 C1294 1.574 . S
C1286 C1302 1.368 . S
H1287 C1295 0.950 . S
H1288 C1293 0.950 . S
H1289 C1294 0.949 . S
H1290 C1296 0.950 . S
H1291 C1297 0.950 . S
H1292 C1298 0.949 . S
C1293 H1288 0.950 . S
C1293 C1295 1.327 . S
C1293 C1299 1.429 . S
C1294 C1286 1.574 . S
C1294 H1289 0.949 . S
C1294 C1300 1.368 . S
C1295 C1279 1.349 . S
C1295 H1287 0.950 . S
C1295 C1293 1.327 . S
C1296 C1284 1.349 . S
C1296 H1290 0.950 . S
C1296 C1297 1.327 . S
C1297 H1291 0.950 . S
C1297 C1296 1.327 . S
C1297 C1301 1.429 . S
C1298 C1281 1.574 . S
C1298 H1292 0.949 . S
C1298 C1302 1.368 . S
C1299 C1280 1.429 . S
C1299 C1293 1.429 . S
C1299 C1300 1.523 . S
C1300 C1281 1.368 . S
C1300 C1294 1.368 . S
C1300 C1299 1.523 . S
C1301 C1285 1.429 . S
C1301 C1297 1.429 . S
C1301 C1302 1.523 . S
C1302 C1286 1.368 . S
C1302 C1298 1.368 . S
C1302 C1301 1.523 . S
H1303 C1278 0.950 . S
H1304 C1280 0.950 . S
H1305 C1281 0.949 . S
H1306 C1283 0.950 . S
H1307 C1285 0.950 . S
C1308 C1309 1.349 . S
C1308 C1310 1.327 . S
C1308 H1333 0.950 . S
C1309 C1308 1.349 . S
C1309 C1325 1.349 . S
C1310 C1308 1.327 . S
C1310 C1329 1.429 . S
C1310 H1334 0.950 . S
C1311 C1328 1.574 . S
C1311 C1330 1.368 . S
C1311 H1335 0.949 . S
H1312 C1316 0.949 . S
C1313 C1314 1.349 . S
C1313 C1315 1.327 . S
C1313 H1336 0.950 . S
C1314 C1313 1.349 . S
C1314 C1326 1.349 . S
C1315 C1313 1.327 . S
C1315 C1331 1.429 . S
C1315 H1337 0.950 . S
C1316 H1312 0.949 . S
C1316 C1324 1.574 . S
C1316 C1332 1.368 . S
H1317 C1325 0.950 . S
H1318 C1323 0.950 . S
H1319 C1324 0.949 . S
H1320 C1326 0.950 . S
H1321 C1327 0.950 . S
H1322 C1328 0.949 . S
C1323 H1318 0.950 . S
C1323 C1325 1.327 . S
C1323 C1329 1.429 . S
C1324 C1316 1.574 . S
C1324 H1319 0.949 . S
C1324 C1330 1.368 . S
C1325 C1309 1.349 . S
C1325 H1317 0.950 . S
C1325 C1323 1.327 . S
C1326 C1314 1.349 . S
C1326 H1320 0.950 . S
C1326 C1327 1.327 . S
C1327 H1321 0.950 . S
C1327 C1326 1.327 . S
C1327 C1331 1.429 . S
C1328 C1311 1.574 . S
C1328 H1322 0.949 . S
C1328 C1332 1.368 . S
C1329 C1310 1.429 . S
C1329 C1323 1.429 . S
C1329 C1330 1.523 . S
C1330 C1311 1.368 . S
C1330 C1324 1.368 . S
C1330 C1329 1.523 . S
C1331 C1315 1.429 . S
C1331 C1327 1.429 . S
C1331 C1332 1.523 . S
C1332 C1316 1.368 . S
C1332 C1328 1.368 . S
C1332 C1331 1.523 . S
H1333 C1308 0.950 . S
H1334 C1310 0.950 . S
H1335 C1311 0.949 . S
H1336 C1313 0.950 . S
H1337 C1315 0.950 . S
C1338 C1339 1.349 . S
C1338 C1340 1.327 . S
C1338 H1363 0.950 . S
C1339 C1338 1.349 . S
C1339 C1355 1.349 . S
C1340 C1338 1.327 . S
C1340 C1359 1.429 . S
C1340 H1364 0.950 . S
C1341 C1358 1.574 . S
C1341 C1360 1.368 . S
C1341 H1365 0.949 . S
H1342 C1346 0.949 . S
C1343 C1344 1.349 . S
C1343 C1345 1.327 . S
C1343 H1366 0.950 . S
C1344 C1343 1.349 . S
C1344 C1356 1.349 . S
C1345 C1343 1.327 . S
C1345 C1361 1.429 . S
C1345 H1367 0.950 . S
C1346 H1342 0.949 . S
C1346 C1354 1.574 . S
C1346 C1362 1.368 . S
H1347 C1355 0.950 . S
H1348 C1353 0.950 . S
H1349 C1354 0.949 . S
H1350 C1356 0.950 . S
H1351 C1357 0.950 . S
H1352 C1358 0.949 . S
C1353 H1348 0.950 . S
C1353 C1355 1.327 . S
C1353 C1359 1.429 . S
C1354 C1346 1.574 . S
C1354 H1349 0.949 . S
C1354 C1360 1.368 . S
C1355 C1339 1.349 . S
C1355 H1347 0.950 . S
C1355 C1353 1.327 . S
C1356 C1344 1.349 . S
C1356 H1350 0.950 . S
C1356 C1357 1.327 . S
C1357 H1351 0.950 . S
C1357 C1356 1.327 . S
C1357 C1361 1.429 . S
C1358 C1341 1.574 . S
C1358 H1352 0.949 . S
C1358 C1362 1.368 . S
C1359 C1340 1.429 . S
C1359 C1353 1.429 . S
C1359 C1360 1.523 . S
C1360 C1341 1.368 . S
C1360 C1354 1.368 . S
C1360 C1359 1.523 . S
C1361 C1345 1.429 . S
C1361 C1357 1.429 . S
C1361 C1362 1.523 . S
C1362 C1346 1.368 . S
C1362 C1358 1.368 . S
C1362 C1361 1.523 . S
H1363 C1338 0.950 . S
H1364 C1340 0.950 . S
H1365 C1341 0.949 . S
H1366 C1343 0.950 . S
H1367 C1345 0.950 . S
C1368 C1369 1.349 . S
C1368 C1370 1.327 . S
C1368 H1393 0.950 . S
C1369 C1368 1.349 . S
C1369 C1385 1.349 . S
C1370 C1368 1.327 . S
C1370 C1389 1.429 . S
C1370 H1394 0.950 . S
C1371 C1388 1.574 . S
C1371 C1390 1.368 . S
C1371 H1395 0.949 . S
H1372 C1376 0.949 . S
C1373 C1374 1.349 . S
C1373 C1375 1.327 . S
C1373 H1396 0.950 . S
C1374 C1373 1.349 . S
C1374 C1386 1.349 . S
C1375 C1373 1.327 . S
C1375 C1391 1.429 . S
C1375 H1397 0.950 . S
C1376 H1372 0.949 . S
C1376 C1384 1.574 . S
C1376 C1392 1.368 . S
H1377 C1385 0.950 . S
H1378 C1383 0.950 . S
H1379 C1384 0.949 . S
H1380 C1386 0.950 . S
H1381 C1387 0.950 . S
H1382 C1388 0.949 . S
C1383 H1378 0.950 . S
C1383 C1385 1.327 . S
C1383 C1389 1.429 . S
C1384 C1376 1.574 . S
C1384 H1379 0.949 . S
C1384 C1390 1.368 . S
C1385 C1369 1.349 . S
C1385 H1377 0.950 . S
C1385 C1383 1.327 . S
C1386 C1374 1.349 . S
C1386 H1380 0.950 . S
C1386 C1387 1.327 . S
C1387 H1381 0.950 . S
C1387 C1386 1.327 . S
C1387 C1391 1.429 . S
C1388 C1371 1.574 . S
C1388 H1382 0.949 . S
C1388 C1392 1.368 . S
C1389 C1370 1.429 . S
C1389 C1383 1.429 . S
C1389 C1390 1.523 . S
C1390 C1371 1.368 . S
C1390 C1384 1.368 . S
C1390 C1389 1.523 . S
C1391 C1375 1.429 . S
C1391 C1387 1.429 . S
C1391 C1392 1.523 . S
C1392 C1376 1.368 . S
C1392 C1388 1.368 . S
C1392 C1391 1.523 . S
H1393 C1368 0.950 . S
H1394 C1370 0.950 . S
H1395 C1371 0.949 . S
H1396 C1373 0.950 . S
H1397 C1375 0.950 . S
C1398 C1399 1.349 . S
C1398 C1400 1.327 . S
C1398 H1423 0.950 . S
C1399 C1398 1.349 . S
C1399 C1415 1.349 . S
C1400 C1398 1.327 . S
C1400 C1419 1.429 . S
C1400 H1424 0.950 . S
C1401 C1418 1.574 . S
C1401 C1420 1.368 . S
C1401 H1425 0.949 . S
H1402 C1406 0.949 . S
C1403 C1404 1.349 . S
C1403 C1405 1.327 . S
C1403 H1426 0.950 . S
C1404 C1403 1.349 . S
C1404 C1416 1.349 . S
C1405 C1403 1.327 . S
C1405 C1421 1.429 . S
C1405 H1427 0.950 . S
C1406 H1402 0.949 . S
C1406 C1414 1.574 . S
C1406 C1422 1.368 . S
H1407 C1415 0.950 . S
H1408 C1413 0.950 . S
H1409 C1414 0.949 . S
H1410 C1416 0.950 . S
H1411 C1417 0.950 . S
H1412 C1418 0.949 . S
C1413 H1408 0.950 . S
C1413 C1415 1.327 . S
C1413 C1419 1.429 . S
C1414 C1406 1.574 . S
C1414 H1409 0.949 . S
C1414 C1420 1.368 . S
C1415 C1399 1.349 . S
C1415 H1407 0.950 . S
C1415 C1413 1.327 . S
C1416 C1404 1.349 . S
C1416 H1410 0.950 . S
C1416 C1417 1.327 . S
C1417 H1411 0.950 . S
C1417 C1416 1.327 . S
C1417 C1421 1.429 . S
C1418 C1401 1.574 . S
C1418 H1412 0.949 . S
C1418 C1422 1.368 . S
C1419 C1400 1.429 . S
C1419 C1413 1.429 . S
C1419 C1420 1.523 . S
C1420 C1401 1.368 . S
C1420 C1414 1.368 . S
C1420 C1419 1.523 . S
C1421 C1405 1.429 . S
C1421 C1417 1.429 . S
C1421 C1422 1.523 . S
C1422 C1406 1.368 . S
C1422 C1418 1.368 . S
C1422 C1421 1.523 . S
H1423 C1398 0.950 . S
H1424 C1400 0.950 . S
H1425 C1401 0.949 . S
H1426 C1403 0.950 . S
H1427 C1405 0.950 . S
C1428 C1429 1.349 . S
C1428 C1430 1.327 . S
C1428 H1453 0.950 . S
C1429 C1428 1.349 . S
C1429 C1445 1.349 . S
C1430 C1428 1.327 . S
C1430 C1449 1.429 . S
C1430 H1454 0.950 . S
C1431 C1448 1.574 . S
C1431 C1450 1.368 . S
C1431 H1455 0.949 . S
H1432 C1436 0.949 . S
C1433 C1434 1.349 . S
C1433 C1435 1.327 . S
C1433 H1456 0.950 . S
C1434 C1433 1.349 . S
C1434 C1446 1.349 . S
C1435 C1433 1.327 . S
C1435 C1451 1.429 . S
C1435 H1457 0.950 . S
C1436 H1432 0.949 . S
C1436 C1444 1.574 1_556 S
C1436 C1452 1.368 . S
H1437 C1445 0.950 . S
H1438 C1443 0.950 . S
H1439 C1444 0.949 . S
H1440 C1446 0.950 . S
H1441 C1447 0.950 . S
H1442 C1448 0.949 . S
C1443 H1438 0.950 . S
C1443 C1445 1.327 . S
C1443 C1449 1.429 . S
C1444 C1436 1.574 1_554 S
C1444 H1439 0.949 . S
C1444 C1450 1.368 . S
C1445 C1429 1.349 . S
C1445 H1437 0.950 . S
C1445 C1443 1.327 . S
C1446 C1434 1.349 . S
C1446 H1440 0.950 . S
C1446 C1447 1.327 . S
C1447 H1441 0.950 . S
C1447 C1446 1.327 . S
C1447 C1451 1.429 . S
C1448 C1431 1.574 . S
C1448 H1442 0.949 . S
C1448 C1452 1.368 1_554 S
C1449 C1430 1.429 . S
C1449 C1443 1.429 . S
C1449 C1450 1.523 . S
C1450 C1431 1.368 . S
C1450 C1444 1.368 . S
C1450 C1449 1.523 . S
C1451 C1435 1.429 . S
C1451 C1447 1.429 . S
C1451 C1452 1.523 . S
C1452 C1436 1.368 . S
C1452 C1448 1.368 1_556 S
C1452 C1451 1.523 . S
H1453 C1428 0.950 . S
H1454 C1430 0.950 . S
H1455 C1431 0.949 . S
H1456 C1433 0.950 . S
H1457 C1435 0.950 . S
C1458 C1459 1.349 . S
C1458 C1460 1.327 . S
C1458 H1483 0.950 . S
C1459 C1458 1.349 . S
C1459 C1475 1.349 . S
C1460 C1458 1.327 . S
C1460 C1479 1.429 . S
C1460 H1484 0.950 . S
C1461 C1478 1.574 . S
C1461 C1480 1.368 . S
C1461 H1485 0.949 . S
H1462 C1466 0.949 . S
C1463 C1464 1.349 . S
C1463 C1465 1.327 . S
C1463 H1486 0.950 . S
C1464 C1463 1.349 . S
C1464 C1476 1.349 . S
C1465 C1463 1.327 . S
C1465 C1481 1.429 . S
C1465 H1487 0.950 . S
C1466 H1462 0.949 . S
C1466 C1474 1.574 . S
C1466 C1482 1.368 . S
H1467 C1475 0.950 . S
H1468 C1473 0.950 . S
H1469 C1474 0.949 . S
H1470 C1476 0.950 . S
H1471 C1477 0.950 . S
H1472 C1478 0.949 . S
C1473 H1468 0.950 . S
C1473 C1475 1.327 . S
C1473 C1479 1.429 . S
C1474 C1466 1.574 . S
C1474 H1469 0.949 . S
C1474 C1480 1.368 . S
C1475 C1459 1.349 . S
C1475 H1467 0.950 . S
C1475 C1473 1.327 . S
C1476 C1464 1.349 . S
C1476 H1470 0.950 . S
C1476 C1477 1.327 . S
C1477 H1471 0.950 . S
C1477 C1476 1.327 . S
C1477 C1481 1.429 . S
C1478 C1461 1.574 . S
C1478 H1472 0.949 . S
C1478 C1482 1.368 . S
C1479 C1460 1.429 . S
C1479 C1473 1.429 . S
C1479 C1480 1.523 . S
C1480 C1461 1.368 . S
C1480 C1474 1.368 . S
C1480 C1479 1.523 . S
C1481 C1465 1.429 . S
C1481 C1477 1.429 . S
C1481 C1482 1.523 . S
C1482 C1466 1.368 . S
C1482 C1478 1.368 . S
C1482 C1481 1.523 . S
H1483 C1458 0.950 . S
H1484 C1460 0.950 . S
H1485 C1461 0.949 . S
H1486 C1463 0.950 . S
H1487 C1465 0.950 . S
C774 C761 1.899 . S
C769 C1 1.446 . S
C799 C169 1.034 . S
C804 C690 1.485 . S
C829 C283 1.712 . S
C834 C704 2.013 . S
C859 C397 0.927 . S
C864 C718 1.352 . S
C894 C732 1.738 . S
C889 C457 1.319 . S
C919 C571 1.090 . S
C924 C747 1.254 . S
C949 C115 1.172 . S
C954 C705 1.363 . S
C979 C229 1.323 . S
C984 C719 1.752 . S
C1009 C343 1.087 . S
C1014 C733 1.238 . S
C1044 C746 1.865 . S
C1039 C511 1.576 . S
C1074 C760 1.462 . S
C1069 C625 1.007 . S
C1104 C691 2.032 . S
C1099 C55 1.733 . S
C1129 C29 1.117 . S
C1134 C707 1.450 . S
C1159 C125 1.185 . S
C1164 C721 1.961 . S
C1194 C735 1.475 . S
C1189 C239 0.990 . S
C1219 C353 1.138 . S
C1224 C748 1.897 . S
C1254 C762 1.387 . S
C1249 C485 1.058 . S
C1284 C693 1.867 . S
C1279 C599 1.684 . S
C1314 C763 1.861 . S
C1309 C143 1.682 . S
C1339 C257 1.112 . S
C1344 C692 1.455 . S
C1374 C706 1.801 . S
C1369 C371 1.624 . S
C1399 C467 1.000 . S
C1404 C720 1.476 . S
C1429 C581 1.127 . S
C1434 C734 1.895 . S
C1459 C11 1.034 . S
C1464 C749 1.543 . S
