# Generated by pormake.
# Topology zzz, (3,6)-cn, num edge types: 1
# Building blocks:
#     Node 0, Type 0, BuildingBlock: VETTIZ_charged_linker_0, # of connection points: 3
#     Node 1, Type 0, BuildingBlock: VETTIZ_charged_linker_0, # of connection points: 3
#     Node 2, Type 0, BuildingBlock: VETTIZ_charged_linker_0, # of connection points: 3
#     Node 3, Type 0, BuildingBlock: VETTIZ_charged_linker_0, # of connection points: 3
#     Node 4, Type 0, BuildingBlock: VETTIZ_charged_linker_0, # of connection points: 3
#     Node 5, Type 0, BuildingBlock: VETTIZ_charged_linker_0, # of connection points: 3
#     Node 6, Type 0, BuildingBlock: VETTIZ_charged_linker_0, # of connection points: 3
#     Node 7, Type 0, BuildingBlock: VETTIZ_charged_linker_0, # of connection points: 3
#     Node 8, Type 1, BuildingBlock: PAMTOO_clean_sbu_0, # of connection points: 6
#     Node 9, Type 1, BuildingBlock: PAMTOO_clean_sbu_0, # of connection points: 6
#     Node 10, Type 1, BuildingBlock: PAMTOO_clean_sbu_0, # of connection points: 6
#     Node 11, Type 1, BuildingBlock: PAMTOO_clean_sbu_0, # of connection points: 6
#     Edge 12, Type (0, 1), BuildingBlock: AJUNOK_clean_linker_0, # of connection points: 2
#     Edge 13, Type (0, 1), BuildingBlock: AJUNOK_clean_linker_0, # of connection points: 2
#     Edge 14, Type (0, 1), BuildingBlock: AJUNOK_clean_linker_0, # of connection points: 2
#     Edge 15, Type (0, 1), BuildingBlock: AJUNOK_clean_linker_0, # of connection points: 2
#     Edge 16, Type (0, 1), BuildingBlock: AJUNOK_clean_linker_0, # of connection points: 2
#     Edge 17, Type (0, 1), BuildingBlock: AJUNOK_clean_linker_0, # of connection points: 2
#     Edge 18, Type (0, 1), BuildingBlock: AJUNOK_clean_linker_0, # of connection points: 2
#     Edge 19, Type (0, 1), BuildingBlock: AJUNOK_clean_linker_0, # of connection points: 2
#     Edge 20, Type (0, 1), BuildingBlock: AJUNOK_clean_linker_0, # of connection points: 2
#     Edge 21, Type (0, 1), BuildingBlock: AJUNOK_clean_linker_0, # of connection points: 2
#     Edge 22, Type (0, 1), BuildingBlock: AJUNOK_clean_linker_0, # of connection points: 2
#     Edge 23, Type (0, 1), BuildingBlock: AJUNOK_clean_linker_0, # of connection points: 2
#     Edge 24, Type (0, 1), BuildingBlock: AJUNOK_clean_linker_0, # of connection points: 2
#     Edge 25, Type (0, 1), BuildingBlock: AJUNOK_clean_linker_0, # of connection points: 2
#     Edge 26, Type (0, 1), BuildingBlock: AJUNOK_clean_linker_0, # of connection points: 2
#     Edge 27, Type (0, 1), BuildingBlock: AJUNOK_clean_linker_0, # of connection points: 2
#     Edge 28, Type (0, 1), BuildingBlock: AJUNOK_clean_linker_0, # of connection points: 2
#     Edge 29, Type (0, 1), BuildingBlock: AJUNOK_clean_linker_0, # of connection points: 2
#     Edge 30, Type (0, 1), BuildingBlock: AJUNOK_clean_linker_0, # of connection points: 2
#     Edge 31, Type (0, 1), BuildingBlock: AJUNOK_clean_linker_0, # of connection points: 2
#     Edge 32, Type (0, 1), BuildingBlock: AJUNOK_clean_linker_0, # of connection points: 2
#     Edge 33, Type (0, 1), BuildingBlock: AJUNOK_clean_linker_0, # of connection points: 2
#     Edge 34, Type (0, 1), BuildingBlock: AJUNOK_clean_linker_0, # of connection points: 2
#     Edge 35, Type (0, 1), BuildingBlock: AJUNOK_clean_linker_0, # of connection points: 2
# Relax obj value: 0.393
# Max RMSD: 0.290
# Mean RMSD: 0.226
data_MOF--net-zzz--node1-PAMTOO_clean_sbu_0--node2-VETTIZ_charged_linker_0--edge1-AJUNOK_clean_linker_0
_symmetry_space_group_name_H-M    P1
_symmetry_Int_Tables_number       1
_symmetry_cell_setting            triclinic
loop_
_symmetry_equiv_pos_as_xyz
'x, y, z'
_cell_length_a     50.673445
_cell_length_b     42.822883
_cell_length_c     16.363152
_cell_angle_alpha  91.275615
_cell_angle_beta   79.519288
_cell_angle_gamma 84.268793
loop_
_atom_site_label
_atom_site_type_symbol
_atom_site_fract_x
_atom_site_fract_y
_atom_site_fract_z
_atom_type_partial_charge
C0 C 0.8599 0.54671 0.61096 0.0
C1 C 0.88169 0.56264 0.63055 0.0
C2 C 0.88495 0.59264 0.59838 0.0
C3 C 0.85051 0.58748 0.51695 0.0
C4 C 0.84387 0.56037 0.555 0.0
C5 C 0.81858 0.55007 0.5269 0.0
H6 H 0.72356 0.5888 0.27642 0.0
C7 C 0.83395 0.59451 0.45432 0.0
C8 C 0.81332 0.57463 0.46232 0.0
H9 H 0.72357 0.50929 0.43277 0.0
H10 H 0.76469 0.524 0.47774 0.0
H11 H 0.7503 0.64391 0.37583 0.0
H12 H 0.77143 0.56998 0.19452 0.0
H13 H 0.80292 0.58353 0.18868 0.0
H14 H 0.77497 0.60875 0.16327 0.0
H15 H 0.7424 0.64008 0.27339 0.0
H16 H 0.77298 0.65554 0.28821 0.0
C17 C 0.79535 0.55215 0.60239 0.0
C18 C 0.82514 0.51673 0.48666 0.0
C19 C 0.87949 0.61966 0.17975 0.0
C20 C 0.86878 0.61168 0.10976 0.0
C21 C 0.8423 0.62405 0.10617 0.0
C22 C 0.82484 0.63515 0.17977 0.0
C23 C 0.83389 0.63094 0.2551 0.0
C24 C 0.86136 0.62749 0.25494 0.0
C25 C 0.86704 0.62174 0.34117 0.0
C26 C 0.83951 0.61287 0.3839 0.0
C27 C 0.82041 0.61778 0.3325 0.0
C28 C 0.87381 0.65295 0.37846 0.0
C29 C 0.89006 0.59463 0.33803 0.0
C30 C 0.73153 0.57526 0.32338 0.0
C31 C 0.71973 0.54859 0.35275 0.0
C32 C 0.73204 0.53033 0.40967 0.0
C33 C 0.75575 0.53891 0.43596 0.0
C34 C 0.76772 0.56541 0.40301 0.0
C35 C 0.75568 0.58236 0.34586 0.0
C36 C 0.77367 0.60412 0.29936 0.0
C37 C 0.7971 0.6012 0.34598 0.0
C38 C 0.79371 0.57874 0.40842 0.0
C39 C 0.75906 0.6378 0.30934 0.0
C40 C 0.7812 0.59127 0.20703 0.0
H41 H 0.87181 0.62848 0.52248 0.0
H42 H 0.85561 0.52453 0.63804 0.0
H43 H 0.84329 0.5156 0.43649 0.0
H44 H 0.80837 0.50954 0.45836 0.0
H45 H 0.82925 0.49941 0.53356 0.0
H46 H 0.79226 0.57606 0.6327 0.0
H47 H 0.79996 0.53496 0.64907 0.0
H48 H 0.77611 0.5474 0.58453 0.0
H49 H 0.90041 0.61188 0.18007 0.0
H50 H 0.83397 0.62022 0.05077 0.0
H51 H 0.80419 0.64275 0.17747 0.0
H52 H 0.87648 0.6713 0.33158 0.0
H53 H 0.89286 0.64966 0.40328 0.0
H54 H 0.85738 0.66314 0.42931 0.0
H55 H 0.88527 0.57312 0.30687 0.0
H56 H 0.89404 0.58831 0.39973 0.0
H57 H 0.90951 0.60149 0.30428 0.0
H58 H 0.90064 0.60609 0.61274 0.0
C59 C 0.869 0.60537 0.54403 0.0
C60 C 0.94407 0.77965 0.03922 0.0
C61 C 0.95209 0.80893 0.01443 0.0
C62 C 0.9459 0.83449 0.07296 0.0
C63 C 0.9382 0.79817 0.18283 0.0
C64 C 0.93841 0.77417 0.12473 0.0
C65 C 0.93895 0.74253 0.16313 0.0
H66 H 1.01741 0.65421 0.26665 0.0
C67 C 0.9431 0.78423 0.26086 0.0
C68 C 0.94178 0.75176 0.25248 0.0
H69 H 0.94028 0.63266 0.21229 0.0
H70 H 0.91935 0.68337 0.27801 0.0
H71 H 1.01607 0.73072 0.2331 0.0
H72 H 0.97979 0.70706 0.48288 0.0
H73 H 1.0134 0.71963 0.45925 0.0
H74 H 1.00832 0.68067 0.43275 0.0
H75 H 0.03611 0.70512 0.2897 0.0
H76 H 0.02667 0.74555 0.32445 0.0
C77 C 0.96374 0.72084 0.11613 0.0
C78 C 0.91217 0.72892 0.15818 0.0
C79 C 0.98342 0.85013 0.45865 0.0
C80 C 0.99432 0.84335 0.53008 0.0
C81 C 0.99912 0.81144 0.54946 0.0
C82 C 0.99256 0.78701 0.49913 0.0
C83 C 0.98224 0.79445 0.42703 0.0
C84 C 0.97709 0.82569 0.40954 0.0
C85 C 0.96189 0.82986 0.33908 0.0
C86 C 0.9569 0.79609 0.32136 0.0
C87 C 0.97026 0.77522 0.36949 0.0
C88 C 0.98049 0.84383 0.26552 0.0
C89 C 0.93497 0.85057 0.37103 0.0
C90 C 0.99596 0.65999 0.2697 0.0
C91 C 0.98083 0.64002 0.22944 0.0
C92 C 0.95258 0.64756 0.23993 0.0
C93 C 0.94053 0.67665 0.27534 0.0
C94 C 0.95698 0.6979 0.29921 0.0
C95 C 0.98288 0.68881 0.30823 0.0
C96 C 0.99374 0.71564 0.35085 0.0
C97 C 0.97031 0.74214 0.35579 0.0
C98 C 0.95173 0.73165 0.31027 0.0
C99 C 0.01969 0.72476 0.29621 0.0
C100 C 0.99892 0.70538 0.43659 0.0
H101 H 0.93574 0.84891 0.20075 0.0
H102 H 0.94702 0.76037 0.99355 0.0
H103 H 0.89579 0.73883 0.20954 0.0
H104 H 0.91418 0.70301 0.15964 0.0
H105 H 0.90564 0.73436 0.09829 0.0
H106 H 0.98286 0.73 0.12472 0.0
H107 H 0.96359 0.71841 0.0487 0.0
H108 H 0.96418 0.69653 0.13643 0.0
H109 H 0.9792 0.87425 0.44224 0.0
H110 H 1.00677 0.80555 0.60544 0.0
H111 H 0.9941 0.76338 0.51975 0.0
H112 H 0.98616 0.82709 0.21087 0.0
H113 H 0.99991 0.84952 0.28171 0.0
H114 H 0.97096 0.8662 0.24594 0.0
H115 H 0.9198 0.84786 0.33131 0.0
H116 H 0.93828 0.87578 0.37507 0.0
H117 H 0.92558 0.84377 0.43409 0.0
H118 H 0.95055 0.85783 0.05527 0.0
C119 C 0.93851 0.82917 0.15763 0.0
C120 C 0.85746 0.99988 0.2035 0.0
C121 C 0.87108 1.00349 0.11991 0.0
C122 C 0.85527 0.01147 0.05971 0.0
C123 C 0.81473 0.01879 0.16499 0.0
C124 C 0.82867 0.00682 0.22417 0.0
C125 C 0.80893 1.00584 0.30763 0.0
H126 H 0.67876 0.0608 0.51542 0.0
C127 C 0.78734 0.03151 0.20553 0.0
C128 C 0.78202 0.02122 0.28747 0.0
H129 H 0.70969 0.96368 0.52278 0.0
H130 H 0.7503 0.97315 0.41986 0.0
H131 H 0.73949 0.09404 0.48457 0.0
H132 H 0.6769 0.06941 0.37782 0.0
H133 H 0.69781 0.07392 0.28167 0.0
H134 H 0.68644 0.10695 0.35489 0.0
H135 H 0.70579 0.11193 0.48505 0.0
H136 H 0.73393 0.12123 0.40823 0.0
C137 C 0.81813 0.02532 0.37539 0.0
C138 C 0.80712 0.97168 0.33269 0.0
C139 C 0.7324 0.11138 0.06626 0.0
C140 C 0.70916 0.13132 0.10152 0.0
C141 C 0.70627 0.14264 0.18438 0.0
C142 C 0.72278 0.12859 0.23612 0.0
C143 C 0.74133 0.10287 0.20406 0.0
C144 C 0.7483 0.09709 0.11938 0.0
C145 C 0.7705 0.07053 0.09729 0.0
C146 C 0.7723 0.05871 0.18364 0.0
C147 C 0.75399 0.07684 0.2451 0.0
C148 C 0.79647 0.0844 0.05413 0.0
C149 C 0.76122 0.04517 0.04304 0.0
C150 C 0.69461 0.04162 0.49893 0.0
C151 C 0.69102 0.01187 0.531 0.0
C152 C 0.71189 0.98723 0.50174 0.0
C153 C 0.73563 0.99271 0.4437 0.0
C154 C 0.73868 0.02306 0.41387 0.0
C155 C 0.71741 0.0463 0.43892 0.0
C156 C 0.72 0.07478 0.38745 0.0
C157 C 0.74526 0.064 0.32337 0.0
C158 C 0.75794 0.03503 0.34297 0.0
C159 C 0.72494 0.10213 0.44413 0.0
C160 C 0.69419 0.08172 0.3483 0.0
H161 H 0.81649 0.02494 0.033 0.0
H162 H 0.86888 0.99303 0.2512 0.0
H163 H 0.79744 0.95857 0.28883 0.0
H164 H 0.7954 0.97073 0.39657 0.0
H165 H 0.8276 0.95958 0.33229 0.0
H166 H 0.82005 0.04985 0.35607 0.0
H167 H 0.83799 0.01495 0.38732 0.0
H168 H 0.80324 0.02606 0.43456 0.0
H169 H 0.73533 0.10312 1.00187 0.0
H170 H 0.68894 0.15879 0.21205 0.0
H171 H 0.7191 0.13616 0.30043 0.0
H172 H 0.79275 0.10982 0.04249 0.0
H173 H 0.80476 0.07281 0.99215 0.0
H174 H 0.8124 0.08241 0.09277 0.0
H175 H 0.74012 0.04067 0.06873 0.0
H176 H 0.77366 0.02234 0.04112 0.0
H177 H 0.76203 0.05273 0.97821 0.0
H178 H 0.8648 0.01337 0.99535 0.0
C179 C 0.8274 0.01893 0.08164 0.0
C180 C 0.53578 0.71413 0.55359 0.0
C181 C 0.55005 0.6845 0.56829 0.0
C182 C 0.57348 0.67336 0.51023 0.0
C183 C 0.56339 0.71352 0.41762 0.0
C184 C 0.54424 0.72943 0.47753 0.0
C185 C 0.53395 0.76041 0.44063 0.0
H186 H 0.53213 0.8328 0.06038 0.0
C187 C 0.56146 0.72598 0.33749 0.0
C188 C 0.54882 0.75685 0.34817 0.0
H189 H 0.53721 0.88638 0.28224 0.0
H190 H 0.54281 0.83678 0.35605 0.0
H191 H 0.58143 0.78519 0.07527 0.0
H192 H 0.49747 0.78784 0.1141 0.0
H193 H 0.50477 0.74755 0.13106 0.0
H194 H 0.5167 0.76324 0.03127 0.0
H195 H 0.55973 0.78362 1.00009 0.0
H196 H 0.57414 0.74831 0.04014 0.0
C197 C 0.54195 0.78851 0.48703 0.0
C198 C 0.50318 0.76261 0.44649 0.0
C199 C 0.52962 0.64655 0.15818 0.0
C200 C 0.52313 0.64716 0.07814 0.0
C201 C 0.53 0.67275 0.02834 0.0
C202 C 0.54031 0.69845 0.06108 0.0
C203 C 0.54479 0.69804 0.14313 0.0
C204 C 0.5415 0.67142 0.18767 0.0
C205 C 0.55082 0.67355 0.26933 0.0
C206 C 0.55833 0.7074 0.26833 0.0
C207 C 0.5525 0.72199 0.19737 0.0
C208 C 0.57515 0.64851 0.26798 0.0
C209 C 0.527 0.66856 0.34028 0.0
C210 C 0.53333 0.83451 0.12574 0.0
C211 C 0.53347 0.86393 0.16493 0.0
C212 C 0.53662 0.86424 0.24975 0.0
C213 C 0.53921 0.83574 0.29325 0.0
C214 C 0.5383 0.80664 0.25223 0.0
C215 C 0.53616 0.80682 0.16881 0.0
C216 C 0.54017 0.77466 0.12829 0.0
C217 C 0.54631 0.75496 0.19941 0.0
C218 C 0.54404 0.77296 0.27434 0.0
C219 C 0.56507 0.77271 0.05669 0.0
C220 C 0.51357 0.76782 0.09957 0.0
H221 H 0.59734 0.6781 0.38903 0.0
H222 H 0.51839 0.72425 0.5981 0.0
H223 H 0.49744 0.74177 0.41488 0.0
H224 H 0.49596 0.78398 0.41622 0.0
H225 H 0.49272 0.76384 0.51254 0.0
H226 H 0.56416 0.78934 0.47302 0.0
H227 H 0.53561 0.7867 0.55532 0.0
H228 H 0.53182 0.81087 0.46994 0.0
H229 H 0.52532 0.62729 0.19822 0.0
H230 H 0.52767 0.67303 0.96398 0.0
H231 H 0.54471 0.71754 0.02131 0.0
H232 H 0.57276 0.62651 0.23399 0.0
H233 H 0.57707 0.64124 0.33126 0.0
H234 H 0.59427 0.6572 0.2371 0.0
H235 H 0.50995 0.68713 0.34134 0.0
H236 H 0.5329 0.66869 0.40201 0.0
H237 H 0.51953 0.64537 0.33278 0.0
H238 H 0.5854 0.65176 0.51976 0.0
C239 C 0.58018 0.68782 0.43489 0.0
C240 C 0.31939 0.47002 0.22002 0.0
C241 C 0.33756 0.45284 0.26421 0.0
C242 C 0.33578 0.42034 0.27298 0.0
C243 C 0.29509 0.42449 0.21666 0.0
C244 C 0.29862 0.45459 0.19367 0.0
C245 C 0.27784 0.46576 0.14038 0.0
H246 H 0.16553 0.42692 0.98687 0.0
C247 C 0.27022 0.41561 0.19552 0.0
C248 C 0.26045 0.43802 0.1442 0.0
H249 H 0.2028 0.51239 0.9424 0.0
H250 H 0.23713 0.49416 0.02424 0.0
H251 H 0.2168 0.37242 0.99742 0.0
H252 H 0.15667 0.43278 0.14218 0.0
H253 H 0.17312 0.42153 0.22396 0.0
H254 H 0.15775 0.3933 0.16791 0.0
H255 H 0.1807 0.37253 0.02403 0.0
H256 H 0.20232 0.35368 0.08827 0.0
C257 C 0.29285 0.47005 0.05141 0.0
C258 C 0.2614 0.49618 0.18052 0.0
C259 C 0.20242 0.38595 0.41518 0.0
C260 C 0.17511 0.38981 0.40736 0.0
C261 C 0.16748 0.37356 0.34127 0.0
C262 C 0.18711 0.36389 0.27107 0.0
C263 C 0.21323 0.37204 0.269 0.0
C264 C 0.22188 0.37749 0.34299 0.0
C265 C 0.2509 0.38472 0.32649 0.0
C266 C 0.25348 0.39396 0.23538 0.0
C267 C 0.23052 0.38784 0.20377 0.0
C268 C 0.26867 0.35409 0.3365 0.0
C269 C 0.25566 0.41131 0.38639 0.0
C270 C 0.18179 0.44113 0.99157 0.0
C271 C 0.18203 0.47042 0.95591 0.0
C272 C 0.20258 0.48925 0.9677 0.0
C273 C 0.22238 0.47871 0.01522 0.0
C274 C 0.22107 0.44952 0.05336 0.0
C275 C 0.20047 0.43179 0.04212 0.0
C276 C 0.1975 0.40551 0.10063 0.0
C277 C 0.22217 0.40722 0.14116 0.0
C278 C 0.23625 0.43314 0.11347 0.0
C279 C 0.19931 0.37426 0.05002 0.0
C280 C 0.17006 0.41339 0.162 0.0
H281 H 0.31432 0.38108 0.2524 0.0
H282 H 0.32123 0.49448 0.2073 0.0
H283 H 0.25376 0.49316 0.24767 0.0
H284 H 0.2437 0.50272 0.15145 0.0
H285 H 0.27411 0.51599 0.17516 0.0
H286 H 0.30624 0.44838 0.02742 0.0
H287 H 0.30557 0.48979 0.05038 0.0
H288 H 0.2789 0.47482 1.00767 0.0
H289 H 0.20805 0.39657 0.46915 0.0
H290 H 0.14639 0.37394 0.33667 0.0
H291 H 0.18103 0.35436 0.21692 0.0
H292 H 0.25963 0.34184 0.39237 0.0
H293 H 0.28893 0.35858 0.34684 0.0
H294 H 0.27081 0.33771 0.28146 0.0
H295 H 0.24307 0.43344 0.3791 0.0
H296 H 0.27692 0.41624 0.37646 0.0
H297 H 0.25114 0.40445 0.45206 0.0
H298 H 0.34995 0.40616 0.30267 0.0
C299 C 0.31493 0.406 0.24751 0.0
C300 C 0.90323 0.26912 0.55054 0.0
C301 C 0.89311 0.23969 0.56036 0.0
C302 C 0.89737 0.21882 0.48988 0.0
C303 C 0.9295 0.25096 0.416 0.0
C304 C 0.922 0.27395 0.47861 0.0
C305 C 0.93908 0.30086 0.46499 0.0
H306 H 0.05989 0.34017 0.38859 0.0
C307 C 0.95432 0.25871 0.36147 0.0
C308 C 0.95945 0.28858 0.38678 0.0
H309 H 0.98544 0.40087 0.46818 0.0
H310 H 0.96099 0.36299 0.40837 0.0
H311 H 0.0401 0.26495 0.41354 0.0
H312 H 0.03341 0.30478 0.17696 0.0
H313 H 0.0648 0.28521 0.19672 0.0
H314 H 0.05584 0.32518 0.22639 0.0
H315 H 0.06949 0.28083 0.35744 0.0
H316 H 0.05656 0.248 0.3133 0.0
C317 C 0.95284 0.30477 0.54122 0.0
C318 C 0.92073 0.33073 0.45095 0.0
C319 C 1.00982 0.17153 0.17305 0.0
C320 C 0.03352 0.1701 0.11333 0.0
C321 C 0.04839 0.19651 0.10621 0.0
C322 C 0.03973 0.22362 0.15957 0.0
C323 C 1.01599 0.22432 0.21975 0.0
C324 C 1.00113 0.19883 0.22326 0.0
C325 C 0.97423 0.20512 0.27956 0.0
C326 C 0.97462 0.23918 0.30667 0.0
C327 C 0.99981 0.24997 0.27576 0.0
C328 C 0.97459 0.18259 0.35233 0.0
C329 C 0.95176 0.20098 0.2282 0.0
C330 C 0.03818 0.34476 0.3958 0.0
C331 C 0.02435 0.3728 0.43773 0.0
C332 C 0.99639 0.37911 0.43985 0.0
C333 C 0.98198 0.35701 0.40872 0.0
C334 C 0.99529 0.32782 0.37887 0.0
C335 C 0.023 0.3229 0.36344 0.0
C336 C 0.0325 0.29313 0.30833 0.0
C337 C 1.00542 0.28003 0.30441 0.0
C338 C 0.98431 0.29993 0.35272 0.0
C339 C 0.05074 0.27039 0.35071 0.0
C340 C 0.04727 0.30241 0.22237 0.0
H341 H 0.91904 0.20669 0.36887 0.0
H342 H 0.89929 0.28627 0.60203 0.0
H343 H 0.89889 0.32794 0.46971 0.0
H344 H 0.92401 0.33667 0.38434 0.0
H345 H 0.92411 0.35122 0.48903 0.0
H346 H 0.96497 0.28256 0.55137 0.0
H347 H 0.93766 0.31124 0.59856 0.0
H348 H 0.96638 0.32356 0.53417 0.0
H349 H 0.99738 0.15224 0.17754 0.0
H350 H 0.06636 0.19632 0.05879 0.0
H351 H 0.05083 0.24366 0.15041 0.0
H352 H 0.99351 0.18325 0.37755 0.0
H353 H 0.97363 0.158 0.33087 0.0
H354 H 0.95808 0.18846 0.40567 0.0
H355 H 0.95907 0.20311 0.1604 0.0
H356 H 0.93457 0.21954 0.24399 0.0
H357 H 0.94418 0.17759 0.23687 0.0
H358 H 0.88987 0.19602 0.49315 0.0
C359 C 0.91521 0.22458 0.41753 0.0
C360 C 0.33934 1.00193 0.10839 0.0
C361 C 0.36318 0.98318 0.06589 0.0
C362 C 0.36579 0.9509 0.0814 0.0
C363 C 0.32613 0.95747 0.19006 0.0
C364 C 0.3203 0.98792 0.16862 0.0
C365 C 0.29288 1.00152 0.22033 0.0
H366 H 0.19994 0.98864 0.57952 0.0
C367 C 0.30705 0.95072 0.26504 0.0
C368 C 0.2853 0.97465 0.27908 0.0
H369 H 0.17364 0.01333 0.35055 0.0
H370 H 0.22063 1.00228 0.27516 0.0
H371 H 0.2223 0.92864 0.49964 0.0
H372 H 0.26335 0.00834 0.54697 0.0
H373 H 0.28327 0.9749 0.56995 0.0
H374 H 0.24923 0.98367 0.62713 0.0
H375 H 0.22963 0.93737 0.60039 0.0
H376 H 0.25301 0.91282 0.52316 0.0
C377 C 0.27252 0.00868 0.16245 0.0
C378 C 0.29622 0.03128 0.27017 0.0
C379 C 0.35119 0.8853 0.46745 0.0
C380 C 0.34559 0.88442 0.55464 0.0
C381 C 0.32039 0.89816 0.59804 0.0
C382 C 0.30193 0.91439 0.55577 0.0
C383 C 0.30874 0.9171 0.46904 0.0
C384 C 0.33291 0.90236 0.42629 0.0
C385 C 0.3373 0.90849 0.33487 0.0
C386 C 0.31242 0.93132 0.33084 0.0
C387 C 0.29564 0.93559 0.40921 0.0
C388 C 0.3365 0.87694 0.28785 0.0
C389 C 0.36438 0.9232 0.3092 0.0
C390 C 0.20382 0.99293 0.51368 0.0
C391 C 0.18244 1.00257 0.47279 0.0
C392 C 0.18937 0.00713 0.38579 0.0
C393 C 0.21664 1.00127 0.34195 0.0
C394 C 0.23742 0.99084 0.38489 0.0
C395 C 0.23013 0.98532 0.46877 0.0
C396 C 0.25127 0.96424 0.49977 0.0
C397 C 0.27197 0.95701 0.42087 0.0
C398 C 0.26546 0.97489 0.35474 0.0
C399 C 0.23859 0.93427 0.53317 0.0
C400 C 0.26237 0.9835 0.56485 0.0
H401 H 0.3504 0.91335 0.15067 0.0
H402 H 0.33583 0.02651 0.0955 0.0
H403 H 0.31151 0.02613 0.31026 0.0
H404 H 0.27679 0.04032 0.31078 0.0
H405 H 0.30285 0.05005 0.2277 0.0
H406 H 0.267 0.9866 0.13612 0.0
H407 H 0.28122 0.02284 0.11007 0.0
H408 H 0.25402 0.02267 0.196 0.0
H409 H 0.3705 0.8753 0.4323 0.0
H410 H 0.31558 0.89778 0.66527 0.0
H411 H 0.28352 0.92517 0.59298 0.0
H412 H 0.32091 0.86311 0.32236 0.0
H413 H 0.35629 0.86241 0.28013 0.0
H414 H 0.33086 0.88017 0.22626 0.0
H415 H 0.36097 0.94913 0.30572 0.0
H416 H 0.37604 0.91308 0.24898 0.0
H417 H 0.37828 0.91897 0.35385 0.0
H418 H 0.38297 0.93554 0.04896 0.0
C419 C 0.34734 0.93805 0.14193 0.0
C420 C 0.5113 0.30661 0.07084 0.0
C421 C 0.49756 0.33668 0.05755 0.0
C422 C 0.47459 0.34832 0.11682 0.0
C423 C 0.48442 0.30752 0.20801 0.0
C424 C 0.50293 0.29132 0.14682 0.0
C425 C 0.51285 0.2599 0.182 0.0
H426 H 0.51589 0.18392 0.55567 0.0
C427 C 0.48653 0.29442 0.2874 0.0
C428 C 0.49844 0.26326 0.27482 0.0
H429 H 0.5033 0.13398 0.33674 0.0
H430 H 0.50078 0.1842 0.26405 0.0
H431 H 0.5523 0.22892 0.49593 0.0
H432 H 0.46762 0.234 0.54762 0.0
H433 H 0.47632 0.27006 0.58331 0.0
H434 H 0.49027 0.23386 0.6203 0.0
H435 H 0.53427 0.25074 0.58621 0.0
H436 H 0.54458 0.26984 0.49032 0.0
C437 C 0.54369 0.25692 0.17474 0.0
C438 C 0.5041 0.2324 0.13519 0.0
C439 C 0.5192 0.3723 0.46982 0.0
C440 C 0.52609 0.37109 0.54934 0.0
C441 C 0.52035 0.34457 0.59674 0.0
C442 C 0.51051 0.31884 0.56232 0.0
C443 C 0.5051 0.32022 0.48132 0.0
C444 C 0.50761 0.34745 0.439 0.0
C445 C 0.49784 0.3461 0.35787 0.0
C446 C 0.49051 0.31222 0.35695 0.0
C447 C 0.49702 0.29686 0.42612 0.0
C448 C 0.52136 0.35171 0.28658 0.0
C449 C 0.47335 0.37111 0.36163 0.0
C450 C 0.51334 0.18321 0.49134 0.0
C451 C 0.50991 0.15477 0.45263 0.0
C452 C 0.50645 0.15541 0.36829 0.0
C453 C 0.5054 0.18421 0.32573 0.0
C454 C 0.50846 0.21251 0.36708 0.0
C455 C 0.51167 0.21134 0.44953 0.0
C456 C 0.50899 0.24319 0.49144 0.0
C457 C 0.50263 0.2638 0.42222 0.0
C458 C 0.50362 0.24648 0.34706 0.0
C459 C 0.53629 0.24859 0.51755 0.0
C460 C 0.48465 0.24554 0.56502 0.0
H461 H 0.4511 0.34368 0.23866 0.0
H462 H 0.52827 0.29615 0.02531 0.0
H463 H 0.48185 0.23199 0.15041 0.0
H464 H 0.51409 0.2097 0.15076 0.0
H465 H 0.51006 0.23457 0.0669 0.0
H466 H 0.54995 0.27737 0.20666 0.0
H467 H 0.55385 0.25586 0.10842 0.0
H468 H 0.55072 0.2352 0.20395 0.0
H469 H 0.52289 0.39208 0.43113 0.0
H470 H 0.52318 0.34354 0.66055 0.0
H471 H 0.50724 0.29896 0.6001 0.0
H472 H 0.5385 0.33312 0.28377 0.0
H473 H 0.52881 0.37484 0.2952 0.0
H474 H 0.51518 0.35208 0.22525 0.0
H475 H 0.47549 0.39261 0.39816 0.0
H476 H 0.45429 0.3619 0.39101 0.0
H477 H 0.47143 0.37942 0.29921 0.0
H478 H 0.46302 0.37027 0.10812 0.0
C479 C 0.46797 0.33375 0.19209 0.0
Dy480 Dy 1.01101 0.02777 0.75604 0.0
Dy481 Dy 0.04434 0.98224 0.86258 0.0
C482 C 0.07444 0.00874 0.69157 0.0
O483 O 1.00125 0.97943 0.72363 0.0
O484 O 0.03721 0.9504 0.75967 0.0
O485 O 1.00679 0.06727 0.67782 0.0
O486 O 0.97364 0.03895 0.71275 0.0
O487 O 0.99986 0.97917 0.91604 0.0
O488 O 0.98531 0.0284 0.88396 0.0
O489 O 0.0419 0.02887 0.93094 0.0
O490 O 0.02933 0.06126 0.83164 0.0
O491 O 0.04765 0.95432 0.96961 0.0
O492 O 0.0822 0.95552 0.87128 0.0
C493 C 1.01644 0.95265 0.72193 0.0
O494 O 0.05087 0.01412 0.6684 0.0
O495 O 0.07555 1.00302 0.7696 0.0
C496 C 0.96258 0.09367 0.70249 0.0
C497 C 0.92642 0.14881 0.73442 0.0
C498 C 0.95153 0.14877 0.68086 0.0
C499 C 0.96932 0.12153 0.66492 0.0
C500 C 0.93787 0.09377 0.7586 0.0
C501 C 0.91984 0.12117 0.7741 0.0
C502 C 0.98121 0.0648 0.67985 0.0
C503 C 0.98125 1.00351 0.92821 0.0
C504 C 0.0377 0.05716 0.90265 0.0
C505 C 0.07125 0.90614 0.91843 0.0
C506 C 0.0481 0.85111 0.89123 0.0
C507 C 0.05129 0.86002 0.97186 0.0
C508 C 0.06276 0.88752 0.98544 0.0
C509 C 0.07204 0.89436 0.83673 0.0
C510 C 0.06025 0.86708 0.82334 0.0
C511 C 0.07102 0.94016 0.9338 0.0
H512 H 0.95693 0.16953 0.64777 0.0
H513 H 0.98812 0.12206 0.62131 0.0
H514 H 0.93217 0.0726 0.789 0.0
H515 H 0.90058 0.12058 0.81526 0.0
H516 H 0.04189 0.848 0.02535 0.0
H517 H 0.06195 0.89609 0.04875 0.0
H518 H 0.07888 0.90797 0.78348 0.0
H519 H 0.05823 0.8602 0.76092 0.0
Dy520 Dy 0.5215 0.97862 0.73355 0.0
Dy521 Dy 0.52695 0.03481 0.86009 0.0
C522 C 0.51386 0.04979 0.68104 0.0
O523 O 0.56682 0.98019 0.71092 0.0
O524 O 0.568 0.02797 0.77467 0.0
O525 O 0.50554 0.96181 0.62942 0.0
O526 O 0.53136 0.93013 0.68997 0.0
O527 O 0.54065 0.99092 0.92301 0.0
O528 O 0.51778 0.95742 0.85951 0.0
O529 O 0.4845 0.0238 0.90814 0.0
O530 O 0.47804 0.99268 0.79901 0.0
O531 O 0.52771 0.05482 0.982 0.0
O532 O 0.53208 0.08389 0.87537 0.0
C533 C 0.58022 1.00394 0.72549 0.0
O534 O 0.52574 0.02165 0.65615 0.0
O535 O 0.50583 0.05616 0.76121 0.0
C536 C 0.49472 0.91038 0.64353 0.0
C537 C 0.44775 0.88017 0.64902 0.0
C538 C 0.4663 0.88095 0.57389 0.0
C539 C 0.48963 0.89596 0.57126 0.0
C540 C 0.47754 0.90732 0.71989 0.0
C541 C 0.45427 0.89215 0.72268 0.0
C542 C 0.51499 0.93272 0.63686 0.0
C543 C 0.52994 0.96416 0.92117 0.0
C544 C 0.4686 0.00811 0.87114 0.0
C545 C 0.55899 0.09172 0.97311 0.0
C546 C 0.60793 0.1101 1.00497 0.0
C547 C 0.6074 0.082 0.95961 0.0
C548 C 0.58318 0.07278 0.94465 0.0
C549 C 0.55918 0.12008 0.0173 0.0
C550 C 0.58357 0.12917 0.03378 0.0
C551 C 0.53408 0.08174 0.95324 0.0
H552 H 0.46163 0.87261 0.51572 0.0
H553 H 0.50262 0.89833 0.51181 0.0
H554 H 0.48112 0.91853 0.77632 0.0
H555 H 0.44035 0.89192 0.78132 0.0
H556 H 0.62577 0.0668 0.93652 0.0
H557 H 0.5833 0.0507 0.91096 0.0
H558 H 0.54055 0.13493 0.03966 0.0
H559 H 0.58323 0.15053 0.07077 0.0
Dy560 Dy 0.55149 0.51346 0.86981 0.0
Dy561 Dy 0.49826 0.50696 0.755 0.0
C562 C 0.52142 0.44845 0.86758 0.0
O563 O 0.56931 0.47944 0.76482 0.0
O564 O 0.54141 0.50554 0.69424 0.0
O565 O 0.59279 0.51375 0.89163 0.0
O566 O 0.55849 0.52338 0.99451 0.0
O567 O 0.50731 0.55731 0.74272 0.0
O568 O 0.54634 0.55911 0.79965 0.0
O569 O 0.47997 0.53993 0.86154 0.0
O570 O 0.50838 0.51395 0.93125 0.0
O571 O 0.49102 0.50261 0.62885 0.0
O572 O 0.45769 0.5005 0.73381 0.0
C573 C 0.55869 0.48114 0.69803 0.0
O574 O 0.54084 0.46388 0.88837 0.0
O575 O 0.5039 0.46082 0.82207 0.0
C576 C 0.60351 0.52362 0.03107 0.0
C577 C 0.63911 0.52731 0.14749 0.0
C578 C 0.61111 0.53579 0.17161 0.0
C579 C 0.59358 0.53382 0.11446 0.0
C580 C 0.63152 0.51564 1.00651 0.0
C581 C 0.64903 0.51748 0.06373 0.0
C582 C 0.58467 0.51981 0.97148 0.0
C583 C 0.52769 0.57216 0.75877 0.0
C584 C 0.49058 0.53798 0.92837 0.0
C585 C 0.447 0.49557 0.5925 0.0
C586 C 0.41186 0.48867 0.47635 0.0
C587 C 0.4397 0.49031 0.44907 0.0
C588 C 0.45697 0.49378 0.50618 0.0
C589 C 0.41923 0.49378 0.61999 0.0
C590 C 0.40194 0.4903 0.56284 0.0
C591 C 0.46544 0.49973 0.65295 0.0
H592 H 0.60264 0.54361 0.23522 0.0
H593 H 0.57216 0.54013 0.1359 0.0
H594 H 0.63995 0.50768 0.94297 0.0
H595 H 0.67047 0.51159 0.04186 0.0
H596 H 0.44817 0.48906 0.38321 0.0
H597 H 0.47822 0.49504 0.4825 0.0
H598 H 0.41082 0.49494 0.68589 0.0
H599 H 0.38085 0.48822 0.58669 0.0
Dy600 Dy 0.03823 0.5367 0.75121 0.0
Dy601 Dy 0.01821 0.48082 0.86393 0.0
C602 C 0.04246 0.46594 0.67611 0.0
O603 O 0.993 0.54676 0.77787 0.0
O604 O 0.9855 0.49555 0.79083 0.0
O605 O 0.03453 0.56512 0.64536 0.0
O606 O 0.0658 0.57157 0.71572 0.0
O607 O 1.00245 0.52511 0.94231 0.0
O608 O 0.03254 0.55759 0.88036 0.0
O609 O 0.05873 0.48728 0.89504 0.0
O610 O 0.0762 0.50812 0.77208 0.0
O611 O 1.00713 0.46011 0.98303 0.0
O612 O 1.00307 0.4352 0.87072 0.0
C613 C 0.97713 0.52444 0.77513 0.0
O614 O 0.03529 0.49571 0.66604 0.0
O615 O 0.04431 0.45653 0.75073 0.0
C616 C 0.07926 0.56204 0.57144 0.0
C617 C 0.11445 0.51156 0.49145 0.0
C618 C 0.12391 0.53324 0.54164 0.0
C619 C 0.10646 0.55866 0.58077 0.0
C620 C 0.07158 0.54354 0.50915 0.0
C621 C 0.08897 0.51803 0.47059 0.0
C622 C 0.05843 0.57427 0.64354 0.0
C623 C 1.01488 0.55064 0.9447 0.0
C624 C 0.07949 0.49563 0.84277 0.0
C625 C 0.96483 0.44372 0.97785 0.0
C626 C 0.91862 0.48676 0.01622 0.0
C627 C 0.93162 0.47516 0.07998 0.0
C628 C 0.95449 0.45342 0.06098 0.0
C629 C 0.94871 0.45075 0.91747 0.0
C630 C 0.92604 0.47271 0.93621 0.0
C631 C 0.99442 0.43933 0.95068 0.0
H632 H 0.14385 0.52887 0.55685 0.0
H633 H 0.11321 0.57293 0.62684 0.0
H634 H 0.05104 0.54608 0.49819 0.0
H635 H 0.08184 0.50202 0.42935 0.0
H636 H 0.92618 0.48561 0.14245 0.0
H637 H 0.96631 0.44815 0.10885 0.0
H638 H 0.95564 0.44304 0.85294 0.0
H639 H 0.91598 0.48097 0.88649 0.0
C640 C 0.14717 0.98219 0.58437 0.0
C641 C 0.15353 1.00392 0.52151 0.0
C642 C 0.12178 0.98406 0.63746 0.0
C643 C 0.10065 0.00707 0.62957 0.0
H644 H 0.16207 0.96331 0.59363 0.0
H645 H 0.11865 0.96701 0.68531 0.0
S646 S 0.1049 0.06867 0.47291 0.0
N647 N 0.13532 0.04906 0.4539 0.0
N648 N 0.08725 0.05138 0.55081 0.0
C649 C 0.10593 0.02809 0.56473 0.0
C650 C 0.13226 0.02673 0.51147 0.0
C651 C 0.52537 0.098 0.48249 0.0
C652 C 0.50804 0.12596 0.50486 0.0
C653 C 0.52652 0.07311 0.53821 0.0
C654 C 0.51051 0.07504 0.61911 0.0
H655 H 0.53896 0.09586 0.42291 0.0
H656 H 0.54084 0.05264 0.5187 0.0
S657 S 0.45915 0.14143 0.70394 0.0
N658 N 0.47247 0.15241 0.61074 0.0
N659 N 0.47494 0.10655 0.71452 0.0
C660 C 0.49223 0.10229 0.64029 0.0
C661 C 0.49091 0.12736 0.58363 0.0
C662 C 0.38436 0.45275 0.2965 0.0
C663 C 0.35771 0.46742 0.30589 0.0
C664 C 0.40191 0.46061 0.34951 0.0
C665 C 0.39365 0.48343 0.41504 0.0
H666 H 0.39134 0.43389 0.24999 0.0
H667 H 0.4217 0.44752 0.34144 0.0
S668 S 0.32698 0.53136 0.46087 0.0
N669 N 0.32469 0.50761 0.38208 0.0
N670 N 0.35766 0.52284 0.48063 0.0
C671 C 0.36757 0.49957 0.42213 0.0
C672 C 0.34971 0.49157 0.36777 0.0
C673 C 0.04583 0.38693 0.55825 0.0
C674 C 0.03732 0.39557 0.48394 0.0
C675 C 0.0492 0.4098 0.61791 0.0
C676 C 0.04405 0.44225 0.60583 0.0
H677 H 0.04782 0.36241 0.57338 0.0
H678 H 0.05434 0.40188 0.67598 0.0
S679 S 0.02491 0.47682 0.41561 0.0
N680 N 0.02687 0.43853 0.39719 0.0
N681 N 0.03274 0.48138 0.50843 0.0
C682 C 0.03764 0.451 0.5285 0.0
C683 C 0.03441 0.42773 0.4679 0.0
C684 C 0.91759 0.97454 0.06162 0.0
C685 C 0.90131 1.00267 0.09156 0.0
C686 C 0.94389 0.97474 0.01282 0.0
C687 C 0.95489 1.00309 0.98967 0.0
H688 H 0.90939 0.95227 0.0722 0.0
H689 H 0.95506 0.95249 0.98933 0.0
S690 S 0.92103 0.08312 0.05557 0.0
N691 N 0.89893 0.05947 0.09736 0.0
N692 N 0.94741 0.06004 1.00612 0.0
C693 C 0.93909 0.03122 0.02208 0.0
C694 C 0.91268 0.03094 0.07248 0.0
C695 C 0.51232 0.89473 0.05845 0.0
C696 C 0.53094 0.89287 0.11333 0.0
C697 C 0.5121 0.9179 0.99861 0.0
C698 C 0.53027 0.94106 0.99015 0.0
H699 H 0.49804 0.87744 0.06019 0.0
H700 H 0.49753 0.91734 0.9578 0.0
S701 S 0.58226 0.94855 0.12105 0.0
N702 N 0.56758 0.91752 0.15665 0.0
N703 N 0.56671 0.9615 0.046 0.0
C704 C 0.54824 0.94055 0.04703 0.0
C705 C 0.54865 0.91654 0.10796 0.0
C706 C 0.67448 0.56205 0.31149 0.0
C707 C 0.69653 0.53948 0.3148 0.0
C708 C 0.65558 0.55739 0.26008 0.0
C709 C 0.65795 0.53007 0.2084 0.0
H710 H 0.67249 0.58423 0.34639 0.0
H711 H 0.63969 0.57609 0.25796 0.0
S712 S 0.71058 0.46241 0.1989 0.0
N713 N 0.71856 0.48787 0.26536 0.0
N714 N 0.68308 0.47887 0.16965 0.0
C715 C 0.67917 0.50664 0.21409 0.0
C716 C 0.69834 0.51135 0.26706 0.0
C717 C 0.98216 0.58631 0.16077 0.0
C718 C 0.99367 0.61485 0.16518 0.0
C719 C 0.98946 0.56553 0.09045 0.0
C720 C 1.00857 0.57233 0.02085 0.0
H721 H 0.96655 0.58052 0.21097 0.0
H722 H 0.97944 0.54435 0.09003 0.0
S723 S 0.0455 0.64352 1.002 0.0
N724 N 0.0257 0.64833 0.09427 0.0
N725 N 0.03982 0.60942 0.96332 0.0
C726 C 0.02103 0.60025 0.02592 0.0
C727 C 1.01356 0.62136 0.09764 0.0
C728 C 0.90606 0.2312 0.69775 0.0
C729 C 0.88762 0.2264 0.64469 0.0
C730 C 0.91543 0.20655 0.74315 0.0
C731 C 0.9065 0.17672 0.73681 0.0
H732 H 0.91692 0.2518 0.69354 0.0
H733 H 0.93276 0.20938 0.77183 0.0
S734 S 0.84766 0.15855 0.64612 0.0
N735 N 0.85228 0.19491 0.61984 0.0
N736 N 0.87095 0.14772 0.7016 0.0
C737 C 0.88326 0.17446 0.70253 0.0
C738 C 0.87334 0.19985 0.65768 0.0
C739 C 0.37326 0.89799 0.65825 0.0
C740 C 0.36813 0.87605 0.59933 0.0
C741 C 0.39853 0.897 0.68132 0.0
C742 C 0.41963 0.87404 0.6463 0.0
H743 H 0.35866 0.91798 0.68044 0.0
H744 H 0.40224 0.91625 0.72036 0.0
S745 S 0.41418 0.80631 0.50759 0.0
N746 N 0.38429 0.827 0.52005 0.0
N747 N 0.43209 0.82523 0.56339 0.0
C748 C 0.41373 0.84972 0.59565 0.0
C749 C 0.38789 0.85069 0.57221 0.0
C750 C 0.53112 0.42864 0.55676 0.0
C751 C 0.5379 0.39817 0.58267 0.0
C752 C 0.54112 0.45467 0.58725 0.0
C753 C 0.55615 0.45215 0.65101 0.0
H754 H 0.51722 0.43308 0.51442 0.0
H755 H 0.53574 0.47733 0.5635 0.0
S756 S 0.58402 0.37797 0.73096 0.0
N757 N 0.56566 0.36668 0.66431 0.0
N758 N 0.58107 0.4167 0.73098 0.0
C759 C 0.56463 0.42197 0.67463 0.0
C760 C 0.5559 0.39487 0.6393 0.0
C761 C 0.1343 0.42369 0.48385 0.0
C762 C 0.16001 0.42085 0.43336 0.0
C763 C 0.11946 0.45331 0.50187 0.0
C764 C 0.12986 0.48069 0.46917 0.0
H765 H 0.12565 0.40303 0.5091 0.0
H766 H 0.09985 0.45492 0.5421 0.0
S767 S 0.1946 0.48538 0.32615 0.0
N768 N 0.19414 0.44778 0.34551 0.0
N769 N 0.16625 0.50307 0.38084 0.0
C770 C 0.15518 0.47808 0.41766 0.0
C771 C 0.17023 0.4482 0.39918 0.0
C772 C 0.97693 0.83713 0.89776 0.0
C773 C 0.97553 0.81035 0.94588 0.0
C774 C 1.0019 0.84781 0.86635 0.0
C775 C 0.02598 0.83211 0.88315 0.0
H776 H 0.95867 0.85204 0.89369 0.0
H777 H 1.00199 0.87065 0.83907 0.0
S778 S 0.03387 0.75616 0.98307 0.0
N779 N 1.001 0.76434 0.99003 0.0
N780 N 0.04761 0.78523 0.93274 0.0
C781 C 0.02516 0.80276 0.91832 0.0
C782 C 0.99988 0.79157 0.94914 0.0
C783 C 0.67506 0.09779 0.0742 0.0
C784 C 0.68428 0.12765 0.06967 0.0
C785 C 0.65029 0.09278 0.05416 0.0
C786 C 0.63376 0.11733 0.02749 0.0
H787 H 0.68681 0.0782 0.096 0.0
H788 H 0.6439 0.06943 0.06096 0.0
S789 S 0.64887 0.20012 1.00538 0.0
N790 N 0.67514 0.1824 0.03902 0.0
N791 N 0.62852 0.17282 0.99703 0.0
C792 C 0.64271 0.14749 0.02262 0.0
C793 C 0.66802 0.15268 0.04466 0.0
C794 C 0.51656 0.58996 0.07411 0.0
C795 C 0.51064 0.62037 0.04646 0.0
C796 C 0.50652 0.56406 0.04298 0.0
C797 C 0.49225 0.56675 0.97743 0.0
H798 H 0.53002 0.58543 0.11772 0.0
H799 H 0.51162 0.5413 0.06681 0.0
S800 S 0.46571 0.64116 0.89525 0.0
N801 N 0.4838 0.65221 0.96297 0.0
N802 N 0.46816 0.60245 0.89577 0.0
C803 C 0.48415 0.59698 0.95331 0.0
C804 C 0.49299 0.62392 0.9889 0.0
C805 C 0.89823 0.57365 1.00435 0.0
C806 C 0.87779 0.57954 0.07463 0.0
C807 C 0.91004 0.54284 0.98209 0.0
C808 C 0.9018 0.51725 0.02966 0.0
H809 H 0.90603 0.59296 0.96927 0.0
H810 H 0.927 0.53924 0.93088 0.0
S811 S 0.84875 0.52061 0.21853 0.0
N812 N 0.84965 0.55738 0.19112 0.0
N813 N 0.87142 0.49975 0.14771 0.0
C814 C 0.88066 0.52281 0.09785 0.0
C815 C 0.86876 0.55393 0.12067 0.0
C816 C 0.03668 0.14346 0.97282 0.0
C817 C 0.04049 0.14173 0.05564 0.0
C818 C 0.03685 0.11609 0.92307 0.0
C819 C 0.04088 0.08571 0.95389 0.0
H820 H 0.03205 0.16614 0.94772 0.0
H821 H 0.03282 0.1189 0.86074 0.0
S822 S 0.05433 0.06878 0.16536 0.0
N823 N 0.05011 0.10751 0.1649 0.0
N824 N 0.0509 0.05618 0.07212 0.0
C825 C 0.04616 0.08385 0.03557 0.0
C826 C 0.04579 0.11176 0.08615 0.0
C827 C 0.39813 0.97913 0.93193 0.0
C828 C 0.38662 0.99545 1.00837 0.0
C829 C 0.42378 0.98436 0.88648 0.0
C830 C 0.43962 1.0061 0.915 0.0
H831 H 0.38768 0.96094 0.90871 0.0
H832 H 0.43171 0.97011 0.83019 0.0
S833 S 0.41812 0.05704 0.10802 0.0
N834 N 0.39269 0.03579 0.1074 0.0
N835 N 0.44041 0.04592 0.02301 0.0
C836 C 0.42771 0.0238 0.9892 0.0
C837 C 0.40146 0.0185 0.03524 0.0
C838 C 0.48903 0.37399 0.94442 0.0
C839 C 0.50735 0.35887 0.99044 0.0
C840 C 0.49434 0.40165 0.90122 0.0
C841 C 0.51814 0.4161 0.90247 0.0
H842 H 0.46958 0.36535 0.94588 0.0
H843 H 0.47888 0.41269 0.87037 0.0
S844 S 0.57423 0.38414 1.0059 0.0
N845 N 0.55135 0.35924 0.02831 0.0
N846 N 0.56155 0.41063 0.94781 0.0
C847 C 0.53744 0.39998 0.94373 0.0
C848 C 0.53203 0.37165 0.98719 0.0
C849 C 0.13459 0.49572 0.97376 0.0
C850 C 0.15798 0.48212 0.91979 0.0
C851 C 0.10952 0.50035 0.94773 0.0
C852 C 0.10677 0.49195 0.8662 0.0
H853 H 0.13542 0.50147 0.038 0.0
H854 H 0.09202 0.51023 0.99231 0.0
S855 S 0.1617 0.45536 0.70034 0.0
N856 N 0.17663 0.45986 0.78108 0.0
N857 N 0.12984 0.46979 0.73108 0.0
C858 C 0.13016 0.47927 0.81064 0.0
C859 C 0.15563 0.47396 0.83775 0.0
C860 C 0.02467 0.87219 0.606 0.0
C861 C 0.99914 0.86996 0.58515 0.0
C862 C 0.03005 0.89884 0.6502 0.0
C863 C 1.01009 0.92429 0.67637 0.0
H864 H 0.04088 0.85368 0.58557 0.0
H865 H 0.05028 0.89985 0.66207 0.0
S866 S 0.93905 0.92849 0.64492 0.0
N867 N 0.95316 0.89462 0.5992 0.0
N868 N 0.9631 0.94419 0.68222 0.0
C869 C 0.98423 0.9218 0.65806 0.0
C870 C 0.97881 0.89481 0.61283 0.0
C871 C 0.64908 0.98251 0.5756 0.0
C872 C 0.66445 0.00733 0.58883 0.0
C873 C 0.62245 0.98109 0.621 0.0
C874 C 0.60959 1.00444 0.68211 0.0
H875 H 0.65723 0.96463 0.52732 0.0
H876 H 0.61157 0.96184 0.60615 0.0
S877 S 0.6419 0.07303 0.74654 0.0
N878 N 0.66528 0.05437 0.67366 0.0
N879 N 0.61575 0.05245 0.75531 0.0
C880 C 0.62522 0.02875 0.69772 0.0
C881 C 0.65232 0.02997 0.65237 0.0
C882 C 0.55904 0.64734 0.68157 0.0
C883 C 0.54054 0.66213 0.63553 0.0
C884 C 0.55416 0.61952 0.72466 0.0
C885 C 0.53057 0.60462 0.72366 0.0
H886 H 0.57833 0.65636 0.68019 0.0
H887 H 0.56976 0.60881 0.75546 0.0
S888 S 0.4741 0.63555 0.6203 0.0
N889 N 0.49661 0.66088 0.59784 0.0
N890 N 0.48712 0.60932 0.67837 0.0
C891 C 0.51106 0.62042 0.68248 0.0
C892 C 0.51607 0.64886 0.63892 0.0
C893 C 0.91187 0.56957 0.73575 0.0
C894 C 0.90219 0.54935 0.68088 0.0
C895 C 0.93564 0.56116 0.76685 0.0
C896 C 0.95048 0.53156 0.74779 0.0
H897 H 0.90165 0.59292 0.75184 0.0
H898 H 0.94264 0.57824 0.80553 0.0
S899 S 0.93301 0.46835 0.61426 0.0
N900 N 0.90909 0.49742 0.61277 0.0
N901 N 0.95268 0.48092 0.67536 0.0
C902 C 0.94008 0.51013 0.69825 0.0
C903 C 0.91619 0.51907 0.66435 0.0
loop_
_geom_bond_atom_site_label_1
_geom_bond_atom_site_label_2
_geom_bond_distance
_geom_bond_site_symmetry_2
_ccdc_geom_bond_type
C0 C1 1.391 . S
C0 C4 1.391 . S
C0 H42 0.948 . S
C1 C0 1.391 . S
C1 C2 1.391 . S
C2 C1 1.391 . S
C2 H58 0.947 . S
C2 C59 1.392 . S
C3 C4 1.391 . S
C3 C7 1.397 . S
C3 C59 1.419 . S
C4 C0 1.391 . S
C4 C3 1.391 . S
C4 C5 1.399 . S
C5 C4 1.399 . S
C5 C8 1.396 . S
C5 C17 1.453 . S
C5 C18 1.684 . S
H6 C30 0.948 . S
C7 C3 1.397 . S
C7 C8 1.394 . S
C7 C26 1.723 . S
C8 C5 1.396 . S
C8 C7 1.394 . S
C8 C38 1.723 . S
H9 C32 0.947 . S
H10 C33 0.948 . S
H11 C39 0.982 . S
H12 C40 0.979 . S
H13 C40 0.980 . S
H14 C40 0.983 . S
H15 C39 0.979 . S
H16 C39 0.977 . S
C17 C5 1.453 . S
C17 H46 0.982 . S
C17 H47 0.979 . S
C17 H48 0.977 . S
C18 C5 1.684 . S
C18 H43 0.979 . S
C18 H44 0.980 . S
C18 H45 0.983 . S
C19 C20 1.391 . S
C19 C24 1.391 . S
C19 H49 0.948 . S
C20 C19 1.391 . S
C20 C21 1.391 . S
C21 C20 1.391 . S
C21 C22 1.392 . S
C21 H50 0.947 . S
C22 C21 1.392 . S
C22 C23 1.419 . S
C22 H51 0.948 . S
C23 C22 1.419 . S
C23 C24 1.391 . S
C23 C27 1.397 . S
C24 C19 1.391 . S
C24 C23 1.391 . S
C24 C25 1.399 . S
C25 C24 1.399 . S
C25 C26 1.396 . S
C25 C28 1.453 . S
C25 C29 1.684 . S
C26 C7 1.723 . S
C26 C25 1.396 . S
C26 C27 1.394 . S
C27 C23 1.397 . S
C27 C26 1.394 . S
C27 C37 1.723 . S
C28 C25 1.453 . S
C28 H52 0.982 . S
C28 H53 0.979 . S
C28 H54 0.977 . S
C29 C25 1.684 . S
C29 H55 0.979 . S
C29 H56 0.980 . S
C29 H57 0.983 . S
C30 H6 0.948 . S
C30 C31 1.391 . S
C30 C35 1.391 . S
C31 C30 1.391 . S
C31 C32 1.391 . S
C32 H9 0.947 . S
C32 C31 1.391 . S
C32 C33 1.392 . S
C33 H10 0.948 . S
C33 C32 1.392 . S
C33 C34 1.419 . S
C34 C33 1.419 . S
C34 C35 1.391 . S
C34 C38 1.397 . S
C35 C30 1.391 . S
C35 C34 1.391 . S
C35 C36 1.399 . S
C36 C35 1.399 . S
C36 C37 1.396 . S
C36 C39 1.453 . S
C36 C40 1.684 . S
C37 C27 1.723 . S
C37 C36 1.396 . S
C37 C38 1.394 . S
C38 C8 1.723 . S
C38 C34 1.397 . S
C38 C37 1.394 . S
C39 H11 0.982 . S
C39 H15 0.979 . S
C39 H16 0.977 . S
C39 C36 1.453 . S
C40 H12 0.979 . S
C40 H13 0.980 . S
C40 H14 0.983 . S
C40 C36 1.684 . S
H41 C59 0.948 . S
H42 C0 0.948 . S
H43 C18 0.979 . S
H44 C18 0.980 . S
H45 C18 0.983 . S
H46 C17 0.982 . S
H47 C17 0.979 . S
H48 C17 0.977 . S
H49 C19 0.948 . S
H50 C21 0.947 . S
H51 C22 0.948 . S
H52 C28 0.982 . S
H53 C28 0.979 . S
H54 C28 0.977 . S
H55 C29 0.979 . S
H56 C29 0.980 . S
H57 C29 0.983 . S
H58 C2 0.947 . S
C59 C2 1.392 . S
C59 C3 1.419 . S
C59 H41 0.948 . S
C60 C61 1.391 . S
C60 C64 1.391 . S
C60 H102 0.948 . S
C61 C60 1.391 . S
C61 C62 1.391 . S
C62 C61 1.391 . S
C62 H118 0.947 . S
C62 C119 1.392 . S
C63 C64 1.391 . S
C63 C67 1.397 1_655 S
C63 C119 1.419 . S
C64 C60 1.391 . S
C64 C63 1.391 . S
C64 C65 1.399 . S
C65 C64 1.399 . S
C65 C68 1.396 1_655 S
C65 C77 1.453 1_655 S
C65 C78 1.684 . S
H66 C90 0.948 . S
C67 C63 1.397 1_455 S
C67 C68 1.395 . S
C67 C86 1.722 . S
C68 C65 1.396 1_455 S
C68 C67 1.395 . S
C68 C98 1.723 . S
H69 C92 0.947 . S
H70 C93 0.948 . S
H71 C99 0.982 . S
H72 C100 0.979 . S
H73 C100 0.980 . S
H74 C100 0.983 . S
H75 C99 0.979 . S
H76 C99 0.977 . S
C77 C65 1.453 1_455 S
C77 H106 0.982 . S
C77 H107 0.979 . S
C77 H108 0.977 . S
C78 C65 1.684 . S
C78 H103 0.979 . S
C78 H104 0.980 . S
C78 H105 0.983 . S
C79 C80 1.391 . S
C79 C84 1.391 . S
C79 H109 0.948 . S
C80 C79 1.391 . S
C80 C81 1.391 . S
C81 C80 1.391 . S
C81 C82 1.392 . S
C81 H110 0.947 . S
C82 C81 1.392 . S
C82 C83 1.419 . S
C82 H111 0.948 . S
C83 C82 1.419 . S
C83 C84 1.391 . S
C83 C87 1.397 1_655 S
C84 C79 1.391 . S
C84 C83 1.391 . S
C84 C85 1.399 . S
C85 C84 1.399 . S
C85 C86 1.396 1_655 S
C85 C88 1.453 1_655 S
C85 C89 1.684 . S
C86 C67 1.722 . S
C86 C85 1.396 1_455 S
C86 C87 1.394 . S
C87 C83 1.397 1_455 S
C87 C86 1.394 . S
C87 C97 1.723 . S
C88 C85 1.453 1_455 S
C88 H112 0.982 . S
C88 H113 0.979 . S
C88 H114 0.977 . S
C89 C85 1.684 . S
C89 H115 0.979 . S
C89 H116 0.980 . S
C89 H117 0.983 . S
C90 H66 0.948 . S
C90 C91 1.391 . S
C90 C95 1.391 . S
C91 C90 1.391 . S
C91 C92 1.391 . S
C92 H69 0.947 . S
C92 C91 1.391 . S
C92 C93 1.392 . S
C93 H70 0.948 . S
C93 C92 1.392 . S
C93 C94 1.419 . S
C94 C93 1.419 . S
C94 C95 1.391 . S
C94 C98 1.397 1_655 S
C95 C90 1.391 . S
C95 C94 1.391 . S
C95 C96 1.399 . S
C96 C95 1.399 . S
C96 C97 1.396 1_655 S
C96 C99 1.453 1_655 S
C96 C100 1.684 . S
C97 C87 1.723 . S
C97 C96 1.396 1_455 S
C97 C98 1.394 . S
C98 C68 1.723 . S
C98 C94 1.397 1_455 S
C98 C97 1.394 . S
C99 H71 0.982 . S
C99 H75 0.979 . S
C99 H76 0.977 . S
C99 C96 1.453 1_455 S
C100 H72 0.979 . S
C100 H73 0.980 . S
C100 H74 0.983 . S
C100 C96 1.684 . S
H101 C119 0.948 . S
H102 C60 0.948 . S
H103 C78 0.979 . S
H104 C78 0.980 . S
H105 C78 0.983 . S
H106 C77 0.982 . S
H107 C77 0.979 . S
H108 C77 0.977 . S
H109 C79 0.948 . S
H110 C81 0.947 . S
H111 C82 0.948 . S
H112 C88 0.982 . S
H113 C88 0.979 . S
H114 C88 0.977 . S
H115 C89 0.979 . S
H116 C89 0.980 . S
H117 C89 0.983 . S
H118 C62 0.947 . S
C119 C62 1.392 . S
C119 C63 1.419 . S
C119 H101 0.948 . S
C120 C121 1.391 . S
C120 C124 1.391 . S
C120 H162 0.948 . S
C121 C120 1.391 . S
C121 C122 1.391 . S
C122 C121 1.391 . S
C122 H178 0.947 . S
C122 C179 1.392 . S
C123 C124 1.391 . S
C123 C127 1.397 1_565 S
C123 C179 1.419 . S
C124 C120 1.391 . S
C124 C123 1.391 . S
C124 C125 1.399 . S
C125 C124 1.399 . S
C125 C128 1.396 1_565 S
C125 C137 1.453 1_565 S
C125 C138 1.684 . S
H126 C150 0.948 . S
C127 C123 1.397 1_545 S
C127 C128 1.394 . S
C127 C146 1.723 . S
C128 C125 1.396 1_545 S
C128 C127 1.394 . S
C128 C158 1.723 . S
H129 C152 0.947 . S
H130 C153 0.948 . S
H131 C159 0.982 . S
H132 C160 0.979 . S
H133 C160 0.980 . S
H134 C160 0.983 . S
H135 C159 0.979 . S
H136 C159 0.977 . S
C137 C125 1.453 1_545 S
C137 H166 0.982 . S
C137 H167 0.979 . S
C137 H168 0.977 . S
C138 C125 1.684 . S
C138 H163 0.979 . S
C138 H164 0.980 . S
C138 H165 0.983 . S
C139 C140 1.391 . S
C139 C144 1.391 . S
C139 H169 0.948 . S
C140 C139 1.391 . S
C140 C141 1.391 . S
C141 C140 1.391 . S
C141 C142 1.392 . S
C141 H170 0.947 . S
C142 C141 1.392 . S
C142 C143 1.419 . S
C142 H171 0.948 . S
C143 C142 1.419 . S
C143 C144 1.391 . S
C143 C147 1.397 1_565 S
C144 C139 1.391 . S
C144 C143 1.391 . S
C144 C145 1.399 . S
C145 C144 1.399 . S
C145 C146 1.396 1_565 S
C145 C148 1.453 1_565 S
C145 C149 1.684 . S
C146 C127 1.723 . S
C146 C145 1.396 1_545 S
C146 C147 1.394 . S
C147 C143 1.397 1_545 S
C147 C146 1.394 . S
C147 C157 1.723 . S
C148 C145 1.453 1_545 S
C148 H172 0.982 . S
C148 H173 0.979 . S
C148 H174 0.977 . S
C149 C145 1.684 . S
C149 H175 0.979 . S
C149 H176 0.980 . S
C149 H177 0.983 . S
C150 H126 0.948 . S
C150 C151 1.391 . S
C150 C155 1.391 . S
C151 C150 1.391 . S
C151 C152 1.391 . S
C152 H129 0.947 . S
C152 C151 1.391 . S
C152 C153 1.392 . S
C153 H130 0.948 . S
C153 C152 1.392 . S
C153 C154 1.419 . S
C154 C153 1.419 . S
C154 C155 1.391 . S
C154 C158 1.397 1_565 S
C155 C150 1.391 . S
C155 C154 1.391 . S
C155 C156 1.399 . S
C156 C155 1.399 . S
C156 C157 1.396 1_565 S
C156 C159 1.453 1_565 S
C156 C160 1.684 . S
C157 C147 1.723 . S
C157 C156 1.396 1_545 S
C157 C158 1.394 . S
C158 C128 1.723 . S
C158 C154 1.397 1_545 S
C158 C157 1.394 . S
C159 H131 0.982 . S
C159 H135 0.979 . S
C159 H136 0.977 . S
C159 C156 1.453 1_545 S
C160 H132 0.979 . S
C160 H133 0.980 . S
C160 H134 0.983 . S
C160 C156 1.684 . S
H161 C179 0.948 . S
H162 C120 0.948 . S
H163 C138 0.979 . S
H164 C138 0.980 . S
H165 C138 0.983 . S
H166 C137 0.982 . S
H167 C137 0.979 . S
H168 C137 0.977 . S
H169 C139 0.948 . S
H170 C141 0.947 . S
H171 C142 0.948 . S
H172 C148 0.982 . S
H173 C148 0.979 . S
H174 C148 0.977 . S
H175 C149 0.979 . S
H176 C149 0.980 . S
H177 C149 0.983 . S
H178 C122 0.947 . S
C179 C122 1.392 . S
C179 C123 1.419 . S
C179 H161 0.948 . S
C180 C181 1.391 . S
C180 C184 1.391 . S
C180 H222 0.948 . S
C181 C180 1.391 . S
C181 C182 1.391 . S
C182 C181 1.391 . S
C182 H238 0.947 . S
C182 C239 1.392 . S
C183 C184 1.391 . S
C183 C187 1.397 . S
C183 C239 1.419 . S
C184 C180 1.391 . S
C184 C183 1.391 . S
C184 C185 1.399 . S
C185 C184 1.399 . S
C185 C188 1.396 . S
C185 C197 1.453 . S
C185 C198 1.684 . S
H186 C210 0.948 . S
C187 C183 1.397 . S
C187 C188 1.394 . S
C187 C206 1.723 . S
C188 C185 1.396 . S
C188 C187 1.394 . S
C188 C218 1.723 . S
H189 C212 0.947 . S
H190 C213 0.948 . S
H191 C219 0.982 1_554 S
H192 C220 0.979 1_554 S
H193 C220 0.980 . S
H194 C220 0.983 . S
H195 C219 0.979 . S
H196 C219 0.977 . S
C197 C185 1.453 . S
C197 H226 0.982 . S
C197 H227 0.979 . S
C197 H228 0.977 . S
C198 C185 1.684 . S
C198 H223 0.979 . S
C198 H224 0.980 . S
C198 H225 0.983 . S
C199 C200 1.391 1_554 S
C199 C204 1.391 . S
C199 H229 0.948 . S
C200 C199 1.391 1_556 S
C200 C201 1.391 . S
C201 C200 1.391 . S
C201 C202 1.392 . S
C201 H230 0.947 . S
C202 C201 1.392 . S
C202 C203 1.419 1_556 S
C202 H231 0.948 . S
C203 C202 1.419 1_554 S
C203 C204 1.391 . S
C203 C207 1.397 . S
C204 C199 1.391 . S
C204 C203 1.391 . S
C204 C205 1.399 . S
C205 C204 1.399 . S
C205 C206 1.396 . S
C205 C208 1.453 . S
C205 C209 1.684 . S
C206 C187 1.723 . S
C206 C205 1.396 . S
C206 C207 1.394 . S
C207 C203 1.397 . S
C207 C206 1.394 . S
C207 C217 1.723 . S
C208 C205 1.453 . S
C208 H232 0.982 . S
C208 H233 0.979 . S
C208 H234 0.977 . S
C209 C205 1.684 . S
C209 H235 0.979 . S
C209 H236 0.980 . S
C209 H237 0.983 . S
C210 H186 0.948 . S
C210 C211 1.391 . S
C210 C215 1.391 . S
C211 C210 1.391 . S
C211 C212 1.391 . S
C212 H189 0.947 . S
C212 C211 1.391 . S
C212 C213 1.392 . S
C213 H190 0.948 . S
C213 C212 1.392 . S
C213 C214 1.419 . S
C214 C213 1.419 . S
C214 C215 1.391 . S
C214 C218 1.397 . S
C215 C210 1.391 . S
C215 C214 1.391 . S
C215 C216 1.399 . S
C216 C215 1.399 . S
C216 C217 1.396 . S
C216 C219 1.453 1_554 S
C216 C220 1.684 1_554 S
C217 C207 1.723 . S
C217 C216 1.396 . S
C217 C218 1.394 . S
C218 C188 1.723 . S
C218 C214 1.397 . S
C218 C217 1.394 . S
C219 H191 0.982 1_556 S
C219 H195 0.979 . S
C219 H196 0.977 . S
C219 C216 1.453 1_556 S
C220 H192 0.979 1_556 S
C220 H193 0.980 . S
C220 H194 0.983 . S
C220 C216 1.684 1_556 S
H221 C239 0.948 . S
H222 C180 0.948 . S
H223 C198 0.979 . S
H224 C198 0.980 . S
H225 C198 0.983 . S
H226 C197 0.982 . S
H227 C197 0.979 . S
H228 C197 0.977 . S
H229 C199 0.948 . S
H230 C201 0.947 . S
H231 C202 0.948 . S
H232 C208 0.982 . S
H233 C208 0.979 . S
H234 C208 0.977 . S
H235 C209 0.979 . S
H236 C209 0.980 . S
H237 C209 0.983 . S
H238 C182 0.947 . S
C239 C182 1.392 . S
C239 C183 1.419 . S
C239 H221 0.948 . S
C240 C241 1.391 1_556 S
C240 C244 1.391 . S
C240 H282 0.948 . S
C241 C240 1.391 1_554 S
C241 C242 1.391 . S
C242 C241 1.391 . S
C242 H298 0.947 . S
C242 C299 1.392 . S
C243 C244 1.391 1_554 S
C243 C247 1.397 . S
C243 C299 1.419 . S
C244 C240 1.391 . S
C244 C243 1.391 1_556 S
C244 C245 1.399 . S
C245 C244 1.399 . S
C245 C248 1.396 . S
C245 C257 1.453 . S
C245 C258 1.684 . S
H246 C270 0.948 . S
C247 C243 1.397 . S
C247 C248 1.394 1_554 S
C247 C266 1.723 . S
C248 C245 1.396 . S
C248 C247 1.394 1_556 S
C248 C278 1.723 . S
H249 C272 0.947 . S
H250 C273 0.948 . S
H251 C279 0.982 . S
H252 C280 0.979 . S
H253 C280 0.980 . S
H254 C280 0.983 . S
H255 C279 0.979 . S
H256 C279 0.977 . S
C257 C245 1.453 . S
C257 H286 0.982 . S
C257 H287 0.979 . S
C257 H288 0.977 . S
C258 C245 1.684 . S
C258 H283 0.979 . S
C258 H284 0.980 . S
C258 H285 0.983 . S
C259 C260 1.391 . S
C259 C264 1.391 . S
C259 H289 0.948 . S
C260 C259 1.391 . S
C260 C261 1.391 . S
C261 C260 1.391 . S
C261 C262 1.392 . S
C261 H290 0.947 . S
C262 C261 1.392 . S
C262 C263 1.419 . S
C262 H291 0.948 . S
C263 C262 1.419 . S
C263 C264 1.391 . S
C263 C267 1.397 . S
C264 C259 1.391 . S
C264 C263 1.391 . S
C264 C265 1.399 . S
C265 C264 1.399 . S
C265 C266 1.396 . S
C265 C268 1.453 . S
C265 C269 1.684 . S
C266 C247 1.723 . S
C266 C265 1.396 . S
C266 C267 1.394 . S
C267 C263 1.397 . S
C267 C266 1.394 . S
C267 C277 1.723 1_554 S
C268 C265 1.453 . S
C268 H292 0.982 . S
C268 H293 0.979 . S
C268 H294 0.977 . S
C269 C265 1.684 . S
C269 H295 0.979 . S
C269 H296 0.980 . S
C269 H297 0.983 . S
C270 H246 0.948 . S
C270 C271 1.391 . S
C270 C275 1.391 . S
C271 C270 1.391 . S
C271 C272 1.391 . S
C272 H249 0.947 . S
C272 C271 1.391 . S
C272 C273 1.392 . S
C273 H250 0.948 . S
C273 C272 1.392 . S
C273 C274 1.419 . S
C274 C273 1.419 . S
C274 C275 1.391 . S
C274 C278 1.397 . S
C275 C270 1.391 . S
C275 C274 1.391 . S
C275 C276 1.399 . S
C276 C275 1.399 . S
C276 C277 1.396 . S
C276 C279 1.453 . S
C276 C280 1.684 . S
C277 C267 1.723 1_556 S
C277 C276 1.396 . S
C277 C278 1.394 . S
C278 C248 1.723 . S
C278 C274 1.397 . S
C278 C277 1.394 . S
C279 H251 0.982 . S
C279 H255 0.979 . S
C279 H256 0.977 . S
C279 C276 1.453 . S
C280 H252 0.979 . S
C280 H253 0.980 . S
C280 H254 0.983 . S
C280 C276 1.684 . S
H281 C299 0.948 . S
H282 C240 0.948 . S
H283 C258 0.979 . S
H284 C258 0.980 . S
H285 C258 0.983 . S
H286 C257 0.982 . S
H287 C257 0.979 . S
H288 C257 0.977 . S
H289 C259 0.948 . S
H290 C261 0.947 . S
H291 C262 0.948 . S
H292 C268 0.982 . S
H293 C268 0.979 . S
H294 C268 0.977 . S
H295 C269 0.979 . S
H296 C269 0.980 . S
H297 C269 0.983 . S
H298 C242 0.947 . S
C299 C242 1.392 . S
C299 C243 1.419 . S
C299 H281 0.948 . S
C300 C301 1.391 . S
C300 C304 1.391 . S
C300 H342 0.948 . S
C301 C300 1.391 . S
C301 C302 1.391 . S
C302 C301 1.391 . S
C302 H358 0.947 . S
C302 C359 1.392 . S
C303 C304 1.391 . S
C303 C307 1.397 1_655 S
C303 C359 1.419 . S
C304 C300 1.391 . S
C304 C303 1.391 . S
C304 C305 1.399 . S
C305 C304 1.399 . S
C305 C308 1.396 1_655 S
C305 C317 1.453 1_655 S
C305 C318 1.684 . S
H306 C330 0.948 . S
C307 C303 1.397 1_455 S
C307 C308 1.396 . S
C307 C326 1.722 . S
C308 C305 1.396 1_455 S
C308 C307 1.396 . S
C308 C338 1.723 . S
H309 C332 0.947 . S
H310 C333 0.948 . S
H311 C339 0.982 . S
H312 C340 0.979 . S
H313 C340 0.980 1_556 S
H314 C340 0.983 . S
H315 C339 0.979 . S
H316 C339 0.977 1_556 S
C317 C305 1.453 1_455 S
C317 H346 0.982 . S
C317 H347 0.979 . S
C317 H348 0.977 . S
C318 C305 1.684 . S
C318 H343 0.979 . S
C318 H344 0.980 . S
C318 H345 0.983 . S
C319 C320 1.391 . S
C319 C324 1.391 . S
C319 H349 0.948 . S
C320 C319 1.391 . S
C320 C321 1.391 . S
C321 C320 1.391 . S
C321 C322 1.392 . S
C321 H350 0.947 . S
C322 C321 1.392 . S
C322 C323 1.419 . S
C322 H351 0.948 . S
C323 C322 1.419 . S
C323 C324 1.391 . S
C323 C327 1.395 1_656 S
C324 C319 1.391 . S
C324 C323 1.391 . S
C324 C325 1.399 1_556 S
C325 C324 1.399 1_554 S
C325 C326 1.396 1_655 S
C325 C328 1.453 1_655 S
C325 C329 1.684 . S
C326 C307 1.722 . S
C326 C325 1.396 1_455 S
C326 C327 1.394 . S
C327 C323 1.395 1_454 S
C327 C326 1.394 . S
C327 C337 1.725 . S
C328 C325 1.453 1_455 S
C328 H352 0.982 . S
C328 H353 0.979 . S
C328 H354 0.977 . S
C329 C325 1.684 . S
C329 H355 0.979 . S
C329 H356 0.980 . S
C329 H357 0.983 . S
C330 H306 0.948 . S
C330 C331 1.391 . S
C330 C335 1.391 . S
C331 C330 1.391 . S
C331 C332 1.391 . S
C332 H309 0.947 . S
C332 C331 1.391 . S
C332 C333 1.392 . S
C333 H310 0.948 . S
C333 C332 1.392 . S
C333 C334 1.419 . S
C334 C333 1.419 . S
C334 C335 1.391 . S
C334 C338 1.398 1_655 S
C335 C330 1.391 . S
C335 C334 1.391 . S
C335 C336 1.399 . S
C336 C335 1.399 . S
C336 C337 1.396 1_655 S
C336 C339 1.453 1_655 S
C336 C340 1.684 . S
C337 C327 1.725 . S
C337 C336 1.396 1_455 S
C337 C338 1.393 . S
C338 C308 1.723 . S
C338 C334 1.398 1_455 S
C338 C337 1.393 . S
C339 H311 0.982 . S
C339 H315 0.979 . S
C339 H316 0.977 1_554 S
C339 C336 1.453 1_455 S
C340 H312 0.979 . S
C340 H313 0.980 1_554 S
C340 H314 0.983 . S
C340 C336 1.684 . S
H341 C359 0.948 . S
H342 C300 0.948 . S
H343 C318 0.979 . S
H344 C318 0.980 . S
H345 C318 0.983 . S
H346 C317 0.982 . S
H347 C317 0.979 . S
H348 C317 0.977 . S
H349 C319 0.948 . S
H350 C321 0.947 . S
H351 C322 0.948 . S
H352 C328 0.982 . S
H353 C328 0.979 . S
H354 C328 0.977 . S
H355 C329 0.979 . S
H356 C329 0.980 . S
H357 C329 0.983 . S
H358 C302 0.947 . S
C359 C302 1.392 . S
C359 C303 1.419 . S
C359 H341 0.948 . S
C360 C361 1.391 . S
C360 C364 1.391 1_556 S
C360 H402 0.948 . S
C361 C360 1.391 . S
C361 C362 1.391 . S
C362 C361 1.391 . S
C362 H418 0.947 . S
C362 C419 1.392 1_556 S
C363 C364 1.391 . S
C363 C367 1.397 1_545 S
C363 C419 1.419 . S
C364 C360 1.391 1_554 S
C364 C363 1.391 . S
C364 C365 1.399 . S
C365 C364 1.399 . S
C365 C368 1.396 1_545 S
C365 C377 1.453 1_545 S
C365 C378 1.684 . S
H366 C390 0.948 . S
C367 C363 1.397 1_565 S
C367 C368 1.394 . S
C367 C386 1.723 . S
C368 C365 1.396 1_565 S
C368 C367 1.394 . S
C368 C398 1.723 . S
H369 C392 0.947 . S
H370 C393 0.948 . S
H371 C399 0.982 . S
H372 C400 0.979 . S
H373 C400 0.980 . S
H374 C400 0.983 . S
H375 C399 0.979 . S
H376 C399 0.977 . S
C377 C365 1.453 1_565 S
C377 H406 0.982 . S
C377 H407 0.979 1_554 S
C377 H408 0.977 . S
C378 C365 1.684 . S
C378 H403 0.979 . S
C378 H404 0.980 . S
C378 H405 0.983 1_554 S
C379 C380 1.391 . S
C379 C384 1.391 . S
C379 H409 0.948 . S
C380 C379 1.391 . S
C380 C381 1.391 . S
C381 C380 1.391 . S
C381 C382 1.392 . S
C381 H410 0.947 . S
C382 C381 1.392 . S
C382 C383 1.419 . S
C382 H411 0.948 . S
C383 C382 1.419 . S
C383 C384 1.391 . S
C383 C387 1.397 1_545 S
C384 C379 1.391 . S
C384 C383 1.391 . S
C384 C385 1.399 . S
C385 C384 1.399 . S
C385 C386 1.396 1_545 S
C385 C388 1.453 1_545 S
C385 C389 1.684 . S
C386 C367 1.723 . S
C386 C385 1.396 1_565 S
C386 C387 1.394 . S
C387 C383 1.397 1_565 S
C387 C386 1.394 . S
C387 C397 1.723 . S
C388 C385 1.453 1_565 S
C388 H412 0.982 . S
C388 H413 0.979 . S
C388 H414 0.977 . S
C389 C385 1.684 . S
C389 H415 0.979 . S
C389 H416 0.980 . S
C389 H417 0.983 . S
C390 H366 0.948 . S
C390 C391 1.391 . S
C390 C395 1.391 . S
C391 C390 1.391 . S
C391 C392 1.391 . S
C392 H369 0.947 . S
C392 C391 1.391 . S
C392 C393 1.392 . S
C393 H370 0.948 . S
C393 C392 1.392 . S
C393 C394 1.419 . S
C394 C393 1.419 . S
C394 C395 1.391 . S
C394 C398 1.397 1_545 S
C395 C390 1.391 . S
C395 C394 1.391 . S
C395 C396 1.399 . S
C396 C395 1.399 . S
C396 C397 1.396 1_545 S
C396 C399 1.453 1_545 S
C396 C400 1.684 . S
C397 C387 1.723 . S
C397 C396 1.396 1_565 S
C397 C398 1.394 . S
C398 C368 1.723 . S
C398 C394 1.397 1_565 S
C398 C397 1.394 . S
C399 H371 0.982 . S
C399 H375 0.979 . S
C399 H376 0.977 . S
C399 C396 1.453 1_565 S
C400 H372 0.979 . S
C400 H373 0.980 . S
C400 H374 0.983 . S
C400 C396 1.684 . S
H401 C419 0.948 . S
H402 C360 0.948 . S
H403 C378 0.979 . S
H404 C378 0.980 . S
H405 C378 0.983 1_556 S
H406 C377 0.982 . S
H407 C377 0.979 1_556 S
H408 C377 0.977 . S
H409 C379 0.948 . S
H410 C381 0.947 . S
H411 C382 0.948 . S
H412 C388 0.982 . S
H413 C388 0.979 . S
H414 C388 0.977 . S
H415 C389 0.979 . S
H416 C389 0.980 . S
H417 C389 0.983 . S
H418 C362 0.947 . S
C419 C362 1.392 1_554 S
C419 C363 1.419 . S
C419 H401 0.948 . S
C420 C421 1.391 . S
C420 C424 1.391 . S
C420 H462 0.948 . S
C421 C420 1.391 . S
C421 C422 1.391 . S
C422 C421 1.391 . S
C422 H478 0.947 . S
C422 C479 1.392 . S
C423 C424 1.391 . S
C423 C427 1.397 . S
C423 C479 1.419 . S
C424 C420 1.391 . S
C424 C423 1.391 . S
C424 C425 1.399 . S
C425 C424 1.399 . S
C425 C428 1.396 . S
C425 C437 1.453 . S
C425 C438 1.684 . S
H426 C450 0.948 . S
C427 C423 1.397 . S
C427 C428 1.394 . S
C427 C446 1.723 . S
C428 C425 1.396 . S
C428 C427 1.394 . S
C428 C458 1.723 . S
H429 C452 0.947 . S
H430 C453 0.948 . S
H431 C459 0.982 . S
H432 C460 0.979 . S
H433 C460 0.980 . S
H434 C460 0.983 . S
H435 C459 0.979 . S
H436 C459 0.977 . S
C437 C425 1.453 . S
C437 H466 0.982 . S
C437 H467 0.979 . S
C437 H468 0.977 . S
C438 C425 1.684 . S
C438 H463 0.979 . S
C438 H464 0.980 . S
C438 H465 0.983 . S
C439 C440 1.391 . S
C439 C444 1.391 . S
C439 H469 0.948 . S
C440 C439 1.391 . S
C440 C441 1.391 . S
C441 C440 1.391 . S
C441 C442 1.392 . S
C441 H470 0.947 . S
C442 C441 1.392 . S
C442 C443 1.419 . S
C442 H471 0.948 . S
C443 C442 1.419 . S
C443 C444 1.391 . S
C443 C447 1.397 . S
C444 C439 1.391 . S
C444 C443 1.391 . S
C444 C445 1.399 . S
C445 C444 1.399 . S
C445 C446 1.396 . S
C445 C448 1.453 . S
C445 C449 1.684 . S
C446 C427 1.723 . S
C446 C445 1.396 . S
C446 C447 1.394 . S
C447 C443 1.397 . S
C447 C446 1.394 . S
C447 C457 1.723 . S
C448 C445 1.453 . S
C448 H472 0.982 . S
C448 H473 0.979 . S
C448 H474 0.977 . S
C449 C445 1.684 . S
C449 H475 0.979 . S
C449 H476 0.980 . S
C449 H477 0.983 . S
C450 H426 0.948 . S
C450 C451 1.391 . S
C450 C455 1.391 . S
C451 C450 1.391 . S
C451 C452 1.391 . S
C452 H429 0.947 . S
C452 C451 1.391 . S
C452 C453 1.392 . S
C453 H430 0.948 . S
C453 C452 1.392 . S
C453 C454 1.419 . S
C454 C453 1.419 . S
C454 C455 1.391 . S
C454 C458 1.397 . S
C455 C450 1.391 . S
C455 C454 1.391 . S
C455 C456 1.399 . S
C456 C455 1.399 . S
C456 C457 1.396 . S
C456 C459 1.453 . S
C456 C460 1.684 . S
C457 C447 1.723 . S
C457 C456 1.396 . S
C457 C458 1.394 . S
C458 C428 1.723 . S
C458 C454 1.397 . S
C458 C457 1.394 . S
C459 H431 0.982 . S
C459 H435 0.979 . S
C459 H436 0.977 . S
C459 C456 1.453 . S
C460 H432 0.979 . S
C460 H433 0.980 . S
C460 H434 0.983 . S
C460 C456 1.684 . S
H461 C479 0.948 . S
H462 C420 0.948 . S
H463 C438 0.979 . S
H464 C438 0.980 . S
H465 C438 0.983 . S
H466 C437 0.982 . S
H467 C437 0.979 . S
H468 C437 0.977 . S
H469 C439 0.948 . S
H470 C441 0.947 . S
H471 C442 0.948 . S
H472 C448 0.982 . S
H473 C448 0.979 . S
H474 C448 0.977 . S
H475 C449 0.979 . S
H476 C449 0.980 . S
H477 C449 0.983 . S
H478 C422 0.947 . S
C479 C422 1.392 . S
C479 C423 1.419 . S
C479 H461 0.948 . S
Dy480 O483 2.307 1_545 S
Dy480 O485 2.383 1_655 S
Dy480 O486 2.379 . S
Dy480 O488 2.339 . S
Dy480 O490 2.298 . S
Dy480 O494 2.275 1_655 S
Dy480 C502 2.738 . S
Dy481 O484 2.298 . S
Dy481 O487 2.275 1_455 S
Dy481 O489 2.307 1_565 S
Dy481 O491 2.387 1_455 S
Dy481 O492 2.379 . S
Dy481 O495 2.339 . S
Dy481 C511 2.738 . S
C482 O494 1.254 1_565 S
C482 O495 1.257 . S
O483 Dy480 2.307 1_565 S
O483 C493 1.266 . S
O484 Dy481 2.298 . S
O484 C493 1.236 1_455 S
O485 Dy480 2.383 1_455 S
O485 C502 1.228 1_455 S
O486 Dy480 2.379 . S
O486 C502 1.249 . S
O487 Dy481 2.275 1_655 S
O487 C503 1.254 1_565 S
O488 Dy480 2.339 . S
O488 C503 1.257 . S
O489 Dy481 2.307 1_545 S
O489 C504 1.266 . S
O490 Dy480 2.298 . S
O490 C504 1.236 1_655 S
O491 Dy481 2.387 1_655 S
O491 C511 1.237 1_655 S
O492 Dy481 2.379 . S
O492 C511 1.249 . S
C493 O483 1.266 . S
C493 O484 1.236 1_655 S
O494 Dy480 2.275 1_455 S
O494 C482 1.254 1_545 S
O495 Dy481 2.339 . S
O495 C482 1.257 . S
C496 C499 1.344 . S
C496 C500 1.328 . S
C496 C502 1.516 . S
C497 C498 1.304 . S
C497 C501 1.323 . S
C498 C497 1.304 . S
C498 C499 1.371 . S
C498 H512 0.930 1_655 S
C499 C496 1.344 . S
C499 C498 1.371 . S
C499 H513 0.931 1_655 S
C500 C496 1.328 . S
C500 C501 1.433 . S
C500 H514 0.931 . S
C501 C497 1.323 . S
C501 C500 1.433 . S
C501 H515 0.933 . S
C502 Dy480 2.738 . S
C502 O485 1.228 1_655 S
C502 O486 1.249 . S
C502 C496 1.516 . S
C503 O487 1.254 1_545 S
C503 O488 1.257 . S
C504 O489 1.266 . S
C504 O490 1.236 1_455 S
C505 C508 1.344 1_556 S
C505 C509 1.328 1_556 S
C505 C511 1.516 . S
C506 C507 1.304 . S
C506 C510 1.323 . S
C507 C506 1.304 . S
C507 C508 1.371 . S
C507 H516 0.930 1_455 S
C508 C505 1.344 1_554 S
C508 C507 1.371 . S
C508 H517 0.931 1_455 S
C509 C505 1.328 1_554 S
C509 C510 1.433 . S
C509 H518 0.931 1_554 S
C510 C506 1.323 . S
C510 C509 1.433 . S
C510 H519 0.933 . S
C511 Dy481 2.738 . S
C511 O491 1.237 1_455 S
C511 O492 1.249 . S
C511 C505 1.516 . S
H512 C498 0.930 1_455 S
H513 C499 0.931 1_455 S
H514 C500 0.931 . S
H515 C501 0.933 . S
H516 C507 0.930 1_655 S
H517 C508 0.931 1_655 S
H518 C509 0.931 1_556 S
H519 C510 0.933 . S
Dy520 O523 2.307 . S
Dy520 O525 2.395 1_565 S
Dy520 O526 2.379 . S
Dy520 O528 2.339 . S
Dy520 O530 2.298 . S
Dy520 O534 2.275 1_565 S
Dy520 C542 2.738 . S
Dy521 O524 2.298 . S
Dy521 O527 2.275 1_545 S
Dy521 O529 2.307 . S
Dy521 O531 2.395 1_545 S
Dy521 O532 2.379 . S
Dy521 O535 2.339 . S
Dy521 C551 2.738 . S
C522 O534 1.254 . S
C522 O535 1.257 . S
O523 Dy520 2.307 . S
O523 C533 1.266 . S
O524 Dy521 2.298 . S
O524 C533 1.236 1_545 S
O525 Dy520 2.395 1_545 S
O525 C542 1.255 1_545 S
O526 Dy520 2.379 . S
O526 C542 1.249 . S
O527 Dy521 2.275 1_565 S
O527 C543 1.254 . S
O528 Dy520 2.339 . S
O528 C543 1.257 . S
O529 Dy521 2.307 . S
O529 C544 1.266 . S
O530 Dy520 2.298 . S
O530 C544 1.236 1_565 S
O531 Dy521 2.395 1_565 S
O531 C551 1.255 1_565 S
O532 Dy521 2.379 . S
O532 C551 1.249 . S
C533 O523 1.266 . S
C533 O524 1.236 1_565 S
O534 Dy520 2.275 1_545 S
O534 C522 1.254 . S
O535 Dy521 2.339 . S
O535 C522 1.257 . S
C536 C539 1.344 . S
C536 C540 1.328 . S
C536 C542 1.516 . S
C537 C538 1.304 . S
C537 C541 1.323 . S
C538 C537 1.304 . S
C538 C539 1.371 . S
C538 H552 0.930 1_565 S
C539 C536 1.344 . S
C539 C538 1.371 . S
C539 H553 0.931 1_565 S
C540 C536 1.328 . S
C540 C541 1.433 . S
C540 H554 0.931 . S
C541 C537 1.323 . S
C541 C540 1.433 . S
C541 H555 0.933 . S
C542 Dy520 2.738 . S
C542 O525 1.255 1_565 S
C542 O526 1.249 . S
C542 C536 1.516 . S
C543 O527 1.254 . S
C543 O528 1.257 . S
C544 O529 1.266 . S
C544 O530 1.236 1_545 S
C545 C548 1.344 . S
C545 C549 1.328 1_556 S
C545 C551 1.516 . S
C546 C547 1.304 . S
C546 C550 1.323 . S
C547 C546 1.304 . S
C547 C548 1.371 1_554 S
C547 H556 0.930 1_545 S
C548 C545 1.344 . S
C548 C547 1.371 1_556 S
C548 H557 0.931 1_545 S
C549 C545 1.328 1_554 S
C549 C550 1.433 . S
C549 H558 0.931 . S
C550 C546 1.323 . S
C550 C549 1.433 . S
C550 H559 0.933 . S
C551 Dy521 2.738 . S
C551 O531 1.255 1_545 S
C551 O532 1.249 . S
C551 C545 1.516 . S
H552 C538 0.930 1_545 S
H553 C539 0.931 1_545 S
H554 C540 0.931 . S
H555 C541 0.933 . S
H556 C547 0.930 1_565 S
H557 C548 0.931 1_565 S
H558 C549 0.931 . S
H559 C550 0.933 . S
Dy560 O563 2.307 . S
Dy560 O565 2.395 . S
Dy560 O566 2.379 . S
Dy560 O568 2.339 . S
Dy560 O570 2.298 . S
Dy560 O574 2.275 . S
Dy560 C582 2.738 . S
Dy561 O564 2.298 . S
Dy561 O567 2.275 . S
Dy561 O569 2.307 . S
Dy561 O571 2.395 . S
Dy561 O572 2.379 . S
Dy561 O575 2.339 . S
Dy561 C591 2.738 . S
C562 O574 1.254 . S
C562 O575 1.257 . S
O563 Dy560 2.307 . S
O563 C573 1.266 . S
O564 Dy561 2.298 . S
O564 C573 1.236 . S
O565 Dy560 2.395 . S
O565 C582 1.255 . S
O566 Dy560 2.379 . S
O566 C582 1.249 . S
O567 Dy561 2.275 . S
O567 C583 1.254 . S
O568 Dy560 2.339 . S
O568 C583 1.257 . S
O569 Dy561 2.307 . S
O569 C584 1.266 . S
O570 Dy560 2.298 . S
O570 C584 1.236 . S
O571 Dy561 2.395 . S
O571 C591 1.255 . S
O572 Dy561 2.379 . S
O572 C591 1.249 . S
C573 O563 1.266 . S
C573 O564 1.236 . S
O574 Dy560 2.275 . S
O574 C562 1.254 . S
O575 Dy561 2.339 . S
O575 C562 1.257 . S
C576 C579 1.344 1_556 S
C576 C580 1.328 . S
C576 C582 1.516 . S
C577 C578 1.304 . S
C577 C581 1.323 1_554 S
C578 C577 1.304 . S
C578 C579 1.371 . S
C578 H592 0.930 . S
C579 C576 1.344 1_554 S
C579 C578 1.371 . S
C579 H593 0.931 . S
C580 C576 1.328 . S
C580 C581 1.433 . S
C580 H594 0.931 . S
C581 C577 1.323 1_556 S
C581 C580 1.433 . S
C581 H595 0.933 . S
C582 Dy560 2.738 . S
C582 O565 1.255 . S
C582 O566 1.249 . S
C582 C576 1.516 . S
C583 O567 1.254 . S
C583 O568 1.257 . S
C584 O569 1.266 . S
C584 O570 1.236 . S
C585 C588 1.344 . S
C585 C589 1.328 . S
C585 C591 1.516 . S
C586 C587 1.304 . S
C586 C590 1.323 . S
C587 C586 1.304 . S
C587 C588 1.371 . S
C587 H596 0.930 . S
C588 C585 1.344 . S
C588 C587 1.371 . S
C588 H597 0.931 . S
C589 C585 1.328 . S
C589 C590 1.433 . S
C589 H598 0.931 . S
C590 C586 1.323 . S
C590 C589 1.433 . S
C590 H599 0.933 . S
C591 Dy561 2.738 . S
C591 O571 1.255 . S
C591 O572 1.249 . S
C591 C585 1.516 . S
H592 C578 0.930 . S
H593 C579 0.931 . S
H594 C580 0.931 . S
H595 C581 0.933 . S
H596 C587 0.930 . S
H597 C588 0.931 . S
H598 C589 0.931 . S
H599 C590 0.933 . S
Dy600 O603 2.307 1_455 S
Dy600 O605 2.395 . S
Dy600 O606 2.379 . S
Dy600 O608 2.339 . S
Dy600 O610 2.298 . S
Dy600 O614 2.275 . S
Dy600 C622 2.738 . S
Dy601 O604 2.298 . S
Dy601 O607 2.275 . S
Dy601 O609 2.307 1_655 S
Dy601 O611 2.395 . S
Dy601 O612 2.379 . S
Dy601 O615 2.339 . S
Dy601 C631 2.738 . S
C602 O614 1.254 1_655 S
C602 O615 1.257 . S
O603 Dy600 2.307 1_655 S
O603 C613 1.266 . S
O604 Dy601 2.298 . S
O604 C613 1.236 . S
O605 Dy600 2.395 . S
O605 C622 1.255 . S
O606 Dy600 2.379 . S
O606 C622 1.249 . S
O607 Dy601 2.275 . S
O607 C623 1.254 1_655 S
O608 Dy600 2.339 . S
O608 C623 1.257 . S
O609 Dy601 2.307 1_455 S
O609 C624 1.266 . S
O610 Dy600 2.298 . S
O610 C624 1.236 . S
O611 Dy601 2.395 . S
O611 C631 1.255 . S
O612 Dy601 2.379 . S
O612 C631 1.249 . S
C613 O603 1.266 . S
C613 O604 1.236 . S
O614 Dy600 2.275 . S
O614 C602 1.254 1_455 S
O615 Dy601 2.339 . S
O615 C602 1.257 . S
C616 C619 1.344 . S
C616 C620 1.328 . S
C616 C622 1.516 . S
C617 C618 1.304 . S
C617 C621 1.323 . S
C618 C617 1.304 . S
C618 C619 1.371 . S
C618 H632 0.930 . S
C619 C616 1.344 . S
C619 C618 1.371 . S
C619 H633 0.931 . S
C620 C616 1.328 . S
C620 C621 1.433 . S
C620 H634 0.931 . S
C621 C617 1.323 . S
C621 C620 1.433 . S
C621 H635 0.933 . S
C622 Dy600 2.738 . S
C622 O605 1.255 . S
C622 O606 1.249 . S
C622 C616 1.516 . S
C623 O607 1.254 1_455 S
C623 O608 1.257 . S
C624 O609 1.266 . S
C624 O610 1.236 . S
C625 C628 1.344 . S
C625 C629 1.328 . S
C625 C631 1.516 1_554 S
C626 C627 1.304 . S
C626 C630 1.323 . S
C627 C626 1.304 . S
C627 C628 1.371 . S
C627 H636 0.930 . S
C628 C625 1.344 . S
C628 C627 1.371 . S
C628 H637 0.931 . S
C629 C625 1.328 . S
C629 C630 1.433 . S
C629 H638 0.931 . S
C630 C626 1.323 . S
C630 C629 1.433 . S
C630 H639 0.933 . S
C631 Dy601 2.738 . S
C631 O611 1.255 . S
C631 O612 1.249 . S
C631 C625 1.516 1_556 S
H632 C618 0.930 . S
H633 C619 0.931 . S
H634 C620 0.931 . S
H635 C621 0.933 . S
H636 C627 0.930 . S
H637 C628 0.931 . S
H638 C629 0.931 . S
H639 C630 0.933 . S
C640 C641 1.370 . S
C640 C642 1.419 . S
C640 H644 0.930 . S
C641 C640 1.370 . S
C641 C650 1.422 1_545 S
C642 C640 1.419 . S
C642 C643 1.369 . S
C642 H645 0.929 . S
C643 C642 1.369 . S
C643 C649 1.426 1_545 S
H644 C640 0.930 . S
H645 C642 0.929 . S
S646 N647 1.613 . S
S646 N648 1.610 . S
N647 S646 1.613 . S
N647 C650 1.350 . S
N648 S646 1.610 . S
N648 C649 1.350 . S
C649 C643 1.426 1_565 S
C649 N648 1.350 . S
C649 C650 1.434 . S
C650 C641 1.422 1_565 S
C650 N647 1.350 . S
C650 C649 1.434 . S
C651 C652 1.369 . S
C651 C653 1.419 . S
C651 H655 0.930 . S
C652 C651 1.369 . S
C652 C661 1.429 . S
C653 C651 1.419 . S
C653 C654 1.363 . S
C653 H656 0.929 . S
C654 C653 1.363 . S
C654 C660 1.428 . S
H655 C651 0.930 . S
H656 C653 0.929 . S
S657 N658 1.613 . S
S657 N659 1.610 . S
N658 S657 1.613 . S
N658 C661 1.350 . S
N659 S657 1.610 . S
N659 C660 1.351 . S
C660 C654 1.428 . S
C660 N659 1.351 . S
C660 C661 1.434 . S
C661 C652 1.429 . S
C661 N658 1.350 . S
C661 C660 1.434 . S
C662 C663 1.369 . S
C662 C664 1.419 . S
C662 H666 0.930 . S
C663 C662 1.369 . S
C663 C672 1.429 . S
C664 C662 1.419 . S
C664 C665 1.363 . S
C664 H667 0.929 . S
C665 C664 1.363 . S
C665 C671 1.428 . S
H666 C662 0.930 . S
H667 C664 0.929 . S
S668 N669 1.613 . S
S668 N670 1.610 . S
N669 S668 1.613 . S
N669 C672 1.350 . S
N670 S668 1.610 . S
N670 C671 1.351 . S
C671 C665 1.428 . S
C671 N670 1.351 . S
C671 C672 1.434 . S
C672 C663 1.429 . S
C672 N669 1.350 . S
C672 C671 1.434 . S
C673 C674 1.384 . S
C673 C675 1.419 . S
C673 H677 0.930 . S
C674 C673 1.384 . S
C674 C683 1.420 1_455 S
C675 C673 1.419 . S
C675 C676 1.363 . S
C675 H678 0.929 . S
C676 C675 1.363 . S
C676 C682 1.428 1_455 S
H677 C673 0.930 . S
H678 C675 0.929 . S
S679 N680 1.613 . S
S679 N681 1.610 . S
N680 S679 1.613 . S
N680 C683 1.350 . S
N681 S679 1.610 . S
N681 C682 1.351 . S
C682 C676 1.428 1_655 S
C682 N681 1.351 . S
C682 C683 1.434 . S
C683 C674 1.420 1_655 S
C683 N680 1.350 . S
C683 C682 1.434 . S
C684 C685 1.368 1_565 S
C684 C686 1.419 . S
C684 H688 0.930 . S
C685 C684 1.368 1_545 S
C685 C694 1.430 . S
C686 C684 1.419 . S
C686 C687 1.369 1_554 S
C686 H689 0.929 . S
C687 C686 1.369 1_556 S
C687 C693 1.423 1_566 S
H688 C684 0.930 . S
H689 C686 0.929 . S
S690 N691 1.613 . S
S690 N692 1.610 1_554 S
N691 S690 1.613 . S
N691 C694 1.350 . S
N692 S690 1.610 1_556 S
N692 C693 1.351 1_556 S
C693 C687 1.423 1_544 S
C693 N692 1.351 1_554 S
C693 C694 1.434 . S
C694 C685 1.430 . S
C694 N691 1.350 . S
C694 C693 1.434 . S
C695 C696 1.369 . S
C695 C697 1.419 1_554 S
C695 H699 0.930 . S
C696 C695 1.369 . S
C696 C705 1.429 . S
C697 C695 1.419 1_556 S
C697 C698 1.363 . S
C697 H700 0.929 . S
C698 C697 1.363 . S
C698 C704 1.428 . S
H699 C695 0.930 . S
H700 C697 0.929 . S
S701 N702 1.613 1_556 S
S701 N703 1.610 . S
N702 S701 1.613 1_554 S
N702 C705 1.350 . S
N703 S701 1.610 . S
N703 C704 1.351 . S
C704 C698 1.428 . S
C704 N703 1.351 . S
C704 C705 1.434 1_556 S
C705 C696 1.429 . S
C705 N702 1.350 . S
C705 C704 1.434 1_554 S
C706 C707 1.369 . S
C706 C708 1.419 . S
C706 H710 0.930 . S
C707 C706 1.369 . S
C707 C716 1.429 . S
C708 C706 1.419 . S
C708 C709 1.363 . S
C708 H711 0.929 . S
C709 C708 1.363 . S
C709 C715 1.428 . S
H710 C706 0.930 . S
H711 C708 0.929 . S
S712 N713 1.613 . S
S712 N714 1.610 . S
N713 S712 1.613 . S
N713 C716 1.350 . S
N714 S712 1.610 . S
N714 C715 1.351 . S
C715 C709 1.428 . S
C715 N714 1.351 . S
C715 C716 1.434 . S
C716 C707 1.429 . S
C716 N713 1.350 . S
C716 C715 1.434 . S
C717 C718 1.385 . S
C717 C719 1.419 . S
C717 H721 0.930 . S
C718 C717 1.385 . S
C718 C727 1.420 1_655 S
C719 C717 1.419 . S
C719 C720 1.363 . S
C719 H722 0.929 . S
C720 C719 1.363 . S
C720 C726 1.428 1_655 S
H721 C717 0.930 . S
H722 C719 0.929 . S
S723 N724 1.613 . S
S723 N725 1.610 . S
N724 S723 1.613 . S
N724 C727 1.350 . S
N725 S723 1.610 . S
N725 C726 1.351 . S
C726 C720 1.428 1_455 S
C726 N725 1.351 . S
C726 C727 1.434 . S
C727 C718 1.420 1_455 S
C727 N724 1.350 . S
C727 C726 1.434 . S
C728 C729 1.369 . S
C728 C730 1.419 1_455 S
C728 H732 0.930 . S
C729 C728 1.369 . S
C729 C738 1.429 1_455 S
C730 C728 1.419 1_655 S
C730 C731 1.363 . S
C730 H733 0.929 . S
C731 C730 1.363 . S
C731 C737 1.428 . S
H732 C728 0.930 . S
H733 C730 0.929 . S
S734 N735 1.613 . S
S734 N736 1.610 . S
N735 S734 1.613 . S
N735 C738 1.350 . S
N736 S734 1.610 . S
N736 C737 1.351 . S
C737 C731 1.428 . S
C737 N736 1.351 . S
C737 C738 1.434 . S
C738 C729 1.429 1_655 S
C738 N735 1.350 . S
C738 C737 1.434 . S
C739 C740 1.369 1_545 S
C739 C741 1.419 1_545 S
C739 H743 0.930 . S
C740 C739 1.369 1_565 S
C740 C749 1.429 . S
C741 C739 1.419 1_565 S
C741 C742 1.363 . S
C741 H744 0.929 1_565 S
C742 C741 1.363 . S
C742 C748 1.428 . S
H743 C739 0.930 . S
H744 C741 0.929 1_545 S
S745 N746 1.613 . S
S745 N747 1.610 . S
N746 S745 1.613 . S
N746 C749 1.350 . S
N747 S745 1.610 . S
N747 C748 1.351 . S
C748 C742 1.428 . S
C748 N747 1.351 . S
C748 C749 1.434 . S
C749 C740 1.429 . S
C749 N746 1.350 . S
C749 C748 1.434 . S
C750 C751 1.369 . S
C750 C752 1.419 . S
C750 H754 0.930 . S
C751 C750 1.369 . S
C751 C760 1.429 . S
C752 C750 1.419 . S
C752 C753 1.363 . S
C752 H755 0.929 . S
C753 C752 1.363 . S
C753 C759 1.428 . S
H754 C750 0.930 . S
H755 C752 0.929 . S
S756 N757 1.613 . S
S756 N758 1.610 . S
N757 S756 1.613 . S
N757 C760 1.350 . S
N758 S756 1.610 . S
N758 C759 1.351 . S
C759 C753 1.428 . S
C759 N758 1.351 . S
C759 C760 1.434 . S
C760 C751 1.429 . S
C760 N757 1.350 . S
C760 C759 1.434 . S
C761 C762 1.369 . S
C761 C763 1.419 . S
C761 H765 0.930 . S
C762 C761 1.369 . S
C762 C771 1.429 . S
C763 C761 1.419 . S
C763 C764 1.363 . S
C763 H766 0.929 . S
C764 C763 1.363 . S
C764 C770 1.428 . S
H765 C761 0.930 . S
H766 C763 0.929 . S
S767 N768 1.613 . S
S767 N769 1.610 . S
N768 S767 1.613 . S
N768 C771 1.350 . S
N769 S767 1.610 . S
N769 C770 1.351 . S
C770 C764 1.428 . S
C770 N769 1.351 . S
C770 C771 1.434 . S
C771 C762 1.429 . S
C771 N768 1.350 . S
C771 C770 1.434 . S
C772 C773 1.369 1_455 S
C772 C774 1.419 . S
C772 H776 0.930 . S
C773 C772 1.369 1_655 S
C773 C782 1.429 1_655 S
C774 C772 1.419 . S
C774 C775 1.363 . S
C774 H777 0.919 1_554 S
C775 C774 1.363 . S
C775 C781 1.428 . S
H776 C772 0.930 . S
H777 C774 0.919 1_556 S
S778 N779 1.613 1_455 S
S778 N780 1.610 . S
N779 S778 1.613 1_655 S
N779 C782 1.350 1_655 S
N780 S778 1.610 . S
N780 C781 1.351 . S
C781 C775 1.428 . S
C781 N780 1.351 . S
C781 C782 1.434 . S
C782 C773 1.429 1_455 S
C782 N779 1.350 1_455 S
C782 C781 1.434 . S
C783 C784 1.369 1_565 S
C783 C785 1.419 1_565 S
C783 H787 0.930 . S
C784 C783 1.369 1_545 S
C784 C793 1.429 . S
C785 C783 1.419 1_545 S
C785 C786 1.363 . S
C785 H788 0.929 . S
C786 C785 1.363 . S
C786 C792 1.428 . S
H787 C783 0.930 . S
H788 C785 0.929 . S
S789 N790 1.613 . S
S789 N791 1.610 . S
N790 S789 1.613 . S
N790 C793 1.350 1_556 S
N791 S789 1.610 . S
N791 C792 1.351 1_556 S
C792 C786 1.428 . S
C792 N791 1.351 1_554 S
C792 C793 1.434 . S
C793 C784 1.429 . S
C793 N790 1.350 1_554 S
C793 C792 1.434 . S
C794 C795 1.369 . S
C794 C796 1.419 . S
C794 H798 0.930 . S
C795 C794 1.369 . S
C795 C804 1.429 . S
C796 C794 1.419 . S
C796 C797 1.363 . S
C796 H799 0.929 . S
C797 C796 1.363 . S
C797 C803 1.429 . S
H798 C794 0.930 . S
H799 C796 0.929 . S
S800 N801 1.613 . S
S800 N802 1.610 . S
N801 S800 1.613 . S
N801 C804 1.350 1_554 S
N802 S800 1.610 . S
N802 C803 1.350 1_554 S
C803 C797 1.429 . S
C803 N802 1.350 1_556 S
C803 C804 1.434 . S
C804 C795 1.429 . S
C804 N801 1.350 1_556 S
C804 C803 1.434 . S
C805 C806 1.369 . S
C805 C807 1.419 . S
C805 H809 0.930 . S
C806 C805 1.369 . S
C806 C815 1.429 . S
C807 C805 1.419 . S
C807 C808 1.363 . S
C807 H810 0.929 . S
C808 C807 1.363 . S
C808 C814 1.428 . S
H809 C805 0.930 . S
H810 C807 0.929 . S
S811 N812 1.613 . S
S811 N813 1.610 . S
N812 S811 1.613 . S
N812 C815 1.350 . S
N813 S811 1.610 . S
N813 C814 1.351 . S
C814 C808 1.428 . S
C814 N813 1.351 . S
C814 C815 1.434 . S
C815 C806 1.429 . S
C815 N812 1.350 . S
C815 C814 1.434 . S
C816 C817 1.369 . S
C816 C818 1.419 . S
C816 H820 0.930 . S
C817 C816 1.369 . S
C817 C826 1.429 . S
C818 C816 1.419 . S
C818 C819 1.363 . S
C818 H821 0.929 . S
C819 C818 1.363 . S
C819 C825 1.428 . S
H820 C816 0.930 . S
H821 C818 0.929 . S
S822 N823 1.613 1_554 S
S822 N824 1.610 1_554 S
N823 S822 1.613 1_556 S
N823 C826 1.350 . S
N824 S822 1.610 1_556 S
N824 C825 1.351 . S
C825 C819 1.428 . S
C825 N824 1.351 . S
C825 C826 1.434 . S
C826 C817 1.429 . S
C826 N823 1.350 . S
C826 C825 1.434 . S
C827 C828 1.369 1_565 S
C827 C829 1.419 . S
C827 H831 0.930 . S
C828 C827 1.369 1_545 S
C828 C837 1.429 . S
C829 C827 1.419 . S
C829 C830 1.363 1_565 S
C829 H832 0.929 . S
C830 C829 1.363 1_545 S
C830 C836 1.428 . S
H831 C827 0.930 . S
H832 C829 0.929 . S
S833 N834 1.613 1_554 S
S833 N835 1.610 . S
N834 S833 1.613 1_556 S
N834 C837 1.350 . S
N835 S833 1.610 . S
N835 C836 1.351 1_554 S
C836 C830 1.428 . S
C836 N835 1.351 1_556 S
C836 C837 1.434 . S
C837 C828 1.429 . S
C837 N834 1.350 . S
C837 C836 1.434 . S
C838 C839 1.369 1_556 S
C838 C840 1.419 . S
C838 H842 0.930 . S
C839 C838 1.369 1_554 S
C839 C848 1.429 . S
C840 C838 1.419 . S
C840 C841 1.363 . S
C840 H843 0.929 . S
C841 C840 1.363 . S
C841 C847 1.428 1_556 S
H842 C838 0.930 . S
H843 C840 0.929 . S
S844 N845 1.613 . S
S844 N846 1.610 . S
N845 S844 1.613 . S
N845 C848 1.350 . S
N846 S844 1.610 . S
N846 C847 1.351 . S
C847 C841 1.428 1_554 S
C847 N846 1.351 . S
C847 C848 1.434 . S
C848 C839 1.429 . S
C848 N845 1.350 . S
C848 C847 1.434 . S
C849 C850 1.369 . S
C849 C851 1.419 . S
C849 H853 0.930 . S
C850 C849 1.369 . S
C850 C859 1.429 . S
C851 C849 1.419 . S
C851 C852 1.363 . S
C851 H854 0.929 . S
C852 C851 1.363 . S
C852 C858 1.428 . S
H853 C849 0.930 . S
H854 C851 0.929 . S
S855 N856 1.613 . S
S855 N857 1.610 . S
N856 S855 1.613 . S
N856 C859 1.350 . S
N857 S855 1.610 . S
N857 C858 1.351 . S
C858 C852 1.428 . S
C858 N857 1.351 . S
C858 C859 1.434 . S
C859 C850 1.429 . S
C859 N856 1.350 . S
C859 C858 1.434 . S
C860 C861 1.365 1_455 S
C860 C862 1.419 1_455 S
C860 H864 0.934 . S
C861 C860 1.365 1_655 S
C861 C870 1.429 . S
C862 C860 1.419 1_655 S
C862 C863 1.363 . S
C862 H865 0.929 1_655 S
C863 C862 1.363 . S
C863 C869 1.428 . S
H864 C860 0.934 . S
H865 C862 0.929 1_455 S
S866 N867 1.613 . S
S866 N868 1.610 . S
N867 S866 1.613 . S
N867 C870 1.350 . S
N868 S866 1.610 . S
N868 C869 1.351 . S
C869 C863 1.428 . S
C869 N868 1.351 . S
C869 C870 1.434 . S
C870 C861 1.429 . S
C870 N867 1.350 . S
C870 C869 1.434 . S
C871 C872 1.369 . S
C871 C873 1.419 . S
C871 H875 0.930 . S
C872 C871 1.369 . S
C872 C881 1.429 1_565 S
C873 C871 1.419 . S
C873 C874 1.363 . S
C873 H876 0.929 . S
C874 C873 1.363 . S
C874 C880 1.428 1_565 S
H875 C871 0.930 . S
H876 C873 0.929 . S
S877 N878 1.613 . S
S877 N879 1.610 . S
N878 S877 1.613 . S
N878 C881 1.350 . S
N879 S877 1.610 . S
N879 C880 1.351 . S
C880 C874 1.428 1_545 S
C880 N879 1.351 . S
C880 C881 1.434 . S
C881 C872 1.429 1_545 S
C881 N878 1.350 . S
C881 C880 1.434 . S
C882 C883 1.369 . S
C882 C884 1.419 . S
C882 H886 0.930 . S
C883 C882 1.369 . S
C883 C892 1.429 . S
C884 C882 1.419 . S
C884 C885 1.363 . S
C884 H887 0.929 . S
C885 C884 1.363 . S
C885 C891 1.428 . S
H886 C882 0.930 . S
H887 C884 0.929 . S
S888 N889 1.613 . S
S888 N890 1.610 . S
N889 S888 1.613 . S
N889 C892 1.350 . S
N890 S888 1.610 . S
N890 C891 1.351 . S
C891 C885 1.428 . S
C891 N890 1.351 . S
C891 C892 1.434 . S
C892 C883 1.429 . S
C892 N889 1.350 . S
C892 C891 1.434 . S
C893 C894 1.369 . S
C893 C895 1.419 . S
C893 H897 0.930 . S
C894 C893 1.369 . S
C894 C903 1.429 . S
C895 C893 1.419 . S
C895 C896 1.363 . S
C895 H898 0.929 . S
C896 C895 1.363 . S
C896 C902 1.428 . S
H897 C893 0.930 . S
H898 C895 0.929 . S
S899 N900 1.613 . S
S899 N901 1.610 . S
N900 S899 1.613 . S
N900 C903 1.350 . S
N901 S899 1.610 . S
N901 C902 1.351 . S
C902 C896 1.428 . S
C902 N901 1.351 . S
C902 C903 1.434 . S
C903 C894 1.429 . S
C903 N900 1.350 . S
C903 C902 1.434 . S
C641 C391 2.435 . S
C643 C482 2.486 1_545 S
C654 C522 2.287 . S
C652 C451 2.257 . S
C665 C586 2.872 . S
C663 C241 2.488 . S
C676 C602 2.748 1_455 S
C674 C331 2.172 1_455 S
C687 C503 2.492 1_565 S
C685 C121 2.141 1_545 S
C696 C211 2.214 . S
C698 C543 2.289 . S
C707 C31 2.876 . S
C709 C577 2.875 . S
C718 C91 2.158 . S
C720 C623 2.751 1_654 S
C731 C497 0.676 . S
C729 C301 0.671 1_455 S
C742 C537 0.850 . S
C740 C380 0.869 1_565 S
C753 C573 0.855 . S
C751 C440 0.918 . S
C762 C260 1.033 . S
C764 C617 1.001 . S
C773 C61 0.624 . S
C775 C506 0.662 . S
C786 C546 0.846 . S
C784 C140 0.839 1_545 S
C797 C584 0.867 . S
C795 C200 0.863 . S
C806 C20 0.992 . S
C808 C626 1.008 . S
C817 C320 3.064 1_455 S
C819 C504 3.336 . S
C828 C361 2.529 . S
C830 C544 3.181 . S
C841 C562 2.226 . S
C839 C421 1.971 . S
C852 C624 3.799 . S
C850 C271 3.452 . S
C861 C80 3.049 . S
C863 C493 3.344 . S
C874 C533 3.177 . S
C872 C151 2.943 . S
C885 C583 2.222 . S
C883 C181 1.929 . S
C894 C1 3.018 . S
C896 C613 3.804 . S
