# Generated by pormake.
# Topology anh, (6,3)-cn, num edge types: 1
# Building blocks:
#     Node 0, Type 0, BuildingBlock: CUKXOW_clean_sbu_0, # of connection points: 6
#     Node 1, Type 0, BuildingBlock: CUKXOW_clean_sbu_0, # of connection points: 6
#     Node 2, Type 0, BuildingBlock: CUKXOW_clean_sbu_0, # of connection points: 6
#     Node 3, Type 1, BuildingBlock: CUQRIR_clean_linker_1, # of connection points: 3
#     Node 4, Type 1, BuildingBlock: CUQRIR_clean_linker_1, # of connection points: 3
#     Node 5, Type 1, BuildingBlock: CUQRIR_clean_linker_1, # of connection points: 3
#     Node 6, Type 1, BuildingBlock: CUQRIR_clean_linker_1, # of connection points: 3
#     Node 7, Type 1, BuildingBlock: CUQRIR_clean_linker_1, # of connection points: 3
#     Node 8, Type 1, BuildingBlock: CUQRIR_clean_linker_1, # of connection points: 3
#     Edge 9, Type (0, 1), BuildingBlock: ZUJKAS_clean_linker_0, # of connection points: 2
#     Edge 10, Type (0, 1), BuildingBlock: ZUJKAS_clean_linker_0, # of connection points: 2
#     Edge 11, Type (0, 1), BuildingBlock: ZUJKAS_clean_linker_0, # of connection points: 2
#     Edge 12, Type (0, 1), BuildingBlock: ZUJKAS_clean_linker_0, # of connection points: 2
#     Edge 13, Type (0, 1), BuildingBlock: ZUJKAS_clean_linker_0, # of connection points: 2
#     Edge 14, Type (0, 1), BuildingBlock: ZUJKAS_clean_linker_0, # of connection points: 2
#     Edge 15, Type (0, 1), BuildingBlock: ZUJKAS_clean_linker_0, # of connection points: 2
#     Edge 16, Type (0, 1), BuildingBlock: ZUJKAS_clean_linker_0, # of connection points: 2
#     Edge 17, Type (0, 1), BuildingBlock: ZUJKAS_clean_linker_0, # of connection points: 2
#     Edge 18, Type (0, 1), BuildingBlock: ZUJKAS_clean_linker_0, # of connection points: 2
#     Edge 19, Type (0, 1), BuildingBlock: ZUJKAS_clean_linker_0, # of connection points: 2
#     Edge 20, Type (0, 1), BuildingBlock: ZUJKAS_clean_linker_0, # of connection points: 2
#     Edge 21, Type (0, 1), BuildingBlock: ZUJKAS_clean_linker_0, # of connection points: 2
#     Edge 22, Type (0, 1), BuildingBlock: ZUJKAS_clean_linker_0, # of connection points: 2
#     Edge 23, Type (0, 1), BuildingBlock: ZUJKAS_clean_linker_0, # of connection points: 2
#     Edge 24, Type (0, 1), BuildingBlock: ZUJKAS_clean_linker_0, # of connection points: 2
#     Edge 25, Type (0, 1), BuildingBlock: ZUJKAS_clean_linker_0, # of connection points: 2
#     Edge 26, Type (0, 1), BuildingBlock: ZUJKAS_clean_linker_0, # of connection points: 2
# Relax obj value: 0.138
# Max RMSD: 0.198
# Mean RMSD: 0.166
data_MOF--net-anh--node1-CUKXOW_clean_sbu_0--node2-CUQRIR_clean_linker_1--edge1-ZUJKAS_clean_linker_0
_symmetry_space_group_name_H-M    P1
_symmetry_Int_Tables_number       1
_symmetry_cell_setting            triclinic
loop_
_symmetry_equiv_pos_as_xyz
'x, y, z'
_cell_length_a     35.680361
_cell_length_b     34.754655
_cell_length_c     60.473667
_cell_angle_alpha  91.441725
_cell_angle_beta   89.883417
_cell_angle_gamma 114.93819
loop_
_atom_site_label
_atom_site_type_symbol
_atom_site_fract_x
_atom_site_fract_y
_atom_site_fract_z
_atom_type_partial_charge
Tb0 Tb 0.03701 0.51218 0.14696 0.0
C1 C 1.00364 0.47246 0.19347 0.0
Tb2 Tb 0.97722 0.41307 0.15001 0.0
O3 O 0.9876 0.53479 0.14448 0.0
O4 O 0.97337 0.47194 0.14801 0.0
O5 O 0.03195 0.50426 0.18259 0.0
C6 C 0.91 0.34082 0.15393 0.0
O7 O 0.97658 0.43694 0.18366 0.0
C8 C 0.0576 0.42837 0.14941 0.0
C9 C 1.0125 0.45151 0.10384 0.0
O10 O 0.94342 0.35256 0.16583 0.0
O11 O 0.9146 0.36953 0.13947 0.0
O12 O 0.02724 0.39071 0.15024 0.0
O13 O 0.04053 0.45358 0.14908 0.0
O14 O 0.98258 0.42045 0.11441 0.0
O15 O 0.03953 0.48708 0.11377 0.0
C16 C 0.10577 0.58382 0.1477 0.0
O17 O 0.07649 0.5735 0.13292 0.0
O18 O 0.09614 0.55399 0.162 0.0
C19 C 0.95686 0.49748 0.14585 0.0
Tb20 Tb 0.54571 0.99897 0.50821 0.0
C21 C 0.58395 0.03183 0.46225 0.0
Tb22 Tb 0.63555 0.06428 0.50738 0.0
O23 O 0.52487 0.04618 0.49694 0.0
O24 O 0.57835 0.06466 0.5162 0.0
O25 O 0.5545 1.00047 0.47271 0.0
C26 C 0.70412 0.13506 0.50136 0.0
O27 O 0.61581 0.06202 0.47283 0.0
C28 C 0.62499 0.98541 0.51071 0.0
C29 C 0.59759 0.02999 0.55325 0.0
O30 O 0.67034 0.13326 0.51024 0.0
O31 O 0.69957 0.09688 0.49615 0.0
O32 O 0.657 0.01767 0.51873 0.0
O33 O 0.60305 0.99864 0.49964 0.0
O34 O 0.62698 0.06185 0.54296 0.0
O35 O 0.56563 0.99999 0.54258 0.0
C36 C 0.47509 0.9295 0.51213 0.0
O37 O 0.48097 0.96759 0.51846 0.0
O38 O 0.50895 0.9306 0.50373 0.0
C39 C 0.55664 0.07823 0.50523 0.0
Tb40 Tb 0.55282 0.60823 0.83756 0.0
C41 C 0.60336 0.60268 0.87852 0.0
Tb42 Tb 0.64024 0.61642 0.82997 0.0
O43 O 0.5327 0.54217 0.84753 0.0
O44 O 0.57993 0.56853 0.82489 0.0
O45 O 0.57355 0.61307 0.87171 0.0
C46 C 0.70298 0.59573 0.82235 0.0
O47 O 0.63004 0.59775 0.86462 0.0
C48 C 0.63417 0.68911 0.83104 0.0
C49 C 0.59043 0.62536 0.7894 0.0
O50 O 0.70375 0.62449 0.83677 0.0
O51 O 0.66735 0.57916 0.81254 0.0
O52 O 0.6638 0.68316 0.82118 0.0
O53 O 0.61328 0.65683 0.84214 0.0
O54 O 0.62048 0.61538 0.79605 0.0
O55 O 0.56341 0.62944 0.80333 0.0
C56 C 0.48004 0.61229 0.84044 0.0
O57 O 0.48917 0.58869 0.82651 0.0
O58 O 0.51216 0.63418 0.85274 0.0
C59 C 0.56075 0.53628 0.83619 0.0
C60 C 0.50064 0.97661 0.196 0.0
N61 N 0.52665 1.00205 0.21184 0.0
N62 N 0.46479 0.9497 0.20508 0.0
C63 C 0.51055 0.97743 0.17178 0.0
C64 C 0.46979 0.95972 0.22698 0.0
N65 N 0.5073 0.99203 0.23107 0.0
C66 C 0.43873 0.93705 0.24445 0.0
H67 H 0.48209 0.96406 0.16144 0.0
H68 H 0.52806 0.95799 0.16872 0.0
H69 H 0.53008 0.01034 0.16674 0.0
H70 H 0.45449 0.93098 0.25887 0.0
H71 H 0.4143 0.90664 0.23813 0.0
H72 H 0.4237 0.95759 0.25025 0.0
C73 C 0.58178 0.5302 0.52851 0.0
N74 N 0.58141 0.56055 0.54302 0.0
N75 N 0.58147 0.49641 0.53946 0.0
C76 C 0.58553 0.53475 0.50387 0.0
C77 C 0.58064 0.50721 0.56106 0.0
N78 N 0.58095 0.54615 0.56322 0.0
C79 C 0.57662 0.47846 0.58001 0.0
H80 H 0.55413 0.52348 0.49651 0.0
H81 H 0.60072 0.51538 0.49662 0.0
H82 H 0.60337 0.56846 0.49958 0.0
H83 H 0.60795 0.48465 0.58621 0.0
H84 H 0.56073 0.4446 0.57464 0.0
H85 H 0.55918 0.48459 0.59382 0.0
C86 C 0.03314 0.44059 0.83448 0.0
N87 N 0.05049 0.43817 0.85394 0.0
N88 N 0.99185 0.42791 0.83659 0.0
C89 C 0.05735 0.46137 0.81436 0.0
C90 C 0.98488 0.41745 0.85812 0.0
N91 N 0.02052 0.42419 0.86871 0.0
C92 C 0.94417 0.40653 0.86946 0.0
H93 H 0.07299 0.4962 0.81749 0.0
H94 H 0.0369 0.45463 0.79961 0.0
H95 H 0.08161 0.44995 0.81111 0.0
H96 H 0.91845 0.38392 0.859 0.0
H97 H 0.93927 0.43583 0.87193 0.0
H98 H 0.94335 0.3922 0.88574 0.0
C99 C 0.07178 0.54508 0.46134 0.0
N100 N 0.04746 0.51948 0.44494 0.0
N101 N 0.10601 0.57603 0.45283 0.0
C102 C 0.06385 0.53798 0.48566 0.0
C103 C 0.10175 0.56837 0.43072 0.0
N104 N 0.06635 0.53371 0.42592 0.0
C105 C 0.13068 0.59666 0.41382 0.0
H106 H 0.09312 0.55197 0.49536 0.0
H107 H 0.04775 0.5036 0.48898 0.0
H108 H 0.04378 0.55343 0.49129 0.0
H109 H 0.15388 0.58437 0.40941 0.0
H110 H 0.14725 0.62962 0.42049 0.0
H111 H 0.11361 0.59702 0.39857 0.0
C112 C 0.60605 0.11575 0.81814 0.0
N113 N 0.60822 0.08656 0.80341 0.0
N114 N 0.60836 0.15073 0.8076 0.0
C115 C 0.60438 0.11143 0.84281 0.0
C116 C 0.61164 0.14163 0.78599 0.0
N117 N 0.61208 0.10305 0.78347 0.0
C118 C 0.61069 0.16884 0.76717 0.0
H119 H 0.57159 0.09507 0.84785 0.0
H120 H 0.61822 0.14305 0.85132 0.0
H121 H 0.6208 0.09225 0.84811 0.0
H122 H 0.64287 0.19027 0.7628 0.0
H123 H 0.5941 0.18853 0.77188 0.0
H124 H 0.59538 0.14905 0.75233 0.0
C125 C 0.51203 0.47364 0.13442 0.0
N126 N 0.54572 0.48406 0.12103 0.0
N127 N 0.48226 0.48294 0.12482 0.0
C128 C 0.509 0.45669 0.15722 0.0
C129 C 0.49895 0.49889 0.10513 0.0
N130 N 0.53719 0.50004 0.10294 0.0
C131 C 0.47651 0.51053 0.08724 0.0
H132 H 0.49752 0.42166 0.15594 0.0
H133 H 0.48705 0.46437 0.16742 0.0
H134 H 0.53983 0.46983 0.16542 0.0
H135 H 0.48471 0.54505 0.08868 0.0
H136 H 0.44252 0.49297 0.0888 0.0
H137 H 0.48562 0.50362 0.07057 0.0
H138 H 0.12669 0.50463 0.14287 0.0
H139 H 0.19963 0.5158 0.14064 0.0
H140 H 0.16289 0.3826 0.15098 0.0
H141 H 0.09075 0.37151 0.15318 0.0
H142 H 0.25235 0.50082 0.17072 0.0
H143 H 0.2312 0.39989 0.09536 0.0
H144 H 0.19274 0.41756 0.1045 0.0
H145 H 0.19645 0.37291 0.11709 0.0
C146 C 0.13423 0.47785 0.1448 0.0
C147 C 0.10259 0.43717 0.14824 0.0
C148 C 0.17605 0.48419 0.14345 0.0
C149 C 0.18723 0.44993 0.14524 0.0
C150 C 0.15554 0.40954 0.149 0.0
H151 H 0.41582 0.41069 0.13571 0.0
H152 H 0.34479 0.40302 0.14245 0.0
C153 C 0.11405 0.40327 0.15039 0.0
C154 C 0.23162 0.45586 0.14337 0.0
H155 H 0.29476 0.42034 0.11486 0.0
C156 C 0.2616 0.48342 0.15838 0.0
C157 C 0.24425 0.43313 0.1274 0.0
C158 C 0.21461 0.40452 0.11003 0.0
C159 C 0.30302 0.48803 0.15822 0.0
C160 C 0.3156 0.46513 0.1423 0.0
C161 C 0.2856 0.43775 0.12723 0.0
C162 C 0.35974 0.47005 0.14042 0.0
C163 C 0.3326 0.51655 0.17563 0.0
C164 C 0.39249 0.51015 0.1373 0.0
C165 C 0.43302 0.51444 0.13369 0.0
C166 C 0.44226 0.47882 0.13292 0.0
C167 C 0.40992 0.43879 0.13664 0.0
C168 C 0.36918 0.43444 0.14025 0.0
H169 H 0.31594 0.5205 0.19044 0.0
H170 H 0.35492 0.50391 0.18091 0.0
H171 H 0.3502 0.54844 0.16874 0.0
H172 H 0.38652 0.53818 0.13674 0.0
H173 H 0.45711 0.5456 0.13053 0.0
H174 H 0.77413 0.14281 0.47993 0.0
H175 H 0.83255 0.20872 0.46959 0.0
H176 H 0.77331 0.28176 0.50019 0.0
H177 H 0.71502 0.21608 0.51065 0.0
H178 H 0.82885 0.27415 0.44291 0.0
H179 H 0.89111 0.33373 0.52725 0.0
H180 H 0.85594 0.27913 0.5214 0.0
H181 H 0.8368 0.31928 0.52373 0.0
C182 C 0.77384 0.17297 0.48463 0.0
C183 C 0.7403 0.17448 0.4962 0.0
C184 C 0.80708 0.2105 0.47866 0.0
C185 C 0.80738 0.25004 0.48433 0.0
C186 C 0.77395 0.25156 0.49598 0.0
H187 H 0.97841 0.51229 0.46594 0.0
H188 H 0.91799 0.44616 0.47393 0.0
C189 C 0.74069 0.21407 0.5019 0.0
C190 C 0.84211 0.28972 0.47755 0.0
H191 H 0.91976 0.38086 0.49789 0.0
C192 C 0.8489 0.29746 0.45489 0.0
C193 C 0.86802 0.32002 0.49325 0.0
C194 C 0.86297 0.31263 0.51778 0.0
C195 C 0.88054 0.33519 0.4475 0.0
C196 C 0.90648 0.3655 0.46321 0.0
C197 C 0.89971 0.35764 0.48587 0.0
C198 C 0.9412 0.40548 0.45665 0.0
C199 C 0.88528 0.34268 0.42298 0.0
C200 C 0.97403 0.40452 0.44413 0.0
C201 C 1.00832 0.44222 0.43956 0.0
C202 C 1.01042 0.48126 0.44763 0.0
C203 C 0.97726 0.48234 0.45969 0.0
C204 C 0.94293 0.44472 0.46421 0.0
H205 H 0.8565 0.32256 0.4137 0.0
H206 H 0.89358 0.37648 0.41941 0.0
H207 H 0.91036 0.33454 0.41672 0.0
H208 H 0.97379 0.37457 0.43854 0.0
H209 H 0.03394 0.44086 0.43048 0.0
H210 H 0.67786 0.75798 0.80674 0.0
H211 H 0.66858 0.82342 0.80407 0.0
H212 H 0.56637 0.77476 0.84922 0.0
H213 H 0.5765 0.70941 0.85246 0.0
H214 H 0.6027 0.83516 0.78914 0.0
H215 H 0.6352 0.89085 0.87691 0.0
H216 H 0.64647 0.84832 0.86568 0.0
H217 H 0.59439 0.83863 0.87286 0.0
C218 C 0.65356 0.76129 0.81624 0.0
C219 C 0.62792 0.72856 0.82985 0.0
C220 C 0.64821 0.79872 0.81465 0.0
C221 C 0.61711 0.80443 0.82664 0.0
C222 C 0.59114 0.77158 0.84014 0.0
H223 H 0.5526 0.0229 0.82713 0.0
H224 H 0.55222 0.95301 0.83344 0.0
C225 C 0.59665 0.73405 0.84183 0.0
C226 C 0.6118 0.84451 0.82441 0.0
H227 H 0.61553 0.93223 0.85312 0.0
C228 C 0.60543 0.85629 0.80317 0.0
C229 C 0.61518 0.87214 0.8427 0.0
C230 C 0.62353 0.86217 0.86581 0.0
C231 C 0.60279 0.89491 0.79967 0.0
C232 C 0.60709 0.92291 0.81786 0.0
C233 C 0.61232 0.91075 0.83919 0.0
C234 C 0.60788 0.96562 0.81485 0.0
C235 C 0.59535 0.90546 0.7765 0.0
C236 C 0.63971 0.99619 0.80274 0.0
C237 C 0.64012 0.03604 0.79936 0.0
C238 C 0.60874 0.04617 0.808 0.0
C239 C 0.57732 0.01593 0.82049 0.0
C240 C 0.577 0.97604 0.82399 0.0
H241 H 0.58224 0.87666 0.76552 0.0
H242 H 0.574 0.92125 0.77654 0.0
H243 H 0.62516 0.92758 0.76941 0.0
H244 H 0.66427 0.98917 0.79587 0.0
H245 H 0.66497 0.05905 0.78996 0.0
H246 H 0.92683 0.55391 0.13439 0.0
H247 H 0.85546 0.54468 0.13114 0.0
H248 H 0.81276 0.41387 0.14913 0.0
H249 H 0.88506 0.42344 0.15287 0.0
H250 H 0.7934 0.49417 0.10387 0.0
H251 H 0.74499 0.4527 0.19061 0.0
H252 H 0.79847 0.47385 0.18243 0.0
H253 H 0.76484 0.41907 0.17664 0.0
C254 C 0.90239 0.52304 0.13773 0.0
C255 C 0.91208 0.48936 0.14378 0.0
C256 C 0.86128 0.51779 0.13581 0.0
C257 C 0.82803 0.47871 0.14006 0.0
C258 C 0.83746 0.44469 0.14607 0.0
H259 H 0.55853 0.41598 0.13448 0.0
H260 H 0.62541 0.41189 0.13917 0.0
C261 C 0.87897 0.44997 0.14796 0.0
C262 C 0.78414 0.47436 0.13764 0.0
H263 H 0.69435 0.45399 0.16594 0.0
C264 C 0.77184 0.48524 0.1175 0.0
C265 C 0.75531 0.46251 0.15523 0.0
C266 C 0.76647 0.45167 0.17753 0.0
C267 C 0.73239 0.48492 0.1145 0.0
C268 C 0.70402 0.47438 0.13228 0.0
C269 C 0.71579 0.46234 0.15226 0.0
C270 C 0.66281 0.47702 0.13053 0.0
C271 C 0.72138 0.49545 0.09207 0.0
C272 C 0.66086 0.51514 0.12472 0.0
C273 C 0.62268 0.51747 0.12214 0.0
C274 C 0.58505 0.4819 0.12544 0.0
C275 C 0.58683 0.44406 0.13196 0.0
C276 C 0.62519 0.4417 0.13455 0.0
H277 H 0.74 0.48947 0.0788 0.0
H278 H 0.68811 0.47661 0.0881 0.0
H279 H 0.72797 0.52963 0.09198 0.0
H280 H 0.68903 0.54334 0.12211 0.0
H281 H 0.62255 0.54729 0.11749 0.0
H282 H 0.45928 0.85041 0.49619 0.0
H283 H 0.39202 0.78944 0.49276 0.0
H284 H 0.33412 0.86205 0.52519 0.0
H285 H 0.40139 0.9236 0.52822 0.0
H286 H 0.33295 0.74299 0.52344 0.0
H287 H 0.27177 0.82645 0.46631 0.0
H288 H 0.32582 0.84691 0.47365 0.0
H289 H 0.28964 0.85238 0.49277 0.0
C290 C 0.43224 0.85325 0.50273 0.0
C291 C 0.43532 0.89173 0.51225 0.0
C292 C 0.39389 0.81841 0.50081 0.0
C293 C 0.35802 0.82149 0.50837 0.0
C294 C 0.36132 0.85933 0.51884 0.0
H295 H 0.1028 0.6359 0.48093 0.0
H296 H 0.16209 0.69509 0.49855 0.0
C297 C 0.39971 0.89431 0.52067 0.0
C298 C 0.3172 0.78557 0.50427 0.0
H299 H 0.22779 0.756 0.47441 0.0
C300 C 0.30977 0.74589 0.51289 0.0
C301 C 0.28701 0.78949 0.49051 0.0
C302 C 0.2939 0.83095 0.4801 0.0
C303 C 0.27332 0.70979 0.50771 0.0
C304 C 0.24385 0.71349 0.49337 0.0
C305 C 0.25048 0.75341 0.48546 0.0
C306 C 0.20778 0.67589 0.48472 0.0
C307 C 0.26684 0.66789 0.51739 0.0
C308 C 0.21397 0.64573 0.47117 0.0
C309 C 0.18036 0.61235 0.46115 0.0
C310 C 0.14011 0.60867 0.46446 0.0
C311 C 0.13372 0.63823 0.47837 0.0
C312 C 0.16741 0.67186 0.48833 0.0
H313 H 0.28557 0.67244 0.5327 0.0
H314 H 0.23377 0.64881 0.52125 0.0
H315 H 0.27651 0.64956 0.50518 0.0
H316 H 0.24491 0.64875 0.46782 0.0
H317 H 0.1857 0.5897 0.45047 0.0
H318 H 0.60244 0.51052 0.80548 0.0
H319 H 0.61285 0.44504 0.80506 0.0
H320 H 0.54193 0.40643 0.86473 0.0
H321 H 0.53243 0.47246 0.8656 0.0
H322 H 0.64173 0.40789 0.85083 0.0
H323 H 0.49309 0.31235 0.80653 0.0
H324 H 0.52193 0.36817 0.8014 0.0
H325 H 0.49614 0.35194 0.82723 0.0
C326 C 0.58991 0.48856 0.81877 0.0
C327 C 0.56725 0.49692 0.83577 0.0
C328 C 0.59557 0.45104 0.81841 0.0
C329 C 0.57828 0.42107 0.83491 0.0
C330 C 0.55561 0.42928 0.8519 0.0
H331 H 0.54917 0.15783 0.83312 0.0
H332 H 0.54304 0.22395 0.84335 0.0
C333 C 0.55011 0.46688 0.85232 0.0
C334 C 0.58288 0.38061 0.83401 0.0
H335 H 0.53541 0.27795 0.81482 0.0
C336 C 0.61849 0.37935 0.84306 0.0
C337 C 0.5523 0.34349 0.82407 0.0
C338 C 0.51358 0.3436 0.81418 0.0
C339 C 0.6245 0.34183 0.84223 0.0
C340 C 0.59444 0.30484 0.83164 0.0
C341 C 0.55843 0.3061 0.82299 0.0
C342 C 0.60057 0.26525 0.82814 0.0
C343 C 0.6628 0.34218 0.85293 0.0
C344 C 0.63515 0.26635 0.81654 0.0
C345 C 0.63877 0.22877 0.811 0.0
C346 C 0.60766 0.18923 0.81663 0.0
C347 C 0.57374 0.18801 0.82887 0.0
C348 C 0.57015 0.22571 0.83452 0.0
H349 H 0.67457 0.36669 0.86645 0.0
H350 H 0.65685 0.31081 0.8598 0.0
H351 H 0.68748 0.34998 0.84038 0.0
H352 H 0.65856 0.29614 0.81092 0.0
H353 H 0.66511 0.23036 0.8015 0.0
H354 H 0.56988 0.91517 0.48786 0.0
H355 H 0.5573 0.8408 0.49289 0.0
H356 H 0.65224 0.88045 0.54342 0.0
H357 H 0.66377 0.95435 0.539 0.0
H358 H 0.61004 0.80228 0.48757 0.0
H359 H 0.55721 0.78822 0.57435 0.0
H360 H 0.56121 0.8318 0.55742 0.0
H361 H 0.60642 0.83219 0.57077 0.0
C362 C 0.58742 0.90784 0.50034 0.0
C363 C 0.61722 0.94043 0.51334 0.0
C364 C 0.58049 0.86541 0.50307 0.0
C365 C 0.60322 0.85484 0.51887 0.0
C366 C 0.63352 0.88757 0.53155 0.0
H367 H 0.63748 0.63573 0.55927 0.0
H368 H 0.64055 0.70631 0.5525 0.0
C369 C 0.64033 0.92987 0.52888 0.0
C370 C 0.59642 0.80991 0.52167 0.0
H371 H 0.57601 0.73383 0.56042 0.0
C372 C 0.60212 0.78713 0.50344 0.0
C373 C 0.58595 0.79002 0.54236 0.0
C374 C 0.57692 0.81165 0.56228 0.0
C375 C 0.59922 0.74571 0.50554 0.0
C376 C 0.58996 0.72639 0.52638 0.0
C377 C 0.58338 0.74879 0.54449 0.0
C378 C 0.58821 0.68348 0.52996 0.0
C379 C 0.60744 0.72345 0.48565 0.0
C380 C 0.55766 0.64715 0.51962 0.0
C381 C 0.55572 0.60679 0.52365 0.0
C382 C 0.58424 0.60214 0.53809 0.0
C383 C 0.61492 0.63852 0.54826 0.0
C384 C 0.61674 0.67876 0.54434 0.0
H385 H 0.62207 0.7456 0.47203 0.0
H386 H 0.6278 0.70792 0.4902 0.0
H387 H 0.57777 0.69839 0.47936 0.0
H388 H 0.53492 0.64994 0.50874 0.0
H389 H 0.53151 0.57911 0.51586 0.0
H390 H 0.70469 0.54246 0.78948 0.0
H391 H 0.75509 0.51249 0.78419 0.0
H392 H 0.8244 0.58506 0.84093 0.0
H393 H 0.77408 0.61573 0.84624 0.0
H394 H 0.85453 0.56354 0.78328 0.0
H395 H 0.77976 0.4458 0.84867 0.0
H396 H 0.75193 0.46929 0.83311 0.0
H397 H 0.78805 0.50003 0.85425 0.0
C398 C 0.731 0.5525 0.80066 0.0
C399 C 0.73563 0.58128 0.81832 0.0
C400 C 0.75969 0.53543 0.79756 0.0
C401 C 0.79316 0.54664 0.81218 0.0
C402 C 0.79861 0.57627 0.82949 0.0
H403 H 1.00752 0.50876 0.82931 0.0
H404 H 0.95772 0.53478 0.81673 0.0
C405 C 0.77002 0.5937 0.8325 0.0
C406 C 0.8208 0.52513 0.81024 0.0
H407 H 0.8422 0.44886 0.83402 0.0
C408 C 0.85183 0.53825 0.79422 0.0
C409 C 0.81622 0.49153 0.82417 0.0
C410 C 0.78209 0.47543 0.84098 0.0
C411 C 0.87989 0.5197 0.79249 0.0
C412 C 0.87683 0.48771 0.80733 0.0
C413 C 0.84445 0.47333 0.82262 0.0
C414 C 0.90938 0.47226 0.80934 0.0
C415 C 0.91279 0.53482 0.77501 0.0
C416 C 0.8991 0.4285 0.80889 0.0
C417 C 0.92774 0.41369 0.81605 0.0
C418 C 0.96673 0.44245 0.82385 0.0
C419 C 0.9779 0.48619 0.82284 0.0
C420 C 0.94945 0.50101 0.81566 0.0
H421 H 0.90253 0.54736 0.76063 0.0
H422 H 0.94094 0.56098 0.78209 0.0
H423 H 0.92107 0.50892 0.7691 0.0
H424 H 0.86818 0.40582 0.80426 0.0
H425 H 0.91865 0.37986 0.81694 0.0
H426 H 0.17144 0.60288 0.17511 0.0
H427 H 0.23391 0.66947 0.17793 0.0
H428 H 0.18864 0.72056 0.12535 0.0
H429 H 0.12585 0.65356 0.1223 0.0
H430 H 0.29209 0.7159 0.13886 0.0
H431 H 0.21326 0.80239 0.18416 0.0
H432 H 0.19347 0.74525 0.18459 0.0
H433 H 0.18916 0.77044 0.15984 0.0
C434 C 0.17488 0.62822 0.16407 0.0
C435 C 0.14387 0.62334 0.14857 0.0
C436 C 0.21055 0.66608 0.16566 0.0
C437 C 0.21559 0.69971 0.1519 0.0
C438 C 0.18505 0.6948 0.13611 0.0
H439 H 0.40854 0.95628 0.17786 0.0
H440 H 0.34885 0.89729 0.16041 0.0
C441 C 0.14936 0.65669 0.1344 0.0
C442 C 0.25237 0.7403 0.15486 0.0
H443 H 0.28542 0.83683 0.18135 0.0
C444 C 0.29073 0.74268 0.14785 0.0
C445 C 0.25016 0.77505 0.16643 0.0
C446 C 0.20942 0.77352 0.17431 0.0
C447 C 0.32737 0.77869 0.15277 0.0
C448 C 0.32546 0.81248 0.16555 0.0
C449 C 0.28681 0.81082 0.17163 0.0
C450 C 0.36309 0.84816 0.17437 0.0
C451 C 0.36774 0.77993 0.14443 0.0
C452 C 0.3906 0.84003 0.18801 0.0
C453 C 0.42449 0.87352 0.19775 0.0
C454 C 0.43098 0.91552 0.19426 0.0
C455 C 0.40378 0.92387 0.18058 0.0
C456 C 0.36994 0.89036 0.1707 0.0
H457 H 0.363 0.76005 0.12911 0.0
H458 H 0.3902 0.81286 0.14099 0.0
H459 H 0.38133 0.76702 0.15716 0.0
H460 H 0.3853 0.80777 0.1916 0.0
H461 H 0.44529 0.86683 0.20837 0.0
H462 H 0.61018 0.14546 0.53039 0.0
H463 H 0.6161 0.21839 0.53166 0.0
H464 H 0.51935 0.18415 0.48245 0.0
H465 H 0.51363 0.1113 0.48093 0.0
H466 H 0.63187 0.27862 0.49646 0.0
H467 H 0.47816 0.2343 0.53515 0.0
H468 H 0.50403 0.19946 0.5347 0.0
H469 H 0.47856 0.20515 0.51024 0.0
C470 C 0.59064 0.15365 0.5196 0.0
C471 C 0.5616 0.12275 0.50547 0.0
C472 C 0.5939 0.19527 0.52042 0.0
C473 C 0.56786 0.20662 0.50733 0.0
C474 C 0.53935 0.17597 0.49292 0.0
H475 H 0.52889 0.43982 0.50989 0.0
H476 H 0.52701 0.37034 0.49879 0.0
C477 C 0.5362 0.13441 0.49203 0.0
C478 C 0.56998 0.25025 0.50913 0.0
H479 H 0.51543 0.306 0.52616 0.0
C480 C 0.6064 0.28465 0.5029 0.0
C481 C 0.53663 0.25804 0.5174 0.0
C482 C 0.49719 0.22242 0.52494 0.0
C483 C 0.61037 0.32665 0.50472 0.0
C484 C 0.57737 0.33457 0.51351 0.0
C485 C 0.54068 0.30002 0.51935 0.0
C486 C 0.58099 0.37836 0.5181 0.0
C487 C 0.64974 0.36205 0.49697 0.0
C488 C 0.61208 0.40616 0.53243 0.0
C489 C 0.61328 0.44573 0.53854 0.0
C490 C 0.58314 0.45816 0.53072 0.0
C491 C 0.55266 0.431 0.51593 0.0
C492 C 0.55148 0.39132 0.50973 0.0
H493 H 0.66526 0.35042 0.48423 0.0
H494 H 0.64377 0.38821 0.48999 0.0
H495 H 0.6714 0.37503 0.51121 0.0
H496 H 0.63462 0.39669 0.53955 0.0
H497 H 0.63705 0.46624 0.54996 0.0
H498 H 0.45115 0.64191 0.87581 0.0
H499 H 0.37832 0.62459 0.88404 0.0
H500 H 0.34181 0.55648 0.82144 0.0
H501 H 0.41405 0.57341 0.81321 0.0
H502 H 0.29945 0.61102 0.8349 0.0
H503 H 0.29996 0.49628 0.89765 0.0
H504 H 0.33909 0.55005 0.89954 0.0
H505 H 0.33942 0.51602 0.87684 0.0
C506 C 0.42756 0.62402 0.86366 0.0
C507 C 0.43794 0.60867 0.84396 0.0
C508 C 0.38612 0.61404 0.86841 0.0
C509 C 0.3549 0.58894 0.85342 0.0
C510 C 0.36557 0.57586 0.83319 0.0
H511 H 0.10844 0.41075 0.84404 0.0
H512 H 0.18368 0.45173 0.84815 0.0
C513 C 0.40677 0.58549 0.82853 0.0
C514 C 0.31081 0.57294 0.85919 0.0
H515 H 0.2357 0.49442 0.88769 0.0
C516 C 0.28546 0.58621 0.84679 0.0
C517 C 0.29293 0.54026 0.87455 0.0
C518 C 0.31901 0.52447 0.88791 0.0
C519 C 0.24232 0.56635 0.8487 0.0
C520 C 0.22437 0.53258 0.86345 0.0
C521 C 0.24979 0.52049 0.87651 0.0
C522 C 0.17933 0.50653 0.86364 0.0
C523 C 0.2161 0.5799 0.83404 0.0
C524 C 0.15234 0.52352 0.87153 0.0
C525 C 0.10967 0.50009 0.86923 0.0
C526 C 0.09371 0.45953 0.85911 0.0
C527 C 0.12056 0.44191 0.85203 0.0
C528 C 0.1632 0.46522 0.85437 0.0
H529 H 0.23477 0.60302 0.82158 0.0
H530 H 0.19217 0.55187 0.82527 0.0
H531 H 0.19996 0.59495 0.84437 0.0
H532 H 0.16432 0.55528 0.8788 0.0
H533 H 0.08909 0.51413 0.8745 0.0
H534 H 0.83339 0.32171 0.13679 0.0
H535 H 0.76809 0.26339 0.14733 0.0
H536 H 0.83457 0.21758 0.19119 0.0
H537 H 0.89962 0.27632 0.18116 0.0
H538 H 0.74024 0.1774 0.14442 0.0
H539 H 0.75056 0.23054 0.23229 0.0
H540 H 0.78403 0.26341 0.21132 0.0
H541 H 0.79472 0.2223 0.22346 0.0
C542 C 0.83399 0.29894 0.14854 0.0
C543 C 0.87134 0.30349 0.15828 0.0
C544 C 0.79675 0.26578 0.15459 0.0
C545 C 0.79644 0.23677 0.17042 0.0
C546 C 0.83401 0.2403 0.17941 0.0
H547 H 0.59207 0.99343 0.19436 0.0
H548 H 0.65885 0.05094 0.18496 0.0
C549 C 0.87114 0.2736 0.17353 0.0
C550 C 0.75685 0.20287 0.1776 0.0
H551 H 0.6981 0.16192 0.22314 0.0
C552 C 0.73092 0.17407 0.16161 0.0
C553 C 0.74446 0.1991 0.2 0.0
C554 C 0.76968 0.23073 0.21773 0.0
C555 C 0.69326 0.14103 0.16746 0.0
C556 C 0.68177 0.13611 0.18999 0.0
C557 C 0.70729 0.16542 0.20593 0.0
C558 C 0.64297 0.10118 0.19727 0.0
C559 C 0.66579 0.11225 0.14938 0.0
C560 C 0.61289 0.11028 0.20836 0.0
C561 C 0.57514 0.07744 0.21396 0.0
C562 C 0.56705 0.03525 0.20847 0.0
C563 C 0.59776 0.02598 0.19834 0.0
C564 C 0.6356 0.05871 0.1929 0.0
H565 H 0.67323 0.12732 0.13299 0.0
H566 H 0.67048 0.08266 0.14831 0.0
H567 H 0.63267 0.10356 0.15286 0.0
H568 H 0.61814 0.14282 0.21207 0.0
H569 H 0.55164 0.08492 0.22181 0.0
H570 H 0.97138 0.38008 0.07797 0.0
H571 H 0.97821 0.37116 0.0382 0.0
H572 H 0.06903 0.50101 0.03531 0.0
H573 H 0.06314 0.51008 0.0751 0.0
H574 H 0.96146 0.41309 0.00569 0.0
H575 H 0.12545 0.43933 0.0008 0.0
H576 H 0.09771 0.42982 0.02657 0.0
H577 H 0.11902 0.48195 0.01512 0.0
C578 C 0.99304 0.40671 0.06894 0.0
C579 C 1.01674 0.44581 0.07977 0.0
C580 C 0.99697 0.40149 0.0462 0.0
C581 C 0.02467 0.43517 0.03387 0.0
C582 C 0.0483 0.47423 0.0446 0.0
H583 H 1.00915 0.47949 0.89646 0.0
H584 H 1.01256 0.48076 0.93699 0.0
C585 C 0.04459 0.47945 0.06735 0.0
C586 C 0.02665 0.43042 0.00955 0.0
H587 H 0.09301 0.44318 0.96667 0.0
C588 C 0.99015 0.41921 0.99719 0.0
C589 C 0.06401 0.43787 0.99849 0.0
C590 C 0.10368 0.44748 0.01094 0.0
C591 C 0.99024 0.41676 0.97404 0.0
C592 C 0.02799 0.42663 0.96296 0.0
C593 C 0.06425 0.43622 0.97526 0.0
C594 C 0.03028 0.42849 0.93858 0.0
C595 C 0.94988 0.40378 0.96164 0.0
C596 C 0.04107 0.40005 0.92614 0.0
C597 C 0.03932 0.39956 0.903 0.0
C598 C 0.02669 0.42739 0.89224 0.0
C599 C 1.01817 0.4573 0.90466 0.0
C600 C 1.02004 0.45794 0.92767 0.0
H601 H 0.92294 0.38612 0.97228 0.0
H602 H 0.9471 0.43263 0.95603 0.0
H603 H 0.94848 0.38362 0.94683 0.0
H604 H 0.04943 0.37737 0.93432 0.0
H605 H 0.04633 0.37662 0.89351 0.0
H606 H 0.52132 0.97945 0.43487 0.0
H607 H 0.51779 0.98043 0.39462 0.0
H608 H 0.63741 0.08684 0.39383 0.0
H609 H 0.64102 0.08667 0.43423 0.0
H610 H 0.58121 0.09706 0.36621 0.0
H611 H 0.5812 0.93924 0.35138 0.0
H612 H 0.54111 0.93728 0.36989 0.0
H613 H 0.59444 0.96684 0.3779 0.0
C614 C 0.54699 1.00305 0.4262 0.0
C615 C 0.58159 0.03279 0.43782 0.0
C616 C 0.545 1.0034 0.40315 0.0
C617 C 0.57771 0.03316 0.39121 0.0
C618 C 0.61197 0.0634 0.40273 0.0
H619 H 0.57726 0.99248 0.24785 0.0
H620 H 0.60229 0.01014 0.28623 0.0
C621 C 0.61395 0.0632 0.42583 0.0
C622 C 0.57564 0.03291 0.36671 0.0
H623 H 0.55986 0.96832 0.32097 0.0
C624 C 0.57703 0.06911 0.35627 0.0
C625 C 0.5711 0.99678 0.35371 0.0
C626 C 0.57231 0.958 0.36377 0.0
C627 C 0.57198 0.06938 0.33324 0.0
C628 C 0.56458 0.03219 0.32044 0.0
C629 C 0.56515 0.99673 0.33079 0.0
C630 C 0.55359 0.02811 0.29657 0.0
C631 C 0.57454 0.10945 0.3229 0.0
C632 C 0.5185 0.0332 0.28951 0.0
C633 C 0.50465 0.02363 0.26762 0.0
C634 C 0.52524 0.00822 0.25251 0.0
C635 C 0.56124 1.00474 0.25925 0.0
C636 C 0.5753 0.01455 0.28114 0.0
H637 H 0.59394 0.13799 0.3331 0.0
H638 H 0.58748 0.11294 0.30598 0.0
H639 H 0.54306 0.10836 0.32183 0.0
H640 H 0.50069 0.04271 0.30116 0.0
H641 H 0.47697 0.02676 0.26262 0.0
H642 H 0.64676 0.63234 0.75753 0.0
H643 H 0.63889 0.63448 0.71774 0.0
H644 H 0.51824 0.63275 0.72661 0.0
H645 H 0.52567 0.63014 0.76685 0.0
H646 H 0.5188 0.57168 0.69658 0.0
H647 H 0.64362 0.72697 0.67665 0.0
H648 H 0.66236 0.6974 0.69379 0.0
H649 H 0.62411 0.71401 0.70436 0.0
C650 C 0.61868 0.63296 0.75115 0.0
C651 C 0.58675 0.63088 0.76542 0.0
C652 C 0.61444 0.63465 0.72834 0.0
C653 C 0.5783 0.63455 0.7192 0.0
C654 C 0.54658 0.63334 0.73336 0.0
H655 H 0.52335 0.5729 0.57637 0.0
H656 H 0.51836 0.60208 0.61331 0.0
C657 C 0.55089 0.63186 0.75632 0.0
C658 C 0.57259 0.63116 0.69484 0.0
H659 H 0.6232 0.67288 0.64716 0.0
C660 C 0.54086 0.59436 0.68568 0.0
C661 C 0.60136 0.66087 0.68066 0.0
C662 C 0.6345 0.70224 0.68938 0.0
C663 C 0.53923 0.58476 0.66291 0.0
C664 C 0.56986 0.61301 0.64898 0.0
C665 C 0.59989 0.65119 0.65791 0.0
C666 C 0.57453 0.60067 0.62588 0.0
C667 C 0.5066 0.54305 0.65414 0.0
C668 C 0.60839 0.59173 0.62059 0.0
C669 C 0.61116 0.57529 0.59969 0.0
C670 C 0.58026 0.56772 0.58373 0.0
C671 C 0.54741 0.57859 0.58857 0.0
C672 C 0.5445 0.59496 0.60958 0.0
H673 H 0.48811 0.52254 0.66758 0.0
H674 H 0.48525 0.5492 0.64294 0.0
H675 H 0.5211 0.52549 0.64442 0.0
H676 H 0.6319 0.59598 0.63292 0.0
H677 H 0.63685 0.56736 0.59609 0.0
H678 H 0.65892 0.08313 0.58121 0.0
H679 H 0.66105 0.08178 0.62154 0.0
H680 H 0.54422 0.9715 0.62101 0.0
H681 H 0.54155 0.97265 0.58066 0.0
H682 H 0.54731 0.03725 0.64954 0.0
H683 H 0.68265 1.00132 0.66304 0.0
H684 H 0.69274 0.0445 0.64479 0.0
H685 H 0.65589 0.99195 0.63674 0.0
C686 C 0.63381 0.05831 0.5896 0.0
C687 C 0.60001 0.02807 0.57765 0.0
C688 C 0.63528 0.05739 0.61267 0.0
C689 C 0.60311 0.02614 0.62423 0.0
C690 C 0.56953 0.99566 0.61237 0.0
H691 H 0.55563 0.02792 0.76721 0.0
H692 H 0.55243 0.99988 0.72912 0.0
C693 C 0.56807 0.99645 0.5893 0.0
C694 C 0.60299 0.02754 0.64874 0.0
H695 H 0.66017 0.02955 0.69433 0.0
C696 C 0.57155 0.03484 0.6594 0.0
C697 C 0.6347 0.02438 0.6615 0.0
C698 C 0.66822 0.0147 0.65097 0.0
C699 C 0.57213 0.04138 0.68241 0.0
C700 C 0.6046 0.03959 0.69514 0.0
C701 C 0.63525 0.03074 0.68455 0.0
C702 C 0.60947 0.05132 0.71904 0.0
C703 C 0.53927 0.05251 0.69272 0.0
C704 C 0.64373 0.08795 0.72628 0.0
C705 C 0.64574 0.10345 0.74795 0.0
C706 C 0.61354 0.08263 0.7627 0.0
C707 C 0.5807 0.04435 0.756 0.0
C708 C 0.57874 0.02866 0.73428 0.0
H709 H 0.52142 0.06074 0.68011 0.0
H710 H 0.51729 0.02491 0.70185 0.0
H711 H 0.55325 0.07973 0.70465 0.0
H712 H 0.66789 0.10579 0.71485 0.0
H713 H 0.67145 0.13282 0.75299 0.0
H714 H 0.55443 0.60926 0.91196 0.0
H715 H 0.55536 0.59173 0.9507 0.0
H716 H 0.65723 0.55868 0.93803 0.0
H717 H 0.65687 0.57651 0.89912 0.0
H718 H 0.54361 0.51199 0.9663 0.0
H719 H 0.69554 0.63816 0.99349 0.0
H720 H 0.66978 0.64145 0.96841 0.0
H721 H 0.69587 0.60722 0.96926 0.0
C722 C 0.57737 0.59867 0.91736 0.0
C723 C 0.60563 0.5944 0.90235 0.0
C724 C 0.5778 0.5886 0.93956 0.0
C725 C 0.60658 0.57424 0.94731 0.0
C726 C 0.63519 0.57036 0.93249 0.0
H727 H 0.55886 0.45015 0.0759 0.0
H728 H 0.58427 0.46665 0.03783 0.0
C729 C 0.63479 0.58043 0.91022 0.0
C730 C 0.60496 0.56151 0.97068 0.0
H731 H 0.65726 0.58846 0.02008 0.0
C732 C 0.5686 0.52841 0.97803 0.0
C733 C 0.63758 0.58316 0.98593 0.0
C734 C 0.67685 0.61971 0.97903 0.0
C735 C 0.5635 0.51698 0.0003 0.0
C736 C 0.59597 0.53881 0.01563 0.0
C737 C 0.63269 0.57141 0.00823 0.0
C738 C 0.59008 0.53124 0.0397 0.0
C739 C 0.52261 0.48297 0.00742 0.0
C740 C 0.58756 0.56283 0.05373 0.0
C741 C 0.5735 0.55348 0.07536 0.0
C742 C 0.5619 0.5125 0.08332 0.0
C743 C 0.5679 0.48198 0.07002 0.0
C744 C 0.58199 0.4913 0.0483 0.0
H745 H 0.49842 0.4747 0.99435 0.0
H746 H 0.52658 0.45382 0.0112 0.0
H747 H 0.51152 0.49334 0.02262 0.0
H748 H 0.59373 0.59385 0.04747 0.0
H749 H 0.56894 0.57731 0.08545 0.0
H750 H 0.0592 0.53434 0.22066 0.0
H751 H 0.06017 0.53785 0.26103 0.0
H752 H 0.947 0.42343 0.26221 0.0
H753 H 0.9461 0.41907 0.2218 0.0
H754 H 1.00458 0.54339 0.29095 0.0
H755 H 0.02355 0.39412 0.30125 0.0
H756 H 0.02986 0.41943 0.27496 0.0
H757 H 0.97898 0.38843 0.28534 0.0
C758 C 0.03438 0.50994 0.22945 0.0
C759 C 1.00276 0.47622 0.21793 0.0
C760 C 0.035 0.51202 0.25255 0.0
C761 C 1.00406 0.4805 0.26464 0.0
C762 C 0.97171 0.44755 0.25323 0.0
H763 H 0.99225 0.5206 0.40851 0.0
H764 H 0.97016 0.50174 0.36968 0.0
C765 C 0.97116 0.44528 0.2301 0.0
C766 C 1.00619 0.4822 0.28916 0.0
H767 H 1.01781 0.42987 0.33386 0.0
C768 C 1.00717 0.51846 0.30037 0.0
C769 C 1.00991 0.44973 0.30136 0.0
C770 C 1.0109 0.41087 0.29016 0.0
C771 C 1.01262 0.5236 0.32341 0.0
C772 C 1.01629 0.49111 0.33563 0.0
C773 C 1.01449 0.45446 0.32447 0.0
C774 C 0.02618 0.49655 0.35963 0.0
C775 C 1.01631 0.56462 0.33432 0.0
C776 C 0.06381 0.49749 0.36705 0.0
C777 C 0.07598 0.50756 0.38914 0.0
C778 C 0.05081 0.51695 0.40416 0.0
C779 C 1.01205 0.51349 0.39711 0.0
C780 C 0.99972 0.5032 0.37497 0.0
H781 H 0.02156 0.58966 0.32209 0.0
H782 H 0.98727 0.55893 0.34319 0.0
H783 H 0.04211 0.57662 0.34657 0.0
H784 H 0.08456 0.49214 0.35555 0.0
H785 H 0.10573 0.50952 0.39441 0.0
loop_
_geom_bond_atom_site_label_1
_geom_bond_atom_site_label_2
_geom_bond_distance
_geom_bond_site_symmetry_2
_ccdc_geom_bond_type
Tb0 O3 2.453 1_455 S
Tb0 O4 2.596 1_455 S
Tb0 O5 2.374 . S
Tb0 O13 2.343 . S
Tb0 O15 2.353 . S
Tb0 O17 2.427 . S
Tb0 O18 2.513 . S
C1 O5 1.250 1_655 S
C1 O7 1.255 . S
Tb2 O4 2.343 . S
Tb2 O7 2.353 . S
Tb2 O10 2.427 . S
Tb2 O11 2.513 . S
Tb2 O12 2.453 1_655 S
Tb2 O13 2.596 1_655 S
Tb2 O14 2.374 . S
O3 Tb0 2.453 1_655 S
O3 C19 1.245 . S
O4 Tb0 2.596 1_655 S
O4 Tb2 2.343 . S
O4 C19 1.259 . S
O5 Tb0 2.374 . S
O5 C1 1.250 1_455 S
C6 O10 1.275 . S
C6 O11 1.246 . S
O7 C1 1.255 . S
O7 Tb2 2.353 . S
C8 O12 1.245 . S
C8 O13 1.259 . S
C9 O14 1.250 1_455 S
C9 O15 1.263 . S
O10 Tb2 2.427 . S
O10 C6 1.275 . S
O11 Tb2 2.513 . S
O11 C6 1.246 . S
O12 Tb2 2.453 1_455 S
O12 C8 1.245 . S
O13 Tb0 2.343 . S
O13 Tb2 2.596 1_455 S
O13 C8 1.259 . S
O14 Tb2 2.374 . S
O14 C9 1.250 1_655 S
O15 Tb0 2.353 . S
O15 C9 1.263 . S
C16 O17 1.275 . S
C16 O18 1.246 . S
O17 Tb0 2.427 . S
O17 C16 1.275 . S
O18 Tb0 2.513 . S
O18 C16 1.246 . S
C19 O3 1.245 . S
C19 O4 1.259 . S
Tb20 O23 2.453 . S
Tb20 O24 2.596 . S
Tb20 O25 2.374 . S
Tb20 O33 2.343 1_545 S
Tb20 O35 2.353 . S
Tb20 O37 2.427 1_545 S
Tb20 O38 2.513 1_545 S
C21 O25 1.251 . S
C21 O27 1.263 . S
Tb22 O24 2.343 . S
Tb22 O27 2.353 . S
Tb22 O30 2.427 . S
Tb22 O31 2.513 . S
Tb22 O32 2.453 1_545 S
Tb22 O33 2.596 1_545 S
Tb22 O34 2.374 . S
O23 Tb20 2.453 . S
O23 C39 1.245 . S
O24 Tb20 2.596 . S
O24 Tb22 2.343 . S
O24 C39 1.259 . S
O25 Tb20 2.374 . S
O25 C21 1.251 . S
C26 O30 1.275 . S
C26 O31 1.246 . S
O27 C21 1.263 . S
O27 Tb22 2.353 . S
C28 O32 1.245 . S
C28 O33 1.259 . S
C29 O34 1.250 . S
C29 O35 1.263 . S
O30 Tb22 2.427 . S
O30 C26 1.275 . S
O31 Tb22 2.513 . S
O31 C26 1.246 . S
O32 Tb22 2.453 1_565 S
O32 C28 1.245 . S
O33 Tb20 2.343 1_565 S
O33 Tb22 2.596 1_565 S
O33 C28 1.259 . S
O34 Tb22 2.374 . S
O34 C29 1.250 . S
O35 Tb20 2.353 . S
O35 C29 1.263 . S
C36 O37 1.275 . S
C36 O38 1.246 . S
O37 Tb20 2.427 1_565 S
O37 C36 1.275 . S
O38 Tb20 2.513 1_565 S
O38 C36 1.246 . S
C39 O23 1.245 . S
C39 O24 1.259 . S
Tb40 O43 2.453 . S
Tb40 O44 2.596 . S
Tb40 O45 2.374 . S
Tb40 O53 2.343 . S
Tb40 O55 2.353 . S
Tb40 O57 2.427 . S
Tb40 O58 2.513 . S
C41 O45 1.251 . S
C41 O47 1.263 . S
Tb42 O44 2.343 . S
Tb42 O47 2.353 . S
Tb42 O50 2.427 . S
Tb42 O51 2.513 . S
Tb42 O52 2.453 . S
Tb42 O53 2.596 . S
Tb42 O54 2.374 . S
O43 Tb40 2.453 . S
O43 C59 1.245 . S
O44 Tb40 2.596 . S
O44 Tb42 2.343 . S
O44 C59 1.259 . S
O45 Tb40 2.374 . S
O45 C41 1.251 . S
C46 O50 1.275 . S
C46 O51 1.246 . S
O47 C41 1.263 . S
O47 Tb42 2.353 . S
C48 O52 1.245 . S
C48 O53 1.259 . S
C49 O54 1.250 . S
C49 O55 1.263 . S
O50 Tb42 2.427 . S
O50 C46 1.275 . S
O51 Tb42 2.513 . S
O51 C46 1.246 . S
O52 Tb42 2.453 . S
O52 C48 1.245 . S
O53 Tb40 2.343 . S
O53 Tb42 2.596 . S
O53 C48 1.259 . S
O54 Tb42 2.374 . S
O54 C49 1.250 . S
O55 Tb40 2.353 . S
O55 C49 1.263 . S
C56 O57 1.275 . S
C56 O58 1.246 . S
O57 Tb40 2.427 . S
O57 C56 1.275 . S
O58 Tb40 2.513 . S
O58 C56 1.246 . S
C59 O43 1.245 . S
C59 O44 1.259 . S
C60 N61 1.317 1_565 S
C60 N62 1.348 . S
C60 C63 1.485 . S
N61 C60 1.317 1_545 S
N61 N65 1.370 . S
N62 C60 1.348 . S
N62 C64 1.346 . S
C63 C60 1.485 . S
C63 H67 0.960 1_565 S
C63 H68 0.961 . S
C63 H69 0.960 1_565 S
C64 N62 1.346 . S
C64 N65 1.307 1_565 S
C64 C66 1.486 . S
N65 N61 1.370 . S
N65 C64 1.307 1_545 S
C66 C64 1.486 . S
C66 H70 0.960 . S
C66 H71 0.960 . S
C66 H72 0.959 . S
H67 C63 0.960 1_545 S
H68 C63 0.961 . S
H69 C63 0.960 1_545 S
H70 C66 0.960 . S
H71 C66 0.960 . S
H72 C66 0.959 . S
C73 N74 1.317 . S
C73 N75 1.348 . S
C73 C76 1.485 . S
N74 C73 1.317 . S
N74 N78 1.370 . S
N75 C73 1.348 . S
N75 C77 1.346 . S
C76 C73 1.485 . S
C76 H80 0.960 . S
C76 H81 0.961 . S
C76 H82 0.960 . S
C77 N75 1.346 . S
C77 N78 1.307 . S
C77 C79 1.486 . S
N78 N74 1.370 . S
N78 C77 1.307 . S
C79 C77 1.486 . S
C79 H83 0.960 . S
C79 H84 0.960 . S
C79 H85 0.959 . S
H80 C76 0.960 . S
H81 C76 0.961 . S
H82 C76 0.960 . S
H83 C79 0.960 . S
H84 C79 0.960 . S
H85 C79 0.959 . S
C86 N87 1.317 . S
C86 N88 1.348 . S
C86 C89 1.485 . S
N87 C86 1.317 . S
N87 N91 1.370 . S
N88 C86 1.348 . S
N88 C90 1.346 . S
C89 C86 1.485 . S
C89 H93 0.960 . S
C89 H94 0.961 . S
C89 H95 0.960 . S
C90 N88 1.346 . S
C90 N91 1.307 . S
C90 C92 1.486 1_455 S
N91 N87 1.370 . S
N91 C90 1.307 . S
C92 C90 1.486 1_655 S
C92 H96 0.960 . S
C92 H97 0.960 . S
C92 H98 0.959 . S
H93 C89 0.960 . S
H94 C89 0.961 . S
H95 C89 0.960 . S
H96 C92 0.960 . S
H97 C92 0.960 . S
H98 C92 0.959 . S
C99 N100 1.317 . S
C99 N101 1.348 . S
C99 C102 1.485 . S
N100 C99 1.317 . S
N100 N104 1.370 . S
N101 C99 1.348 . S
N101 C103 1.346 . S
C102 C99 1.485 . S
C102 H106 0.960 . S
C102 H107 0.961 . S
C102 H108 0.960 . S
C103 N101 1.346 . S
C103 N104 1.307 . S
C103 C105 1.486 . S
N104 N100 1.370 . S
N104 C103 1.307 . S
C105 C103 1.486 . S
C105 H109 0.960 . S
C105 H110 0.960 . S
C105 H111 0.959 . S
H106 C102 0.960 . S
H107 C102 0.961 . S
H108 C102 0.960 . S
H109 C105 0.960 . S
H110 C105 0.960 . S
H111 C105 0.959 . S
C112 N113 1.317 . S
C112 N114 1.348 . S
C112 C115 1.485 . S
N113 C112 1.317 . S
N113 N117 1.370 . S
N114 C112 1.348 . S
N114 C116 1.346 . S
C115 C112 1.485 . S
C115 H119 0.960 . S
C115 H120 0.961 . S
C115 H121 0.960 . S
C116 N114 1.346 . S
C116 N117 1.307 . S
C116 C118 1.486 . S
N117 N113 1.370 . S
N117 C116 1.307 . S
C118 C116 1.486 . S
C118 H122 0.960 . S
C118 H123 0.960 . S
C118 H124 0.959 . S
H119 C115 0.960 . S
H120 C115 0.961 . S
H121 C115 0.960 . S
H122 C118 0.960 . S
H123 C118 0.960 . S
H124 C118 0.959 . S
C125 N126 1.317 . S
C125 N127 1.348 . S
C125 C128 1.485 . S
N126 C125 1.317 . S
N126 N130 1.370 . S
N127 C125 1.348 . S
N127 C129 1.346 . S
C128 C125 1.485 . S
C128 H132 0.960 . S
C128 H133 0.961 . S
C128 H134 0.960 . S
C129 N127 1.346 . S
C129 N130 1.307 . S
C129 C131 1.486 . S
N130 N126 1.370 . S
N130 C129 1.307 . S
C131 C129 1.486 . S
C131 H135 0.960 . S
C131 H136 0.960 . S
C131 H137 0.959 . S
H132 C128 0.960 . S
H133 C128 0.961 . S
H134 C128 0.960 . S
H135 C131 0.960 . S
H136 C131 0.960 . S
H137 C131 0.959 . S
H138 C146 0.929 . S
H139 C148 0.930 . S
H140 C150 0.930 . S
H141 C153 0.929 . S
H142 C156 0.930 . S
H143 C158 0.960 . S
H144 C158 0.960 . S
H145 C158 0.960 . S
C146 H138 0.929 . S
C146 C147 1.377 . S
C146 C148 1.384 . S
C147 C146 1.377 . S
C147 C153 1.390 . S
C148 H139 0.930 . S
C148 C146 1.384 . S
C148 C149 1.372 . S
C149 C148 1.372 . S
C149 C150 1.400 . S
C149 C154 1.490 . S
C150 H140 0.930 . S
C150 C149 1.400 . S
C150 C153 1.386 . S
H151 C167 0.930 . S
H152 C168 0.931 . S
C153 H141 0.929 . S
C153 C147 1.390 . S
C153 C150 1.386 . S
C154 C149 1.490 . S
C154 C156 1.395 . S
C154 C157 1.403 . S
H155 C161 0.930 . S
C156 H142 0.930 . S
C156 C154 1.395 . S
C156 C159 1.403 . S
C157 C154 1.403 . S
C157 C158 1.524 . S
C157 C161 1.400 . S
C158 H143 0.960 . S
C158 H144 0.960 . S
C158 H145 0.960 . S
C158 C157 1.524 . S
C159 C156 1.403 . S
C159 C160 1.392 . S
C159 C163 1.495 . S
C160 C159 1.392 . S
C160 C161 1.385 . S
C160 C162 1.478 . S
C161 H155 0.930 . S
C161 C157 1.400 . S
C161 C160 1.385 . S
C162 C160 1.478 . S
C162 C164 1.381 . S
C162 C168 1.383 . S
C163 C159 1.495 . S
C163 H169 0.959 . S
C163 H170 0.961 . S
C163 H171 0.960 . S
C164 C162 1.381 . S
C164 C165 1.394 . S
C164 H172 0.930 . S
C165 C164 1.394 . S
C165 C166 1.383 . S
C165 H173 0.929 . S
C166 C165 1.383 . S
C166 C167 1.377 . S
C167 H151 0.930 . S
C167 C166 1.377 . S
C167 C168 1.379 . S
C168 H152 0.931 . S
C168 C162 1.383 . S
C168 C167 1.379 . S
H169 C163 0.959 . S
H170 C163 0.961 . S
H171 C163 0.960 . S
H172 C164 0.930 . S
H173 C165 0.929 . S
H174 C182 0.929 . S
H175 C184 0.930 . S
H176 C186 0.930 . S
H177 C189 0.929 . S
H178 C192 0.930 . S
H179 C194 0.960 . S
H180 C194 0.960 . S
H181 C194 0.960 . S
C182 H174 0.929 . S
C182 C183 1.377 . S
C182 C184 1.384 . S
C183 C182 1.377 . S
C183 C189 1.390 . S
C184 H175 0.930 . S
C184 C182 1.384 . S
C184 C185 1.372 . S
C185 C184 1.372 . S
C185 C186 1.400 . S
C185 C190 1.490 . S
C186 H176 0.930 . S
C186 C185 1.400 . S
C186 C189 1.386 . S
H187 C203 0.930 . S
H188 C204 0.931 . S
C189 H177 0.929 . S
C189 C183 1.390 . S
C189 C186 1.386 . S
C190 C185 1.490 . S
C190 C192 1.395 . S
C190 C193 1.403 . S
H191 C197 0.930 . S
C192 H178 0.930 . S
C192 C190 1.395 . S
C192 C195 1.403 . S
C193 C190 1.403 . S
C193 C194 1.524 . S
C193 C197 1.400 . S
C194 H179 0.960 . S
C194 H180 0.960 . S
C194 H181 0.960 . S
C194 C193 1.524 . S
C195 C192 1.403 . S
C195 C196 1.392 . S
C195 C199 1.495 . S
C196 C195 1.392 . S
C196 C197 1.385 . S
C196 C198 1.478 . S
C197 H191 0.930 . S
C197 C193 1.400 . S
C197 C196 1.385 . S
C198 C196 1.478 . S
C198 C200 1.381 . S
C198 C204 1.383 . S
C199 C195 1.495 . S
C199 H205 0.959 . S
C199 H206 0.961 . S
C199 H207 0.960 . S
C200 C198 1.381 . S
C200 C201 1.394 . S
C200 H208 0.930 . S
C201 C200 1.394 . S
C201 C202 1.383 . S
C201 H209 0.929 . S
C202 C201 1.383 . S
C202 C203 1.377 . S
C203 H187 0.930 . S
C203 C202 1.377 . S
C203 C204 1.379 . S
C204 H188 0.931 . S
C204 C198 1.383 . S
C204 C203 1.379 . S
H205 C199 0.959 . S
H206 C199 0.961 . S
H207 C199 0.960 . S
H208 C200 0.930 . S
H209 C201 0.929 . S
H210 C218 0.929 . S
H211 C220 0.930 . S
H212 C222 0.930 . S
H213 C225 0.929 . S
H214 C228 0.930 . S
H215 C230 0.960 . S
H216 C230 0.960 . S
H217 C230 0.960 . S
C218 H210 0.929 . S
C218 C219 1.377 . S
C218 C220 1.384 . S
C219 C218 1.377 . S
C219 C225 1.390 . S
C220 H211 0.930 . S
C220 C218 1.384 . S
C220 C221 1.372 . S
C221 C220 1.372 . S
C221 C222 1.400 . S
C221 C226 1.490 . S
C222 H212 0.930 . S
C222 C221 1.400 . S
C222 C225 1.386 . S
H223 C239 0.930 . S
H224 C240 0.931 . S
C225 H213 0.929 . S
C225 C219 1.390 . S
C225 C222 1.386 . S
C226 C221 1.490 . S
C226 C228 1.395 . S
C226 C229 1.403 . S
H227 C233 0.930 . S
C228 H214 0.930 . S
C228 C226 1.395 . S
C228 C231 1.403 . S
C229 C226 1.403 . S
C229 C230 1.524 . S
C229 C233 1.400 . S
C230 H215 0.960 . S
C230 H216 0.960 . S
C230 H217 0.960 . S
C230 C229 1.524 . S
C231 C228 1.403 . S
C231 C232 1.392 . S
C231 C235 1.495 . S
C232 C231 1.392 . S
C232 C233 1.385 . S
C232 C234 1.478 . S
C233 H227 0.930 . S
C233 C229 1.400 . S
C233 C232 1.385 . S
C234 C232 1.478 . S
C234 C236 1.381 . S
C234 C240 1.383 . S
C235 C231 1.495 . S
C235 H241 0.959 . S
C235 H242 0.961 . S
C235 H243 0.960 . S
C236 C234 1.381 . S
C236 C237 1.394 . S
C236 H244 0.930 . S
C237 C236 1.394 . S
C237 C238 1.383 . S
C237 H245 0.929 1_565 S
C238 C237 1.383 . S
C238 C239 1.377 . S
C239 H223 0.930 . S
C239 C238 1.377 . S
C239 C240 1.379 . S
C240 H224 0.931 . S
C240 C234 1.383 . S
C240 C239 1.379 . S
H241 C235 0.959 . S
H242 C235 0.961 . S
H243 C235 0.960 . S
H244 C236 0.930 . S
H245 C237 0.929 1_545 S
H246 C254 0.929 . S
H247 C256 0.930 . S
H248 C258 0.930 . S
H249 C261 0.929 . S
H250 C264 0.930 . S
H251 C266 0.960 . S
H252 C266 0.960 . S
H253 C266 0.960 . S
C254 H246 0.929 . S
C254 C255 1.377 . S
C254 C256 1.384 . S
C255 C254 1.377 . S
C255 C261 1.390 . S
C256 H247 0.930 . S
C256 C254 1.384 . S
C256 C257 1.372 . S
C257 C256 1.372 . S
C257 C258 1.400 . S
C257 C262 1.490 . S
C258 H248 0.930 . S
C258 C257 1.400 . S
C258 C261 1.386 . S
H259 C275 0.930 . S
H260 C276 0.931 . S
C261 H249 0.929 . S
C261 C255 1.390 . S
C261 C258 1.386 . S
C262 C257 1.490 . S
C262 C264 1.395 . S
C262 C265 1.403 . S
H263 C269 0.930 . S
C264 H250 0.930 . S
C264 C262 1.395 . S
C264 C267 1.403 . S
C265 C262 1.403 . S
C265 C266 1.524 . S
C265 C269 1.400 . S
C266 H251 0.960 . S
C266 H252 0.960 . S
C266 H253 0.960 . S
C266 C265 1.524 . S
C267 C264 1.403 . S
C267 C268 1.392 . S
C267 C271 1.495 . S
C268 C267 1.392 . S
C268 C269 1.385 . S
C268 C270 1.478 . S
C269 H263 0.930 . S
C269 C265 1.400 . S
C269 C268 1.385 . S
C270 C268 1.478 . S
C270 C272 1.381 . S
C270 C276 1.383 . S
C271 C267 1.495 . S
C271 H277 0.959 . S
C271 H278 0.961 . S
C271 H279 0.960 . S
C272 C270 1.381 . S
C272 C273 1.394 . S
C272 H280 0.930 . S
C273 C272 1.394 . S
C273 C274 1.383 . S
C273 H281 0.929 . S
C274 C273 1.383 . S
C274 C275 1.377 . S
C275 H259 0.930 . S
C275 C274 1.377 . S
C275 C276 1.379 . S
C276 H260 0.931 . S
C276 C270 1.383 . S
C276 C275 1.379 . S
H277 C271 0.959 . S
H278 C271 0.961 . S
H279 C271 0.960 . S
H280 C272 0.930 . S
H281 C273 0.929 . S
H282 C290 0.929 . S
H283 C292 0.930 . S
H284 C294 0.930 . S
H285 C297 0.929 . S
H286 C300 0.930 . S
H287 C302 0.960 . S
H288 C302 0.960 . S
H289 C302 0.960 . S
C290 H282 0.929 . S
C290 C291 1.377 . S
C290 C292 1.384 . S
C291 C290 1.377 . S
C291 C297 1.390 . S
C292 H283 0.930 . S
C292 C290 1.384 . S
C292 C293 1.372 . S
C293 C292 1.372 . S
C293 C294 1.400 . S
C293 C298 1.490 . S
C294 H284 0.930 . S
C294 C293 1.400 . S
C294 C297 1.386 . S
H295 C311 0.930 . S
H296 C312 0.931 . S
C297 H285 0.929 . S
C297 C291 1.390 . S
C297 C294 1.386 . S
C298 C293 1.490 . S
C298 C300 1.395 . S
C298 C301 1.403 . S
H299 C305 0.930 . S
C300 H286 0.930 . S
C300 C298 1.395 . S
C300 C303 1.403 . S
C301 C298 1.403 . S
C301 C302 1.524 . S
C301 C305 1.400 . S
C302 H287 0.960 . S
C302 H288 0.960 . S
C302 H289 0.960 . S
C302 C301 1.524 . S
C303 C300 1.403 . S
C303 C304 1.392 . S
C303 C307 1.495 . S
C304 C303 1.392 . S
C304 C305 1.385 . S
C304 C306 1.478 . S
C305 H299 0.930 . S
C305 C301 1.400 . S
C305 C304 1.385 . S
C306 C304 1.478 . S
C306 C308 1.381 . S
C306 C312 1.383 . S
C307 C303 1.495 . S
C307 H313 0.959 . S
C307 H314 0.961 . S
C307 H315 0.960 . S
C308 C306 1.381 . S
C308 C309 1.394 . S
C308 H316 0.930 . S
C309 C308 1.394 . S
C309 C310 1.383 . S
C309 H317 0.929 . S
C310 C309 1.383 . S
C310 C311 1.377 . S
C311 H295 0.930 . S
C311 C310 1.377 . S
C311 C312 1.379 . S
C312 H296 0.931 . S
C312 C306 1.383 . S
C312 C311 1.379 . S
H313 C307 0.959 . S
H314 C307 0.961 . S
H315 C307 0.960 . S
H316 C308 0.930 . S
H317 C309 0.929 . S
H318 C326 0.929 . S
H319 C328 0.930 . S
H320 C330 0.930 . S
H321 C333 0.929 . S
H322 C336 0.930 . S
H323 C338 0.960 . S
H324 C338 0.960 . S
H325 C338 0.960 . S
C326 H318 0.929 . S
C326 C327 1.377 . S
C326 C328 1.384 . S
C327 C326 1.377 . S
C327 C333 1.390 . S
C328 H319 0.930 . S
C328 C326 1.384 . S
C328 C329 1.372 . S
C329 C328 1.372 . S
C329 C330 1.400 . S
C329 C334 1.490 . S
C330 H320 0.930 . S
C330 C329 1.400 . S
C330 C333 1.386 . S
H331 C347 0.930 . S
H332 C348 0.931 . S
C333 H321 0.929 . S
C333 C327 1.390 . S
C333 C330 1.386 . S
C334 C329 1.490 . S
C334 C336 1.395 . S
C334 C337 1.403 . S
H335 C341 0.930 . S
C336 H322 0.930 . S
C336 C334 1.395 . S
C336 C339 1.403 . S
C337 C334 1.403 . S
C337 C338 1.524 . S
C337 C341 1.400 . S
C338 H323 0.960 . S
C338 H324 0.960 . S
C338 H325 0.960 . S
C338 C337 1.524 . S
C339 C336 1.403 . S
C339 C340 1.392 . S
C339 C343 1.495 . S
C340 C339 1.392 . S
C340 C341 1.385 . S
C340 C342 1.478 . S
C341 H335 0.930 . S
C341 C337 1.400 . S
C341 C340 1.385 . S
C342 C340 1.478 . S
C342 C344 1.381 . S
C342 C348 1.383 . S
C343 C339 1.495 . S
C343 H349 0.959 . S
C343 H350 0.961 . S
C343 H351 0.960 . S
C344 C342 1.381 . S
C344 C345 1.394 . S
C344 H352 0.930 . S
C345 C344 1.394 . S
C345 C346 1.383 . S
C345 H353 0.929 . S
C346 C345 1.383 . S
C346 C347 1.377 . S
C347 H331 0.930 . S
C347 C346 1.377 . S
C347 C348 1.379 . S
C348 H332 0.931 . S
C348 C342 1.383 . S
C348 C347 1.379 . S
H349 C343 0.959 . S
H350 C343 0.961 . S
H351 C343 0.960 . S
H352 C344 0.930 . S
H353 C345 0.929 . S
H354 C362 0.929 . S
H355 C364 0.930 . S
H356 C366 0.930 . S
H357 C369 0.929 . S
H358 C372 0.930 . S
H359 C374 0.960 . S
H360 C374 0.960 . S
H361 C374 0.960 . S
C362 H354 0.929 . S
C362 C363 1.377 . S
C362 C364 1.384 . S
C363 C362 1.377 . S
C363 C369 1.390 . S
C364 H355 0.930 . S
C364 C362 1.384 . S
C364 C365 1.372 . S
C365 C364 1.372 . S
C365 C366 1.400 . S
C365 C370 1.490 . S
C366 H356 0.930 . S
C366 C365 1.400 . S
C366 C369 1.386 . S
H367 C383 0.930 . S
H368 C384 0.931 . S
C369 H357 0.929 . S
C369 C363 1.390 . S
C369 C366 1.386 . S
C370 C365 1.490 . S
C370 C372 1.395 . S
C370 C373 1.403 . S
H371 C377 0.930 . S
C372 H358 0.930 . S
C372 C370 1.395 . S
C372 C375 1.403 . S
C373 C370 1.403 . S
C373 C374 1.524 . S
C373 C377 1.400 . S
C374 H359 0.960 . S
C374 H360 0.960 . S
C374 H361 0.960 . S
C374 C373 1.524 . S
C375 C372 1.403 . S
C375 C376 1.392 . S
C375 C379 1.495 . S
C376 C375 1.392 . S
C376 C377 1.385 . S
C376 C378 1.478 . S
C377 H371 0.930 . S
C377 C373 1.400 . S
C377 C376 1.385 . S
C378 C376 1.478 . S
C378 C380 1.381 . S
C378 C384 1.383 . S
C379 C375 1.495 . S
C379 H385 0.959 . S
C379 H386 0.961 . S
C379 H387 0.960 . S
C380 C378 1.381 . S
C380 C381 1.394 . S
C380 H388 0.930 . S
C381 C380 1.394 . S
C381 C382 1.383 . S
C381 H389 0.929 . S
C382 C381 1.383 . S
C382 C383 1.377 . S
C383 H367 0.930 . S
C383 C382 1.377 . S
C383 C384 1.379 . S
C384 H368 0.931 . S
C384 C378 1.383 . S
C384 C383 1.379 . S
H385 C379 0.959 . S
H386 C379 0.961 . S
H387 C379 0.960 . S
H388 C380 0.930 . S
H389 C381 0.929 . S
H390 C398 0.929 . S
H391 C400 0.930 . S
H392 C402 0.930 . S
H393 C405 0.929 . S
H394 C408 0.930 . S
H395 C410 0.960 . S
H396 C410 0.960 . S
H397 C410 0.960 . S
C398 H390 0.929 . S
C398 C399 1.377 . S
C398 C400 1.384 . S
C399 C398 1.377 . S
C399 C405 1.390 . S
C400 H391 0.930 . S
C400 C398 1.384 . S
C400 C401 1.372 . S
C401 C400 1.372 . S
C401 C402 1.400 . S
C401 C406 1.490 . S
C402 H392 0.930 . S
C402 C401 1.400 . S
C402 C405 1.386 . S
H403 C419 0.930 1_455 S
H404 C420 0.931 . S
C405 H393 0.929 . S
C405 C399 1.390 . S
C405 C402 1.386 . S
C406 C401 1.490 . S
C406 C408 1.395 . S
C406 C409 1.403 . S
H407 C413 0.930 . S
C408 H394 0.930 . S
C408 C406 1.395 . S
C408 C411 1.403 . S
C409 C406 1.403 . S
C409 C410 1.524 . S
C409 C413 1.400 . S
C410 H395 0.960 . S
C410 H396 0.960 . S
C410 H397 0.960 . S
C410 C409 1.524 . S
C411 C408 1.403 . S
C411 C412 1.392 . S
C411 C415 1.495 . S
C412 C411 1.392 . S
C412 C413 1.385 . S
C412 C414 1.478 . S
C413 H407 0.930 . S
C413 C409 1.400 . S
C413 C412 1.385 . S
C414 C412 1.478 . S
C414 C416 1.381 . S
C414 C420 1.383 . S
C415 C411 1.495 . S
C415 H421 0.959 . S
C415 H422 0.961 . S
C415 H423 0.960 . S
C416 C414 1.381 . S
C416 C417 1.394 . S
C416 H424 0.930 . S
C417 C416 1.394 . S
C417 C418 1.383 . S
C417 H425 0.929 . S
C418 C417 1.383 . S
C418 C419 1.377 . S
C419 H403 0.930 1_655 S
C419 C418 1.377 . S
C419 C420 1.379 . S
C420 H404 0.931 . S
C420 C414 1.383 . S
C420 C419 1.379 . S
H421 C415 0.959 . S
H422 C415 0.961 . S
H423 C415 0.960 . S
H424 C416 0.930 . S
H425 C417 0.929 . S
H426 C434 0.929 . S
H427 C436 0.930 . S
H428 C438 0.930 . S
H429 C441 0.929 . S
H430 C444 0.930 . S
H431 C446 0.960 . S
H432 C446 0.960 . S
H433 C446 0.960 . S
C434 H426 0.929 . S
C434 C435 1.377 . S
C434 C436 1.384 . S
C435 C434 1.377 . S
C435 C441 1.390 . S
C436 H427 0.930 . S
C436 C434 1.384 . S
C436 C437 1.372 . S
C437 C436 1.372 . S
C437 C438 1.400 . S
C437 C442 1.490 . S
C438 H428 0.930 . S
C438 C437 1.400 . S
C438 C441 1.386 . S
H439 C455 0.930 . S
H440 C456 0.931 . S
C441 H429 0.929 . S
C441 C435 1.390 . S
C441 C438 1.386 . S
C442 C437 1.490 . S
C442 C444 1.395 . S
C442 C445 1.403 . S
H443 C449 0.930 . S
C444 H430 0.930 . S
C444 C442 1.395 . S
C444 C447 1.403 . S
C445 C442 1.403 . S
C445 C446 1.524 . S
C445 C449 1.400 . S
C446 H431 0.960 . S
C446 H432 0.960 . S
C446 H433 0.960 . S
C446 C445 1.524 . S
C447 C444 1.403 . S
C447 C448 1.392 . S
C447 C451 1.495 . S
C448 C447 1.392 . S
C448 C449 1.385 . S
C448 C450 1.478 . S
C449 H443 0.930 . S
C449 C445 1.400 . S
C449 C448 1.385 . S
C450 C448 1.478 . S
C450 C452 1.381 . S
C450 C456 1.383 . S
C451 C447 1.495 . S
C451 H457 0.959 . S
C451 H458 0.961 . S
C451 H459 0.960 . S
C452 C450 1.381 . S
C452 C453 1.394 . S
C452 H460 0.930 . S
C453 C452 1.394 . S
C453 C454 1.383 . S
C453 H461 0.929 . S
C454 C453 1.383 . S
C454 C455 1.377 . S
C455 H439 0.930 . S
C455 C454 1.377 . S
C455 C456 1.379 . S
C456 H440 0.931 . S
C456 C450 1.383 . S
C456 C455 1.379 . S
H457 C451 0.959 . S
H458 C451 0.961 . S
H459 C451 0.960 . S
H460 C452 0.930 . S
H461 C453 0.929 . S
H462 C470 0.929 . S
H463 C472 0.930 . S
H464 C474 0.930 . S
H465 C477 0.929 . S
H466 C480 0.930 . S
H467 C482 0.960 . S
H468 C482 0.960 . S
H469 C482 0.960 . S
C470 H462 0.929 . S
C470 C471 1.377 . S
C470 C472 1.384 . S
C471 C470 1.377 . S
C471 C477 1.390 . S
C472 H463 0.930 . S
C472 C470 1.384 . S
C472 C473 1.372 . S
C473 C472 1.372 . S
C473 C474 1.400 . S
C473 C478 1.490 . S
C474 H464 0.930 . S
C474 C473 1.400 . S
C474 C477 1.386 . S
H475 C491 0.930 . S
H476 C492 0.931 . S
C477 H465 0.929 . S
C477 C471 1.390 . S
C477 C474 1.386 . S
C478 C473 1.490 . S
C478 C480 1.395 . S
C478 C481 1.403 . S
H479 C485 0.930 . S
C480 H466 0.930 . S
C480 C478 1.395 . S
C480 C483 1.403 . S
C481 C478 1.403 . S
C481 C482 1.524 . S
C481 C485 1.400 . S
C482 H467 0.960 . S
C482 H468 0.960 . S
C482 H469 0.960 . S
C482 C481 1.524 . S
C483 C480 1.403 . S
C483 C484 1.392 . S
C483 C487 1.495 . S
C484 C483 1.392 . S
C484 C485 1.385 . S
C484 C486 1.478 . S
C485 H479 0.930 . S
C485 C481 1.400 . S
C485 C484 1.385 . S
C486 C484 1.478 . S
C486 C488 1.381 . S
C486 C492 1.383 . S
C487 C483 1.495 . S
C487 H493 0.959 . S
C487 H494 0.961 . S
C487 H495 0.960 . S
C488 C486 1.381 . S
C488 C489 1.394 . S
C488 H496 0.930 . S
C489 C488 1.394 . S
C489 C490 1.383 . S
C489 H497 0.929 . S
C490 C489 1.383 . S
C490 C491 1.377 . S
C491 H475 0.930 . S
C491 C490 1.377 . S
C491 C492 1.379 . S
C492 H476 0.931 . S
C492 C486 1.383 . S
C492 C491 1.379 . S
H493 C487 0.959 . S
H494 C487 0.961 . S
H495 C487 0.960 . S
H496 C488 0.930 . S
H497 C489 0.929 . S
H498 C506 0.929 . S
H499 C508 0.930 . S
H500 C510 0.930 . S
H501 C513 0.929 . S
H502 C516 0.930 . S
H503 C518 0.960 . S
H504 C518 0.960 . S
H505 C518 0.960 . S
C506 H498 0.929 . S
C506 C507 1.377 . S
C506 C508 1.384 . S
C507 C506 1.377 . S
C507 C513 1.390 . S
C508 H499 0.930 . S
C508 C506 1.384 . S
C508 C509 1.372 . S
C509 C508 1.372 . S
C509 C510 1.400 . S
C509 C514 1.490 . S
C510 H500 0.930 . S
C510 C509 1.400 . S
C510 C513 1.386 . S
H511 C527 0.930 . S
H512 C528 0.931 . S
C513 H501 0.929 . S
C513 C507 1.390 . S
C513 C510 1.386 . S
C514 C509 1.490 . S
C514 C516 1.395 . S
C514 C517 1.403 . S
H515 C521 0.930 . S
C516 H502 0.930 . S
C516 C514 1.395 . S
C516 C519 1.403 . S
C517 C514 1.403 . S
C517 C518 1.524 . S
C517 C521 1.400 . S
C518 H503 0.960 . S
C518 H504 0.960 . S
C518 H505 0.960 . S
C518 C517 1.524 . S
C519 C516 1.403 . S
C519 C520 1.392 . S
C519 C523 1.495 . S
C520 C519 1.392 . S
C520 C521 1.385 . S
C520 C522 1.478 . S
C521 H515 0.930 . S
C521 C517 1.400 . S
C521 C520 1.385 . S
C522 C520 1.478 . S
C522 C524 1.381 . S
C522 C528 1.383 . S
C523 C519 1.495 . S
C523 H529 0.959 . S
C523 H530 0.961 . S
C523 H531 0.960 . S
C524 C522 1.381 . S
C524 C525 1.394 . S
C524 H532 0.930 . S
C525 C524 1.394 . S
C525 C526 1.383 . S
C525 H533 0.929 . S
C526 C525 1.383 . S
C526 C527 1.377 . S
C527 H511 0.930 . S
C527 C526 1.377 . S
C527 C528 1.379 . S
C528 H512 0.931 . S
C528 C522 1.383 . S
C528 C527 1.379 . S
H529 C523 0.959 . S
H530 C523 0.961 . S
H531 C523 0.960 . S
H532 C524 0.930 . S
H533 C525 0.929 . S
H534 C542 0.929 . S
H535 C544 0.930 . S
H536 C546 0.930 . S
H537 C549 0.929 . S
H538 C552 0.930 . S
H539 C554 0.960 . S
H540 C554 0.960 . S
H541 C554 0.960 . S
C542 H534 0.929 . S
C542 C543 1.377 . S
C542 C544 1.384 . S
C543 C542 1.377 . S
C543 C549 1.390 . S
C544 H535 0.930 . S
C544 C542 1.384 . S
C544 C545 1.372 . S
C545 C544 1.372 . S
C545 C546 1.400 . S
C545 C550 1.490 . S
C546 H536 0.930 . S
C546 C545 1.400 . S
C546 C549 1.386 . S
H547 C563 0.930 . S
H548 C564 0.931 . S
C549 H537 0.929 . S
C549 C543 1.390 . S
C549 C546 1.386 . S
C550 C545 1.490 . S
C550 C552 1.395 . S
C550 C553 1.403 . S
H551 C557 0.930 . S
C552 H538 0.930 . S
C552 C550 1.395 . S
C552 C555 1.403 . S
C553 C550 1.403 . S
C553 C554 1.524 . S
C553 C557 1.400 . S
C554 H539 0.960 . S
C554 H540 0.960 . S
C554 H541 0.960 . S
C554 C553 1.524 . S
C555 C552 1.403 . S
C555 C556 1.392 . S
C555 C559 1.495 . S
C556 C555 1.392 . S
C556 C557 1.385 . S
C556 C558 1.478 . S
C557 H551 0.930 . S
C557 C553 1.400 . S
C557 C556 1.385 . S
C558 C556 1.478 . S
C558 C560 1.381 . S
C558 C564 1.383 . S
C559 C555 1.495 . S
C559 H565 0.959 . S
C559 H566 0.961 . S
C559 H567 0.960 . S
C560 C558 1.381 . S
C560 C561 1.394 . S
C560 H568 0.930 . S
C561 C560 1.394 . S
C561 C562 1.383 . S
C561 H569 0.929 . S
C562 C561 1.383 . S
C562 C563 1.377 . S
C563 H547 0.930 . S
C563 C562 1.377 . S
C563 C564 1.379 . S
C564 H548 0.931 . S
C564 C558 1.383 . S
C564 C563 1.379 . S
H565 C559 0.959 . S
H566 C559 0.961 . S
H567 C559 0.960 . S
H568 C560 0.930 . S
H569 C561 0.929 . S
H570 C578 0.929 . S
H571 C580 0.930 . S
H572 C582 0.930 1_655 S
H573 C585 0.905 1_655 S
H574 C588 0.930 . S
H575 C590 0.960 . S
H576 C590 0.960 . S
H577 C590 0.960 . S
C578 H570 0.929 . S
C578 C579 1.377 . S
C578 C580 1.384 . S
C579 C578 1.377 . S
C579 C585 1.413 . S
C580 H571 0.930 . S
C580 C578 1.384 . S
C580 C581 1.372 . S
C581 C580 1.372 . S
C581 C582 1.400 . S
C581 C586 1.490 . S
C582 H572 0.930 1_455 S
C582 C581 1.400 . S
C582 C585 1.387 . S
H583 C599 0.930 . S
H584 C600 0.935 . S
C585 H573 0.905 1_455 S
C585 C579 1.413 . S
C585 C582 1.387 . S
C586 C581 1.490 . S
C586 C588 1.395 . S
C586 C589 1.403 . S
H587 C593 0.930 . S
C588 H574 0.930 . S
C588 C586 1.395 . S
C588 C591 1.403 1_554 S
C589 C586 1.403 . S
C589 C590 1.524 . S
C589 C593 1.400 1_554 S
C590 H575 0.960 . S
C590 H576 0.960 . S
C590 H577 0.960 . S
C590 C589 1.524 . S
C591 C588 1.403 1_556 S
C591 C592 1.392 . S
C591 C595 1.495 . S
C592 C591 1.392 . S
C592 C593 1.385 . S
C592 C594 1.478 . S
C593 H587 0.930 . S
C593 C589 1.400 1_556 S
C593 C592 1.385 . S
C594 C592 1.478 . S
C594 C596 1.381 . S
C594 C600 1.383 . S
C595 C591 1.495 . S
C595 H601 0.959 . S
C595 H602 0.961 1_455 S
C595 H603 0.960 . S
C596 C594 1.381 . S
C596 C597 1.394 . S
C596 H604 0.930 . S
C597 C596 1.394 . S
C597 C598 1.383 . S
C597 H605 0.929 . S
C598 C597 1.383 . S
C598 C599 1.377 . S
C599 H583 0.930 . S
C599 C598 1.377 . S
C599 C600 1.379 . S
C600 H584 0.935 . S
C600 C594 1.383 . S
C600 C599 1.379 . S
H601 C595 0.959 . S
H602 C595 0.961 1_655 S
H603 C595 0.960 . S
H604 C596 0.930 . S
H605 C597 0.929 . S
H606 C614 0.929 . S
H607 C616 0.930 . S
H608 C618 0.930 . S
H609 C621 0.929 . S
H610 C624 0.930 . S
H611 C626 0.960 . S
H612 C626 0.960 . S
H613 C626 0.960 . S
C614 H606 0.929 . S
C614 C615 1.377 . S
C614 C616 1.384 . S
C615 C614 1.377 . S
C615 C621 1.390 . S
C616 H607 0.930 . S
C616 C614 1.384 . S
C616 C617 1.372 . S
C617 C616 1.372 . S
C617 C618 1.400 . S
C617 C622 1.490 . S
C618 H608 0.930 . S
C618 C617 1.400 . S
C618 C621 1.386 . S
H619 C635 0.930 . S
H620 C636 0.931 . S
C621 H609 0.929 . S
C621 C615 1.390 . S
C621 C618 1.386 . S
C622 C617 1.490 . S
C622 C624 1.395 . S
C622 C625 1.403 1_545 S
H623 C629 0.930 . S
C624 H610 0.930 . S
C624 C622 1.395 . S
C624 C627 1.403 . S
C625 C622 1.403 1_565 S
C625 C626 1.524 . S
C625 C629 1.400 . S
C626 H611 0.960 . S
C626 H612 0.960 . S
C626 H613 0.960 . S
C626 C625 1.524 . S
C627 C624 1.403 . S
C627 C628 1.392 . S
C627 C631 1.495 . S
C628 C627 1.392 . S
C628 C629 1.385 1_545 S
C628 C630 1.478 . S
C629 H623 0.930 . S
C629 C625 1.400 . S
C629 C628 1.385 1_565 S
C630 C628 1.478 . S
C630 C632 1.381 . S
C630 C636 1.383 . S
C631 C627 1.495 . S
C631 H637 0.959 . S
C631 H638 0.961 . S
C631 H639 0.960 . S
C632 C630 1.381 . S
C632 C633 1.394 . S
C632 H640 0.930 . S
C633 C632 1.394 . S
C633 C634 1.383 . S
C633 H641 0.929 . S
C634 C633 1.383 . S
C634 C635 1.377 . S
C635 H619 0.930 . S
C635 C634 1.377 . S
C635 C636 1.379 . S
C636 H620 0.931 . S
C636 C630 1.383 . S
C636 C635 1.379 . S
H637 C631 0.959 . S
H638 C631 0.961 . S
H639 C631 0.960 . S
H640 C632 0.930 . S
H641 C633 0.929 . S
H642 C650 0.929 . S
H643 C652 0.930 . S
H644 C654 0.930 . S
H645 C657 0.929 . S
H646 C660 0.930 . S
H647 C662 0.960 . S
H648 C662 0.960 . S
H649 C662 0.960 . S
C650 H642 0.929 . S
C650 C651 1.377 . S
C650 C652 1.384 . S
C651 C650 1.377 . S
C651 C657 1.390 . S
C652 H643 0.930 . S
C652 C650 1.384 . S
C652 C653 1.372 . S
C653 C652 1.372 . S
C653 C654 1.400 . S
C653 C658 1.490 . S
C654 H644 0.930 . S
C654 C653 1.400 . S
C654 C657 1.386 . S
H655 C671 0.930 . S
H656 C672 0.931 . S
C657 H645 0.929 . S
C657 C651 1.390 . S
C657 C654 1.386 . S
C658 C653 1.490 . S
C658 C660 1.395 . S
C658 C661 1.403 . S
H659 C665 0.930 . S
C660 H646 0.930 . S
C660 C658 1.395 . S
C660 C663 1.403 . S
C661 C658 1.403 . S
C661 C662 1.524 . S
C661 C665 1.400 . S
C662 H647 0.960 . S
C662 H648 0.960 . S
C662 H649 0.960 . S
C662 C661 1.524 . S
C663 C660 1.403 . S
C663 C664 1.392 . S
C663 C667 1.495 . S
C664 C663 1.392 . S
C664 C665 1.385 . S
C664 C666 1.478 . S
C665 H659 0.930 . S
C665 C661 1.400 . S
C665 C664 1.385 . S
C666 C664 1.478 . S
C666 C668 1.381 . S
C666 C672 1.383 . S
C667 C663 1.495 . S
C667 H673 0.959 . S
C667 H674 0.961 . S
C667 H675 0.960 . S
C668 C666 1.381 . S
C668 C669 1.394 . S
C668 H676 0.930 . S
C669 C668 1.394 . S
C669 C670 1.383 . S
C669 H677 0.929 . S
C670 C669 1.383 . S
C670 C671 1.377 . S
C671 H655 0.930 . S
C671 C670 1.377 . S
C671 C672 1.379 . S
C672 H656 0.931 . S
C672 C666 1.383 . S
C672 C671 1.379 . S
H673 C667 0.959 . S
H674 C667 0.961 . S
H675 C667 0.960 . S
H676 C668 0.930 . S
H677 C669 0.929 . S
H678 C686 0.929 . S
H679 C688 0.930 . S
H680 C690 0.930 . S
H681 C693 0.929 . S
H682 C696 0.930 . S
H683 C698 0.960 . S
H684 C698 0.960 . S
H685 C698 0.960 . S
C686 H678 0.929 . S
C686 C687 1.377 . S
C686 C688 1.384 . S
C687 C686 1.377 . S
C687 C693 1.390 1_545 S
C688 H679 0.930 . S
C688 C686 1.384 . S
C688 C689 1.372 . S
C689 C688 1.372 . S
C689 C690 1.400 1_545 S
C689 C694 1.490 . S
C690 H680 0.930 . S
C690 C689 1.400 1_565 S
C690 C693 1.386 . S
H691 C707 0.930 1_565 S
H692 C708 0.944 . S
C693 H681 0.929 . S
C693 C687 1.390 1_565 S
C693 C690 1.386 . S
C694 C689 1.490 . S
C694 C696 1.395 . S
C694 C697 1.403 . S
H695 C701 0.930 . S
C696 H682 0.930 . S
C696 C694 1.395 . S
C696 C699 1.403 . S
C697 C694 1.403 . S
C697 C698 1.524 . S
C697 C701 1.400 . S
C698 H683 0.960 . S
C698 H684 0.960 . S
C698 H685 0.960 . S
C698 C697 1.524 . S
C699 C696 1.403 . S
C699 C700 1.392 . S
C699 C703 1.495 . S
C700 C699 1.392 . S
C700 C701 1.385 . S
C700 C702 1.478 . S
C701 H695 0.930 . S
C701 C697 1.400 . S
C701 C700 1.385 . S
C702 C700 1.478 . S
C702 C704 1.381 . S
C702 C708 1.370 1_545 S
C703 C699 1.495 . S
C703 H709 0.959 . S
C703 H710 0.961 . S
C703 H711 0.960 . S
C704 C702 1.381 . S
C704 C705 1.394 . S
C704 H712 0.930 . S
C705 C704 1.394 . S
C705 C706 1.383 . S
C705 H713 0.929 . S
C706 C705 1.383 . S
C706 C707 1.377 . S
C707 H691 0.930 1_545 S
C707 C706 1.377 . S
C707 C708 1.379 1_545 S
C708 H692 0.944 . S
C708 C702 1.370 1_565 S
C708 C707 1.379 1_565 S
H709 C703 0.959 . S
H710 C703 0.961 . S
H711 C703 0.960 . S
H712 C704 0.930 . S
H713 C705 0.929 . S
H714 C722 0.929 . S
H715 C724 0.930 . S
H716 C726 0.930 . S
H717 C729 0.929 . S
H718 C732 0.930 . S
H719 C734 0.960 . S
H720 C734 0.960 . S
H721 C734 0.960 . S
C722 H714 0.929 . S
C722 C723 1.377 . S
C722 C724 1.384 . S
C723 C722 1.377 . S
C723 C729 1.390 . S
C724 H715 0.930 . S
C724 C722 1.384 . S
C724 C725 1.372 . S
C725 C724 1.372 . S
C725 C726 1.400 . S
C725 C730 1.490 . S
C726 H716 0.930 . S
C726 C725 1.400 . S
C726 C729 1.386 . S
H727 C743 0.930 . S
H728 C744 0.931 . S
C729 H717 0.929 . S
C729 C723 1.390 . S
C729 C726 1.386 . S
C730 C725 1.490 . S
C730 C732 1.395 . S
C730 C733 1.403 . S
H731 C737 0.930 . S
C732 H718 0.930 . S
C732 C730 1.395 . S
C732 C735 1.378 1_556 S
C733 C730 1.403 . S
C733 C734 1.524 . S
C733 C737 1.400 1_556 S
C734 H719 0.960 . S
C734 H720 0.960 . S
C734 H721 0.960 . S
C734 C733 1.524 . S
C735 C732 1.378 1_554 S
C735 C736 1.408 . S
C735 C739 1.504 . S
C736 C735 1.408 . S
C736 C737 1.385 . S
C736 C738 1.478 . S
C737 H731 0.930 . S
C737 C733 1.400 1_554 S
C737 C736 1.385 . S
C738 C736 1.478 . S
C738 C740 1.381 . S
C738 C744 1.383 . S
C739 C735 1.504 . S
C739 H745 0.959 1_554 S
C739 H746 0.961 . S
C739 H747 0.960 . S
C740 C738 1.381 . S
C740 C741 1.394 . S
C740 H748 0.930 . S
C741 C740 1.394 . S
C741 C742 1.383 . S
C741 H749 0.929 . S
C742 C741 1.383 . S
C742 C743 1.377 . S
C743 H727 0.930 . S
C743 C742 1.377 . S
C743 C744 1.379 . S
C744 H728 0.931 . S
C744 C738 1.383 . S
C744 C743 1.379 . S
H745 C739 0.959 1_556 S
H746 C739 0.961 . S
H747 C739 0.960 . S
H748 C740 0.930 . S
H749 C741 0.929 . S
H750 C758 0.929 . S
H751 C760 0.930 . S
H752 C762 0.930 . S
H753 C765 0.929 . S
H754 C768 0.930 . S
H755 C770 0.960 . S
H756 C770 0.960 . S
H757 C770 0.960 . S
C758 H750 0.929 . S
C758 C759 1.377 1_455 S
C758 C760 1.384 . S
C759 C758 1.377 1_655 S
C759 C765 1.390 . S
C760 H751 0.930 . S
C760 C758 1.384 . S
C760 C761 1.372 1_455 S
C761 C760 1.372 1_655 S
C761 C762 1.400 . S
C761 C766 1.490 1_655 S
C762 H752 0.930 . S
C762 C761 1.400 . S
C762 C765 1.386 . S
H763 C779 0.930 . S
H764 C780 0.931 . S
C765 H753 0.929 . S
C765 C759 1.390 . S
C765 C762 1.386 . S
C766 C761 1.490 1_455 S
C766 C768 1.395 . S
C766 C769 1.403 1_455 S
H767 C773 0.930 . S
C768 H754 0.930 . S
C768 C766 1.395 . S
C768 C771 1.403 . S
C769 C766 1.403 1_655 S
C769 C770 1.524 . S
C769 C773 1.400 . S
C770 H755 0.960 . S
C770 H756 0.960 . S
C770 H757 0.960 . S
C770 C769 1.524 . S
C771 C768 1.403 . S
C771 C772 1.392 . S
C771 C775 1.495 . S
C772 C771 1.392 . S
C772 C773 1.385 1_455 S
C772 C774 1.478 . S
C773 H767 0.930 . S
C773 C769 1.400 . S
C773 C772 1.385 1_655 S
C774 C772 1.478 . S
C774 C776 1.381 . S
C774 C780 1.383 1_455 S
C775 C771 1.495 . S
C775 H781 0.959 . S
C775 H782 0.961 . S
C775 H783 0.960 . S
C776 C774 1.381 . S
C776 C777 1.394 . S
C776 H784 0.930 . S
C777 C776 1.394 . S
C777 C778 1.383 . S
C777 H785 0.929 . S
C778 C777 1.383 . S
C778 C779 1.377 1_455 S
C779 H763 0.930 . S
C779 C778 1.377 1_655 S
C779 C780 1.379 . S
C780 H764 0.931 . S
C780 C774 1.383 1_655 S
C780 C779 1.379 . S
H781 C775 0.959 . S
H782 C775 0.961 . S
H783 C775 0.960 . S
H784 C776 0.930 . S
H785 C777 0.929 . S
C147 C8 1.635 . S
C166 N127 1.677 . S
C183 C26 1.227 . S
C202 N100 1.210 1_655 S
C219 C48 1.392 . S
C238 N113 1.444 1_565 S
C255 C19 1.986 . S
C274 N126 2.115 . S
C310 N101 1.542 . S
C291 C36 1.512 . S
C346 N114 1.700 . S
C327 C59 1.603 . S
C363 C28 1.410 . S
C382 N74 1.451 . S
C399 C46 0.853 . S
C418 N88 0.878 1_655 S
C435 C16 1.516 . S
C454 N62 1.544 . S
C490 N75 1.688 . S
C471 C39 1.599 . S
C526 N87 1.329 . S
C507 C56 1.278 . S
C543 C6 1.262 . S
C562 N61 1.245 . S
C598 N91 1.525 . S
C579 C9 1.529 . S
C615 C21 1.529 . S
C634 N65 1.546 . S
C651 C49 1.552 . S
C670 N78 1.558 . S
C706 N117 1.532 . S
C687 C29 1.525 . S
C742 N130 1.576 . S
C723 C41 1.615 . S
C759 C1 1.573 . S
C778 N104 1.567 . S
