# Generated by pormake.
# Topology anh, (6,3)-cn, num edge types: 1
# Building blocks:
#     Node 0, Type 0, BuildingBlock: MIFKUJ_clean_sbu_0, # of connection points: 6
#     Node 1, Type 0, BuildingBlock: MIFKUJ_clean_sbu_0, # of connection points: 6
#     Node 2, Type 0, BuildingBlock: MIFKUJ_clean_sbu_0, # of connection points: 6
#     Node 3, Type 1, BuildingBlock: BETDIP_clean_linker_0, # of connection points: 3
#     Node 4, Type 1, BuildingBlock: BETDIP_clean_linker_0, # of connection points: 3
#     Node 5, Type 1, BuildingBlock: BETDIP_clean_linker_0, # of connection points: 3
#     Node 6, Type 1, BuildingBlock: BETDIP_clean_linker_0, # of connection points: 3
#     Node 7, Type 1, BuildingBlock: BETDIP_clean_linker_0, # of connection points: 3
#     Node 8, Type 1, BuildingBlock: BETDIP_clean_linker_0, # of connection points: 3
#     Edge 9, Type (0, 1), BuildingBlock: KIFKEQ_clean_linker_1, # of connection points: 2
#     Edge 10, Type (0, 1), BuildingBlock: KIFKEQ_clean_linker_1, # of connection points: 2
#     Edge 11, Type (0, 1), BuildingBlock: KIFKEQ_clean_linker_1, # of connection points: 2
#     Edge 12, Type (0, 1), BuildingBlock: KIFKEQ_clean_linker_1, # of connection points: 2
#     Edge 13, Type (0, 1), BuildingBlock: KIFKEQ_clean_linker_1, # of connection points: 2
#     Edge 14, Type (0, 1), BuildingBlock: KIFKEQ_clean_linker_1, # of connection points: 2
#     Edge 15, Type (0, 1), BuildingBlock: KIFKEQ_clean_linker_1, # of connection points: 2
#     Edge 16, Type (0, 1), BuildingBlock: KIFKEQ_clean_linker_1, # of connection points: 2
#     Edge 17, Type (0, 1), BuildingBlock: KIFKEQ_clean_linker_1, # of connection points: 2
#     Edge 18, Type (0, 1), BuildingBlock: KIFKEQ_clean_linker_1, # of connection points: 2
#     Edge 19, Type (0, 1), BuildingBlock: KIFKEQ_clean_linker_1, # of connection points: 2
#     Edge 20, Type (0, 1), BuildingBlock: KIFKEQ_clean_linker_1, # of connection points: 2
#     Edge 21, Type (0, 1), BuildingBlock: KIFKEQ_clean_linker_1, # of connection points: 2
#     Edge 22, Type (0, 1), BuildingBlock: KIFKEQ_clean_linker_1, # of connection points: 2
#     Edge 23, Type (0, 1), BuildingBlock: KIFKEQ_clean_linker_1, # of connection points: 2
#     Edge 24, Type (0, 1), BuildingBlock: KIFKEQ_clean_linker_1, # of connection points: 2
#     Edge 25, Type (0, 1), BuildingBlock: KIFKEQ_clean_linker_1, # of connection points: 2
#     Edge 26, Type (0, 1), BuildingBlock: KIFKEQ_clean_linker_1, # of connection points: 2
# Relax obj value: 0.084
# Max RMSD: 0.184
# Mean RMSD: 0.117
data_MOF--net-anh--node1-MIFKUJ_clean_sbu_0--node2-BETDIP_clean_linker_0--edge1-KIFKEQ_clean_linker_1
_symmetry_space_group_name_H-M    P1
_symmetry_Int_Tables_number       1
_symmetry_cell_setting            triclinic
loop_
_symmetry_equiv_pos_as_xyz
'x, y, z'
_cell_length_a     32.764946
_cell_length_b     32.328294
_cell_length_c     48.323626
_cell_angle_alpha  97.053521
_cell_angle_beta   90.288101
_cell_angle_gamma 121.11741
loop_
_atom_site_label
_atom_site_type_symbol
_atom_site_fract_x
_atom_site_fract_y
_atom_site_fract_z
_atom_type_partial_charge
Zn0 Zn 0.08116 0.64035 0.16187 0.0
Zn1 Zn 0.93185 0.54618 0.15535 0.0
C2 C 0.14988 0.61552 0.175 0.0
O3 O 0.15115 0.63897 0.19952 0.0
C4 C 0.86584 0.58282 0.15513 0.0
O5 O 0.89865 0.61878 0.14309 0.0
O6 O 0.12971 0.71246 0.16675 0.0
O7 O 0.03829 0.62283 0.12731 0.0
O8 O 0.95926 0.57513 0.12047 0.0
C9 C 0.15576 0.73067 0.14696 0.0
O10 O 0.14781 0.70251 0.12303 0.0
O11 O 0.12037 0.60923 0.15536 0.0
C12 C 0.88929 0.45075 0.16901 0.0
O13 O 0.8966 0.47629 0.19379 0.0
O14 O 0.9043 0.47328 0.14803 0.0
O15 O 0.97312 0.57408 0.19169 0.0
O16 O 0.05169 0.62475 0.19817 0.0
O17 O 0.87367 0.55065 0.1619 0.0
C18 C -0.00027 0.60312 0.1117 0.0
C19 C 0.01132 0.59951 0.20773 0.0
Zn20 Zn 0.51875 0.05754 0.4924 0.0
Zn21 Zn 0.4986 0.92929 0.49326 0.0
C22 C 0.61521 0.13732 0.49851 0.0
O23 O 0.60306 0.13943 0.52427 0.0
C24 C 0.40624 0.84492 0.47401 0.0
O25 O 0.43295 0.83477 0.45781 0.0
O26 O 0.48585 0.09528 0.49327 0.0
O27 O 0.48043 0.99577 0.46587 0.0
O28 O 0.52205 0.96094 0.45855 0.0
C29 C 0.48678 0.11525 0.47202 0.0
O30 O 0.50664 0.10793 0.4499 0.0
O31 O 0.58499 0.10282 0.48006 0.0
C32 C 0.50265 0.85007 0.50943 0.0
O33 O 0.46918 0.84831 0.52501 0.0
O34 O 0.52311 0.88399 0.49449 0.0
O35 O 0.51896 0.97313 0.53072 0.0
O36 O 0.5262 0.04569 0.53138 0.0
O37 O 0.42596 0.88566 0.4901 0.0
C38 C 0.50563 0.98549 0.45014 0.0
C39 C 0.52731 0.01377 0.54383 0.0
Zn40 Zn 0.55075 0.50178 0.83269 0.0
Zn41 Zn 0.47184 0.56369 0.82798 0.0
C42 C 0.55694 0.42214 0.85078 0.0
O43 O 0.56579 0.4471 0.87593 0.0
C44 C 0.5293 0.65357 0.80796 0.0
O45 O 0.51017 0.62407 0.78421 0.0
O46 O 0.62169 0.55084 0.83534 0.0
O47 O 0.5198 0.49828 0.79591 0.0
O48 O 0.4717 0.52674 0.79135 0.0
C49 C 0.64339 0.54467 0.81495 0.0
O50 O 0.61793 0.51175 0.79327 0.0
O51 O 0.54805 0.43779 0.83006 0.0
C52 C 0.36965 0.53533 0.83117 0.0
O53 O 0.36089 0.49369 0.83825 0.0
O54 O 0.41182 0.56672 0.82606 0.0
O55 O 0.4739 0.53881 0.8638 0.0
O56 O 0.51986 0.50741 0.8677 0.0
O57 O 0.52248 0.6351 0.83049 0.0
C58 C 0.49242 0.50506 0.78095 0.0
C59 C 0.4914 0.51993 0.87781 0.0
H60 H 0.51592 0.04062 0.16971 0.0
H61 H 0.60471 0.08741 0.24674 0.0
H62 H 0.45205 1.00072 0.24714 0.0
H63 H 0.57968 0.10659 0.15598 0.0
C64 C 0.61171 0.11566 0.16837 0.0
C65 C 0.51971 0.04257 0.19216 0.0
C66 C 0.47852 0.01799 0.20667 0.0
C67 C 0.5654 0.06861 0.20677 0.0
C68 C 0.56955 0.0682 0.23558 0.0
C69 C 0.52876 0.04464 0.2502 0.0
C70 C 0.48345 0.02017 0.23578 0.0
N71 N 0.60813 0.09602 0.1936 0.0
H72 H 0.51425 0.46014 0.49204 0.0
H73 H 0.5378 0.54445 0.57287 0.0
H74 H 0.46948 0.38849 0.56516 0.0
H75 H 0.50487 0.52258 0.47963 0.0
C76 C 0.5304 0.55538 0.49357 0.0
C77 C 0.51043 0.46185 0.51432 0.0
C78 C 0.4895 0.41873 0.52649 0.0
C79 C 0.52739 0.50717 0.53111 0.0
C80 C 0.5244 0.50932 0.56004 0.0
C81 C 0.50237 0.46652 0.57231 0.0
C82 C 0.48475 0.42136 0.55544 0.0
N83 N 0.54694 0.55135 0.51969 0.0
H84 H 0.00428 0.61092 0.82376 0.0
H85 H 0.075 0.61998 0.90166 0.0
H86 H 0.94631 0.62421 0.90185 0.0
H87 H 0.14165 0.6717 0.87229 0.0
C88 C 0.12895 0.63922 0.85688 0.0
C89 C 0.00624 0.61448 0.84639 0.0
C90 C 0.97142 0.61883 0.86118 0.0
C91 C 0.04464 0.61652 0.86099 0.0
C92 C 0.04665 0.62049 0.89035 0.0
C93 C 0.0108 0.62237 0.90507 0.0
C94 C 0.97386 0.62232 0.89042 0.0
N95 N 0.08024 0.6129 0.84608 0.0
H96 H 0.03154 0.54127 0.48767 0.0
H97 H 0.9459 0.48847 0.40877 0.0
H98 H 0.08602 0.61655 0.41662 0.0
H99 H 0.88627 0.46692 0.43844 0.0
C100 C 0.89662 0.44918 0.45224 0.0
C101 C 0.0268 0.54464 0.46603 0.0
C102 C 0.06365 0.58336 0.45402 0.0
C103 C 0.98321 0.51098 0.45012 0.0
C104 C 0.97803 0.51528 0.42179 0.0
C105 C 0.01515 0.55298 0.40967 0.0
C106 C 0.0574 0.58704 0.42596 0.0
N107 N 0.94552 0.47236 0.46248 0.0
H108 H 0.57803 0.09561 0.83641 0.0
H109 H 0.55855 1.00367 0.75908 0.0
H110 H 0.58164 0.14661 0.75761 0.0
H111 H 0.4956 0.9506 0.79072 0.0
C112 C 0.5257 0.95813 0.80456 0.0
C113 C 0.5763 0.09009 0.81376 0.0
C114 C 0.58126 0.12686 0.79872 0.0
C115 C 0.56767 0.04547 0.79948 0.0
C116 C 0.56521 0.03813 0.77009 0.0
C117 C 0.57029 0.07446 0.75484 0.0
C118 C 0.57839 0.11868 0.76933 0.0
N119 N 0.56072 0.00761 0.8146 0.0
H120 H 0.44722 0.56248 0.16488 0.0
H121 H 0.50666 0.52422 0.09434 0.0
H122 H 0.38956 0.54542 0.08105 0.0
H123 H 0.50333 0.4716 0.13247 0.0
C124 C 0.5279 0.50707 0.14461 0.0
C125 C 0.44689 0.55397 0.14245 0.0
C126 C 0.41416 0.55547 0.12427 0.0
C127 C 0.47936 0.5414 0.13173 0.0
C128 C 0.48008 0.53168 0.10264 0.0
C129 C 0.44855 0.5343 0.08425 0.0
C130 C 0.41518 0.54527 0.09525 0.0
N131 N 0.51301 0.54122 0.15023 0.0
H132 H 0.21444 0.61853 0.21263 0.0
H133 H 0.16799 0.58292 0.12451 0.0
H134 H 0.27975 0.60449 0.20242 0.0
H135 H 0.23309 0.56902 0.11448 0.0
H136 H 0.38808 0.61448 0.10423 0.0
H137 H 0.32295 0.62625 0.11784 0.0
H138 H 0.29459 0.5361 0.18265 0.0
H139 H 0.35949 0.5233 0.16862 0.0
C140 C 0.21784 0.60723 0.19115 0.0
C141 C 0.18621 0.60212 0.16935 0.0
C142 C 0.25513 0.5991 0.18536 0.0
C143 C 0.26173 0.58626 0.15765 0.0
C144 C 0.22922 0.57964 0.136 0.0
C145 C 0.19175 0.58727 0.14178 0.0
C146 C 0.36792 0.59699 0.12134 0.0
C147 C 0.37844 0.56728 0.13505 0.0
C148 C 0.33064 0.60375 0.12911 0.0
C149 C 0.30326 0.5814 0.15096 0.0
C150 C 0.31517 0.55369 0.16569 0.0
C151 C 0.35239 0.54656 0.15774 0.0
H152 H 0.64404 0.15761 0.44604 0.0
H153 H 0.69018 0.20934 0.53384 0.0
H154 H 0.71557 0.23018 0.43421 0.0
H155 H 0.7612 0.28179 0.52203 0.0
H156 H 0.90241 0.39314 0.48925 0.0
H157 H 0.8377 0.3136 0.49933 0.0
H158 H 0.74122 0.31743 0.4399 0.0
H159 H 0.80555 0.3963 0.4299 0.0
C160 C 0.66971 0.18405 0.46279 0.0
C161 C 0.66117 0.17783 0.49088 0.0
C162 C 0.71055 0.2258 0.45603 0.0
C163 C 0.74392 0.26202 0.4772 0.0
C164 C 0.73646 0.25453 0.50521 0.0
C165 C 0.69552 0.21306 0.51197 0.0
C166 C 0.8674 0.3768 0.47833 0.0
C167 C 0.85889 0.40091 0.45885 0.0
C168 C 0.83034 0.33134 0.48411 0.0
C169 C 0.78433 0.30899 0.47028 0.0
C170 C 0.77632 0.33311 0.45058 0.0
C171 C 0.81308 0.37852 0.44503 0.0
H172 H 0.54558 0.70348 0.76379 0.0
H173 H 0.55042 0.7222 0.85411 0.0
H174 H 0.55291 0.78243 0.76419 0.0
H175 H 0.5578 0.80152 0.85435 0.0
H176 H 0.59432 0.95804 0.83809 0.0
H177 H 0.6068 0.88953 0.83978 0.0
H178 H 0.48715 0.79941 0.77826 0.0
H179 H 0.47449 0.86701 0.77682 0.0
C180 C 0.5494 0.72491 0.78378 0.0
C181 C 0.54644 0.70607 0.80888 0.0
C182 C 0.55342 0.77006 0.78397 0.0
C183 C 0.55489 0.7975 0.80926 0.0
C184 C 0.55661 0.781 0.83456 0.0
C185 C 0.55236 0.73556 0.83438 0.0
C186 C 0.57074 0.92348 0.82504 0.0
C187 C 0.53346 0.91764 0.80726 0.0
C188 C 0.57789 0.88444 0.826 0.0
C189 C 0.54842 0.83952 0.80882 0.0
C190 C 0.51102 0.83391 0.79131 0.0
C191 C 0.5035 0.87243 0.79067 0.0
H192 H 0.79124 0.5124 0.17922 0.0
H193 H 0.83255 0.63932 0.13899 0.0
H194 H 0.71046 0.49707 0.18099 0.0
H195 H 0.75117 0.62346 0.14053 0.0
H196 H 0.60558 0.59742 0.1655 0.0
H197 H 0.68891 0.61913 0.172 0.0
H198 H 0.64542 0.4688 0.14433 0.0
H199 H 0.56251 0.44725 0.138 0.0
C200 C 0.78324 0.5373 0.17093 0.0
C201 C 0.81827 0.57681 0.15866 0.0
C202 C 0.73684 0.52837 0.17188 0.0
C203 C 0.72433 0.55874 0.16065 0.0
C204 C 0.75984 0.59957 0.14952 0.0
C205 C 0.80637 0.6085 0.1485 0.0
C206 C 0.61385 0.56898 0.16119 0.0
C207 C 0.57769 0.52057 0.1513 0.0
C208 C 0.66153 0.58148 0.16473 0.0
C209 C 0.6737 0.54568 0.1587 0.0
C210 C 0.63717 0.4971 0.14953 0.0
C211 C 0.58974 0.48476 0.1458 0.0
H212 H 0.3397 0.8523 0.50521 0.0
H213 H 0.35753 0.75126 0.44695 0.0
H214 H 0.25652 0.7884 0.50863 0.0
H215 H 0.27481 0.68802 0.45013 0.0
H216 H 0.13497 0.57038 0.47119 0.0
H217 H 0.2194 0.63467 0.48137 0.0
H218 H 0.18195 0.74414 0.47828 0.0
H219 H 0.09793 0.67986 0.46853 0.0
C220 C 0.32591 0.81657 0.4931 0.0
C221 C 0.35526 0.80707 0.47565 0.0
C222 C 0.27828 0.77993 0.4951 0.0
C223 C 0.25905 0.73288 0.47988 0.0
C224 C 0.28862 0.72346 0.46262 0.0
C225 C 0.336 0.76003 0.46051 0.0
C226 C 0.14475 0.60826 0.47398 0.0
C227 C 0.11012 0.62032 0.46936 0.0
C228 C 0.19309 0.64508 0.47933 0.0
C229 C 0.20756 0.69458 0.48013 0.0
C230 C 0.17219 0.70655 0.47796 0.0
C231 C 0.12401 0.66977 0.4725 0.0
H232 H 0.56348 0.37053 0.88988 0.0
H233 H 0.5607 0.37534 0.80093 0.0
H234 H 0.57437 0.30054 0.88154 0.0
H235 H 0.57175 0.30615 0.7928 0.0
H236 H 0.64287 0.21959 0.78854 0.0
H237 H 0.63914 0.29213 0.80414 0.0
H238 H 0.52635 0.21063 0.85637 0.0
H239 H 0.52961 0.13751 0.84043 0.0
C240 C 0.56508 0.35664 0.86861 0.0
C241 C 0.56128 0.37851 0.84607 0.0
C242 C 0.57124 0.31662 0.86387 0.0
C243 C 0.57449 0.2984 0.83658 0.0
C244 C 0.57019 0.31999 0.81411 0.0
C245 C 0.56344 0.35939 0.81877 0.0
C246 C 0.61773 0.21731 0.80366 0.0
C247 C 0.58601 0.17271 0.81293 0.0
C248 C 0.61555 0.25877 0.81253 0.0
C249 C 0.58184 0.25667 0.83103 0.0
C250 C 0.55266 0.21319 0.84208 0.0
C251 C 0.55466 0.17144 0.83304 0.0
H252 H 0.58166 0.85035 0.49116 0.0
H253 H 0.44213 0.75744 0.51951 0.0
H254 H 0.59307 0.78059 0.48336 0.0
H255 H 0.45323 0.68802 0.51111 0.0
H256 H 0.46884 0.56713 0.46275 0.0
H257 H 0.46523 0.64125 0.46441 0.0
H258 H 0.59569 0.72179 0.51863 0.0
H259 H 0.59885 0.64756 0.51745 0.0
C260 C 0.55357 0.81512 0.49574 0.0
C261 C 0.51114 0.80927 0.50609 0.0
C262 C 0.56008 0.7754 0.49124 0.0
C263 C 0.52376 0.72912 0.49635 0.0
C264 C 0.48145 0.72333 0.50669 0.0
C265 C 0.47537 0.76313 0.51176 0.0
C266 C 0.49724 0.60095 0.47449 0.0
C267 C 0.53378 0.60171 0.4902 0.0
C268 C 0.49504 0.64311 0.47555 0.0
C269 C 0.52997 0.68681 0.49185 0.0
C270 C 0.56844 0.68845 0.50591 0.0
C271 C 0.57013 0.64605 0.50528 0.0
H272 H 0.7061 0.60059 0.86062 0.0
H273 H 0.69969 0.53907 0.77497 0.0
H274 H 0.78992 0.62583 0.86686 0.0
H275 H 0.784 0.56537 0.78101 0.0
H276 H 0.90535 0.54905 0.82056 0.0
H277 H 0.82904 0.53916 0.80554 0.0
H278 H 0.87019 0.67755 0.85522 0.0
H279 H 0.94567 0.68641 0.87069 0.0
C280 C 0.72285 0.59347 0.84292 0.0
C281 C 0.69604 0.56739 0.81741 0.0
C282 C 0.7711 0.60815 0.84644 0.0
C283 C 0.79374 0.59733 0.82447 0.0
C284 C 0.76752 0.57357 0.79849 0.0
C285 C 0.71923 0.55877 0.795 0.0
C286 C 0.89847 0.57787 0.82756 0.0
C287 C 0.93102 0.61824 0.8469 0.0
C288 C 0.85479 0.57232 0.81901 0.0
C289 C 0.8431 0.60724 0.82955 0.0
C290 C 0.87751 0.64943 0.84722 0.0
C291 C 0.92087 0.65475 0.85589 0.0
H292 H 0.18956 0.79358 0.1961 0.0
H293 H 0.21923 0.78058 0.10948 0.0
H294 H 0.26573 0.87002 0.2062 0.0
H295 H 0.29517 0.85814 0.11944 0.0
H296 H 0.45184 0.94763 0.16144 0.0
H297 H 0.37056 0.8843 0.14354 0.0
H298 H 0.31499 0.95373 0.20052 0.0
H299 H 0.39648 0.01627 0.21887 0.0
C300 C 0.21188 0.80757 0.17905 0.0
C301 C 0.19854 0.78064 0.15206 0.0
C302 C 0.25556 0.85173 0.1848 0.0
C303 C 0.28688 0.87023 0.16366 0.0
C304 C 0.27231 0.84457 0.13631 0.0
C305 C 0.22864 0.80022 0.13058 0.0
C306 C 0.42225 0.95004 0.16955 0.0
C307 C 0.43035 0.98647 0.19172 0.0
C308 C 0.37558 0.91376 0.1593 0.0
C309 C 0.33608 0.91342 0.17089 0.0
C310 C 0.3445 0.95219 0.19158 0.0
C311 C 0.39112 0.98817 0.20198 0.0
H312 H 0.44671 0.14053 0.51509 0.0
H313 H 0.4952 0.17349 0.43316 0.0
H314 H 0.43644 0.2102 0.52163 0.0
H315 H 0.48405 0.24299 0.43955 0.0
H316 H 0.54216 0.40083 0.48891 0.0
H317 H 0.52962 0.3216 0.4697 0.0
H318 H 0.39542 0.25005 0.50774 0.0
H319 H 0.40832 0.32967 0.5272 0.0
C320 C 0.45415 0.162 0.4982 0.0
C321 C 0.47253 0.15197 0.47381 0.0
C322 C 0.44787 0.20178 0.50185 0.0
C323 C 0.45979 0.23238 0.48117 0.0
C324 C 0.47517 0.22044 0.456 0.0
C325 C 0.48139 0.18054 0.45232 0.0
C326 C 0.50925 0.36822 0.4924 0.0
C327 C 0.47655 0.37136 0.50987 0.0
C328 C 0.50199 0.32272 0.48136 0.0
C329 C 0.46182 0.27952 0.48754 0.0
C330 C 0.42716 0.28272 0.50308 0.0
C331 C 0.4345 0.32822 0.51418 0.0
H332 H 0.27557 0.47893 0.84226 0.0
H333 H 0.37806 0.61979 0.81949 0.0
H334 H 0.21566 0.50262 0.84529 0.0
H335 H 0.31829 0.64302 0.82232 0.0
H336 H 0.22376 0.68893 0.8707 0.0
H337 H 0.28013 0.66198 0.86165 0.0
H338 H 0.16632 0.52482 0.81729 0.0
H339 H 0.10962 0.55204 0.82648 0.0
C340 C 0.2852 0.51468 0.83763 0.0
C341 C 0.3318 0.54759 0.83091 0.0
C342 C 0.25079 0.52813 0.83921 0.0
C343 C 0.26237 0.57484 0.83426 0.0
C344 C 0.30846 0.60704 0.82666 0.0
C345 C 0.34269 0.59359 0.82495 0.0
C346 C 0.2109 0.65322 0.85875 0.0
C347 C 0.16248 0.62272 0.84919 0.0
C348 C 0.24318 0.63783 0.85347 0.0
C349 C 0.22774 0.59131 0.83866 0.0
C350 C 0.17921 0.56076 0.82888 0.0
C351 C 0.14686 0.57645 0.83397 0.0
H352 H 0.86001 0.39291 0.20983 0.0
H353 H 0.84609 0.38712 0.12026 0.0
H354 H 0.798 0.30722 0.20552 0.0
H355 H 0.78408 0.30043 0.11586 0.0
H356 H 0.62724 0.17898 0.13186 0.0
H357 H 0.70106 0.25621 0.12843 0.0
H358 H 0.77463 0.22389 0.18873 0.0
H359 H 0.70075 0.14748 0.19256 0.0
C360 C 0.84437 0.37305 0.18911 0.0
C361 C 0.85767 0.39696 0.16543 0.0
C362 C 0.80896 0.3237 0.18661 0.0
C363 C 0.78586 0.29694 0.16034 0.0
C364 C 0.80083 0.3202 0.13642 0.0
C365 C 0.83658 0.36973 0.13893 0.0
C366 C 0.65948 0.18809 0.14395 0.0
C367 C 0.65807 0.15778 0.16283 0.0
C368 C 0.70184 0.23217 0.1419 0.0
C369 C 0.74361 0.24655 0.15862 0.0
C370 C 0.74284 0.21437 0.17601 0.0
C371 C 0.70051 0.17051 0.17815 0.0
H372 H 0.07681 0.63156 0.08082 0.0
H373 H 0.92877 0.59123 0.07561 0.0
H374 H 0.0801 0.63802 0.03123 0.0
H375 H 0.93252 0.59986 0.02616 0.0
H376 H 0.9373 0.5609 0.93321 0.0
H377 H 0.9354 0.55897 0.98336 0.0
H378 H 0.08082 0.68246 -0.00397 0.0
H379 H 0.08301 0.68263 0.94548 0.0
C380 C 0.04519 0.62497 0.06916 0.0
C381 C 0.00246 0.61069 0.08208 0.0
C382 C 0.04712 0.62889 0.04069 0.0
C383 C 0.00653 0.61926 0.02454 0.0
C384 C 0.9642 0.60648 0.03775 0.0
C385 C 0.96207 0.60183 0.06615 0.0
C386 C 0.96874 0.58767 0.94681 0.0
C387 C 0.01026 0.62197 0.93561 0.0
C388 C 0.96762 0.58686 0.97558 0.0
C389 C 0.00783 0.62081 -0.00611 0.0
C390 C 0.0494 0.65532 0.98258 0.0
C391 C 0.0507 0.65562 0.95368 0.0
H392 H 0.45136 0.0059 0.41855 0.0
H393 H 0.57978 0.99963 0.41874 0.0
H394 H 0.46173 0.02514 0.37118 0.0
H395 H 0.59211 0.02184 0.3717 0.0
H396 H 0.564 0.99861 0.27614 0.0
H397 H 0.56248 0.98895 0.32548 0.0
H398 H 0.50333 0.08151 0.34155 0.0
H399 H 0.50216 0.08801 0.29178 0.0
C400 C 0.4824 0.00961 0.40857 0.0
C401 C 0.51461 1.001 0.42222 0.0
C402 C 0.48865 0.02107 0.38141 0.0
C403 C 0.52783 0.02512 0.36737 0.0
C404 C 0.56096 0.01806 0.38152 0.0
C405 C 0.55414 0.00562 0.40855 0.0
C406 C 0.55115 0.01711 0.29044 0.0
C407 C 0.53304 0.04384 0.28045 0.0
C408 C 0.55052 0.01195 0.31875 0.0
C409 C 0.53248 0.03418 0.3377 0.0
C410 C 0.51637 0.06281 0.3276 0.0
C411 C 0.51608 0.06703 0.29919 0.0
H412 H 0.54633 0.47744 0.75023 0.0
H413 H 0.42967 0.50265 0.74209 0.0
H414 H 0.54645 0.46503 0.69949 0.0
H415 H 0.42963 0.48942 0.69115 0.0
H416 H 0.42254 0.41558 0.59973 0.0
H417 H 0.41642 0.41995 0.65047 0.0
H418 H 0.56766 0.52691 0.66402 0.0
H419 H 0.57365 0.52293 0.61342 0.0
C420 C 0.52026 0.47966 0.73767 0.0
C421 C 0.48824 0.49147 0.75025 0.0
C422 C 0.52055 0.47276 0.70863 0.0
C423 C 0.48834 0.47671 0.69156 0.0
C424 C 0.45474 0.48611 0.70395 0.0
C425 C 0.4549 0.49378 0.73307 0.0
C426 C 0.45438 0.43989 0.61364 0.0
C427 C 0.49855 0.46899 0.60283 0.0
C428 C 0.45083 0.44252 0.64254 0.0
C429 C 0.49161 0.47358 0.66099 0.0
C430 C 0.53581 0.50237 0.65015 0.0
C431 C 0.53918 0.50037 0.62131 0.0
H432 H 0.52748 0.95303 0.57872 0.0
H433 H 0.54877 0.09674 0.57887 0.0
H434 H 0.53912 0.96793 0.62965 0.0
H435 H 0.56116 0.11172 0.62965 0.0
H436 H 0.5207 0.09628 0.71983 0.0
H437 H 0.51258 0.08224 0.66891 0.0
H438 H 0.6002 0.01819 0.6686 0.0
H439 H 0.60841 0.03235 0.71972 0.0
C440 C 0.53502 0.98793 0.58955 0.0
C441 C 0.53688 0.02356 0.57466 0.0
C442 C 0.54192 0.99653 0.61874 0.0
C443 C 0.55079 0.04089 0.63368 0.0
C444 C 0.55359 0.07685 0.61877 0.0
C445 C 0.54673 0.06831 0.58962 0.0
C446 C 0.53869 0.07971 0.70891 0.0
C447 C 0.56545 0.0657 0.72379 0.0
C448 C 0.53403 0.07165 0.67973 0.0
C449 C 0.55596 0.04934 0.66472 0.0
C450 C 0.58248 0.03501 0.67958 0.0
C451 C 0.58718 0.04312 0.70883 0.0
H452 H 0.42408 0.53142 0.90486 0.0
H453 H 0.53372 0.49753 0.91764 0.0
H454 H 0.41013 0.52984 0.95421 0.0
H455 H 0.52055 0.49725 0.9672 0.0
H456 H 0.45889 0.46475 0.05205 0.0
H457 H 0.46522 0.45586 0.00151 0.0
H458 H 0.45305 0.58185 -0.00284 0.0
H459 H 0.44625 0.59027 0.04731 0.0
C460 C 0.44517 0.52353 0.91817 0.0
C461 C 0.48034 0.51506 0.90732 0.0
C462 C 0.43731 0.52286 0.9465 0.0
C463 C 0.46462 0.514 0.96472 0.0
C464 C 0.49862 0.5038 0.9537 0.0
C465 C 0.50633 0.50421 0.92529 0.0
C466 C 0.45761 0.49047 0.04021 0.0
C467 C 0.45177 0.528 0.05358 0.0
C468 C 0.46126 0.48543 0.01131 0.0
C469 C 0.45932 0.51795 -0.00473 0.0
C470 C 0.45357 0.55548 0.00875 0.0
C471 C 0.44978 0.56039 0.03752 0.0
H472 H 0.93265 0.54658 0.23627 0.0
H473 H 0.08579 0.64617 0.24814 0.0
H474 H 0.93148 0.53358 0.28486 0.0
H475 H 0.08422 0.63522 0.297 0.0
H476 H 0.07742 0.56063 0.37105 0.0
H477 H 0.07445 0.57302 0.3226 0.0
H478 H 0.9412 0.56853 0.33279 0.0
H479 H 0.94368 0.55439 0.38124 0.0
C480 C 0.96601 0.56601 0.24925 0.0
C481 C 0.00945 0.59652 0.23807 0.0
C482 C 0.96525 0.55892 0.27724 0.0
C483 C 0.00787 0.58269 0.29474 0.0
C484 C 0.0509 0.61522 0.28391 0.0
C485 C 0.05174 0.62188 0.2559 0.0
C486 C 0.04744 0.56211 0.36282 0.0
C487 C 0.01092 0.55687 0.37978 0.0
C488 C 0.04587 0.5696 0.33516 0.0
C489 C 0.008 0.57263 0.32391 0.0
C490 C 0.97075 0.56612 0.34074 0.0
C491 C 0.9721 0.55806 0.36843 0.0
loop_
_geom_bond_atom_site_label_1
_geom_bond_atom_site_label_2
_geom_bond_distance
_geom_bond_site_symmetry_2
_ccdc_geom_bond_type
Zn0 O6 1.969 . S
Zn0 O7 1.965 . S
Zn0 O11 2.024 . S
Zn0 O16 1.969 . S
Zn1 O8 1.969 . S
Zn1 O14 1.969 . S
Zn1 O15 1.965 1_655 S
Zn1 O17 2.024 . S
C2 O3 1.229 . S
C2 O11 1.058 . S
O3 C2 1.229 . S
C4 O5 1.229 . S
C4 O17 1.058 . S
O5 C4 1.229 . S
O6 Zn0 1.969 . S
O6 C9 1.267 . S
O7 Zn0 1.965 . S
O7 C18 1.260 . S
O8 Zn1 1.969 . S
O8 C18 1.258 1_655 S
C9 O6 1.267 . S
C9 O10 1.228 . S
O10 C9 1.228 . S
O11 Zn0 2.024 . S
O11 C2 1.058 . S
C12 O13 1.228 . S
C12 O14 1.267 . S
O13 C12 1.228 . S
O14 Zn1 1.969 . S
O14 C12 1.267 . S
O15 Zn1 1.965 1_455 S
O15 C19 1.260 . S
O16 Zn0 1.969 . S
O16 C19 1.258 . S
O17 Zn1 2.024 . S
O17 C4 1.058 . S
C18 O7 1.260 . S
C18 O8 1.258 1_455 S
C19 O15 1.260 . S
C19 O16 1.258 . S
Zn20 O26 1.969 . S
Zn20 O27 1.965 . S
Zn20 O31 2.024 . S
Zn20 O36 1.969 . S
Zn21 O28 1.969 . S
Zn21 O34 1.969 . S
Zn21 O35 1.965 1_565 S
Zn21 O37 2.024 . S
C22 O23 1.229 . S
C22 O31 1.058 . S
O23 C22 1.229 . S
C24 O25 1.229 . S
C24 O37 1.058 . S
O25 C24 1.229 . S
O26 Zn20 1.969 . S
O26 C29 1.267 . S
O27 Zn20 1.965 . S
O27 C38 1.260 . S
O28 Zn21 1.969 . S
O28 C38 1.258 1_565 S
C29 O26 1.267 . S
C29 O30 1.228 . S
O30 C29 1.228 . S
O31 Zn20 2.024 . S
O31 C22 1.058 . S
C32 O33 1.228 . S
C32 O34 1.267 . S
O33 C32 1.228 . S
O34 Zn21 1.969 . S
O34 C32 1.267 . S
O35 Zn21 1.965 1_545 S
O35 C39 1.260 . S
O36 Zn20 1.969 . S
O36 C39 1.258 . S
O37 Zn21 2.024 . S
O37 C24 1.058 . S
C38 O27 1.260 . S
C38 O28 1.258 1_545 S
C39 O35 1.260 . S
C39 O36 1.258 . S
Zn40 O46 1.969 . S
Zn40 O47 1.965 . S
Zn40 O51 2.024 . S
Zn40 O56 1.969 . S
Zn41 O48 1.969 . S
Zn41 O54 1.969 . S
Zn41 O55 1.965 . S
Zn41 O57 2.024 . S
C42 O43 1.229 . S
C42 O51 1.058 . S
O43 C42 1.229 . S
C44 O45 1.229 . S
C44 O57 1.058 . S
O45 C44 1.229 . S
O46 Zn40 1.969 . S
O46 C49 1.267 . S
O47 Zn40 1.965 . S
O47 C58 1.260 . S
O48 Zn41 1.969 . S
O48 C58 1.258 . S
C49 O46 1.267 . S
C49 O50 1.228 . S
O50 C49 1.228 . S
O51 Zn40 2.024 . S
O51 C42 1.058 . S
C52 O53 1.228 . S
C52 O54 1.267 . S
O53 C52 1.228 . S
O54 Zn41 1.969 . S
O54 C52 1.267 . S
O55 Zn41 1.965 . S
O55 C59 1.260 . S
O56 Zn40 1.969 . S
O56 C59 1.258 . S
O57 Zn41 2.024 . S
O57 C44 1.058 . S
C58 O47 1.260 . S
C58 O48 1.258 . S
C59 O55 1.260 . S
C59 O56 1.258 . S
H60 C65 0.930 . S
H61 C68 0.930 . S
H62 C70 0.930 1_565 S
H63 C64 1.016 . S
C64 H63 1.016 . S
C64 N71 1.286 . S
C65 H60 0.930 . S
C65 C66 1.393 1_545 S
C65 C67 1.361 . S
C66 C65 1.393 1_565 S
C66 C70 1.390 1_565 S
C67 C65 1.361 . S
C67 C68 1.393 . S
C67 N71 1.413 . S
C68 H61 0.930 . S
C68 C67 1.393 . S
C68 C69 1.399 . S
C69 C68 1.399 . S
C69 C70 1.381 . S
C70 H62 0.930 1_545 S
C70 C66 1.390 1_545 S
C70 C69 1.381 . S
N71 C64 1.286 . S
N71 C67 1.413 . S
H72 C77 0.930 . S
H73 C80 0.930 . S
H74 C82 0.930 . S
H75 C76 1.016 . S
C76 H75 1.016 . S
C76 N83 1.286 . S
C77 H72 0.930 . S
C77 C78 1.397 . S
C77 C79 1.361 . S
C78 C77 1.397 . S
C78 C82 1.390 . S
C79 C77 1.361 . S
C79 C80 1.393 . S
C79 N83 1.413 . S
C80 H73 0.930 . S
C80 C79 1.393 . S
C80 C81 1.399 . S
C81 C80 1.399 . S
C81 C82 1.381 . S
C82 H74 0.930 . S
C82 C78 1.390 . S
C82 C81 1.381 . S
N83 C76 1.286 . S
N83 C79 1.413 . S
H84 C89 0.928 1_655 S
H85 C92 0.930 . S
H86 C94 0.930 . S
H87 C88 1.016 . S
C88 H87 1.016 . S
C88 N95 1.286 . S
C89 H84 0.928 1_455 S
C89 C90 1.379 1_455 S
C89 C91 1.381 . S
C90 C89 1.379 1_655 S
C90 C94 1.390 . S
C91 C89 1.381 . S
C91 C92 1.393 . S
C91 N95 1.413 . S
C92 H85 0.930 . S
C92 C91 1.393 . S
C92 C93 1.399 . S
C93 C92 1.399 . S
C93 C94 1.381 1_455 S
C94 H86 0.930 . S
C94 C90 1.390 . S
C94 C93 1.381 1_655 S
N95 C88 1.286 . S
N95 C91 1.413 . S
H96 C101 0.930 . S
H97 C104 0.930 . S
H98 C106 0.930 . S
H99 C100 1.016 . S
C100 H99 1.016 . S
C100 N107 1.286 . S
C101 H96 0.930 . S
C101 C102 1.397 . S
C101 C103 1.361 . S
C102 C101 1.397 . S
C102 C106 1.390 . S
C103 C101 1.361 . S
C103 C104 1.393 1_455 S
C103 N107 1.413 1_455 S
C104 H97 0.930 . S
C104 C103 1.393 1_655 S
C104 C105 1.399 1_655 S
C105 C104 1.399 1_455 S
C105 C106 1.381 . S
C106 H98 0.930 . S
C106 C102 1.390 . S
C106 C105 1.381 . S
N107 C100 1.286 . S
N107 C103 1.413 1_655 S
H108 C113 0.930 . S
H109 C116 0.930 1_565 S
H110 C118 0.930 . S
H111 C112 1.016 . S
C112 H111 1.016 . S
C112 N119 1.286 . S
C113 H108 0.930 . S
C113 C114 1.397 . S
C113 C115 1.361 . S
C114 C113 1.397 . S
C114 C118 1.390 . S
C115 C113 1.361 . S
C115 C116 1.393 . S
C115 N119 1.413 1_545 S
C116 H109 0.930 1_545 S
C116 C115 1.393 . S
C116 C117 1.399 . S
C117 C116 1.399 . S
C117 C118 1.381 . S
C118 H110 0.930 . S
C118 C114 1.390 . S
C118 C117 1.381 . S
N119 C112 1.286 . S
N119 C115 1.413 1_565 S
H120 C125 0.930 . S
H121 C128 0.930 . S
H122 C130 0.930 . S
H123 C124 1.016 . S
C124 H123 1.016 . S
C124 N131 1.286 . S
C125 H120 0.930 . S
C125 C126 1.397 . S
C125 C127 1.361 . S
C126 C125 1.397 . S
C126 C130 1.390 . S
C127 C125 1.361 . S
C127 C128 1.393 . S
C127 N131 1.413 . S
C128 H121 0.930 . S
C128 C127 1.393 . S
C128 C129 1.399 . S
C129 C128 1.399 . S
C129 C130 1.381 . S
C130 H122 0.930 . S
C130 C126 1.390 . S
C130 C129 1.381 . S
N131 C124 1.286 . S
N131 C127 1.413 . S
H132 C140 0.950 . S
H133 C145 0.950 . S
H134 C142 0.950 . S
H135 C144 0.950 . S
H136 C146 0.950 . S
H137 C148 0.950 . S
H138 C150 0.950 . S
H139 C151 0.950 . S
C140 H132 0.950 . S
C140 C141 1.386 . S
C140 C142 1.391 . S
C141 C140 1.386 . S
C141 C145 1.393 . S
C142 H134 0.950 . S
C142 C140 1.391 . S
C142 C143 1.400 . S
C143 C142 1.400 . S
C143 C144 1.398 . S
C143 C149 1.491 . S
C144 H135 0.950 . S
C144 C143 1.398 . S
C144 C145 1.391 . S
C145 H133 0.950 . S
C145 C141 1.393 . S
C145 C144 1.391 . S
C146 H136 0.950 . S
C146 C147 1.386 . S
C146 C148 1.391 . S
C147 C146 1.386 . S
C147 C151 1.393 . S
C148 H137 0.950 . S
C148 C146 1.391 . S
C148 C149 1.400 . S
C149 C143 1.491 . S
C149 C148 1.400 . S
C149 C150 1.398 . S
C150 H138 0.950 . S
C150 C149 1.398 . S
C150 C151 1.391 . S
C151 H139 0.950 . S
C151 C147 1.393 . S
C151 C150 1.391 . S
H152 C160 0.950 . S
H153 C165 0.950 . S
H154 C162 0.950 . S
H155 C164 0.950 . S
H156 C166 0.950 . S
H157 C168 0.950 . S
H158 C170 0.950 . S
H159 C171 0.950 . S
C160 H152 0.950 . S
C160 C161 1.386 . S
C160 C162 1.391 . S
C161 C160 1.386 . S
C161 C165 1.393 . S
C162 H154 0.950 . S
C162 C160 1.391 . S
C162 C163 1.400 . S
C163 C162 1.400 . S
C163 C164 1.398 . S
C163 C169 1.491 . S
C164 H155 0.950 . S
C164 C163 1.398 . S
C164 C165 1.391 . S
C165 H153 0.950 . S
C165 C161 1.393 . S
C165 C164 1.391 . S
C166 H156 0.950 . S
C166 C167 1.386 . S
C166 C168 1.391 . S
C167 C166 1.386 . S
C167 C171 1.393 . S
C168 H157 0.950 . S
C168 C166 1.391 . S
C168 C169 1.400 . S
C169 C163 1.491 . S
C169 C168 1.400 . S
C169 C170 1.398 . S
C170 H158 0.950 . S
C170 C169 1.398 . S
C170 C171 1.391 . S
C171 H159 0.950 . S
C171 C167 1.393 . S
C171 C170 1.391 . S
H172 C180 0.950 . S
H173 C185 0.950 . S
H174 C182 0.950 . S
H175 C184 0.950 . S
H176 C186 0.950 . S
H177 C188 0.950 . S
H178 C190 0.950 . S
H179 C191 0.950 . S
C180 H172 0.950 . S
C180 C181 1.386 . S
C180 C182 1.391 . S
C181 C180 1.386 . S
C181 C185 1.393 . S
C182 H174 0.950 . S
C182 C180 1.391 . S
C182 C183 1.400 . S
C183 C182 1.400 . S
C183 C184 1.398 . S
C183 C189 1.491 . S
C184 H175 0.950 . S
C184 C183 1.398 . S
C184 C185 1.391 . S
C185 H173 0.950 . S
C185 C181 1.393 . S
C185 C184 1.391 . S
C186 H176 0.950 . S
C186 C187 1.386 . S
C186 C188 1.391 . S
C187 C186 1.386 . S
C187 C191 1.393 . S
C188 H177 0.950 . S
C188 C186 1.391 . S
C188 C189 1.400 . S
C189 C183 1.491 . S
C189 C188 1.400 . S
C189 C190 1.398 . S
C190 H178 0.950 . S
C190 C189 1.398 . S
C190 C191 1.391 . S
C191 H179 0.950 . S
C191 C187 1.393 . S
C191 C190 1.391 . S
H192 C200 0.950 . S
H193 C205 0.950 . S
H194 C202 0.950 . S
H195 C204 0.950 . S
H196 C206 0.950 . S
H197 C208 0.950 . S
H198 C210 0.950 . S
H199 C211 0.950 . S
C200 H192 0.950 . S
C200 C201 1.386 . S
C200 C202 1.391 . S
C201 C200 1.386 . S
C201 C205 1.393 . S
C202 H194 0.950 . S
C202 C200 1.391 . S
C202 C203 1.400 . S
C203 C202 1.400 . S
C203 C204 1.398 . S
C203 C209 1.491 . S
C204 H195 0.950 . S
C204 C203 1.398 . S
C204 C205 1.391 . S
C205 H193 0.950 . S
C205 C201 1.393 . S
C205 C204 1.391 . S
C206 H196 0.950 . S
C206 C207 1.386 . S
C206 C208 1.391 . S
C207 C206 1.386 . S
C207 C211 1.393 . S
C208 H197 0.950 . S
C208 C206 1.391 . S
C208 C209 1.400 . S
C209 C203 1.491 . S
C209 C208 1.400 . S
C209 C210 1.398 . S
C210 H198 0.950 . S
C210 C209 1.398 . S
C210 C211 1.391 . S
C211 H199 0.950 . S
C211 C207 1.393 . S
C211 C210 1.391 . S
H212 C220 0.950 . S
H213 C225 0.950 . S
H214 C222 0.950 . S
H215 C224 0.950 . S
H216 C226 0.950 . S
H217 C228 0.950 . S
H218 C230 0.950 . S
H219 C231 0.950 . S
C220 H212 0.950 . S
C220 C221 1.386 . S
C220 C222 1.391 . S
C221 C220 1.386 . S
C221 C225 1.393 . S
C222 H214 0.950 . S
C222 C220 1.391 . S
C222 C223 1.400 . S
C223 C222 1.400 . S
C223 C224 1.398 . S
C223 C229 1.491 . S
C224 H215 0.950 . S
C224 C223 1.398 . S
C224 C225 1.391 . S
C225 H213 0.950 . S
C225 C221 1.393 . S
C225 C224 1.391 . S
C226 H216 0.950 . S
C226 C227 1.386 . S
C226 C228 1.391 . S
C227 C226 1.386 . S
C227 C231 1.393 . S
C228 H217 0.950 . S
C228 C226 1.391 . S
C228 C229 1.400 . S
C229 C223 1.491 . S
C229 C228 1.400 . S
C229 C230 1.398 . S
C230 H218 0.950 . S
C230 C229 1.398 . S
C230 C231 1.391 . S
C231 H219 0.950 . S
C231 C227 1.393 . S
C231 C230 1.391 . S
H232 C240 0.950 . S
H233 C245 0.950 . S
H234 C242 0.950 . S
H235 C244 0.950 . S
H236 C246 0.950 . S
H237 C248 0.950 . S
H238 C250 0.950 . S
H239 C251 0.950 . S
C240 H232 0.950 . S
C240 C241 1.386 . S
C240 C242 1.391 . S
C241 C240 1.386 . S
C241 C245 1.393 . S
C242 H234 0.950 . S
C242 C240 1.391 . S
C242 C243 1.400 . S
C243 C242 1.400 . S
C243 C244 1.398 . S
C243 C249 1.491 . S
C244 H235 0.950 . S
C244 C243 1.398 . S
C244 C245 1.391 . S
C245 H233 0.950 . S
C245 C241 1.393 . S
C245 C244 1.391 . S
C246 H236 0.950 . S
C246 C247 1.386 . S
C246 C248 1.391 . S
C247 C246 1.386 . S
C247 C251 1.393 . S
C248 H237 0.950 . S
C248 C246 1.391 . S
C248 C249 1.400 . S
C249 C243 1.491 . S
C249 C248 1.400 . S
C249 C250 1.398 . S
C250 H238 0.950 . S
C250 C249 1.398 . S
C250 C251 1.391 . S
C251 H239 0.950 . S
C251 C247 1.393 . S
C251 C250 1.391 . S
H252 C260 0.950 . S
H253 C265 0.950 . S
H254 C262 0.950 . S
H255 C264 0.950 . S
H256 C266 0.950 . S
H257 C268 0.950 . S
H258 C270 0.950 . S
H259 C271 0.950 . S
C260 H252 0.950 . S
C260 C261 1.386 . S
C260 C262 1.391 . S
C261 C260 1.386 . S
C261 C265 1.393 . S
C262 H254 0.950 . S
C262 C260 1.391 . S
C262 C263 1.400 . S
C263 C262 1.400 . S
C263 C264 1.398 . S
C263 C269 1.491 . S
C264 H255 0.950 . S
C264 C263 1.398 . S
C264 C265 1.391 . S
C265 H253 0.950 . S
C265 C261 1.393 . S
C265 C264 1.391 . S
C266 H256 0.950 . S
C266 C267 1.386 . S
C266 C268 1.391 . S
C267 C266 1.386 . S
C267 C271 1.393 . S
C268 H257 0.950 . S
C268 C266 1.391 . S
C268 C269 1.400 . S
C269 C263 1.491 . S
C269 C268 1.400 . S
C269 C270 1.398 . S
C270 H258 0.950 . S
C270 C269 1.398 . S
C270 C271 1.391 . S
C271 H259 0.950 . S
C271 C267 1.393 . S
C271 C270 1.391 . S
H272 C280 0.950 . S
H273 C285 0.950 . S
H274 C282 0.950 . S
H275 C284 0.950 . S
H276 C286 0.950 . S
H277 C288 0.950 . S
H278 C290 0.950 . S
H279 C291 0.950 . S
C280 H272 0.950 . S
C280 C281 1.386 . S
C280 C282 1.391 . S
C281 C280 1.386 . S
C281 C285 1.393 . S
C282 H274 0.950 . S
C282 C280 1.391 . S
C282 C283 1.400 . S
C283 C282 1.400 . S
C283 C284 1.398 . S
C283 C289 1.491 . S
C284 H275 0.950 . S
C284 C283 1.398 . S
C284 C285 1.391 . S
C285 H273 0.950 . S
C285 C281 1.393 . S
C285 C284 1.391 . S
C286 H276 0.950 . S
C286 C287 1.386 . S
C286 C288 1.391 . S
C287 C286 1.386 . S
C287 C291 1.393 . S
C288 H277 0.950 . S
C288 C286 1.391 . S
C288 C289 1.400 . S
C289 C283 1.491 . S
C289 C288 1.400 . S
C289 C290 1.398 . S
C290 H278 0.950 . S
C290 C289 1.398 . S
C290 C291 1.391 . S
C291 H279 0.950 . S
C291 C287 1.393 . S
C291 C290 1.391 . S
H292 C300 0.950 . S
H293 C305 0.950 . S
H294 C302 0.950 . S
H295 C304 0.950 . S
H296 C306 0.950 . S
H297 C308 0.950 . S
H298 C310 0.950 . S
H299 C311 0.950 . S
C300 H292 0.950 . S
C300 C301 1.386 . S
C300 C302 1.391 . S
C301 C300 1.386 . S
C301 C305 1.393 . S
C302 H294 0.950 . S
C302 C300 1.391 . S
C302 C303 1.400 . S
C303 C302 1.400 . S
C303 C304 1.398 . S
C303 C309 1.491 . S
C304 H295 0.950 . S
C304 C303 1.398 . S
C304 C305 1.391 . S
C305 H293 0.950 . S
C305 C301 1.393 . S
C305 C304 1.391 . S
C306 H296 0.950 . S
C306 C307 1.386 . S
C306 C308 1.391 . S
C307 C306 1.386 . S
C307 C311 1.393 . S
C308 H297 0.950 . S
C308 C306 1.391 . S
C308 C309 1.400 . S
C309 C303 1.491 . S
C309 C308 1.400 . S
C309 C310 1.398 . S
C310 H298 0.950 . S
C310 C309 1.398 . S
C310 C311 1.391 . S
C311 H299 0.950 . S
C311 C307 1.393 . S
C311 C310 1.391 . S
H312 C320 0.950 . S
H313 C325 0.950 . S
H314 C322 0.950 . S
H315 C324 0.950 . S
H316 C326 0.950 . S
H317 C328 0.950 . S
H318 C330 0.950 . S
H319 C331 0.950 . S
C320 H312 0.950 . S
C320 C321 1.386 . S
C320 C322 1.391 . S
C321 C320 1.386 . S
C321 C325 1.393 . S
C322 H314 0.950 . S
C322 C320 1.391 . S
C322 C323 1.400 . S
C323 C322 1.400 . S
C323 C324 1.398 . S
C323 C329 1.491 . S
C324 H315 0.950 . S
C324 C323 1.398 . S
C324 C325 1.391 . S
C325 H313 0.950 . S
C325 C321 1.393 . S
C325 C324 1.391 . S
C326 H316 0.950 . S
C326 C327 1.386 . S
C326 C328 1.391 . S
C327 C326 1.386 . S
C327 C331 1.393 . S
C328 H317 0.950 . S
C328 C326 1.391 . S
C328 C329 1.400 . S
C329 C323 1.491 . S
C329 C328 1.400 . S
C329 C330 1.398 . S
C330 H318 0.950 . S
C330 C329 1.398 . S
C330 C331 1.391 . S
C331 H319 0.950 . S
C331 C327 1.393 . S
C331 C330 1.391 . S
H332 C340 0.950 . S
H333 C345 0.950 . S
H334 C342 0.950 . S
H335 C344 0.950 . S
H336 C346 0.950 . S
H337 C348 0.950 . S
H338 C350 0.950 . S
H339 C351 0.950 . S
C340 H332 0.950 . S
C340 C341 1.386 . S
C340 C342 1.391 . S
C341 C340 1.386 . S
C341 C345 1.393 . S
C342 H334 0.950 . S
C342 C340 1.391 . S
C342 C343 1.400 . S
C343 C342 1.400 . S
C343 C344 1.398 . S
C343 C349 1.491 . S
C344 H335 0.950 . S
C344 C343 1.398 . S
C344 C345 1.391 . S
C345 H333 0.950 . S
C345 C341 1.393 . S
C345 C344 1.391 . S
C346 H336 0.950 . S
C346 C347 1.386 . S
C346 C348 1.391 . S
C347 C346 1.386 . S
C347 C351 1.393 . S
C348 H337 0.950 . S
C348 C346 1.391 . S
C348 C349 1.400 . S
C349 C343 1.491 . S
C349 C348 1.400 . S
C349 C350 1.398 . S
C350 H338 0.950 . S
C350 C349 1.398 . S
C350 C351 1.391 . S
C351 H339 0.950 . S
C351 C347 1.393 . S
C351 C350 1.391 . S
H352 C360 0.950 . S
H353 C365 0.950 . S
H354 C362 0.950 . S
H355 C364 0.950 . S
H356 C366 0.950 . S
H357 C368 0.950 . S
H358 C370 0.950 . S
H359 C371 0.950 . S
C360 H352 0.950 . S
C360 C361 1.386 . S
C360 C362 1.391 . S
C361 C360 1.386 . S
C361 C365 1.393 . S
C362 H354 0.950 . S
C362 C360 1.391 . S
C362 C363 1.400 . S
C363 C362 1.400 . S
C363 C364 1.398 . S
C363 C369 1.491 . S
C364 H355 0.950 . S
C364 C363 1.398 . S
C364 C365 1.391 . S
C365 H353 0.950 . S
C365 C361 1.393 . S
C365 C364 1.391 . S
C366 H356 0.950 . S
C366 C367 1.386 . S
C366 C368 1.391 . S
C367 C366 1.386 . S
C367 C371 1.393 . S
C368 H357 0.950 . S
C368 C366 1.391 . S
C368 C369 1.400 . S
C369 C363 1.491 . S
C369 C368 1.400 . S
C369 C370 1.398 . S
C370 H358 0.950 . S
C370 C369 1.398 . S
C370 C371 1.391 . S
C371 H359 0.950 . S
C371 C367 1.393 . S
C371 C370 1.391 . S
H372 C380 0.950 . S
H373 C385 0.950 . S
H374 C382 0.950 . S
H375 C384 0.950 . S
H376 C386 0.950 . S
H377 C388 0.950 . S
H378 C390 0.950 1_554 S
H379 C391 0.950 . S
C380 H372 0.950 . S
C380 C381 1.386 . S
C380 C382 1.391 . S
C381 C380 1.386 . S
C381 C385 1.393 1_455 S
C382 H374 0.950 . S
C382 C380 1.391 . S
C382 C383 1.400 . S
C383 C382 1.400 . S
C383 C384 1.398 1_455 S
C383 C389 1.491 . S
C384 H375 0.950 . S
C384 C383 1.398 1_655 S
C384 C385 1.391 . S
C385 H373 0.950 . S
C385 C381 1.393 1_655 S
C385 C384 1.391 . S
C386 H376 0.950 . S
C386 C387 1.386 1_655 S
C386 C388 1.391 . S
C387 C386 1.386 1_455 S
C387 C391 1.393 . S
C388 H377 0.950 . S
C388 C386 1.391 . S
C388 C389 1.400 1_656 S
C389 C383 1.491 . S
C389 C388 1.400 1_454 S
C389 C390 1.398 1_554 S
C390 H378 0.950 1_556 S
C390 C389 1.398 1_556 S
C390 C391 1.391 . S
C391 H379 0.950 . S
C391 C387 1.393 . S
C391 C390 1.391 . S
H392 C400 0.950 . S
H393 C405 0.950 . S
H394 C402 0.950 . S
H395 C404 0.950 . S
H396 C406 0.950 . S
H397 C408 0.950 . S
H398 C410 0.950 . S
H399 C411 0.950 . S
C400 H392 0.950 . S
C400 C401 1.386 . S
C400 C402 1.391 . S
C401 C400 1.386 . S
C401 C405 1.393 . S
C402 H394 0.950 . S
C402 C400 1.391 . S
C402 C403 1.400 . S
C403 C402 1.400 . S
C403 C404 1.398 . S
C403 C409 1.491 . S
C404 H395 0.950 . S
C404 C403 1.398 . S
C404 C405 1.391 . S
C405 H393 0.950 . S
C405 C401 1.393 . S
C405 C404 1.391 . S
C406 H396 0.950 . S
C406 C407 1.386 . S
C406 C408 1.391 . S
C407 C406 1.386 . S
C407 C411 1.393 . S
C408 H397 0.950 . S
C408 C406 1.391 . S
C408 C409 1.400 . S
C409 C403 1.491 . S
C409 C408 1.400 . S
C409 C410 1.398 . S
C410 H398 0.950 . S
C410 C409 1.398 . S
C410 C411 1.391 . S
C411 H399 0.950 . S
C411 C407 1.393 . S
C411 C410 1.391 . S
H412 C420 0.950 . S
H413 C425 0.950 . S
H414 C422 0.950 . S
H415 C424 0.950 . S
H416 C426 0.950 . S
H417 C428 0.950 . S
H418 C430 0.950 . S
H419 C431 0.950 . S
C420 H412 0.950 . S
C420 C421 1.386 . S
C420 C422 1.391 . S
C421 C420 1.386 . S
C421 C425 1.393 . S
C422 H414 0.950 . S
C422 C420 1.391 . S
C422 C423 1.400 . S
C423 C422 1.400 . S
C423 C424 1.398 . S
C423 C429 1.491 . S
C424 H415 0.950 . S
C424 C423 1.398 . S
C424 C425 1.391 . S
C425 H413 0.950 . S
C425 C421 1.393 . S
C425 C424 1.391 . S
C426 H416 0.950 . S
C426 C427 1.386 . S
C426 C428 1.391 . S
C427 C426 1.386 . S
C427 C431 1.393 . S
C428 H417 0.950 . S
C428 C426 1.391 . S
C428 C429 1.400 . S
C429 C423 1.491 . S
C429 C428 1.400 . S
C429 C430 1.398 . S
C430 H418 0.950 . S
C430 C429 1.398 . S
C430 C431 1.391 . S
C431 H419 0.950 . S
C431 C427 1.393 . S
C431 C430 1.391 . S
H432 C440 0.950 . S
H433 C445 0.950 . S
H434 C442 0.950 . S
H435 C444 0.950 . S
H436 C446 0.950 . S
H437 C448 0.950 . S
H438 C450 0.950 . S
H439 C451 0.950 . S
C440 H432 0.950 . S
C440 C441 1.386 . S
C440 C442 1.391 . S
C441 C440 1.386 . S
C441 C445 1.393 . S
C442 H434 0.950 . S
C442 C440 1.391 . S
C442 C443 1.400 . S
C443 C442 1.400 . S
C443 C444 1.398 . S
C443 C449 1.491 . S
C444 H435 0.950 . S
C444 C443 1.398 . S
C444 C445 1.391 . S
C445 H433 0.950 . S
C445 C441 1.393 . S
C445 C444 1.391 . S
C446 H436 0.950 . S
C446 C447 1.386 . S
C446 C448 1.391 . S
C447 C446 1.386 . S
C447 C451 1.393 . S
C448 H437 0.950 . S
C448 C446 1.391 . S
C448 C449 1.400 . S
C449 C443 1.491 . S
C449 C448 1.400 . S
C449 C450 1.398 . S
C450 H438 0.950 . S
C450 C449 1.398 . S
C450 C451 1.391 . S
C451 H439 0.950 . S
C451 C447 1.393 . S
C451 C450 1.391 . S
H452 C460 0.950 . S
H453 C465 0.950 . S
H454 C462 0.950 . S
H455 C464 0.950 . S
H456 C466 0.950 . S
H457 C468 0.950 . S
H458 C470 0.935 1_556 S
H459 C471 0.950 . S
C460 H452 0.950 . S
C460 C461 1.386 . S
C460 C462 1.391 . S
C461 C460 1.386 . S
C461 C465 1.393 . S
C462 H454 0.950 . S
C462 C460 1.391 . S
C462 C463 1.400 . S
C463 C462 1.400 . S
C463 C464 1.398 . S
C463 C469 1.491 . S
C464 H455 0.950 . S
C464 C463 1.398 . S
C464 C465 1.391 . S
C465 H453 0.950 . S
C465 C461 1.393 . S
C465 C464 1.391 . S
C466 H456 0.950 . S
C466 C467 1.386 . S
C466 C468 1.391 . S
C467 C466 1.386 . S
C467 C471 1.393 . S
C468 H457 0.950 . S
C468 C466 1.391 . S
C468 C469 1.400 1_554 S
C469 C463 1.491 . S
C469 C468 1.400 1_556 S
C469 C470 1.398 1_556 S
C470 H458 0.935 1_554 S
C470 C469 1.398 1_554 S
C470 C471 1.391 . S
C471 H459 0.950 . S
C471 C467 1.393 . S
C471 C470 1.391 . S
H472 C480 0.950 . S
H473 C485 0.950 . S
H474 C482 0.950 . S
H475 C484 0.950 . S
H476 C486 0.950 . S
H477 C488 0.950 . S
H478 C490 0.950 . S
H479 C491 0.950 . S
C480 H472 0.950 . S
C480 C481 1.386 1_655 S
C480 C482 1.391 . S
C481 C480 1.386 1_455 S
C481 C485 1.393 . S
C482 H474 0.950 . S
C482 C480 1.391 . S
C482 C483 1.400 1_655 S
C483 C482 1.400 1_455 S
C483 C484 1.398 . S
C483 C489 1.491 . S
C484 H475 0.950 . S
C484 C483 1.398 . S
C484 C485 1.391 . S
C485 H473 0.950 . S
C485 C481 1.393 . S
C485 C484 1.391 . S
C486 H476 0.950 . S
C486 C487 1.386 . S
C486 C488 1.391 . S
C487 C486 1.386 . S
C487 C491 1.393 1_455 S
C488 H477 0.950 . S
C488 C486 1.391 . S
C488 C489 1.400 . S
C489 C483 1.491 . S
C489 C488 1.400 . S
C489 C490 1.398 1_455 S
C490 H478 0.950 . S
C490 C489 1.398 1_655 S
C490 C491 1.391 . S
C491 H479 0.950 . S
C491 C487 1.393 1_655 S
C491 C490 1.391 . S
C141 C2 1.627 . S
C147 C126 1.703 . S
C161 C22 1.434 . S
C167 C100 1.501 . S
C181 C44 1.457 . S
C187 C112 1.519 . S
C201 C4 1.325 . S
C207 C124 1.331 . S
C227 C102 1.518 . S
C221 C24 1.424 . S
C247 C114 1.484 . S
C241 C42 1.407 . S
C261 C32 1.398 . S
C267 C76 1.397 . S
C281 C49 1.490 . S
C287 C90 1.521 . S
C301 C9 1.126 . S
C307 C66 1.170 . S
C327 C78 1.186 . S
C321 C29 1.125 . S
C347 C88 1.109 . S
C341 C52 1.069 . S
C361 C12 1.303 . S
C367 C64 1.336 . S
C387 C93 1.499 . S
C381 C18 1.479 . S
C401 C38 1.478 . S
C407 C69 1.468 . S
C421 C58 1.470 . S
C427 C81 1.498 . S
C447 C117 1.522 . S
C441 C39 1.501 . S
C467 C129 1.573 . S
C461 C59 1.555 . S
C481 C19 1.493 . S
C487 C105 1.519 . S
