# Generated by pormake.
# Topology ftw, (4,12)-cn, num edge types: 1
# Building blocks:
#     Node 0, Type 0, BuildingBlock: MIFKUJ_clean_linker_1, # of connection points: 4
#     Node 1, Type 0, BuildingBlock: MIFKUJ_clean_linker_1, # of connection points: 4
#     Node 2, Type 0, BuildingBlock: MIFKUJ_clean_linker_1, # of connection points: 4
#     Node 3, Type 1, BuildingBlock: EZIPEK_clean_sbu_0, # of connection points: 12
#     Edge 4, Type (0, 1), BuildingBlock: XIVTED_clean_linker_0, # of connection points: 2
#     Edge 5, Type (0, 1), BuildingBlock: XIVTED_clean_linker_0, # of connection points: 2
#     Edge 6, Type (0, 1), BuildingBlock: XIVTED_clean_linker_0, # of connection points: 2
#     Edge 7, Type (0, 1), BuildingBlock: XIVTED_clean_linker_0, # of connection points: 2
#     Edge 8, Type (0, 1), BuildingBlock: XIVTED_clean_linker_0, # of connection points: 2
#     Edge 9, Type (0, 1), BuildingBlock: XIVTED_clean_linker_0, # of connection points: 2
#     Edge 10, Type (0, 1), BuildingBlock: XIVTED_clean_linker_0, # of connection points: 2
#     Edge 11, Type (0, 1), BuildingBlock: XIVTED_clean_linker_0, # of connection points: 2
#     Edge 12, Type (0, 1), BuildingBlock: XIVTED_clean_linker_0, # of connection points: 2
#     Edge 13, Type (0, 1), BuildingBlock: XIVTED_clean_linker_0, # of connection points: 2
#     Edge 14, Type (0, 1), BuildingBlock: XIVTED_clean_linker_0, # of connection points: 2
#     Edge 15, Type (0, 1), BuildingBlock: XIVTED_clean_linker_0, # of connection points: 2
# Relax obj value: 0.048
# Max RMSD: 0.168
# Mean RMSD: 0.128
data_MOF--net-ftw--node1-EZIPEK_clean_sbu_0--node2-MIFKUJ_clean_linker_1--edge1-XIVTED_clean_linker_0
_symmetry_space_group_name_H-M    P1
_symmetry_Int_Tables_number       1
_symmetry_cell_setting            triclinic
loop_
_symmetry_equiv_pos_as_xyz
'x, y, z'
_cell_length_a     28.189721
_cell_length_b     29.095383
_cell_length_c     28.373647
_cell_angle_alpha  89.948496
_cell_angle_beta   89.503977
_cell_angle_gamma 90.056831
loop_
_atom_site_label
_atom_site_type_symbol
_atom_site_fract_x
_atom_site_fract_y
_atom_site_fract_z
_atom_type_partial_charge
H0 H 0.05361 0.58974 0.59184 0.0
H1 H 0.0538 0.65214 0.64927 0.0
H2 H 0.91951 0.69991 0.59596 0.0
H3 H 0.91945 0.63718 0.53847 0.0
H4 H -0.0071 0.52285 0.59267 0.0
H5 H 0.03945 0.63544 0.47392 0.0
H6 H 0.04047 0.69741 0.4153 0.0
H7 H 0.90266 0.65426 0.36671 0.0
H8 H 0.90189 0.5926 0.42504 0.0
H9 H 0.90083 0.45775 0.42279 0.0
H10 H 0.90061 0.39535 0.36529 0.0
H11 H 0.03551 0.34828 0.41774 0.0
H12 H 0.03561 0.41095 0.47518 0.0
H13 H 0.96244 0.52449 0.42117 0.0
H14 H 0.90563 0.42893 0.55726 0.0
H15 H 0.90449 0.36627 0.61539 0.0
H16 H 0.05657 0.37681 0.62844 0.0
H17 H 0.0573 0.44011 0.57122 0.0
C18 C -0.01342 0.60862 0.5606 0.0
C19 C 0.02448 0.61401 0.59199 0.0
C20 C 0.02438 0.64956 0.62511 0.0
C21 C -0.01364 0.68072 0.62773 0.0
C22 C 0.94951 0.6767 0.59476 0.0
C23 C 0.94953 0.64091 0.56165 0.0
C24 C -0.0169 0.56605 0.53161 0.0
C25 C -0.01305 0.52345 0.55493 0.0
C26 C 0.9734 0.56641 0.48267 0.0
C27 C 0.97061 0.60922 0.45397 0.0
C28 C 0.00892 0.64009 0.4515 0.0
C29 C 0.00953 0.67543 0.41778 0.0
C30 C 0.97198 0.68034 0.38571 0.0
C31 C 0.93263 0.65086 0.39007 0.0
C32 C 0.93198 0.61579 0.42373 0.0
C33 C 0.96809 0.43908 0.45365 0.0
C34 C 0.93002 0.43355 0.42249 0.0
C35 C 0.93012 0.39805 0.38932 0.0
C36 C 0.96833 0.36711 0.38643 0.0
C37 C 0.00535 0.37126 0.41919 0.0
C38 C 0.00531 0.407 0.45233 0.0
C39 C 0.97186 0.48179 0.48231 0.0
C40 C 0.96819 0.52426 0.45894 0.0
C41 C -0.01884 0.4815 0.53115 0.0
C42 C -0.01839 0.43875 0.5596 0.0
C43 C 0.93879 0.41707 0.57197 0.0
C44 C 0.93813 0.38163 0.60544 0.0
C45 C -0.01957 0.3668 0.62655 0.0
C46 C 0.0235 0.3873 0.61254 0.0
C47 C 0.02399 0.42336 0.57983 0.0
H48 H 0.40676 0.09373 0.42728 0.0
H49 H 0.35283 0.09356 0.36003 0.0
H50 H 0.3804 0.94901 0.33863 0.0
H51 H 0.43479 0.94945 0.40566 0.0
H52 H 0.39407 0.03877 0.50756 0.0
H53 H 0.50441 0.06631 0.38671 0.0
H54 H 0.55774 0.06244 0.31925 0.0
H55 H 0.61762 0.93658 0.37425 0.0
H56 H 0.56076 0.93826 0.43901 0.0
H57 H 0.5546 0.94031 0.57728 0.0
H58 H 0.61027 0.9365 0.64265 0.0
H59 H 0.57624 0.07682 0.6796 0.0
H60 H 0.52043 0.08041 0.6141 0.0
H61 H 0.56445 0.99726 0.50399 0.0
H62 H 0.45228 0.97006 0.6255 0.0
H63 H 0.39883 0.97574 0.69277 0.0
H64 H 0.34231 0.10254 0.63646 0.0
H65 H 0.39935 0.099 0.57199 0.0
C66 C 0.42452 1.02162 0.4211 0.0
C67 C 0.40158 0.06221 0.40765 0.0
C68 C 0.37118 0.06215 0.36924 0.0
C69 C 0.36276 1.02126 0.34448 0.0
C70 C 0.38647 0.98085 0.35743 0.0
C71 C 0.41746 0.9811 0.39541 0.0
C72 C 0.45368 1.02098 0.46376 0.0
C73 C 0.43161 0.03051 0.50691 0.0
C74 C 0.50195 1.00867 0.46254 0.0
C75 C 0.52851 1.0025 0.41793 0.0
C76 C 0.52747 0.03676 0.38315 0.0
C77 C 0.55875 0.03498 0.345 0.0
C78 C 0.59282 0.99983 0.34189 0.0
C79 C 0.59176 0.96404 0.37521 0.0
C80 C 0.55959 0.96521 0.41267 0.0
C81 C 0.53368 1.01068 0.59092 0.0
C82 C 0.55879 0.97005 0.59984 0.0
C83 C 0.59054 0.96794 0.63702 0.0
C84 C 0.59773 1.00649 0.66577 0.0
C85 C 0.57097 0.0465 0.65814 0.0
C86 C 0.53922 0.04863 0.62079 0.0
C87 C 0.50471 1.0142 0.54813 0.0
C88 C 0.52689 1.00543 0.50481 0.0
C89 C 0.45655 0.02729 0.54927 0.0
C90 C 0.42988 0.03416 0.5937 0.0
C91 C 0.42989 1.00012 0.62871 0.0
C92 C 0.39853 1.00297 0.66675 0.0
C93 C 0.36536 0.03898 0.66949 0.0
C94 C 0.36743 0.07444 0.63584 0.0
C95 C 0.39972 0.07221 0.59853 0.0
H96 H 0.56326 0.59303 0.93281 0.0
H97 H 0.62011 0.65634 0.93324 0.0
H98 H 0.56649 0.69941 0.06927 0.0
H99 H 0.50944 0.63582 0.06861 0.0
H100 H 0.56605 0.52521 0.99444 0.0
H101 H 0.4471 0.63605 0.94738 0.0
H102 H 0.38895 0.69857 0.94758 0.0
H103 H 0.33671 0.65309 0.08343 0.0
H104 H 0.39461 0.59078 0.08294 0.0
H105 H 0.38899 0.45961 0.07775 0.0
H106 H 0.33213 0.39738 0.07691 0.0
H107 H 0.39945 0.34262 0.95126 0.0
H108 H 0.45351 0.40809 0.94991 0.0
H109 H 0.39233 0.52382 0.02 0.0
H110 H 0.50547 0.40704 0.06199 0.0
H111 H 0.55979 0.34201 0.05947 0.0
H112 H 0.62819 0.40051 0.93602 0.0
H113 H 0.57089 0.46225 0.93607 0.0
C114 C 0.53206 0.6096 1.00066 0.0
C115 C 0.56321 0.61652 0.96243 0.0
C116 C 0.59592 0.65254 0.96286 0.0
C117 C 0.59829 0.68249 1.0016 0.0
C118 C 0.56539 0.67705 0.0388 0.0
C119 C 0.53265 0.6408 0.03841 0.0
C120 C 0.50364 0.56666 1.00337 0.0
C121 C 0.52782 0.52467 0.99918 0.0
C122 C 0.45422 0.56625 0.01178 0.0
C123 C 0.42522 0.6087 0.01515 0.0
C124 C 0.42394 0.64029 0.97773 0.0
C125 C 0.39056 0.67593 0.97783 0.0
C126 C 0.35774 0.68036 0.01522 0.0
C127 C 0.36081 0.65004 0.05366 0.0
C128 C 0.39413 0.61461 0.05359 0.0
C129 C 0.42569 0.43889 0.01387 0.0
C130 C 0.39167 0.43416 0.05 0.0
C131 C 0.35932 0.39789 0.04977 0.0
C132 C 0.36062 0.36447 0.01391 0.0
C133 C 0.39637 0.368 0.97896 0.0
C134 C 0.42812 0.4051 0.97861 0.0
C135 C 0.45461 0.48171 0.01095 0.0
C136 C 0.43056 0.52388 0.01522 0.0
C137 C 0.50428 0.4821 1.00267 0.0
C138 C 0.53367 0.43967 0.99906 0.0
C139 C 0.53113 0.40499 0.03346 0.0
C140 C 0.56308 0.36813 0.03248 0.0
C141 C 0.59923 0.36575 0.99785 0.0
C142 C 0.60072 0.4001 0.96287 0.0
C143 C 0.56811 0.43611 0.96318 0.0
C144 C 0.97731 0.13619 0.89136 0.0
C145 C -0.01896 0.136 0.1217 0.0
C146 C 0.97685 0.91313 0.89158 0.0
C147 C -0.01683 0.91318 0.12208 0.0
C148 C 0.095 0.91376 1.00364 0.0
C149 C 0.09459 0.13556 1.00065 0.0
C150 C 0.8637 0.91365 0.01143 0.0
C151 C 0.86389 0.1356 0.0102 0.0
C152 C 0.86947 0.02495 0.12474 0.0
C153 C 0.09808 0.0257 0.1145 0.0
C154 C 0.86043 0.02366 0.89876 0.0
C155 C 0.08939 0.0225 0.88863 0.0
Eu156 Eu -0.02077 0.11281 1.00647 0.0
O157 O 0.0225 0.06605 0.04655 0.0
O158 O 0.93596 0.06614 0.96635 0.0
Eu159 Eu 0.0678 0.0247 1.00263 0.0
Eu160 Eu 0.89085 0.02478 0.01063 0.0
O161 O 0.01942 0.06604 0.96288 0.0
O162 O 0.93936 0.06593 0.0503 0.0
Eu163 Eu 0.97606 0.02473 0.91754 0.0
Eu164 Eu -0.01731 0.02451 0.09559 0.0
O165 O 0.01924 0.98334 0.96307 0.0
O166 O 0.02261 0.98317 0.04665 0.0
O167 O 0.93915 0.98318 0.05038 0.0
O168 O 0.93632 0.98337 0.96687 0.0
Eu169 Eu -0.02066 0.93637 0.00684 0.0
O170 O 0.97821 0.15088 0.93607 0.0
O171 O 0.97887 0.15062 0.07698 0.0
O172 O 0.97859 0.89854 0.93634 0.0
O173 O -0.01953 0.89843 0.07745 0.0
O174 O 0.10836 0.95775 1.00258 0.0
O175 O 0.10806 0.09178 0.99696 0.0
O176 O 0.85031 0.95762 0.01328 0.0
O177 O 0.85032 0.09177 0.01314 0.0
O178 O 0.91455 0.02238 0.13809 0.0
O179 O 0.05389 0.02395 0.13147 0.0
O180 O 0.90469 0.02361 0.88172 0.0
O181 O 0.04437 0.02567 0.87517 0.0
O182 O 0.90852 0.89881 0.00849 0.0
O183 O 0.05014 0.89874 1.00539 0.0
O184 O 0.90859 0.1506 1.00643 0.0
O185 O 0.05003 0.15049 1.00603 0.0
O186 O -0.01679 0.09207 0.13529 0.0
O187 O -0.01514 0.95714 0.13544 0.0
O188 O 0.97623 0.09228 0.87768 0.0
O189 O 0.97547 0.95708 0.87791 0.0
O190 O 0.10498 1.02056 0.93264 0.0
O191 O 0.1105 0.02714 0.06916 0.0
O192 O 0.84818 0.02447 0.94415 0.0
O193 O 0.85372 0.02704 0.0808 0.0
H194 H -0.00291 0.2768 0.39119 0.0
H195 H 0.96367 0.22903 0.11479 0.0
H196 H 0.94547 0.37835 0.29334 0.0
H197 H -0.00284 0.12331 0.21614 0.0
H198 H 0.96116 0.28524 0.17887 0.0
H199 H 0.00163 0.2211 0.32666 0.0
C200 C -0.0132 0.28744 0.35616 0.0
C201 C 0.97062 0.33233 0.34786 0.0
C202 C 0.96907 0.24972 0.18703 0.0
C203 C 0.97571 0.26863 0.27363 0.0
C204 C 0.97066 0.21755 0.15038 0.0
C205 C -0.01949 0.17114 0.15985 0.0
C206 C 0.97766 0.23556 0.23358 0.0
C207 C -0.01085 0.15854 0.2069 0.0
C208 C -0.0108 0.25555 0.31932 0.0
C209 C 0.95742 0.34397 0.30166 0.0
N210 N -0.01245 0.19048 0.24185 0.0
N211 N 0.96034 0.31243 0.26638 0.0
H212 H 0.63958 0.93 0.29529 0.0
H213 H 0.80129 0.08847 0.13775 0.0
H214 H 0.638 0.07781 0.31158 0.0
H215 H 0.85423 0.96011 0.19195 0.0
H216 H 0.73304 0.08274 0.19155 0.0
H217 H 0.71077 0.93725 0.24588 0.0
C218 C 0.65395 0.9639 0.28848 0.0
C219 C 0.6326 1.00334 0.3077 0.0
C220 C 0.75991 0.05614 0.19199 0.0
C221 C 0.71305 1.01161 0.2508 0.0
C222 C 0.79861 0.05945 0.16158 0.0
C223 C 0.83298 0.02486 0.16121 0.0
C224 C 0.75523 1.0173 0.22091 0.0
C225 C 0.82836 0.9876 0.19206 0.0
C226 C 0.69449 0.9679 0.2604 0.0
C227 C 0.65238 0.04646 0.29681 0.0
N228 N 0.78952 0.98437 0.22048 0.0
N229 N 0.69142 0.04945 0.26887 0.0
H230 H 0.94659 0.66789 0.29353 0.0
H231 H 0.00426 0.92649 0.21527 0.0
H232 H 0.004 0.76989 0.38752 0.0
H233 H 0.96383 0.82026 0.11722 0.0
H234 H 0.00279 0.87006 0.27874 0.0
H235 H 0.95061 0.72356 0.22912 0.0
C236 C 0.95975 0.70213 0.30076 0.0
C237 C 0.97463 0.71425 0.34627 0.0
C238 C -0.00565 0.859 0.24336 0.0
C239 C -0.02018 0.77825 0.27217 0.0
C240 C -0.00495 0.89129 0.20692 0.0
C241 C -0.01605 0.87833 0.16054 0.0
C242 C -0.01781 0.8132 0.23375 0.0
C243 C 0.9727 0.83198 0.15225 0.0
C244 C 0.96237 0.73382 0.26379 0.0
C245 C -0.00766 0.75888 0.35308 0.0
N246 N 0.97189 0.8012 0.18849 0.0
N247 N -0.00578 0.78926 0.31654 0.0
H248 H 0.35461 0.07828 0.26867 0.0
H249 H 0.09695 0.99012 0.20352 0.0
H250 H 0.28822 0.96262 0.33799 0.0
H251 H 0.18735 0.06008 0.10277 0.0
H252 H 0.16314 0.98766 0.25864 0.0
H253 H 0.28988 0.07934 0.21146 0.0
C254 C 0.32649 0.053 0.2715 0.0
C255 C 0.3265 1.02021 0.30766 0.0
C256 C 0.16838 1.00345 0.2244 0.0
C257 C 0.25265 1.02163 0.24349 0.0
C258 C 0.13063 1.00519 0.19316 0.0
C259 C 0.13686 0.02529 0.14864 0.0
C260 C 0.21222 0.02258 0.21116 0.0
C261 C 0.18126 0.04398 0.13671 0.0
C262 C 0.28978 0.05353 0.23899 0.0
C263 C 0.28951 0.98809 0.31016 0.0
N264 N 0.21731 0.04239 0.16797 0.0
N265 N 0.25369 0.98984 0.27866 0.0
H266 H 0.95837 0.77129 0.62259 0.0
H267 H -0.00694 0.81993 0.89873 0.0
H268 H 0.00884 0.66966 0.72094 0.0
H269 H 0.96064 0.9257 0.79709 0.0
H270 H -0.00539 0.76347 0.83489 0.0
H271 H 0.95458 0.82738 0.68686 0.0
C272 C 0.96854 0.76071 0.65768 0.0
C273 C -0.01579 0.71568 0.66619 0.0
C274 C -0.01285 0.79905 0.8266 0.0
C275 C -0.02001 0.77982 0.74011 0.0
C276 C -0.01389 0.83137 0.86312 0.0
C277 C 0.97686 0.87788 0.85351 0.0
C278 C 0.97858 0.81313 0.78001 0.0
C279 C 0.96823 0.89041 0.80643 0.0
C280 C 0.96658 0.79282 0.69436 0.0
C281 C -0.00272 0.70413 0.71245 0.0
N282 N 0.96928 0.85831 0.77159 0.0
N283 N -0.00521 0.73588 0.74756 0.0
H284 H 0.32001 0.11056 0.71482 0.0
H285 H 0.15856 0.95941 0.87892 0.0
H286 H 0.31856 0.96244 0.70141 0.0
H287 H 0.10397 0.08439 0.81827 0.0
H288 H 0.22641 0.9631 0.82444 0.0
H289 H 0.24894 0.10551 0.7647 0.0
C290 C 0.30501 0.07705 0.72231 0.0
C291 C 0.32552 0.03686 0.70379 0.0
C292 C 0.19927 0.98938 0.82278 0.0
C293 C 0.24528 0.03114 0.76134 0.0
C294 C 0.16078 0.98724 0.85356 0.0
C295 C 0.12599 1.02143 0.85225 0.0
C296 C 0.2034 0.02673 0.79182 0.0
C297 C 0.13014 0.05719 0.81949 0.0
C298 C 0.26455 0.07432 0.75069 0.0
C299 C 0.30492 0.99433 0.71562 0.0
N300 N 0.16882 0.05937 0.79074 0.0
N301 N 0.26605 0.99258 0.7439 0.0
H302 H 0.03564 0.28979 0.63504 0.0
H303 H 0.94597 0.22568 0.89476 0.0
H304 H 0.92373 0.36464 0.70535 0.0
H305 H 0.01015 0.12646 0.80099 0.0
H306 H 0.94612 0.28188 0.83007 0.0
H307 H 0.03519 0.2339 0.69989 0.0
C308 C 0.01098 0.2944 0.66415 0.0
C309 C -0.02049 0.33173 0.66474 0.0
C310 C 0.96011 0.24776 0.82377 0.0
C311 C -0.02075 0.2684 0.73931 0.0
C312 C 0.96029 0.21578 0.8607 0.0
C313 C 0.97792 0.17123 0.85327 0.0
C314 C 0.97853 0.23538 0.77936 0.0
C315 C -0.00419 0.16025 0.80827 0.0
C316 C 0.01063 0.26248 0.70103 0.0
C317 C 0.9482 0.33605 0.70328 0.0
N318 N -0.00408 0.19213 0.77318 0.0
N319 N 0.94909 0.30498 0.73919 0.0
H320 H 0.68789 0.97473 0.65474 0.0
H321 H 0.76645 0.04065 0.91537 0.0
H322 H 0.59406 0.03823 0.7565 0.0
H323 H 0.86511 1.00179 0.80496 0.0
H324 H 0.70171 0.0345 0.85954 0.0
H325 H 0.75192 0.97789 0.71188 0.0
C326 C 0.68069 0.98888 0.68937 0.0
C327 C 0.6357 1.00616 0.70111 0.0
C328 C 0.73754 0.02746 0.84752 0.0
C329 C 0.70883 1.01055 0.76623 0.0
C330 C 0.77458 0.03087 0.87937 0.0
C331 C 0.82134 1.02174 0.86478 0.0
C332 C 0.74726 1.01457 0.80085 0.0
C333 C 0.82967 1.00942 0.81767 0.0
C334 C 0.71733 0.99106 0.72177 0.0
C335 C 0.62841 0.02488 0.74606 0.0
N336 N 0.79288 1.00605 0.78736 0.0
N337 N 0.6647 0.02657 0.77711 0.0
H338 H 0.3121 0.32298 0.08774 0.0
H339 H 0.17278 0.13722 0.94359 0.0
H340 H 0.32297 0.32169 0.93555 0.0
H341 H 0.10372 0.21146 0.05631 0.0
H342 H 0.23872 0.19256 0.94574 0.0
H343 H 0.24586 0.26927 0.08297 0.0
C344 C 0.30076 0.3118 0.05327 0.0
C345 C 0.32327 0.3279 0.01193 0.0
C346 C 0.20896 0.19671 0.96978 0.0
C347 C 0.24837 0.26466 0.0068 0.0
C348 C 0.17153 0.16527 0.96867 0.0
C349 C 0.13284 0.17011 0.99969 0.0
C350 C 0.20828 0.23219 1.00318 0.0
C351 C 0.13278 0.20693 0.03155 0.0
C352 C 0.26302 0.28087 0.05077 0.0
C353 C 0.30757 0.31019 0.96855 0.0
N354 N 0.17033 0.23629 0.03295 0.0
N355 N 0.27127 0.27938 0.96715 0.0
H356 H 0.26434 0.6679 0.03901 0.0
H357 H 0.18939 0.92743 0.9843 0.0
H358 H 0.36178 0.77048 0.98596 0.0
H359 H 0.08906 0.82098 0.02209 0.0
H360 H 0.253 0.8709 0.98626 0.0
H361 H 0.20018 0.72401 0.03517 0.0
C362 C 0.27234 0.70238 0.02689 0.0
C363 C 0.31866 0.71459 0.01311 0.0
C364 C 0.21709 0.85985 0.99402 0.0
C365 C 0.24502 0.77897 0.00806 0.0
C366 C 0.1806 0.89217 0.99306 0.0
C367 C 0.13359 0.8791 1.00328 0.0
C368 C 0.20677 0.81399 1.00554 0.0
C369 C 0.12464 0.83273 0.01392 0.0
C370 C 0.23556 0.73431 0.02435 0.0
C371 C 0.32662 0.75949 0.99671 0.0
N372 N 0.1609 0.80193 0.01497 0.0
N373 N 0.29021 0.79009 0.99481 0.0
H374 H 0.64932 0.32685 0.92357 0.0
H375 H 0.78348 0.13534 0.06398 0.0
H376 H 0.6357 0.3207 0.07547 0.0
H377 H 0.85703 0.21347 0.95671 0.0
H378 H 0.71819 0.19113 0.06184 0.0
H379 H 0.7153 0.27289 0.92784 0.0
C380 C 0.65999 0.31457 0.95788 0.0
C381 C 0.63671 0.32932 0.99931 0.0
C382 C 0.74876 0.19602 0.03898 0.0
C383 C 0.71128 0.26578 1.00375 0.0
C384 C 0.78585 0.16432 0.04008 0.0
C385 C 0.82566 0.17012 0.01066 0.0
C386 C 0.75089 0.23281 0.00711 0.0
C387 C 0.82707 0.20813 0.98024 0.0
C388 C 0.69759 0.2835 0.96007 0.0
C389 C 0.65162 0.31025 0.04238 0.0
N390 N 0.78983 0.23781 0.97875 0.0
N391 N 0.68773 0.27929 0.04343 0.0
H392 H 0.59261 0.77237 0.03123 0.0
H393 H 0.87075 0.82068 0.99531 0.0
H394 H 0.69202 0.67161 0.97869 0.0
H395 H 0.7687 0.92667 0.02888 0.0
H396 H 0.80636 0.76447 0.99421 0.0
H397 H 0.6574 0.8284 0.03566 0.0
C398 C 0.62805 0.76202 0.02072 0.0
C399 C 0.6368 0.71733 1.00423 0.0
C400 C 0.79809 0.80005 1.00185 0.0
C401 C 0.71111 0.78117 0.00923 0.0
C402 C 0.83492 0.8322 1.00264 0.0
C403 C 0.82531 0.87867 0.01204 0.0
C404 C 0.75124 0.81428 0.01077 0.0
C405 C 0.77797 0.89137 0.02117 0.0
C406 C 0.66498 0.79404 0.02307 0.0
C407 C 0.68342 0.70589 0.99083 0.0
N408 N 0.7428 0.8594 0.0203 0.0
N409 N 0.71875 0.73753 0.99368 0.0
loop_
_geom_bond_atom_site_label_1
_geom_bond_atom_site_label_2
_geom_bond_distance
_geom_bond_site_symmetry_2
_ccdc_geom_bond_type
H0 C19 0.949 . S
H1 C20 0.950 . S
H2 C22 0.950 . S
H3 C23 0.950 . S
H4 C25 0.950 . S
H5 C28 0.950 . S
H6 C29 0.950 . S
H7 C31 0.951 . S
H8 C32 0.949 . S
H9 C34 0.949 . S
H10 C35 0.950 . S
H11 C37 0.950 . S
H12 C38 0.950 . S
H13 C40 0.950 . S
H14 C43 0.950 . S
H15 C44 0.950 . S
H16 C46 0.951 . S
H17 C47 0.949 . S
C18 C19 1.376 . S
C18 C23 1.386 1_455 S
C18 C24 1.483 . S
C19 H0 0.949 . S
C19 C18 1.376 . S
C19 C20 1.397 . S
C20 H1 0.950 . S
C20 C19 1.397 . S
C20 C21 1.391 . S
C21 C20 1.391 . S
C21 C22 1.405 1_455 S
C22 H2 0.950 . S
C22 C21 1.405 1_655 S
C22 C23 1.367 . S
C23 H3 0.950 . S
C23 C18 1.386 1_655 S
C23 C22 1.367 . S
C24 C18 1.483 . S
C24 C25 1.382 . S
C24 C26 1.403 1_455 S
C25 H4 0.950 . S
C25 C24 1.382 . S
C25 C41 1.411 . S
C26 C24 1.403 1_655 S
C26 C27 1.489 . S
C26 C40 1.411 . S
C27 C26 1.489 . S
C27 C28 1.383 1_655 S
C27 C32 1.382 . S
C28 H5 0.950 . S
C28 C27 1.383 1_455 S
C28 C29 1.395 . S
C29 H6 0.950 . S
C29 C28 1.395 . S
C29 C30 1.288 1_455 S
C30 C29 1.288 1_655 S
C30 C31 1.392 . S
C31 H7 0.951 . S
C31 C30 1.392 . S
C31 C32 1.392 . S
C32 H8 0.949 . S
C32 C27 1.382 . S
C32 C31 1.392 . S
C33 C34 1.376 . S
C33 C38 1.386 1_655 S
C33 C39 1.483 . S
C34 H9 0.949 . S
C34 C33 1.376 . S
C34 C35 1.397 . S
C35 H10 0.950 . S
C35 C34 1.397 . S
C35 C36 1.391 . S
C36 C35 1.391 . S
C36 C37 1.405 1_655 S
C37 H11 0.950 . S
C37 C36 1.405 1_455 S
C37 C38 1.367 . S
C38 H12 0.950 . S
C38 C33 1.386 1_455 S
C38 C37 1.367 . S
C39 C33 1.483 . S
C39 C40 1.382 . S
C39 C41 1.403 1_655 S
C40 H13 0.950 . S
C40 C26 1.411 . S
C40 C39 1.382 . S
C41 C25 1.411 . S
C41 C39 1.403 1_455 S
C41 C42 1.489 . S
C42 C41 1.489 . S
C42 C43 1.383 1_455 S
C42 C47 1.382 . S
C43 H14 0.950 . S
C43 C42 1.383 1_655 S
C43 C44 1.395 . S
C44 H15 0.950 . S
C44 C43 1.395 . S
C44 C45 1.288 1_655 S
C45 C44 1.288 1_455 S
C45 C46 1.392 . S
C46 H16 0.951 . S
C46 C45 1.392 . S
C46 C47 1.392 . S
C47 H17 0.949 . S
C47 C42 1.382 . S
C47 C46 1.392 . S
H48 C67 0.949 . S
H49 C68 0.950 . S
H50 C70 0.950 . S
H51 C71 0.950 . S
H52 C73 0.950 . S
H53 C76 0.950 . S
H54 C77 0.950 . S
H55 C79 0.951 . S
H56 C80 0.949 . S
H57 C82 0.949 . S
H58 C83 0.950 . S
H59 C85 0.950 . S
H60 C86 0.950 . S
H61 C88 0.950 . S
H62 C91 0.950 . S
H63 C92 0.950 . S
H64 C94 0.951 . S
H65 C95 0.949 . S
C66 C67 1.376 . S
C66 C71 1.386 1_545 S
C66 C72 1.483 . S
C67 H48 0.949 . S
C67 C66 1.376 . S
C67 C68 1.397 . S
C68 H49 0.950 . S
C68 C67 1.397 . S
C68 C69 1.391 . S
C69 C68 1.391 . S
C69 C70 1.405 1_545 S
C70 H50 0.950 . S
C70 C69 1.405 1_565 S
C70 C71 1.367 . S
C71 H51 0.950 . S
C71 C66 1.386 1_565 S
C71 C70 1.367 . S
C72 C66 1.483 . S
C72 C73 1.382 . S
C72 C74 1.403 1_545 S
C73 H52 0.950 . S
C73 C72 1.382 . S
C73 C89 1.411 . S
C74 C72 1.403 1_565 S
C74 C75 1.489 . S
C74 C88 1.411 . S
C75 C74 1.489 . S
C75 C76 1.383 1_565 S
C75 C80 1.382 . S
C76 H53 0.950 . S
C76 C75 1.383 1_545 S
C76 C77 1.395 . S
C77 H54 0.950 . S
C77 C76 1.395 . S
C77 C78 1.288 1_545 S
C78 C77 1.288 1_565 S
C78 C79 1.392 . S
C79 H55 0.951 . S
C79 C78 1.392 . S
C79 C80 1.392 . S
C80 H56 0.949 . S
C80 C75 1.382 . S
C80 C79 1.392 . S
C81 C82 1.376 . S
C81 C86 1.386 1_565 S
C81 C87 1.483 . S
C82 H57 0.949 . S
C82 C81 1.376 . S
C82 C83 1.397 . S
C83 H58 0.950 . S
C83 C82 1.397 . S
C83 C84 1.391 . S
C84 C83 1.391 . S
C84 C85 1.405 1_565 S
C85 H59 0.950 . S
C85 C84 1.405 1_545 S
C85 C86 1.367 . S
C86 H60 0.950 . S
C86 C81 1.386 1_545 S
C86 C85 1.367 . S
C87 C81 1.483 . S
C87 C88 1.382 . S
C87 C89 1.403 1_565 S
C88 H61 0.950 . S
C88 C74 1.411 . S
C88 C87 1.382 . S
C89 C73 1.411 . S
C89 C87 1.403 1_545 S
C89 C90 1.489 . S
C90 C89 1.489 . S
C90 C91 1.383 1_545 S
C90 C95 1.382 . S
C91 H62 0.950 . S
C91 C90 1.383 1_565 S
C91 C92 1.395 . S
C92 H63 0.950 . S
C92 C91 1.395 . S
C92 C93 1.288 1_565 S
C93 C92 1.288 1_545 S
C93 C94 1.392 . S
C94 H64 0.951 . S
C94 C93 1.392 . S
C94 C95 1.392 . S
C95 H65 0.949 . S
C95 C90 1.382 . S
C95 C94 1.392 . S
H96 C115 0.949 . S
H97 C116 0.950 . S
H98 C118 0.950 . S
H99 C119 0.950 . S
H100 C121 0.950 . S
H101 C124 0.950 . S
H102 C125 0.950 . S
H103 C127 0.951 . S
H104 C128 0.949 . S
H105 C130 0.949 . S
H106 C131 0.950 . S
H107 C133 0.950 . S
H108 C134 0.950 . S
H109 C136 0.950 . S
H110 C139 0.950 . S
H111 C140 0.950 . S
H112 C142 0.951 . S
H113 C143 0.949 . S
C114 C115 1.376 . S
C114 C119 1.386 1_556 S
C114 C120 1.483 . S
C115 H96 0.949 . S
C115 C114 1.376 . S
C115 C116 1.397 . S
C116 H97 0.950 . S
C116 C115 1.397 . S
C116 C117 1.391 . S
C117 C116 1.391 . S
C117 C118 1.405 1_556 S
C118 H98 0.950 . S
C118 C117 1.405 1_554 S
C118 C119 1.367 . S
C119 H99 0.950 . S
C119 C114 1.386 1_554 S
C119 C118 1.367 . S
C120 C114 1.483 . S
C120 C121 1.382 . S
C120 C122 1.403 1_556 S
C121 H100 0.950 . S
C121 C120 1.382 . S
C121 C137 1.411 . S
C122 C120 1.403 1_554 S
C122 C123 1.489 . S
C122 C136 1.411 . S
C123 C122 1.489 . S
C123 C124 1.383 1_554 S
C123 C128 1.382 . S
C124 H101 0.950 . S
C124 C123 1.383 1_556 S
C124 C125 1.395 . S
C125 H102 0.950 . S
C125 C124 1.395 . S
C125 C126 1.288 1_556 S
C126 C125 1.288 1_554 S
C126 C127 1.392 . S
C127 H103 0.951 . S
C127 C126 1.392 . S
C127 C128 1.392 . S
C128 H104 0.949 . S
C128 C123 1.382 . S
C128 C127 1.392 . S
C129 C130 1.376 . S
C129 C134 1.386 1_554 S
C129 C135 1.483 . S
C130 H105 0.949 . S
C130 C129 1.376 . S
C130 C131 1.397 . S
C131 H106 0.950 . S
C131 C130 1.397 . S
C131 C132 1.391 . S
C132 C131 1.391 . S
C132 C133 1.405 1_554 S
C133 H107 0.950 . S
C133 C132 1.405 1_556 S
C133 C134 1.367 . S
C134 H108 0.950 . S
C134 C129 1.386 1_556 S
C134 C133 1.367 . S
C135 C129 1.483 . S
C135 C136 1.382 . S
C135 C137 1.403 1_554 S
C136 H109 0.950 . S
C136 C122 1.411 . S
C136 C135 1.382 . S
C137 C121 1.411 . S
C137 C135 1.403 1_556 S
C137 C138 1.489 . S
C138 C137 1.489 . S
C138 C139 1.383 1_556 S
C138 C143 1.382 . S
C139 H110 0.950 . S
C139 C138 1.383 1_554 S
C139 C140 1.395 . S
C140 H111 0.950 . S
C140 C139 1.395 . S
C140 C141 1.288 1_554 S
C141 C140 1.288 1_556 S
C141 C142 1.392 . S
C142 H112 0.951 . S
C142 C141 1.392 . S
C142 C143 1.392 . S
C143 H113 0.949 . S
C143 C138 1.382 . S
C143 C142 1.392 . S
C144 O170 1.283 . S
C144 O188 1.283 . S
C145 O171 1.283 . S
C145 O186 1.283 . S
C146 O172 1.283 . S
C146 O189 1.283 . S
C147 O173 1.283 . S
C147 O187 1.283 . S
C148 O174 1.283 . S
C148 O183 1.283 . S
C149 O175 1.283 . S
C149 O185 1.283 . S
C150 O176 1.283 . S
C150 O182 1.283 . S
C151 O177 1.283 . S
C151 O184 1.283 . S
C152 O178 1.283 . S
C152 O193 1.283 . S
C153 O179 1.283 . S
C153 O191 1.283 . S
C154 O180 1.283 . S
C154 O192 1.283 . S
C155 O181 1.283 . S
C155 O190 1.283 . S
Eu156 O157 2.371 . S
Eu156 O158 2.370 1_454 S
Eu156 O161 2.370 1_554 S
Eu156 O162 2.370 1_455 S
Eu156 O170 2.363 1_554 S
Eu156 O171 2.363 . S
Eu156 O184 2.362 1_455 S
Eu156 O185 2.363 . S
O157 Eu156 2.371 . S
O157 Eu159 2.371 . S
O157 Eu164 2.371 . S
O158 Eu156 2.370 1_656 S
O158 Eu160 2.370 1_556 S
O158 Eu163 2.370 1_655 S
Eu159 O157 2.371 . S
Eu159 O161 2.370 1_554 S
Eu159 O165 2.369 1_544 S
Eu159 O166 2.370 1_545 S
Eu159 O174 2.362 1_545 S
Eu159 O175 2.363 . S
Eu159 O190 2.362 1_554 S
Eu159 O191 2.363 . S
Eu160 O158 2.370 1_554 S
Eu160 O162 2.369 . S
Eu160 O167 2.370 1_545 S
Eu160 O168 2.371 1_544 S
Eu160 O176 2.363 1_545 S
Eu160 O177 2.362 . S
Eu160 O192 2.363 1_554 S
Eu160 O193 2.362 . S
O161 Eu156 2.370 1_556 S
O161 Eu159 2.370 1_556 S
O161 Eu163 2.370 . S
O162 Eu156 2.370 1_655 S
O162 Eu160 2.369 . S
O162 Eu164 2.370 1_655 S
Eu163 O158 2.370 1_455 S
Eu163 O161 2.370 . S
Eu163 O165 2.370 1_545 S
Eu163 O168 2.371 1_445 S
Eu163 O180 2.363 1_455 S
Eu163 O181 2.362 . S
Eu163 O188 2.362 . S
Eu163 O189 2.363 1_545 S
Eu164 O157 2.371 . S
Eu164 O162 2.370 1_455 S
Eu164 O166 2.370 1_545 S
Eu164 O167 2.370 1_445 S
Eu164 O178 2.362 1_455 S
Eu164 O179 2.363 . S
Eu164 O186 2.363 . S
Eu164 O187 2.362 1_545 S
O165 Eu159 2.369 1_566 S
O165 Eu163 2.370 1_565 S
O165 Eu169 2.370 1_556 S
O166 Eu159 2.370 1_565 S
O166 Eu164 2.370 1_565 S
O166 Eu169 2.370 . S
O167 Eu160 2.370 1_565 S
O167 Eu164 2.370 1_665 S
O167 Eu169 2.370 1_655 S
O168 Eu160 2.371 1_566 S
O168 Eu163 2.371 1_665 S
O168 Eu169 2.371 1_656 S
Eu169 O165 2.370 1_554 S
Eu169 O166 2.370 . S
Eu169 O167 2.370 1_455 S
Eu169 O168 2.371 1_454 S
Eu169 O172 2.363 1_554 S
Eu169 O173 2.363 . S
Eu169 O182 2.363 1_455 S
Eu169 O183 2.362 . S
O170 C144 1.283 . S
O170 Eu156 2.363 1_556 S
O171 C145 1.283 . S
O171 Eu156 2.363 . S
O172 C146 1.283 . S
O172 Eu169 2.363 1_556 S
O173 C147 1.283 . S
O173 Eu169 2.363 . S
O174 C148 1.283 . S
O174 Eu159 2.362 1_565 S
O175 C149 1.283 . S
O175 Eu159 2.363 . S
O176 C150 1.283 . S
O176 Eu160 2.363 1_565 S
O177 C151 1.283 . S
O177 Eu160 2.362 . S
O178 C152 1.283 . S
O178 Eu164 2.362 1_655 S
O179 C153 1.283 . S
O179 Eu164 2.363 . S
O180 C154 1.283 . S
O180 Eu163 2.363 1_655 S
O181 C155 1.283 . S
O181 Eu163 2.362 . S
O182 C150 1.283 . S
O182 Eu169 2.363 1_655 S
O183 C148 1.283 . S
O183 Eu169 2.362 . S
O184 C151 1.283 . S
O184 Eu156 2.362 1_655 S
O185 C149 1.283 . S
O185 Eu156 2.363 . S
O186 C145 1.283 . S
O186 Eu164 2.363 . S
O187 C147 1.283 . S
O187 Eu164 2.362 1_565 S
O188 C144 1.283 . S
O188 Eu163 2.362 . S
O189 C146 1.283 . S
O189 Eu163 2.363 1_565 S
O190 C155 1.283 . S
O190 Eu159 2.362 1_556 S
O191 C153 1.283 . S
O191 Eu159 2.363 . S
O192 C154 1.283 . S
O192 Eu160 2.363 1_556 S
O193 C152 1.283 . S
O193 Eu160 2.362 . S
H194 C200 0.930 . S
H195 C204 0.930 . S
H196 C209 0.929 . S
H197 C207 0.929 . S
H198 C202 0.929 . S
H199 C208 0.929 . S
C200 H194 0.930 . S
C200 C201 1.367 . S
C200 C208 1.378 . S
C201 C200 1.367 . S
C201 C209 1.433 1_655 S
C202 H198 0.929 . S
C202 C204 1.378 . S
C202 C206 1.353 . S
C203 C206 1.462 1_655 S
C203 C208 1.352 . S
C203 N211 1.426 1_655 S
C204 H195 0.930 . S
C204 C202 1.378 . S
C204 C205 1.369 . S
C205 C204 1.369 . S
C205 C207 1.431 1_455 S
C206 C202 1.353 . S
C206 C203 1.462 1_455 S
C206 N210 1.424 1_455 S
C207 H197 0.929 . S
C207 C205 1.431 1_655 S
C207 N210 1.384 . S
C208 H199 0.929 . S
C208 C200 1.378 . S
C208 C203 1.352 . S
C209 H196 0.929 . S
C209 C201 1.433 1_455 S
C209 N211 1.384 . S
N210 C206 1.424 1_655 S
N210 C207 1.384 . S
N211 C203 1.426 1_455 S
N211 C209 1.384 . S
H212 C218 0.930 . S
H213 C222 0.930 . S
H214 C227 0.929 . S
H215 C225 0.929 . S
H216 C220 0.929 . S
H217 C226 0.929 . S
C218 H212 0.930 . S
C218 C219 1.386 . S
C218 C226 1.378 . S
C219 C218 1.386 . S
C219 C227 1.414 1_565 S
C220 H216 0.929 . S
C220 C222 1.378 . S
C220 C224 1.350 . S
C221 C224 1.463 1_565 S
C221 C226 1.350 . S
C221 N229 1.427 1_565 S
C222 H213 0.930 . S
C222 C220 1.378 . S
C222 C223 1.367 . S
C223 C222 1.367 . S
C223 C225 1.433 1_545 S
C224 C220 1.350 . S
C224 C221 1.463 1_545 S
C224 N228 1.427 1_545 S
C225 H215 0.929 . S
C225 C223 1.433 1_565 S
C225 N228 1.384 . S
C226 H217 0.929 . S
C226 C218 1.378 . S
C226 C221 1.350 . S
C227 H214 0.929 . S
C227 C219 1.414 1_545 S
C227 N229 1.384 . S
N228 C224 1.427 1_565 S
N228 C225 1.384 . S
N229 C221 1.427 1_545 S
N229 C227 1.384 . S
H230 C236 0.930 . S
H231 C240 0.930 . S
H232 C245 0.929 . S
H233 C243 0.929 . S
H234 C238 0.929 . S
H235 C244 0.929 . S
C236 H230 0.930 . S
C236 C237 1.368 . S
C236 C244 1.378 . S
C237 C236 1.368 . S
C237 C245 1.432 1_655 S
C238 H234 0.929 . S
C238 C240 1.378 . S
C238 C242 1.353 . S
C239 C242 1.462 1_655 S
C239 C244 1.352 . S
C239 N247 1.425 1_655 S
C240 H231 0.930 . S
C240 C238 1.378 . S
C240 C241 1.369 . S
C241 C240 1.369 . S
C241 C243 1.431 1_455 S
C242 C238 1.353 . S
C242 C239 1.462 1_455 S
C242 N246 1.424 1_455 S
C243 H233 0.929 . S
C243 C241 1.431 1_655 S
C243 N246 1.384 . S
C244 H235 0.929 . S
C244 C236 1.378 . S
C244 C239 1.352 . S
C245 H232 0.929 . S
C245 C237 1.432 1_455 S
C245 N247 1.384 . S
N246 C242 1.424 1_655 S
N246 C243 1.384 . S
N247 C239 1.425 1_455 S
N247 C245 1.384 . S
H248 C254 0.930 . S
H249 C258 0.930 . S
H250 C263 0.929 . S
H251 C261 0.929 . S
H252 C256 0.929 . S
H253 C262 0.929 . S
C254 H248 0.930 . S
C254 C255 1.390 . S
C254 C262 1.378 . S
C255 C254 1.390 . S
C255 C263 1.410 1_545 S
C256 H252 0.929 . S
C256 C258 1.378 . S
C256 C260 1.350 . S
C257 C260 1.463 1_545 S
C257 C262 1.350 . S
C257 N265 1.427 1_545 S
C258 H249 0.930 . S
C258 C256 1.378 . S
C258 C259 1.384 . S
C259 C258 1.384 . S
C259 C261 1.416 1_565 S
C260 C256 1.350 . S
C260 C257 1.463 1_565 S
C260 N264 1.427 1_565 S
C261 H251 0.929 . S
C261 C259 1.416 1_545 S
C261 N264 1.384 . S
C262 H253 0.929 . S
C262 C254 1.378 . S
C262 C257 1.350 . S
C263 H250 0.929 . S
C263 C255 1.410 1_565 S
C263 N265 1.384 . S
N264 C260 1.427 1_545 S
N264 C261 1.384 . S
N265 C257 1.427 1_565 S
N265 C263 1.384 . S
H266 C272 0.930 . S
H267 C276 0.930 . S
H268 C281 0.929 . S
H269 C279 0.929 . S
H270 C274 0.929 . S
H271 C280 0.929 . S
C272 H266 0.930 . S
C272 C273 1.367 . S
C272 C280 1.378 . S
C273 C272 1.367 . S
C273 C281 1.433 1_655 S
C274 H270 0.929 . S
C274 C276 1.378 . S
C274 C278 1.351 . S
C275 C278 1.462 1_655 S
C275 C280 1.350 . S
C275 N283 1.427 1_655 S
C276 H267 0.930 . S
C276 C274 1.378 . S
C276 C277 1.367 . S
C277 C276 1.367 . S
C277 C279 1.433 1_455 S
C278 C274 1.351 . S
C278 C275 1.462 1_455 S
C278 N282 1.426 1_455 S
C279 H269 0.929 . S
C279 C277 1.433 1_655 S
C279 N282 1.384 . S
C280 H271 0.929 . S
C280 C272 1.378 . S
C280 C275 1.350 . S
C281 H268 0.929 . S
C281 C273 1.433 1_455 S
C281 N283 1.384 . S
N282 C278 1.426 1_655 S
N282 C279 1.384 . S
N283 C275 1.427 1_455 S
N283 C281 1.384 . S
H284 C290 0.930 . S
H285 C294 0.930 . S
H286 C299 0.929 . S
H287 C297 0.929 . S
H288 C292 0.929 . S
H289 C298 0.929 . S
C290 H284 0.930 . S
C290 C291 1.385 . S
C290 C298 1.378 . S
C291 C290 1.385 . S
C291 C299 1.415 1_545 S
C292 H288 0.929 . S
C292 C294 1.378 . S
C292 C296 1.350 . S
C293 C296 1.463 1_545 S
C293 C298 1.350 . S
C293 N301 1.427 1_545 S
C294 H285 0.930 . S
C294 C292 1.378 . S
C294 C295 1.381 . S
C295 C294 1.381 . S
C295 C297 1.419 1_565 S
C296 C292 1.350 . S
C296 C293 1.463 1_565 S
C296 N300 1.427 1_565 S
C297 H287 0.929 . S
C297 C295 1.419 1_545 S
C297 N300 1.384 . S
C298 H289 0.929 . S
C298 C290 1.378 . S
C298 C293 1.350 . S
C299 H286 0.929 . S
C299 C291 1.415 1_565 S
C299 N301 1.384 . S
N300 C296 1.427 1_545 S
N300 C297 1.384 . S
N301 C293 1.427 1_565 S
N301 C299 1.384 . S
H302 C308 0.930 . S
H303 C312 0.930 . S
H304 C317 0.929 . S
H305 C315 0.929 . S
H306 C310 0.929 . S
H307 C316 0.929 . S
C308 H302 0.930 . S
C308 C309 1.367 . S
C308 C316 1.378 . S
C309 C308 1.367 . S
C309 C317 1.433 1_455 S
C310 H306 0.929 . S
C310 C312 1.378 . S
C310 C314 1.350 . S
C311 C314 1.463 1_455 S
C311 C316 1.350 . S
C311 N319 1.427 1_455 S
C312 H303 0.930 . S
C312 C310 1.378 . S
C312 C313 1.383 . S
C313 C312 1.383 . S
C313 C315 1.417 1_655 S
C314 C310 1.350 . S
C314 C311 1.463 1_655 S
C314 N318 1.427 1_655 S
C315 H305 0.929 . S
C315 C313 1.417 1_455 S
C315 N318 1.384 . S
C316 H307 0.929 . S
C316 C308 1.378 . S
C316 C311 1.350 . S
C317 H304 0.929 . S
C317 C309 1.433 1_655 S
C317 N319 1.384 . S
N318 C314 1.427 1_455 S
N318 C315 1.384 . S
N319 C311 1.427 1_655 S
N319 C317 1.384 . S
H320 C326 0.930 . S
H321 C330 0.930 . S
H322 C335 0.929 . S
H323 C333 0.929 . S
H324 C328 0.929 . S
H325 C334 0.929 . S
C326 H320 0.930 . S
C326 C327 1.377 . S
C326 C334 1.378 . S
C327 C326 1.377 . S
C327 C335 1.423 1_565 S
C328 H324 0.929 . S
C328 C330 1.378 . S
C328 C332 1.350 . S
C329 C332 1.462 1_565 S
C329 C334 1.367 . S
C329 N337 1.410 1_565 S
C330 H321 0.930 . S
C330 C328 1.378 . S
C330 C331 1.380 . S
C331 C330 1.380 . S
C331 C333 1.420 1_545 S
C332 C328 1.350 . S
C332 C329 1.462 1_545 S
C332 N336 1.427 1_545 S
C333 H323 0.929 . S
C333 C331 1.420 1_565 S
C333 N336 1.384 . S
C334 H325 0.929 . S
C334 C326 1.378 . S
C334 C329 1.367 . S
C335 H322 0.929 . S
C335 C327 1.423 1_545 S
C335 N337 1.384 . S
N336 C332 1.427 1_565 S
N336 C333 1.384 . S
N337 C329 1.410 1_545 S
N337 C335 1.384 . S
H338 C344 0.930 . S
H339 C348 0.930 . S
H340 C353 0.929 . S
H341 C351 0.929 . S
H342 C346 0.929 . S
H343 C352 0.929 . S
C344 H338 0.930 . S
C344 C345 1.367 . S
C344 C352 1.378 . S
C345 C344 1.367 . S
C345 C353 1.433 1_554 S
C346 H342 0.929 . S
C346 C348 1.378 . S
C346 C350 1.350 . S
C347 C350 1.463 1_554 S
C347 C352 1.350 . S
C347 N355 1.427 1_554 S
C348 H339 0.930 . S
C348 C346 1.378 . S
C348 C349 1.384 . S
C349 C348 1.384 . S
C349 C351 1.416 1_556 S
C350 C346 1.350 . S
C350 C347 1.463 1_556 S
C350 N354 1.427 1_556 S
C351 H341 0.929 . S
C351 C349 1.416 1_554 S
C351 N354 1.384 . S
C352 H343 0.929 . S
C352 C344 1.378 . S
C352 C347 1.350 . S
C353 H340 0.929 . S
C353 C345 1.433 1_556 S
C353 N355 1.384 . S
N354 C350 1.427 1_554 S
N354 C351 1.384 . S
N355 C347 1.427 1_556 S
N355 C353 1.384 . S
H356 C362 0.930 . S
H357 C366 0.930 . S
H358 C371 0.929 . S
H359 C369 0.929 . S
H360 C364 0.929 . S
H361 C370 0.929 . S
C362 H356 0.930 . S
C362 C363 1.372 . S
C362 C370 1.378 . S
C363 C362 1.372 . S
C363 C371 1.428 1_554 S
C364 H360 0.929 . S
C364 C366 1.378 . S
C364 C368 1.356 . S
C365 C368 1.462 1_554 S
C365 C370 1.358 . S
C365 N373 1.419 1_554 S
C366 H357 0.930 . S
C366 C364 1.378 . S
C366 C367 1.370 . S
C367 C366 1.370 . S
C367 C369 1.430 1_556 S
C368 C364 1.356 . S
C368 C365 1.462 1_556 S
C368 N372 1.422 1_556 S
C369 H359 0.929 . S
C369 C367 1.430 1_554 S
C369 N372 1.384 . S
C370 H361 0.929 . S
C370 C362 1.378 . S
C370 C365 1.358 . S
C371 H358 0.929 . S
C371 C363 1.428 1_556 S
C371 N373 1.384 . S
N372 C368 1.422 1_554 S
N372 C369 1.384 . S
N373 C365 1.419 1_556 S
N373 C371 1.384 . S
H374 C380 0.930 . S
H375 C384 0.930 . S
H376 C389 0.929 . S
H377 C387 0.929 . S
H378 C382 0.929 . S
H379 C388 0.929 . S
C380 H374 0.930 . S
C380 C381 1.382 . S
C380 C388 1.378 . S
C381 C380 1.382 . S
C381 C389 1.418 1_556 S
C382 H378 0.929 . S
C382 C384 1.378 . S
C382 C386 1.350 . S
C383 C386 1.463 1_556 S
C383 C388 1.350 . S
C383 N391 1.427 1_556 S
C384 H375 0.930 . S
C384 C382 1.378 . S
C384 C385 1.387 . S
C385 C384 1.387 . S
C385 C387 1.413 1_554 S
C386 C382 1.350 . S
C386 C383 1.463 1_554 S
C386 N390 1.427 1_554 S
C387 H377 0.929 . S
C387 C385 1.413 1_556 S
C387 N390 1.384 . S
C388 H379 0.929 . S
C388 C380 1.378 . S
C388 C383 1.350 . S
C389 H376 0.929 . S
C389 C381 1.418 1_554 S
C389 N391 1.384 . S
N390 C386 1.427 1_556 S
N390 C387 1.384 . S
N391 C383 1.427 1_554 S
N391 C389 1.384 . S
H392 C398 0.930 . S
H393 C402 0.930 . S
H394 C407 0.929 . S
H395 C405 0.929 . S
H396 C400 0.929 . S
H397 C406 0.929 . S
C398 H392 0.930 . S
C398 C399 1.384 . S
C398 C406 1.378 . S
C399 C398 1.384 . S
C399 C407 1.416 1_554 S
C400 H396 0.929 . S
C400 C402 1.378 . S
C400 C404 1.350 . S
C401 C404 1.463 1_554 S
C401 C406 1.350 . S
C401 N409 1.427 1_554 S
C402 H393 0.930 . S
C402 C400 1.378 . S
C402 C403 1.381 . S
C403 C402 1.381 . S
C403 C405 1.419 1_556 S
C404 C400 1.350 . S
C404 C401 1.463 1_556 S
C404 N408 1.427 1_556 S
C405 H395 0.929 . S
C405 C403 1.419 1_554 S
C405 N408 1.384 . S
C406 H397 0.929 . S
C406 C398 1.378 . S
C406 C401 1.350 . S
C407 H394 0.929 . S
C407 C399 1.416 1_556 S
C407 N409 1.384 . S
N408 C404 1.427 1_554 S
N408 C405 1.384 . S
N409 C401 1.427 1_556 S
N409 C407 1.384 . S
C205 C145 1.864 . S
C201 C36 1.854 . S
C223 C152 1.264 . S
C219 C78 1.246 . S
C241 C147 1.860 . S
C237 C30 1.833 . S
C259 C153 1.266 1_565 S
C255 C69 1.257 . S
C273 C21 1.857 1_655 S
C277 C146 1.867 . S
C295 C155 1.264 1_565 S
C291 C93 1.245 . S
C309 C45 1.837 . S
C313 C144 1.862 1_655 S
C327 C84 1.258 . S
C331 C154 1.269 . S
C345 C132 1.539 . S
C349 C149 1.541 1_556 S
C363 C126 1.525 . S
C367 C148 1.542 1_556 S
C385 C151 1.542 . S
C381 C141 1.526 . S
C403 C150 1.544 1_556 S
C399 C117 1.545 1_554 S
