# Generated by pormake.
# Topology pyr, (3,6)-cn, num edge types: 1
# Building blocks:
#     Node 0, Type 0, BuildingBlock: ESEHIV_clean_linker_0, # of connection points: 3
#     Node 1, Type 0, BuildingBlock: ESEHIV_clean_linker_0, # of connection points: 3
#     Node 2, Type 0, BuildingBlock: ESEHIV_clean_linker_0, # of connection points: 3
#     Node 3, Type 0, BuildingBlock: ESEHIV_clean_linker_0, # of connection points: 3
#     Node 4, Type 0, BuildingBlock: ESEHIV_clean_linker_0, # of connection points: 3
#     Node 5, Type 0, BuildingBlock: ESEHIV_clean_linker_0, # of connection points: 3
#     Node 6, Type 0, BuildingBlock: ESEHIV_clean_linker_0, # of connection points: 3
#     Node 7, Type 0, BuildingBlock: ESEHIV_clean_linker_0, # of connection points: 3
#     Node 8, Type 1, BuildingBlock: BETDAH_clean_sbu_0, # of connection points: 6
#     Node 9, Type 1, BuildingBlock: BETDAH_clean_sbu_0, # of connection points: 6
#     Node 10, Type 1, BuildingBlock: BETDAH_clean_sbu_0, # of connection points: 6
#     Node 11, Type 1, BuildingBlock: BETDAH_clean_sbu_0, # of connection points: 6
#     Edge 12, Type (0, 1), BuildingBlock: TEMPAE_clean_linker_10, # of connection points: 2
#     Edge 13, Type (0, 1), BuildingBlock: TEMPAE_clean_linker_10, # of connection points: 2
#     Edge 14, Type (0, 1), BuildingBlock: TEMPAE_clean_linker_10, # of connection points: 2
#     Edge 15, Type (0, 1), BuildingBlock: TEMPAE_clean_linker_10, # of connection points: 2
#     Edge 16, Type (0, 1), BuildingBlock: TEMPAE_clean_linker_10, # of connection points: 2
#     Edge 17, Type (0, 1), BuildingBlock: TEMPAE_clean_linker_10, # of connection points: 2
#     Edge 18, Type (0, 1), BuildingBlock: TEMPAE_clean_linker_10, # of connection points: 2
#     Edge 19, Type (0, 1), BuildingBlock: TEMPAE_clean_linker_10, # of connection points: 2
#     Edge 20, Type (0, 1), BuildingBlock: TEMPAE_clean_linker_10, # of connection points: 2
#     Edge 21, Type (0, 1), BuildingBlock: TEMPAE_clean_linker_10, # of connection points: 2
#     Edge 22, Type (0, 1), BuildingBlock: TEMPAE_clean_linker_10, # of connection points: 2
#     Edge 23, Type (0, 1), BuildingBlock: TEMPAE_clean_linker_10, # of connection points: 2
#     Edge 24, Type (0, 1), BuildingBlock: TEMPAE_clean_linker_10, # of connection points: 2
#     Edge 25, Type (0, 1), BuildingBlock: TEMPAE_clean_linker_10, # of connection points: 2
#     Edge 26, Type (0, 1), BuildingBlock: TEMPAE_clean_linker_10, # of connection points: 2
#     Edge 27, Type (0, 1), BuildingBlock: TEMPAE_clean_linker_10, # of connection points: 2
#     Edge 28, Type (0, 1), BuildingBlock: TEMPAE_clean_linker_10, # of connection points: 2
#     Edge 29, Type (0, 1), BuildingBlock: TEMPAE_clean_linker_10, # of connection points: 2
#     Edge 30, Type (0, 1), BuildingBlock: TEMPAE_clean_linker_10, # of connection points: 2
#     Edge 31, Type (0, 1), BuildingBlock: TEMPAE_clean_linker_10, # of connection points: 2
#     Edge 32, Type (0, 1), BuildingBlock: TEMPAE_clean_linker_10, # of connection points: 2
#     Edge 33, Type (0, 1), BuildingBlock: TEMPAE_clean_linker_10, # of connection points: 2
#     Edge 34, Type (0, 1), BuildingBlock: TEMPAE_clean_linker_10, # of connection points: 2
#     Edge 35, Type (0, 1), BuildingBlock: TEMPAE_clean_linker_10, # of connection points: 2
# Relax obj value: 0.134
# Max RMSD: 0.135
# Mean RMSD: 0.064
data_MOF--net-pyr--node1-BETDAH_clean_sbu_0--node2-ESEHIV_clean_linker_0--edge1-TEMPAE_clean_linker_10
_symmetry_space_group_name_H-M    P1
_symmetry_Int_Tables_number       1
_symmetry_cell_setting            triclinic
loop_
_symmetry_equiv_pos_as_xyz
'x, y, z'
_cell_length_a     36.174392
_cell_length_b     38.549544
_cell_length_c     34.744169
_cell_angle_alpha  91.180316
_cell_angle_beta   88.783511
_cell_angle_gamma 102.01216
loop_
_atom_site_label
_atom_site_type_symbol
_atom_site_fract_x
_atom_site_fract_y
_atom_site_fract_z
_atom_type_partial_charge
H0 H 0.32129 0.3475 0.24104 0.0
H1 H 0.37486 0.26052 0.26122 0.0
H2 H 0.40354 0.32353 0.15965 0.0
C3 C 0.3429 0.33269 0.2334 0.0
C4 C 0.36271 0.33935 0.19837 0.0
C5 C 0.34651 0.30387 0.25579 0.0
C6 C 0.37337 0.28385 0.24491 0.0
C7 C 0.39486 0.29099 0.21062 0.0
C8 C 0.38906 0.31882 0.18726 0.0
H9 H 0.21364 0.88178 0.71826 0.0
H10 H 0.28191 0.80477 0.69517 0.0
H11 H 0.24389 0.85886 0.60154 0.0
C12 C 0.22679 0.86622 0.69786 0.0
C13 C 0.22553 0.87249 0.65834 0.0
C14 C 0.24708 0.84179 0.71134 0.0
C15 C 0.26503 0.82268 0.68476 0.0
C16 C 0.26387 0.82866 0.6451 0.0
C17 C 0.24384 0.8534 0.63204 0.0
H18 H 0.69105 0.33896 0.92622 0.0
H19 H 0.69527 0.42331 0.84657 0.0
H20 H 0.60714 0.32851 0.83831 0.0
C21 C 0.67936 0.34964 0.90174 0.0
C22 C 0.64685 0.32938 0.88418 0.0
C23 C 0.69726 0.38335 0.88832 0.0
C24 C 0.68196 0.39706 0.8562 0.0
C25 C 0.6491 0.378 0.83748 0.0
C26 C 0.63173 0.34408 0.85229 0.0
H27 H 0.82386 0.72305 0.42192 0.0
H28 H 0.9142 0.7296 0.33788 0.0
H29 H 0.82238 0.63811 0.33917 0.0
C30 C 0.83635 0.71188 0.39726 0.0
C31 C 0.8186 0.67815 0.38276 0.0
C32 C 0.87064 0.73109 0.3814 0.0
C33 C 0.88793 0.71529 0.35049 0.0
C34 C 0.87051 0.68173 0.33462 0.0
C35 C 0.83589 0.66368 0.35112 0.0
H36 H 0.63682 0.80098 0.81454 0.0
H37 H 0.69654 0.72 0.84189 0.0
H38 H 0.63483 0.76322 0.93074 0.0
C39 C 0.64345 0.78258 0.83514 0.0
C40 C 0.63055 0.78371 0.87365 0.0
C41 C 0.66849 0.76073 0.82401 0.0
C42 C 0.67665 0.73644 0.85028 0.0
C43 C 0.66473 0.73731 0.88882 0.0
C44 C 0.64174 0.76098 0.90042 0.0
H45 H 0.79737 0.29682 0.3633 0.0
H46 H 0.88414 0.23628 0.36938 0.0
H47 H 0.84668 0.28365 0.47194 0.0
C48 C 0.81915 0.28838 0.37951 0.0
C49 C 0.8204 0.29406 0.41955 0.0
C50 C 0.84219 0.26773 0.36105 0.0
C51 C 0.86782 0.25392 0.38296 0.0
C52 C 0.86904 0.25917 0.42301 0.0
C53 C 0.84633 0.28034 0.44087 0.0
H54 H 0.34028 0.73683 0.17843 0.0
H55 H 0.33291 0.65079 0.25672 0.0
H56 H 0.42445 0.74264 0.26548 0.0
C57 C 0.35153 0.72521 0.20255 0.0
C58 C 0.3847 0.74414 0.22017 0.0
C59 C 0.33244 0.69164 0.21545 0.0
C60 C 0.34715 0.67682 0.24722 0.0
C61 C 0.38067 0.6945 0.2658 0.0
C62 C 0.39928 0.7282 0.25148 0.0
H63 H 0.10732 0.34546 0.76634 0.0
H64 H 0.19452 0.35081 0.67869 0.0
H65 H 0.20075 0.43532 0.76248 0.0
C66 C 0.13331 0.35922 0.75273 0.0
C67 C 0.15177 0.39269 0.76806 0.0
C68 C 0.14909 0.34293 0.72105 0.0
C69 C 0.18314 0.36177 0.70415 0.0
C70 C 0.2023 0.39501 0.71865 0.0
C71 C 0.18631 0.40997 0.75078 0.0
Ho72 Ho 0.02213 0.05502 0.51311 0.0
Ho73 Ho 0.99188 1.02146 0.59039 0.0
C74 C 0.03776 0.10174 0.59195 0.0
C75 C 0.03607 0.0848 0.44747 0.0
C76 C 0.06944 0.10995 0.43249 0.0
C77 C 0.06573 0.14307 0.4189 0.0
C78 C 0.0975 0.16733 0.40556 0.0
C79 C 0.13335 0.15861 0.4053 0.0
C80 C 0.13704 0.12564 0.41926 0.0
C81 C 0.10549 0.10162 0.43289 0.0
C82 C 0.07485 1.0365 0.55753 0.0
C83 C 0.9736 0.97329 0.51157 0.0
C84 C 0.9704 0.9798 0.64738 0.0
C85 C 0.93535 0.95318 0.65361 0.0
C86 C 0.93686 0.91988 0.66819 0.0
C87 C 0.90357 0.89452 0.6741 0.0
C88 C 0.86836 0.9023 0.66574 0.0
C89 C 0.86701 0.93528 0.65015 0.0
C90 C 0.90023 0.96039 0.6438 0.0
C91 C 0.94923 0.06187 0.55726 0.0
O92 O 0.02936 0.10205 0.55488 0.0
O93 O 0.03263 0.07127 0.6107 0.0
O94 O 0.04094 0.05271 0.45415 0.0
O95 O 0.01642 0.09712 0.47473 0.0
O96 O 0.08251 0.06174 0.53279 0.0
O97 O 0.04131 1.02024 0.55378 0.0
O98 O 0.96705 0.97649 0.54912 0.0
O99 O 0.99369 1.00001 0.49161 0.0
O100 O 0.96686 1.01283 0.64725 0.0
O101 O 0.99259 0.97245 0.61968 0.0
O102 O 0.95238 0.0596 0.59408 0.0
O103 O 0.96651 0.04071 0.54056 0.0
H104 H 0.03828 0.15015 0.4186 0.0
H105 H 0.09395 0.19254 0.39466 0.0
H106 H 0.16445 0.11846 0.41972 0.0
H107 H 0.10948 0.07655 0.44377 0.0
H108 H 0.96373 0.91367 0.67541 0.0
H109 H 0.90521 0.86935 0.68652 0.0
H110 H 0.84016 0.94177 0.64339 0.0
H111 H 0.89835 0.98561 0.63163 0.0
Ho112 Ho 0.55633 0.04174 0.07291 0.0
Ho113 Ho 0.48494 1.03276 1.03844 0.0
C114 C 0.50359 0.08807 0.10951 0.0
C115 C 0.62747 0.05448 0.08905 0.0
C116 C 0.65466 0.08519 0.10379 0.0
C117 C 0.6436 0.11741 0.11171 0.0
C118 C 0.66843 0.14528 0.12981 0.0
C119 C 0.70469 0.14127 0.14013 0.0
C120 C 0.7162 0.1095 0.13036 0.0
C121 C 0.69128 0.08162 0.1124 0.0
C122 C 0.50454 0.98744 0.10587 0.0
C123 C 0.53846 0.98722 1.00058 0.0
C124 C 0.41343 1.02069 1.02387 0.0
C125 C 0.38627 0.99219 1.00532 0.0
C126 C 0.39685 0.96061 0.99337 0.0
C127 C 0.3724 0.93566 0.97109 0.0
C128 C 0.33721 0.94215 0.96041 0.0
C129 C 0.32593 0.97287 0.97447 0.0
C130 C 0.35037 0.99776 0.99674 0.0
C131 C 0.53651 0.08654 1.00468 0.0
O132 O 0.53928 0.08841 0.1015 0.0
O133 O 0.47708 0.0644 0.0926 0.0
O134 O 0.60063 0.04065 0.11327 0.0
O135 O 0.61487 0.05747 0.0546 0.0
O136 O 0.52826 1.01129 0.12462 0.0
O137 O 0.50918 0.99382 0.07033 0.0
O138 O 0.50257 0.988 1.00613 0.0
O139 O 0.5647 1.00921 1.01989 0.0
O140 O 0.43958 1.0382 1.0011 0.0
O141 O 0.42689 1.013 0.05644 0.0
O142 O 0.51257 0.06253 0.98636 0.0
O143 O 0.53223 0.08061 1.04041 0.0
H144 H 0.61539 0.12061 0.105 0.0
H145 H 0.65895 0.16955 0.13674 0.0
H146 H 0.74377 0.10548 0.13842 0.0
H147 H 0.70015 0.05686 0.10647 0.0
H148 H 0.42457 0.95599 0.99984 0.0
H149 H 0.38198 0.91242 0.96027 0.0
H150 H 0.29885 0.97834 0.96684 0.0
H151 H 0.34183 1.022 1.00594 0.0
Ho152 Ho 0.50617 0.50155 0.52715 0.0
Ho153 Ho 0.51771 0.5634 0.57388 0.0
C154 C 0.54448 0.49917 0.61197 0.0
C155 C 0.51022 0.4448 0.48751 0.0
C156 C 0.53202 0.41695 0.48989 0.0
C157 C 0.54385 0.40705 0.52549 0.0
C158 C 0.57022 0.38533 0.52682 0.0
C159 C 0.58489 0.37318 0.49254 0.0
C160 C 0.57104 0.38137 0.45706 0.0
C161 C 0.54484 0.40316 0.45579 0.0
C162 C 0.44252 0.50665 0.56849 0.0
C163 C 0.4803 0.56661 0.4888 0.0
C164 C 0.5118 0.62112 0.61002 0.0
C165 C 0.49443 0.65037 0.59842 0.0
C166 C 0.46004 0.6433 0.57888 0.0
C167 C 0.44342 0.67097 0.56806 0.0
C168 C 0.46088 0.70633 0.57644 0.0
C169 C 0.49621 0.71342 0.59446 0.0
C170 C 0.51283 0.68558 0.60542 0.0
C171 C 0.58118 0.5587 0.53233 0.0
O172 O 0.54139 0.48602 0.5762 0.0
O173 O 0.53314 0.52895 0.61991 0.0
O174 O 0.48498 0.44582 0.51463 0.0
O175 O 0.53025 0.47617 0.47969 0.0
O176 O 0.44344 0.4985 0.53219 0.0
O177 O 0.47597 0.51299 0.58094 0.0
O178 O 0.48509 0.58054 0.52401 0.0
O179 O 0.48942 0.53574 0.48135 0.0
O180 O 0.54194 0.61775 0.59033 0.0
O181 O 0.48863 0.59073 0.61568 0.0
O182 O 0.58038 0.56673 0.5687 0.0
O183 O 0.54766 0.5521 0.51996 0.0
H184 H 0.53387 0.41722 0.55211 0.0
H185 H 0.58017 0.37912 0.55453 0.0
H186 H 0.58219 0.37281 0.43014 0.0
H187 H 0.53607 0.41071 0.42808 0.0
H188 H 0.44549 0.61633 0.5726 0.0
H189 H 0.41594 0.66445 0.55484 0.0
H190 H 0.51048 0.74042 0.60098 0.0
H191 H 0.53975 0.69151 0.6198 0.0
Ho192 Ho 1.01593 0.50654 0.07067 0.0
Ho193 Ho 1.01244 0.57273 1.03206 0.0
C194 C 0.08682 0.57466 0.0796 0.0
C195 C 0.0369 0.45025 0.09402 0.0
C196 C 0.07399 0.44108 0.09854 0.0
C197 C 0.10698 0.46385 0.08522 0.0
C198 C 0.14235 0.45586 0.09085 0.0
C199 C 0.14544 0.42425 0.10886 0.0
C200 C 0.11198 0.40082 0.12083 0.0
C201 C 0.07665 0.40938 0.11607 0.0
C202 C 0.97628 0.54786 0.11284 0.0
C203 C 0.94144 0.50479 1.02327 0.0
C204 C 0.99212 0.62903 1.00779 0.0
C205 C 0.95551 0.63847 1.00099 0.0
C206 C 0.92176 0.61692 1.01446 0.0
C207 C 0.88698 0.62559 1.00711 0.0
C208 C 0.88531 0.6564 0.98676 0.0
C209 C 0.91944 0.67834 0.97416 0.0
C210 C 0.95416 0.6693 0.98101 0.0
C211 C 0.0518 0.53085 0.99006 0.0
O212 O 0.07539 0.5397 0.0792 0.0
O213 O 0.06524 0.59477 0.06526 0.0
O214 O 0.02926 0.47493 0.11731 0.0
O215 O 0.02768 0.45466 0.05865 0.0
O216 O 0.96765 0.51344 0.11063 0.0
O217 O 1.00647 0.55849 0.09345 0.0
O218 O 0.9529 0.53976 1.02335 0.0
O219 O 0.96294 0.4847 1.03781 0.0
O220 O 1.00109 0.60472 0.98484 0.0
O221 O 0.9993 0.62414 1.04367 0.0
O222 O 0.06085 0.56526 0.9923 0.0
O223 O 0.02152 0.52069 1.00935 0.0
H224 H 0.10549 0.4879 0.07051 0.0
H225 H 0.16722 0.47483 0.08154 0.0
H226 H 0.11294 0.37575 0.13381 0.0
H227 H 0.05141 0.39118 0.12597 0.0
H228 H 0.92225 0.59338 1.03063 0.0
H229 H 0.86141 0.60782 1.01692 0.0
H230 H 0.9194 0.70267 0.95917 0.0
H231 H 0.97998 0.68645 0.97078 0.0
C232 C 0.32589 0.27677 0.31997 0.0
C233 C 0.31683 0.29006 0.28493 0.0
C234 C 0.29732 0.25886 0.34473 0.0
C235 C 0.25905 0.25376 0.33375 0.0
C236 C 0.24974 0.26872 0.29936 0.0
C237 C 0.27872 0.28666 0.27543 0.0
C238 C 0.30819 0.24374 0.38153 0.0
C239 C 0.20934 0.26357 0.28633 0.0
C240 C 0.18985 0.17008 0.36172 0.0
C241 C 0.16672 0.18299 0.38891 0.0
C242 C 0.22079 0.19273 0.34456 0.0
C243 C 0.22904 0.22914 0.3552 0.0
C244 C 0.20651 0.24215 0.38358 0.0
C245 C 0.17528 0.21891 0.3999 0.0
C246 C 0.24376 0.17791 0.31393 0.0
C247 C 0.21486 0.2807 0.39599 0.0
H248 H 0.35531 0.2795 0.32744 0.0
H249 H 0.27147 0.2962 0.24803 0.0
H250 H 0.28989 0.24946 0.40588 0.0
H251 H 0.304 0.21449 0.37845 0.0
H252 H 0.3382 0.25453 0.38878 0.0
H253 H 0.20663 0.27983 0.26091 0.0
H254 H 0.1986 0.23523 0.27859 0.0
H255 H 0.19094 0.27055 0.30991 0.0
H256 H 0.18301 0.14234 0.353 0.0
H257 H 0.15757 0.22876 0.42128 0.0
H258 H 0.27414 0.18419 0.32126 0.0
H259 H 0.24098 0.19042 0.28594 0.0
H260 H 0.23462 0.1487 0.31027 0.0
H261 H 0.24507 0.28933 0.40355 0.0
H262 H 0.1971 0.28582 0.42109 0.0
H263 H 0.20962 0.29731 0.37182 0.0
C264 C 0.22613 0.84099 0.78052 0.0
C265 C 0.25502 0.84141 0.75289 0.0
C266 C 0.23474 0.84933 0.81925 0.0
C267 C 0.27305 0.85899 0.83008 0.0
C268 C 0.30205 0.85605 0.80297 0.0
C269 C 0.29263 0.84712 0.76467 0.0
C270 C 0.20302 0.85096 0.84768 0.0
C271 C 0.34331 0.86623 0.81326 0.0
C272 C 0.30348 0.93631 0.89845 0.0
C273 C 0.31512 0.91986 0.93025 0.0
C274 C 0.28784 0.91643 0.86649 0.0
C275 C 0.28331 0.87905 0.8665 0.0
C276 C 0.29269 0.86202 0.89953 0.0
C277 C 0.309 0.88274 0.93098 0.0
C278 C 0.27857 0.93575 0.83168 0.0
C279 C 0.28733 0.8222 0.90097 0.0
H280 H 0.19697 0.83606 0.77148 0.0
H281 H 0.31507 0.84768 0.74334 0.0
H282 H 0.20901 0.841 0.87614 0.0
H283 H 0.20024 0.87893 0.85177 0.0
H284 H 0.17558 0.83528 0.8374 0.0
H285 H 0.36193 0.85799 0.79052 0.0
H286 H 0.35147 0.89546 0.81717 0.0
H287 H 0.34846 0.8541 0.84076 0.0
H288 H 0.30866 0.96503 0.89756 0.0
H289 H 0.31777 0.86999 0.95572 0.0
H290 H 0.24905 0.92508 0.82287 0.0
H291 H 0.29737 0.93157 0.80712 0.0
H292 H 0.28205 0.96474 0.83713 0.0
H293 H 0.26019 0.80907 0.8878 0.0
H294 H 0.28786 0.8129 0.93096 0.0
H295 H 0.31042 0.81361 0.88429 0.0
C296 C 0.65759 0.41645 0.7771 0.0
C297 C 0.63345 0.39384 0.80274 0.0
C298 C 0.64364 0.43273 0.74577 0.0
C299 C 0.60425 0.42629 0.73864 0.0
C300 C 0.57972 0.40292 0.76372 0.0
C301 C 0.5944 0.38727 0.79518 0.0
C302 C 0.67129 0.45732 0.72042 0.0
C303 C 0.53762 0.39471 0.75759 0.0
C304 C 0.56435 0.49517 0.68148 0.0
C305 C 0.56038 0.48042 0.64393 0.0
C306 C 0.57843 0.47805 0.71207 0.0
C307 C 0.58883 0.44477 0.70582 0.0
C308 C 0.58491 0.42968 0.66801 0.0
C309 C 0.57108 0.44759 0.63778 0.0
C310 C 0.5823 0.49583 0.7513 0.0
C311 C 0.59524 0.39434 0.65941 0.0
H312 H 0.68782 0.42146 0.78127 0.0
H313 H 0.57492 0.37038 0.81439 0.0
H314 H 0.66877 0.44768 0.6901 0.0
H315 H 0.66457 0.48414 0.72128 0.0
H316 H 0.70102 0.45965 0.72936 0.0
H317 H 0.52231 0.37476 0.77808 0.0
H318 H 0.52647 0.41933 0.76112 0.0
H319 H 0.53143 0.3846 0.72778 0.0
H320 H 0.55644 0.52042 0.68715 0.0
H321 H 0.56852 0.43565 0.60926 0.0
H322 H 0.61213 0.50028 0.76051 0.0
H323 H 0.56495 0.47835 0.7728 0.0
H324 H 0.57336 0.52171 0.75173 0.0
H325 H 0.62558 0.396 0.66529 0.0
H326 H 0.58985 0.38555 0.62902 0.0
H327 H 0.57877 0.37386 0.67859 0.0
C328 C 0.86597 0.65268 0.2681 0.0
C329 C 0.88774 0.66526 0.30054 0.0
C330 C 0.88083 0.63562 0.23665 0.0
C331 C 0.9183 0.62976 0.23758 0.0
C332 C 0.94051 0.64261 0.2702 0.0
C333 C 0.92524 0.66051 0.30082 0.0
C334 C 0.85615 0.62358 0.20242 0.0
C335 C 0.98016 0.63646 0.27336 0.0
C336 C 0.93997 0.55206 0.17533 0.0
C337 C 0.96129 0.56917 0.14423 0.0
C338 C 0.9266 0.57133 0.20588 0.0
C339 C 0.93352 0.60898 0.20531 0.0
C340 C 0.95453 0.62641 0.1736 0.0
C341 C 0.96858 0.60645 0.14396 0.0
C342 C 0.90528 0.55124 0.23911 0.0
C343 C 0.96189 0.66624 0.17074 0.0
H344 H 0.83709 0.65635 0.26725 0.0
H345 H 0.94231 0.66976 0.32572 0.0
H346 H 0.87109 0.63402 0.17551 0.0
H347 H 0.85015 0.59422 0.19999 0.0
H348 H 0.82883 0.63242 0.20458 0.0
H349 H 0.99407 0.64836 0.30011 0.0
H350 H 0.9795 0.60754 0.273 0.0
H351 H 0.99762 0.64785 0.24825 0.0
H352 H 0.93424 0.52336 0.17624 0.0
H353 H 0.98496 0.62011 0.12029 0.0
H354 H 0.87614 0.55612 0.24094 0.0
H355 H 0.91925 0.56084 0.26659 0.0
H356 H 0.9036 0.5222 0.23631 0.0
H357 H 0.9347 0.67532 0.17182 0.0
H358 H 0.9774 0.67585 0.14378 0.0
H359 H 0.97862 0.67871 0.19563 0.0
C360 C 0.43923 0.25043 0.22321 0.0
C361 C 0.41866 0.26582 0.19693 0.0
C362 C 0.45693 0.22263 0.21188 0.0
C363 C 0.45457 0.21033 0.17319 0.0
C364 C 0.43585 0.22714 0.14603 0.0
C365 C 0.41784 0.25443 0.15827 0.0
C366 C 0.4765 0.20528 0.24171 0.0
C367 C 0.43322 0.21514 0.10433 0.0
C368 C 0.51815 0.15107 0.13254 0.0
C369 C 0.493 0.11804 0.13107 0.0
C370 C 0.50646 0.1813 0.14727 0.0
C371 C 0.46899 0.17819 0.16152 0.0
C372 C 0.4442 0.14449 0.16212 0.0
C373 C 0.4564 0.11486 0.1465 0.0
C374 C 0.53352 0.21682 0.14551 0.0
C375 C 0.40424 0.13996 0.17775 0.0
H376 H 0.44051 0.25942 0.25301 0.0
H377 H 0.40159 0.2656 0.13777 0.0
H378 H 0.46065 0.17772 0.24621 0.0
H379 H 0.50539 0.2037 0.23158 0.0
H380 H 0.4785 0.21978 0.26981 0.0
H381 H 0.4211 0.23323 0.08616 0.0
H382 H 0.4616 0.21356 0.09257 0.0
H383 H 0.41511 0.18818 0.10206 0.0
H384 H 0.5464 0.15374 0.12028 0.0
H385 H 0.43697 0.08933 0.14553 0.0
H386 H 0.53437 0.23092 0.17372 0.0
H387 H 0.52357 0.2336 0.12406 0.0
H388 H 0.56266 0.21423 0.13718 0.0
H389 H 0.40418 0.15216 0.20695 0.0
H390 H 0.38976 0.11161 0.17934 0.0
H391 H 0.38767 0.15376 0.159 0.0
C392 C 0.18326 0.89459 0.61339 0.0
C393 C 0.20752 0.90088 0.64474 0.0
C394 C 0.16554 0.92109 0.60056 0.0
C395 C 0.17243 0.95461 0.61958 0.0
C396 C 0.19768 0.96144 0.65062 0.0
C397 C 0.21495 0.93439 0.6629 0.0
C398 C 0.13859 0.91287 0.5674 0.0
C399 C 0.20578 0.99696 0.67132 0.0
C400 C 0.13974 1.02523 0.56333 0.0
C401 C 0.10284 1.02174 0.57794 0.0
C402 C 0.16401 1.00505 0.57833 0.0
C403 C 0.15078 0.98132 0.60857 0.0
C404 C 0.11462 0.98015 0.62542 0.0
C405 C 0.09108 1.00049 0.60981 0.0
C406 C 0.20258 1.00717 0.55996 0.0
C407 C 0.09966 0.95551 0.65803 0.0
H408 H 0.17751 0.86866 0.59945 0.0
H409 H 0.23437 0.93945 0.68669 0.0
H410 H 0.1096 0.91422 0.57749 0.0
H411 H 0.14678 0.93287 0.54459 0.0
H412 H 0.13789 0.88612 0.55454 0.0
H413 H 0.22824 0.99877 0.69303 0.0
H414 H 0.21458 1.01861 0.65039 0.0
H415 H 0.1797 1.00152 0.68613 0.0
H416 H 0.14878 0.04191 0.5387 0.0
H417 H 0.06287 0.99876 0.62161 0.0
H418 H 0.20247 0.98289 0.54221 0.0
H419 H 0.22435 1.00846 0.58225 0.0
H420 H 0.21077 1.03058 0.54115 0.0
H421 H 0.09471 0.92763 0.64734 0.0
H422 H 0.07267 0.96058 0.6704 0.0
H423 H 0.12063 0.95831 0.68131 0.0
C424 C 0.7338 0.40603 0.94857 0.0
C425 C 0.73216 0.40384 0.90812 0.0
C426 C 0.76679 0.42348 0.96773 0.0
C427 C 0.79971 0.43895 0.94624 0.0
C428 C 0.79813 0.43719 0.90538 0.0
C429 C 0.7645 0.42003 0.88693 0.0
C430 C 0.76649 0.42509 1.01116 0.0
C431 C 0.83237 0.45274 0.88104 0.0
C432 C 0.87835 0.50826 0.99437 0.0
C433 C 0.9045 0.48786 1.00485 0.0
C434 C 0.84427 0.49283 0.97572 0.0
C435 C 0.83591 0.45598 0.9665 0.0
C436 C 0.86224 0.43528 0.97695 0.0
C437 C 0.89581 0.4513 0.9961 0.0
C438 C 0.81713 0.51609 0.9659 0.0
C439 C 0.85515 0.3961 0.96747 0.0
H440 H 0.70901 0.39409 0.96541 0.0
H441 H 0.76391 0.41834 0.85577 0.0
H442 H 0.78744 0.41062 1.02223 0.0
H443 H 0.77489 0.45304 1.02137 0.0
H444 H 0.73829 0.41336 1.02376 0.0
H445 H 0.82659 0.4499 0.84973 0.0
H446 H 0.84215 0.4813 0.88824 0.0
H447 H 0.85587 0.43937 0.88735 0.0
H448 H 0.88444 0.53646 1.00082 0.0
H449 H 0.91567 0.43511 1.00359 0.0
H450 H 0.78912 0.50577 0.97961 0.0
H451 H 0.81296 0.51552 0.93434 0.0
H452 H 0.82727 0.54407 0.97549 0.0
H453 H 0.82848 0.38234 0.98159 0.0
H454 H 0.87849 0.38369 0.97686 0.0
H455 H 0.85174 0.39176 0.93596 0.0
C456 C 0.77543 0.6212 0.40592 0.0
C457 C 0.78224 0.65819 0.40116 0.0
C458 C 0.74242 0.60266 0.42494 0.0
C459 C 0.7152 0.62131 0.43995 0.0
C460 C 0.72149 0.65847 0.43454 0.0
C461 C 0.75458 0.67629 0.41525 0.0
C462 C 0.73712 0.56311 0.42977 0.0
C463 C 0.69351 0.67967 0.44985 0.0
C464 C 0.61403 0.57315 0.46757 0.0
C465 C 0.61586 0.57136 0.50782 0.0
C466 C 0.64616 0.58847 0.44503 0.0
C467 C 0.68118 0.60249 0.46298 0.0
C468 C 0.68331 0.59978 0.5035 0.0
C469 C 0.65087 0.5843 0.52524 0.0
C470 C 0.64237 0.59045 0.40202 0.0
C471 C 0.71972 0.6142 0.52418 0.0
H472 H 0.79646 0.60672 0.3957 0.0
H473 H 0.75875 0.70464 0.41124 0.0
H474 H 0.73771 0.557 0.46078 0.0
H475 H 0.70911 0.54949 0.41892 0.0
H476 H 0.75939 0.55203 0.41435 0.0
H477 H 0.70172 0.70813 0.44227 0.0
H478 H 0.66505 0.66866 0.43828 0.0
H479 H 0.69124 0.67773 0.48166 0.0
H480 H 0.58721 0.56334 0.45372 0.0
H481 H 0.65279 0.58306 0.55626 0.0
H482 H 0.66424 0.5786 0.38696 0.0
H483 H 0.64708 0.61861 0.39343 0.0
H484 H 0.61406 0.57654 0.39207 0.0
H485 H 0.74282 0.60233 0.51172 0.0
H486 H 0.71729 0.60883 0.55552 0.0
H487 H 0.72803 0.64329 0.52024 0.0
C488 C 0.32617 0.34281 0.14007 0.0
C489 C 0.34748 0.36074 0.17035 0.0
C490 C 0.2979 0.35709 0.12322 0.0
C491 C 0.29165 0.39041 0.13649 0.0
C492 C 0.31684 0.41074 0.16307 0.0
C493 C 0.34423 0.39539 0.1802 0.0
C494 C 0.27155 0.33429 0.09528 0.0
C495 C 0.31206 0.44694 0.17686 0.0
C496 C 0.21364 0.42656 0.08959 0.0
C497 C 0.18329 0.41601 0.1157 0.0
C498 C 0.24947 0.41937 0.09633 0.0
C499 C 0.25477 0.40016 0.12926 0.0
C500 C 0.22431 0.38924 0.15558 0.0
C501 C 0.18927 0.39781 0.14881 0.0
C502 C 0.28151 0.43215 0.06815 0.0
C503 C 0.22861 0.36827 0.19094 0.0
H504 H 0.32842 0.31581 0.13281 0.0
H505 H 0.36067 0.40915 0.20374 0.0
H506 H 0.24497 0.32216 0.11072 0.0
H507 H 0.26406 0.35031 0.07167 0.0
H508 H 0.28412 0.31261 0.08258 0.0
H509 H 0.33825 0.46223 0.19019 0.0
H510 H 0.30432 0.46236 0.15278 0.0
H511 H 0.2889 0.44393 0.19877 0.0
H512 H 0.20944 0.44016 0.06359 0.0
H513 H 0.16658 0.39036 0.16981 0.0
H514 H 0.28963 0.40913 0.05312 0.0
H515 H 0.30676 0.44665 0.08362 0.0
H516 H 0.27382 0.44986 0.0462 0.0
H517 H 0.23857 0.34379 0.18248 0.0
H518 H 0.20171 0.36057 0.20764 0.0
H519 H 0.25014 0.38414 0.21008 0.0
C520 C 0.65312 0.26962 0.91009 0.0
C521 C 0.62972 0.2928 0.89966 0.0
C522 C 0.63842 0.23639 0.92708 0.0
C523 C 0.59901 0.22543 0.93452 0.0
C524 C 0.57509 0.24848 0.9237 0.0
C525 C 0.59057 0.28152 0.90628 0.0
C526 C 0.66529 0.21295 0.93718 0.0
C527 C 0.53303 0.23848 0.93114 0.0
C528 C 0.55667 0.12562 0.94706 0.0
C529 C 0.55393 0.12193 0.98729 0.0
C530 C 0.5712 0.15875 0.92975 0.0
C531 C 0.58302 0.18973 0.95292 0.0
C532 C 0.58028 0.18616 0.99366 0.0
C533 C 0.56616 0.1525 1.01024 0.0
C534 C 0.57394 0.16056 0.88641 0.0
C535 C 0.59198 0.21806 1.01987 0.0
H536 H 0.68332 0.27747 0.90482 0.0
H537 H 0.57204 0.29903 0.89885 0.0
H538 H 0.66363 0.20794 0.96856 0.0
H539 H 0.65709 0.18686 0.92221 0.0
H540 H 0.69506 0.22486 0.92919 0.0
H541 H 0.51813 0.2591 0.9214 0.0
H542 H 0.52107 0.2131 0.91607 0.0
H543 H 0.52726 0.23429 0.96238 0.0
H544 H 0.54739 0.10236 0.9289 0.0
H545 H 0.56405 0.15027 1.04129 0.0
H546 H 0.60366 0.17108 0.87723 0.0
H547 H 0.55681 0.17909 0.87597 0.0
H548 H 0.56403 0.13424 0.87231 0.0
H549 H 0.62245 0.22968 1.01533 0.0
H550 H 0.58693 0.21137 0.05076 0.0
H551 H 0.57611 0.23877 1.01281 0.0
C552 C 0.86396 0.79196 0.40607 0.0
C553 C 0.88736 0.76773 0.39749 0.0
C554 C 0.87809 0.8255 0.42338 0.0
C555 C 0.91681 0.83559 0.43309 0.0
C556 C 0.94077 0.8115 0.42404 0.0
C557 C 0.92593 0.77818 0.40618 0.0
C558 C 0.85132 0.8501 0.43161 0.0
C559 C 0.98207 0.82059 0.43406 0.0
C560 C 0.9601 0.93483 0.45093 0.0
C561 C 0.9584 0.93826 0.49132 0.0
C562 C 0.94686 0.90189 0.43177 0.0
C563 C 0.93181 0.87099 0.45321 0.0
C564 C 0.93021 0.87426 0.49399 0.0
C565 C 0.9432 0.90759 0.51239 0.0
C566 C 0.94877 0.90023 0.38836 0.0
C567 C 0.91485 0.84237 0.5184 0.0
H568 H 0.83425 0.78464 0.39915 0.0
H569 H 0.94437 0.75983 0.4001 0.0
H570 H 0.84955 0.85521 0.46306 0.0
H571 H 0.86212 0.87604 0.41782 0.0
H572 H 0.8224 0.83908 0.42107 0.0
H573 H 0.99724 0.79954 0.42463 0.0
H574 H 0.99598 0.84585 0.42043 0.0
H575 H 0.98496 0.82458 0.46566 0.0
H576 H 0.97169 0.95803 0.43407 0.0
H577 H 0.94184 0.90946 0.54353 0.0
H578 H 0.91999 0.89072 0.37684 0.0
H579 H 0.96606 0.88095 0.37871 0.0
H580 H 0.96111 0.92641 0.3757 0.0
H581 H 0.88497 0.83126 0.51109 0.0
H582 H 0.91628 0.84889 0.5497 0.0
H583 H 0.93101 0.82131 0.51224 0.0
C584 C 0.28894 0.77665 0.62146 0.0
C585 C 0.28804 0.81257 0.61841 0.0
C586 C 0.31786 0.76285 0.60359 0.0
C587 C 0.34645 0.78569 0.58227 0.0
C588 C 0.34326 0.82097 0.57555 0.0
C589 C 0.31403 0.83413 0.59393 0.0
C590 C 0.31984 0.72478 0.61087 0.0
C591 C 0.37259 0.84582 0.55216 0.0
C592 C 0.43768 0.75869 0.60211 0.0
C593 C 0.43931 0.73461 0.57169 0.0
C594 C 0.40959 0.77869 0.60373 0.0
C595 C 0.38252 0.77434 0.57423 0.0
C596 C 0.38685 0.75351 0.54116 0.0
C597 C 0.41532 0.73377 0.54028 0.0
C598 C 0.40638 0.80125 0.63925 0.0
C599 C 0.35935 0.7492 0.50852 0.0
H600 H 0.26835 0.7599 0.63985 0.0
H601 H 0.31334 0.86198 0.59147 0.0
H602 H 0.32558 0.71121 0.58363 0.0
H603 H 0.34341 0.72414 0.63061 0.0
H604 H 0.29328 0.70962 0.6241 0.0
H605 H 0.361 0.86803 0.54083 0.0
H606 H 0.39683 0.85729 0.57071 0.0
H607 H 0.38345 0.83166 0.52769 0.0
H608 H 0.45605 0.75956 0.6265 0.0
H609 H 0.41708 0.71584 0.51621 0.0
H610 H 0.38192 0.78811 0.65722 0.0
H611 H 0.40137 0.82755 0.63122 0.0
H612 H 0.43217 0.80533 0.65699 0.0
H613 H 0.33403 0.72863 0.51601 0.0
H614 H 0.37199 0.74061 0.48146 0.0
H615 H 0.34983 0.77424 0.50337 0.0
C616 C 0.68046 0.77903 0.75484 0.0
C617 C 0.694 0.77037 0.79015 0.0
C618 C 0.70561 0.7955 0.72603 0.0
C619 C 0.74486 0.80424 0.73336 0.0
C620 C 0.75871 0.79323 0.76783 0.0
C621 C 0.73316 0.77633 0.79562 0.0
C622 C 0.68996 0.80566 0.68899 0.0
C623 C 0.80029 0.80236 0.77719 0.0
C624 C 0.82653 0.8417 0.66647 0.0
C625 C 0.83304 0.87767 0.67716 0.0
C626 C 0.79529 0.81759 0.68155 0.0
C627 C 0.77106 0.82975 0.70885 0.0
C628 C 0.7764 0.86644 0.71788 0.0
C629 C 0.80716 0.88999 0.70159 0.0
C630 C 0.78965 0.77891 0.67013 0.0
C631 C 0.75165 0.88053 0.74734 0.0
H632 H 0.65024 0.77428 0.7504 0.0
H633 H 0.74395 0.77038 0.82306 0.0
H634 H 0.6882 0.83404 0.69061 0.0
H635 H 0.70868 0.80214 0.66413 0.0
H636 H 0.66115 0.78972 0.68369 0.0
H637 H 0.80664 0.7894 0.80383 0.0
H638 H 0.81744 0.79424 0.75316 0.0
H639 H 0.80943 0.8315 0.78121 0.0
H640 H 0.84637 0.83232 0.64711 0.0
H641 H 0.81235 0.91783 0.70993 0.0
H642 H 0.75917 0.76701 0.66684 0.0
H643 H 0.80059 0.76426 0.69298 0.0
H644 H 0.80487 0.7751 0.64277 0.0
H645 H 0.72139 0.87096 0.74062 0.0
H646 H 0.75772 0.90998 0.74875 0.0
H647 H 0.75629 0.87059 0.77623 0.0
C648 C 0.82543 0.27682 0.29279 0.0
C649 C 0.83305 0.25423 0.32137 0.0
C650 C 0.80915 0.26301 0.2579 0.0
C651 C 0.79993 0.22581 0.25186 0.0
C652 C 0.80993 0.2031 0.27954 0.0
C653 C 0.82642 0.21759 0.3139 0.0
C654 C 0.79955 0.28807 0.22872 0.0
C655 C 0.8004 0.16323 0.27436 0.0
C656 C 0.71287 0.18126 0.19789 0.0
C657 C 0.72874 0.16816 0.16496 0.0
C658 C 0.73573 0.202 0.22534 0.0
C659 C 0.77545 0.21005 0.21955 0.0
C660 C 0.79145 0.19902 0.18508 0.0
C661 C 0.76788 0.17791 0.15824 0.0
C662 C 0.71752 0.21304 0.26185 0.0
C663 C 0.83358 0.20773 0.17758 0.0
H664 H 0.83071 0.30517 0.29843 0.0
H665 H 0.83161 0.1999 0.33608 0.0
H666 H 0.8069 0.2801 0.19914 0.0
H667 H 0.76867 0.28707 0.22982 0.0
H668 H 0.81445 0.31589 0.23437 0.0
H669 H 0.81322 0.14955 0.29678 0.0
H670 H 0.76926 0.15374 0.27585 0.0
H671 H 0.81026 0.15537 0.24568 0.0
H672 H 0.68268 0.17348 0.20342 0.0
H673 H 0.78016 0.16815 0.13256 0.0
H674 H 0.7276 0.24181 0.26772 0.0
H675 H 0.72566 0.19863 0.28658 0.0
H676 H 0.68618 0.20733 0.26041 0.0
H677 H 0.84547 0.23596 0.18482 0.0
H678 H 0.84087 0.20245 0.1471 0.0
H679 H 0.84741 0.19133 0.19621 0.0
C680 C 0.37108 0.65685 0.32664 0.0
C681 C 0.39581 0.67752 0.29994 0.0
C682 C 0.38447 0.6398 0.35773 0.0
C683 C 0.42388 0.6431 0.36314 0.0
C684 C 0.44906 0.6644 0.33681 0.0
C685 C 0.4349 0.68116 0.30588 0.0
C686 C 0.3562 0.61796 0.38485 0.0
C687 C 0.49123 0.66931 0.34117 0.0
C688 C 0.45886 0.62073 0.46276 0.0
C689 C 0.46537 0.58619 0.45696 0.0
C690 C 0.44594 0.63956 0.43279 0.0
C691 C 0.43859 0.62368 0.39563 0.0
C692 C 0.44498 0.58877 0.3897 0.0
C693 C 0.45827 0.57072 0.42003 0.0
C694 C 0.43982 0.6765 0.44131 0.0
C695 C 0.43769 0.5703 0.35106 0.0
H696 H 0.34088 0.6541 0.32352 0.0
H697 H 0.4547 0.6966 0.28578 0.0
H698 H 0.36025 0.59021 0.38475 0.0
H699 H 0.36084 0.62859 0.41467 0.0
H700 H 0.32654 0.61779 0.37704 0.0
H701 H 0.50728 0.68735 0.31927 0.0
H702 H 0.49945 0.6803 0.37026 0.0
H703 H 0.49961 0.64326 0.3385 0.0
H704 H 0.46415 0.63335 0.49082 0.0
H705 H 0.46306 0.5442 0.41468 0.0
H706 H 0.45058 0.69455 0.41726 0.0
H707 H 0.45396 0.68782 0.46817 0.0
H708 H 0.40908 0.67565 0.44474 0.0
H709 H 0.40767 0.56808 0.34334 0.0
H710 H 0.44401 0.5433 0.35073 0.0
H711 H 0.45526 0.58617 0.32847 0.0
C712 C 0.15812 0.42256 0.83421 0.0
C713 C 0.13561 0.40994 0.80228 0.0
C714 C 0.14424 0.44041 0.86567 0.0
C715 C 0.10705 0.44704 0.86525 0.0
C716 C 0.08412 0.43419 0.83311 0.0
C717 C 0.09839 0.4155 0.8025 0.0
C718 C 0.16964 0.4524 0.89939 0.0
C719 C 0.04473 0.44114 0.83048 0.0
C720 C 0.05847 0.47187 0.95924 0.0
C721 C 0.06633 0.50915 0.9587 0.0
C722 C 0.07188 0.45145 0.92964 0.0
C723 C 0.09278 0.4684 0.89762 0.0
C724 C 0.10032 0.50607 0.89677 0.0
C725 C 0.08761 0.5258 0.92734 0.0
C726 C 0.06391 0.41162 0.93284 0.0
C727 C 0.12152 0.52566 0.8632 0.0
H728 H 0.1868 0.41831 0.83466 0.0
H729 H 0.08077 0.40627 0.77799 0.0
H730 H 0.17621 0.48178 0.90149 0.0
H731 H 0.15501 0.44243 0.92662 0.0
H732 H 0.19665 0.44304 0.89686 0.0
H733 H 0.03026 0.42933 0.80396 0.0
H734 H 0.02744 0.43016 0.85585 0.0
H735 H 0.04602 0.47016 0.83073 0.0
H736 H 0.04208 0.45855 0.98309 0.0
H737 H 0.09376 0.55451 0.92621 0.0
H738 H 0.09082 0.40208 0.93129 0.0
H739 H 0.04652 0.3992 0.90835 0.0
H740 H 0.0488 0.40243 0.96013 0.0
H741 H 0.15042 0.52022 0.86099 0.0
H742 H 0.12383 0.5548 0.86586 0.0
H743 H 0.10705 0.51614 0.83595 0.0
C744 C 0.61998 0.84617 0.87115 0.0
C745 C 0.61056 0.81213 0.88709 0.0
C746 C 0.60426 0.87413 0.88581 0.0
C747 C 0.57954 0.86848 0.91818 0.0
C748 C 0.56889 0.8341 0.93374 0.0
C749 C 0.58411 0.80626 0.91768 0.0
C750 C 0.6158 0.91024 0.86788 0.0
C751 C 0.54312 0.82716 0.96873 0.0
C752 C 0.58351 0.94804 0.98499 0.0
C753 C 0.54935 0.95817 0.97751 0.0
C754 C 0.59326 0.91864 0.96621 0.0
C755 C 0.56872 0.89936 0.93845 0.0
C756 C 0.53456 0.90991 0.93003 0.0
C757 C 0.52499 0.93897 0.95011 0.0
C758 C 0.62961 0.9079 0.97661 0.0
C759 C 0.50825 0.89059 0.89981 0.0
H760 H 0.641 0.85168 0.84822 0.0
H761 H 0.57606 0.78006 0.92986 0.0
H762 H 0.59074 0.92211 0.86388 0.0
H763 H 0.63526 0.92824 0.88731 0.0
H764 H 0.63037 0.90901 0.83956 0.0
H765 H 0.53505 0.79848 0.97538 0.0
H766 H 0.5576 0.84147 0.99405 0.0
H767 H 0.51705 0.83738 0.96451 0.0
H768 H 0.60225 0.96244 1.00652 0.0
H769 H 0.49854 0.94671 0.94429 0.0
H770 H 0.64864 0.90947 0.95097 0.0
H771 H 0.62355 0.87997 0.9862 0.0
H772 H 0.64484 0.92494 0.99986 0.0
H773 H 0.52358 0.89084 0.87178 0.0
H774 H 0.48321 0.90261 0.89607 0.0
H775 H 0.49834 0.86242 0.90776 0.0
C776 C 0.86366 0.21431 0.4738 0.0
C777 C 0.88641 0.23576 0.44671 0.0
C778 C 0.87699 0.18801 0.49296 0.0
C779 C 0.91419 0.18339 0.48518 0.0
C780 C 0.93801 0.20605 0.45921 0.0
C781 C 0.92359 0.2318 0.43975 0.0
C782 C 0.85051 0.16395 0.51996 0.0
C783 C 0.97815 0.20227 0.45101 0.0
C784 C 0.94765 0.12587 0.55801 0.0
C785 C 0.94079 0.09298 0.53871 0.0
C786 C 0.94151 0.15623 0.5399 0.0
C787 C 0.92672 0.15307 0.50233 0.0
C788 C 0.92017 0.11987 0.48262 0.0
C789 C 0.92791 0.09023 0.50094 0.0
C790 C 0.95014 0.19143 0.56122 0.0
C791 C 0.90372 0.11537 0.4428 0.0
H792 H 0.83462 0.21688 0.47858 0.0
H793 H 0.94104 0.24838 0.41867 0.0
H794 H 0.84548 0.13626 0.50863 0.0
H795 H 0.8634 0.16416 0.54865 0.0
H796 H 0.82279 0.17185 0.52366 0.0
H797 H 0.9944 0.22482 0.43425 0.0
H798 H 0.99299 0.20044 0.4783 0.0
H799 H 0.978 0.1774 0.43434 0.0
H800 H 0.95852 0.12801 0.587 0.0
H801 H 0.92311 0.0647 0.48609 0.0
H802 H 0.92334 0.19941 0.56974 0.0
H803 H 0.96625 0.21238 0.54234 0.0
H804 H 0.9667 0.19031 0.58759 0.0
H805 H 0.87499 0.12134 0.4437 0.0
H806 H 0.90171 0.08806 0.43097 0.0
H807 H 0.92125 0.13433 0.42278 0.0
C808 C 0.2645 0.6564 0.21639 0.0
C809 C 0.29706 0.67241 0.1954 0.0
C810 C 0.23063 0.64012 0.19777 0.0
C811 C 0.22898 0.6391 0.15691 0.0
C812 C 0.26204 0.6545 0.13559 0.0
C813 C 0.29529 0.67106 0.15494 0.0
C814 C 0.19628 0.6246 0.22196 0.0
C815 C 0.26228 0.65365 0.09215 0.0
C816 C 0.14996 0.57075 0.10803 0.0
C817 C 0.12387 0.59138 0.09801 0.0
C818 C 0.18413 0.58581 0.12672 0.0
C819 C 0.19268 0.62254 0.13648 0.0
C820 C 0.16645 0.6435 0.12646 0.0
C821 C 0.13276 0.62784 0.10725 0.0
C822 C 0.21114 0.56227 0.13603 0.0
C823 C 0.17375 0.68258 0.13649 0.0
H824 H 0.26517 0.65743 0.24757 0.0
H825 H 0.32021 0.68285 0.13821 0.0
H826 H 0.17292 0.6382 0.21578 0.0
H827 H 0.18631 0.59612 0.21447 0.0
H828 H 0.202 0.62713 0.25329 0.0
H829 H 0.29048 0.66554 0.07964 0.0
H830 H 0.25383 0.62588 0.08141 0.0
H831 H 0.24134 0.66834 0.0815 0.0
H832 H 0.14376 0.54263 0.10121 0.0
H833 H 0.11295 0.6442 0.10011 0.0
H834 H 0.21533 0.56238 0.16757 0.0
H835 H 0.23916 0.57265 0.12238 0.0
H836 H 0.20088 0.53442 0.12602 0.0
H837 H 0.17714 0.68652 0.16805 0.0
H838 H 0.15053 0.69524 0.12731 0.0
H839 H 0.2005 0.69638 0.12254 0.0
C840 C 0.24716 0.45085 0.69496 0.0
C841 C 0.23895 0.41385 0.69982 0.0
C842 C 0.28057 0.46832 0.67574 0.0
C843 C 0.30682 0.44856 0.66073 0.0
C844 C 0.29909 0.41136 0.66625 0.0
C845 C 0.26559 0.39462 0.68564 0.0
C846 C 0.28737 0.50794 0.67073 0.0
C847 C 0.326 0.389 0.65103 0.0
C848 C 0.3724 0.48316 0.57542 0.0
C849 C 0.40756 0.49506 0.59292 0.0
C850 C 0.33952 0.46888 0.59714 0.0
C851 C 0.34136 0.46627 0.63771 0.0
C852 C 0.3766 0.47923 0.65571 0.0
C853 C 0.40915 0.49342 0.6332 0.0
C854 C 0.30289 0.45562 0.57641 0.0
C855 C 0.38014 0.47726 0.69875 0.0
H856 H 0.22694 0.46619 0.70529 0.0
H857 H 0.26031 0.36621 0.68972 0.0
H858 H 0.31561 0.52073 0.68169 0.0
H859 H 0.28721 0.51402 0.63967 0.0
H860 H 0.26562 0.51989 0.68594 0.0
H861 H 0.31671 0.36064 0.65869 0.0
H862 H 0.32838 0.39083 0.61921 0.0
H863 H 0.35464 0.39912 0.66262 0.0
H864 H 0.37068 0.48432 0.54438 0.0
H865 H 0.43607 0.50246 0.64711 0.0
H866 H 0.28043 0.4684 0.58879 0.0
H867 H 0.29349 0.42661 0.58039 0.0
H868 H 0.3056 0.46092 0.54506 0.0
H869 H 0.35891 0.49004 0.71366 0.0
H870 H 0.40874 0.49028 0.70872 0.0
H871 H 0.37427 0.4491 0.70749 0.0
C872 C 0.6868 0.68438 0.91198 0.0
C873 C 0.6846 0.72004 0.91721 0.0
C874 C 0.71514 0.67076 0.9297 0.0
C875 C 0.74217 0.69361 0.95251 0.0
C876 C 0.73769 0.72863 0.9609 0.0
C877 C 0.70872 0.74137 0.94329 0.0
C878 C 0.71834 0.63301 0.92081 0.0
C879 C 0.76596 0.75396 0.98485 0.0
C880 C 0.81808 0.65897 1.00506 0.0
C881 C 0.84825 0.66542 0.97819 0.0
C882 C 0.78308 0.66739 0.99701 0.0
C883 C 0.77834 0.6832 0.96157 0.0
C884 C 0.8086 0.68976 0.93436 0.0
C885 C 0.84294 0.68047 0.94284 0.0
C886 C 0.75129 0.65958 1.02645 0.0
C887 C 0.80482 0.70679 0.89623 0.0
H888 H 0.66815 0.66793 0.89173 0.0
H889 H 0.70736 0.76908 0.94697 0.0
H890 H 0.74111 0.63292 0.89892 0.0
H891 H 0.72592 0.62009 0.9469 0.0
H892 H 0.6916 0.61699 0.9093 0.0
H893 H 0.75518 0.77788 0.99394 0.0
H894 H 0.77334 0.74084 1.01086 0.0
H895 H 0.79235 0.76265 0.96764 0.0
H896 H 0.82192 0.64774 1.03265 0.0
H897 H 0.86563 0.68482 0.92148 0.0
H898 H 0.72574 0.64311 1.01318 0.0
H899 H 0.74367 0.68468 1.03662 0.0
H900 H 0.75887 0.6455 0.05174 0.0
H901 H 0.78184 0.69002 0.87944 0.0
H902 H 0.83131 0.71075 0.87861 0.0
H903 H 0.7971 0.73294 0.90114 0.0
C904 C 0.381 0.80519 0.19594 0.0
C905 C 0.40319 0.78066 0.20548 0.0
C906 C 0.39706 0.83861 0.18005 0.0
C907 C 0.4366 0.84837 0.1728 0.0
C908 C 0.45928 0.82391 0.18265 0.0
C909 C 0.44248 0.79072 0.19902 0.0
C910 C 0.37147 0.86357 0.17093 0.0
C911 C 0.5014 0.83257 0.17528 0.0
C912 C 0.47246 0.92225 0.09896 0.0
C913 C 0.48602 0.95206 0.1226 0.0
C914 C 0.45689 0.88854 0.11472 0.0
C915 C 0.45403 0.88416 0.15533 0.0
C916 C 0.46721 0.91438 0.17923 0.0
C917 C 0.48315 0.94759 0.16271 0.0
C918 C 0.44376 0.85745 0.08777 0.0
C919 C 0.46438 0.91168 0.2225 0.0
H920 H 0.35073 0.79827 0.20111 0.0
H921 H 0.46008 0.77218 0.20579 0.0
H922 H 0.38079 0.88917 0.18659 0.0
H923 H 0.3733 0.86933 0.13972 0.0
H924 H 0.34147 0.85254 0.17883 0.0
H925 H 0.51527 0.81098 0.1843 0.0
H926 H 0.50735 0.83734 0.14415 0.0
H927 H 0.51431 0.85731 0.191 0.0
H928 H 0.47459 0.92511 0.06797 0.0
H929 H 0.49339 0.97026 0.1814 0.0
H930 H 0.41315 0.84663 0.09255 0.0
H931 H 0.45883 0.83591 0.09386 0.0
H932 H 0.44864 0.86476 0.05704 0.0
H933 H 0.43447 0.90208 0.23159 0.0
H934 H 0.47538 0.93751 0.23723 0.0
H935 H 0.48049 0.89207 0.23232 0.0
C936 C 0.09144 0.29434 0.70373 0.0
C937 C 0.13096 0.30633 0.70518 0.0
C938 C 0.07484 0.26092 0.68703 0.0
C939 C 0.09799 0.23851 0.67089 0.0
C940 C 0.13778 0.25016 0.67285 0.0
C941 C 0.15357 0.28334 0.69011 0.0
C942 C 0.03235 0.24975 0.68621 0.0
C943 C 0.16394 0.22771 0.65611 0.0
C944 C 0.05993 0.13833 0.65233 0.0
C945 C 0.05262 0.13663 0.61262 0.0
C946 C 0.07377 0.17108 0.6717 0.0
C947 C 0.08098 0.20338 0.65114 0.0
C948 C 0.07335 0.20181 0.61114 0.0
C949 C 0.05924 0.1688 0.59259 0.0
C950 C 0.08087 0.17108 0.71433 0.0
C951 C 0.08067 0.23509 0.58761 0.0
H952 H 0.0733 0.31144 0.71486 0.0
H953 H 0.18403 0.29125 0.69174 0.0
H954 H 0.02281 0.247 0.65595 0.0
H955 H 0.02307 0.22343 0.69964 0.0
H956 H 0.01813 0.26908 0.70152 0.0
H957 H 0.19421 0.2403 0.65985 0.0
H958 H 0.15828 0.20143 0.66998 0.0
H959 H 0.15865 0.223 0.6249 0.0
H960 H 0.05481 0.11398 0.66843 0.0
H961 H 0.05365 0.16828 0.56204 0.0
H962 H 0.06518 0.18917 0.72972 0.0
H963 H 0.11136 0.18116 0.71978 0.0
H964 H 0.07224 0.1442 0.7267 0.0
H965 H 0.06467 0.25438 0.60006 0.0
H966 H 0.07252 0.22973 0.55707 0.0
H967 H 0.11112 0.24784 0.58846 0.0
C968 C 0.7773 0.33696 0.42472 0.0
C969 C 0.78982 0.308 0.43951 0.0
C970 C 0.7445 0.34666 0.4395 0.0
C971 C 0.72391 0.32693 0.46983 0.0
C972 C 0.73757 0.29896 0.48636 0.0
C973 C 0.7703 0.2897 0.47085 0.0
C974 C 0.73081 0.37683 0.4213 0.0
C975 C 0.71649 0.27751 0.51886 0.0
C976 C 0.64923 0.37087 0.51526 0.0
C977 C 0.6178 0.35599 0.49299 0.0
C978 C 0.68361 0.35994 0.50993 0.0
C979 C 0.68645 0.33375 0.48158 0.0
C980 C 0.65399 0.31666 0.46128 0.0
C981 C 0.61996 0.32797 0.46732 0.0
C982 C 0.71749 0.37829 0.53259 0.0
C983 C 0.65581 0.2882 0.43117 0.0
H984 H 0.79249 0.35127 0.40073 0.0
H985 H 0.77943 0.26685 0.48202 0.0
H986 H 0.70365 0.36642 0.40671 0.0
H987 H 0.72549 0.39621 0.44371 0.0
H988 H 0.7514 0.39096 0.39978 0.0
H989 H 0.73368 0.26036 0.53221 0.0
H990 H 0.70794 0.29515 0.54147 0.0
H991 H 0.6903 0.26031 0.50772 0.0
H992 H 0.64776 0.39269 0.53502 0.0
H993 H 0.59545 0.31605 0.45059 0.0
H994 H 0.73694 0.39681 0.5136 0.0
H995 H 0.73334 0.35876 0.54317 0.0
H996 H 0.70928 0.39366 0.55758 0.0
H997 H 0.67315 0.30011 0.40617 0.0
H998 H 0.62735 0.27521 0.42079 0.0
H999 H 0.66961 0.26762 0.44282 0.0
loop_
_geom_bond_atom_site_label_1
_geom_bond_atom_site_label_2
_geom_bond_distance
_geom_bond_site_symmetry_2
_ccdc_geom_bond_type
H0 C3 0.931 . S
H1 C6 0.928 . S
H2 C8 0.930 . S
C3 H0 0.931 . S
C3 C4 1.413 . S
C3 C5 1.360 . S
C4 C3 1.413 . S
C4 C8 1.429 . S
C5 C3 1.360 . S
C5 C6 1.372 . S
C6 H1 0.928 . S
C6 C5 1.372 . S
C6 C7 1.404 . S
C7 C6 1.404 . S
C7 C8 1.391 . S
C8 H2 0.930 . S
C8 C4 1.429 . S
C8 C7 1.391 . S
H9 C12 0.931 . S
H10 C15 0.928 . S
H11 C17 0.930 . S
C12 H9 0.931 . S
C12 C13 1.413 . S
C12 C14 1.360 . S
C13 C12 1.413 . S
C13 C17 1.429 . S
C14 C12 1.360 . S
C14 C15 1.372 . S
C15 H10 0.928 . S
C15 C14 1.372 . S
C15 C16 1.404 . S
C16 C15 1.404 . S
C16 C17 1.391 . S
C17 H11 0.930 . S
C17 C13 1.429 . S
C17 C16 1.391 . S
H18 C21 0.931 . S
H19 C24 0.928 . S
H20 C26 0.930 . S
C21 H18 0.931 . S
C21 C22 1.413 . S
C21 C23 1.360 . S
C22 C21 1.413 . S
C22 C26 1.429 . S
C23 C21 1.360 . S
C23 C24 1.372 . S
C24 H19 0.928 . S
C24 C23 1.372 . S
C24 C25 1.404 . S
C25 C24 1.404 . S
C25 C26 1.391 . S
C26 H20 0.930 . S
C26 C22 1.429 . S
C26 C25 1.391 . S
H27 C30 0.931 . S
H28 C33 0.928 . S
H29 C35 0.930 . S
C30 H27 0.931 . S
C30 C31 1.413 . S
C30 C32 1.360 . S
C31 C30 1.413 . S
C31 C35 1.429 . S
C32 C30 1.360 . S
C32 C33 1.372 . S
C33 H28 0.928 . S
C33 C32 1.372 . S
C33 C34 1.404 . S
C34 C33 1.404 . S
C34 C35 1.391 . S
C35 H29 0.930 . S
C35 C31 1.429 . S
C35 C34 1.391 . S
H36 C39 0.931 . S
H37 C42 0.928 . S
H38 C44 0.930 . S
C39 H36 0.931 . S
C39 C40 1.413 . S
C39 C41 1.360 . S
C40 C39 1.413 . S
C40 C44 1.429 . S
C41 C39 1.360 . S
C41 C42 1.372 . S
C42 H37 0.928 . S
C42 C41 1.372 . S
C42 C43 1.404 . S
C43 C42 1.404 . S
C43 C44 1.391 . S
C44 H38 0.930 . S
C44 C40 1.429 . S
C44 C43 1.391 . S
H45 C48 0.931 . S
H46 C51 0.928 . S
H47 C53 0.930 . S
C48 H45 0.931 . S
C48 C49 1.413 . S
C48 C50 1.360 . S
C49 C48 1.413 . S
C49 C53 1.429 . S
C50 C48 1.360 . S
C50 C51 1.372 . S
C51 H46 0.928 . S
C51 C50 1.372 . S
C51 C52 1.404 . S
C52 C51 1.404 . S
C52 C53 1.391 . S
C53 H47 0.930 . S
C53 C49 1.429 . S
C53 C52 1.391 . S
H54 C57 0.931 . S
H55 C60 0.928 . S
H56 C62 0.930 . S
C57 H54 0.931 . S
C57 C58 1.413 . S
C57 C59 1.360 . S
C58 C57 1.413 . S
C58 C62 1.429 . S
C59 C57 1.360 . S
C59 C60 1.372 . S
C60 H55 0.928 . S
C60 C59 1.372 . S
C60 C61 1.404 . S
C61 C60 1.404 . S
C61 C62 1.391 . S
C62 H56 0.930 . S
C62 C58 1.429 . S
C62 C61 1.391 . S
H63 C66 0.931 . S
H64 C69 0.928 . S
H65 C71 0.930 . S
C66 H63 0.931 . S
C66 C67 1.413 . S
C66 C68 1.360 . S
C67 C66 1.413 . S
C67 C71 1.429 . S
C68 C66 1.360 . S
C68 C69 1.372 . S
C69 H64 0.928 . S
C69 C68 1.372 . S
C69 C70 1.404 . S
C70 C69 1.404 . S
C70 C71 1.391 . S
C71 H65 0.930 . S
C71 C67 1.429 . S
C71 C70 1.391 . S
Ho72 C75 2.811 . S
Ho72 O92 2.322 . S
Ho72 O94 2.378 . S
Ho72 O95 2.524 . S
Ho72 O96 2.381 1_545 S
Ho72 O97 2.669 1_545 S
Ho72 O99 2.346 1_445 S
Ho72 O103 2.305 1_455 S
Ho73 C84 2.811 . S
Ho73 O93 2.346 1_665 S
Ho73 O97 2.305 1_655 S
Ho73 O98 2.322 . S
Ho73 O100 2.378 . S
Ho73 O101 2.524 . S
Ho73 O102 2.381 1_565 S
Ho73 O103 2.669 1_565 S
C74 O92 1.259 . S
C74 O93 1.268 . S
C75 Ho72 2.811 . S
C75 C76 1.488 . S
C75 O94 1.215 . S
C75 O95 1.289 . S
C76 C75 1.488 . S
C76 C77 1.348 . S
C76 C81 1.413 . S
C77 C76 1.348 . S
C77 C78 1.442 . S
C77 H104 0.930 . S
C78 C77 1.442 . S
C78 C79 1.381 . S
C78 H105 0.931 . S
C79 C78 1.381 . S
C79 C80 1.321 . S
C80 C79 1.321 . S
C80 C81 1.403 . S
C80 H106 0.934 . S
C81 C76 1.413 . S
C81 C80 1.403 . S
C81 H107 0.930 . S
C82 O96 1.275 . S
C82 O97 1.256 . S
C83 O98 1.259 . S
C83 O99 1.268 . S
C84 Ho73 2.811 . S
C84 C85 1.488 . S
C84 O100 1.215 . S
C84 O101 1.289 . S
C85 C84 1.488 . S
C85 C86 1.348 . S
C85 C90 1.413 . S
C86 C85 1.348 . S
C86 C87 1.442 . S
C86 H108 0.930 . S
C87 C86 1.442 . S
C87 C88 1.381 . S
C87 H109 0.931 . S
C88 C87 1.381 . S
C88 C89 1.321 . S
C89 C88 1.321 . S
C89 C90 1.403 . S
C89 H110 0.934 . S
C90 C85 1.413 . S
C90 C89 1.403 . S
C90 H111 0.930 . S
C91 O102 1.275 . S
C91 O103 1.256 . S
O92 Ho72 2.322 . S
O92 C74 1.259 . S
O93 Ho73 2.346 1_445 S
O93 C74 1.268 . S
O94 Ho72 2.378 . S
O94 C75 1.215 . S
O95 Ho72 2.524 . S
O95 C75 1.289 . S
O96 Ho72 2.381 1_565 S
O96 C82 1.275 . S
O97 Ho72 2.669 1_565 S
O97 Ho73 2.305 1_455 S
O97 C82 1.256 . S
O98 Ho73 2.322 . S
O98 C83 1.259 . S
O99 Ho72 2.346 1_665 S
O99 C83 1.268 . S
O100 Ho73 2.378 . S
O100 C84 1.215 . S
O101 Ho73 2.524 . S
O101 C84 1.289 . S
O102 Ho73 2.381 1_545 S
O102 C91 1.275 . S
O103 Ho72 2.305 1_655 S
O103 Ho73 2.669 1_545 S
O103 C91 1.256 . S
H104 C77 0.930 . S
H105 C78 0.931 . S
H106 C80 0.934 . S
H107 C81 0.930 . S
H108 C86 0.930 . S
H109 C87 0.931 . S
H110 C89 0.934 . S
H111 C90 0.930 . S
Ho112 C115 2.798 1_565 S
Ho112 O132 2.307 1_565 S
Ho112 O134 2.376 1_565 S
Ho112 O135 2.501 1_565 S
Ho112 O136 2.401 . S
Ho112 O137 2.679 . S
Ho112 O139 2.362 1_554 S
Ho112 O143 2.286 1_564 S
Ho113 C124 2.811 1_545 S
Ho113 O133 2.346 1_556 S
Ho113 O137 2.305 1_546 S
Ho113 O138 2.322 1_545 S
Ho113 O140 2.378 1_545 S
Ho113 O141 2.524 1_545 S
Ho113 O142 2.381 . S
Ho113 O143 2.669 . S
C114 O132 1.259 . S
C114 O133 1.268 . S
C115 Ho112 2.798 1_545 S
C115 C116 1.488 . S
C115 O134 1.215 . S
C115 O135 1.289 . S
C116 C115 1.488 . S
C116 C117 1.348 . S
C116 C121 1.413 . S
C117 C116 1.348 . S
C117 C118 1.442 . S
C117 H144 0.930 . S
C118 C117 1.442 . S
C118 C119 1.381 . S
C118 H145 0.931 . S
C119 C118 1.381 . S
C119 C120 1.321 . S
C120 C119 1.321 . S
C120 C121 1.403 . S
C120 H146 0.934 . S
C121 C116 1.413 . S
C121 C120 1.403 . S
C121 H147 0.930 . S
C122 O136 1.275 . S
C122 O137 1.256 . S
C123 O138 1.259 . S
C123 O139 1.268 . S
C124 Ho113 2.811 1_565 S
C124 C125 1.488 . S
C124 O140 1.215 . S
C124 O141 1.289 . S
C125 C124 1.488 . S
C125 C126 1.348 . S
C125 C130 1.413 . S
C126 C125 1.348 . S
C126 C127 1.442 . S
C126 H148 0.930 . S
C127 C126 1.442 . S
C127 C128 1.381 . S
C127 H149 0.931 . S
C128 C127 1.381 . S
C128 C129 1.321 . S
C129 C128 1.321 . S
C129 C130 1.403 . S
C129 H150 0.934 . S
C130 C125 1.413 . S
C130 C129 1.403 . S
C130 H151 0.930 . S
C131 O142 1.275 . S
C131 O143 1.256 . S
O132 Ho112 2.307 1_545 S
O132 C114 1.259 . S
O133 Ho113 2.346 1_554 S
O133 C114 1.268 . S
O134 Ho112 2.376 1_545 S
O134 C115 1.215 . S
O135 Ho112 2.501 1_545 S
O135 C115 1.289 . S
O136 Ho112 2.401 . S
O136 C122 1.275 . S
O137 Ho112 2.679 . S
O137 Ho113 2.305 1_564 S
O137 C122 1.256 . S
O138 Ho113 2.322 1_565 S
O138 C123 1.259 . S
O139 Ho112 2.362 1_556 S
O139 C123 1.268 . S
O140 Ho113 2.378 1_565 S
O140 C124 1.215 . S
O141 Ho113 2.524 1_565 S
O141 C124 1.289 . S
O142 Ho113 2.381 . S
O142 C131 1.275 . S
O143 Ho112 2.286 1_546 S
O143 Ho113 2.669 . S
O143 C131 1.256 . S
H144 C117 0.930 . S
H145 C118 0.931 . S
H146 C120 0.934 . S
H147 C121 0.930 . S
H148 C126 0.930 . S
H149 C127 0.931 . S
H150 C129 0.934 . S
H151 C130 0.930 . S
Ho152 C155 2.811 . S
Ho152 O172 2.322 . S
Ho152 O174 2.378 . S
Ho152 O175 2.524 . S
Ho152 O176 2.381 . S
Ho152 O177 2.669 . S
Ho152 O179 2.346 . S
Ho152 O183 2.305 . S
Ho153 C164 2.811 . S
Ho153 O173 2.346 . S
Ho153 O177 2.305 . S
Ho153 O178 2.322 . S
Ho153 O180 2.378 . S
Ho153 O181 2.524 . S
Ho153 O182 2.381 . S
Ho153 O183 2.669 . S
C154 O172 1.259 . S
C154 O173 1.268 . S
C155 Ho152 2.811 . S
C155 C156 1.488 . S
C155 O174 1.215 . S
C155 O175 1.289 . S
C156 C155 1.488 . S
C156 C157 1.348 . S
C156 C161 1.413 . S
C157 C156 1.348 . S
C157 C158 1.442 . S
C157 H184 0.930 . S
C158 C157 1.442 . S
C158 C159 1.381 . S
C158 H185 0.931 . S
C159 C158 1.381 . S
C159 C160 1.321 . S
C160 C159 1.321 . S
C160 C161 1.403 . S
C160 H186 0.934 . S
C161 C156 1.413 . S
C161 C160 1.403 . S
C161 H187 0.930 . S
C162 O176 1.275 . S
C162 O177 1.256 . S
C163 O178 1.259 . S
C163 O179 1.268 . S
C164 Ho153 2.811 . S
C164 C165 1.488 . S
C164 O180 1.215 . S
C164 O181 1.289 . S
C165 C164 1.488 . S
C165 C166 1.348 . S
C165 C170 1.413 . S
C166 C165 1.348 . S
C166 C167 1.442 . S
C166 H188 0.930 . S
C167 C166 1.442 . S
C167 C168 1.381 . S
C167 H189 0.931 . S
C168 C167 1.381 . S
C168 C169 1.321 . S
C169 C168 1.321 . S
C169 C170 1.403 . S
C169 H190 0.934 . S
C170 C165 1.413 . S
C170 C169 1.403 . S
C170 H191 0.930 . S
C171 O182 1.275 . S
C171 O183 1.256 . S
O172 Ho152 2.322 . S
O172 C154 1.259 . S
O173 Ho153 2.346 . S
O173 C154 1.268 . S
O174 Ho152 2.378 . S
O174 C155 1.215 . S
O175 Ho152 2.524 . S
O175 C155 1.289 . S
O176 Ho152 2.381 . S
O176 C162 1.275 . S
O177 Ho152 2.669 . S
O177 Ho153 2.305 . S
O177 C162 1.256 . S
O178 Ho153 2.322 . S
O178 C163 1.259 . S
O179 Ho152 2.346 . S
O179 C163 1.268 . S
O180 Ho153 2.378 . S
O180 C164 1.215 . S
O181 Ho153 2.524 . S
O181 C164 1.289 . S
O182 Ho153 2.381 . S
O182 C171 1.275 . S
O183 Ho152 2.305 . S
O183 Ho153 2.669 . S
O183 C171 1.256 . S
H184 C157 0.930 . S
H185 C158 0.931 . S
H186 C160 0.934 . S
H187 C161 0.930 . S
H188 C166 0.930 . S
H189 C167 0.931 . S
H190 C169 0.934 . S
H191 C170 0.930 . S
Ho192 C195 2.811 . S
Ho192 O212 2.322 . S
Ho192 O214 2.378 . S
Ho192 O215 2.524 . S
Ho192 O216 2.381 1_455 S
Ho192 O217 2.669 1_455 S
Ho192 O219 2.346 1_454 S
Ho192 O223 2.305 1_554 S
Ho193 C204 2.811 . S
Ho193 O213 2.346 1_656 S
Ho193 O217 2.305 1_556 S
Ho193 O218 2.322 . S
Ho193 O220 2.378 . S
Ho193 O221 2.524 . S
Ho193 O222 2.381 1_655 S
Ho193 O223 2.669 1_655 S
C194 O212 1.259 . S
C194 O213 1.268 . S
C195 Ho192 2.811 . S
C195 C196 1.488 . S
C195 O214 1.215 . S
C195 O215 1.289 . S
C196 C195 1.488 . S
C196 C197 1.348 . S
C196 C201 1.413 . S
C197 C196 1.348 . S
C197 C198 1.442 . S
C197 H224 0.930 . S
C198 C197 1.442 . S
C198 C199 1.381 . S
C198 H225 0.931 . S
C199 C198 1.381 . S
C199 C200 1.321 . S
C200 C199 1.321 . S
C200 C201 1.403 . S
C200 H226 0.934 . S
C201 C196 1.413 . S
C201 C200 1.403 . S
C201 H227 0.930 . S
C202 O216 1.275 . S
C202 O217 1.256 . S
C203 O218 1.259 . S
C203 O219 1.268 . S
C204 Ho193 2.811 . S
C204 C205 1.488 . S
C204 O220 1.215 . S
C204 O221 1.289 . S
C205 C204 1.488 . S
C205 C206 1.348 . S
C205 C210 1.413 . S
C206 C205 1.348 . S
C206 C207 1.442 . S
C206 H228 0.930 . S
C207 C206 1.442 . S
C207 C208 1.381 . S
C207 H229 0.931 . S
C208 C207 1.381 . S
C208 C209 1.321 . S
C209 C208 1.321 . S
C209 C210 1.403 . S
C209 H230 0.934 . S
C210 C205 1.413 . S
C210 C209 1.403 . S
C210 H231 0.930 . S
C211 O222 1.275 . S
C211 O223 1.256 . S
O212 Ho192 2.322 . S
O212 C194 1.259 . S
O213 Ho193 2.346 1_454 S
O213 C194 1.268 . S
O214 Ho192 2.378 . S
O214 C195 1.215 . S
O215 Ho192 2.524 . S
O215 C195 1.289 . S
O216 Ho192 2.381 1_655 S
O216 C202 1.275 . S
O217 Ho192 2.669 1_655 S
O217 Ho193 2.305 1_554 S
O217 C202 1.256 . S
O218 Ho193 2.322 . S
O218 C203 1.259 . S
O219 Ho192 2.346 1_656 S
O219 C203 1.268 . S
O220 Ho193 2.378 . S
O220 C204 1.215 . S
O221 Ho193 2.524 . S
O221 C204 1.289 . S
O222 Ho193 2.381 1_455 S
O222 C211 1.275 . S
O223 Ho192 2.305 1_556 S
O223 Ho193 2.669 1_455 S
O223 C211 1.256 . S
H224 C197 0.930 . S
H225 C198 0.931 . S
H226 C200 0.934 . S
H227 C201 0.930 . S
H228 C206 0.930 . S
H229 C207 0.931 . S
H230 C209 0.934 . S
H231 C210 0.930 . S
C232 C233 1.391 . S
C232 C234 1.394 . S
C232 H248 0.931 . S
C233 C232 1.391 . S
C233 C237 1.376 . S
C234 C232 1.394 . S
C234 C235 1.369 . S
C234 C238 1.531 . S
C235 C234 1.369 . S
C235 C236 1.410 . S
C235 C243 1.503 . S
C236 C235 1.410 . S
C236 C237 1.392 . S
C236 C239 1.511 . S
C237 C233 1.376 . S
C237 C236 1.392 . S
C237 H249 0.929 . S
C238 C234 1.531 . S
C238 H250 0.960 . S
C238 H251 0.962 . S
C238 H252 0.960 . S
C239 C236 1.511 . S
C239 H253 0.961 . S
C239 H254 0.961 . S
C239 H255 0.961 . S
C240 C241 1.370 . S
C240 C242 1.363 . S
C240 H256 0.931 . S
C241 C240 1.370 . S
C241 C245 1.408 . S
C242 C240 1.363 . S
C242 C243 1.370 . S
C242 C246 1.524 . S
C243 C235 1.503 . S
C243 C242 1.370 . S
C243 C244 1.403 . S
C244 C243 1.403 . S
C244 C245 1.404 . S
C244 C247 1.539 . S
C245 C241 1.408 . S
C245 C244 1.404 . S
C245 H257 0.930 . S
C246 C242 1.524 . S
C246 H258 0.956 . S
C246 H259 0.961 . S
C246 H260 0.961 . S
C247 C244 1.539 . S
C247 H261 0.958 . S
C247 H262 0.961 . S
C247 H263 0.960 . S
H248 C232 0.931 . S
H249 C237 0.929 . S
H250 C238 0.960 . S
H251 C238 0.962 . S
H252 C238 0.960 . S
H253 C239 0.961 . S
H254 C239 0.961 . S
H255 C239 0.961 . S
H256 C240 0.931 . S
H257 C245 0.930 . S
H258 C246 0.956 . S
H259 C246 0.961 . S
H260 C246 0.961 . S
H261 C247 0.958 . S
H262 C247 0.961 . S
H263 C247 0.960 . S
C264 C265 1.391 . S
C264 C266 1.394 . S
C264 H280 0.931 . S
C265 C264 1.391 . S
C265 C269 1.376 . S
C266 C264 1.394 . S
C266 C267 1.369 . S
C266 C270 1.531 . S
C267 C266 1.369 . S
C267 C268 1.410 . S
C267 C275 1.503 . S
C268 C267 1.410 . S
C268 C269 1.392 . S
C268 C271 1.511 . S
C269 C265 1.376 . S
C269 C268 1.392 . S
C269 H281 0.929 . S
C270 C266 1.531 . S
C270 H282 0.960 . S
C270 H283 0.962 . S
C270 H284 0.960 . S
C271 C268 1.511 . S
C271 H285 0.961 . S
C271 H286 0.961 . S
C271 H287 0.961 . S
C272 C273 1.370 . S
C272 C274 1.363 . S
C272 H288 0.931 . S
C273 C272 1.370 . S
C273 C277 1.408 . S
C274 C272 1.363 . S
C274 C275 1.370 . S
C274 C278 1.524 . S
C275 C267 1.503 . S
C275 C274 1.370 . S
C275 C276 1.403 . S
C276 C275 1.403 . S
C276 C277 1.404 . S
C276 C279 1.539 . S
C277 C273 1.408 . S
C277 C276 1.404 . S
C277 H289 0.930 . S
C278 C274 1.524 . S
C278 H290 0.956 . S
C278 H291 0.961 . S
C278 H292 0.961 . S
C279 C276 1.539 . S
C279 H293 0.958 . S
C279 H294 0.961 . S
C279 H295 0.960 . S
H280 C264 0.931 . S
H281 C269 0.929 . S
H282 C270 0.960 . S
H283 C270 0.962 . S
H284 C270 0.960 . S
H285 C271 0.961 . S
H286 C271 0.961 . S
H287 C271 0.961 . S
H288 C272 0.931 . S
H289 C277 0.930 . S
H290 C278 0.956 . S
H291 C278 0.961 . S
H292 C278 0.961 . S
H293 C279 0.958 . S
H294 C279 0.961 . S
H295 C279 0.960 . S
C296 C297 1.391 . S
C296 C298 1.394 . S
C296 H312 0.931 . S
C297 C296 1.391 . S
C297 C301 1.376 . S
C298 C296 1.394 . S
C298 C299 1.369 . S
C298 C302 1.531 . S
C299 C298 1.369 . S
C299 C300 1.410 . S
C299 C307 1.503 . S
C300 C299 1.410 . S
C300 C301 1.392 . S
C300 C303 1.511 . S
C301 C297 1.376 . S
C301 C300 1.392 . S
C301 H313 0.929 . S
C302 C298 1.531 . S
C302 H314 0.960 . S
C302 H315 0.962 . S
C302 H316 0.960 . S
C303 C300 1.511 . S
C303 H317 0.961 . S
C303 H318 0.961 . S
C303 H319 0.961 . S
C304 C305 1.370 . S
C304 C306 1.363 . S
C304 H320 0.931 . S
C305 C304 1.370 . S
C305 C309 1.408 . S
C306 C304 1.363 . S
C306 C307 1.370 . S
C306 C310 1.524 . S
C307 C299 1.503 . S
C307 C306 1.370 . S
C307 C308 1.403 . S
C308 C307 1.403 . S
C308 C309 1.404 . S
C308 C311 1.539 . S
C309 C305 1.408 . S
C309 C308 1.404 . S
C309 H321 0.930 . S
C310 C306 1.524 . S
C310 H322 0.956 . S
C310 H323 0.961 . S
C310 H324 0.961 . S
C311 C308 1.539 . S
C311 H325 0.958 . S
C311 H326 0.961 . S
C311 H327 0.960 . S
H312 C296 0.931 . S
H313 C301 0.929 . S
H314 C302 0.960 . S
H315 C302 0.962 . S
H316 C302 0.960 . S
H317 C303 0.961 . S
H318 C303 0.961 . S
H319 C303 0.961 . S
H320 C304 0.931 . S
H321 C309 0.930 . S
H322 C310 0.956 . S
H323 C310 0.961 . S
H324 C310 0.961 . S
H325 C311 0.958 . S
H326 C311 0.961 . S
H327 C311 0.960 . S
C328 C329 1.391 . S
C328 C330 1.394 . S
C328 H344 0.931 . S
C329 C328 1.391 . S
C329 C333 1.376 . S
C330 C328 1.394 . S
C330 C331 1.369 . S
C330 C334 1.531 . S
C331 C330 1.369 . S
C331 C332 1.410 . S
C331 C339 1.503 . S
C332 C331 1.410 . S
C332 C333 1.392 . S
C332 C335 1.511 . S
C333 C329 1.376 . S
C333 C332 1.392 . S
C333 H345 0.929 . S
C334 C330 1.531 . S
C334 H346 0.960 . S
C334 H347 0.962 . S
C334 H348 0.960 . S
C335 C332 1.511 . S
C335 H349 0.961 . S
C335 H350 0.961 . S
C335 H351 0.961 . S
C336 C337 1.370 . S
C336 C338 1.363 . S
C336 H352 0.931 . S
C337 C336 1.370 . S
C337 C341 1.408 . S
C338 C336 1.363 . S
C338 C339 1.370 . S
C338 C342 1.524 . S
C339 C331 1.503 . S
C339 C338 1.370 . S
C339 C340 1.403 . S
C340 C339 1.403 . S
C340 C341 1.404 . S
C340 C343 1.539 . S
C341 C337 1.408 . S
C341 C340 1.404 . S
C341 H353 0.930 . S
C342 C338 1.524 . S
C342 H354 0.956 . S
C342 H355 0.961 . S
C342 H356 0.961 . S
C343 C340 1.539 . S
C343 H357 0.958 . S
C343 H358 0.961 . S
C343 H359 0.960 . S
H344 C328 0.931 . S
H345 C333 0.929 . S
H346 C334 0.960 . S
H347 C334 0.962 . S
H348 C334 0.960 . S
H349 C335 0.961 . S
H350 C335 0.961 . S
H351 C335 0.961 . S
H352 C336 0.931 . S
H353 C341 0.930 . S
H354 C342 0.956 . S
H355 C342 0.961 . S
H356 C342 0.961 . S
H357 C343 0.958 . S
H358 C343 0.961 . S
H359 C343 0.960 . S
C360 C361 1.391 . S
C360 C362 1.394 . S
C360 H376 0.931 . S
C361 C360 1.391 . S
C361 C365 1.376 . S
C362 C360 1.394 . S
C362 C363 1.369 . S
C362 C366 1.531 . S
C363 C362 1.369 . S
C363 C364 1.410 . S
C363 C371 1.503 . S
C364 C363 1.410 . S
C364 C365 1.392 . S
C364 C367 1.511 . S
C365 C361 1.376 . S
C365 C364 1.392 . S
C365 H377 0.929 . S
C366 C362 1.531 . S
C366 H378 0.960 . S
C366 H379 0.962 . S
C366 H380 0.960 . S
C367 C364 1.511 . S
C367 H381 0.961 . S
C367 H382 0.961 . S
C367 H383 0.961 . S
C368 C369 1.370 . S
C368 C370 1.363 . S
C368 H384 0.931 . S
C369 C368 1.370 . S
C369 C373 1.408 . S
C370 C368 1.363 . S
C370 C371 1.370 . S
C370 C374 1.524 . S
C371 C363 1.503 . S
C371 C370 1.370 . S
C371 C372 1.403 . S
C372 C371 1.403 . S
C372 C373 1.404 . S
C372 C375 1.539 . S
C373 C369 1.408 . S
C373 C372 1.404 . S
C373 H385 0.930 . S
C374 C370 1.524 . S
C374 H386 0.956 . S
C374 H387 0.961 . S
C374 H388 0.961 . S
C375 C372 1.539 . S
C375 H389 0.958 . S
C375 H390 0.961 . S
C375 H391 0.960 . S
H376 C360 0.931 . S
H377 C365 0.929 . S
H378 C366 0.960 . S
H379 C366 0.962 . S
H380 C366 0.960 . S
H381 C367 0.961 . S
H382 C367 0.961 . S
H383 C367 0.961 . S
H384 C368 0.931 . S
H385 C373 0.930 . S
H386 C374 0.956 . S
H387 C374 0.961 . S
H388 C374 0.961 . S
H389 C375 0.958 . S
H390 C375 0.961 . S
H391 C375 0.960 . S
C392 C393 1.391 . S
C392 C394 1.394 . S
C392 H408 0.931 . S
C393 C392 1.391 . S
C393 C397 1.376 . S
C394 C392 1.394 . S
C394 C395 1.369 . S
C394 C398 1.531 . S
C395 C394 1.369 . S
C395 C396 1.410 . S
C395 C403 1.503 . S
C396 C395 1.410 . S
C396 C397 1.392 . S
C396 C399 1.511 . S
C397 C393 1.376 . S
C397 C396 1.392 . S
C397 H409 0.929 . S
C398 C394 1.531 . S
C398 H410 0.960 . S
C398 H411 0.962 . S
C398 H412 0.960 . S
C399 C396 1.511 . S
C399 H413 0.961 . S
C399 H414 0.961 . S
C399 H415 0.961 . S
C400 C401 1.370 . S
C400 C402 1.363 . S
C400 H416 0.931 . S
C401 C400 1.370 . S
C401 C405 1.408 . S
C402 C400 1.363 . S
C402 C403 1.370 . S
C402 C406 1.524 . S
C403 C395 1.503 . S
C403 C402 1.370 . S
C403 C404 1.403 . S
C404 C403 1.403 . S
C404 C405 1.404 . S
C404 C407 1.539 . S
C405 C401 1.408 . S
C405 C404 1.404 . S
C405 H417 0.930 . S
C406 C402 1.524 . S
C406 H418 0.956 . S
C406 H419 0.961 . S
C406 H420 0.961 . S
C407 C404 1.539 . S
C407 H421 0.958 . S
C407 H422 0.961 . S
C407 H423 0.960 . S
H408 C392 0.931 . S
H409 C397 0.929 . S
H410 C398 0.960 . S
H411 C398 0.962 . S
H412 C398 0.960 . S
H413 C399 0.961 . S
H414 C399 0.961 . S
H415 C399 0.961 . S
H416 C400 0.931 . S
H417 C405 0.930 . S
H418 C406 0.956 . S
H419 C406 0.961 . S
H420 C406 0.961 . S
H421 C407 0.958 . S
H422 C407 0.961 . S
H423 C407 0.960 . S
C424 C425 1.391 . S
C424 C426 1.394 . S
C424 H440 0.931 . S
C425 C424 1.391 . S
C425 C429 1.376 . S
C426 C424 1.394 . S
C426 C427 1.369 . S
C426 C430 1.531 . S
C427 C426 1.369 . S
C427 C428 1.410 . S
C427 C435 1.503 . S
C428 C427 1.410 . S
C428 C429 1.392 . S
C428 C431 1.511 . S
C429 C425 1.376 . S
C429 C428 1.392 . S
C429 H441 0.929 . S
C430 C426 1.531 . S
C430 H442 0.960 . S
C430 H443 0.962 . S
C430 H444 0.960 . S
C431 C428 1.511 . S
C431 H445 0.961 . S
C431 H446 0.961 . S
C431 H447 0.961 . S
C432 C433 1.370 . S
C432 C434 1.363 . S
C432 H448 0.931 . S
C433 C432 1.370 . S
C433 C437 1.408 . S
C434 C432 1.363 . S
C434 C435 1.370 . S
C434 C438 1.524 . S
C435 C427 1.503 . S
C435 C434 1.370 . S
C435 C436 1.403 . S
C436 C435 1.403 . S
C436 C437 1.404 . S
C436 C439 1.539 . S
C437 C433 1.408 . S
C437 C436 1.404 . S
C437 H449 0.930 . S
C438 C434 1.524 . S
C438 H450 0.956 . S
C438 H451 0.961 . S
C438 H452 0.961 . S
C439 C436 1.539 . S
C439 H453 0.958 . S
C439 H454 0.961 . S
C439 H455 0.960 . S
H440 C424 0.931 . S
H441 C429 0.929 . S
H442 C430 0.960 . S
H443 C430 0.962 . S
H444 C430 0.960 . S
H445 C431 0.961 . S
H446 C431 0.961 . S
H447 C431 0.961 . S
H448 C432 0.931 . S
H449 C437 0.930 . S
H450 C438 0.956 . S
H451 C438 0.961 . S
H452 C438 0.961 . S
H453 C439 0.958 . S
H454 C439 0.961 . S
H455 C439 0.960 . S
C456 C457 1.391 . S
C456 C458 1.394 . S
C456 H472 0.931 . S
C457 C456 1.391 . S
C457 C461 1.376 . S
C458 C456 1.394 . S
C458 C459 1.369 . S
C458 C462 1.531 . S
C459 C458 1.369 . S
C459 C460 1.410 . S
C459 C467 1.503 . S
C460 C459 1.410 . S
C460 C461 1.392 . S
C460 C463 1.511 . S
C461 C457 1.376 . S
C461 C460 1.392 . S
C461 H473 0.929 . S
C462 C458 1.531 . S
C462 H474 0.960 . S
C462 H475 0.962 . S
C462 H476 0.960 . S
C463 C460 1.511 . S
C463 H477 0.961 . S
C463 H478 0.961 . S
C463 H479 0.961 . S
C464 C465 1.370 . S
C464 C466 1.363 . S
C464 H480 0.931 . S
C465 C464 1.370 . S
C465 C469 1.408 . S
C466 C464 1.363 . S
C466 C467 1.370 . S
C466 C470 1.524 . S
C467 C459 1.503 . S
C467 C466 1.370 . S
C467 C468 1.403 . S
C468 C467 1.403 . S
C468 C469 1.404 . S
C468 C471 1.539 . S
C469 C465 1.408 . S
C469 C468 1.404 . S
C469 H481 0.930 . S
C470 C466 1.524 . S
C470 H482 0.956 . S
C470 H483 0.961 . S
C470 H484 0.961 . S
C471 C468 1.539 . S
C471 H485 0.958 . S
C471 H486 0.961 . S
C471 H487 0.960 . S
H472 C456 0.931 . S
H473 C461 0.929 . S
H474 C462 0.960 . S
H475 C462 0.962 . S
H476 C462 0.960 . S
H477 C463 0.961 . S
H478 C463 0.961 . S
H479 C463 0.961 . S
H480 C464 0.931 . S
H481 C469 0.930 . S
H482 C470 0.956 . S
H483 C470 0.961 . S
H484 C470 0.961 . S
H485 C471 0.958 . S
H486 C471 0.961 . S
H487 C471 0.960 . S
C488 C489 1.391 . S
C488 C490 1.394 . S
C488 H504 0.931 . S
C489 C488 1.391 . S
C489 C493 1.376 . S
C490 C488 1.394 . S
C490 C491 1.369 . S
C490 C494 1.531 . S
C491 C490 1.369 . S
C491 C492 1.410 . S
C491 C499 1.503 . S
C492 C491 1.410 . S
C492 C493 1.392 . S
C492 C495 1.511 . S
C493 C489 1.376 . S
C493 C492 1.392 . S
C493 H505 0.929 . S
C494 C490 1.531 . S
C494 H506 0.960 . S
C494 H507 0.962 . S
C494 H508 0.960 . S
C495 C492 1.511 . S
C495 H509 0.961 . S
C495 H510 0.961 . S
C495 H511 0.961 . S
C496 C497 1.370 . S
C496 C498 1.363 . S
C496 H512 0.931 . S
C497 C496 1.370 . S
C497 C501 1.408 . S
C498 C496 1.363 . S
C498 C499 1.370 . S
C498 C502 1.524 . S
C499 C491 1.503 . S
C499 C498 1.370 . S
C499 C500 1.403 . S
C500 C499 1.403 . S
C500 C501 1.404 . S
C500 C503 1.539 . S
C501 C497 1.408 . S
C501 C500 1.404 . S
C501 H513 0.930 . S
C502 C498 1.524 . S
C502 H514 0.956 . S
C502 H515 0.961 . S
C502 H516 0.961 . S
C503 C500 1.539 . S
C503 H517 0.958 . S
C503 H518 0.961 . S
C503 H519 0.960 . S
H504 C488 0.931 . S
H505 C493 0.929 . S
H506 C494 0.960 . S
H507 C494 0.962 . S
H508 C494 0.960 . S
H509 C495 0.961 . S
H510 C495 0.961 . S
H511 C495 0.961 . S
H512 C496 0.931 . S
H513 C501 0.930 . S
H514 C502 0.956 . S
H515 C502 0.961 . S
H516 C502 0.961 . S
H517 C503 0.958 . S
H518 C503 0.961 . S
H519 C503 0.960 . S
C520 C521 1.391 . S
C520 C522 1.394 . S
C520 H536 0.931 . S
C521 C520 1.391 . S
C521 C525 1.376 . S
C522 C520 1.394 . S
C522 C523 1.369 . S
C522 C526 1.531 . S
C523 C522 1.369 . S
C523 C524 1.410 . S
C523 C531 1.503 . S
C524 C523 1.410 . S
C524 C525 1.392 . S
C524 C527 1.511 . S
C525 C521 1.376 . S
C525 C524 1.392 . S
C525 H537 0.929 . S
C526 C522 1.531 . S
C526 H538 0.960 . S
C526 H539 0.962 . S
C526 H540 0.960 . S
C527 C524 1.511 . S
C527 H541 0.961 . S
C527 H542 0.961 . S
C527 H543 0.961 . S
C528 C529 1.370 . S
C528 C530 1.363 . S
C528 H544 0.931 . S
C529 C528 1.370 . S
C529 C533 1.408 . S
C530 C528 1.363 . S
C530 C531 1.370 . S
C530 C534 1.524 . S
C531 C523 1.503 . S
C531 C530 1.370 . S
C531 C532 1.403 . S
C532 C531 1.403 . S
C532 C533 1.404 . S
C532 C535 1.539 . S
C533 C529 1.408 . S
C533 C532 1.404 . S
C533 H545 0.930 . S
C534 C530 1.524 . S
C534 H546 0.956 . S
C534 H547 0.961 . S
C534 H548 0.961 . S
C535 C532 1.539 . S
C535 H549 0.958 . S
C535 H550 0.961 . S
C535 H551 0.960 . S
H536 C520 0.931 . S
H537 C525 0.929 . S
H538 C526 0.960 . S
H539 C526 0.962 . S
H540 C526 0.960 . S
H541 C527 0.961 . S
H542 C527 0.961 . S
H543 C527 0.961 . S
H544 C528 0.931 . S
H545 C533 0.930 . S
H546 C534 0.956 . S
H547 C534 0.961 . S
H548 C534 0.961 . S
H549 C535 0.958 . S
H550 C535 0.961 . S
H551 C535 0.960 . S
C552 C553 1.391 . S
C552 C554 1.394 . S
C552 H568 0.931 . S
C553 C552 1.391 . S
C553 C557 1.376 . S
C554 C552 1.394 . S
C554 C555 1.369 . S
C554 C558 1.531 . S
C555 C554 1.369 . S
C555 C556 1.410 . S
C555 C563 1.503 . S
C556 C555 1.410 . S
C556 C557 1.392 . S
C556 C559 1.511 . S
C557 C553 1.376 . S
C557 C556 1.392 . S
C557 H569 0.929 . S
C558 C554 1.531 . S
C558 H570 0.960 . S
C558 H571 0.962 . S
C558 H572 0.960 . S
C559 C556 1.511 . S
C559 H573 0.961 . S
C559 H574 0.961 . S
C559 H575 0.961 . S
C560 C561 1.370 . S
C560 C562 1.363 . S
C560 H576 0.931 . S
C561 C560 1.370 . S
C561 C565 1.408 . S
C562 C560 1.363 . S
C562 C563 1.370 . S
C562 C566 1.524 . S
C563 C555 1.503 . S
C563 C562 1.370 . S
C563 C564 1.403 . S
C564 C563 1.403 . S
C564 C565 1.404 . S
C564 C567 1.539 . S
C565 C561 1.408 . S
C565 C564 1.404 . S
C565 H577 0.930 . S
C566 C562 1.524 . S
C566 H578 0.956 . S
C566 H579 0.961 . S
C566 H580 0.961 . S
C567 C564 1.539 . S
C567 H581 0.958 . S
C567 H582 0.961 . S
C567 H583 0.960 . S
H568 C552 0.931 . S
H569 C557 0.929 . S
H570 C558 0.960 . S
H571 C558 0.962 . S
H572 C558 0.960 . S
H573 C559 0.961 . S
H574 C559 0.961 . S
H575 C559 0.961 . S
H576 C560 0.931 . S
H577 C565 0.930 . S
H578 C566 0.956 . S
H579 C566 0.961 . S
H580 C566 0.961 . S
H581 C567 0.958 . S
H582 C567 0.961 . S
H583 C567 0.960 . S
C584 C585 1.391 . S
C584 C586 1.394 . S
C584 H600 0.931 . S
C585 C584 1.391 . S
C585 C589 1.376 . S
C586 C584 1.394 . S
C586 C587 1.369 . S
C586 C590 1.531 . S
C587 C586 1.369 . S
C587 C588 1.410 . S
C587 C595 1.503 . S
C588 C587 1.410 . S
C588 C589 1.392 . S
C588 C591 1.511 . S
C589 C585 1.376 . S
C589 C588 1.392 . S
C589 H601 0.929 . S
C590 C586 1.531 . S
C590 H602 0.960 . S
C590 H603 0.962 . S
C590 H604 0.960 . S
C591 C588 1.511 . S
C591 H605 0.961 . S
C591 H606 0.961 . S
C591 H607 0.961 . S
C592 C593 1.370 . S
C592 C594 1.363 . S
C592 H608 0.931 . S
C593 C592 1.370 . S
C593 C597 1.408 . S
C594 C592 1.363 . S
C594 C595 1.370 . S
C594 C598 1.524 . S
C595 C587 1.503 . S
C595 C594 1.370 . S
C595 C596 1.403 . S
C596 C595 1.403 . S
C596 C597 1.404 . S
C596 C599 1.539 . S
C597 C593 1.408 . S
C597 C596 1.404 . S
C597 H609 0.930 . S
C598 C594 1.524 . S
C598 H610 0.956 . S
C598 H611 0.961 . S
C598 H612 0.961 . S
C599 C596 1.539 . S
C599 H613 0.958 . S
C599 H614 0.961 . S
C599 H615 0.960 . S
H600 C584 0.931 . S
H601 C589 0.929 . S
H602 C590 0.960 . S
H603 C590 0.962 . S
H604 C590 0.960 . S
H605 C591 0.961 . S
H606 C591 0.961 . S
H607 C591 0.961 . S
H608 C592 0.931 . S
H609 C597 0.930 . S
H610 C598 0.956 . S
H611 C598 0.961 . S
H612 C598 0.961 . S
H613 C599 0.958 . S
H614 C599 0.961 . S
H615 C599 0.960 . S
C616 C617 1.391 . S
C616 C618 1.394 . S
C616 H632 0.931 . S
C617 C616 1.391 . S
C617 C621 1.376 . S
C618 C616 1.394 . S
C618 C619 1.369 . S
C618 C622 1.531 . S
C619 C618 1.369 . S
C619 C620 1.410 . S
C619 C627 1.503 . S
C620 C619 1.410 . S
C620 C621 1.392 . S
C620 C623 1.511 . S
C621 C617 1.376 . S
C621 C620 1.392 . S
C621 H633 0.929 . S
C622 C618 1.531 . S
C622 H634 0.960 . S
C622 H635 0.962 . S
C622 H636 0.960 . S
C623 C620 1.511 . S
C623 H637 0.961 . S
C623 H638 0.961 . S
C623 H639 0.961 . S
C624 C625 1.370 . S
C624 C626 1.363 . S
C624 H640 0.931 . S
C625 C624 1.370 . S
C625 C629 1.408 . S
C626 C624 1.363 . S
C626 C627 1.370 . S
C626 C630 1.524 . S
C627 C619 1.503 . S
C627 C626 1.370 . S
C627 C628 1.403 . S
C628 C627 1.403 . S
C628 C629 1.404 . S
C628 C631 1.539 . S
C629 C625 1.408 . S
C629 C628 1.404 . S
C629 H641 0.930 . S
C630 C626 1.524 . S
C630 H642 0.956 . S
C630 H643 0.961 . S
C630 H644 0.961 . S
C631 C628 1.539 . S
C631 H645 0.958 . S
C631 H646 0.961 . S
C631 H647 0.960 . S
H632 C616 0.931 . S
H633 C621 0.929 . S
H634 C622 0.960 . S
H635 C622 0.962 . S
H636 C622 0.960 . S
H637 C623 0.961 . S
H638 C623 0.961 . S
H639 C623 0.961 . S
H640 C624 0.931 . S
H641 C629 0.930 . S
H642 C630 0.956 . S
H643 C630 0.961 . S
H644 C630 0.961 . S
H645 C631 0.958 . S
H646 C631 0.961 . S
H647 C631 0.960 . S
C648 C649 1.391 . S
C648 C650 1.394 . S
C648 H664 0.931 . S
C649 C648 1.391 . S
C649 C653 1.376 . S
C650 C648 1.394 . S
C650 C651 1.369 . S
C650 C654 1.531 . S
C651 C650 1.369 . S
C651 C652 1.410 . S
C651 C659 1.503 . S
C652 C651 1.410 . S
C652 C653 1.392 . S
C652 C655 1.511 . S
C653 C649 1.376 . S
C653 C652 1.392 . S
C653 H665 0.929 . S
C654 C650 1.531 . S
C654 H666 0.960 . S
C654 H667 0.962 . S
C654 H668 0.960 . S
C655 C652 1.511 . S
C655 H669 0.961 . S
C655 H670 0.961 . S
C655 H671 0.961 . S
C656 C657 1.370 . S
C656 C658 1.363 . S
C656 H672 0.931 . S
C657 C656 1.370 . S
C657 C661 1.408 . S
C658 C656 1.363 . S
C658 C659 1.370 . S
C658 C662 1.524 . S
C659 C651 1.503 . S
C659 C658 1.370 . S
C659 C660 1.403 . S
C660 C659 1.403 . S
C660 C661 1.404 . S
C660 C663 1.539 . S
C661 C657 1.408 . S
C661 C660 1.404 . S
C661 H673 0.930 . S
C662 C658 1.524 . S
C662 H674 0.956 . S
C662 H675 0.961 . S
C662 H676 0.961 . S
C663 C660 1.539 . S
C663 H677 0.958 . S
C663 H678 0.961 . S
C663 H679 0.960 . S
H664 C648 0.931 . S
H665 C653 0.929 . S
H666 C654 0.960 . S
H667 C654 0.962 . S
H668 C654 0.960 . S
H669 C655 0.961 . S
H670 C655 0.961 . S
H671 C655 0.961 . S
H672 C656 0.931 . S
H673 C661 0.930 . S
H674 C662 0.956 . S
H675 C662 0.961 . S
H676 C662 0.961 . S
H677 C663 0.958 . S
H678 C663 0.961 . S
H679 C663 0.960 . S
C680 C681 1.391 . S
C680 C682 1.394 . S
C680 H696 0.931 . S
C681 C680 1.391 . S
C681 C685 1.376 . S
C682 C680 1.394 . S
C682 C683 1.369 . S
C682 C686 1.531 . S
C683 C682 1.369 . S
C683 C684 1.410 . S
C683 C691 1.503 . S
C684 C683 1.410 . S
C684 C685 1.392 . S
C684 C687 1.511 . S
C685 C681 1.376 . S
C685 C684 1.392 . S
C685 H697 0.929 . S
C686 C682 1.531 . S
C686 H698 0.960 . S
C686 H699 0.962 . S
C686 H700 0.960 . S
C687 C684 1.511 . S
C687 H701 0.961 . S
C687 H702 0.961 . S
C687 H703 0.961 . S
C688 C689 1.370 . S
C688 C690 1.363 . S
C688 H704 0.931 . S
C689 C688 1.370 . S
C689 C693 1.408 . S
C690 C688 1.363 . S
C690 C691 1.370 . S
C690 C694 1.524 . S
C691 C683 1.503 . S
C691 C690 1.370 . S
C691 C692 1.403 . S
C692 C691 1.403 . S
C692 C693 1.404 . S
C692 C695 1.539 . S
C693 C689 1.408 . S
C693 C692 1.404 . S
C693 H705 0.930 . S
C694 C690 1.524 . S
C694 H706 0.956 . S
C694 H707 0.961 . S
C694 H708 0.961 . S
C695 C692 1.539 . S
C695 H709 0.958 . S
C695 H710 0.961 . S
C695 H711 0.960 . S
H696 C680 0.931 . S
H697 C685 0.929 . S
H698 C686 0.960 . S
H699 C686 0.962 . S
H700 C686 0.960 . S
H701 C687 0.961 . S
H702 C687 0.961 . S
H703 C687 0.961 . S
H704 C688 0.931 . S
H705 C693 0.930 . S
H706 C694 0.956 . S
H707 C694 0.961 . S
H708 C694 0.961 . S
H709 C695 0.958 . S
H710 C695 0.961 . S
H711 C695 0.960 . S
C712 C713 1.391 . S
C712 C714 1.394 . S
C712 H728 0.931 . S
C713 C712 1.391 . S
C713 C717 1.376 . S
C714 C712 1.394 . S
C714 C715 1.369 . S
C714 C718 1.531 . S
C715 C714 1.369 . S
C715 C716 1.410 . S
C715 C723 1.503 . S
C716 C715 1.410 . S
C716 C717 1.392 . S
C716 C719 1.511 . S
C717 C713 1.376 . S
C717 C716 1.392 . S
C717 H729 0.929 . S
C718 C714 1.531 . S
C718 H730 0.960 . S
C718 H731 0.962 . S
C718 H732 0.960 . S
C719 C716 1.511 . S
C719 H733 0.961 . S
C719 H734 0.961 . S
C719 H735 0.961 . S
C720 C721 1.370 . S
C720 C722 1.363 . S
C720 H736 0.931 . S
C721 C720 1.370 . S
C721 C725 1.408 . S
C722 C720 1.363 . S
C722 C723 1.370 . S
C722 C726 1.524 . S
C723 C715 1.503 . S
C723 C722 1.370 . S
C723 C724 1.403 . S
C724 C723 1.403 . S
C724 C725 1.404 . S
C724 C727 1.539 . S
C725 C721 1.408 . S
C725 C724 1.404 . S
C725 H737 0.930 . S
C726 C722 1.524 . S
C726 H738 0.956 . S
C726 H739 0.961 . S
C726 H740 0.961 . S
C727 C724 1.539 . S
C727 H741 0.958 . S
C727 H742 0.961 . S
C727 H743 0.960 . S
H728 C712 0.931 . S
H729 C717 0.929 . S
H730 C718 0.960 . S
H731 C718 0.962 . S
H732 C718 0.960 . S
H733 C719 0.961 . S
H734 C719 0.961 . S
H735 C719 0.961 . S
H736 C720 0.931 . S
H737 C725 0.930 . S
H738 C726 0.956 . S
H739 C726 0.961 . S
H740 C726 0.961 . S
H741 C727 0.958 . S
H742 C727 0.961 . S
H743 C727 0.960 . S
C744 C745 1.391 . S
C744 C746 1.394 . S
C744 H760 0.931 . S
C745 C744 1.391 . S
C745 C749 1.376 . S
C746 C744 1.394 . S
C746 C747 1.369 . S
C746 C750 1.531 . S
C747 C746 1.369 . S
C747 C748 1.410 . S
C747 C755 1.503 . S
C748 C747 1.410 . S
C748 C749 1.392 . S
C748 C751 1.511 . S
C749 C745 1.376 . S
C749 C748 1.392 . S
C749 H761 0.929 . S
C750 C746 1.531 . S
C750 H762 0.960 . S
C750 H763 0.962 . S
C750 H764 0.960 . S
C751 C748 1.511 . S
C751 H765 0.961 . S
C751 H766 0.961 . S
C751 H767 0.961 . S
C752 C753 1.370 . S
C752 C754 1.363 . S
C752 H768 0.931 . S
C753 C752 1.370 . S
C753 C757 1.408 . S
C754 C752 1.363 . S
C754 C755 1.370 . S
C754 C758 1.524 . S
C755 C747 1.503 . S
C755 C754 1.370 . S
C755 C756 1.403 . S
C756 C755 1.403 . S
C756 C757 1.404 . S
C756 C759 1.539 . S
C757 C753 1.408 . S
C757 C756 1.404 . S
C757 H769 0.930 . S
C758 C754 1.524 . S
C758 H770 0.956 . S
C758 H771 0.961 . S
C758 H772 0.961 . S
C759 C756 1.539 . S
C759 H773 0.958 . S
C759 H774 0.961 . S
C759 H775 0.960 . S
H760 C744 0.931 . S
H761 C749 0.929 . S
H762 C750 0.960 . S
H763 C750 0.962 . S
H764 C750 0.960 . S
H765 C751 0.961 . S
H766 C751 0.961 . S
H767 C751 0.961 . S
H768 C752 0.931 . S
H769 C757 0.930 . S
H770 C758 0.956 . S
H771 C758 0.961 . S
H772 C758 0.961 . S
H773 C759 0.958 . S
H774 C759 0.961 . S
H775 C759 0.960 . S
C776 C777 1.391 . S
C776 C778 1.394 . S
C776 H792 0.931 . S
C777 C776 1.391 . S
C777 C781 1.376 . S
C778 C776 1.394 . S
C778 C779 1.369 . S
C778 C782 1.531 . S
C779 C778 1.369 . S
C779 C780 1.410 . S
C779 C787 1.503 . S
C780 C779 1.410 . S
C780 C781 1.392 . S
C780 C783 1.511 . S
C781 C777 1.376 . S
C781 C780 1.392 . S
C781 H793 0.929 . S
C782 C778 1.531 . S
C782 H794 0.960 . S
C782 H795 0.962 . S
C782 H796 0.960 . S
C783 C780 1.511 . S
C783 H797 0.961 . S
C783 H798 0.961 . S
C783 H799 0.961 . S
C784 C785 1.370 . S
C784 C786 1.363 . S
C784 H800 0.931 . S
C785 C784 1.370 . S
C785 C789 1.408 . S
C786 C784 1.363 . S
C786 C787 1.370 . S
C786 C790 1.524 . S
C787 C779 1.503 . S
C787 C786 1.370 . S
C787 C788 1.403 . S
C788 C787 1.403 . S
C788 C789 1.404 . S
C788 C791 1.539 . S
C789 C785 1.408 . S
C789 C788 1.404 . S
C789 H801 0.931 . S
C790 C786 1.524 . S
C790 H802 0.956 . S
C790 H803 0.961 . S
C790 H804 0.961 . S
C791 C788 1.539 . S
C791 H805 0.958 . S
C791 H806 0.961 . S
C791 H807 0.960 . S
H792 C776 0.931 . S
H793 C781 0.929 . S
H794 C782 0.960 . S
H795 C782 0.962 . S
H796 C782 0.960 . S
H797 C783 0.961 . S
H798 C783 0.961 . S
H799 C783 0.961 . S
H800 C784 0.931 . S
H801 C789 0.931 . S
H802 C790 0.956 . S
H803 C790 0.961 . S
H804 C790 0.961 . S
H805 C791 0.958 . S
H806 C791 0.961 . S
H807 C791 0.960 . S
C808 C809 1.391 . S
C808 C810 1.394 . S
C808 H824 0.931 . S
C809 C808 1.391 . S
C809 C813 1.376 . S
C810 C808 1.394 . S
C810 C811 1.369 . S
C810 C814 1.531 . S
C811 C810 1.369 . S
C811 C812 1.410 . S
C811 C819 1.503 . S
C812 C811 1.410 . S
C812 C813 1.392 . S
C812 C815 1.511 . S
C813 C809 1.376 . S
C813 C812 1.392 . S
C813 H825 0.929 . S
C814 C810 1.531 . S
C814 H826 0.960 . S
C814 H827 0.962 . S
C814 H828 0.960 . S
C815 C812 1.511 . S
C815 H829 0.961 . S
C815 H830 0.961 . S
C815 H831 0.961 . S
C816 C817 1.370 . S
C816 C818 1.363 . S
C816 H832 0.931 . S
C817 C816 1.370 . S
C817 C821 1.408 . S
C818 C816 1.363 . S
C818 C819 1.370 . S
C818 C822 1.524 . S
C819 C811 1.503 . S
C819 C818 1.370 . S
C819 C820 1.403 . S
C820 C819 1.403 . S
C820 C821 1.404 . S
C820 C823 1.539 . S
C821 C817 1.408 . S
C821 C820 1.404 . S
C821 H833 0.930 . S
C822 C818 1.524 . S
C822 H834 0.956 . S
C822 H835 0.961 . S
C822 H836 0.961 . S
C823 C820 1.539 . S
C823 H837 0.958 . S
C823 H838 0.961 . S
C823 H839 0.960 . S
H824 C808 0.931 . S
H825 C813 0.929 . S
H826 C814 0.960 . S
H827 C814 0.962 . S
H828 C814 0.960 . S
H829 C815 0.961 . S
H830 C815 0.961 . S
H831 C815 0.961 . S
H832 C816 0.931 . S
H833 C821 0.930 . S
H834 C822 0.956 . S
H835 C822 0.961 . S
H836 C822 0.961 . S
H837 C823 0.958 . S
H838 C823 0.961 . S
H839 C823 0.960 . S
C840 C841 1.391 . S
C840 C842 1.394 . S
C840 H856 0.931 . S
C841 C840 1.391 . S
C841 C845 1.376 . S
C842 C840 1.394 . S
C842 C843 1.369 . S
C842 C846 1.531 . S
C843 C842 1.369 . S
C843 C844 1.410 . S
C843 C851 1.503 . S
C844 C843 1.410 . S
C844 C845 1.392 . S
C844 C847 1.511 . S
C845 C841 1.376 . S
C845 C844 1.392 . S
C845 H857 0.929 . S
C846 C842 1.531 . S
C846 H858 0.960 . S
C846 H859 0.962 . S
C846 H860 0.960 . S
C847 C844 1.511 . S
C847 H861 0.961 . S
C847 H862 0.961 . S
C847 H863 0.961 . S
C848 C849 1.370 . S
C848 C850 1.363 . S
C848 H864 0.931 . S
C849 C848 1.370 . S
C849 C853 1.408 . S
C850 C848 1.363 . S
C850 C851 1.370 . S
C850 C854 1.524 . S
C851 C843 1.503 . S
C851 C850 1.370 . S
C851 C852 1.403 . S
C852 C851 1.403 . S
C852 C853 1.404 . S
C852 C855 1.539 . S
C853 C849 1.408 . S
C853 C852 1.404 . S
C853 H865 0.930 . S
C854 C850 1.524 . S
C854 H866 0.956 . S
C854 H867 0.961 . S
C854 H868 0.961 . S
C855 C852 1.539 . S
C855 H869 0.958 . S
C855 H870 0.961 . S
C855 H871 0.960 . S
H856 C840 0.931 . S
H857 C845 0.929 . S
H858 C846 0.960 . S
H859 C846 0.962 . S
H860 C846 0.960 . S
H861 C847 0.961 . S
H862 C847 0.961 . S
H863 C847 0.961 . S
H864 C848 0.931 . S
H865 C853 0.930 . S
H866 C854 0.956 . S
H867 C854 0.961 . S
H868 C854 0.961 . S
H869 C855 0.958 . S
H870 C855 0.961 . S
H871 C855 0.960 . S
C872 C873 1.391 . S
C872 C874 1.394 . S
C872 H888 0.931 . S
C873 C872 1.391 . S
C873 C877 1.376 . S
C874 C872 1.394 . S
C874 C875 1.369 . S
C874 C878 1.531 . S
C875 C874 1.369 . S
C875 C876 1.410 . S
C875 C883 1.503 . S
C876 C875 1.410 . S
C876 C877 1.392 . S
C876 C879 1.511 . S
C877 C873 1.376 . S
C877 C876 1.392 . S
C877 H889 0.929 . S
C878 C874 1.531 . S
C878 H890 0.960 . S
C878 H891 0.962 . S
C878 H892 0.960 . S
C879 C876 1.511 . S
C879 H893 0.961 . S
C879 H894 0.961 . S
C879 H895 0.961 . S
C880 C881 1.370 . S
C880 C882 1.363 . S
C880 H896 0.931 . S
C881 C880 1.370 . S
C881 C885 1.408 . S
C882 C880 1.363 . S
C882 C883 1.370 . S
C882 C886 1.524 . S
C883 C875 1.503 . S
C883 C882 1.370 . S
C883 C884 1.403 . S
C884 C883 1.403 . S
C884 C885 1.404 . S
C884 C887 1.539 . S
C885 C881 1.408 . S
C885 C884 1.404 . S
C885 H897 0.930 . S
C886 C882 1.524 . S
C886 H898 0.956 . S
C886 H899 0.961 . S
C886 H900 0.961 . S
C887 C884 1.539 . S
C887 H901 0.958 . S
C887 H902 0.961 . S
C887 H903 0.960 . S
H888 C872 0.931 . S
H889 C877 0.929 . S
H890 C878 0.960 . S
H891 C878 0.962 . S
H892 C878 0.960 . S
H893 C879 0.961 . S
H894 C879 0.961 . S
H895 C879 0.961 . S
H896 C880 0.931 . S
H897 C885 0.930 . S
H898 C886 0.956 . S
H899 C886 0.961 . S
H900 C886 0.961 . S
H901 C887 0.958 . S
H902 C887 0.961 . S
H903 C887 0.960 . S
C904 C905 1.391 . S
C904 C906 1.394 . S
C904 H920 0.931 . S
C905 C904 1.391 . S
C905 C909 1.376 . S
C906 C904 1.394 . S
C906 C907 1.369 . S
C906 C910 1.531 . S
C907 C906 1.369 . S
C907 C908 1.410 . S
C907 C915 1.503 . S
C908 C907 1.410 . S
C908 C909 1.392 . S
C908 C911 1.511 . S
C909 C905 1.376 . S
C909 C908 1.392 . S
C909 H921 0.929 . S
C910 C906 1.531 . S
C910 H922 0.960 . S
C910 H923 0.962 . S
C910 H924 0.960 . S
C911 C908 1.511 . S
C911 H925 0.961 . S
C911 H926 0.961 . S
C911 H927 0.961 . S
C912 C913 1.370 . S
C912 C914 1.363 . S
C912 H928 0.931 . S
C913 C912 1.370 . S
C913 C917 1.408 . S
C914 C912 1.363 . S
C914 C915 1.370 . S
C914 C918 1.524 . S
C915 C907 1.503 . S
C915 C914 1.370 . S
C915 C916 1.403 . S
C916 C915 1.403 . S
C916 C917 1.404 . S
C916 C919 1.539 . S
C917 C913 1.408 . S
C917 C916 1.404 . S
C917 H929 0.930 . S
C918 C914 1.524 . S
C918 H930 0.956 . S
C918 H931 0.961 . S
C918 H932 0.961 . S
C919 C916 1.539 . S
C919 H933 0.958 . S
C919 H934 0.961 . S
C919 H935 0.960 . S
H920 C904 0.931 . S
H921 C909 0.929 . S
H922 C910 0.960 . S
H923 C910 0.962 . S
H924 C910 0.960 . S
H925 C911 0.961 . S
H926 C911 0.961 . S
H927 C911 0.961 . S
H928 C912 0.931 . S
H929 C917 0.930 . S
H930 C918 0.956 . S
H931 C918 0.961 . S
H932 C918 0.961 . S
H933 C919 0.958 . S
H934 C919 0.961 . S
H935 C919 0.960 . S
C936 C937 1.391 . S
C936 C938 1.394 . S
C936 H952 0.931 . S
C937 C936 1.391 . S
C937 C941 1.376 . S
C938 C936 1.394 . S
C938 C939 1.369 . S
C938 C942 1.531 . S
C939 C938 1.369 . S
C939 C940 1.410 . S
C939 C947 1.503 . S
C940 C939 1.410 . S
C940 C941 1.392 . S
C940 C943 1.511 . S
C941 C937 1.376 . S
C941 C940 1.392 . S
C941 H953 0.929 . S
C942 C938 1.531 . S
C942 H954 0.960 . S
C942 H955 0.962 . S
C942 H956 0.960 . S
C943 C940 1.511 . S
C943 H957 0.961 . S
C943 H958 0.961 . S
C943 H959 0.961 . S
C944 C945 1.370 . S
C944 C946 1.363 . S
C944 H960 0.931 . S
C945 C944 1.370 . S
C945 C949 1.408 . S
C946 C944 1.363 . S
C946 C947 1.370 . S
C946 C950 1.524 . S
C947 C939 1.503 . S
C947 C946 1.370 . S
C947 C948 1.403 . S
C948 C947 1.403 . S
C948 C949 1.404 . S
C948 C951 1.539 . S
C949 C945 1.408 . S
C949 C948 1.404 . S
C949 H961 0.930 . S
C950 C946 1.524 . S
C950 H962 0.956 . S
C950 H963 0.961 . S
C950 H964 0.961 . S
C951 C948 1.539 . S
C951 H965 0.958 . S
C951 H966 0.961 . S
C951 H967 0.960 . S
H952 C936 0.931 . S
H953 C941 0.929 . S
H954 C942 0.960 . S
H955 C942 0.962 . S
H956 C942 0.960 . S
H957 C943 0.961 . S
H958 C943 0.961 . S
H959 C943 0.961 . S
H960 C944 0.931 . S
H961 C949 0.930 . S
H962 C950 0.956 . S
H963 C950 0.961 . S
H964 C950 0.961 . S
H965 C951 0.958 . S
H966 C951 0.961 . S
H967 C951 0.960 . S
C968 C969 1.391 . S
C968 C970 1.394 . S
C968 H984 0.931 . S
C969 C968 1.391 . S
C969 C973 1.376 . S
C970 C968 1.394 . S
C970 C971 1.369 . S
C970 C974 1.531 . S
C971 C970 1.369 . S
C971 C972 1.410 . S
C971 C979 1.503 . S
C972 C971 1.410 . S
C972 C973 1.392 . S
C972 C975 1.511 . S
C973 C969 1.376 . S
C973 C972 1.392 . S
C973 H985 0.929 . S
C974 C970 1.531 . S
C974 H986 0.960 . S
C974 H987 0.962 . S
C974 H988 0.960 . S
C975 C972 1.511 . S
C975 H989 0.961 . S
C975 H990 0.961 . S
C975 H991 0.961 . S
C976 C977 1.370 . S
C976 C978 1.363 . S
C976 H992 0.931 . S
C977 C976 1.370 . S
C977 C981 1.408 . S
C978 C976 1.363 . S
C978 C979 1.370 . S
C978 C982 1.524 . S
C979 C971 1.503 . S
C979 C978 1.370 . S
C979 C980 1.403 . S
C980 C979 1.403 . S
C980 C981 1.404 . S
C980 C983 1.539 . S
C981 C977 1.408 . S
C981 C980 1.404 . S
C981 H993 0.930 . S
C982 C978 1.524 . S
C982 H994 0.956 . S
C982 H995 0.961 . S
C982 H996 0.961 . S
C983 C980 1.539 . S
C983 H997 0.958 . S
C983 H998 0.961 . S
C983 H999 0.960 . S
H984 C968 0.931 . S
H985 C973 0.929 . S
H986 C974 0.960 . S
H987 C974 0.962 . S
H988 C974 0.960 . S
H989 C975 0.961 . S
H990 C975 0.961 . S
H991 C975 0.961 . S
H992 C976 0.931 . S
H993 C981 0.930 . S
H994 C982 0.956 . S
H995 C982 0.961 . S
H996 C982 0.961 . S
H997 C983 0.958 . S
H998 C983 0.961 . S
H999 C983 0.960 . S
C233 C5 1.004 . S
C241 C79 1.033 . S
C265 C14 0.927 . S
C273 C128 0.936 . S
C305 C154 2.482 . S
C297 C25 2.528 . S
C329 C34 2.437 . S
C337 C202 2.396 . S
C369 C114 2.043 . S
C361 C7 1.934 . S
C401 C82 0.779 . S
C393 C13 0.736 . S
C433 C203 1.914 . S
C425 C23 1.957 . S
C465 C171 1.680 . S
C457 C31 1.700 . S
C489 C4 1.428 . S
C497 C199 1.453 . S
C529 C131 2.335 . S
C521 C22 2.399 . S
C553 C32 2.352 . S
C561 C83 2.348 . S
C585 C16 0.855 . S
C593 C168 0.859 . S
C625 C88 1.005 . S
C617 C41 0.986 . S
C649 C50 0.950 . S
C657 C119 0.931 . S
C681 C61 2.517 . S
C689 C163 2.475 . S
C713 C67 2.447 . S
C721 C211 2.399 . S
C745 C40 1.974 . S
C753 C123 2.064 . S
C785 C91 0.737 . S
C777 C52 0.694 . S
C817 C194 1.919 . S
C809 C59 1.969 . S
C849 C162 1.674 . S
C841 C70 1.693 . S
C873 C43 1.411 . S
C881 C208 1.451 . S
C913 C122 2.348 . S
C905 C58 2.413 . S
C945 C74 2.329 . S
C937 C68 2.330 . S
C969 C49 0.826 . S
C977 C159 0.865 . S
