# Generated by pormake.
# Topology pyr, (3,6)-cn, num edge types: 1
# Building blocks:
#     Node 0, Type 0, BuildingBlock: KAKCAD_clean_linker_0, # of connection points: 3
#     Node 1, Type 0, BuildingBlock: KAKCAD_clean_linker_0, # of connection points: 3
#     Node 2, Type 0, BuildingBlock: KAKCAD_clean_linker_0, # of connection points: 3
#     Node 3, Type 0, BuildingBlock: KAKCAD_clean_linker_0, # of connection points: 3
#     Node 4, Type 0, BuildingBlock: KAKCAD_clean_linker_0, # of connection points: 3
#     Node 5, Type 0, BuildingBlock: KAKCAD_clean_linker_0, # of connection points: 3
#     Node 6, Type 0, BuildingBlock: KAKCAD_clean_linker_0, # of connection points: 3
#     Node 7, Type 0, BuildingBlock: KAKCAD_clean_linker_0, # of connection points: 3
#     Node 8, Type 1, BuildingBlock: PAMTOO_clean_sbu_0, # of connection points: 6
#     Node 9, Type 1, BuildingBlock: PAMTOO_clean_sbu_0, # of connection points: 6
#     Node 10, Type 1, BuildingBlock: PAMTOO_clean_sbu_0, # of connection points: 6
#     Node 11, Type 1, BuildingBlock: PAMTOO_clean_sbu_0, # of connection points: 6
#     Edge 12, Type (0, 1), BuildingBlock: EZIPEK_clean_linker_0, # of connection points: 2
#     Edge 13, Type (0, 1), BuildingBlock: EZIPEK_clean_linker_0, # of connection points: 2
#     Edge 14, Type (0, 1), BuildingBlock: EZIPEK_clean_linker_0, # of connection points: 2
#     Edge 15, Type (0, 1), BuildingBlock: EZIPEK_clean_linker_0, # of connection points: 2
#     Edge 16, Type (0, 1), BuildingBlock: EZIPEK_clean_linker_0, # of connection points: 2
#     Edge 17, Type (0, 1), BuildingBlock: EZIPEK_clean_linker_0, # of connection points: 2
#     Edge 18, Type (0, 1), BuildingBlock: EZIPEK_clean_linker_0, # of connection points: 2
#     Edge 19, Type (0, 1), BuildingBlock: EZIPEK_clean_linker_0, # of connection points: 2
#     Edge 20, Type (0, 1), BuildingBlock: EZIPEK_clean_linker_0, # of connection points: 2
#     Edge 21, Type (0, 1), BuildingBlock: EZIPEK_clean_linker_0, # of connection points: 2
#     Edge 22, Type (0, 1), BuildingBlock: EZIPEK_clean_linker_0, # of connection points: 2
#     Edge 23, Type (0, 1), BuildingBlock: EZIPEK_clean_linker_0, # of connection points: 2
#     Edge 24, Type (0, 1), BuildingBlock: EZIPEK_clean_linker_0, # of connection points: 2
#     Edge 25, Type (0, 1), BuildingBlock: EZIPEK_clean_linker_0, # of connection points: 2
#     Edge 26, Type (0, 1), BuildingBlock: EZIPEK_clean_linker_0, # of connection points: 2
#     Edge 27, Type (0, 1), BuildingBlock: EZIPEK_clean_linker_0, # of connection points: 2
#     Edge 28, Type (0, 1), BuildingBlock: EZIPEK_clean_linker_0, # of connection points: 2
#     Edge 29, Type (0, 1), BuildingBlock: EZIPEK_clean_linker_0, # of connection points: 2
#     Edge 30, Type (0, 1), BuildingBlock: EZIPEK_clean_linker_0, # of connection points: 2
#     Edge 31, Type (0, 1), BuildingBlock: EZIPEK_clean_linker_0, # of connection points: 2
#     Edge 32, Type (0, 1), BuildingBlock: EZIPEK_clean_linker_0, # of connection points: 2
#     Edge 33, Type (0, 1), BuildingBlock: EZIPEK_clean_linker_0, # of connection points: 2
#     Edge 34, Type (0, 1), BuildingBlock: EZIPEK_clean_linker_0, # of connection points: 2
#     Edge 35, Type (0, 1), BuildingBlock: EZIPEK_clean_linker_0, # of connection points: 2
# Relax obj value: 0.125
# Max RMSD: 0.173
# Mean RMSD: 0.072
data_MOF--net-pyr--node1-PAMTOO_clean_sbu_0--node2-KAKCAD_clean_linker_0--edge1-EZIPEK_clean_linker_0
_symmetry_space_group_name_H-M    P1
_symmetry_Int_Tables_number       1
_symmetry_cell_setting            triclinic
loop_
_symmetry_equiv_pos_as_xyz
'x, y, z'
_cell_length_a     35.131036
_cell_length_b     37.341462
_cell_length_c     37.318708
_cell_angle_alpha  89.93281
_cell_angle_beta   89.872811
_cell_angle_gamma 103.94187
loop_
_atom_site_label
_atom_site_type_symbol
_atom_site_fract_x
_atom_site_fract_y
_atom_site_fract_z
_atom_type_partial_charge
C0 C 0.2962 0.23902 0.35797 0.0
C1 C 0.32384 0.23018 0.38112 0.0
C2 C 0.30823 0.25849 0.32652 0.0
C3 C 0.3483 0.26966 0.31759 0.0
C4 C 0.37617 0.26278 0.34209 0.0
C5 C 0.36398 0.24311 0.37374 0.0
C6 C 0.35979 0.28365 0.28086 0.0
C7 C 0.33839 0.3056 0.26325 0.0
C8 C 0.34095 0.31051 0.22596 0.0
C9 C 0.3679 0.2958 0.20653 0.0
C10 C 0.39083 0.27496 0.22397 0.0
C11 C 0.38679 0.26929 0.26114 0.0
C12 C 0.41409 0.25395 0.20307 0.0
C13 C 0.39721 0.23309 0.17331 0.0
C14 C 0.45149 0.25154 0.21469 0.0
C15 C 0.47118 0.22804 0.19734 0.0
C16 C 0.45343 0.2063 0.1685 0.0
C17 C 0.31126 0.32593 0.20721 0.0
C18 C 0.27155 0.31397 0.21717 0.0
C19 C 0.32163 0.35145 0.17899 0.0
C20 C 0.29281 0.36523 0.1616 0.0
C21 C 0.25335 0.35335 0.17208 0.0
C22 C 0.24294 0.32758 0.19979 0.0
C23 C 0.41669 0.20946 0.15624 0.0
H24 H 0.2651 0.22895 0.36327 0.0
H25 H 0.28583 0.26252 0.30812 0.0
H26 H 0.40722 0.27124 0.33607 0.0
H27 H 0.38561 0.23629 0.39142 0.0
H28 H 0.31762 0.31695 0.2783 0.0
H29 H 0.40201 0.25078 0.27406 0.0
H30 H 0.36934 0.29868 0.17762 0.0
H31 H 0.36819 0.23385 0.16411 0.0
H32 H 0.46515 0.26737 0.23754 0.0
H33 H 0.49973 0.22615 0.20686 0.0
H34 H 0.26246 0.29365 0.23819 0.0
H35 H 0.35196 0.36099 0.17071 0.0
H36 H 0.40271 0.19297 0.13387 0.0
H37 H 0.21256 0.31802 0.20799 0.0
H38 H 0.30118 0.38514 0.14013 0.0
C39 C 0.17118 0.81291 0.86796 0.0
C40 C 0.20967 0.83365 0.87389 0.0
C41 C 0.15995 0.79885 0.83373 0.0
C42 C 0.1874 0.80464 0.80555 0.0
C43 C 0.22605 0.82453 0.81207 0.0
C44 C 0.237 0.83894 0.84584 0.0
C45 C 0.17624 0.79196 0.76868 0.0
C46 C 0.1455 0.80272 0.75123 0.0
C47 C 0.14023 0.79776 0.71401 0.0
C48 C 0.16537 0.78055 0.69463 0.0
C49 C 0.19613 0.76963 0.71201 0.0
C50 C 0.20074 0.77469 0.74907 0.0
C51 C 0.22658 0.75703 0.69151 0.0
C52 C 0.21671 0.72744 0.66735 0.0
C53 C 0.26633 0.77399 0.69754 0.0
C54 C 0.2957 0.76068 0.68099 0.0
C55 C 0.28589 0.73017 0.65816 0.0
C56 C 0.11297 0.81615 0.6951 0.0
C57 C 0.07585 0.81584 0.70961 0.0
C58 C 0.126 0.83801 0.6647 0.0
C59 C 0.10343 0.86053 0.65034 0.0
C60 C 0.06742 0.86151 0.66597 0.0
C61 C 0.05316 0.83833 0.69507 0.0
C62 C 0.24629 0.7139 0.65087 0.0
H63 H 0.14982 0.80846 0.88949 0.0
H64 H 0.12998 0.7836 0.82923 0.0
H65 H 0.24764 0.82989 0.79071 0.0
H66 H 0.26681 0.85488 0.84997 0.0
H67 H 0.12801 0.81796 0.76606 0.0
H68 H 0.22484 0.76679 0.76249 0.0
H69 H 0.16243 0.77758 0.66581 0.0
H70 H 0.18627 0.71401 0.66229 0.0
H71 H 0.27469 0.79726 0.7156 0.0
H72 H 0.32614 0.77355 0.68675 0.0
H73 H 0.065 0.79915 0.73292 0.0
H74 H 0.15467 0.83939 0.65323 0.0
H75 H 0.23838 0.69026 0.63325 0.0
H76 H 0.02534 0.83885 0.70737 0.0
H77 H 0.11481 0.87839 0.6279 0.0
C78 C 0.77747 0.46934 0.91734 0.0
C79 C 0.80489 0.44973 0.9285 0.0
C80 C 0.74425 0.45177 0.89739 0.0
C81 C 0.73757 0.4141 0.88843 0.0
C82 C 0.76553 0.39484 0.89933 0.0
C83 C 0.79873 0.41243 0.91901 0.0
C84 C 0.70082 0.39423 0.86947 0.0
C85 C 0.68578 0.40991 0.83988 0.0
C86 C 0.65086 0.39118 0.82219 0.0
C87 C 0.63139 0.3555 0.83519 0.0
C88 C 0.64657 0.33892 0.86441 0.0
C89 C 0.68083 0.35901 0.8813 0.0
C90 C 0.62768 0.30074 0.87828 0.0
C91 C 0.58699 0.289 0.88464 0.0
C92 C 0.65133 0.27675 0.88843 0.0
C93 C 0.63531 0.24316 0.90586 0.0
C94 C 0.59505 0.23219 0.91353 0.0
C95 C 0.63569 0.40891 0.79006 0.0
C96 C 0.64382 0.44775 0.78616 0.0
C97 C 0.61376 0.38757 0.76242 0.0
C98 C 0.60083 0.40432 0.73232 0.0
C99 C 0.60991 0.44299 0.72836 0.0
C100 C 0.63164 0.46438 0.75575 0.0
C101 C 0.57088 0.25515 0.90216 0.0
H102 H 0.78173 0.49821 0.9242 0.0
H103 H 0.7233 0.46743 0.88975 0.0
H104 H 0.76176 0.36599 0.89259 0.0
H105 H 0.81961 0.39682 0.92703 0.0
H106 H 0.70227 0.43641 0.8301 0.0
H107 H 0.69175 0.3473 0.90458 0.0
H108 H 0.60459 0.34041 0.82263 0.0
H109 H 0.56784 0.30665 0.8775 0.0
H110 H 0.68266 0.28437 0.88358 0.0
H111 H 0.65459 0.22602 0.91416 0.0
H112 H 0.65944 0.46575 0.80677 0.0
H113 H 0.60705 0.35776 0.76349 0.0
H114 H 0.53972 0.24738 0.9078 0.0
H115 H 0.63887 0.4942 0.75379 0.0
H116 H 0.58414 0.38698 0.71174 0.0
C117 C 0.8875 0.62493 0.23188 0.0
C118 C 0.92766 0.63097 0.22379 0.0
C119 C 0.87459 0.64095 0.26233 0.0
C120 C 0.90139 0.66344 0.28606 0.0
C121 C 0.94167 0.66987 0.27752 0.0
C122 C 0.95456 0.6539 0.24691 0.0
C123 C 0.88732 0.6788 0.31997 0.0
C124 C 0.8542 0.6579 0.33877 0.0
C125 C 0.84111 0.67095 0.37078 0.0
C126 C 0.86094 0.70547 0.38402 0.0
C127 C 0.89299 0.72798 0.36568 0.0
C128 C 0.9065 0.71404 0.33391 0.0
C129 C 0.91092 0.766 0.38034 0.0
C130 C 0.88669 0.78689 0.39607 0.0
C131 C 0.95181 0.78089 0.38118 0.0
C132 C 0.96781 0.81481 0.39844 0.0
C133 C 0.94334 0.8346 0.41542 0.0
C134 C 0.80592 0.64955 0.39057 0.0
C135 C 0.76856 0.64231 0.37478 0.0
C136 C 0.80891 0.63977 0.4267 0.0
C137 C 0.77528 0.62357 0.44674 0.0
C138 C 0.73774 0.61769 0.43141 0.0
C139 C 0.73482 0.62688 0.39506 0.0
C140 C 0.90261 0.82037 0.41351 0.0
H141 H 0.86598 0.6076 0.2146 0.0
H142 H 0.84333 0.6357 0.26713 0.0
H143 H 0.96347 0.68656 0.29497 0.0
H144 H 0.98572 0.65913 0.24148 0.0
H145 H 0.83904 0.63087 0.32921 0.0
H146 H 0.93105 0.7311 0.31948 0.0
H147 H 0.85076 0.71501 0.40887 0.0
H148 H 0.85507 0.77714 0.39531 0.0
H149 H 0.9715 0.76579 0.36956 0.0
H150 H 0.99935 0.82525 0.39924 0.0
H151 H 0.76535 0.64998 0.34715 0.0
H152 H 0.83731 0.64523 0.4396 0.0
H153 H 0.88298 0.83508 0.42593 0.0
H154 H 0.70631 0.62262 0.38252 0.0
H155 H 0.77846 0.61654 0.47456 0.0
C156 C 0.71451 0.79314 0.72603 0.0
C157 C 0.72139 0.83104 0.71884 0.0
C158 C 0.69756 0.77906 0.75867 0.0
C159 C 0.68705 0.80271 0.78421 0.0
C160 C 0.69172 0.84019 0.77562 0.0
C161 C 0.70879 0.8542 0.74325 0.0
C162 C 0.67621 0.78997 0.82133 0.0
C163 C 0.69932 0.7703 0.83991 0.0
C164 C 0.69507 0.76455 0.87709 0.0
C165 C 0.66667 0.77832 0.89555 0.0
C166 C 0.64313 0.79788 0.87722 0.0
C167 C 0.6475 0.8028 0.84004 0.0
C168 C 0.61838 0.81818 0.89707 0.0
C169 C 0.58085 0.81899 0.88449 0.0
C170 C 0.63424 0.84062 0.92622 0.0
C171 C 0.61382 0.86458 0.94141 0.0
C172 C 0.57714 0.86634 0.92788 0.0
C173 C 0.72379 0.74835 0.8967 0.0
C174 C 0.73757 0.7194 0.88141 0.0
C175 C 0.74066 0.76419 0.92893 0.0
C176 C 0.77186 0.7526 0.94446 0.0
C177 C 0.78695 0.72529 0.92782 0.0
C178 C 0.76899 0.70813 0.89674 0.0
C179 C 0.56025 0.84278 0.89995 0.0
H180 H 0.72424 0.775 0.70736 0.0
H181 H 0.69413 0.75004 0.76457 0.0
H182 H 0.68456 0.85927 0.79487 0.0
H183 H 0.71412 0.88356 0.73804 0.0
H184 H 0.72295 0.7622 0.82587 0.0
H185 H 0.63046 0.81902 0.82599 0.0
H186 H 0.66359 0.77479 0.92432 0.0
H187 H 0.56796 0.80192 0.86209 0.0
H188 H 0.6633 0.84101 0.93613 0.0
H189 H 0.62708 0.88252 0.96311 0.0
H190 H 0.72483 0.70621 0.85695 0.0
H191 H 0.73115 0.78683 0.94123 0.0
H192 H 0.53178 0.84371 0.88946 0.0
H193 H 0.7801 0.68676 0.88374 0.0
H194 H 0.78535 0.76602 0.96856 0.0
C195 C 0.81635 0.2153 0.25862 0.0
C196 C 0.80235 0.23823 0.23496 0.0
C197 C 0.83585 0.22973 0.28977 0.0
C198 C 0.84181 0.26748 0.29778 0.0
C199 C 0.82929 0.29075 0.27309 0.0
C200 C 0.80971 0.2762 0.24178 0.0
C201 C 0.8575 0.28129 0.33338 0.0
C202 C 0.88766 0.26806 0.34917 0.0
C203 C 0.89785 0.27534 0.38526 0.0
C204 C 0.87827 0.29735 0.40531 0.0
C205 C 0.84853 0.31151 0.38967 0.0
C206 C 0.83861 0.30357 0.35362 0.0
C207 C 0.82479 0.33123 0.41165 0.0
C208 C 0.80963 0.31689 0.4448 0.0
C209 C 0.81368 0.36215 0.39804 0.0
C210 C 0.78829 0.37856 0.41732 0.0
C211 C 0.77397 0.36559 0.45168 0.0
C212 C 0.92517 0.25583 0.40264 0.0
C213 C 0.95851 0.25071 0.38423 0.0
C214 C 0.91543 0.23831 0.43595 0.0
C215 C 0.93717 0.21461 0.44952 0.0
C216 C 0.969 0.20805 0.43009 0.0
C217 C 0.98017 0.22687 0.39781 0.0
C218 C 0.78401 0.33314 0.46402 0.0
H219 H 0.81065 0.18588 0.25373 0.0
H220 H 0.84441 0.21089 0.30845 0.0
H221 H 0.83372 0.31996 0.27846 0.0
H222 H 0.79897 0.29418 0.22364 0.0
H223 H 0.90162 0.25014 0.33382 0.0
H224 H 0.81411 0.31246 0.34211 0.0
H225 H 0.88563 0.30291 0.43327 0.0
H226 H 0.81601 0.29185 0.45514 0.0
H227 H 0.82392 0.37321 0.37194 0.0
H228 H 0.77889 0.40063 0.404 0.0
H229 H 0.96701 0.26413 0.35871 0.0
H230 H 0.88967 0.24118 0.45057 0.0
H231 H 0.77125 0.31837 0.48753 0.0
H232 H 1.00472 0.22206 0.38254 0.0
H233 H 0.92812 0.20008 0.47443 0.0
C234 C 0.23531 0.62039 0.19104 0.0
C235 C 0.23687 0.62009 0.15336 0.0
C236 C 0.26891 0.63636 0.21124 0.0
C237 C 0.30467 0.65274 0.19415 0.0
C238 C 0.30622 0.65131 0.15642 0.0
C239 C 0.2728 0.63516 0.13632 0.0
C240 C 0.33942 0.67388 0.21496 0.0
C241 C 0.35216 0.66 0.24684 0.0
C242 C 0.38529 0.68026 0.26595 0.0
C243 C 0.40498 0.71564 0.25261 0.0
C244 C 0.39246 0.73 0.22073 0.0
C245 C 0.35988 0.70871 0.20246 0.0
C246 C 0.41227 0.76715 0.20546 0.0
C247 C 0.41664 0.79976 0.22561 0.0
C248 C 0.42239 0.77051 0.16881 0.0
C249 C 0.43522 0.80525 0.15251 0.0
C250 C 0.438 0.83785 0.17219 0.0
C251 C 0.39944 0.66385 0.29916 0.0
C252 C 0.37267 0.64277 0.32395 0.0
C253 C 0.4398 0.66793 0.30592 0.0
C254 C 0.45279 0.65115 0.33594 0.0
C255 C 0.42595 0.62995 0.36045 0.0
C256 C 0.38569 0.62628 0.3541 0.0
C257 C 0.4291 0.8347 0.20912 0.0
H258 H 0.20788 0.60893 0.20477 0.0
H259 H 0.26651 0.63716 0.24015 0.0
H260 H 0.33329 0.66324 0.14231 0.0
H261 H 0.27477 0.63518 0.10735 0.0
H262 H 0.33694 0.6328 0.25608 0.0
H263 H 0.34967 0.71994 0.17851 0.0
H264 H 0.43006 0.73193 0.26684 0.0
H265 H 0.40865 0.79826 0.25371 0.0
H266 H 0.41937 0.74605 0.15244 0.0
H267 H 0.44196 0.8067 0.12412 0.0
H268 H 0.34142 0.63918 0.32024 0.0
H269 H 0.46149 0.68347 0.28753 0.0
H270 H 0.43089 0.8593 0.22499 0.0
H271 H 0.3642 0.61044 0.37251 0.0
H272 H 0.48399 0.65459 0.33996 0.0
C273 C 0.13126 0.24325 0.67478 0.0
C274 C 0.0904 0.23028 0.6724 0.0
C275 C 0.14806 0.27682 0.69165 0.0
C276 C 0.12467 0.29922 0.70612 0.0
C277 C 0.0836 0.28562 0.70486 0.0
C278 C 0.06668 0.25149 0.68834 0.0
C279 C 0.14385 0.33732 0.71992 0.0
C280 C 0.17725 0.3579 0.70194 0.0
C281 C 0.19886 0.3922 0.71457 0.0
C282 C 0.1852 0.40727 0.74535 0.0
C283 C 0.15081 0.38823 0.7637 0.0
C284 C 0.13034 0.35312 0.75054 0.0
C285 C 0.13702 0.40491 0.79685 0.0
C286 C 0.16401 0.42357 0.82261 0.0
C287 C 0.09691 0.40307 0.80287 0.0
C288 C 0.08439 0.41978 0.83316 0.0
C289 C 0.11147 0.43851 0.85871 0.0
C290 C 0.23603 0.41107 0.69533 0.0
C291 C 0.26097 0.38998 0.68134 0.0
C292 C 0.24625 0.44948 0.68923 0.0
C293 C 0.27987 0.466 0.66902 0.0
C294 C 0.30393 0.44447 0.65441 0.0
C295 C 0.29417 0.40637 0.66105 0.0
C296 C 0.15143 0.43988 0.85307 0.0
H297 H 0.15034 0.22744 0.66323 0.0
H298 H 0.17975 0.28546 0.69288 0.0
H299 H 0.06451 0.30185 0.71558 0.0
H300 H 0.03505 0.24203 0.68722 0.0
H301 H 0.18653 0.34712 0.67735 0.0
H302 H 0.10475 0.33762 0.7648 0.0
H303 H 0.20147 0.43385 0.75512 0.0
H304 H 0.19504 0.42529 0.81945 0.0
H305 H 0.07516 0.38931 0.78372 0.0
H306 H 0.0534 0.41817 0.83663 0.0
H307 H 0.25484 0.36051 0.68605 0.0
H308 H 0.22782 0.46665 0.69934 0.0
H309 H 0.17305 0.4538 0.87226 0.0
H310 H 0.31244 0.38921 0.65053 0.0
H311 H 0.28696 0.49553 0.66454 0.0
Dy312 Dy 0.06405 0.0362 0.53433 0.0
Dy313 Dy 0.96857 1.0274 0.55567 0.0
C314 C 0.03671 0.09396 0.58961 0.0
O315 O 0.05023 0.99188 0.5757 0.0
O316 O 0.9858 0.98736 0.5926 0.0
O317 O 0.12394 0.04648 0.55313 0.0
O318 O 0.11019 0.0328 0.49745 0.0
O319 O 0.96849 0.97913 0.51954 0.0
O320 O 0.03265 0.98898 0.49995 0.0
O321 O 0.98269 0.07272 0.51536 0.0
O322 O 0.04672 0.07636 0.49747 0.0
O323 O 0.90867 1.01741 0.53722 0.0
O324 O 0.92247 1.02963 0.59315 0.0
C325 C 0.01881 0.97701 0.59454 0.0
O326 O 0.06403 0.08498 0.56976 0.0
O327 O 1.00005 0.07459 0.5901 0.0
C328 C 0.17042 0.07392 0.50953 0.0
C329 C 0.23186 0.12731 0.47889 0.0
C330 C 0.1936 0.13247 0.47899 0.0
C331 C 0.16302 0.10596 0.49435 0.0
C332 C 0.20896 0.06972 0.51123 0.0
C333 C 0.23967 0.09644 0.49614 0.0
C334 C 0.13784 0.04369 0.52109 0.0
C335 C 0.99588 0.96996 0.49996 0.0
C336 C 1.01402 0.08742 0.4963 0.0
C337 C 0.86435 0.98613 0.58089 0.0
C338 C 0.81355 0.92584 0.61426 0.0
C339 C 0.84422 0.92026 0.59251 0.0
C340 C 0.8697 0.95034 0.57607 0.0
C341 C 0.83227 0.99132 0.60078 0.0
C342 C 0.80695 0.96129 0.6174 0.0
C343 C 0.89484 1.0183 0.56961 0.0
H344 H 0.18718 0.15619 0.46579 0.0
H345 H 0.13341 0.10969 0.49306 0.0
H346 H 0.21507 0.04516 0.523 0.0
H347 H 0.26909 0.09215 0.49621 0.0
H348 H 0.84978 0.89306 0.5901 0.0
H349 H 0.89465 0.94592 0.56113 0.0
H350 H 0.828 1.0188 0.60499 0.0
H351 H 0.78348 0.96597 0.63428 0.0
Dy352 Dy 0.46676 0.03077 1.02947 0.0
Dy353 Dy 0.55734 0.04066 0.06055 0.0
C354 C 0.48494 0.97646 0.0905 0.0
O355 O 0.47293 0.07898 0.06503 0.0
O356 O 0.53242 0.08084 0.09219 0.0
O357 O 0.40459 1.02358 1.03778 0.0
O358 O 0.42827 1.02568 0.98383 0.0
O359 O 0.56566 0.0866 1.02051 0.0
O360 O 0.50271 0.08003 0.99913 0.0
O361 O 0.55512 1.0036 1.01383 0.0
O362 O 0.48836 0.9845 1.00515 0.0
O363 O 0.61994 0.0494 0.05435 0.0
O364 O 0.59332 0.03889 0.10703 0.0
C365 C 0.50037 0.09279 0.08822 0.0
O366 O 0.46039 0.99565 0.07932 0.0
O367 O 0.52216 0.98586 0.08117 0.0
C368 C 0.36455 0.98805 0.99291 0.0
C369 C 0.30319 0.92934 0.97026 0.0
C370 C 0.31405 0.93244 1.00649 0.0
C371 C 0.34478 0.96154 1.01775 0.0
C372 C 0.35301 0.98504 0.95688 0.0
C373 C 0.32274 0.95588 0.94564 0.0
C374 C 0.39669 1.0194 1.00367 0.0
C375 C 0.54021 0.09745 0.99993 0.0
C376 C 0.52431 0.98128 0.99968 0.0
C377 C 0.65484 0.08058 0.10354 0.0
C378 C 0.70527 0.14112 0.13662 0.0
C379 C 0.68412 0.14651 0.10608 0.0
C380 C 0.65873 0.11637 0.08976 0.0
C381 C 0.67697 0.07523 0.13336 0.0
C382 C 0.70199 0.10535 0.14986 0.0
C383 C 0.6259 0.04903 0.08882 0.0
H384 H 0.299 0.91224 1.02581 0.0
H385 H 0.35296 0.96324 0.04577 0.0
H386 H 0.36752 1.00528 0.93733 0.0
H387 H 0.3145 0.95396 0.91761 0.0
H388 H 0.68632 0.17404 0.09572 0.0
H389 H 0.64152 0.1211 0.06696 0.0
H390 H 0.67411 0.04786 0.14442 0.0
H391 H 0.71817 0.1009 0.17347 0.0
Dy392 Dy 0.51705 0.49577 0.52193 0.0
Dy393 Dy 0.5225 0.57382 0.56288 0.0
C394 C 0.55595 0.51074 0.60128 0.0
O395 O 0.45544 0.49055 0.54181 0.0
O396 O 0.47029 0.53393 0.58645 0.0
O397 O 0.50497 0.43613 0.52146 0.0
O398 O 0.52721 0.46711 0.47385 0.0
O399 O 0.47977 0.57301 0.51779 0.0
O400 O 0.50128 0.53383 0.48016 0.0
O401 O 0.5726 0.58471 0.52356 0.0
O402 O 0.58046 0.52596 0.52007 0.0
O403 O 0.5317 0.63311 0.56072 0.0
O404 O 0.51814 0.60451 0.6112 0.0
C405 C 0.44617 0.50556 0.57147 0.0
O406 O 0.53565 0.48681 0.57842 0.0
O407 O 0.56116 0.54657 0.59629 0.0
C408 C 0.55654 0.41972 0.49005 0.0
C409 C 0.62956 0.40157 0.485 0.0
C410 C 0.61951 0.41822 0.51608 0.0
C411 C 0.58333 0.42721 0.51859 0.0
C412 C 0.56607 0.40201 0.45935 0.0
C413 C 0.6024 0.39285 0.45687 0.0
C414 C 0.52208 0.43564 0.49046 0.0
C415 C 0.48309 0.56041 0.48532 0.0
C416 C 0.59329 0.56139 0.51376 0.0
C417 C 0.48765 0.65242 0.59933 0.0
C418 C 0.421 0.679 0.61395 0.0
C419 C 0.42125 0.65576 0.58456 0.0
C420 C 0.45433 0.64246 0.57736 0.0
C421 C 0.4877 0.67632 0.62827 0.0
C422 C 0.45449 0.68957 0.63556 0.0
C423 C 0.52068 0.63526 0.59384 0.0
H424 H 0.64024 0.42535 0.53791 0.0
H425 H 0.57694 0.44143 0.54228 0.0
H426 H 0.54612 0.39664 0.43681 0.0
H427 H 0.60992 0.3802 0.4326 0.0
H428 H 0.3955 0.6472 0.56783 0.0
H429 H 0.45351 0.62368 0.55514 0.0
H430 H 0.51299 0.68395 0.64569 0.0
H431 H 0.45454 0.70738 0.65846 0.0
Dy432 Dy 0.02549 0.57569 1.01931 0.0
Dy433 Dy 0.01572 0.4974 0.06205 0.0
C434 C 0.98396 0.56292 0.09797 0.0
O435 O 0.086 0.57841 1.04047 0.0
O436 O 0.06894 0.53555 0.08549 0.0
O437 O 0.04013 0.63537 1.01884 0.0
O438 O 0.02054 0.60506 0.97031 0.0
O439 O 0.05739 0.49487 1.01658 0.0
O440 O 0.04179 0.53729 0.97863 0.0
O441 O 0.96456 0.48712 1.02431 0.0
O442 O 0.96198 0.54694 1.0127 0.0
O443 O 1.00605 0.43802 0.06138 0.0
O444 O 0.01728 0.46755 0.11151 0.0
C445 C 0.09409 0.56326 0.07048 0.0
O446 O 1.00532 0.58603 0.07492 0.0
O447 O 0.97783 0.5269 0.09385 0.0
C448 C 0.99598 0.65693 0.98142 0.0
C449 C 0.9293 0.68432 0.96899 0.0
C450 C 0.93828 0.67503 1.00386 0.0
C451 C 0.97128 0.66121 1.01002 0.0
C452 C 0.98784 0.66779 0.94685 0.0
C453 C 0.95468 0.68134 0.94065 0.0
C454 C 0.02692 0.63687 0.98638 0.0
C455 C 0.05675 0.50871 0.98421 0.0
C456 C 0.94681 0.51122 1.01072 0.0
C457 C 0.04938 0.42034 0.102 0.0
C458 C 0.11767 0.39776 0.11976 0.0
C459 C 0.11559 0.41601 0.08729 0.0
C460 C 0.08171 0.42731 0.0785 0.0
C461 C 0.05119 0.40134 0.13413 0.0
C462 C 0.08521 0.39007 0.14297 0.0
C463 C 0.01599 0.43664 0.09489 0.0
H464 H 0.91901 0.67727 1.02602 0.0
H465 H 0.97666 0.65271 1.03691 0.0
H466 H 1.00628 0.6644 0.92441 0.0
H467 H 0.94815 0.6885 0.91359 0.0
H468 H 0.14053 0.4223 0.06925 0.0
H469 H 0.08124 0.44243 0.0538 0.0
H470 H 0.0268 0.3962 0.15279 0.0
H471 H 0.08658 0.37611 0.16823 0.0
C472 C 0.29916 0.16524 0.40088 0.0
C473 C 0.30957 0.20313 0.41004 0.0
C474 C 0.27846 0.18888 0.4688 0.0
C475 C 0.26244 0.15222 0.4571 0.0
N476 N 0.25438 0.10585 0.41071 0.0
N477 N 0.30984 0.252 0.45204 0.0
C478 C 0.27244 0.14024 0.42301 0.0
C479 C 0.2999 0.21522 0.44408 0.0
N480 N 0.31446 0.15332 0.3707 0.0
N481 N 0.27321 0.19824 0.50353 0.0
H482 H 0.32694 0.27163 0.43496 0.0
H483 H 0.29978 0.26328 0.47462 0.0
H484 H 0.2576 0.17935 0.52211 0.0
H485 H 0.28688 0.22359 0.51472 0.0
H486 H 0.31112 0.12556 0.36447 0.0
H487 H 0.33368 0.1711 0.35354 0.0
H488 H 0.25686 0.09734 0.38443 0.0
H489 H 0.23431 0.08655 0.42579 0.0
C490 C 0.25159 0.83859 0.92801 0.0
C491 C 0.22262 0.85121 0.90882 0.0
C492 C 0.23633 0.90755 0.94473 0.0
C493 C 0.27112 0.89885 0.95701 0.0
N494 N 0.31193 0.85555 0.962 0.0
N495 N 0.18579 0.89723 0.89929 0.0
C496 C 0.2783 0.86375 0.94996 0.0
C497 C 0.2137 0.88514 0.91797 0.0
N498 N 0.25393 0.80281 0.92423 0.0
N499 N 0.22569 0.93773 0.95819 0.0
H500 H 0.16813 0.88134 0.87992 0.0
H501 H 0.18146 0.92375 0.90166 0.0
H502 H 0.24213 0.95444 0.97784 0.0
H503 H 0.19903 0.94403 0.95256 0.0
H504 H 0.27242 0.79088 0.93947 0.0
H505 H 0.23443 0.78414 0.90809 0.0
H506 H 0.3211 0.83225 0.95407 0.0
H507 H 0.33187 0.8731 0.97861 0.0
C508 C 0.61479 0.45986 0.66177 0.0
C509 C 0.59663 0.46124 0.6958 0.0
C510 C 0.55331 0.4972 0.66825 0.0
C511 C 0.57189 0.4962 0.63443 0.0
N512 N 0.62422 0.48197 0.60007 0.0
N513 N 0.55046 0.48347 0.7322 0.0
C514 C 0.60361 0.47883 0.63152 0.0
C515 C 0.56652 0.48074 0.69919 0.0
N516 N 0.64276 0.44017 0.65831 0.0
N517 N 0.52189 0.51276 0.67045 0.0
H518 H 0.5567 0.46934 0.7547 0.0
H519 H 0.53213 0.5008 0.73799 0.0
H520 H 0.51248 0.52632 0.64902 0.0
H521 H 0.50363 0.51078 0.6927 0.0
H522 H 0.65379 0.43389 0.63384 0.0
H523 H 0.65384 0.42834 0.68002 0.0
H524 H 0.64997 0.47329 0.59654 0.0
H525 H 0.61722 0.49608 0.57785 0.0
C526 C 0.93356 0.62343 0.15607 0.0
C527 C 0.94141 0.61284 0.19145 0.0
C528 C 0.97839 0.57033 0.16562 0.0
C529 C 0.96764 0.57856 0.13033 0.0
N530 N 0.9284 0.60788 0.09272 0.0
N531 N 0.96487 0.57057 0.22948 0.0
C532 C 0.94336 0.60374 0.12582 0.0
C533 C 0.96198 0.58464 0.19605 0.0
N534 N 0.91801 0.65328 0.1512 0.0
N535 N 1.00587 0.55033 0.17026 0.0
H536 H 0.95314 0.57999 0.2523 0.0
H537 H 0.97563 0.54732 0.23412 0.0
H538 H 0.01914 0.53989 0.14898 0.0
H539 H 0.01822 0.547 0.19502 0.0
H540 H 0.91555 0.66491 0.12619 0.0
H541 H 0.91081 0.66855 0.17245 0.0
H542 H 0.90742 0.62288 0.08817 0.0
H543 H 0.93409 0.59337 0.07026 0.0
C544 C 0.4861 0.18701 0.11505 0.0
C545 C 0.47266 0.17977 0.15067 0.0
C546 C 0.48711 0.11869 0.14782 0.0
C547 C 0.49454 0.12387 0.11051 0.0
N548 N 0.49636 0.16163 0.05745 0.0
N549 N 0.45712 0.13787 0.20078 0.0
C550 C 0.49294 0.15775 0.09381 0.0
C551 C 0.47285 0.14557 0.16728 0.0
N552 N 0.49263 0.22207 0.10165 0.0
N553 N 0.49264 0.08771 0.16448 0.0
H554 H 0.44652 0.15681 0.21596 0.0
H555 H 0.45198 0.11188 0.21262 0.0
H556 H 0.50053 0.06622 0.15087 0.0
H557 H 0.49203 0.08438 0.1922 0.0
H558 H 0.50624 0.22991 0.07708 0.0
H559 H 0.48806 0.24418 0.11675 0.0
H560 H 0.49084 0.18403 1.04354 0.0
H561 H 0.5019 0.14123 1.04071 0.0
C562 C 0.05795 0.92566 0.66764 0.0
C563 C 0.04679 0.88943 0.6534 0.0
C564 C 1.00498 0.90974 0.60916 0.0
C565 C 0.02172 0.94679 0.61921 0.0
N566 N 0.0608 0.99082 0.65947 0.0
N567 N 1.00955 0.84591 0.61143 0.0
C568 C 0.04684 0.95491 0.64928 0.0
C569 C 0.01966 0.881 0.62477 0.0
N570 N 0.07925 0.9319 0.69862 0.0
N571 N 0.97534 0.90218 0.58459 0.0
H572 H 0.01866 0.82401 0.62318 0.0
H573 H 0.99387 0.83875 0.58782 0.0
H574 H 0.9644 0.92269 0.57232 0.0
H575 H 0.95948 0.87562 0.57834 0.0
H576 H 0.08572 0.95693 0.71221 0.0
H577 H 0.08825 0.91107 0.71241 0.0
H578 H 0.08298 0.99962 0.67817 0.0
H579 H 0.05044 1.01226 0.64827 0.0
C580 C 0.87654 0.48282 0.93166 0.0
C581 C 0.84054 0.46806 0.9497 0.0
C582 C 0.87324 0.48606 1.0077 0.0
C583 C 0.90987 0.49749 0.9898 0.0
N584 N 0.94746 0.50321 0.93508 0.0
N585 N 0.80469 0.45263 1.00493 0.0
C586 C 0.91175 0.49507 0.95183 0.0
C587 C 0.83889 0.469 0.98778 0.0
N588 N 0.8769 0.48573 0.89512 0.0
N589 N 0.87121 0.49231 1.04367 0.0
H590 H 0.77881 0.44094 0.99127 0.0
H591 H 0.8024 0.44853 1.03251 0.0
H592 H 0.89582 0.50428 0.05895 0.0
H593 H 0.84501 0.48829 0.0579 0.0
H594 H 0.90108 0.49994 0.88044 0.0
H595 H 0.85191 0.47643 0.87946 0.0
H596 H 0.95144 0.4978 0.90816 0.0
H597 H 0.97374 0.51301 0.9487 0.0
C598 C 0.67519 0.56878 0.44376 0.0
C599 C 0.70145 0.60258 0.45347 0.0
C600 C 0.65984 0.60611 0.50602 0.0
C601 C 0.63103 0.57513 0.49351 0.0
N602 N 0.6081 0.53272 0.44488 0.0
N603 N 0.71407 0.65734 0.4903 0.0
C604 C 0.63788 0.5579 0.46089 0.0
C605 C 0.6925 0.62235 0.48368 0.0
N606 N 0.68612 0.54653 0.41869 0.0
N607 N 0.65694 0.61933 0.53978 0.0
H608 H 0.73732 0.67079 0.47405 0.0
H609 H 0.70635 0.67432 0.50974 0.0
H610 H 0.63441 0.60741 0.55747 0.0
H611 H 0.67909 0.63953 0.55153 0.0
H612 H 0.66952 0.52007 0.41296 0.0
H613 H 0.71357 0.55295 0.40629 0.0
H614 H 0.61055 0.52186 0.41951 0.0
H615 H 0.57955 0.52608 0.45484 0.0
C616 C 0.19851 0.34624 0.12804 0.0
C617 C 0.22224 0.36778 0.15465 0.0
C618 C 0.18107 0.41222 0.1534 0.0
C619 C 0.15465 0.38822 0.13029 0.0
N620 N 0.13611 0.3315 0.0969 0.0
N621 N 0.23565 0.4199 0.1947 0.0
C622 C 0.16294 0.35508 0.11768 0.0
C623 C 0.21362 0.40063 0.16767 0.0
N624 N 0.21036 0.31758 0.11249 0.0
N625 N 0.17529 0.44631 0.16121 0.0
H626 H 0.26051 0.41295 0.20499 0.0
H627 H 0.22811 0.44144 0.20845 0.0
H628 H 0.15149 0.45556 0.15153 0.0
H629 H 0.19555 0.4666 0.17487 0.0
H630 H 0.19653 0.30293 0.09051 0.0
H631 H 0.2362 0.31034 0.11972 0.0
H632 H 0.13822 0.30502 0.09013 0.0
H633 H 0.11011 0.33747 0.0882 0.0
C634 C 0.58268 0.19929 0.97332 0.0
C635 C 0.57917 0.19778 0.93542 0.0
C636 C 0.54856 0.13086 0.93959 0.0
C637 C 0.55424 0.13192 0.97748 0.0
N638 N 0.58204 0.16704 1.02974 0.0
N639 N 0.56278 0.16185 0.8818 0.0
C640 C 0.57301 0.16607 0.99406 0.0
C641 C 0.56298 0.16347 0.91841 0.0
N642 N 0.59397 0.23291 0.98975 0.0
N643 N 0.52981 0.09846 0.92367 0.0
H644 H 0.57208 0.18516 0.86565 0.0
H645 H 0.55576 0.13741 0.86724 0.0
H646 H 0.52255 0.07331 0.93721 0.0
H647 H 0.52001 0.09652 0.89729 0.0
H648 H 0.59241 0.23662 1.01731 0.0
H649 H 0.6018 0.25774 0.97563 0.0
H650 H 0.60076 0.18951 1.04205 0.0
H651 H 0.57256 0.14487 0.04713 0.0
C652 C 0.95179 0.90363 0.42368 0.0
C653 C 0.95972 0.86998 0.43567 0.0
C654 C 0.99659 0.90345 0.48673 0.0
C655 C 0.9846 0.93593 0.47705 0.0
N656 N 0.94691 0.96576 0.43822 0.0
N657 N 0.98419 0.83679 0.48233 0.0
C658 C 0.96097 0.9356 0.4461 0.0
C659 C 0.9809 0.86966 0.4681 0.0
N660 N 0.93672 0.90541 0.39016 0.0
N661 N 0.02301 0.90472 0.5138 0.0
H662 H 0.97268 0.81145 0.47004 0.0
H663 H 0.99513 0.83426 0.50788 0.0
H664 H 0.03403 0.92831 0.52902 0.0
H665 H 0.03618 0.8832 0.51952 0.0
H666 H 0.93395 0.9299 0.37828 0.0
H667 H 0.93047 0.88293 0.37276 0.0
H668 H 0.92586 0.96579 0.41862 0.0
H669 H 0.95421 0.9901 0.453 0.0
C670 C 0.33994 0.73085 0.61408 0.0
C671 C 0.3176 0.71418 0.64402 0.0
C672 C 0.35978 0.67103 0.65054 0.0
C673 C 0.38472 0.6905 0.62336 0.0
N674 N 0.40103 0.74047 0.58079 0.0
N675 N 0.30775 0.67097 0.69327 0.0
C676 C 0.37536 0.72073 0.60534 0.0
C677 C 0.32775 0.68477 0.66282 0.0
N678 N 0.32687 0.75597 0.59383 0.0
N679 N 0.36631 0.63898 0.66408 0.0
H680 H 0.28342 0.67957 0.70267 0.0
H681 H 0.31676 0.6528 0.71063 0.0
H682 H 0.38983 0.6283 0.6561 0.0
H683 H 0.34676 0.62135 0.68101 0.0
H684 H 0.33958 0.76654 0.56963 0.0
H685 H 0.30113 0.76407 0.59977 0.0
H686 H 0.39814 0.7652 0.56955 0.0
H687 H 0.42693 0.73344 0.57334 0.0
C688 C 0.7284 0.85606 0.65608 0.0
C689 C 0.74609 0.84802 0.68823 0.0
C690 C 0.80917 0.8876 0.66985 0.0
C691 C 0.79152 0.89589 0.63768 0.0
N692 N 0.73752 0.88273 0.5963 0.0
N693 N 0.80449 0.84836 0.7222 0.0
C694 C 0.75206 0.87828 0.62951 0.0
C695 C 0.78698 0.86108 0.69379 0.0
N696 N 0.68881 0.84352 0.65167 0.0
N697 N 0.84629 0.90677 0.67864 0.0
H698 H 0.78897 0.82964 0.74092 0.0
H699 H 0.83475 0.85374 0.72554 0.0
H700 H 0.86383 0.92642 0.66193 0.0
H701 H 0.85884 0.90531 0.70368 0.0
H702 H 0.67321 0.85182 0.63085 0.0
H703 H 0.67112 0.82586 0.67 0.0
H704 H 0.7101 0.86819 0.58739 0.0
H705 H 0.75433 0.89897 0.57645 0.0
C706 C 0.79411 0.20961 0.17412 0.0
C707 C 0.77684 0.22111 0.20503 0.0
C708 C 0.7115 0.18917 0.18404 0.0
C709 C 0.72936 0.17283 0.15646 0.0
N710 N 0.78687 0.16721 0.12389 0.0
N711 N 0.7196 0.22176 0.24066 0.0
C712 C 0.77047 0.18338 0.15077 0.0
C713 C 0.73556 0.21148 0.21001 0.0
N714 N 0.83307 0.22389 0.16734 0.0
N715 N 0.67154 0.18301 0.18552 0.0
H716 H 0.73607 0.23888 0.25996 0.0
H717 H 0.69042 0.2117 0.24815 0.0
H718 H 0.65296 0.1659 0.16753 0.0
H719 H 0.65681 0.19711 0.20263 0.0
H720 H 0.84707 0.21915 0.14384 0.0
H721 H 0.85087 0.24316 0.18418 0.0
H722 H 0.81692 0.17029 0.12073 0.0
H723 H 0.77011 0.14916 0.10539 0.0
C724 C 0.46181 0.63392 0.42035 0.0
C725 C 0.43997 0.6119 0.39278 0.0
C726 C 0.44218 0.55615 0.42811 0.0
C727 C 0.46773 0.57803 0.45355 0.0
N728 N 0.50859 0.63786 0.46871 0.0
N729 N 0.41538 0.55121 0.36783 0.0
C730 C 0.47927 0.61698 0.44829 0.0
C731 C 0.4318 0.57274 0.396 0.0
N732 N 0.46496 0.67111 0.4206 0.0
N733 N 0.42641 0.51968 0.43519 0.0
H734 H 0.40792 0.56212 0.34384 0.0
H735 H 0.41256 0.52281 0.36697 0.0
H736 H 0.4324 0.50679 0.4586 0.0
H737 H 0.40447 0.50317 0.41964 0.0
H738 H 0.4768 0.68803 0.442 0.0
H739 H 0.45226 0.68452 0.4011 0.0
H740 H 0.52101 0.66568 0.4637 0.0
H741 H 0.52356 0.62662 0.48812 0.0
C742 C 0.07374 0.43474 0.91775 0.0
C743 C 0.09804 0.45654 0.8913 0.0
C744 C 0.09972 0.51185 0.92844 0.0
C745 C 0.07185 0.49062 0.95268 0.0
N746 N 0.02602 0.43249 0.96526 0.0
N747 N 0.12825 0.51733 0.86874 0.0
C748 C 0.05723 0.45219 0.94598 0.0
C749 C 0.10942 0.49554 0.89595 0.0
N750 N 0.0673 0.39719 0.91669 0.0
N751 N 0.11821 0.54732 0.93702 0.0
H752 H 0.13522 0.50669 0.84443 0.0
H753 H 0.13359 0.546 0.86893 0.0
H754 H 0.1128 0.55988 0.96082 0.0
H755 H 0.14168 0.56297 0.92238 0.0
H756 H 0.0534 0.38004 0.93729 0.0
H757 H 0.07925 0.38336 0.89698 0.0
H758 H 1.0115 0.40546 0.95906 0.0
H759 H 1.0119 0.44422 0.98502 0.0
C760 C 0.53514 0.88569 0.97476 0.0
C761 C 0.55726 0.89387 0.94272 0.0
C762 C 0.55203 0.95817 0.94497 0.0
C763 C 0.53099 0.95033 0.9777 0.0
N764 N 0.49645 0.906 1.02088 0.0
N765 N 0.58112 0.93499 0.89347 0.0
C766 C 0.52033 0.91375 0.99151 0.0
C767 C 0.56377 0.92925 0.92652 0.0
N768 N 0.52979 0.85141 0.98987 0.0
N769 N 0.56155 0.99357 0.93214 0.0
H770 H 0.59101 0.91468 0.87969 0.0
H771 H 0.58356 0.9589 0.87843 0.0
H772 H 0.5511 1.0148 0.94367 0.0
H773 H 0.58075 1.00247 0.91093 0.0
H774 H 0.51831 0.8446 1.01537 0.0
H775 H 0.53857 0.82972 0.97739 0.0
H776 H 0.48403 0.87947 1.03017 0.0
H777 H 0.48682 0.92611 1.03498 0.0
C778 C 0.01594 0.18527 0.47005 0.0
C779 C 0.98787 0.17863 0.44218 0.0
C780 C 0.98527 0.11248 0.44355 0.0
C781 C 1.01159 0.1188 0.47291 0.0
N782 N 0.06015 0.16109 0.50782 0.0
N783 N 0.95138 0.14004 0.39764 0.0
C784 C 0.02981 0.15527 0.48397 0.0
C785 C 0.97459 0.14313 0.42724 0.0
N786 N 0.02804 0.21997 0.48403 0.0
N787 N 0.97002 0.07711 0.43228 0.0
H788 H 0.94084 0.11585 0.38318 0.0
H789 H 0.94084 0.11585 0.38318 0.0
H790 H 0.97989 0.05485 0.44224 0.0
H791 H 0.94748 0.06938 0.41378 0.0
H792 H 0.04478 0.22608 0.50718 0.0
H793 H 0.01961 0.24267 0.47324 0.0
H794 H 0.07688 0.1871 0.5148 0.0
H795 H 0.07071 0.13971 0.51876 0.0
C796 C 0.17574 0.62925 0.12277 0.0
C797 C 0.20057 0.6056 0.13151 0.0
C798 C 0.15855 0.55601 0.09574 0.0
C799 C 0.13197 0.5787 0.08955 0.0
N800 N 0.11192 0.6348 0.10221 0.0
N801 N 0.21398 0.54538 0.12959 0.0
C802 C 0.13979 0.61486 0.10424 0.0
C803 C 0.19148 0.56863 0.11886 0.0
N804 N 0.18687 0.6658 0.13166 0.0
N805 N 0.15288 0.52281 0.07855 0.0
H806 H 0.23857 0.55387 0.1459 0.0
H807 H 0.20699 0.51719 0.12443 0.0
H808 H 0.1295 0.51303 0.06115 0.0
H809 H 0.17281 0.50623 0.07906 0.0
H810 H 0.1726 0.68542 0.1224 0.0
H811 H 0.21227 0.67719 0.14612 0.0
H812 H 0.11374 0.65935 0.11604 0.0
H813 H 0.08523 0.6254 0.08909 0.0
C814 C 0.33718 0.47513 0.5977 0.0
C815 C 0.34011 0.46139 0.63296 0.0
C816 C 0.41135 0.47102 0.62466 0.0
C817 C 0.40906 0.48828 0.59107 0.0
N818 N 0.3704 0.5111 0.54737 0.0
N819 N 0.38116 0.45304 0.68245 0.0
C820 C 0.37209 0.4915 0.57802 0.0
C821 C 0.37759 0.4613 0.64711 0.0
N822 N 0.30109 0.47132 0.58248 0.0
N823 N 0.44553 0.46248 0.63454 0.0
H824 H 0.35728 0.44641 0.69994 0.0
H825 H 0.40812 0.45631 0.69522 0.0
H826 H 0.47044 0.46807 0.61829 0.0
H827 H 0.44801 0.44658 0.65698 0.0
H828 H 0.29704 0.47711 0.55566 0.0
H829 H 0.27502 0.45955 0.59593 0.0
H830 H 0.34503 0.51811 0.53857 0.0
H831 H 0.39517 0.5227 0.532 0.0
C832 C 0.8599 0.74163 0.93761 0.0
C833 C 0.82303 0.71595 0.94155 0.0
C834 C 0.85584 0.6692 0.96321 0.0
C835 C 0.89239 0.69568 0.96161 0.0
N836 N 0.92834 0.75901 0.95486 0.0
N837 N 0.78498 0.65819 0.96504 0.0
C838 C 0.89413 0.73255 0.95118 0.0
C839 C 0.82073 0.68059 0.95655 0.0
N840 N 0.86257 0.77391 0.91935 0.0
N841 N 0.85475 0.63287 0.96943 0.0
H842 H 0.75868 0.66581 0.9607 0.0
H843 H 0.78161 0.63367 0.97937 0.0
H844 H 0.8798 0.62323 0.97412 0.0
H845 H 0.82939 0.61179 0.96694 0.0
H846 H 0.88918 0.7917 0.91224 0.0
H847 H 0.83836 0.78152 0.90847 0.0
H848 H 0.93033 0.78706 0.95121 0.0
H849 H 0.95396 0.75332 0.96487 0.0
C850 C 0.42299 0.88345 0.12693 0.0
C851 C 0.44848 0.87487 0.15343 0.0
C852 C 0.49272 0.93635 0.14382 0.0
C853 C 0.47052 0.94245 0.11348 0.0
N854 N 0.41673 0.91767 0.07303 0.0
N855 N 0.51094 0.89169 0.18344 0.0
C856 C 0.43605 0.91501 0.10432 0.0
C857 C 0.48423 0.901 0.16093 0.0
N858 N 0.38573 0.86189 0.12385 0.0
N859 N 0.52091 0.96485 0.15745 0.0
H860 H 0.50609 0.86615 0.19625 0.0
H861 H 0.53925 0.90802 0.18682 0.0
H862 H 0.52649 0.99158 0.14711 0.0
H863 H 0.53547 0.96303 0.18142 0.0
H864 H 0.36443 0.86891 0.10775 0.0
H865 H 0.37486 0.83901 0.14019 0.0
H866 H 0.39425 0.89645 0.06324 0.0
H867 H 0.42546 0.93921 0.0548 0.0
C868 C 0.08102 0.16106 0.66521 0.0
C869 C 0.07323 0.19463 0.65283 0.0
C870 C 0.03568 0.16049 0.60247 0.0
C871 C 0.04795 0.12818 0.61226 0.0
N872 N 0.08654 0.09911 0.65091 0.0
N873 N 0.04861 0.22722 0.60574 0.0
C874 C 0.07194 0.12894 0.64302 0.0
C875 C 0.05175 0.19455 0.62051 0.0
N876 N 0.09588 0.15948 0.69883 0.0
N877 N 1.0087 0.15883 0.57583 0.0
H878 H 0.06061 0.25277 0.61743 0.0
H879 H 0.03732 0.2293 0.58024 0.0
H880 H 0.99726 0.13497 0.56112 0.0
H881 H 0.99547 0.18031 0.5701 0.0
H882 H 0.09858 0.13505 0.71087 0.0
H883 H 0.10184 0.18204 0.71616 0.0
H884 H 0.10774 0.09946 0.67046 0.0
H885 H 0.0797 0.07481 0.63606 0.0
C886 C 0.72013 0.36437 0.49893 0.0
C887 C 0.7447 0.38296 0.47117 0.0
C888 C 0.6986 0.42193 0.46167 0.0
C889 C 0.66978 0.39598 0.48127 0.0
N890 N 0.65373 0.34276 0.5204 0.0
N891 N 0.76808 0.44497 0.44964 0.0
C892 C 0.68074 0.36735 0.50065 0.0
C893 C 0.73728 0.41666 0.45918 0.0
N894 N 0.73607 0.35019 0.52724 0.0
N895 N 0.68899 0.45114 0.44503 0.0
H896 H 0.797 0.44256 0.45188 0.0
H897 H 0.76536 0.47152 0.44378 0.0
H898 H 0.66156 0.45702 0.44768 0.0
H899 H 0.70764 0.46834 0.42706 0.0
H900 H 0.71985 0.33901 0.54976 0.0
H901 H 0.76644 0.35536 0.53042 0.0
H902 H 0.66012 0.31963 0.53236 0.0
H903 H 0.62446 0.34401 0.52254 0.0
loop_
_geom_bond_atom_site_label_1
_geom_bond_atom_site_label_2
_geom_bond_distance
_geom_bond_site_symmetry_2
_ccdc_geom_bond_type
C0 C1 1.386 . S
C0 C2 1.397 . S
C0 H24 0.931 . S
C1 C0 1.386 . S
C1 C5 1.397 . S
C2 C0 1.397 . S
C2 C3 1.384 . S
C2 H25 0.930 . S
C3 C2 1.384 . S
C3 C4 1.377 . S
C3 C6 1.481 . S
C4 C3 1.377 . S
C4 C5 1.389 . S
C4 H26 0.929 . S
C5 C1 1.397 . S
C5 C4 1.389 . S
C5 H27 0.931 . S
C6 C3 1.481 . S
C6 C7 1.387 . S
C6 C11 1.390 . S
C7 C6 1.387 . S
C7 C8 1.401 . S
C7 H28 0.930 . S
C8 C7 1.401 . S
C8 C9 1.376 . S
C8 C17 1.511 . S
C9 C8 1.376 . S
C9 C10 1.392 . S
C9 H30 0.931 . S
C10 C9 1.392 . S
C10 C11 1.361 . S
C10 C12 1.500 . S
C11 C6 1.390 . S
C11 C10 1.361 . S
C11 H29 0.931 . S
C12 C10 1.500 . S
C12 C13 1.371 . S
C12 C14 1.365 . S
C13 C12 1.371 . S
C13 C23 1.386 . S
C13 H31 0.931 . S
C14 C12 1.365 . S
C14 C15 1.409 . S
C14 H32 0.929 . S
C15 C14 1.409 . S
C15 C16 1.380 . S
C15 H33 0.930 . S
C16 C15 1.380 . S
C16 C23 1.357 . S
C17 C8 1.511 . S
C17 C18 1.341 . S
C17 C19 1.371 . S
C18 C17 1.341 . S
C18 C22 1.394 . S
C18 H34 0.930 . S
C19 C17 1.371 . S
C19 C20 1.392 . S
C19 H35 0.931 . S
C20 C19 1.392 . S
C20 C21 1.331 . S
C20 H38 0.932 . S
C21 C20 1.331 . S
C21 C22 1.336 . S
C22 C18 1.394 . S
C22 C21 1.336 . S
C22 H37 0.929 . S
C23 C13 1.386 . S
C23 C16 1.357 . S
C23 H36 0.928 . S
H24 C0 0.931 . S
H25 C2 0.930 . S
H26 C4 0.929 . S
H27 C5 0.931 . S
H28 C7 0.930 . S
H29 C11 0.931 . S
H30 C9 0.931 . S
H31 C13 0.931 . S
H32 C14 0.929 . S
H33 C15 0.930 . S
H34 C18 0.930 . S
H35 C19 0.931 . S
H36 C23 0.928 . S
H37 C22 0.929 . S
H38 C20 0.932 . S
C39 C40 1.386 . S
C39 C41 1.397 . S
C39 H63 0.931 . S
C40 C39 1.386 . S
C40 C44 1.397 . S
C41 C39 1.397 . S
C41 C42 1.384 . S
C41 H64 0.930 . S
C42 C41 1.384 . S
C42 C43 1.377 . S
C42 C45 1.481 . S
C43 C42 1.377 . S
C43 C44 1.389 . S
C43 H65 0.929 . S
C44 C40 1.397 . S
C44 C43 1.389 . S
C44 H66 0.931 . S
C45 C42 1.481 . S
C45 C46 1.387 . S
C45 C50 1.390 . S
C46 C45 1.387 . S
C46 C47 1.401 . S
C46 H67 0.930 . S
C47 C46 1.401 . S
C47 C48 1.376 . S
C47 C56 1.511 . S
C48 C47 1.376 . S
C48 C49 1.392 . S
C48 H69 0.931 . S
C49 C48 1.392 . S
C49 C50 1.361 . S
C49 C51 1.500 . S
C50 C45 1.390 . S
C50 C49 1.361 . S
C50 H68 0.931 . S
C51 C49 1.500 . S
C51 C52 1.371 . S
C51 C53 1.365 . S
C52 C51 1.371 . S
C52 C62 1.386 . S
C52 H70 0.931 . S
C53 C51 1.365 . S
C53 C54 1.409 . S
C53 H71 0.929 . S
C54 C53 1.409 . S
C54 C55 1.380 . S
C54 H72 0.930 . S
C55 C54 1.380 . S
C55 C62 1.357 . S
C56 C47 1.511 . S
C56 C57 1.341 . S
C56 C58 1.371 . S
C57 C56 1.341 . S
C57 C61 1.394 . S
C57 H73 0.930 . S
C58 C56 1.371 . S
C58 C59 1.392 . S
C58 H74 0.931 . S
C59 C58 1.392 . S
C59 C60 1.331 . S
C59 H77 0.932 . S
C60 C59 1.331 . S
C60 C61 1.336 . S
C61 C57 1.394 . S
C61 C60 1.336 . S
C61 H76 0.929 . S
C62 C52 1.386 . S
C62 C55 1.357 . S
C62 H75 0.928 . S
H63 C39 0.931 . S
H64 C41 0.930 . S
H65 C43 0.929 . S
H66 C44 0.931 . S
H67 C46 0.930 . S
H68 C50 0.931 . S
H69 C48 0.931 . S
H70 C52 0.931 . S
H71 C53 0.929 . S
H72 C54 0.930 . S
H73 C57 0.930 . S
H74 C58 0.931 . S
H75 C62 0.928 . S
H76 C61 0.929 . S
H77 C59 0.932 . S
C78 C79 1.386 . S
C78 C80 1.397 . S
C78 H102 0.931 . S
C79 C78 1.386 . S
C79 C83 1.397 . S
C80 C78 1.397 . S
C80 C81 1.384 . S
C80 H103 0.930 . S
C81 C80 1.384 . S
C81 C82 1.377 . S
C81 C84 1.481 . S
C82 C81 1.377 . S
C82 C83 1.389 . S
C82 H104 0.929 . S
C83 C79 1.397 . S
C83 C82 1.389 . S
C83 H105 0.931 . S
C84 C81 1.481 . S
C84 C85 1.387 . S
C84 C89 1.390 . S
C85 C84 1.387 . S
C85 C86 1.401 . S
C85 H106 0.930 . S
C86 C85 1.401 . S
C86 C87 1.376 . S
C86 C95 1.511 . S
C87 C86 1.376 . S
C87 C88 1.392 . S
C87 H108 0.931 . S
C88 C87 1.392 . S
C88 C89 1.361 . S
C88 C90 1.500 . S
C89 C84 1.390 . S
C89 C88 1.361 . S
C89 H107 0.931 . S
C90 C88 1.500 . S
C90 C91 1.371 . S
C90 C92 1.365 . S
C91 C90 1.371 . S
C91 C101 1.386 . S
C91 H109 0.931 . S
C92 C90 1.365 . S
C92 C93 1.409 . S
C92 H110 0.929 . S
C93 C92 1.409 . S
C93 C94 1.380 . S
C93 H111 0.930 . S
C94 C93 1.380 . S
C94 C101 1.357 . S
C95 C86 1.511 . S
C95 C96 1.341 . S
C95 C97 1.371 . S
C96 C95 1.341 . S
C96 C100 1.394 . S
C96 H112 0.930 . S
C97 C95 1.371 . S
C97 C98 1.392 . S
C97 H113 0.931 . S
C98 C97 1.392 . S
C98 C99 1.331 . S
C98 H116 0.932 . S
C99 C98 1.331 . S
C99 C100 1.336 . S
C100 C96 1.394 . S
C100 C99 1.336 . S
C100 H115 0.929 . S
C101 C91 1.386 . S
C101 C94 1.357 . S
C101 H114 0.928 . S
H102 C78 0.931 . S
H103 C80 0.930 . S
H104 C82 0.929 . S
H105 C83 0.931 . S
H106 C85 0.930 . S
H107 C89 0.931 . S
H108 C87 0.931 . S
H109 C91 0.931 . S
H110 C92 0.929 . S
H111 C93 0.930 . S
H112 C96 0.930 . S
H113 C97 0.931 . S
H114 C101 0.928 . S
H115 C100 0.929 . S
H116 C98 0.932 . S
C117 C118 1.386 . S
C117 C119 1.397 . S
C117 H141 0.931 . S
C118 C117 1.386 . S
C118 C122 1.397 . S
C119 C117 1.397 . S
C119 C120 1.384 . S
C119 H142 0.930 . S
C120 C119 1.384 . S
C120 C121 1.377 . S
C120 C123 1.481 . S
C121 C120 1.377 . S
C121 C122 1.389 . S
C121 H143 0.929 . S
C122 C118 1.397 . S
C122 C121 1.389 . S
C122 H144 0.931 . S
C123 C120 1.481 . S
C123 C124 1.387 . S
C123 C128 1.390 . S
C124 C123 1.387 . S
C124 C125 1.401 . S
C124 H145 0.930 . S
C125 C124 1.401 . S
C125 C126 1.376 . S
C125 C134 1.511 . S
C126 C125 1.376 . S
C126 C127 1.392 . S
C126 H147 0.931 . S
C127 C126 1.392 . S
C127 C128 1.361 . S
C127 C129 1.500 . S
C128 C123 1.390 . S
C128 C127 1.361 . S
C128 H146 0.931 . S
C129 C127 1.500 . S
C129 C130 1.371 . S
C129 C131 1.365 . S
C130 C129 1.371 . S
C130 C140 1.386 . S
C130 H148 0.931 . S
C131 C129 1.365 . S
C131 C132 1.409 . S
C131 H149 0.929 . S
C132 C131 1.409 . S
C132 C133 1.380 . S
C132 H150 0.930 . S
C133 C132 1.380 . S
C133 C140 1.357 . S
C134 C125 1.511 . S
C134 C135 1.341 . S
C134 C136 1.371 . S
C135 C134 1.341 . S
C135 C139 1.394 . S
C135 H151 0.930 . S
C136 C134 1.371 . S
C136 C137 1.392 . S
C136 H152 0.931 . S
C137 C136 1.392 . S
C137 C138 1.331 . S
C137 H155 0.932 . S
C138 C137 1.331 . S
C138 C139 1.336 . S
C139 C135 1.394 . S
C139 C138 1.336 . S
C139 H154 0.929 . S
C140 C130 1.386 . S
C140 C133 1.357 . S
C140 H153 0.928 . S
H141 C117 0.931 . S
H142 C119 0.930 . S
H143 C121 0.929 . S
H144 C122 0.931 . S
H145 C124 0.930 . S
H146 C128 0.931 . S
H147 C126 0.931 . S
H148 C130 0.931 . S
H149 C131 0.929 . S
H150 C132 0.930 . S
H151 C135 0.930 . S
H152 C136 0.931 . S
H153 C140 0.928 . S
H154 C139 0.929 . S
H155 C137 0.932 . S
C156 C157 1.386 . S
C156 C158 1.397 . S
C156 H180 0.931 . S
C157 C156 1.386 . S
C157 C161 1.397 . S
C158 C156 1.397 . S
C158 C159 1.384 . S
C158 H181 0.930 . S
C159 C158 1.384 . S
C159 C160 1.377 . S
C159 C162 1.481 . S
C160 C159 1.377 . S
C160 C161 1.389 . S
C160 H182 0.929 . S
C161 C157 1.397 . S
C161 C160 1.389 . S
C161 H183 0.931 . S
C162 C159 1.481 . S
C162 C163 1.387 . S
C162 C167 1.390 . S
C163 C162 1.387 . S
C163 C164 1.401 . S
C163 H184 0.930 . S
C164 C163 1.401 . S
C164 C165 1.376 . S
C164 C173 1.511 . S
C165 C164 1.376 . S
C165 C166 1.392 . S
C165 H186 0.931 . S
C166 C165 1.392 . S
C166 C167 1.361 . S
C166 C168 1.500 . S
C167 C162 1.390 . S
C167 C166 1.361 . S
C167 H185 0.931 . S
C168 C166 1.500 . S
C168 C169 1.371 . S
C168 C170 1.365 . S
C169 C168 1.371 . S
C169 C179 1.386 . S
C169 H187 0.931 . S
C170 C168 1.365 . S
C170 C171 1.409 . S
C170 H188 0.929 . S
C171 C170 1.409 . S
C171 C172 1.380 . S
C171 H189 0.930 . S
C172 C171 1.380 . S
C172 C179 1.357 . S
C173 C164 1.511 . S
C173 C174 1.341 . S
C173 C175 1.371 . S
C174 C173 1.341 . S
C174 C178 1.394 . S
C174 H190 0.930 . S
C175 C173 1.371 . S
C175 C176 1.392 . S
C175 H191 0.931 . S
C176 C175 1.392 . S
C176 C177 1.331 . S
C176 H194 0.932 . S
C177 C176 1.331 . S
C177 C178 1.336 . S
C178 C174 1.394 . S
C178 C177 1.336 . S
C178 H193 0.929 . S
C179 C169 1.386 . S
C179 C172 1.357 . S
C179 H192 0.928 . S
H180 C156 0.931 . S
H181 C158 0.930 . S
H182 C160 0.929 . S
H183 C161 0.931 . S
H184 C163 0.930 . S
H185 C167 0.931 . S
H186 C165 0.931 . S
H187 C169 0.931 . S
H188 C170 0.929 . S
H189 C171 0.930 . S
H190 C174 0.930 . S
H191 C175 0.931 . S
H192 C179 0.928 . S
H193 C178 0.929 . S
H194 C176 0.932 . S
C195 C196 1.386 . S
C195 C197 1.397 . S
C195 H219 0.931 . S
C196 C195 1.386 . S
C196 C200 1.397 . S
C197 C195 1.397 . S
C197 C198 1.384 . S
C197 H220 0.930 . S
C198 C197 1.384 . S
C198 C199 1.377 . S
C198 C201 1.481 . S
C199 C198 1.377 . S
C199 C200 1.389 . S
C199 H221 0.929 . S
C200 C196 1.397 . S
C200 C199 1.389 . S
C200 H222 0.931 . S
C201 C198 1.481 . S
C201 C202 1.387 . S
C201 C206 1.390 . S
C202 C201 1.387 . S
C202 C203 1.401 . S
C202 H223 0.930 . S
C203 C202 1.401 . S
C203 C204 1.376 . S
C203 C212 1.511 . S
C204 C203 1.376 . S
C204 C205 1.392 . S
C204 H225 0.931 . S
C205 C204 1.392 . S
C205 C206 1.361 . S
C205 C207 1.500 . S
C206 C201 1.390 . S
C206 C205 1.361 . S
C206 H224 0.931 . S
C207 C205 1.500 . S
C207 C208 1.371 . S
C207 C209 1.365 . S
C208 C207 1.371 . S
C208 C218 1.386 . S
C208 H226 0.931 . S
C209 C207 1.365 . S
C209 C210 1.409 . S
C209 H227 0.929 . S
C210 C209 1.409 . S
C210 C211 1.380 . S
C210 H228 0.930 . S
C211 C210 1.380 . S
C211 C218 1.357 . S
C212 C203 1.511 . S
C212 C213 1.341 . S
C212 C214 1.371 . S
C213 C212 1.341 . S
C213 C217 1.394 . S
C213 H229 0.930 . S
C214 C212 1.371 . S
C214 C215 1.392 . S
C214 H230 0.931 . S
C215 C214 1.392 . S
C215 C216 1.331 . S
C215 H233 0.932 . S
C216 C215 1.331 . S
C216 C217 1.336 . S
C217 C213 1.394 . S
C217 C216 1.336 . S
C217 H232 0.929 . S
C218 C208 1.386 . S
C218 C211 1.357 . S
C218 H231 0.928 . S
H219 C195 0.931 . S
H220 C197 0.930 . S
H221 C199 0.929 . S
H222 C200 0.931 . S
H223 C202 0.930 . S
H224 C206 0.931 . S
H225 C204 0.931 . S
H226 C208 0.931 . S
H227 C209 0.929 . S
H228 C210 0.930 . S
H229 C213 0.930 . S
H230 C214 0.931 . S
H231 C218 0.928 . S
H232 C217 0.929 . S
H233 C215 0.932 . S
C234 C235 1.386 . S
C234 C236 1.397 . S
C234 H258 0.931 . S
C235 C234 1.386 . S
C235 C239 1.397 . S
C236 C234 1.397 . S
C236 C237 1.384 . S
C236 H259 0.930 . S
C237 C236 1.384 . S
C237 C238 1.377 . S
C237 C240 1.481 . S
C238 C237 1.377 . S
C238 C239 1.389 . S
C238 H260 0.929 . S
C239 C235 1.397 . S
C239 C238 1.389 . S
C239 H261 0.931 . S
C240 C237 1.481 . S
C240 C241 1.387 . S
C240 C245 1.390 . S
C241 C240 1.387 . S
C241 C242 1.401 . S
C241 H262 0.930 . S
C242 C241 1.401 . S
C242 C243 1.376 . S
C242 C251 1.511 . S
C243 C242 1.376 . S
C243 C244 1.392 . S
C243 H264 0.931 . S
C244 C243 1.392 . S
C244 C245 1.361 . S
C244 C246 1.500 . S
C245 C240 1.390 . S
C245 C244 1.361 . S
C245 H263 0.931 . S
C246 C244 1.500 . S
C246 C247 1.371 . S
C246 C248 1.365 . S
C247 C246 1.371 . S
C247 C257 1.386 . S
C247 H265 0.931 . S
C248 C246 1.365 . S
C248 C249 1.409 . S
C248 H266 0.929 . S
C249 C248 1.409 . S
C249 C250 1.380 . S
C249 H267 0.930 . S
C250 C249 1.380 . S
C250 C257 1.357 . S
C251 C242 1.511 . S
C251 C252 1.341 . S
C251 C253 1.371 . S
C252 C251 1.341 . S
C252 C256 1.394 . S
C252 H268 0.930 . S
C253 C251 1.371 . S
C253 C254 1.392 . S
C253 H269 0.931 . S
C254 C253 1.392 . S
C254 C255 1.331 . S
C254 H272 0.932 . S
C255 C254 1.331 . S
C255 C256 1.336 . S
C256 C252 1.394 . S
C256 C255 1.336 . S
C256 H271 0.929 . S
C257 C247 1.386 . S
C257 C250 1.357 . S
C257 H270 0.928 . S
H258 C234 0.931 . S
H259 C236 0.930 . S
H260 C238 0.929 . S
H261 C239 0.931 . S
H262 C241 0.930 . S
H263 C245 0.931 . S
H264 C243 0.931 . S
H265 C247 0.931 . S
H266 C248 0.929 . S
H267 C249 0.930 . S
H268 C252 0.930 . S
H269 C253 0.931 . S
H270 C257 0.928 . S
H271 C256 0.929 . S
H272 C254 0.932 . S
C273 C274 1.386 . S
C273 C275 1.397 . S
C273 H297 0.931 . S
C274 C273 1.386 . S
C274 C278 1.397 . S
C275 C273 1.397 . S
C275 C276 1.384 . S
C275 H298 0.930 . S
C276 C275 1.384 . S
C276 C277 1.377 . S
C276 C279 1.481 . S
C277 C276 1.377 . S
C277 C278 1.389 . S
C277 H299 0.929 . S
C278 C274 1.397 . S
C278 C277 1.389 . S
C278 H300 0.931 . S
C279 C276 1.481 . S
C279 C280 1.387 . S
C279 C284 1.390 . S
C280 C279 1.387 . S
C280 C281 1.401 . S
C280 H301 0.930 . S
C281 C280 1.401 . S
C281 C282 1.376 . S
C281 C290 1.511 . S
C282 C281 1.376 . S
C282 C283 1.392 . S
C282 H303 0.931 . S
C283 C282 1.392 . S
C283 C284 1.361 . S
C283 C285 1.500 . S
C284 C279 1.390 . S
C284 C283 1.361 . S
C284 H302 0.931 . S
C285 C283 1.500 . S
C285 C286 1.371 . S
C285 C287 1.365 . S
C286 C285 1.371 . S
C286 C296 1.386 . S
C286 H304 0.931 . S
C287 C285 1.365 . S
C287 C288 1.409 . S
C287 H305 0.929 . S
C288 C287 1.409 . S
C288 C289 1.380 . S
C288 H306 0.930 . S
C289 C288 1.380 . S
C289 C296 1.357 . S
C290 C281 1.511 . S
C290 C291 1.341 . S
C290 C292 1.371 . S
C291 C290 1.341 . S
C291 C295 1.394 . S
C291 H307 0.930 . S
C292 C290 1.371 . S
C292 C293 1.392 . S
C292 H308 0.931 . S
C293 C292 1.392 . S
C293 C294 1.331 . S
C293 H311 0.932 . S
C294 C293 1.331 . S
C294 C295 1.336 . S
C295 C291 1.394 . S
C295 C294 1.336 . S
C295 H310 0.929 . S
C296 C286 1.386 . S
C296 C289 1.357 . S
C296 H309 0.928 . S
H297 C273 0.931 . S
H298 C275 0.930 . S
H299 C277 0.929 . S
H300 C278 0.931 . S
H301 C280 0.930 . S
H302 C284 0.931 . S
H303 C282 0.931 . S
H304 C286 0.931 . S
H305 C287 0.929 . S
H306 C288 0.930 . S
H307 C291 0.930 . S
H308 C292 0.931 . S
H309 C296 0.928 . S
H310 C295 0.929 . S
H311 C293 0.932 . S
Dy312 O315 2.307 1_545 S
Dy312 O317 2.395 . S
Dy312 O318 2.379 . S
Dy312 O320 2.339 1_545 S
Dy312 O322 2.298 . S
Dy312 O326 2.275 . S
Dy312 C334 2.738 . S
Dy313 O316 2.286 1_645 S
Dy313 O319 2.263 1_545 S
Dy313 O321 2.321 . S
Dy313 O323 2.378 1_545 S
Dy313 O324 2.376 1_545 S
Dy313 O327 2.354 . S
Dy313 C343 2.727 1_545 S
C314 O326 1.254 . S
C314 O327 1.257 1_455 S
O315 Dy312 2.307 1_565 S
O315 C325 1.266 . S
O316 Dy313 2.286 1_465 S
O316 C325 1.236 . S
O317 Dy312 2.395 . S
O317 C334 1.255 . S
O318 Dy312 2.379 . S
O318 C334 1.249 . S
O319 Dy313 2.263 1_565 S
O319 C335 1.254 . S
O320 Dy312 2.339 1_565 S
O320 C335 1.257 1_455 S
O321 Dy313 2.321 . S
O321 C336 1.266 . S
O322 Dy312 2.298 . S
O322 C336 1.236 1_455 S
O323 Dy313 2.378 1_565 S
O323 C343 1.255 . S
O324 Dy313 2.376 1_565 S
O324 C343 1.249 . S
C325 O315 1.266 . S
C325 O316 1.236 . S
O326 Dy312 2.275 . S
O326 C314 1.254 . S
O327 Dy313 2.354 . S
O327 C314 1.257 1_655 S
C328 C331 1.344 . S
C328 C332 1.328 . S
C328 C334 1.516 . S
C329 C330 1.304 . S
C329 C333 1.323 . S
C330 C329 1.304 . S
C330 C331 1.371 . S
C330 H344 0.930 . S
C331 C328 1.344 . S
C331 C330 1.371 . S
C331 H345 0.931 . S
C332 C328 1.328 . S
C332 C333 1.433 . S
C332 H346 0.931 . S
C333 C329 1.323 . S
C333 C332 1.433 . S
C333 H347 0.933 . S
C334 Dy312 2.738 . S
C334 O317 1.255 . S
C334 O318 1.249 . S
C334 C328 1.516 . S
C335 O319 1.254 . S
C335 O320 1.257 1_655 S
C336 O321 1.266 . S
C336 O322 1.236 1_655 S
C337 C340 1.344 . S
C337 C341 1.328 . S
C337 C343 1.516 . S
C338 C339 1.304 . S
C338 C342 1.323 . S
C339 C338 1.304 . S
C339 C340 1.371 . S
C339 H348 0.930 . S
C340 C337 1.344 . S
C340 C339 1.371 . S
C340 H349 0.931 . S
C341 C337 1.328 . S
C341 C342 1.433 . S
C341 H350 0.931 . S
C342 C338 1.323 . S
C342 C341 1.433 . S
C342 H351 0.933 . S
C343 Dy313 2.727 1_565 S
C343 O323 1.255 . S
C343 O324 1.249 . S
C343 C337 1.516 . S
H344 C330 0.930 . S
H345 C331 0.931 . S
H346 C332 0.931 . S
H347 C333 0.933 . S
H348 C339 0.930 . S
H349 C340 0.931 . S
H350 C341 0.931 . S
H351 C342 0.933 . S
Dy352 O355 2.312 1_556 S
Dy352 O357 2.388 1_545 S
Dy352 O358 2.378 1_545 S
Dy352 O360 2.345 . S
Dy352 O362 2.293 1_545 S
Dy352 O366 2.271 1_546 S
Dy352 C374 2.734 1_545 S
Dy353 O356 2.298 . S
Dy353 O359 2.275 1_554 S
Dy353 O361 2.307 1_544 S
Dy353 O363 2.395 . S
Dy353 O364 2.379 . S
Dy353 O367 2.339 1_545 S
Dy353 C383 2.738 . S
C354 O366 1.254 . S
C354 O367 1.257 . S
O355 Dy352 2.312 1_554 S
O355 C365 1.266 . S
O356 Dy353 2.298 . S
O356 C365 1.236 . S
O357 Dy352 2.388 1_565 S
O357 C374 1.255 . S
O358 Dy352 2.378 1_565 S
O358 C374 1.249 . S
O359 Dy353 2.275 1_556 S
O359 C375 1.254 . S
O360 Dy352 2.345 . S
O360 C375 1.257 . S
O361 Dy353 2.307 1_566 S
O361 C376 1.266 . S
O362 Dy352 2.293 1_565 S
O362 C376 1.236 . S
O363 Dy353 2.395 . S
O363 C383 1.255 . S
O364 Dy353 2.379 . S
O364 C383 1.249 . S
C365 O355 1.266 . S
C365 O356 1.236 . S
O366 Dy352 2.271 1_564 S
O366 C354 1.254 . S
O367 Dy353 2.339 1_565 S
O367 C354 1.257 . S
C368 C371 1.344 . S
C368 C372 1.328 . S
C368 C374 1.516 . S
C369 C370 1.304 . S
C369 C373 1.323 . S
C370 C369 1.304 . S
C370 C371 1.371 . S
C370 H384 0.930 . S
C371 C368 1.344 . S
C371 C370 1.371 . S
C371 H385 0.931 . S
C372 C368 1.328 . S
C372 C373 1.433 . S
C372 H386 0.931 . S
C373 C369 1.323 . S
C373 C372 1.433 . S
C373 H387 0.933 . S
C374 Dy352 2.734 1_565 S
C374 O357 1.255 . S
C374 O358 1.249 . S
C374 C368 1.516 . S
C375 O359 1.254 . S
C375 O360 1.257 . S
C376 O361 1.266 . S
C376 O362 1.236 . S
C377 C380 1.344 . S
C377 C381 1.328 . S
C377 C383 1.516 . S
C378 C379 1.304 . S
C378 C382 1.323 . S
C379 C378 1.304 . S
C379 C380 1.371 . S
C379 H388 0.930 . S
C380 C377 1.344 . S
C380 C379 1.371 . S
C380 H389 0.931 . S
C381 C377 1.328 . S
C381 C382 1.433 . S
C381 H390 0.931 . S
C382 C378 1.323 . S
C382 C381 1.433 . S
C382 H391 0.933 . S
C383 Dy353 2.738 . S
C383 O363 1.255 . S
C383 O364 1.249 . S
C383 C377 1.516 . S
H384 C370 0.930 . S
H385 C371 0.931 . S
H386 C372 0.931 . S
H387 C373 0.933 . S
H388 C379 0.930 . S
H389 C380 0.931 . S
H390 C381 0.931 . S
H391 C382 0.933 . S
Dy392 O395 2.307 . S
Dy392 O397 2.395 . S
Dy392 O398 2.379 . S
Dy392 O400 2.339 . S
Dy392 O402 2.298 . S
Dy392 O406 2.275 . S
Dy392 C414 2.738 . S
Dy393 O396 2.298 . S
Dy393 O399 2.275 . S
Dy393 O401 2.307 . S
Dy393 O403 2.395 . S
Dy393 O404 2.379 . S
Dy393 O407 2.339 . S
Dy393 C423 2.738 . S
C394 O406 1.254 . S
C394 O407 1.257 . S
O395 Dy392 2.307 . S
O395 C405 1.266 . S
O396 Dy393 2.298 . S
O396 C405 1.236 . S
O397 Dy392 2.395 . S
O397 C414 1.255 . S
O398 Dy392 2.379 . S
O398 C414 1.249 . S
O399 Dy393 2.275 . S
O399 C415 1.254 . S
O400 Dy392 2.339 . S
O400 C415 1.257 . S
O401 Dy393 2.307 . S
O401 C416 1.266 . S
O402 Dy392 2.298 . S
O402 C416 1.236 . S
O403 Dy393 2.395 . S
O403 C423 1.255 . S
O404 Dy393 2.379 . S
O404 C423 1.249 . S
C405 O395 1.266 . S
C405 O396 1.236 . S
O406 Dy392 2.275 . S
O406 C394 1.254 . S
O407 Dy393 2.339 . S
O407 C394 1.257 . S
C408 C411 1.344 . S
C408 C412 1.328 . S
C408 C414 1.516 . S
C409 C410 1.304 . S
C409 C413 1.323 . S
C410 C409 1.304 . S
C410 C411 1.371 . S
C410 H424 0.930 . S
C411 C408 1.344 . S
C411 C410 1.371 . S
C411 H425 0.931 . S
C412 C408 1.328 . S
C412 C413 1.433 . S
C412 H426 0.931 . S
C413 C409 1.323 . S
C413 C412 1.433 . S
C413 H427 0.933 . S
C414 Dy392 2.738 . S
C414 O397 1.255 . S
C414 O398 1.249 . S
C414 C408 1.516 . S
C415 O399 1.254 . S
C415 O400 1.257 . S
C416 O401 1.266 . S
C416 O402 1.236 . S
C417 C420 1.344 . S
C417 C421 1.328 . S
C417 C423 1.516 . S
C418 C419 1.304 . S
C418 C422 1.323 . S
C419 C418 1.304 . S
C419 C420 1.371 . S
C419 H428 0.930 . S
C420 C417 1.344 . S
C420 C419 1.371 . S
C420 H429 0.931 . S
C421 C417 1.328 . S
C421 C422 1.433 . S
C421 H430 0.931 . S
C422 C418 1.323 . S
C422 C421 1.433 . S
C422 H431 0.933 . S
C423 Dy393 2.738 . S
C423 O403 1.255 . S
C423 O404 1.249 . S
C423 C417 1.516 . S
H424 C410 0.930 . S
H425 C411 0.931 . S
H426 C412 0.931 . S
H427 C413 0.933 . S
H428 C419 0.930 . S
H429 C420 0.931 . S
H430 C421 0.931 . S
H431 C422 0.933 . S
Dy432 O435 2.307 1_656 S
Dy432 O437 2.395 . S
Dy432 O438 2.379 . S
Dy432 O440 2.339 1_655 S
Dy432 O442 2.298 . S
Dy432 O446 2.275 1_556 S
Dy432 C454 2.738 . S
Dy433 O436 2.298 . S
Dy433 O439 2.275 1_554 S
Dy433 O441 2.307 1_455 S
Dy433 O443 2.395 . S
Dy433 O444 2.379 . S
Dy433 O447 2.339 1_455 S
Dy433 C463 2.738 . S
C434 O446 1.254 . S
C434 O447 1.257 . S
O435 Dy432 2.307 1_454 S
O435 C445 1.266 . S
O436 Dy433 2.298 . S
O436 C445 1.236 . S
O437 Dy432 2.395 . S
O437 C454 1.255 . S
O438 Dy432 2.379 . S
O438 C454 1.249 . S
O439 Dy433 2.275 1_556 S
O439 C455 1.254 . S
O440 Dy432 2.339 1_455 S
O440 C455 1.257 . S
O441 Dy433 2.307 1_655 S
O441 C456 1.266 1_554 S
O442 Dy432 2.298 . S
O442 C456 1.236 . S
O443 Dy433 2.395 . S
O443 C463 1.255 . S
O444 Dy433 2.379 . S
O444 C463 1.249 . S
C445 O435 1.266 . S
C445 O436 1.236 . S
O446 Dy432 2.275 1_554 S
O446 C434 1.254 . S
O447 Dy433 2.339 1_655 S
O447 C434 1.257 . S
C448 C451 1.344 . S
C448 C452 1.328 . S
C448 C454 1.516 . S
C449 C450 1.304 . S
C449 C453 1.323 . S
C450 C449 1.304 . S
C450 C451 1.371 . S
C450 H464 0.930 . S
C451 C448 1.344 . S
C451 C450 1.371 . S
C451 H465 0.931 . S
C452 C448 1.328 . S
C452 C453 1.433 . S
C452 H466 0.931 . S
C453 C449 1.323 . S
C453 C452 1.433 . S
C453 H467 0.933 . S
C454 Dy432 2.738 . S
C454 O437 1.255 . S
C454 O438 1.249 . S
C454 C448 1.516 . S
C455 O439 1.254 . S
C455 O440 1.257 . S
C456 O441 1.266 1_556 S
C456 O442 1.236 . S
C457 C460 1.344 . S
C457 C461 1.328 . S
C457 C463 1.516 . S
C458 C459 1.304 . S
C458 C462 1.323 . S
C459 C458 1.304 . S
C459 C460 1.371 . S
C459 H468 0.930 . S
C460 C457 1.344 . S
C460 C459 1.371 . S
C460 H469 0.931 . S
C461 C457 1.328 . S
C461 C462 1.433 . S
C461 H470 0.931 . S
C462 C458 1.323 . S
C462 C461 1.433 . S
C462 H471 0.933 . S
C463 Dy433 2.738 . S
C463 O443 1.255 . S
C463 O444 1.249 . S
C463 C457 1.516 . S
H464 C450 0.930 . S
H465 C451 0.931 . S
H466 C452 0.931 . S
H467 C453 0.933 . S
H468 C459 0.930 . S
H469 C460 0.931 . S
H470 C461 0.931 . S
H471 C462 0.933 . S
C472 C473 1.363 . S
C472 C478 1.379 . S
C472 N480 1.356 . S
C473 C472 1.363 . S
C473 C479 1.363 . S
C474 C475 1.363 . S
C474 C479 1.379 . S
C474 N481 1.356 . S
C475 C474 1.363 . S
C475 C478 1.363 . S
N476 C478 1.356 . S
N476 H488 0.984 . S
N476 H489 0.985 . S
N477 C479 1.356 . S
N477 H482 0.984 . S
N477 H483 0.985 . S
C478 C472 1.379 . S
C478 C475 1.363 . S
C478 N476 1.356 . S
C479 C473 1.363 . S
C479 C474 1.379 . S
C479 N477 1.356 . S
N480 C472 1.356 . S
N480 H486 0.984 . S
N480 H487 0.984 . S
N481 C474 1.356 . S
N481 H484 0.984 . S
N481 H485 0.985 . S
H482 N477 0.984 . S
H483 N477 0.985 . S
H484 N481 0.984 . S
H485 N481 0.985 . S
H486 N480 0.984 . S
H487 N480 0.984 . S
H488 N476 0.984 . S
H489 N476 0.985 . S
C490 C491 1.363 . S
C490 C496 1.379 . S
C490 N498 1.356 . S
C491 C490 1.363 . S
C491 C497 1.363 . S
C492 C493 1.363 . S
C492 C497 1.379 . S
C492 N499 1.356 . S
C493 C492 1.363 . S
C493 C496 1.363 . S
N494 C496 1.356 . S
N494 H506 0.984 . S
N494 H507 0.985 . S
N495 C497 1.356 . S
N495 H500 0.984 . S
N495 H501 0.985 . S
C496 C490 1.379 . S
C496 C493 1.363 . S
C496 N494 1.356 . S
C497 C491 1.363 . S
C497 C492 1.379 . S
C497 N495 1.356 . S
N498 C490 1.356 . S
N498 H504 0.984 . S
N498 H505 0.984 . S
N499 C492 1.356 . S
N499 H502 0.984 . S
N499 H503 0.985 . S
H500 N495 0.984 . S
H501 N495 0.985 . S
H502 N499 0.984 . S
H503 N499 0.985 . S
H504 N498 0.984 . S
H505 N498 0.984 . S
H506 N494 0.984 . S
H507 N494 0.985 . S
C508 C509 1.363 . S
C508 C514 1.379 . S
C508 N516 1.356 . S
C509 C508 1.363 . S
C509 C515 1.363 . S
C510 C511 1.363 . S
C510 C515 1.379 . S
C510 N517 1.356 . S
C511 C510 1.363 . S
C511 C514 1.363 . S
N512 C514 1.356 . S
N512 H524 0.984 . S
N512 H525 0.985 . S
N513 C515 1.356 . S
N513 H518 0.984 . S
N513 H519 0.985 . S
C514 C508 1.379 . S
C514 C511 1.363 . S
C514 N512 1.356 . S
C515 C509 1.363 . S
C515 C510 1.379 . S
C515 N513 1.356 . S
N516 C508 1.356 . S
N516 H522 0.984 . S
N516 H523 0.984 . S
N517 C510 1.356 . S
N517 H520 0.984 . S
N517 H521 0.985 . S
H518 N513 0.984 . S
H519 N513 0.985 . S
H520 N517 0.984 . S
H521 N517 0.985 . S
H522 N516 0.984 . S
H523 N516 0.984 . S
H524 N512 0.984 . S
H525 N512 0.985 . S
C526 C527 1.363 . S
C526 C532 1.379 . S
C526 N534 1.356 . S
C527 C526 1.363 . S
C527 C533 1.363 . S
C528 C529 1.363 . S
C528 C533 1.379 . S
C528 N535 1.356 . S
C529 C528 1.363 . S
C529 C532 1.363 . S
N530 C532 1.356 . S
N530 H542 0.984 . S
N530 H543 0.985 . S
N531 C533 1.356 . S
N531 H536 0.984 . S
N531 H537 0.985 . S
C532 C526 1.379 . S
C532 C529 1.363 . S
C532 N530 1.356 . S
C533 C527 1.363 . S
C533 C528 1.379 . S
C533 N531 1.356 . S
N534 C526 1.356 . S
N534 H540 0.984 . S
N534 H541 0.984 . S
N535 C528 1.356 . S
N535 H538 0.984 . S
N535 H539 0.985 . S
H536 N531 0.984 . S
H537 N531 0.985 . S
H538 N535 0.984 . S
H539 N535 0.985 . S
H540 N534 0.984 . S
H541 N534 0.984 . S
H542 N530 0.984 . S
H543 N530 0.985 . S
C544 C545 1.363 . S
C544 C550 1.379 . S
C544 N552 1.356 . S
C545 C544 1.363 . S
C545 C551 1.363 . S
C546 C547 1.363 . S
C546 C551 1.379 . S
C546 N553 1.356 . S
C547 C546 1.363 . S
C547 C550 1.363 . S
N548 C550 1.356 . S
N548 H560 0.984 . S
N548 H561 0.985 . S
N549 C551 1.356 . S
N549 H554 0.984 . S
N549 H555 0.985 . S
C550 C544 1.379 . S
C550 C547 1.363 . S
C550 N548 1.356 . S
C551 C545 1.363 . S
C551 C546 1.379 . S
C551 N549 1.356 . S
N552 C544 1.356 . S
N552 H558 0.984 . S
N552 H559 0.984 . S
N553 C546 1.356 . S
N553 H556 0.984 . S
N553 H557 0.985 . S
H554 N549 0.984 . S
H555 N549 0.985 . S
H556 N553 0.984 . S
H557 N553 0.985 . S
H558 N552 0.984 . S
H559 N552 0.984 . S
H560 N548 0.984 . S
H561 N548 0.985 . S
C562 C563 1.363 . S
C562 C568 1.379 . S
C562 N570 1.356 . S
C563 C562 1.363 . S
C563 C569 1.366 . S
C564 C565 1.363 . S
C564 C569 1.378 . S
C564 N571 1.356 1_455 S
C565 C564 1.363 . S
C565 C568 1.363 . S
N566 C568 1.356 . S
N566 H578 0.984 . S
N566 H579 0.985 . S
N567 C569 1.354 1_655 S
N567 H572 0.984 . S
N567 H573 0.985 . S
C568 C562 1.379 . S
C568 C565 1.363 . S
C568 N566 1.356 . S
C569 C563 1.366 . S
C569 C564 1.378 . S
C569 N567 1.354 1_455 S
N570 C562 1.356 . S
N570 H576 0.984 . S
N570 H577 0.984 . S
N571 C564 1.356 1_655 S
N571 H574 0.984 . S
N571 H575 0.985 . S
H572 N567 0.984 . S
H573 N567 0.985 . S
H574 N571 0.984 . S
H575 N571 0.985 . S
H576 N570 0.984 . S
H577 N570 0.984 . S
H578 N566 0.984 . S
H579 N566 0.985 . S
C580 C581 1.363 . S
C580 C586 1.379 . S
C580 N588 1.356 . S
C581 C580 1.363 . S
C581 C587 1.363 . S
C582 C583 1.363 . S
C582 C587 1.379 . S
C582 N589 1.356 . S
C583 C582 1.363 . S
C583 C586 1.363 . S
N584 C586 1.356 . S
N584 H596 0.984 . S
N584 H597 0.985 . S
N585 C587 1.356 . S
N585 H590 0.984 . S
N585 H591 0.985 . S
C586 C580 1.379 . S
C586 C583 1.363 . S
C586 N584 1.356 . S
C587 C581 1.363 . S
C587 C582 1.379 . S
C587 N585 1.356 . S
N588 C580 1.356 . S
N588 H594 0.984 . S
N588 H595 0.984 . S
N589 C582 1.356 . S
N589 H592 0.984 1_556 S
N589 H593 0.985 1_556 S
H590 N585 0.984 . S
H591 N585 0.985 . S
H592 N589 0.984 1_554 S
H593 N589 0.985 1_554 S
H594 N588 0.984 . S
H595 N588 0.984 . S
H596 N584 0.984 . S
H597 N584 0.985 . S
C598 C599 1.363 . S
C598 C604 1.379 . S
C598 N606 1.356 . S
C599 C598 1.363 . S
C599 C605 1.363 . S
C600 C601 1.363 . S
C600 C605 1.379 . S
C600 N607 1.356 . S
C601 C600 1.363 . S
C601 C604 1.363 . S
N602 C604 1.356 . S
N602 H614 0.984 . S
N602 H615 0.985 . S
N603 C605 1.356 . S
N603 H608 0.984 . S
N603 H609 0.985 . S
C604 C598 1.379 . S
C604 C601 1.363 . S
C604 N602 1.356 . S
C605 C599 1.363 . S
C605 C600 1.379 . S
C605 N603 1.356 . S
N606 C598 1.356 . S
N606 H612 0.984 . S
N606 H613 0.984 . S
N607 C600 1.356 . S
N607 H610 0.984 . S
N607 H611 0.985 . S
H608 N603 0.984 . S
H609 N603 0.985 . S
H610 N607 0.984 . S
H611 N607 0.985 . S
H612 N606 0.984 . S
H613 N606 0.984 . S
H614 N602 0.984 . S
H615 N602 0.985 . S
C616 C617 1.363 . S
C616 C622 1.379 . S
C616 N624 1.356 . S
C617 C616 1.363 . S
C617 C623 1.363 . S
C618 C619 1.363 . S
C618 C623 1.379 . S
C618 N625 1.356 . S
C619 C618 1.363 . S
C619 C622 1.363 . S
N620 C622 1.356 . S
N620 H632 0.984 . S
N620 H633 0.985 . S
N621 C623 1.356 . S
N621 H626 0.984 . S
N621 H627 0.985 . S
C622 C616 1.379 . S
C622 C619 1.363 . S
C622 N620 1.356 . S
C623 C617 1.363 . S
C623 C618 1.379 . S
C623 N621 1.356 . S
N624 C616 1.356 . S
N624 H630 0.984 . S
N624 H631 0.984 . S
N625 C618 1.356 . S
N625 H628 0.984 . S
N625 H629 0.985 . S
H626 N621 0.984 . S
H627 N621 0.985 . S
H628 N625 0.984 . S
H629 N625 0.985 . S
H630 N624 0.984 . S
H631 N624 0.984 . S
H632 N620 0.984 . S
H633 N620 0.985 . S
C634 C635 1.363 . S
C634 C640 1.379 . S
C634 N642 1.356 . S
C635 C634 1.363 . S
C635 C641 1.363 . S
C636 C637 1.363 . S
C636 C641 1.379 . S
C636 N643 1.356 . S
C637 C636 1.363 . S
C637 C640 1.363 . S
N638 C640 1.356 . S
N638 H650 0.984 . S
N638 H651 0.985 . S
N639 C641 1.356 . S
N639 H644 0.984 . S
N639 H645 0.985 . S
C640 C634 1.379 . S
C640 C637 1.363 . S
C640 N638 1.356 . S
C641 C635 1.363 . S
C641 C636 1.379 . S
C641 N639 1.356 . S
N642 C634 1.356 . S
N642 H648 0.984 . S
N642 H649 0.984 . S
N643 C636 1.356 . S
N643 H646 0.984 . S
N643 H647 0.985 . S
H644 N639 0.984 . S
H645 N639 0.985 . S
H646 N643 0.984 . S
H647 N643 0.985 . S
H648 N642 0.984 . S
H649 N642 0.984 . S
H650 N638 0.984 . S
H651 N638 0.985 . S
C652 C653 1.363 . S
C652 C658 1.379 . S
C652 N660 1.356 . S
C653 C652 1.363 . S
C653 C659 1.363 . S
C654 C655 1.363 . S
C654 C659 1.379 . S
C654 N661 1.356 . S
C655 C654 1.363 . S
C655 C658 1.363 . S
N656 C658 1.356 . S
N656 H668 0.984 . S
N656 H669 0.985 . S
N657 C659 1.356 . S
N657 H662 0.984 . S
N657 H663 0.985 . S
C658 C652 1.379 . S
C658 C655 1.363 . S
C658 N656 1.356 . S
C659 C653 1.363 . S
C659 C654 1.379 . S
C659 N657 1.356 . S
N660 C652 1.356 . S
N660 H666 0.984 . S
N660 H667 0.984 . S
N661 C654 1.356 . S
N661 H664 0.984 . S
N661 H665 0.985 . S
H662 N657 0.984 . S
H663 N657 0.985 . S
H664 N661 0.984 . S
H665 N661 0.985 . S
H666 N660 0.984 . S
H667 N660 0.984 . S
H668 N656 0.984 . S
H669 N656 0.985 . S
C670 C671 1.363 . S
C670 C676 1.379 . S
C670 N678 1.356 . S
C671 C670 1.363 . S
C671 C677 1.363 . S
C672 C673 1.363 . S
C672 C677 1.379 . S
C672 N679 1.356 . S
C673 C672 1.363 . S
C673 C676 1.363 . S
N674 C676 1.356 . S
N674 H686 0.984 . S
N674 H687 0.985 . S
N675 C677 1.356 . S
N675 H680 0.984 . S
N675 H681 0.985 . S
C676 C670 1.379 . S
C676 C673 1.363 . S
C676 N674 1.356 . S
C677 C671 1.363 . S
C677 C672 1.379 . S
C677 N675 1.356 . S
N678 C670 1.356 . S
N678 H684 0.984 . S
N678 H685 0.984 . S
N679 C672 1.356 . S
N679 H682 0.984 . S
N679 H683 0.985 . S
H680 N675 0.984 . S
H681 N675 0.985 . S
H682 N679 0.984 . S
H683 N679 0.985 . S
H684 N678 0.984 . S
H685 N678 0.984 . S
H686 N674 0.984 . S
H687 N674 0.985 . S
C688 C689 1.363 . S
C688 C694 1.379 . S
C688 N696 1.356 . S
C689 C688 1.363 . S
C689 C695 1.363 . S
C690 C691 1.363 . S
C690 C695 1.379 . S
C690 N697 1.356 . S
C691 C690 1.363 . S
C691 C694 1.363 . S
N692 C694 1.356 . S
N692 H704 0.984 . S
N692 H705 0.985 . S
N693 C695 1.356 . S
N693 H698 0.984 . S
N693 H699 0.985 . S
C694 C688 1.379 . S
C694 C691 1.363 . S
C694 N692 1.356 . S
C695 C689 1.363 . S
C695 C690 1.379 . S
C695 N693 1.356 . S
N696 C688 1.356 . S
N696 H702 0.984 . S
N696 H703 0.984 . S
N697 C690 1.356 . S
N697 H700 0.984 . S
N697 H701 0.985 . S
H698 N693 0.984 . S
H699 N693 0.985 . S
H700 N697 0.984 . S
H701 N697 0.985 . S
H702 N696 0.984 . S
H703 N696 0.984 . S
H704 N692 0.984 . S
H705 N692 0.985 . S
C706 C707 1.363 . S
C706 C712 1.379 . S
C706 N714 1.356 . S
C707 C706 1.363 . S
C707 C713 1.363 . S
C708 C709 1.363 . S
C708 C713 1.379 . S
C708 N715 1.356 . S
C709 C708 1.363 . S
C709 C712 1.363 . S
N710 C712 1.356 . S
N710 H722 0.984 . S
N710 H723 0.985 . S
N711 C713 1.356 . S
N711 H716 0.984 . S
N711 H717 0.985 . S
C712 C706 1.379 . S
C712 C709 1.363 . S
C712 N710 1.356 . S
C713 C707 1.363 . S
C713 C708 1.379 . S
C713 N711 1.356 . S
N714 C706 1.356 . S
N714 H720 0.984 . S
N714 H721 0.984 . S
N715 C708 1.356 . S
N715 H718 0.984 . S
N715 H719 0.985 . S
H716 N711 0.984 . S
H717 N711 0.985 . S
H718 N715 0.984 . S
H719 N715 0.985 . S
H720 N714 0.984 . S
H721 N714 0.984 . S
H722 N710 0.984 . S
H723 N710 0.985 . S
C724 C725 1.363 . S
C724 C730 1.379 . S
C724 N732 1.356 . S
C725 C724 1.363 . S
C725 C731 1.363 . S
C726 C727 1.363 . S
C726 C731 1.379 . S
C726 N733 1.356 . S
C727 C726 1.363 . S
C727 C730 1.363 . S
N728 C730 1.356 . S
N728 H740 0.984 . S
N728 H741 0.985 . S
N729 C731 1.356 . S
N729 H734 0.984 . S
N729 H735 0.985 . S
C730 C724 1.379 . S
C730 C727 1.363 . S
C730 N728 1.356 . S
C731 C725 1.363 . S
C731 C726 1.379 . S
C731 N729 1.356 . S
N732 C724 1.356 . S
N732 H738 0.984 . S
N732 H739 0.984 . S
N733 C726 1.356 . S
N733 H736 0.984 . S
N733 H737 0.985 . S
H734 N729 0.984 . S
H735 N729 0.985 . S
H736 N733 0.984 . S
H737 N733 0.985 . S
H738 N732 0.984 . S
H739 N732 0.984 . S
H740 N728 0.984 . S
H741 N728 0.985 . S
C742 C743 1.363 . S
C742 C748 1.379 . S
C742 N750 1.356 . S
C743 C742 1.363 . S
C743 C749 1.363 . S
C744 C745 1.363 . S
C744 C749 1.379 . S
C744 N751 1.356 . S
C745 C744 1.363 . S
C745 C748 1.363 . S
N746 C748 1.356 . S
N746 H758 0.984 . S
N746 H759 0.985 . S
N747 C749 1.356 . S
N747 H752 0.984 . S
N747 H753 0.985 . S
C748 C742 1.379 . S
C748 C745 1.363 . S
C748 N746 1.356 . S
C749 C743 1.363 . S
C749 C744 1.379 . S
C749 N747 1.356 . S
N750 C742 1.356 . S
N750 H756 0.984 . S
N750 H757 0.984 . S
N751 C744 1.356 . S
N751 H754 0.984 . S
N751 H755 0.985 . S
H752 N747 0.984 . S
H753 N747 0.985 . S
H754 N751 0.984 . S
H755 N751 0.985 . S
H756 N750 0.984 . S
H757 N750 0.984 . S
H758 N746 0.984 . S
H759 N746 0.985 . S
C760 C761 1.363 . S
C760 C766 1.379 . S
C760 N768 1.356 . S
C761 C760 1.363 . S
C761 C767 1.363 . S
C762 C763 1.363 . S
C762 C767 1.379 . S
C762 N769 1.356 . S
C763 C762 1.363 . S
C763 C766 1.363 . S
N764 C766 1.356 . S
N764 H776 0.984 . S
N764 H777 0.985 . S
N765 C767 1.356 . S
N765 H770 0.984 . S
N765 H771 0.985 . S
C766 C760 1.379 . S
C766 C763 1.363 . S
C766 N764 1.356 . S
C767 C761 1.363 . S
C767 C762 1.379 . S
C767 N765 1.356 . S
N768 C760 1.356 . S
N768 H774 0.984 . S
N768 H775 0.984 . S
N769 C762 1.356 . S
N769 H772 0.984 . S
N769 H773 0.985 . S
H770 N765 0.984 . S
H771 N765 0.985 . S
H772 N769 0.984 . S
H773 N769 0.985 . S
H774 N768 0.984 . S
H775 N768 0.984 . S
H776 N764 0.984 . S
H777 N764 0.985 . S
C778 C779 1.363 1_455 S
C778 C784 1.379 1_455 S
C778 N786 1.356 . S
C779 C778 1.363 1_655 S
C779 C785 1.363 . S
C780 C781 1.363 . S
C780 C785 1.379 . S
C780 N787 1.356 . S
C781 C780 1.363 . S
C781 C784 1.363 . S
N782 C784 1.356 1_455 S
N782 H794 0.984 . S
N782 H795 0.985 . S
N783 C785 1.356 . S
N783 H788 0.984 . S
N783 H789 0.985 . S
C784 C778 1.379 1_655 S
C784 C781 1.363 . S
C784 N782 1.356 1_655 S
C785 C779 1.363 . S
C785 C780 1.379 . S
C785 N783 1.356 . S
N786 C778 1.356 . S
N786 H792 0.984 . S
N786 H793 0.984 . S
N787 C780 1.356 . S
N787 H790 0.984 . S
N787 H791 0.985 . S
H788 N783 0.984 . S
H789 N783 0.985 . S
H790 N787 0.984 . S
H791 N787 0.985 . S
H792 N786 0.984 . S
H793 N786 0.984 . S
H794 N782 0.984 . S
H795 N782 0.985 . S
C796 C797 1.363 . S
C796 C802 1.379 . S
C796 N804 1.356 . S
C797 C796 1.363 . S
C797 C803 1.363 . S
C798 C799 1.363 . S
C798 C803 1.379 . S
C798 N805 1.356 . S
C799 C798 1.363 . S
C799 C802 1.363 . S
N800 C802 1.356 . S
N800 H812 0.984 . S
N800 H813 0.985 . S
N801 C803 1.356 . S
N801 H806 0.984 . S
N801 H807 0.985 . S
C802 C796 1.379 . S
C802 C799 1.363 . S
C802 N800 1.356 . S
C803 C797 1.363 . S
C803 C798 1.379 . S
C803 N801 1.356 . S
N804 C796 1.356 . S
N804 H810 0.984 . S
N804 H811 0.984 . S
N805 C798 1.356 . S
N805 H808 0.984 . S
N805 H809 0.985 . S
H806 N801 0.984 . S
H807 N801 0.985 . S
H808 N805 0.984 . S
H809 N805 0.985 . S
H810 N804 0.984 . S
H811 N804 0.984 . S
H812 N800 0.984 . S
H813 N800 0.985 . S
C814 C815 1.363 . S
C814 C820 1.379 . S
C814 N822 1.356 . S
C815 C814 1.363 . S
C815 C821 1.363 . S
C816 C817 1.363 . S
C816 C821 1.379 . S
C816 N823 1.356 . S
C817 C816 1.363 . S
C817 C820 1.363 . S
N818 C820 1.356 . S
N818 H830 0.984 . S
N818 H831 0.985 . S
N819 C821 1.356 . S
N819 H824 0.984 . S
N819 H825 0.985 . S
C820 C814 1.379 . S
C820 C817 1.363 . S
C820 N818 1.356 . S
C821 C815 1.363 . S
C821 C816 1.379 . S
C821 N819 1.356 . S
N822 C814 1.356 . S
N822 H828 0.984 . S
N822 H829 0.984 . S
N823 C816 1.356 . S
N823 H826 0.984 . S
N823 H827 0.985 . S
H824 N819 0.984 . S
H825 N819 0.985 . S
H826 N823 0.984 . S
H827 N823 0.985 . S
H828 N822 0.984 . S
H829 N822 0.984 . S
H830 N818 0.984 . S
H831 N818 0.985 . S
C832 C833 1.363 . S
C832 C838 1.379 . S
C832 N840 1.356 . S
C833 C832 1.363 . S
C833 C839 1.363 . S
C834 C835 1.363 . S
C834 C839 1.379 . S
C834 N841 1.356 . S
C835 C834 1.363 . S
C835 C838 1.363 . S
N836 C838 1.356 . S
N836 H848 0.984 . S
N836 H849 0.985 . S
N837 C839 1.356 . S
N837 H842 0.984 . S
N837 H843 0.985 . S
C838 C832 1.379 . S
C838 C835 1.363 . S
C838 N836 1.356 . S
C839 C833 1.363 . S
C839 C834 1.379 . S
C839 N837 1.356 . S
N840 C832 1.356 . S
N840 H846 0.984 . S
N840 H847 0.984 . S
N841 C834 1.356 . S
N841 H844 0.984 . S
N841 H845 0.985 . S
H842 N837 0.984 . S
H843 N837 0.985 . S
H844 N841 0.984 . S
H845 N841 0.985 . S
H846 N840 0.984 . S
H847 N840 0.984 . S
H848 N836 0.984 . S
H849 N836 0.985 . S
C850 C851 1.363 . S
C850 C856 1.379 . S
C850 N858 1.356 . S
C851 C850 1.363 . S
C851 C857 1.363 . S
C852 C853 1.363 . S
C852 C857 1.379 . S
C852 N859 1.356 . S
C853 C852 1.363 . S
C853 C856 1.363 . S
N854 C856 1.356 . S
N854 H866 0.984 . S
N854 H867 0.985 . S
N855 C857 1.356 . S
N855 H860 0.984 . S
N855 H861 0.985 . S
C856 C850 1.379 . S
C856 C853 1.363 . S
C856 N854 1.356 . S
C857 C851 1.363 . S
C857 C852 1.379 . S
C857 N855 1.356 . S
N858 C850 1.356 . S
N858 H864 0.984 . S
N858 H865 0.984 . S
N859 C852 1.356 . S
N859 H862 0.984 . S
N859 H863 0.985 . S
H860 N855 0.984 . S
H861 N855 0.985 . S
H862 N859 0.984 . S
H863 N859 0.985 . S
H864 N858 0.984 . S
H865 N858 0.984 . S
H866 N854 0.984 . S
H867 N854 0.985 . S
C868 C869 1.363 . S
C868 C874 1.379 . S
C868 N876 1.356 . S
C869 C868 1.363 . S
C869 C875 1.363 . S
C870 C871 1.363 . S
C870 C875 1.379 . S
C870 N877 1.356 . S
C871 C870 1.363 . S
C871 C874 1.363 . S
N872 C874 1.356 . S
N872 H884 0.984 . S
N872 H885 0.985 . S
N873 C875 1.356 . S
N873 H878 0.984 . S
N873 H879 0.985 . S
C874 C868 1.379 . S
C874 C871 1.363 . S
C874 N872 1.356 . S
C875 C869 1.363 . S
C875 C870 1.379 . S
C875 N873 1.356 . S
N876 C868 1.356 . S
N876 H882 0.984 . S
N876 H883 0.984 . S
N877 C870 1.356 . S
N877 H880 0.984 . S
N877 H881 0.985 . S
H878 N873 0.984 . S
H879 N873 0.985 . S
H880 N877 0.984 . S
H881 N877 0.985 . S
H882 N876 0.984 . S
H883 N876 0.984 . S
H884 N872 0.984 . S
H885 N872 0.985 . S
C886 C887 1.363 . S
C886 C892 1.379 . S
C886 N894 1.356 . S
C887 C886 1.363 . S
C887 C893 1.363 . S
C888 C889 1.363 . S
C888 C893 1.379 . S
C888 N895 1.356 . S
C889 C888 1.363 . S
C889 C892 1.363 . S
N890 C892 1.356 . S
N890 H902 0.984 . S
N890 H903 0.985 . S
N891 C893 1.356 . S
N891 H896 0.984 . S
N891 H897 0.985 . S
C892 C886 1.379 . S
C892 C889 1.363 . S
C892 N890 1.356 . S
C893 C887 1.363 . S
C893 C888 1.379 . S
C893 N891 1.356 . S
N894 C886 1.356 . S
N894 H900 0.984 . S
N894 H901 0.984 . S
N895 C888 1.356 . S
N895 H898 0.984 . S
N895 H899 0.985 . S
H896 N891 0.984 . S
H897 N891 0.985 . S
H898 N895 0.984 . S
H899 N895 0.985 . S
H900 N894 0.984 . S
H901 N894 0.984 . S
H902 N890 0.984 . S
H903 N890 0.985 . S
C473 C1 1.304 . S
C475 C329 1.391 . S
C491 C40 1.321 . S
C493 C369 1.388 . S
C511 C394 2.436 . S
C509 C99 2.503 . S
C527 C118 2.491 . S
C529 C434 2.430 . S
C547 C365 1.986 . S
C545 C16 1.833 . S
C565 C325 1.996 . S
C563 C60 1.854 . S
C583 C456 1.784 . S
C581 C79 1.820 . S
C601 C416 1.759 . S
C599 C138 1.787 . S
C617 C21 1.575 . S
C619 C458 1.650 . S
C637 C375 2.206 . S
C635 C94 2.259 . S
C653 C133 2.237 . S
C655 C335 2.188 . S
C671 C55 1.579 . S
C673 C418 1.648 . S
C691 C338 1.394 . S
C689 C157 1.319 . S
C707 C196 1.311 . S
C709 C378 1.390 . S
C725 C255 2.498 . S
C727 C415 2.435 . S
C743 C289 2.489 . S
C745 C455 2.425 . S
C761 C172 1.821 . S
C763 C376 1.983 . S
C781 C336 1.997 . S
C779 C216 1.822 . S
C799 C445 1.784 . S
C797 C235 1.821 . S
C817 C405 1.755 . S
C815 C294 1.793 . S
C833 C177 1.598 . S
C835 C449 1.646 . S
C853 C354 2.208 . S
C851 C250 2.261 . S
C871 C314 2.191 . S
C869 C274 2.237 . S
C887 C211 1.588 . S
C889 C409 1.649 . S
