# Generated by pormake.
# Topology llj, (12,3)-cn, num edge types: 1
# Building blocks:
#     Node 0, Type 0, BuildingBlock: QEWDON_clean_sbu_0, # of connection points: 12
#     Node 1, Type 0, BuildingBlock: QEWDON_clean_sbu_0, # of connection points: 12
#     Node 2, Type 1, BuildingBlock: INOVEN_clean_linker_0, # of connection points: 3
#     Node 3, Type 1, BuildingBlock: INOVEN_clean_linker_0, # of connection points: 3
#     Node 4, Type 1, BuildingBlock: INOVEN_clean_linker_0, # of connection points: 3
#     Node 5, Type 1, BuildingBlock: INOVEN_clean_linker_0, # of connection points: 3
#     Node 6, Type 1, BuildingBlock: INOVEN_clean_linker_0, # of connection points: 3
#     Node 7, Type 1, BuildingBlock: INOVEN_clean_linker_0, # of connection points: 3
#     Node 8, Type 1, BuildingBlock: INOVEN_clean_linker_0, # of connection points: 3
#     Node 9, Type 1, BuildingBlock: INOVEN_clean_linker_0, # of connection points: 3
#     Edge 10, Type (0, 1), BuildingBlock: KIFKEQ_clean_linker_1, # of connection points: 2
#     Edge 11, Type (0, 1), BuildingBlock: KIFKEQ_clean_linker_1, # of connection points: 2
#     Edge 12, Type (0, 1), BuildingBlock: KIFKEQ_clean_linker_1, # of connection points: 2
#     Edge 13, Type (0, 1), BuildingBlock: KIFKEQ_clean_linker_1, # of connection points: 2
#     Edge 14, Type (0, 1), BuildingBlock: KIFKEQ_clean_linker_1, # of connection points: 2
#     Edge 15, Type (0, 1), BuildingBlock: KIFKEQ_clean_linker_1, # of connection points: 2
#     Edge 16, Type (0, 1), BuildingBlock: KIFKEQ_clean_linker_1, # of connection points: 2
#     Edge 17, Type (0, 1), BuildingBlock: KIFKEQ_clean_linker_1, # of connection points: 2
#     Edge 18, Type (0, 1), BuildingBlock: KIFKEQ_clean_linker_1, # of connection points: 2
#     Edge 19, Type (0, 1), BuildingBlock: KIFKEQ_clean_linker_1, # of connection points: 2
#     Edge 20, Type (0, 1), BuildingBlock: KIFKEQ_clean_linker_1, # of connection points: 2
#     Edge 21, Type (0, 1), BuildingBlock: KIFKEQ_clean_linker_1, # of connection points: 2
#     Edge 22, Type (0, 1), BuildingBlock: KIFKEQ_clean_linker_1, # of connection points: 2
#     Edge 23, Type (0, 1), BuildingBlock: KIFKEQ_clean_linker_1, # of connection points: 2
#     Edge 24, Type (0, 1), BuildingBlock: KIFKEQ_clean_linker_1, # of connection points: 2
#     Edge 25, Type (0, 1), BuildingBlock: KIFKEQ_clean_linker_1, # of connection points: 2
#     Edge 26, Type (0, 1), BuildingBlock: KIFKEQ_clean_linker_1, # of connection points: 2
#     Edge 27, Type (0, 1), BuildingBlock: KIFKEQ_clean_linker_1, # of connection points: 2
#     Edge 28, Type (0, 1), BuildingBlock: KIFKEQ_clean_linker_1, # of connection points: 2
#     Edge 29, Type (0, 1), BuildingBlock: KIFKEQ_clean_linker_1, # of connection points: 2
#     Edge 30, Type (0, 1), BuildingBlock: KIFKEQ_clean_linker_1, # of connection points: 2
#     Edge 31, Type (0, 1), BuildingBlock: KIFKEQ_clean_linker_1, # of connection points: 2
#     Edge 32, Type (0, 1), BuildingBlock: KIFKEQ_clean_linker_1, # of connection points: 2
#     Edge 33, Type (0, 1), BuildingBlock: KIFKEQ_clean_linker_1, # of connection points: 2
# Relax obj value: 0.009
# Max RMSD: 0.096
# Mean RMSD: 0.082
data_MOF--net-llj--node1-QEWDON_clean_sbu_0--node2-INOVEN_clean_linker_0--edge1-KIFKEQ_clean_linker_1
_symmetry_space_group_name_H-M    P1
_symmetry_Int_Tables_number       1
_symmetry_cell_setting            triclinic
loop_
_symmetry_equiv_pos_as_xyz
'x, y, z'
_cell_length_a     39.880192
_cell_length_b     39.851456
_cell_length_c     24.967834
_cell_angle_alpha  91.050296
_cell_angle_beta   91.03292
_cell_angle_gamma 90.051529
loop_
_atom_site_label
_atom_site_type_symbol
_atom_site_fract_x
_atom_site_fract_y
_atom_site_fract_z
_atom_type_partial_charge
Zn0 Zn 0.95185 0.06794 0.94133 0.0
Zn1 Zn 0.94871 0.06449 0.06827 0.0
O2 O 0.97949 0.05791 0.00709 0.0
H3 H 0.99785 0.04215 0.00614 0.0
C4 C 0.91769 0.99987 0.86334 0.0
O5 O 0.91174 0.01209 0.91145 0.0
Zn6 Zn 0.05533 0.9374 0.06976 0.0
Zn7 Zn 0.05583 0.93868 0.94182 0.0
O8 O 0.02623 0.94575 0.00562 0.0
H9 H 0.00832 0.96199 0.00501 0.0
Zn10 Zn 0.9375 0.94493 0.92873 0.0
O11 O 0.94374 0.9743 0.99486 0.0
Zn12 Zn 0.93651 0.94464 0.05661 0.0
H13 H 0.95656 0.99486 0.99536 0.0
Zn14 Zn 0.07291 0.05886 0.95378 0.0
O15 O 0.06523 0.02688 0.01358 0.0
H16 H 0.05019 0.00813 0.00785 0.0
Zn17 Zn 0.06927 0.05536 0.07944 0.0
C18 C 0.09564 0.00676 0.88535 0.0
O19 O 0.10709 0.99779 0.93263 0.0
O20 O 0.91096 0.09741 0.95751 0.0
O21 O 0.90906 0.09502 0.04647 0.0
O22 O 0.09768 0.91083 0.95988 0.0
O23 O 0.09445 0.90673 0.04854 0.0
O24 O 0.91023 0.90215 0.94203 0.0
O25 O 0.91029 0.9031 0.0312 0.0
C26 C 0.00762 0.08414 0.13122 0.0
O27 O 0.10229 0.09908 0.97736 0.0
O28 O 0.10172 0.09382 0.06606 0.0
O29 O 0.03044 0.92773 0.87075 0.0
C30 C 0.89749 0.1057 0.00173 0.0
O31 O 0.97876 0.07647 0.87315 0.0
C32 C 0.99567 0.92055 0.12607 0.0
O33 O 0.92916 0.97026 0.85856 0.0
C34 C 0.10871 0.89959 0.00428 0.0
O35 O 0.08012 0.03445 0.88135 0.0
C36 C 0.91324 0.00257 0.11594 0.0
O37 O 0.97577 0.08547 0.13104 0.0
O38 O 0.02185 0.07028 0.09157 0.0
C39 C 0.90191 0.88939 0.98629 0.0
O40 O 0.02747 0.91846 0.12981 0.0
O41 O 0.98289 0.9325 0.08355 0.0
C42 C 0.08078 0.99555 0.13778 0.0
O43 O 0.91058 0.97075 0.11262 0.0
O44 O 0.93319 0.01702 0.08444 0.0
C45 C 0.11167 0.1087 0.02429 0.0
O46 O 0.08403 0.02721 0.1428 0.0
O47 O 0.07099 0.9835 0.0928 0.0
C48 C 0.00437 0.90963 0.87446 0.0
O49 O 0.99573 0.89916 0.92187 0.0
C50 C 0.00747 0.08993 0.87973 0.0
O51 O 0.0179 0.09803 0.92849 0.0
Zn52 Zn 0.44061 0.58658 0.45698 0.0
Zn53 Zn 0.44096 0.57433 0.58219 0.0
O54 O 0.47037 0.57365 0.5188 0.0
H55 H 0.48987 0.55967 0.51392 0.0
C56 C 0.4156 0.50976 0.39348 0.0
O57 O 0.40979 0.52131 0.44206 0.0
Zn58 Zn 0.56399 0.43667 0.57374 0.0
Zn59 Zn 0.56698 0.4313 0.44627 0.0
O60 O 0.53555 0.43915 0.50761 0.0
H61 H 0.51325 0.44838 0.5042 0.0
Zn62 Zn 0.44162 0.4543 0.45513 0.0
O63 O 0.45354 0.48214 0.52073 0.0
Zn64 Zn 0.44607 0.45232 0.5825 0.0
H65 H 0.46974 0.50015 0.52045 0.0
Zn66 Zn 0.56265 0.55344 0.46065 0.0
O67 O 0.54936 0.52711 0.52521 0.0
H68 H 0.53282 0.50939 0.5234 0.0
Zn69 Zn 0.55838 0.55695 0.58899 0.0
C70 C 0.59073 0.50054 0.39503 0.0
O71 O 0.60408 0.49326 0.44189 0.0
O72 O 0.39779 0.61103 0.47941 0.0
O73 O 0.39835 0.60182 0.56706 0.0
O74 O 0.61062 0.40802 0.46886 0.0
O75 O 0.60757 0.41212 0.55758 0.0
O76 O 0.41371 0.41251 0.4717 0.0
O77 O 0.41397 0.41359 0.56098 0.0
C78 C 0.49874 0.58895 0.64736 0.0
O79 O 0.59387 0.59317 0.47938 0.0
O80 O 0.59135 0.59443 0.56843 0.0
O81 O 0.54407 0.41507 0.37623 0.0
C82 C 0.38471 0.61449 0.52535 0.0
O83 O 0.46533 0.60121 0.38981 0.0
C84 C 0.50704 0.4148 0.63183 0.0
O85 O 0.4291 0.48107 0.38765 0.0
C86 C 0.6227 0.40248 0.51541 0.0
O87 O 0.57157 0.52588 0.39148 0.0
C88 C 0.42504 0.51222 0.6403 0.0
O89 O 0.46716 0.59348 0.64592 0.0
O90 O 0.5122 0.57436 0.60749 0.0
C91 C 0.40441 0.40051 0.51603 0.0
O92 O 0.53862 0.41114 0.62894 0.0
O93 O 0.49282 0.43518 0.60005 0.0
C94 C 0.57898 0.49728 0.64431 0.0
O95 O 0.42782 0.48059 0.64456 0.0
O96 O 0.4322 0.52554 0.59617 0.0
C97 C 0.60271 0.60584 0.52472 0.0
O98 O 0.5767 0.52896 0.65084 0.0
O99 O 0.5711 0.48457 0.5988 0.0
C100 C 0.52165 0.43357 0.35551 0.0
O101 O 0.51508 0.46281 0.37814 0.0
C102 C 0.49482 0.61271 0.39696 0.0
O103 O 0.50734 0.61529 0.4459 0.0
H104 H 0.35241 0.29146 0.91762 0.0
H105 H 0.42253 0.35943 0.9951 0.0
H106 H 0.3452 0.31329 0.08622 0.0
N107 N 0.31726 0.27863 0.00192 0.0
N108 N 0.29959 0.275 0.04212 0.0
C109 C 0.36158 0.30488 0.95309 0.0
C110 C 0.38948 0.32618 0.95019 0.0
C111 C 0.34538 0.30035 0.00167 0.0
C112 C 0.35746 0.31693 0.0484 0.0
C113 C 0.38546 0.33824 0.04618 0.0
C114 C 0.40103 0.34288 -0.00309 0.0
H115 H 0.68492 0.33348 0.10241 0.0
H116 H 0.62221 0.39978 0.01084 0.0
H117 H 0.68009 0.32363 0.93065 0.0
N118 N 0.70798 0.2983 0.02179 0.0
N119 N 0.71509 0.27941 0.98326 0.0
C120 C 0.67451 0.34146 0.06433 0.0
C121 C 0.65201 0.3685 0.06248 0.0
C122 C 0.68451 0.32495 0.01728 0.0
C123 C 0.67207 0.33589 0.96731 0.0
C124 C 0.64947 0.36298 0.96476 0.0
C125 C 0.63943 0.37879 0.01257 0.0
H126 H 0.67121 0.69489 0.11113 0.0
H127 H 0.58822 0.64953 0.02457 0.0
H128 H 0.67326 0.6854 0.93916 0.0
N129 N 0.70678 0.7096 0.02749 0.0
N130 N 0.72429 0.71349 0.98719 0.0
C131 C 0.65962 0.68634 0.07371 0.0
C132 C 0.62778 0.67141 0.07361 0.0
C133 C 0.67618 0.69147 0.02558 0.0
C134 C 0.66095 0.681 0.97673 0.0
C135 C 0.62893 0.66631 0.9763 0.0
C136 C 0.61268 0.66147 0.02481 0.0
H137 H 0.32829 0.68102 0.10459 0.0
H138 H 0.38424 0.60803 0.01432 0.0
H139 H 0.32969 0.68544 0.93255 0.0
N140 N 0.3043 0.71418 0.02277 0.0
N141 N 0.28958 0.72568 0.98264 0.0
C142 C 0.33732 0.67144 0.06658 0.0
C143 C 0.35761 0.64276 0.06501 0.0
C144 C 0.32683 0.68673 0.01913 0.0
C145 C 0.33765 0.67374 0.96948 0.0
C146 C 0.35896 0.64566 0.96757 0.0
C147 C 0.36866 0.63032 0.01553 0.0
H148 H 0.82305 0.82178 0.40857 0.0
H149 H 0.90469 0.87075 0.4939 0.0
H150 H 0.8339 0.81191 0.57937 0.0
N151 N 0.79648 0.79305 0.49224 0.0
N152 N 0.78763 0.77735 0.53243 0.0
C153 C 0.83653 0.82768 0.44563 0.0
C154 C 0.86531 0.84813 0.44522 0.0
C155 C 0.82504 0.81449 0.49373 0.0
C156 C 0.84239 0.82217 0.54209 0.0
C157 C 0.87116 0.84252 0.5423 0.0
C158 C 0.88231 0.85532 0.49381 0.0
H159 H 0.15042 0.81338 0.42575 0.0
H160 H 0.10259 0.89454 0.51108 0.0
H161 H 0.15646 0.81898 0.59763 0.0
N162 N 0.17752 0.78472 0.50997 0.0
N163 N 0.19334 0.77545 0.55065 0.0
C164 C 0.14369 0.82579 0.463 0.0
C165 C 0.12437 0.85529 0.46233 0.0
C166 C 0.15557 0.81275 0.51145 0.0
C167 C 0.14731 0.82889 0.55999 0.0
C168 C 0.12765 0.8581 0.56009 0.0
C169 C 0.11622 0.87102 0.51118 0.0
H170 H 0.17588 0.18766 0.59909 0.0
H171 H 0.09837 0.13924 0.50401 0.0
H172 H 0.17516 0.19571 0.42729 0.0
N173 N 0.20807 0.21437 0.51985 0.0
N174 N 0.21983 0.23004 0.48167 0.0
C175 C 0.16471 0.18124 0.56035 0.0
C176 C 0.1351 0.16222 0.55718 0.0
C177 C 0.17928 0.19351 0.51394 0.0
C178 C 0.16434 0.18606 0.4634 0.0
C179 C 0.13479 0.16679 0.45977 0.0
C180 C 0.12071 0.15476 0.50676 0.0
H181 H 0.80211 0.16622 0.4101 0.0
H182 H 0.8559 0.08528 0.48483 0.0
H183 H 0.81904 0.1674 0.5803 0.0
N184 N 0.79354 0.2023 0.49695 0.0
N185 N 0.78477 0.21582 0.53988 0.0
C186 C 0.81277 0.15441 0.44522 0.0
C187 C 0.82888 0.12316 0.44083 0.0
C188 C 0.80957 0.17061 0.49504 0.0
C189 C 0.82205 0.15526 0.54152 0.0
C190 C 0.83816 0.12404 0.53795 0.0
C191 C 0.84197 0.10855 0.48754 0.0
H192 H 0.14797 0.12835 0.11375 0.0
H193 H 0.13 0.15261 0.94763 0.0
H194 H 0.1923 0.17057 0.11959 0.0
H195 H 0.17336 0.19542 0.95401 0.0
H196 H 0.28085 0.23233 0.96093 0.0
H197 H 0.23316 0.1945 0.9597 0.0
H198 H 0.20665 0.22975 0.11817 0.0
H199 H 0.25558 0.26727 0.11971 0.0
C200 C 0.15312 0.14302 0.07874 0.0
C201 C 0.13586 0.13673 0.02996 0.0
C202 C 0.17841 0.16735 0.08218 0.0
C203 C 0.18673 0.18602 0.03703 0.0
C204 C 0.16819 0.18088 0.98915 0.0
C205 C 0.14319 0.15643 0.98557 0.0
C206 C 0.26485 0.2321 0.99549 0.0
C207 C 0.27172 0.2528 0.04058 0.0
C208 C 0.2373 0.21057 0.99464 0.0
C209 C 0.21581 0.20934 0.03859 0.0
C210 C 0.22282 0.22996 0.0838 0.0
C211 C 0.25061 0.25147 0.0847 0.0
H212 H 0.85738 0.12602 0.08492 0.0
H213 H 0.87235 0.13912 0.91555 0.0
H214 H 0.81115 0.1662 0.0819 0.0
H215 H 0.8274 0.17986 0.91298 0.0
H216 H 0.72727 0.23184 0.91067 0.0
H217 H 0.76902 0.18705 0.91639 0.0
H218 H 0.8002 0.22454 0.07315 0.0
H219 H 0.75756 0.26821 0.06787 0.0
C220 C 0.85088 0.13747 0.04711 0.0
C221 C 0.86865 0.12928 0.00053 0.0
C222 C 0.82449 0.16068 0.0454 0.0
C223 C 0.8154 0.17639 -0.00284 0.0
C224 C 0.8331 0.16791 0.95065 0.0
C225 C 0.85919 0.14461 0.95225 0.0
C226 C 0.743 0.23017 0.94634 0.0
C227 C 0.7392 0.25333 0.98855 0.0
C228 C 0.76706 0.20472 0.94964 0.0
C229 C 0.78825 0.20217 0.99518 0.0
C230 C 0.78409 0.22531 0.03782 0.0
C231 C 0.75978 0.25054 0.03466 0.0
H232 H 0.88907 0.84802 0.06962 0.0
H233 H 0.86671 0.86189 0.90145 0.0
H234 H 0.85049 0.80068 0.07025 0.0
H235 H 0.827 0.81564 0.9026 0.0
H236 H 0.76874 0.7193 0.91001 0.0
H237 H 0.81697 0.75745 0.90931 0.0
H238 H 0.79204 0.79325 0.0683 0.0
H239 H 0.7453 0.75431 0.06943 0.0
C240 C 0.87593 0.84094 0.03276 0.0
C241 C 0.88066 0.85895 0.98564 0.0
C242 C 0.85366 0.81389 0.03316 0.0
C243 C 0.83523 0.80452 0.98666 0.0
C244 C 0.84098 0.8218 0.93905 0.0
C245 C 0.8636 0.84856 0.93847 0.0
C246 C 0.77417 0.73505 0.94491 0.0
C247 C 0.75351 0.73385 0.98954 0.0
C248 C 0.80152 0.75705 0.9445 0.0
C249 C 0.80841 0.7786 0.98869 0.0
C250 C 0.78801 0.77668 0.03393 0.0
C251 C 0.76098 0.75447 0.03449 0.0
H252 H 0.15252 0.88923 0.92297 0.0
H253 H 0.13117 0.85831 0.08384 0.0
H254 H 0.19861 0.84951 0.91909 0.0
H255 H 0.17654 0.81747 0.07919 0.0
H256 H 0.27706 0.76472 0.07081 0.0
H257 H 0.23546 0.80937 0.07688 0.0
H258 H 0.20711 0.79107 0.91085 0.0
H259 H 0.24983 0.7473 0.90473 0.0
C260 C 0.15762 0.87389 0.95754 0.0
C261 C 0.13801 0.8768 0.00363 0.0
C262 C 0.18396 0.8509 0.95516 0.0
C263 C 0.19116 0.82994 -0.00144 0.0
C264 C 0.17202 0.83343 0.04519 0.0
C265 C 0.14585 0.85674 0.0478 0.0
C266 C 0.26205 0.77045 0.03559 0.0
C267 C 0.26645 0.75261 0.98707 0.0
C268 C 0.23804 0.79589 0.03913 0.0
C269 C 0.21775 0.80384 0.99445 0.0
C270 C 0.22259 0.7861 0.94589 0.0
C271 C 0.24683 0.76091 0.94229 0.0
H272 H 0.62348 0.64455 0.61135 0.0
H273 H 0.63861 0.62989 0.44155 0.0
H274 H 0.66596 0.68867 0.61359 0.0
H275 H 0.6818 0.67277 0.44417 0.0
H276 H 0.77102 0.73628 0.60959 0.0
H277 H 0.72463 0.69611 0.60895 0.0
H278 H 0.69307 0.73053 0.45267 0.0
H279 H 0.74031 0.76946 0.4529 0.0
C280 C 0.63589 0.65066 0.57453 0.0
C281 C 0.62764 0.63355 0.52633 0.0
C282 C 0.66044 0.67585 0.57585 0.0
C283 C 0.67754 0.68435 0.52909 0.0
C284 C 0.66889 0.66745 0.48084 0.0
C285 C 0.64419 0.64256 0.47942 0.0
C286 C 0.75398 0.73511 0.57532 0.0
C287 C 0.75936 0.75559 0.53135 0.0
C288 C 0.72725 0.71235 0.57499 0.0
C289 C 0.705 0.70987 0.53066 0.0
C290 C 0.71 0.73118 0.48706 0.0
C291 C 0.73698 0.75367 0.48724 0.0
H292 H 0.35356 0.65078 0.44753 0.0
H293 H 0.34558 0.62407 0.61388 0.0
H294 H 0.30481 0.68653 0.45552 0.0
H295 H 0.29566 0.65918 0.62139 0.0
H296 H 0.20275 0.73062 0.46864 0.0
H297 H 0.24606 0.68757 0.46487 0.0
H298 H 0.28047 0.71707 0.62415 0.0
H299 H 0.23598 0.75924 0.62827 0.0
C300 C 0.34113 0.65216 0.48573 0.0
C301 C 0.35365 0.63464 0.53015 0.0
C302 C 0.31288 0.67253 0.49019 0.0
C303 C 0.2961 0.67573 0.53906 0.0
C304 C 0.30819 0.65766 0.58331 0.0
C305 C 0.33672 0.63739 0.57895 0.0
C306 C 0.21935 0.7276 0.503 0.0
C307 C 0.21641 0.74837 0.54877 0.0
C308 C 0.24433 0.70307 0.50079 0.0
C309 C 0.26713 0.69908 0.54392 0.0
C310 C 0.26322 0.71913 0.59038 0.0
C311 C 0.23796 0.7434 0.59275 0.0
H312 H 0.36385 0.37851 0.59597 0.0
H313 H 0.39117 0.35762 0.43207 0.0
H314 H 0.32042 0.33535 0.58881 0.0
H315 H 0.3489 0.31379 0.42552 0.0
H316 H 0.25995 0.2385 0.57069 0.0
H317 H 0.30735 0.27709 0.58048 0.0
H318 H 0.29006 0.3098 0.4181 0.0
H319 H 0.2435 0.27018 0.40818 0.0
C320 C 0.36098 0.36432 0.55874 0.0
C321 C 0.38069 0.37181 0.51441 0.0
C322 C 0.33615 0.33945 0.55464 0.0
C323 C 0.33075 0.32129 0.50628 0.0
C324 C 0.35163 0.32782 0.4629 0.0
C325 C 0.3761 0.35285 0.4668 0.0
C326 C 0.26648 0.25381 0.53706 0.0
C327 C 0.24814 0.2515 0.48841 0.0
C328 C 0.29352 0.27611 0.54276 0.0
C329 C 0.30267 0.29666 0.50014 0.0
C330 C 0.28427 0.294 0.45153 0.0
C331 C 0.25747 0.27153 0.44577 0.0
H332 H 0.65454 0.36823 0.43586 0.0
H333 H 0.65961 0.38915 0.60636 0.0
H334 H 0.69885 0.32734 0.44515 0.0
H335 H 0.70546 0.34906 0.61542 0.0
H336 H 0.78774 0.26356 0.46415 0.0
H337 H 0.75507 0.31512 0.46194 0.0
H338 H 0.71149 0.29023 0.61369 0.0
H339 H 0.74594 0.23958 0.61677 0.0
C340 C 0.66568 0.36469 0.47525 0.0
C341 C 0.6532 0.38164 0.52047 0.0
C342 C 0.69142 0.34132 0.48057 0.0
C343 C 0.70574 0.33464 0.53115 0.0
C344 C 0.69457 0.35306 0.57602 0.0
C345 C 0.66843 0.37621 0.57078 0.0
C346 C 0.77146 0.26945 0.49726 0.0
C347 C 0.76865 0.24748 0.54032 0.0
C348 C 0.75262 0.29889 0.49597 0.0
C349 C 0.73006 0.30661 0.53709 0.0
C350 C 0.72874 0.28537 0.58149 0.0
C351 C 0.74818 0.25624 0.58323 0.0
H352 H 0.99312 0.07777 0.23646 0.0
H353 H 0.06493 0.12089 0.13086 0.0
H354 H 0.0252 0.09957 0.31389 0.0
H355 H 0.09764 0.14231 0.20791 0.0
H356 H 0.16237 0.14309 0.36652 0.0
H357 H 0.13226 0.12365 0.28524 0.0
H358 H 0.03846 0.154 0.35513 0.0
H359 H 0.0684 0.17315 0.43583 0.0
C360 C 0.01597 0.09173 0.22993 0.0
C361 C 0.02725 0.09684 0.17786 0.0
C362 C 0.03428 0.10434 0.27412 0.0
C363 C 0.06406 0.12262 0.26705 0.0
C364 C 0.07522 0.12776 0.21478 0.0
C365 C 0.05682 0.11515 0.17065 0.0
C366 C 0.13539 0.14607 0.36395 0.0
C367 C 0.11767 0.15921 0.40767 0.0
C368 C 0.11814 0.13488 0.31757 0.0
C369 C 0.0829 0.13672 0.31419 0.0
C370 C 0.06549 0.1514 0.35701 0.0
C371 C 0.08266 0.16252 0.40312 0.0
H372 H 0.91824 0.06911 0.14413 0.0
H373 H 0.86335 0.97919 0.17899 0.0
H374 H 0.89262 0.0981 0.21784 0.0
H375 H 0.83465 0.00909 0.25037 0.0
H376 H 0.8288 0.05543 0.41841 0.0
H377 H 0.84422 0.02746 0.33604 0.0
H378 H 0.84865 0.12339 0.25788 0.0
H379 H 0.83756 0.15162 0.34229 0.0
C380 C 0.90044 0.05559 0.16707 0.0
C381 C 0.89394 0.02156 0.1565 0.0
C382 C 0.88497 0.07249 0.20918 0.0
C383 C 0.86158 0.05603 0.24104 0.0
C384 C 0.85327 0.02246 0.22805 0.0
C385 C 0.86956 0.00532 0.18671 0.0
C386 C 0.83363 0.0707 0.38397 0.0
C387 C 0.83294 0.10596 0.38786 0.0
C388 C 0.84174 0.05449 0.33599 0.0
C389 C 0.84831 0.07303 0.28993 0.0
C390 C 0.84491 0.10818 0.29275 0.0
C391 C 0.83785 0.12446 0.34122 0.0
H392 H 0.01226 0.92291 0.23229 0.0
H393 H 0.93202 0.89544 0.12205 0.0
H394 H 0.9774 0.90702 0.3074 0.0
H395 H 0.89705 0.87963 0.19684 0.0
H396 H 0.87029 0.81503 0.34828 0.0
H397 H 0.89977 0.83377 0.26912 0.0
H398 H 0.92215 0.92831 0.34898 0.0
H399 H 0.8918 0.91025 0.42731 0.0
C400 C 0.98714 0.91354 0.2241 0.0
C401 C 0.97461 0.91076 0.17126 0.0
C402 C 0.96714 0.90468 0.26702 0.0
C403 C 0.93446 0.89231 0.25784 0.0
C404 C 0.92212 0.88912 0.20501 0.0
C405 C 0.94197 0.89849 0.16221 0.0
C406 C 0.88075 0.84012 0.3485 0.0
C407 C 0.87905 0.86095 0.39446 0.0
C408 C 0.89778 0.85076 0.30329 0.0
C409 C 0.91366 0.88226 0.30341 0.0
C410 C 0.91069 0.90364 0.34831 0.0
C411 C 0.89334 0.89323 0.39313 0.0
H412 H 0.10686 0.93273 0.13779 0.0
H413 H 0.06691 0.00955 0.24224 0.0
H414 H 0.11421 0.89556 0.21366 0.0
H415 H 0.07505 0.97277 0.3189 0.0
H416 H 0.06519 0.88605 0.43482 0.0
H417 H 0.05311 0.91877 0.35495 0.0
H418 H 0.15113 0.89459 0.29453 0.0
H419 H 0.16341 0.86234 0.37437 0.0
C420 C 0.09926 0.94141 0.17691 0.0
C421 C 0.08588 0.97366 0.18408 0.0
C422 C 0.10381 0.92035 0.22046 0.0
C423 C 0.09505 0.9312 0.27216 0.0
C424 C 0.0816 0.96356 0.27937 0.0
C425 C 0.07727 0.9847 0.23571 0.0
C426 C 0.08411 0.88763 0.40438 0.0
C427 C 0.11532 0.87166 0.41107 0.0
C428 C 0.07719 0.9064 0.35876 0.0
C429 C 0.10127 0.90941 0.31876 0.0
C430 C 0.13195 0.89243 0.32446 0.0
C431 C 0.13893 0.87382 0.37015 0.0
H432 H 0.12888 0.94717 0.88143 0.0
H433 H 0.07064 0.01485 0.78355 0.0
H434 H 0.13419 0.90878 0.80525 0.0
H435 H 0.07677 0.97673 0.70673 0.0
H436 H 0.06876 0.88633 0.59269 0.0
H437 H 0.05959 0.92103 0.67283 0.0
H438 H 0.16332 0.90752 0.7207 0.0
H439 H 0.17233 0.87275 0.64109 0.0
C440 C 0.11726 0.95389 0.84361 0.0
C441 C 0.09941 0.98407 0.83848 0.0
C442 C 0.12045 0.93195 0.79988 0.0
C443 C 0.10597 0.93975 0.74995 0.0
C444 C 0.08788 0.96983 0.74486 0.0
C445 C 0.08464 0.99181 0.78871 0.0
C446 C 0.08951 0.89071 0.62055 0.0
C447 C 0.12125 0.87682 0.61071 0.0
C448 C 0.08431 0.91064 0.66625 0.0
C449 C 0.11078 0.91713 0.70292 0.0
C450 C 0.1423 0.90261 0.69361 0.0
C451 C 0.14746 0.88264 0.64804 0.0
H452 H 0.99348 0.07607 0.77418 0.0
H453 H 0.0687 0.12081 0.88005 0.0
H454 H 0.02628 0.09165 0.6971 0.0
H455 H 0.10121 0.13685 0.80276 0.0
H456 H 0.16317 0.1347 0.64752 0.0
H457 H 0.13391 0.11469 0.72631 0.0
H458 H 0.03937 0.14522 0.65555 0.0
H459 H 0.06839 0.16516 0.57752 0.0
C460 C 0.01704 0.08916 0.78103 0.0
C461 C 0.0283 0.09757 0.83318 0.0
C462 C 0.03576 0.09819 0.73686 0.0
C463 C 0.06612 0.11582 0.74388 0.0
C464 C 0.078 0.12314 0.7961 0.0
C465 C 0.05925 0.11413 0.84033 0.0
C466 C 0.13618 0.13731 0.64914 0.0
C467 C 0.11804 0.15115 0.60614 0.0
C468 C 0.11945 0.12582 0.6941 0.0
C469 C 0.08431 0.12799 0.69674 0.0
C470 C 0.06636 0.14242 0.65413 0.0
C471 C 0.08301 0.1539 0.60946 0.0
H472 H 0.89221 0.06333 0.86045 0.0
H473 H 0.92469 0.98127 0.75828 0.0
H474 H 0.87465 0.09448 0.78178 0.0
H475 H 0.9076 0.01273 0.67958 0.0
H476 H 0.83147 0.05814 0.56227 0.0
H477 H 0.85348 0.02936 0.64044 0.0
H478 H 0.89545 0.12268 0.70188 0.0
H479 H 0.87331 0.15161 0.62325 0.0
C480 C 0.89591 0.05208 0.8212 0.0
C481 C 0.90947 0.01969 0.81557 0.0
C482 C 0.88603 0.07003 0.77613 0.0
C483 C 0.88949 0.05592 0.72458 0.0
C484 C 0.90411 0.024 0.7189 0.0
C485 C 0.91403 0.00605 0.76395 0.0
C486 C 0.84564 0.07247 0.59225 0.0
C487 C 0.85084 0.10708 0.58656 0.0
C488 C 0.85832 0.05597 0.63693 0.0
C489 C 0.87646 0.07371 0.67701 0.0
C490 C 0.88136 0.10842 0.67174 0.0
C491 C 0.86865 0.12498 0.62688 0.0
H492 H 0.94852 0.87003 0.86925 0.0
H493 H 0.01466 0.92758 0.77076 0.0
H494 H 0.91555 0.85358 0.78999 0.0
H495 H 0.98157 0.91108 0.69145 0.0
H496 H 0.93903 0.84208 0.55846 0.0
H497 H 0.97052 0.859 0.63895 0.0
H498 H 0.87774 0.87772 0.72094 0.0
H499 H 0.84609 0.86099 0.63995 0.0
C500 C 0.95586 0.87941 0.83077 0.0
C501 C 0.98416 0.90017 0.82633 0.0
C502 C 0.9369 0.87003 0.78538 0.0
C503 C 0.946 0.88097 0.73451 0.0
C504 C 0.97418 0.90192 0.73008 0.0
C505 C 0.99304 0.91148 0.77553 0.0
C506 C 0.92532 0.84998 0.59356 0.0
C507 C 0.89006 0.85048 0.59272 0.0
C508 C 0.94338 0.85972 0.63961 0.0
C509 C 0.92661 0.87001 0.68606 0.0
C510 C 0.89134 0.86971 0.68579 0.0
C511 C 0.87323 0.86005 0.63953 0.0
H512 H 0.47697 0.59671 0.74954 0.0
H513 H 0.56494 0.60557 0.65316 0.0
H514 H 0.50941 0.61506 0.8284 0.0
H515 H 0.59741 0.62474 0.73109 0.0
H516 H 0.65262 0.62751 0.89403 0.0
H517 H 0.62143 0.60754 0.81438 0.0
H518 H 0.53495 0.66447 0.86506 0.0
H519 H 0.56584 0.68335 0.94504 0.0
C520 C 0.50329 0.60265 0.74517 0.0
C521 C 0.51861 0.59944 0.69516 0.0
C522 C 0.52186 0.61334 0.79026 0.0
C523 C 0.55607 0.62152 0.78611 0.0
C524 C 0.57132 0.61811 0.73603 0.0
C525 C 0.55276 0.6071 0.69118 0.0
C526 C 0.62705 0.63589 0.88761 0.0
C527 C 0.6115 0.65673 0.92559 0.0
C528 C 0.60917 0.62452 0.84211 0.0
C529 C 0.57553 0.63412 0.8336 0.0
C530 C 0.56049 0.65588 0.87098 0.0
C531 C 0.57822 0.66692 0.91656 0.0
H532 H 0.38331 0.56571 0.64179 0.0
H533 H 0.4453 0.50482 0.74415 0.0
H534 H 0.36962 0.6022 0.71784 0.0
H535 H 0.43027 0.53998 0.82135 0.0
H536 H 0.42201 0.62592 0.94067 0.0
H537 H 0.43898 0.59557 0.85983 0.0
H538 H 0.33719 0.60042 0.79798 0.0
H539 H 0.32049 0.63132 0.87846 0.0
C540 C 0.39446 0.56064 0.6805 0.0
C541 C 0.41607 0.53325 0.68694 0.0
C542 C 0.38614 0.58104 0.7243 0.0
C543 C 0.39902 0.57417 0.77571 0.0
C544 C 0.4204 0.54637 0.78216 0.0
C545 C 0.42875 0.52602 0.73818 0.0
C546 C 0.40337 0.62071 0.90951 0.0
C547 C 0.3699 0.63082 0.91589 0.0
C548 C 0.41303 0.60317 0.86339 0.0
C549 C 0.38937 0.59519 0.82273 0.0
C550 C 0.35613 0.60642 0.82829 0.0
C551 C 0.34653 0.62414 0.87435 0.0
H552 H 0.44089 0.42105 0.65901 0.0
H553 H 0.53062 0.36492 0.69542 0.0
H554 H 0.41238 0.39449 0.73151 0.0
H555 H 0.5015 0.33641 0.76606 0.0
H556 H 0.45676 0.33219 0.93321 0.0
H557 H 0.4839 0.34928 0.85221 0.0
H558 H 0.38829 0.3467 0.76756 0.0
H559 H 0.36069 0.3324 0.85023 0.0
C560 C 0.45444 0.4028 0.68192 0.0
C561 C 0.48824 0.3959 0.67199 0.0
C562 C 0.4379 0.38705 0.72332 0.0
C563 C 0.45466 0.36342 0.75523 0.0
C564 C 0.48799 0.35508 0.74329 0.0
C565 C 0.50465 0.37133 0.70247 0.0
C566 C 0.44144 0.3355 0.89744 0.0
C567 C 0.40643 0.33167 0.8986 0.0
C568 C 0.45714 0.34472 0.85053 0.0
C569 C 0.43831 0.34969 0.80319 0.0
C570 C 0.40351 0.34382 0.80352 0.0
C571 C 0.38771 0.33512 0.85079 0.0
H572 H 0.56194 0.50479 0.74906 0.0
H573 H 0.61903 0.44229 0.64187 0.0
H574 H 0.57778 0.46873 0.82364 0.0
H575 H 0.63385 0.40525 0.71541 0.0
H576 H 0.68652 0.37617 0.87635 0.0
H577 H 0.66868 0.40681 0.79694 0.0
H578 H 0.56784 0.41201 0.85685 0.0
H579 H 0.58571 0.38144 0.93616 0.0
C580 C 0.57761 0.48309 0.74141 0.0
C581 C 0.58862 0.47571 0.68947 0.0
C582 C 0.58643 0.46225 0.78391 0.0
C583 C 0.60677 0.43383 0.77538 0.0
C584 C 0.6181 0.42683 0.7234 0.0
C585 C 0.60914 0.44763 0.68101 0.0
C586 C 0.6604 0.38319 0.87194 0.0
C587 C 0.63761 0.37665 0.91274 0.0
C588 C 0.65017 0.40085 0.82652 0.0
C589 C 0.61693 0.41231 0.82096 0.0
C590 C 0.59379 0.40424 0.86051 0.0
C591 C 0.60399 0.3866 0.9058 0.0
H592 H 0.56514 0.50718 0.29351 0.0
H593 H 0.63298 0.44673 0.38805 0.0
H594 H 0.57849 0.47373 0.21399 0.0
H595 H 0.6463 0.41334 0.3084 0.0
H596 H 0.63668 0.34238 0.16006 0.0
H597 H 0.62039 0.37304 0.24129 0.0
H598 H 0.62917 0.46663 0.1582 0.0
H599 H 0.64591 0.43628 0.07763 0.0
C600 C 0.58289 0.48677 0.29736 0.0
C601 C 0.59814 0.47972 0.34706 0.0
C602 C 0.59055 0.46766 0.25179 0.0
C603 C 0.61357 0.44106 0.25496 0.0
C604 C 0.62825 0.43351 0.30485 0.0
C605 C 0.62071 0.45274 0.35041 0.0
C606 C 0.63539 0.36951 0.15932 0.0
C607 C 0.64238 0.38685 0.11224 0.0
C608 C 0.62599 0.38703 0.20575 0.0
C609 C 0.62325 0.42219 0.20591 0.0
C610 C 0.63041 0.43949 0.15897 0.0
C611 C 0.63997 0.42206 0.11278 0.0
H612 H 0.5581 0.63905 0.39878 0.0
H613 H 0.47704 0.60869 0.29106 0.0
H614 H 0.59111 0.65587 0.32249 0.0
H615 H 0.51032 0.62471 0.21496 0.0
H616 H 0.56296 0.68727 0.09416 0.0
H617 H 0.53142 0.67482 0.17405 0.0
H618 H 0.62021 0.63132 0.24626 0.0
H619 H 0.65191 0.64437 0.16631 0.0
C620 C 0.54736 0.63591 0.35884 0.0
C621 C 0.51491 0.62272 0.3509 0.0
C622 C 0.56635 0.64537 0.31517 0.0
C623 C 0.55325 0.64179 0.26276 0.0
C624 C 0.52088 0.62838 0.25492 0.0
C625 C 0.50188 0.619 0.29851 0.0
C626 C 0.57572 0.67515 0.12724 0.0
C627 C 0.60974 0.66646 0.12402 0.0
C628 C 0.55767 0.66792 0.17286 0.0
C629 C 0.57322 0.65169 0.21615 0.0
C630 C 0.6076 0.64406 0.21369 0.0
C631 C 0.62573 0.65148 0.16802 0.0
H632 H 0.38799 0.57262 0.39155 0.0
H633 H 0.42252 0.49229 0.28835 0.0
H634 H 0.37371 0.60569 0.31319 0.0
H635 H 0.4099 0.52565 0.21033 0.0
H636 H 0.34931 0.57625 0.08116 0.0
H637 H 0.36256 0.54493 0.16147 0.0
H638 H 0.39759 0.63618 0.24055 0.0
H639 H 0.38315 0.66772 0.16011 0.0
C640 C 0.39294 0.56217 0.3522 0.0
C641 C 0.40684 0.52996 0.34619 0.0
C642 C 0.38494 0.5812 0.30727 0.0
C643 C 0.39067 0.56836 0.25541 0.0
C644 C 0.4047 0.53619 0.24959 0.0
C645 C 0.4124 0.51715 0.29441 0.0
C646 C 0.35997 0.58954 0.11569 0.0
C647 C 0.36552 0.62429 0.11444 0.0
C648 C 0.36768 0.57162 0.16166 0.0
C649 C 0.38149 0.58796 0.20731 0.0
C650 C 0.38668 0.62289 0.20626 0.0
C651 C 0.37857 0.64093 0.16027 0.0
H652 H 0.4761 0.46832 0.29608 0.0
H653 H 0.52176 0.37066 0.31045 0.0
H654 H 0.43903 0.44647 0.22458 0.0
H655 H 0.48577 0.34911 0.23799 0.0
H656 H 0.39668 0.31029 0.14395 0.0
H657 H 0.42777 0.33472 0.22018 0.0
H658 H 0.44002 0.42671 0.13352 0.0
H659 H 0.40757 0.40287 0.0586 0.0
C660 C 0.47814 0.44222 0.2839 0.0
C661 C 0.50134 0.42111 0.30936 0.0
C662 C 0.45713 0.42975 0.24279 0.0
C663 C 0.45907 0.39591 0.22619 0.0
C664 C 0.483 0.37507 0.25076 0.0
C665 C 0.50392 0.38753 0.29188 0.0
C666 C 0.40529 0.336 0.1418 0.0
C667 C 0.39999 0.35455 0.09514 0.0
C668 C 0.42354 0.34984 0.1851 0.0
C669 C 0.43688 0.38245 0.18254 0.0
C670 C 0.43006 0.40157 0.13691 0.0
C671 C 0.41171 0.3878 0.09378 0.0
loop_
_geom_bond_atom_site_label_1
_geom_bond_atom_site_label_2
_geom_bond_distance
_geom_bond_site_symmetry_2
_ccdc_geom_bond_type
Zn0 O2 1.933 1_556 S
Zn0 O20 1.985 . S
Zn0 O31 1.955 . S
Zn1 O2 1.911 . S
Zn1 O21 1.970 . S
Zn1 O37 1.945 . S
Zn1 O44 1.981 . S
O2 Zn0 1.933 1_554 S
O2 Zn1 1.911 . S
O2 H3 0.841 1_655 S
H3 O2 0.841 1_455 S
C4 O5 1.246 . S
C4 O33 1.276 1_545 S
O5 C4 1.246 . S
Zn6 O8 1.911 . S
Zn6 O23 1.970 . S
Zn6 O40 1.945 . S
Zn6 O47 1.981 . S
Zn7 O8 1.933 1_556 S
Zn7 O22 1.985 . S
Zn7 O29 1.955 . S
O8 Zn6 1.911 . S
O8 Zn7 1.933 1_554 S
O8 H9 0.841 1_455 S
H9 O8 0.841 1_655 S
Zn10 O11 1.933 1_556 S
Zn10 O24 1.985 . S
Zn10 O33 1.955 . S
O11 Zn10 1.933 1_554 S
O11 Zn12 1.911 . S
O11 H13 0.841 1_565 S
Zn12 O11 1.911 . S
Zn12 O25 1.970 . S
Zn12 O41 1.981 . S
Zn12 O43 1.945 . S
H13 O11 0.841 1_545 S
Zn14 O15 1.933 1_556 S
Zn14 O27 1.985 . S
Zn14 O35 1.955 . S
O15 Zn14 1.933 1_554 S
O15 H16 0.841 1_545 S
O15 Zn17 1.911 . S
H16 O15 0.841 1_565 S
Zn17 O15 1.911 . S
Zn17 O28 1.970 . S
Zn17 O38 1.981 . S
Zn17 O46 1.945 . S
C18 O19 1.246 . S
C18 O35 1.276 1_565 S
O19 C18 1.246 . S
O20 Zn0 1.985 . S
O20 C30 1.245 1_556 S
O21 Zn1 1.970 . S
O21 C30 1.263 . S
O22 Zn7 1.985 . S
O22 C34 1.245 1_556 S
O23 Zn6 1.970 . S
O23 C34 1.263 . S
O24 Zn10 1.985 . S
O24 C39 1.245 1_556 S
O25 Zn12 1.970 . S
O25 C39 1.263 . S
C26 O37 1.262 1_455 S
C26 O38 1.245 . S
O27 Zn14 1.985 . S
O27 C45 1.245 1_556 S
O28 Zn17 1.970 . S
O28 C45 1.263 . S
O29 Zn7 1.955 . S
O29 C48 1.276 1_455 S
C30 O20 1.245 1_554 S
C30 O21 1.263 . S
O31 Zn0 1.955 . S
O31 C50 1.276 1_655 S
C32 O40 1.262 1_655 S
C32 O41 1.245 . S
O33 C4 1.276 1_565 S
O33 Zn10 1.955 . S
C34 O22 1.245 1_554 S
C34 O23 1.263 . S
O35 Zn14 1.955 . S
O35 C18 1.276 1_545 S
C36 O43 1.262 1_545 S
C36 O44 1.245 . S
O37 Zn1 1.945 . S
O37 C26 1.262 1_655 S
O38 Zn17 1.981 . S
O38 C26 1.245 . S
C39 O24 1.245 1_554 S
C39 O25 1.263 . S
O40 Zn6 1.945 . S
O40 C32 1.262 1_455 S
O41 Zn12 1.981 . S
O41 C32 1.245 . S
C42 O46 1.262 1_565 S
C42 O47 1.245 . S
O43 Zn12 1.945 . S
O43 C36 1.262 1_565 S
O44 Zn1 1.981 . S
O44 C36 1.245 . S
C45 O27 1.245 1_554 S
C45 O28 1.263 . S
O46 Zn17 1.945 . S
O46 C42 1.262 1_545 S
O47 Zn6 1.981 . S
O47 C42 1.245 . S
C48 O29 1.276 1_655 S
C48 O49 1.246 . S
O49 C48 1.246 . S
C50 O31 1.276 1_455 S
C50 O51 1.246 . S
O51 C50 1.246 . S
Zn52 O54 1.933 . S
Zn52 O72 1.985 . S
Zn52 O83 1.955 . S
Zn53 O54 1.911 . S
Zn53 O73 1.970 . S
Zn53 O89 1.945 . S
Zn53 O96 1.981 . S
O54 Zn52 1.933 . S
O54 Zn53 1.911 . S
O54 H55 0.841 . S
H55 O54 0.841 . S
C56 O57 1.246 . S
C56 O85 1.276 . S
O57 C56 1.246 . S
Zn58 O60 1.911 . S
Zn58 O75 1.970 . S
Zn58 O92 1.945 . S
Zn58 O99 1.981 . S
Zn59 O60 1.933 . S
Zn59 O74 1.985 . S
Zn59 O81 1.955 . S
O60 Zn58 1.911 . S
O60 Zn59 1.933 . S
O60 H61 0.841 . S
H61 O60 0.841 . S
Zn62 O63 1.933 . S
Zn62 O76 1.985 . S
Zn62 O85 1.955 . S
O63 Zn62 1.933 . S
O63 Zn64 1.911 . S
O63 H65 0.841 . S
Zn64 O63 1.911 . S
Zn64 O77 1.970 . S
Zn64 O93 1.981 . S
Zn64 O95 1.945 . S
H65 O63 0.841 . S
Zn66 O67 1.933 . S
Zn66 O79 1.985 . S
Zn66 O87 1.955 . S
O67 Zn66 1.933 . S
O67 H68 0.841 . S
O67 Zn69 1.911 . S
H68 O67 0.841 . S
Zn69 O67 1.911 . S
Zn69 O80 1.970 . S
Zn69 O90 1.981 . S
Zn69 O98 1.945 . S
C70 O71 1.246 . S
C70 O87 1.276 . S
O71 C70 1.246 . S
O72 Zn52 1.985 . S
O72 C82 1.245 . S
O73 Zn53 1.970 . S
O73 C82 1.263 . S
O74 Zn59 1.985 . S
O74 C86 1.245 . S
O75 Zn58 1.970 . S
O75 C86 1.263 . S
O76 Zn62 1.985 . S
O76 C91 1.245 . S
O77 Zn64 1.970 . S
O77 C91 1.263 . S
C78 O89 1.262 . S
C78 O90 1.245 . S
O79 Zn66 1.985 . S
O79 C97 1.245 . S
O80 Zn69 1.970 . S
O80 C97 1.263 . S
O81 Zn59 1.955 . S
O81 C100 1.276 . S
C82 O72 1.245 . S
C82 O73 1.263 . S
O83 Zn52 1.955 . S
O83 C102 1.276 . S
C84 O92 1.262 . S
C84 O93 1.245 . S
O85 C56 1.276 . S
O85 Zn62 1.955 . S
C86 O74 1.245 . S
C86 O75 1.263 . S
O87 Zn66 1.955 . S
O87 C70 1.276 . S
C88 O95 1.262 . S
C88 O96 1.245 . S
O89 Zn53 1.945 . S
O89 C78 1.262 . S
O90 Zn69 1.981 . S
O90 C78 1.245 . S
C91 O76 1.245 . S
C91 O77 1.263 . S
O92 Zn58 1.945 . S
O92 C84 1.262 . S
O93 Zn64 1.981 . S
O93 C84 1.245 . S
C94 O98 1.262 . S
C94 O99 1.245 . S
O95 Zn64 1.945 . S
O95 C88 1.262 . S
O96 Zn53 1.981 . S
O96 C88 1.245 . S
C97 O79 1.245 . S
C97 O80 1.263 . S
O98 Zn69 1.945 . S
O98 C94 1.262 . S
O99 Zn58 1.981 . S
O99 C94 1.245 . S
C100 O81 1.276 . S
C100 O101 1.246 . S
O101 C100 1.246 . S
C102 O83 1.276 . S
C102 O103 1.246 . S
O103 C102 1.246 . S
H104 C109 0.929 . S
H105 C114 0.931 . S
H106 C112 0.930 . S
N107 N108 1.234 1_556 S
N107 C111 1.455 . S
N108 N107 1.234 1_554 S
C109 H104 0.929 . S
C109 C110 1.373 . S
C109 C111 1.375 . S
C110 C109 1.373 . S
C110 C114 1.397 1_556 S
C111 N107 1.455 . S
C111 C109 1.375 . S
C111 C112 1.365 1_556 S
C112 H106 0.930 . S
C112 C111 1.365 1_554 S
C112 C113 1.371 . S
C113 C112 1.371 . S
C113 C114 1.383 . S
C114 H105 0.931 . S
C114 C110 1.397 1_554 S
C114 C113 1.383 . S
H115 C120 0.929 . S
H116 C125 0.931 . S
H117 C123 0.930 . S
N118 N119 1.234 . S
N118 C122 1.453 . S
N119 N118 1.234 . S
C120 H115 0.929 . S
C120 C121 1.373 . S
C120 C122 1.368 . S
C121 C120 1.373 . S
C121 C125 1.397 . S
C122 N118 1.453 . S
C122 C120 1.368 . S
C122 C123 1.373 1_554 S
C123 H117 0.930 . S
C123 C122 1.373 1_556 S
C123 C124 1.371 . S
C124 C123 1.371 . S
C124 C125 1.383 1_556 S
C125 H116 0.931 . S
C125 C121 1.397 . S
C125 C124 1.383 1_554 S
H126 C131 0.929 . S
H127 C136 0.931 . S
H128 C134 0.930 . S
N129 N130 1.234 . S
N129 C133 1.453 . S
N130 N129 1.234 . S
C131 H126 0.929 . S
C131 C132 1.373 . S
C131 C133 1.368 . S
C132 C131 1.373 . S
C132 C136 1.397 . S
C133 N129 1.453 . S
C133 C131 1.368 . S
C133 C134 1.373 1_554 S
C134 H128 0.930 . S
C134 C133 1.373 1_556 S
C134 C135 1.371 . S
C135 C134 1.371 . S
C135 C136 1.383 1_556 S
C136 H127 0.931 . S
C136 C132 1.397 . S
C136 C135 1.383 1_554 S
H137 C142 0.929 . S
H138 C147 0.931 . S
H139 C145 0.930 . S
N140 N141 1.234 1_554 S
N140 C144 1.453 . S
N141 N140 1.234 1_556 S
C142 H137 0.929 . S
C142 C143 1.373 . S
C142 C144 1.368 . S
C143 C142 1.373 . S
C143 C147 1.397 . S
C144 N140 1.453 . S
C144 C142 1.368 . S
C144 C145 1.373 1_554 S
C145 H139 0.930 . S
C145 C144 1.373 1_556 S
C145 C146 1.371 . S
C146 C145 1.371 . S
C146 C147 1.383 1_556 S
C147 H138 0.931 . S
C147 C143 1.397 . S
C147 C146 1.383 1_554 S
H148 C153 0.929 . S
H149 C158 0.931 . S
H150 C156 0.930 . S
N151 N152 1.234 . S
N151 C155 1.453 . S
N152 N151 1.234 . S
C153 H148 0.929 . S
C153 C154 1.373 . S
C153 C155 1.368 . S
C154 C153 1.373 . S
C154 C158 1.397 . S
C155 N151 1.453 . S
C155 C153 1.368 . S
C155 C156 1.373 . S
C156 H150 0.930 . S
C156 C155 1.373 . S
C156 C157 1.371 . S
C157 C156 1.371 . S
C157 C158 1.383 . S
C158 H149 0.931 . S
C158 C154 1.397 . S
C158 C157 1.383 . S
H159 C164 0.929 . S
H160 C169 0.931 . S
H161 C167 0.930 . S
N162 N163 1.234 . S
N162 C166 1.453 . S
N163 N162 1.234 . S
C164 H159 0.929 . S
C164 C165 1.373 . S
C164 C166 1.368 . S
C165 C164 1.373 . S
C165 C169 1.397 . S
C166 N162 1.453 . S
C166 C164 1.368 . S
C166 C167 1.373 . S
C167 H161 0.930 . S
C167 C166 1.373 . S
C167 C168 1.371 . S
C168 C167 1.371 . S
C168 C169 1.383 . S
C169 H160 0.931 . S
C169 C165 1.397 . S
C169 C168 1.383 . S
H170 C175 0.929 . S
H171 C180 0.931 . S
H172 C178 0.930 . S
N173 N174 1.234 . S
N173 C177 1.453 . S
N174 N173 1.234 . S
C175 H170 0.929 . S
C175 C176 1.373 . S
C175 C177 1.368 . S
C176 C175 1.373 . S
C176 C180 1.397 . S
C177 N173 1.453 . S
C177 C175 1.368 . S
C177 C178 1.373 . S
C178 H172 0.930 . S
C178 C177 1.373 . S
C178 C179 1.371 . S
C179 C178 1.371 . S
C179 C180 1.383 . S
C180 H171 0.931 . S
C180 C176 1.397 . S
C180 C179 1.383 . S
H181 C186 0.929 . S
H182 C191 0.931 . S
H183 C189 0.930 . S
N184 N185 1.234 . S
N184 C188 1.453 . S
N185 N184 1.234 . S
C186 H181 0.929 . S
C186 C187 1.373 . S
C186 C188 1.368 . S
C187 C186 1.373 . S
C187 C191 1.397 . S
C188 N184 1.453 . S
C188 C186 1.368 . S
C188 C189 1.373 . S
C189 H183 0.930 . S
C189 C188 1.373 . S
C189 C190 1.371 . S
C190 C189 1.371 . S
C190 C191 1.383 . S
C191 H182 0.931 . S
C191 C187 1.397 . S
C191 C190 1.383 . S
H192 C200 0.950 . S
H193 C205 0.950 . S
H194 C202 0.950 . S
H195 C204 0.950 . S
H196 C206 0.950 . S
H197 C208 0.950 . S
H198 C210 0.950 . S
H199 C211 0.950 . S
C200 H192 0.950 . S
C200 C201 1.386 . S
C200 C202 1.391 . S
C201 C200 1.386 . S
C201 C205 1.393 1_554 S
C202 H194 0.950 . S
C202 C200 1.391 . S
C202 C203 1.400 . S
C203 C202 1.400 . S
C203 C204 1.398 1_554 S
C203 C209 1.491 . S
C204 H195 0.950 . S
C204 C203 1.398 1_556 S
C204 C205 1.391 . S
C205 H193 0.950 . S
C205 C201 1.393 1_556 S
C205 C204 1.391 . S
C206 H196 0.950 . S
C206 C207 1.386 1_556 S
C206 C208 1.391 . S
C207 C206 1.386 1_554 S
C207 C211 1.393 . S
C208 H197 0.950 . S
C208 C206 1.391 . S
C208 C209 1.400 1_556 S
C209 C203 1.491 . S
C209 C208 1.400 1_554 S
C209 C210 1.398 . S
C210 H198 0.950 . S
C210 C209 1.398 . S
C210 C211 1.391 . S
C211 H199 0.950 . S
C211 C207 1.393 . S
C211 C210 1.391 . S
H212 C220 0.950 . S
H213 C225 0.950 . S
H214 C222 0.950 . S
H215 C224 0.950 . S
H216 C226 0.950 . S
H217 C228 0.950 . S
H218 C230 0.950 . S
H219 C231 0.950 . S
C220 H212 0.950 . S
C220 C221 1.386 . S
C220 C222 1.391 . S
C221 C220 1.386 . S
C221 C225 1.393 1_554 S
C222 H214 0.950 . S
C222 C220 1.391 . S
C222 C223 1.400 . S
C223 C222 1.400 . S
C223 C224 1.398 1_554 S
C223 C229 1.491 . S
C224 H215 0.950 . S
C224 C223 1.398 1_556 S
C224 C225 1.391 . S
C225 H213 0.950 . S
C225 C221 1.393 1_556 S
C225 C224 1.391 . S
C226 H216 0.950 . S
C226 C227 1.386 1_556 S
C226 C228 1.391 . S
C227 C226 1.386 1_554 S
C227 C231 1.393 . S
C228 H217 0.950 . S
C228 C226 1.391 . S
C228 C229 1.400 1_556 S
C229 C223 1.491 . S
C229 C228 1.400 1_554 S
C229 C230 1.398 . S
C230 H218 0.950 . S
C230 C229 1.398 . S
C230 C231 1.391 . S
C231 H219 0.950 . S
C231 C227 1.393 . S
C231 C230 1.391 . S
H232 C240 0.950 . S
H233 C245 0.950 . S
H234 C242 0.950 . S
H235 C244 0.950 . S
H236 C246 0.950 . S
H237 C248 0.950 . S
H238 C250 0.950 . S
H239 C251 0.950 . S
C240 H232 0.950 . S
C240 C241 1.386 . S
C240 C242 1.391 . S
C241 C240 1.386 . S
C241 C245 1.393 1_554 S
C242 H234 0.950 . S
C242 C240 1.391 . S
C242 C243 1.400 . S
C243 C242 1.400 . S
C243 C244 1.398 1_554 S
C243 C249 1.491 . S
C244 H235 0.950 . S
C244 C243 1.398 1_556 S
C244 C245 1.391 . S
C245 H233 0.950 . S
C245 C241 1.393 1_556 S
C245 C244 1.391 . S
C246 H236 0.950 . S
C246 C247 1.386 1_556 S
C246 C248 1.391 . S
C247 C246 1.386 1_554 S
C247 C251 1.393 . S
C248 H237 0.950 . S
C248 C246 1.391 . S
C248 C249 1.400 1_556 S
C249 C243 1.491 . S
C249 C248 1.400 1_554 S
C249 C250 1.398 . S
C250 H238 0.950 . S
C250 C249 1.398 . S
C250 C251 1.391 . S
C251 H239 0.950 . S
C251 C247 1.393 . S
C251 C250 1.391 . S
H252 C260 0.950 . S
H253 C265 0.950 . S
H254 C262 0.950 . S
H255 C264 0.950 . S
H256 C266 0.950 . S
H257 C268 0.950 . S
H258 C270 0.950 . S
H259 C271 0.950 . S
C260 H252 0.950 . S
C260 C261 1.386 1_556 S
C260 C262 1.391 . S
C261 C260 1.386 1_554 S
C261 C265 1.393 . S
C262 H254 0.950 . S
C262 C260 1.391 . S
C262 C263 1.400 1_556 S
C263 C262 1.400 1_554 S
C263 C264 1.398 . S
C263 C269 1.491 . S
C264 H255 0.950 . S
C264 C263 1.398 . S
C264 C265 1.391 . S
C265 H253 0.950 . S
C265 C261 1.393 . S
C265 C264 1.391 . S
C266 H256 0.950 . S
C266 C267 1.380 1_554 S
C266 C268 1.391 . S
C267 C266 1.380 1_556 S
C267 C271 1.399 . S
C268 H257 0.950 . S
C268 C266 1.391 . S
C268 C269 1.400 . S
C269 C263 1.491 . S
C269 C268 1.400 . S
C269 C270 1.398 1_554 S
C270 H258 0.950 . S
C270 C269 1.398 1_556 S
C270 C271 1.391 . S
C271 H259 0.950 . S
C271 C267 1.399 . S
C271 C270 1.391 . S
H272 C280 0.950 . S
H273 C285 0.950 . S
H274 C282 0.950 . S
H275 C284 0.950 . S
H276 C286 0.950 . S
H277 C288 0.950 . S
H278 C290 0.950 . S
H279 C291 0.950 . S
C280 H272 0.950 . S
C280 C281 1.386 . S
C280 C282 1.391 . S
C281 C280 1.386 . S
C281 C285 1.393 . S
C282 H274 0.950 . S
C282 C280 1.391 . S
C282 C283 1.400 . S
C283 C282 1.400 . S
C283 C284 1.398 . S
C283 C289 1.491 . S
C284 H275 0.950 . S
C284 C283 1.398 . S
C284 C285 1.391 . S
C285 H273 0.950 . S
C285 C281 1.393 . S
C285 C284 1.391 . S
C286 H276 0.950 . S
C286 C287 1.386 . S
C286 C288 1.391 . S
C287 C286 1.386 . S
C287 C291 1.393 . S
C288 H277 0.950 . S
C288 C286 1.391 . S
C288 C289 1.400 . S
C289 C283 1.491 . S
C289 C288 1.400 . S
C289 C290 1.398 . S
C290 H278 0.950 . S
C290 C289 1.398 . S
C290 C291 1.391 . S
C291 H279 0.950 . S
C291 C287 1.393 . S
C291 C290 1.391 . S
H292 C300 0.950 . S
H293 C305 0.950 . S
H294 C302 0.950 . S
H295 C304 0.950 . S
H296 C306 0.950 . S
H297 C308 0.950 . S
H298 C310 0.950 . S
H299 C311 0.950 . S
C300 H292 0.950 . S
C300 C301 1.386 . S
C300 C302 1.391 . S
C301 C300 1.386 . S
C301 C305 1.393 . S
C302 H294 0.950 . S
C302 C300 1.391 . S
C302 C303 1.400 . S
C303 C302 1.400 . S
C303 C304 1.398 . S
C303 C309 1.491 . S
C304 H295 0.950 . S
C304 C303 1.398 . S
C304 C305 1.391 . S
C305 H293 0.950 . S
C305 C301 1.393 . S
C305 C304 1.391 . S
C306 H296 0.950 . S
C306 C307 1.386 . S
C306 C308 1.391 . S
C307 C306 1.386 . S
C307 C311 1.393 . S
C308 H297 0.950 . S
C308 C306 1.391 . S
C308 C309 1.400 . S
C309 C303 1.491 . S
C309 C308 1.400 . S
C309 C310 1.398 . S
C310 H298 0.950 . S
C310 C309 1.398 . S
C310 C311 1.391 . S
C311 H299 0.950 . S
C311 C307 1.393 . S
C311 C310 1.391 . S
H312 C320 0.950 . S
H313 C325 0.950 . S
H314 C322 0.950 . S
H315 C324 0.950 . S
H316 C326 0.950 . S
H317 C328 0.950 . S
H318 C330 0.950 . S
H319 C331 0.950 . S
C320 H312 0.950 . S
C320 C321 1.386 . S
C320 C322 1.391 . S
C321 C320 1.386 . S
C321 C325 1.393 . S
C322 H314 0.950 . S
C322 C320 1.391 . S
C322 C323 1.400 . S
C323 C322 1.400 . S
C323 C324 1.398 . S
C323 C329 1.491 . S
C324 H315 0.950 . S
C324 C323 1.398 . S
C324 C325 1.391 . S
C325 H313 0.950 . S
C325 C321 1.393 . S
C325 C324 1.391 . S
C326 H316 0.950 . S
C326 C327 1.386 . S
C326 C328 1.391 . S
C327 C326 1.386 . S
C327 C331 1.393 . S
C328 H317 0.950 . S
C328 C326 1.391 . S
C328 C329 1.400 . S
C329 C323 1.491 . S
C329 C328 1.400 . S
C329 C330 1.398 . S
C330 H318 0.950 . S
C330 C329 1.398 . S
C330 C331 1.391 . S
C331 H319 0.950 . S
C331 C327 1.393 . S
C331 C330 1.391 . S
H332 C340 0.950 . S
H333 C345 0.950 . S
H334 C342 0.950 . S
H335 C344 0.950 . S
H336 C346 0.950 . S
H337 C348 0.950 . S
H338 C350 0.950 . S
H339 C351 0.950 . S
C340 H332 0.950 . S
C340 C341 1.386 . S
C340 C342 1.391 . S
C341 C340 1.386 . S
C341 C345 1.393 . S
C342 H334 0.950 . S
C342 C340 1.391 . S
C342 C343 1.400 . S
C343 C342 1.400 . S
C343 C344 1.398 . S
C343 C349 1.491 . S
C344 H335 0.950 . S
C344 C343 1.398 . S
C344 C345 1.391 . S
C345 H333 0.950 . S
C345 C341 1.393 . S
C345 C344 1.391 . S
C346 H336 0.950 . S
C346 C347 1.386 . S
C346 C348 1.391 . S
C347 C346 1.386 . S
C347 C351 1.393 . S
C348 H337 0.950 . S
C348 C346 1.391 . S
C348 C349 1.400 . S
C349 C343 1.491 . S
C349 C348 1.400 . S
C349 C350 1.398 . S
C350 H338 0.950 . S
C350 C349 1.398 . S
C350 C351 1.391 . S
C351 H339 0.950 . S
C351 C347 1.393 . S
C351 C350 1.391 . S
H352 C360 0.950 . S
H353 C365 0.950 . S
H354 C362 0.950 . S
H355 C364 0.950 . S
H356 C366 0.950 . S
H357 C368 0.950 . S
H358 C370 0.950 . S
H359 C371 0.950 . S
C360 H352 0.950 . S
C360 C361 1.386 . S
C360 C362 1.391 . S
C361 C360 1.386 . S
C361 C365 1.393 . S
C362 H354 0.950 . S
C362 C360 1.391 . S
C362 C363 1.400 . S
C363 C362 1.400 . S
C363 C364 1.398 . S
C363 C369 1.491 . S
C364 H355 0.950 . S
C364 C363 1.398 . S
C364 C365 1.391 . S
C365 H353 0.950 . S
C365 C361 1.393 . S
C365 C364 1.391 . S
C366 H356 0.950 . S
C366 C367 1.386 . S
C366 C368 1.391 . S
C367 C366 1.386 . S
C367 C371 1.393 . S
C368 H357 0.950 . S
C368 C366 1.391 . S
C368 C369 1.400 . S
C369 C363 1.491 . S
C369 C368 1.400 . S
C369 C370 1.398 . S
C370 H358 0.950 . S
C370 C369 1.398 . S
C370 C371 1.391 . S
C371 H359 0.950 . S
C371 C367 1.393 . S
C371 C370 1.391 . S
H372 C380 0.950 . S
H373 C385 0.950 . S
H374 C382 0.950 . S
H375 C384 0.950 . S
H376 C386 0.950 . S
H377 C388 0.950 . S
H378 C390 0.950 . S
H379 C391 0.950 . S
C380 H372 0.950 . S
C380 C381 1.386 . S
C380 C382 1.391 . S
C381 C380 1.386 . S
C381 C385 1.393 . S
C382 H374 0.950 . S
C382 C380 1.391 . S
C382 C383 1.400 . S
C383 C382 1.400 . S
C383 C384 1.398 . S
C383 C389 1.491 . S
C384 H375 0.950 . S
C384 C383 1.398 . S
C384 C385 1.391 . S
C385 H373 0.950 . S
C385 C381 1.393 . S
C385 C384 1.391 . S
C386 H376 0.950 . S
C386 C387 1.386 . S
C386 C388 1.391 . S
C387 C386 1.386 . S
C387 C391 1.393 . S
C388 H377 0.950 . S
C388 C386 1.391 . S
C388 C389 1.400 . S
C389 C383 1.491 . S
C389 C388 1.400 . S
C389 C390 1.398 . S
C390 H378 0.950 . S
C390 C389 1.398 . S
C390 C391 1.391 . S
C391 H379 0.950 . S
C391 C387 1.393 . S
C391 C390 1.391 . S
H392 C400 0.950 . S
H393 C405 0.950 . S
H394 C402 0.950 . S
H395 C404 0.950 . S
H396 C406 0.950 . S
H397 C408 0.950 . S
H398 C410 0.950 . S
H399 C411 0.950 . S
C400 H392 0.950 . S
C400 C401 1.386 . S
C400 C402 1.391 . S
C401 C400 1.386 . S
C401 C405 1.393 . S
C402 H394 0.950 . S
C402 C400 1.391 . S
C402 C403 1.400 . S
C403 C402 1.400 . S
C403 C404 1.398 . S
C403 C409 1.491 . S
C404 H395 0.950 . S
C404 C403 1.398 . S
C404 C405 1.391 . S
C405 H393 0.950 . S
C405 C401 1.393 . S
C405 C404 1.391 . S
C406 H396 0.950 . S
C406 C407 1.386 . S
C406 C408 1.391 . S
C407 C406 1.386 . S
C407 C411 1.393 . S
C408 H397 0.950 . S
C408 C406 1.391 . S
C408 C409 1.400 . S
C409 C403 1.491 . S
C409 C408 1.400 . S
C409 C410 1.398 . S
C410 H398 0.950 . S
C410 C409 1.398 . S
C410 C411 1.391 . S
C411 H399 0.950 . S
C411 C407 1.393 . S
C411 C410 1.391 . S
H412 C420 0.950 . S
H413 C425 0.950 . S
H414 C422 0.950 . S
H415 C424 0.950 . S
H416 C426 0.950 . S
H417 C428 0.950 . S
H418 C430 0.950 . S
H419 C431 0.950 . S
C420 H412 0.950 . S
C420 C421 1.386 . S
C420 C422 1.391 . S
C421 C420 1.386 . S
C421 C425 1.393 . S
C422 H414 0.950 . S
C422 C420 1.391 . S
C422 C423 1.400 . S
C423 C422 1.400 . S
C423 C424 1.398 . S
C423 C429 1.491 . S
C424 H415 0.950 . S
C424 C423 1.398 . S
C424 C425 1.391 . S
C425 H413 0.950 . S
C425 C421 1.393 . S
C425 C424 1.391 . S
C426 H416 0.950 . S
C426 C427 1.386 . S
C426 C428 1.391 . S
C427 C426 1.386 . S
C427 C431 1.393 . S
C428 H417 0.950 . S
C428 C426 1.391 . S
C428 C429 1.400 . S
C429 C423 1.491 . S
C429 C428 1.400 . S
C429 C430 1.398 . S
C430 H418 0.950 . S
C430 C429 1.398 . S
C430 C431 1.391 . S
C431 H419 0.950 . S
C431 C427 1.393 . S
C431 C430 1.391 . S
H432 C440 0.950 . S
H433 C445 0.950 . S
H434 C442 0.950 . S
H435 C444 0.950 . S
H436 C446 0.950 . S
H437 C448 0.950 . S
H438 C450 0.950 . S
H439 C451 0.950 . S
C440 H432 0.950 . S
C440 C441 1.386 . S
C440 C442 1.391 . S
C441 C440 1.386 . S
C441 C445 1.393 . S
C442 H434 0.950 . S
C442 C440 1.391 . S
C442 C443 1.400 . S
C443 C442 1.400 . S
C443 C444 1.398 . S
C443 C449 1.491 . S
C444 H435 0.950 . S
C444 C443 1.398 . S
C444 C445 1.391 . S
C445 H433 0.950 . S
C445 C441 1.393 . S
C445 C444 1.391 . S
C446 H436 0.950 . S
C446 C447 1.386 . S
C446 C448 1.391 . S
C447 C446 1.386 . S
C447 C451 1.393 . S
C448 H437 0.950 . S
C448 C446 1.391 . S
C448 C449 1.400 . S
C449 C443 1.491 . S
C449 C448 1.400 . S
C449 C450 1.398 . S
C450 H438 0.950 . S
C450 C449 1.398 . S
C450 C451 1.391 . S
C451 H439 0.950 . S
C451 C447 1.393 . S
C451 C450 1.391 . S
H452 C460 0.950 1_655 S
H453 C465 0.950 . S
H454 C462 0.950 . S
H455 C464 0.950 . S
H456 C466 0.950 . S
H457 C468 0.950 . S
H458 C470 0.950 . S
H459 C471 0.950 . S
C460 H452 0.950 1_455 S
C460 C461 1.386 . S
C460 C462 1.391 . S
C461 C460 1.386 . S
C461 C465 1.393 . S
C462 H454 0.950 . S
C462 C460 1.391 . S
C462 C463 1.400 . S
C463 C462 1.400 . S
C463 C464 1.398 . S
C463 C469 1.491 . S
C464 H455 0.950 . S
C464 C463 1.398 . S
C464 C465 1.391 . S
C465 H453 0.950 . S
C465 C461 1.393 . S
C465 C464 1.391 . S
C466 H456 0.950 . S
C466 C467 1.386 . S
C466 C468 1.391 . S
C467 C466 1.386 . S
C467 C471 1.393 . S
C468 H457 0.950 . S
C468 C466 1.391 . S
C468 C469 1.400 . S
C469 C463 1.491 . S
C469 C468 1.400 . S
C469 C470 1.398 . S
C470 H458 0.950 . S
C470 C469 1.398 . S
C470 C471 1.391 . S
C471 H459 0.950 . S
C471 C467 1.393 . S
C471 C470 1.391 . S
H472 C480 0.950 . S
H473 C485 0.978 . S
H474 C482 0.950 . S
H475 C484 0.950 . S
H476 C486 0.950 . S
H477 C488 0.950 . S
H478 C490 0.950 . S
H479 C491 0.950 . S
C480 H472 0.950 . S
C480 C481 1.386 . S
C480 C482 1.391 . S
C481 C480 1.386 . S
C481 C485 1.393 . S
C482 H474 0.950 . S
C482 C480 1.391 . S
C482 C483 1.400 . S
C483 C482 1.400 . S
C483 C484 1.398 . S
C483 C489 1.491 . S
C484 H475 0.950 . S
C484 C483 1.398 . S
C484 C485 1.391 . S
C485 H473 0.978 . S
C485 C481 1.393 . S
C485 C484 1.391 . S
C486 H476 0.950 . S
C486 C487 1.386 . S
C486 C488 1.391 . S
C487 C486 1.386 . S
C487 C491 1.393 . S
C488 H477 0.950 . S
C488 C486 1.391 . S
C488 C489 1.400 . S
C489 C483 1.491 . S
C489 C488 1.400 . S
C489 C490 1.398 . S
C490 H478 0.950 . S
C490 C489 1.398 . S
C490 C491 1.391 . S
C491 H479 0.950 . S
C491 C487 1.393 . S
C491 C490 1.391 . S
H492 C500 0.950 . S
H493 C505 0.950 1_455 S
H494 C502 0.950 . S
H495 C504 0.950 . S
H496 C506 0.950 . S
H497 C508 0.950 . S
H498 C510 0.950 . S
H499 C511 0.950 . S
C500 H492 0.950 . S
C500 C501 1.386 . S
C500 C502 1.391 . S
C501 C500 1.386 . S
C501 C505 1.393 . S
C502 H494 0.950 . S
C502 C500 1.391 . S
C502 C503 1.400 . S
C503 C502 1.400 . S
C503 C504 1.398 . S
C503 C509 1.491 . S
C504 H495 0.950 . S
C504 C503 1.398 . S
C504 C505 1.391 . S
C505 H493 0.950 1_655 S
C505 C501 1.393 . S
C505 C504 1.391 . S
C506 H496 0.950 . S
C506 C507 1.386 . S
C506 C508 1.391 . S
C507 C506 1.386 . S
C507 C511 1.393 . S
C508 H497 0.950 . S
C508 C506 1.391 . S
C508 C509 1.400 . S
C509 C503 1.491 . S
C509 C508 1.400 . S
C509 C510 1.398 . S
C510 H498 0.950 . S
C510 C509 1.398 . S
C510 C511 1.391 . S
C511 H499 0.950 . S
C511 C507 1.393 . S
C511 C510 1.391 . S
H512 C520 0.950 . S
H513 C525 0.950 . S
H514 C522 0.950 . S
H515 C524 0.950 . S
H516 C526 0.950 . S
H517 C528 0.950 . S
H518 C530 0.950 . S
H519 C531 0.950 . S
C520 H512 0.950 . S
C520 C521 1.386 . S
C520 C522 1.391 . S
C521 C520 1.386 . S
C521 C525 1.393 . S
C522 H514 0.950 . S
C522 C520 1.391 . S
C522 C523 1.400 . S
C523 C522 1.400 . S
C523 C524 1.398 . S
C523 C529 1.491 . S
C524 H515 0.950 . S
C524 C523 1.398 . S
C524 C525 1.391 . S
C525 H513 0.950 . S
C525 C521 1.393 . S
C525 C524 1.391 . S
C526 H516 0.950 . S
C526 C527 1.386 . S
C526 C528 1.391 . S
C527 C526 1.386 . S
C527 C531 1.393 . S
C528 H517 0.950 . S
C528 C526 1.391 . S
C528 C529 1.400 . S
C529 C523 1.491 . S
C529 C528 1.400 . S
C529 C530 1.398 . S
C530 H518 0.950 . S
C530 C529 1.398 . S
C530 C531 1.391 . S
C531 H519 0.950 . S
C531 C527 1.393 . S
C531 C530 1.391 . S
H532 C540 0.950 . S
H533 C545 0.950 . S
H534 C542 0.950 . S
H535 C544 0.950 . S
H536 C546 0.950 . S
H537 C548 0.950 . S
H538 C550 0.950 . S
H539 C551 0.950 . S
C540 H532 0.950 . S
C540 C541 1.386 . S
C540 C542 1.391 . S
C541 C540 1.386 . S
C541 C545 1.393 . S
C542 H534 0.950 . S
C542 C540 1.391 . S
C542 C543 1.400 . S
C543 C542 1.400 . S
C543 C544 1.398 . S
C543 C549 1.491 . S
C544 H535 0.950 . S
C544 C543 1.398 . S
C544 C545 1.391 . S
C545 H533 0.950 . S
C545 C541 1.393 . S
C545 C544 1.391 . S
C546 H536 0.950 . S
C546 C547 1.386 . S
C546 C548 1.391 . S
C547 C546 1.386 . S
C547 C551 1.393 . S
C548 H537 0.950 . S
C548 C546 1.391 . S
C548 C549 1.400 . S
C549 C543 1.491 . S
C549 C548 1.400 . S
C549 C550 1.398 . S
C550 H538 0.950 . S
C550 C549 1.398 . S
C550 C551 1.391 . S
C551 H539 0.950 . S
C551 C547 1.393 . S
C551 C550 1.391 . S
H552 C560 0.950 . S
H553 C565 0.950 . S
H554 C562 0.950 . S
H555 C564 0.950 . S
H556 C566 0.950 . S
H557 C568 0.950 . S
H558 C570 0.950 . S
H559 C571 0.950 . S
C560 H552 0.950 . S
C560 C561 1.386 . S
C560 C562 1.391 . S
C561 C560 1.386 . S
C561 C565 1.393 . S
C562 H554 0.950 . S
C562 C560 1.391 . S
C562 C563 1.400 . S
C563 C562 1.400 . S
C563 C564 1.398 . S
C563 C569 1.491 . S
C564 H555 0.950 . S
C564 C563 1.398 . S
C564 C565 1.391 . S
C565 H553 0.950 . S
C565 C561 1.393 . S
C565 C564 1.391 . S
C566 H556 0.950 . S
C566 C567 1.386 . S
C566 C568 1.391 . S
C567 C566 1.386 . S
C567 C571 1.393 . S
C568 H557 0.950 . S
C568 C566 1.391 . S
C568 C569 1.400 . S
C569 C563 1.491 . S
C569 C568 1.400 . S
C569 C570 1.398 . S
C570 H558 0.950 . S
C570 C569 1.398 . S
C570 C571 1.391 . S
C571 H559 0.950 . S
C571 C567 1.393 . S
C571 C570 1.391 . S
H572 C580 0.950 . S
H573 C585 0.950 . S
H574 C582 0.950 . S
H575 C584 0.950 . S
H576 C586 0.950 . S
H577 C588 0.950 . S
H578 C590 0.950 . S
H579 C591 0.950 . S
C580 H572 0.950 . S
C580 C581 1.386 . S
C580 C582 1.391 . S
C581 C580 1.386 . S
C581 C585 1.393 . S
C582 H574 0.950 . S
C582 C580 1.391 . S
C582 C583 1.400 . S
C583 C582 1.400 . S
C583 C584 1.398 . S
C583 C589 1.491 . S
C584 H575 0.950 . S
C584 C583 1.398 . S
C584 C585 1.391 . S
C585 H573 0.950 . S
C585 C581 1.393 . S
C585 C584 1.391 . S
C586 H576 0.950 . S
C586 C587 1.386 . S
C586 C588 1.391 . S
C587 C586 1.386 . S
C587 C591 1.393 . S
C588 H577 0.950 . S
C588 C586 1.391 . S
C588 C589 1.400 . S
C589 C583 1.491 . S
C589 C588 1.400 . S
C589 C590 1.398 . S
C590 H578 0.950 . S
C590 C589 1.398 . S
C590 C591 1.391 . S
C591 H579 0.950 . S
C591 C587 1.393 . S
C591 C590 1.391 . S
H592 C600 0.950 . S
H593 C605 0.950 . S
H594 C602 0.950 . S
H595 C604 0.950 . S
H596 C606 0.950 . S
H597 C608 0.950 . S
H598 C610 0.950 . S
H599 C611 0.950 . S
C600 H592 0.950 . S
C600 C601 1.386 . S
C600 C602 1.391 . S
C601 C600 1.386 . S
C601 C605 1.393 . S
C602 H594 0.950 . S
C602 C600 1.391 . S
C602 C603 1.400 . S
C603 C602 1.400 . S
C603 C604 1.398 . S
C603 C609 1.491 . S
C604 H595 0.950 . S
C604 C603 1.398 . S
C604 C605 1.391 . S
C605 H593 0.950 . S
C605 C601 1.393 . S
C605 C604 1.391 . S
C606 H596 0.950 . S
C606 C607 1.386 . S
C606 C608 1.391 . S
C607 C606 1.386 . S
C607 C611 1.393 . S
C608 H597 0.950 . S
C608 C606 1.391 . S
C608 C609 1.400 . S
C609 C603 1.491 . S
C609 C608 1.400 . S
C609 C610 1.398 . S
C610 H598 0.950 . S
C610 C609 1.398 . S
C610 C611 1.391 . S
C611 H599 0.950 . S
C611 C607 1.393 . S
C611 C610 1.391 . S
H612 C620 0.950 . S
H613 C625 0.950 . S
H614 C622 0.950 . S
H615 C624 0.950 . S
H616 C626 0.950 . S
H617 C628 0.950 . S
H618 C630 0.950 . S
H619 C631 0.950 . S
C620 H612 0.950 . S
C620 C621 1.386 . S
C620 C622 1.391 . S
C621 C620 1.386 . S
C621 C625 1.393 . S
C622 H614 0.950 . S
C622 C620 1.391 . S
C622 C623 1.400 . S
C623 C622 1.400 . S
C623 C624 1.398 . S
C623 C629 1.491 . S
C624 H615 0.950 . S
C624 C623 1.398 . S
C624 C625 1.391 . S
C625 H613 0.950 . S
C625 C621 1.393 . S
C625 C624 1.391 . S
C626 H616 0.950 . S
C626 C627 1.386 . S
C626 C628 1.391 . S
C627 C626 1.386 . S
C627 C631 1.393 . S
C628 H617 0.950 . S
C628 C626 1.391 . S
C628 C629 1.400 . S
C629 C623 1.491 . S
C629 C628 1.400 . S
C629 C630 1.398 . S
C630 H618 0.950 . S
C630 C629 1.398 . S
C630 C631 1.391 . S
C631 H619 0.950 . S
C631 C627 1.393 . S
C631 C630 1.391 . S
H632 C640 0.950 . S
H633 C645 0.950 . S
H634 C642 0.950 . S
H635 C644 0.950 . S
H636 C646 0.950 . S
H637 C648 0.950 . S
H638 C650 0.950 . S
H639 C651 0.950 . S
C640 H632 0.950 . S
C640 C641 1.386 . S
C640 C642 1.391 . S
C641 C640 1.386 . S
C641 C645 1.393 . S
C642 H634 0.950 . S
C642 C640 1.391 . S
C642 C643 1.400 . S
C643 C642 1.400 . S
C643 C644 1.398 . S
C643 C649 1.491 . S
C644 H635 0.950 . S
C644 C643 1.398 . S
C644 C645 1.391 . S
C645 H633 0.950 . S
C645 C641 1.393 . S
C645 C644 1.391 . S
C646 H636 0.950 . S
C646 C647 1.386 . S
C646 C648 1.391 . S
C647 C646 1.386 . S
C647 C651 1.393 . S
C648 H637 0.950 . S
C648 C646 1.391 . S
C648 C649 1.400 . S
C649 C643 1.491 . S
C649 C648 1.400 . S
C649 C650 1.398 . S
C650 H638 0.950 . S
C650 C649 1.398 . S
C650 C651 1.391 . S
C651 H639 0.950 . S
C651 C647 1.393 . S
C651 C650 1.391 . S
H652 C660 0.950 . S
H653 C665 0.950 . S
H654 C662 0.950 . S
H655 C664 0.950 . S
H656 C666 0.950 . S
H657 C668 0.950 . S
H658 C670 0.950 . S
H659 C671 0.950 . S
C660 H652 0.950 . S
C660 C661 1.386 . S
C660 C662 1.391 . S
C661 C660 1.386 . S
C661 C665 1.393 . S
C662 H654 0.950 . S
C662 C660 1.391 . S
C662 C663 1.400 . S
C663 C662 1.400 . S
C663 C664 1.398 . S
C663 C669 1.491 . S
C664 H655 0.950 . S
C664 C663 1.398 . S
C664 C665 1.391 . S
C665 H653 0.950 . S
C665 C661 1.393 . S
C665 C664 1.391 . S
C666 H656 0.950 . S
C666 C667 1.386 . S
C666 C668 1.391 . S
C667 C666 1.386 . S
C667 C671 1.393 . S
C668 H657 0.950 . S
C668 C666 1.391 . S
C668 C669 1.400 . S
C669 C663 1.491 . S
C669 C668 1.400 . S
C669 C670 1.398 . S
C670 H658 0.950 . S
C670 C669 1.398 . S
C670 C671 1.391 . S
C671 H659 0.950 . S
C671 C667 1.393 . S
C671 C670 1.391 . S
C201 C45 1.558 . S
C207 N108 1.571 . S
C221 C30 1.559 . S
C227 N119 1.557 . S
C241 C39 1.556 . S
C247 N130 1.553 . S
C267 N141 1.563 . S
C261 C34 1.566 . S
C281 C97 1.560 . S
C287 N152 1.571 . S
C307 N163 1.571 . S
C301 C82 1.567 . S
C327 N174 1.569 . S
C321 C91 1.565 . S
C347 N185 1.571 . S
C341 C86 1.567 . S
C367 C179 1.573 . S
C361 C26 1.544 . S
C387 C187 1.489 . S
C381 C36 1.448 . S
C407 C154 1.557 . S
C401 C32 1.518 . S
C427 C165 1.487 . S
C421 C42 1.455 . S
C441 C18 1.617 . S
C447 C168 1.657 . S
C467 C176 1.587 . S
C461 C50 1.510 . S
C481 C4 1.610 . S
C487 C190 1.651 . S
C501 C48 1.551 . S
C507 C157 1.589 . S
C527 C135 1.515 . S
C521 C78 1.486 . S
C541 C88 1.537 . S
C547 C146 1.581 . S
C567 C110 1.496 . S
C561 C84 1.455 . S
C587 C124 1.579 . S
C581 C94 1.551 . S
C607 C121 1.578 . S
C601 C70 1.499 . S
C627 C132 1.650 . S
C621 C102 1.585 . S
C641 C56 1.529 . S
C647 C143 1.585 . S
C661 C100 1.594 . S
C667 C113 1.639 . S
