# Generated by pormake.
# Topology zzz, (3,6)-cn, num edge types: 1
# Building blocks:
#     Node 0, Type 0, BuildingBlock: ESEHIV_clean_linker_0, # of connection points: 3
#     Node 1, Type 0, BuildingBlock: ESEHIV_clean_linker_0, # of connection points: 3
#     Node 2, Type 0, BuildingBlock: ESEHIV_clean_linker_0, # of connection points: 3
#     Node 3, Type 0, BuildingBlock: ESEHIV_clean_linker_0, # of connection points: 3
#     Node 4, Type 0, BuildingBlock: ESEHIV_clean_linker_0, # of connection points: 3
#     Node 5, Type 0, BuildingBlock: ESEHIV_clean_linker_0, # of connection points: 3
#     Node 6, Type 0, BuildingBlock: ESEHIV_clean_linker_0, # of connection points: 3
#     Node 7, Type 0, BuildingBlock: ESEHIV_clean_linker_0, # of connection points: 3
#     Node 8, Type 1, BuildingBlock: GEDQOX_clean_sbu_0, # of connection points: 6
#     Node 9, Type 1, BuildingBlock: GEDQOX_clean_sbu_0, # of connection points: 6
#     Node 10, Type 1, BuildingBlock: GEDQOX_clean_sbu_0, # of connection points: 6
#     Node 11, Type 1, BuildingBlock: GEDQOX_clean_sbu_0, # of connection points: 6
#     Edge 12, Type (0, 1), BuildingBlock: KIFKEQ_clean_linker_1, # of connection points: 2
#     Edge 13, Type (0, 1), BuildingBlock: KIFKEQ_clean_linker_1, # of connection points: 2
#     Edge 14, Type (0, 1), BuildingBlock: KIFKEQ_clean_linker_1, # of connection points: 2
#     Edge 15, Type (0, 1), BuildingBlock: KIFKEQ_clean_linker_1, # of connection points: 2
#     Edge 16, Type (0, 1), BuildingBlock: KIFKEQ_clean_linker_1, # of connection points: 2
#     Edge 17, Type (0, 1), BuildingBlock: KIFKEQ_clean_linker_1, # of connection points: 2
#     Edge 18, Type (0, 1), BuildingBlock: KIFKEQ_clean_linker_1, # of connection points: 2
#     Edge 19, Type (0, 1), BuildingBlock: KIFKEQ_clean_linker_1, # of connection points: 2
#     Edge 20, Type (0, 1), BuildingBlock: KIFKEQ_clean_linker_1, # of connection points: 2
#     Edge 21, Type (0, 1), BuildingBlock: KIFKEQ_clean_linker_1, # of connection points: 2
#     Edge 22, Type (0, 1), BuildingBlock: KIFKEQ_clean_linker_1, # of connection points: 2
#     Edge 23, Type (0, 1), BuildingBlock: KIFKEQ_clean_linker_1, # of connection points: 2
#     Edge 24, Type (0, 1), BuildingBlock: KIFKEQ_clean_linker_1, # of connection points: 2
#     Edge 25, Type (0, 1), BuildingBlock: KIFKEQ_clean_linker_1, # of connection points: 2
#     Edge 26, Type (0, 1), BuildingBlock: KIFKEQ_clean_linker_1, # of connection points: 2
#     Edge 27, Type (0, 1), BuildingBlock: KIFKEQ_clean_linker_1, # of connection points: 2
#     Edge 28, Type (0, 1), BuildingBlock: KIFKEQ_clean_linker_1, # of connection points: 2
#     Edge 29, Type (0, 1), BuildingBlock: KIFKEQ_clean_linker_1, # of connection points: 2
#     Edge 30, Type (0, 1), BuildingBlock: KIFKEQ_clean_linker_1, # of connection points: 2
#     Edge 31, Type (0, 1), BuildingBlock: KIFKEQ_clean_linker_1, # of connection points: 2
#     Edge 32, Type (0, 1), BuildingBlock: KIFKEQ_clean_linker_1, # of connection points: 2
#     Edge 33, Type (0, 1), BuildingBlock: KIFKEQ_clean_linker_1, # of connection points: 2
#     Edge 34, Type (0, 1), BuildingBlock: KIFKEQ_clean_linker_1, # of connection points: 2
#     Edge 35, Type (0, 1), BuildingBlock: KIFKEQ_clean_linker_1, # of connection points: 2
# Relax obj value: 0.313
# Max RMSD: 0.317
# Mean RMSD: 0.196
data_MOF--net-zzz--node1-GEDQOX_clean_sbu_0--node2-ESEHIV_clean_linker_0--edge1-KIFKEQ_clean_linker_1
_symmetry_space_group_name_H-M    P1
_symmetry_Int_Tables_number       1
_symmetry_cell_setting            triclinic
loop_
_symmetry_equiv_pos_as_xyz
'x, y, z'
_cell_length_a     49.845241
_cell_length_b     46.158148
_cell_length_c     17.926574
_cell_angle_alpha  80.178219
_cell_angle_beta   90.820816
_cell_angle_gamma 104.23599
loop_
_atom_site_label
_atom_site_type_symbol
_atom_site_fract_x
_atom_site_fract_y
_atom_site_fract_z
_atom_type_partial_charge
H0 H 0.82647 0.50682 0.15164 0.0
H1 H 0.75806 0.49208 1.00336 0.0
H2 H 0.75431 0.53711 0.19434 0.0
C3 C 0.80559 0.50842 0.13736 0.0
C4 C 0.79152 0.5227 0.18099 0.0
C5 C 0.79358 0.49747 0.07347 0.0
C6 C 0.76705 0.50052 0.05324 0.0
C7 C 0.75231 0.51441 0.09709 0.0
C8 C 0.76477 0.52532 0.16142 0.0
H9 H 0.02248 0.80749 0.31273 0.0
H10 H 0.02474 0.75547 0.13862 0.0
H11 H 0.9882 0.71082 0.3588 0.0
C12 C 0.01857 0.78555 0.29488 0.0
C13 C 0.00541 0.75936 0.34529 0.0
C14 C 0.02492 0.78419 0.22031 0.0
C15 C 0.01896 0.75617 0.19623 0.0
C16 C 0.00579 0.72933 0.24524 0.0
C17 C -0.00119 0.73106 0.32045 0.0
H18 H 0.72123 0.04165 0.15718 0.0
H19 H 0.78766 0.05656 0.99516 0.0
H20 H 0.79342 0.00941 0.22281 0.0
C21 C 0.74176 0.03961 0.14353 0.0
C22 C 0.75591 0.024 0.19783 0.0
C23 C 0.75323 0.05139 0.07079 0.0
C24 C 0.77933 0.04801 0.05241 0.0
C25 C 0.79447 0.03343 0.10713 0.0
C26 C 0.78234 0.02098 0.17996 0.0
H27 H 0.60132 0.77245 0.39227 0.0
H28 H 0.55748 0.83336 0.45854 0.0
H29 H 0.60827 0.86 0.25449 0.0
C30 C 0.59763 0.79493 0.38331 0.0
C31 C 0.60666 0.81511 0.31539 0.0
C32 C 0.58064 0.80151 0.43652 0.0
C33 C 0.57265 0.82918 0.42174 0.0
C34 C 0.58294 0.85041 0.35575 0.0
C35 C 0.60119 0.84386 0.30591 0.0
H36 H 0.22465 0.57577 0.53775 0.0
H37 H 0.28894 0.58393 0.70036 0.0
H38 H 0.29491 0.53958 0.51027 0.0
C39 C 0.2447 0.57249 0.55603 0.0
C40 C 0.25861 0.55686 0.51552 0.0
C41 C 0.25538 0.58197 0.62296 0.0
C42 C 0.2808 0.57682 0.64818 0.0
C43 C 0.29539 0.56188 0.6073 0.0
C44 C 0.28391 0.55137 0.54173 0.0
H45 H 0.04986 0.28474 0.3598 0.0
H46 H 0.04086 0.32919 0.54537 0.0
H47 H 0.05882 0.38116 0.31941 0.0
C48 C 0.05014 0.30532 0.38171 0.0
C49 C 0.05599 0.33303 0.33177 0.0
C50 C 0.04445 0.30367 0.4585 0.0
C51 C 0.04427 0.33034 0.48528 0.0
C52 C 0.04847 0.35842 0.43587 0.0
C53 C 0.05509 0.35983 0.35849 0.0
H54 H 0.33396 0.0508 0.54793 0.0
H55 H 0.26434 0.03184 0.70064 0.0
H56 H 0.26107 0.08057 0.47355 0.0
C57 C 0.31308 0.0525 0.55879 0.0
C58 C 0.29936 0.06793 0.50249 0.0
C59 C 0.30039 0.03941 0.62953 0.0
C60 C 0.27359 0.04136 0.64467 0.0
C61 C 0.25891 0.05579 0.58847 0.0
C62 C 0.272 0.06917 0.51718 0.0
H63 H 0.44791 0.30329 0.31714 0.0
H64 H 0.48472 0.24086 0.22931 0.0
H65 H 0.44773 0.21723 0.45395 0.0
C66 C 0.45169 0.28089 0.32386 0.0
C67 C 0.44665 0.2615 0.39436 0.0
C68 C 0.46432 0.27329 0.26296 0.0
C69 C 0.47311 0.24603 0.2738 0.0
C70 C 0.46669 0.22554 0.34303 0.0
C71 C 0.45226 0.23292 0.4008 0.0
Nd72 Nd 0.01095 0.02789 0.79053 0.0
Nd73 Nd 0.0429 0.05918 0.91115 0.0
C74 C 0.97756 0.98904 0.71665 0.0
C75 C 0.97603 0.95892 0.69612 0.0
C76 C 0.9791 0.93405 0.75005 0.0
C77 C 0.97794 0.90596 0.72846 0.0
C78 C 0.97384 0.90214 0.65242 0.0
C79 C 0.97081 0.92721 0.59887 0.0
C80 C 0.97178 0.95514 0.62055 0.0
C81 C 0.06605 0.05257 0.75331 0.0
C82 C 0.04063 0.989 0.92564 0.0
C83 C 0.07587 0.09874 0.98419 0.0
C84 C 0.07689 0.12947 0.99905 0.0
C85 C 0.10181 0.14759 0.0198 0.0
C86 C 0.10292 0.17646 0.03617 0.0
C87 C 0.07904 0.18781 0.03241 0.0
C88 C 0.05422 0.16974 0.00968 0.0
C89 C 0.05318 0.14091 0.99302 0.0
C90 C 0.98754 0.03474 0.94689 0.0
C91 C 0.0149 0.09838 0.77341 0.0
O92 O 0.97366 0.99017 0.7881 0.0
O93 O -0.00265 0.01154 0.68328 0.0
O94 O 0.0464 0.05273 0.70512 0.0
O95 O 0.05642 0.03851 0.81769 0.0
O96 O 0.02132 0.98866 0.87433 0.0
O97 O 0.05509 0.01446 0.945 0.0
O98 O 0.08055 0.09657 0.91399 0.0
O99 O 0.05548 0.07684 0.01715 0.0
O100 O 0.007 0.03416 0.99557 0.0
O101 O -0.00247 0.04897 0.88306 0.0
O102 O 0.03416 0.09841 0.82464 0.0
O103 O -0.00048 0.07299 0.75595 0.0
H104 H 0.98249 0.93629 0.80883 0.0
H105 H 0.98014 0.88722 0.77152 0.0
H106 H 0.96827 0.92553 0.53955 0.0
H107 H 0.9695 0.97399 0.57787 0.0
H108 H 0.12041 0.1393 0.02398 0.0
H109 H 0.12252 0.18984 0.05205 0.0
H110 H 0.03533 0.17745 1.00688 0.0
H111 H 0.03375 0.12734 0.97652 0.0
Nd112 Nd 0.53182 0.01765 0.80183 0.0
Nd113 Nd 0.52199 0.0634 0.88942 0.0
C114 C 0.5427 0.97246 0.74508 0.0
C115 C 0.56638 0.97164 0.69816 0.0
C116 C 0.56589 0.94675 0.66254 0.0
C117 C 0.58849 0.94667 0.6169 0.0
C118 C 0.61194 0.97146 0.60666 0.0
C119 C 0.6122 0.99628 0.64282 0.0
C120 C 0.58965 0.99638 0.68787 0.0
C121 C 0.53011 0.07189 0.71108 0.0
C122 C 0.58387 0.07061 0.835 0.0
C123 C 0.50341 0.10344 0.95041 0.0
C124 C 0.47692 0.10442 0.98401 0.0
C125 C 0.47073 0.13235 0.98534 0.0
C126 C 0.44695 0.13356 0.02421 0.0
C127 C 0.42902 0.10682 0.06289 0.0
C128 C 0.43488 0.07879 0.05866 0.0
C129 C 0.45848 0.07762 0.01945 0.0
C130 C 0.54066 0.01736 0.97548 0.0
C131 C 0.46837 0.01058 0.85581 0.0
O132 O 0.54858 0.97695 0.81428 0.0
O133 O 0.52645 0.98893 0.71253 0.0
O134 O 0.548 0.05655 0.70178 0.0
O135 O 0.51418 0.05858 0.76719 0.0
O136 O 0.57545 0.04156 0.83111 0.0
O137 O 0.56612 0.08674 0.8444 0.0
O138 O 0.50443 0.10394 0.87736 0.0
O139 O 0.51584 0.084 0.98825 0.0
O140 O 0.55037 0.04586 0.9788 0.0
O141 O 0.52216 0.01384 0.92651 0.0
O142 O 0.47802 0.03304 0.89321 0.0
O143 O 0.48477 1.0004 0.81529 0.0
H144 H 0.54805 0.92749 0.66974 0.0
H145 H 0.58769 0.92719 0.59 0.0
H146 H 0.62961 0.01601 0.63498 0.0
H147 H 0.59028 0.01596 0.71427 0.0
H148 H 0.48466 0.15328 0.95798 0.0
H149 H 0.44292 0.15551 0.02506 0.0
H150 H 0.42194 0.05772 0.08849 0.0
H151 H 0.46286 0.05578 0.01925 0.0
Nd152 Nd 0.50929 0.5459 0.91837 0.0
Nd153 Nd 0.53734 0.53209 0.79371 0.0
C154 C 0.48515 0.57205 1.00751 0.0
C155 C 0.49744 0.60153 0.03139 0.0
C156 C 0.49655 0.62889 0.98387 0.0
C157 C 0.51379 0.65637 0.99625 0.0
C158 C 0.53222 0.65697 0.05625 0.0
C159 C 0.53178 0.63001 0.10665 0.0
C160 C 0.51441 0.6026 0.09472 0.0
C161 C 0.56186 0.54019 0.95161 0.0
C162 C 0.54342 0.60201 0.78705 0.0
C163 C 0.56219 0.50608 0.70585 0.0
C164 C 0.55094 0.47599 0.68438 0.0
C165 C 0.5534 0.44944 0.73298 0.0
C166 C 0.53722 0.42112 0.7228 0.0
C167 C 0.5183 0.41895 0.66409 0.0
C168 C 0.51713 0.44514 0.6127 0.0
C169 C 0.53347 0.47336 0.62233 0.0
C170 C 0.48469 0.53765 0.76071 0.0
C171 C 0.50297 0.47584 0.92345 0.0
O172 O 0.47957 0.57308 0.93568 0.0
O173 O 0.497 0.55018 0.03338 0.0
O174 O 0.54072 0.52909 0.99765 0.0
O175 O 0.55535 0.55452 0.89062 0.0
O176 O 0.52258 0.59233 0.83715 0.0
O177 O 0.55696 0.58294 0.76884 0.0
O178 O 0.56814 0.50612 0.77717 0.0
O179 O 0.54919 0.52686 0.6792 0.0
O180 O 0.50579 0.54881 0.71456 0.0
O181 O 0.49126 0.52332 0.82164 0.0
O182 O 0.52423 0.4858 0.87487 0.0
O183 O 0.48921 0.49487 0.94109 0.0
H184 H 0.48367 0.62892 0.93469 0.0
H185 H 0.51357 0.67694 0.957 0.0
H186 H 0.54524 0.63005 0.15464 0.0
H187 H 0.51543 0.58203 0.13292 0.0
H188 H 0.56674 0.45063 0.78118 0.0
H189 H 0.53867 0.4011 0.76255 0.0
H190 H 0.50324 0.44384 0.56567 0.0
H191 H 0.53127 0.49328 0.58336 0.0
Nd192 Nd 0.01852 0.56631 0.79103 0.0
Nd193 Nd 0.03528 0.51512 0.91017 0.0
C194 C 0.99314 0.60537 0.71416 0.0
C195 C 0.96723 0.60242 0.67215 0.0
C196 C 0.94242 0.58223 0.70271 0.0
C197 C 0.91889 0.57718 0.65865 0.0
C198 C 0.91975 0.592 0.58295 0.0
C199 C 0.94444 0.61289 0.55352 0.0
C200 C 0.96787 0.61809 0.59777 0.0
C201 C 0.0369 0.52329 0.73163 0.0
C202 C 0.97049 0.50487 0.86881 0.0
C203 C 0.05989 0.47308 0.9727 0.0
C204 C 0.08396 0.47706 0.02175 0.0
C205 C 0.09307 0.45227 0.06018 0.0
C206 C 0.11591 0.45706 0.10737 0.0
C207 C 0.12999 0.48672 0.11599 0.0
C208 C 0.12058 0.51132 0.07729 0.0
C209 C 0.09781 0.50652 0.03104 0.0
C210 C 0.0274 0.56056 0.98365 0.0
C211 C 0.08143 0.57835 0.83889 0.0
O212 O 0.99092 0.59751 0.78798 0.0
O213 O 0.01257 0.59598 0.68438 0.0
O214 O 0.04295 0.5519 0.70219 0.0
O215 O 0.02098 0.51814 0.78917 0.0
O216 O 0.9769 0.53159 0.82355 0.0
O217 O 0.98913 0.4926 0.90642 0.0
O218 O 0.06507 0.48717 0.90245 0.0
O219 O 0.03724 0.47685 1.0018 0.0
O220 O 0.03458 0.53669 0.01794 0.0
O221 O 0.02523 0.55933 0.91433 0.0
O222 O 0.07613 0.54894 0.86551 0.0
O223 O 0.06185 0.59225 0.81597 0.0
H224 H 0.94135 0.56974 0.75997 0.0
H225 H 0.90017 0.56126 0.68359 0.0
H226 H 0.94611 0.62436 0.49519 0.0
H227 H 0.98683 0.63358 0.57292 0.0
H228 H 0.08251 0.42935 0.05397 0.0
H229 H 0.12267 0.43766 0.13661 0.0
H230 H 0.13047 0.53437 0.08399 0.0
H231 H 0.09082 0.52593 1.00288 0.0
H232 H 0.23447 0.10352 0.5509 0.0
H233 H 0.21814 0.01042 0.66578 0.0
H234 H 0.18826 0.10589 0.59024 0.0
H235 H 0.1726 0.01312 0.7062 0.0
H236 H 0.10812 0.03855 0.83908 0.0
H237 H 0.1551 0.04146 0.79597 0.0
H238 H 0.13711 0.08139 0.57096 0.0
H239 H 0.08997 0.07846 0.61412 0.0
C240 C 0.22098 0.08351 0.58375 0.0
C241 C 0.23014 0.0569 0.60599 0.0
C242 C 0.19462 0.08494 0.60656 0.0
C243 C 0.17709 0.05987 0.65243 0.0
C244 C 0.18594 0.03304 0.67248 0.0
C245 C 0.21204 0.03152 0.64924 0.0
C246 C 0.11429 0.0483 0.78067 0.0
C247 C 0.09535 0.05798 0.72971 0.0
C248 C 0.14111 0.0498 0.7559 0.0
C249 C 0.1496 0.06129 0.67988 0.0
C250 C 0.13111 0.07247 0.62984 0.0
C251 C 0.10416 0.0707 0.65449 0.0
H252 H 0.52084 0.22465 0.35853 0.0
H253 H 0.43817 0.16662 0.38309 0.0
H254 H 0.53783 0.18563 0.44197 0.0
H255 H 0.455 0.1275 0.46603 0.0
H256 H 0.55918 0.09929 0.57862 0.0
H257 H 0.54524 0.13316 0.47268 0.0
H258 H 0.47039 0.12821 0.59776 0.0
H259 H 0.48428 0.09454 0.70304 0.0
C260 C 0.50659 0.20291 0.37854 0.0
C261 C 0.47823 0.1986 0.364 0.0
C262 C 0.51624 0.18066 0.42717 0.0
C263 C 0.49764 0.15375 0.46233 0.0
C264 C 0.46976 0.14826 0.44136 0.0
C265 C 0.46018 0.17041 0.39271 0.0
C266 C 0.53982 0.1056 0.58347 0.0
C267 C 0.52282 0.0942 0.64918 0.0
C268 C 0.53182 0.12496 0.52276 0.0
C269 C 0.50648 0.13303 0.52608 0.0
C270 C 0.48974 0.12192 0.59244 0.0
C271 C 0.49784 0.10287 0.65325 0.0
H272 H 0.31277 0.50936 0.63031 0.0
H273 H 0.33938 0.60471 0.64272 0.0
H274 H 0.35834 0.50276 0.6724 0.0
H275 H 0.38487 0.5982 0.68376 0.0
H276 H 0.47043 0.57761 0.64821 0.0
H277 H 0.42404 0.58293 0.61462 0.0
H278 H 0.38884 0.50937 0.79584 0.0
H279 H 0.43558 0.50437 0.83071 0.0
C280 C 0.32839 0.52884 0.64196 0.0
C281 C 0.32268 0.55755 0.6332 0.0
C282 C 0.35428 0.52504 0.66652 0.0
C283 C 0.375 0.54999 0.68123 0.0
C284 C 0.36924 0.57865 0.67252 0.0
C285 C 0.34325 0.58234 0.64934 0.0
C286 C 0.4528 0.5626 0.68097 0.0
C287 C 0.4565 0.54055 0.74191 0.0
C288 C 0.42631 0.56574 0.66194 0.0
C289 C 0.40296 0.54656 0.70267 0.0
C290 C 0.40658 0.52431 0.76342 0.0
C291 C 0.43322 0.52155 0.78347 0.0
H292 H 0.07906 0.41831 0.40438 0.0
H293 H 0.0095 0.35933 0.53944 0.0
H294 H 0.07539 0.45979 0.46919 0.0
H295 H 0.0078 0.39874 0.60923 0.0
H296 H 0.99516 0.47711 0.70269 0.0
H297 H 0.9962 0.4412 0.61941 0.0
H298 H 0.08416 0.48019 0.57743 0.0
H299 H 0.08195 0.51819 0.6554 0.0
C300 C 0.06298 0.41419 0.44767 0.0
C301 C 0.04497 0.38523 0.46757 0.0
C302 C 0.06115 0.43784 0.48604 0.0
C303 C 0.04147 0.43295 0.54584 0.0
C304 C 0.02298 0.40414 0.56324 0.0
C305 C 0.02432 0.38103 0.52382 0.0
C306 C 0.0147 0.4778 0.6758 0.0
C307 C 0.03857 0.49998 0.68625 0.0
C308 C 0.01546 0.45704 0.62808 0.0
C309 C 0.04043 0.45702 0.59182 0.0
C310 C 0.0644 0.47944 0.60288 0.0
C311 C 0.06333 0.501 0.64855 0.0
H312 H 0.83459 0.07724 0.02245 0.0
H313 H 0.81876 0.98559 0.14689 0.0
H314 H 0.87993 0.07384 0.9826 0.0
H315 H 0.86479 0.98256 0.10807 0.0
H316 H 0.963 0.01018 0.0862 0.0
H317 H 0.91556 0.00738 0.12651 0.0
H318 H 0.89846 0.04469 0.89829 0.0
H319 H 0.94575 0.04753 0.85811 0.0
C320 C 0.84068 0.05625 0.04094 0.0
C321 C 0.82281 0.03154 0.08713 0.0
C322 C 0.86671 0.05434 0.01807 0.0
C323 C 0.87575 0.02779 0.04135 0.0
C324 C 0.85833 1.00332 0.08933 0.0
C325 C 0.83205 1.00512 0.11179 0.0
C326 C 0.94895 0.01739 0.04455 0.0
C327 C 0.95811 0.02939 0.96925 0.0
C328 C 0.9218 0.01568 0.06755 0.0
C329 C 0.90345 0.02617 0.01574 0.0
C330 C 0.91231 0.0369 0.93972 0.0
C331 C 0.93933 0.03838 0.91664 0.0
H332 H 0.53786 0.8463 0.27133 0.0
H333 H 0.6012 0.91088 0.364 0.0
H334 H 0.52632 0.88688 0.18278 0.0
H335 H 0.58831 0.95247 0.27965 0.0
H336 H 0.58715 0.01559 0.05515 0.0
H337 H 0.59413 0.97653 0.15785 0.0
H338 H 0.50895 0.92684 0.14203 0.0
H339 H 0.50321 0.96481 0.035 0.0
C340 C 0.54825 0.86952 0.2754 0.0
C341 C 0.57004 0.8755 0.32537 0.0
C342 C 0.54175 0.89305 0.22409 0.0
C343 C 0.55654 0.92346 0.22213 0.0
C344 C 0.57689 0.9295 0.27704 0.0
C345 C 0.5839 0.90573 0.3271 0.0
C346 C 0.57011 0.99608 0.07342 0.0
C347 C 0.54482 0.993 0.0365 0.0
C348 C 0.57388 0.97374 0.1334 0.0
C349 C 0.55212 0.94809 0.15981 0.0
C350 C 0.52657 0.94557 0.12312 0.0
C351 C 0.52314 0.96745 0.06159 0.0
H352 H 0.70763 0.5103 0.18918 0.0
H353 H 0.73375 0.52802 0.95335 0.0
H354 H 0.66254 0.5181 0.15254 0.0
H355 H 0.6879 0.53345 0.91649 0.0
H356 H 0.61091 0.57089 0.87756 0.0
H357 H 0.65728 0.56546 0.91232 0.0
H358 H 0.62157 0.49448 0.09953 0.0
H359 H 0.57574 0.50109 0.06681 0.0
C360 C 0.70378 0.51579 0.12946 0.0
C361 C 0.72443 0.51846 0.07437 0.0
C362 C 0.6777 0.51982 0.1083 0.0
C363 C 0.67139 0.52619 0.0314 0.0
C364 C 0.69203 0.52888 0.97624 0.0
C365 C 0.71826 0.52524 0.99745 0.0
C366 C 0.61315 0.55424 0.92619 0.0
C367 C 0.58988 0.53663 0.96999 0.0
C368 C 0.63965 0.55094 0.94591 0.0
C369 C 0.64328 0.52965 0.00919 0.0
C370 C 0.61975 0.51164 0.05169 0.0
C371 C 0.59341 0.51526 0.03264 0.0
H372 H 0.01225 0.67375 0.3165 0.0
H373 H 0.98682 0.7188 0.10621 0.0
H374 H 0.01254 0.62996 0.25751 0.0
H375 H 0.98989 0.67703 0.04519 0.0
H376 H 0.98966 0.59436 0.94617 0.0
H377 H 0.97738 0.63006 0.01723 0.0
H378 H 0.04021 0.61557 0.17896 0.0
H379 H 0.05045 0.57822 0.11087 0.0
C380 C 0.00643 0.67419 0.25795 0.0
C381 C 0.00029 0.70017 0.21564 0.0
C382 C 0.00715 0.64929 0.22335 0.0
C383 C 0.00222 0.65002 0.14527 0.0
C384 C 0.9939 0.67514 0.10505 0.0
C385 C 0.99251 0.69954 0.14002 0.0
C386 C 0.00078 0.59903 0.99685 0.0
C387 C 0.02117 0.58389 0.02271 0.0
C388 C 0.99383 0.61957 0.03788 0.0
C389 C 0.00775 0.62612 0.10457 0.0
C390 C 0.02836 0.61086 0.1295 0.0
C391 C 0.03464 0.58971 0.08973 0.0
H392 H 0.00597 0.28343 0.57595 0.0
H393 H 0.06821 0.25624 0.45725 0.0
H394 H 0.99414 0.23326 0.65618 0.0
H395 H 0.05502 0.20586 0.53437 0.0
H396 H -0.00076 0.1113 0.62807 0.0
H397 H 0.00344 0.16195 0.55327 0.0
H398 H 0.02857 0.20214 0.7515 0.0
H399 H 0.02509 0.15168 0.82608 0.0
C400 C 0.01721 0.26693 0.5671 0.0
C401 C 0.03795 0.27384 0.50975 0.0
C402 C 0.01019 0.23822 0.61243 0.0
C403 C 0.02338 0.21588 0.59996 0.0
C404 C 0.04423 0.22273 0.54358 0.0
C405 C 0.05167 0.25152 0.49946 0.0
C406 C 0.00498 0.1309 0.65597 0.0
C407 C 0.01205 0.12776 0.73243 0.0
C408 C 0.00748 0.15974 0.61327 0.0
C409 C 0.0164 0.18561 0.64709 0.0
C410 C 0.02155 0.18237 0.7247 0.0
C411 C 0.01965 0.15361 0.76701 0.0
H412 H 0.31007 0.9834 0.64426 0.0
H413 H 0.32723 0.06449 0.74342 0.0
H414 H 0.34456 0.96463 0.72407 0.0
H415 H 0.36259 0.04696 0.82037 0.0
H416 H 0.42793 0.01803 0.94707 0.0
H417 H 0.37981 0.01487 0.91453 0.0
H418 H 0.39292 0.97898 0.71408 0.0
H419 H 0.44032 0.98085 0.74853 0.0
C420 C 0.32085 0.99677 0.68471 0.0
C421 C 0.31627 0.02526 0.68828 0.0
C422 C 0.34072 0.98624 0.72991 0.0
C423 C 0.35675 1.00442 0.77801 0.0
C424 C 0.35052 0.03203 0.78506 0.0
C425 C 0.33039 0.04229 0.74068 0.0
C426 C 0.4202 0.00851 0.89744 0.0
C427 C 0.43807 1.00036 0.84936 0.0
C428 C 0.39266 0.00688 0.87847 0.0
C429 C 0.38261 0.99754 0.81044 0.0
C430 C 0.39973 0.98625 0.76701 0.0
C431 C 0.42713 0.98744 0.78661 0.0
H432 H 0.41863 0.30532 0.409 0.0
H433 H 0.46332 0.24553 0.54021 0.0
H434 H 0.42905 0.3387 0.50141 0.0
H435 H 0.47025 0.27664 0.63659 0.0
H436 H 0.53317 0.36654 0.66057 0.0
H437 H 0.50511 0.32083 0.62351 0.0
H438 H 0.43348 0.35863 0.61286 0.0
H439 H 0.46241 0.40519 0.64695 0.0
C440 C 0.42986 0.29864 0.45846 0.0
C441 C 0.44171 0.27368 0.46365 0.0
C442 C 0.43538 0.31759 0.51269 0.0
C443 C 0.45192 0.3112 0.57463 0.0
C444 C 0.45874 0.28307 0.58743 0.0
C445 C 0.45421 0.26477 0.53198 0.0
C446 C 0.5113 0.36474 0.65197 0.0
C447 C 0.50003 0.38944 0.65497 0.0
C448 C 0.49498 0.33835 0.63139 0.0
C449 C 0.46687 0.33596 0.61436 0.0
C450 C 0.45511 0.35988 0.62387 0.0
C451 C 0.47162 0.3865 0.64337 0.0
H452 H 0.23532 0.6324 0.58676 0.0
H453 H 0.23541 0.55667 0.76437 0.0
H454 H 0.19835 0.6445 0.65409 0.0
H455 H 0.19735 0.56683 0.82906 0.0
H456 H 0.12457 0.57739 0.9326 0.0
H457 H 0.17337 0.59076 0.89409 0.0
H458 H 0.15179 0.62457 0.66646 0.0
H459 H 0.10373 0.61357 0.7076 0.0
C460 C 0.22769 0.61875 0.6411 0.0
C461 C 0.23795 0.59357 0.67051 0.0
C462 C 0.20629 0.62539 0.6794 0.0
C463 C 0.19412 0.60629 0.74649 0.0
C464 C 0.2061 0.58247 0.77836 0.0
C465 C 0.22793 0.57639 0.74107 0.0
C466 C 0.13066 0.58891 0.87526 0.0
C467 C 0.11059 0.59432 0.82276 0.0
C468 C 0.15855 0.5962 0.85267 0.0
C469 C 0.16671 0.60776 0.77625 0.0
C470 C 0.14672 0.61585 0.72582 0.0
C471 C 0.11896 0.60948 0.74921 0.0
H472 H 0.06875 0.83192 0.23266 0.0
H473 H 0.00222 0.80051 0.08684 0.0
H474 H 0.0797 0.88188 0.15193 0.0
H475 H 0.01193 0.85038 1.00854 0.0
H476 H 0.05765 0.97371 0.06864 0.0
H477 H 0.0598 0.92333 0.13206 0.0
H478 H 0.03957 0.88899 0.92275 0.0
H479 H 0.03572 0.93897 0.86133 0.0
C480 C 0.05676 0.83571 0.18265 0.0
C481 C 0.03467 0.81257 0.16571 0.0
C482 C 0.06282 0.86431 0.13678 0.0
C483 C 0.04652 0.87039 0.07407 0.0
C484 C 0.02531 0.84658 0.05538 0.0
C485 C 0.0196 0.81793 0.10041 0.0
C486 C 0.05404 0.95539 0.03626 0.0
C487 C 0.04605 0.95994 0.96078 0.0
C488 C 0.05548 0.92652 0.07229 0.0
C489 C 0.0495 0.90186 0.03286 0.0
C490 C 0.04351 0.90717 0.95554 0.0
C491 C 0.04143 0.93582 0.92018 0.0
H492 H 0.73824 0.1046 0.0631 0.0
H493 H 0.72985 0.02742 0.95142 0.0
H494 H 0.7031 0.12146 0.98245 0.0
H495 H 0.69353 0.0425 0.87457 0.0
H496 H 0.60838 0.10196 0.94241 0.0
H497 H 0.65569 0.10625 0.98229 0.0
H498 H 0.67406 0.0716 0.78418 0.0
H499 H 0.62586 0.06513 0.74842 0.0
C500 C 0.72912 0.09163 0.02007 0.0
C501 C 0.73649 0.0648 0.01298 0.0
C502 C 0.70881 0.10102 0.97438 0.0
C503 C 0.69491 0.08316 0.92251 0.0
C504 C 0.70383 0.05729 0.9126 0.0
C505 C 0.72457 0.04838 0.95702 0.0
C506 C 0.62287 0.09631 0.9062 0.0
C507 C 0.61361 0.08294 0.84302 0.0
C508 C 0.65015 0.09878 0.92887 0.0
C509 C 0.66878 0.08848 0.88768 0.0
C510 C 0.66014 0.07869 0.819 0.0
C511 C 0.63265 0.07536 0.79774 0.0
H512 H 0.63444 0.77016 0.31071 0.0
H513 H 0.59572 0.83201 0.16469 0.0
H514 H 0.62379 0.73519 0.22194 0.0
H515 H 0.58845 0.79895 0.07253 0.0
H516 H 0.52088 0.71165 0.05478 0.0
H517 H 0.55104 0.75668 0.08957 0.0
H518 H 0.61861 0.71242 0.11423 0.0
H519 H 0.58762 0.66669 0.08172 0.0
C520 C 0.62465 0.77696 0.25859 0.0
C521 C 0.61405 0.80292 0.2484 0.0
C522 C 0.61891 0.757 0.20668 0.0
C523 C 0.60359 0.76343 0.14211 0.0
C524 C 0.59882 0.79252 0.12394 0.0
C525 C 0.60356 0.81191 0.17699 0.0
C526 C 0.54232 0.7118 0.06609 0.0
C527 C 0.55179 0.6856 0.06701 0.0
C528 C 0.55986 0.73779 0.08535 0.0
C529 C 0.58745 0.73834 0.10515 0.0
C530 C 0.59743 0.7127 0.10068 0.0
C531 C 0.5797 0.6865 0.08226 0.0
H532 H 0.81425 0.52506 0.93423 0.0
H533 H 0.81249 0.44629 0.10389 0.0
H534 H 0.85344 0.51652 0.87048 0.0
H535 H 0.85067 0.43599 0.03748 0.0
H536 H 0.94594 0.4698 0.99878 0.0
H537 H 0.89729 0.45804 0.03403 0.0
H538 H 0.87902 0.49366 0.80474 0.0
H539 H 0.92826 0.50727 0.77144 0.0
C540 C 0.82152 0.50501 0.95558 0.0
C541 C 0.81069 0.48645 0.02388 0.0
C542 C 0.84401 0.49991 0.91894 0.0
C543 C 0.85585 0.47583 0.94949 0.0
C544 C 0.84277 0.4553 0.01349 0.0
C545 C 0.82068 0.46088 0.05111 0.0
C546 C 0.93142 0.47431 0.95544 0.0
C547 C 0.94086 0.49 0.88297 0.0
C548 C 0.90331 0.4674 0.97544 0.0
C549 C 0.88399 0.47553 0.92279 0.0
C550 C 0.89328 0.48801 0.84763 0.0
C551 C 0.92149 0.4956 0.82824 0.0
H552 H 0.02021 0.31734 0.22214 0.0
H553 H 0.10705 0.34135 0.26942 0.0
H554 H 0.02933 0.28791 0.12919 0.0
H555 H 0.11656 0.31246 0.17509 0.0
H556 H 0.10738 0.21174 0.14881 0.0
H557 H 0.1056 0.25763 0.19489 0.0
H558 H 0.04988 0.27746 0.01765 0.0
H559 H 0.05188 0.23131 0.97059 0.0
C560 C 0.04152 0.31803 0.20873 0.0
C561 C 0.06293 0.33169 0.25275 0.0
C562 C 0.04678 0.3008 0.15598 0.0
C563 C 0.0736 0.29699 0.14625 0.0
C564 C 0.09555 0.31427 0.18259 0.0
C565 C 0.09023 0.33144 0.23544 0.0
C566 C 0.09529 0.22618 0.11816 0.0
C567 C 0.07969 0.21756 0.056 0.0
C568 C 0.09433 0.25272 0.14459 0.0
C569 C 0.07769 0.27149 0.10987 0.0
C570 C 0.06277 0.26347 0.04613 0.0
C571 C 0.0638 0.23688 0.01943 0.0
H572 H 0.35187 0.10333 0.4812 0.0
H573 H 0.28071 0.06462 0.35839 0.0
H574 H 0.37987 0.11798 0.36534 0.0
H575 H 0.30851 0.08074 0.24025 0.0
H576 H 0.3777 0.06695 0.08763 0.0
H577 H 0.3435 0.06374 0.18577 0.0
H578 H 0.39214 0.14738 0.24595 0.0
H579 H 0.42734 0.14932 0.1518 0.0
C580 C 0.34207 0.09856 0.4288 0.0
C581 C 0.31424 0.08228 0.42911 0.0
C582 C 0.35808 0.1073 0.36188 0.0
C583 C 0.34664 0.1003 0.29301 0.0
C584 C 0.31818 0.08599 0.29241 0.0
C585 C 0.30213 0.07706 0.35987 0.0
C586 C 0.38113 0.08469 0.12174 0.0
C587 C 0.40568 0.10801 0.1126 0.0
C588 C 0.36121 0.08313 0.17741 0.0
C589 C 0.36513 0.10506 0.2249 0.0
C590 C 0.38865 0.12967 0.21173 0.0
C591 C 0.40874 0.13102 0.15673 0.0
H592 H 0.51456 0.30502 0.19627 0.0
H593 H 0.42668 0.29493 0.1744 0.0
H594 H 0.52329 0.35245 0.10433 0.0
H595 H 0.43516 0.34185 0.08211 0.0
H596 H 0.46082 0.44657 0.02689 0.0
H597 H 0.45152 0.39465 0.09564 0.0
H598 H 0.51975 0.37941 0.975 0.0
H599 H 0.52927 0.43152 0.90662 0.0
C600 C 0.49716 0.31231 0.16944 0.0
C601 C 0.46996 0.29621 0.19213 0.0
C602 C 0.5021 0.33962 0.11713 0.0
C603 C 0.47991 0.35138 0.08674 0.0
C604 C 0.45275 0.33393 0.10547 0.0
C605 C 0.44787 0.30678 0.15752 0.0
C606 C 0.4737 0.43212 0.01438 0.0
C607 C 0.49583 0.4434 0.96121 0.0
C608 C 0.46827 0.40219 0.05359 0.0
C609 C 0.48486 0.38266 0.04098 0.0
C610 C 0.50671 0.3938 0.98679 0.0
C611 C 0.51205 0.42371 0.94724 0.0
H612 H 0.24864 0.49911 0.48518 0.0
H613 H 0.23862 0.58855 0.39504 0.0
H614 H 0.2213 0.47897 0.38208 0.0
H615 H 0.21138 0.56864 0.29277 0.0
H616 H 0.17851 0.53039 0.08858 0.0
H617 H 0.21405 0.54552 0.17889 0.0
H618 H 0.17088 0.47158 0.34947 0.0
H619 H 0.1351 0.4565 0.25908 0.0
C620 C 0.24107 0.51452 0.44242 0.0
C621 C 0.24566 0.54535 0.44793 0.0
C622 C 0.22526 0.50299 0.38394 0.0
C623 C 0.21416 0.52221 0.32942 0.0
C624 C 0.21988 0.55329 0.33333 0.0
C625 C 0.23534 0.56469 0.39208 0.0
C626 C 0.17672 0.51717 0.14517 0.0
C627 C 0.15376 0.49253 0.16706 0.0
C628 C 0.1971 0.52583 0.19681 0.0
C629 C 0.19508 0.50998 0.27152 0.0
C630 C 0.1731 0.48412 0.29212 0.0
C631 C 0.15261 0.47548 0.24036 0.0
H632 H 0.0392 0.77965 0.45454 0.0
H633 H 0.95314 0.75227 0.401 0.0
H634 H 0.02776 0.80777 0.547 0.0
H635 H 0.94112 0.77949 0.49629 0.0
H636 H 0.94208 0.87544 0.54425 0.0
H637 H 0.94645 0.83178 0.49159 0.0
H638 H 0.00803 0.81646 0.6558 0.0
H639 H 0.00505 0.86159 0.70502 0.0
C640 C 0.01758 0.77828 0.46586 0.0
C641 C -0.00293 0.76383 0.42067 0.0
C642 C 0.01093 0.79458 0.51883 0.0
C643 C 0.98351 0.7967 0.52817 0.0
C644 C 0.96256 0.77912 0.48924 0.0
C645 C 0.9693 0.76294 0.4357 0.0
C646 C 0.95664 0.86287 0.56916 0.0
C647 C 0.97365 0.87266 0.62793 0.0
C648 C 0.95878 0.8373 0.53978 0.0
C649 C 0.97778 0.82044 0.5688 0.0
C650 C 0.9935 0.82908 0.6309 0.0
C651 C 0.99156 0.85488 0.65982 0.0
H652 H 0.75361 0.05205 0.31743 0.0
H653 H 0.72478 0.96655 0.24046 0.0
H654 H 0.72084 0.03416 0.42522 0.0
H655 H 0.69197 0.94818 0.34884 0.0
H656 H 0.61053 0.95399 0.46764 0.0
H657 H 0.64923 0.96161 0.37882 0.0
H658 H 0.70593 0.99874 0.54283 0.0
H659 H 0.6672 0.99111 0.63167 0.0
C660 C 0.74093 0.02897 0.32555 0.0
C661 C 0.74188 0.01044 0.27187 0.0
C662 C 0.72211 0.01868 0.38706 0.0
C663 C 0.70364 0.98976 0.39546 0.0
C664 C 0.70571 0.97065 0.34359 0.0
C665 C 0.72468 0.98094 0.28224 0.0
C666 C 0.63131 0.96314 0.48541 0.0
C667 C 0.63573 0.97232 0.55639 0.0
C668 C 0.65354 0.96748 0.4345 0.0
C669 C 0.68069 0.98105 0.45348 0.0
C670 C 0.68523 0.98873 0.52596 0.0
C671 C 0.66303 0.9844 0.57679 0.0
H672 H 0.54476 0.74841 0.42412 0.0
H673 H 0.59079 0.7972 0.58878 0.0
H674 H 0.5356 0.70147 0.51672 0.0
H675 H 0.58099 0.74994 0.68294 0.0
H676 H 0.52897 0.65125 0.82714 0.0
H677 H 0.53517 0.70217 0.75085 0.0
H678 H 0.57678 0.675 0.57532 0.0
H679 H 0.5713 0.62465 0.65152 0.0
C680 C 0.552 0.74926 0.4812 0.0
C681 C 0.56833 0.77647 0.49946 0.0
C682 C 0.547 0.72236 0.53389 0.0
C683 C 0.55789 0.72201 0.60659 0.0
C684 C 0.57234 0.74963 0.62722 0.0
C685 C 0.57773 0.77668 0.57373 0.0
C686 C 0.5398 0.65631 0.77273 0.0
C687 C 0.54963 0.63382 0.74545 0.0
C688 C 0.54335 0.68545 0.72925 0.0
C689 C 0.55621 0.69239 0.65697 0.0
C690 C 0.5666 0.67017 0.63064 0.0
C691 C 0.56359 0.64137 0.67456 0.0
H692 H 0.84004 0.56534 0.17155 0.0
H693 H 0.7757 0.51082 0.33078 0.0
H694 H 0.867 0.58459 0.27523 0.0
H695 H 0.80291 0.52994 0.43559 0.0
H696 H 0.88467 0.53614 0.58039 0.0
H697 H 0.84939 0.52234 0.48859 0.0
H698 H 0.86597 0.6159 0.3782 0.0
H699 H 0.90075 0.63007 0.47138 0.0
C700 C 0.83158 0.55783 0.22891 0.0
C701 C 0.80594 0.53657 0.24359 0.0
C702 C 0.84688 0.56896 0.28814 0.0
C703 C 0.83703 0.55876 0.36343 0.0
C704 C 0.81099 0.53809 0.37802 0.0
C705 C 0.79541 0.52728 0.31835 0.0
C706 C 0.8803 0.55399 0.53805 0.0
C707 C 0.89584 0.58422 0.53298 0.0
C708 C 0.86007 0.54601 0.48534 0.0
C709 C 0.8551 0.56802 0.42602 0.0
C710 C 0.86964 0.59843 0.4229 0.0
C711 C 0.88966 0.60647 0.47604 0.0
loop_
_geom_bond_atom_site_label_1
_geom_bond_atom_site_label_2
_geom_bond_distance
_geom_bond_site_symmetry_2
_ccdc_geom_bond_type
H0 C3 0.931 . S
H1 C6 0.928 . S
H2 C8 0.930 . S
C3 H0 0.931 . S
C3 C4 1.413 . S
C3 C5 1.360 1_554 S
C4 C3 1.413 . S
C4 C8 1.429 . S
C5 C3 1.360 1_556 S
C5 C6 1.372 . S
C6 H1 0.928 . S
C6 C5 1.372 . S
C6 C7 1.404 1_556 S
C7 C6 1.404 1_554 S
C7 C8 1.391 . S
C8 H2 0.930 . S
C8 C4 1.429 . S
C8 C7 1.391 . S
H9 C12 0.931 . S
H10 C15 0.928 . S
H11 C17 0.930 . S
C12 H9 0.931 . S
C12 C13 1.413 . S
C12 C14 1.356 1_554 S
C13 C12 1.413 . S
C13 C17 1.429 . S
C14 C12 1.356 1_556 S
C14 C15 1.373 . S
C15 H10 0.928 . S
C15 C14 1.373 . S
C15 C16 1.404 1_556 S
C16 C15 1.404 1_554 S
C16 C17 1.391 . S
C17 H11 0.930 . S
C17 C13 1.429 . S
C17 C16 1.391 . S
H18 C21 0.931 . S
H19 C24 0.928 . S
H20 C26 0.930 . S
C21 H18 0.931 . S
C21 C22 1.413 . S
C21 C23 1.360 1_554 S
C22 C21 1.413 . S
C22 C26 1.429 . S
C23 C21 1.360 1_556 S
C23 C24 1.372 . S
C24 H19 0.928 . S
C24 C23 1.372 . S
C24 C25 1.404 . S
C25 C24 1.404 . S
C25 C26 1.391 1_556 S
C26 H20 0.930 . S
C26 C22 1.429 . S
C26 C25 1.391 1_554 S
H27 C30 0.931 . S
H28 C33 0.928 . S
H29 C35 0.930 . S
C30 H27 0.931 . S
C30 C31 1.413 . S
C30 C32 1.360 . S
C31 C30 1.413 . S
C31 C35 1.429 . S
C32 C30 1.360 . S
C32 C33 1.372 . S
C33 H28 0.928 . S
C33 C32 1.372 . S
C33 C34 1.404 . S
C34 C33 1.404 . S
C34 C35 1.391 . S
C35 H29 0.930 . S
C35 C31 1.429 . S
C35 C34 1.391 . S
H36 C39 0.931 . S
H37 C42 0.928 . S
H38 C44 0.930 . S
C39 H36 0.931 . S
C39 C40 1.413 . S
C39 C41 1.360 . S
C40 C39 1.413 . S
C40 C44 1.429 . S
C41 C39 1.360 . S
C41 C42 1.372 . S
C42 H37 0.928 . S
C42 C41 1.372 . S
C42 C43 1.404 . S
C43 C42 1.404 . S
C43 C44 1.391 . S
C44 H38 0.930 . S
C44 C40 1.429 . S
C44 C43 1.391 . S
H45 C48 0.931 . S
H46 C51 0.928 . S
H47 C53 0.930 . S
C48 H45 0.931 . S
C48 C49 1.413 . S
C48 C50 1.360 . S
C49 C48 1.413 . S
C49 C53 1.429 . S
C50 C48 1.360 . S
C50 C51 1.372 . S
C51 H46 0.928 . S
C51 C50 1.372 . S
C51 C52 1.404 . S
C52 C51 1.404 . S
C52 C53 1.391 . S
C53 H47 0.930 . S
C53 C49 1.429 . S
C53 C52 1.391 . S
H54 C57 0.931 . S
H55 C60 0.928 . S
H56 C62 0.930 . S
C57 H54 0.931 . S
C57 C58 1.413 . S
C57 C59 1.360 . S
C58 C57 1.413 . S
C58 C62 1.429 . S
C59 C57 1.360 . S
C59 C60 1.372 . S
C60 H55 0.928 . S
C60 C59 1.372 . S
C60 C61 1.404 . S
C61 C60 1.404 . S
C61 C62 1.391 . S
C62 H56 0.930 . S
C62 C58 1.429 . S
C62 C61 1.391 . S
H63 C66 0.931 . S
H64 C69 0.928 . S
H65 C71 0.930 . S
C66 H63 0.931 . S
C66 C67 1.413 . S
C66 C68 1.360 . S
C67 C66 1.413 . S
C67 C71 1.429 . S
C68 C66 1.360 . S
C68 C69 1.372 . S
C69 H64 0.928 . S
C69 C68 1.372 . S
C69 C70 1.404 . S
C70 C69 1.404 . S
C70 C71 1.391 . S
C71 H65 0.930 . S
C71 C67 1.429 . S
C71 C70 1.391 . S
Nd72 C74 2.836 1_545 S
Nd72 O92 2.500 1_445 S
Nd72 O93 2.492 1_545 S
Nd72 O94 2.487 . S
Nd72 O95 2.682 . S
Nd72 O96 2.410 1_545 S
Nd72 O101 2.414 1_455 S
Nd72 O103 2.424 . S
Nd73 C83 2.836 1_556 S
Nd73 O95 2.414 . S
Nd73 O97 2.424 1_545 S
Nd73 O98 2.500 . S
Nd73 O99 2.492 1_556 S
Nd73 O100 2.487 1_455 S
Nd73 O101 2.682 1_455 S
Nd73 O102 2.410 . S
C74 Nd72 2.836 1_565 S
C74 C75 1.498 1_455 S
C74 O92 1.258 1_455 S
C74 O93 1.239 . S
C75 C74 1.498 1_655 S
C75 C76 1.366 . S
C75 C80 1.407 1_655 S
C76 C75 1.366 . S
C76 C77 1.392 . S
C76 H104 0.930 . S
C77 C76 1.392 . S
C77 C78 1.398 . S
C77 H105 0.929 . S
C78 C77 1.398 . S
C78 C79 1.388 . S
C79 C78 1.388 . S
C79 C80 1.377 1_655 S
C79 H106 0.902 1_655 S
C80 C75 1.407 1_455 S
C80 C79 1.377 1_455 S
C80 H107 0.929 . S
C81 O94 1.241 . S
C81 O95 1.273 . S
C82 O96 1.251 . S
C82 O97 1.268 . S
C83 Nd73 2.836 1_554 S
C83 C84 1.498 . S
C83 O98 1.258 1_554 S
C83 O99 1.239 . S
C84 C83 1.498 . S
C84 C85 1.366 . S
C84 C89 1.407 . S
C85 C84 1.366 . S
C85 C86 1.392 . S
C85 H108 0.930 . S
C86 C85 1.392 . S
C86 C87 1.398 . S
C86 H109 0.929 . S
C87 C86 1.398 . S
C87 C88 1.352 . S
C88 C87 1.352 . S
C88 C89 1.384 . S
C88 H110 0.930 . S
C89 C84 1.407 . S
C89 C88 1.384 . S
C89 H111 0.929 . S
C90 O100 1.241 . S
C90 O101 1.273 . S
C91 O102 1.251 . S
C91 O103 1.268 . S
O92 Nd72 2.500 1_665 S
O92 C74 1.258 1_655 S
O93 Nd72 2.492 1_565 S
O93 C74 1.239 . S
O94 Nd72 2.487 . S
O94 C81 1.241 . S
O95 Nd72 2.682 . S
O95 Nd73 2.414 . S
O95 C81 1.273 . S
O96 Nd72 2.410 1_565 S
O96 C82 1.251 . S
O97 Nd73 2.424 1_565 S
O97 C82 1.268 . S
O98 Nd73 2.500 . S
O98 C83 1.258 1_556 S
O99 Nd73 2.492 1_554 S
O99 C83 1.239 . S
O100 Nd73 2.487 1_655 S
O100 C90 1.241 . S
O101 Nd72 2.414 1_655 S
O101 Nd73 2.682 1_655 S
O101 C90 1.273 . S
O102 Nd73 2.410 . S
O102 C91 1.251 . S
O103 Nd72 2.424 . S
O103 C91 1.268 . S
H104 C76 0.930 . S
H105 C77 0.929 . S
H106 C79 0.902 1_455 S
H107 C80 0.929 . S
H108 C85 0.930 . S
H109 C86 0.929 . S
H110 C88 0.930 . S
H111 C89 0.929 . S
Nd112 C114 2.818 1_545 S
Nd112 O132 2.500 1_545 S
Nd112 O133 2.492 . S
Nd112 O134 2.487 . S
Nd112 O135 2.682 . S
Nd112 O136 2.410 . S
Nd112 O141 2.414 . S
Nd112 O143 2.424 . S
Nd113 C123 2.836 1_556 S
Nd113 O135 2.414 . S
Nd113 O137 2.424 . S
Nd113 O138 2.500 . S
Nd113 O139 2.492 1_556 S
Nd113 O140 2.478 1_545 S
Nd113 O141 2.682 . S
Nd113 O142 2.410 . S
C114 Nd112 2.818 1_565 S
C114 C115 1.516 . S
C114 O132 1.269 . S
C114 O133 1.212 1_565 S
C115 C114 1.516 . S
C115 C116 1.366 . S
C115 C120 1.407 1_565 S
C116 C115 1.366 . S
C116 C117 1.392 . S
C116 H144 0.930 . S
C117 C116 1.392 . S
C117 C118 1.398 . S
C117 H145 0.929 . S
C118 C117 1.398 . S
C118 C119 1.352 . S
C119 C118 1.352 . S
C119 C120 1.384 1_565 S
C119 H146 0.930 1_565 S
C120 C115 1.407 1_545 S
C120 C119 1.384 1_545 S
C120 H147 0.929 . S
C121 O134 1.241 . S
C121 O135 1.273 . S
C122 O136 1.251 . S
C122 O137 1.268 . S
C123 Nd113 2.836 1_554 S
C123 C124 1.498 . S
C123 O138 1.258 1_554 S
C123 O139 1.239 . S
C124 C123 1.498 . S
C124 C125 1.366 . S
C124 C129 1.407 . S
C125 C124 1.366 . S
C125 C126 1.392 . S
C125 H148 0.930 1_554 S
C126 C125 1.392 . S
C126 C127 1.398 . S
C126 H149 0.929 . S
C127 C126 1.398 . S
C127 C128 1.352 . S
C128 C127 1.352 . S
C128 C129 1.384 . S
C128 H150 0.930 . S
C129 C124 1.407 . S
C129 C128 1.384 . S
C129 H151 0.929 . S
C130 O140 1.248 . S
C130 O141 1.273 1_565 S
C131 O142 1.251 . S
C131 O143 1.268 . S
O132 Nd112 2.500 1_565 S
O132 C114 1.269 . S
O133 Nd112 2.492 . S
O133 C114 1.212 1_545 S
O134 Nd112 2.487 . S
O134 C121 1.241 . S
O135 Nd112 2.682 . S
O135 Nd113 2.414 . S
O135 C121 1.273 . S
O136 Nd112 2.410 . S
O136 C122 1.251 . S
O137 Nd113 2.424 . S
O137 C122 1.268 . S
O138 Nd113 2.500 . S
O138 C123 1.258 1_556 S
O139 Nd113 2.492 1_554 S
O139 C123 1.239 . S
O140 Nd113 2.478 1_565 S
O140 C130 1.248 . S
O141 Nd112 2.414 . S
O141 Nd113 2.682 . S
O141 C130 1.273 1_545 S
O142 Nd113 2.410 . S
O142 C131 1.251 . S
O143 Nd112 2.424 . S
O143 C131 1.268 . S
H144 C116 0.930 . S
H145 C117 0.929 . S
H146 C119 0.930 1_545 S
H147 C120 0.929 . S
H148 C125 0.930 1_556 S
H149 C126 0.929 . S
H150 C128 0.930 . S
H151 C129 0.929 . S
Nd152 C154 2.836 . S
Nd152 O172 2.500 . S
Nd152 O173 2.492 . S
Nd152 O174 2.487 . S
Nd152 O175 2.682 . S
Nd152 O176 2.410 . S
Nd152 O181 2.414 . S
Nd152 O183 2.424 . S
Nd153 C163 2.836 . S
Nd153 O175 2.414 . S
Nd153 O177 2.424 . S
Nd153 O178 2.500 . S
Nd153 O179 2.492 . S
Nd153 O180 2.487 . S
Nd153 O181 2.682 . S
Nd153 O182 2.410 . S
C154 Nd152 2.836 . S
C154 C155 1.496 1_556 S
C154 O172 1.258 . S
C154 O173 1.239 . S
C155 C154 1.496 1_554 S
C155 C156 1.365 1_554 S
C155 C160 1.410 . S
C156 C155 1.365 1_556 S
C156 C157 1.392 . S
C156 H184 0.930 . S
C157 C156 1.392 . S
C157 C158 1.398 1_556 S
C157 H185 0.929 . S
C158 C157 1.398 1_554 S
C158 C159 1.352 . S
C159 C158 1.352 . S
C159 C160 1.384 . S
C159 H186 0.930 . S
C160 C155 1.410 . S
C160 C159 1.384 . S
C160 H187 0.929 . S
C161 O174 1.241 . S
C161 O175 1.273 . S
C162 O176 1.251 . S
C162 O177 1.268 . S
C163 Nd153 2.836 . S
C163 C164 1.498 . S
C163 O178 1.258 . S
C163 O179 1.239 . S
C164 C163 1.498 . S
C164 C165 1.366 . S
C164 C169 1.407 . S
C165 C164 1.366 . S
C165 C166 1.392 . S
C165 H188 0.930 . S
C166 C165 1.392 . S
C166 C167 1.398 . S
C166 H189 0.929 . S
C167 C166 1.398 . S
C167 C168 1.352 . S
C168 C167 1.352 . S
C168 C169 1.384 . S
C168 H190 0.930 . S
C169 C164 1.407 . S
C169 C168 1.384 . S
C169 H191 0.929 . S
C170 O180 1.241 . S
C170 O181 1.273 . S
C171 O182 1.251 . S
C171 O183 1.268 . S
O172 Nd152 2.500 . S
O172 C154 1.258 . S
O173 Nd152 2.492 . S
O173 C154 1.239 . S
O174 Nd152 2.487 . S
O174 C161 1.241 . S
O175 Nd152 2.682 . S
O175 Nd153 2.414 . S
O175 C161 1.273 . S
O176 Nd152 2.410 . S
O176 C162 1.251 . S
O177 Nd153 2.424 . S
O177 C162 1.268 . S
O178 Nd153 2.500 . S
O178 C163 1.258 . S
O179 Nd153 2.492 . S
O179 C163 1.239 . S
O180 Nd153 2.487 . S
O180 C170 1.241 . S
O181 Nd152 2.414 . S
O181 Nd153 2.682 . S
O181 C170 1.273 . S
O182 Nd153 2.410 . S
O182 C171 1.251 . S
O183 Nd152 2.424 . S
O183 C171 1.268 . S
H184 C156 0.930 . S
H185 C157 0.929 . S
H186 C159 0.930 . S
H187 C160 0.929 . S
H188 C165 0.930 . S
H189 C166 0.929 . S
H190 C168 0.930 . S
H191 C169 0.929 . S
Nd192 C194 2.836 1_455 S
Nd192 O212 2.500 1_455 S
Nd192 O213 2.492 1_455 S
Nd192 O214 2.487 . S
Nd192 O215 2.682 . S
Nd192 O216 2.410 1_455 S
Nd192 O221 2.414 . S
Nd192 O223 2.424 . S
Nd193 C203 2.836 1_556 S
Nd193 O215 2.414 . S
Nd193 O217 2.424 1_455 S
Nd193 O218 2.500 . S
Nd193 O219 2.492 1_556 S
Nd193 O220 2.487 . S
Nd193 O221 2.682 . S
Nd193 O222 2.410 . S
C194 Nd192 2.836 1_655 S
C194 C195 1.498 . S
C194 O212 1.258 . S
C194 O213 1.239 . S
C195 C194 1.498 . S
C195 C196 1.366 . S
C195 C200 1.407 . S
C196 C195 1.366 . S
C196 C197 1.392 . S
C196 H224 0.930 . S
C197 C196 1.392 . S
C197 C198 1.398 . S
C197 H225 0.929 . S
C198 C197 1.398 . S
C198 C199 1.352 . S
C199 C198 1.352 . S
C199 C200 1.384 . S
C199 H226 0.930 . S
C200 C195 1.407 . S
C200 C199 1.384 . S
C200 H227 0.929 . S
C201 O214 1.241 . S
C201 O215 1.273 . S
C202 O216 1.251 . S
C202 O217 1.268 . S
C203 Nd193 2.836 1_554 S
C203 C204 1.498 . S
C203 O218 1.258 1_554 S
C203 O219 1.239 . S
C204 C203 1.498 . S
C204 C205 1.366 . S
C204 C209 1.407 . S
C205 C204 1.366 . S
C205 C206 1.392 . S
C205 H228 0.930 . S
C206 C205 1.392 . S
C206 C207 1.398 . S
C206 H229 0.929 . S
C207 C206 1.398 . S
C207 C208 1.352 . S
C208 C207 1.352 . S
C208 C209 1.384 . S
C208 H230 0.930 . S
C209 C204 1.407 . S
C209 C208 1.384 . S
C209 H231 0.929 . S
C210 O220 1.241 . S
C210 O221 1.273 . S
C211 O222 1.251 . S
C211 O223 1.268 . S
O212 Nd192 2.500 1_655 S
O212 C194 1.258 . S
O213 Nd192 2.492 1_655 S
O213 C194 1.239 . S
O214 Nd192 2.487 . S
O214 C201 1.241 . S
O215 Nd192 2.682 . S
O215 Nd193 2.414 . S
O215 C201 1.273 . S
O216 Nd192 2.410 1_655 S
O216 C202 1.251 . S
O217 Nd193 2.424 1_655 S
O217 C202 1.268 . S
O218 Nd193 2.500 . S
O218 C203 1.258 1_556 S
O219 Nd193 2.492 1_554 S
O219 C203 1.239 . S
O220 Nd193 2.487 . S
O220 C210 1.241 . S
O221 Nd192 2.414 . S
O221 Nd193 2.682 . S
O221 C210 1.273 . S
O222 Nd193 2.410 . S
O222 C211 1.251 . S
O223 Nd192 2.424 . S
O223 C211 1.268 . S
H224 C196 0.930 . S
H225 C197 0.929 . S
H226 C199 0.930 . S
H227 C200 0.929 . S
H228 C205 0.930 . S
H229 C206 0.929 . S
H230 C208 0.930 . S
H231 C209 0.929 . S
H232 C240 0.950 . S
H233 C245 0.950 . S
H234 C242 0.950 . S
H235 C244 0.950 . S
H236 C246 0.950 . S
H237 C248 0.950 . S
H238 C250 0.950 . S
H239 C251 0.950 . S
C240 H232 0.950 . S
C240 C241 1.386 . S
C240 C242 1.391 . S
C241 C240 1.386 . S
C241 C245 1.393 . S
C242 H234 0.950 . S
C242 C240 1.391 . S
C242 C243 1.400 . S
C243 C242 1.400 . S
C243 C244 1.398 . S
C243 C249 1.491 . S
C244 H235 0.950 . S
C244 C243 1.398 . S
C244 C245 1.391 . S
C245 H233 0.950 . S
C245 C241 1.393 . S
C245 C244 1.391 . S
C246 H236 0.950 . S
C246 C247 1.386 . S
C246 C248 1.391 . S
C247 C246 1.386 . S
C247 C251 1.393 . S
C248 H237 0.950 . S
C248 C246 1.391 . S
C248 C249 1.400 . S
C249 C243 1.491 . S
C249 C248 1.400 . S
C249 C250 1.398 . S
C250 H238 0.950 . S
C250 C249 1.398 . S
C250 C251 1.391 . S
C251 H239 0.950 . S
C251 C247 1.393 . S
C251 C250 1.391 . S
H252 C260 0.950 . S
H253 C265 0.950 . S
H254 C262 0.950 . S
H255 C264 0.950 . S
H256 C266 0.950 . S
H257 C268 0.950 . S
H258 C270 0.950 . S
H259 C271 0.950 . S
C260 H252 0.950 . S
C260 C261 1.386 . S
C260 C262 1.391 . S
C261 C260 1.386 . S
C261 C265 1.393 . S
C262 H254 0.950 . S
C262 C260 1.391 . S
C262 C263 1.400 . S
C263 C262 1.400 . S
C263 C264 1.398 . S
C263 C269 1.491 . S
C264 H255 0.950 . S
C264 C263 1.398 . S
C264 C265 1.391 . S
C265 H253 0.950 . S
C265 C261 1.393 . S
C265 C264 1.391 . S
C266 H256 0.950 . S
C266 C267 1.386 . S
C266 C268 1.391 . S
C267 C266 1.386 . S
C267 C271 1.393 . S
C268 H257 0.950 . S
C268 C266 1.391 . S
C268 C269 1.400 . S
C269 C263 1.491 . S
C269 C268 1.400 . S
C269 C270 1.398 . S
C270 H258 0.950 . S
C270 C269 1.398 . S
C270 C271 1.391 . S
C271 H259 0.950 . S
C271 C267 1.393 . S
C271 C270 1.391 . S
H272 C280 0.950 . S
H273 C285 0.950 . S
H274 C282 0.950 . S
H275 C284 0.950 . S
H276 C286 0.950 . S
H277 C288 0.950 . S
H278 C290 0.950 . S
H279 C291 0.950 . S
C280 H272 0.950 . S
C280 C281 1.386 . S
C280 C282 1.391 . S
C281 C280 1.386 . S
C281 C285 1.393 . S
C282 H274 0.950 . S
C282 C280 1.391 . S
C282 C283 1.400 . S
C283 C282 1.400 . S
C283 C284 1.398 . S
C283 C289 1.491 . S
C284 H275 0.950 . S
C284 C283 1.398 . S
C284 C285 1.391 . S
C285 H273 0.950 . S
C285 C281 1.393 . S
C285 C284 1.391 . S
C286 H276 0.950 . S
C286 C287 1.386 . S
C286 C288 1.391 . S
C287 C286 1.386 . S
C287 C291 1.393 . S
C288 H277 0.950 . S
C288 C286 1.391 . S
C288 C289 1.400 . S
C289 C283 1.491 . S
C289 C288 1.400 . S
C289 C290 1.398 . S
C290 H278 0.950 . S
C290 C289 1.398 . S
C290 C291 1.391 . S
C291 H279 0.950 . S
C291 C287 1.393 . S
C291 C290 1.391 . S
H292 C300 0.950 . S
H293 C305 0.950 . S
H294 C302 0.950 . S
H295 C304 0.950 . S
H296 C306 0.950 . S
H297 C308 0.950 . S
H298 C310 0.950 . S
H299 C311 0.950 . S
C300 H292 0.950 . S
C300 C301 1.386 . S
C300 C302 1.391 . S
C301 C300 1.386 . S
C301 C305 1.393 . S
C302 H294 0.950 . S
C302 C300 1.391 . S
C302 C303 1.400 . S
C303 C302 1.400 . S
C303 C304 1.398 . S
C303 C309 1.491 . S
C304 H295 0.950 . S
C304 C303 1.398 . S
C304 C305 1.391 . S
C305 H293 0.950 . S
C305 C301 1.393 . S
C305 C304 1.391 . S
C306 H296 0.950 . S
C306 C307 1.386 . S
C306 C308 1.391 . S
C307 C306 1.386 . S
C307 C311 1.393 . S
C308 H297 0.950 . S
C308 C306 1.391 . S
C308 C309 1.400 . S
C309 C303 1.491 . S
C309 C308 1.400 . S
C309 C310 1.398 . S
C310 H298 0.950 . S
C310 C309 1.398 . S
C310 C311 1.391 . S
C311 H299 0.950 . S
C311 C307 1.393 . S
C311 C310 1.391 . S
H312 C320 0.950 . S
H313 C325 0.950 . S
H314 C322 0.950 1_554 S
H315 C324 0.950 . S
H316 C326 0.950 1_565 S
H317 C328 0.950 . S
H318 C330 0.950 . S
H319 C331 0.950 . S
C320 H312 0.950 . S
C320 C321 1.386 1_544 S
C320 C322 1.391 1_554 S
C321 C320 1.386 1_566 S
C321 C325 1.393 . S
C322 H314 0.950 1_556 S
C322 C320 1.391 1_556 S
C322 C323 1.400 . S
C323 C322 1.400 . S
C323 C324 1.398 1_545 S
C323 C329 1.491 . S
C324 H315 0.950 . S
C324 C323 1.398 1_565 S
C324 C325 1.391 . S
C325 H313 0.950 . S
C325 C321 1.393 . S
C325 C324 1.391 . S
C326 H316 0.950 1_545 S
C326 C327 1.386 . S
C326 C328 1.391 1_545 S
C327 C326 1.386 . S
C327 C331 1.393 . S
C328 H317 0.950 . S
C328 C326 1.391 1_565 S
C328 C329 1.400 1_565 S
C329 C323 1.491 . S
C329 C328 1.400 1_545 S
C329 C330 1.398 . S
C330 H318 0.950 . S
C330 C329 1.398 . S
C330 C331 1.391 . S
C331 H319 0.950 . S
C331 C327 1.393 . S
C331 C330 1.391 . S
H332 C340 0.950 . S
H333 C345 0.950 . S
H334 C342 0.950 . S
H335 C344 0.950 . S
H336 C346 0.950 . S
H337 C348 0.950 . S
H338 C350 0.950 . S
H339 C351 0.950 . S
C340 H332 0.950 . S
C340 C341 1.386 . S
C340 C342 1.391 . S
C341 C340 1.386 . S
C341 C345 1.393 . S
C342 H334 0.950 . S
C342 C340 1.391 . S
C342 C343 1.400 . S
C343 C342 1.400 . S
C343 C344 1.398 . S
C343 C349 1.491 . S
C344 H335 0.950 . S
C344 C343 1.398 . S
C344 C345 1.391 . S
C345 H333 0.950 . S
C345 C341 1.393 . S
C345 C344 1.391 . S
C346 H336 0.950 . S
C346 C347 1.386 . S
C346 C348 1.391 1_556 S
C347 C346 1.386 . S
C347 C351 1.393 1_556 S
C348 H337 0.950 . S
C348 C346 1.391 1_554 S
C348 C349 1.400 . S
C349 C343 1.491 . S
C349 C348 1.400 . S
C349 C350 1.398 . S
C350 H338 0.950 . S
C350 C349 1.398 . S
C350 C351 1.391 . S
C351 H339 0.950 . S
C351 C347 1.393 1_554 S
C351 C350 1.391 . S
H352 C360 0.950 . S
H353 C365 0.950 . S
H354 C362 0.950 . S
H355 C364 0.950 . S
H356 C366 0.950 . S
H357 C368 0.950 . S
H358 C370 0.950 1_554 S
H359 C371 0.950 . S
C360 H352 0.950 . S
C360 C361 1.386 1_554 S
C360 C362 1.391 . S
C361 C360 1.386 1_556 S
C361 C365 1.393 . S
C362 H354 0.950 . S
C362 C360 1.391 . S
C362 C363 1.400 1_554 S
C363 C362 1.400 1_556 S
C363 C364 1.398 . S
C363 C369 1.491 . S
C364 H355 0.950 . S
C364 C363 1.398 . S
C364 C365 1.391 . S
C365 H353 0.950 . S
C365 C361 1.393 . S
C365 C364 1.391 . S
C366 H356 0.950 . S
C366 C367 1.386 . S
C366 C368 1.391 . S
C367 C366 1.386 . S
C367 C371 1.393 . S
C368 H357 0.950 . S
C368 C366 1.391 . S
C368 C369 1.400 . S
C369 C363 1.491 . S
C369 C368 1.400 . S
C369 C370 1.398 . S
C370 H358 0.950 1_556 S
C370 C369 1.398 . S
C370 C371 1.391 . S
C371 H359 0.950 . S
C371 C367 1.393 . S
C371 C370 1.391 . S
H372 C380 0.950 . S
H373 C385 0.950 . S
H374 C382 0.950 . S
H375 C384 0.950 . S
H376 C386 0.950 . S
H377 C388 0.950 . S
H378 C390 0.950 1_454 S
H379 C391 0.950 . S
C380 H372 0.950 . S
C380 C381 1.386 . S
C380 C382 1.391 . S
C381 C380 1.386 . S
C381 C385 1.393 1_554 S
C382 H374 0.950 . S
C382 C380 1.391 . S
C382 C383 1.400 1_554 S
C383 C382 1.400 1_556 S
C383 C384 1.398 . S
C383 C389 1.491 . S
C384 H375 0.950 . S
C384 C383 1.398 . S
C384 C385 1.391 . S
C385 H373 0.950 . S
C385 C381 1.393 1_556 S
C385 C384 1.391 . S
C386 H376 0.950 . S
C386 C387 1.376 1_655 S
C386 C388 1.391 . S
C387 C386 1.376 1_455 S
C387 C391 1.396 . S
C388 H377 0.950 . S
C388 C386 1.391 . S
C388 C389 1.400 . S
C389 C383 1.491 . S
C389 C388 1.400 . S
C389 C390 1.398 . S
C390 H378 0.950 1_656 S
C390 C389 1.398 . S
C390 C391 1.391 1_655 S
C391 H379 0.950 . S
C391 C387 1.396 . S
C391 C390 1.391 1_455 S
H392 C400 0.950 . S
H393 C405 0.950 . S
H394 C402 0.950 . S
H395 C404 0.950 . S
H396 C406 0.950 . S
H397 C408 0.950 . S
H398 C410 0.950 . S
H399 C411 0.950 . S
C400 H392 0.950 . S
C400 C401 1.386 . S
C400 C402 1.391 . S
C401 C400 1.386 . S
C401 C405 1.393 . S
C402 H394 0.950 . S
C402 C400 1.391 . S
C402 C403 1.400 . S
C403 C402 1.400 . S
C403 C404 1.398 . S
C403 C409 1.491 . S
C404 H395 0.950 . S
C404 C403 1.398 . S
C404 C405 1.391 . S
C405 H393 0.950 . S
C405 C401 1.393 . S
C405 C404 1.391 . S
C406 H396 0.950 . S
C406 C407 1.386 . S
C406 C408 1.391 . S
C407 C406 1.386 . S
C407 C411 1.393 . S
C408 H397 0.950 . S
C408 C406 1.391 . S
C408 C409 1.400 . S
C409 C403 1.491 . S
C409 C408 1.400 . S
C409 C410 1.398 . S
C410 H398 0.950 . S
C410 C409 1.398 . S
C410 C411 1.391 . S
C411 H399 0.950 . S
C411 C407 1.393 . S
C411 C410 1.391 . S
H412 C420 0.950 . S
H413 C425 0.950 . S
H414 C422 0.950 . S
H415 C424 0.950 . S
H416 C426 0.950 . S
H417 C428 0.950 . S
H418 C430 0.950 . S
H419 C431 0.950 1_565 S
C420 H412 0.950 . S
C420 C421 1.386 . S
C420 C422 1.391 . S
C421 C420 1.386 . S
C421 C425 1.393 . S
C422 H414 0.950 . S
C422 C420 1.391 . S
C422 C423 1.400 . S
C423 C422 1.400 . S
C423 C424 1.398 . S
C423 C429 1.491 . S
C424 H415 0.950 . S
C424 C423 1.398 . S
C424 C425 1.391 . S
C425 H413 0.950 . S
C425 C421 1.393 . S
C425 C424 1.391 . S
C426 H416 0.950 . S
C426 C427 1.386 . S
C426 C428 1.391 . S
C427 C426 1.386 . S
C427 C431 1.393 . S
C428 H417 0.950 . S
C428 C426 1.391 . S
C428 C429 1.400 . S
C429 C423 1.491 . S
C429 C428 1.400 . S
C429 C430 1.398 . S
C430 H418 0.950 . S
C430 C429 1.398 . S
C430 C431 1.391 . S
C431 H419 0.950 1_545 S
C431 C427 1.393 . S
C431 C430 1.391 . S
H432 C440 0.950 . S
H433 C445 0.950 . S
H434 C442 0.950 . S
H435 C444 0.950 . S
H436 C446 0.950 . S
H437 C448 0.950 . S
H438 C450 0.950 . S
H439 C451 0.950 . S
C440 H432 0.950 . S
C440 C441 1.386 . S
C440 C442 1.391 . S
C441 C440 1.386 . S
C441 C445 1.393 . S
C442 H434 0.950 . S
C442 C440 1.391 . S
C442 C443 1.400 . S
C443 C442 1.400 . S
C443 C444 1.398 . S
C443 C449 1.491 . S
C444 H435 0.950 . S
C444 C443 1.398 . S
C444 C445 1.391 . S
C445 H433 0.950 . S
C445 C441 1.393 . S
C445 C444 1.391 . S
C446 H436 0.950 . S
C446 C447 1.386 . S
C446 C448 1.391 . S
C447 C446 1.386 . S
C447 C451 1.393 . S
C448 H437 0.950 . S
C448 C446 1.391 . S
C448 C449 1.400 . S
C449 C443 1.491 . S
C449 C448 1.400 . S
C449 C450 1.398 . S
C450 H438 0.950 . S
C450 C449 1.398 . S
C450 C451 1.391 . S
C451 H439 0.950 . S
C451 C447 1.393 . S
C451 C450 1.391 . S
H452 C460 0.950 . S
H453 C465 0.950 . S
H454 C462 0.950 . S
H455 C464 0.950 . S
H456 C466 0.950 . S
H457 C468 0.950 . S
H458 C470 0.950 . S
H459 C471 0.950 . S
C460 H452 0.950 . S
C460 C461 1.386 . S
C460 C462 1.391 . S
C461 C460 1.386 . S
C461 C465 1.393 . S
C462 H454 0.950 . S
C462 C460 1.391 . S
C462 C463 1.400 . S
C463 C462 1.400 . S
C463 C464 1.398 . S
C463 C469 1.491 . S
C464 H455 0.950 . S
C464 C463 1.398 . S
C464 C465 1.391 . S
C465 H453 0.950 . S
C465 C461 1.393 . S
C465 C464 1.391 . S
C466 H456 0.950 . S
C466 C467 1.386 . S
C466 C468 1.391 . S
C467 C466 1.386 . S
C467 C471 1.393 . S
C468 H457 0.950 . S
C468 C466 1.391 . S
C468 C469 1.400 . S
C469 C463 1.491 . S
C469 C468 1.400 . S
C469 C470 1.398 . S
C470 H458 0.950 . S
C470 C469 1.398 . S
C470 C471 1.391 . S
C471 H459 0.950 . S
C471 C467 1.393 . S
C471 C470 1.391 . S
H472 C480 0.950 . S
H473 C485 0.950 1_554 S
H474 C482 0.950 . S
H475 C484 0.950 1_554 S
H476 C486 0.950 . S
H477 C488 0.950 . S
H478 C490 0.950 1_455 S
H479 C491 0.950 . S
C480 H472 0.950 . S
C480 C481 1.386 . S
C480 C482 1.391 . S
C481 C480 1.386 . S
C481 C485 1.393 . S
C482 H474 0.950 . S
C482 C480 1.391 . S
C482 C483 1.400 . S
C483 C482 1.400 . S
C483 C484 1.398 . S
C483 C489 1.491 . S
C484 H475 0.950 1_556 S
C484 C483 1.398 . S
C484 C485 1.391 . S
C485 H473 0.950 1_556 S
C485 C481 1.393 . S
C485 C484 1.391 . S
C486 H476 0.950 . S
C486 C487 1.386 1_655 S
C486 C488 1.391 . S
C487 C486 1.386 1_455 S
C487 C491 1.393 . S
C488 H477 0.950 . S
C488 C486 1.391 . S
C488 C489 1.400 . S
C489 C483 1.491 . S
C489 C488 1.400 . S
C489 C490 1.398 . S
C490 H478 0.950 1_655 S
C490 C489 1.398 . S
C490 C491 1.391 1_655 S
C491 H479 0.950 . S
C491 C487 1.393 . S
C491 C490 1.391 1_455 S
H492 C500 0.950 . S
H493 C505 0.950 . S
H494 C502 0.950 . S
H495 C504 0.950 . S
H496 C506 0.950 . S
H497 C508 0.950 1_565 S
H498 C510 0.950 . S
H499 C511 0.950 . S
C500 H492 0.950 . S
C500 C501 1.386 1_545 S
C500 C502 1.391 . S
C501 C500 1.386 1_565 S
C501 C505 1.393 . S
C502 H494 0.950 . S
C502 C500 1.391 . S
C502 C503 1.400 . S
C503 C502 1.400 . S
C503 C504 1.398 1_545 S
C503 C509 1.491 . S
C504 H495 0.950 . S
C504 C503 1.398 1_565 S
C504 C505 1.391 . S
C505 H493 0.950 . S
C505 C501 1.393 . S
C505 C504 1.391 . S
C506 H496 0.950 . S
C506 C507 1.386 . S
C506 C508 1.391 . S
C507 C506 1.386 . S
C507 C511 1.393 . S
C508 H497 0.950 1_545 S
C508 C506 1.391 . S
C508 C509 1.400 . S
C509 C503 1.491 . S
C509 C508 1.400 . S
C509 C510 1.398 . S
C510 H498 0.950 . S
C510 C509 1.398 . S
C510 C511 1.391 . S
C511 H499 0.950 . S
C511 C507 1.393 . S
C511 C510 1.391 . S
H512 C520 0.950 . S
H513 C525 0.950 . S
H514 C522 0.950 . S
H515 C524 0.950 . S
H516 C526 0.950 . S
H517 C528 0.950 . S
H518 C530 0.950 . S
H519 C531 0.950 . S
C520 H512 0.950 . S
C520 C521 1.386 . S
C520 C522 1.391 . S
C521 C520 1.386 . S
C521 C525 1.393 . S
C522 H514 0.950 . S
C522 C520 1.391 . S
C522 C523 1.400 . S
C523 C522 1.400 . S
C523 C524 1.398 . S
C523 C529 1.491 . S
C524 H515 0.950 . S
C524 C523 1.398 . S
C524 C525 1.391 . S
C525 H513 0.950 . S
C525 C521 1.393 . S
C525 C524 1.391 . S
C526 H516 0.950 . S
C526 C527 1.386 . S
C526 C528 1.391 . S
C527 C526 1.386 . S
C527 C531 1.393 . S
C528 H517 0.950 . S
C528 C526 1.391 . S
C528 C529 1.400 . S
C529 C523 1.491 . S
C529 C528 1.400 . S
C529 C530 1.398 . S
C530 H518 0.950 . S
C530 C529 1.398 . S
C530 C531 1.391 . S
C531 H519 0.950 . S
C531 C527 1.393 . S
C531 C530 1.391 . S
H532 C540 0.950 . S
H533 C545 0.950 1_554 S
H534 C542 0.950 . S
H535 C544 0.950 1_554 S
H536 C546 0.950 . S
H537 C548 0.950 . S
H538 C550 0.950 . S
H539 C551 0.950 . S
C540 H532 0.950 . S
C540 C541 1.386 . S
C540 C542 1.391 . S
C541 C540 1.386 . S
C541 C545 1.393 . S
C542 H534 0.950 . S
C542 C540 1.391 . S
C542 C543 1.400 . S
C543 C542 1.400 . S
C543 C544 1.398 . S
C543 C549 1.491 . S
C544 H535 0.950 1_556 S
C544 C543 1.398 . S
C544 C545 1.391 . S
C545 H533 0.950 1_556 S
C545 C541 1.393 . S
C545 C544 1.391 . S
C546 H536 0.950 . S
C546 C547 1.386 . S
C546 C548 1.391 . S
C547 C546 1.386 . S
C547 C551 1.393 . S
C548 H537 0.950 . S
C548 C546 1.391 . S
C548 C549 1.400 . S
C549 C543 1.491 . S
C549 C548 1.400 . S
C549 C550 1.398 . S
C550 H538 0.950 . S
C550 C549 1.398 . S
C550 C551 1.391 . S
C551 H539 0.950 . S
C551 C547 1.393 . S
C551 C550 1.391 . S
H552 C560 0.950 . S
H553 C565 0.950 . S
H554 C562 0.950 . S
H555 C564 0.950 . S
H556 C566 0.950 . S
H557 C568 0.950 . S
H558 C570 0.950 . S
H559 C571 0.950 . S
C560 H552 0.950 . S
C560 C561 1.386 . S
C560 C562 1.391 . S
C561 C560 1.386 . S
C561 C565 1.393 . S
C562 H554 0.950 . S
C562 C560 1.391 . S
C562 C563 1.400 . S
C563 C562 1.400 . S
C563 C564 1.398 . S
C563 C569 1.491 . S
C564 H555 0.950 . S
C564 C563 1.398 . S
C564 C565 1.391 . S
C565 H553 0.950 . S
C565 C561 1.393 . S
C565 C564 1.391 . S
C566 H556 0.950 . S
C566 C567 1.386 . S
C566 C568 1.391 . S
C567 C566 1.386 . S
C567 C571 1.393 . S
C568 H557 0.950 . S
C568 C566 1.391 . S
C568 C569 1.400 . S
C569 C563 1.491 . S
C569 C568 1.400 . S
C569 C570 1.398 . S
C570 H558 0.950 . S
C570 C569 1.398 . S
C570 C571 1.391 . S
C571 H559 0.950 . S
C571 C567 1.393 . S
C571 C570 1.391 . S
H572 C580 0.950 . S
H573 C585 0.950 . S
H574 C582 0.950 . S
H575 C584 0.950 . S
H576 C586 0.950 . S
H577 C588 0.950 . S
H578 C590 0.950 . S
H579 C591 0.950 . S
C580 H572 0.950 . S
C580 C581 1.386 . S
C580 C582 1.391 . S
C581 C580 1.386 . S
C581 C585 1.393 . S
C582 H574 0.950 . S
C582 C580 1.391 . S
C582 C583 1.400 . S
C583 C582 1.400 . S
C583 C584 1.398 . S
C583 C589 1.491 . S
C584 H575 0.950 . S
C584 C583 1.398 . S
C584 C585 1.391 . S
C585 H573 0.950 . S
C585 C581 1.393 . S
C585 C584 1.391 . S
C586 H576 0.950 . S
C586 C587 1.386 . S
C586 C588 1.391 . S
C587 C586 1.386 . S
C587 C591 1.393 . S
C588 H577 0.950 . S
C588 C586 1.391 . S
C588 C589 1.400 . S
C589 C583 1.491 . S
C589 C588 1.400 . S
C589 C590 1.398 . S
C590 H578 0.950 . S
C590 C589 1.398 . S
C590 C591 1.391 . S
C591 H579 0.950 . S
C591 C587 1.393 . S
C591 C590 1.391 . S
H592 C600 0.950 . S
H593 C605 0.950 . S
H594 C602 0.950 1_556 S
H595 C604 0.950 . S
H596 C606 0.950 . S
H597 C608 0.950 . S
H598 C610 0.950 . S
H599 C611 0.950 . S
C600 H592 0.950 . S
C600 C601 1.386 . S
C600 C602 1.391 . S
C601 C600 1.386 . S
C601 C605 1.393 . S
C602 H594 0.950 1_554 S
C602 C600 1.391 . S
C602 C603 1.400 . S
C603 C602 1.400 . S
C603 C604 1.398 . S
C603 C609 1.491 . S
C604 H595 0.950 . S
C604 C603 1.398 . S
C604 C605 1.391 . S
C605 H593 0.950 . S
C605 C601 1.393 . S
C605 C604 1.391 . S
C606 H596 0.950 . S
C606 C607 1.386 1_554 S
C606 C608 1.391 . S
C607 C606 1.386 1_556 S
C607 C611 1.393 . S
C608 H597 0.950 . S
C608 C606 1.391 . S
C608 C609 1.400 . S
C609 C603 1.491 . S
C609 C608 1.400 . S
C609 C610 1.398 1_554 S
C610 H598 0.950 . S
C610 C609 1.398 1_556 S
C610 C611 1.391 . S
C611 H599 0.950 . S
C611 C607 1.393 . S
C611 C610 1.391 . S
H612 C620 0.950 . S
H613 C625 0.950 . S
H614 C622 0.950 . S
H615 C624 0.950 . S
H616 C626 0.950 . S
H617 C628 0.950 . S
H618 C630 0.950 . S
H619 C631 0.950 . S
C620 H612 0.950 . S
C620 C621 1.386 . S
C620 C622 1.391 . S
C621 C620 1.386 . S
C621 C625 1.393 . S
C622 H614 0.950 . S
C622 C620 1.391 . S
C622 C623 1.400 . S
C623 C622 1.400 . S
C623 C624 1.398 . S
C623 C629 1.491 . S
C624 H615 0.950 . S
C624 C623 1.398 . S
C624 C625 1.391 . S
C625 H613 0.950 . S
C625 C621 1.393 . S
C625 C624 1.391 . S
C626 H616 0.950 . S
C626 C627 1.386 . S
C626 C628 1.391 . S
C627 C626 1.386 . S
C627 C631 1.393 . S
C628 H617 0.950 . S
C628 C626 1.391 . S
C628 C629 1.400 . S
C629 C623 1.491 . S
C629 C628 1.400 . S
C629 C630 1.398 . S
C630 H618 0.950 . S
C630 C629 1.398 . S
C630 C631 1.391 . S
C631 H619 0.950 . S
C631 C627 1.393 . S
C631 C630 1.391 . S
H632 C640 0.950 . S
H633 C645 0.950 . S
H634 C642 0.950 . S
H635 C644 0.950 . S
H636 C646 0.950 . S
H637 C648 0.950 . S
H638 C650 0.950 . S
H639 C651 0.950 . S
C640 H632 0.950 . S
C640 C641 1.386 . S
C640 C642 1.391 . S
C641 C640 1.386 . S
C641 C645 1.393 . S
C642 H634 0.950 . S
C642 C640 1.391 . S
C642 C643 1.400 . S
C643 C642 1.400 . S
C643 C644 1.398 . S
C643 C649 1.491 . S
C644 H635 0.950 . S
C644 C643 1.398 . S
C644 C645 1.391 . S
C645 H633 0.950 . S
C645 C641 1.393 . S
C645 C644 1.391 . S
C646 H636 0.950 . S
C646 C647 1.386 . S
C646 C648 1.391 . S
C647 C646 1.386 . S
C647 C651 1.393 . S
C648 H637 0.950 . S
C648 C646 1.391 . S
C648 C649 1.400 . S
C649 C643 1.491 . S
C649 C648 1.400 . S
C649 C650 1.398 . S
C650 H638 0.950 . S
C650 C649 1.398 . S
C650 C651 1.391 . S
C651 H639 0.950 . S
C651 C647 1.393 . S
C651 C650 1.391 . S
H652 C660 0.950 . S
H653 C665 0.950 . S
H654 C662 0.950 . S
H655 C664 0.950 . S
H656 C666 0.950 . S
H657 C668 0.950 . S
H658 C670 0.926 1_545 S
H659 C671 0.950 1_545 S
C660 H652 0.950 . S
C660 C661 1.386 1_545 S
C660 C662 1.391 . S
C661 C660 1.386 1_565 S
C661 C665 1.393 . S
C662 H654 0.950 . S
C662 C660 1.391 . S
C662 C663 1.400 1_545 S
C663 C662 1.400 1_565 S
C663 C664 1.398 . S
C663 C669 1.491 . S
C664 H655 0.950 . S
C664 C663 1.398 . S
C664 C665 1.391 . S
C665 H653 0.950 . S
C665 C661 1.393 . S
C665 C664 1.391 . S
C666 H656 0.950 . S
C666 C667 1.386 . S
C666 C668 1.391 . S
C667 C666 1.386 . S
C667 C671 1.393 . S
C668 H657 0.950 . S
C668 C666 1.391 . S
C668 C669 1.400 . S
C669 C663 1.491 . S
C669 C668 1.400 . S
C669 C670 1.430 . S
C670 H658 0.926 1_565 S
C670 C669 1.430 . S
C670 C671 1.383 . S
C671 H659 0.950 1_565 S
C671 C667 1.393 . S
C671 C670 1.383 . S
H672 C680 0.950 . S
H673 C685 0.950 . S
H674 C682 0.950 . S
H675 C684 0.950 . S
H676 C686 0.950 . S
H677 C688 0.950 . S
H678 C690 0.950 . S
H679 C691 0.950 . S
C680 H672 0.950 . S
C680 C681 1.386 . S
C680 C682 1.391 . S
C681 C680 1.386 . S
C681 C685 1.393 . S
C682 H674 0.950 . S
C682 C680 1.391 . S
C682 C683 1.400 . S
C683 C682 1.400 . S
C683 C684 1.398 . S
C683 C689 1.491 . S
C684 H675 0.950 . S
C684 C683 1.398 . S
C684 C685 1.391 . S
C685 H673 0.950 . S
C685 C681 1.393 . S
C685 C684 1.391 . S
C686 H676 0.950 . S
C686 C687 1.386 . S
C686 C688 1.391 . S
C687 C686 1.386 . S
C687 C691 1.393 . S
C688 H677 0.950 . S
C688 C686 1.391 . S
C688 C689 1.400 . S
C689 C683 1.491 . S
C689 C688 1.400 . S
C689 C690 1.398 . S
C690 H678 0.950 . S
C690 C689 1.398 . S
C690 C691 1.391 . S
C691 H679 0.950 . S
C691 C687 1.393 . S
C691 C690 1.391 . S
H692 C700 0.950 . S
H693 C705 0.950 . S
H694 C702 0.950 . S
H695 C704 0.950 . S
H696 C706 0.950 . S
H697 C708 0.950 . S
H698 C710 0.950 . S
H699 C711 0.950 . S
C700 H692 0.950 . S
C700 C701 1.386 . S
C700 C702 1.391 . S
C701 C700 1.386 . S
C701 C705 1.393 . S
C702 H694 0.950 . S
C702 C700 1.391 . S
C702 C703 1.400 . S
C703 C702 1.400 . S
C703 C704 1.398 . S
C703 C709 1.491 . S
C704 H695 0.950 . S
C704 C703 1.398 . S
C704 C705 1.391 . S
C705 H693 0.950 . S
C705 C701 1.393 . S
C705 C704 1.391 . S
C706 H696 0.950 . S
C706 C707 1.386 . S
C706 C708 1.391 . S
C707 C706 1.386 . S
C707 C711 1.393 . S
C708 H697 0.950 . S
C708 C706 1.391 . S
C708 C709 1.400 . S
C709 C703 1.491 . S
C709 C708 1.400 . S
C709 C710 1.398 . S
C710 H698 0.950 . S
C710 C709 1.398 . S
C710 C711 1.391 . S
C711 H699 0.950 . S
C711 C707 1.393 . S
C711 C710 1.391 . S
C241 C61 1.253 . S
C247 C81 1.221 . S
C267 C121 1.442 . S
C261 C70 1.486 . S
C287 C170 1.311 . S
C281 C43 1.328 . S
C307 C201 1.732 . S
C301 C52 1.767 . S
C327 C90 1.219 . S
C321 C25 1.255 . S
C341 C34 1.497 . S
C347 C130 1.463 . S
C361 C7 1.309 1_556 S
C367 C161 1.299 . S
C381 C16 1.789 . S
C387 C210 1.738 . S
C407 C91 0.773 . S
C401 C50 0.733 . S
C427 C131 0.863 . S
C421 C59 0.817 . S
C447 C167 0.637 . S
C441 C67 0.648 . S
C461 C41 0.943 . S
C467 C211 1.016 . S
C481 C14 0.800 . S
C487 C82 0.773 . S
C507 C122 0.857 . S
C501 C23 0.860 . S
C527 C158 0.669 . S
C521 C31 0.644 . S
C541 C5 0.940 . S
C547 C202 1.016 . S
C561 C49 1.736 . S
C567 C87 1.763 . S
C581 C58 1.616 . S
C587 C127 1.605 . S
C607 C171 2.056 . S
C601 C68 1.894 . S
C627 C207 1.477 . S
C621 C40 1.464 . S
C641 C13 1.723 . S
C647 C78 1.770 . S
C667 C118 1.598 . S
C661 C22 1.614 . S
C687 C162 2.058 . S
C681 C32 1.872 . S
C701 C4 1.463 . S
C707 C198 1.466 . S
