# Generated by pormake.
# Topology eea, (3,6)-cn, num edge types: 1
# Building blocks:
#     Node 0, Type 0, BuildingBlock: BETDAH_clean_linker_0, # of connection points: 3
#     Node 1, Type 0, BuildingBlock: BETDAH_clean_linker_0, # of connection points: 3
#     Node 2, Type 0, BuildingBlock: BETDAH_clean_linker_0, # of connection points: 3
#     Node 3, Type 0, BuildingBlock: BETDAH_clean_linker_0, # of connection points: 3
#     Node 4, Type 0, BuildingBlock: BETDAH_clean_linker_0, # of connection points: 3
#     Node 5, Type 0, BuildingBlock: BETDAH_clean_linker_0, # of connection points: 3
#     Node 6, Type 0, BuildingBlock: BETDAH_clean_linker_0, # of connection points: 3
#     Node 7, Type 0, BuildingBlock: BETDAH_clean_linker_0, # of connection points: 3
#     Node 8, Type 0, BuildingBlock: BETDAH_clean_linker_0, # of connection points: 3
#     Node 9, Type 0, BuildingBlock: BETDAH_clean_linker_0, # of connection points: 3
#     Node 10, Type 0, BuildingBlock: BETDAH_clean_linker_0, # of connection points: 3
#     Node 11, Type 0, BuildingBlock: BETDAH_clean_linker_0, # of connection points: 3
#     Node 12, Type 0, BuildingBlock: BETDAH_clean_linker_0, # of connection points: 3
#     Node 13, Type 0, BuildingBlock: BETDAH_clean_linker_0, # of connection points: 3
#     Node 14, Type 0, BuildingBlock: BETDAH_clean_linker_0, # of connection points: 3
#     Node 15, Type 0, BuildingBlock: BETDAH_clean_linker_0, # of connection points: 3
#     Node 16, Type 0, BuildingBlock: BETDAH_clean_linker_0, # of connection points: 3
#     Node 17, Type 0, BuildingBlock: BETDAH_clean_linker_0, # of connection points: 3
#     Node 18, Type 1, BuildingBlock: CUWYAW_clean_sbu_0, # of connection points: 6
#     Node 19, Type 1, BuildingBlock: CUWYAW_clean_sbu_0, # of connection points: 6
#     Node 20, Type 1, BuildingBlock: CUWYAW_clean_sbu_0, # of connection points: 6
#     Node 21, Type 1, BuildingBlock: CUWYAW_clean_sbu_0, # of connection points: 6
#     Node 22, Type 1, BuildingBlock: CUWYAW_clean_sbu_0, # of connection points: 6
#     Node 23, Type 1, BuildingBlock: CUWYAW_clean_sbu_0, # of connection points: 6
#     Node 24, Type 1, BuildingBlock: CUWYAW_clean_sbu_0, # of connection points: 6
#     Node 25, Type 1, BuildingBlock: CUWYAW_clean_sbu_0, # of connection points: 6
#     Node 26, Type 1, BuildingBlock: CUWYAW_clean_sbu_0, # of connection points: 6
#     Edge 27, Type (0, 1), BuildingBlock: TEMPAE_clean_linker_10, # of connection points: 2
#     Edge 28, Type (0, 1), BuildingBlock: TEMPAE_clean_linker_10, # of connection points: 2
#     Edge 29, Type (0, 1), BuildingBlock: TEMPAE_clean_linker_10, # of connection points: 2
#     Edge 30, Type (0, 1), BuildingBlock: TEMPAE_clean_linker_10, # of connection points: 2
#     Edge 31, Type (0, 1), BuildingBlock: TEMPAE_clean_linker_10, # of connection points: 2
#     Edge 32, Type (0, 1), BuildingBlock: TEMPAE_clean_linker_10, # of connection points: 2
#     Edge 33, Type (0, 1), BuildingBlock: TEMPAE_clean_linker_10, # of connection points: 2
#     Edge 34, Type (0, 1), BuildingBlock: TEMPAE_clean_linker_10, # of connection points: 2
#     Edge 35, Type (0, 1), BuildingBlock: TEMPAE_clean_linker_10, # of connection points: 2
#     Edge 36, Type (0, 1), BuildingBlock: TEMPAE_clean_linker_10, # of connection points: 2
#     Edge 37, Type (0, 1), BuildingBlock: TEMPAE_clean_linker_10, # of connection points: 2
#     Edge 38, Type (0, 1), BuildingBlock: TEMPAE_clean_linker_10, # of connection points: 2
#     Edge 39, Type (0, 1), BuildingBlock: TEMPAE_clean_linker_10, # of connection points: 2
#     Edge 40, Type (0, 1), BuildingBlock: TEMPAE_clean_linker_10, # of connection points: 2
#     Edge 41, Type (0, 1), BuildingBlock: TEMPAE_clean_linker_10, # of connection points: 2
#     Edge 42, Type (0, 1), BuildingBlock: TEMPAE_clean_linker_10, # of connection points: 2
#     Edge 43, Type (0, 1), BuildingBlock: TEMPAE_clean_linker_10, # of connection points: 2
#     Edge 44, Type (0, 1), BuildingBlock: TEMPAE_clean_linker_10, # of connection points: 2
#     Edge 45, Type (0, 1), BuildingBlock: TEMPAE_clean_linker_10, # of connection points: 2
#     Edge 46, Type (0, 1), BuildingBlock: TEMPAE_clean_linker_10, # of connection points: 2
#     Edge 47, Type (0, 1), BuildingBlock: TEMPAE_clean_linker_10, # of connection points: 2
#     Edge 48, Type (0, 1), BuildingBlock: TEMPAE_clean_linker_10, # of connection points: 2
#     Edge 49, Type (0, 1), BuildingBlock: TEMPAE_clean_linker_10, # of connection points: 2
#     Edge 50, Type (0, 1), BuildingBlock: TEMPAE_clean_linker_10, # of connection points: 2
#     Edge 51, Type (0, 1), BuildingBlock: TEMPAE_clean_linker_10, # of connection points: 2
#     Edge 52, Type (0, 1), BuildingBlock: TEMPAE_clean_linker_10, # of connection points: 2
#     Edge 53, Type (0, 1), BuildingBlock: TEMPAE_clean_linker_10, # of connection points: 2
#     Edge 54, Type (0, 1), BuildingBlock: TEMPAE_clean_linker_10, # of connection points: 2
#     Edge 55, Type (0, 1), BuildingBlock: TEMPAE_clean_linker_10, # of connection points: 2
#     Edge 56, Type (0, 1), BuildingBlock: TEMPAE_clean_linker_10, # of connection points: 2
#     Edge 57, Type (0, 1), BuildingBlock: TEMPAE_clean_linker_10, # of connection points: 2
#     Edge 58, Type (0, 1), BuildingBlock: TEMPAE_clean_linker_10, # of connection points: 2
#     Edge 59, Type (0, 1), BuildingBlock: TEMPAE_clean_linker_10, # of connection points: 2
#     Edge 60, Type (0, 1), BuildingBlock: TEMPAE_clean_linker_10, # of connection points: 2
#     Edge 61, Type (0, 1), BuildingBlock: TEMPAE_clean_linker_10, # of connection points: 2
#     Edge 62, Type (0, 1), BuildingBlock: TEMPAE_clean_linker_10, # of connection points: 2
#     Edge 63, Type (0, 1), BuildingBlock: TEMPAE_clean_linker_10, # of connection points: 2
#     Edge 64, Type (0, 1), BuildingBlock: TEMPAE_clean_linker_10, # of connection points: 2
#     Edge 65, Type (0, 1), BuildingBlock: TEMPAE_clean_linker_10, # of connection points: 2
#     Edge 66, Type (0, 1), BuildingBlock: TEMPAE_clean_linker_10, # of connection points: 2
#     Edge 67, Type (0, 1), BuildingBlock: TEMPAE_clean_linker_10, # of connection points: 2
#     Edge 68, Type (0, 1), BuildingBlock: TEMPAE_clean_linker_10, # of connection points: 2
#     Edge 69, Type (0, 1), BuildingBlock: TEMPAE_clean_linker_10, # of connection points: 2
#     Edge 70, Type (0, 1), BuildingBlock: TEMPAE_clean_linker_10, # of connection points: 2
#     Edge 71, Type (0, 1), BuildingBlock: TEMPAE_clean_linker_10, # of connection points: 2
#     Edge 72, Type (0, 1), BuildingBlock: TEMPAE_clean_linker_10, # of connection points: 2
#     Edge 73, Type (0, 1), BuildingBlock: TEMPAE_clean_linker_10, # of connection points: 2
#     Edge 74, Type (0, 1), BuildingBlock: TEMPAE_clean_linker_10, # of connection points: 2
#     Edge 75, Type (0, 1), BuildingBlock: TEMPAE_clean_linker_10, # of connection points: 2
#     Edge 76, Type (0, 1), BuildingBlock: TEMPAE_clean_linker_10, # of connection points: 2
#     Edge 77, Type (0, 1), BuildingBlock: TEMPAE_clean_linker_10, # of connection points: 2
#     Edge 78, Type (0, 1), BuildingBlock: TEMPAE_clean_linker_10, # of connection points: 2
#     Edge 79, Type (0, 1), BuildingBlock: TEMPAE_clean_linker_10, # of connection points: 2
#     Edge 80, Type (0, 1), BuildingBlock: TEMPAE_clean_linker_10, # of connection points: 2
# Relax obj value: 0.056
# Max RMSD: 0.205
# Mean RMSD: 0.144
data_MOF--net-eea--node1-CUWYAW_clean_sbu_0--node2-BETDAH_clean_linker_0--edge1-TEMPAE_clean_linker_10
_symmetry_space_group_name_H-M    P1
_symmetry_Int_Tables_number       1
_symmetry_cell_setting            triclinic
loop_
_symmetry_equiv_pos_as_xyz
'x, y, z'
_cell_length_a     55.433125
_cell_length_b     55.119975
_cell_length_c     70.425465
_cell_angle_alpha  93.379375
_cell_angle_beta   93.425889
_cell_angle_gamma 119.8242
loop_
_atom_site_label
_atom_site_type_symbol
_atom_site_fract_x
_atom_site_fract_y
_atom_site_fract_z
_atom_type_partial_charge
H0 H 0.21693 0.06706 0.43126 0.0
H1 H 0.24465 0.15378 0.42389 0.0
H2 H 0.2307 0.09627 0.37537 0.0
C3 C 0.22247 0.08363 0.42199 0.0
C4 C 0.22155 0.07758 0.40215 0.0
C5 C 0.23149 0.11117 0.43011 0.0
C6 C 0.23791 0.13254 0.41796 0.0
C7 C 0.2371 0.12681 0.39818 0.0
C8 C 0.22978 0.09976 0.39054 0.0
N9 N 0.24572 0.14826 0.3857 0.0
C10 C 0.23835 0.16897 0.38644 0.0
H11 H 0.94766 0.18084 0.44163 0.0
H12 H 0.8733 0.10092 0.42379 0.0
H13 H 0.93639 0.13905 0.38554 0.0
C14 C 0.93527 0.16315 0.43094 0.0
C15 C 0.94546 0.16255 0.4132 0.0
C16 C 0.90919 0.14101 0.43494 0.0
C17 C 0.89322 0.11817 0.42084 0.0
C18 C 0.90324 0.11753 0.40305 0.0
C19 C 0.92913 0.13965 0.39942 0.0
N20 N 0.88819 0.09523 0.38826 0.0
C21 C 0.86262 0.071 0.38912 0.0
H22 H 0.84098 0.77442 0.44982 0.0
H23 H 0.91115 0.76419 0.43812 0.0
H24 H 0.86758 0.78167 0.3934 0.0
C25 C 0.85539 0.77448 0.44006 0.0
C26 C 0.85221 0.7795 0.42104 0.0
C27 C 0.87658 0.76894 0.44646 0.0
C28 C 0.89495 0.76873 0.43349 0.0
C29 C 0.89166 0.77348 0.41433 0.0
C30 C 0.87028 0.77863 0.40828 0.0
N31 N 0.90804 0.77141 0.4003 0.0
C32 C 0.9357 0.77796 0.40353 0.0
H33 H 0.06081 0.24368 0.57386 0.0
H34 H 0.13795 0.24449 0.58853 0.0
H35 H 0.07705 0.22158 0.62882 0.0
C36 C 0.07443 0.24075 0.58399 0.0
C37 C 0.06549 0.23158 0.60181 0.0
C38 C 0.10055 0.24536 0.57898 0.0
C39 C 0.11766 0.24061 0.59207 0.0
C40 C 0.10906 0.23207 0.61006 0.0
C41 C 0.08326 0.22786 0.6148 0.0
N42 N 0.12592 0.22825 0.62413 0.0
C43 C 0.14823 0.22436 0.62075 0.0
H44 H 0.76753 0.82805 0.59019 0.0
H45 H 0.76241 0.90245 0.60439 0.0
H46 H 0.78367 0.86427 0.64863 0.0
C47 C 0.76956 0.84429 0.6007 0.0
C48 C 0.77627 0.84339 0.62014 0.0
C49 C 0.76436 0.86545 0.59486 0.0
C50 C 0.76626 0.88604 0.60871 0.0
C51 C 0.77299 0.88526 0.62812 0.0
C52 C 0.77796 0.86411 0.63362 0.0
N53 N 0.77447 0.90487 0.64277 0.0
C54 C 0.77578 0.93022 0.64009 0.0
H55 H 0.1567 0.94223 0.5797 0.0
H56 H 0.09979 0.85469 0.58471 0.0
H57 H 0.13976 0.91184 0.63516 0.0
C58 C 0.14572 0.92541 0.58855 0.0
C59 C 0.14992 0.93118 0.60863 0.0
C60 C 0.12834 0.8978 0.57972 0.0
C61 C 0.11338 0.87603 0.5912 0.0
C62 C 0.1172 0.88148 0.61118 0.0
C63 C 0.13597 0.90863 0.61971 0.0
N64 N 0.10476 0.85948 0.62309 0.0
C65 C 0.07615 0.8409 0.62209 0.0
H66 H 0.90243 0.40412 0.75994 0.0
H67 H 0.91655 0.48725 0.75297 0.0
H68 H 0.89513 0.42818 0.70381 0.0
C69 C 0.90266 0.41935 0.7508 0.0
C70 C 0.89734 0.41238 0.73088 0.0
C71 C 0.90948 0.44624 0.759 0.0
C72 C 0.9111 0.46641 0.74693 0.0
C73 C 0.90633 0.45976 0.727 0.0
C74 C 0.89939 0.43295 0.7192 0.0
N75 N 0.90955 0.4797 0.71411 0.0
C76 C 0.90628 0.50281 0.71799 0.0
H77 H 0.61205 0.51415 0.7735 0.0
H78 H 0.53715 0.43435 0.75651 0.0
H79 H 0.59968 0.47117 0.71769 0.0
C80 C 0.59941 0.49629 0.76298 0.0
C81 C 0.60925 0.49518 0.74519 0.0
C82 C 0.57336 0.47442 0.76725 0.0
C83 C 0.55707 0.45139 0.75336 0.0
C84 C 0.56674 0.45029 0.7355 0.0
C85 C 0.59262 0.47213 0.73161 0.0
N86 N 0.55131 0.42782 0.72089 0.0
C87 C 0.52594 0.4036 0.72222 0.0
H88 H 0.5011 0.09673 0.7793 0.0
H89 H 0.57109 0.08628 0.76768 0.0
H90 H 0.53094 0.10891 0.72379 0.0
C91 C 0.51566 0.09707 0.76956 0.0
C92 C 0.5139 0.10426 0.75097 0.0
C93 C 0.53609 0.09041 0.77575 0.0
C94 C 0.55558 0.09184 0.76321 0.0
C95 C 0.55354 0.0985 0.7444 0.0
C96 C 0.53269 0.10445 0.73844 0.0
N97 N 0.57025 0.09695 0.73045 0.0
C98 C 0.59819 0.10454 0.73374 0.0
H99 H 0.72972 0.57742 0.90776 0.0
H100 H 0.80409 0.57282 0.92187 0.0
H101 H 0.74265 0.5508 0.96174 0.0
C102 C 0.74249 0.57311 0.91769 0.0
C103 C 0.73284 0.5634 0.93526 0.0
C104 C 0.76818 0.57653 0.91265 0.0
C105 C 0.78415 0.56994 0.92545 0.0
C106 C 0.77477 0.56061 0.94316 0.0
C107 C 0.7494 0.55761 0.94791 0.0
N108 N 0.79029 0.55458 0.95693 0.0
C109 C 0.81365 0.55227 0.95399 0.0
H110 H 0.44218 0.16592 0.9237 0.0
H111 H 0.45305 0.24885 0.93463 0.0
H112 H 0.47765 0.21297 0.97885 0.0
C113 C 0.44877 0.18471 0.9333 0.0
C114 C 0.4597 0.18638 0.95218 0.0
C115 C 0.44637 0.20721 0.92676 0.0
C116 C 0.45504 0.23155 0.93941 0.0
C117 C 0.46616 0.2334 0.95826 0.0
C118 C 0.46855 0.21098 0.96438 0.0
N119 N 0.4756 0.2574 0.97161 0.0
C120 C 0.47206 0.28032 0.96921 0.0
H121 H 0.83904 0.27299 0.91623 0.0
H122 H 0.76816 0.19136 0.92164 0.0
H123 H 0.80957 0.25066 0.97119 0.0
C124 C 0.82401 0.25823 0.92489 0.0
C125 C 0.82667 0.26554 0.94468 0.0
C126 C 0.80298 0.23156 0.91632 0.0
C127 C 0.78427 0.21204 0.92791 0.0
C128 C 0.78705 0.21907 0.94776 0.0
C129 C 0.8081 0.24558 0.95591 0.0
N130 N 0.77043 0.19959 0.96032 0.0
C131 C 0.74262 0.1787 0.95615 0.0
H132 H 0.54958 0.7332 0.09752 0.0
H133 H 0.58183 0.82136 0.09256 0.0
H134 H 0.56704 0.76571 0.04275 0.0
C135 C 0.55628 0.75047 0.08876 0.0
C136 C 0.55581 0.74543 0.06885 0.0
C137 C 0.56637 0.77788 0.09761 0.0
C138 C 0.5743 0.80018 0.08609 0.0
C139 C 0.57407 0.79547 0.06629 0.0
C140 C 0.56566 0.76848 0.05793 0.0
N141 N 0.58447 0.81791 0.05461 0.0
C142 C 0.57637 0.83806 0.05486 0.0
H143 H 0.2806 0.85427 0.10909 0.0
H144 H 0.20814 0.77209 0.09317 0.0
H145 H 0.27114 0.80896 0.05478 0.0
C146 C 0.26867 0.83573 0.09898 0.0
C147 C 0.27921 0.83413 0.08157 0.0
C148 C 0.24297 0.8134 0.10342 0.0
C149 C 0.22767 0.78959 0.08991 0.0
C150 C 0.23795 0.78817 0.07236 0.0
C151 C 0.26354 0.8103 0.06842 0.0
N152 N 0.22357 0.76488 0.05821 0.0
C153 C 0.19745 0.74142 0.05903 0.0
H154 H 0.17103 0.43296 0.11124 0.0
H155 H 0.23741 0.41524 0.10276 0.0
H156 H 0.20197 0.43846 0.05626 0.0
C157 C 0.18537 0.4314 0.1021 0.0
C158 C 0.18475 0.43738 0.08307 0.0
C159 C 0.20429 0.42342 0.10942 0.0
C160 C 0.22325 0.42211 0.09751 0.0
C161 C 0.22226 0.42749 0.07828 0.0
C162 C 0.20303 0.435 0.07121 0.0
N163 N 0.23775 0.4221 0.06511 0.0
C164 C 0.26648 0.43316 0.06769 0.0
H165 H 0.39291 0.90764 0.23873 0.0
H166 H 0.46496 0.89858 0.25174 0.0
H167 H 0.4017 0.8736 0.29038 0.0
C168 C 0.40479 0.90166 0.24817 0.0
C169 C 0.39404 0.89006 0.26508 0.0
C170 C 0.43033 0.90466 0.24311 0.0
C171 C 0.44515 0.89604 0.25531 0.0
C172 C 0.43466 0.8848 0.27236 0.0
C173 C 0.40936 0.882 0.27707 0.0
N174 N 0.44878 0.87623 0.28541 0.0
C175 C 0.47307 0.8755 0.28282 0.0
H176 H 0.12108 0.50708 0.25704 0.0
H177 H 0.09775 0.5697 0.26946 0.0
H178 H 0.11504 0.53125 0.31518 0.0
C179 C 0.11715 0.51973 0.26734 0.0
C180 C 0.12048 0.51744 0.28707 0.0
C181 C 0.10811 0.5379 0.26077 0.0
C182 C 0.10407 0.55517 0.27423 0.0
C183 C 0.107 0.55287 0.29384 0.0
C184 C 0.11422 0.5335 0.30002 0.0
N185 N 0.10154 0.5687 0.30776 0.0
C186 C 0.10676 0.59589 0.30625 0.0
H187 H 0.49131 0.61333 0.24677 0.0
H188 H 0.43273 0.52579 0.25055 0.0
H189 H 0.4736 0.58122 0.30165 0.0
C190 C 0.47999 0.59625 0.25535 0.0
C191 C 0.4842 0.60139 0.27546 0.0
C192 C 0.4621 0.56896 0.24614 0.0
C193 C 0.44672 0.54689 0.25731 0.0
C194 C 0.4506 0.55169 0.27734 0.0
C195 C 0.46982 0.57852 0.28621 0.0
N196 N 0.43779 0.52936 0.28897 0.0
C197 C 0.40923 0.5103 0.28748 0.0
C198 C 0.54107 0.02983 0.07117 0.0
Eu199 Eu 0.52269 0.02277 0.03517 0.0
C200 C 0.52985 0.01592 0.08841 0.0
C201 C 0.53798 0.03197 0.10621 0.0
C202 C 0.52712 0.01933 0.1227 0.0
C203 C 0.50789 0.9903 0.12173 0.0
C204 C 0.49974 0.97427 0.10378 0.0
C205 C 0.51058 0.98696 0.08729 0.0
C206 C 0.50702 0.05514 0.01673 0.0
C207 C 0.45551 0.97616 0.02978 0.0
C208 C 0.4736 0.99135 0.95922 0.0
Eu209 Eu 0.49191 0.99795 0.99515 0.0
C210 C 0.48526 0.00444 0.94177 0.0
C211 C 0.51091 0.00815 0.93657 0.0
C212 C 0.52119 0.02009 0.91975 0.0
C213 C 0.50618 0.02878 0.90792 0.0
C214 C 0.48083 0.02558 0.9134 0.0
C215 C 0.47048 0.01348 0.93013 0.0
C216 C 0.50762 0.96551 0.01352 0.0
C217 C 0.55927 0.04448 1.00055 0.0
O218 O 0.54589 0.01544 0.05799 0.0
O219 O 0.5294 0.04333 0.06401 0.0
O220 O 0.53018 0.06529 0.02786 0.0
O221 O 0.49268 0.02883 0.01677 0.0
O222 O 0.47969 0.98779 0.04058 0.0
O223 O 0.45411 0.97978 0.01145 0.0
O224 O 0.47034 0.00714 0.97221 0.0
O225 O 0.4832 0.97617 0.96659 0.0
O226 O 0.48451 0.95544 1.00235 0.0
O227 O 0.52198 0.99184 0.01351 0.0
O228 O 0.53521 0.03231 0.98955 0.0
O229 O 0.56051 0.04133 0.01897 0.0
H230 H 0.55262 0.05438 0.10735 0.0
H231 H 0.5335 0.03244 0.13617 0.0
H232 H 0.4852 0.95185 0.10249 0.0
H233 H 0.50389 0.97414 0.07366 0.0
H234 H 0.52298 0.00174 0.94543 0.0
H235 H 0.54092 0.02258 0.91602 0.0
H236 H 0.46863 0.0318 0.9045 0.0
H237 H 0.45074 0.01096 0.9339 0.0
C238 C 0.00243 0.5252 0.0674 0.0
Eu239 Eu 0.99992 0.50806 0.03161 0.0
C240 C 0.01764 0.52731 0.08587 0.0
C241 C 0.02834 0.5094 0.08914 0.0
C242 C 0.04187 0.51121 0.10707 0.0
C243 C 0.04502 0.53105 0.12199 0.0
C244 C 0.0347 0.54927 0.11845 0.0
C245 C 0.02116 0.54739 0.10057 0.0
C246 C 0.96395 0.45652 0.01348 0.0
C247 C 0.04503 0.48677 0.02629 0.0
C248 C 0.01106 0.47887 0.95594 0.0
Eu249 Eu 0.01297 0.49653 0.99147 0.0
C250 C 0.99752 0.47692 0.93683 0.0
C251 C 0.99437 0.49904 0.93061 0.0
C252 C 0.98299 0.4971 0.9119 0.0
C253 C 0.97451 0.47298 0.89914 0.0
C254 C 0.9768 0.45053 0.90574 0.0
C255 C 0.98825 0.45254 0.92436 0.0
C256 C 0.04927 0.54783 0.00974 0.0
C257 C 0.96793 0.51809 0.99671 0.0
O258 O 0.0172 0.54183 0.05498 0.0
O259 O 0.98436 0.49985 0.05955 0.0
O260 O 0.95623 0.47065 0.02445 0.0
O261 O 0.99013 0.46949 0.0134 0.0
O262 O 0.03649 0.50072 0.0373 0.0
O263 O 0.03572 0.47904 0.008 0.0
O264 O 0.9949 0.46282 0.96808 0.0
O265 O 0.02982 0.50392 0.9639 0.0
O266 O 0.05672 0.53354 0.99868 0.0
O267 O 0.02307 0.5352 0.00975 0.0
O268 O 0.97717 0.505 0.98549 0.0
O269 O 0.97639 0.52483 0.01518 0.0
H270 H 0.026 0.49385 0.07791 0.0
H271 H 0.04985 0.4971 0.10926 0.0
H272 H 0.03643 0.56453 0.12967 0.0
H273 H 0.01307 0.56141 0.0983 0.0
H274 H 1.00114 0.51799 0.94008 0.0
H275 H 0.98159 0.51479 0.90727 0.0
H276 H 0.96989 0.4314 0.89646 0.0
H277 H 0.99022 0.43513 0.92896 0.0
C278 C 0.46746 0.48411 0.94813 0.0
Eu279 Eu 0.48698 0.50525 0.98347 0.0
C280 C 0.47951 0.48358 0.93011 0.0
C281 C 0.50579 0.50563 0.92668 0.0
C282 C 0.51691 0.50478 0.90948 0.0
C283 C 0.50201 0.4818 0.89542 0.0
C284 C 0.47582 0.45964 0.89904 0.0
C285 C 0.4647 0.46055 0.91621 0.0
C286 C 0.50054 0.55704 0.9988 0.0
C287 C 0.55544 0.53287 0.98763 0.0
C288 C 0.53991 0.54847 0.05778 0.0
Eu289 Eu 0.52045 0.52467 0.02298 0.0
C290 C 0.52816 0.54988 0.07581 0.0
C291 C 0.5042 0.52653 0.08111 0.0
C292 C 0.49396 0.5281 0.09857 0.0
C293 C 0.50741 0.5531 0.11105 0.0
C294 C 0.53088 0.57667 0.10534 0.0
C295 C 0.54113 0.57504 0.08793 0.0
C296 C 0.5076 0.47283 0.00815 0.0
C297 C 0.45176 0.49506 0.01893 0.0
O298 O 0.47079 0.46994 0.96129 0.0
O299 O 0.47144 0.50849 0.95515 0.0
O300 O 0.47641 0.53964 0.98946 0.0
O301 O 0.51628 0.5467 0.99914 0.0
O302 O 0.53105 0.51647 0.97741 0.0
O303 O 0.55712 0.5423 0.00563 0.0
O304 O 0.53557 0.5612 0.044 0.0
O305 O 0.53702 0.52417 0.05168 0.0
O306 O 0.53078 0.49 0.01869 0.0
O307 O 0.49159 0.48294 0.00713 0.0
O308 O 0.47601 0.51179 0.02922 0.0
O309 O 0.45035 0.48626 1.00081 0.0
H310 H 0.51772 0.52352 0.93729 0.0
H311 H 0.53728 0.522 0.90726 0.0
H312 H 0.46369 0.44177 0.88844 0.0
H313 H 0.44443 0.44329 0.91861 0.0
H314 H 0.4936 0.50695 0.07187 0.0
H315 H 0.47595 0.50951 0.1025 0.0
H316 H 0.5414 0.59643 0.11437 0.0
H317 H 0.55937 0.59342 0.08398 0.0
C318 C 0.20849 0.36382 0.40493 0.0
Eu319 Eu 0.18943 0.35685 0.36912 0.0
C320 C 0.19743 0.3502 0.42229 0.0
C321 C 0.20455 0.36675 0.43981 0.0
C322 C 0.19369 0.35444 0.45638 0.0
C323 C 0.17551 0.32523 0.45579 0.0
C324 C 0.1684 0.30867 0.43813 0.0
C325 C 0.17919 0.32105 0.42153 0.0
C326 C 0.17388 0.39004 0.35175 0.0
C327 C 0.12221 0.31018 0.36428 0.0
C328 C 0.13841 0.32966 0.29414 0.0
Eu329 Eu 0.15769 0.33367 0.32949 0.0
C330 C 0.15028 0.34246 0.27668 0.0
C331 C 0.17514 0.34449 0.27116 0.0
C332 C 0.18559 0.35606 0.25429 0.0
C333 C 0.17156 0.36609 0.24274 0.0
C334 C 0.14714 0.36474 0.2486 0.0
C335 C 0.13658 0.35298 0.26538 0.0
C336 C 0.17331 0.29998 0.3462 0.0
C337 C 0.22559 0.3787 0.33432 0.0
O338 O 0.2127 0.34909 0.39163 0.0
O339 O 0.19716 0.37773 0.39795 0.0
O340 O 0.19791 0.39969 0.36165 0.0
O341 O 0.1591 0.36385 0.35195 0.0
O342 O 0.14666 0.32136 0.37474 0.0
O343 O 0.1204 0.31494 0.34624 0.0
O344 O 0.13783 0.34654 0.30775 0.0
O345 O 0.14573 0.31223 0.30065 0.0
O346 O 0.15007 0.29056 0.33527 0.0
O347 O 0.18792 0.32637 0.34669 0.0
O348 O 0.20136 0.36715 0.32355 0.0
O349 O 0.22699 0.37498 0.35264 0.0
H350 H 0.21836 0.3893 0.44066 0.0
H351 H 0.19922 0.36793 0.46961 0.0
H352 H 0.1547 0.28611 0.43714 0.0
H353 H 0.17323 0.30783 0.40812 0.0
H354 H 0.18641 0.33698 0.2798 0.0
H355 H 0.20465 0.35717 0.25027 0.0
H356 H 0.13575 0.3721 0.23994 0.0
H357 H 0.11752 0.35184 0.26945 0.0
C358 C 0.66191 0.8598 0.40137 0.0
Eu359 Eu 0.65982 0.84014 0.36634 0.0
C360 C 0.67554 0.86097 0.42025 0.0
C361 C 0.68364 0.84121 0.4242 0.0
C362 C 0.69573 0.84213 0.44245 0.0
C363 C 0.70008 0.86293 0.457 0.0
C364 C 0.69247 0.88302 0.45281 0.0
C365 C 0.68028 0.882 0.4346 0.0
C366 C 0.62182 0.78844 0.34947 0.0
C367 C 0.70251 0.81504 0.36417 0.0
C368 C 0.66761 0.80123 0.29306 0.0
Eu369 Eu 0.67237 0.82344 0.32773 0.0
C370 C 0.65285 0.7989 0.27432 0.0
C371 C 0.65178 0.82193 0.26766 0.0
C372 C 0.63882 0.81952 0.24942 0.0
C373 C 0.62653 0.79401 0.23754 0.0
C374 C 0.62671 0.77073 0.24462 0.0
C375 C 0.63979 0.7732 0.2628 0.0
C376 C 0.71079 0.8754 0.34411 0.0
C377 C 0.63081 0.84989 0.32985 0.0
O378 O 0.67839 0.87494 0.38901 0.0
O379 O 0.6424 0.8349 0.39368 0.0
O380 O 0.615 0.80508 0.35839 0.0
O381 O 0.64796 0.79943 0.35027 0.0
O382 O 0.69456 0.83063 0.37401 0.0
O383 O 0.69349 0.80603 0.34596 0.0
O384 O 0.65192 0.78725 0.30614 0.0
O385 O 0.68805 0.8262 0.29987 0.0
O386 O 0.71708 0.8591 0.33412 0.0
O387 O 0.68464 0.86436 0.34391 0.0
O388 O 0.63862 0.83428 0.31991 0.0
O389 O 0.63954 0.85843 0.34816 0.0
H390 H 0.68038 0.82493 0.41324 0.0
H391 H 0.7017 0.82659 0.44518 0.0
H392 H 0.69531 0.89913 0.46376 0.0
H393 H 0.67423 0.89746 0.43179 0.0
H394 H 0.66137 0.84191 0.27641 0.0
H395 H 0.6392 0.83791 0.24443 0.0
H396 H 0.6169 0.7506 0.23606 0.0
H397 H 0.64 0.75507 0.26778 0.0
C398 C 0.13174 0.81901 0.28275 0.0
Eu399 Eu 0.1517 0.83588 0.31848 0.0
C400 C 0.14358 0.81784 0.26471 0.0
C401 C 0.13521 0.826 0.24825 0.0
C402 C 0.14687 0.82604 0.23117 0.0
C403 C 0.1671 0.81781 0.23019 0.0
C404 C 0.17538 0.80951 0.2467 0.0
C405 C 0.16383 0.80964 0.26382 0.0
C406 C 0.16636 0.88643 0.33673 0.0
C407 C 0.21959 0.86054 0.32141 0.0
C408 C 0.20618 0.86926 0.39268 0.0
Eu409 Eu 0.18533 0.85015 0.35728 0.0
C410 C 0.19551 0.8719 0.41091 0.0
C411 C 0.2086 0.87027 0.42803 0.0
C412 C 0.19877 0.87249 0.4455 0.0
C413 C 0.17557 0.87637 0.44621 0.0
C414 C 0.16231 0.87777 0.42896 0.0
C415 C 0.17223 0.87561 0.41147 0.0
C416 C 0.17054 0.79913 0.33944 0.0
C417 C 0.11718 0.82427 0.35425 0.0
O418 O 0.1312 0.80211 0.29525 0.0
O419 O 0.1394 0.84417 0.29067 0.0
O420 O 0.14212 0.87019 0.32717 0.0
O421 O 0.18185 0.87583 0.33573 0.0
O422 O 0.19492 0.84568 0.31127 0.0
O423 O 0.22187 0.86824 0.33985 0.0
O424 O 0.2058 0.88512 0.37967 0.0
O425 O 0.19828 0.84368 0.38553 0.0
O426 O 0.19424 0.81508 0.34976 0.0
O427 O 0.15523 0.81003 0.33998 0.0
O428 O 0.14177 0.83939 0.36449 0.0
O429 O 0.11512 0.81678 0.33579 0.0
H430 H 0.11971 0.83248 0.24863 0.0
H431 H 0.13985 0.83226 0.21865 0.0
H432 H 0.19113 0.80336 0.24646 0.0
H433 H 0.17091 0.80356 0.27639 0.0
H434 H 0.22645 0.86721 0.42788 0.0
H435 H 0.20919 0.87085 0.45846 0.0
H436 H 0.14455 0.88096 0.42901 0.0
H437 H 0.16179 0.87694 0.39841 0.0
C438 C 0.8711 0.69785 0.7384 0.0
Eu439 Eu 0.85325 0.68941 0.7022 0.0
C440 C 0.86064 0.68374 0.75569 0.0
C441 C 0.86829 0.69985 0.77343 0.0
C442 C 0.85821 0.68702 0.78999 0.0
C443 C 0.84028 0.65773 0.78915 0.0
C444 C 0.83256 0.64164 0.77126 0.0
C445 C 0.84263 0.65453 0.75468 0.0
C446 C 0.83639 0.72025 0.68292 0.0
C447 C 0.78695 0.64045 0.696 0.0
C448 C 0.80613 0.65456 0.62562 0.0
Eu449 Eu 0.82423 0.66369 0.66183 0.0
C450 C 0.81636 0.66793 0.60808 0.0
C451 C 0.80588 0.65171 0.59035 0.0
C452 C 0.81534 0.66387 0.57349 0.0
C453 C 0.83555 0.69255 0.57404 0.0
C454 C 0.84626 0.70872 0.5919 0.0
C455 C 0.83668 0.69652 0.60879 0.0
C456 C 0.84059 0.63258 0.68121 0.0
C457 C 0.89074 0.71245 0.66812 0.0
O458 O 0.87771 0.68465 0.72551 0.0
O459 O 0.85758 0.70936 0.73087 0.0
O460 O 0.85919 0.73126 0.69451 0.0
O461 O 0.82293 0.69392 0.68293 0.0
O462 O 0.81085 0.65295 0.70717 0.0
O463 O 0.78592 0.64412 0.67764 0.0
O464 O 0.80006 0.66846 0.63831 0.0
O465 O 0.81951 0.64305 0.63334 0.0
O466 O 0.81786 0.62184 0.66959 0.0
O467 O 0.85439 0.65891 0.68112 0.0
O468 O 0.86693 0.69989 0.65682 0.0
O469 O 0.89156 0.70899 0.68651 0.0
H470 H 0.88195 0.72244 0.77447 0.0
H471 H 0.86418 0.70015 0.80343 0.0
H472 H 0.81899 0.61904 0.77009 0.0
H473 H 0.83636 0.64168 0.74108 0.0
H474 H 0.79033 0.62958 0.58955 0.0
H475 H 0.80696 0.65074 0.56001 0.0
H476 H 0.86165 0.7309 0.59281 0.0
H477 H 0.84503 0.70942 0.62236 0.0
C478 C 0.32411 0.1863 0.73546 0.0
Eu479 Eu 0.3241 0.16999 0.69993 0.0
C480 C 0.33797 0.18831 0.7545 0.0
C481 C 0.32227 0.18189 0.77022 0.0
C482 C 0.33479 0.18396 0.78851 0.0
C483 C 0.3634 0.19268 0.79154 0.0
C484 C 0.37905 0.19877 0.77566 0.0
C485 C 0.36644 0.19656 0.7573 0.0
C486 C 0.28647 0.11942 0.68132 0.0
C487 C 0.36749 0.14612 0.69653 0.0
C488 C 0.33406 0.13653 0.62559 0.0
Eu489 Eu 0.33767 0.15634 0.6608 0.0
C490 C 0.31969 0.13474 0.60679 0.0
C491 C 0.31843 0.15784 0.60047 0.0
C492 C 0.30595 0.15594 0.58214 0.0
C493 C 0.29438 0.13088 0.56983 0.0
C494 C 0.29478 0.10752 0.57656 0.0
C495 C 0.30736 0.10948 0.59482 0.0
C496 C 0.37582 0.20728 0.6788 0.0
C497 C 0.29612 0.18257 0.66422 0.0
O498 O 0.33948 0.20331 0.72338 0.0
O499 O 0.30674 0.16094 0.72735 0.0
O500 O 0.2794 0.13546 0.69075 0.0
O501 O 0.31261 0.13039 0.68243 0.0
O502 O 0.35953 0.16124 0.70689 0.0
O503 O 0.35848 0.1379 0.67825 0.0
O504 O 0.31822 0.12141 0.63823 0.0
O505 O 0.35392 0.16143 0.63303 0.0
O506 O 0.38228 0.19174 0.66811 0.0
O507 O 0.34965 0.19615 0.67844 0.0
O508 O 0.30416 0.16774 0.65364 0.0
O509 O 0.30421 0.18951 0.68271 0.0
H510 H 0.30023 0.17527 0.76834 0.0
H511 H 0.32193 0.17851 0.80029 0.0
H512 H 0.40115 0.20572 0.77744 0.0
H513 H 0.37897 0.20148 0.74535 0.0
H514 H 0.32749 0.1775 0.60955 0.0
H515 H 0.30613 0.17438 0.57743 0.0
H516 H 0.2855 0.08769 0.56767 0.0
H517 H 0.30776 0.0913 0.59951 0.0
C518 C 0.79919 0.14555 0.61501 0.0
Eu519 Eu 0.81811 0.16656 0.65045 0.0
C520 C 0.81157 0.1458 0.597 0.0
C521 C 0.83793 0.1681 0.59396 0.0
C522 C 0.84947 0.16784 0.57684 0.0
C523 C 0.83493 0.1452 0.56249 0.0
C524 C 0.80864 0.12282 0.56571 0.0
C525 C 0.79709 0.12315 0.5828 0.0
C526 C 0.83546 0.21938 0.66583 0.0
C527 C 0.88608 0.19155 0.65539 0.0
C528 C 0.87049 0.20439 0.72582 0.0
Eu529 Eu 0.85039 0.18308 0.69056 0.0
C530 C 0.86006 0.20434 0.74458 0.0
C531 C 0.83462 0.18194 0.74895 0.0
C532 C 0.82539 0.18242 0.767 0.0
C533 C 0.84144 0.20533 0.78097 0.0
C534 C 0.86661 0.22793 0.77626 0.0
C535 C 0.87581 0.22739 0.75829 0.0
C536 C 0.83385 0.13059 0.67496 0.0
C537 C 0.78228 0.15788 0.68567 0.0
O538 O 0.80326 0.1317 0.62809 0.0
O539 O 0.80211 0.16944 0.62215 0.0
O540 O 0.81195 0.20412 0.65515 0.0
O541 O 0.84913 0.20679 0.66689 0.0
O542 O 0.86182 0.17611 0.64483 0.0
O543 O 0.88752 0.20043 0.67351 0.0
O544 O 0.86449 0.21748 0.71314 0.0
O545 O 0.86796 0.18077 0.71848 0.0
O546 O 0.8572 0.1461 0.68574 0.0
O547 O 0.81965 0.14267 0.67403 0.0
O548 O 0.80648 0.1727 0.69642 0.0
O549 O 0.78088 0.14977 0.66737 0.0
H550 H 0.84962 0.18567 0.60484 0.0
H551 H 0.86991 0.18521 0.57493 0.0
H552 H 0.79678 0.10521 0.5549 0.0
H553 H 0.77679 0.1057 0.58491 0.0
H554 H 0.82201 0.16403 0.73847 0.0
H555 H 0.80598 0.16462 0.77013 0.0
H556 H 0.8792 0.24621 0.78646 0.0
H557 H 0.89531 0.24504 0.75508 0.0
C558 C 0.32544 0.85034 0.06895 0.0
C559 C 0.30649 0.85702 0.07672 0.0
C560 C 0.35 0.87104 0.06234 0.0
C561 C 0.35584 0.8992 0.06352 0.0
C562 C 0.33731 0.9063 0.07198 0.0
C563 C 0.31284 0.8851 0.07854 0.0
C564 C 0.36934 0.8626 0.05364 0.0
C565 C 0.34295 0.93614 0.0736 0.0
C566 C 0.43096 0.95412 0.05812 0.0
C567 C 0.42959 0.95787 0.0386 0.0
C568 C 0.40698 0.93586 0.06659 0.0
C569 C 0.38092 0.92085 0.05528 0.0
C570 C 0.37921 0.92512 0.03571 0.0
C571 C 0.40355 0.94357 0.02761 0.0
C572 C 0.40982 0.93198 0.08749 0.0
C573 C 0.35177 0.90955 0.02318 0.0
H574 H 0.32079 0.8287 0.06777 0.0
H575 H 0.29818 0.89032 0.08445 0.0
H576 H 0.3706 0.86681 0.03841 0.0
H577 H 0.39077 0.87533 0.06108 0.0
H578 H 0.36228 0.84 0.05442 0.0
H579 H 0.32733 0.93849 0.08146 0.0
H580 H 0.36409 0.95056 0.08104 0.0
H581 H 0.34255 0.94287 0.0591 0.0
H582 H 0.45091 0.96513 0.06682 0.0
H583 H 0.4022 0.94639 0.01255 0.0
H584 H 0.40732 0.91092 0.08886 0.0
H585 H 0.39324 0.933 0.09497 0.0
H586 H 0.4305 0.9481 0.09482 0.0
H587 H 0.34422 0.88666 0.02194 0.0
H588 H 0.35361 0.9165 0.00858 0.0
H589 H 0.33569 0.91269 0.02973 0.0
C590 C 0.1358 0.42812 0.07742 0.0
C591 C 0.16428 0.44504 0.07531 0.0
C592 C 0.11607 0.43465 0.06961 0.0
C593 C 0.12516 0.45894 0.05977 0.0
C594 C 0.15398 0.47634 0.0579 0.0
C595 C 0.17318 0.46902 0.06554 0.0
C596 C 0.08549 0.41536 0.07165 0.0
C597 C 0.16452 0.50265 0.04779 0.0
C598 C 0.07331 0.46284 0.02408 0.0
C599 C 0.06545 0.47953 0.03485 0.0
C600 C 0.09263 0.45588 0.03205 0.0
C601 C 0.10447 0.46596 0.05122 0.0
C602 C 0.09663 0.48281 0.06217 0.0
C603 C 0.07721 0.48936 0.05387 0.0
C604 C 0.10033 0.43769 0.01996 0.0
C605 C 0.10889 0.49406 0.08264 0.0
H606 H 0.12892 0.40943 0.08482 0.0
H607 H 0.19525 0.48219 0.06406 0.0
H608 H 0.07686 0.4272 0.07909 0.0
H609 H 0.07361 0.40704 0.0573 0.0
H610 H 0.08188 0.39734 0.07975 0.0
H611 H 0.18765 0.51431 0.04803 0.0
H612 H 0.15522 0.49716 0.03269 0.0
H613 H 0.15795 0.5168 0.05462 0.0
H614 H 0.06432 0.45509 0.0094 0.0
H615 H 0.07138 0.50237 0.06231 0.0
H616 H 0.09562 0.41853 0.02698 0.0
H617 H 0.12311 0.44922 0.01862 0.0
H618 H 0.08895 0.43122 0.00539 0.0
H619 H 0.10449 0.47644 0.09133 0.0
H620 H 0.10039 0.50666 0.08925 0.0
H621 H 0.13194 0.50743 0.08325 0.0
C622 C 0.53288 0.70859 0.0406 0.0
C623 C 0.54592 0.71648 0.05945 0.0
C624 C 0.52507 0.68229 0.03104 0.0
C625 C 0.52918 0.66269 0.04077 0.0
C626 C 0.54114 0.66985 0.06002 0.0
C627 C 0.54988 0.69681 0.06899 0.0
C628 C 0.513 0.67574 0.01035 0.0
C629 C 0.54504 0.64917 0.07108 0.0
C630 C 0.48726 0.58683 0.01845 0.0
C631 C 0.50767 0.58385 0.00954 0.0
C632 C 0.49417 0.61208 0.02928 0.0
C633 C 0.52186 0.63513 0.0305 0.0
C634 C 0.54245 0.63215 0.02133 0.0
C635 C 0.5352 0.60631 0.01129 0.0
C636 C 0.47194 0.61403 0.03951 0.0
C637 C 0.57197 0.65643 0.02177 0.0
H638 H 0.52884 0.72304 0.03315 0.0
H639 H 0.5603 0.7025 0.08338 0.0
H640 H 0.52604 0.6706 1.00144 0.0
H641 H 0.49169 0.65704 0.00872 0.0
H642 H 0.51182 0.69355 0.00468 0.0
H643 H 0.5519 0.65686 0.08647 0.0
H644 H 0.52523 0.62869 0.06989 0.0
H645 H 0.56093 0.64527 0.06498 0.0
H646 H 0.46607 0.56919 0.01734 0.0
H647 H 0.55093 0.60384 0.00438 0.0
H648 H 0.46781 0.62996 0.03359 0.0
H649 H 0.47931 0.621 0.05491 0.0
H650 H 0.45199 0.59364 0.03821 0.0
H651 H 0.57172 0.67445 0.01572 0.0
H652 H 0.58528 0.65079 0.01354 0.0
H653 H 0.58171 0.66359 0.03673 0.0
C654 C 0.86232 0.29671 0.97196 0.0
C655 C 0.84882 0.29383 0.95374 0.0
C656 C 0.88171 0.32327 0.98131 0.0
C657 C 0.88835 0.34765 0.97208 0.0
C658 C 0.87568 0.34493 0.95342 0.0
C659 C 0.85589 0.3181 0.94454 0.0
C660 C 0.89463 0.32526 1.00126 0.0
C661 C 0.88262 0.37041 0.94298 0.0
C662 C 0.91579 0.41646 0.00345 0.0
C663 C 0.94471 0.4288 0.00282 0.0
C664 C 0.89722 0.39011 0.99345 0.0
C665 C 0.90783 0.37598 0.98229 0.0
C666 C 0.93703 0.38853 0.98144 0.0
C667 C 0.95514 0.4146 0.99196 0.0
C668 C 0.86626 0.37722 0.99501 0.0
C669 C 0.94914 0.37441 0.96945 0.0
H670 H 0.85762 0.27814 0.97903 0.0
H671 H 0.84547 0.31623 0.93057 0.0
H672 H 0.91774 0.33645 1.00167 0.0
H673 H 0.88924 0.33764 0.01135 0.0
H674 H 0.88742 0.30428 0.00638 0.0
H675 H 0.87249 0.36463 0.92805 0.0
H676 H 0.87567 0.38364 0.95065 0.0
H677 H 0.90558 0.38345 0.94267 0.0
H678 H 0.90766 0.42734 0.01189 0.0
H679 H 0.97752 0.42384 0.99171 0.0
H680 H 0.85815 0.35668 1.00097 0.0
H681 H 0.85491 0.37313 0.98062 0.0
H682 H 0.8614 0.39092 0.00427 0.0
H683 H 0.9445 0.35425 0.97498 0.0
H684 H 0.97215 0.38773 0.96942 0.0
H685 H 0.93933 0.36939 0.95448 0.0
C686 C 0.68777 0.53529 0.94943 0.0
C687 C 0.7056 0.55926 0.9407 0.0
C688 C 0.66305 0.53189 0.9561 0.0
C689 C 0.65581 0.55291 0.95394 0.0
C690 C 0.67322 0.57676 0.94461 0.0
C691 C 0.69794 0.57966 0.93808 0.0
C692 C 0.64498 0.50604 0.96585 0.0
C693 C 0.66611 0.59955 0.94196 0.0
C694 C 0.57994 0.53045 0.95941 0.0
C695 C 0.58141 0.53997 0.97863 0.0
C696 C 0.60409 0.5354 0.95097 0.0
C697 C 0.6304 0.55011 0.96201 0.0
C698 C 0.63215 0.56047 0.98124 0.0
C699 C 0.60766 0.55533 0.9893 0.0
C700 C 0.60132 0.52411 0.93039 0.0
C701 C 0.65981 0.57621 0.9935 0.0
H702 H 0.69331 0.5192 0.95118 0.0
H703 H 0.7117 0.59831 0.93147 0.0
H704 H 0.64369 0.5123 0.98085 0.0
H705 H 0.6234 0.49473 0.95856 0.0
H706 H 0.65318 0.4913 0.96593 0.0
H707 H 0.68095 0.61594 0.93347 0.0
H708 H 0.64466 0.59035 0.93469 0.0
H709 H 0.66649 0.60973 0.95613 0.0
H710 H 0.55983 0.51863 0.95098 0.0
H711 H 0.60907 0.56283 0.00413 0.0
H712 H 0.6074 0.50773 0.92971 0.0
H713 H 0.61566 0.54113 0.92211 0.0
H714 H 0.57965 0.51479 0.92339 0.0
H715 H 0.66843 0.56206 0.99554 0.0
H716 H 0.65788 0.58438 0.00779 0.0
H717 H 0.67514 0.59411 0.98628 0.0
C718 C 0.47366 0.14941 0.94864 0.0
C719 C 0.46248 0.16295 0.95944 0.0
C720 C 0.47931 0.12959 0.95642 0.0
C721 C 0.47374 0.12332 0.97545 0.0
C722 C 0.46124 0.13594 0.98605 0.0
C723 C 0.45565 0.15546 0.97789 0.0
C724 C 0.49231 0.11628 0.94458 0.0
C725 C 0.45483 0.12977 0.00634 0.0
C726 C 0.47217 0.05989 0.99536 0.0
C727 C 0.4987 0.07218 0.0056 0.0
C728 C 0.46407 0.07603 0.98485 0.0
C729 C 0.48278 0.10524 0.98489 0.0
C730 C 0.5097 0.11765 0.99508 0.0
C731 C 0.51735 0.10095 0.00525 0.0
C732 C 0.43532 0.06194 0.97403 0.0
C733 C 0.53023 0.14875 0.9956 0.0
H734 H 0.47907 0.15514 0.93439 0.0
H735 H 0.44645 0.16539 0.98617 0.0
H736 H 0.51414 0.12417 0.95071 0.0
H737 H 0.48078 0.09313 0.94492 0.0
H738 H 0.49258 0.12102 0.92945 0.0
H739 H 0.44362 0.14007 0.01223 0.0
H740 H 0.44189 0.10678 0.00704 0.0
H741 H 0.47459 0.13727 0.01564 0.0
H742 H 0.45757 0.0377 0.99577 0.0
H743 H 0.53791 0.11051 0.0131 0.0
H744 H 0.4368 0.06705 0.95899 0.0
H745 H 0.42257 0.06995 0.98055 0.0
H746 H 0.42423 0.03872 0.97409 0.0
H747 H 0.53377 0.15481 0.98084 0.0
H748 H 0.5507 0.15493 0.00355 0.0
H749 H 0.52149 0.16089 0.00251 0.0
C750 C 0.70585 0.12932 0.95637 0.0
C751 C 0.71373 0.15773 0.95693 0.0
C752 C 0.67943 0.1094 0.9613 0.0
C753 C 0.66079 0.11833 0.96712 0.0
C754 C 0.66828 0.14689 0.96668 0.0
C755 C 0.69477 0.16629 0.96161 0.0
C756 C 0.67217 0.07914 0.96141 0.0
C757 C 0.64909 0.15731 0.97277 0.0
C758 C 0.58474 0.06506 0.97211 0.0
C759 C 0.58538 0.06266 0.99187 0.0
C760 C 0.60914 0.08274 0.96377 0.0
C761 C 0.6348 0.09855 0.97545 0.0
C762 C 0.63562 0.09604 0.99537 0.0
C763 C 0.61096 0.07811 0.00331 0.0
C764 C 0.60739 0.08469 0.94248 0.0
C765 C 0.66255 0.11264 0.00836 0.0
H766 H 0.72082 0.12291 0.95298 0.0
H767 H 0.7012 0.18843 0.96228 0.0
H768 H 0.67202 0.07389 0.97639 0.0
H769 H 0.65094 0.06486 0.95405 0.0
H770 H 0.68737 0.07499 0.95438 0.0
H771 H 0.65678 0.17943 0.96981 0.0
H772 H 0.62777 0.14389 0.9653 0.0
H773 H 0.64734 0.15603 0.98833 0.0
H774 H 0.56513 0.05319 0.9631 0.0
H775 H 0.61172 0.07647 0.01857 0.0
H776 H 0.62195 0.07917 0.9359 0.0
H777 H 0.61393 0.1066 0.93967 0.0
H778 H 0.58595 0.07057 0.93532 0.0
H779 H 0.67852 0.10784 0.00348 0.0
H780 H 0.65975 0.10804 0.02348 0.0
H781 H 0.67087 0.13548 0.00773 0.0
C782 C 0.83216 0.52065 0.95805 0.0
C783 C 0.83695 0.54745 0.95499 0.0
C784 C 0.85451 0.51621 0.96277 0.0
C785 C 0.88225 0.53921 0.96445 0.0
C786 C 0.88717 0.56607 0.96029 0.0
C787 C 0.86433 0.56992 0.95572 0.0
C788 C 0.84831 0.48728 0.96714 0.0
C789 C 0.91642 0.59102 0.96172 0.0
C790 C 0.93344 0.53441 1.00016 0.0
C791 C 0.94716 0.52498 0.98829 0.0
C792 C 0.91272 0.53966 0.99251 0.0
C793 C 0.90565 0.53563 0.97245 0.0
C794 C 0.91994 0.52685 0.96033 0.0
C795 C 0.94042 0.52149 0.96839 0.0
C796 C 0.89785 0.54882 0.00596 0.0
C797 C 0.91321 0.5226 0.93888 0.0
H798 H 0.81083 0.50341 0.95765 0.0
H799 H 0.86784 0.5907 0.95351 0.0
H800 H 0.86109 0.48075 0.9591 0.0
H801 H 0.85397 0.48773 0.98259 0.0
H802 H 0.82589 0.47121 0.96355 0.0
H803 H 0.9169 0.60945 0.95573 0.0
H804 H 0.92516 0.59716 0.97694 0.0
H805 H 0.93025 0.58553 0.95407 0.0
H806 H 0.93844 0.53715 0.01553 0.0
H807 H 0.95103 0.51438 0.95907 0.0
H808 H 0.87527 0.53282 0.00459 0.0
H809 H 0.89961 0.56884 1.00213 0.0
H810 H 0.90639 0.55181 0.02113 0.0
H811 H 0.89144 0.50516 0.935 0.0
H812 H 0.9275 0.51757 0.93138 0.0
H813 H 0.91457 0.54177 0.93361 0.0
C814 C 0.46253 0.31255 0.98818 0.0
C815 C 0.4711 0.30599 0.97133 0.0
C816 C 0.46594 0.33931 0.99249 0.0
C817 C 0.47817 0.3599 0.97956 0.0
C818 C 0.48536 0.35271 0.96195 0.0
C819 C 0.48193 0.32576 0.95809 0.0
C820 C 0.45812 0.34606 0.01146 0.0
C821 C 0.49805 0.37392 0.94768 0.0
C822 C 0.47409 0.42632 0.98977 0.0
C823 C 0.50025 0.4444 0.99997 0.0
C824 C 0.46692 0.39906 0.98233 0.0
C825 C 0.48618 0.38956 0.98553 0.0
C826 C 0.51275 0.40793 0.99564 0.0
C827 C 0.5195 0.43516 0.00262 0.0
C828 C 0.43856 0.38026 0.97141 0.0
C829 C 0.53382 0.39858 0.99955 0.0
H830 H 0.45435 0.29714 0.99843 0.0
H831 H 0.4887 0.32055 0.94511 0.0
H832 H 0.47734 0.36154 0.02067 0.0
H833 H 0.44491 0.35576 0.00936 0.0
H834 H 0.44668 0.3271 0.01913 0.0
H835 H 0.49891 0.36405 0.93371 0.0
H836 H 0.48592 0.38473 0.94532 0.0
H837 H 0.51964 0.39022 0.95338 0.0
H838 H 0.45907 0.43333 0.9878 0.0
H839 H 0.53977 0.4491 0.01047 0.0
H840 H 0.42574 0.36253 0.97973 0.0
H841 H 0.44074 0.3711 0.95761 0.0
H842 H 0.42717 0.3917 0.96849 0.0
H843 H 0.52512 0.38069 0.00843 0.0
H844 H 0.55384 0.4157 0.00711 0.0
H845 H 0.53823 0.3911 0.98594 0.0
C846 C 0.15496 0.7093 0.03828 0.0
C847 C 0.17137 0.71521 0.05562 0.0
C848 C 0.13255 0.68213 0.03258 0.0
C849 C 0.12655 0.66049 0.04459 0.0
C850 C 0.14205 0.66694 0.06275 0.0
C851 C 0.16457 0.69434 0.06801 0.0
C852 C 0.11669 0.67618 0.01309 0.0
C853 C 0.13602 0.64457 0.07607 0.0
C854 C 0.05903 0.59131 0.02995 0.0
C855 C 0.06882 0.57603 0.01959 0.0
C856 C 0.07765 0.61849 0.03887 0.0
C857 C 0.10661 0.63075 0.03704 0.0
C858 C 0.11656 0.61516 0.02681 0.0
C859 C 0.09755 0.58796 0.01831 0.0
C860 C 0.0663 0.63428 0.04987 0.0
C861 C 0.14724 0.6275 0.02437 0.0
H862 H 0.16057 0.72559 0.0287 0.0
H863 H 0.17756 0.69907 0.08138 0.0
H864 H 0.12165 0.66284 0.00356 0.0
H865 H 0.09384 0.66441 0.0141 0.0
H866 H 0.12205 0.69575 0.00636 0.0
H867 H 0.14693 0.65371 0.09064 0.0
H868 H 0.11322 0.63175 0.07714 0.0
H869 H 0.14302 0.63019 0.07031 0.0
H870 H 0.03678 0.58221 0.03086 0.0
H871 H 0.1052 0.57616 0.01035 0.0
H872 H 0.06895 0.65236 0.04224 0.0
H873 H 0.07814 0.64289 0.06422 0.0
H874 H 0.04378 0.62077 0.05165 0.0
H875 H 0.15449 0.64632 0.01642 0.0
H876 H 0.15164 0.6123 0.0165 0.0
H877 H 0.15971 0.63442 0.03855 0.0
C878 C 0.31124 0.47109 0.05962 0.0
C879 C 0.29581 0.44441 0.0658 0.0
C880 C 0.33806 0.48041 0.05392 0.0
C881 C 0.34951 0.46246 0.05439 0.0
C882 C 0.33446 0.43603 0.06165 0.0
C883 C 0.3076 0.42722 0.06719 0.0
C884 C 0.35338 0.50872 0.04629 0.0
C885 C 0.346 0.41639 0.06253 0.0
C886 C 0.39948 0.47032 0.0174 0.0
C887 C 0.42561 0.48613 0.02814 0.0
C888 C 0.37463 0.46234 0.02584 0.0
C889 C 0.37586 0.47019 0.04556 0.0
C890 C 0.40213 0.48586 0.05656 0.0
C891 C 0.42668 0.49372 0.04771 0.0
C892 C 0.34701 0.44574 0.01358 0.0
C893 C 0.40434 0.49452 0.07762 0.0
H894 H 0.30179 0.48414 0.05836 0.0
H895 H 0.29535 0.40642 0.07178 0.0
H896 H 0.37514 0.52098 0.05322 0.0
H897 H 0.35452 0.50571 0.03072 0.0
H898 H 0.34288 0.52119 0.04859 0.0
H899 H 0.33324 0.39813 0.0705 0.0
H900 H 0.34648 0.40839 0.0478 0.0
H901 H 0.3678 0.42772 0.06945 0.0
H902 H 0.39839 0.46439 1.00229 0.0
H903 H 0.44674 0.5059 0.05618 0.0
H904 H 0.33576 0.45768 0.01362 0.0
H905 H 0.33361 0.42561 0.01953 0.0
H906 H 0.34963 0.44101 0.99853 0.0
H907 H 0.39521 0.50827 0.07975 0.0
H908 H 0.42633 0.50595 0.08428 0.0
H909 H 0.39219 0.47571 0.08525 0.0
C910 C 0.55549 0.86675 0.06499 0.0
C911 C 0.56797 0.85845 0.05134 0.0
C912 C 0.54598 0.88546 0.06086 0.0
C913 C 0.54895 0.89573 0.04263 0.0
C914 C 0.56206 0.8876 0.029 0.0
C915 C 0.57143 0.86905 0.03355 0.0
C916 C 0.53227 0.89377 0.07578 0.0
C917 C 0.56559 0.89795 0.0094 0.0
C918 C 0.50016 0.91875 0.02093 0.0
C919 C 0.51745 0.94802 0.02256 0.0
C920 C 0.50978 0.90153 0.02815 0.0
C921 C 0.53733 0.91393 0.03729 0.0
C922 C 0.55446 0.94359 0.03969 0.0
C923 C 0.54435 0.9603 0.0322 0.0
C924 C 0.49084 0.87001 0.02525 0.0
C925 C 0.58386 0.95763 0.04947 0.0
H926 H 0.55285 0.85835 0.07874 0.0
H927 H 0.58108 0.86242 0.02304 0.0
H928 H 0.54258 0.91701 0.07824 0.0
H929 H 0.51006 0.88578 0.07062 0.0
H930 H 0.53313 0.88539 0.08961 0.0
H931 H 0.57701 0.89034 1.00069 0.0
H932 H 0.54479 0.89073 1.00162 0.0
H933 H 0.57716 0.92127 0.01072 0.0
H934 H 0.47927 0.90919 0.01359 0.0
H935 H 0.55779 0.98294 0.03347 0.0
H936 H 0.48956 0.86086 0.03902 0.0
H937 H 0.49962 0.86068 0.01539 0.0
H938 H 0.46936 0.86379 0.01917 0.0
H939 H 0.58406 0.9492 0.06337 0.0
H940 H 0.59334 0.98081 0.05203 0.0
H941 H 0.59715 0.95302 0.04048 0.0
C942 C 0.98031 0.21395 0.4125 0.0
C943 C 0.97292 0.18569 0.40865 0.0
C944 C 0.00501 0.2357 0.40655 0.0
C945 C 0.02275 0.22903 0.39656 0.0
C946 C 0.01586 0.20061 0.39325 0.0
C947 C 0.9911 0.17936 0.39934 0.0
C948 C 0.01165 0.26572 0.41039 0.0
C949 C 0.03429 0.19255 0.38284 0.0
C950 C 0.07018 0.278 0.36228 0.0
C951 C 0.09647 0.29078 0.37294 0.0
C952 C 0.04595 0.25848 0.37 0.0
C953 C 0.04797 0.25148 0.38884 0.0
C954 C 0.07433 0.26477 0.39984 0.0
C955 C 0.09821 0.28427 0.39178 0.0
C956 C 0.01824 0.2448 0.35779 0.0
C957 C 0.07743 0.25793 0.41997 0.0
H958 H 0.96628 0.21899 0.41957 0.0
H959 H 0.98576 0.1576 0.3966 0.0
H960 H 0.0331 0.27894 0.4177 0.0
H961 H 0.01102 0.27435 0.39664 0.0
H962 H 0.9967 0.26758 0.41934 0.0
H963 H 0.02659 0.16963 0.38211 0.0
H964 H 0.03528 0.19864 0.36804 0.0
H965 H 0.05593 0.20404 0.39004 0.0
H966 H 0.06853 0.2829 0.34775 0.0
H967 H 0.11835 0.29405 0.40021 0.0
H968 H 0.00269 0.24756 0.36542 0.0
H969 H 0.01007 0.22186 0.35508 0.0
H970 H 0.01992 0.25358 0.34382 0.0
H971 H 0.06379 0.26199 0.42895 0.0
H972 H 0.09932 0.27047 0.42669 0.0
H973 H 0.07066 0.2353 0.4199 0.0
C974 C 0.8021 0.76764 0.41843 0.0
C975 C 0.82964 0.78496 0.41423 0.0
C976 C 0.78039 0.77181 0.41123 0.0
C977 C 0.78644 0.79399 0.39971 0.0
C978 C 0.81433 0.81192 0.3958 0.0
C979 C 0.83555 0.80711 0.40304 0.0
C980 C 0.75089 0.75212 0.41558 0.0
C981 C 0.82171 0.836 0.38377 0.0
C982 C 0.73005 0.79022 0.36418 0.0
C983 C 0.72274 0.80832 0.37374 0.0
C984 C 0.75023 0.78482 0.37269 0.0
C985 C 0.76358 0.79796 0.39116 0.0
C986 C 0.75588 0.81578 0.40107 0.0
C987 C 0.73552 0.82069 0.39226 0.0
C988 C 0.75767 0.76547 0.36174 0.0
C989 C 0.76967 0.83026 0.42076 0.0
H990 H 0.79741 0.75033 0.42693 0.0
H991 H 0.85688 0.82073 0.39996 0.0
H992 H 0.74195 0.76422 0.42223 0.0
H993 H 0.73753 0.7406 0.40209 0.0
H994 H 0.74982 0.73655 0.42532 0.0
H995 H 0.84454 0.84866 0.38269 0.0
H996 H 0.81081 0.82776 0.36913 0.0
H997 H 0.81454 0.85003 0.38993 0.0
H998 H 0.72021 0.78042 0.34993 0.0
H999 H 0.73005 0.83473 0.39978 0.0
H1000 H 0.75545 0.74848 0.37046 0.0
H1001 H 0.77983 0.77737 0.35872 0.0
H1002 H 0.74434 0.75575 0.34796 0.0
H1003 H 0.76823 0.81465 0.43055 0.0
H1004 H 0.76011 0.84205 0.42701 0.0
H1005 H 0.79221 0.84516 0.41999 0.0
C1006 C 0.21818 0.0302 0.40371 0.0
C1007 C 0.21274 0.04848 0.39354 0.0
C1008 C 0.21004 0.00295 0.39563 0.0
C1009 C 0.19718 0.99405 0.37662 0.0
C1010 C 0.19182 0.01233 0.3662 0.0
C1011 C 0.19906 0.03896 0.3749 0.0
C1012 C 0.2153 0.98372 0.40743 0.0
C1013 C 0.17873 0.00392 0.34572 0.0
C1014 C 0.20204 0.93581 0.34852 0.0
C1015 C 0.17454 0.91345 0.34764 0.0
C1016 C 0.20974 0.96219 0.35796 0.0
C1017 C 0.18971 0.96582 0.3674 0.0
C1018 C 0.1622 0.94279 0.36727 0.0
C1019 C 0.15478 0.917 0.35701 0.0
C1020 C 0.23901 0.9864 0.35724 0.0
C1021 C 0.14058 0.94542 0.37784 0.0
H1022 H 0.22918 0.03718 0.41794 0.0
H1023 H 0.19393 0.05232 0.36697 0.0
H1024 H 0.19576 0.9632 0.40731 0.0
H1025 H 0.23087 0.97947 0.40114 0.0
H1026 H 0.2232 0.99285 0.4225 0.0
H1027 H 0.17713 0.02107 0.3393 0.0
H1028 H 0.19129 0.99796 0.33692 0.0
H1029 H 0.15747 0.98527 0.34496 0.0
H1030 H 0.21725 0.93294 0.34122 0.0
H1031 H 0.13361 0.89946 0.35654 0.0
H1032 H 0.24941 0.99524 0.37192 0.0
H1033 H 0.23812 0.00345 0.35017 0.0
H1034 H 0.25207 0.98005 0.34933 0.0
H1035 H 0.14906 0.95422 0.39289 0.0
H1036 H 0.12103 0.92488 0.3778 0.0
H1037 H 0.13534 0.96016 0.37116 0.0
C1038 C 0.52814 0.64922 0.27705 0.0
C1039 C 0.50419 0.63018 0.28533 0.0
C1040 C 0.54711 0.676 0.28643 0.0
C1041 C 0.54286 0.68361 0.30495 0.0
C1042 C 0.51891 0.66463 0.31345 0.0
C1043 C 0.49962 0.63856 0.30339 0.0
C1044 C 0.57189 0.69606 0.27658 0.0
C1045 C 0.51392 0.6716 0.33338 0.0
C1046 C 0.60635 0.73905 0.33744 0.0
C1047 C 0.60194 0.76194 0.33787 0.0
C1048 C 0.5872 0.71337 0.32686 0.0
C1049 C 0.5638 0.71103 0.31576 0.0
C1050 C 0.55995 0.73459 0.31558 0.0
C1051 C 0.57877 0.75962 0.327 0.0
C1052 C 0.5916 0.68855 0.32797 0.0
C1053 C 0.53607 0.73341 0.30327 0.0
H1054 H 0.53251 0.64319 0.26335 0.0
H1055 H 0.48094 0.62471 0.30983 0.0
H1056 H 0.57336 0.71692 0.27696 0.0
H1057 H 0.59149 0.69924 0.28421 0.0
H1058 H 0.57061 0.68822 0.26145 0.0
H1059 H 0.49482 0.65411 0.33824 0.0
H1060 H 0.53211 0.67642 0.34363 0.0
H1061 H 0.5118 0.69058 0.3339 0.0
H1062 H 0.62437 0.74101 0.34587 0.0
H1063 H 0.57572 0.7776 0.32711 0.0
H1064 H 0.59369 0.68105 0.31354 0.0
H1065 H 0.57314 0.6709 0.33329 0.0
H1066 H 0.61053 0.69371 0.33757 0.0
H1067 H 0.53596 0.726 0.28825 0.0
H1068 H 0.53734 0.7542 0.30357 0.0
H1069 H 0.51587 0.71814 0.30826 0.0
C1070 C 0.36073 0.90792 0.26986 0.0
C1071 C 0.36691 0.88619 0.27056 0.0
C1072 C 0.33638 0.90527 0.27691 0.0
C1073 C 0.31782 0.8803 0.28477 0.0
C1074 C 0.32347 0.85792 0.28481 0.0
C1075 C 0.34787 0.86113 0.27769 0.0
C1076 C 0.33096 0.9295 0.27649 0.0
C1077 C 0.30414 0.83085 0.2929 0.0
C1078 C 0.27147 0.88057 0.32237 0.0
C1079 C 0.24512 0.86768 0.3118 0.0
C1080 C 0.29545 0.88568 0.31359 0.0
C1081 C 0.29309 0.87778 0.29375 0.0
C1082 C 0.26672 0.86565 0.28288 0.0
C1083 C 0.24308 0.8607 0.29203 0.0
C1084 C 0.32319 0.89866 0.3257 0.0
C1085 C 0.26325 0.85699 0.26169 0.0
H1086 H 0.37542 0.92737 0.26446 0.0
H1087 H 0.3523 0.84408 0.27796 0.0
H1088 H 0.30963 0.92213 0.26957 0.0
H1089 H 0.332 0.93819 0.29133 0.0
H1090 H 0.34633 0.94665 0.26874 0.0
H1091 H 0.31097 0.81507 0.29117 0.0
H1092 H 0.30328 0.83518 0.30836 0.0
H1093 H 0.28261 0.82159 0.28576 0.0
H1094 H 0.27333 0.88613 0.33762 0.0
H1095 H 0.22289 0.85091 0.28367 0.0
H1096 H 0.33915 0.91727 0.31939 0.0
H1097 H 0.33058 0.8833 0.32601 0.0
H1098 H 0.32187 0.90523 0.34064 0.0
H1099 H 0.27926 0.87425 0.25438 0.0
H1100 H 0.2422 0.85111 0.25489 0.0
H1101 H 0.26632 0.83867 0.25936 0.0
C1102 C 0.1456 0.50532 0.31244 0.0
C1103 C 0.13004 0.49828 0.29444 0.0
C1104 C 0.15264 0.48676 0.32055 0.0
C1105 C 0.14534 0.46095 0.31007 0.0
C1106 C 0.13117 0.45428 0.29145 0.0
C1107 C 0.12318 0.47272 0.28401 0.0
C1108 C 0.16727 0.49452 0.34062 0.0
C1109 C 0.12406 0.42749 0.27949 0.0
C1110 C 0.18579 0.42731 0.32977 0.0
C1111 C 0.16609 0.40687 0.3401 0.0
C1112 C 0.17874 0.44384 0.31885 0.0
C1113 C 0.15179 0.44072 0.31907 0.0
C1114 C 0.13174 0.41975 0.32935 0.0
C1115 C 0.13898 0.40263 0.33939 0.0
C1116 C 0.20027 0.46494 0.30735 0.0
C1117 C 0.1031 0.4163 0.3305 0.0
H1118 H 0.15215 0.52536 0.32043 0.0
H1119 H 0.11105 0.46669 0.27018 0.0
H1120 H 0.1548 0.47793 0.34986 0.0
H1121 H 0.18792 0.49592 0.34054 0.0
H1122 H 0.17051 0.5149 0.34714 0.0
H1123 H 0.11633 0.42711 0.26449 0.0
H1124 H 0.14267 0.4249 0.2794 0.0
H1125 H 0.10766 0.40915 0.28576 0.0
H1126 H 0.20662 0.43013 0.33006 0.0
H1127 H 0.12379 0.38669 0.34738 0.0
H1128 H 0.20765 0.48655 0.31394 0.0
H1129 H 0.1909 0.46316 0.2926 0.0
H1130 H 0.21866 0.46204 0.30657 0.0
H1131 H 0.1052 0.43595 0.33745 0.0
H1132 H 0.08977 0.39863 0.33875 0.0
H1133 H 0.09231 0.41253 0.31595 0.0
C1134 C 0.36332 0.50039 0.29665 0.0
C1135 C 0.38041 0.49054 0.28987 0.0
C1136 C 0.33688 0.4817 0.30221 0.0
C1137 C 0.32751 0.45253 0.30104 0.0
C1138 C 0.34435 0.44246 0.29337 0.0
C1139 C 0.37073 0.46168 0.28794 0.0
C1140 C 0.31963 0.49333 0.31026 0.0
C1141 C 0.33514 0.41157 0.29179 0.0
C1142 C 0.27767 0.41029 0.33673 0.0
C1143 C 0.25171 0.39692 0.32562 0.0
C1144 C 0.30242 0.42822 0.32884 0.0
C1145 C 0.3013 0.43296 0.30933 0.0
C1146 C 0.27522 0.41933 0.29797 0.0
C1147 C 0.25076 0.40154 0.30624 0.0
C1148 C 0.32978 0.44235 0.34148 0.0
C1149 C 0.2731 0.42373 0.27711 0.0
H1150 H 0.3711 0.52284 0.29831 0.0
H1151 H 0.38422 0.45421 0.28288 0.0
H1152 H 0.29799 0.48179 0.30306 0.0
H1153 H 0.31826 0.49038 0.32569 0.0
H1154 H 0.3287 0.51608 0.30865 0.0
H1155 H 0.34933 0.40687 0.28388 0.0
H1156 H 0.33467 0.40467 0.30631 0.0
H1157 H 0.31365 0.39898 0.28444 0.0
H1158 H 0.2787 0.40693 0.35169 0.0
H1159 H 0.23085 0.39138 0.29749 0.0
H1160 H 0.33939 0.46552 0.34208 0.0
H1161 H 0.34464 0.43682 0.33541 0.0
H1162 H 0.32715 0.43625 0.3563 0.0
H1163 H 0.2805 0.44623 0.27568 0.0
H1164 H 0.25137 0.41096 0.27009 0.0
H1165 H 0.28679 0.41816 0.26935 0.0
C1166 C 0.52398 0.89472 0.28345 0.0
C1167 C 0.49714 0.87193 0.28424 0.0
C1168 C 0.5477 0.8924 0.28831 0.0
C1169 C 0.54421 0.86685 0.29436 0.0
C1170 C 0.51695 0.84341 0.29419 0.0
C1171 C 0.49371 0.84627 0.2891 0.0
C1172 C 0.57639 0.9177 0.28802 0.0
C1173 C 0.51224 0.81584 0.30062 0.0
C1174 C 0.60325 0.85068 0.30053 0.0
C1175 C 0.61064 0.85675 0.32038 0.0
C1176 C 0.58252 0.85504 0.29165 0.0
C1177 C 0.56861 0.86535 0.30292 0.0
C1178 C 0.57658 0.8723 0.32286 0.0
C1179 C 0.59758 0.86807 0.33131 0.0
C1180 C 0.57492 0.84776 0.27033 0.0
C1181 C 0.56211 0.88312 0.33544 0.0
H1182 H 0.52644 0.91462 0.2798 0.0
H1183 H 0.4728 0.82879 0.28984 0.0
H1184 H 0.58593 0.92642 0.3029 0.0
H1185 H 0.59026 0.91163 0.28097 0.0
H1186 H 0.57565 0.93449 0.28048 0.0
H1187 H 0.48993 0.79903 0.2981 0.0
H1188 H 0.52493 0.80873 0.29303 0.0
H1189 H 0.51906 0.81875 0.31614 0.0
H1190 H 0.61335 0.84209 0.29193 0.0
H1191 H 0.60309 0.87281 0.34664 0.0
H1192 H 0.57469 0.86541 0.26368 0.0
H1193 H 0.55357 0.82922 0.26739 0.0
H1194 H 0.58967 0.84285 0.26335 0.0
H1195 H 0.56291 0.90194 0.32995 0.0
H1196 H 0.57164 0.88876 0.35052 0.0
H1197 H 0.53974 0.86683 0.33516 0.0
C1198 C 0.12443 0.64227 0.29388 0.0
C1199 C 0.11332 0.62479 0.3084 0.0
C1200 C 0.13293 0.67103 0.29682 0.0
C1201 C 0.13039 0.6823 0.31473 0.0
C1202 C 0.1185 0.66431 0.32922 0.0
C1203 C 0.11009 0.63574 0.32584 0.0
C1204 C 0.1453 0.68947 0.281 0.0
C1205 C 0.11549 0.6754 0.34853 0.0
C1206 C 0.17877 0.75893 0.33339 0.0
C1207 C 0.16093 0.76999 0.33144 0.0
C1208 C 0.1694 0.73067 0.32729 0.0
C1209 C 0.14154 0.71307 0.31892 0.0
C1210 C 0.1238 0.72449 0.31616 0.0
C1211 C 0.13368 0.75282 0.32254 0.0
C1212 C 0.18899 0.71935 0.33056 0.0
C1213 C 0.09407 0.70653 0.30714 0.0
H1214 H 0.12696 0.6336 0.28041 0.0
H1215 H 0.10156 0.62202 0.33705 0.0
H1216 H 0.13453 0.70152 0.27826 0.0
H1217 H 0.16765 0.70496 0.28539 0.0
H1218 H 0.14378 0.67713 0.26747 0.0
H1219 H 0.10478 0.65844 0.35794 0.0
H1220 H 0.13645 0.69093 0.35578 0.0
H1221 H 0.10348 0.68645 0.34679 0.0
H1222 H 0.19991 0.77219 0.34016 0.0
H1223 H 0.11984 0.76132 0.32096 0.0
H1224 H 0.1899 0.70852 0.31708 0.0
H1225 H 0.18103 0.7036 0.34109 0.0
H1226 H 0.21052 0.73617 0.33602 0.0
H1227 H 0.09343 0.69482 0.29357 0.0
H1228 H 0.084 0.71919 0.30414 0.0
H1229 H 0.08161 0.69075 0.31685 0.0
C1230 C 0.82133 0.03726 0.36785 0.0
C1231 C 0.83703 0.04423 0.38562 0.0
C1232 C 0.79898 0.00991 0.36252 0.0
C1233 C 0.79223 0.9891 0.37536 0.0
C1234 C 0.80727 0.99655 0.39378 0.0
C1235 C 0.82974 0.02411 0.39866 0.0
C1236 C 0.78366 0.00291 0.34274 0.0
C1237 C 0.80049 0.9751 0.40794 0.0
C1238 C 0.72285 0.92109 0.36239 0.0
C1239 C 0.73146 0.90398 0.35299 0.0
C1240 C 0.74246 0.94852 0.37043 0.0
C1241 C 0.77126 0.9592 0.36873 0.0
C1242 C 0.78002 0.94178 0.35949 0.0
C1243 C 0.76003 0.91436 0.35183 0.0
C1244 C 0.7323 0.96627 0.38035 0.0
C1245 C 0.81049 0.95236 0.35722 0.0
H1246 H 0.8273 0.05293 0.35776 0.0
H1247 H 0.84218 0.02964 0.41236 0.0
H1248 H 0.78788 0.9881 0.33421 0.0
H1249 H 0.76077 0.99233 0.34356 0.0
H1250 H 0.79008 0.02189 0.33504 0.0
H1251 H 0.81175 0.98491 0.42234 0.0
H1252 H 0.77769 0.96339 0.40921 0.0
H1253 H 0.80643 0.95956 0.40281 0.0
H1254 H 0.70076 0.91318 0.36324 0.0
H1255 H 0.76678 0.90117 0.34463 0.0
H1256 H 0.73619 0.9841 0.372 0.0
H1257 H 0.74404 0.97533 0.39469 0.0
H1258 H 0.70961 0.95405 0.38204 0.0
H1259 H 0.81853 0.97036 0.34843 0.0
H1260 H 0.81394 0.93586 0.35029 0.0
H1261 H 0.823 0.96007 0.37138 0.0
C1262 C 0.98313 0.81281 0.39746 0.0
C1263 C 0.96446 0.78579 0.40199 0.0
C1264 C 0.00941 0.81942 0.39181 0.0
C1265 C 0.01703 0.79839 0.39066 0.0
C1266 C 0.99875 0.77148 0.39634 0.0
C1267 C 0.97249 0.76542 0.40184 0.0
C1268 C 0.0282 0.84834 0.38586 0.0
C1269 C 0.0062 0.7486 0.39553 0.0
C1270 C 0.06534 0.80416 0.35289 0.0
C1271 C 0.09142 0.81641 0.36374 0.0
C1272 C 0.04099 0.79784 0.36155 0.0
C1273 C 0.04264 0.80372 0.38161 0.0
C1274 C 0.0688 0.81553 0.39272 0.0
C1275 C 0.09287 0.82182 0.38365 0.0
C1276 C 0.01353 0.78539 0.34915 0.0
C1277 C 0.07146 0.82195 0.41413 0.0
H1278 H 0.9766 0.82838 0.39738 0.0
H1279 H 0.95776 0.74441 0.40515 0.0
H1280 H 0.04972 0.85736 0.39296 0.0
H1281 H 0.02943 0.84678 0.3702 0.0
H1282 H 0.02047 0.86304 0.38935 0.0
H1283 H 0.99143 0.73015 0.40261 0.0
H1284 H 0.00582 0.7415 0.38038 0.0
H1285 H 0.02769 0.75672 0.40245 0.0
H1286 H 0.06395 0.79992 0.33752 0.0
H1287 H 0.11287 0.83112 0.39221 0.0
H1288 H 0.00502 0.79982 0.35035 0.0
H1289 H 0.99801 0.76521 0.35413 0.0
H1290 H 0.01568 0.78154 0.33385 0.0
H1291 H 0.06613 0.83853 0.41754 0.0
H1292 H 0.09291 0.82925 0.42086 0.0
H1293 H 0.05649 0.80301 0.42067 0.0
C1294 C 0.21797 0.19814 0.39663 0.0
C1295 C 0.23064 0.18992 0.38309 0.0
C1296 C 0.20899 0.21729 0.39256 0.0
C1297 C 0.21268 0.22808 0.37449 0.0
C1298 C 0.22598 0.22003 0.36097 0.0
C1299 C 0.23481 0.20104 0.36547 0.0
C1300 C 0.19506 0.22551 0.40736 0.0
C1301 C 0.23026 0.23091 0.34154 0.0
C1302 C 0.16516 0.25263 0.35272 0.0
C1303 C 0.18273 0.28189 0.35481 0.0
C1304 C 0.17428 0.23492 0.35974 0.0
C1305 C 0.2016 0.24677 0.36919 0.0
C1306 C 0.21904 0.27638 0.37199 0.0
C1307 C 0.20943 0.2936 0.36468 0.0
C1308 C 0.15503 0.20347 0.35639 0.0
C1309 C 0.2482 0.28985 0.3821 0.0
H1310 H 0.21473 0.18932 0.41025 0.0
H1311 H 0.24458 0.19446 0.35503 0.0
H1312 H 0.20559 0.24874 0.41008 0.0
H1313 H 0.173 0.21787 0.40195 0.0
H1314 H 0.19538 0.21671 0.42111 0.0
H1315 H 0.24175 0.22328 0.33292 0.0
H1316 H 0.2097 0.22411 0.33352 0.0
H1317 H 0.24208 0.25423 0.34314 0.0
H1318 H 0.14442 0.2435 0.34521 0.0
H1319 H 0.22309 0.31622 0.36632 0.0
H1320 H 0.15313 0.19389 0.37004 0.0
H1321 H 0.16395 0.1942 0.34661 0.0
H1322 H 0.1338 0.19767 0.35003 0.0
H1323 H 0.24784 0.28106 0.39592 0.0
H1324 H 0.25799 0.31304 0.38486 0.0
H1325 H 0.26153 0.28512 0.37324 0.0
C1326 C 0.64408 0.54626 0.74353 0.0
C1327 C 0.6367 0.51793 0.7404 0.0
C1328 C 0.6688 0.56759 0.73732 0.0
C1329 C 0.6866 0.56039 0.72788 0.0
C1330 C 0.67968 0.53191 0.72529 0.0
C1331 C 0.65484 0.51107 0.73155 0.0
C1332 C 0.67545 0.59771 0.74034 0.0
C1333 C 0.69821 0.52333 0.71551 0.0
C1334 C 0.73495 0.6078 0.69334 0.0
C1335 C 0.76096 0.62104 0.70437 0.0
C1336 C 0.71048 0.5886 0.701 0.0
C1337 C 0.71203 0.58238 0.72012 0.0
C1338 C 0.73812 0.59607 0.73144 0.0
C1339 C 0.76222 0.61524 0.72345 0.0
C1340 C 0.68302 0.57453 0.68848 0.0
C1341 C 0.74075 0.58998 0.75186 0.0
H1342 H 0.63003 0.55165 0.75024 0.0
H1343 H 0.64942 0.48924 0.72934 0.0
H1344 H 0.69674 0.61113 0.74786 0.0
H1345 H 0.67527 0.60576 0.72629 0.0
H1346 H 0.66025 0.59999 0.74877 0.0
H1347 H 0.69043 0.50044 0.71531 0.0
H1348 H 0.69944 0.52879 0.70055 0.0
H1349 H 0.71976 0.53502 0.72285 0.0
H1350 H 0.73369 0.61219 0.67863 0.0
H1351 H 0.78215 0.62535 0.73216 0.0
H1352 H 0.66731 0.57766 0.69559 0.0
H1353 H 0.67484 0.55155 0.68628 0.0
H1354 H 0.68508 0.58273 0.67427 0.0
H1355 H 0.72615 0.59336 0.76022 0.0
H1356 H 0.76231 0.6034 0.75902 0.0
H1357 H 0.7349 0.56763 0.75217 0.0
C1358 C 0.49889 0.13396 0.73401 0.0
C1359 C 0.49202 0.11081 0.74438 0.0
C1360 C 0.47832 0.13988 0.72707 0.0
C1361 C 0.45016 0.12211 0.73047 0.0
C1362 C 0.44314 0.09893 0.74116 0.0
C1363 C 0.46419 0.09361 0.74805 0.0
C1364 C 0.48667 0.16495 0.71587 0.0
C1365 C 0.41332 0.07941 0.74496 0.0
C1366 C 0.40036 0.15038 0.72425 0.0
C1367 C 0.38768 0.13897 0.70558 0.0
C1368 C 0.42045 0.14477 0.73266 0.0
C1369 C 0.42796 0.12724 0.72218 0.0
C1370 C 0.41484 0.11521 0.70349 0.0
C1371 C 0.39493 0.12127 0.6954 0.0
C1372 C 0.43404 0.15806 0.75261 0.0
C1373 C 0.42213 0.09624 0.69191 0.0
H1374 H 0.52044 0.1475 0.73136 0.0
H1375 H 0.45875 0.07553 0.75589 0.0
H1376 H 0.47612 0.15782 0.70109 0.0
H1377 H 0.47982 0.17898 0.7225 0.0
H1378 H 0.50961 0.1773 0.71513 0.0
H1379 H 0.4115 0.06297 0.75413 0.0
H1380 H 0.40467 0.09152 0.75202 0.0
H1381 H 0.40019 0.06895 0.73122 0.0
H1382 H 0.39494 0.1641 0.73224 0.0
H1383 H 0.38518 0.11224 0.68101 0.0
H1384 H 0.45679 0.17237 0.75221 0.0
H1385 H 0.43158 0.14165 0.76197 0.0
H1386 H 0.42504 0.17025 0.75913 0.0
H1387 H 0.44449 0.10804 0.68933 0.0
H1388 H 0.40925 0.08769 0.67788 0.0
H1389 H 0.41913 0.0784 0.69997 0.0
C1390 C 0.89868 0.38047 0.70443 0.0
C1391 C 0.8897 0.3838 0.72214 0.0
C1392 C 0.89001 0.35372 0.69529 0.0
C1393 C 0.8727 0.3296 0.70435 0.0
C1394 C 0.86442 0.3327 0.72254 0.0
C1395 C 0.87269 0.35972 0.7311 0.0
C1396 C 0.89899 0.35129 0.67577 0.0
C1397 C 0.84655 0.30745 0.73286 0.0
C1398 C 0.82836 0.26003 0.6736 0.0
C1399 C 0.84505 0.24766 0.67543 0.0
C1400 C 0.83717 0.28678 0.68288 0.0
C1401 C 0.86296 0.30112 0.6946 0.0
C1402 C 0.87977 0.28858 0.69657 0.0
C1403 C 0.87088 0.26227 0.68661 0.0
C1404 C 0.81903 0.29982 0.67999 0.0
C1405 C 0.90708 0.30287 0.70928 0.0
H1406 H 0.91245 0.39882 0.69757 0.0
H1407 H 0.86533 0.36188 0.74466 0.0
H1408 H 0.91112 0.34025 0.6762 0.0
H1409 H 0.88031 0.33857 0.66532 0.0
H1410 H 0.91201 0.37211 0.67051 0.0
H1411 H 0.84344 0.3135 0.74745 0.0
H1412 H 0.82578 0.29434 0.72459 0.0
H1413 H 0.85633 0.29418 0.73404 0.0
H1414 H 0.80846 0.24886 0.66483 0.0
H1415 H 0.88413 0.25303 0.68771 0.0
H1416 H 0.83102 0.3203 0.67408 0.0
H1417 H 0.81279 0.30405 0.69392 0.0
H1418 H 0.79984 0.28613 0.67014 0.0
H1419 H 0.92201 0.32286 0.70379 0.0
H1420 H 0.91681 0.28951 0.71015 0.0
H1421 H 0.90364 0.30821 0.72393 0.0
C1422 C 0.19334 0.97927 0.60968 0.0
C1423 C 0.16955 0.96028 0.61813 0.0
C1424 C 0.21212 0.00627 0.6188 0.0
C1425 C 0.20787 0.01416 0.63724 0.0
C1426 C 0.18404 0.99528 0.64588 0.0
C1427 C 0.1649 0.96898 0.63605 0.0
C1428 C 0.23674 0.02623 0.60879 0.0
C1429 C 0.17908 0.00256 0.66574 0.0
C1430 C 0.27137 0.07013 0.6694 0.0
C1431 C 0.26677 0.0929 0.6697 0.0
C1432 C 0.25227 0.04432 0.65895 0.0
C1433 C 0.22877 0.04173 0.64785 0.0
C1434 C 0.22477 0.06519 0.64752 0.0
C1435 C 0.24351 0.09035 0.65883 0.0
C1436 C 0.25682 0.01961 0.66025 0.0
C1437 C 0.20077 0.06374 0.63517 0.0
H1438 H 0.19776 0.973 0.59607 0.0
H1439 H 0.14632 0.95516 0.64261 0.0
H1440 H 0.2382 0.04708 0.6091 0.0
H1441 H 0.25642 0.02947 0.61633 0.0
H1442 H 0.23529 0.01823 0.59366 0.0
H1443 H 0.16004 0.98514 0.67072 0.0
H1444 H 0.19733 0.0076 0.67601 0.0
H1445 H 0.17687 0.02149 0.66607 0.0
H1446 H 0.28945 0.07226 0.67786 0.0
H1447 H 0.24033 0.10824 0.65887 0.0
H1448 H 0.25886 0.01193 0.64587 0.0
H1449 H 0.23844 0.00201 0.66569 0.0
H1450 H 0.27581 0.02497 0.66985 0.0
H1451 H 0.20058 0.05608 0.6202 0.0
H1452 H 0.20199 0.08449 0.63528 0.0
H1453 H 0.18064 0.04856 0.64027 0.0
C1454 C 0.0211 0.20128 0.61597 0.0
C1455 C 0.03769 0.22565 0.60719 0.0
C1456 C 0.996 0.19633 0.62284 0.0
C1457 C 0.98715 0.2162 0.62088 0.0
C1458 C 0.00331 0.2404 0.61146 0.0
C1459 C 0.02841 0.24483 0.60468 0.0
C1460 C 0.97928 0.17011 0.63262 0.0
C1461 C 0.99449 0.262 0.60906 0.0
C1462 C 0.91075 0.18993 0.62709 0.0
C1463 C 0.91213 0.19918 0.64636 0.0
C1464 C 0.93504 0.1961 0.61842 0.0
C1465 C 0.96142 0.21184 0.62927 0.0
C1466 C 0.96305 0.22179 0.64859 0.0
C1467 C 0.93839 0.21535 0.6569 0.0
C1468 C 0.93238 0.18513 0.59778 0.0
C1469 C 0.99082 0.23865 0.66063 0.0
H1470 H 0.02797 0.18617 0.61766 0.0
H1471 H 0.04125 0.26375 0.59801 0.0
H1472 H 0.97805 0.176 0.64773 0.0
H1473 H 0.95757 0.15793 0.62558 0.0
H1474 H 0.98857 0.15631 0.6324 0.0
H1475 H 0.00847 0.27881 0.60046 0.0
H1476 H 0.97279 0.25178 0.60203 0.0
H1477 H 0.99465 0.27185 0.62331 0.0
H1478 H 0.89061 0.17747 0.61876 0.0
H1479 H 0.93973 0.2227 0.67175 0.0
H1480 H 0.93984 0.16982 0.59688 0.0
H1481 H 0.94572 0.20258 0.58942 0.0
H1482 H 0.91049 0.17461 0.59101 0.0
H1483 H 1.00066 0.22552 0.66237 0.0
H1484 H 0.98866 0.24624 0.67505 0.0
H1485 H 0.00523 0.25705 0.65339 0.0
C1486 C 0.77276 0.81014 0.64404 0.0
C1487 C 0.78182 0.82125 0.62671 0.0
C1488 C 0.78085 0.79221 0.65191 0.0
C1489 C 0.79779 0.78442 0.64196 0.0
C1490 C 0.80553 0.79401 0.62387 0.0
C1491 C 0.79767 0.81254 0.61652 0.0
C1492 C 0.77226 0.7826 0.6713 0.0
C1493 C 0.82295 0.7855 0.6126 0.0
C1494 C 0.84345 0.76579 0.67292 0.0
C1495 C 0.82704 0.73646 0.67177 0.0
C1496 C 0.83445 0.78161 0.66292 0.0
C1497 C 0.80868 0.76768 0.65117 0.0
C1498 C 0.79245 0.73798 0.64949 0.0
C1499 C 0.80159 0.72276 0.6601 0.0
C1500 C 0.85211 0.81329 0.6654 0.0
C1501 C 0.76516 0.72231 0.63682 0.0
H1502 H 0.75981 0.81604 0.65176 0.0
H1503 H 0.80483 0.821 0.60314 0.0
H1504 H 0.76117 0.75934 0.67051 0.0
H1505 H 0.79114 0.79072 0.68165 0.0
H1506 H 0.75844 0.78996 0.67693 0.0
H1507 H 0.82441 0.79199 0.59788 0.0
H1508 H 0.84439 0.79535 0.62001 0.0
H1509 H 0.814 0.76239 0.6117 0.0
H1510 H 0.86313 0.77645 0.68196 0.0
H1511 H 0.78859 0.70013 0.65945 0.0
H1512 H 0.84022 0.82235 0.67192 0.0
H1513 H 0.85714 0.82147 0.65129 0.0
H1514 H 0.87198 0.82083 0.67461 0.0
H1515 H 0.7494 0.72645 0.6429 0.0
H1516 H 0.7568 0.69924 0.63532 0.0
H1517 H 0.76792 0.72978 0.62239 0.0
C1518 C 0.03036 0.83244 0.63051 0.0
C1519 C 0.04726 0.8218 0.62467 0.0
C1520 C 0.0037 0.81451 0.63606 0.0
C1521 C 0.99393 0.78533 0.63585 0.0
C1522 C 0.01063 0.77444 0.62918 0.0
C1523 C 0.03722 0.79289 0.62372 0.0
C1524 C 0.98657 0.82697 0.64303 0.0
C1525 C 1.001 0.74351 0.62867 0.0
C1526 C 0.94268 0.74515 0.67139 0.0
C1527 C 0.91711 0.73111 0.65983 0.0
C1528 C 0.96774 0.76282 0.66374 0.0
C1529 C 0.96732 0.76661 0.64402 0.0
C1530 C 0.9416 0.75254 0.63225 0.0
C1531 C 0.91683 0.73498 0.64029 0.0
C1532 C 0.99472 0.77746 0.6768 0.0
C1533 C 0.94022 0.756 0.61117 0.0
H1534 H 0.03842 0.85493 0.6314 0.0
H1535 H 0.05057 0.78484 0.61937 0.0
H1536 H 0.96509 0.81536 0.63557 0.0
H1537 H 0.98473 0.82493 0.65853 0.0
H1538 H 0.99604 0.84956 0.64077 0.0
H1539 H 0.01532 0.73807 0.6216 0.0
H1540 H 0.9998 0.73743 0.64347 0.0
H1541 H 0.97973 0.7308 0.62099 0.0
H1542 H 0.94319 0.74236 0.68649 0.0
H1543 H 0.89724 0.72425 0.63118 0.0
H1544 H 0.00459 0.80056 0.67664 0.0
H1545 H 0.00963 0.77131 0.67163 0.0
H1546 H 0.9915 0.77235 0.6918 0.0
H1547 H 0.9486 0.7785 0.6091 0.0
H1548 H 0.91855 0.74368 0.60399 0.0
H1549 H 0.95347 0.74918 0.60403 0.0
C1550 C 0.1982 0.23943 0.62092 0.0
C1551 C 0.17051 0.21804 0.62121 0.0
C1552 C 0.22035 0.23442 0.62518 0.0
C1553 C 0.2144 0.20754 0.63009 0.0
C1554 C 0.18627 0.18552 0.62928 0.0
C1555 C 0.16462 0.19109 0.62483 0.0
C1556 C 0.25004 0.25831 0.62564 0.0
C1557 C 0.17899 0.15662 0.63448 0.0
C1558 C 0.26981 0.18617 0.63529 0.0
C1559 C 0.27677 0.19079 0.65519 0.0
C1560 C 0.25026 0.19245 0.62675 0.0
C1561 C 0.23717 0.20329 0.63842 0.0
C1562 C 0.24459 0.20857 0.65845 0.0
C1563 C 0.26437 0.20239 0.66656 0.0
C1564 C 0.24314 0.18685 0.60533 0.0
C1565 C 0.23097 0.21993 0.67143 0.0
H1566 H 0.20256 0.26034 0.61824 0.0
H1567 H 0.14305 0.17471 0.62518 0.0
H1568 H 0.25937 0.26557 0.6407 0.0
H1569 H 0.26295 0.25121 0.6183 0.0
H1570 H 0.25116 0.27644 0.61878 0.0
H1571 H 0.15633 0.14117 0.63123 0.0
H1572 H 0.19097 0.14879 0.62668 0.0
H1573 H 0.18481 0.15777 0.64999 0.0
H1574 H 0.2794 0.17736 0.62636 0.0
H1575 H 0.26957 0.20603 0.68193 0.0
H1576 H 0.24495 0.20579 0.59934 0.0
H1577 H 0.22115 0.16968 0.60187 0.0
H1578 H 0.2569 0.18072 0.59815 0.0
H1579 H 0.23366 0.23995 0.6668 0.0
H1580 H 0.23975 0.22375 0.68661 0.0
H1581 H 0.20817 0.20481 0.67049 0.0
C1582 C 0.79142 0.9762 0.62772 0.0
C1583 C 0.7792 0.95793 0.64165 0.0
C1584 C 0.79846 0.00452 0.63079 0.0
C1585 C 0.79345 0.01451 0.64828 0.0
C1586 C 0.77997 0.99558 0.66198 0.0
C1587 C 0.77297 0.96745 0.65845 0.0
C1588 C 0.81244 0.02398 0.61576 0.0
C1589 C 0.7744 0.00536 0.68084 0.0
C1590 C 0.84123 0.08987 0.66952 0.0
C1591 C 0.82404 0.10153 0.66684 0.0
C1592 C 0.83183 0.0618 0.66293 0.0
C1593 C 0.80465 0.04509 0.65325 0.0
C1594 C 0.78757 0.05709 0.64986 0.0
C1595 C 0.7974 0.08517 0.65686 0.0
C1596 C 0.85062 0.04975 0.66698 0.0
C1597 C 0.75864 0.04006 0.63938 0.0
H1598 H 0.7963 0.96861 0.61478 0.0
H1599 H 0.76365 0.95311 0.66921 0.0
H1600 H 0.80242 0.03673 0.613 0.0
H1601 H 0.83469 0.0388 0.62097 0.0
H1602 H 0.8116 0.01233 0.60208 0.0
H1603 H 0.76199 0.98763 0.68932 0.0
H1604 H 0.79455 0.02013 0.68942 0.0
H1605 H 0.76301 0.01689 0.67845 0.0
H1606 H 0.86189 0.10252 0.67717 0.0
H1607 H 0.78402 0.09413 0.65482 0.0
H1608 H 0.85314 0.04009 0.65354 0.0
H1609 H 0.84094 0.03292 0.67661 0.0
H1610 H 0.87166 0.06592 0.67381 0.0
H1611 H 0.75921 0.02901 0.62588 0.0
H1612 H 0.74935 0.0533 0.63599 0.0
H1613 H 0.74474 0.02376 0.6483 0.0
C1614 C 0.49445 0.35681 0.7324 0.0
C1615 C 0.50046 0.37673 0.71934 0.0
C1616 C 0.47217 0.32906 0.72795 0.0
C1617 C 0.45604 0.32125 0.70993 0.0
C1618 C 0.46143 0.34186 0.69713 0.0
C1619 C 0.48362 0.36941 0.70204 0.0
C1620 C 0.46684 0.3078 0.74207 0.0
C1621 C 0.44489 0.33447 0.67776 0.0
C1622 C 0.42479 0.24686 0.68608 0.0
C1623 C 0.39627 0.23576 0.68789 0.0
C1624 C 0.4445 0.27439 0.69367 0.0
C1625 C 0.43551 0.29116 0.70352 0.0
C1626 C 0.40681 0.2797 0.70598 0.0
C1627 C 0.38747 0.25217 0.69798 0.0
C1628 C 0.47487 0.28583 0.6906 0.0
C1629 C 0.39645 0.29675 0.71659 0.0
H1630 H 0.50777 0.36262 0.74574 0.0
H1631 H 0.4886 0.38495 0.69193 0.0
H1632 H 0.44422 0.29546 0.74384 0.0
H1633 H 0.47324 0.29279 0.73657 0.0
H1634 H 0.47863 0.3179 0.75629 0.0
H1635 H 0.45022 0.35334 0.67016 0.0
H1636 H 0.44915 0.32006 0.66879 0.0
H1637 H 0.42215 0.3233 0.67924 0.0
H1638 H 0.43169 0.2342 0.67835 0.0
H1639 H 0.36541 0.24367 0.69938 0.0
H1640 H 0.48805 0.29386 0.70451 0.0
H1641 H 0.48188 0.30377 0.6818 0.0
H1642 H 0.47858 0.26973 0.68331 0.0
H1643 H 0.40896 0.30619 0.73066 0.0
H1644 H 0.37405 0.2839 0.71894 0.0
H1645 H 0.39907 0.3143 0.70834 0.0
C1646 C 0.64494 0.14086 0.7276 0.0
C1647 C 0.62722 0.11358 0.73214 0.0
C1648 C 0.67147 0.14865 0.7219 0.0
C1649 C 0.68032 0.12856 0.72072 0.0
C1650 C 0.66295 0.10136 0.72635 0.0
C1651 C 0.63641 0.09412 0.73189 0.0
C1652 C 0.68926 0.17781 0.716 0.0
C1653 C 0.67171 0.07945 0.72548 0.0
C1654 C 0.73024 0.13691 0.68354 0.0
C1655 C 0.75612 0.14979 0.69469 0.0
C1656 C 0.70544 0.12966 0.6919 0.0
C1657 C 0.70647 0.13523 0.71193 0.0
C1658 C 0.73246 0.14786 0.72332 0.0
C1659 C 0.75697 0.1551 0.71456 0.0
C1660 C 0.67816 0.11638 0.67922 0.0
C1661 C 0.73444 0.15395 0.74472 0.0
H1662 H 0.63749 0.15571 0.72757 0.0
H1663 H 0.62238 0.07289 0.73518 0.0
H1664 H 0.7108 0.18771 0.72325 0.0
H1665 H 0.69078 0.17647 0.70038 0.0
H1666 H 0.68051 0.19166 0.71938 0.0
H1667 H 0.65739 0.06056 0.73239 0.0
H1668 H 0.67188 0.07281 0.71033 0.0
H1669 H 0.69324 0.08832 0.73256 0.0
H1670 H 0.72933 0.13274 0.66821 0.0
H1671 H 0.77682 0.16494 0.72336 0.0
H1672 H 0.66867 0.12994 0.68038 0.0
H1673 H 0.66316 0.09578 0.68396 0.0
H1674 H 0.68086 0.11308 0.66395 0.0
H1675 H 0.72724 0.1691 0.74806 0.0
H1676 H 0.75609 0.16284 0.75163 0.0
H1677 H 0.72052 0.13441 0.75112 0.0
C1678 C 0.88786 0.53244 0.7308 0.0
C1679 C 0.90135 0.52599 0.71691 0.0
C1680 C 0.87946 0.55234 0.72799 0.0
C1681 C 0.88433 0.56542 0.71077 0.0
C1682 C 0.89908 0.55965 0.69715 0.0
C1683 C 0.90748 0.54002 0.70045 0.0
C1684 C 0.86425 0.55834 0.74297 0.0
C1685 C 0.90451 0.5729 0.67854 0.0
C1686 C 0.83452 0.58635 0.68831 0.0
C1687 C 0.85073 0.61572 0.69071 0.0
C1688 C 0.84471 0.5697 0.69564 0.0
C1689 C 0.87165 0.5828 0.70585 0.0
C1690 C 0.88746 0.61248 0.70927 0.0
C1691 C 0.87691 0.62865 0.70147 0.0
C1692 C 0.82724 0.53812 0.69153 0.0
C1693 C 0.91602 0.6272 0.72039 0.0
H1694 H 0.88307 0.5213 0.74348 0.0
H1695 H 0.9178 0.5347 0.68971 0.0
H1696 H 0.87277 0.58132 0.74586 0.0
H1697 H 0.84183 0.54872 0.73766 0.0
H1698 H 0.86576 0.54977 0.7566 0.0
H1699 H 0.91778 0.56753 0.67005 0.0
H1700 H 0.88435 0.56561 0.6698 0.0
H1701 H 0.91493 0.5961 0.68131 0.0
H1702 H 0.81417 0.57629 0.68011 0.0
H1703 H 0.8895 0.65137 0.70335 0.0
H1704 H 0.82517 0.52796 0.70493 0.0
H1705 H 0.83775 0.53048 0.68192 0.0
H1706 H 0.80598 0.53121 0.6846 0.0
H1707 H 0.91566 0.61711 0.73363 0.0
H1708 H 0.92363 0.64985 0.72432 0.0
H1709 H 0.93117 0.62544 0.71164 0.0
C1710 C 0.44079 0.9406 0.21979 0.0
C1711 C 0.44146 0.91677 0.22509 0.0
C1712 C 0.45131 0.95233 0.20288 0.0
C1713 C 0.46271 0.93991 0.1909 0.0
C1714 C 0.46332 0.91578 0.19611 0.0
C1715 C 0.45275 0.90454 0.21314 0.0
C1716 C 0.45045 0.9782 0.19793 0.0
C1717 C 0.47512 0.90179 0.18367 0.0
C1718 C 0.46812 0.95616 0.13899 0.0
C1719 C 0.49637 0.97693 0.13937 0.0
C1720 C 0.45693 0.94379 0.15559 0.0
C1721 C 0.47435 0.95243 0.17307 0.0
C1722 C 0.5029 0.97325 0.17355 0.0
C1723 C 0.51356 0.98515 0.15672 0.0
C1724 C 0.42639 0.92163 0.15444 0.0
C1725 C 0.52219 0.98304 0.19188 0.0
H1726 H 0.43241 0.95037 0.22905 0.0
H1727 H 0.45301 0.88592 0.217 0.0
H1728 H 0.47198 0.99571 0.19701 0.0
H1729 H 0.4386 0.97399 0.18371 0.0
H1730 H 0.4406 0.98512 0.20864 0.0
H1731 H 0.47384 0.88302 0.18964 0.0
H1732 H 0.46363 0.89527 0.16916 0.0
H1733 H 0.49733 0.91691 0.18206 0.0
H1734 H 0.45456 0.94987 0.12576 0.0
H1735 H 0.53551 1.00081 0.15714 0.0
H1736 H 0.41547 0.92879 0.164 0.0
H1737 H 0.42415 0.90197 0.15945 0.0
H1738 H 0.4158 0.91681 0.13968 0.0
H1739 H 0.51418 0.9917 0.20286 0.0
H1740 H 0.54385 0.99944 0.18987 0.0
H1741 H 0.52282 0.965 0.19757 0.0
C1742 C 0.11832 0.53662 0.2264 0.0
C1743 C 0.1012 0.53768 0.23995 0.0
C1744 C 0.11128 0.53562 0.20672 0.0
C1745 C 0.08652 0.53562 0.20044 0.0
C1746 C 0.06922 0.53674 0.21405 0.0
C1747 C 0.07673 0.53771 0.23357 0.0
C1748 C 0.13029 0.53452 0.19264 0.0
C1749 C 0.04257 0.53667 0.20798 0.0
C1750 C 0.07628 0.55809 0.152 0.0
C1751 C 0.05794 0.53216 0.14143 0.0
C1752 C 0.08663 0.55951 0.17098 0.0
C1753 C 0.07842 0.53438 0.17966 0.0
C1754 C 0.06074 0.5081 0.16885 0.0
C1755 C 0.05074 0.50731 0.14987 0.0
C1756 C 0.10558 0.58794 0.18196 0.0
C1757 C 0.05143 0.48082 0.17757 0.0
H1758 H 0.13736 0.5368 0.2312 0.0
H1759 H 0.06308 0.53795 0.24388 0.0
H1760 H 0.11862 0.51518 0.18253 0.0
H1761 H 0.13759 0.55269 0.18405 0.0
H1762 H 0.14882 0.53477 0.19982 0.0
H1763 H 0.03155 0.53784 0.22036 0.0
H1764 H 0.04728 0.55477 0.19971 0.0
H1765 H 0.02824 0.51725 0.19847 0.0
H1766 H 0.08229 0.57738 0.14548 0.0
H1767 H 0.03639 0.48719 0.14188 0.0
H1768 H 0.12478 0.58893 0.18855 0.0
H1769 H 0.09479 0.59127 0.19375 0.0
H1770 H 0.11173 0.60537 0.17275 0.0
H1771 H 0.06976 0.48028 0.18426 0.0
H1772 H 0.03951 0.46219 0.16686 0.0
H1773 H 0.03795 0.4792 0.18903 0.0
C1774 C 0.46377 0.54004 0.21786 0.0
C1775 C 0.46199 0.56333 0.22511 0.0
C1776 C 0.46806 0.53667 0.19864 0.0
C1777 C 0.47083 0.55714 0.18635 0.0
C1778 C 0.46755 0.57987 0.19329 0.0
C1779 C 0.4631 0.58264 0.21255 0.0
C1780 C 0.47124 0.51202 0.19181 0.0
C1781 C 0.47024 0.60211 0.18066 0.0
C1782 C 0.51727 0.5685 0.14627 0.0
C1783 C 0.49771 0.55437 0.13022 0.0
C1784 C 0.50873 0.56968 0.1645 0.0
C1785 C 0.47985 0.55627 0.16688 0.0
C1786 C 0.45994 0.54195 0.15077 0.0
C1787 C 0.46909 0.5412 0.13263 0.0
C1788 C 0.53069 0.58513 0.18129 0.0
C1789 C 0.42898 0.52736 0.1527 0.0
H1790 H 0.46327 0.52515 0.22744 0.0
H1791 H 0.46128 0.60044 0.21792 0.0
H1792 H 0.45807 0.50137 0.17812 0.0
H1793 H 0.49328 0.51962 0.18913 0.0
H1794 H 0.46544 0.49637 0.20242 0.0
H1795 H 0.46446 0.61685 0.18761 0.0
H1796 H 0.49216 0.61439 0.17717 0.0
H1797 H 0.45682 0.59224 0.16696 0.0
H1798 H 0.5394 0.57828 0.14467 0.0
H1799 H 0.4538 0.53049 0.12031 0.0
H1800 H 0.52846 0.57042 0.19205 0.0
H1801 H 0.52777 0.60189 0.18835 0.0
H1802 H 0.55227 0.59487 0.17699 0.0
H1803 H 0.42349 0.51107 0.16277 0.0
H1804 H 0.41618 0.51722 0.13879 0.0
H1805 H 0.42334 0.54269 0.15878 0.0
C1806 C 0.90054 0.43359 0.79251 0.0
C1807 C 0.91627 0.45333 0.78008 0.0
C1808 C 0.90868 0.43841 0.81225 0.0
C1809 C 0.93306 0.46368 0.81981 0.0
C1810 C 0.94815 0.48438 0.8075 0.0
C1811 C 0.93962 0.47893 0.78777 0.0
C1812 C 0.89196 0.41582 0.82487 0.0
C1813 C 0.97415 0.51168 0.81502 0.0
C1814 C 0.94601 0.48137 0.87391 0.0
C1815 C 0.96422 0.47141 0.87882 0.0
C1816 C 0.93595 0.47942 0.85474 0.0
C1817 C 0.94424 0.46714 0.84016 0.0
C1818 C 0.96286 0.45738 0.84502 0.0
C1819 C 0.97269 0.45975 0.86423 0.0
C1820 C 0.91622 0.49015 0.85009 0.0
C1821 C 0.97224 0.44417 0.82992 0.0
H1822 H 0.88217 0.41399 0.78672 0.0
H1823 H 0.95202 0.49422 0.77828 0.0
H1824 H 0.90465 0.40681 0.83042 0.0
H1825 H 0.88676 0.42486 0.83739 0.0
H1826 H 0.87225 0.3985 0.81709 0.0
H1827 H 0.98159 0.52684 0.80407 0.0
H1828 H 0.9702 0.52158 0.82772 0.0
H1829 H 0.99108 0.50745 0.81962 0.0
H1830 H 0.93921 0.49023 0.8851 0.0
H1831 H 0.98722 0.45257 0.86782 0.0
H1832 H 0.89576 0.47253 0.84356 0.0
H1833 H 0.9246 0.50567 0.83945 0.0
H1834 H 0.91273 0.5002 0.86296 0.0
H1835 H 0.95384 0.42526 0.82221 0.0
H1836 H 0.987 0.43788 0.83606 0.0
H1837 H 0.9826 0.45911 0.81922 0.0
C1838 C 0.58139 0.4836 0.80309 0.0
C1839 C 0.56325 0.47562 0.78623 0.0
C1840 C 0.57214 0.48479 0.82109 0.0
C1841 C 0.54408 0.47799 0.82229 0.0
C1842 C 0.52569 0.46999 0.80533 0.0
C1843 C 0.53546 0.46882 0.78752 0.0
C1844 C 0.59236 0.4932 0.83883 0.0
C1845 C 0.49569 0.46279 0.80597 0.0
C1846 C 0.51167 0.45616 0.86896 0.0
C1847 C 0.51351 0.48104 0.87694 0.0
C1848 C 0.52179 0.45496 0.85131 0.0
C1849 C 0.53393 0.47917 0.84129 0.0
C1850 C 0.53604 0.50441 0.84933 0.0
C1851 C 0.52589 0.50506 0.86706 0.0
C1852 C 0.51937 0.42771 0.84333 0.0
C1853 C 0.5487 0.53065 0.83907 0.0
H1854 H 0.6028 0.48855 0.80222 0.0
H1855 H 0.52141 0.46296 0.77455 0.0
H1856 H 0.59434 0.51211 0.84691 0.0
H1857 H 0.58429 0.47611 0.84838 0.0
H1858 H 0.61347 0.49782 0.83546 0.0
H1859 H 0.4841 0.4571 0.79149 0.0
H1860 H 0.48475 0.44491 0.81462 0.0
H1861 H 0.49496 0.48093 0.81301 0.0
H1862 H 0.50248 0.43763 0.87663 0.0
H1863 H 0.5271 0.52427 0.87301 0.0
H1864 H 0.54034 0.43111 0.84077 0.0
H1865 H 0.50638 0.42026 0.82934 0.0
H1866 H 0.50989 0.41094 0.85305 0.0
H1867 H 0.57036 0.53664 0.83629 0.0
H1868 H 0.54917 0.54869 0.84737 0.0
H1869 H 0.53653 0.52655 0.825 0.0
C1870 C 0.51018 0.05992 0.80066 0.0
C1871 C 0.53559 0.08059 0.79499 0.0
C1872 C 0.50826 0.05193 0.81928 0.0
C1873 C 0.53234 0.06499 0.83267 0.0
C1874 C 0.55833 0.0852 0.82686 0.0
C1875 C 0.55968 0.09268 0.80801 0.0
C1876 C 0.4802 0.03006 0.82475 0.0
C1877 C 0.58444 0.09959 0.84074 0.0
C1878 C 0.5149 0.06356 0.88404 0.0
C1879 C 0.51618 0.04015 0.88952 0.0
C1880 C 0.52162 0.07283 0.86593 0.0
C1881 C 0.52966 0.05822 0.8529 0.0
C1882 C 0.5322 0.03534 0.85866 0.0
C1883 C 0.52549 0.02662 0.87693 0.0
C1884 C 0.51889 0.09749 0.86043 0.0
C1885 C 0.54055 0.01912 0.84519 0.0
H1886 H 0.4916 0.05023 0.79052 0.0
H1887 H 0.57933 0.10871 0.80366 0.0
H1888 H 0.48188 0.01281 0.83088 0.0
H1889 H 0.4733 0.03964 0.83592 0.0
H1890 H 0.46384 0.02089 0.81238 0.0
H1891 H 0.60334 0.11321 0.83366 0.0
H1892 H 0.58206 0.11273 0.85218 0.0
H1893 H 0.58769 0.08378 0.84773 0.0
H1894 H 0.50815 0.07438 0.89384 0.0
H1895 H 0.52636 0.00839 0.88102 0.0
H1896 H 0.50123 0.09013 0.84912 0.0
H1897 H 0.5381 0.11301 0.85448 0.0
H1898 H 0.51508 0.10823 0.87276 0.0
H1899 H 0.52358 0.00725 0.83341 0.0
H1900 H 0.5446 0.00399 0.8525 0.0
H1901 H 0.55956 0.03368 0.83861 0.0
C1902 C 0.12259 0.24377 0.54915 0.0
C1903 C 0.11021 0.25568 0.56028 0.0
C1904 C 0.1325 0.25388 0.53172 0.0
C1905 C 0.13021 0.27662 0.52535 0.0
C1906 C 0.11749 0.28855 0.53645 0.0
C1907 C 0.10756 0.27787 0.55373 0.0
C1908 C 0.14563 0.24038 0.5202 0.0
C1909 C 0.11489 0.31299 0.53027 0.0
C1910 C 0.18078 0.32183 0.49108 0.0
C1911 C 0.16399 0.31222 0.47352 0.0
C1912 C 0.17007 0.31038 0.50801 0.0
C1913 C 0.1419 0.28855 0.5074 0.0
C1914 C 0.12491 0.27845 0.48971 0.0
C1915 C 0.13611 0.29047 0.47302 0.0
C1916 C 0.18886 0.32181 0.52658 0.0
C1917 C 0.09482 0.25511 0.48843 0.0
H1918 H 0.12439 0.2264 0.55403 0.0
H1919 H 0.0983 0.28736 0.56238 0.0
H1920 H 0.13469 0.233 0.50553 0.0
H1921 H 0.16776 0.25608 0.51884 0.0
H1922 H 0.14495 0.22226 0.5268 0.0
H1923 H 0.10383 0.31941 0.54026 0.0
H1924 H 0.13599 0.33129 0.5294 0.0
H1925 H 0.10342 0.30744 0.51579 0.0
H1926 H 0.20247 0.33825 0.49161 0.0
H1927 H 0.12283 0.28314 0.45962 0.0
H1928 H 0.19047 0.30471 0.53301 0.0
H1929 H 0.17976 0.33012 0.53695 0.0
H1930 H 0.21025 0.33889 0.52465 0.0
H1931 H 0.09358 0.2363 0.49426 0.0
H1932 H 0.08466 0.24904 0.4735 0.0
H1933 H 0.0828 0.26179 0.49723 0.0
C1934 C 0.77054 0.86122 0.56001 0.0
C1935 C 0.75622 0.86559 0.57437 0.0
C1936 C 0.76274 0.86092 0.5406 0.0
C1937 C 0.73994 0.86487 0.53543 0.0
C1938 C 0.72543 0.86931 0.54987 0.0
C1939 C 0.73379 0.8697 0.56916 0.0
C1940 C 0.77889 0.85638 0.52564 0.0
C1941 C 0.70085 0.87336 0.54495 0.0
C1942 C 0.73205 0.88856 0.48696 0.0
C1943 C 0.71161 0.86321 0.47668 0.0
C1944 C 0.74196 0.88932 0.50594 0.0
C1945 C 0.73102 0.86414 0.51492 0.0
C1946 C 0.71076 0.8384 0.5045 0.0
C1947 C 0.70138 0.83824 0.4855 0.0
C1948 C 0.7638 0.91713 0.51649 0.0
C1949 C 0.69843 0.81114 0.5136 0.0
H1950 H 0.78806 0.85831 0.56398 0.0
H1951 H 0.7224 0.8727 0.58017 0.0
H1952 H 0.76471 0.83724 0.51585 0.0
H1953 H 0.78758 0.87436 0.51684 0.0
H1954 H 0.79634 0.85403 0.53203 0.0
H1955 H 0.69186 0.87666 0.55787 0.0
H1956 H 0.70736 0.89176 0.53666 0.0
H1957 H 0.68424 0.85469 0.5358 0.0
H1958 H 0.74028 0.90787 0.48014 0.0
H1959 H 0.68536 0.81863 0.4777 0.0
H1960 H 0.78206 0.9157 0.52229 0.0
H1961 H 0.7551 0.9224 0.52882 0.0
H1962 H 0.77115 0.93456 0.50719 0.0
H1963 H 0.7153 0.80752 0.51938 0.0
H1964 H 0.68363 0.7928 0.50336 0.0
H1965 H 0.68716 0.81236 0.5258 0.0
C1966 C 0.12871 0.90986 0.54575 0.0
C1967 C 0.12849 0.89152 0.55884 0.0
C1968 C 0.13331 0.90654 0.52659 0.0
C1969 C 0.13779 0.88432 0.52035 0.0
C1970 C 0.13602 0.86483 0.53321 0.0
C1971 C 0.13144 0.86868 0.55228 0.0
C1972 C 0.13481 0.92766 0.51331 0.0
C1973 C 0.14062 0.84082 0.52715 0.0
C1974 C 0.13688 0.86544 0.46721 0.0
C1975 C 0.16555 0.87915 0.46495 0.0
C1976 C 0.12742 0.8672 0.48507 0.0
C1977 C 0.14708 0.88307 0.50104 0.0
C1978 C 0.176 0.89733 0.49874 0.0
C1979 C 0.18485 0.89523 0.48077 0.0
C1980 C 0.09643 0.85168 0.48693 0.0
C1981 C 0.19769 0.9146 0.51535 0.0
H1982 H 0.12604 0.92733 0.55062 0.0
H1983 H 0.13166 0.85458 0.56229 0.0
H1984 H 0.15664 0.94066 0.50983 0.0
H1985 H 0.12162 0.91677 0.49966 0.0
H1986 H 0.12797 0.94185 0.51972 0.0
H1987 H 0.13568 0.82588 0.53819 0.0
H1988 H 0.12755 0.82912 0.51361 0.0
H1989 H 0.16278 0.84926 0.52447 0.0
H1990 H 0.12184 0.85278 0.45512 0.0
H1991 H 0.207 0.90631 0.47908 0.0
H1992 H 0.09004 0.86634 0.49312 0.0
H1993 H 0.09147 0.83529 0.49686 0.0
H1994 H 0.08381 0.84145 0.47296 0.0
H1995 H 0.19379 0.93114 0.52158 0.0
H1996 H 0.21932 0.92483 0.51111 0.0
H1997 H 0.19619 0.901 0.52676 0.0
C1998 C 0.59651 0.80626 0.1276 0.0
C1999 C 0.57134 0.78336 0.11887 0.0
C2000 C 0.60362 0.80946 0.14742 0.0
C2001 C 0.58525 0.78917 0.15882 0.0
C2002 C 0.55915 0.76688 0.15029 0.0
C2003 C 0.55246 0.76431 0.13044 0.0
C2004 C 0.63159 0.83366 0.15595 0.0
C2005 C 0.53894 0.74485 0.16196 0.0
C2006 C 0.61963 0.77723 0.20273 0.0
C2007 C 0.61481 0.792 0.21752 0.0
C2008 C 0.60967 0.77579 0.18367 0.0
C2009 C 0.59467 0.78965 0.17918 0.0
C2010 C 0.5895 0.80443 0.19402 0.0
C2011 C 0.59958 0.80539 0.21302 0.0
C2012 C 0.61566 0.75979 0.16829 0.0
C2013 C 0.57363 0.81951 0.18978 0.0
H2014 H 0.61142 0.82094 0.11882 0.0
H2015 H 0.53275 0.74684 0.12389 0.0
H2016 H 0.6291 0.84444 0.16885 0.0
H2017 H 0.64553 0.82554 0.16048 0.0
H2018 H 0.64198 0.84932 0.14563 0.0
H2019 H 0.51837 0.73068 0.15363 0.0
H2020 H 0.54786 0.73193 0.1669 0.0
H2021 H 0.53561 0.7549 0.17487 0.0
H2022 H 0.6318 0.76726 0.20597 0.0
H2023 H 0.59548 0.81659 0.22437 0.0
H2024 H 0.62868 0.77433 0.15811 0.0
H2025 H 0.59585 0.74353 0.16003 0.0
H2026 H 0.62677 0.74936 0.17424 0.0
H2027 H 0.58505 0.8361 0.18028 0.0
H2028 H 0.57068 0.82941 0.20297 0.0
H2029 H 0.55282 0.80461 0.18208 0.0
C2030 C 0.20374 0.80461 0.12337 0.0
C2031 C 0.23234 0.81471 0.12221 0.0
C2032 C 0.19337 0.80522 0.14101 0.0
C2033 C 0.21203 0.81642 0.15795 0.0
C2034 C 0.24093 0.82688 0.1569 0.0
C2035 C 0.25071 0.82579 0.13909 0.0
C2036 C 0.1624 0.79381 0.14151 0.0
C2037 C 0.26153 0.8391 0.17462 0.0
C2038 C 0.18789 0.84053 0.20091 0.0
C2039 C 0.17937 0.81779 0.21196 0.0
C2040 C 0.1989 0.84053 0.18345 0.0
C2041 C 0.20126 0.81713 0.17677 0.0
C2042 C 0.1929 0.79421 0.18793 0.0
C2043 C 0.18218 0.79488 0.20543 0.0
C2044 C 0.20789 0.86553 0.17211 0.0
C2045 C 0.19487 0.76878 0.18125 0.0
H2046 H 0.18942 0.79641 0.11042 0.0
H2047 H 0.27275 0.83325 0.13844 0.0
H2048 H 0.15388 0.77668 0.15102 0.0
H2049 H 0.15867 0.81059 0.14751 0.0
H2050 H 0.15062 0.7855 0.12711 0.0
H2051 H 0.2834 0.84692 0.17134 0.0
H2052 H 0.26029 0.85675 0.18199 0.0
H2053 H 0.2562 0.82294 0.18477 0.0
H2054 H 0.18613 0.85847 0.20602 0.0
H2055 H 0.17539 0.77713 0.21381 0.0
H2056 H 0.19544 0.85883 0.15793 0.0
H2057 H 0.23015 0.87445 0.16953 0.0
H2058 H 0.20531 0.88235 0.1795 0.0
H2059 H 0.18178 0.75876 0.16744 0.0
H2060 H 0.18793 0.7529 0.19174 0.0
H2061 H 0.21673 0.77521 0.17874 0.0
C2062 C 0.22665 0.42553 0.14212 0.0
C2063 C 0.20264 0.41484 0.12913 0.0
C2064 C 0.22465 0.41871 0.16114 0.0
C2065 C 0.19807 0.40056 0.16716 0.0
C2066 C 0.17392 0.38911 0.15389 0.0
C2067 C 0.1765 0.39643 0.1351 0.0
C2068 C 0.25084 0.43142 0.17489 0.0
C2069 C 0.14521 0.36941 0.15962 0.0
C2070 C 0.18873 0.36157 0.21133 0.0
C2071 C 0.18151 0.37676 0.22419 0.0
C2072 C 0.19541 0.36978 0.19297 0.0
C2073 C 0.19506 0.39388 0.18738 0.0
C2074 C 0.1891 0.41005 0.20064 0.0
C2075 C 0.18226 0.40121 0.21885 0.0
C2076 C 0.20141 0.35183 0.17922 0.0
C2077 C 0.18879 0.43604 0.19533 0.0
H2078 H 0.24686 0.43984 0.13755 0.0
H2079 H 0.15794 0.38775 0.12501 0.0
H2080 H 0.24962 0.44503 0.1866 0.0
H2081 H 0.25273 0.41462 0.18156 0.0
H2082 H 0.26999 0.44419 0.1678 0.0
H2083 H 0.12868 0.36158 0.1474 0.0
H2084 H 0.14492 0.3511 0.1656 0.0
H2085 H 0.14 0.38035 0.17097 0.0
H2086 H 0.18796 0.34252 0.21533 0.0
H2087 H 0.17708 0.41324 0.22884 0.0
H2088 H 0.22088 0.36505 0.17261 0.0
H2089 H 0.18415 0.34133 0.16749 0.0
H2090 H 0.20355 0.33542 0.18631 0.0
H2091 H 0.20836 0.4503 0.18917 0.0
H2092 H 0.18646 0.44775 0.2078 0.0
H2093 H 0.17117 0.43 0.18423 0.0
C2094 C 0.77659 0.61024 0.88803 0.0
C2095 C 0.77841 0.58739 0.89416 0.0
C2096 C 0.78628 0.62093 0.87071 0.0
C2097 C 0.79802 0.60842 0.85914 0.0
C2098 C 0.79975 0.58521 0.86517 0.0
C2099 C 0.79001 0.57504 0.88263 0.0
C2100 C 0.78427 0.64586 0.8649 0.0
C2101 C 0.81193 0.57116 0.85319 0.0
C2102 C 0.80177 0.62261 0.80681 0.0
C2103 C 0.82963 0.64422 0.8069 0.0
C2104 C 0.79132 0.6104 0.82361 0.0
C2105 C 0.80907 0.62012 0.84098 0.0
C2106 C 0.83728 0.64165 0.84113 0.0
C2107 C 0.84722 0.65334 0.82411 0.0
C2108 C 0.76113 0.58743 0.82284 0.0
C2109 C 0.85691 0.65263 0.85934 0.0
H2110 H 0.76798 0.62013 0.89697 0.0
H2111 H 0.79119 0.55717 0.88718 0.0
H2112 H 0.80548 0.6637 0.8636 0.0
H2113 H 0.77212 0.6405 0.85068 0.0
H2114 H 0.77416 0.65287 0.87533 0.0
H2115 H 0.81131 0.55302 0.85971 0.0
H2116 H 0.80025 0.56369 0.83874 0.0
H2117 H 0.83396 0.58654 0.8513 0.0
H2118 H 0.78791 0.61562 0.79367 0.0
H2119 H 0.86889 0.66965 0.82428 0.0
H2120 H 0.74973 0.59453 0.83197 0.0
H2121 H 0.75978 0.56853 0.82858 0.0
H2122 H 0.75041 0.58138 0.80806 0.0
H2123 H 0.8488 0.66155 0.87007 0.0
H2124 H 0.87835 0.66914 0.85699 0.0
H2125 H 0.8581 0.63517 0.86554 0.0
C2126 C 0.41085 0.1806 0.89849 0.0
C2127 C 0.43485 0.20526 0.90671 0.0
C2128 C 0.39969 0.17849 0.87962 0.0
C2129 C 0.4129 0.20154 0.86864 0.0
C2130 C 0.43725 0.22642 0.87681 0.0
C2131 C 0.44788 0.228 0.89575 0.0
C2132 C 0.37354 0.1517 0.87152 0.0
C2133 C 0.45205 0.25138 0.86555 0.0
C2134 C 0.39664 0.18718 0.81447 0.0
C2135 C 0.37672 0.19554 0.81122 0.0
C2136 C 0.40883 0.1893 0.83304 0.0
C2137 C 0.40079 0.19985 0.84878 0.0
C2138 C 0.38088 0.20851 0.8456 0.0
C2139 C 0.36923 0.20639 0.8269 0.0
C2140 C 0.43008 0.17997 0.83583 0.0
C2141 C 0.37171 0.21984 0.86199 0.0
H2142 H 0.4005 0.16307 0.90695 0.0
H2143 H 0.46663 0.24698 0.90194 0.0
H2144 H 0.35663 0.15626 0.86755 0.0
H2145 H 0.37748 0.14284 0.85829 0.0
H2146 H 0.36607 0.13553 0.88179 0.0
H2147 H 0.47105 0.26896 0.87384 0.0
H2148 H 0.45821 0.24503 0.85227 0.0
H2149 H 0.43772 0.25911 0.86119 0.0
H2150 H 0.40237 0.17848 0.80252 0.0
H2151 H 0.35429 0.21343 0.82455 0.0
H2152 H 0.42226 0.16227 0.84487 0.0
H2153 H 0.44983 0.19738 0.84344 0.0
H2154 H 0.43476 0.17311 0.82206 0.0
H2155 H 0.36255 0.20388 0.87227 0.0
H2156 H 0.356 0.22566 0.85711 0.0
H2157 H 0.39003 0.23867 0.86983 0.0
C2158 C 0.80682 0.24383 0.88245 0.0
C2159 C 0.80205 0.22399 0.8955 0.0
C2160 C 0.81011 0.23872 0.86328 0.0
C2161 C 0.80837 0.21301 0.85688 0.0
C2162 C 0.80187 0.19218 0.86967 0.0
C2163 C 0.79886 0.19794 0.88884 0.0
C2164 C 0.81694 0.2615 0.85015 0.0
C2165 C 0.79956 0.16439 0.86338 0.0
C2166 C 0.80424 0.19632 0.80303 0.0
C2167 C 0.83237 0.20578 0.80045 0.0
C2168 C 0.7959 0.19784 0.82135 0.0
C2169 C 0.81618 0.20923 0.83746 0.0
C2170 C 0.84447 0.21824 0.83498 0.0
C2171 C 0.85216 0.21627 0.81658 0.0
C2172 C 0.76551 0.18784 0.82341 0.0
C2173 C 0.8668 0.23049 0.85175 0.0
H2174 H 0.80878 0.2638 0.88738 0.0
H2175 H 0.79535 0.18253 0.89881 0.0
H2176 H 0.83861 0.26979 0.84632 0.0
H2177 H 0.80279 0.25284 0.83666 0.0
H2178 H 0.81521 0.27926 0.85683 0.0
H2179 H 0.79098 0.14919 0.87423 0.0
H2180 H 0.78601 0.15495 0.84969 0.0
H2181 H 0.82056 0.16779 0.8609 0.0
H2182 H 0.7888 0.18835 0.79067 0.0
H2183 H 0.87383 0.22305 0.81483 0.0
H2184 H 0.76312 0.20589 0.8285 0.0
H2185 H 0.75791 0.1726 0.83428 0.0
H2186 H 0.75206 0.17771 0.80972 0.0
H2187 H 0.86808 0.24978 0.85865 0.0
H2188 H 0.88773 0.23594 0.84747 0.0
H2189 H 0.86134 0.21533 0.86265 0.0
C2190 C 0.2618 0.14152 0.45954 0.0
C2191 C 0.23689 0.11779 0.45131 0.0
C2192 C 0.26958 0.14566 0.47932 0.0
C2193 C 0.25216 0.1255 0.4912 0.0
C2194 C 0.22621 0.10243 0.48316 0.0
C2195 C 0.21884 0.09892 0.46334 0.0
C2196 C 0.29733 0.17069 0.48732 0.0
C2197 C 0.20699 0.08049 0.49531 0.0
C2198 C 0.28841 0.11522 0.53487 0.0
C2199 C 0.28302 0.12934 0.54977 0.0
C2200 C 0.27829 0.11369 0.51584 0.0
C2201 C 0.26252 0.12681 0.51148 0.0
C2202 C 0.25701 0.14119 0.5264 0.0
C2203 C 0.26728 0.14224 0.54538 0.0
C2204 C 0.28467 0.09815 0.50037 0.0
C2205 C 0.24037 0.15551 0.5223 0.0
H2206 H 0.27604 0.15611 0.4504 0.0
H2207 H 0.19932 0.08081 0.45717 0.0
H2208 H 0.29489 0.18136 0.5003 0.0
H2209 H 0.31214 0.16348 0.49159 0.0
H2210 H 0.30668 0.18621 0.47676 0.0
H2211 H 0.18631 0.06563 0.48734 0.0
H2212 H 0.21673 0.06829 0.50025 0.0
H2213 H 0.20372 0.0906 0.50822 0.0
H2214 H 0.30102 0.10568 0.53802 0.0
H2215 H 0.26277 0.15297 0.5568 0.0
H2216 H 0.29685 0.11274 0.48994 0.0
H2217 H 0.26494 0.0812 0.49243 0.0
H2218 H 0.29677 0.08864 0.50619 0.0
H2219 H 0.25082 0.17163 0.5123 0.0
H2220 H 0.23789 0.16581 0.53549 0.0
H2221 H 0.21932 0.13998 0.5152 0.0
C2222 C 0.87078 0.13468 0.45495 0.0
C2223 C 0.89869 0.14175 0.45385 0.0
C2224 C 0.86065 0.13545 0.47267 0.0
C2225 C 0.87878 0.1433 0.48976 0.0
C2226 C 0.90695 0.15036 0.48875 0.0
C2227 C 0.91657 0.14958 0.47083 0.0
C2228 C 0.83054 0.12799 0.4731 0.0
C2229 C 0.92689 0.1586 0.50663 0.0
C2230 C 0.85944 0.16923 0.53452 0.0
C2231 C 0.84693 0.14496 0.54414 0.0
C2232 C 0.87001 0.16904 0.51688 0.0
C2233 C 0.86822 0.14402 0.50869 0.0
C2234 C 0.85599 0.11957 0.51847 0.0
C2235 C 0.84543 0.12031 0.53602 0.0
C2236 C 0.88273 0.1955 0.50688 0.0
C2237 C 0.85392 0.09256 0.51034 0.0
H2238 H 0.85693 0.12893 0.44189 0.0
H2239 H 0.93806 0.15474 0.47011 0.0
H2240 H 0.81953 0.10989 0.48156 0.0
H2241 H 0.82955 0.14592 0.48024 0.0
H2242 H 0.8192 0.1225 0.45855 0.0
H2243 H 0.94813 0.16347 0.50341 0.0
H2244 H 0.9286 0.17731 0.5148 0.0
H2245 H 0.91876 0.14131 0.51601 0.0
H2246 H 0.86041 0.18827 0.54059 0.0
H2247 H 0.83615 0.10159 0.54349 0.0
H2248 H 0.87079 0.19159 0.49273 0.0
H2249 H 0.9045 0.20173 0.50426 0.0
H2250 H 0.88292 0.21332 0.51527 0.0
H2251 H 0.84116 0.08525 0.49627 0.0
H2252 H 0.84438 0.07557 0.5199 0.0
H2253 H 0.87502 0.09621 0.50792 0.0
C2254 C 0.87412 0.77659 0.48158 0.0
C2255 C 0.87784 0.76156 0.46636 0.0
C2256 C 0.8705 0.7672 0.49985 0.0
C2257 C 0.8707 0.74218 0.50303 0.0
C2258 C 0.87625 0.72789 0.48806 0.0
C2259 C 0.87974 0.73775 0.46988 0.0
C2260 C 0.86483 0.78318 0.51542 0.0
C2261 C 0.87678 0.70123 0.49089 0.0
C2262 C 0.87323 0.72422 0.55433 0.0
C2263 C 0.84487 0.70548 0.55595 0.0
C2264 C 0.88209 0.73621 0.53717 0.0
C2265 C 0.86209 0.7294 0.5213 0.0
C2266 C 0.83345 0.71059 0.52291 0.0
C2267 C 0.82522 0.6989 0.54017 0.0
C2268 C 0.9128 0.75609 0.53599 0.0
C2269 C 0.8114 0.70293 0.5064 0.0
H2270 H 0.87308 0.79528 0.47902 0.0
H2271 H 0.88243 0.72591 0.45818 0.0
H2272 H 0.84284 0.77047 0.51866 0.0
H2273 H 0.87842 0.78697 0.52876 0.0
H2274 H 0.86826 0.80371 0.51126 0.0
H2275 H 0.8847 0.6946 0.47867 0.0
H2276 H 0.89007 0.70403 0.50419 0.0
H2277 H 0.85532 0.68405 0.49246 0.0
H2278 H 0.88856 0.7292 0.56641 0.0
H2279 H 0.80324 0.68481 0.5414 0.0
H2280 H 0.9162 0.77683 0.53243 0.0
H2281 H 0.92025 0.74786 0.52436 0.0
H2282 H 0.9257 0.75919 0.54959 0.0
H2283 H 0.81157 0.72213 0.50227 0.0
H2284 H 0.79007 0.68777 0.50991 0.0
H2285 H 0.81604 0.69355 0.49377 0.0
loop_
_geom_bond_atom_site_label_1
_geom_bond_atom_site_label_2
_geom_bond_distance
_geom_bond_site_symmetry_2
_ccdc_geom_bond_type
H0 C3 0.929 . S
H1 C6 0.929 . S
H2 C8 0.930 . S
C3 H0 0.929 . S
C3 C4 1.398 . S
C3 C5 1.396 . S
C4 C3 1.398 . S
C4 C8 1.407 . S
C5 C3 1.396 . S
C5 C6 1.394 . S
C6 H1 0.929 . S
C6 C5 1.394 . S
C6 C7 1.382 . S
C7 C6 1.382 . S
C7 C8 1.392 . S
C7 N9 1.420 . S
C8 H2 0.930 . S
C8 C4 1.407 . S
C8 C7 1.392 . S
N9 C7 1.420 . S
N9 C10 1.244 . S
C10 N9 1.244 . S
H11 C14 0.929 . S
H12 C17 0.929 . S
H13 C19 0.930 . S
C14 H11 0.929 . S
C14 C15 1.398 . S
C14 C16 1.396 . S
C15 C14 1.398 . S
C15 C19 1.407 . S
C16 C14 1.396 . S
C16 C17 1.394 . S
C17 H12 0.929 . S
C17 C16 1.394 . S
C17 C18 1.382 . S
C18 C17 1.382 . S
C18 C19 1.392 . S
C18 N20 1.420 . S
C19 H13 0.930 . S
C19 C15 1.407 . S
C19 C18 1.392 . S
N20 C18 1.420 . S
N20 C21 1.244 . S
C21 N20 1.244 . S
H22 C25 0.929 . S
H23 C28 0.929 . S
H24 C30 0.930 . S
C25 H22 0.929 . S
C25 C26 1.398 . S
C25 C27 1.396 . S
C26 C25 1.398 . S
C26 C30 1.407 . S
C27 C25 1.396 . S
C27 C28 1.394 . S
C28 H23 0.929 . S
C28 C27 1.394 . S
C28 C29 1.382 . S
C29 C28 1.382 . S
C29 C30 1.392 . S
C29 N31 1.420 . S
C30 H24 0.930 . S
C30 C26 1.407 . S
C30 C29 1.392 . S
N31 C29 1.420 . S
N31 C32 1.244 . S
C32 N31 1.244 . S
H33 C36 0.929 . S
H34 C39 0.929 . S
H35 C41 0.930 . S
C36 H33 0.929 . S
C36 C37 1.398 . S
C36 C38 1.396 . S
C37 C36 1.398 . S
C37 C41 1.407 . S
C38 C36 1.396 . S
C38 C39 1.394 . S
C39 H34 0.929 . S
C39 C38 1.394 . S
C39 C40 1.382 . S
C40 C39 1.382 . S
C40 C41 1.392 . S
C40 N42 1.420 . S
C41 H35 0.930 . S
C41 C37 1.407 . S
C41 C40 1.392 . S
N42 C40 1.420 . S
N42 C43 1.244 . S
C43 N42 1.244 . S
H44 C47 0.929 . S
H45 C50 0.929 . S
H46 C52 0.930 . S
C47 H44 0.929 . S
C47 C48 1.398 . S
C47 C49 1.396 . S
C48 C47 1.398 . S
C48 C52 1.407 . S
C49 C47 1.396 . S
C49 C50 1.394 . S
C50 H45 0.929 . S
C50 C49 1.394 . S
C50 C51 1.382 . S
C51 C50 1.382 . S
C51 C52 1.392 . S
C51 N53 1.420 . S
C52 H46 0.930 . S
C52 C48 1.407 . S
C52 C51 1.392 . S
N53 C51 1.420 . S
N53 C54 1.244 . S
C54 N53 1.244 . S
H55 C58 0.929 . S
H56 C61 0.929 . S
H57 C63 0.930 . S
C58 H55 0.929 . S
C58 C59 1.398 . S
C58 C60 1.396 . S
C59 C58 1.398 . S
C59 C63 1.407 . S
C60 C58 1.396 . S
C60 C61 1.394 . S
C61 H56 0.929 . S
C61 C60 1.394 . S
C61 C62 1.382 . S
C62 C61 1.382 . S
C62 C63 1.392 . S
C62 N64 1.420 . S
C63 H57 0.930 . S
C63 C59 1.407 . S
C63 C62 1.392 . S
N64 C62 1.420 . S
N64 C65 1.244 . S
C65 N64 1.244 . S
H66 C69 0.929 . S
H67 C72 0.929 . S
H68 C74 0.930 . S
C69 H66 0.929 . S
C69 C70 1.398 . S
C69 C71 1.396 . S
C70 C69 1.398 . S
C70 C74 1.407 . S
C71 C69 1.396 . S
C71 C72 1.394 . S
C72 H67 0.929 . S
C72 C71 1.394 . S
C72 C73 1.382 . S
C73 C72 1.382 . S
C73 C74 1.392 . S
C73 N75 1.420 . S
C74 H68 0.930 . S
C74 C70 1.407 . S
C74 C73 1.392 . S
N75 C73 1.420 . S
N75 C76 1.244 . S
C76 N75 1.244 . S
H77 C80 0.929 . S
H78 C83 0.929 . S
H79 C85 0.930 . S
C80 H77 0.929 . S
C80 C81 1.398 . S
C80 C82 1.396 . S
C81 C80 1.398 . S
C81 C85 1.407 . S
C82 C80 1.396 . S
C82 C83 1.394 . S
C83 H78 0.929 . S
C83 C82 1.394 . S
C83 C84 1.382 . S
C84 C83 1.382 . S
C84 C85 1.392 . S
C84 N86 1.420 . S
C85 H79 0.930 . S
C85 C81 1.407 . S
C85 C84 1.392 . S
N86 C84 1.420 . S
N86 C87 1.244 . S
C87 N86 1.244 . S
H88 C91 0.929 . S
H89 C94 0.929 . S
H90 C96 0.930 . S
C91 H88 0.929 . S
C91 C92 1.398 . S
C91 C93 1.396 . S
C92 C91 1.398 . S
C92 C96 1.407 . S
C93 C91 1.396 . S
C93 C94 1.394 . S
C94 H89 0.929 . S
C94 C93 1.394 . S
C94 C95 1.382 . S
C95 C94 1.382 . S
C95 C96 1.392 . S
C95 N97 1.420 . S
C96 H90 0.930 . S
C96 C92 1.407 . S
C96 C95 1.392 . S
N97 C95 1.420 . S
N97 C98 1.244 . S
C98 N97 1.244 . S
H99 C102 0.929 . S
H100 C105 0.929 . S
H101 C107 0.930 . S
C102 H99 0.929 . S
C102 C103 1.398 . S
C102 C104 1.396 . S
C103 C102 1.398 . S
C103 C107 1.407 . S
C104 C102 1.396 . S
C104 C105 1.394 . S
C105 H100 0.929 . S
C105 C104 1.394 . S
C105 C106 1.382 . S
C106 C105 1.382 . S
C106 C107 1.392 . S
C106 N108 1.420 . S
C107 H101 0.930 . S
C107 C103 1.407 . S
C107 C106 1.392 . S
N108 C106 1.420 . S
N108 C109 1.244 . S
C109 N108 1.244 . S
H110 C113 0.929 . S
H111 C116 0.929 . S
H112 C118 0.930 . S
C113 H110 0.929 . S
C113 C114 1.398 . S
C113 C115 1.396 . S
C114 C113 1.398 . S
C114 C118 1.407 . S
C115 C113 1.396 . S
C115 C116 1.394 . S
C116 H111 0.929 . S
C116 C115 1.394 . S
C116 C117 1.382 . S
C117 C116 1.382 . S
C117 C118 1.392 . S
C117 N119 1.420 . S
C118 H112 0.930 . S
C118 C114 1.407 . S
C118 C117 1.392 . S
N119 C117 1.420 . S
N119 C120 1.244 . S
C120 N119 1.244 . S
H121 C124 0.929 . S
H122 C127 0.929 . S
H123 C129 0.930 . S
C124 H121 0.929 . S
C124 C125 1.398 . S
C124 C126 1.396 . S
C125 C124 1.398 . S
C125 C129 1.407 . S
C126 C124 1.396 . S
C126 C127 1.394 . S
C127 H122 0.929 . S
C127 C126 1.394 . S
C127 C128 1.382 . S
C128 C127 1.382 . S
C128 C129 1.392 . S
C128 N130 1.420 . S
C129 H123 0.930 . S
C129 C125 1.407 . S
C129 C128 1.392 . S
N130 C128 1.420 . S
N130 C131 1.244 . S
C131 N130 1.244 . S
H132 C135 0.929 . S
H133 C138 0.929 . S
H134 C140 0.930 . S
C135 H132 0.929 . S
C135 C136 1.398 . S
C135 C137 1.396 . S
C136 C135 1.398 . S
C136 C140 1.407 . S
C137 C135 1.396 . S
C137 C138 1.394 . S
C138 H133 0.929 . S
C138 C137 1.394 . S
C138 C139 1.382 . S
C139 C138 1.382 . S
C139 C140 1.392 . S
C139 N141 1.420 . S
C140 H134 0.930 . S
C140 C136 1.407 . S
C140 C139 1.392 . S
N141 C139 1.420 . S
N141 C142 1.244 . S
C142 N141 1.244 . S
H143 C146 0.929 . S
H144 C149 0.929 . S
H145 C151 0.930 . S
C146 H143 0.929 . S
C146 C147 1.398 . S
C146 C148 1.396 . S
C147 C146 1.398 . S
C147 C151 1.407 . S
C148 C146 1.396 . S
C148 C149 1.394 . S
C149 H144 0.929 . S
C149 C148 1.394 . S
C149 C150 1.382 . S
C150 C149 1.382 . S
C150 C151 1.392 . S
C150 N152 1.420 . S
C151 H145 0.930 . S
C151 C147 1.407 . S
C151 C150 1.392 . S
N152 C150 1.420 . S
N152 C153 1.244 . S
C153 N152 1.244 . S
H154 C157 0.929 . S
H155 C160 0.929 . S
H156 C162 0.930 . S
C157 H154 0.929 . S
C157 C158 1.398 . S
C157 C159 1.396 . S
C158 C157 1.398 . S
C158 C162 1.407 . S
C159 C157 1.396 . S
C159 C160 1.394 . S
C160 H155 0.929 . S
C160 C159 1.394 . S
C160 C161 1.382 . S
C161 C160 1.382 . S
C161 C162 1.392 . S
C161 N163 1.420 . S
C162 H156 0.930 . S
C162 C158 1.407 . S
C162 C161 1.392 . S
N163 C161 1.420 . S
N163 C164 1.244 . S
C164 N163 1.244 . S
H165 C168 0.929 . S
H166 C171 0.929 . S
H167 C173 0.930 . S
C168 H165 0.929 . S
C168 C169 1.398 . S
C168 C170 1.396 . S
C169 C168 1.398 . S
C169 C173 1.407 . S
C170 C168 1.396 . S
C170 C171 1.394 . S
C171 H166 0.929 . S
C171 C170 1.394 . S
C171 C172 1.382 . S
C172 C171 1.382 . S
C172 C173 1.392 . S
C172 N174 1.420 . S
C173 H167 0.930 . S
C173 C169 1.407 . S
C173 C172 1.392 . S
N174 C172 1.420 . S
N174 C175 1.244 . S
C175 N174 1.244 . S
H176 C179 0.929 . S
H177 C182 0.929 . S
H178 C184 0.930 . S
C179 H176 0.929 . S
C179 C180 1.398 . S
C179 C181 1.396 . S
C180 C179 1.398 . S
C180 C184 1.407 . S
C181 C179 1.396 . S
C181 C182 1.394 . S
C182 H177 0.929 . S
C182 C181 1.394 . S
C182 C183 1.382 . S
C183 C182 1.382 . S
C183 C184 1.392 . S
C183 N185 1.420 . S
C184 H178 0.930 . S
C184 C180 1.407 . S
C184 C183 1.392 . S
N185 C183 1.420 . S
N185 C186 1.244 . S
C186 N185 1.244 . S
H187 C190 0.929 . S
H188 C193 0.929 . S
H189 C195 0.930 . S
C190 H187 0.929 . S
C190 C191 1.398 . S
C190 C192 1.396 . S
C191 C190 1.398 . S
C191 C195 1.407 . S
C192 C190 1.396 . S
C192 C193 1.394 . S
C193 H188 0.929 . S
C193 C192 1.394 . S
C193 C194 1.382 . S
C194 C193 1.382 . S
C194 C195 1.392 . S
C194 N196 1.420 . S
C195 H189 0.930 . S
C195 C191 1.407 . S
C195 C194 1.392 . S
N196 C194 1.420 . S
N196 C197 1.244 . S
C197 N196 1.244 . S
C198 Eu199 2.835 . S
C198 C200 1.500 1_545 S
C198 O218 1.257 1_545 S
C198 O219 1.260 . S
Eu199 C198 2.835 . S
Eu199 O218 2.473 1_545 S
Eu199 O219 2.480 . S
Eu199 O220 2.430 . S
Eu199 O221 2.616 1_554 S
Eu199 O222 2.394 1_545 S
Eu199 O227 2.355 1_545 S
Eu199 O229 2.374 . S
C200 C198 1.500 1_565 S
C200 C201 1.377 1_565 S
C200 C205 1.377 . S
C201 C200 1.377 1_545 S
C201 C202 1.399 . S
C201 H230 0.931 . S
C202 C201 1.399 . S
C202 C203 1.365 1_545 S
C202 H231 0.945 . S
C203 C202 1.365 1_565 S
C203 C204 1.394 . S
C204 C203 1.394 . S
C204 C205 1.378 . S
C204 H232 0.931 . S
C205 C200 1.377 . S
C205 C204 1.378 . S
C205 H233 0.931 . S
C206 O220 1.259 . S
C206 O221 1.245 1_554 S
C207 O222 1.251 . S
C207 O223 1.251 1_554 S
C208 Eu209 2.835 1_545 S
C208 C210 1.500 . S
C208 O224 1.257 . S
C208 O225 1.260 1_545 S
Eu209 C208 2.835 1_565 S
Eu209 O221 2.389 1_565 S
Eu209 O223 2.374 . S
Eu209 O224 2.473 1_565 S
Eu209 O225 2.480 . S
Eu209 O226 2.430 . S
Eu209 O227 2.670 1_556 S
Eu209 O228 2.394 1_565 S
C210 C208 1.500 . S
C210 C211 1.377 . S
C210 C215 1.377 . S
C211 C210 1.377 . S
C211 C212 1.395 . S
C211 H234 0.931 1_545 S
C212 C211 1.395 . S
C212 C213 1.383 . S
C212 H235 0.931 1_545 S
C213 C212 1.383 . S
C213 C214 1.394 . S
C214 C213 1.394 . S
C214 C215 1.378 . S
C214 H236 0.931 . S
C215 C210 1.377 . S
C215 C214 1.378 . S
C215 H237 0.931 . S
C216 O226 1.259 1_554 S
C216 O227 1.270 . S
C217 O228 1.251 . S
C217 O229 1.251 1_556 S
O218 C198 1.257 1_565 S
O218 Eu199 2.473 1_565 S
O219 C198 1.260 . S
O219 Eu199 2.480 . S
O220 Eu199 2.430 . S
O220 C206 1.259 . S
O221 Eu199 2.616 1_556 S
O221 C206 1.245 1_556 S
O221 Eu209 2.389 1_545 S
O222 Eu199 2.394 1_565 S
O222 C207 1.251 . S
O223 C207 1.251 1_556 S
O223 Eu209 2.374 . S
O224 C208 1.257 . S
O224 Eu209 2.473 1_545 S
O225 C208 1.260 1_565 S
O225 Eu209 2.480 . S
O226 Eu209 2.430 . S
O226 C216 1.259 1_556 S
O227 Eu199 2.355 1_565 S
O227 Eu209 2.670 1_554 S
O227 C216 1.270 . S
O228 Eu209 2.394 1_545 S
O228 C217 1.251 . S
O229 Eu199 2.374 . S
O229 C217 1.251 1_554 S
H230 C201 0.931 . S
H231 C202 0.945 . S
H232 C204 0.931 . S
H233 C205 0.931 . S
H234 C211 0.931 1_565 S
H235 C212 0.931 1_565 S
H236 C214 0.931 . S
H237 C215 0.931 . S
C238 Eu239 2.835 1_455 S
C238 C240 1.500 . S
C238 O258 1.257 . S
C238 O259 1.260 1_455 S
Eu239 C238 2.835 1_655 S
Eu239 O258 2.473 1_655 S
Eu239 O259 2.480 . S
Eu239 O260 2.430 . S
Eu239 O261 2.670 1_554 S
Eu239 O262 2.394 1_655 S
Eu239 O267 2.355 1_655 S
Eu239 O269 2.374 . S
C240 C238 1.500 . S
C240 C241 1.377 . S
C240 C245 1.377 . S
C241 C240 1.377 . S
C241 C242 1.395 . S
C241 H270 0.931 1_455 S
C242 C241 1.395 . S
C242 C243 1.383 . S
C242 H271 0.945 . S
C243 C242 1.383 . S
C243 C244 1.394 . S
C244 C243 1.394 . S
C244 C245 1.378 . S
C244 H272 0.931 . S
C245 C240 1.377 . S
C245 C244 1.378 . S
C245 H273 0.931 . S
C246 O260 1.259 . S
C246 O261 1.270 1_554 S
C247 O262 1.251 . S
C247 O263 1.251 . S
C248 Eu249 2.835 1_655 S
C248 C250 1.500 . S
C248 O264 1.257 . S
C248 O265 1.260 1_655 S
Eu249 C248 2.835 1_455 S
Eu249 O261 2.355 1_455 S
Eu249 O263 2.374 1_556 S
Eu249 O264 2.473 1_455 S
Eu249 O265 2.480 . S
Eu249 O266 2.430 . S
Eu249 O267 2.670 1_556 S
Eu249 O268 2.394 1_455 S
C250 C248 1.500 . S
C250 C251 1.380 . S
C250 C255 1.377 . S
C251 C250 1.380 . S
C251 C252 1.398 . S
C251 H274 0.924 1_655 S
C252 C251 1.398 . S
C252 C253 1.383 . S
C252 H275 0.931 1_655 S
C253 C252 1.383 . S
C253 C254 1.394 . S
C254 C253 1.394 . S
C254 C255 1.378 . S
C254 H276 0.931 . S
C255 C250 1.377 . S
C255 C254 1.378 . S
C255 H277 0.931 . S
C256 O266 1.259 1_554 S
C256 O267 1.270 . S
C257 O268 1.251 . S
C257 O269 1.251 1_556 S
O258 C238 1.257 . S
O258 Eu239 2.473 1_455 S
O259 C238 1.260 1_655 S
O259 Eu239 2.480 . S
O260 Eu239 2.430 . S
O260 C246 1.259 . S
O261 Eu239 2.670 1_556 S
O261 C246 1.270 1_556 S
O261 Eu249 2.355 1_655 S
O262 Eu239 2.394 1_455 S
O262 C247 1.251 . S
O263 C247 1.251 . S
O263 Eu249 2.374 1_554 S
O264 C248 1.257 . S
O264 Eu249 2.473 1_655 S
O265 C248 1.260 1_455 S
O265 Eu249 2.480 . S
O266 Eu249 2.430 . S
O266 C256 1.259 1_556 S
O267 Eu239 2.355 1_455 S
O267 Eu249 2.670 1_554 S
O267 C256 1.270 . S
O268 Eu249 2.394 1_655 S
O268 C257 1.251 . S
O269 Eu239 2.374 . S
O269 C257 1.251 1_554 S
H270 C241 0.931 1_655 S
H271 C242 0.945 . S
H272 C244 0.931 . S
H273 C245 0.931 . S
H274 C251 0.924 1_455 S
H275 C252 0.931 1_455 S
H276 C254 0.931 . S
H277 C255 0.931 . S
C278 Eu279 2.835 . S
C278 C280 1.500 . S
C278 O298 1.257 . S
C278 O299 1.260 . S
Eu279 C278 2.835 . S
Eu279 O298 2.473 . S
Eu279 O299 2.480 . S
Eu279 O300 2.430 . S
Eu279 O301 2.670 1_556 S
Eu279 O302 2.394 . S
Eu279 O307 2.355 1_556 S
Eu279 O309 2.374 1_556 S
C280 C278 1.500 . S
C280 C281 1.377 . S
C280 C285 1.377 . S
C281 C280 1.377 . S
C281 C282 1.395 . S
C281 H310 0.931 . S
C282 C281 1.395 . S
C282 C283 1.383 . S
C282 H311 0.931 . S
C283 C282 1.383 . S
C283 C284 1.394 . S
C284 C283 1.394 . S
C284 C285 1.378 . S
C284 H312 0.931 . S
C285 C280 1.377 . S
C285 C284 1.378 . S
C285 H313 0.931 . S
C286 O300 1.259 1_554 S
C286 O301 1.270 . S
C287 O302 1.251 . S
C287 O303 1.251 1_556 S
C288 Eu289 2.835 . S
C288 C290 1.500 . S
C288 O304 1.257 . S
C288 O305 1.260 . S
Eu289 C288 2.835 . S
Eu289 O301 2.355 . S
Eu289 O303 2.374 . S
Eu289 O304 2.473 . S
Eu289 O305 2.480 . S
Eu289 O306 2.430 . S
Eu289 O307 2.670 . S
Eu289 O308 2.394 . S
C290 C288 1.500 . S
C290 C291 1.377 . S
C290 C295 1.377 . S
C291 C290 1.377 . S
C291 C292 1.395 . S
C291 H314 0.931 . S
C292 C291 1.395 . S
C292 C293 1.383 . S
C292 H315 0.931 . S
C293 C292 1.383 . S
C293 C294 1.394 . S
C294 C293 1.394 . S
C294 C295 1.378 . S
C294 H316 0.931 . S
C295 C290 1.377 . S
C295 C294 1.378 . S
C295 H317 0.931 . S
C296 O306 1.259 . S
C296 O307 1.270 . S
C297 O308 1.251 . S
C297 O309 1.251 . S
O298 C278 1.257 . S
O298 Eu279 2.473 . S
O299 C278 1.260 . S
O299 Eu279 2.480 . S
O300 Eu279 2.430 . S
O300 C286 1.259 1_556 S
O301 Eu279 2.670 1_554 S
O301 C286 1.270 . S
O301 Eu289 2.355 . S
O302 Eu279 2.394 . S
O302 C287 1.251 . S
O303 C287 1.251 1_554 S
O303 Eu289 2.374 . S
O304 C288 1.257 . S
O304 Eu289 2.473 . S
O305 C288 1.260 . S
O305 Eu289 2.480 . S
O306 Eu289 2.430 . S
O306 C296 1.259 . S
O307 Eu279 2.355 1_554 S
O307 Eu289 2.670 . S
O307 C296 1.270 . S
O308 Eu289 2.394 . S
O308 C297 1.251 . S
O309 Eu279 2.374 1_554 S
O309 C297 1.251 . S
H310 C281 0.931 . S
H311 C282 0.931 . S
H312 C284 0.931 . S
H313 C285 0.931 . S
H314 C291 0.931 . S
H315 C292 0.931 . S
H316 C294 0.931 . S
H317 C295 0.931 . S
C318 Eu319 2.835 . S
C318 C320 1.500 . S
C318 O338 1.257 . S
C318 O339 1.260 . S
Eu319 C318 2.835 . S
Eu319 O338 2.473 . S
Eu319 O339 2.480 . S
Eu319 O340 2.430 . S
Eu319 O341 2.670 . S
Eu319 O342 2.394 . S
Eu319 O347 2.355 . S
Eu319 O349 2.374 . S
C320 C318 1.500 . S
C320 C321 1.377 . S
C320 C325 1.377 . S
C321 C320 1.377 . S
C321 C322 1.395 . S
C321 H350 0.931 . S
C322 C321 1.395 . S
C322 C323 1.383 . S
C322 H351 0.931 . S
C323 C322 1.383 . S
C323 C324 1.394 . S
C324 C323 1.394 . S
C324 C325 1.378 . S
C324 H352 0.931 . S
C325 C320 1.377 . S
C325 C324 1.378 . S
C325 H353 0.931 . S
C326 O340 1.259 . S
C326 O341 1.270 . S
C327 O342 1.251 . S
C327 O343 1.251 . S
C328 Eu329 2.835 . S
C328 C330 1.500 . S
C328 O344 1.257 . S
C328 O345 1.260 . S
Eu329 C328 2.835 . S
Eu329 O341 2.355 . S
Eu329 O343 2.374 . S
Eu329 O344 2.473 . S
Eu329 O345 2.480 . S
Eu329 O346 2.430 . S
Eu329 O347 2.670 . S
Eu329 O348 2.394 . S
C330 C328 1.500 . S
C330 C331 1.377 . S
C330 C335 1.377 . S
C331 C330 1.377 . S
C331 C332 1.395 . S
C331 H354 0.931 . S
C332 C331 1.395 . S
C332 C333 1.383 . S
C332 H355 0.931 . S
C333 C332 1.383 . S
C333 C334 1.394 . S
C334 C333 1.394 . S
C334 C335 1.378 . S
C334 H356 0.931 . S
C335 C330 1.377 . S
C335 C334 1.378 . S
C335 H357 0.931 . S
C336 O346 1.259 . S
C336 O347 1.270 . S
C337 O348 1.251 . S
C337 O349 1.251 . S
O338 C318 1.257 . S
O338 Eu319 2.473 . S
O339 C318 1.260 . S
O339 Eu319 2.480 . S
O340 Eu319 2.430 . S
O340 C326 1.259 . S
O341 Eu319 2.670 . S
O341 C326 1.270 . S
O341 Eu329 2.355 . S
O342 Eu319 2.394 . S
O342 C327 1.251 . S
O343 C327 1.251 . S
O343 Eu329 2.374 . S
O344 C328 1.257 . S
O344 Eu329 2.473 . S
O345 C328 1.260 . S
O345 Eu329 2.480 . S
O346 Eu329 2.430 . S
O346 C336 1.259 . S
O347 Eu319 2.355 . S
O347 Eu329 2.670 . S
O347 C336 1.270 . S
O348 Eu329 2.394 . S
O348 C337 1.251 . S
O349 Eu319 2.374 . S
O349 C337 1.251 . S
H350 C321 0.931 . S
H351 C322 0.931 . S
H352 C324 0.931 . S
H353 C325 0.931 . S
H354 C331 0.931 . S
H355 C332 0.931 . S
H356 C334 0.931 . S
H357 C335 0.931 . S
C358 Eu359 2.835 . S
C358 C360 1.500 . S
C358 O378 1.257 . S
C358 O379 1.260 . S
Eu359 C358 2.835 . S
Eu359 O378 2.473 . S
Eu359 O379 2.480 . S
Eu359 O380 2.430 . S
Eu359 O381 2.670 . S
Eu359 O382 2.394 . S
Eu359 O387 2.355 . S
Eu359 O389 2.374 . S
C360 C358 1.500 . S
C360 C361 1.377 . S
C360 C365 1.377 . S
C361 C360 1.377 . S
C361 C362 1.395 . S
C361 H390 0.931 . S
C362 C361 1.395 . S
C362 C363 1.383 . S
C362 H391 0.931 . S
C363 C362 1.383 . S
C363 C364 1.394 . S
C364 C363 1.394 . S
C364 C365 1.378 . S
C364 H392 0.931 . S
C365 C360 1.377 . S
C365 C364 1.378 . S
C365 H393 0.931 . S
C366 O380 1.259 . S
C366 O381 1.270 . S
C367 O382 1.251 . S
C367 O383 1.251 . S
C368 Eu369 2.835 . S
C368 C370 1.500 . S
C368 O384 1.257 . S
C368 O385 1.260 . S
Eu369 C368 2.835 . S
Eu369 O381 2.355 . S
Eu369 O383 2.374 . S
Eu369 O384 2.473 . S
Eu369 O385 2.480 . S
Eu369 O386 2.430 . S
Eu369 O387 2.670 . S
Eu369 O388 2.394 . S
C370 C368 1.500 . S
C370 C371 1.377 . S
C370 C375 1.377 . S
C371 C370 1.377 . S
C371 C372 1.395 . S
C371 H394 0.931 . S
C372 C371 1.395 . S
C372 C373 1.383 . S
C372 H395 0.931 . S
C373 C372 1.383 . S
C373 C374 1.394 . S
C374 C373 1.394 . S
C374 C375 1.378 . S
C374 H396 0.931 . S
C375 C370 1.377 . S
C375 C374 1.378 . S
C375 H397 0.931 . S
C376 O386 1.259 . S
C376 O387 1.270 . S
C377 O388 1.251 . S
C377 O389 1.251 . S
O378 C358 1.257 . S
O378 Eu359 2.473 . S
O379 C358 1.260 . S
O379 Eu359 2.480 . S
O380 Eu359 2.430 . S
O380 C366 1.259 . S
O381 Eu359 2.670 . S
O381 C366 1.270 . S
O381 Eu369 2.355 . S
O382 Eu359 2.394 . S
O382 C367 1.251 . S
O383 C367 1.251 . S
O383 Eu369 2.374 . S
O384 C368 1.257 . S
O384 Eu369 2.473 . S
O385 C368 1.260 . S
O385 Eu369 2.480 . S
O386 Eu369 2.430 . S
O386 C376 1.259 . S
O387 Eu359 2.355 . S
O387 Eu369 2.670 . S
O387 C376 1.270 . S
O388 Eu369 2.394 . S
O388 C377 1.251 . S
O389 Eu359 2.374 . S
O389 C377 1.251 . S
H390 C361 0.931 . S
H391 C362 0.931 . S
H392 C364 0.931 . S
H393 C365 0.931 . S
H394 C371 0.931 . S
H395 C372 0.931 . S
H396 C374 0.931 . S
H397 C375 0.931 . S
C398 Eu399 2.835 . S
C398 C400 1.500 . S
C398 O418 1.257 . S
C398 O419 1.260 . S
Eu399 C398 2.835 . S
Eu399 O418 2.473 . S
Eu399 O419 2.480 . S
Eu399 O420 2.430 . S
Eu399 O421 2.670 . S
Eu399 O422 2.394 . S
Eu399 O427 2.355 . S
Eu399 O429 2.374 . S
C400 C398 1.500 . S
C400 C401 1.377 . S
C400 C405 1.377 . S
C401 C400 1.377 . S
C401 C402 1.395 . S
C401 H430 0.931 . S
C402 C401 1.395 . S
C402 C403 1.383 . S
C402 H431 0.931 . S
C403 C402 1.383 . S
C403 C404 1.394 . S
C404 C403 1.394 . S
C404 C405 1.378 . S
C404 H432 0.931 . S
C405 C400 1.377 . S
C405 C404 1.378 . S
C405 H433 0.931 . S
C406 O420 1.259 . S
C406 O421 1.270 . S
C407 O422 1.251 . S
C407 O423 1.251 . S
C408 Eu409 2.835 . S
C408 C410 1.500 . S
C408 O424 1.257 . S
C408 O425 1.260 . S
Eu409 C408 2.835 . S
Eu409 O421 2.355 . S
Eu409 O423 2.374 . S
Eu409 O424 2.473 . S
Eu409 O425 2.480 . S
Eu409 O426 2.430 . S
Eu409 O427 2.670 . S
Eu409 O428 2.394 . S
C410 C408 1.500 . S
C410 C411 1.377 . S
C410 C415 1.377 . S
C411 C410 1.377 . S
C411 C412 1.395 . S
C411 H434 0.931 . S
C412 C411 1.395 . S
C412 C413 1.383 . S
C412 H435 0.931 . S
C413 C412 1.383 . S
C413 C414 1.394 . S
C414 C413 1.394 . S
C414 C415 1.378 . S
C414 H436 0.931 . S
C415 C410 1.377 . S
C415 C414 1.378 . S
C415 H437 0.931 . S
C416 O426 1.259 . S
C416 O427 1.270 . S
C417 O428 1.251 . S
C417 O429 1.251 . S
O418 C398 1.257 . S
O418 Eu399 2.473 . S
O419 C398 1.260 . S
O419 Eu399 2.480 . S
O420 Eu399 2.430 . S
O420 C406 1.259 . S
O421 Eu399 2.670 . S
O421 C406 1.270 . S
O421 Eu409 2.355 . S
O422 Eu399 2.394 . S
O422 C407 1.251 . S
O423 C407 1.251 . S
O423 Eu409 2.374 . S
O424 C408 1.257 . S
O424 Eu409 2.473 . S
O425 C408 1.260 . S
O425 Eu409 2.480 . S
O426 Eu409 2.430 . S
O426 C416 1.259 . S
O427 Eu399 2.355 . S
O427 Eu409 2.670 . S
O427 C416 1.270 . S
O428 Eu409 2.394 . S
O428 C417 1.251 . S
O429 Eu399 2.374 . S
O429 C417 1.251 . S
H430 C401 0.931 . S
H431 C402 0.931 . S
H432 C404 0.931 . S
H433 C405 0.931 . S
H434 C411 0.931 . S
H435 C412 0.931 . S
H436 C414 0.931 . S
H437 C415 0.931 . S
C438 Eu439 2.835 . S
C438 C440 1.500 . S
C438 O458 1.257 . S
C438 O459 1.260 . S
Eu439 C438 2.835 . S
Eu439 O458 2.473 . S
Eu439 O459 2.480 . S
Eu439 O460 2.430 . S
Eu439 O461 2.670 . S
Eu439 O462 2.394 . S
Eu439 O467 2.355 . S
Eu439 O469 2.374 . S
C440 C438 1.500 . S
C440 C441 1.377 . S
C440 C445 1.377 . S
C441 C440 1.377 . S
C441 C442 1.395 . S
C441 H470 0.931 . S
C442 C441 1.395 . S
C442 C443 1.383 . S
C442 H471 0.931 . S
C443 C442 1.383 . S
C443 C444 1.394 . S
C444 C443 1.394 . S
C444 C445 1.378 . S
C444 H472 0.931 . S
C445 C440 1.377 . S
C445 C444 1.378 . S
C445 H473 0.931 . S
C446 O460 1.259 . S
C446 O461 1.270 . S
C447 O462 1.251 . S
C447 O463 1.251 . S
C448 Eu449 2.835 . S
C448 C450 1.500 . S
C448 O464 1.257 . S
C448 O465 1.260 . S
Eu449 C448 2.835 . S
Eu449 O461 2.355 . S
Eu449 O463 2.374 . S
Eu449 O464 2.473 . S
Eu449 O465 2.480 . S
Eu449 O466 2.430 . S
Eu449 O467 2.670 . S
Eu449 O468 2.394 . S
C450 C448 1.500 . S
C450 C451 1.377 . S
C450 C455 1.377 . S
C451 C450 1.377 . S
C451 C452 1.395 . S
C451 H474 0.931 . S
C452 C451 1.395 . S
C452 C453 1.383 . S
C452 H475 0.931 . S
C453 C452 1.383 . S
C453 C454 1.394 . S
C454 C453 1.394 . S
C454 C455 1.378 . S
C454 H476 0.931 . S
C455 C450 1.377 . S
C455 C454 1.378 . S
C455 H477 0.931 . S
C456 O466 1.259 . S
C456 O467 1.270 . S
C457 O468 1.251 . S
C457 O469 1.251 . S
O458 C438 1.257 . S
O458 Eu439 2.473 . S
O459 C438 1.260 . S
O459 Eu439 2.480 . S
O460 Eu439 2.430 . S
O460 C446 1.259 . S
O461 Eu439 2.670 . S
O461 C446 1.270 . S
O461 Eu449 2.355 . S
O462 Eu439 2.394 . S
O462 C447 1.251 . S
O463 C447 1.251 . S
O463 Eu449 2.374 . S
O464 C448 1.257 . S
O464 Eu449 2.473 . S
O465 C448 1.260 . S
O465 Eu449 2.480 . S
O466 Eu449 2.430 . S
O466 C456 1.259 . S
O467 Eu439 2.355 . S
O467 Eu449 2.670 . S
O467 C456 1.270 . S
O468 Eu449 2.394 . S
O468 C457 1.251 . S
O469 Eu439 2.374 . S
O469 C457 1.251 . S
H470 C441 0.931 . S
H471 C442 0.931 . S
H472 C444 0.931 . S
H473 C445 0.931 . S
H474 C451 0.931 . S
H475 C452 0.931 . S
H476 C454 0.931 . S
H477 C455 0.931 . S
C478 Eu479 2.835 . S
C478 C480 1.500 . S
C478 O498 1.257 . S
C478 O499 1.260 . S
Eu479 C478 2.835 . S
Eu479 O498 2.473 . S
Eu479 O499 2.480 . S
Eu479 O500 2.430 . S
Eu479 O501 2.670 . S
Eu479 O502 2.394 . S
Eu479 O507 2.355 . S
Eu479 O509 2.374 . S
C480 C478 1.500 . S
C480 C481 1.377 . S
C480 C485 1.377 . S
C481 C480 1.377 . S
C481 C482 1.395 . S
C481 H510 0.931 . S
C482 C481 1.395 . S
C482 C483 1.383 . S
C482 H511 0.931 . S
C483 C482 1.383 . S
C483 C484 1.394 . S
C484 C483 1.394 . S
C484 C485 1.378 . S
C484 H512 0.931 . S
C485 C480 1.377 . S
C485 C484 1.378 . S
C485 H513 0.931 . S
C486 O500 1.259 . S
C486 O501 1.270 . S
C487 O502 1.251 . S
C487 O503 1.251 . S
C488 Eu489 2.835 . S
C488 C490 1.500 . S
C488 O504 1.257 . S
C488 O505 1.260 . S
Eu489 C488 2.835 . S
Eu489 O501 2.355 . S
Eu489 O503 2.374 . S
Eu489 O504 2.473 . S
Eu489 O505 2.480 . S
Eu489 O506 2.430 . S
Eu489 O507 2.670 . S
Eu489 O508 2.394 . S
C490 C488 1.500 . S
C490 C491 1.377 . S
C490 C495 1.377 . S
C491 C490 1.377 . S
C491 C492 1.395 . S
C491 H514 0.931 . S
C492 C491 1.395 . S
C492 C493 1.383 . S
C492 H515 0.931 . S
C493 C492 1.383 . S
C493 C494 1.394 . S
C494 C493 1.394 . S
C494 C495 1.378 . S
C494 H516 0.931 . S
C495 C490 1.377 . S
C495 C494 1.378 . S
C495 H517 0.931 . S
C496 O506 1.259 . S
C496 O507 1.270 . S
C497 O508 1.251 . S
C497 O509 1.251 . S
O498 C478 1.257 . S
O498 Eu479 2.473 . S
O499 C478 1.260 . S
O499 Eu479 2.480 . S
O500 Eu479 2.430 . S
O500 C486 1.259 . S
O501 Eu479 2.670 . S
O501 C486 1.270 . S
O501 Eu489 2.355 . S
O502 Eu479 2.394 . S
O502 C487 1.251 . S
O503 C487 1.251 . S
O503 Eu489 2.374 . S
O504 C488 1.257 . S
O504 Eu489 2.473 . S
O505 C488 1.260 . S
O505 Eu489 2.480 . S
O506 Eu489 2.430 . S
O506 C496 1.259 . S
O507 Eu479 2.355 . S
O507 Eu489 2.670 . S
O507 C496 1.270 . S
O508 Eu489 2.394 . S
O508 C497 1.251 . S
O509 Eu479 2.374 . S
O509 C497 1.251 . S
H510 C481 0.931 . S
H511 C482 0.931 . S
H512 C484 0.931 . S
H513 C485 0.931 . S
H514 C491 0.931 . S
H515 C492 0.931 . S
H516 C494 0.931 . S
H517 C495 0.931 . S
C518 Eu519 2.835 . S
C518 C520 1.500 . S
C518 O538 1.257 . S
C518 O539 1.260 . S
Eu519 C518 2.835 . S
Eu519 O538 2.473 . S
Eu519 O539 2.480 . S
Eu519 O540 2.430 . S
Eu519 O541 2.670 . S
Eu519 O542 2.394 . S
Eu519 O547 2.355 . S
Eu519 O549 2.374 . S
C520 C518 1.500 . S
C520 C521 1.377 . S
C520 C525 1.377 . S
C521 C520 1.377 . S
C521 C522 1.395 . S
C521 H550 0.931 . S
C522 C521 1.395 . S
C522 C523 1.383 . S
C522 H551 0.931 . S
C523 C522 1.383 . S
C523 C524 1.394 . S
C524 C523 1.394 . S
C524 C525 1.378 . S
C524 H552 0.931 . S
C525 C520 1.377 . S
C525 C524 1.378 . S
C525 H553 0.931 . S
C526 O540 1.259 . S
C526 O541 1.270 . S
C527 O542 1.251 . S
C527 O543 1.251 . S
C528 Eu529 2.835 . S
C528 C530 1.500 . S
C528 O544 1.257 . S
C528 O545 1.260 . S
Eu529 C528 2.835 . S
Eu529 O541 2.355 . S
Eu529 O543 2.374 . S
Eu529 O544 2.473 . S
Eu529 O545 2.480 . S
Eu529 O546 2.430 . S
Eu529 O547 2.670 . S
Eu529 O548 2.394 . S
C530 C528 1.500 . S
C530 C531 1.377 . S
C530 C535 1.377 . S
C531 C530 1.377 . S
C531 C532 1.395 . S
C531 H554 0.931 . S
C532 C531 1.395 . S
C532 C533 1.383 . S
C532 H555 0.931 . S
C533 C532 1.383 . S
C533 C534 1.394 . S
C534 C533 1.394 . S
C534 C535 1.378 . S
C534 H556 0.931 . S
C535 C530 1.377 . S
C535 C534 1.378 . S
C535 H557 0.931 . S
C536 O546 1.259 . S
C536 O547 1.270 . S
C537 O548 1.251 . S
C537 O549 1.251 . S
O538 C518 1.257 . S
O538 Eu519 2.473 . S
O539 C518 1.260 . S
O539 Eu519 2.480 . S
O540 Eu519 2.430 . S
O540 C526 1.259 . S
O541 Eu519 2.670 . S
O541 C526 1.270 . S
O541 Eu529 2.355 . S
O542 Eu519 2.394 . S
O542 C527 1.251 . S
O543 C527 1.251 . S
O543 Eu529 2.374 . S
O544 C528 1.257 . S
O544 Eu529 2.473 . S
O545 C528 1.260 . S
O545 Eu529 2.480 . S
O546 Eu529 2.430 . S
O546 C536 1.259 . S
O547 Eu519 2.355 . S
O547 Eu529 2.670 . S
O547 C536 1.270 . S
O548 Eu529 2.394 . S
O548 C537 1.251 . S
O549 Eu519 2.374 . S
O549 C537 1.251 . S
H550 C521 0.931 . S
H551 C522 0.931 . S
H552 C524 0.931 . S
H553 C525 0.931 . S
H554 C531 0.931 . S
H555 C532 0.931 . S
H556 C534 0.931 . S
H557 C535 0.931 . S
C558 C559 1.391 . S
C558 C560 1.394 . S
C558 H574 0.931 . S
C559 C558 1.391 . S
C559 C563 1.376 . S
C560 C558 1.394 . S
C560 C561 1.369 . S
C560 C564 1.531 . S
C561 C560 1.369 . S
C561 C562 1.410 . S
C561 C569 1.503 . S
C562 C561 1.410 . S
C562 C563 1.392 . S
C562 C565 1.511 . S
C563 C559 1.376 . S
C563 C562 1.392 . S
C563 H575 0.929 . S
C564 C560 1.531 . S
C564 H576 0.960 . S
C564 H577 0.962 . S
C564 H578 0.960 . S
C565 C562 1.511 . S
C565 H579 0.961 . S
C565 H580 0.961 . S
C565 H581 0.961 . S
C566 C567 1.370 . S
C566 C568 1.363 . S
C566 H582 0.931 . S
C567 C566 1.370 . S
C567 C571 1.408 . S
C568 C566 1.363 . S
C568 C569 1.370 . S
C568 C572 1.524 . S
C569 C561 1.503 . S
C569 C568 1.370 . S
C569 C570 1.403 . S
C570 C569 1.403 . S
C570 C571 1.404 . S
C570 C573 1.539 1_554 S
C571 C567 1.408 . S
C571 C570 1.404 . S
C571 H583 0.930 1_554 S
C572 C568 1.524 . S
C572 H584 0.956 . S
C572 H585 0.961 . S
C572 H586 0.961 . S
C573 C570 1.539 1_556 S
C573 H587 0.958 . S
C573 H588 0.961 . S
C573 H589 0.960 . S
H574 C558 0.931 . S
H575 C563 0.929 . S
H576 C564 0.960 . S
H577 C564 0.962 . S
H578 C564 0.960 . S
H579 C565 0.961 . S
H580 C565 0.961 . S
H581 C565 0.961 . S
H582 C566 0.931 . S
H583 C571 0.930 1_556 S
H584 C572 0.956 . S
H585 C572 0.961 . S
H586 C572 0.961 . S
H587 C573 0.958 . S
H588 C573 0.961 . S
H589 C573 0.960 . S
C590 C591 1.391 . S
C590 C592 1.394 . S
C590 H606 0.931 . S
C591 C590 1.391 . S
C591 C595 1.376 . S
C592 C590 1.394 . S
C592 C593 1.369 . S
C592 C596 1.531 . S
C593 C592 1.369 . S
C593 C594 1.410 . S
C593 C601 1.503 . S
C594 C593 1.410 . S
C594 C595 1.392 . S
C594 C597 1.511 . S
C595 C591 1.376 . S
C595 C594 1.392 . S
C595 H607 0.929 . S
C596 C592 1.531 . S
C596 H608 0.960 . S
C596 H609 0.962 . S
C596 H610 0.960 . S
C597 C594 1.511 . S
C597 H611 0.961 . S
C597 H612 0.961 . S
C597 H613 0.961 . S
C598 C599 1.370 . S
C598 C600 1.363 . S
C598 H614 0.931 . S
C599 C598 1.370 . S
C599 C603 1.408 . S
C600 C598 1.363 . S
C600 C601 1.370 . S
C600 C604 1.524 . S
C601 C593 1.503 . S
C601 C600 1.370 . S
C601 C602 1.403 . S
C602 C601 1.403 . S
C602 C603 1.404 . S
C602 C605 1.539 . S
C603 C599 1.408 . S
C603 C602 1.404 . S
C603 H615 0.930 . S
C604 C600 1.524 . S
C604 H616 0.956 . S
C604 H617 0.961 . S
C604 H618 0.961 . S
C605 C602 1.539 . S
C605 H619 0.958 . S
C605 H620 0.961 . S
C605 H621 0.960 . S
H606 C590 0.931 . S
H607 C595 0.929 . S
H608 C596 0.960 . S
H609 C596 0.962 . S
H610 C596 0.960 . S
H611 C597 0.961 . S
H612 C597 0.961 . S
H613 C597 0.961 . S
H614 C598 0.931 . S
H615 C603 0.930 . S
H616 C604 0.956 . S
H617 C604 0.961 . S
H618 C604 0.961 . S
H619 C605 0.958 . S
H620 C605 0.961 . S
H621 C605 0.960 . S
C622 C623 1.391 . S
C622 C624 1.394 . S
C622 H638 0.931 . S
C623 C622 1.391 . S
C623 C627 1.376 . S
C624 C622 1.394 . S
C624 C625 1.369 . S
C624 C628 1.517 1_554 S
C625 C624 1.369 . S
C625 C626 1.410 . S
C625 C633 1.503 . S
C626 C625 1.410 . S
C626 C627 1.392 . S
C626 C629 1.511 . S
C627 C623 1.376 . S
C627 C626 1.392 . S
C627 H639 0.929 . S
C628 C624 1.517 1_556 S
C628 H640 0.968 . S
C628 H641 0.952 1_556 S
C628 H642 0.976 . S
C629 C626 1.511 . S
C629 H643 0.961 . S
C629 H644 0.961 . S
C629 H645 0.961 . S
C630 C631 1.370 . S
C630 C632 1.363 . S
C630 H646 0.931 . S
C631 C630 1.370 . S
C631 C635 1.408 . S
C632 C630 1.363 . S
C632 C633 1.370 . S
C632 C636 1.524 . S
C633 C625 1.503 . S
C633 C632 1.370 . S
C633 C634 1.403 . S
C634 C633 1.403 . S
C634 C635 1.404 . S
C634 C637 1.539 1_554 S
C635 C631 1.408 . S
C635 C634 1.404 . S
C635 H647 0.903 1_554 S
C636 C632 1.524 . S
C636 H648 0.956 . S
C636 H649 0.961 . S
C636 H650 0.961 . S
C637 C634 1.539 1_556 S
C637 H651 0.958 . S
C637 H652 0.961 . S
C637 H653 0.960 1_556 S
H638 C622 0.931 . S
H639 C627 0.929 . S
H640 C628 0.968 . S
H641 C628 0.952 1_554 S
H642 C628 0.976 . S
H643 C629 0.961 . S
H644 C629 0.961 . S
H645 C629 0.961 . S
H646 C630 0.931 . S
H647 C635 0.903 1_556 S
H648 C636 0.956 . S
H649 C636 0.961 . S
H650 C636 0.961 . S
H651 C637 0.958 . S
H652 C637 0.961 . S
H653 C637 0.960 1_554 S
C654 C655 1.391 . S
C654 C656 1.394 . S
C654 H670 0.931 . S
C655 C654 1.391 . S
C655 C659 1.376 . S
C656 C654 1.394 . S
C656 C657 1.369 . S
C656 C660 1.531 1_556 S
C657 C656 1.369 . S
C657 C658 1.410 . S
C657 C665 1.503 . S
C658 C657 1.410 . S
C658 C659 1.392 . S
C658 C661 1.511 . S
C659 C655 1.376 . S
C659 C658 1.392 . S
C659 H671 0.929 . S
C660 C656 1.531 1_554 S
C660 H672 0.960 . S
C660 H673 0.962 . S
C660 H674 0.960 . S
C661 C658 1.511 . S
C661 H675 0.961 . S
C661 H676 0.961 . S
C661 H677 0.961 . S
C662 C663 1.370 . S
C662 C664 1.363 . S
C662 H678 0.931 . S
C663 C662 1.370 . S
C663 C667 1.408 . S
C664 C662 1.363 . S
C664 C665 1.370 . S
C664 C668 1.524 . S
C665 C657 1.503 . S
C665 C664 1.370 . S
C665 C666 1.403 . S
C666 C665 1.403 . S
C666 C667 1.404 . S
C666 C669 1.539 . S
C667 C663 1.408 . S
C667 C666 1.404 . S
C667 H679 0.930 . S
C668 C664 1.524 . S
C668 H680 0.956 . S
C668 H681 0.961 . S
C668 H682 0.961 . S
C669 C666 1.539 . S
C669 H683 0.958 . S
C669 H684 0.961 . S
C669 H685 0.960 . S
H670 C654 0.931 . S
H671 C659 0.929 . S
H672 C660 0.960 . S
H673 C660 0.962 . S
H674 C660 0.960 . S
H675 C661 0.961 . S
H676 C661 0.961 . S
H677 C661 0.961 . S
H678 C662 0.931 . S
H679 C667 0.930 . S
H680 C668 0.956 . S
H681 C668 0.961 . S
H682 C668 0.961 . S
H683 C669 0.958 . S
H684 C669 0.961 . S
H685 C669 0.960 . S
C686 C687 1.391 . S
C686 C688 1.394 . S
C686 H702 0.931 . S
C687 C686 1.391 . S
C687 C691 1.376 . S
C688 C686 1.394 . S
C688 C689 1.369 . S
C688 C692 1.531 . S
C689 C688 1.369 . S
C689 C690 1.410 . S
C689 C697 1.503 . S
C690 C689 1.410 . S
C690 C691 1.392 . S
C690 C693 1.511 . S
C691 C687 1.376 . S
C691 C690 1.392 . S
C691 H703 0.929 . S
C692 C688 1.531 . S
C692 H704 0.960 . S
C692 H705 0.962 . S
C692 H706 0.960 . S
C693 C690 1.511 . S
C693 H707 0.961 . S
C693 H708 0.961 . S
C693 H709 0.961 . S
C694 C695 1.370 . S
C694 C696 1.363 . S
C694 H710 0.931 . S
C695 C694 1.370 . S
C695 C699 1.408 1_556 S
C696 C694 1.363 . S
C696 C697 1.370 . S
C696 C700 1.524 . S
C697 C689 1.503 . S
C697 C696 1.370 . S
C697 C698 1.403 . S
C698 C697 1.403 . S
C698 C699 1.404 1_556 S
C698 C701 1.539 1_556 S
C699 C695 1.408 1_554 S
C699 C698 1.404 1_554 S
C699 H711 0.930 . S
C700 C696 1.524 . S
C700 H712 0.956 . S
C700 H713 0.961 . S
C700 H714 0.961 . S
C701 C698 1.539 1_554 S
C701 H715 0.958 . S
C701 H716 0.961 . S
C701 H717 0.960 . S
H702 C686 0.931 . S
H703 C691 0.929 . S
H704 C692 0.960 . S
H705 C692 0.962 . S
H706 C692 0.960 . S
H707 C693 0.961 . S
H708 C693 0.961 . S
H709 C693 0.961 . S
H710 C694 0.931 . S
H711 C699 0.930 . S
H712 C700 0.956 . S
H713 C700 0.961 . S
H714 C700 0.961 . S
H715 C701 0.958 . S
H716 C701 0.961 . S
H717 C701 0.960 . S
C718 C719 1.391 . S
C718 C720 1.394 . S
C718 H734 0.931 . S
C719 C718 1.391 . S
C719 C723 1.376 . S
C720 C718 1.394 . S
C720 C721 1.369 . S
C720 C724 1.531 . S
C721 C720 1.369 . S
C721 C722 1.410 . S
C721 C729 1.503 . S
C722 C721 1.410 . S
C722 C723 1.392 . S
C722 C725 1.511 . S
C723 C719 1.376 . S
C723 C722 1.392 . S
C723 H735 0.929 . S
C724 C720 1.531 . S
C724 H736 0.960 1_556 S
C724 H737 0.962 . S
C724 H738 0.972 . S
C725 C722 1.511 . S
C725 H739 0.961 . S
C725 H740 0.961 . S
C725 H741 0.961 1_556 S
C726 C727 1.350 1_556 S
C726 C728 1.363 . S
C726 H742 0.931 . S
C727 C726 1.350 1_554 S
C727 C731 1.426 . S
C728 C726 1.363 . S
C728 C729 1.370 . S
C728 C732 1.524 . S
C729 C721 1.503 . S
C729 C728 1.370 . S
C729 C730 1.403 1_556 S
C730 C729 1.403 1_554 S
C730 C731 1.404 . S
C730 C733 1.539 . S
C731 C727 1.426 . S
C731 C730 1.404 . S
C731 H743 0.930 . S
C732 C728 1.524 . S
C732 H744 0.956 . S
C732 H745 0.961 . S
C732 H746 0.961 . S
C733 C730 1.539 . S
C733 H747 0.958 . S
C733 H748 0.961 . S
C733 H749 0.960 . S
H734 C718 0.931 . S
H735 C723 0.929 . S
H736 C724 0.960 1_554 S
H737 C724 0.962 . S
H738 C724 0.972 . S
H739 C725 0.961 . S
H740 C725 0.961 . S
H741 C725 0.961 1_554 S
H742 C726 0.931 . S
H743 C731 0.930 . S
H744 C732 0.956 . S
H745 C732 0.961 . S
H746 C732 0.961 . S
H747 C733 0.958 . S
H748 C733 0.961 . S
H749 C733 0.960 . S
C750 C751 1.391 . S
C750 C752 1.394 . S
C750 H766 0.931 . S
C751 C750 1.391 . S
C751 C755 1.376 . S
C752 C750 1.394 . S
C752 C753 1.369 . S
C752 C756 1.531 1_556 S
C753 C752 1.369 . S
C753 C754 1.410 . S
C753 C761 1.503 . S
C754 C753 1.410 . S
C754 C755 1.392 . S
C754 C757 1.511 . S
C755 C751 1.376 . S
C755 C754 1.392 . S
C755 H767 0.929 . S
C756 C752 1.531 1_554 S
C756 H768 0.960 . S
C756 H769 0.962 . S
C756 H770 0.960 . S
C757 C754 1.511 . S
C757 H771 0.961 . S
C757 H772 0.961 . S
C757 H773 0.961 . S
C758 C759 1.370 . S
C758 C760 1.363 . S
C758 H774 0.931 . S
C759 C758 1.370 . S
C759 C763 1.405 1_556 S
C760 C758 1.363 . S
C760 C761 1.370 . S
C760 C764 1.524 . S
C761 C753 1.503 . S
C761 C760 1.370 . S
C761 C762 1.403 . S
C762 C761 1.403 . S
C762 C763 1.401 1_556 S
C762 C765 1.539 1_556 S
C763 C759 1.405 1_554 S
C763 C762 1.401 1_554 S
C763 H775 0.935 . S
C764 C760 1.524 . S
C764 H776 0.956 . S
C764 H777 0.961 . S
C764 H778 0.961 . S
C765 C762 1.539 1_554 S
C765 H779 0.958 . S
C765 H780 0.961 . S
C765 H781 0.960 1_554 S
H766 C750 0.931 . S
H767 C755 0.929 . S
H768 C756 0.960 . S
H769 C756 0.962 . S
H770 C756 0.960 . S
H771 C757 0.961 . S
H772 C757 0.961 . S
H773 C757 0.961 . S
H774 C758 0.931 . S
H775 C763 0.935 . S
H776 C764 0.956 . S
H777 C764 0.961 . S
H778 C764 0.961 . S
H779 C765 0.958 . S
H780 C765 0.961 . S
H781 C765 0.960 1_556 S
C782 C783 1.391 . S
C782 C784 1.394 . S
C782 H798 0.931 . S
C783 C782 1.391 . S
C783 C787 1.376 . S
C784 C782 1.394 . S
C784 C785 1.369 . S
C784 C788 1.531 . S
C785 C784 1.369 . S
C785 C786 1.410 . S
C785 C793 1.503 . S
C786 C785 1.410 . S
C786 C787 1.392 . S
C786 C789 1.511 . S
C787 C783 1.376 . S
C787 C786 1.392 . S
C787 H799 0.929 . S
C788 C784 1.531 . S
C788 H800 0.960 . S
C788 H801 0.962 1_556 S
C788 H802 0.960 . S
C789 C786 1.511 . S
C789 H803 0.961 . S
C789 H804 0.961 . S
C789 H805 0.961 . S
C790 C791 1.370 . S
C790 C792 1.363 . S
C790 H806 0.931 . S
C791 C790 1.370 . S
C791 C795 1.408 . S
C792 C790 1.363 . S
C792 C793 1.370 . S
C792 C796 1.524 . S
C793 C785 1.503 . S
C793 C792 1.370 . S
C793 C794 1.403 . S
C794 C793 1.403 . S
C794 C795 1.404 . S
C794 C797 1.539 . S
C795 C791 1.408 . S
C795 C794 1.404 . S
C795 H807 0.930 . S
C796 C792 1.524 . S
C796 H808 0.956 1_556 S
C796 H809 0.961 . S
C796 H810 0.962 . S
C797 C794 1.539 . S
C797 H811 0.958 . S
C797 H812 0.961 . S
C797 H813 0.960 . S
H798 C782 0.931 . S
H799 C787 0.929 . S
H800 C788 0.960 . S
H801 C788 0.962 1_554 S
H802 C788 0.960 . S
H803 C789 0.961 . S
H804 C789 0.961 . S
H805 C789 0.961 . S
H806 C790 0.931 . S
H807 C795 0.930 . S
H808 C796 0.956 1_554 S
H809 C796 0.961 . S
H810 C796 0.962 . S
H811 C797 0.958 . S
H812 C797 0.961 . S
H813 C797 0.960 . S
C814 C815 1.391 . S
C814 C816 1.394 . S
C814 H830 0.931 . S
C815 C814 1.391 . S
C815 C819 1.376 1_556 S
C816 C814 1.394 . S
C816 C817 1.369 . S
C816 C820 1.531 . S
C817 C816 1.369 . S
C817 C818 1.410 1_556 S
C817 C825 1.503 1_556 S
C818 C817 1.410 1_554 S
C818 C819 1.392 . S
C818 C821 1.511 . S
C819 C815 1.376 1_554 S
C819 C818 1.392 . S
C819 H831 0.929 . S
C820 C816 1.531 . S
C820 H832 0.960 . S
C820 H833 0.962 . S
C820 H834 0.960 . S
C821 C818 1.511 . S
C821 H835 0.961 . S
C821 H836 0.961 . S
C821 H837 0.961 . S
C822 C823 1.370 1_556 S
C822 C824 1.363 . S
C822 H838 0.931 . S
C823 C822 1.370 1_554 S
C823 C827 1.408 . S
C824 C822 1.363 . S
C824 C825 1.369 1_556 S
C824 C828 1.524 . S
C825 C817 1.503 1_554 S
C825 C824 1.369 1_554 S
C825 C826 1.403 . S
C826 C825 1.403 . S
C826 C827 1.404 . S
C826 C829 1.539 . S
C827 C823 1.408 . S
C827 C826 1.404 . S
C827 H839 0.930 . S
C828 C824 1.524 . S
C828 H840 0.956 . S
C828 H841 0.961 . S
C828 H842 0.961 . S
C829 C826 1.539 . S
C829 H843 0.958 . S
C829 H844 0.961 . S
C829 H845 0.960 . S
H830 C814 0.931 . S
H831 C819 0.929 . S
H832 C820 0.960 . S
H833 C820 0.962 . S
H834 C820 0.960 . S
H835 C821 0.961 . S
H836 C821 0.961 . S
H837 C821 0.961 . S
H838 C822 0.931 . S
H839 C827 0.930 . S
H840 C828 0.956 . S
H841 C828 0.961 . S
H842 C828 0.961 . S
H843 C829 0.958 . S
H844 C829 0.961 . S
H845 C829 0.960 . S
C846 C847 1.391 . S
C846 C848 1.394 . S
C846 H862 0.931 . S
C847 C846 1.391 . S
C847 C851 1.376 . S
C848 C846 1.394 . S
C848 C849 1.369 . S
C848 C852 1.531 . S
C849 C848 1.369 . S
C849 C850 1.410 . S
C849 C857 1.503 . S
C850 C849 1.410 . S
C850 C851 1.392 . S
C850 C853 1.511 . S
C851 C847 1.376 . S
C851 C850 1.392 . S
C851 H863 0.929 . S
C852 C848 1.531 . S
C852 H864 0.960 . S
C852 H865 0.962 . S
C852 H866 0.960 . S
C853 C850 1.511 . S
C853 H867 0.961 . S
C853 H868 0.961 . S
C853 H869 0.961 . S
C854 C855 1.370 . S
C854 C856 1.363 . S
C854 H870 0.931 . S
C855 C854 1.370 . S
C855 C859 1.416 . S
C856 C854 1.363 . S
C856 C857 1.370 . S
C856 C860 1.524 . S
C857 C849 1.503 . S
C857 C856 1.370 . S
C857 C858 1.403 . S
C858 C857 1.403 . S
C858 C859 1.404 . S
C858 C861 1.539 1_554 S
C859 C855 1.416 . S
C859 C858 1.404 . S
C859 H871 0.922 1_554 S
C860 C856 1.524 . S
C860 H872 0.956 . S
C860 H873 0.961 . S
C860 H874 0.961 . S
C861 C858 1.539 1_556 S
C861 H875 0.958 . S
C861 H876 0.961 . S
C861 H877 0.960 . S
H862 C846 0.931 . S
H863 C851 0.929 . S
H864 C852 0.960 . S
H865 C852 0.962 . S
H866 C852 0.960 . S
H867 C853 0.961 . S
H868 C853 0.961 . S
H869 C853 0.961 . S
H870 C854 0.931 . S
H871 C859 0.922 1_556 S
H872 C860 0.956 . S
H873 C860 0.961 . S
H874 C860 0.961 . S
H875 C861 0.958 . S
H876 C861 0.961 . S
H877 C861 0.960 . S
C878 C879 1.391 . S
C878 C880 1.394 . S
C878 H894 0.931 . S
C879 C878 1.391 . S
C879 C883 1.376 . S
C880 C878 1.394 . S
C880 C881 1.369 . S
C880 C884 1.531 . S
C881 C880 1.369 . S
C881 C882 1.410 . S
C881 C889 1.503 . S
C882 C881 1.410 . S
C882 C883 1.392 . S
C882 C885 1.511 . S
C883 C879 1.376 . S
C883 C882 1.392 . S
C883 H895 0.929 . S
C884 C880 1.531 . S
C884 H896 0.960 . S
C884 H897 0.962 . S
C884 H898 0.960 . S
C885 C882 1.511 . S
C885 H899 0.961 . S
C885 H900 0.961 . S
C885 H901 0.961 . S
C886 C887 1.370 . S
C886 C888 1.363 . S
C886 H902 0.931 . S
C887 C886 1.370 . S
C887 C891 1.408 . S
C888 C886 1.363 . S
C888 C889 1.370 . S
C888 C892 1.524 . S
C889 C881 1.503 . S
C889 C888 1.370 . S
C889 C890 1.403 . S
C890 C889 1.403 . S
C890 C891 1.404 . S
C890 C893 1.539 . S
C891 C887 1.408 . S
C891 C890 1.404 . S
C891 H903 0.930 . S
C892 C888 1.524 . S
C892 H904 0.956 . S
C892 H905 0.961 . S
C892 H906 0.961 1_554 S
C893 C890 1.539 . S
C893 H907 0.958 . S
C893 H908 0.961 . S
C893 H909 0.960 . S
H894 C878 0.931 . S
H895 C883 0.929 . S
H896 C884 0.960 . S
H897 C884 0.962 . S
H898 C884 0.960 . S
H899 C885 0.961 . S
H900 C885 0.961 . S
H901 C885 0.961 . S
H902 C886 0.931 . S
H903 C891 0.930 . S
H904 C892 0.956 . S
H905 C892 0.961 . S
H906 C892 0.961 1_556 S
H907 C893 0.958 . S
H908 C893 0.961 . S
H909 C893 0.960 . S
C910 C911 1.391 . S
C910 C912 1.394 . S
C910 H926 0.931 . S
C911 C910 1.391 . S
C911 C915 1.376 . S
C912 C910 1.394 . S
C912 C913 1.369 . S
C912 C916 1.531 . S
C913 C912 1.369 . S
C913 C914 1.410 . S
C913 C921 1.503 . S
C914 C913 1.410 . S
C914 C915 1.392 . S
C914 C917 1.511 . S
C915 C911 1.376 . S
C915 C914 1.392 . S
C915 H927 0.929 . S
C916 C912 1.531 . S
C916 H928 0.960 . S
C916 H929 0.962 . S
C916 H930 0.960 . S
C917 C914 1.511 . S
C917 H931 0.961 . S
C917 H932 0.961 . S
C917 H933 0.961 . S
C918 C919 1.346 1_556 S
C918 C920 1.356 1_556 S
C918 H934 0.963 . S
C919 C918 1.346 1_554 S
C919 C923 1.408 . S
C920 C918 1.356 1_554 S
C920 C921 1.370 . S
C920 C924 1.524 1_554 S
C921 C913 1.503 . S
C921 C920 1.370 . S
C921 C922 1.403 . S
C922 C921 1.403 . S
C922 C923 1.404 . S
C922 C925 1.539 . S
C923 C919 1.408 . S
C923 C922 1.404 . S
C923 H935 0.930 . S
C924 C920 1.524 1_556 S
C924 H936 0.956 . S
C924 H937 0.961 . S
C924 H938 0.961 . S
C925 C922 1.539 . S
C925 H939 0.958 . S
C925 H940 0.961 . S
C925 H941 0.960 . S
H926 C910 0.931 . S
H927 C915 0.929 . S
H928 C916 0.960 . S
H929 C916 0.962 . S
H930 C916 0.960 . S
H931 C917 0.961 . S
H932 C917 0.961 . S
H933 C917 0.961 . S
H934 C918 0.963 . S
H935 C923 0.930 . S
H936 C924 0.956 . S
H937 C924 0.961 . S
H938 C924 0.961 . S
H939 C925 0.958 . S
H940 C925 0.961 . S
H941 C925 0.960 . S
C942 C943 1.391 . S
C942 C944 1.394 . S
C942 H958 0.931 . S
C943 C942 1.391 . S
C943 C947 1.376 . S
C944 C942 1.394 . S
C944 C945 1.369 . S
C944 C948 1.531 . S
C945 C944 1.369 . S
C945 C946 1.410 . S
C945 C953 1.503 1_655 S
C946 C945 1.410 . S
C946 C947 1.392 . S
C946 C949 1.511 . S
C947 C943 1.376 . S
C947 C946 1.392 . S
C947 H959 0.929 . S
C948 C944 1.531 . S
C948 H960 0.960 1_655 S
C948 H961 0.962 . S
C948 H962 0.960 . S
C949 C946 1.511 . S
C949 H963 0.961 . S
C949 H964 0.961 . S
C949 H965 0.961 . S
C950 C951 1.370 . S
C950 C952 1.363 . S
C950 H966 0.931 . S
C951 C950 1.370 . S
C951 C955 1.408 . S
C952 C950 1.363 . S
C952 C953 1.370 . S
C952 C956 1.524 1_455 S
C953 C945 1.503 1_455 S
C953 C952 1.370 . S
C953 C954 1.403 . S
C954 C953 1.403 . S
C954 C955 1.404 . S
C954 C957 1.539 . S
C955 C951 1.408 . S
C955 C954 1.404 . S
C955 H967 0.930 . S
C956 C952 1.524 1_655 S
C956 H968 0.956 . S
C956 H969 0.961 . S
C956 H970 0.961 . S
C957 C954 1.539 . S
C957 H971 0.958 . S
C957 H972 0.961 . S
C957 H973 0.960 . S
H958 C942 0.931 . S
H959 C947 0.929 . S
H960 C948 0.960 1_455 S
H961 C948 0.962 . S
H962 C948 0.960 . S
H963 C949 0.961 . S
H964 C949 0.961 . S
H965 C949 0.961 . S
H966 C950 0.931 . S
H967 C955 0.930 . S
H968 C956 0.956 . S
H969 C956 0.961 . S
H970 C956 0.961 . S
H971 C957 0.958 . S
H972 C957 0.961 . S
H973 C957 0.960 . S
C974 C975 1.391 . S
C974 C976 1.394 . S
C974 H990 0.931 . S
C975 C974 1.391 . S
C975 C979 1.376 . S
C976 C974 1.394 . S
C976 C977 1.369 . S
C976 C980 1.531 . S
C977 C976 1.369 . S
C977 C978 1.410 . S
C977 C985 1.503 . S
C978 C977 1.410 . S
C978 C979 1.392 . S
C978 C981 1.511 . S
C979 C975 1.376 . S
C979 C978 1.392 . S
C979 H991 0.929 . S
C980 C976 1.531 . S
C980 H992 0.960 . S
C980 H993 0.962 . S
C980 H994 0.960 . S
C981 C978 1.511 . S
C981 H995 0.961 . S
C981 H996 0.961 . S
C981 H997 0.961 . S
C982 C983 1.370 . S
C982 C984 1.363 . S
C982 H998 0.931 . S
C983 C982 1.370 . S
C983 C987 1.408 . S
C984 C982 1.363 . S
C984 C985 1.370 . S
C984 C988 1.524 . S
C985 C977 1.503 . S
C985 C984 1.370 . S
C985 C986 1.403 . S
C986 C985 1.403 . S
C986 C987 1.404 . S
C986 C989 1.539 . S
C987 C983 1.408 . S
C987 C986 1.404 . S
C987 H999 0.930 . S
C988 C984 1.524 . S
C988 H1000 0.956 . S
C988 H1001 0.961 . S
C988 H1002 0.961 . S
C989 C986 1.539 . S
C989 H1003 0.958 . S
C989 H1004 0.961 . S
C989 H1005 0.960 . S
H990 C974 0.931 . S
H991 C979 0.929 . S
H992 C980 0.960 . S
H993 C980 0.962 . S
H994 C980 0.960 . S
H995 C981 0.961 . S
H996 C981 0.961 . S
H997 C981 0.961 . S
H998 C982 0.931 . S
H999 C987 0.930 . S
H1000 C988 0.956 . S
H1001 C988 0.961 . S
H1002 C988 0.961 . S
H1003 C989 0.958 . S
H1004 C989 0.961 . S
H1005 C989 0.960 . S
C1006 C1007 1.391 . S
C1006 C1008 1.394 . S
C1006 H1022 0.931 . S
C1007 C1006 1.391 . S
C1007 C1011 1.376 . S
C1008 C1006 1.394 . S
C1008 C1009 1.369 . S
C1008 C1012 1.531 . S
C1009 C1008 1.369 . S
C1009 C1010 1.410 . S
C1009 C1017 1.503 . S
C1010 C1009 1.410 . S
C1010 C1011 1.392 . S
C1010 C1013 1.511 . S
C1011 C1007 1.376 . S
C1011 C1010 1.392 . S
C1011 H1023 0.929 . S
C1012 C1008 1.531 . S
C1012 H1024 0.960 . S
C1012 H1025 0.962 . S
C1012 H1026 0.960 . S
C1013 C1010 1.511 . S
C1013 H1027 0.961 . S
C1013 H1028 0.961 . S
C1013 H1029 0.961 . S
C1014 C1015 1.370 . S
C1014 C1016 1.363 . S
C1014 H1030 0.931 . S
C1015 C1014 1.370 . S
C1015 C1019 1.408 . S
C1016 C1014 1.363 . S
C1016 C1017 1.370 1_565 S
C1016 C1020 1.524 1_565 S
C1017 C1009 1.503 . S
C1017 C1016 1.370 1_545 S
C1017 C1018 1.403 1_545 S
C1018 C1017 1.403 1_565 S
C1018 C1019 1.404 . S
C1018 C1021 1.539 . S
C1019 C1015 1.408 . S
C1019 C1018 1.404 . S
C1019 H1031 0.930 . S
C1020 C1016 1.524 1_545 S
C1020 H1032 0.956 . S
C1020 H1033 0.961 . S
C1020 H1034 0.961 . S
C1021 C1018 1.539 . S
C1021 H1035 0.958 . S
C1021 H1036 0.961 . S
C1021 H1037 0.960 1_565 S
H1022 C1006 0.931 . S
H1023 C1011 0.929 . S
H1024 C1012 0.960 . S
H1025 C1012 0.962 . S
H1026 C1012 0.960 . S
H1027 C1013 0.961 . S
H1028 C1013 0.961 . S
H1029 C1013 0.961 . S
H1030 C1014 0.931 . S
H1031 C1019 0.930 . S
H1032 C1020 0.956 . S
H1033 C1020 0.961 . S
H1034 C1020 0.961 . S
H1035 C1021 0.958 . S
H1036 C1021 0.961 . S
H1037 C1021 0.960 1_545 S
C1038 C1039 1.391 . S
C1038 C1040 1.394 . S
C1038 H1054 0.931 . S
C1039 C1038 1.391 . S
C1039 C1043 1.376 . S
C1040 C1038 1.394 . S
C1040 C1041 1.369 . S
C1040 C1044 1.531 . S
C1041 C1040 1.369 . S
C1041 C1042 1.410 . S
C1041 C1049 1.503 . S
C1042 C1041 1.410 . S
C1042 C1043 1.392 . S
C1042 C1045 1.511 . S
C1043 C1039 1.376 . S
C1043 C1042 1.392 . S
C1043 H1055 0.929 . S
C1044 C1040 1.531 . S
C1044 H1056 0.960 . S
C1044 H1057 0.962 . S
C1044 H1058 0.960 . S
C1045 C1042 1.511 . S
C1045 H1059 0.961 . S
C1045 H1060 0.961 . S
C1045 H1061 0.961 . S
C1046 C1047 1.370 . S
C1046 C1048 1.363 . S
C1046 H1062 0.931 . S
C1047 C1046 1.370 . S
C1047 C1051 1.408 . S
C1048 C1046 1.363 . S
C1048 C1049 1.370 . S
C1048 C1052 1.524 . S
C1049 C1041 1.503 . S
C1049 C1048 1.370 . S
C1049 C1050 1.403 . S
C1050 C1049 1.403 . S
C1050 C1051 1.404 . S
C1050 C1053 1.539 . S
C1051 C1047 1.408 . S
C1051 C1050 1.404 . S
C1051 H1063 0.930 . S
C1052 C1048 1.524 . S
C1052 H1064 0.956 . S
C1052 H1065 0.961 . S
C1052 H1066 0.961 . S
C1053 C1050 1.539 . S
C1053 H1067 0.958 . S
C1053 H1068 0.961 . S
C1053 H1069 0.960 . S
H1054 C1038 0.931 . S
H1055 C1043 0.929 . S
H1056 C1044 0.960 . S
H1057 C1044 0.962 . S
H1058 C1044 0.960 . S
H1059 C1045 0.961 . S
H1060 C1045 0.961 . S
H1061 C1045 0.961 . S
H1062 C1046 0.931 . S
H1063 C1051 0.930 . S
H1064 C1052 0.956 . S
H1065 C1052 0.961 . S
H1066 C1052 0.961 . S
H1067 C1053 0.958 . S
H1068 C1053 0.961 . S
H1069 C1053 0.960 . S
C1070 C1071 1.391 . S
C1070 C1072 1.394 . S
C1070 H1086 0.931 . S
C1071 C1070 1.391 . S
C1071 C1075 1.376 . S
C1072 C1070 1.394 . S
C1072 C1073 1.369 . S
C1072 C1076 1.531 . S
C1073 C1072 1.369 . S
C1073 C1074 1.410 . S
C1073 C1081 1.503 . S
C1074 C1073 1.410 . S
C1074 C1075 1.392 . S
C1074 C1077 1.511 . S
C1075 C1071 1.376 . S
C1075 C1074 1.392 . S
C1075 H1087 0.929 . S
C1076 C1072 1.531 . S
C1076 H1088 0.960 . S
C1076 H1089 0.962 . S
C1076 H1090 0.960 . S
C1077 C1074 1.511 . S
C1077 H1091 0.961 . S
C1077 H1092 0.961 . S
C1077 H1093 0.961 . S
C1078 C1079 1.370 . S
C1078 C1080 1.363 . S
C1078 H1094 0.931 . S
C1079 C1078 1.370 . S
C1079 C1083 1.408 . S
C1080 C1078 1.363 . S
C1080 C1081 1.370 . S
C1080 C1084 1.524 . S
C1081 C1073 1.503 . S
C1081 C1080 1.370 . S
C1081 C1082 1.403 . S
C1082 C1081 1.403 . S
C1082 C1083 1.404 . S
C1082 C1085 1.539 . S
C1083 C1079 1.408 . S
C1083 C1082 1.404 . S
C1083 H1095 0.930 . S
C1084 C1080 1.524 . S
C1084 H1096 0.956 . S
C1084 H1097 0.961 . S
C1084 H1098 0.961 . S
C1085 C1082 1.539 . S
C1085 H1099 0.958 . S
C1085 H1100 0.961 . S
C1085 H1101 0.960 . S
H1086 C1070 0.931 . S
H1087 C1075 0.929 . S
H1088 C1076 0.960 . S
H1089 C1076 0.962 . S
H1090 C1076 0.960 . S
H1091 C1077 0.961 . S
H1092 C1077 0.961 . S
H1093 C1077 0.961 . S
H1094 C1078 0.931 . S
H1095 C1083 0.930 . S
H1096 C1084 0.956 . S
H1097 C1084 0.961 . S
H1098 C1084 0.961 . S
H1099 C1085 0.958 . S
H1100 C1085 0.961 . S
H1101 C1085 0.960 . S
C1102 C1103 1.391 . S
C1102 C1104 1.394 . S
C1102 H1118 0.931 . S
C1103 C1102 1.391 . S
C1103 C1107 1.376 . S
C1104 C1102 1.394 . S
C1104 C1105 1.369 . S
C1104 C1108 1.531 . S
C1105 C1104 1.369 . S
C1105 C1106 1.410 . S
C1105 C1113 1.503 . S
C1106 C1105 1.410 . S
C1106 C1107 1.392 . S
C1106 C1109 1.511 . S
C1107 C1103 1.376 . S
C1107 C1106 1.392 . S
C1107 H1119 0.929 . S
C1108 C1104 1.531 . S
C1108 H1120 0.960 . S
C1108 H1121 0.962 . S
C1108 H1122 0.960 . S
C1109 C1106 1.511 . S
C1109 H1123 0.961 . S
C1109 H1124 0.961 . S
C1109 H1125 0.961 . S
C1110 C1111 1.370 . S
C1110 C1112 1.363 . S
C1110 H1126 0.931 . S
C1111 C1110 1.370 . S
C1111 C1115 1.408 . S
C1112 C1110 1.363 . S
C1112 C1113 1.370 . S
C1112 C1116 1.524 . S
C1113 C1105 1.503 . S
C1113 C1112 1.370 . S
C1113 C1114 1.403 . S
C1114 C1113 1.403 . S
C1114 C1115 1.404 . S
C1114 C1117 1.539 . S
C1115 C1111 1.408 . S
C1115 C1114 1.404 . S
C1115 H1127 0.930 . S
C1116 C1112 1.524 . S
C1116 H1128 0.956 . S
C1116 H1129 0.961 . S
C1116 H1130 0.961 . S
C1117 C1114 1.539 . S
C1117 H1131 0.958 . S
C1117 H1132 0.961 . S
C1117 H1133 0.960 . S
H1118 C1102 0.931 . S
H1119 C1107 0.929 . S
H1120 C1108 0.960 . S
H1121 C1108 0.962 . S
H1122 C1108 0.960 . S
H1123 C1109 0.961 . S
H1124 C1109 0.961 . S
H1125 C1109 0.961 . S
H1126 C1110 0.931 . S
H1127 C1115 0.930 . S
H1128 C1116 0.956 . S
H1129 C1116 0.961 . S
H1130 C1116 0.961 . S
H1131 C1117 0.958 . S
H1132 C1117 0.961 . S
H1133 C1117 0.960 . S
C1134 C1135 1.391 . S
C1134 C1136 1.394 . S
C1134 H1150 0.931 . S
C1135 C1134 1.391 . S
C1135 C1139 1.376 . S
C1136 C1134 1.394 . S
C1136 C1137 1.369 . S
C1136 C1140 1.531 . S
C1137 C1136 1.369 . S
C1137 C1138 1.410 . S
C1137 C1145 1.503 . S
C1138 C1137 1.410 . S
C1138 C1139 1.392 . S
C1138 C1141 1.511 . S
C1139 C1135 1.376 . S
C1139 C1138 1.392 . S
C1139 H1151 0.929 . S
C1140 C1136 1.531 . S
C1140 H1152 0.960 . S
C1140 H1153 0.962 . S
C1140 H1154 0.960 . S
C1141 C1138 1.511 . S
C1141 H1155 0.961 . S
C1141 H1156 0.961 . S
C1141 H1157 0.961 . S
C1142 C1143 1.370 . S
C1142 C1144 1.363 . S
C1142 H1158 0.931 . S
C1143 C1142 1.370 . S
C1143 C1147 1.408 . S
C1144 C1142 1.363 . S
C1144 C1145 1.370 . S
C1144 C1148 1.524 . S
C1145 C1137 1.503 . S
C1145 C1144 1.370 . S
C1145 C1146 1.403 . S
C1146 C1145 1.403 . S
C1146 C1147 1.404 . S
C1146 C1149 1.539 . S
C1147 C1143 1.408 . S
C1147 C1146 1.404 . S
C1147 H1159 0.930 . S
C1148 C1144 1.524 . S
C1148 H1160 0.956 . S
C1148 H1161 0.961 . S
C1148 H1162 0.961 . S
C1149 C1146 1.539 . S
C1149 H1163 0.958 . S
C1149 H1164 0.961 . S
C1149 H1165 0.960 . S
H1150 C1134 0.931 . S
H1151 C1139 0.929 . S
H1152 C1140 0.960 . S
H1153 C1140 0.962 . S
H1154 C1140 0.960 . S
H1155 C1141 0.961 . S
H1156 C1141 0.961 . S
H1157 C1141 0.961 . S
H1158 C1142 0.931 . S
H1159 C1147 0.930 . S
H1160 C1148 0.956 . S
H1161 C1148 0.961 . S
H1162 C1148 0.961 . S
H1163 C1149 0.958 . S
H1164 C1149 0.961 . S
H1165 C1149 0.960 . S
C1166 C1167 1.391 . S
C1166 C1168 1.394 . S
C1166 H1182 0.931 . S
C1167 C1166 1.391 . S
C1167 C1171 1.376 . S
C1168 C1166 1.394 . S
C1168 C1169 1.369 . S
C1168 C1172 1.531 . S
C1169 C1168 1.369 . S
C1169 C1170 1.410 . S
C1169 C1177 1.503 . S
C1170 C1169 1.410 . S
C1170 C1171 1.392 . S
C1170 C1173 1.511 . S
C1171 C1167 1.376 . S
C1171 C1170 1.392 . S
C1171 H1183 0.929 . S
C1172 C1168 1.531 . S
C1172 H1184 0.960 . S
C1172 H1185 0.962 . S
C1172 H1186 0.960 . S
C1173 C1170 1.511 . S
C1173 H1187 0.961 . S
C1173 H1188 0.961 . S
C1173 H1189 0.961 . S
C1174 C1175 1.370 . S
C1174 C1176 1.363 . S
C1174 H1190 0.931 . S
C1175 C1174 1.370 . S
C1175 C1179 1.408 . S
C1176 C1174 1.363 . S
C1176 C1177 1.370 . S
C1176 C1180 1.524 . S
C1177 C1169 1.503 . S
C1177 C1176 1.370 . S
C1177 C1178 1.403 . S
C1178 C1177 1.403 . S
C1178 C1179 1.404 . S
C1178 C1181 1.539 . S
C1179 C1175 1.408 . S
C1179 C1178 1.404 . S
C1179 H1191 0.930 . S
C1180 C1176 1.524 . S
C1180 H1192 0.956 . S
C1180 H1193 0.961 . S
C1180 H1194 0.961 . S
C1181 C1178 1.539 . S
C1181 H1195 0.958 . S
C1181 H1196 0.961 . S
C1181 H1197 0.960 . S
H1182 C1166 0.931 . S
H1183 C1171 0.929 . S
H1184 C1172 0.960 . S
H1185 C1172 0.962 . S
H1186 C1172 0.960 . S
H1187 C1173 0.961 . S
H1188 C1173 0.961 . S
H1189 C1173 0.961 . S
H1190 C1174 0.931 . S
H1191 C1179 0.930 . S
H1192 C1180 0.956 . S
H1193 C1180 0.961 . S
H1194 C1180 0.961 . S
H1195 C1181 0.958 . S
H1196 C1181 0.961 . S
H1197 C1181 0.960 . S
C1198 C1199 1.391 . S
C1198 C1200 1.394 . S
C1198 H1214 0.931 . S
C1199 C1198 1.391 . S
C1199 C1203 1.376 . S
C1200 C1198 1.394 . S
C1200 C1201 1.369 . S
C1200 C1204 1.531 . S
C1201 C1200 1.369 . S
C1201 C1202 1.410 . S
C1201 C1209 1.503 . S
C1202 C1201 1.410 . S
C1202 C1203 1.392 . S
C1202 C1205 1.511 . S
C1203 C1199 1.376 . S
C1203 C1202 1.392 . S
C1203 H1215 0.929 . S
C1204 C1200 1.531 . S
C1204 H1216 0.960 . S
C1204 H1217 0.962 . S
C1204 H1218 0.960 . S
C1205 C1202 1.511 . S
C1205 H1219 0.961 . S
C1205 H1220 0.961 . S
C1205 H1221 0.961 . S
C1206 C1207 1.370 . S
C1206 C1208 1.363 . S
C1206 H1222 0.931 . S
C1207 C1206 1.370 . S
C1207 C1211 1.408 . S
C1208 C1206 1.363 . S
C1208 C1209 1.370 . S
C1208 C1212 1.524 . S
C1209 C1201 1.503 . S
C1209 C1208 1.370 . S
C1209 C1210 1.403 . S
C1210 C1209 1.403 . S
C1210 C1211 1.404 . S
C1210 C1213 1.539 . S
C1211 C1207 1.408 . S
C1211 C1210 1.404 . S
C1211 H1223 0.930 . S
C1212 C1208 1.524 . S
C1212 H1224 0.956 . S
C1212 H1225 0.961 . S
C1212 H1226 0.961 . S
C1213 C1210 1.539 . S
C1213 H1227 0.958 . S
C1213 H1228 0.961 . S
C1213 H1229 0.960 . S
H1214 C1198 0.931 . S
H1215 C1203 0.929 . S
H1216 C1204 0.960 . S
H1217 C1204 0.962 . S
H1218 C1204 0.960 . S
H1219 C1205 0.961 . S
H1220 C1205 0.961 . S
H1221 C1205 0.961 . S
H1222 C1206 0.931 . S
H1223 C1211 0.930 . S
H1224 C1212 0.956 . S
H1225 C1212 0.961 . S
H1226 C1212 0.961 . S
H1227 C1213 0.958 . S
H1228 C1213 0.961 . S
H1229 C1213 0.960 . S
C1230 C1231 1.391 . S
C1230 C1232 1.394 1_545 S
C1230 H1246 0.931 . S
C1231 C1230 1.391 . S
C1231 C1235 1.376 . S
C1232 C1230 1.394 1_565 S
C1232 C1233 1.369 . S
C1232 C1236 1.531 . S
C1233 C1232 1.369 . S
C1233 C1234 1.410 . S
C1233 C1241 1.503 . S
C1234 C1233 1.410 . S
C1234 C1235 1.392 1_565 S
C1234 C1237 1.511 . S
C1235 C1231 1.376 . S
C1235 C1234 1.392 1_545 S
C1235 H1247 0.929 . S
C1236 C1232 1.531 . S
C1236 H1248 0.960 . S
C1236 H1249 0.962 . S
C1236 H1250 0.960 . S
C1237 C1234 1.511 . S
C1237 H1251 0.961 . S
C1237 H1252 0.961 . S
C1237 H1253 0.961 . S
C1238 C1239 1.370 . S
C1238 C1240 1.363 . S
C1238 H1254 0.931 . S
C1239 C1238 1.370 . S
C1239 C1243 1.408 . S
C1240 C1238 1.363 . S
C1240 C1241 1.370 . S
C1240 C1244 1.524 . S
C1241 C1233 1.503 . S
C1241 C1240 1.370 . S
C1241 C1242 1.403 . S
C1242 C1241 1.403 . S
C1242 C1243 1.404 . S
C1242 C1245 1.539 . S
C1243 C1239 1.408 . S
C1243 C1242 1.404 . S
C1243 H1255 0.930 . S
C1244 C1240 1.524 . S
C1244 H1256 0.956 . S
C1244 H1257 0.961 . S
C1244 H1258 0.961 . S
C1245 C1242 1.539 . S
C1245 H1259 0.958 . S
C1245 H1260 0.961 . S
C1245 H1261 0.960 . S
H1246 C1230 0.931 . S
H1247 C1235 0.929 . S
H1248 C1236 0.960 . S
H1249 C1236 0.962 . S
H1250 C1236 0.960 . S
H1251 C1237 0.961 . S
H1252 C1237 0.961 . S
H1253 C1237 0.961 . S
H1254 C1238 0.931 . S
H1255 C1243 0.930 . S
H1256 C1244 0.956 . S
H1257 C1244 0.961 . S
H1258 C1244 0.961 . S
H1259 C1245 0.958 . S
H1260 C1245 0.961 . S
H1261 C1245 0.960 . S
C1262 C1263 1.391 . S
C1262 C1264 1.394 1_655 S
C1262 H1278 0.931 . S
C1263 C1262 1.391 . S
C1263 C1267 1.376 1_655 S
C1264 C1262 1.394 1_455 S
C1264 C1265 1.369 . S
C1264 C1268 1.531 . S
C1265 C1264 1.369 . S
C1265 C1266 1.410 . S
C1265 C1273 1.503 . S
C1266 C1265 1.410 . S
C1266 C1267 1.392 . S
C1266 C1269 1.511 . S
C1267 C1263 1.376 1_455 S
C1267 C1266 1.392 . S
C1267 H1279 0.929 1_455 S
C1268 C1264 1.531 . S
C1268 H1280 0.960 . S
C1268 H1281 0.962 . S
C1268 H1282 0.960 . S
C1269 C1266 1.511 . S
C1269 H1283 0.961 . S
C1269 H1284 0.961 . S
C1269 H1285 0.961 . S
C1270 C1271 1.370 . S
C1270 C1272 1.363 . S
C1270 H1286 0.931 . S
C1271 C1270 1.370 . S
C1271 C1275 1.408 . S
C1272 C1270 1.363 . S
C1272 C1273 1.370 . S
C1272 C1276 1.524 . S
C1273 C1265 1.503 . S
C1273 C1272 1.370 . S
C1273 C1274 1.403 . S
C1274 C1273 1.403 . S
C1274 C1275 1.404 . S
C1274 C1277 1.539 . S
C1275 C1271 1.408 . S
C1275 C1274 1.404 . S
C1275 H1287 0.930 . S
C1276 C1272 1.524 . S
C1276 H1288 0.956 . S
C1276 H1289 0.961 . S
C1276 H1290 0.961 . S
C1277 C1274 1.539 . S
C1277 H1291 0.958 . S
C1277 H1292 0.961 . S
C1277 H1293 0.960 . S
H1278 C1262 0.931 . S
H1279 C1267 0.929 1_655 S
H1280 C1268 0.960 . S
H1281 C1268 0.962 . S
H1282 C1268 0.960 . S
H1283 C1269 0.961 . S
H1284 C1269 0.961 . S
H1285 C1269 0.961 . S
H1286 C1270 0.931 . S
H1287 C1275 0.930 . S
H1288 C1276 0.956 . S
H1289 C1276 0.961 . S
H1290 C1276 0.961 . S
H1291 C1277 0.958 . S
H1292 C1277 0.961 . S
H1293 C1277 0.960 . S
C1294 C1295 1.391 . S
C1294 C1296 1.394 . S
C1294 H1310 0.931 . S
C1295 C1294 1.391 . S
C1295 C1299 1.376 . S
C1296 C1294 1.394 . S
C1296 C1297 1.369 . S
C1296 C1300 1.531 . S
C1297 C1296 1.369 . S
C1297 C1298 1.410 . S
C1297 C1305 1.503 . S
C1298 C1297 1.410 . S
C1298 C1299 1.392 . S
C1298 C1301 1.511 . S
C1299 C1295 1.376 . S
C1299 C1298 1.392 . S
C1299 H1311 0.929 . S
C1300 C1296 1.531 . S
C1300 H1312 0.960 . S
C1300 H1313 0.962 . S
C1300 H1314 0.960 . S
C1301 C1298 1.511 . S
C1301 H1315 0.961 . S
C1301 H1316 0.961 . S
C1301 H1317 0.961 . S
C1302 C1303 1.370 . S
C1302 C1304 1.363 . S
C1302 H1318 0.931 . S
C1303 C1302 1.370 . S
C1303 C1307 1.408 . S
C1304 C1302 1.363 . S
C1304 C1305 1.370 . S
C1304 C1308 1.524 . S
C1305 C1297 1.503 . S
C1305 C1304 1.370 . S
C1305 C1306 1.403 . S
C1306 C1305 1.403 . S
C1306 C1307 1.404 . S
C1306 C1309 1.539 . S
C1307 C1303 1.408 . S
C1307 C1306 1.404 . S
C1307 H1319 0.930 . S
C1308 C1304 1.524 . S
C1308 H1320 0.956 . S
C1308 H1321 0.961 . S
C1308 H1322 0.961 . S
C1309 C1306 1.539 . S
C1309 H1323 0.958 . S
C1309 H1324 0.961 . S
C1309 H1325 0.960 . S
H1310 C1294 0.931 . S
H1311 C1299 0.929 . S
H1312 C1300 0.960 . S
H1313 C1300 0.962 . S
H1314 C1300 0.960 . S
H1315 C1301 0.961 . S
H1316 C1301 0.961 . S
H1317 C1301 0.961 . S
H1318 C1302 0.931 . S
H1319 C1307 0.930 . S
H1320 C1308 0.956 . S
H1321 C1308 0.961 . S
H1322 C1308 0.961 . S
H1323 C1309 0.958 . S
H1324 C1309 0.961 . S
H1325 C1309 0.960 . S
C1326 C1327 1.391 . S
C1326 C1328 1.394 . S
C1326 H1342 0.931 . S
C1327 C1326 1.391 . S
C1327 C1331 1.376 . S
C1328 C1326 1.394 . S
C1328 C1329 1.369 . S
C1328 C1332 1.531 . S
C1329 C1328 1.369 . S
C1329 C1330 1.410 . S
C1329 C1337 1.503 . S
C1330 C1329 1.410 . S
C1330 C1331 1.392 . S
C1330 C1333 1.511 . S
C1331 C1327 1.376 . S
C1331 C1330 1.392 . S
C1331 H1343 0.929 . S
C1332 C1328 1.531 . S
C1332 H1344 0.960 . S
C1332 H1345 0.962 . S
C1332 H1346 0.960 . S
C1333 C1330 1.511 . S
C1333 H1347 0.961 . S
C1333 H1348 0.961 . S
C1333 H1349 0.961 . S
C1334 C1335 1.370 . S
C1334 C1336 1.363 . S
C1334 H1350 0.931 . S
C1335 C1334 1.370 . S
C1335 C1339 1.408 . S
C1336 C1334 1.363 . S
C1336 C1337 1.370 . S
C1336 C1340 1.524 . S
C1337 C1329 1.503 . S
C1337 C1336 1.370 . S
C1337 C1338 1.403 . S
C1338 C1337 1.403 . S
C1338 C1339 1.404 . S
C1338 C1341 1.539 . S
C1339 C1335 1.408 . S
C1339 C1338 1.404 . S
C1339 H1351 0.930 . S
C1340 C1336 1.524 . S
C1340 H1352 0.956 . S
C1340 H1353 0.961 . S
C1340 H1354 0.961 . S
C1341 C1338 1.539 . S
C1341 H1355 0.958 . S
C1341 H1356 0.961 . S
C1341 H1357 0.960 . S
H1342 C1326 0.931 . S
H1343 C1331 0.929 . S
H1344 C1332 0.960 . S
H1345 C1332 0.962 . S
H1346 C1332 0.960 . S
H1347 C1333 0.961 . S
H1348 C1333 0.961 . S
H1349 C1333 0.961 . S
H1350 C1334 0.931 . S
H1351 C1339 0.930 . S
H1352 C1340 0.956 . S
H1353 C1340 0.961 . S
H1354 C1340 0.961 . S
H1355 C1341 0.958 . S
H1356 C1341 0.961 . S
H1357 C1341 0.960 . S
C1358 C1359 1.391 . S
C1358 C1360 1.394 . S
C1358 H1374 0.931 . S
C1359 C1358 1.391 . S
C1359 C1363 1.376 . S
C1360 C1358 1.394 . S
C1360 C1361 1.369 . S
C1360 C1364 1.531 . S
C1361 C1360 1.369 . S
C1361 C1362 1.410 . S
C1361 C1369 1.503 . S
C1362 C1361 1.410 . S
C1362 C1363 1.392 . S
C1362 C1365 1.511 . S
C1363 C1359 1.376 . S
C1363 C1362 1.392 . S
C1363 H1375 0.929 . S
C1364 C1360 1.531 . S
C1364 H1376 0.960 . S
C1364 H1377 0.962 . S
C1364 H1378 0.960 . S
C1365 C1362 1.511 . S
C1365 H1379 0.961 . S
C1365 H1380 0.961 . S
C1365 H1381 0.961 . S
C1366 C1367 1.370 . S
C1366 C1368 1.363 . S
C1366 H1382 0.931 . S
C1367 C1366 1.370 . S
C1367 C1371 1.408 . S
C1368 C1366 1.363 . S
C1368 C1369 1.370 . S
C1368 C1372 1.524 . S
C1369 C1361 1.503 . S
C1369 C1368 1.370 . S
C1369 C1370 1.403 . S
C1370 C1369 1.403 . S
C1370 C1371 1.404 . S
C1370 C1373 1.539 . S
C1371 C1367 1.408 . S
C1371 C1370 1.404 . S
C1371 H1383 0.930 . S
C1372 C1368 1.524 . S
C1372 H1384 0.956 . S
C1372 H1385 0.961 . S
C1372 H1386 0.961 . S
C1373 C1370 1.539 . S
C1373 H1387 0.958 . S
C1373 H1388 0.961 . S
C1373 H1389 0.960 . S
H1374 C1358 0.931 . S
H1375 C1363 0.929 . S
H1376 C1364 0.960 . S
H1377 C1364 0.962 . S
H1378 C1364 0.960 . S
H1379 C1365 0.961 . S
H1380 C1365 0.961 . S
H1381 C1365 0.961 . S
H1382 C1366 0.931 . S
H1383 C1371 0.930 . S
H1384 C1372 0.956 . S
H1385 C1372 0.961 . S
H1386 C1372 0.961 . S
H1387 C1373 0.958 . S
H1388 C1373 0.961 . S
H1389 C1373 0.960 . S
C1390 C1391 1.391 . S
C1390 C1392 1.394 . S
C1390 H1406 0.931 . S
C1391 C1390 1.391 . S
C1391 C1395 1.376 . S
C1392 C1390 1.394 . S
C1392 C1393 1.369 . S
C1392 C1396 1.531 . S
C1393 C1392 1.369 . S
C1393 C1394 1.410 . S
C1393 C1401 1.503 . S
C1394 C1393 1.410 . S
C1394 C1395 1.392 . S
C1394 C1397 1.511 . S
C1395 C1391 1.376 . S
C1395 C1394 1.392 . S
C1395 H1407 0.929 . S
C1396 C1392 1.531 . S
C1396 H1408 0.960 . S
C1396 H1409 0.962 . S
C1396 H1410 0.960 . S
C1397 C1394 1.511 . S
C1397 H1411 0.961 . S
C1397 H1412 0.961 . S
C1397 H1413 0.961 . S
C1398 C1399 1.370 . S
C1398 C1400 1.363 . S
C1398 H1414 0.931 . S
C1399 C1398 1.370 . S
C1399 C1403 1.408 . S
C1400 C1398 1.363 . S
C1400 C1401 1.370 . S
C1400 C1404 1.524 . S
C1401 C1393 1.503 . S
C1401 C1400 1.370 . S
C1401 C1402 1.403 . S
C1402 C1401 1.403 . S
C1402 C1403 1.404 . S
C1402 C1405 1.539 . S
C1403 C1399 1.408 . S
C1403 C1402 1.404 . S
C1403 H1415 0.930 . S
C1404 C1400 1.524 . S
C1404 H1416 0.956 . S
C1404 H1417 0.961 . S
C1404 H1418 0.961 . S
C1405 C1402 1.539 . S
C1405 H1419 0.958 . S
C1405 H1420 0.961 . S
C1405 H1421 0.960 . S
H1406 C1390 0.931 . S
H1407 C1395 0.929 . S
H1408 C1396 0.960 . S
H1409 C1396 0.962 . S
H1410 C1396 0.960 . S
H1411 C1397 0.961 . S
H1412 C1397 0.961 . S
H1413 C1397 0.961 . S
H1414 C1398 0.931 . S
H1415 C1403 0.930 . S
H1416 C1404 0.956 . S
H1417 C1404 0.961 . S
H1418 C1404 0.961 . S
H1419 C1405 0.958 . S
H1420 C1405 0.961 . S
H1421 C1405 0.960 . S
C1422 C1423 1.391 . S
C1422 C1424 1.394 . S
C1422 H1438 0.931 . S
C1423 C1422 1.391 . S
C1423 C1427 1.376 . S
C1424 C1422 1.394 . S
C1424 C1425 1.369 . S
C1424 C1428 1.531 . S
C1425 C1424 1.369 . S
C1425 C1426 1.410 . S
C1425 C1433 1.503 1_565 S
C1426 C1425 1.410 . S
C1426 C1427 1.392 . S
C1426 C1429 1.511 . S
C1427 C1423 1.376 . S
C1427 C1426 1.392 . S
C1427 H1439 0.929 . S
C1428 C1424 1.531 . S
C1428 H1440 0.960 . S
C1428 H1441 0.962 . S
C1428 H1442 0.960 . S
C1429 C1426 1.511 . S
C1429 H1443 0.961 . S
C1429 H1444 0.961 1_565 S
C1429 H1445 0.946 1_565 S
C1430 C1431 1.370 . S
C1430 C1432 1.363 . S
C1430 H1446 0.931 . S
C1431 C1430 1.370 . S
C1431 C1435 1.408 . S
C1432 C1430 1.363 . S
C1432 C1433 1.370 . S
C1432 C1436 1.524 1_545 S
C1433 C1425 1.503 1_545 S
C1433 C1432 1.370 . S
C1433 C1434 1.403 . S
C1434 C1433 1.403 . S
C1434 C1435 1.404 . S
C1434 C1437 1.539 . S
C1435 C1431 1.408 . S
C1435 C1434 1.404 . S
C1435 H1447 0.930 . S
C1436 C1432 1.524 1_565 S
C1436 H1448 0.956 . S
C1436 H1449 0.961 . S
C1436 H1450 0.961 1_565 S
C1437 C1434 1.539 . S
C1437 H1451 0.958 . S
C1437 H1452 0.961 . S
C1437 H1453 0.960 . S
H1438 C1422 0.931 . S
H1439 C1427 0.929 . S
H1440 C1428 0.960 . S
H1441 C1428 0.962 . S
H1442 C1428 0.960 . S
H1443 C1429 0.961 . S
H1444 C1429 0.961 1_545 S
H1445 C1429 0.946 1_545 S
H1446 C1430 0.931 . S
H1447 C1435 0.930 . S
H1448 C1436 0.956 . S
H1449 C1436 0.961 . S
H1450 C1436 0.961 1_545 S
H1451 C1437 0.958 . S
H1452 C1437 0.961 . S
H1453 C1437 0.960 . S
C1454 C1455 1.391 . S
C1454 C1456 1.394 . S
C1454 H1470 0.931 . S
C1455 C1454 1.391 . S
C1455 C1459 1.376 . S
C1456 C1454 1.394 . S
C1456 C1457 1.369 . S
C1456 C1460 1.531 . S
C1457 C1456 1.369 . S
C1457 C1458 1.410 . S
C1457 C1465 1.503 1_455 S
C1458 C1457 1.410 . S
C1458 C1459 1.392 . S
C1458 C1461 1.529 . S
C1459 C1455 1.376 . S
C1459 C1458 1.392 . S
C1459 H1471 0.929 . S
C1460 C1456 1.531 . S
C1460 H1472 0.960 . S
C1460 H1473 0.962 . S
C1460 H1474 0.960 . S
C1461 C1458 1.529 . S
C1461 H1475 0.967 . S
C1461 H1476 0.944 1_455 S
C1461 H1477 0.954 . S
C1462 C1463 1.370 . S
C1462 C1464 1.363 . S
C1462 H1478 0.931 . S
C1463 C1462 1.370 . S
C1463 C1467 1.408 . S
C1464 C1462 1.363 . S
C1464 C1465 1.370 . S
C1464 C1468 1.524 . S
C1465 C1457 1.503 1_655 S
C1465 C1464 1.370 . S
C1465 C1466 1.403 . S
C1466 C1465 1.403 . S
C1466 C1467 1.404 . S
C1466 C1469 1.539 1_655 S
C1467 C1463 1.408 . S
C1467 C1466 1.404 . S
C1467 H1479 0.930 . S
C1468 C1464 1.524 . S
C1468 H1480 0.956 . S
C1468 H1481 0.961 . S
C1468 H1482 0.961 . S
C1469 C1466 1.539 1_455 S
C1469 H1483 0.958 . S
C1469 H1484 0.961 . S
C1469 H1485 0.960 . S
H1470 C1454 0.931 . S
H1471 C1459 0.929 . S
H1472 C1460 0.960 . S
H1473 C1460 0.962 . S
H1474 C1460 0.960 . S
H1475 C1461 0.967 . S
H1476 C1461 0.944 1_655 S
H1477 C1461 0.954 . S
H1478 C1462 0.931 . S
H1479 C1467 0.930 . S
H1480 C1468 0.956 . S
H1481 C1468 0.961 . S
H1482 C1468 0.961 . S
H1483 C1469 0.958 . S
H1484 C1469 0.961 . S
H1485 C1469 0.960 . S
C1486 C1487 1.391 . S
C1486 C1488 1.394 . S
C1486 H1502 0.931 . S
C1487 C1486 1.391 . S
C1487 C1491 1.376 . S
C1488 C1486 1.394 . S
C1488 C1489 1.369 . S
C1488 C1492 1.531 . S
C1489 C1488 1.369 . S
C1489 C1490 1.410 . S
C1489 C1497 1.503 . S
C1490 C1489 1.410 . S
C1490 C1491 1.392 . S
C1490 C1493 1.511 . S
C1491 C1487 1.376 . S
C1491 C1490 1.392 . S
C1491 H1503 0.929 . S
C1492 C1488 1.531 . S
C1492 H1504 0.960 . S
C1492 H1505 0.962 . S
C1492 H1506 0.960 . S
C1493 C1490 1.511 . S
C1493 H1507 0.961 . S
C1493 H1508 0.961 . S
C1493 H1509 0.961 . S
C1494 C1495 1.370 . S
C1494 C1496 1.363 . S
C1494 H1510 0.931 . S
C1495 C1494 1.370 . S
C1495 C1499 1.408 . S
C1496 C1494 1.363 . S
C1496 C1497 1.370 . S
C1496 C1500 1.524 . S
C1497 C1489 1.503 . S
C1497 C1496 1.370 . S
C1497 C1498 1.403 . S
C1498 C1497 1.403 . S
C1498 C1499 1.404 . S
C1498 C1501 1.539 . S
C1499 C1495 1.408 . S
C1499 C1498 1.404 . S
C1499 H1511 0.930 . S
C1500 C1496 1.524 . S
C1500 H1512 0.956 . S
C1500 H1513 0.961 . S
C1500 H1514 0.961 . S
C1501 C1498 1.539 . S
C1501 H1515 0.958 . S
C1501 H1516 0.961 . S
C1501 H1517 0.960 . S
H1502 C1486 0.931 . S
H1503 C1491 0.929 . S
H1504 C1492 0.960 . S
H1505 C1492 0.962 . S
H1506 C1492 0.960 . S
H1507 C1493 0.961 . S
H1508 C1493 0.961 . S
H1509 C1493 0.961 . S
H1510 C1494 0.931 . S
H1511 C1499 0.930 . S
H1512 C1500 0.956 . S
H1513 C1500 0.961 . S
H1514 C1500 0.961 . S
H1515 C1501 0.958 . S
H1516 C1501 0.961 . S
H1517 C1501 0.960 . S
C1518 C1519 1.391 . S
C1518 C1520 1.394 1_455 S
C1518 H1534 0.931 . S
C1519 C1518 1.391 . S
C1519 C1523 1.376 . S
C1520 C1518 1.394 1_655 S
C1520 C1521 1.369 . S
C1520 C1524 1.531 . S
C1521 C1520 1.369 . S
C1521 C1522 1.410 . S
C1521 C1529 1.503 . S
C1522 C1521 1.410 . S
C1522 C1523 1.392 1_655 S
C1522 C1525 1.511 . S
C1523 C1519 1.376 . S
C1523 C1522 1.392 1_455 S
C1523 H1535 0.929 . S
C1524 C1520 1.531 . S
C1524 H1536 0.960 . S
C1524 H1537 0.962 . S
C1524 H1538 0.960 . S
C1525 C1522 1.511 . S
C1525 H1539 0.961 1_655 S
C1525 H1540 0.961 . S
C1525 H1541 0.961 . S
C1526 C1527 1.370 . S
C1526 C1528 1.363 . S
C1526 H1542 0.931 . S
C1527 C1526 1.370 . S
C1527 C1531 1.408 . S
C1528 C1526 1.363 . S
C1528 C1529 1.370 . S
C1528 C1532 1.524 . S
C1529 C1521 1.503 . S
C1529 C1528 1.370 . S
C1529 C1530 1.403 . S
C1530 C1529 1.403 . S
C1530 C1531 1.404 . S
C1530 C1533 1.539 . S
C1531 C1527 1.408 . S
C1531 C1530 1.404 . S
C1531 H1543 0.930 . S
C1532 C1528 1.524 . S
C1532 H1544 0.956 . S
C1532 H1545 0.961 . S
C1532 H1546 0.961 . S
C1533 C1530 1.539 . S
C1533 H1547 0.958 . S
C1533 H1548 0.961 . S
C1533 H1549 0.960 . S
H1534 C1518 0.931 . S
H1535 C1523 0.929 . S
H1536 C1524 0.960 . S
H1537 C1524 0.962 . S
H1538 C1524 0.960 . S
H1539 C1525 0.961 1_455 S
H1540 C1525 0.961 . S
H1541 C1525 0.961 . S
H1542 C1526 0.931 . S
H1543 C1531 0.930 . S
H1544 C1532 0.956 . S
H1545 C1532 0.961 . S
H1546 C1532 0.961 . S
H1547 C1533 0.958 . S
H1548 C1533 0.961 . S
H1549 C1533 0.960 . S
C1550 C1551 1.391 . S
C1550 C1552 1.394 . S
C1550 H1566 0.931 . S
C1551 C1550 1.391 . S
C1551 C1555 1.376 . S
C1552 C1550 1.394 . S
C1552 C1553 1.369 . S
C1552 C1556 1.531 . S
C1553 C1552 1.369 . S
C1553 C1554 1.410 . S
C1553 C1561 1.503 . S
C1554 C1553 1.410 . S
C1554 C1555 1.392 . S
C1554 C1557 1.511 . S
C1555 C1551 1.376 . S
C1555 C1554 1.392 . S
C1555 H1567 0.929 . S
C1556 C1552 1.531 . S
C1556 H1568 0.960 . S
C1556 H1569 0.962 . S
C1556 H1570 0.960 . S
C1557 C1554 1.511 . S
C1557 H1571 0.961 . S
C1557 H1572 0.961 . S
C1557 H1573 0.961 . S
C1558 C1559 1.370 . S
C1558 C1560 1.363 . S
C1558 H1574 0.931 . S
C1559 C1558 1.370 . S
C1559 C1563 1.408 . S
C1560 C1558 1.363 . S
C1560 C1561 1.370 . S
C1560 C1564 1.524 . S
C1561 C1553 1.503 . S
C1561 C1560 1.370 . S
C1561 C1562 1.403 . S
C1562 C1561 1.403 . S
C1562 C1563 1.404 . S
C1562 C1565 1.539 . S
C1563 C1559 1.408 . S
C1563 C1562 1.404 . S
C1563 H1575 0.930 . S
C1564 C1560 1.524 . S
C1564 H1576 0.956 . S
C1564 H1577 0.961 . S
C1564 H1578 0.961 . S
C1565 C1562 1.539 . S
C1565 H1579 0.958 . S
C1565 H1580 0.961 . S
C1565 H1581 0.960 . S
H1566 C1550 0.931 . S
H1567 C1555 0.929 . S
H1568 C1556 0.960 . S
H1569 C1556 0.962 . S
H1570 C1556 0.960 . S
H1571 C1557 0.961 . S
H1572 C1557 0.961 . S
H1573 C1557 0.961 . S
H1574 C1558 0.931 . S
H1575 C1563 0.930 . S
H1576 C1564 0.956 . S
H1577 C1564 0.961 . S
H1578 C1564 0.961 . S
H1579 C1565 0.958 . S
H1580 C1565 0.961 . S
H1581 C1565 0.960 . S
C1582 C1583 1.391 . S
C1582 C1584 1.394 1_565 S
C1582 H1598 0.931 . S
C1583 C1582 1.391 . S
C1583 C1587 1.376 . S
C1584 C1582 1.394 1_545 S
C1584 C1585 1.369 . S
C1584 C1588 1.531 . S
C1585 C1584 1.369 . S
C1585 C1586 1.410 . S
C1585 C1593 1.503 . S
C1586 C1585 1.410 . S
C1586 C1587 1.392 1_545 S
C1586 C1589 1.511 . S
C1587 C1583 1.376 . S
C1587 C1586 1.392 1_565 S
C1587 H1599 0.929 . S
C1588 C1584 1.531 . S
C1588 H1600 0.960 . S
C1588 H1601 0.962 . S
C1588 H1602 0.960 . S
C1589 C1586 1.511 . S
C1589 H1603 0.961 . S
C1589 H1604 0.961 . S
C1589 H1605 0.961 . S
C1590 C1591 1.370 . S
C1590 C1592 1.363 . S
C1590 H1606 0.931 . S
C1591 C1590 1.370 . S
C1591 C1595 1.408 . S
C1592 C1590 1.363 . S
C1592 C1593 1.370 . S
C1592 C1596 1.524 . S
C1593 C1585 1.503 . S
C1593 C1592 1.370 . S
C1593 C1594 1.403 . S
C1594 C1593 1.403 . S
C1594 C1595 1.404 . S
C1594 C1597 1.539 . S
C1595 C1591 1.408 . S
C1595 C1594 1.404 . S
C1595 H1607 0.930 . S
C1596 C1592 1.524 . S
C1596 H1608 0.956 . S
C1596 H1609 0.961 . S
C1596 H1610 0.961 . S
C1597 C1594 1.539 . S
C1597 H1611 0.958 . S
C1597 H1612 0.961 . S
C1597 H1613 0.960 . S
H1598 C1582 0.931 . S
H1599 C1587 0.929 . S
H1600 C1588 0.960 . S
H1601 C1588 0.962 . S
H1602 C1588 0.960 . S
H1603 C1589 0.961 . S
H1604 C1589 0.961 . S
H1605 C1589 0.961 . S
H1606 C1590 0.931 . S
H1607 C1595 0.930 . S
H1608 C1596 0.956 . S
H1609 C1596 0.961 . S
H1610 C1596 0.961 . S
H1611 C1597 0.958 . S
H1612 C1597 0.961 . S
H1613 C1597 0.960 . S
C1614 C1615 1.391 . S
C1614 C1616 1.394 . S
C1614 H1630 0.931 . S
C1615 C1614 1.391 . S
C1615 C1619 1.376 . S
C1616 C1614 1.394 . S
C1616 C1617 1.369 . S
C1616 C1620 1.531 . S
C1617 C1616 1.369 . S
C1617 C1618 1.410 . S
C1617 C1625 1.503 . S
C1618 C1617 1.410 . S
C1618 C1619 1.392 . S
C1618 C1621 1.511 . S
C1619 C1615 1.376 . S
C1619 C1618 1.392 . S
C1619 H1631 0.929 . S
C1620 C1616 1.531 . S
C1620 H1632 0.960 . S
C1620 H1633 0.962 . S
C1620 H1634 0.960 . S
C1621 C1618 1.511 . S
C1621 H1635 0.961 . S
C1621 H1636 0.961 . S
C1621 H1637 0.961 . S
C1622 C1623 1.370 . S
C1622 C1624 1.363 . S
C1622 H1638 0.931 . S
C1623 C1622 1.370 . S
C1623 C1627 1.408 . S
C1624 C1622 1.363 . S
C1624 C1625 1.370 . S
C1624 C1628 1.524 . S
C1625 C1617 1.503 . S
C1625 C1624 1.370 . S
C1625 C1626 1.403 . S
C1626 C1625 1.403 . S
C1626 C1627 1.404 . S
C1626 C1629 1.539 . S
C1627 C1623 1.408 . S
C1627 C1626 1.404 . S
C1627 H1639 0.930 . S
C1628 C1624 1.524 . S
C1628 H1640 0.956 . S
C1628 H1641 0.961 . S
C1628 H1642 0.961 . S
C1629 C1626 1.539 . S
C1629 H1643 0.958 . S
C1629 H1644 0.961 . S
C1629 H1645 0.960 . S
H1630 C1614 0.931 . S
H1631 C1619 0.929 . S
H1632 C1620 0.960 . S
H1633 C1620 0.962 . S
H1634 C1620 0.960 . S
H1635 C1621 0.961 . S
H1636 C1621 0.961 . S
H1637 C1621 0.961 . S
H1638 C1622 0.931 . S
H1639 C1627 0.930 . S
H1640 C1628 0.956 . S
H1641 C1628 0.961 . S
H1642 C1628 0.961 . S
H1643 C1629 0.958 . S
H1644 C1629 0.961 . S
H1645 C1629 0.960 . S
C1646 C1647 1.391 . S
C1646 C1648 1.394 . S
C1646 H1662 0.931 . S
C1647 C1646 1.391 . S
C1647 C1651 1.376 . S
C1648 C1646 1.394 . S
C1648 C1649 1.369 . S
C1648 C1652 1.531 . S
C1649 C1648 1.369 . S
C1649 C1650 1.410 . S
C1649 C1657 1.503 . S
C1650 C1649 1.410 . S
C1650 C1651 1.392 . S
C1650 C1653 1.511 . S
C1651 C1647 1.376 . S
C1651 C1650 1.392 . S
C1651 H1663 0.929 . S
C1652 C1648 1.531 . S
C1652 H1664 0.960 . S
C1652 H1665 0.962 . S
C1652 H1666 0.960 . S
C1653 C1650 1.511 . S
C1653 H1667 0.961 . S
C1653 H1668 0.961 . S
C1653 H1669 0.961 . S
C1654 C1655 1.370 . S
C1654 C1656 1.363 . S
C1654 H1670 0.931 . S
C1655 C1654 1.370 . S
C1655 C1659 1.408 . S
C1656 C1654 1.363 . S
C1656 C1657 1.370 . S
C1656 C1660 1.524 . S
C1657 C1649 1.503 . S
C1657 C1656 1.370 . S
C1657 C1658 1.403 . S
C1658 C1657 1.403 . S
C1658 C1659 1.404 . S
C1658 C1661 1.539 . S
C1659 C1655 1.408 . S
C1659 C1658 1.404 . S
C1659 H1671 0.930 . S
C1660 C1656 1.524 . S
C1660 H1672 0.956 . S
C1660 H1673 0.961 . S
C1660 H1674 0.961 . S
C1661 C1658 1.539 . S
C1661 H1675 0.958 . S
C1661 H1676 0.961 . S
C1661 H1677 0.960 . S
H1662 C1646 0.931 . S
H1663 C1651 0.929 . S
H1664 C1652 0.960 . S
H1665 C1652 0.962 . S
H1666 C1652 0.960 . S
H1667 C1653 0.961 . S
H1668 C1653 0.961 . S
H1669 C1653 0.961 . S
H1670 C1654 0.931 . S
H1671 C1659 0.930 . S
H1672 C1660 0.956 . S
H1673 C1660 0.961 . S
H1674 C1660 0.961 . S
H1675 C1661 0.958 . S
H1676 C1661 0.961 . S
H1677 C1661 0.960 . S
C1678 C1679 1.391 . S
C1678 C1680 1.394 . S
C1678 H1694 0.931 . S
C1679 C1678 1.391 . S
C1679 C1683 1.376 . S
C1680 C1678 1.394 . S
C1680 C1681 1.369 . S
C1680 C1684 1.531 . S
C1681 C1680 1.369 . S
C1681 C1682 1.410 . S
C1681 C1689 1.503 . S
C1682 C1681 1.410 . S
C1682 C1683 1.392 . S
C1682 C1685 1.511 . S
C1683 C1679 1.376 . S
C1683 C1682 1.392 . S
C1683 H1695 0.929 . S
C1684 C1680 1.531 . S
C1684 H1696 0.960 . S
C1684 H1697 0.962 . S
C1684 H1698 0.960 . S
C1685 C1682 1.511 . S
C1685 H1699 0.961 . S
C1685 H1700 0.961 . S
C1685 H1701 0.961 . S
C1686 C1687 1.370 . S
C1686 C1688 1.363 . S
C1686 H1702 0.931 . S
C1687 C1686 1.370 . S
C1687 C1691 1.408 . S
C1688 C1686 1.363 . S
C1688 C1689 1.370 . S
C1688 C1692 1.524 . S
C1689 C1681 1.503 . S
C1689 C1688 1.370 . S
C1689 C1690 1.403 . S
C1690 C1689 1.403 . S
C1690 C1691 1.404 . S
C1690 C1693 1.539 . S
C1691 C1687 1.408 . S
C1691 C1690 1.404 . S
C1691 H1703 0.930 . S
C1692 C1688 1.524 . S
C1692 H1704 0.956 . S
C1692 H1705 0.961 . S
C1692 H1706 0.961 . S
C1693 C1690 1.539 . S
C1693 H1707 0.958 . S
C1693 H1708 0.961 . S
C1693 H1709 0.960 . S
H1694 C1678 0.931 . S
H1695 C1683 0.929 . S
H1696 C1684 0.960 . S
H1697 C1684 0.962 . S
H1698 C1684 0.960 . S
H1699 C1685 0.961 . S
H1700 C1685 0.961 . S
H1701 C1685 0.961 . S
H1702 C1686 0.931 . S
H1703 C1691 0.930 . S
H1704 C1692 0.956 . S
H1705 C1692 0.961 . S
H1706 C1692 0.961 . S
H1707 C1693 0.958 . S
H1708 C1693 0.961 . S
H1709 C1693 0.960 . S
C1710 C1711 1.391 . S
C1710 C1712 1.394 . S
C1710 H1726 0.931 . S
C1711 C1710 1.391 . S
C1711 C1715 1.376 . S
C1712 C1710 1.394 . S
C1712 C1713 1.369 . S
C1712 C1716 1.531 . S
C1713 C1712 1.369 . S
C1713 C1714 1.410 . S
C1713 C1721 1.503 . S
C1714 C1713 1.410 . S
C1714 C1715 1.392 . S
C1714 C1717 1.511 . S
C1715 C1711 1.376 . S
C1715 C1714 1.392 . S
C1715 H1727 0.929 . S
C1716 C1712 1.531 . S
C1716 H1728 0.960 . S
C1716 H1729 0.962 . S
C1716 H1730 0.960 . S
C1717 C1714 1.511 . S
C1717 H1731 0.961 . S
C1717 H1732 0.961 . S
C1717 H1733 0.961 . S
C1718 C1719 1.370 . S
C1718 C1720 1.363 . S
C1718 H1734 0.931 . S
C1719 C1718 1.370 . S
C1719 C1723 1.408 . S
C1720 C1718 1.363 . S
C1720 C1721 1.370 . S
C1720 C1724 1.524 . S
C1721 C1713 1.503 . S
C1721 C1720 1.370 . S
C1721 C1722 1.403 . S
C1722 C1721 1.403 . S
C1722 C1723 1.404 . S
C1722 C1725 1.539 1_565 S
C1723 C1719 1.408 . S
C1723 C1722 1.404 . S
C1723 H1735 0.930 1_565 S
C1724 C1720 1.524 . S
C1724 H1736 0.956 . S
C1724 H1737 0.961 . S
C1724 H1738 0.961 . S
C1725 C1722 1.539 1_545 S
C1725 H1739 0.958 . S
C1725 H1740 0.961 . S
C1725 H1741 0.960 1_545 S
H1726 C1710 0.931 . S
H1727 C1715 0.929 . S
H1728 C1716 0.960 . S
H1729 C1716 0.962 . S
H1730 C1716 0.960 . S
H1731 C1717 0.961 . S
H1732 C1717 0.961 . S
H1733 C1717 0.961 . S
H1734 C1718 0.931 . S
H1735 C1723 0.930 1_545 S
H1736 C1724 0.956 . S
H1737 C1724 0.961 . S
H1738 C1724 0.961 . S
H1739 C1725 0.958 . S
H1740 C1725 0.961 . S
H1741 C1725 0.960 1_565 S
C1742 C1743 1.391 . S
C1742 C1744 1.394 . S
C1742 H1758 0.931 . S
C1743 C1742 1.391 . S
C1743 C1747 1.376 . S
C1744 C1742 1.394 . S
C1744 C1745 1.369 . S
C1744 C1748 1.531 . S
C1745 C1744 1.369 . S
C1745 C1746 1.410 . S
C1745 C1753 1.503 . S
C1746 C1745 1.410 . S
C1746 C1747 1.392 . S
C1746 C1749 1.511 . S
C1747 C1743 1.376 . S
C1747 C1746 1.392 . S
C1747 H1759 0.929 . S
C1748 C1744 1.531 . S
C1748 H1760 0.960 . S
C1748 H1761 0.962 . S
C1748 H1762 0.960 . S
C1749 C1746 1.511 . S
C1749 H1763 0.961 . S
C1749 H1764 0.961 . S
C1749 H1765 0.961 . S
C1750 C1751 1.370 . S
C1750 C1752 1.363 . S
C1750 H1766 0.931 . S
C1751 C1750 1.370 . S
C1751 C1755 1.408 . S
C1752 C1750 1.363 . S
C1752 C1753 1.370 . S
C1752 C1756 1.524 . S
C1753 C1745 1.503 . S
C1753 C1752 1.370 . S
C1753 C1754 1.403 . S
C1754 C1753 1.403 . S
C1754 C1755 1.404 . S
C1754 C1757 1.539 1_455 S
C1755 C1751 1.408 . S
C1755 C1754 1.404 . S
C1755 H1767 0.930 . S
C1756 C1752 1.524 . S
C1756 H1768 0.956 . S
C1756 H1769 0.961 . S
C1756 H1770 0.961 . S
C1757 C1754 1.539 1_655 S
C1757 H1771 0.958 . S
C1757 H1772 0.961 . S
C1757 H1773 0.960 . S
H1758 C1742 0.931 . S
H1759 C1747 0.929 . S
H1760 C1748 0.960 . S
H1761 C1748 0.962 . S
H1762 C1748 0.960 . S
H1763 C1749 0.961 . S
H1764 C1749 0.961 . S
H1765 C1749 0.961 . S
H1766 C1750 0.931 . S
H1767 C1755 0.930 . S
H1768 C1756 0.956 . S
H1769 C1756 0.961 . S
H1770 C1756 0.961 . S
H1771 C1757 0.958 . S
H1772 C1757 0.961 . S
H1773 C1757 0.960 . S
C1774 C1775 1.391 . S
C1774 C1776 1.394 . S
C1774 H1790 0.931 . S
C1775 C1774 1.391 . S
C1775 C1779 1.376 . S
C1776 C1774 1.394 . S
C1776 C1777 1.369 . S
C1776 C1780 1.531 . S
C1777 C1776 1.369 . S
C1777 C1778 1.410 . S
C1777 C1785 1.503 . S
C1778 C1777 1.410 . S
C1778 C1779 1.392 . S
C1778 C1781 1.511 . S
C1779 C1775 1.376 . S
C1779 C1778 1.392 . S
C1779 H1791 0.929 . S
C1780 C1776 1.531 . S
C1780 H1792 0.960 . S
C1780 H1793 0.962 . S
C1780 H1794 0.960 . S
C1781 C1778 1.511 . S
C1781 H1795 0.961 . S
C1781 H1796 0.961 . S
C1781 H1797 0.961 . S
C1782 C1783 1.370 . S
C1782 C1784 1.363 . S
C1782 H1798 0.931 . S
C1783 C1782 1.370 . S
C1783 C1787 1.408 . S
C1784 C1782 1.363 . S
C1784 C1785 1.370 . S
C1784 C1788 1.524 . S
C1785 C1777 1.503 . S
C1785 C1784 1.370 . S
C1785 C1786 1.403 . S
C1786 C1785 1.403 . S
C1786 C1787 1.404 . S
C1786 C1789 1.539 . S
C1787 C1783 1.408 . S
C1787 C1786 1.404 . S
C1787 H1799 0.930 . S
C1788 C1784 1.524 . S
C1788 H1800 0.956 . S
C1788 H1801 0.961 . S
C1788 H1802 0.961 . S
C1789 C1786 1.539 . S
C1789 H1803 0.958 . S
C1789 H1804 0.961 . S
C1789 H1805 0.960 . S
H1790 C1774 0.931 . S
H1791 C1779 0.929 . S
H1792 C1780 0.960 . S
H1793 C1780 0.962 . S
H1794 C1780 0.960 . S
H1795 C1781 0.961 . S
H1796 C1781 0.961 . S
H1797 C1781 0.961 . S
H1798 C1782 0.931 . S
H1799 C1787 0.930 . S
H1800 C1788 0.956 . S
H1801 C1788 0.961 . S
H1802 C1788 0.961 . S
H1803 C1789 0.958 . S
H1804 C1789 0.961 . S
H1805 C1789 0.960 . S
C1806 C1807 1.391 . S
C1806 C1808 1.394 . S
C1806 H1822 0.931 . S
C1807 C1806 1.391 . S
C1807 C1811 1.376 . S
C1808 C1806 1.394 . S
C1808 C1809 1.369 . S
C1808 C1812 1.531 . S
C1809 C1808 1.369 . S
C1809 C1810 1.410 . S
C1809 C1817 1.503 . S
C1810 C1809 1.410 . S
C1810 C1811 1.392 . S
C1810 C1813 1.511 1_655 S
C1811 C1807 1.376 . S
C1811 C1810 1.392 . S
C1811 H1823 0.929 . S
C1812 C1808 1.531 . S
C1812 H1824 0.960 . S
C1812 H1825 0.962 . S
C1812 H1826 0.960 . S
C1813 C1810 1.511 1_455 S
C1813 H1827 0.961 . S
C1813 H1828 0.961 . S
C1813 H1829 0.961 . S
C1814 C1815 1.370 . S
C1814 C1816 1.363 . S
C1814 H1830 0.931 . S
C1815 C1814 1.370 . S
C1815 C1819 1.408 . S
C1816 C1814 1.363 . S
C1816 C1817 1.370 . S
C1816 C1820 1.524 . S
C1817 C1809 1.503 . S
C1817 C1816 1.370 . S
C1817 C1818 1.403 . S
C1818 C1817 1.403 . S
C1818 C1819 1.404 . S
C1818 C1821 1.539 . S
C1819 C1815 1.408 . S
C1819 C1818 1.404 . S
C1819 H1831 0.930 . S
C1820 C1816 1.524 . S
C1820 H1832 0.956 . S
C1820 H1833 0.961 . S
C1820 H1834 0.961 . S
C1821 C1818 1.539 . S
C1821 H1835 0.958 . S
C1821 H1836 0.961 . S
C1821 H1837 0.960 . S
H1822 C1806 0.931 . S
H1823 C1811 0.929 . S
H1824 C1812 0.960 . S
H1825 C1812 0.962 . S
H1826 C1812 0.960 . S
H1827 C1813 0.961 . S
H1828 C1813 0.961 . S
H1829 C1813 0.961 . S
H1830 C1814 0.931 . S
H1831 C1819 0.930 . S
H1832 C1820 0.956 . S
H1833 C1820 0.961 . S
H1834 C1820 0.961 . S
H1835 C1821 0.958 . S
H1836 C1821 0.961 . S
H1837 C1821 0.960 . S
C1838 C1839 1.391 . S
C1838 C1840 1.394 . S
C1838 H1854 0.931 . S
C1839 C1838 1.391 . S
C1839 C1843 1.376 . S
C1840 C1838 1.394 . S
C1840 C1841 1.369 . S
C1840 C1844 1.531 . S
C1841 C1840 1.369 . S
C1841 C1842 1.410 . S
C1841 C1849 1.503 . S
C1842 C1841 1.410 . S
C1842 C1843 1.392 . S
C1842 C1845 1.511 . S
C1843 C1839 1.376 . S
C1843 C1842 1.392 . S
C1843 H1855 0.929 . S
C1844 C1840 1.531 . S
C1844 H1856 0.960 . S
C1844 H1857 0.962 . S
C1844 H1858 0.960 . S
C1845 C1842 1.511 . S
C1845 H1859 0.961 . S
C1845 H1860 0.961 . S
C1845 H1861 0.961 . S
C1846 C1847 1.370 . S
C1846 C1848 1.363 . S
C1846 H1862 0.931 . S
C1847 C1846 1.370 . S
C1847 C1851 1.408 . S
C1848 C1846 1.363 . S
C1848 C1849 1.370 . S
C1848 C1852 1.524 . S
C1849 C1841 1.503 . S
C1849 C1848 1.370 . S
C1849 C1850 1.403 . S
C1850 C1849 1.403 . S
C1850 C1851 1.404 . S
C1850 C1853 1.539 . S
C1851 C1847 1.408 . S
C1851 C1850 1.404 . S
C1851 H1863 0.930 . S
C1852 C1848 1.524 . S
C1852 H1864 0.956 . S
C1852 H1865 0.961 . S
C1852 H1866 0.961 . S
C1853 C1850 1.539 . S
C1853 H1867 0.958 . S
C1853 H1868 0.961 . S
C1853 H1869 0.960 . S
H1854 C1838 0.931 . S
H1855 C1843 0.929 . S
H1856 C1844 0.960 . S
H1857 C1844 0.962 . S
H1858 C1844 0.960 . S
H1859 C1845 0.961 . S
H1860 C1845 0.961 . S
H1861 C1845 0.961 . S
H1862 C1846 0.931 . S
H1863 C1851 0.930 . S
H1864 C1852 0.956 . S
H1865 C1852 0.961 . S
H1866 C1852 0.961 . S
H1867 C1853 0.958 . S
H1868 C1853 0.961 . S
H1869 C1853 0.960 . S
C1870 C1871 1.391 . S
C1870 C1872 1.394 . S
C1870 H1886 0.931 . S
C1871 C1870 1.391 . S
C1871 C1875 1.376 . S
C1872 C1870 1.394 . S
C1872 C1873 1.369 . S
C1872 C1876 1.531 . S
C1873 C1872 1.369 . S
C1873 C1874 1.410 . S
C1873 C1881 1.503 . S
C1874 C1873 1.410 . S
C1874 C1875 1.392 . S
C1874 C1877 1.511 . S
C1875 C1871 1.376 . S
C1875 C1874 1.392 . S
C1875 H1887 0.929 . S
C1876 C1872 1.531 . S
C1876 H1888 0.960 . S
C1876 H1889 0.962 . S
C1876 H1890 0.960 . S
C1877 C1874 1.511 . S
C1877 H1891 0.961 . S
C1877 H1892 0.961 . S
C1877 H1893 0.961 . S
C1878 C1879 1.370 . S
C1878 C1880 1.363 . S
C1878 H1894 0.931 . S
C1879 C1878 1.370 . S
C1879 C1883 1.408 . S
C1880 C1878 1.363 . S
C1880 C1881 1.370 . S
C1880 C1884 1.524 . S
C1881 C1873 1.503 . S
C1881 C1880 1.370 . S
C1881 C1882 1.403 . S
C1882 C1881 1.403 . S
C1882 C1883 1.404 . S
C1882 C1885 1.539 . S
C1883 C1879 1.408 . S
C1883 C1882 1.404 . S
C1883 H1895 0.930 . S
C1884 C1880 1.524 . S
C1884 H1896 0.956 . S
C1884 H1897 0.961 . S
C1884 H1898 0.961 . S
C1885 C1882 1.539 . S
C1885 H1899 0.958 1_545 S
C1885 H1900 0.961 1_545 S
C1885 H1901 0.960 . S
H1886 C1870 0.931 . S
H1887 C1875 0.929 . S
H1888 C1876 0.960 . S
H1889 C1876 0.962 . S
H1890 C1876 0.960 . S
H1891 C1877 0.961 . S
H1892 C1877 0.961 . S
H1893 C1877 0.961 . S
H1894 C1878 0.931 . S
H1895 C1883 0.930 . S
H1896 C1884 0.956 . S
H1897 C1884 0.961 . S
H1898 C1884 0.961 . S
H1899 C1885 0.958 1_565 S
H1900 C1885 0.961 1_565 S
H1901 C1885 0.960 . S
C1902 C1903 1.391 . S
C1902 C1904 1.394 . S
C1902 H1918 0.931 . S
C1903 C1902 1.391 . S
C1903 C1907 1.376 . S
C1904 C1902 1.394 . S
C1904 C1905 1.369 . S
C1904 C1908 1.531 . S
C1905 C1904 1.369 . S
C1905 C1906 1.410 . S
C1905 C1913 1.503 . S
C1906 C1905 1.410 . S
C1906 C1907 1.392 . S
C1906 C1909 1.511 . S
C1907 C1903 1.376 . S
C1907 C1906 1.392 . S
C1907 H1919 0.929 . S
C1908 C1904 1.531 . S
C1908 H1920 0.960 . S
C1908 H1921 0.962 . S
C1908 H1922 0.960 . S
C1909 C1906 1.511 . S
C1909 H1923 0.961 . S
C1909 H1924 0.961 . S
C1909 H1925 0.961 . S
C1910 C1911 1.370 . S
C1910 C1912 1.363 . S
C1910 H1926 0.931 . S
C1911 C1910 1.370 . S
C1911 C1915 1.408 . S
C1912 C1910 1.363 . S
C1912 C1913 1.370 . S
C1912 C1916 1.524 . S
C1913 C1905 1.503 . S
C1913 C1912 1.370 . S
C1913 C1914 1.403 . S
C1914 C1913 1.403 . S
C1914 C1915 1.404 . S
C1914 C1917 1.539 . S
C1915 C1911 1.408 . S
C1915 C1914 1.404 . S
C1915 H1927 0.930 . S
C1916 C1912 1.524 . S
C1916 H1928 0.956 . S
C1916 H1929 0.961 . S
C1916 H1930 0.961 . S
C1917 C1914 1.539 . S
C1917 H1931 0.958 . S
C1917 H1932 0.961 . S
C1917 H1933 0.960 . S
H1918 C1902 0.931 . S
H1919 C1907 0.929 . S
H1920 C1908 0.960 . S
H1921 C1908 0.962 . S
H1922 C1908 0.960 . S
H1923 C1909 0.961 . S
H1924 C1909 0.961 . S
H1925 C1909 0.961 . S
H1926 C1910 0.931 . S
H1927 C1915 0.930 . S
H1928 C1916 0.956 . S
H1929 C1916 0.961 . S
H1930 C1916 0.961 . S
H1931 C1917 0.958 . S
H1932 C1917 0.961 . S
H1933 C1917 0.960 . S
C1934 C1935 1.391 . S
C1934 C1936 1.394 . S
C1934 H1950 0.931 . S
C1935 C1934 1.391 . S
C1935 C1939 1.376 . S
C1936 C1934 1.394 . S
C1936 C1937 1.369 . S
C1936 C1940 1.531 . S
C1937 C1936 1.369 . S
C1937 C1938 1.410 . S
C1937 C1945 1.503 . S
C1938 C1937 1.410 . S
C1938 C1939 1.392 . S
C1938 C1941 1.511 . S
C1939 C1935 1.376 . S
C1939 C1938 1.392 . S
C1939 H1951 0.929 . S
C1940 C1936 1.531 . S
C1940 H1952 0.960 . S
C1940 H1953 0.962 . S
C1940 H1954 0.960 . S
C1941 C1938 1.511 . S
C1941 H1955 0.961 . S
C1941 H1956 0.961 . S
C1941 H1957 0.961 . S
C1942 C1943 1.370 . S
C1942 C1944 1.363 . S
C1942 H1958 0.931 . S
C1943 C1942 1.370 . S
C1943 C1947 1.408 . S
C1944 C1942 1.363 . S
C1944 C1945 1.370 . S
C1944 C1948 1.524 . S
C1945 C1937 1.503 . S
C1945 C1944 1.370 . S
C1945 C1946 1.403 . S
C1946 C1945 1.403 . S
C1946 C1947 1.404 . S
C1946 C1949 1.539 . S
C1947 C1943 1.408 . S
C1947 C1946 1.404 . S
C1947 H1959 0.930 . S
C1948 C1944 1.524 . S
C1948 H1960 0.956 . S
C1948 H1961 0.961 . S
C1948 H1962 0.961 . S
C1949 C1946 1.539 . S
C1949 H1963 0.958 . S
C1949 H1964 0.961 . S
C1949 H1965 0.960 . S
H1950 C1934 0.931 . S
H1951 C1939 0.929 . S
H1952 C1940 0.960 . S
H1953 C1940 0.962 . S
H1954 C1940 0.960 . S
H1955 C1941 0.961 . S
H1956 C1941 0.961 . S
H1957 C1941 0.961 . S
H1958 C1942 0.931 . S
H1959 C1947 0.930 . S
H1960 C1948 0.956 . S
H1961 C1948 0.961 . S
H1962 C1948 0.961 . S
H1963 C1949 0.958 . S
H1964 C1949 0.961 . S
H1965 C1949 0.960 . S
C1966 C1967 1.391 . S
C1966 C1968 1.394 . S
C1966 H1982 0.931 . S
C1967 C1966 1.391 . S
C1967 C1971 1.376 . S
C1968 C1966 1.394 . S
C1968 C1969 1.369 . S
C1968 C1972 1.531 . S
C1969 C1968 1.369 . S
C1969 C1970 1.410 . S
C1969 C1977 1.503 . S
C1970 C1969 1.410 . S
C1970 C1971 1.392 . S
C1970 C1973 1.511 . S
C1971 C1967 1.376 . S
C1971 C1970 1.392 . S
C1971 H1983 0.929 . S
C1972 C1968 1.531 . S
C1972 H1984 0.960 . S
C1972 H1985 0.962 . S
C1972 H1986 0.960 . S
C1973 C1970 1.511 . S
C1973 H1987 0.961 . S
C1973 H1988 0.961 . S
C1973 H1989 0.961 . S
C1974 C1975 1.370 . S
C1974 C1976 1.363 . S
C1974 H1990 0.931 . S
C1975 C1974 1.370 . S
C1975 C1979 1.408 . S
C1976 C1974 1.363 . S
C1976 C1977 1.370 . S
C1976 C1980 1.524 . S
C1977 C1969 1.503 . S
C1977 C1976 1.370 . S
C1977 C1978 1.403 . S
C1978 C1977 1.403 . S
C1978 C1979 1.404 . S
C1978 C1981 1.539 . S
C1979 C1975 1.408 . S
C1979 C1978 1.404 . S
C1979 H1991 0.930 . S
C1980 C1976 1.524 . S
C1980 H1992 0.956 . S
C1980 H1993 0.961 . S
C1980 H1994 0.961 . S
C1981 C1978 1.539 . S
C1981 H1995 0.958 . S
C1981 H1996 0.961 . S
C1981 H1997 0.960 . S
H1982 C1966 0.931 . S
H1983 C1971 0.929 . S
H1984 C1972 0.960 . S
H1985 C1972 0.962 . S
H1986 C1972 0.960 . S
H1987 C1973 0.961 . S
H1988 C1973 0.961 . S
H1989 C1973 0.961 . S
H1990 C1974 0.931 . S
H1991 C1979 0.930 . S
H1992 C1980 0.956 . S
H1993 C1980 0.961 . S
H1994 C1980 0.961 . S
H1995 C1981 0.958 . S
H1996 C1981 0.961 . S
H1997 C1981 0.960 . S
C1998 C1999 1.391 . S
C1998 C2000 1.394 . S
C1998 H2014 0.931 . S
C1999 C1998 1.391 . S
C1999 C2003 1.376 . S
C2000 C1998 1.394 . S
C2000 C2001 1.369 . S
C2000 C2004 1.531 . S
C2001 C2000 1.369 . S
C2001 C2002 1.410 . S
C2001 C2009 1.503 . S
C2002 C2001 1.410 . S
C2002 C2003 1.392 . S
C2002 C2005 1.511 . S
C2003 C1999 1.376 . S
C2003 C2002 1.392 . S
C2003 H2015 0.929 . S
C2004 C2000 1.531 . S
C2004 H2016 0.960 . S
C2004 H2017 0.962 . S
C2004 H2018 0.960 . S
C2005 C2002 1.511 . S
C2005 H2019 0.961 . S
C2005 H2020 0.961 . S
C2005 H2021 0.961 . S
C2006 C2007 1.370 . S
C2006 C2008 1.363 . S
C2006 H2022 0.931 . S
C2007 C2006 1.370 . S
C2007 C2011 1.408 . S
C2008 C2006 1.363 . S
C2008 C2009 1.370 . S
C2008 C2012 1.524 . S
C2009 C2001 1.503 . S
C2009 C2008 1.370 . S
C2009 C2010 1.403 . S
C2010 C2009 1.403 . S
C2010 C2011 1.404 . S
C2010 C2013 1.539 . S
C2011 C2007 1.408 . S
C2011 C2010 1.404 . S
C2011 H2023 0.930 . S
C2012 C2008 1.524 . S
C2012 H2024 0.956 . S
C2012 H2025 0.961 . S
C2012 H2026 0.961 . S
C2013 C2010 1.539 . S
C2013 H2027 0.958 . S
C2013 H2028 0.961 . S
C2013 H2029 0.960 . S
H2014 C1998 0.931 . S
H2015 C2003 0.929 . S
H2016 C2004 0.960 . S
H2017 C2004 0.962 . S
H2018 C2004 0.960 . S
H2019 C2005 0.961 . S
H2020 C2005 0.961 . S
H2021 C2005 0.961 . S
H2022 C2006 0.931 . S
H2023 C2011 0.930 . S
H2024 C2012 0.956 . S
H2025 C2012 0.961 . S
H2026 C2012 0.961 . S
H2027 C2013 0.958 . S
H2028 C2013 0.961 . S
H2029 C2013 0.960 . S
C2030 C2031 1.391 . S
C2030 C2032 1.394 . S
C2030 H2046 0.931 . S
C2031 C2030 1.391 . S
C2031 C2035 1.376 . S
C2032 C2030 1.394 . S
C2032 C2033 1.369 . S
C2032 C2036 1.531 . S
C2033 C2032 1.369 . S
C2033 C2034 1.410 . S
C2033 C2041 1.503 . S
C2034 C2033 1.410 . S
C2034 C2035 1.392 . S
C2034 C2037 1.511 . S
C2035 C2031 1.376 . S
C2035 C2034 1.392 . S
C2035 H2047 0.929 . S
C2036 C2032 1.531 . S
C2036 H2048 0.960 . S
C2036 H2049 0.962 . S
C2036 H2050 0.960 . S
C2037 C2034 1.511 . S
C2037 H2051 0.961 . S
C2037 H2052 0.961 . S
C2037 H2053 0.961 . S
C2038 C2039 1.370 . S
C2038 C2040 1.363 . S
C2038 H2054 0.931 . S
C2039 C2038 1.370 . S
C2039 C2043 1.408 . S
C2040 C2038 1.363 . S
C2040 C2041 1.370 . S
C2040 C2044 1.524 . S
C2041 C2033 1.503 . S
C2041 C2040 1.370 . S
C2041 C2042 1.403 . S
C2042 C2041 1.403 . S
C2042 C2043 1.404 . S
C2042 C2045 1.539 . S
C2043 C2039 1.408 . S
C2043 C2042 1.404 . S
C2043 H2055 0.930 . S
C2044 C2040 1.524 . S
C2044 H2056 0.956 . S
C2044 H2057 0.961 . S
C2044 H2058 0.961 . S
C2045 C2042 1.539 . S
C2045 H2059 0.958 . S
C2045 H2060 0.961 . S
C2045 H2061 0.960 . S
H2046 C2030 0.931 . S
H2047 C2035 0.929 . S
H2048 C2036 0.960 . S
H2049 C2036 0.962 . S
H2050 C2036 0.960 . S
H2051 C2037 0.961 . S
H2052 C2037 0.961 . S
H2053 C2037 0.961 . S
H2054 C2038 0.931 . S
H2055 C2043 0.930 . S
H2056 C2044 0.956 . S
H2057 C2044 0.961 . S
H2058 C2044 0.961 . S
H2059 C2045 0.958 . S
H2060 C2045 0.961 . S
H2061 C2045 0.960 . S
C2062 C2063 1.391 . S
C2062 C2064 1.394 . S
C2062 H2078 0.931 . S
C2063 C2062 1.391 . S
C2063 C2067 1.376 . S
C2064 C2062 1.394 . S
C2064 C2065 1.369 . S
C2064 C2068 1.531 . S
C2065 C2064 1.369 . S
C2065 C2066 1.410 . S
C2065 C2073 1.503 . S
C2066 C2065 1.410 . S
C2066 C2067 1.392 . S
C2066 C2069 1.511 . S
C2067 C2063 1.376 . S
C2067 C2066 1.392 . S
C2067 H2079 0.929 . S
C2068 C2064 1.531 . S
C2068 H2080 0.960 . S
C2068 H2081 0.962 . S
C2068 H2082 0.960 . S
C2069 C2066 1.511 . S
C2069 H2083 0.961 . S
C2069 H2084 0.961 . S
C2069 H2085 0.961 . S
C2070 C2071 1.370 . S
C2070 C2072 1.363 . S
C2070 H2086 0.931 . S
C2071 C2070 1.370 . S
C2071 C2075 1.408 . S
C2072 C2070 1.363 . S
C2072 C2073 1.370 . S
C2072 C2076 1.524 . S
C2073 C2065 1.503 . S
C2073 C2072 1.370 . S
C2073 C2074 1.403 . S
C2074 C2073 1.403 . S
C2074 C2075 1.404 . S
C2074 C2077 1.539 . S
C2075 C2071 1.408 . S
C2075 C2074 1.404 . S
C2075 H2087 0.930 . S
C2076 C2072 1.524 . S
C2076 H2088 0.956 . S
C2076 H2089 0.961 . S
C2076 H2090 0.961 . S
C2077 C2074 1.539 . S
C2077 H2091 0.958 . S
C2077 H2092 0.961 . S
C2077 H2093 0.960 . S
H2078 C2062 0.931 . S
H2079 C2067 0.929 . S
H2080 C2068 0.960 . S
H2081 C2068 0.962 . S
H2082 C2068 0.960 . S
H2083 C2069 0.961 . S
H2084 C2069 0.961 . S
H2085 C2069 0.961 . S
H2086 C2070 0.931 . S
H2087 C2075 0.930 . S
H2088 C2076 0.956 . S
H2089 C2076 0.961 . S
H2090 C2076 0.961 . S
H2091 C2077 0.958 . S
H2092 C2077 0.961 . S
H2093 C2077 0.960 . S
C2094 C2095 1.391 . S
C2094 C2096 1.394 . S
C2094 H2110 0.931 . S
C2095 C2094 1.391 . S
C2095 C2099 1.376 . S
C2096 C2094 1.394 . S
C2096 C2097 1.369 . S
C2096 C2100 1.531 . S
C2097 C2096 1.369 . S
C2097 C2098 1.410 . S
C2097 C2105 1.503 . S
C2098 C2097 1.410 . S
C2098 C2099 1.392 . S
C2098 C2101 1.511 . S
C2099 C2095 1.376 . S
C2099 C2098 1.392 . S
C2099 H2111 0.929 . S
C2100 C2096 1.531 . S
C2100 H2112 0.960 . S
C2100 H2113 0.962 . S
C2100 H2114 0.960 . S
C2101 C2098 1.511 . S
C2101 H2115 0.961 . S
C2101 H2116 0.961 . S
C2101 H2117 0.961 . S
C2102 C2103 1.370 . S
C2102 C2104 1.363 . S
C2102 H2118 0.931 . S
C2103 C2102 1.370 . S
C2103 C2107 1.408 . S
C2104 C2102 1.363 . S
C2104 C2105 1.370 . S
C2104 C2108 1.524 . S
C2105 C2097 1.503 . S
C2105 C2104 1.370 . S
C2105 C2106 1.403 . S
C2106 C2105 1.403 . S
C2106 C2107 1.404 . S
C2106 C2109 1.539 . S
C2107 C2103 1.408 . S
C2107 C2106 1.404 . S
C2107 H2119 0.930 . S
C2108 C2104 1.524 . S
C2108 H2120 0.956 . S
C2108 H2121 0.961 . S
C2108 H2122 0.961 . S
C2109 C2106 1.539 . S
C2109 H2123 0.958 . S
C2109 H2124 0.961 . S
C2109 H2125 0.960 . S
H2110 C2094 0.931 . S
H2111 C2099 0.929 . S
H2112 C2100 0.960 . S
H2113 C2100 0.962 . S
H2114 C2100 0.960 . S
H2115 C2101 0.961 . S
H2116 C2101 0.961 . S
H2117 C2101 0.961 . S
H2118 C2102 0.931 . S
H2119 C2107 0.930 . S
H2120 C2108 0.956 . S
H2121 C2108 0.961 . S
H2122 C2108 0.961 . S
H2123 C2109 0.958 . S
H2124 C2109 0.961 . S
H2125 C2109 0.960 . S
C2126 C2127 1.391 . S
C2126 C2128 1.394 . S
C2126 H2142 0.931 . S
C2127 C2126 1.391 . S
C2127 C2131 1.376 . S
C2128 C2126 1.394 . S
C2128 C2129 1.369 . S
C2128 C2132 1.531 . S
C2129 C2128 1.369 . S
C2129 C2130 1.410 . S
C2129 C2137 1.503 . S
C2130 C2129 1.410 . S
C2130 C2131 1.392 . S
C2130 C2133 1.511 . S
C2131 C2127 1.376 . S
C2131 C2130 1.392 . S
C2131 H2143 0.929 . S
C2132 C2128 1.531 . S
C2132 H2144 0.960 . S
C2132 H2145 0.962 . S
C2132 H2146 0.960 . S
C2133 C2130 1.511 . S
C2133 H2147 0.961 . S
C2133 H2148 0.961 . S
C2133 H2149 0.961 . S
C2134 C2135 1.370 . S
C2134 C2136 1.363 . S
C2134 H2150 0.931 . S
C2135 C2134 1.370 . S
C2135 C2139 1.408 . S
C2136 C2134 1.363 . S
C2136 C2137 1.370 . S
C2136 C2140 1.524 . S
C2137 C2129 1.503 . S
C2137 C2136 1.370 . S
C2137 C2138 1.403 . S
C2138 C2137 1.403 . S
C2138 C2139 1.404 . S
C2138 C2141 1.539 . S
C2139 C2135 1.408 . S
C2139 C2138 1.404 . S
C2139 H2151 0.930 . S
C2140 C2136 1.524 . S
C2140 H2152 0.956 . S
C2140 H2153 0.961 . S
C2140 H2154 0.961 . S
C2141 C2138 1.539 . S
C2141 H2155 0.958 . S
C2141 H2156 0.961 . S
C2141 H2157 0.960 . S
H2142 C2126 0.931 . S
H2143 C2131 0.929 . S
H2144 C2132 0.960 . S
H2145 C2132 0.962 . S
H2146 C2132 0.960 . S
H2147 C2133 0.961 . S
H2148 C2133 0.961 . S
H2149 C2133 0.961 . S
H2150 C2134 0.931 . S
H2151 C2139 0.930 . S
H2152 C2140 0.956 . S
H2153 C2140 0.961 . S
H2154 C2140 0.961 . S
H2155 C2141 0.958 . S
H2156 C2141 0.961 . S
H2157 C2141 0.960 . S
C2158 C2159 1.391 . S
C2158 C2160 1.394 . S
C2158 H2174 0.931 . S
C2159 C2158 1.391 . S
C2159 C2163 1.376 . S
C2160 C2158 1.394 . S
C2160 C2161 1.369 . S
C2160 C2164 1.531 . S
C2161 C2160 1.369 . S
C2161 C2162 1.410 . S
C2161 C2169 1.503 . S
C2162 C2161 1.410 . S
C2162 C2163 1.392 . S
C2162 C2165 1.511 . S
C2163 C2159 1.376 . S
C2163 C2162 1.392 . S
C2163 H2175 0.929 . S
C2164 C2160 1.531 . S
C2164 H2176 0.960 . S
C2164 H2177 0.962 . S
C2164 H2178 0.960 . S
C2165 C2162 1.511 . S
C2165 H2179 0.961 . S
C2165 H2180 0.961 . S
C2165 H2181 0.961 . S
C2166 C2167 1.370 . S
C2166 C2168 1.363 . S
C2166 H2182 0.931 . S
C2167 C2166 1.370 . S
C2167 C2171 1.408 . S
C2168 C2166 1.363 . S
C2168 C2169 1.370 . S
C2168 C2172 1.524 . S
C2169 C2161 1.503 . S
C2169 C2168 1.370 . S
C2169 C2170 1.403 . S
C2170 C2169 1.403 . S
C2170 C2171 1.404 . S
C2170 C2173 1.539 . S
C2171 C2167 1.408 . S
C2171 C2170 1.404 . S
C2171 H2183 0.930 . S
C2172 C2168 1.524 . S
C2172 H2184 0.956 . S
C2172 H2185 0.961 . S
C2172 H2186 0.961 . S
C2173 C2170 1.539 . S
C2173 H2187 0.958 . S
C2173 H2188 0.961 . S
C2173 H2189 0.960 . S
H2174 C2158 0.931 . S
H2175 C2163 0.929 . S
H2176 C2164 0.960 . S
H2177 C2164 0.962 . S
H2178 C2164 0.960 . S
H2179 C2165 0.961 . S
H2180 C2165 0.961 . S
H2181 C2165 0.961 . S
H2182 C2166 0.931 . S
H2183 C2171 0.930 . S
H2184 C2172 0.956 . S
H2185 C2172 0.961 . S
H2186 C2172 0.961 . S
H2187 C2173 0.958 . S
H2188 C2173 0.961 . S
H2189 C2173 0.960 . S
C2190 C2191 1.391 . S
C2190 C2192 1.394 . S
C2190 H2206 0.931 . S
C2191 C2190 1.391 . S
C2191 C2195 1.376 . S
C2192 C2190 1.394 . S
C2192 C2193 1.369 . S
C2192 C2196 1.531 . S
C2193 C2192 1.369 . S
C2193 C2194 1.410 . S
C2193 C2201 1.503 . S
C2194 C2193 1.410 . S
C2194 C2195 1.392 . S
C2194 C2197 1.511 . S
C2195 C2191 1.376 . S
C2195 C2194 1.392 . S
C2195 H2207 0.929 . S
C2196 C2192 1.531 . S
C2196 H2208 0.960 . S
C2196 H2209 0.962 . S
C2196 H2210 0.960 . S
C2197 C2194 1.511 . S
C2197 H2211 0.961 . S
C2197 H2212 0.961 . S
C2197 H2213 0.961 . S
C2198 C2199 1.370 . S
C2198 C2200 1.363 . S
C2198 H2214 0.931 . S
C2199 C2198 1.370 . S
C2199 C2203 1.408 . S
C2200 C2198 1.363 . S
C2200 C2201 1.370 . S
C2200 C2204 1.524 . S
C2201 C2193 1.503 . S
C2201 C2200 1.370 . S
C2201 C2202 1.403 . S
C2202 C2201 1.403 . S
C2202 C2203 1.404 . S
C2202 C2205 1.539 . S
C2203 C2199 1.408 . S
C2203 C2202 1.404 . S
C2203 H2215 0.930 . S
C2204 C2200 1.524 . S
C2204 H2216 0.956 . S
C2204 H2217 0.961 . S
C2204 H2218 0.961 . S
C2205 C2202 1.539 . S
C2205 H2219 0.958 . S
C2205 H2220 0.961 . S
C2205 H2221 0.960 . S
H2206 C2190 0.931 . S
H2207 C2195 0.929 . S
H2208 C2196 0.960 . S
H2209 C2196 0.962 . S
H2210 C2196 0.960 . S
H2211 C2197 0.961 . S
H2212 C2197 0.961 . S
H2213 C2197 0.961 . S
H2214 C2198 0.931 . S
H2215 C2203 0.930 . S
H2216 C2204 0.956 . S
H2217 C2204 0.961 . S
H2218 C2204 0.961 . S
H2219 C2205 0.958 . S
H2220 C2205 0.961 . S
H2221 C2205 0.960 . S
C2222 C2223 1.391 . S
C2222 C2224 1.394 . S
C2222 H2238 0.931 . S
C2223 C2222 1.391 . S
C2223 C2227 1.376 . S
C2224 C2222 1.394 . S
C2224 C2225 1.369 . S
C2224 C2228 1.531 . S
C2225 C2224 1.369 . S
C2225 C2226 1.410 . S
C2225 C2233 1.503 . S
C2226 C2225 1.410 . S
C2226 C2227 1.392 . S
C2226 C2229 1.511 . S
C2227 C2223 1.376 . S
C2227 C2226 1.392 . S
C2227 H2239 0.929 . S
C2228 C2224 1.531 . S
C2228 H2240 0.960 . S
C2228 H2241 0.962 . S
C2228 H2242 0.960 . S
C2229 C2226 1.511 . S
C2229 H2243 0.961 . S
C2229 H2244 0.961 . S
C2229 H2245 0.961 . S
C2230 C2231 1.370 . S
C2230 C2232 1.363 . S
C2230 H2246 0.931 . S
C2231 C2230 1.370 . S
C2231 C2235 1.408 . S
C2232 C2230 1.363 . S
C2232 C2233 1.370 . S
C2232 C2236 1.524 . S
C2233 C2225 1.503 . S
C2233 C2232 1.370 . S
C2233 C2234 1.403 . S
C2234 C2233 1.403 . S
C2234 C2235 1.404 . S
C2234 C2237 1.539 . S
C2235 C2231 1.408 . S
C2235 C2234 1.404 . S
C2235 H2247 0.930 . S
C2236 C2232 1.524 . S
C2236 H2248 0.956 . S
C2236 H2249 0.961 . S
C2236 H2250 0.961 . S
C2237 C2234 1.539 . S
C2237 H2251 0.958 . S
C2237 H2252 0.961 . S
C2237 H2253 0.960 . S
H2238 C2222 0.931 . S
H2239 C2227 0.929 . S
H2240 C2228 0.960 . S
H2241 C2228 0.962 . S
H2242 C2228 0.960 . S
H2243 C2229 0.961 . S
H2244 C2229 0.961 . S
H2245 C2229 0.961 . S
H2246 C2230 0.931 . S
H2247 C2235 0.930 . S
H2248 C2236 0.956 . S
H2249 C2236 0.961 . S
H2250 C2236 0.961 . S
H2251 C2237 0.958 . S
H2252 C2237 0.961 . S
H2253 C2237 0.960 . S
C2254 C2255 1.391 . S
C2254 C2256 1.394 . S
C2254 H2270 0.931 . S
C2255 C2254 1.391 . S
C2255 C2259 1.376 . S
C2256 C2254 1.394 . S
C2256 C2257 1.369 . S
C2256 C2260 1.531 . S
C2257 C2256 1.369 . S
C2257 C2258 1.410 . S
C2257 C2265 1.503 . S
C2258 C2257 1.410 . S
C2258 C2259 1.392 . S
C2258 C2261 1.511 . S
C2259 C2255 1.376 . S
C2259 C2258 1.392 . S
C2259 H2271 0.929 . S
C2260 C2256 1.531 . S
C2260 H2272 0.960 . S
C2260 H2273 0.962 . S
C2260 H2274 0.960 . S
C2261 C2258 1.511 . S
C2261 H2275 0.961 . S
C2261 H2276 0.961 . S
C2261 H2277 0.961 . S
C2262 C2263 1.370 . S
C2262 C2264 1.363 . S
C2262 H2278 0.931 . S
C2263 C2262 1.370 . S
C2263 C2267 1.408 . S
C2264 C2262 1.363 . S
C2264 C2265 1.370 . S
C2264 C2268 1.524 . S
C2265 C2257 1.503 . S
C2265 C2264 1.370 . S
C2265 C2266 1.403 . S
C2266 C2265 1.403 . S
C2266 C2267 1.404 . S
C2266 C2269 1.539 . S
C2267 C2263 1.408 . S
C2267 C2266 1.404 . S
C2267 H2279 0.930 . S
C2268 C2264 1.524 . S
C2268 H2280 0.956 . S
C2268 H2281 0.961 . S
C2268 H2282 0.961 . S
C2269 C2266 1.539 . S
C2269 H2283 0.958 . S
C2269 H2284 0.961 . S
C2269 H2285 0.960 . S
H2270 C2254 0.931 . S
H2271 C2259 0.929 . S
H2272 C2260 0.960 . S
H2273 C2260 0.962 . S
H2274 C2260 0.960 . S
H2275 C2261 0.961 . S
H2276 C2261 0.961 . S
H2277 C2261 0.961 . S
H2278 C2262 0.931 . S
H2279 C2267 0.930 . S
H2280 C2268 0.956 . S
H2281 C2268 0.961 . S
H2282 C2268 0.961 . S
H2283 C2269 0.958 . S
H2284 C2269 0.961 . S
H2285 C2269 0.960 . S
C559 C147 1.659 . S
C567 C207 1.652 . S
C591 C158 1.772 . S
C599 C247 1.770 . S
C623 C136 1.608 . S
C631 C286 1.564 . S
C655 C125 1.480 . S
C663 C246 1.450 1_556 S
C695 C287 1.492 . S
C687 C103 1.499 . S
C719 C114 1.374 . S
C727 C206 1.343 . S
C759 C217 1.635 . S
C751 C131 1.640 . S
C791 C257 1.649 . S
C783 C109 1.639 . S
C815 C120 1.674 . S
C823 C296 1.655 . S
C847 C153 1.524 . S
C855 C256 1.491 . S
C879 C164 1.440 . S
C887 C297 1.442 . S
C919 C216 1.482 . S
C911 C142 1.431 . S
C951 C327 1.660 . S
C943 C15 1.643 . S
C975 C26 1.765 . S
C983 C367 1.776 . S
C1007 C4 1.574 . S
C1015 C406 1.560 . S
C1039 C191 1.462 . S
C1047 C366 1.437 . S
C1071 C169 1.497 . S
C1079 C407 1.493 . S
C1103 C180 1.374 . S
C1111 C326 1.346 . S
C1135 C197 1.623 . S
C1143 C337 1.631 . S
C1167 C175 1.667 . S
C1175 C377 1.630 . S
C1207 C416 1.672 . S
C1199 C186 1.631 . S
C1231 C21 1.517 . S
C1239 C376 1.491 . S
C1271 C417 1.445 . S
C1263 C32 1.438 . S
C1295 C10 1.433 . S
C1303 C336 1.482 . S
C1335 C447 1.657 . S
C1327 C81 1.646 . S
C1359 C92 1.775 . S
C1367 C487 1.769 . S
C1399 C526 1.574 . S
C1391 C70 1.573 . S
C1431 C486 1.446 . S
C1423 C59 1.458 . S
C1463 C527 1.492 . S
C1455 C37 1.498 . S
C1487 C48 1.352 . S
C1495 C446 1.354 . S
C1519 C65 1.643 . S
C1527 C457 1.620 . S
C1551 C43 1.660 . S
C1559 C497 1.631 . S
C1591 C536 1.664 . S
C1583 C54 1.658 . S
C1615 C87 1.473 . S
C1623 C496 1.512 . S
C1647 C98 1.438 . S
C1655 C537 1.446 . S
C1679 C76 1.433 . S
C1687 C456 1.482 . S
C1711 C170 1.499 . S
C1719 C203 1.481 . S
C1751 C243 1.919 . S
C1743 C181 1.921 . S
C1775 C192 1.570 . S
C1783 C293 1.569 . S
C1807 C71 1.750 . S
C1815 C253 1.781 . S
C1839 C82 1.671 . S
C1847 C283 1.675 . S
C1879 C213 1.323 . S
C1871 C93 1.318 . S
C1903 C38 1.479 . S
C1911 C323 1.492 . S
C1935 C49 1.925 . S
C1943 C363 1.917 . S
C1967 C60 1.555 . S
C1975 C413 1.572 . S
C1999 C137 1.772 . S
C2007 C373 1.780 . S
C2039 C403 1.672 . S
C2031 C148 1.675 . S
C2063 C159 1.305 . S
C2071 C333 1.322 . S
C2095 C104 1.501 . S
C2103 C443 1.481 . S
C2127 C115 1.928 . S
C2135 C483 1.916 . S
C2167 C533 1.577 . S
C2159 C126 1.533 . S
C2191 C5 1.773 . S
C2199 C493 1.780 . S
C2223 C16 1.668 . S
C2231 C523 1.675 . S
C2255 C27 1.305 . S
C2263 C453 1.325 . S
