# Generated by pormake.
# Topology rtl, (3,6)-cn, num edge types: 1
# Building blocks:
#     Node 0, Type 0, BuildingBlock: BETDAH_clean_linker_0, # of connection points: 3
#     Node 1, Type 0, BuildingBlock: BETDAH_clean_linker_0, # of connection points: 3
#     Node 2, Type 0, BuildingBlock: BETDAH_clean_linker_0, # of connection points: 3
#     Node 3, Type 0, BuildingBlock: BETDAH_clean_linker_0, # of connection points: 3
#     Node 4, Type 1, BuildingBlock: LEVNOQ01_clean_sbu_1, # of connection points: 6
#     Node 5, Type 1, BuildingBlock: LEVNOQ01_clean_sbu_1, # of connection points: 6
#     Edge 6, Type (0, 1), BuildingBlock: KIFKEQ_clean_linker_1, # of connection points: 2
#     Edge 7, Type (0, 1), BuildingBlock: KIFKEQ_clean_linker_1, # of connection points: 2
#     Edge 8, Type (0, 1), BuildingBlock: KIFKEQ_clean_linker_1, # of connection points: 2
#     Edge 9, Type (0, 1), BuildingBlock: KIFKEQ_clean_linker_1, # of connection points: 2
#     Edge 10, Type (0, 1), BuildingBlock: KIFKEQ_clean_linker_1, # of connection points: 2
#     Edge 11, Type (0, 1), BuildingBlock: KIFKEQ_clean_linker_1, # of connection points: 2
#     Edge 12, Type (0, 1), BuildingBlock: KIFKEQ_clean_linker_1, # of connection points: 2
#     Edge 13, Type (0, 1), BuildingBlock: KIFKEQ_clean_linker_1, # of connection points: 2
#     Edge 14, Type (0, 1), BuildingBlock: KIFKEQ_clean_linker_1, # of connection points: 2
#     Edge 15, Type (0, 1), BuildingBlock: KIFKEQ_clean_linker_1, # of connection points: 2
#     Edge 16, Type (0, 1), BuildingBlock: KIFKEQ_clean_linker_1, # of connection points: 2
#     Edge 17, Type (0, 1), BuildingBlock: KIFKEQ_clean_linker_1, # of connection points: 2
# Relax obj value: 0.016
# Max RMSD: 0.115
# Mean RMSD: 0.086
data_MOF--net-rtl--node1-LEVNOQ01_clean_sbu_1--node2-BETDAH_clean_linker_0--edge1-KIFKEQ_clean_linker_1
_symmetry_space_group_name_H-M    P1
_symmetry_Int_Tables_number       1
_symmetry_cell_setting            triclinic
loop_
_symmetry_equiv_pos_as_xyz
'x, y, z'
_cell_length_a     36.1655
_cell_length_b     35.583665
_cell_length_c     22.659954
_cell_angle_alpha  91.592183
_cell_angle_beta   100.85872
_cell_angle_gamma 89.786065
loop_
_atom_site_label
_atom_site_type_symbol
_atom_site_fract_x
_atom_site_fract_y
_atom_site_fract_z
_atom_type_partial_charge
H0 H 0.16571 0.90415 0.08308 0.0
H1 H 0.19334 0.80921 0.19689 0.0
H2 H 0.18567 0.79544 0.00665 0.0
C3 C 0.17336 0.87483 0.08865 0.0
C4 C 0.17511 0.85194 0.03752 0.0
C5 C 0.17988 0.85999 0.14663 0.0
C6 C 0.18945 0.82177 0.15315 0.0
C7 C 0.19193 0.79879 0.10289 0.0
C8 C 0.18447 0.81375 0.04526 0.0
N9 N 0.19772 0.75971 0.10977 0.0
C10 C 0.23355 0.74415 0.12057 0.0
H11 H 0.65759 0.6548 0.58175 0.0
H12 H 0.68666 0.76218 0.5198 0.0
H13 H 0.67821 0.75019 0.7045 0.0
C14 C 0.66528 0.68406 0.59091 0.0
C15 C 0.66801 0.69915 0.6496 0.0
C16 C 0.67122 0.70658 0.54338 0.0
C17 C 0.68178 0.74447 0.55571 0.0
C18 C 0.68491 0.75979 0.61434 0.0
C19 C 0.67719 0.73739 0.66028 0.0
N20 N 0.6937 0.79821 0.62789 0.0
C21 C 0.72345 0.81626 0.60964 0.0
H22 H 0.84889 0.13256 1.00327 0.0
H23 H 0.83393 0.24035 0.08596 0.0
H24 H 0.82481 0.23071 0.89517 0.0
C25 C 0.84235 0.16219 0.99906 0.0
C26 C 0.83688 0.17838 0.94205 0.0
C27 C 0.84215 0.18424 0.05147 0.0
C28 C 0.83376 0.22273 0.04612 0.0
C29 C 0.82594 0.23888 0.9894 0.0
C30 C 0.82804 0.21694 0.93784 0.0
N31 N 0.82092 0.27821 0.98496 0.0
C32 C 0.78537 0.29434 0.97248 0.0
H33 H 0.36243 0.40347 0.50997 0.0
H34 H 0.2605 0.36139 0.55668 0.0
H35 H 0.26543 0.37995 0.37197 0.0
C36 C 0.3339 0.39298 0.49643 0.0
C37 C 0.31681 0.39244 0.4353 0.0
C38 C 0.31391 0.38207 0.54071 0.0
C39 C 0.27645 0.36954 0.52311 0.0
C40 C 0.2592 0.36874 0.46202 0.0
C41 C 0.27919 0.3807 0.41881 0.0
N42 N 0.22093 0.35846 0.44314 0.0
C43 C 0.20681 0.32377 0.45481 0.0
O44 O 0.00085 0.09405 0.6622 0.0
Mg45 Mg 0.05201 0.0753 0.6419 0.0
O46 O 0.97136 0.04908 0.60245 0.0
Mg47 Mg 0.01376 0.02365 0.54454 0.0
O48 O 0.05474 0.07611 0.55254 0.0
O49 O 0.08559 0.11635 0.62333 0.0
O50 O 0.05921 1.0025 0.48572 0.0
O51 O 0.97888 0.05422 0.46334 0.0
Mg52 Mg 0.99796 0.97107 0.47009 0.0
O53 O 0.9683 0.97271 0.53805 0.0
O54 O 0.04958 0.94242 0.48398 0.0
O55 O 0.98158 0.00846 0.39748 0.0
O56 O 0.95862 0.93098 0.46033 0.0
C57 C 0.07304 0.99773 0.67327 0.0
C58 C 0.97111 0.076 0.64082 0.0
C59 C 0.0772 0.10482 0.56797 0.0
C60 C 0.07047 0.96925 0.47646 0.0
C61 C 0.97232 0.04186 0.40909 0.0
C62 C 0.95031 0.94368 0.50996 0.0
O63 O 0.08133 0.0314 0.68936 0.0
O64 O 0.0488 0.99018 0.62565 0.0
O65 O 0.58986 0.5208 0.18175 0.0
Mg66 Mg 0.55981 0.4758 0.13455 0.0
O67 O 0.54954 0.55927 0.12868 0.0
Mg68 Mg 0.51312 0.52402 0.04738 0.0
O69 O 0.55716 0.47466 0.04342 0.0
O70 O 0.59252 0.43572 0.10791 0.0
O71 O 0.47647 0.4897 0.96593 0.0
O72 O 0.55002 0.55335 0.98571 0.0
Mg73 Mg 0.46954 0.57517 0.96036 0.0
O74 O 0.46859 0.57283 0.05046 0.0
O75 O 0.44241 0.53051 0.90685 0.0
O76 O 0.51718 0.59937 0.93798 0.0
O77 O 0.43485 0.61339 0.98699 0.0
C78 C 0.48161 0.46851 0.14833 0.0
C79 C 0.5774 0.55364 0.17146 0.0
C80 C 0.58143 0.44724 0.054 0.0
C81 C 0.45168 0.497 0.91954 0.0
C82 C 0.54772 0.58169 0.95187 0.0
C83 C 0.44437 0.60029 0.0402 0.0
O84 O 0.51365 0.45401 0.16501 0.0
O85 O 0.47689 0.4943 0.10951 0.0
H86 H 0.22633 0.27447 0.54365 0.0
H87 H 0.1483 0.293 0.37835 0.0
H88 H 0.19497 0.21498 0.55484 0.0
H89 H 0.11705 0.23312 0.38838 0.0
H90 H 0.04378 0.15712 0.49106 0.0
H91 H 0.07708 0.20808 0.45304 0.0
H92 H 0.18285 0.1517 0.51436 0.0
H93 H 0.14931 0.10152 0.55365 0.0
C94 C 0.20266 0.26543 0.50948 0.0
C95 C 0.18942 0.28799 0.46044 0.0
C96 C 0.18488 0.23126 0.51538 0.0
C97 C 0.15355 0.21908 0.47222 0.0
C98 C 0.14088 0.2417 0.42255 0.0
C99 C 0.15873 0.27587 0.41673 0.0
C100 C 0.07393 0.15486 0.49358 0.0
C101 C 0.09405 0.12535 0.52444 0.0
C102 C 0.09313 0.18417 0.47231 0.0
C103 C 0.13277 0.18439 0.48188 0.0
C104 C 0.15241 0.15283 0.50749 0.0
C105 C 0.13322 0.12373 0.52898 0.0
H106 H 0.25454 0.68323 0.18697 0.0
H107 H 0.29272 0.7626 0.07124 0.0
H108 H 0.31313 0.64742 0.19193 0.0
H109 H 0.35077 0.72685 0.0747 0.0
H110 H 0.3872 0.57017 0.08497 0.0
H111 H 0.339 0.60725 0.12202 0.0
H112 H 0.40933 0.70606 0.13245 0.0
H113 H 0.45668 0.66892 0.0933 0.0
C114 C 0.27586 0.69319 0.16336 0.0
C115 C 0.26954 0.72546 0.12879 0.0
C116 C 0.30926 0.6727 0.16596 0.0
C117 C 0.33682 0.6842 0.13389 0.0
C118 C 0.33066 0.71747 0.10103 0.0
C119 C 0.29732 0.73786 0.09852 0.0
C120 C 0.39307 0.59935 0.09829 0.0
C121 C 0.4256 0.61674 0.0868 0.0
C122 C 0.36534 0.62078 0.11913 0.0
C123 C 0.36985 0.65993 0.12874 0.0
C124 C 0.40454 0.6762 0.12406 0.0
C125 C 0.432 0.65484 0.10273 0.0
H126 H 0.7745 0.85528 0.68927 0.0
H127 H 0.74446 0.82166 0.5022 0.0
H128 H 0.8307 0.88734 0.66962 0.0
H129 H 0.80003 0.85421 0.48175 0.0
H130 H 0.92195 0.87425 0.47784 0.0
H131 H 0.8673 0.84479 0.50419 0.0
H132 H 0.85255 0.94094 0.61807 0.0
H133 H 0.90841 0.97059 0.59216 0.0
C134 C 0.77997 0.85508 0.64385 0.0
C135 C 0.75566 0.83606 0.59713 0.0
C136 C 0.81191 0.87357 0.63253 0.0
C137 C 0.82003 0.87316 0.57423 0.0
C138 C 0.79498 0.85454 0.52738 0.0
C139 C 0.76311 0.83608 0.5388 0.0
C140 C 0.90727 0.88921 0.50877 0.0
C141 C 0.91933 0.92501 0.53241 0.0
C142 C 0.87569 0.87234 0.52353 0.0
C143 C 0.85503 0.89079 0.5622 0.0
C144 C 0.86787 0.926 0.58804 0.0
C145 C 0.89983 0.94297 0.5733 0.0
H146 H 0.72635 0.27875 0.0239 0.0
H147 H 0.76508 0.35408 0.90281 0.0
H148 H 0.66943 0.31626 0.02041 0.0
H149 H 0.70756 0.39163 0.89774 0.0
H150 H 0.63813 0.47393 0.00454 0.0
H151 H 0.68409 0.43418 0.96673 0.0
H152 H 0.61095 0.33815 0.96447 0.0
H153 H 0.56586 0.37801 0.00443 0.0
C154 C 0.72205 0.30293 0.99537 0.0
C155 C 0.74972 0.31373 0.96366 0.0
C156 C 0.68934 0.32434 0.99285 0.0
C157 C 0.68369 0.35705 0.95854 0.0
C158 C 0.71104 0.36684 0.92488 0.0
C159 C 0.74383 0.34533 0.92751 0.0
C160 C 0.6311 0.44475 0.9928 0.0
C161 C 0.59845 0.429 0.00679 0.0
C162 C 0.65756 0.42179 0.97153 0.0
C163 C 0.65169 0.38268 0.96399 0.0
C164 C 0.6168 0.36795 0.9712 0.0
C165 C 0.5906 0.39086 0.99298 0.0
H166 H 0.12524 0.91315 0.15041 0.0
H167 H 0.21952 0.85973 0.26306 0.0
H168 H 0.1107 0.94691 0.2376 0.0
H169 H 0.20395 0.89296 0.35108 0.0
H170 H 0.11239 0.9058 0.4773 0.0
H171 H 0.14851 0.88562 0.40166 0.0
H172 H 0.13219 0.99446 0.32111 0.0
H173 H 0.09596 0.01475 0.39731 0.0
C174 C 0.14354 0.90925 0.19345 0.0
C175 C 0.17355 0.88348 0.19944 0.0
C176 C 0.13513 0.92872 0.24361 0.0
C177 C 0.15621 0.92267 0.30125 0.0
C178 C 0.18709 0.89803 0.30722 0.0
C179 C 0.19579 0.87881 0.25683 0.0
C180 C 0.11763 0.92586 0.44469 0.0
C181 C 0.10104 0.96168 0.44276 0.0
C182 C 0.13844 0.91433 0.40142 0.0
C183 C 0.14271 0.93827 0.35489 0.0
C184 C 0.12895 0.97528 0.35608 0.0
C185 C 0.10851 0.98701 0.4 0.0
H186 H 0.61496 0.64318 0.64271 0.0
H187 H 0.70156 0.70186 0.76925 0.0
H188 H 0.59768 0.60874 0.72465 0.0
H189 H 0.68251 0.66857 0.85153 0.0
H190 H 0.5779 0.65102 0.95464 0.0
H191 H 0.6169 0.67439 0.88652 0.0
H192 H 0.62416 0.56207 0.81261 0.0
H193 H 0.58588 0.53846 0.88257 0.0
C194 C 0.63093 0.64826 0.68763 0.0
C195 C 0.65956 0.67568 0.69907 0.0
C196 C 0.62093 0.62845 0.73464 0.0
C197 C 0.63885 0.63597 0.7943 0.0
C198 C 0.66825 0.66234 0.80585 0.0
C199 C 0.67878 0.68168 0.7587 0.0
C200 C 0.5892 0.63115 0.92557 0.0
C201 C 0.57926 0.59301 0.92387 0.0
C202 C 0.61146 0.64448 0.8866 0.0
C203 C 0.62329 0.62003 0.84416 0.0
C204 C 0.61532 0.58141 0.845 0.0
C205 C 0.59377 0.56789 0.8852 0.0
H206 H 0.89235 0.2134 0.14739 0.0
H207 H 0.82175 0.11657 0.09014 0.0
H208 H 0.92188 0.18091 0.23778 0.0
H209 H 0.85125 0.08411 0.18033 0.0
H210 H 0.94946 0.02099 0.29126 0.0
H211 H 0.91448 0.05766 0.21061 0.0
H212 H 0.91382 0.15235 0.33382 0.0
H213 H 0.94941 0.11551 0.41523 0.0
C214 C 0.88243 0.18557 0.15486 0.0
C215 C 0.85496 0.1674 0.11126 0.0
C216 C 0.89945 0.16691 0.2066 0.0
C217 C 0.88939 0.12968 0.21571 0.0
C218 C 0.86026 0.11246 0.17394 0.0
C219 C 0.84326 0.13109 0.12238 0.0
C220 C 0.94199 0.04964 0.30141 0.0
C221 C 0.95225 0.06524 0.35988 0.0
C222 C 0.92158 0.07058 0.25515 0.0
C223 C 0.91091 0.10779 0.2659 0.0
C224 C 0.92165 0.12375 0.3241 0.0
C225 C 0.94198 0.10264 0.37071 0.0
H226 H 0.28607 0.41991 0.62898 0.0
H227 H 0.38258 0.35665 0.59688 0.0
H228 H 0.32009 0.43892 0.7284 0.0
H229 H 0.41638 0.37402 0.69756 0.0
H230 H 0.48088 0.46371 0.83005 0.0
H231 H 0.4465 0.4276 0.74432 0.0
H232 H 0.34817 0.42779 0.82754 0.0
H233 H 0.38257 0.46575 0.9117 0.0
C234 C 0.31419 0.40905 0.64412 0.0
C235 C 0.33178 0.38705 0.6051 0.0
C236 C 0.33381 0.41985 0.70136 0.0
C237 C 0.3714 0.40847 0.72132 0.0
C238 C 0.38792 0.38421 0.68351 0.0
C239 C 0.36848 0.37393 0.62594 0.0
C240 C 0.45229 0.45493 0.83061 0.0
C241 C 0.43441 0.467 0.87746 0.0
C242 C 0.43242 0.43417 0.78145 0.0
C243 C 0.39418 0.42489 0.77823 0.0
C244 C 0.37723 0.43499 0.82754 0.0
C245 C 0.39702 0.45623 0.87627 0.0
H246 H 0.63171 0.73785 0.44104 0.0
H247 H 0.6936 0.63839 0.50479 0.0
H248 H 0.61245 0.70728 0.34188 0.0
H249 H 0.67331 0.6074 0.40748 0.0
H250 H 0.65075 0.56087 0.22395 0.0
H251 H 0.67811 0.60399 0.30547 0.0
H252 H 0.56994 0.6579 0.29636 0.0
H253 H 0.54303 0.61549 0.21234 0.0
C254 C 0.64173 0.70972 0.43358 0.0
C255 C 0.66401 0.69045 0.4809 0.0
C256 C 0.6303 0.69201 0.37698 0.0
C257 C 0.64109 0.65473 0.36644 0.0
C258 C 0.66476 0.63625 0.41326 0.0
C259 C 0.67614 0.65389 0.4695 0.0
C260 C 0.63302 0.58249 0.23852 0.0
C261 C 0.59468 0.58457 0.21232 0.0
C262 C 0.64862 0.60706 0.28562 0.0
C263 C 0.62609 0.63389 0.30877 0.0
C264 C 0.58823 0.6377 0.27972 0.0
C265 C 0.57272 0.61338 0.23161 0.0
H266 H 0.88859 0.12163 0.94027 0.0
H267 H 0.80461 0.1852 0.82181 0.0
H268 H 0.90709 0.09072 0.8542 0.0
H269 H 0.82577 0.1557 0.73516 0.0
H270 H 0.94103 0.14503 0.6485 0.0
H271 H 0.89597 0.16423 0.71138 0.0
H272 H 0.88187 0.04833 0.75412 0.0
H273 H 0.92623 0.02897 0.68913 0.0
C274 C 0.87312 0.1284 0.89621 0.0
C275 C 0.84488 0.15623 0.88872 0.0
C276 C 0.884 0.11059 0.84664 0.0
C277 C 0.86772 0.12069 0.78816 0.0
C278 C 0.83864 0.14737 0.77999 0.0
C279 C 0.82694 0.16458 0.82974 0.0
C280 C 0.92704 0.12357 0.66933 0.0
C281 C 0.93694 0.08561 0.66426 0.0
C282 C 0.9012 0.13451 0.70509 0.0
C283 C 0.88563 0.10775 0.73765 0.0
C284 C 0.89346 0.06943 0.72917 0.0
C285 C 0.91865 0.05836 0.69198 0.0
H286 H 0.39007 0.3767 0.43011 0.0
H287 H 0.29227 0.43445 0.33535 0.0
H288 H 0.42564 0.39539 0.35502 0.0
H289 H 0.32755 0.45165 0.25808 0.0
H290 H 0.42219 0.50985 0.17481 0.0
H291 H 0.37938 0.49147 0.24111 0.0
H292 H 0.42885 0.38052 0.2528 0.0
H293 H 0.47205 0.39927 0.18893 0.0
C294 C 0.37613 0.39342 0.39324 0.0
C295 C 0.33829 0.40402 0.38886 0.0
C296 C 0.39638 0.4037 0.34957 0.0
C297 C 0.37931 0.42462 0.29996 0.0
C298 C 0.34156 0.4356 0.29573 0.0
C299 C 0.32125 0.42538 0.33969 0.0
C300 C 0.42327 0.48137 0.19075 0.0
C301 C 0.45072 0.45613 0.17753 0.0
C302 C 0.39883 0.47082 0.22873 0.0
C303 C 0.40132 0.43478 0.25345 0.0
C304 C 0.42695 0.40885 0.2362 0.0
C305 C 0.45151 0.41949 0.19914 0.0
H306 H 0.1326 0.81963 0.93527 0.0
H307 H 0.19441 0.92061 1.00136 0.0
H308 H 0.1116 0.84844 0.83807 0.0
H309 H 0.17179 0.95009 0.90634 0.0
H310 H 0.14643 0.99377 0.72519 0.0
H311 H 0.17521 0.95271 0.80499 0.0
H312 H 0.06877 0.89534 0.7936 0.0
H313 H 0.0407 0.93543 0.71089 0.0
C314 C 0.14207 0.8478 0.92891 0.0
C315 C 0.16505 0.86787 0.97639 0.0
C316 C 0.12961 0.86452 0.87336 0.0
C317 C 0.1398 0.90172 0.864 0.0
C318 C 0.16371 0.92123 0.91108 0.0
C319 C 0.17632 0.90449 0.9662 0.0
C320 C 0.1295 0.97171 0.73882 0.0
C321 C 0.09134 0.96786 0.71232 0.0
C322 C 0.14584 0.9484 0.78504 0.0
C323 C 0.12415 0.92128 0.80718 0.0
C324 C 0.08647 0.91578 0.77779 0.0
C325 C 0.07029 0.93873 0.73039 0.0
loop_
_geom_bond_atom_site_label_1
_geom_bond_atom_site_label_2
_geom_bond_distance
_geom_bond_site_symmetry_2
_ccdc_geom_bond_type
H0 C3 0.929 . S
H1 C6 0.929 . S
H2 C8 0.930 1_556 S
C3 H0 0.929 . S
C3 C4 1.398 . S
C3 C5 1.396 . S
C4 C3 1.398 . S
C4 C8 1.407 . S
C5 C3 1.396 . S
C5 C6 1.394 . S
C6 H1 0.929 . S
C6 C5 1.394 . S
C6 C7 1.382 . S
C7 C6 1.382 . S
C7 C8 1.392 . S
C7 N9 1.420 . S
C8 H2 0.930 1_554 S
C8 C4 1.407 . S
C8 C7 1.392 . S
N9 C7 1.420 . S
N9 C10 1.244 . S
C10 N9 1.244 . S
H11 C14 0.929 . S
H12 C17 0.929 . S
H13 C19 0.930 . S
C14 H11 0.929 . S
C14 C15 1.398 . S
C14 C16 1.396 . S
C15 C14 1.398 . S
C15 C19 1.407 . S
C16 C14 1.396 . S
C16 C17 1.394 . S
C17 H12 0.929 . S
C17 C16 1.394 . S
C17 C18 1.382 . S
C18 C17 1.382 . S
C18 C19 1.392 . S
C18 N20 1.420 . S
C19 H13 0.930 . S
C19 C15 1.407 . S
C19 C18 1.392 . S
N20 C18 1.420 . S
N20 C21 1.244 . S
C21 N20 1.244 . S
H22 C25 0.929 . S
H23 C28 0.929 . S
H24 C30 0.930 . S
C25 H22 0.929 . S
C25 C26 1.398 1_554 S
C25 C27 1.396 . S
C26 C25 1.398 1_556 S
C26 C30 1.407 . S
C27 C25 1.396 . S
C27 C28 1.394 . S
C28 H23 0.929 . S
C28 C27 1.394 . S
C28 C29 1.382 1_554 S
C29 C28 1.382 1_556 S
C29 C30 1.392 . S
C29 N31 1.420 . S
C30 H24 0.930 . S
C30 C26 1.407 . S
C30 C29 1.392 . S
N31 C29 1.420 . S
N31 C32 1.244 1_556 S
C32 N31 1.244 1_554 S
H33 C36 0.929 . S
H34 C39 0.929 . S
H35 C41 0.930 . S
C36 H33 0.929 . S
C36 C37 1.398 . S
C36 C38 1.396 . S
C37 C36 1.398 . S
C37 C41 1.407 . S
C38 C36 1.396 . S
C38 C39 1.394 . S
C39 H34 0.929 . S
C39 C38 1.394 . S
C39 C40 1.382 . S
C40 C39 1.382 . S
C40 C41 1.392 . S
C40 N42 1.420 . S
C41 H35 0.930 . S
C41 C37 1.407 . S
C41 C40 1.392 . S
N42 C40 1.420 . S
N42 C43 1.244 . S
C43 N42 1.244 . S
O44 Mg45 1.990 . S
O44 C58 1.253 1_455 S
Mg45 O44 1.990 . S
Mg45 O48 2.180 . S
Mg45 O49 2.117 . S
Mg45 O63 2.030 . S
O46 Mg47 2.072 1_655 S
O46 C58 1.260 . S
Mg47 O46 2.072 1_455 S
Mg47 O48 2.099 . S
Mg47 O50 2.079 1_545 S
Mg47 O51 2.072 1_455 S
Mg47 O53 2.099 1_445 S
Mg47 O64 2.079 1_545 S
O48 Mg45 2.180 . S
O48 Mg47 2.099 . S
O48 C59 1.279 . S
O49 Mg45 2.117 . S
O49 C59 1.250 . S
O50 Mg47 2.079 1_565 S
O50 C60 1.264 . S
O51 Mg47 2.072 1_655 S
O51 C61 1.260 . S
Mg52 O53 2.180 . S
Mg52 O54 2.030 1_655 S
Mg52 O55 1.990 1_565 S
Mg52 O56 2.117 . S
O53 Mg47 2.099 1_665 S
O53 Mg52 2.180 . S
O53 C62 1.279 . S
O54 Mg52 2.030 1_455 S
O54 C60 1.248 . S
O55 Mg52 1.990 1_545 S
O55 C61 1.253 . S
O56 Mg52 2.117 . S
O56 C62 1.250 . S
C57 O63 1.248 1_565 S
C57 O64 1.264 . S
C58 O44 1.253 1_655 S
C58 O46 1.260 . S
C59 O48 1.279 . S
C59 O49 1.250 . S
C60 O50 1.264 . S
C60 O54 1.248 . S
C61 O51 1.260 . S
C61 O55 1.253 . S
C62 O53 1.279 . S
C62 O56 1.250 . S
O63 Mg45 2.030 . S
O63 C57 1.248 1_545 S
O64 Mg47 2.079 1_565 S
O64 C57 1.264 . S
O65 Mg66 1.990 . S
O65 C79 1.253 . S
Mg66 O65 1.990 . S
Mg66 O69 2.180 . S
Mg66 O70 2.117 . S
Mg66 O84 2.030 . S
O67 Mg68 2.072 . S
O67 C79 1.260 . S
Mg68 O67 2.072 . S
Mg68 O69 2.099 . S
Mg68 O71 2.079 1_554 S
Mg68 O72 2.072 1_554 S
Mg68 O74 2.099 . S
Mg68 O85 2.079 . S
O69 Mg66 2.180 . S
O69 Mg68 2.099 . S
O69 C80 1.279 . S
O70 Mg66 2.117 . S
O70 C80 1.250 . S
O71 Mg68 2.079 1_556 S
O71 C81 1.264 . S
O72 Mg68 2.072 1_556 S
O72 C82 1.260 . S
Mg73 O74 2.180 1_556 S
Mg73 O75 2.030 . S
Mg73 O76 1.990 . S
Mg73 O77 2.117 . S
O74 Mg68 2.099 . S
O74 Mg73 2.180 1_554 S
O74 C83 1.279 . S
O75 Mg73 2.030 . S
O75 C81 1.248 . S
O76 Mg73 1.990 . S
O76 C82 1.253 . S
O77 Mg73 2.117 . S
O77 C83 1.250 1_556 S
C78 O84 1.248 . S
C78 O85 1.264 . S
C79 O65 1.253 . S
C79 O67 1.260 . S
C80 O69 1.279 . S
C80 O70 1.250 . S
C81 O71 1.264 . S
C81 O75 1.248 . S
C82 O72 1.260 . S
C82 O76 1.253 . S
C83 O74 1.279 . S
C83 O77 1.250 1_554 S
O84 Mg66 2.030 . S
O84 C78 1.248 . S
O85 Mg68 2.079 . S
O85 C78 1.264 . S
H86 C94 0.950 . S
H87 C99 0.950 . S
H88 C96 0.950 . S
H89 C98 0.950 . S
H90 C100 0.950 . S
H91 C102 0.950 . S
H92 C104 0.950 . S
H93 C105 0.950 . S
C94 H86 0.950 . S
C94 C95 1.386 . S
C94 C96 1.391 . S
C95 C94 1.386 . S
C95 C99 1.393 . S
C96 H88 0.950 . S
C96 C94 1.391 . S
C96 C97 1.400 . S
C97 C96 1.400 . S
C97 C98 1.398 . S
C97 C103 1.491 . S
C98 H89 0.950 . S
C98 C97 1.398 . S
C98 C99 1.391 . S
C99 H87 0.950 . S
C99 C95 1.393 . S
C99 C98 1.391 . S
C100 H90 0.950 . S
C100 C101 1.386 . S
C100 C102 1.391 . S
C101 C100 1.386 . S
C101 C105 1.393 . S
C102 H91 0.950 . S
C102 C100 1.391 . S
C102 C103 1.400 . S
C103 C97 1.491 . S
C103 C102 1.400 . S
C103 C104 1.398 . S
C104 H92 0.950 . S
C104 C103 1.398 . S
C104 C105 1.391 . S
C105 H93 0.950 . S
C105 C101 1.393 . S
C105 C104 1.391 . S
H106 C114 0.950 . S
H107 C119 0.950 . S
H108 C116 0.950 . S
H109 C118 0.950 1_556 S
H110 C120 0.950 1_556 S
H111 C122 0.950 1_556 S
H112 C124 0.950 . S
H113 C125 0.950 . S
C114 H106 0.950 . S
C114 C115 1.386 . S
C114 C116 1.391 . S
C115 C114 1.386 . S
C115 C119 1.393 . S
C116 H108 0.950 . S
C116 C114 1.391 . S
C116 C117 1.400 . S
C117 C116 1.400 . S
C117 C118 1.398 . S
C117 C123 1.491 . S
C118 H109 0.950 1_554 S
C118 C117 1.398 . S
C118 C119 1.391 . S
C119 H107 0.950 . S
C119 C115 1.393 . S
C119 C118 1.391 . S
C120 H110 0.950 1_554 S
C120 C121 1.386 . S
C120 C122 1.391 . S
C121 C120 1.386 . S
C121 C125 1.393 . S
C122 H111 0.950 1_554 S
C122 C120 1.391 . S
C122 C123 1.400 . S
C123 C117 1.491 . S
C123 C122 1.400 . S
C123 C124 1.398 . S
C124 H112 0.950 . S
C124 C123 1.398 . S
C124 C125 1.391 . S
C125 H113 0.950 . S
C125 C121 1.393 . S
C125 C124 1.391 . S
H126 C134 0.950 . S
H127 C139 0.950 . S
H128 C136 0.950 . S
H129 C138 0.950 . S
H130 C140 0.950 . S
H131 C142 0.950 . S
H132 C144 0.950 . S
H133 C145 0.950 . S
C134 H126 0.950 . S
C134 C135 1.386 . S
C134 C136 1.391 . S
C135 C134 1.386 . S
C135 C139 1.393 . S
C136 H128 0.950 . S
C136 C134 1.391 . S
C136 C137 1.400 . S
C137 C136 1.400 . S
C137 C138 1.398 . S
C137 C143 1.491 . S
C138 H129 0.950 . S
C138 C137 1.398 . S
C138 C139 1.391 . S
C139 H127 0.950 . S
C139 C135 1.393 . S
C139 C138 1.391 . S
C140 H130 0.950 . S
C140 C141 1.386 . S
C140 C142 1.391 . S
C141 C140 1.386 . S
C141 C145 1.393 . S
C142 H131 0.950 . S
C142 C140 1.391 . S
C142 C143 1.400 . S
C143 C137 1.491 . S
C143 C142 1.400 . S
C143 C144 1.398 . S
C144 H132 0.950 . S
C144 C143 1.398 . S
C144 C145 1.391 . S
C145 H133 0.950 . S
C145 C141 1.393 . S
C145 C144 1.391 . S
H146 C154 0.950 . S
H147 C159 0.950 . S
H148 C156 0.950 . S
H149 C158 0.950 . S
H150 C160 0.950 . S
H151 C162 0.950 . S
H152 C164 0.950 . S
H153 C165 0.950 . S
C154 H146 0.950 . S
C154 C155 1.386 . S
C154 C156 1.391 . S
C155 C154 1.386 . S
C155 C159 1.393 1_554 S
C156 H148 0.950 . S
C156 C154 1.391 . S
C156 C157 1.400 . S
C157 C156 1.400 . S
C157 C158 1.398 1_554 S
C157 C163 1.491 . S
C158 H149 0.950 . S
C158 C157 1.398 1_556 S
C158 C159 1.391 . S
C159 H147 0.950 . S
C159 C155 1.393 1_556 S
C159 C158 1.391 . S
C160 H150 0.950 . S
C160 C161 1.386 1_556 S
C160 C162 1.391 . S
C161 C160 1.386 1_554 S
C161 C165 1.393 . S
C162 H151 0.950 . S
C162 C160 1.391 . S
C162 C163 1.400 1_556 S
C163 C157 1.491 . S
C163 C162 1.400 1_554 S
C163 C164 1.398 . S
C164 H152 0.950 . S
C164 C163 1.398 . S
C164 C165 1.391 . S
C165 H153 0.950 . S
C165 C161 1.393 . S
C165 C164 1.391 . S
H166 C174 0.950 . S
H167 C179 0.950 . S
H168 C176 0.950 . S
H169 C178 0.950 . S
H170 C180 0.950 . S
H171 C182 0.950 . S
H172 C184 0.950 . S
H173 C185 0.950 . S
C174 H166 0.950 . S
C174 C175 1.386 . S
C174 C176 1.391 . S
C175 C174 1.386 . S
C175 C179 1.393 . S
C176 H168 0.950 . S
C176 C174 1.391 . S
C176 C177 1.400 . S
C177 C176 1.400 . S
C177 C178 1.398 . S
C177 C183 1.491 . S
C178 H169 0.950 . S
C178 C177 1.398 . S
C178 C179 1.391 . S
C179 H167 0.950 . S
C179 C175 1.393 . S
C179 C178 1.391 . S
C180 H170 0.950 . S
C180 C181 1.386 . S
C180 C182 1.391 . S
C181 C180 1.386 . S
C181 C185 1.393 . S
C182 H171 0.950 . S
C182 C180 1.391 . S
C182 C183 1.400 . S
C183 C177 1.491 . S
C183 C182 1.400 . S
C183 C184 1.398 . S
C184 H172 0.950 . S
C184 C183 1.398 . S
C184 C185 1.391 . S
C185 H173 0.950 . S
C185 C181 1.393 . S
C185 C184 1.391 . S
H186 C194 0.950 . S
H187 C199 0.950 . S
H188 C196 0.950 . S
H189 C198 0.950 . S
H190 C200 0.950 . S
H191 C202 0.950 . S
H192 C204 0.950 . S
H193 C205 0.950 . S
C194 H186 0.950 . S
C194 C195 1.386 . S
C194 C196 1.391 . S
C195 C194 1.386 . S
C195 C199 1.393 . S
C196 H188 0.950 . S
C196 C194 1.391 . S
C196 C197 1.400 . S
C197 C196 1.400 . S
C197 C198 1.398 . S
C197 C203 1.491 . S
C198 H189 0.950 . S
C198 C197 1.398 . S
C198 C199 1.391 . S
C199 H187 0.950 . S
C199 C195 1.393 . S
C199 C198 1.391 . S
C200 H190 0.950 . S
C200 C201 1.386 . S
C200 C202 1.391 . S
C201 C200 1.386 . S
C201 C205 1.393 . S
C202 H191 0.950 . S
C202 C200 1.391 . S
C202 C203 1.400 . S
C203 C197 1.491 . S
C203 C202 1.400 . S
C203 C204 1.398 . S
C204 H192 0.950 . S
C204 C203 1.398 . S
C204 C205 1.391 . S
C205 H193 0.950 . S
C205 C201 1.393 . S
C205 C204 1.391 . S
H206 C214 0.950 . S
H207 C219 0.950 . S
H208 C216 0.950 . S
H209 C218 0.950 . S
H210 C220 0.950 . S
H211 C222 0.950 . S
H212 C224 0.950 . S
H213 C225 0.950 . S
C214 H206 0.950 . S
C214 C215 1.386 . S
C214 C216 1.391 . S
C215 C214 1.386 . S
C215 C219 1.393 . S
C216 H208 0.950 . S
C216 C214 1.391 . S
C216 C217 1.400 . S
C217 C216 1.400 . S
C217 C218 1.398 . S
C217 C223 1.491 . S
C218 H209 0.950 . S
C218 C217 1.398 . S
C218 C219 1.391 . S
C219 H207 0.950 . S
C219 C215 1.393 . S
C219 C218 1.391 . S
C220 H210 0.950 . S
C220 C221 1.386 . S
C220 C222 1.391 . S
C221 C220 1.386 . S
C221 C225 1.393 . S
C222 H211 0.950 . S
C222 C220 1.391 . S
C222 C223 1.400 . S
C223 C217 1.491 . S
C223 C222 1.400 . S
C223 C224 1.398 . S
C224 H212 0.950 . S
C224 C223 1.398 . S
C224 C225 1.391 . S
C225 H213 0.950 . S
C225 C221 1.393 . S
C225 C224 1.391 . S
H226 C234 0.950 . S
H227 C239 0.950 . S
H228 C236 0.950 . S
H229 C238 0.950 . S
H230 C240 0.950 . S
H231 C242 0.950 . S
H232 C244 0.950 . S
H233 C245 0.950 . S
C234 H226 0.950 . S
C234 C235 1.386 . S
C234 C236 1.391 . S
C235 C234 1.386 . S
C235 C239 1.393 . S
C236 H228 0.950 . S
C236 C234 1.391 . S
C236 C237 1.400 . S
C237 C236 1.400 . S
C237 C238 1.398 . S
C237 C243 1.491 . S
C238 H229 0.950 . S
C238 C237 1.398 . S
C238 C239 1.391 . S
C239 H227 0.950 . S
C239 C235 1.393 . S
C239 C238 1.391 . S
C240 H230 0.950 . S
C240 C241 1.386 . S
C240 C242 1.391 . S
C241 C240 1.386 . S
C241 C245 1.393 . S
C242 H231 0.950 . S
C242 C240 1.391 . S
C242 C243 1.400 . S
C243 C237 1.491 . S
C243 C242 1.400 . S
C243 C244 1.398 . S
C244 H232 0.950 . S
C244 C243 1.398 . S
C244 C245 1.391 . S
C245 H233 0.950 . S
C245 C241 1.393 . S
C245 C244 1.391 . S
H246 C254 0.950 . S
H247 C259 0.950 . S
H248 C256 0.950 . S
H249 C258 0.950 . S
H250 C260 0.950 . S
H251 C262 0.950 . S
H252 C264 0.950 . S
H253 C265 0.950 . S
C254 H246 0.950 . S
C254 C255 1.386 . S
C254 C256 1.391 . S
C255 C254 1.386 . S
C255 C259 1.393 . S
C256 H248 0.950 . S
C256 C254 1.391 . S
C256 C257 1.400 . S
C257 C256 1.400 . S
C257 C258 1.398 . S
C257 C263 1.491 . S
C258 H249 0.950 . S
C258 C257 1.398 . S
C258 C259 1.391 . S
C259 H247 0.950 . S
C259 C255 1.393 . S
C259 C258 1.391 . S
C260 H250 0.950 . S
C260 C261 1.386 . S
C260 C262 1.391 . S
C261 C260 1.386 . S
C261 C265 1.393 . S
C262 H251 0.950 . S
C262 C260 1.391 . S
C262 C263 1.400 . S
C263 C257 1.491 . S
C263 C262 1.400 . S
C263 C264 1.398 . S
C264 H252 0.950 . S
C264 C263 1.398 . S
C264 C265 1.391 . S
C265 H253 0.950 . S
C265 C261 1.393 . S
C265 C264 1.391 . S
H266 C274 0.950 . S
H267 C279 0.950 . S
H268 C276 0.950 . S
H269 C278 0.950 . S
H270 C280 0.950 . S
H271 C282 0.950 . S
H272 C284 0.950 . S
H273 C285 0.925 1_455 S
C274 H266 0.950 . S
C274 C275 1.386 . S
C274 C276 1.391 . S
C275 C274 1.386 . S
C275 C279 1.393 . S
C276 H268 0.950 . S
C276 C274 1.391 . S
C276 C277 1.400 . S
C277 C276 1.400 . S
C277 C278 1.398 . S
C277 C283 1.491 . S
C278 H269 0.950 . S
C278 C277 1.398 . S
C278 C279 1.391 . S
C279 H267 0.950 . S
C279 C275 1.393 . S
C279 C278 1.391 . S
C280 H270 0.950 . S
C280 C281 1.386 . S
C280 C282 1.391 . S
C281 C280 1.386 . S
C281 C285 1.393 . S
C282 H271 0.950 . S
C282 C280 1.391 . S
C282 C283 1.400 . S
C283 C277 1.491 . S
C283 C282 1.400 . S
C283 C284 1.398 . S
C284 H272 0.950 . S
C284 C283 1.398 . S
C284 C285 1.391 . S
C285 H273 0.925 1_655 S
C285 C281 1.393 . S
C285 C284 1.391 . S
H286 C294 0.950 . S
H287 C299 0.950 . S
H288 C296 0.950 . S
H289 C298 0.950 . S
H290 C300 0.950 . S
H291 C302 0.950 . S
H292 C304 0.950 . S
H293 C305 0.950 . S
C294 H286 0.950 . S
C294 C295 1.386 . S
C294 C296 1.391 . S
C295 C294 1.386 . S
C295 C299 1.393 . S
C296 H288 0.950 . S
C296 C294 1.391 . S
C296 C297 1.400 . S
C297 C296 1.400 . S
C297 C298 1.398 . S
C297 C303 1.491 . S
C298 H289 0.950 . S
C298 C297 1.398 . S
C298 C299 1.391 . S
C299 H287 0.950 . S
C299 C295 1.393 . S
C299 C298 1.391 . S
C300 H290 0.950 . S
C300 C301 1.386 . S
C300 C302 1.391 . S
C301 C300 1.386 . S
C301 C305 1.393 . S
C302 H291 0.950 . S
C302 C300 1.391 . S
C302 C303 1.400 . S
C303 C297 1.491 . S
C303 C302 1.400 . S
C303 C304 1.398 . S
C304 H292 0.950 . S
C304 C303 1.398 . S
C304 C305 1.391 . S
C305 H293 0.950 . S
C305 C301 1.393 . S
C305 C304 1.391 . S
H306 C314 0.950 . S
H307 C319 0.950 . S
H308 C316 0.950 . S
H309 C318 0.950 . S
H310 C320 0.950 1_545 S
H311 C322 0.950 . S
H312 C324 0.950 . S
H313 C325 0.950 . S
C314 H306 0.950 . S
C314 C315 1.386 . S
C314 C316 1.391 . S
C315 C314 1.386 . S
C315 C319 1.393 . S
C316 H308 0.950 . S
C316 C314 1.391 . S
C316 C317 1.400 . S
C317 C316 1.400 . S
C317 C318 1.398 . S
C317 C323 1.491 . S
C318 H309 0.950 . S
C318 C317 1.398 . S
C318 C319 1.391 . S
C319 H307 0.950 . S
C319 C315 1.393 . S
C319 C318 1.391 . S
C320 H310 0.950 1_565 S
C320 C321 1.386 . S
C320 C322 1.391 . S
C321 C320 1.386 . S
C321 C325 1.393 . S
C322 H311 0.950 . S
C322 C320 1.391 . S
C322 C323 1.400 . S
C323 C317 1.491 . S
C323 C322 1.400 . S
C323 C324 1.398 . S
C324 H312 0.950 . S
C324 C323 1.398 . S
C324 C325 1.391 . S
C325 H313 0.950 . S
C325 C321 1.393 . S
C325 C324 1.391 . S
C101 C59 1.279 . S
C95 C43 1.446 . S
C115 C10 1.479 . S
C121 C83 1.283 . S
C135 C21 1.596 . S
C141 C62 1.394 . S
C155 C32 1.590 . S
C161 C80 1.399 . S
C181 C60 1.504 . S
C175 C5 1.504 . S
C201 C82 1.529 . S
C195 C15 1.609 . S
C215 C27 1.595 . S
C221 C61 1.559 . S
C235 C38 1.515 . S
C241 C81 1.454 . S
C261 C79 1.467 . S
C255 C16 1.524 . S
C281 C58 1.464 . S
C275 C26 1.530 . S
C301 C78 1.410 . S
C295 C37 1.455 . S
C315 C4 1.451 1_556 S
C321 C57 1.405 . S
