# Generated by pormake.
# Topology eea, (3,6)-cn, num edge types: 1
# Building blocks:
#     Node 0, Type 0, BuildingBlock: ESEHIV_clean_linker_0, # of connection points: 3
#     Node 1, Type 0, BuildingBlock: ESEHIV_clean_linker_0, # of connection points: 3
#     Node 2, Type 0, BuildingBlock: ESEHIV_clean_linker_0, # of connection points: 3
#     Node 3, Type 0, BuildingBlock: ESEHIV_clean_linker_0, # of connection points: 3
#     Node 4, Type 0, BuildingBlock: ESEHIV_clean_linker_0, # of connection points: 3
#     Node 5, Type 0, BuildingBlock: ESEHIV_clean_linker_0, # of connection points: 3
#     Node 6, Type 0, BuildingBlock: ESEHIV_clean_linker_0, # of connection points: 3
#     Node 7, Type 0, BuildingBlock: ESEHIV_clean_linker_0, # of connection points: 3
#     Node 8, Type 0, BuildingBlock: ESEHIV_clean_linker_0, # of connection points: 3
#     Node 9, Type 0, BuildingBlock: ESEHIV_clean_linker_0, # of connection points: 3
#     Node 10, Type 0, BuildingBlock: ESEHIV_clean_linker_0, # of connection points: 3
#     Node 11, Type 0, BuildingBlock: ESEHIV_clean_linker_0, # of connection points: 3
#     Node 12, Type 0, BuildingBlock: ESEHIV_clean_linker_0, # of connection points: 3
#     Node 13, Type 0, BuildingBlock: ESEHIV_clean_linker_0, # of connection points: 3
#     Node 14, Type 0, BuildingBlock: ESEHIV_clean_linker_0, # of connection points: 3
#     Node 15, Type 0, BuildingBlock: ESEHIV_clean_linker_0, # of connection points: 3
#     Node 16, Type 0, BuildingBlock: ESEHIV_clean_linker_0, # of connection points: 3
#     Node 17, Type 0, BuildingBlock: ESEHIV_clean_linker_0, # of connection points: 3
#     Node 18, Type 1, BuildingBlock: LEVNOQ01_clean_sbu_1, # of connection points: 6
#     Node 19, Type 1, BuildingBlock: LEVNOQ01_clean_sbu_1, # of connection points: 6
#     Node 20, Type 1, BuildingBlock: LEVNOQ01_clean_sbu_1, # of connection points: 6
#     Node 21, Type 1, BuildingBlock: LEVNOQ01_clean_sbu_1, # of connection points: 6
#     Node 22, Type 1, BuildingBlock: LEVNOQ01_clean_sbu_1, # of connection points: 6
#     Node 23, Type 1, BuildingBlock: LEVNOQ01_clean_sbu_1, # of connection points: 6
#     Node 24, Type 1, BuildingBlock: LEVNOQ01_clean_sbu_1, # of connection points: 6
#     Node 25, Type 1, BuildingBlock: LEVNOQ01_clean_sbu_1, # of connection points: 6
#     Node 26, Type 1, BuildingBlock: LEVNOQ01_clean_sbu_1, # of connection points: 6
#     Edge 27, Type (0, 1), BuildingBlock: UVAHIK_clean_linker_0, # of connection points: 2
#     Edge 28, Type (0, 1), BuildingBlock: UVAHIK_clean_linker_0, # of connection points: 2
#     Edge 29, Type (0, 1), BuildingBlock: UVAHIK_clean_linker_0, # of connection points: 2
#     Edge 30, Type (0, 1), BuildingBlock: UVAHIK_clean_linker_0, # of connection points: 2
#     Edge 31, Type (0, 1), BuildingBlock: UVAHIK_clean_linker_0, # of connection points: 2
#     Edge 32, Type (0, 1), BuildingBlock: UVAHIK_clean_linker_0, # of connection points: 2
#     Edge 33, Type (0, 1), BuildingBlock: UVAHIK_clean_linker_0, # of connection points: 2
#     Edge 34, Type (0, 1), BuildingBlock: UVAHIK_clean_linker_0, # of connection points: 2
#     Edge 35, Type (0, 1), BuildingBlock: UVAHIK_clean_linker_0, # of connection points: 2
#     Edge 36, Type (0, 1), BuildingBlock: UVAHIK_clean_linker_0, # of connection points: 2
#     Edge 37, Type (0, 1), BuildingBlock: UVAHIK_clean_linker_0, # of connection points: 2
#     Edge 38, Type (0, 1), BuildingBlock: UVAHIK_clean_linker_0, # of connection points: 2
#     Edge 39, Type (0, 1), BuildingBlock: UVAHIK_clean_linker_0, # of connection points: 2
#     Edge 40, Type (0, 1), BuildingBlock: UVAHIK_clean_linker_0, # of connection points: 2
#     Edge 41, Type (0, 1), BuildingBlock: UVAHIK_clean_linker_0, # of connection points: 2
#     Edge 42, Type (0, 1), BuildingBlock: UVAHIK_clean_linker_0, # of connection points: 2
#     Edge 43, Type (0, 1), BuildingBlock: UVAHIK_clean_linker_0, # of connection points: 2
#     Edge 44, Type (0, 1), BuildingBlock: UVAHIK_clean_linker_0, # of connection points: 2
#     Edge 45, Type (0, 1), BuildingBlock: UVAHIK_clean_linker_0, # of connection points: 2
#     Edge 46, Type (0, 1), BuildingBlock: UVAHIK_clean_linker_0, # of connection points: 2
#     Edge 47, Type (0, 1), BuildingBlock: UVAHIK_clean_linker_0, # of connection points: 2
#     Edge 48, Type (0, 1), BuildingBlock: UVAHIK_clean_linker_0, # of connection points: 2
#     Edge 49, Type (0, 1), BuildingBlock: UVAHIK_clean_linker_0, # of connection points: 2
#     Edge 50, Type (0, 1), BuildingBlock: UVAHIK_clean_linker_0, # of connection points: 2
#     Edge 51, Type (0, 1), BuildingBlock: UVAHIK_clean_linker_0, # of connection points: 2
#     Edge 52, Type (0, 1), BuildingBlock: UVAHIK_clean_linker_0, # of connection points: 2
#     Edge 53, Type (0, 1), BuildingBlock: UVAHIK_clean_linker_0, # of connection points: 2
#     Edge 54, Type (0, 1), BuildingBlock: UVAHIK_clean_linker_0, # of connection points: 2
#     Edge 55, Type (0, 1), BuildingBlock: UVAHIK_clean_linker_0, # of connection points: 2
#     Edge 56, Type (0, 1), BuildingBlock: UVAHIK_clean_linker_0, # of connection points: 2
#     Edge 57, Type (0, 1), BuildingBlock: UVAHIK_clean_linker_0, # of connection points: 2
#     Edge 58, Type (0, 1), BuildingBlock: UVAHIK_clean_linker_0, # of connection points: 2
#     Edge 59, Type (0, 1), BuildingBlock: UVAHIK_clean_linker_0, # of connection points: 2
#     Edge 60, Type (0, 1), BuildingBlock: UVAHIK_clean_linker_0, # of connection points: 2
#     Edge 61, Type (0, 1), BuildingBlock: UVAHIK_clean_linker_0, # of connection points: 2
#     Edge 62, Type (0, 1), BuildingBlock: UVAHIK_clean_linker_0, # of connection points: 2
#     Edge 63, Type (0, 1), BuildingBlock: UVAHIK_clean_linker_0, # of connection points: 2
#     Edge 64, Type (0, 1), BuildingBlock: UVAHIK_clean_linker_0, # of connection points: 2
#     Edge 65, Type (0, 1), BuildingBlock: UVAHIK_clean_linker_0, # of connection points: 2
#     Edge 66, Type (0, 1), BuildingBlock: UVAHIK_clean_linker_0, # of connection points: 2
#     Edge 67, Type (0, 1), BuildingBlock: UVAHIK_clean_linker_0, # of connection points: 2
#     Edge 68, Type (0, 1), BuildingBlock: UVAHIK_clean_linker_0, # of connection points: 2
#     Edge 69, Type (0, 1), BuildingBlock: UVAHIK_clean_linker_0, # of connection points: 2
#     Edge 70, Type (0, 1), BuildingBlock: UVAHIK_clean_linker_0, # of connection points: 2
#     Edge 71, Type (0, 1), BuildingBlock: UVAHIK_clean_linker_0, # of connection points: 2
#     Edge 72, Type (0, 1), BuildingBlock: UVAHIK_clean_linker_0, # of connection points: 2
#     Edge 73, Type (0, 1), BuildingBlock: UVAHIK_clean_linker_0, # of connection points: 2
#     Edge 74, Type (0, 1), BuildingBlock: UVAHIK_clean_linker_0, # of connection points: 2
#     Edge 75, Type (0, 1), BuildingBlock: UVAHIK_clean_linker_0, # of connection points: 2
#     Edge 76, Type (0, 1), BuildingBlock: UVAHIK_clean_linker_0, # of connection points: 2
#     Edge 77, Type (0, 1), BuildingBlock: UVAHIK_clean_linker_0, # of connection points: 2
#     Edge 78, Type (0, 1), BuildingBlock: UVAHIK_clean_linker_0, # of connection points: 2
#     Edge 79, Type (0, 1), BuildingBlock: UVAHIK_clean_linker_0, # of connection points: 2
#     Edge 80, Type (0, 1), BuildingBlock: UVAHIK_clean_linker_0, # of connection points: 2
# Relax obj value: 0.095
# Max RMSD: 0.182
# Mean RMSD: 0.091
data_MOF--net-eea--node1-LEVNOQ01_clean_sbu_1--node2-ESEHIV_clean_linker_0--edge1-UVAHIK_clean_linker_0
_symmetry_space_group_name_H-M    P1
_symmetry_Int_Tables_number       1
_symmetry_cell_setting            triclinic
loop_
_symmetry_equiv_pos_as_xyz
'x, y, z'
_cell_length_a     66.681334
_cell_length_b     65.995831
_cell_length_c     68.13596
_cell_angle_alpha  90.34378
_cell_angle_beta   90.394568
_cell_angle_gamma 119.98247
loop_
_atom_site_label
_atom_site_type_symbol
_atom_site_fract_x
_atom_site_fract_y
_atom_site_fract_z
_atom_type_partial_charge
H0 H 0.27183 0.16191 0.42616 0.0
H1 H 0.2689 0.09653 0.41398 0.0
H2 H 0.23386 0.12018 0.37577 0.0
C3 C 0.26719 0.14719 0.41637 0.0
C4 C 0.25334 0.14405 0.39964 0.0
C5 C 0.27275 0.13004 0.42179 0.0
C6 C 0.26524 0.11019 0.40978 0.0
C7 C 0.25072 0.10635 0.39362 0.0
C8 C 0.24545 0.12357 0.38814 0.0
H9 H 0.82248 0.09492 0.41701 0.0
H10 H 0.88136 0.16364 0.42111 0.0
H11 H 0.87514 0.11792 0.37296 0.0
C12 C 0.83809 0.10867 0.41041 0.0
C13 C 0.84671 0.10411 0.39324 0.0
C14 C 0.85063 0.12995 0.42042 0.0
C15 C 0.87167 0.14735 0.41296 0.0
C16 C 0.88077 0.1433 0.39573 0.0
C17 C 0.868 0.12163 0.38582 0.0
H18 H 0.82072 0.71257 0.41121 0.0
H19 H 0.88543 0.71553 0.42278 0.0
H20 H 0.87397 0.74021 0.3677 0.0
C21 C 0.83761 0.71624 0.40621 0.0
C22 C 0.8453 0.72584 0.38757 0.0
C23 C 0.852 0.71255 0.41893 0.0
C24 C 0.87416 0.71806 0.41279 0.0
C25 C 0.88235 0.7282 0.39433 0.0
C26 C 0.86767 0.73179 0.38171 0.0
H27 H 0.11292 0.28937 0.57979 0.0
H28 H 0.17913 0.29541 0.5912 0.0
H29 H 0.12962 0.27512 0.63737 0.0
C30 C 0.1252 0.28894 0.59003 0.0
C31 C 0.11877 0.28235 0.60962 0.0
C32 C 0.14707 0.29393 0.58334 0.0
C33 C 0.1628 0.29296 0.59656 0.0
C34 C 0.15647 0.28609 0.61604 0.0
C35 C 0.13472 0.28136 0.62254 0.0
H36 H 0.71718 0.89202 0.58127 0.0
H37 H 0.71308 0.8255 0.5749 0.0
H38 H 0.74583 0.86831 0.62629 0.0
C39 C 0.7197 0.87839 0.58758 0.0
C40 C 0.73174 0.88241 0.60543 0.0
C41 C 0.71309 0.85804 0.57661 0.0
C42 C 0.71783 0.84099 0.58374 0.0
C43 C 0.72932 0.84431 0.60192 0.0
C44 C 0.73608 0.86506 0.61271 0.0
H45 H 0.10934 0.8265 0.57379 0.0
H46 H 0.17875 0.88497 0.57601 0.0
H47 H 0.13259 0.87246 0.62407 0.0
C48 C 0.12317 0.84117 0.58175 0.0
C49 C 0.11908 0.84714 0.60053 0.0
C50 C 0.14486 0.85459 0.57299 0.0
C51 C 0.16229 0.87413 0.58309 0.0
C52 C 0.15792 0.88117 0.60127 0.0
C53 C 0.1365 0.86703 0.61026 0.0
H54 H 0.94264 0.49511 0.76419 0.0
H55 H 0.94643 0.43388 0.74876 0.0
H56 H 0.90529 0.45305 0.71378 0.0
C57 C 0.93911 0.48112 0.7539 0.0
C58 C 0.92451 0.47732 0.73754 0.0
C59 C 0.94694 0.4654 0.75828 0.0
C60 C 0.94092 0.44643 0.74552 0.0
C61 C 0.92491 0.4413 0.73031 0.0
C62 C 0.91765 0.45727 0.72569 0.0
H63 H 0.49209 0.43998 0.75976 0.0
H64 H 0.55575 0.50531 0.75636 0.0
H65 H 0.54144 0.44975 0.71531 0.0
C66 C 0.50793 0.45143 0.75205 0.0
C67 C 0.51467 0.44243 0.73635 0.0
C68 C 0.52271 0.474 0.75943 0.0
C69 C 0.54388 0.48818 0.7502 0.0
C70 C 0.55057 0.4797 0.734 0.0
C71 C 0.53567 0.45692 0.72688 0.0
H72 H 0.48413 0.04473 0.74693 0.0
H73 H 0.54554 0.03907 0.74903 0.0
H74 H 0.53444 0.07474 0.70124 0.0
C75 C 0.50007 0.04767 0.74026 0.0
C76 C 0.50756 0.06048 0.72287 0.0
C77 C 0.51367 0.03998 0.74985 0.0
C78 C 0.5344 0.04397 0.74123 0.0
C79 C 0.54195 0.05646 0.72362 0.0
C80 C 0.52822 0.06429 0.71437 0.0
H81 H 0.77595 0.62194 0.91363 0.0
H82 H 0.84297 0.63006 0.92524 0.0
H83 H 0.79158 0.60408 0.97018 0.0
C84 C 0.78814 0.62121 0.9238 0.0
C85 C 0.78116 0.61289 0.94294 0.0
C86 C 0.81048 0.6276 0.91738 0.0
C87 C 0.82618 0.62641 0.93047 0.0
C88 C 0.81936 0.61786 0.94952 0.0
C89 C 0.79704 0.61157 0.95574 0.0
H90 H 0.38809 0.22747 0.90962 0.0
H91 H 0.38605 0.16159 0.9144 0.0
H92 H 0.42529 0.21697 0.95632 0.0
C93 C 0.39225 0.21591 0.91771 0.0
C94 C 0.40712 0.22464 0.93403 0.0
C95 C 0.38454 0.19321 0.9106 0.0
C96 C 0.39132 0.17885 0.92032 0.0
C97 C 0.40559 0.1871 0.9372 0.0
C98 C 0.41311 0.20993 0.94411 0.0
H99 H 0.7773 0.16776 0.91215 0.0
H100 H 0.84812 0.22262 0.9163 0.0
H101 H 0.80344 0.20753 0.9658 0.0
C102 C 0.79169 0.18064 0.92096 0.0
C103 C 0.78811 0.18488 0.94056 0.0
C104 C 0.81318 0.19461 0.91208 0.0
C105 C 0.83149 0.21205 0.9232 0.0
C106 C 0.82793 0.21767 0.94225 0.0
C107 C 0.80643 0.20337 0.95111 0.0
H108 H 0.60389 0.83524 0.09773 0.0
H109 H 0.61644 0.77826 0.08846 0.0
H110 H 0.57449 0.79012 0.04716 0.0
C111 C 0.60248 0.82123 0.08837 0.0
C112 C 0.58887 0.81508 0.07115 0.0
C113 C 0.6123 0.80791 0.09476 0.0
C114 C 0.60952 0.78904 0.08321 0.0
C115 C 0.5955 0.78215 0.06626 0.0
C116 C 0.58576 0.79566 0.05999 0.0
H117 H 0.16537 0.77085 0.08726 0.0
H118 H 0.22966 0.83576 0.08829 0.0
H119 H 0.21427 0.78648 0.04092 0.0
C120 C 0.1812 0.78306 0.0799 0.0
C121 C 0.1878 0.77609 0.06282 0.0
C122 C 0.19606 0.80457 0.08898 0.0
C123 C 0.21766 0.81964 0.08072 0.0
C124 C 0.22405 0.81339 0.06305 0.0
C125 C 0.20889 0.79177 0.05404 0.0
H126 H 0.15235 0.38056 0.0902 0.0
H127 H 0.21562 0.37835 0.08884 0.0
H128 H 0.19696 0.40714 0.04029 0.0
C129 C 0.16756 0.38321 0.08233 0.0
C130 C 0.17263 0.39429 0.06406 0.0
C131 C 0.18308 0.3777 0.09146 0.0
C132 C 0.20319 0.38189 0.0816 0.0
C133 C 0.20792 0.39201 0.06288 0.0
C134 C 0.1926 0.39816 0.05422 0.0
H135 H 0.44535 0.96343 0.25766 0.0
H136 H 0.51088 0.96545 0.25727 0.0
H137 H 0.46612 0.93719 0.30666 0.0
C138 C 0.45828 0.96068 0.26495 0.0
C139 C 0.4534 0.94999 0.28343 0.0
C140 C 0.479 0.96637 0.25528 0.0
C141 C 0.49544 0.96244 0.26492 0.0
C142 C 0.4909 0.9521 0.28351 0.0
C143 C 0.47006 0.9463 0.29279 0.0
H144 H 0.05509 0.55622 0.24793 0.0
H145 H 0.05896 0.4943 0.23667 0.0
H146 H 0.08769 0.53362 0.29027 0.0
C147 C 0.05927 0.54324 0.25308 0.0
C148 C 0.07142 0.54699 0.27086 0.0
C149 C 0.05477 0.52438 0.24071 0.0
C150 C 0.06195 0.50859 0.24645 0.0
C151 C 0.07351 0.51156 0.26451 0.0
C152 C 0.07797 0.5307 0.27672 0.0
H153 H 0.45159 0.49445 0.25775 0.0
H154 H 0.50827 0.56421 0.25173 0.0
H155 H 0.4652 0.54619 0.30266 0.0
C156 C 0.46249 0.51172 0.26409 0.0
C157 C 0.45658 0.51786 0.28207 0.0
C158 C 0.48138 0.5283 0.25336 0.0
C159 C 0.49466 0.55111 0.26073 0.0
C160 C 0.48862 0.55787 0.27824 0.0
C161 C 0.46991 0.54101 0.28912 0.0
O162 O 0.5183 0.97908 0.95418 0.0
Mg163 Mg 0.53878 0.98298 0.97928 0.0
O164 O 0.49872 0.99535 0.96657 0.0
Mg165 Mg 0.50264 0.99732 0.00091 0.0
O166 O 0.51624 0.97256 0.00145 0.0
O167 O 0.53541 0.95423 0.99506 0.0
O168 O 0.50636 -0.00135 0.03487 0.0
O169 O 0.46671 0.96078 0.00153 0.0
Mg170 Mg 0.4671 0.9957 0.01029 0.0
O171 O 0.49186 0.02732 0.00036 0.0
O172 O 0.46898 0.98277 0.0385 0.0
O173 O 0.4444 0.9724 0.98867 0.0
O174 O 0.45955 0.02092 0.01596 0.0
C175 C 0.56006 0.03367 0.9947 0.0
C176 C 0.50438 0.98682 0.95211 0.0
C177 C 0.52077 0.95638 0.00582 0.0
C178 C 0.48873 0.98903 0.04584 0.0
C179 C 0.44758 0.95575 0.99318 0.0
C180 C 0.47838 0.0348 0.00698 0.0
O181 O 0.5635 0.01783 0.98754 0.0
O182 O 0.53991 0.02985 -0.00067 0.0
O183 O 0.01617 0.5133 0.95072 0.0
Mg184 Mg 0.01788 0.54267 0.96473 0.0
O185 O 0.99157 0.48703 0.97179 0.0
Mg186 Mg -0.00274 0.50544 0.00257 0.0
O187 O 0.02587 0.53898 0.99219 0.0
O188 O 0.0497 0.5704 0.97616 0.0
O189 O 0.0065 0.52727 0.03252 0.0
O190 O 0.0238 0.4949 0.00919 0.0
Mg191 Mg 0.98305 0.48456 0.03664 0.0
O192 O 0.96673 0.46779 0.01126 0.0
O193 O 0.97375 0.50876 0.04741 0.0
O194 O 0.01696 0.48809 0.0407 0.0
O195 O 0.95737 0.45163 0.04115 0.0
C196 C 0.96937 0.53001 0.9818 0.0
C197 C 0.00201 0.49229 0.95532 0.0
C198 C 0.04468 0.55867 0.99214 0.0
C199 C 0.99329 0.52683 0.04612 0.0
C200 C 0.02929 0.49044 0.02579 0.0
C201 C 0.95396 0.45002 0.02241 0.0
O202 O 0.98504 0.54071 0.96903 0.0
O203 O 0.97096 0.51714 0.99496 0.0
O204 O 0.4946 0.47989 0.05654 0.0
Mg205 Mg 0.47355 0.45165 0.03748 0.0
O206 O 0.50168 0.50876 0.03586 0.0
Mg207 Mg 0.4939 0.49387 0.00368 0.0
O208 O 0.49094 0.45985 0.01229 0.0
O209 O 0.48348 0.42764 0.0275 0.0
O210 O 0.4859 0.47515 0.97215 0.0
O211 O 0.53217 0.50734 5e-05 0.0
Mg212 Mg 0.50022 0.51602 0.97257 0.0
O213 O 0.49921 0.53212 0.99766 0.0
O214 O 0.46777 0.49167 0.95991 0.0
O215 O 0.53131 0.5138 0.96855 0.0
O216 O 0.50686 0.54876 0.96788 0.0
C217 C 0.43813 0.46178 0.01601 0.0
C218 C 0.50257 0.50143 0.053 0.0
C219 C 0.49159 0.44074 0.01235 0.0
C220 C 0.47242 0.47544 0.95897 0.0
C221 C 0.5419 0.51204 0.98345 0.0
C222 C 0.50432 0.55003 0.98651 0.0
O223 O 0.44172 0.44883 0.02763 0.0
O224 O 0.45453 0.47919 0.00726 0.0
O225 O 0.15226 0.309 0.28587 0.0
Mg226 Mg 0.17638 0.30298 0.30117 0.0
O227 O 0.15685 0.33748 0.30621 0.0
Mg228 Mg 0.16851 0.33213 0.33744 0.0
O229 O 0.16648 0.29802 0.32929 0.0
O230 O 0.16774 0.27007 0.31255 0.0
O231 O 0.17993 0.32619 0.36875 0.0
O232 O 0.13039 0.31172 0.34666 0.0
Mg233 Mg 0.16214 0.35974 0.37393 0.0
O234 O 0.17016 0.36648 0.34527 0.0
O235 O 0.18839 0.3564 0.38816 0.0
O236 O 0.12757 0.32972 0.37342 0.0
O237 O 0.16875 0.39258 0.36484 0.0
C238 C 0.21949 0.34957 0.31562 0.0
C239 C 0.14992 0.32651 0.2898 0.0
C240 C 0.16524 0.27792 0.32917 0.0
C241 C 0.18862 0.33767 0.38471 0.0
C242 C 0.11859 0.31313 0.36074 0.0
C243 C 0.1712 0.38644 0.34743 0.0
O244 O 0.2113 0.33196 0.30393 0.0
O245 O 0.2068 0.35238 0.32808 0.0
O246 O 0.68473 0.83246 0.28551 0.0
Mg247 Mg 0.68843 0.86307 0.29869 0.0
O248 O 0.65646 0.80981 0.30565 0.0
Mg249 Mg 0.66133 0.82913 0.3359 0.0
O250 O 0.69453 0.86085 0.32741 0.0
O251 O 0.72092 0.88899 0.30938 0.0
O252 O 0.66538 0.84793 0.36631 0.0
O253 O 0.68245 0.81278 0.34684 0.0
Mg254 Mg 0.63369 0.7913 0.37224 0.0
O255 O 0.62839 0.79755 0.34445 0.0
O256 O 0.64003 0.82203 0.38722 0.0
O257 O 0.66287 0.78588 0.36945 0.0
O258 O 0.60085 0.76767 0.3599 0.0
C259 C 0.64153 0.85881 0.31068 0.0
C260 C 0.66766 0.81271 0.28978 0.0
C261 C 0.7145 0.87941 0.32631 0.0
C262 C 0.65487 0.84289 0.38276 0.0
C263 C 0.68057 0.797 0.35862 0.0
C264 C 0.60822 0.77926 0.3439 0.0
O265 O 0.65826 0.86719 0.29861 0.0
O266 O 0.64038 0.84556 0.32469 0.0
O267 O 0.18861 0.82931 0.37716 0.0
Mg268 Mg 0.15571 0.8039 0.36664 0.0
O269 O 0.18135 0.85261 0.35963 0.0
Mg270 Mg 0.16776 0.83335 0.32894 0.0
O271 O 0.15915 0.79687 0.33843 0.0
O272 O 0.15005 0.77041 0.36177 0.0
O273 O 0.15362 0.8156 0.2979 0.0
O274 O 0.20459 0.84082 0.32259 0.0
Mg275 Mg 0.1909 0.87082 0.29198 0.0
O276 O 0.17621 0.86858 0.31826 0.0
O277 O 0.16401 0.84368 0.27562 0.0
O278 O 0.22002 0.86645 0.29833 0.0
O279 O 0.18848 0.90025 0.30056 0.0
C280 C 0.12041 0.81883 0.35265 0.0
C281 C 0.19094 0.84929 0.37459 0.0
C282 C 0.15429 0.77614 0.3436 0.0
C283 C 0.15243 0.82238 0.28057 0.0
C284 C 0.22133 0.85324 0.31122 0.0
C285 C 0.17893 0.88912 0.31638 0.0
O286 O 0.12766 0.81133 0.36666 0.0
O287 O 0.1314 0.82589 0.3366 0.0
O288 O 0.8416 0.64587 0.61734 0.0
Mg289 Mg 0.86342 0.64371 0.63866 0.0
O290 O 0.82822 0.66486 0.6353 0.0
Mg291 Mg 0.83657 0.66234 0.66861 0.0
O292 O 0.8443 0.63321 0.66305 0.0
O293 O 0.8572 0.61151 0.64962 0.0
O294 O 0.84536 0.65588 0.70133 0.0
O295 O 0.79862 0.63415 0.67234 0.0
Mg296 Mg 0.82714 0.67859 0.69803 0.0
O297 O 0.82738 0.69323 0.6718 0.0
O298 O 0.85861 0.69055 0.71378 0.0
O299 O 0.79786 0.64435 0.70297 0.0
O300 O 0.81728 0.70257 0.70047 0.0
C301 C 0.89345 0.6923 0.65783 0.0
C302 C 0.83014 0.65643 0.61889 0.0
C303 C 0.84671 0.61505 0.66389 0.0
C304 C 0.85646 0.67056 0.71504 0.0
C305 C 0.78843 0.63005 0.68874 0.0
C306 C 0.8204 0.70546 0.68181 0.0
O307 O 0.89308 0.67572 0.6479 0.0
O308 O 0.87514 0.69085 0.66504 0.0
O309 O 0.35292 0.18827 0.61551 0.0
Mg310 Mg 0.35224 0.21433 0.63302 0.0
O311 O 0.32921 0.15839 0.63433 0.0
Mg312 Mg 0.33262 0.17195 0.66678 0.0
O313 O 0.36013 0.20768 0.65964 0.0
O314 O 0.38268 0.24177 0.64655 0.0
O315 O 0.33971 0.18968 0.6987 0.0
O316 O 0.36083 0.16304 0.67123 0.0
Mg317 Mg 0.31874 0.1474 0.69752 0.0
O318 O 0.30296 0.13218 0.67155 0.0
O319 O 0.30621 0.16749 0.71146 0.0
O320 O 0.35331 0.15286 0.70207 0.0
O321 O 0.29525 0.11344 0.70037 0.0
C322 C 0.30242 0.19589 0.64975 0.0
C323 C 0.33976 0.16648 0.61813 0.0
C324 C 0.37804 0.22801 0.66123 0.0
C325 C 0.32521 0.1863 0.71213 0.0
C326 C 0.36639 0.15753 0.68731 0.0
C327 C 0.29139 0.11322 0.68179 0.0
O328 O 0.31822 0.20911 0.63786 0.0
O329 O 0.30467 0.18204 0.66141 0.0
O330 O 0.85753 0.16477 0.70583 0.0
Mg331 Mg 0.82524 0.13561 0.69829 0.0
O332 O 0.84047 0.18306 0.69478 0.0
Mg333 Mg 0.82993 0.16642 0.66281 0.0
O334 O 0.82805 0.13159 0.66933 0.0
O335 O 0.82526 0.10521 0.69089 0.0
O336 O 0.8174 0.14966 0.63119 0.0
O337 O 0.868 0.18112 0.65526 0.0
Mg338 Mg 0.84456 0.20452 0.62743 0.0
O339 O 0.83183 0.20044 0.65494 0.0
O340 O 0.81907 0.17664 0.61084 0.0
O341 O 0.87744 0.2061 0.63055 0.0
O342 O 0.8385 0.23101 0.63716 0.0
C343 C 0.78265 0.14164 0.68761 0.0
C344 C 0.85269 0.18076 0.70809 0.0
C345 C 0.82698 0.11191 0.67296 0.0
C346 C 0.81257 0.15551 0.61471 0.0
C347 C 0.88265 0.19515 0.64305 0.0
C348 C 0.83198 0.21996 0.6535 0.0
O349 O 0.79287 0.13602 0.70061 0.0
O350 O 0.79254 0.15142 0.67165 0.0
C351 C 0.26686 0.83253 0.06727 0.0
C352 C 0.24771 0.8275 0.0553 0.0
C353 C 0.28904 0.84282 0.05937 0.0
C354 C 0.31948 0.85385 0.01149 0.0
H355 H 0.37236 0.89806 0.04274 0.0
C356 C 0.40733 0.92633 0.98307 0.0
C357 C 0.42721 0.93207 0.99439 0.0
C358 C 0.38582 0.90776 0.98845 0.0
C359 C 0.35782 0.88536 0.03397 0.0
H360 H 0.23658 0.82989 0.02593 0.0
H361 H 0.27549 0.84904 0.01223 0.0
H362 H 0.33398 0.87979 0.05684 0.0
H363 H 0.44073 0.92118 0.01865 0.0
H364 H 0.403 0.88895 0.02823 0.0
H365 H 0.34355 0.86082 0.9882 0.0
C366 C 0.2734 0.84431 0.02757 0.0
C367 C 0.33575 0.87488 0.04203 0.0
C368 C 0.25116 0.83364 0.03543 0.0
C369 C 0.42568 0.91724 0.00972 0.0
C370 C 0.40409 0.89889 0.01529 0.0
C371 C 0.34159 0.86468 0.0033 0.0
C372 C 0.2926 0.84864 0.03936 0.0
C373 C 0.31622 0.85916 0.03086 0.0
C374 C 0.38386 0.89485 0.00534 0.0
C375 C 0.36092 0.88067 0.01444 0.0
H376 H 0.26455 0.82753 0.08257 0.0
H377 H 0.30326 0.84551 0.06887 0.0
H378 H 0.30495 0.84145 0.00256 0.0
H379 H 0.40809 0.93738 0.97106 0.0
H380 H 0.37051 0.90499 0.9805 0.0
C381 C 0.15403 0.40506 0.03688 0.0
C382 C 0.15931 0.40526 0.05692 0.0
C383 C 0.14327 0.41736 0.03029 0.0
C384 C 0.13276 0.46518 0.04568 0.0
H385 H 0.07928 0.43515 0.01091 0.0
C386 C 0.05786 0.48448 0.04533 0.0
C387 C 0.04904 0.48631 0.02708 0.0
C388 C 0.07523 0.47856 0.04624 0.0
C389 C 0.09445 0.44391 0.02035 0.0
H390 H 0.15762 0.41864 0.08569 0.0
H391 H 0.13821 0.43914 0.07438 0.0
H392 H 0.10216 0.41624 0.01716 0.0
H393 H 0.05208 0.48423 0.99546 0.0
H394 H 0.082 0.47337 0.99722 0.0
H395 H 0.1242 0.49218 0.04971 0.0
C396 C 0.14269 0.4299 0.06367 0.0
C397 C 0.10756 0.43313 0.02389 0.0
C398 C 0.1534 0.41772 0.07021 0.0
C399 C 0.05846 0.4829 0.00978 0.0
C400 C 0.07554 0.47664 0.01072 0.0
C401 C 0.11952 0.4758 0.04231 0.0
C402 C 0.13778 0.43015 0.04364 0.0
C403 C 0.12635 0.44328 0.03714 0.0
C404 C 0.0838 0.47408 0.02895 0.0
C405 C 0.09987 0.46489 0.0301 0.0
H406 H 0.15838 0.39556 0.02632 0.0
H407 H 0.13962 0.41721 0.01476 0.0
H408 H 0.14754 0.4737 0.05556 0.0
H409 H 0.05103 0.48714 0.05887 0.0
H410 H 0.08127 0.4765 0.06049 0.0
C411 C 0.58552 0.75501 0.03701 0.0
C412 C 0.58763 0.75869 0.05744 0.0
C413 C 0.57631 0.73238 0.02916 0.0
C414 C 0.53836 0.67056 0.04257 0.0
H415 H 0.56457 0.65727 0.99705 0.0
C416 C 0.51184 0.57666 0.01555 0.0
C417 C 0.50966 0.57285 0.99514 0.0
C418 C 0.5202 0.59921 0.02331 0.0
C419 C 0.55691 0.66077 0.00966 0.0
H420 H 0.58157 0.74143 0.0856 0.0
H421 H 0.56617 0.70237 0.07195 0.0
H422 H 0.58237 0.69724 0.00991 0.0
H423 H 0.51334 0.58951 0.96694 0.0
H424 H 0.52772 0.62855 0.98048 0.0
H425 H 0.51301 0.63404 0.04239 0.0
C426 C 0.57143 0.71683 0.06197 0.0
C427 C 0.5671 0.68365 0.017 0.0
C428 C 0.58062 0.73933 0.06978 0.0
C429 C 0.51498 0.59181 0.98274 0.0
C430 C 0.52339 0.61426 0.99047 0.0
C431 C 0.52821 0.64767 0.03526 0.0
C432 C 0.56887 0.71302 0.0416 0.0
C433 C 0.55795 0.6888 0.03355 0.0
C434 C 0.5266 0.61831 0.01078 0.0
C435 C 0.53735 0.64255 0.0187 0.0
H436 H 0.59076 0.76959 0.02716 0.0
H437 H 0.57444 0.72997 0.01338 0.0
H438 H 0.53068 0.67401 0.05518 0.0
H439 H 0.50796 0.56244 0.02549 0.0
H440 H 0.52253 0.60183 0.03905 0.0
C441 C 0.8478 0.24428 0.97151 0.0
C442 C 0.84468 0.24087 0.95106 0.0
C443 C 0.86037 0.26692 0.97951 0.0
C444 C 0.87704 0.32751 0.96625 0.0
H445 H 0.91646 0.34468 0.01255 0.0
C446 C 0.93689 0.423 0.99334 0.0
C447 C 0.93763 0.42691 0.0137 0.0
C448 C 0.92441 0.40025 0.98564 0.0
C449 C 0.90531 0.34003 -0.00031 0.0
H450 H 0.85344 0.25891 0.92306 0.0
H451 H 0.87613 0.29764 0.93689 0.0
H452 H 0.89879 0.30478 -0.00054 0.0
H453 H 0.92459 0.4102 0.04178 0.0
H454 H 0.90295 0.37071 0.02829 0.0
H455 H 0.88386 0.36286 0.96634 0.0
C456 C 0.86834 0.28298 0.94681 0.0
C457 C 0.8952 0.3172 0.99222 0.0
C458 C 0.85564 0.26054 0.93885 0.0
C459 C 0.9246 0.40781 0.02604 0.0
C460 C 0.91231 0.38514 0.01836 0.0
C461 C 0.88729 0.35034 0.97362 0.0
C462 C 0.87015 0.28654 0.9672 0.0
C463 C 0.88101 0.31071 0.97536 0.0
C464 C 0.9126 0.38107 0.99818 0.0
C465 C 0.9015 0.35681 0.99042 0.0
H466 H 0.8399 0.22956 0.98135 0.0
H467 H 0.86152 0.26907 0.99532 0.0
H468 H 0.86576 0.32296 0.9535 0.0
H469 H 0.94676 0.43733 0.98344 0.0
H470 H 0.92489 0.39757 0.96998 0.0
C471 C 0.73877 0.58823 0.9355 0.0
C472 C 0.75659 0.60248 0.94879 0.0
C473 C 0.71581 0.57611 0.94156 0.0
C474 C 0.67663 0.57432 0.98039 0.0
H475 H 0.63604 0.51284 0.95772 0.0
C476 C 0.57986 0.52169 -0.00131 0.0
C477 C 0.56585 0.51665 0.9818 0.0
C478 C 0.60325 0.52854 0.99704 0.0
C479 C 0.64725 0.52992 0.96424 0.0
H480 H 0.76411 0.61583 0.97872 0.0
H481 H 0.72405 0.59409 0.98946 0.0
H482 H 0.67734 0.53302 0.95047 0.0
H483 H 0.56483 0.51314 0.95009 0.0
H484 H 0.6057 0.52485 0.94724 0.0
H485 H 0.64642 0.57114 0.99409 0.0
C486 C 0.72782 0.59247 0.97429 0.0
C487 C 0.67083 0.54157 0.95999 0.0
C488 C 0.7508 0.60481 0.96816 0.0
C489 C 0.57529 0.51719 0.96333 0.0
C490 C 0.59859 0.52368 0.96171 0.0
C491 C 0.65311 0.56252 0.98484 0.0
C492 C 0.71009 0.57772 0.96111 0.0
C493 C 0.68565 0.56424 0.9675 0.0
C494 C 0.61289 0.53004 0.9785 0.0
C495 C 0.63814 0.54053 0.97635 0.0
H496 H 0.74257 0.58574 0.92055 0.0
H497 H 0.70254 0.56537 0.93088 0.0
H498 H 0.68747 0.59178 0.98632 0.0
H499 H 0.57302 0.52128 0.01315 0.0
H500 H 0.61394 0.53324 0.01018 0.0
C501 C 0.41673 0.17218 0.96674 0.0
C502 C 0.4152 0.17331 0.94623 0.0
C503 C 0.42774 0.161 0.97519 0.0
C504 C 0.47026 0.1422 0.96457 0.0
H505 H 0.43962 0.09787 0.00626 0.0
C506 C 0.48805 0.06763 0.98405 0.0
C507 C 0.48296 0.05861 0.00308 0.0
C508 C 0.48536 0.08671 0.97906 0.0
C509 C 0.4488 0.1106 0.99496 0.0
H510 H 0.42405 0.16364 0.9185 0.0
H511 H 0.44295 0.14382 0.93324 0.0
H512 H 0.42267 0.12035 0.99368 0.0
H513 H 0.47392 0.06382 0.03239 0.0
H514 H 0.47037 0.09774 0.024 0.0
H515 H 0.4962 0.13209 0.96564 0.0
C516 C 0.43581 0.15177 0.94278 0.0
C517 C 0.43895 0.12341 0.98769 0.0
C518 C 0.42466 0.16278 0.93435 0.0
C519 C 0.47769 0.07039 0.01754 0.0
C520 C 0.47544 0.08965 0.01268 0.0
C521 C 0.48022 0.12946 0.97194 0.0
C522 C 0.43762 0.15091 0.96328 0.0
C523 C 0.44929 0.13897 0.97214 0.0
C524 C 0.47785 0.09714 0.99313 0.0
C525 C 0.46935 0.11316 0.98698 0.0
H526 H 0.40957 0.18014 0.97625 0.0
H527 H 0.42889 0.16064 0.99103 0.0
H528 H 0.47882 0.1544 0.95279 0.0
H529 H 0.49199 0.05869 0.97265 0.0
H530 H 0.48735 0.09197 0.96385 0.0
C531 C 0.756 0.18402 0.96036 0.0
C532 C 0.76451 0.17205 0.94907 0.0
C533 C 0.73342 0.17236 0.96746 0.0
C534 C 0.67639 0.12277 0.95651 0.0
H535 H 0.66235 0.12692 0.01106 0.0
C536 C 0.58302 0.07396 0.98216 0.0
C537 C 0.58021 0.05726 0.99614 0.0
C538 C 0.60503 0.09307 0.97873 0.0
C539 C 0.66604 0.1259 0.99575 0.0
H540 H 0.75593 0.13824 0.93677 0.0
H541 H 0.71623 0.11798 0.94884 0.0
H542 H 0.70257 0.14883 -7e-05 0.0
H543 H 0.59725 0.04812 0.01862 0.0
H544 H 0.63557 0.08194 0.01318 0.0
H545 H 0.64007 0.09956 0.95231 0.0
C546 C 0.72718 0.13645 0.95212 0.0
C547 C 0.68898 0.13836 0.9894 0.0
C548 C 0.74988 0.14805 0.94521 0.0
C549 C 0.59908 0.06105 0.00796 0.0
C550 C 0.62097 0.08035 0.00481 0.0
C551 C 0.65349 0.11065 0.96276 0.0
C552 C 0.71871 0.14856 0.96319 0.0
C553 C 0.69438 0.13649 0.9698 0.0
C554 C 0.62435 0.09579 0.98943 0.0
C555 C 0.64812 0.11175 0.98251 0.0
H556 H 0.76652 0.20262 0.96325 0.0
H557 H 0.72722 0.18213 0.97578 0.0
H558 H 0.68007 0.12125 0.94128 0.0
H559 H 0.5687 0.07109 0.97268 0.0
H560 H 0.60721 0.10481 0.96685 0.0
C561 C 0.8244 0.58834 0.96817 0.0
C562 C 0.83391 0.61134 0.96134 0.0
C563 C 0.83869 0.58039 0.9757 0.0
C564 C 0.89774 0.59265 0.96831 0.0
H565 H 0.88024 0.54161 0.00465 0.0
C566 C 0.94162 0.53835 0.96423 0.0
C567 C 0.94961 0.53407 0.98194 0.0
C568 C 0.92571 0.54615 0.96434 0.0
C569 C 0.88543 0.55598 0.99458 0.0
H570 H 0.86542 0.64472 0.95871 0.0
H571 H 0.8905 0.63106 0.97245 0.0
H572 H 0.85758 0.56149 0.003 0.0
H573 H 0.94621 0.53298 0.01358 0.0
H574 H 0.91875 0.5474 0.01382 0.0
H575 H 0.92558 0.58744 0.95993 0.0
C576 C 0.87204 0.61895 0.97145 0.0
C577 C 0.87242 0.56729 0.99357 0.0
C578 C 0.85775 0.62683 0.96367 0.0
C579 C 0.94027 0.5362 -0.00027 0.0
C580 C 0.92456 0.54442 -0.00014 0.0
C581 C 0.9107 0.58147 0.96937 0.0
C582 C 0.86279 0.59534 0.97666 0.0
C583 C 0.87822 0.58549 0.98014 0.0
C584 C 0.91785 0.55033 0.98217 0.0
C585 C 0.9044 0.56266 0.98214 0.0
H586 H 0.80608 0.57595 0.96635 0.0
H587 H 0.83097 0.56207 0.97938 0.0
H588 H 0.90255 0.6063 0.95756 0.0
H589 H 0.94826 0.53638 0.95031 0.0
H590 H 0.92025 0.54979 0.95043 0.0
C591 C 0.43121 0.266 0.92345 0.0
C592 C 0.41941 0.25001 0.93847 0.0
C593 C 0.44454 0.28989 0.9276 0.0
C594 C 0.47338 0.33123 0.96912 0.0
H595 H 0.4736 0.37699 0.93356 0.0
C596 C 0.51278 0.42332 0.99663 0.0
C597 C 0.49711 0.4315 0.99492 0.0
C598 C 0.51111 0.40588 0.98388 0.0
C599 C 0.47386 0.36447 0.94361 0.0
H600 H 0.4118 0.24633 0.96948 0.0
H601 H 0.43439 0.28826 0.97675 0.0
H602 H 0.4523 0.33563 0.9246 0.0
H603 H 0.46897 0.42982 0.9777 0.0
H604 H 0.46558 0.39924 0.95579 0.0
H605 H 0.49334 0.35956 0.98879 0.0
C606 C 0.43393 0.28232 0.96182 0.0
C607 C 0.46175 0.34072 0.93842 0.0
C608 C 0.42081 0.25835 0.95769 0.0
C609 C 0.48162 0.42415 0.97897 0.0
C610 C 0.47961 0.4064 0.96646 0.0
C611 C 0.48524 0.35486 0.97439 0.0
C612 C 0.44623 0.29835 0.94686 0.0
C613 C 0.4608 0.32376 0.9514 0.0
C614 C 0.49313 0.39579 0.96977 0.0
C615 C 0.48509 0.37177 0.96198 0.0
H616 H 0.43073 0.25993 0.90855 0.0
H617 H 0.45399 0.30163 0.91578 0.0
H618 H 0.47357 0.31874 0.97925 0.0
H619 H 0.52484 0.42879 0.00891 0.0
H620 H 0.5224 0.39872 0.98637 0.0
C621 C 0.1865 0.73912 0.05212 0.0
C622 C 0.17464 0.7512 0.05648 0.0
C623 C 0.1744 0.71489 0.04939 0.0
C624 C 0.11984 0.6623 0.06185 0.0
H625 H 0.13115 0.63511 0.01569 0.0
C626 C 0.05175 0.5798 0.02359 0.0
C627 C 0.05888 0.56903 0.00975 0.0
C628 C 0.06804 0.59735 0.03594 0.0
C629 C 0.12815 0.64211 0.02905 0.0
H630 H 0.1407 0.74743 0.06039 0.0
H631 H 0.11954 0.70499 0.05563 0.0
H632 H 0.15538 0.67656 0.02238 0.0
H633 H 0.08747 0.56527 -0.00045 0.0
H634 H 0.1159 0.59508 0.02184 0.0
H635 H 0.09218 0.62789 0.06828 0.0
C636 C 0.13825 0.71432 0.05473 0.0
C637 C 0.14198 0.66602 0.03274 0.0
C638 C 0.15033 0.73859 0.05729 0.0
C639 C 0.08175 0.57357 0.01014 0.0
C640 C 0.09799 0.59078 0.02276 0.0
C641 C 0.1061 0.63825 0.05829 0.0
C642 C 0.15022 0.70222 0.05112 0.0
C643 C 0.13742 0.67647 0.04874 0.0
C644 C 0.09167 0.60425 0.03454 0.0
C645 C 0.10951 0.62802 0.0414 0.0
H646 H 0.20524 0.74819 0.05177 0.0
H647 H 0.18403 0.70597 0.0466 0.0
H648 H 0.11634 0.66992 0.07457 0.0
H649 H 0.03412 0.57655 0.02337 0.0
H650 H 0.0624 0.60716 0.04486 0.0
C651 C 0.23655 0.38169 0.04971 0.0
C652 C 0.23002 0.39851 0.05323 0.0
C653 C 0.25773 0.38809 0.04095 0.0
C654 C 0.30738 0.43633 0.01453 0.0
H655 H 0.34059 0.40816 0.03798 0.0
C656 C 0.40713 0.47249 0.0127 0.0
C657 C 0.41401 0.45556 0.0122 0.0
C658 C 0.38353 0.46552 0.01273 0.0
C659 C 0.33143 0.41592 0.031 0.0
H660 H 0.24016 0.43507 0.05041 0.0
H661 H 0.27762 0.44651 0.03583 0.0
H662 H 0.3015 0.39565 0.0482 0.0
H663 H 0.40224 0.41863 0.00887 0.0
H664 H 0.36123 0.40652 0.00838 0.0
H665 H 0.33817 0.45738 0.99793 0.0
C666 C 0.26618 0.42826 0.0392 0.0
C667 C 0.30893 0.40869 0.03684 0.0
C668 C 0.24483 0.42177 0.04767 0.0
C669 C 0.39724 0.43191 0.00976 0.0
C670 C 0.37384 0.42502 0.00946 0.0
C671 C 0.33014 0.44375 0.00877 0.0
C672 C 0.27301 0.41154 0.03594 0.0
C673 C 0.29659 0.41876 0.02873 0.0
C674 C 0.36672 0.4416 0.01203 0.0
C675 C 0.34231 0.43353 0.01697 0.0
H676 H 0.22523 0.3636 0.05369 0.0
H677 H 0.26225 0.37467 0.03829 0.0
H678 H 0.29827 0.44433 0.00789 0.0
H679 H 0.41988 0.49086 0.01443 0.0
H680 H 0.37849 0.47865 0.01471 0.0
C681 C 0.58489 0.85099 0.06999 0.0
C682 C 0.57522 0.82679 0.06677 0.0
C683 C 0.57124 0.86149 0.06825 0.0
C684 C 0.52041 0.85597 0.04372 0.0
H685 H 0.52574 0.90156 0.08269 0.0
C686 C 0.49277 0.919 0.02077 0.0
C687 C 0.51158 0.94171 0.0231 0.0
C688 C 0.49086 0.90114 0.03293 0.0
C689 C 0.5239 0.88878 0.07172 0.0
H690 H 0.54357 0.79477 0.05895 0.0
H691 H 0.52007 0.81338 0.05513 0.0
H692 H 0.54399 0.87797 0.08878 0.0
H693 H 0.54108 0.96461 0.04128 0.0
H694 H 0.53825 0.93381 0.06219 0.0
H695 H 0.50206 0.8678 0.0259 0.0
C696 C 0.53817 0.82408 0.0592 0.0
C697 C 0.53441 0.87534 0.0752 0.0
C698 C 0.55174 0.81351 0.06116 0.0
C699 C 0.52636 0.94713 0.03937 0.0
C700 C 0.52468 0.92932 0.05136 0.0
C701 C 0.51021 0.86962 0.0401 0.0
C702 C 0.5477 0.84809 0.06305 0.0
C703 C 0.5335 0.85948 0.06089 0.0
C704 C 0.50814 0.90582 0.04714 0.0
C705 C 0.5127 0.88697 0.05367 0.0
H706 H 0.60297 0.86178 0.07407 0.0
H707 H 0.57917 0.88016 0.07082 0.0
H708 H 0.51943 0.84386 0.03245 0.0
H709 H 0.48119 0.91454 0.00822 0.0
H710 H 0.47738 0.88335 0.02975 0.0
C711 C 0.91025 0.16521 0.36946 0.0
C712 C 0.9046 0.16069 0.38944 0.0
C713 C 0.93285 0.1816 0.3639 0.0
C714 C 0.98396 0.23405 0.38196 0.0
H715 H 0.02057 0.21822 0.34789 0.0
C716 C 0.0824 0.29167 0.38024 0.0
C717 C 0.09384 0.29513 0.36231 0.0
C718 C 0.05894 0.2751 0.38173 0.0
C719 C 0.01049 0.22307 0.35717 0.0
H720 H 0.9187 0.1691 0.41913 0.0
H721 H 0.95755 0.19806 0.40944 0.0
H722 H 0.9796 0.18971 0.35301 0.0
H723 H 0.08972 0.28373 0.33189 0.0
H724 H 0.04848 0.25522 0.33435 0.0
H725 H 0.0144 0.2673 0.38615 0.0
C726 C 0.94447 0.18913 0.39812 0.0
C727 C 0.98706 0.20673 0.36008 0.0
C728 C 0.92212 0.17264 0.40365 0.0
C729 C 0.08137 0.28142 0.34593 0.0
C730 C 0.05776 0.26501 0.34736 0.0
C731 C 0.00717 0.25041 0.37889 0.0
C732 C 0.95004 0.19389 0.37825 0.0
C733 C 0.97381 0.21192 0.37291 0.0
C734 C 0.0462 0.26181 0.36526 0.0
C735 C 0.02094 0.24494 0.36691 0.0
H736 H 0.89716 0.15635 0.35815 0.0
H737 H 0.93678 0.18503 0.34847 0.0
H738 H 0.97398 0.23856 0.3917 0.0
H739 H 0.09161 0.30167 0.39321 0.0
H740 H 0.05082 0.27266 0.3959 0.0
C741 C 0.83978 0.75539 0.3692 0.0
C742 C 0.8308 0.73225 0.37561 0.0
C743 C 0.82484 0.76307 0.36255 0.0
C744 C 0.77009 0.75299 0.37709 0.0
H745 H 0.76663 0.78569 0.33126 0.0
C746 C 0.69471 0.76941 0.36661 0.0
C747 C 0.69908 0.79093 0.35904 0.0
C748 C 0.71192 0.76332 0.36652 0.0
C749 C 0.76764 0.77685 0.34425 0.0
H750 H 0.79981 0.69836 0.37791 0.0
H751 H 0.77371 0.71182 0.36642 0.0
H752 H 0.79521 0.7725 0.33259 0.0
H753 H 0.72493 0.82301 0.34539 0.0
H754 H 0.75531 0.81258 0.34581 0.0
H755 H 0.74331 0.7577 0.38918 0.0
C756 C 0.79219 0.72401 0.36672 0.0
C757 C 0.78384 0.76922 0.34491 0.0
C758 C 0.80705 0.71635 0.37333 0.0
C759 C 0.72105 0.80626 0.35133 0.0
C760 C 0.73841 0.80025 0.35144 0.0
C761 C 0.75423 0.7608 0.37656 0.0
C762 C 0.80085 0.74767 0.36228 0.0
C763 C 0.78472 0.75676 0.36118 0.0
C764 C 0.73404 0.77874 0.35915 0.0
C765 C 0.75239 0.77231 0.35998 0.0
H766 H 0.85805 0.76801 0.3709 0.0
H767 H 0.83183 0.78141 0.35925 0.0
H768 H 0.77097 0.74398 0.39003 0.0
H769 H 0.67786 0.75707 0.37234 0.0
H770 H 0.70781 0.74637 0.37214 0.0
C771 C 0.24042 0.07517 0.36791 0.0
C772 C 0.23657 0.0822 0.38625 0.0
C773 C 0.22809 0.0515 0.36239 0.0
C774 C 0.19763 0.99292 0.38432 0.0
H775 H 0.17721 0.97298 0.33075 0.0
C776 C 0.18721 0.90936 0.34851 0.0
C777 C 0.17303 0.90068 0.33176 0.0
C778 C 0.18797 0.92788 0.35921 0.0
C779 C 0.18228 0.97807 0.34592 0.0
H780 H 0.2166 0.07083 0.41289 0.0
H781 H 0.19484 0.02966 0.4032 0.0
H782 H 0.19309 0.01383 0.33985 0.0
H783 H 0.14636 0.90179 0.3144 0.0
H784 H 0.1467 0.93327 0.33366 0.0
H785 H 0.18713 0.95714 0.3903 0.0
C786 C 0.20753 0.04209 0.39321 0.0
C787 C 0.19177 0.00162 0.35101 0.0
C788 C 0.21983 0.0656 0.39869 0.0
C789 C 0.15746 0.90842 0.3273 0.0
C790 C 0.15788 0.92657 0.33819 0.0
C791 C 0.18811 0.9693 0.37922 0.0
C792 C 0.21179 0.03468 0.37517 0.0
C793 C 0.19999 0.00939 0.37015 0.0
C794 C 0.17443 0.93771 0.35326 0.0
C795 C 0.18074 0.96168 0.35985 0.0
H796 H 0.25339 0.08779 0.3582 0.0
H797 H 0.23189 0.04626 0.34845 0.0
H798 H 0.20395 -0.0016 0.3992 0.0
H799 H 0.19948 0.90366 0.35202 0.0
H800 H 0.20088 0.93595 0.37078 0.0
C801 C 0.52329 0.59822 0.2807 0.0
C802 C 0.49939 0.58315 0.28304 0.0
C803 C 0.53279 0.62244 0.28215 0.0
C804 C 0.52218 0.66734 0.30312 0.0
H805 H 0.57061 0.70848 0.26768 0.0
C806 C 0.5723 0.76156 0.32386 0.0
C807 C 0.59586 0.76868 0.3255 0.0
C808 C 0.558 0.74328 0.31107 0.0
C809 C 0.55697 0.69724 0.27759 0.0
H810 H 0.46676 0.58168 0.2889 0.0
H811 H 0.4834 0.62391 0.2918 0.0
H812 H 0.5507 0.66612 0.26222 0.0
H813 H 0.6236 0.76435 0.31391 0.0
H814 H 0.5988 0.73216 0.29204 0.0
H815 H 0.52905 0.69791 0.31918 0.0
C816 C 0.4948 0.61699 0.28891 0.0
C817 C 0.5457 0.673 0.27454 0.0
C818 C 0.48531 0.59279 0.28744 0.0
C819 C 0.60549 0.75933 0.31261 0.0
C820 C 0.59116 0.74077 0.30009 0.0
C821 C 0.53346 0.69145 0.30622 0.0
C822 C 0.51858 0.63209 0.28599 0.0
C823 C 0.52869 0.6578 0.28766 0.0
C824 C 0.567 0.73135 0.30038 0.0
C825 C 0.55154 0.7067 0.29389 0.0
H826 H 0.53457 0.59126 0.27739 0.0
H827 H 0.55127 0.63362 0.2803 0.0
H828 H 0.50928 0.65612 0.31357 0.0
H829 H 0.56458 0.76857 0.33377 0.0
H830 H 0.53955 0.7369 0.31115 0.0
C831 C 0.4256 0.93867 0.31151 0.0
C832 C 0.42958 0.93855 0.29126 0.0
C833 C 0.40337 0.92466 0.31902 0.0
C834 C 0.3476 0.87214 0.30594 0.0
H835 H 0.31966 0.89897 0.33911 0.0
C836 C 0.2566 0.85535 0.29729 0.0
C837 C 0.24329 0.85338 0.31374 0.0
C838 C 0.27881 0.85867 0.29966 0.0
C839 C 0.32737 0.89095 0.33034 0.0
H840 H 0.4133 0.92405 0.26302 0.0
H841 H 0.37468 0.90034 0.27596 0.0
H842 H 0.36133 0.92086 0.33341 0.0
H843 H 0.24197 0.85209 0.34552 0.0
H844 H 0.2816 0.85913 0.34969 0.0
H845 H 0.31335 0.84312 0.30158 0.0
C846 C 0.38874 0.91083 0.28611 0.0
C847 C 0.3512 0.90352 0.32703 0.0
C848 C 0.4108 0.92482 0.27864 0.0
C849 C 0.25202 0.85357 0.33262 0.0
C850 C 0.27457 0.85756 0.33502 0.0
C851 C 0.32382 0.85969 0.30914 0.0
C852 C 0.38486 0.91017 0.30639 0.0
C853 C 0.36125 0.89478 0.31389 0.0
C854 C 0.28828 0.86066 0.31853 0.0
C855 C 0.31338 0.86959 0.3205 0.0
H856 H 0.43977 0.94916 0.32157 0.0
H857 H 0.40079 0.92466 0.3347 0.0
H858 H 0.35507 0.86472 0.2962 0.0
H859 H 0.25011 0.85506 0.28261 0.0
H860 H 0.28915 0.86127 0.28672 0.0
C861 C 0.08109 0.48777 0.28891 0.0
C862 C 0.08314 0.49629 0.26976 0.0
C863 C 0.09211 0.47533 0.29434 0.0
C864 C 0.12138 0.44404 0.27487 0.0
H865 H 0.15008 0.45892 0.32654 0.0
C866 C 0.1533 0.38872 0.31609 0.0
C867 C 0.17035 0.39996 0.33072 0.0
C868 C 0.14618 0.40158 0.30465 0.0
C869 C 0.1426 0.45483 0.31189 0.0
H870 H 0.09799 0.49806 0.24118 0.0
H871 H 0.11748 0.47662 0.25071 0.0
H872 H 0.12917 0.47796 0.31534 0.0
H873 H 0.19529 0.43344 0.34336 0.0
H874 H 0.18386 0.45609 0.32272 0.0
H875 H 0.13519 0.42102 0.27145 0.0
C876 C 0.10703 0.47917 0.26146 0.0
C877 C 0.13015 0.46544 0.30563 0.0
C878 C 0.09586 0.49147 0.25599 0.0
C879 C 0.18206 0.42443 0.33217 0.0
C880 C 0.17526 0.43731 0.32053 0.0
C881 C 0.13396 0.43341 0.28115 0.0
C882 C 0.10565 0.47132 0.2808 0.0
C883 C 0.11914 0.46002 0.28714 0.0
C884 C 0.15616 0.42589 0.30762 0.0
C885 C 0.14462 0.43858 0.29981 0.0
H886 H 0.07117 0.49097 0.29976 0.0
H887 H 0.09022 0.46907 0.30925 0.0
H888 H 0.11304 0.43938 0.26056 0.0
H889 H 0.14375 0.36981 0.31495 0.0
H890 H 0.13146 0.39216 0.29484 0.0
C891 C 0.41949 0.50812 0.29901 0.0
C892 C 0.43472 0.5009 0.29186 0.0
C893 C 0.39727 0.49164 0.30514 0.0
C894 C 0.35322 0.43261 0.29279 0.0
H895 H 0.32074 0.43579 0.33863 0.0
C896 C 0.26004 0.36049 0.30723 0.0
C897 C 0.24453 0.36688 0.315 0.0
C898 C 0.28369 0.37665 0.30653 0.0
C899 C 0.32948 0.4348 0.32563 0.0
H900 H 0.43919 0.47088 0.28713 0.0
H901 H 0.40021 0.44211 0.29746 0.0
H902 H 0.36184 0.46452 0.33468 0.0
H903 H 0.24165 0.39523 0.32831 0.0
H904 H 0.2829 0.42384 0.32634 0.0
H905 H 0.32105 0.40377 0.28314 0.0
C906 C 0.40547 0.46052 0.29813 0.0
C907 C 0.35303 0.45116 0.32347 0.0
C908 C 0.42773 0.47697 0.29217 0.0
C909 C 0.25321 0.38979 0.32224 0.0
C910 C 0.27689 0.40613 0.32124 0.0
C911 C 0.32972 0.41653 0.29478 0.0
C912 C 0.3898 0.46765 0.30408 0.0
C913 C 0.36512 0.45008 0.30707 0.0
C914 C 0.29243 0.3998 0.31323 0.0
C915 C 0.31752 0.41726 0.31128 0.0
H916 H 0.42416 0.52636 0.29877 0.0
H917 H 0.38548 0.49759 0.30956 0.0
H918 H 0.36199 0.43172 0.27976 0.0
H919 H 0.25396 0.34286 0.30185 0.0
H920 H 0.29512 0.3709 0.30075 0.0
C921 C 0.52999 0.95817 0.29257 0.0
C922 C 0.50591 0.94351 0.29148 0.0
C923 C 0.54422 0.94904 0.29762 0.0
C924 C 0.54385 0.89576 0.31637 0.0
H925 H 0.59858 0.91894 0.28424 0.0
C926 C 0.61181 0.86625 0.32583 0.0
C927 C 0.62353 0.86547 0.30904 0.0
C928 C 0.59629 0.87459 0.32467 0.0
C929 C 0.58321 0.912 0.29316 0.0
H930 H 0.47768 0.90804 0.29529 0.0
H931 H 0.50242 0.89197 0.30356 0.0
H932 H 0.57449 0.93667 0.2818 0.0
H933 H 0.62704 0.87111 0.27768 0.0
H934 H 0.59922 0.88474 0.27544 0.0
H935 H 0.5521 0.87031 0.32702 0.0
C936 C 0.51042 0.9106 0.30107 0.0
C937 C 0.56962 0.92254 0.29206 0.0
C938 C 0.49622 0.91979 0.29628 0.0
C939 C 0.61856 0.87199 0.2909 0.0
C940 C 0.60272 0.8799 0.28967 0.0
C941 C 0.55736 0.88502 0.31732 0.0
C942 C 0.53463 0.92498 0.3013 0.0
C943 C 0.54975 0.91456 0.3036 0.0
C944 C 0.5919 0.88196 0.30664 0.0
C945 C 0.57716 0.89296 0.30563 0.0
H946 H 0.5378 0.97656 0.28907 0.0
H947 H 0.56278 0.96072 0.29811 0.0
H948 H 0.52875 0.88927 0.32558 0.0
H949 H 0.61535 0.86133 0.34003 0.0
H950 H 0.58845 0.8761 0.33806 0.0
C951 C 0.10356 0.58248 0.28755 0.0
C952 C 0.08029 0.5698 0.28129 0.0
C953 C 0.11339 0.60587 0.29349 0.0
C954 C 0.1079 0.65712 0.28427 0.0
H955 H 0.14538 0.68299 0.33132 0.0
C956 C 0.13264 0.74751 0.31704 0.0
C957 C 0.15223 0.75858 0.32929 0.0
C958 C 0.12681 0.72621 0.30789 0.0
C959 C 0.13547 0.67626 0.31784 0.0
H960 H 0.04862 0.5712 0.27796 0.0
H961 H 0.06597 0.61221 0.28806 0.0
H962 H 0.12822 0.64147 0.32402 0.0
H963 H 0.18238 0.75791 0.34021 0.0
H964 H 0.17312 0.72148 0.3233 0.0
H965 H 0.11527 0.69191 0.27794 0.0
C966 C 0.07662 0.60407 0.28803 0.0
C967 C 0.12544 0.65237 0.3138 0.0
C968 C 0.0667 0.58061 0.28234 0.0
C969 C 0.16715 0.74949 0.33079 0.0
C970 C 0.16164 0.7285 0.32133 0.0
C971 C 0.11819 0.68112 0.28816 0.0
C972 C 0.10021 0.61708 0.2931 0.0
C973 C 0.11128 0.64252 0.29716 0.0
C974 C 0.14067 0.71587 0.31076 0.0
C975 C 0.13186 0.69096 0.30516 0.0
H976 H 0.11462 0.57485 0.28671 0.0
H977 H 0.13162 0.61553 0.29736 0.0
H978 H 0.09737 0.64998 0.27112 0.0
H979 H 0.12081 0.75424 0.31592 0.0
H980 H 0.11052 0.71704 0.29992 0.0
C981 C 0.84785 0.06874 0.38117 0.0
C982 C 0.83498 0.07981 0.38533 0.0
C983 C 0.83664 0.04458 0.37783 0.0
C984 C 0.78342 0.99096 0.39026 0.0
H985 H 0.79676 0.9635 0.34543 0.0
C986 C 0.71984 0.90178 0.35689 0.0
C987 C 0.72845 0.89174 0.34365 0.0
C988 C 0.73519 0.92157 0.36786 0.0
C989 C 0.79321 0.97065 0.35842 0.0
H990 H 0.80026 0.07452 0.38772 0.0
H991 H 0.78075 0.0323 0.38204 0.0
H992 H 0.8188 0.00549 0.35067 0.0
H993 H 0.75907 0.89163 0.33363 0.0
H994 H 0.78585 0.92508 0.35383 0.0
H995 H 0.75762 0.95615 0.39794 0.0
C996 C 0.79949 0.04228 0.38177 0.0
C997 C 0.80576 0.99484 0.36125 0.0
C998 C 0.81065 0.06643 0.38487 0.0
C999 C 0.75216 0.89932 0.34371 0.0
C1000 C 0.76746 0.91868 0.35506 0.0
C1001 C 0.77102 0.96667 0.38758 0.0
C1002 C 0.81241 0.03106 0.37877 0.0
C1003 C 0.80054 0.00527 0.37685 0.0
C1004 C 0.75929 0.93128 0.36586 0.0
C1005 C 0.7753 0.95624 0.37129 0.0
H1006 H 0.86659 0.07847 0.38166 0.0
H1007 H 0.84697 0.03633 0.37544 0.0
H1008 H 0.7794 -0.00139 0.40265 0.0
H1009 H 0.70155 0.89622 0.35694 0.0
H1010 H 0.72813 0.93059 0.37612 0.0
C1011 C 0.9244 0.75029 0.40326 0.0
C1012 C 0.90698 0.73764 0.38918 0.0
C1013 C 0.94766 0.76092 0.39822 0.0
C1014 C 0.98714 0.78402 0.35667 0.0
H1015 H 0.02957 0.77823 0.39225 0.0
C1016 C 0.08215 0.81023 0.33887 0.0
C1017 C 0.09785 0.81747 0.35474 0.0
C1018 C 0.05907 0.80402 0.34198 0.0
C1019 C 0.01806 0.78044 0.38232 0.0
H1020 H 0.90031 0.72583 0.35882 0.0
H1021 H 0.94124 0.74452 0.34998 0.0
H1022 H 0.98862 0.75855 0.39967 0.0
H1023 H 0.10284 0.82676 0.38563 0.0
H1024 H 0.06286 0.81688 0.39093 0.0
H1025 H 0.01681 0.80593 0.33926 0.0
C1026 C 0.93673 0.74637 0.36487 0.0
C1027 C 0.99456 0.76901 0.38653 0.0
C1028 C 0.91337 0.73562 0.36994 0.0
C1029 C 0.09085 0.8207 0.37327 0.0
C1030 C 0.06797 0.81495 0.3763 0.0
C1031 C 0.01081 0.7956 0.35246 0.0
C1032 C 0.95407 0.75919 0.37896 0.0
C1033 C 0.97887 0.77076 0.37384 0.0
C1034 C 0.05156 0.80531 0.36095 0.0
C1035 C 0.02652 0.79403 0.36535 0.0
H1036 H 0.92008 0.75266 0.41808 0.0
H1037 H 0.96066 0.77097 0.40931 0.0
H1038 H 0.97538 0.78579 0.34672 0.0
H1039 H 0.08725 0.8077 0.32441 0.0
H1040 H 0.04686 0.79671 0.32985 0.0
C1041 C 0.22086 0.1512 0.39063 0.0
C1042 C 0.24418 0.1602 0.39614 0.0
C1043 C 0.21157 0.16591 0.38881 0.0
C1044 C 0.22783 0.22766 0.38202 0.0
H1045 H 0.16322 0.20374 0.39465 0.0
C1046 C 0.18488 0.27973 0.36053 0.0
C1047 C 0.16674 0.26667 0.34718 0.0
C1048 C 0.19235 0.26843 0.37345 0.0
C1049 C 0.18134 0.21075 0.39129 0.0
H1050 H 0.27609 0.19197 0.40377 0.0
H1051 H 0.25966 0.21764 0.40108 0.0
H1052 H 0.18169 0.18087 0.40285 0.0
H1053 H 0.14091 0.23182 0.33779 0.0
H1054 H 0.15366 0.21197 0.36051 0.0
H1055 H 0.22732 0.25726 0.37006 0.0
C1056 C 0.24864 0.19916 0.39794 0.0
C1057 C 0.19189 0.19759 0.39579 0.0
C1058 C 0.25802 0.18442 0.39961 0.0
C1059 C 0.1547 0.2422 0.34821 0.0
C1060 C 0.16203 0.23088 0.36122 0.0
C1061 C 0.21735 0.24091 0.37773 0.0
C1062 C 0.22521 0.19003 0.39267 0.0
C1063 C 0.21503 0.2055 0.39055 0.0
C1064 C 0.1818 0.24392 0.3731 0.0
C1065 C 0.1938 0.23225 0.38173 0.0
H1066 H 0.20948 0.13263 0.38821 0.0
H1067 H 0.19362 0.1583 0.38427 0.0
H1068 H 0.24558 0.23426 0.37762 0.0
H1069 H 0.195 0.29858 0.3595 0.0
H1070 H 0.20754 0.27889 0.38254 0.0
C1071 C 0.59293 0.50113 0.74073 0.0
C1072 C 0.57468 0.49298 0.72701 0.0
C1073 C 0.61579 0.51373 0.73466 0.0
C1074 C 0.65488 0.52817 0.69275 0.0
H1075 H 0.69387 0.58267 0.72512 0.0
C1076 C 0.74986 0.60005 0.67487 0.0
C1077 C 0.76502 0.60973 0.69106 0.0
C1078 C 0.72656 0.58332 0.67768 0.0
C1079 C 0.68333 0.56734 0.71607 0.0
H1080 H 0.56592 0.49074 0.69611 0.0
H1081 H 0.60638 0.51353 0.68537 0.0
H1082 H 0.6531 0.55891 0.73249 0.0
H1083 H 0.76841 0.60796 0.72256 0.0
H1084 H 0.72807 0.57844 0.72742 0.0
H1085 H 0.6855 0.53695 0.67627 0.0
C1086 C 0.60283 0.50994 0.70083 0.0
C1087 C 0.65992 0.55376 0.72026 0.0
C1088 C 0.57976 0.49707 0.70695 0.0
C1089 C 0.75698 0.60115 0.70987 0.0
C1090 C 0.73388 0.5843 0.71265 0.0
C1091 C 0.6785 0.54189 0.6885 0.0
C1092 C 0.62104 0.5187 0.71472 0.0
C1093 C 0.6455 0.53378 0.70892 0.0
C1094 C 0.7182 0.57593 0.69671 0.0
C1095 C 0.69302 0.56138 0.7004 0.0
H1096 H 0.5895 0.4976 0.75622 0.0
H1097 H 0.62945 0.51968 0.74565 0.0
H1098 H 0.64414 0.51284 0.68376 0.0
H1099 H 0.75567 0.60635 0.66018 0.0
H1100 H 0.71489 0.57718 0.66513 0.0
C1101 C 0.49258 0.07479 0.69535 0.0
C1102 C 0.49596 0.07314 0.71553 0.0
C1103 C 0.48305 0.08826 0.68877 0.0
C1104 C 0.47216 0.13554 0.70542 0.0
H1105 H 0.42059 0.10798 0.66854 0.0
C1106 C 0.39574 0.15213 0.7061 0.0
C1107 C 0.38705 0.15487 0.68811 0.0
C1108 C 0.41388 0.14731 0.7065 0.0
C1109 C 0.43528 0.11612 0.67855 0.0
H1110 H 0.49243 0.08461 0.74459 0.0
H1111 H 0.47523 0.10723 0.73325 0.0
H1112 H 0.44331 0.08882 0.67426 0.0
H1113 H 0.39121 0.15575 0.65645 0.0
H1114 H 0.42249 0.14672 0.65726 0.0
H1115 H 0.46312 0.162 0.71062 0.0
C1116 C 0.4802 0.09852 0.72243 0.0
C1117 C 0.44831 0.10518 0.6818 0.0
C1118 C 0.48963 0.08513 0.72896 0.0
C1119 C 0.39747 0.15364 0.67058 0.0
C1120 C 0.41533 0.14846 0.67098 0.0
C1121 C 0.459 0.1463 0.70233 0.0
C1122 C 0.47698 0.10043 0.70229 0.0
C1123 C 0.46628 0.11429 0.69586 0.0
C1124 C 0.42339 0.14485 0.68892 0.0
C1125 C 0.43996 0.13622 0.6894 0.0
H1126 H 0.49733 0.06572 0.68469 0.0
H1127 H 0.48069 0.08938 0.67315 0.0
H1128 H 0.48632 0.14328 0.71597 0.0
H1129 H 0.38816 0.15313 0.71983 0.0
H1130 H 0.41972 0.1444 0.72053 0.0
C1131 C 0.8969 0.40033 0.73818 0.0
C1132 C 0.91077 0.41665 0.72407 0.0
C1133 C 0.88363 0.37671 0.73335 0.0
C1134 C 0.85881 0.33564 0.69147 0.0
H1135 H 0.85688 0.29057 0.72886 0.0
C1136 C 0.81424 0.24129 0.66832 0.0
C1137 C 0.82873 0.23173 0.67038 0.0
C1138 C 0.81794 0.26036 0.67993 0.0
C1139 C 0.85712 0.3029 0.71832 0.0
H1140 H 0.92153 0.42151 0.6938 0.0
H1141 H 0.89854 0.37968 0.68521 0.0
H1142 H 0.87812 0.33216 0.7371 0.0
H1143 H 0.85664 0.2325 0.68727 0.0
H1144 H 0.86368 0.26616 0.70723 0.0
H1145 H 0.83908 0.30672 0.6722 0.0
C1146 C 0.8977 0.38527 0.7 0.0
C1147 C 0.86919 0.32675 0.72306 0.0
C1148 C 0.91092 0.40911 0.70485 0.0
C1149 C 0.84507 0.23948 0.68571 0.0
C1150 C 0.84914 0.25889 0.69707 0.0
C1151 C 0.84687 0.31186 0.68669 0.0
C1152 C 0.88404 0.3688 0.71429 0.0
C1153 C 0.87046 0.34342 0.70955 0.0
C1154 C 0.83672 0.27057 0.69325 0.0
C1155 C 0.84616 0.2952 0.69992 0.0
H1156 H 0.89634 0.40594 0.75306 0.0
H1157 H 0.87297 0.36466 0.74458 0.0
H1158 H 0.85913 0.34796 0.68087 0.0
H1159 H 0.80151 0.23546 0.65653 0.0
H1160 H 0.80753 0.26844 0.67714 0.0
C1161 C 0.18413 0.92407 0.59629 0.0
C1162 C 0.17405 0.90499 0.60916 0.0
C1163 C 0.19737 0.94686 0.6035 0.0
C1164 C 0.22886 0.98159 0.64747 0.0
H1165 H 0.21923 0.02931 0.62345 0.0
C1166 C 0.26175 0.07098 0.68387 0.0
C1167 C 0.2751 0.09066 0.6722 0.0
C1168 C 0.24888 0.04884 0.67536 0.0
C1169 C 0.22223 0.01619 0.63015 0.0
H1170 H 0.1705 0.89497 0.63972 0.0
H1171 H 0.19332 0.93497 0.65241 0.0
H1172 H 0.19858 0.98927 0.61052 0.0
H1173 H 0.28427 0.1027 0.6423 0.0
H1174 H 0.26138 0.06369 0.62734 0.0
H1175 H 0.25215 0.00845 0.66733 0.0
C1176 C 0.19118 0.93218 0.63668 0.0
C1177 C 0.21048 0.99329 0.62275 0.0
C1178 C 0.17797 0.90928 0.62944 0.0
C1179 C 0.27419 0.08788 0.65168 0.0
C1180 C 0.26112 0.06559 0.64312 0.0
C1181 C 0.24044 0.00441 0.65494 0.0
C1182 C 0.20074 0.95126 0.62377 0.0
C1183 C 0.2136 0.97569 0.63139 0.0
C1184 C 0.24892 0.04581 0.65498 0.0
C1185 C 0.23711 0.02189 0.64645 0.0
H1186 H 0.18113 0.92153 0.5806 0.0
H1187 H 0.20476 0.96109 0.59314 0.0
H1188 H 0.23198 0.96859 0.65423 0.0
H1189 H 0.26179 0.07252 0.69971 0.0
H1190 H 0.23922 0.03396 0.6848 0.0
C1191 C 0.0761 0.25794 0.60351 0.0
C1192 C 0.0945 0.27296 0.616 0.0
C1193 C 0.05345 0.24637 0.61031 0.0
C1194 C 0.01605 0.24772 0.64932 0.0
H1195 H 0.97349 0.18656 0.62707 0.0
C1196 C 0.91663 0.19828 0.66143 0.0
C1197 C 0.90624 0.19873 0.64352 0.0
C1198 C 0.93955 0.20307 0.66194 0.0
C1199 C 0.98531 0.20343 0.63366 0.0
H1200 H 0.10335 0.28835 0.64524 0.0
H1201 H 0.06383 0.26752 0.65732 0.0
H1202 H 0.01492 0.20431 0.62097 0.0
H1203 H 0.91091 0.20307 0.6121 0.0
H1204 H 0.95077 0.21071 0.61294 0.0
H1205 H 0.98616 0.24675 0.66179 0.0
C1206 C 0.06691 0.26484 0.6422 0.0
C1207 C 0.00894 0.21376 0.62999 0.0
C1208 C 0.08958 0.27668 0.6353 0.0
C1209 C 0.91866 0.2029 0.62608 0.0
C1210 C 0.94129 0.20702 0.62654 0.0
C1211 C 0.99245 0.23716 0.65329 0.0
C1212 C 0.04862 0.24926 0.62985 0.0
C1213 C 0.02441 0.23654 0.63692 0.0
C1214 C 0.95201 0.20759 0.64448 0.0
C1215 C 0.97687 0.21545 0.64475 0.0
H1216 H 0.07922 0.25437 0.58865 0.0
H1217 H 0.03973 0.23506 0.60019 0.0
H1218 H 0.02741 0.26525 0.6549 0.0
H1219 H 0.90731 0.19505 0.67508 0.0
H1220 H 0.94767 0.2036 0.67592 0.0
C1221 C 0.73544 0.82193 0.62876 0.0
C1222 C 0.73637 0.8274 0.60876 0.0
C1223 C 0.74398 0.80768 0.63542 0.0
C1224 C 0.78469 0.7874 0.62172 0.0
H1225 H 0.75508 0.74395 0.66421 0.0
C1226 C 0.81315 0.72245 0.65137 0.0
C1227 C 0.81408 0.72145 0.67195 0.0
C1228 C 0.80426 0.73545 0.64244 0.0
C1229 C 0.76359 0.75611 0.65239 0.0
H1230 H 0.74672 0.82179 0.58003 0.0
H1231 H 0.76095 0.79636 0.59156 0.0
H1232 H 0.73702 0.76519 0.6508 0.0
H1233 H 0.80761 0.73439 0.69922 0.0
H1234 H 0.79219 0.75677 0.68366 0.0
H1235 H 0.81122 0.77808 0.62336 0.0
C1236 C 0.75395 0.80341 0.60215 0.0
C1237 C 0.75328 0.76832 0.64474 0.0
C1238 C 0.74546 0.81773 0.5955 0.0
C1239 C 0.80693 0.73451 0.68333 0.0
C1240 C 0.79795 0.74727 0.67445 0.0
C1241 C 0.79492 0.77501 0.62929 0.0
C1242 C 0.75361 0.79847 0.62222 0.0
C1243 C 0.76386 0.78438 0.6295 0.0
C1244 C 0.79602 0.74745 0.65396 0.0
C1245 C 0.78464 0.75953 0.64491 0.0
H1246 H 0.72836 0.82893 0.63933 0.0
H1247 H 0.74362 0.80442 0.65101 0.0
H1248 H 0.79346 0.79985 0.61015 0.0
H1249 H 0.81852 0.71259 0.6422 0.0
H1250 H 0.803 0.73537 0.62658 0.0
C1251 C 0.09196 0.82273 0.6268 0.0
C1252 C 0.09574 0.83455 0.609 0.0
C1253 C 0.06992 0.81151 0.63509 0.0
C1254 C 0.00806 0.78937 0.62167 0.0
H1255 H -0.0003 0.77941 0.67777 0.0
C1256 C 0.9179 0.73547 0.65436 0.0
C1257 C 0.9157 0.71408 0.66012 0.0
C1258 C 0.9399 0.75509 0.65218 0.0
C1259 C 0.00186 0.78244 0.66212 0.0
H1260 H 0.08014 0.84496 0.5862 0.0
H1261 H 0.04194 0.82647 0.60096 0.0
H1262 H 0.03856 0.80458 0.66488 0.0
H1263 H 0.93415 0.69671 0.67 0.0
H1264 H 0.97259 0.7313 0.66696 0.0
H1265 H 0.97133 0.76732 0.61904 0.0
C1266 C 0.05552 0.82481 0.60826 0.0
C1267 C 0.0241 0.79654 0.65466 0.0
C1268 C 0.0774 0.8355 0.59978 0.0
C1269 C 0.93554 0.71308 0.66547 0.0
C1270 C 0.95745 0.73284 0.66385 0.0
C1271 C 0.98588 0.77582 0.62917 0.0
C1272 C 0.05135 0.81241 0.62593 0.0
C1273 C 0.02757 0.79964 0.63425 0.0
C1274 C 0.95981 0.75365 0.65633 0.0
C1275 C 0.98267 0.77177 0.64937 0.0
H1276 H 0.10601 0.82194 0.63417 0.0
H1277 H 0.06742 0.80182 0.64847 0.0
H1278 H 0.00987 0.7908 0.60589 0.0
H1279 H 0.90277 0.73652 0.65008 0.0
H1280 H 0.94142 0.77098 0.64623 0.0
C1281 C 0.19466 0.29387 0.62972 0.0
C1282 C 0.17058 0.27935 0.62821 0.0
C1283 C 0.20826 0.28536 0.63785 0.0
C1284 C 0.20655 0.23387 0.66225 0.0
H1285 H 0.25648 0.24791 0.62623 0.0
C1286 C 0.27366 0.2017 0.6684 0.0
C1287 C 0.2815 0.19783 0.65047 0.0
C1288 C 0.25746 0.20929 0.66856 0.0
C1289 C 0.24247 0.24362 0.63634 0.0
H1290 H 0.14165 0.24517 0.6351 0.0
H1291 H 0.16532 0.23018 0.64878 0.0
H1292 H 0.23536 0.2687 0.62353 0.0
H1293 H 0.27693 0.19593 0.61892 0.0
H1294 H 0.24795 0.20813 0.61916 0.0
H1295 H 0.21344 0.20799 0.67449 0.0
C1296 C 0.17377 0.24824 0.64417 0.0
C1297 C 0.23066 0.25594 0.63507 0.0
C1298 C 0.16019 0.25683 0.63626 0.0
C1299 C 0.27133 0.19923 0.63288 0.0
C1300 C 0.25489 0.20632 0.63304 0.0
C1301 C 0.21847 0.22144 0.66352 0.0
C1302 C 0.19801 0.26205 0.64423 0.0
C1303 C 0.21236 0.25104 0.6478 0.0
C1304 C 0.24885 0.21278 0.65077 0.0
C1305 C 0.23622 0.22591 0.65025 0.0
H1306 H 0.20301 0.31138 0.62381 0.0
H1307 H 0.22689 0.2966 0.63812 0.0
H1308 H 0.19258 0.22978 0.67233 0.0
H1309 H 0.28138 0.20068 0.68214 0.0
H1310 H 0.25303 0.21405 0.68243 0.0
C1311 C 0.73116 0.91899 0.61452 0.0
C1312 C 0.74282 0.90617 0.61439 0.0
C1313 C 0.74312 0.94292 0.61882 0.0
C1314 C 0.79492 0.99001 0.64235 0.0
H1315 H 0.78726 0.02994 0.60506 0.0
C1316 C 0.84045 0.0867 0.65818 0.0
C1317 C 0.82574 0.09611 0.65728 0.0
C1318 C 0.83475 0.06613 0.64797 0.0
C1319 C 0.78956 0.01906 0.61562 0.0
H1320 H 0.77587 0.90817 0.6199 0.0
H1321 H 0.7965 0.94979 0.62809 0.0
H1322 H 0.76656 0.98756 0.59981 0.0
H1323 H 0.79501 0.09324 0.64372 0.0
H1324 H 0.78428 0.05663 0.62657 0.0
H1325 H 0.81692 0.02098 0.65872 0.0
C1326 C 0.77818 0.94132 0.6246 0.0
C1327 C 0.77766 0.99482 0.61264 0.0
C1328 C 0.76629 0.91743 0.62009 0.0
C1329 C 0.80661 0.0862 0.64448 0.0
C1330 C 0.80052 0.06521 0.63466 0.0
C1331 C 0.80658 0.01415 0.64545 0.0
C1332 C 0.76688 0.95441 0.62334 0.0
C1333 C 0.78001 0.98009 0.62614 0.0
C1334 C 0.81377 0.05418 0.63735 0.0
C1335 C 0.80386 0.029 0.63227 0.0
H1336 H 0.71299 0.91071 0.6105 0.0
H1337 H 0.73391 0.95256 0.61823 0.0
H1338 H 0.79692 0.97902 0.65301 0.0
H1339 H 0.85542 0.09431 0.66792 0.0
H1340 H 0.84583 0.05859 0.64974 0.0
C1341 C 0.49577 0.40776 0.71344 0.0
C1342 C 0.50201 0.4169 0.73255 0.0
C1343 C 0.48442 0.38356 0.71022 0.0
C1344 C 0.44986 0.327 0.73535 0.0
H1345 H 0.46274 0.3034 0.68776 0.0
C1346 C 0.38379 0.24594 0.69405 0.0
C1347 C 0.3916 0.23671 0.67938 0.0
C1348 C 0.39961 0.26282 0.70714 0.0
C1349 C 0.45923 0.3094 0.70144 0.0
H1350 H 0.50207 0.40815 0.76318 0.0
H1351 H 0.48258 0.36607 0.75755 0.0
H1352 H 0.48608 0.34443 0.69618 0.0
H1353 H 0.42091 0.23472 0.66846 0.0
H1354 H 0.4485 0.26325 0.69202 0.0
H1355 H 0.42283 0.29187 0.7405 0.0
C1356 C 0.48583 0.3774 0.7451 0.0
C1357 C 0.47238 0.33316 0.70603 0.0
C1358 C 0.49696 0.4015 0.74832 0.0
C1359 C 0.41466 0.24183 0.67967 0.0
C1360 C 0.43043 0.25834 0.69302 0.0
C1361 C 0.43675 0.30311 0.73082 0.0
C1362 C 0.47942 0.36811 0.72603 0.0
C1363 C 0.46729 0.3424 0.7226 0.0
C1364 C 0.42343 0.27057 0.70566 0.0
C1365 C 0.44069 0.29416 0.71339 0.0
H1366 H 0.49947 0.41929 0.70107 0.0
H1367 H 0.47933 0.37695 0.69536 0.0
H1368 H 0.44553 0.33353 0.74831 0.0
H1369 H 0.366 0.24218 0.69396 0.0
H1370 H 0.39343 0.27161 0.71673 0.0
C1371 C 0.57444 0.04905 0.71555 0.0
C1372 C 0.56569 0.06445 0.71658 0.0
C1373 C 0.59752 0.05732 0.71048 0.0
C1374 C 0.64941 0.10852 0.68947 0.0
H1375 H 0.68237 0.08489 0.72011 0.0
C1376 C 0.74431 0.13376 0.67447 0.0
C1377 C 0.75839 0.13558 0.6906 0.0
C1378 C 0.72082 0.12599 0.67698 0.0
C1379 C 0.67351 0.0919 0.71158 0.0
H1380 H 0.57415 0.10051 0.71312 0.0
H1381 H 0.61431 0.11496 0.70459 0.0
H1382 H 0.64112 0.06874 0.72481 0.0
H1383 H 0.75928 0.13212 0.72216 0.0
H1384 H 0.71843 0.11929 0.72668 0.0
H1385 H 0.68206 0.13234 0.6768 0.0
C1386 C 0.60333 0.09642 0.70716 0.0
C1387 C 0.64973 0.08231 0.71402 0.0
C1388 C 0.58029 0.08813 0.71208 0.0
C1389 C 0.74876 0.13052 0.70942 0.0
C1390 C 0.72533 0.12304 0.71197 0.0
C1391 C 0.67327 0.11824 0.68713 0.0
C1392 C 0.61234 0.0812 0.70657 0.0
C1393 C 0.63739 0.09055 0.70306 0.0
C1394 C 0.71095 0.12014 0.69573 0.0
C1395 C 0.68563 0.11011 0.69823 0.0
H1396 H 0.56349 0.03069 0.71885 0.0
H1397 H 0.60381 0.04506 0.70983 0.0
H1398 H 0.64039 0.11512 0.68064 0.0
H1399 H 0.75123 0.1375 0.65976 0.0
H1400 H 0.71025 0.12378 0.66412 0.0
C1401 C 0.89074 0.48259 0.72829 0.0
C1402 C 0.91393 0.4924 0.73461 0.0
C1403 C 0.8805 0.49646 0.72626 0.0
C1404 C 0.89545 0.55846 0.72148 0.0
H1405 H 0.82903 0.5314 0.72687 0.0
C1406 C 0.85539 0.6117 0.69847 0.0
C1407 C 0.84199 0.601 0.68159 0.0
C1408 C 0.85934 0.59838 0.71215 0.0
C1409 C 0.84764 0.53926 0.72564 0.0
H1410 H 0.9444 0.52474 0.74381 0.0
H1411 H 0.92621 0.54864 0.74132 0.0
H1412 H 0.84735 0.50868 0.73623 0.0
H1413 H 0.82021 0.56804 0.66664 0.0
H1414 H 0.82672 0.54462 0.69071 0.0
H1415 H 0.89566 0.5889 0.71076 0.0
C1416 C 0.91608 0.53029 0.73738 0.0
C1417 C 0.85815 0.52619 0.73072 0.0
C1418 C 0.92648 0.51648 0.73903 0.0
C1419 C 0.83031 0.57655 0.67975 0.0
C1420 C 0.83407 0.56319 0.69353 0.0
C1421 C 0.88502 0.57163 0.71681 0.0
C1422 C 0.89294 0.52049 0.73088 0.0
C1423 C 0.88211 0.53534 0.72807 0.0
C1424 C 0.84997 0.57424 0.70903 0.0
C1425 C 0.86095 0.56194 0.7183 0.0
H1426 H 0.88021 0.46405 0.72519 0.0
H1427 H 0.86284 0.48827 0.72082 0.0
H1428 H 0.9138 0.56609 0.71888 0.0
H1429 H 0.86521 0.63057 0.69984 0.0
H1430 H 0.87162 0.60727 0.72403 0.0
C1431 C 0.50383 0.9887 0.22657 0.0
C1432 C 0.48193 0.97289 0.23416 0.0
C1433 C 0.50676 0.99279 0.20636 0.0
C1434 C 0.47433 0.98727 0.16068 0.0
H1435 H 0.52365 0.98319 0.13438 0.0
C1436 C 0.47073 0.97251 0.07805 0.0
C1437 C 0.49081 0.98638 0.0672 0.0
C1438 C 0.47172 0.97194 0.09845 0.0
C1439 C 0.50998 0.98467 0.14155 0.0
H1440 H 0.44598 0.94891 0.22623 0.0
H1441 H 0.45101 0.95649 0.19132 0.0
H1442 H 0.5216 0.98174 0.1703 0.0
H1443 H 0.52797 0.00952 0.06922 0.0
H1444 H 0.52969 0.00863 0.10518 0.0
H1445 H 0.4625 0.98995 0.13213 0.0
C1446 C 0.46588 0.96592 0.20098 0.0
C1447 C 0.50883 0.98389 0.16209 0.0
C1448 C 0.46298 0.96169 0.22108 0.0
C1449 C 0.51219 -0.00126 0.0772 0.0
C1450 C 0.51317 -0.00178 0.09776 0.0
C1451 C 0.4755 0.98809 0.14025 0.0
C1452 C 0.48781 0.98132 0.19336 0.0
C1453 C 0.49069 0.98469 0.17182 0.0
C1454 C 0.49281 0.9853 0.1086 0.0
C1455 C 0.49301 0.98627 0.13041 0.0
H1456 H 0.51875 0.99774 0.23623 0.0
H1457 H 0.52383 0.00491 0.2009 0.0
H1458 H 0.46042 0.98839 0.16777 0.0
H1459 H 0.45403 0.96243 0.07081 0.0
H1460 H 0.45583 0.96128 0.10633 0.0
C1461 C 0.02622 0.52614 0.21779 0.0
C1462 C 0.04582 0.52376 0.22067 0.0
C1463 C 0.02034 0.53007 0.19903 0.0
C1464 C 0.04708 0.5559 0.15228 0.0
H1465 H 0.98504 0.52065 0.13041 0.0
C1466 C 0.02579 0.54812 0.06994 0.0
C1467 C 0.003 0.54119 0.06408 0.0
C1468 C 0.03225 0.55269 0.08974 0.0
C1469 C 0.00236 0.53117 0.13643 0.0
H1470 H 0.07425 0.52292 0.20626 0.0
H1471 H 0.06397 0.52978 0.17342 0.0
H1472 H 0.99271 0.51252 0.16353 0.0
H1473 H 0.97039 0.53743 0.07355 0.0
H1474 H 0.98198 0.54646 0.10795 0.0
H1475 H 0.05684 0.57448 0.12517 0.0
C1476 C 0.05322 0.52868 0.18567 0.0
C1477 C 0.00674 0.52629 0.15538 0.0
C1478 C 0.0589 0.52442 0.20438 0.0
C1479 C 0.98797 0.54239 0.07777 0.0
C1480 C 0.99452 0.54725 0.09751 0.0
C1481 C 0.04266 0.56097 0.13339 0.0
C1482 C 0.0342 0.53206 0.1829 0.0
C1483 C 0.02924 0.53824 0.16331 0.0
C1484 C 0.01612 0.55072 0.10392 0.0
C1485 C 0.02033 0.54832 0.12505 0.0
H1486 H 0.01594 0.52579 0.23017 0.0
H1487 H 0.00555 0.53256 0.19727 0.0
H1488 H 0.06452 0.56569 0.15824 0.0
H1489 H 0.03778 0.54737 0.05972 0.0
H1490 H 0.04909 0.55543 0.09405 0.0
C1491 C 0.50629 0.52814 0.22617 0.0
C1492 C 0.48458 0.52365 0.23277 0.0
C1493 C 0.51039 0.52813 0.20608 0.0
C1494 C 0.48044 0.51256 0.1571 0.0
H1495 H 0.54143 0.55803 0.13854 0.0
C1496 C 0.49697 0.5276 0.07557 0.0
C1497 C 0.51008 0.5173 0.07002 0.0
C1498 C 0.49743 0.53451 0.09509 0.0
C1499 C 0.52429 0.54549 0.14361 0.0
H1500 H 0.45006 0.51528 0.22385 0.0
H1501 H 0.45725 0.51605 0.18892 0.0
H1502 H 0.53364 0.55471 0.17377 0.0
H1503 H 0.53587 0.50858 0.0795 0.0
H1504 H 0.5375 0.52171 0.11341 0.0
H1505 H 0.47107 0.50382 0.12686 0.0
C1506 C 0.47101 0.51881 0.19902 0.0
C1507 C 0.51986 0.54325 0.16376 0.0
C1508 C 0.46681 0.51833 0.21908 0.0
C1509 C 0.52579 0.51671 0.0835 0.0
C1510 C 0.52669 0.52416 0.10286 0.0
C1511 C 0.48473 0.5152 0.13703 0.0
C1512 C 0.493 0.52419 0.19221 0.0
C1513 C 0.4979 0.52658 0.17079 0.0
C1514 C 0.51144 0.53169 0.10903 0.0
C1515 C 0.50669 0.53155 0.13013 0.0
H1516 H 0.52025 0.53237 0.23655 0.0
H1517 H 0.52734 0.53172 0.20145 0.0
H1518 H 0.4635 0.49917 0.16184 0.0
H1519 H 0.48451 0.52789 0.06544 0.0
H1520 H 0.48552 0.54026 0.09962 0.0
C1521 C 0.97174 0.4869 0.78792 0.0
C1522 C 0.95704 0.46577 0.77794 0.0
C1523 C 0.97842 0.4867 0.80742 0.0
C1524 C 0.98385 0.4506 0.84543 0.0
H1525 H 0.96564 0.48385 0.8817 0.0
C1526 C 0.01155 0.47574 0.9267 0.0
C1527 C 0.99465 0.47503 0.93931 0.0
C1528 C 0.00585 0.4681 0.90726 0.0
C1529 C 0.97056 0.47427 0.87172 0.0
H1530 H 0.93807 0.42784 0.78097 0.0
H1531 H 0.95069 0.42773 0.81422 0.0
H1532 H 0.96169 0.48734 0.8464 0.0
H1533 H 0.95817 0.46315 0.94255 0.0
H1534 H 0.94821 0.45006 0.90838 0.0
H1535 H 0.9932 0.43797 0.87089 0.0
C1536 C 0.9571 0.44436 0.80693 0.0
C1537 C 0.9687 0.47662 0.85158 0.0
C1538 C 0.95004 0.44452 0.78772 0.0
C1539 C 0.97143 0.46371 0.93309 0.0
C1540 C 0.9658 0.45647 0.91352 0.0
C1541 C 0.98615 0.44861 0.86563 0.0
C1542 C 0.97087 0.46538 0.8171 0.0
C1543 C 0.9752 0.46472 0.83828 0.0
C1544 C 0.98327 0.46005 0.90023 0.0
C1545 C 0.97926 0.46023 0.87892 0.0
H1546 H 0.9776 0.50356 0.78084 0.0
H1547 H 0.98912 0.50317 0.81506 0.0
H1548 H 0.98887 0.44119 0.83537 0.0
H1549 H 0.02958 0.4845 0.93125 0.0
H1550 H 0.01959 0.47097 0.89729 0.0
C1551 C 0.53426 0.4844 0.79437 0.0
C1552 C 0.51819 0.48002 0.77919 0.0
C1553 C 0.52783 0.48341 0.81393 0.0
C1554 C 0.48599 0.48408 0.84776 0.0
H1555 H 0.49526 0.43913 0.87712 0.0
C1556 C 0.45357 0.46295 0.92609 0.0
C1557 C 0.47004 0.46413 0.9397 0.0
C1558 C 0.45623 0.46048 0.90607 0.0
C1559 C 0.49267 0.45184 0.86921 0.0
H1560 H 0.48361 0.47323 0.77235 0.0
H1561 H 0.47254 0.47227 0.80673 0.0
H1562 H 0.50879 0.44817 0.8434 0.0
H1563 H 0.50056 0.46075 0.94334 0.0
H1564 H 0.50551 0.45694 0.9085 0.0
H1565 H 0.47067 0.48852 0.87362 0.0
C1566 C 0.48996 0.47611 0.80344 0.0
C1567 C 0.50047 0.45704 0.84993 0.0
C1568 C 0.49628 0.47672 0.78384 0.0
C1569 C 0.4876 0.45994 0.93319 0.0
C1570 C 0.49046 0.45782 0.91313 0.0
C1571 C 0.47846 0.47913 0.86713 0.0
C1572 C 0.50534 0.47837 0.81861 0.0
C1573 C 0.49732 0.4733 0.8391 0.0
C1574 C 0.47556 0.45944 0.89928 0.0
C1575 C 0.48177 0.46299 0.87814 0.0
H1576 H 0.55118 0.48673 0.79118 0.0
H1577 H 0.54007 0.48552 0.82541 0.0
H1578 H 0.48343 0.49672 0.83969 0.0
H1579 H 0.43968 0.46583 0.93076 0.0
H1580 H 0.44393 0.4609 0.89584 0.0
C1581 C 0.50189 0.04284 0.78399 0.0
C1582 C 0.50787 0.03097 0.7701 0.0
C1583 C 0.49752 0.03539 0.80339 0.0
C1584 C 0.51017 0.00176 0.83929 0.0
H1585 H 0.46364 0.00591 0.87021 0.0
C1586 C 0.49498 0.97076 0.91812 0.0
C1587 C 0.49607 0.98708 0.93204 0.0
C1588 C 0.49184 0.97339 0.89828 0.0
C1589 C 0.47672 0.00473 0.86174 0.0
H1590 H 0.51365 0.00181 0.76553 0.0
H1591 H 0.50559 0.9884 0.79947 0.0
H1592 H 0.46723 0.01535 0.83526 0.0
H1593 H 0.49282 0.01786 0.93635 0.0
H1594 H 0.48759 0.0227 0.90136 0.0
H1595 H 0.51979 0.99135 0.86566 0.0
C1596 C 0.50462 0.00372 0.7954 0.0
C1597 C 0.47883 0.01016 0.84176 0.0
C1598 C 0.50916 0.01131 0.77597 0.0
C1599 C 0.49207 0.00505 0.9259 0.0
C1600 C 0.48908 0.0078 0.9059 0.0
C1601 C 0.50796 0.99621 0.85914 0.0
C1602 C 0.49895 0.01582 0.80938 0.0
C1603 C 0.49568 0.00885 0.83033 0.0
C1604 C 0.4899 0.99251 0.89186 0.0
C1605 C 0.49126 0.99767 0.87061 0.0
H1606 H 0.50126 0.05838 0.78 0.0
H1607 H 0.49372 0.04543 0.81382 0.0
H1608 H 0.52369 0.0011 0.83109 0.0
H1609 H 0.49758 0.95647 0.92248 0.0
H1610 H 0.49193 0.96099 0.88783 0.0
C1611 C 0.1738 0.31442 0.5554 0.0
C1612 C 0.15234 0.29664 0.56209 0.0
C1613 C 0.17954 0.31547 0.53558 0.0
C1614 C 0.1534 0.29332 0.48615 0.0
H1615 H 0.21721 0.31554 0.47178 0.0
C1616 C 0.17725 0.30298 0.40569 0.0
C1617 C 0.19298 0.32654 0.40165 0.0
C1618 C 0.17523 0.29463 0.42482 0.0
C1619 C 0.19929 0.30908 0.47561 0.0
H1620 H 0.12013 0.26589 0.5534 0.0
H1621 H 0.13021 0.26738 0.51897 0.0
H1622 H 0.20665 0.31115 0.50641 0.0
H1623 H 0.22092 0.35894 0.41364 0.0
H1624 H 0.21777 0.34428 0.44687 0.0
H1625 H 0.14611 0.29149 0.45539 0.0
C1626 C 0.14246 0.28093 0.52882 0.0
C1627 C 0.19325 0.30682 0.49544 0.0
C1628 C 0.13662 0.28007 0.54857 0.0
C1629 C 0.20865 0.3407 0.41639 0.0
C1630 C 0.20683 0.33229 0.43544 0.0
C1631 C 0.15939 0.29531 0.46638 0.0
C1632 C 0.16406 0.29855 0.52205 0.0
C1633 C 0.1703 0.2994 0.50098 0.0
C1634 C 0.18909 0.30967 0.44008 0.0
C1635 C 0.18247 0.30366 0.46089 0.0
H1636 H 0.1862 0.32743 0.56555 0.0
H1637 H 0.19611 0.32962 0.53088 0.0
H1638 H 0.13564 0.28789 0.48976 0.0
H1639 H 0.1648 0.29173 0.39466 0.0
H1640 H 0.16161 0.27701 0.42797 0.0
C1641 C 0.72084 0.8634 0.54102 0.0
C1642 C 0.70496 0.85703 0.55633 0.0
C1643 C 0.7149 0.86701 0.52221 0.0
C1644 C 0.66572 0.8525 0.48967 0.0
H1645 H 0.71048 0.90641 0.46048 0.0
C1646 C 0.64516 0.85967 0.41111 0.0
C1647 C 0.66217 0.86031 0.39869 0.0
C1648 C 0.65062 0.8673 0.43055 0.0
C1649 C 0.69778 0.89137 0.46848 0.0
H1650 H 0.67049 0.84915 0.56433 0.0
H1651 H 0.65962 0.85462 0.53111 0.0
H1652 H 0.719 0.9012 0.49448 0.0
H1653 H 0.69872 0.87244 0.39576 0.0
H1654 H 0.70833 0.88551 0.42983 0.0
H1655 H 0.64488 0.84202 0.46365 0.0
C1656 C 0.6767 0.85693 0.53364 0.0
C1657 C 0.70269 0.88831 0.48788 0.0
C1658 C 0.68279 0.85364 0.55255 0.0
C1659 C 0.68533 0.87186 0.40508 0.0
C1660 C 0.69079 0.87924 0.42467 0.0
C1661 C 0.66084 0.85551 0.47033 0.0
C1662 C 0.69289 0.86415 0.51839 0.0
C1663 C 0.6869 0.86856 0.4985 0.0
C1664 C 0.67311 0.87531 0.43792 0.0
C1665 C 0.67698 0.87474 0.45936 0.0
H1666 H 0.73819 0.86653 0.54381 0.0
H1667 H 0.7276 0.87223 0.51068 0.0
H1668 H 0.65334 0.837 0.49741 0.0
H1669 H 0.62718 0.85098 0.40639 0.0
H1670 H 0.63678 0.86474 0.44028 0.0
C1671 C 0.16881 0.85137 0.5464 0.0
C1672 C 0.14854 0.85116 0.55214 0.0
C1673 C 0.17491 0.85357 0.52662 0.0
C1674 C 0.15289 0.852 0.47587 0.0
H1675 H 0.21819 0.89211 0.46497 0.0
C1676 C 0.18203 0.87346 0.39706 0.0
C1677 C 0.1963 0.86415 0.3923 0.0
C1678 C 0.17952 0.87811 0.41666 0.0
C1679 C 0.1999 0.88104 0.46784 0.0
H1680 H 0.11821 0.85201 0.54177 0.0
H1681 H 0.12891 0.85622 0.50735 0.0
H1682 H 0.20525 0.88407 0.49894 0.0
H1683 H 0.22186 0.85602 0.40364 0.0
H1684 H 0.21802 0.86484 0.43773 0.0
H1685 H 0.14759 0.84908 0.44476 0.0
C1686 C 0.14 0.8543 0.51794 0.0
C1687 C 0.19248 0.87614 0.48727 0.0
C1688 C 0.13378 0.85179 0.53769 0.0
C1689 C 0.21065 0.86307 0.40696 0.0
C1690 C 0.20839 0.86805 0.4265 0.0
C1691 C 0.16028 0.85716 0.45649 0.0
C1692 C 0.16101 0.85595 0.51222 0.0
C1693 C 0.1689 0.86129 0.49153 0.0
C1694 C 0.19161 0.87399 0.43164 0.0
C1695 C 0.18387 0.87153 0.45226 0.0
H1696 H 0.18042 0.8508 0.55731 0.0
H1697 H 0.19086 0.85407 0.5227 0.0
H1698 H 0.13468 0.84024 0.47851 0.0
H1699 H 0.17076 0.87449 0.38607 0.0
H1700 H 0.16674 0.88308 0.42026 0.0
C1701 C 0.64002 0.80797 0.12 0.0
C1702 C 0.6205 0.80992 0.11532 0.0
C1703 C 0.64471 0.80501 0.13949 0.0
C1704 C 0.62831 0.80874 0.19089 0.0
H1705 H 0.64838 0.76376 0.20102 0.0
C1706 C 0.63405 0.78682 0.26872 0.0
C1707 C 0.65748 0.79569 0.27352 0.0
C1708 C 0.62642 0.7806 0.24933 0.0
C1709 C 0.64255 0.77615 0.19832 0.0
H1710 H 0.59098 0.81091 0.12737 0.0
H1711 H 0.59894 0.8056 0.16104 0.0
H1712 H 0.64379 0.77308 0.16709 0.0
H1713 H 0.69037 0.80131 0.26285 0.0
H1714 H 0.67702 0.79028 0.229 0.0
H1715 H 0.62695 0.81178 0.22198 0.0
C1716 C 0.61098 0.80681 0.1499 0.0
C1717 C 0.64024 0.78178 0.17896 0.0
C1718 C 0.60644 0.80998 0.13053 0.0
C1719 C 0.67222 0.79459 0.25943 0.0
C1720 C 0.66457 0.78829 0.24005 0.0
C1721 C 0.63025 0.80287 0.21011 0.0
C1722 C 0.62984 0.80373 0.15459 0.0
C1723 C 0.63316 0.79822 0.17505 0.0
C1724 C 0.64217 0.78317 0.23462 0.0
C1725 C 0.63741 0.78656 0.21404 0.0
H1726 H 0.65115 0.80793 0.10851 0.0
H1727 H 0.65968 0.80321 0.14266 0.0
H1728 H 0.62333 0.82184 0.18849 0.0
H1729 H 0.62241 0.78784 0.27916 0.0
H1730 H 0.60895 0.77637 0.24548 0.0
C1731 C 0.19864 0.802 0.12497 0.0
C1732 C 0.19016 0.80859 0.10882 0.0
C1733 C 0.18881 0.79969 0.14342 0.0
C1734 C 0.15519 0.81692 0.17401 0.0
H1735 H 0.13911 0.7597 0.20186 0.0
C1736 C 0.12612 0.80983 0.25192 0.0
C1737 C 0.1403 0.8056 0.26456 0.0
C1738 C 0.12369 0.80304 0.23222 0.0
C1739 C 0.14342 0.77572 0.19426 0.0
H1740 H 0.16551 0.81871 0.09906 0.0
H1741 H 0.14885 0.81569 0.1317 0.0
H1742 H 0.15478 0.76533 0.16873 0.0
H1743 H 0.16032 0.78821 0.26751 0.0
H1744 H 0.1565 0.77663 0.23309 0.0
H1745 H 0.14509 0.82799 0.19968 0.0
C1746 C 0.16294 0.81211 0.13005 0.0
C1747 C 0.15247 0.77898 0.17535 0.0
C1748 C 0.17254 0.81404 0.11149 0.0
C1749 C 0.14916 0.79149 0.25802 0.0
C1750 C 0.14705 0.78499 0.2382 0.0
C1751 C 0.14634 0.81377 0.19295 0.0
C1752 C 0.17048 0.80414 0.14602 0.0
C1753 C 0.15897 0.79985 0.16527 0.0
C1754 C 0.13582 0.79235 0.22483 0.0
C1755 C 0.14084 0.79335 0.20351 0.0
H1756 H 0.21192 0.79728 0.12306 0.0
H1757 H 0.19517 0.79388 0.15556 0.0
H1758 H 0.16014 0.8332 0.16658 0.0
H1759 H 0.1191 0.82068 0.25673 0.0
H1760 H 0.11426 0.80826 0.22243 0.0
C1761 C 0.19641 0.38689 0.12622 0.0
C1762 C 0.17991 0.37166 0.11247 0.0
C1763 C 0.19143 0.38448 0.14623 0.0
C1764 C 0.14113 0.35739 0.18003 0.0
H1765 H 0.18886 0.37223 0.21939 0.0
C1766 C 0.12883 0.32215 0.25852 0.0
C1767 C 0.14411 0.3369 0.27322 0.0
C1768 C 0.12972 0.33056 0.23961 0.0
C1769 C 0.17543 0.36852 0.20857 0.0
H1770 H 0.14584 0.34131 0.10871 0.0
H1771 H 0.13756 0.33609 0.14377 0.0
H1772 H 0.19883 0.37628 0.18486 0.0
H1773 H 0.17035 0.37252 0.28044 0.0
H1774 H 0.17218 0.38716 0.24722 0.0
H1775 H 0.11752 0.34817 0.20401 0.0
C1776 C 0.154 0.35051 0.13915 0.0
C1777 C 0.18113 0.37076 0.18872 0.0
C1778 C 0.15884 0.35319 0.11911 0.0
C1779 C 0.15829 0.36083 0.26938 0.0
C1780 C 0.1595 0.36915 0.25035 0.0
C1781 C 0.13537 0.35477 0.19991 0.0
C1782 C 0.16995 0.36655 0.15295 0.0
C1783 C 0.164 0.36492 0.17415 0.0
C1784 C 0.14618 0.35373 0.23509 0.0
C1785 C 0.15245 0.36009 0.21434 0.0
H1786 H 0.21258 0.40157 0.12139 0.0
H1787 H 0.20407 0.39734 0.1563 0.0
H1788 H 0.12756 0.35331 0.16928 0.0
H1789 H 0.11774 0.30363 0.26116 0.0
H1790 H 0.11925 0.31831 0.22813 0.0
C1791 C 0.80146 0.61585 0.88212 0.0
C1792 C 0.81631 0.63198 0.89632 0.0
C1793 C 0.80779 0.6184 0.86241 0.0
C1794 C 0.85903 0.64891 0.82989 0.0
H1795 H 0.81172 0.63105 0.78954 0.0
C1796 C 0.87357 0.67897 0.74887 0.0
C1797 C 0.8594 0.66255 0.7345 0.0
C1798 C 0.87137 0.67275 0.76865 0.0
C1799 C 0.82508 0.63574 0.80064 0.0
H1800 H 0.84917 0.66366 0.90109 0.0
H1801 H 0.85989 0.66884 0.86648 0.0
H1802 H 0.80086 0.62667 0.82386 0.0
H1803 H 0.83328 0.62624 0.72938 0.0
H1804 H 0.82939 0.61549 0.76391 0.0
H1805 H 0.88335 0.65913 0.80634 0.0
C1806 C 0.84364 0.65377 0.87059 0.0
C1807 C 0.81887 0.63324 0.82037 0.0
C1808 C 0.83744 0.651 0.89039 0.0
C1809 C 0.84455 0.63927 0.74006 0.0
C1810 C 0.84213 0.63315 0.75986 0.0
C1811 C 0.86528 0.65176 0.8101 0.0
C1812 C 0.82901 0.63735 0.85636 0.0
C1813 C 0.83575 0.63985 0.8353 0.0
C1814 C 0.85477 0.65009 0.77438 0.0
C1815 C 0.84835 0.64523 0.7953 0.0
H1816 H 0.78528 0.60074 0.88636 0.0
H1817 H 0.79624 0.60512 0.85203 0.0
H1818 H 0.87247 0.65377 0.84093 0.0
H1819 H 0.88519 0.69702 0.74499 0.0
H1820 H 0.88131 0.68615 0.77955 0.0
C1821 C 0.38505 0.18369 0.87538 0.0
C1822 C 0.37329 0.18682 0.89105 0.0
C1823 C 0.37839 0.18443 0.85605 0.0
C1824 C 0.33297 0.17953 0.82333 0.0
H1825 H 0.38298 0.22922 0.79414 0.0
C1826 C 0.3163 0.19663 0.7448 0.0
C1827 C 0.33289 0.19829 0.73133 0.0
C1828 C 0.3215 0.19985 0.76486 0.0
C1829 C 0.36885 0.21518 0.80198 0.0
H1830 H 0.34433 0.19123 0.89906 0.0
H1831 H 0.332 0.1915 0.86508 0.0
H1832 H 0.38994 0.22114 0.82764 0.0
H1833 H 0.36871 0.20736 0.72796 0.0
H1834 H 0.37768 0.21243 0.76283 0.0
H1835 H 0.31206 0.17269 0.79757 0.0
C1836 C 0.34657 0.18889 0.86779 0.0
C1837 C 0.37287 0.21055 0.82114 0.0
C1838 C 0.35353 0.18864 0.88715 0.0
C1839 C 0.35556 0.20598 0.738 0.0
C1840 C 0.36067 0.20882 0.7581 0.0
C1841 C 0.32902 0.18387 0.80404 0.0
C1842 C 0.3596 0.18785 0.85212 0.0
C1843 C 0.35503 0.19256 0.83189 0.0
C1844 C 0.34329 0.20443 0.77184 0.0
C1845 C 0.34697 0.20165 0.79303 0.0
H1846 H 0.40049 0.18254 0.87804 0.0
H1847 H 0.38852 0.18335 0.84415 0.0
H1848 H 0.31897 0.16557 0.83137 0.0
H1849 H 0.29874 0.191 0.73998 0.0
H1850 H 0.30795 0.19723 0.77495 0.0
C1851 C 0.82507 0.21537 0.88021 0.0
C1852 C 0.81561 0.19422 0.8905 0.0
C1853 C 0.82766 0.21573 0.85994 0.0
C1854 C 0.80825 0.17812 0.81542 0.0
H1855 H 0.86565 0.22736 0.79381 0.0
C1856 C 0.84536 0.16969 0.74307 0.0
C1857 C 0.85029 0.18663 0.72859 0.0
C1858 C 0.83984 0.17285 0.76201 0.0
C1859 C 0.84937 0.21383 0.79962 0.0
H1860 H 0.80083 0.15674 0.88761 0.0
H1861 H 0.80582 0.15731 0.85195 0.0
H1862 H 0.85834 0.22744 0.82889 0.0
H1863 H 0.85383 0.2205 0.72287 0.0
H1864 H 0.8452 0.22666 0.75686 0.0
H1865 H 0.79998 0.1639 0.7862 0.0
C1866 C 0.81101 0.17364 0.85962 0.0
C1867 C 0.84515 0.21378 0.81969 0.0
C1868 C 0.80826 0.17327 0.88001 0.0
C1869 C 0.85023 0.20726 0.73374 0.0
C1870 C 0.84523 0.21071 0.75306 0.0
C1871 C 0.81259 0.17807 0.79541 0.0
C1872 C 0.82091 0.19494 0.84939 0.0
C1873 C 0.82471 0.19569 0.82788 0.0
C1874 C 0.83952 0.19322 0.76716 0.0
C1875 C 0.83336 0.19569 0.78744 0.0
H1876 H 0.83029 0.23174 0.88785 0.0
H1877 H 0.83482 0.23235 0.85252 0.0
H1878 H 0.79214 0.16423 0.82115 0.0
H1879 H 0.84482 0.15337 0.73964 0.0
H1880 H 0.83572 0.15925 0.77269 0.0
C1881 C 0.29987 0.15155 0.45009 0.0
C1882 C 0.28248 0.13056 0.44159 0.0
C1883 C 0.30723 0.15196 0.46944 0.0
C1884 C 0.3084 0.11496 0.50915 0.0
H1885 H 0.3092 0.1624 0.54353 0.0
C1886 C 0.31095 0.13463 0.59637 0.0
C1887 C 0.33411 0.15126 0.60071 0.0
C1888 C 0.30439 0.12639 0.57709 0.0
C1889 C 0.30889 0.14901 0.53403 0.0
H1890 H 0.25907 0.0936 0.44695 0.0
H1891 H 0.27238 0.09432 0.48027 0.0
H1892 H 0.29997 0.16191 0.50867 0.0
H1893 H 0.36894 0.16995 0.58927 0.0
H1894 H 0.35745 0.15507 0.55574 0.0
H1895 H 0.31776 0.10242 0.53474 0.0
C1896 C 0.28051 0.11034 0.47192 0.0
C1897 C 0.30391 0.1489 0.51413 0.0
C1898 C 0.273 0.10996 0.45274 0.0
C1899 C 0.35097 0.15718 0.58621 0.0
C1900 C 0.34445 0.14868 0.56709 0.0
C1901 C 0.31368 0.11526 0.5291 0.0
C1902 C 0.29743 0.13136 0.48055 0.0
C1903 C 0.30366 0.13191 0.50149 0.0
C1904 C 0.32102 0.13429 0.56225 0.0
C1905 C 0.31386 0.13228 0.54159 0.0
H1906 H 0.30757 0.16766 0.44187 0.0
H1907 H 0.32044 0.16839 0.47579 0.0
H1908 H 0.30832 0.10169 0.49965 0.0
H1909 H 0.29764 0.12994 0.60728 0.0
H1910 H 0.28618 0.11542 0.57348 0.0
C1911 C 0.85223 0.12419 0.45603 0.0
C1912 C 0.84377 0.13173 0.44051 0.0
C1913 C 0.84353 0.12235 0.47487 0.0
C1914 C 0.81386 0.14344 0.5068 0.0
H1915 H 0.8013 0.08931 0.53792 0.0
C1916 C 0.78738 0.14082 0.58527 0.0
C1917 C 0.80265 0.13875 0.59828 0.0
C1918 C 0.78517 0.13302 0.5659 0.0
C1919 C 0.80463 0.10445 0.52938 0.0
H1920 H 0.81999 0.14352 0.43213 0.0
H1921 H 0.80494 0.14084 0.46542 0.0
H1922 H 0.81341 0.09163 0.5038 0.0
H1923 H 0.82512 0.12419 0.60226 0.0
H1924 H 0.82159 0.11078 0.56825 0.0
H1925 H 0.80595 0.15673 0.5324 0.0
C1926 C 0.81829 0.13634 0.46302 0.0
C1927 C 0.81166 0.10585 0.50991 0.0
C1928 C 0.82689 0.13797 0.44406 0.0
C1929 C 0.8132 0.1259 0.59246 0.0
C1930 C 0.81122 0.11832 0.57294 0.0
C1931 C 0.80685 0.14205 0.52622 0.0
C1932 C 0.82624 0.12808 0.47853 0.0
C1933 C 0.81679 0.12558 0.49856 0.0
C1934 C 0.79847 0.12334 0.55919 0.0
C1935 C 0.80251 0.12273 0.53785 0.0
H1936 H 0.8651 0.11906 0.45341 0.0
H1937 H 0.85029 0.11635 0.48658 0.0
H1938 H 0.81796 0.15898 0.49852 0.0
H1939 H 0.77892 0.15053 0.58953 0.0
H1940 H 0.77468 0.13648 0.55576 0.0
C1941 C 0.84505 0.68585 0.44717 0.0
C1942 C 0.8448 0.7053 0.43936 0.0
C1943 C 0.83908 0.6797 0.46673 0.0
C1944 C 0.81226 0.69117 0.51043 0.0
H1945 H 0.84676 0.66701 0.53804 0.0
C1946 C 0.82391 0.68219 0.59573 0.0
C1947 C 0.8206 0.66005 0.60054 0.0
C1948 C 0.82176 0.68734 0.57613 0.0
C1949 C 0.83693 0.67366 0.53046 0.0
H1950 H 0.83826 0.73368 0.44563 0.0
H1951 H 0.82877 0.72361 0.48001 0.0
H1952 H 0.85442 0.6769 0.50362 0.0
H1953 H 0.80973 0.62521 0.5894 0.0
H1954 H 0.80588 0.63416 0.55543 0.0
H1955 H 0.7955 0.68862 0.53796 0.0
C1956 C 0.83278 0.71255 0.471 0.0
C1957 C 0.84115 0.67915 0.51067 0.0
C1958 C 0.83834 0.71843 0.45134 0.0
C1959 C 0.81259 0.64247 0.58601 0.0
C1960 C 0.81041 0.64757 0.5666 0.0
C1961 C 0.80831 0.686 0.53044 0.0
C1962 C 0.83326 0.69322 0.47902 0.0
C1963 C 0.82869 0.68769 0.50026 0.0
C1964 C 0.8162 0.67033 0.56134 0.0
C1965 C 0.82043 0.67691 0.54048 0.0
H1966 H 0.8498 0.67539 0.43811 0.0
H1967 H 0.83911 0.66435 0.47221 0.0
H1968 H 0.80219 0.69755 0.50288 0.0
H1969 H 0.83022 0.69605 0.60669 0.0
H1970 H 0.82634 0.70504 0.57233 0.0
loop_
_geom_bond_atom_site_label_1
_geom_bond_atom_site_label_2
_geom_bond_distance
_geom_bond_site_symmetry_2
_ccdc_geom_bond_type
H0 C3 0.931 . S
H1 C6 0.928 . S
H2 C8 0.930 . S
C3 H0 0.931 . S
C3 C4 1.413 . S
C3 C5 1.360 . S
C4 C3 1.413 . S
C4 C8 1.429 . S
C5 C3 1.360 . S
C5 C6 1.372 . S
C6 H1 0.928 . S
C6 C5 1.372 . S
C6 C7 1.404 . S
C7 C6 1.404 . S
C7 C8 1.391 . S
C8 H2 0.930 . S
C8 C4 1.429 . S
C8 C7 1.391 . S
H9 C12 0.931 . S
H10 C15 0.928 . S
H11 C17 0.930 . S
C12 H9 0.931 . S
C12 C13 1.413 . S
C12 C14 1.360 . S
C13 C12 1.413 . S
C13 C17 1.429 . S
C14 C12 1.360 . S
C14 C15 1.372 . S
C15 H10 0.928 . S
C15 C14 1.372 . S
C15 C16 1.404 . S
C16 C15 1.404 . S
C16 C17 1.391 . S
C17 H11 0.930 . S
C17 C13 1.429 . S
C17 C16 1.391 . S
H18 C21 0.931 . S
H19 C24 0.928 . S
H20 C26 0.930 . S
C21 H18 0.931 . S
C21 C22 1.413 . S
C21 C23 1.360 . S
C22 C21 1.413 . S
C22 C26 1.429 . S
C23 C21 1.360 . S
C23 C24 1.372 . S
C24 H19 0.928 . S
C24 C23 1.372 . S
C24 C25 1.404 . S
C25 C24 1.404 . S
C25 C26 1.391 . S
C26 H20 0.930 . S
C26 C22 1.429 . S
C26 C25 1.391 . S
H27 C30 0.931 . S
H28 C33 0.928 . S
H29 C35 0.930 . S
C30 H27 0.931 . S
C30 C31 1.413 . S
C30 C32 1.360 . S
C31 C30 1.413 . S
C31 C35 1.429 . S
C32 C30 1.360 . S
C32 C33 1.372 . S
C33 H28 0.928 . S
C33 C32 1.372 . S
C33 C34 1.404 . S
C34 C33 1.404 . S
C34 C35 1.391 . S
C35 H29 0.930 . S
C35 C31 1.429 . S
C35 C34 1.391 . S
H36 C39 0.931 . S
H37 C42 0.928 . S
H38 C44 0.930 . S
C39 H36 0.931 . S
C39 C40 1.413 . S
C39 C41 1.360 . S
C40 C39 1.413 . S
C40 C44 1.429 . S
C41 C39 1.360 . S
C41 C42 1.372 . S
C42 H37 0.928 . S
C42 C41 1.372 . S
C42 C43 1.404 . S
C43 C42 1.404 . S
C43 C44 1.391 . S
C44 H38 0.930 . S
C44 C40 1.429 . S
C44 C43 1.391 . S
H45 C48 0.931 . S
H46 C51 0.928 . S
H47 C53 0.930 . S
C48 H45 0.931 . S
C48 C49 1.413 . S
C48 C50 1.360 . S
C49 C48 1.413 . S
C49 C53 1.429 . S
C50 C48 1.360 . S
C50 C51 1.372 . S
C51 H46 0.928 . S
C51 C50 1.372 . S
C51 C52 1.404 . S
C52 C51 1.404 . S
C52 C53 1.391 . S
C53 H47 0.930 . S
C53 C49 1.429 . S
C53 C52 1.391 . S
H54 C57 0.931 . S
H55 C60 0.928 . S
H56 C62 0.930 . S
C57 H54 0.931 . S
C57 C58 1.413 . S
C57 C59 1.360 . S
C58 C57 1.413 . S
C58 C62 1.429 . S
C59 C57 1.360 . S
C59 C60 1.372 . S
C60 H55 0.928 . S
C60 C59 1.372 . S
C60 C61 1.404 . S
C61 C60 1.404 . S
C61 C62 1.391 . S
C62 H56 0.930 . S
C62 C58 1.429 . S
C62 C61 1.391 . S
H63 C66 0.931 . S
H64 C69 0.928 . S
H65 C71 0.930 . S
C66 H63 0.931 . S
C66 C67 1.413 . S
C66 C68 1.360 . S
C67 C66 1.413 . S
C67 C71 1.429 . S
C68 C66 1.360 . S
C68 C69 1.372 . S
C69 H64 0.928 . S
C69 C68 1.372 . S
C69 C70 1.404 . S
C70 C69 1.404 . S
C70 C71 1.391 . S
C71 H65 0.930 . S
C71 C67 1.429 . S
C71 C70 1.391 . S
H72 C75 0.931 . S
H73 C78 0.928 . S
H74 C80 0.930 . S
C75 H72 0.931 . S
C75 C76 1.413 . S
C75 C77 1.360 . S
C76 C75 1.413 . S
C76 C80 1.429 . S
C77 C75 1.360 . S
C77 C78 1.372 . S
C78 H73 0.928 . S
C78 C77 1.372 . S
C78 C79 1.404 . S
C79 C78 1.404 . S
C79 C80 1.391 . S
C80 H74 0.930 . S
C80 C76 1.429 . S
C80 C79 1.391 . S
H81 C84 0.931 . S
H82 C87 0.928 . S
H83 C89 0.930 . S
C84 H81 0.931 . S
C84 C85 1.413 . S
C84 C86 1.360 . S
C85 C84 1.413 . S
C85 C89 1.429 . S
C86 C84 1.360 . S
C86 C87 1.372 . S
C87 H82 0.928 . S
C87 C86 1.372 . S
C87 C88 1.404 . S
C88 C87 1.404 . S
C88 C89 1.391 . S
C89 H83 0.930 . S
C89 C85 1.429 . S
C89 C88 1.391 . S
H90 C93 0.931 . S
H91 C96 0.928 . S
H92 C98 0.930 . S
C93 H90 0.931 . S
C93 C94 1.413 . S
C93 C95 1.360 . S
C94 C93 1.413 . S
C94 C98 1.429 . S
C95 C93 1.360 . S
C95 C96 1.372 . S
C96 H91 0.928 . S
C96 C95 1.372 . S
C96 C97 1.404 . S
C97 C96 1.404 . S
C97 C98 1.391 . S
C98 H92 0.930 . S
C98 C94 1.429 . S
C98 C97 1.391 . S
H99 C102 0.931 . S
H100 C105 0.928 . S
H101 C107 0.930 . S
C102 H99 0.931 . S
C102 C103 1.413 . S
C102 C104 1.360 . S
C103 C102 1.413 . S
C103 C107 1.429 . S
C104 C102 1.360 . S
C104 C105 1.372 . S
C105 H100 0.928 . S
C105 C104 1.372 . S
C105 C106 1.404 . S
C106 C105 1.404 . S
C106 C107 1.391 . S
C107 H101 0.930 . S
C107 C103 1.429 . S
C107 C106 1.391 . S
H108 C111 0.931 . S
H109 C114 0.928 . S
H110 C116 0.930 . S
C111 H108 0.931 . S
C111 C112 1.413 . S
C111 C113 1.360 . S
C112 C111 1.413 . S
C112 C116 1.429 . S
C113 C111 1.360 . S
C113 C114 1.372 . S
C114 H109 0.928 . S
C114 C113 1.372 . S
C114 C115 1.404 . S
C115 C114 1.404 . S
C115 C116 1.391 . S
C116 H110 0.930 . S
C116 C112 1.429 . S
C116 C115 1.391 . S
H117 C120 0.931 . S
H118 C123 0.928 . S
H119 C125 0.930 . S
C120 H117 0.931 . S
C120 C121 1.413 . S
C120 C122 1.360 . S
C121 C120 1.413 . S
C121 C125 1.429 . S
C122 C120 1.360 . S
C122 C123 1.372 . S
C123 H118 0.928 . S
C123 C122 1.372 . S
C123 C124 1.404 . S
C124 C123 1.404 . S
C124 C125 1.391 . S
C125 H119 0.930 . S
C125 C121 1.429 . S
C125 C124 1.391 . S
H126 C129 0.931 . S
H127 C132 0.928 . S
H128 C134 0.930 . S
C129 H126 0.931 . S
C129 C130 1.413 . S
C129 C131 1.360 . S
C130 C129 1.413 . S
C130 C134 1.429 . S
C131 C129 1.360 . S
C131 C132 1.372 . S
C132 H127 0.928 . S
C132 C131 1.372 . S
C132 C133 1.404 . S
C133 C132 1.404 . S
C133 C134 1.391 . S
C134 H128 0.930 . S
C134 C130 1.429 . S
C134 C133 1.391 . S
H135 C138 0.931 . S
H136 C141 0.928 . S
H137 C143 0.930 . S
C138 H135 0.931 . S
C138 C139 1.413 . S
C138 C140 1.360 . S
C139 C138 1.413 . S
C139 C143 1.429 . S
C140 C138 1.360 . S
C140 C141 1.372 . S
C141 H136 0.928 . S
C141 C140 1.372 . S
C141 C142 1.404 . S
C142 C141 1.404 . S
C142 C143 1.391 . S
C143 H137 0.930 . S
C143 C139 1.429 . S
C143 C142 1.391 . S
H144 C147 0.931 . S
H145 C150 0.928 . S
H146 C152 0.930 . S
C147 H144 0.931 . S
C147 C148 1.413 . S
C147 C149 1.360 . S
C148 C147 1.413 . S
C148 C152 1.429 . S
C149 C147 1.360 . S
C149 C150 1.372 . S
C150 H145 0.928 . S
C150 C149 1.372 . S
C150 C151 1.404 . S
C151 C150 1.404 . S
C151 C152 1.391 . S
C152 H146 0.930 . S
C152 C148 1.429 . S
C152 C151 1.391 . S
H153 C156 0.931 . S
H154 C159 0.928 . S
H155 C161 0.930 . S
C156 H153 0.931 . S
C156 C157 1.413 . S
C156 C158 1.360 . S
C157 C156 1.413 . S
C157 C161 1.429 . S
C158 C156 1.360 . S
C158 C159 1.372 . S
C159 H154 0.928 . S
C159 C158 1.372 . S
C159 C160 1.404 . S
C160 C159 1.404 . S
C160 C161 1.391 . S
C161 H155 0.930 . S
C161 C157 1.429 . S
C161 C160 1.391 . S
O162 Mg163 1.990 . S
O162 C176 1.253 1_565 S
Mg163 O162 1.990 . S
Mg163 O166 2.180 1_556 S
Mg163 O167 2.117 . S
Mg163 O181 2.030 1_565 S
O164 Mg165 2.072 1_556 S
O164 C176 1.260 . S
Mg165 O164 2.072 1_554 S
Mg165 O166 2.099 1_545 S
Mg165 O168 2.079 . S
Mg165 O169 2.072 1_545 S
Mg165 O171 2.099 . S
Mg165 O182 2.079 . S
O166 Mg163 2.180 1_554 S
O166 Mg165 2.099 1_565 S
O166 C177 1.279 . S
O167 Mg163 2.117 . S
O167 C177 1.250 1_556 S
O168 Mg165 2.079 . S
O168 C178 1.264 . S
O169 Mg165 2.072 1_565 S
O169 C179 1.260 . S
Mg170 O171 2.180 . S
Mg170 O172 2.030 . S
Mg170 O173 1.990 1_545 S
Mg170 O174 2.117 . S
O171 Mg165 2.099 . S
O171 Mg170 2.180 . S
O171 C180 1.279 . S
O172 Mg170 2.030 . S
O172 C178 1.248 . S
O173 Mg170 1.990 1_565 S
O173 C179 1.253 . S
O174 Mg170 2.117 . S
O174 C180 1.250 . S
C175 O181 1.248 . S
C175 O182 1.264 1_556 S
C176 O162 1.253 1_545 S
C176 O164 1.260 . S
C177 O166 1.279 . S
C177 O167 1.250 1_554 S
C178 O168 1.264 . S
C178 O172 1.248 . S
C179 O169 1.260 . S
C179 O173 1.253 . S
C180 O171 1.279 . S
C180 O174 1.250 . S
O181 Mg163 2.030 1_545 S
O181 C175 1.248 . S
O182 Mg165 2.079 . S
O182 C175 1.264 1_554 S
O183 Mg184 1.990 . S
O183 C197 1.253 . S
Mg184 O183 1.990 . S
Mg184 O187 2.180 1_556 S
Mg184 O188 2.117 . S
Mg184 O202 2.030 1_455 S
O185 Mg186 2.072 1_556 S
O185 C197 1.260 1_655 S
Mg186 O185 2.072 1_554 S
Mg186 O187 2.099 1_655 S
Mg186 O189 2.079 . S
Mg186 O190 2.072 1_655 S
Mg186 O192 2.099 . S
Mg186 O203 2.079 . S
O187 Mg184 2.180 1_554 S
O187 Mg186 2.099 1_455 S
O187 C198 1.279 . S
O188 Mg184 2.117 . S
O188 C198 1.250 1_556 S
O189 Mg186 2.079 . S
O189 C199 1.264 1_655 S
O190 Mg186 2.072 1_455 S
O190 C200 1.260 . S
Mg191 O192 2.180 . S
Mg191 O193 2.030 1_655 S
Mg191 O194 1.990 1_655 S
Mg191 O195 2.117 . S
O192 Mg186 2.099 . S
O192 Mg191 2.180 . S
O192 C201 1.279 . S
O193 Mg191 2.030 1_455 S
O193 C199 1.248 . S
O194 Mg191 1.990 1_455 S
O194 C200 1.253 . S
O195 Mg191 2.117 . S
O195 C201 1.250 . S
C196 O202 1.248 . S
C196 O203 1.264 1_556 S
C197 O183 1.253 . S
C197 O185 1.260 1_455 S
C198 O187 1.279 . S
C198 O188 1.250 1_554 S
C199 O189 1.264 1_455 S
C199 O193 1.248 . S
C200 O190 1.260 . S
C200 O194 1.253 . S
C201 O192 1.279 . S
C201 O195 1.250 . S
O202 Mg184 2.030 1_655 S
O202 C196 1.248 . S
O203 Mg186 2.079 . S
O203 C196 1.264 1_554 S
O204 Mg205 1.990 . S
O204 C218 1.253 . S
Mg205 O204 1.990 . S
Mg205 O208 2.180 . S
Mg205 O209 2.117 . S
Mg205 O223 2.030 . S
O206 Mg207 2.089 . S
O206 C218 1.260 . S
Mg207 O206 2.089 . S
Mg207 O208 2.101 . S
Mg207 O210 2.062 1_554 S
Mg207 O211 2.071 1_554 S
Mg207 O213 2.097 1_554 S
Mg207 O224 2.079 . S
O208 Mg205 2.180 . S
O208 Mg207 2.101 . S
O208 C219 1.279 . S
O209 Mg205 2.117 . S
O209 C219 1.250 . S
O210 Mg207 2.062 1_556 S
O210 C220 1.264 . S
O211 Mg207 2.071 1_556 S
O211 C221 1.260 . S
Mg212 O213 2.180 . S
Mg212 O214 2.030 . S
Mg212 O215 1.990 . S
Mg212 O216 2.112 1_556 S
O213 Mg207 2.097 1_556 S
O213 Mg212 2.180 . S
O213 C222 1.279 1_556 S
O214 Mg212 2.030 . S
O214 C220 1.248 . S
O215 Mg212 1.990 . S
O215 C221 1.253 . S
O216 Mg212 2.112 1_554 S
O216 C222 1.252 . S
C217 O223 1.248 . S
C217 O224 1.264 . S
C218 O204 1.253 . S
C218 O206 1.260 . S
C219 O208 1.279 . S
C219 O209 1.250 . S
C220 O210 1.264 . S
C220 O214 1.248 . S
C221 O211 1.260 . S
C221 O215 1.253 . S
C222 O213 1.279 1_554 S
C222 O216 1.252 . S
O223 Mg205 2.030 . S
O223 C217 1.248 . S
O224 Mg207 2.079 . S
O224 C217 1.264 . S
O225 Mg226 1.990 . S
O225 C239 1.253 . S
Mg226 O225 1.990 . S
Mg226 O229 2.180 . S
Mg226 O230 2.117 . S
Mg226 O244 2.030 . S
O227 Mg228 2.072 . S
O227 C239 1.260 . S
Mg228 O227 2.072 . S
Mg228 O229 2.099 . S
Mg228 O231 2.079 . S
Mg228 O232 2.072 . S
Mg228 O234 2.099 . S
Mg228 O245 2.079 . S
O229 Mg226 2.180 . S
O229 Mg228 2.099 . S
O229 C240 1.279 . S
O230 Mg226 2.117 . S
O230 C240 1.250 . S
O231 Mg228 2.079 . S
O231 C241 1.264 . S
O232 Mg228 2.072 . S
O232 C242 1.260 . S
Mg233 O234 2.180 . S
Mg233 O235 2.030 . S
Mg233 O236 1.990 . S
Mg233 O237 2.117 . S
O234 Mg228 2.099 . S
O234 Mg233 2.180 . S
O234 C243 1.279 . S
O235 Mg233 2.030 . S
O235 C241 1.248 . S
O236 Mg233 1.990 . S
O236 C242 1.253 . S
O237 Mg233 2.117 . S
O237 C243 1.250 . S
C238 O244 1.248 . S
C238 O245 1.264 . S
C239 O225 1.253 . S
C239 O227 1.260 . S
C240 O229 1.279 . S
C240 O230 1.250 . S
C241 O231 1.264 . S
C241 O235 1.248 . S
C242 O232 1.260 . S
C242 O236 1.253 . S
C243 O234 1.279 . S
C243 O237 1.250 . S
O244 Mg226 2.030 . S
O244 C238 1.248 . S
O245 Mg228 2.079 . S
O245 C238 1.264 . S
O246 Mg247 1.990 . S
O246 C260 1.253 . S
Mg247 O246 1.990 . S
Mg247 O250 2.180 . S
Mg247 O251 2.117 . S
Mg247 O265 2.030 . S
O248 Mg249 2.072 . S
O248 C260 1.260 . S
Mg249 O248 2.072 . S
Mg249 O250 2.099 . S
Mg249 O252 2.079 . S
Mg249 O253 2.072 . S
Mg249 O255 2.099 . S
Mg249 O266 2.079 . S
O250 Mg247 2.180 . S
O250 Mg249 2.099 . S
O250 C261 1.279 . S
O251 Mg247 2.117 . S
O251 C261 1.250 . S
O252 Mg249 2.079 . S
O252 C262 1.264 . S
O253 Mg249 2.072 . S
O253 C263 1.260 . S
Mg254 O255 2.180 . S
Mg254 O256 2.030 . S
Mg254 O257 1.990 . S
Mg254 O258 2.117 . S
O255 Mg249 2.099 . S
O255 Mg254 2.180 . S
O255 C264 1.279 . S
O256 Mg254 2.030 . S
O256 C262 1.248 . S
O257 Mg254 1.990 . S
O257 C263 1.253 . S
O258 Mg254 2.117 . S
O258 C264 1.250 . S
C259 O265 1.248 . S
C259 O266 1.264 . S
C260 O246 1.253 . S
C260 O248 1.260 . S
C261 O250 1.279 . S
C261 O251 1.250 . S
C262 O252 1.264 . S
C262 O256 1.248 . S
C263 O253 1.260 . S
C263 O257 1.253 . S
C264 O255 1.279 . S
C264 O258 1.250 . S
O265 Mg247 2.030 . S
O265 C259 1.248 . S
O266 Mg249 2.079 . S
O266 C259 1.264 . S
O267 Mg268 1.990 . S
O267 C281 1.253 . S
Mg268 O267 1.990 . S
Mg268 O271 2.180 . S
Mg268 O272 2.117 . S
Mg268 O286 2.030 . S
O269 Mg270 2.072 . S
O269 C281 1.260 . S
Mg270 O269 2.072 . S
Mg270 O271 2.099 . S
Mg270 O273 2.079 . S
Mg270 O274 2.072 . S
Mg270 O276 2.099 . S
Mg270 O287 2.079 . S
O271 Mg268 2.180 . S
O271 Mg270 2.099 . S
O271 C282 1.279 . S
O272 Mg268 2.117 . S
O272 C282 1.250 . S
O273 Mg270 2.079 . S
O273 C283 1.264 . S
O274 Mg270 2.072 . S
O274 C284 1.260 . S
Mg275 O276 2.180 . S
Mg275 O277 2.030 . S
Mg275 O278 1.990 . S
Mg275 O279 2.117 . S
O276 Mg270 2.099 . S
O276 Mg275 2.180 . S
O276 C285 1.279 . S
O277 Mg275 2.030 . S
O277 C283 1.248 . S
O278 Mg275 1.990 . S
O278 C284 1.253 . S
O279 Mg275 2.117 . S
O279 C285 1.250 . S
C280 O286 1.248 . S
C280 O287 1.264 . S
C281 O267 1.253 . S
C281 O269 1.260 . S
C282 O271 1.279 . S
C282 O272 1.250 . S
C283 O273 1.264 . S
C283 O277 1.248 . S
C284 O274 1.260 . S
C284 O278 1.253 . S
C285 O276 1.279 . S
C285 O279 1.250 . S
O286 Mg268 2.030 . S
O286 C280 1.248 . S
O287 Mg270 2.079 . S
O287 C280 1.264 . S
O288 Mg289 1.990 . S
O288 C302 1.253 . S
Mg289 O288 1.990 . S
Mg289 O292 2.180 . S
Mg289 O293 2.117 . S
Mg289 O307 2.030 . S
O290 Mg291 2.072 . S
O290 C302 1.260 . S
Mg291 O290 2.072 . S
Mg291 O292 2.099 . S
Mg291 O294 2.079 . S
Mg291 O295 2.072 . S
Mg291 O297 2.099 . S
Mg291 O308 2.079 . S
O292 Mg289 2.180 . S
O292 Mg291 2.099 . S
O292 C303 1.279 . S
O293 Mg289 2.117 . S
O293 C303 1.250 . S
O294 Mg291 2.079 . S
O294 C304 1.264 . S
O295 Mg291 2.072 . S
O295 C305 1.260 . S
Mg296 O297 2.180 . S
Mg296 O298 2.030 . S
Mg296 O299 1.990 . S
Mg296 O300 2.117 . S
O297 Mg291 2.099 . S
O297 Mg296 2.180 . S
O297 C306 1.279 . S
O298 Mg296 2.030 . S
O298 C304 1.248 . S
O299 Mg296 1.990 . S
O299 C305 1.253 . S
O300 Mg296 2.117 . S
O300 C306 1.250 . S
C301 O307 1.248 . S
C301 O308 1.264 . S
C302 O288 1.253 . S
C302 O290 1.260 . S
C303 O292 1.279 . S
C303 O293 1.250 . S
C304 O294 1.264 . S
C304 O298 1.248 . S
C305 O295 1.260 . S
C305 O299 1.253 . S
C306 O297 1.279 . S
C306 O300 1.250 . S
O307 Mg289 2.030 . S
O307 C301 1.248 . S
O308 Mg291 2.079 . S
O308 C301 1.264 . S
O309 Mg310 1.990 . S
O309 C323 1.253 . S
Mg310 O309 1.990 . S
Mg310 O313 2.180 . S
Mg310 O314 2.117 . S
Mg310 O328 2.030 . S
O311 Mg312 2.072 . S
O311 C323 1.260 . S
Mg312 O311 2.072 . S
Mg312 O313 2.099 . S
Mg312 O315 2.079 . S
Mg312 O316 2.072 . S
Mg312 O318 2.099 . S
Mg312 O329 2.079 . S
O313 Mg310 2.180 . S
O313 Mg312 2.099 . S
O313 C324 1.279 . S
O314 Mg310 2.117 . S
O314 C324 1.250 . S
O315 Mg312 2.079 . S
O315 C325 1.264 . S
O316 Mg312 2.072 . S
O316 C326 1.260 . S
Mg317 O318 2.180 . S
Mg317 O319 2.030 . S
Mg317 O320 1.990 . S
Mg317 O321 2.117 . S
O318 Mg312 2.099 . S
O318 Mg317 2.180 . S
O318 C327 1.279 . S
O319 Mg317 2.030 . S
O319 C325 1.248 . S
O320 Mg317 1.990 . S
O320 C326 1.253 . S
O321 Mg317 2.117 . S
O321 C327 1.250 . S
C322 O328 1.248 . S
C322 O329 1.264 . S
C323 O309 1.253 . S
C323 O311 1.260 . S
C324 O313 1.279 . S
C324 O314 1.250 . S
C325 O315 1.264 . S
C325 O319 1.248 . S
C326 O316 1.260 . S
C326 O320 1.253 . S
C327 O318 1.279 . S
C327 O321 1.250 . S
O328 Mg310 2.030 . S
O328 C322 1.248 . S
O329 Mg312 2.079 . S
O329 C322 1.264 . S
O330 Mg331 1.990 . S
O330 C344 1.253 . S
Mg331 O330 1.990 . S
Mg331 O334 2.180 . S
Mg331 O335 2.117 . S
Mg331 O349 2.030 . S
O332 Mg333 2.072 . S
O332 C344 1.260 . S
Mg333 O332 2.072 . S
Mg333 O334 2.099 . S
Mg333 O336 2.079 . S
Mg333 O337 2.072 . S
Mg333 O339 2.099 . S
Mg333 O350 2.079 . S
O334 Mg331 2.180 . S
O334 Mg333 2.099 . S
O334 C345 1.279 . S
O335 Mg331 2.117 . S
O335 C345 1.250 . S
O336 Mg333 2.079 . S
O336 C346 1.264 . S
O337 Mg333 2.072 . S
O337 C347 1.260 . S
Mg338 O339 2.180 . S
Mg338 O340 2.030 . S
Mg338 O341 1.990 . S
Mg338 O342 2.117 . S
O339 Mg333 2.099 . S
O339 Mg338 2.180 . S
O339 C348 1.279 . S
O340 Mg338 2.030 . S
O340 C346 1.248 . S
O341 Mg338 1.990 . S
O341 C347 1.253 . S
O342 Mg338 2.117 . S
O342 C348 1.250 . S
C343 O349 1.248 . S
C343 O350 1.264 . S
C344 O330 1.253 . S
C344 O332 1.260 . S
C345 O334 1.279 . S
C345 O335 1.250 . S
C346 O336 1.264 . S
C346 O340 1.248 . S
C347 O337 1.260 . S
C347 O341 1.253 . S
C348 O339 1.279 . S
C348 O342 1.250 . S
O349 Mg331 2.030 . S
O349 C343 1.248 . S
O350 Mg333 2.079 . S
O350 C343 1.264 . S
C351 C352 1.349 . S
C351 C353 1.327 . S
C351 H376 0.950 . S
C352 C351 1.349 . S
C352 C368 1.349 . S
C353 C351 1.327 . S
C353 C372 1.429 . S
C353 H377 0.950 . S
C354 C371 1.574 . S
C354 C373 1.368 . S
C354 H378 0.949 . S
H355 C359 0.949 . S
C356 C357 1.349 . S
C356 C358 1.327 . S
C356 H379 0.950 1_554 S
C357 C356 1.349 . S
C357 C369 1.349 . S
C358 C356 1.327 . S
C358 C374 1.429 . S
C358 H380 0.950 1_554 S
C359 H355 0.949 . S
C359 C367 1.574 . S
C359 C375 1.368 . S
H360 C368 0.950 . S
H361 C366 0.950 . S
H362 C367 0.949 . S
H363 C369 0.950 . S
H364 C370 0.950 . S
H365 C371 0.949 . S
C366 H361 0.950 . S
C366 C368 1.327 . S
C366 C372 1.429 . S
C367 C359 1.574 . S
C367 H362 0.949 . S
C367 C373 1.368 . S
C368 C352 1.349 . S
C368 H360 0.950 . S
C368 C366 1.327 . S
C369 C357 1.349 . S
C369 H363 0.950 . S
C369 C370 1.327 . S
C370 H364 0.950 . S
C370 C369 1.327 . S
C370 C374 1.429 . S
C371 C354 1.574 . S
C371 H365 0.949 . S
C371 C375 1.368 . S
C372 C353 1.429 . S
C372 C366 1.429 . S
C372 C373 1.523 . S
C373 C354 1.368 . S
C373 C367 1.368 . S
C373 C372 1.523 . S
C374 C358 1.429 . S
C374 C370 1.429 . S
C374 C375 1.523 . S
C375 C359 1.368 . S
C375 C371 1.368 . S
C375 C374 1.523 . S
H376 C351 0.950 . S
H377 C353 0.950 . S
H378 C354 0.949 . S
H379 C356 0.950 1_556 S
H380 C358 0.950 1_556 S
C381 C382 1.349 . S
C381 C383 1.327 . S
C381 H406 0.950 . S
C382 C381 1.349 . S
C382 C398 1.349 . S
C383 C381 1.327 . S
C383 C402 1.429 . S
C383 H407 0.950 . S
C384 C401 1.574 . S
C384 C403 1.368 . S
C384 H408 0.949 . S
H385 C389 0.949 . S
C386 C387 1.349 . S
C386 C388 1.327 . S
C386 H409 0.950 . S
C387 C386 1.349 . S
C387 C399 1.349 . S
C388 C386 1.327 . S
C388 C404 1.429 . S
C388 H410 0.950 . S
C389 H385 0.949 . S
C389 C397 1.574 . S
C389 C405 1.368 . S
H390 C398 0.950 . S
H391 C396 0.950 . S
H392 C397 0.949 . S
H393 C399 0.950 . S
H394 C400 0.950 . S
H395 C401 0.949 . S
C396 H391 0.950 . S
C396 C398 1.327 . S
C396 C402 1.429 . S
C397 C389 1.574 . S
C397 H392 0.949 . S
C397 C403 1.368 . S
C398 C382 1.349 . S
C398 H390 0.950 . S
C398 C396 1.327 . S
C399 C387 1.349 . S
C399 H393 0.950 . S
C399 C400 1.327 . S
C400 H394 0.950 . S
C400 C399 1.327 . S
C400 C404 1.429 . S
C401 C384 1.574 . S
C401 H395 0.949 . S
C401 C405 1.368 . S
C402 C383 1.429 . S
C402 C396 1.429 . S
C402 C403 1.523 . S
C403 C384 1.368 . S
C403 C397 1.368 . S
C403 C402 1.523 . S
C404 C388 1.429 . S
C404 C400 1.429 . S
C404 C405 1.523 . S
C405 C389 1.368 . S
C405 C401 1.368 . S
C405 C404 1.523 . S
H406 C381 0.950 . S
H407 C383 0.950 . S
H408 C384 0.949 . S
H409 C386 0.950 . S
H410 C388 0.950 . S
C411 C412 1.349 . S
C411 C413 1.327 . S
C411 H436 0.950 . S
C412 C411 1.349 . S
C412 C428 1.349 . S
C413 C411 1.327 . S
C413 C432 1.429 . S
C413 H437 0.950 . S
C414 C431 1.574 . S
C414 C433 1.368 . S
C414 H438 0.949 . S
H415 C419 0.949 . S
C416 C417 1.349 . S
C416 C418 1.327 . S
C416 H439 0.950 . S
C417 C416 1.349 . S
C417 C429 1.349 . S
C418 C416 1.327 . S
C418 C434 1.429 . S
C418 H440 0.950 . S
C419 H415 0.949 . S
C419 C427 1.574 . S
C419 C435 1.368 . S
H420 C428 0.950 . S
H421 C426 0.950 . S
H422 C427 0.949 . S
H423 C429 0.950 1_556 S
H424 C430 0.946 . S
H425 C431 0.949 . S
C426 H421 0.950 . S
C426 C428 1.327 . S
C426 C432 1.429 . S
C427 C419 1.574 . S
C427 H422 0.949 . S
C427 C433 1.368 . S
C428 C412 1.349 . S
C428 H420 0.950 . S
C428 C426 1.327 . S
C429 C417 1.349 . S
C429 H423 0.950 1_554 S
C429 C430 1.327 . S
C430 H424 0.946 . S
C430 C429 1.327 . S
C430 C434 1.429 . S
C431 C414 1.574 . S
C431 H425 0.949 . S
C431 C435 1.368 . S
C432 C413 1.429 . S
C432 C426 1.429 . S
C432 C433 1.523 . S
C433 C414 1.368 . S
C433 C427 1.368 . S
C433 C432 1.523 . S
C434 C418 1.429 . S
C434 C430 1.429 . S
C434 C435 1.523 . S
C435 C419 1.368 . S
C435 C431 1.368 . S
C435 C434 1.523 . S
H436 C411 0.950 . S
H437 C413 0.950 . S
H438 C414 0.949 . S
H439 C416 0.950 . S
H440 C418 0.950 . S
C441 C442 1.349 . S
C441 C443 1.327 . S
C441 H466 0.950 . S
C442 C441 1.349 . S
C442 C458 1.349 . S
C443 C441 1.327 . S
C443 C462 1.429 . S
C443 H467 0.950 . S
C444 C461 1.574 . S
C444 C463 1.368 . S
C444 H468 0.949 . S
H445 C449 0.949 1_554 S
C446 C447 1.349 . S
C446 C448 1.327 . S
C446 H469 0.950 . S
C447 C446 1.349 . S
C447 C459 1.349 1_556 S
C448 C446 1.327 . S
C448 C464 1.429 . S
C448 H470 0.950 . S
C449 H445 0.949 1_556 S
C449 C457 1.574 . S
C449 C465 1.368 . S
H450 C458 0.950 . S
H451 C456 0.950 . S
H452 C457 0.949 . S
H453 C459 0.950 . S
H454 C460 0.951 1_554 S
H455 C461 0.949 . S
C456 H451 0.950 . S
C456 C458 1.327 . S
C456 C462 1.429 . S
C457 C449 1.574 . S
C457 H452 0.949 . S
C457 C463 1.368 . S
C458 C442 1.349 . S
C458 H450 0.950 . S
C458 C456 1.327 . S
C459 C447 1.349 1_554 S
C459 H453 0.950 . S
C459 C460 1.328 1_554 S
C460 H454 0.951 1_556 S
C460 C459 1.328 1_556 S
C460 C464 1.427 . S
C461 C444 1.574 . S
C461 H455 0.949 . S
C461 C465 1.368 . S
C462 C443 1.429 . S
C462 C456 1.429 . S
C462 C463 1.523 . S
C463 C444 1.368 . S
C463 C457 1.368 . S
C463 C462 1.523 . S
C464 C448 1.429 . S
C464 C460 1.427 . S
C464 C465 1.523 . S
C465 C449 1.368 . S
C465 C461 1.368 . S
C465 C464 1.523 . S
H466 C441 0.950 . S
H467 C443 0.950 . S
H468 C444 0.949 . S
H469 C446 0.950 . S
H470 C448 0.950 . S
C471 C472 1.349 . S
C471 C473 1.327 . S
C471 H496 0.950 . S
C472 C471 1.349 . S
C472 C488 1.349 . S
C473 C471 1.327 . S
C473 C492 1.429 . S
C473 H497 0.950 . S
C474 C491 1.574 . S
C474 C493 1.368 . S
C474 H498 0.949 . S
H475 C479 0.949 . S
C476 C477 1.349 1_554 S
C476 C478 1.327 1_554 S
C476 H499 0.950 . S
C477 C476 1.349 1_556 S
C477 C489 1.349 . S
C478 C476 1.327 1_556 S
C478 C494 1.429 . S
C478 H500 0.950 1_556 S
C479 H475 0.949 . S
C479 C487 1.574 . S
C479 C495 1.368 . S
H480 C488 0.950 . S
H481 C486 0.950 . S
H482 C487 0.949 . S
H483 C489 0.950 . S
H484 C490 0.950 . S
H485 C491 0.959 . S
C486 H481 0.950 . S
C486 C488 1.327 . S
C486 C492 1.429 . S
C487 C479 1.574 . S
C487 H482 0.949 . S
C487 C493 1.368 . S
C488 C472 1.349 . S
C488 H480 0.950 . S
C488 C486 1.327 . S
C489 C477 1.349 . S
C489 H483 0.950 . S
C489 C490 1.327 . S
C490 H484 0.950 . S
C490 C489 1.327 . S
C490 C494 1.429 . S
C491 C474 1.574 . S
C491 H485 0.959 . S
C491 C495 1.368 . S
C492 C473 1.429 . S
C492 C486 1.429 . S
C492 C493 1.523 . S
C493 C474 1.368 . S
C493 C487 1.368 . S
C493 C492 1.523 . S
C494 C478 1.429 . S
C494 C490 1.429 . S
C494 C495 1.523 . S
C495 C479 1.368 . S
C495 C491 1.368 . S
C495 C494 1.523 . S
H496 C471 0.950 . S
H497 C473 0.950 . S
H498 C474 0.949 . S
H499 C476 0.950 . S
H500 C478 0.950 1_554 S
C501 C502 1.349 . S
C501 C503 1.327 . S
C501 H526 0.950 . S
C502 C501 1.349 . S
C502 C518 1.349 . S
C503 C501 1.327 . S
C503 C522 1.429 . S
C503 H527 0.950 . S
C504 C521 1.574 . S
C504 C523 1.368 . S
C504 H528 0.949 . S
H505 C509 0.949 1_554 S
C506 C507 1.349 . S
C506 C508 1.327 . S
C506 H529 0.950 . S
C507 C506 1.349 . S
C507 C519 1.349 1_556 S
C508 C506 1.327 . S
C508 C524 1.429 . S
C508 H530 0.950 . S
C509 H505 0.949 1_556 S
C509 C517 1.574 . S
C509 C525 1.368 . S
H510 C518 0.950 . S
H511 C516 0.950 . S
H512 C517 0.949 . S
H513 C519 0.950 . S
H514 C520 0.941 1_554 S
H515 C521 0.949 . S
C516 H511 0.950 . S
C516 C518 1.327 . S
C516 C522 1.429 . S
C517 C509 1.574 . S
C517 H512 0.949 . S
C517 C523 1.368 . S
C518 C502 1.349 . S
C518 H510 0.950 . S
C518 C516 1.327 . S
C519 C507 1.349 1_554 S
C519 H513 0.950 . S
C519 C520 1.324 1_554 S
C520 H514 0.941 1_556 S
C520 C519 1.324 1_556 S
C520 C524 1.441 . S
C521 C504 1.574 . S
C521 H515 0.949 . S
C521 C525 1.368 . S
C522 C503 1.429 . S
C522 C516 1.429 . S
C522 C523 1.523 . S
C523 C504 1.368 . S
C523 C517 1.368 . S
C523 C522 1.523 . S
C524 C508 1.429 . S
C524 C520 1.441 . S
C524 C525 1.523 . S
C525 C509 1.368 . S
C525 C521 1.368 . S
C525 C524 1.523 . S
H526 C501 0.950 . S
H527 C503 0.950 . S
H528 C504 0.949 . S
H529 C506 0.950 . S
H530 C508 0.950 . S
C531 C532 1.349 . S
C531 C533 1.327 . S
C531 H556 0.950 . S
C532 C531 1.349 . S
C532 C548 1.349 . S
C533 C531 1.327 . S
C533 C552 1.429 . S
C533 H557 0.950 . S
C534 C551 1.574 . S
C534 C553 1.368 . S
C534 H558 0.949 . S
H535 C539 0.949 . S
C536 C537 1.349 . S
C536 C538 1.327 . S
C536 H559 0.950 . S
C537 C536 1.349 . S
C537 C549 1.349 1_556 S
C538 C536 1.327 . S
C538 C554 1.429 . S
C538 H560 0.950 . S
C539 H535 0.949 . S
C539 C547 1.574 . S
C539 C555 1.368 . S
H540 C548 0.950 . S
H541 C546 0.950 . S
H542 C547 0.949 . S
H543 C549 0.950 . S
H544 C550 0.950 1_554 S
H545 C551 0.949 . S
C546 H541 0.950 . S
C546 C548 1.327 . S
C546 C552 1.429 . S
C547 C539 1.574 . S
C547 H542 0.949 . S
C547 C553 1.368 . S
C548 C532 1.349 . S
C548 H540 0.950 . S
C548 C546 1.327 . S
C549 C537 1.349 1_554 S
C549 H543 0.950 . S
C549 C550 1.327 1_554 S
C550 H544 0.950 1_556 S
C550 C549 1.327 1_556 S
C550 C554 1.429 . S
C551 C534 1.574 . S
C551 H545 0.949 . S
C551 C555 1.368 . S
C552 C533 1.429 . S
C552 C546 1.429 . S
C552 C553 1.523 . S
C553 C534 1.368 . S
C553 C547 1.368 . S
C553 C552 1.523 . S
C554 C538 1.429 . S
C554 C550 1.429 . S
C554 C555 1.523 . S
C555 C539 1.368 . S
C555 C551 1.368 . S
C555 C554 1.523 . S
H556 C531 0.950 . S
H557 C533 0.950 . S
H558 C534 0.949 . S
H559 C536 0.950 . S
H560 C538 0.950 . S
C561 C562 1.349 . S
C561 C563 1.327 . S
C561 H586 0.950 . S
C562 C561 1.349 . S
C562 C578 1.349 . S
C563 C561 1.327 . S
C563 C582 1.429 . S
C563 H587 0.950 . S
C564 C581 1.574 . S
C564 C583 1.368 . S
C564 H588 0.949 . S
H565 C569 0.949 1_554 S
C566 C567 1.349 . S
C566 C568 1.327 . S
C566 H589 0.950 . S
C567 C566 1.349 . S
C567 C579 1.349 1_556 S
C568 C566 1.327 . S
C568 C584 1.429 . S
C568 H590 0.950 . S
C569 H565 0.949 1_556 S
C569 C577 1.574 . S
C569 C585 1.368 . S
H570 C578 0.950 . S
H571 C576 0.950 . S
H572 C577 0.949 . S
H573 C579 0.950 . S
H574 C580 0.950 . S
H575 C581 0.949 . S
C576 H571 0.950 . S
C576 C578 1.327 . S
C576 C582 1.429 . S
C577 C569 1.574 . S
C577 H572 0.949 . S
C577 C583 1.368 . S
C578 C562 1.349 . S
C578 H570 0.950 . S
C578 C576 1.327 . S
C579 C567 1.349 1_554 S
C579 H573 0.950 . S
C579 C580 1.327 . S
C580 H574 0.950 . S
C580 C579 1.327 . S
C580 C584 1.429 1_554 S
C581 C564 1.574 . S
C581 H575 0.949 . S
C581 C585 1.368 . S
C582 C563 1.429 . S
C582 C576 1.429 . S
C582 C583 1.523 . S
C583 C564 1.368 . S
C583 C577 1.368 . S
C583 C582 1.523 . S
C584 C568 1.429 . S
C584 C580 1.429 1_556 S
C584 C585 1.523 . S
C585 C569 1.368 . S
C585 C581 1.368 . S
C585 C584 1.523 . S
H586 C561 0.950 . S
H587 C563 0.950 . S
H588 C564 0.949 . S
H589 C566 0.950 . S
H590 C568 0.950 . S
C591 C592 1.349 . S
C591 C593 1.327 . S
C591 H616 0.950 . S
C592 C591 1.349 . S
C592 C608 1.349 . S
C593 C591 1.327 . S
C593 C612 1.429 . S
C593 H617 0.950 . S
C594 C611 1.574 . S
C594 C613 1.368 . S
C594 H618 0.949 . S
H595 C599 0.949 . S
C596 C597 1.349 1_554 S
C596 C598 1.327 . S
C596 H619 0.950 . S
C597 C596 1.349 1_556 S
C597 C609 1.349 . S
C598 C596 1.327 . S
C598 C614 1.429 1_554 S
C598 H620 0.950 . S
C599 H595 0.949 . S
C599 C607 1.574 . S
C599 C615 1.368 . S
H600 C608 0.950 . S
H601 C606 0.950 . S
H602 C607 0.949 . S
H603 C609 0.950 . S
H604 C610 0.950 . S
H605 C611 0.949 1_554 S
C606 H601 0.950 . S
C606 C608 1.327 . S
C606 C612 1.429 . S
C607 C599 1.574 . S
C607 H602 0.949 . S
C607 C613 1.368 . S
C608 C592 1.349 . S
C608 H600 0.950 . S
C608 C606 1.327 . S
C609 C597 1.349 . S
C609 H603 0.950 . S
C609 C610 1.327 . S
C610 H604 0.950 . S
C610 C609 1.327 . S
C610 C614 1.429 . S
C611 C594 1.574 . S
C611 H605 0.949 1_556 S
C611 C615 1.368 . S
C612 C593 1.429 . S
C612 C606 1.429 . S
C612 C613 1.523 . S
C613 C594 1.368 . S
C613 C607 1.368 . S
C613 C612 1.523 . S
C614 C598 1.429 1_556 S
C614 C610 1.429 . S
C614 C615 1.523 . S
C615 C599 1.368 . S
C615 C611 1.368 . S
C615 C614 1.523 . S
H616 C591 0.950 . S
H617 C593 0.950 . S
H618 C594 0.949 . S
H619 C596 0.950 . S
H620 C598 0.950 . S
C621 C622 1.349 . S
C621 C623 1.327 . S
C621 H646 0.950 . S
C622 C621 1.349 . S
C622 C638 1.349 . S
C623 C621 1.327 . S
C623 C642 1.429 . S
C623 H647 0.950 . S
C624 C641 1.574 . S
C624 C643 1.368 . S
C624 H648 0.949 . S
H625 C629 0.949 . S
C626 C627 1.349 . S
C626 C628 1.327 . S
C626 H649 0.950 . S
C627 C626 1.349 . S
C627 C639 1.349 . S
C628 C626 1.327 . S
C628 C644 1.429 . S
C628 H650 0.950 . S
C629 H625 0.949 . S
C629 C637 1.574 . S
C629 C645 1.368 . S
H630 C638 0.950 . S
H631 C636 0.950 . S
H632 C637 0.949 . S
H633 C639 0.950 . S
H634 C640 0.950 . S
H635 C641 0.949 . S
C636 H631 0.950 . S
C636 C638 1.327 . S
C636 C642 1.429 . S
C637 C629 1.574 . S
C637 H632 0.949 . S
C637 C643 1.368 . S
C638 C622 1.349 . S
C638 H630 0.950 . S
C638 C636 1.327 . S
C639 C627 1.349 . S
C639 H633 0.950 . S
C639 C640 1.327 . S
C640 H634 0.950 . S
C640 C639 1.327 . S
C640 C644 1.429 . S
C641 C624 1.574 . S
C641 H635 0.949 . S
C641 C645 1.368 . S
C642 C623 1.429 . S
C642 C636 1.429 . S
C642 C643 1.523 . S
C643 C624 1.368 . S
C643 C637 1.368 . S
C643 C642 1.523 . S
C644 C628 1.429 . S
C644 C640 1.429 . S
C644 C645 1.523 . S
C645 C629 1.368 . S
C645 C641 1.368 . S
C645 C644 1.523 . S
H646 C621 0.950 . S
H647 C623 0.950 . S
H648 C624 0.949 . S
H649 C626 0.950 . S
H650 C628 0.950 . S
C651 C652 1.349 . S
C651 C653 1.327 . S
C651 H676 0.950 . S
C652 C651 1.349 . S
C652 C668 1.349 . S
C653 C651 1.327 . S
C653 C672 1.429 . S
C653 H677 0.950 . S
C654 C671 1.574 . S
C654 C673 1.368 . S
C654 H678 0.949 . S
H655 C659 0.949 . S
C656 C657 1.349 . S
C656 C658 1.327 . S
C656 H679 0.950 . S
C657 C656 1.349 . S
C657 C669 1.349 . S
C658 C656 1.327 . S
C658 C674 1.429 . S
C658 H680 0.950 . S
C659 H655 0.949 . S
C659 C667 1.574 . S
C659 C675 1.368 . S
H660 C668 0.950 . S
H661 C666 0.950 . S
H662 C667 0.949 . S
H663 C669 0.950 . S
H664 C670 0.950 . S
H665 C671 0.949 . S
C666 H661 0.950 . S
C666 C668 1.327 . S
C666 C672 1.429 . S
C667 C659 1.574 . S
C667 H662 0.949 . S
C667 C673 1.368 . S
C668 C652 1.349 . S
C668 H660 0.950 . S
C668 C666 1.327 . S
C669 C657 1.349 . S
C669 H663 0.950 . S
C669 C670 1.327 . S
C670 H664 0.950 . S
C670 C669 1.327 . S
C670 C674 1.429 . S
C671 C654 1.574 . S
C671 H665 0.949 . S
C671 C675 1.368 . S
C672 C653 1.429 . S
C672 C666 1.429 . S
C672 C673 1.523 . S
C673 C654 1.368 . S
C673 C667 1.368 . S
C673 C672 1.523 . S
C674 C658 1.429 . S
C674 C670 1.429 . S
C674 C675 1.523 . S
C675 C659 1.368 . S
C675 C671 1.368 . S
C675 C674 1.523 . S
H676 C651 0.950 . S
H677 C653 0.950 . S
H678 C654 0.949 . S
H679 C656 0.950 . S
H680 C658 0.950 . S
C681 C682 1.349 . S
C681 C683 1.327 . S
C681 H706 0.950 . S
C682 C681 1.349 . S
C682 C698 1.349 . S
C683 C681 1.327 . S
C683 C702 1.429 . S
C683 H707 0.950 . S
C684 C701 1.574 . S
C684 C703 1.368 . S
C684 H708 0.949 . S
H685 C689 0.949 . S
C686 C687 1.349 . S
C686 C688 1.327 . S
C686 H709 0.950 1_554 S
C687 C686 1.349 . S
C687 C699 1.349 . S
C688 C686 1.327 . S
C688 C704 1.429 . S
C688 H710 0.978 . S
C689 H685 0.949 . S
C689 C697 1.574 . S
C689 C705 1.368 . S
H690 C698 0.950 . S
H691 C696 0.950 . S
H692 C697 0.949 . S
H693 C699 0.950 . S
H694 C700 0.950 . S
H695 C701 0.949 . S
C696 H691 0.950 . S
C696 C698 1.327 . S
C696 C702 1.429 . S
C697 C689 1.574 . S
C697 H692 0.949 . S
C697 C703 1.368 . S
C698 C682 1.349 . S
C698 H690 0.950 . S
C698 C696 1.327 . S
C699 C687 1.349 . S
C699 H693 0.950 . S
C699 C700 1.327 . S
C700 H694 0.950 . S
C700 C699 1.327 . S
C700 C704 1.429 . S
C701 C684 1.574 . S
C701 H695 0.949 . S
C701 C705 1.368 . S
C702 C683 1.429 . S
C702 C696 1.429 . S
C702 C703 1.523 . S
C703 C684 1.368 . S
C703 C697 1.368 . S
C703 C702 1.523 . S
C704 C688 1.429 . S
C704 C700 1.429 . S
C704 C705 1.523 . S
C705 C689 1.368 . S
C705 C701 1.368 . S
C705 C704 1.523 . S
H706 C681 0.950 . S
H707 C683 0.950 . S
H708 C684 0.949 . S
H709 C686 0.950 1_556 S
H710 C688 0.978 . S
C711 C712 1.349 . S
C711 C713 1.327 . S
C711 H736 0.950 . S
C712 C711 1.349 . S
C712 C728 1.349 . S
C713 C711 1.327 . S
C713 C732 1.429 . S
C713 H737 0.950 . S
C714 C731 1.571 1_655 S
C714 C733 1.369 . S
C714 H738 0.950 . S
H715 C719 0.949 . S
C716 C717 1.349 . S
C716 C718 1.327 . S
C716 H739 0.950 . S
C717 C716 1.349 . S
C717 C729 1.349 . S
C718 C716 1.327 . S
C718 C734 1.429 . S
C718 H740 0.950 . S
C719 H715 0.949 . S
C719 C727 1.574 1_455 S
C719 C735 1.368 . S
H720 C728 0.950 . S
H721 C726 0.950 . S
H722 C727 0.949 . S
H723 C729 0.950 . S
H724 C730 0.950 . S
H725 C731 0.949 . S
C726 H721 0.950 . S
C726 C728 1.327 . S
C726 C732 1.429 . S
C727 C719 1.574 1_655 S
C727 H722 0.949 . S
C727 C733 1.368 . S
C728 C712 1.349 . S
C728 H720 0.950 . S
C728 C726 1.327 . S
C729 C717 1.349 . S
C729 H723 0.950 . S
C729 C730 1.327 . S
C730 H724 0.950 . S
C730 C729 1.327 . S
C730 C734 1.429 . S
C731 C714 1.571 1_455 S
C731 H725 0.949 . S
C731 C735 1.368 . S
C732 C713 1.429 . S
C732 C726 1.429 . S
C732 C733 1.523 . S
C733 C714 1.369 . S
C733 C727 1.368 . S
C733 C732 1.523 . S
C734 C718 1.429 . S
C734 C730 1.429 . S
C734 C735 1.523 . S
C735 C719 1.368 . S
C735 C731 1.368 . S
C735 C734 1.523 . S
H736 C711 0.950 . S
H737 C713 0.950 . S
H738 C714 0.950 . S
H739 C716 0.950 . S
H740 C718 0.950 . S
C741 C742 1.349 . S
C741 C743 1.327 . S
C741 H766 0.950 . S
C742 C741 1.349 . S
C742 C758 1.349 . S
C743 C741 1.327 . S
C743 C762 1.429 . S
C743 H767 0.950 . S
C744 C761 1.574 . S
C744 C763 1.368 . S
C744 H768 0.949 . S
H745 C749 0.949 . S
C746 C747 1.349 . S
C746 C748 1.327 . S
C746 H769 0.950 . S
C747 C746 1.349 . S
C747 C759 1.349 . S
C748 C746 1.327 . S
C748 C764 1.429 . S
C748 H770 0.950 . S
C749 H745 0.949 . S
C749 C757 1.574 . S
C749 C765 1.368 . S
H750 C758 0.950 . S
H751 C756 0.950 . S
H752 C757 0.949 . S
H753 C759 0.950 . S
H754 C760 0.950 . S
H755 C761 0.949 . S
C756 H751 0.950 . S
C756 C758 1.327 . S
C756 C762 1.429 . S
C757 C749 1.574 . S
C757 H752 0.949 . S
C757 C763 1.368 . S
C758 C742 1.349 . S
C758 H750 0.950 . S
C758 C756 1.327 . S
C759 C747 1.349 . S
C759 H753 0.950 . S
C759 C760 1.327 . S
C760 H754 0.950 . S
C760 C759 1.327 . S
C760 C764 1.429 . S
C761 C744 1.574 . S
C761 H755 0.949 . S
C761 C765 1.368 . S
C762 C743 1.429 . S
C762 C756 1.429 . S
C762 C763 1.523 . S
C763 C744 1.368 . S
C763 C757 1.368 . S
C763 C762 1.523 . S
C764 C748 1.429 . S
C764 C760 1.429 . S
C764 C765 1.523 . S
C765 C749 1.368 . S
C765 C761 1.368 . S
C765 C764 1.523 . S
H766 C741 0.950 . S
H767 C743 0.950 . S
H768 C744 0.949 . S
H769 C746 0.950 . S
H770 C748 0.950 . S
C771 C772 1.349 . S
C771 C773 1.327 . S
C771 H796 0.950 . S
C772 C771 1.349 . S
C772 C788 1.349 . S
C773 C771 1.327 . S
C773 C792 1.429 . S
C773 H797 0.950 . S
C774 C791 1.574 1_545 S
C774 C793 1.368 . S
C774 H798 0.949 . S
H775 C779 0.949 . S
C776 C777 1.349 . S
C776 C778 1.327 . S
C776 H799 0.950 . S
C777 C776 1.349 . S
C777 C789 1.349 . S
C778 C776 1.327 . S
C778 C794 1.429 . S
C778 H800 0.950 . S
C779 H775 0.949 . S
C779 C787 1.574 1_565 S
C779 C795 1.368 . S
H780 C788 0.950 . S
H781 C786 0.950 . S
H782 C787 0.949 . S
H783 C789 0.950 . S
H784 C790 0.950 . S
H785 C791 0.949 . S
C786 H781 0.950 . S
C786 C788 1.327 . S
C786 C792 1.429 . S
C787 C779 1.574 1_545 S
C787 H782 0.949 . S
C787 C793 1.368 . S
C788 C772 1.349 . S
C788 H780 0.950 . S
C788 C786 1.327 . S
C789 C777 1.349 . S
C789 H783 0.950 . S
C789 C790 1.327 . S
C790 H784 0.950 . S
C790 C789 1.327 . S
C790 C794 1.429 . S
C791 C774 1.574 1_565 S
C791 H785 0.949 . S
C791 C795 1.368 . S
C792 C773 1.429 . S
C792 C786 1.429 . S
C792 C793 1.523 . S
C793 C774 1.368 . S
C793 C787 1.368 . S
C793 C792 1.523 . S
C794 C778 1.429 . S
C794 C790 1.429 . S
C794 C795 1.523 . S
C795 C779 1.368 . S
C795 C791 1.368 . S
C795 C794 1.523 . S
H796 C771 0.950 . S
H797 C773 0.950 . S
H798 C774 0.949 . S
H799 C776 0.950 . S
H800 C778 0.950 . S
C801 C802 1.349 . S
C801 C803 1.327 . S
C801 H826 0.950 . S
C802 C801 1.349 . S
C802 C818 1.349 . S
C803 C801 1.327 . S
C803 C822 1.429 . S
C803 H827 0.950 . S
C804 C821 1.574 . S
C804 C823 1.368 . S
C804 H828 0.949 . S
H805 C809 0.949 . S
C806 C807 1.349 . S
C806 C808 1.327 . S
C806 H829 0.950 . S
C807 C806 1.349 . S
C807 C819 1.349 . S
C808 C806 1.327 . S
C808 C824 1.429 . S
C808 H830 0.950 . S
C809 H805 0.949 . S
C809 C817 1.574 . S
C809 C825 1.368 . S
H810 C818 0.950 . S
H811 C816 0.950 . S
H812 C817 0.949 . S
H813 C819 0.950 . S
H814 C820 0.950 . S
H815 C821 0.949 . S
C816 H811 0.950 . S
C816 C818 1.327 . S
C816 C822 1.429 . S
C817 C809 1.574 . S
C817 H812 0.949 . S
C817 C823 1.368 . S
C818 C802 1.349 . S
C818 H810 0.950 . S
C818 C816 1.327 . S
C819 C807 1.349 . S
C819 H813 0.950 . S
C819 C820 1.327 . S
C820 H814 0.950 . S
C820 C819 1.327 . S
C820 C824 1.429 . S
C821 C804 1.574 . S
C821 H815 0.949 . S
C821 C825 1.368 . S
C822 C803 1.429 . S
C822 C816 1.429 . S
C822 C823 1.523 . S
C823 C804 1.368 . S
C823 C817 1.368 . S
C823 C822 1.523 . S
C824 C808 1.429 . S
C824 C820 1.429 . S
C824 C825 1.523 . S
C825 C809 1.368 . S
C825 C821 1.368 . S
C825 C824 1.523 . S
H826 C801 0.950 . S
H827 C803 0.950 . S
H828 C804 0.949 . S
H829 C806 0.950 . S
H830 C808 0.950 . S
C831 C832 1.349 . S
C831 C833 1.327 . S
C831 H856 0.950 . S
C832 C831 1.349 . S
C832 C848 1.349 . S
C833 C831 1.327 . S
C833 C852 1.429 . S
C833 H857 0.950 . S
C834 C851 1.574 . S
C834 C853 1.368 . S
C834 H858 0.949 . S
H835 C839 0.949 . S
C836 C837 1.349 . S
C836 C838 1.327 . S
C836 H859 0.950 . S
C837 C836 1.349 . S
C837 C849 1.349 . S
C838 C836 1.327 . S
C838 C854 1.429 . S
C838 H860 0.950 . S
C839 H835 0.949 . S
C839 C847 1.574 . S
C839 C855 1.368 . S
H840 C848 0.950 . S
H841 C846 0.950 . S
H842 C847 0.949 . S
H843 C849 0.950 . S
H844 C850 0.950 . S
H845 C851 0.949 . S
C846 H841 0.950 . S
C846 C848 1.327 . S
C846 C852 1.429 . S
C847 C839 1.574 . S
C847 H842 0.949 . S
C847 C853 1.368 . S
C848 C832 1.349 . S
C848 H840 0.950 . S
C848 C846 1.327 . S
C849 C837 1.349 . S
C849 H843 0.950 . S
C849 C850 1.327 . S
C850 H844 0.950 . S
C850 C849 1.327 . S
C850 C854 1.429 . S
C851 C834 1.574 . S
C851 H845 0.949 . S
C851 C855 1.368 . S
C852 C833 1.429 . S
C852 C846 1.429 . S
C852 C853 1.523 . S
C853 C834 1.368 . S
C853 C847 1.368 . S
C853 C852 1.523 . S
C854 C838 1.429 . S
C854 C850 1.429 . S
C854 C855 1.523 . S
C855 C839 1.368 . S
C855 C851 1.368 . S
C855 C854 1.523 . S
H856 C831 0.950 . S
H857 C833 0.950 . S
H858 C834 0.949 . S
H859 C836 0.950 . S
H860 C838 0.950 . S
C861 C862 1.349 . S
C861 C863 1.327 . S
C861 H886 0.950 . S
C862 C861 1.349 . S
C862 C878 1.349 . S
C863 C861 1.327 . S
C863 C882 1.429 . S
C863 H887 0.950 . S
C864 C881 1.574 . S
C864 C883 1.368 . S
C864 H888 0.949 . S
H865 C869 0.949 . S
C866 C867 1.349 . S
C866 C868 1.327 . S
C866 H889 0.950 . S
C867 C866 1.349 . S
C867 C879 1.349 . S
C868 C866 1.327 . S
C868 C884 1.429 . S
C868 H890 0.950 . S
C869 H865 0.949 . S
C869 C877 1.574 . S
C869 C885 1.368 . S
H870 C878 0.950 . S
H871 C876 0.950 . S
H872 C877 0.949 . S
H873 C879 0.950 . S
H874 C880 0.950 . S
H875 C881 0.949 . S
C876 H871 0.950 . S
C876 C878 1.327 . S
C876 C882 1.429 . S
C877 C869 1.574 . S
C877 H872 0.949 . S
C877 C883 1.368 . S
C878 C862 1.349 . S
C878 H870 0.950 . S
C878 C876 1.327 . S
C879 C867 1.349 . S
C879 H873 0.950 . S
C879 C880 1.327 . S
C880 H874 0.950 . S
C880 C879 1.327 . S
C880 C884 1.429 . S
C881 C864 1.574 . S
C881 H875 0.949 . S
C881 C885 1.368 . S
C882 C863 1.429 . S
C882 C876 1.429 . S
C882 C883 1.523 . S
C883 C864 1.368 . S
C883 C877 1.368 . S
C883 C882 1.523 . S
C884 C868 1.429 . S
C884 C880 1.429 . S
C884 C885 1.523 . S
C885 C869 1.368 . S
C885 C881 1.368 . S
C885 C884 1.523 . S
H886 C861 0.950 . S
H887 C863 0.950 . S
H888 C864 0.949 . S
H889 C866 0.950 . S
H890 C868 0.950 . S
C891 C892 1.349 . S
C891 C893 1.327 . S
C891 H916 0.950 . S
C892 C891 1.349 . S
C892 C908 1.349 . S
C893 C891 1.327 . S
C893 C912 1.429 . S
C893 H917 0.950 . S
C894 C911 1.574 . S
C894 C913 1.368 . S
C894 H918 0.949 . S
H895 C899 0.949 . S
C896 C897 1.349 . S
C896 C898 1.327 . S
C896 H919 0.950 . S
C897 C896 1.349 . S
C897 C909 1.349 . S
C898 C896 1.327 . S
C898 C914 1.429 . S
C898 H920 0.950 . S
C899 H895 0.949 . S
C899 C907 1.574 . S
C899 C915 1.368 . S
H900 C908 0.950 . S
H901 C906 0.950 . S
H902 C907 0.949 . S
H903 C909 0.950 . S
H904 C910 0.950 . S
H905 C911 0.949 . S
C906 H901 0.950 . S
C906 C908 1.327 . S
C906 C912 1.429 . S
C907 C899 1.574 . S
C907 H902 0.949 . S
C907 C913 1.368 . S
C908 C892 1.349 . S
C908 H900 0.950 . S
C908 C906 1.327 . S
C909 C897 1.349 . S
C909 H903 0.950 . S
C909 C910 1.327 . S
C910 H904 0.950 . S
C910 C909 1.327 . S
C910 C914 1.429 . S
C911 C894 1.574 . S
C911 H905 0.949 . S
C911 C915 1.368 . S
C912 C893 1.429 . S
C912 C906 1.429 . S
C912 C913 1.523 . S
C913 C894 1.368 . S
C913 C907 1.368 . S
C913 C912 1.523 . S
C914 C898 1.429 . S
C914 C910 1.429 . S
C914 C915 1.523 . S
C915 C899 1.368 . S
C915 C911 1.368 . S
C915 C914 1.523 . S
H916 C891 0.950 . S
H917 C893 0.950 . S
H918 C894 0.949 . S
H919 C896 0.950 . S
H920 C898 0.950 . S
C921 C922 1.349 . S
C921 C923 1.327 . S
C921 H946 0.950 . S
C922 C921 1.349 . S
C922 C938 1.349 . S
C923 C921 1.327 . S
C923 C942 1.429 . S
C923 H947 0.950 . S
C924 C941 1.574 . S
C924 C943 1.368 . S
C924 H948 0.949 . S
H925 C929 0.949 . S
C926 C927 1.349 . S
C926 C928 1.327 . S
C926 H949 0.950 . S
C927 C926 1.349 . S
C927 C939 1.349 . S
C928 C926 1.327 . S
C928 C944 1.429 . S
C928 H950 0.950 . S
C929 H925 0.949 . S
C929 C937 1.574 . S
C929 C945 1.368 . S
H930 C938 0.950 . S
H931 C936 0.950 . S
H932 C937 0.949 . S
H933 C939 0.950 . S
H934 C940 0.950 . S
H935 C941 0.949 . S
C936 H931 0.950 . S
C936 C938 1.327 . S
C936 C942 1.429 . S
C937 C929 1.574 . S
C937 H932 0.949 . S
C937 C943 1.368 . S
C938 C922 1.349 . S
C938 H930 0.950 . S
C938 C936 1.327 . S
C939 C927 1.349 . S
C939 H933 0.950 . S
C939 C940 1.327 . S
C940 H934 0.950 . S
C940 C939 1.327 . S
C940 C944 1.429 . S
C941 C924 1.574 . S
C941 H935 0.949 . S
C941 C945 1.368 . S
C942 C923 1.429 . S
C942 C936 1.429 . S
C942 C943 1.523 . S
C943 C924 1.368 . S
C943 C937 1.368 . S
C943 C942 1.523 . S
C944 C928 1.429 . S
C944 C940 1.429 . S
C944 C945 1.523 . S
C945 C929 1.368 . S
C945 C941 1.368 . S
C945 C944 1.523 . S
H946 C921 0.950 . S
H947 C923 0.950 . S
H948 C924 0.949 . S
H949 C926 0.950 . S
H950 C928 0.950 . S
C951 C952 1.349 . S
C951 C953 1.327 . S
C951 H976 0.950 . S
C952 C951 1.349 . S
C952 C968 1.349 . S
C953 C951 1.327 . S
C953 C972 1.429 . S
C953 H977 0.950 . S
C954 C971 1.574 . S
C954 C973 1.368 . S
C954 H978 0.949 . S
H955 C959 0.949 . S
C956 C957 1.349 . S
C956 C958 1.327 . S
C956 H979 0.950 . S
C957 C956 1.349 . S
C957 C969 1.349 . S
C958 C956 1.327 . S
C958 C974 1.429 . S
C958 H980 0.950 . S
C959 H955 0.949 . S
C959 C967 1.574 . S
C959 C975 1.368 . S
H960 C968 0.950 . S
H961 C966 0.950 . S
H962 C967 0.949 . S
H963 C969 0.950 . S
H964 C970 0.950 . S
H965 C971 0.949 . S
C966 H961 0.950 . S
C966 C968 1.327 . S
C966 C972 1.429 . S
C967 C959 1.574 . S
C967 H962 0.949 . S
C967 C973 1.368 . S
C968 C952 1.349 . S
C968 H960 0.950 . S
C968 C966 1.327 . S
C969 C957 1.349 . S
C969 H963 0.950 . S
C969 C970 1.327 . S
C970 H964 0.950 . S
C970 C969 1.327 . S
C970 C974 1.429 . S
C971 C954 1.574 . S
C971 H965 0.949 . S
C971 C975 1.368 . S
C972 C953 1.429 . S
C972 C966 1.429 . S
C972 C973 1.523 . S
C973 C954 1.368 . S
C973 C967 1.368 . S
C973 C972 1.523 . S
C974 C958 1.429 . S
C974 C970 1.429 . S
C974 C975 1.523 . S
C975 C959 1.368 . S
C975 C971 1.368 . S
C975 C974 1.523 . S
H976 C951 0.950 . S
H977 C953 0.950 . S
H978 C954 0.949 . S
H979 C956 0.950 . S
H980 C958 0.950 . S
C981 C982 1.349 . S
C981 C983 1.327 . S
C981 H1006 0.950 . S
C982 C981 1.349 . S
C982 C998 1.349 . S
C983 C981 1.327 . S
C983 C1002 1.429 . S
C983 H1007 0.950 . S
C984 C1001 1.574 1_545 S
C984 C1003 1.368 . S
C984 H1008 0.949 . S
H985 C989 0.949 . S
C986 C987 1.349 . S
C986 C988 1.327 . S
C986 H1009 0.950 . S
C987 C986 1.349 . S
C987 C999 1.349 . S
C988 C986 1.327 . S
C988 C1004 1.429 . S
C988 H1010 0.950 . S
C989 H985 0.949 . S
C989 C997 1.574 1_565 S
C989 C1005 1.368 . S
H990 C998 0.950 . S
H991 C996 0.950 . S
H992 C997 0.949 . S
H993 C999 0.950 . S
H994 C1000 0.950 . S
H995 C1001 0.949 . S
C996 H991 0.950 . S
C996 C998 1.327 . S
C996 C1002 1.429 . S
C997 C989 1.574 1_545 S
C997 H992 0.949 . S
C997 C1003 1.368 . S
C998 C982 1.349 . S
C998 H990 0.950 . S
C998 C996 1.327 . S
C999 C987 1.349 . S
C999 H993 0.950 . S
C999 C1000 1.327 . S
C1000 H994 0.950 . S
C1000 C999 1.327 . S
C1000 C1004 1.429 . S
C1001 C984 1.574 1_565 S
C1001 H995 0.949 . S
C1001 C1005 1.368 . S
C1002 C983 1.429 . S
C1002 C996 1.429 . S
C1002 C1003 1.523 . S
C1003 C984 1.368 . S
C1003 C997 1.368 . S
C1003 C1002 1.523 . S
C1004 C988 1.429 . S
C1004 C1000 1.429 . S
C1004 C1005 1.523 . S
C1005 C989 1.368 . S
C1005 C1001 1.368 . S
C1005 C1004 1.523 . S
H1006 C981 0.950 . S
H1007 C983 0.950 . S
H1008 C984 0.949 . S
H1009 C986 0.950 . S
H1010 C988 0.950 . S
C1011 C1012 1.349 . S
C1011 C1013 1.327 . S
C1011 H1036 0.950 . S
C1012 C1011 1.349 . S
C1012 C1028 1.349 . S
C1013 C1011 1.327 . S
C1013 C1032 1.429 . S
C1013 H1037 0.950 . S
C1014 C1031 1.574 1_655 S
C1014 C1033 1.368 . S
C1014 H1038 0.949 . S
H1015 C1019 0.949 . S
C1016 C1017 1.349 . S
C1016 C1018 1.327 . S
C1016 H1039 0.950 . S
C1017 C1016 1.349 . S
C1017 C1029 1.349 . S
C1018 C1016 1.327 . S
C1018 C1034 1.429 . S
C1018 H1040 0.950 . S
C1019 H1015 0.949 . S
C1019 C1027 1.574 1_455 S
C1019 C1035 1.368 . S
H1020 C1028 0.950 . S
H1021 C1026 0.950 . S
H1022 C1027 0.949 . S
H1023 C1029 0.950 . S
H1024 C1030 0.950 . S
H1025 C1031 0.949 . S
C1026 H1021 0.950 . S
C1026 C1028 1.327 . S
C1026 C1032 1.429 . S
C1027 C1019 1.574 1_655 S
C1027 H1022 0.949 . S
C1027 C1033 1.368 . S
C1028 C1012 1.349 . S
C1028 H1020 0.950 . S
C1028 C1026 1.327 . S
C1029 C1017 1.349 . S
C1029 H1023 0.950 . S
C1029 C1030 1.327 . S
C1030 H1024 0.950 . S
C1030 C1029 1.327 . S
C1030 C1034 1.429 . S
C1031 C1014 1.574 1_455 S
C1031 H1025 0.949 . S
C1031 C1035 1.368 . S
C1032 C1013 1.429 . S
C1032 C1026 1.429 . S
C1032 C1033 1.523 . S
C1033 C1014 1.368 . S
C1033 C1027 1.368 . S
C1033 C1032 1.523 . S
C1034 C1018 1.429 . S
C1034 C1030 1.429 . S
C1034 C1035 1.523 . S
C1035 C1019 1.368 . S
C1035 C1031 1.368 . S
C1035 C1034 1.523 . S
H1036 C1011 0.950 . S
H1037 C1013 0.950 . S
H1038 C1014 0.949 . S
H1039 C1016 0.950 . S
H1040 C1018 0.950 . S
C1041 C1042 1.349 . S
C1041 C1043 1.327 . S
C1041 H1066 0.950 . S
C1042 C1041 1.349 . S
C1042 C1058 1.349 . S
C1043 C1041 1.327 . S
C1043 C1062 1.429 . S
C1043 H1067 0.950 . S
C1044 C1061 1.574 . S
C1044 C1063 1.368 . S
C1044 H1068 0.949 . S
H1045 C1049 0.949 . S
C1046 C1047 1.349 . S
C1046 C1048 1.327 . S
C1046 H1069 0.950 . S
C1047 C1046 1.349 . S
C1047 C1059 1.349 . S
C1048 C1046 1.327 . S
C1048 C1064 1.429 . S
C1048 H1070 0.950 . S
C1049 H1045 0.949 . S
C1049 C1057 1.574 . S
C1049 C1065 1.368 . S
H1050 C1058 0.950 . S
H1051 C1056 0.950 . S
H1052 C1057 0.949 . S
H1053 C1059 0.950 . S
H1054 C1060 0.950 . S
H1055 C1061 0.949 . S
C1056 H1051 0.950 . S
C1056 C1058 1.327 . S
C1056 C1062 1.429 . S
C1057 C1049 1.574 . S
C1057 H1052 0.949 . S
C1057 C1063 1.368 . S
C1058 C1042 1.349 . S
C1058 H1050 0.950 . S
C1058 C1056 1.327 . S
C1059 C1047 1.349 . S
C1059 H1053 0.950 . S
C1059 C1060 1.327 . S
C1060 H1054 0.950 . S
C1060 C1059 1.327 . S
C1060 C1064 1.429 . S
C1061 C1044 1.574 . S
C1061 H1055 0.949 . S
C1061 C1065 1.368 . S
C1062 C1043 1.429 . S
C1062 C1056 1.429 . S
C1062 C1063 1.523 . S
C1063 C1044 1.368 . S
C1063 C1057 1.368 . S
C1063 C1062 1.523 . S
C1064 C1048 1.429 . S
C1064 C1060 1.429 . S
C1064 C1065 1.523 . S
C1065 C1049 1.368 . S
C1065 C1061 1.368 . S
C1065 C1064 1.523 . S
H1066 C1041 0.950 . S
H1067 C1043 0.950 . S
H1068 C1044 0.949 . S
H1069 C1046 0.950 . S
H1070 C1048 0.950 . S
C1071 C1072 1.349 . S
C1071 C1073 1.327 . S
C1071 H1096 0.950 . S
C1072 C1071 1.349 . S
C1072 C1088 1.349 . S
C1073 C1071 1.327 . S
C1073 C1092 1.429 . S
C1073 H1097 0.950 . S
C1074 C1091 1.574 . S
C1074 C1093 1.368 . S
C1074 H1098 0.949 . S
H1075 C1079 0.949 . S
C1076 C1077 1.349 . S
C1076 C1078 1.327 . S
C1076 H1099 0.950 . S
C1077 C1076 1.349 . S
C1077 C1089 1.349 . S
C1078 C1076 1.327 . S
C1078 C1094 1.429 . S
C1078 H1100 0.950 . S
C1079 H1075 0.949 . S
C1079 C1087 1.574 . S
C1079 C1095 1.368 . S
H1080 C1088 0.950 . S
H1081 C1086 0.950 . S
H1082 C1087 0.949 . S
H1083 C1089 0.950 . S
H1084 C1090 0.950 . S
H1085 C1091 0.949 . S
C1086 H1081 0.950 . S
C1086 C1088 1.327 . S
C1086 C1092 1.429 . S
C1087 C1079 1.574 . S
C1087 H1082 0.949 . S
C1087 C1093 1.368 . S
C1088 C1072 1.349 . S
C1088 H1080 0.950 . S
C1088 C1086 1.327 . S
C1089 C1077 1.349 . S
C1089 H1083 0.950 . S
C1089 C1090 1.327 . S
C1090 H1084 0.950 . S
C1090 C1089 1.327 . S
C1090 C1094 1.429 . S
C1091 C1074 1.574 . S
C1091 H1085 0.949 . S
C1091 C1095 1.368 . S
C1092 C1073 1.429 . S
C1092 C1086 1.429 . S
C1092 C1093 1.523 . S
C1093 C1074 1.368 . S
C1093 C1087 1.368 . S
C1093 C1092 1.523 . S
C1094 C1078 1.429 . S
C1094 C1090 1.429 . S
C1094 C1095 1.523 . S
C1095 C1079 1.368 . S
C1095 C1091 1.368 . S
C1095 C1094 1.523 . S
H1096 C1071 0.950 . S
H1097 C1073 0.950 . S
H1098 C1074 0.949 . S
H1099 C1076 0.950 . S
H1100 C1078 0.950 . S
C1101 C1102 1.349 . S
C1101 C1103 1.327 . S
C1101 H1126 0.950 . S
C1102 C1101 1.349 . S
C1102 C1118 1.349 . S
C1103 C1101 1.327 . S
C1103 C1122 1.429 . S
C1103 H1127 0.950 . S
C1104 C1121 1.574 . S
C1104 C1123 1.368 . S
C1104 H1128 0.949 . S
H1105 C1109 0.949 . S
C1106 C1107 1.349 . S
C1106 C1108 1.327 . S
C1106 H1129 0.950 . S
C1107 C1106 1.349 . S
C1107 C1119 1.349 . S
C1108 C1106 1.327 . S
C1108 C1124 1.429 . S
C1108 H1130 0.950 . S
C1109 H1105 0.949 . S
C1109 C1117 1.574 . S
C1109 C1125 1.368 . S
H1110 C1118 0.950 . S
H1111 C1116 0.950 . S
H1112 C1117 0.949 . S
H1113 C1119 0.950 . S
H1114 C1120 0.950 . S
H1115 C1121 0.949 . S
C1116 H1111 0.950 . S
C1116 C1118 1.327 . S
C1116 C1122 1.429 . S
C1117 C1109 1.574 . S
C1117 H1112 0.949 . S
C1117 C1123 1.368 . S
C1118 C1102 1.349 . S
C1118 H1110 0.950 . S
C1118 C1116 1.327 . S
C1119 C1107 1.349 . S
C1119 H1113 0.950 . S
C1119 C1120 1.327 . S
C1120 H1114 0.950 . S
C1120 C1119 1.327 . S
C1120 C1124 1.429 . S
C1121 C1104 1.574 . S
C1121 H1115 0.949 . S
C1121 C1125 1.368 . S
C1122 C1103 1.429 . S
C1122 C1116 1.429 . S
C1122 C1123 1.523 . S
C1123 C1104 1.368 . S
C1123 C1117 1.368 . S
C1123 C1122 1.523 . S
C1124 C1108 1.429 . S
C1124 C1120 1.429 . S
C1124 C1125 1.523 . S
C1125 C1109 1.368 . S
C1125 C1121 1.368 . S
C1125 C1124 1.523 . S
H1126 C1101 0.950 . S
H1127 C1103 0.950 . S
H1128 C1104 0.949 . S
H1129 C1106 0.950 . S
H1130 C1108 0.950 . S
C1131 C1132 1.349 . S
C1131 C1133 1.327 . S
C1131 H1156 0.950 . S
C1132 C1131 1.349 . S
C1132 C1148 1.349 . S
C1133 C1131 1.327 . S
C1133 C1152 1.429 . S
C1133 H1157 0.950 . S
C1134 C1151 1.574 . S
C1134 C1153 1.368 . S
C1134 H1158 0.949 . S
H1135 C1139 0.949 . S
C1136 C1137 1.349 . S
C1136 C1138 1.327 . S
C1136 H1159 0.950 . S
C1137 C1136 1.349 . S
C1137 C1149 1.349 . S
C1138 C1136 1.327 . S
C1138 C1154 1.429 . S
C1138 H1160 0.950 . S
C1139 H1135 0.949 . S
C1139 C1147 1.574 . S
C1139 C1155 1.368 . S
H1140 C1148 0.950 . S
H1141 C1146 0.950 . S
H1142 C1147 0.949 . S
H1143 C1149 0.950 . S
H1144 C1150 0.950 . S
H1145 C1151 0.949 . S
C1146 H1141 0.950 . S
C1146 C1148 1.327 . S
C1146 C1152 1.429 . S
C1147 C1139 1.574 . S
C1147 H1142 0.949 . S
C1147 C1153 1.368 . S
C1148 C1132 1.349 . S
C1148 H1140 0.950 . S
C1148 C1146 1.327 . S
C1149 C1137 1.349 . S
C1149 H1143 0.950 . S
C1149 C1150 1.327 . S
C1150 H1144 0.950 . S
C1150 C1149 1.327 . S
C1150 C1154 1.429 . S
C1151 C1134 1.574 . S
C1151 H1145 0.949 . S
C1151 C1155 1.368 . S
C1152 C1133 1.429 . S
C1152 C1146 1.429 . S
C1152 C1153 1.523 . S
C1153 C1134 1.368 . S
C1153 C1147 1.368 . S
C1153 C1152 1.523 . S
C1154 C1138 1.429 . S
C1154 C1150 1.429 . S
C1154 C1155 1.523 . S
C1155 C1139 1.368 . S
C1155 C1151 1.368 . S
C1155 C1154 1.523 . S
H1156 C1131 0.950 . S
H1157 C1133 0.950 . S
H1158 C1134 0.949 . S
H1159 C1136 0.950 . S
H1160 C1138 0.950 . S
C1161 C1162 1.349 . S
C1161 C1163 1.327 . S
C1161 H1186 0.950 . S
C1162 C1161 1.349 . S
C1162 C1178 1.349 . S
C1163 C1161 1.327 . S
C1163 C1182 1.429 . S
C1163 H1187 0.950 . S
C1164 C1181 1.574 1_565 S
C1164 C1183 1.368 . S
C1164 H1188 0.949 . S
H1165 C1169 0.949 . S
C1166 C1167 1.349 . S
C1166 C1168 1.327 . S
C1166 H1189 0.950 . S
C1167 C1166 1.349 . S
C1167 C1179 1.349 . S
C1168 C1166 1.327 . S
C1168 C1184 1.429 . S
C1168 H1190 0.950 . S
C1169 H1165 0.949 . S
C1169 C1177 1.574 1_545 S
C1169 C1185 1.368 . S
H1170 C1178 0.950 . S
H1171 C1176 0.950 . S
H1172 C1177 0.949 . S
H1173 C1179 0.950 . S
H1174 C1180 0.950 . S
H1175 C1181 0.949 . S
C1176 H1171 0.950 . S
C1176 C1178 1.327 . S
C1176 C1182 1.429 . S
C1177 C1169 1.574 1_565 S
C1177 H1172 0.949 . S
C1177 C1183 1.368 . S
C1178 C1162 1.349 . S
C1178 H1170 0.950 . S
C1178 C1176 1.327 . S
C1179 C1167 1.349 . S
C1179 H1173 0.950 . S
C1179 C1180 1.327 . S
C1180 H1174 0.950 . S
C1180 C1179 1.327 . S
C1180 C1184 1.429 . S
C1181 C1164 1.574 1_545 S
C1181 H1175 0.949 . S
C1181 C1185 1.368 . S
C1182 C1163 1.429 . S
C1182 C1176 1.429 . S
C1182 C1183 1.523 . S
C1183 C1164 1.368 . S
C1183 C1177 1.368 . S
C1183 C1182 1.523 . S
C1184 C1168 1.429 . S
C1184 C1180 1.429 . S
C1184 C1185 1.523 . S
C1185 C1169 1.368 . S
C1185 C1181 1.368 . S
C1185 C1184 1.523 . S
H1186 C1161 0.950 . S
H1187 C1163 0.950 . S
H1188 C1164 0.949 . S
H1189 C1166 0.950 . S
H1190 C1168 0.950 . S
C1191 C1192 1.349 . S
C1191 C1193 1.327 . S
C1191 H1216 0.950 . S
C1192 C1191 1.349 . S
C1192 C1208 1.349 . S
C1193 C1191 1.327 . S
C1193 C1212 1.429 . S
C1193 H1217 0.950 . S
C1194 C1211 1.574 1_455 S
C1194 C1213 1.368 . S
C1194 H1218 0.949 . S
H1195 C1199 0.949 . S
C1196 C1197 1.349 . S
C1196 C1198 1.327 . S
C1196 H1219 0.950 . S
C1197 C1196 1.349 . S
C1197 C1209 1.349 . S
C1198 C1196 1.327 . S
C1198 C1214 1.429 . S
C1198 H1220 0.950 . S
C1199 H1195 0.949 . S
C1199 C1207 1.574 1_655 S
C1199 C1215 1.368 . S
H1200 C1208 0.950 . S
H1201 C1206 0.950 . S
H1202 C1207 0.949 . S
H1203 C1209 0.950 . S
H1204 C1210 0.950 . S
H1205 C1211 0.949 . S
C1206 H1201 0.950 . S
C1206 C1208 1.327 . S
C1206 C1212 1.429 . S
C1207 C1199 1.574 1_455 S
C1207 H1202 0.949 . S
C1207 C1213 1.368 . S
C1208 C1192 1.349 . S
C1208 H1200 0.950 . S
C1208 C1206 1.327 . S
C1209 C1197 1.349 . S
C1209 H1203 0.950 . S
C1209 C1210 1.327 . S
C1210 H1204 0.950 . S
C1210 C1209 1.327 . S
C1210 C1214 1.429 . S
C1211 C1194 1.574 1_655 S
C1211 H1205 0.949 . S
C1211 C1215 1.368 . S
C1212 C1193 1.429 . S
C1212 C1206 1.429 . S
C1212 C1213 1.523 . S
C1213 C1194 1.368 . S
C1213 C1207 1.368 . S
C1213 C1212 1.523 . S
C1214 C1198 1.429 . S
C1214 C1210 1.429 . S
C1214 C1215 1.523 . S
C1215 C1199 1.368 . S
C1215 C1211 1.368 . S
C1215 C1214 1.523 . S
H1216 C1191 0.950 . S
H1217 C1193 0.950 . S
H1218 C1194 0.949 . S
H1219 C1196 0.950 . S
H1220 C1198 0.950 . S
C1221 C1222 1.349 . S
C1221 C1223 1.327 . S
C1221 H1246 0.950 . S
C1222 C1221 1.349 . S
C1222 C1238 1.349 . S
C1223 C1221 1.327 . S
C1223 C1242 1.429 . S
C1223 H1247 0.950 . S
C1224 C1241 1.574 . S
C1224 C1243 1.368 . S
C1224 H1248 0.949 . S
H1225 C1229 0.949 . S
C1226 C1227 1.349 . S
C1226 C1228 1.327 . S
C1226 H1249 0.950 . S
C1227 C1226 1.349 . S
C1227 C1239 1.349 . S
C1228 C1226 1.327 . S
C1228 C1244 1.429 . S
C1228 H1250 0.950 . S
C1229 H1225 0.949 . S
C1229 C1237 1.574 . S
C1229 C1245 1.368 . S
H1230 C1238 0.950 . S
H1231 C1236 0.950 . S
H1232 C1237 0.949 . S
H1233 C1239 0.950 . S
H1234 C1240 0.950 . S
H1235 C1241 0.949 . S
C1236 H1231 0.950 . S
C1236 C1238 1.327 . S
C1236 C1242 1.429 . S
C1237 C1229 1.574 . S
C1237 H1232 0.949 . S
C1237 C1243 1.368 . S
C1238 C1222 1.349 . S
C1238 H1230 0.950 . S
C1238 C1236 1.327 . S
C1239 C1227 1.349 . S
C1239 H1233 0.950 . S
C1239 C1240 1.327 . S
C1240 H1234 0.950 . S
C1240 C1239 1.327 . S
C1240 C1244 1.429 . S
C1241 C1224 1.574 . S
C1241 H1235 0.949 . S
C1241 C1245 1.368 . S
C1242 C1223 1.429 . S
C1242 C1236 1.429 . S
C1242 C1243 1.523 . S
C1243 C1224 1.368 . S
C1243 C1237 1.368 . S
C1243 C1242 1.523 . S
C1244 C1228 1.429 . S
C1244 C1240 1.429 . S
C1244 C1245 1.523 . S
C1245 C1229 1.368 . S
C1245 C1241 1.368 . S
C1245 C1244 1.523 . S
H1246 C1221 0.950 . S
H1247 C1223 0.950 . S
H1248 C1224 0.949 . S
H1249 C1226 0.950 . S
H1250 C1228 0.950 . S
C1251 C1252 1.349 . S
C1251 C1253 1.327 . S
C1251 H1276 0.950 . S
C1252 C1251 1.349 . S
C1252 C1268 1.349 . S
C1253 C1251 1.327 . S
C1253 C1272 1.429 . S
C1253 H1277 0.950 . S
C1254 C1271 1.574 1_455 S
C1254 C1273 1.368 . S
C1254 H1278 0.949 . S
H1255 C1259 0.949 . S
C1256 C1257 1.349 . S
C1256 C1258 1.327 . S
C1256 H1279 0.950 . S
C1257 C1256 1.349 . S
C1257 C1269 1.349 . S
C1258 C1256 1.327 . S
C1258 C1274 1.429 . S
C1258 H1280 0.950 . S
C1259 H1255 0.949 . S
C1259 C1267 1.574 1_655 S
C1259 C1275 1.368 . S
H1260 C1268 0.950 . S
H1261 C1266 0.950 . S
H1262 C1267 0.949 . S
H1263 C1269 0.950 . S
H1264 C1270 0.950 . S
H1265 C1271 0.949 . S
C1266 H1261 0.950 . S
C1266 C1268 1.327 . S
C1266 C1272 1.429 . S
C1267 C1259 1.574 1_455 S
C1267 H1262 0.949 . S
C1267 C1273 1.368 . S
C1268 C1252 1.349 . S
C1268 H1260 0.950 . S
C1268 C1266 1.327 . S
C1269 C1257 1.349 . S
C1269 H1263 0.950 . S
C1269 C1270 1.327 . S
C1270 H1264 0.950 . S
C1270 C1269 1.327 . S
C1270 C1274 1.429 . S
C1271 C1254 1.574 1_655 S
C1271 H1265 0.949 . S
C1271 C1275 1.368 . S
C1272 C1253 1.429 . S
C1272 C1266 1.429 . S
C1272 C1273 1.523 . S
C1273 C1254 1.368 . S
C1273 C1267 1.368 . S
C1273 C1272 1.523 . S
C1274 C1258 1.429 . S
C1274 C1270 1.429 . S
C1274 C1275 1.523 . S
C1275 C1259 1.368 . S
C1275 C1271 1.368 . S
C1275 C1274 1.523 . S
H1276 C1251 0.950 . S
H1277 C1253 0.950 . S
H1278 C1254 0.949 . S
H1279 C1256 0.950 . S
H1280 C1258 0.950 . S
C1281 C1282 1.349 . S
C1281 C1283 1.327 . S
C1281 H1306 0.950 . S
C1282 C1281 1.349 . S
C1282 C1298 1.349 . S
C1283 C1281 1.327 . S
C1283 C1302 1.429 . S
C1283 H1307 0.950 . S
C1284 C1301 1.574 . S
C1284 C1303 1.368 . S
C1284 H1308 0.949 . S
H1285 C1289 0.949 . S
C1286 C1287 1.349 . S
C1286 C1288 1.327 . S
C1286 H1309 0.950 . S
C1287 C1286 1.349 . S
C1287 C1299 1.349 . S
C1288 C1286 1.327 . S
C1288 C1304 1.429 . S
C1288 H1310 0.950 . S
C1289 H1285 0.949 . S
C1289 C1297 1.574 . S
C1289 C1305 1.368 . S
H1290 C1298 0.950 . S
H1291 C1296 0.950 . S
H1292 C1297 0.949 . S
H1293 C1299 0.950 . S
H1294 C1300 0.950 . S
H1295 C1301 0.949 . S
C1296 H1291 0.950 . S
C1296 C1298 1.327 . S
C1296 C1302 1.429 . S
C1297 C1289 1.574 . S
C1297 H1292 0.949 . S
C1297 C1303 1.368 . S
C1298 C1282 1.349 . S
C1298 H1290 0.950 . S
C1298 C1296 1.327 . S
C1299 C1287 1.349 . S
C1299 H1293 0.950 . S
C1299 C1300 1.327 . S
C1300 H1294 0.950 . S
C1300 C1299 1.327 . S
C1300 C1304 1.429 . S
C1301 C1284 1.574 . S
C1301 H1295 0.949 . S
C1301 C1305 1.368 . S
C1302 C1283 1.429 . S
C1302 C1296 1.429 . S
C1302 C1303 1.523 . S
C1303 C1284 1.368 . S
C1303 C1297 1.368 . S
C1303 C1302 1.523 . S
C1304 C1288 1.429 . S
C1304 C1300 1.429 . S
C1304 C1305 1.523 . S
C1305 C1289 1.368 . S
C1305 C1301 1.368 . S
C1305 C1304 1.523 . S
H1306 C1281 0.950 . S
H1307 C1283 0.950 . S
H1308 C1284 0.949 . S
H1309 C1286 0.950 . S
H1310 C1288 0.950 . S
C1311 C1312 1.349 . S
C1311 C1313 1.327 . S
C1311 H1336 0.950 . S
C1312 C1311 1.349 . S
C1312 C1328 1.349 . S
C1313 C1311 1.327 . S
C1313 C1332 1.429 . S
C1313 H1337 0.950 . S
C1314 C1331 1.574 1_565 S
C1314 C1333 1.368 . S
C1314 H1338 0.949 . S
H1315 C1319 0.949 . S
C1316 C1317 1.349 . S
C1316 C1318 1.327 . S
C1316 H1339 0.950 . S
C1317 C1316 1.349 . S
C1317 C1329 1.349 . S
C1318 C1316 1.327 . S
C1318 C1334 1.429 . S
C1318 H1340 0.950 . S
C1319 H1315 0.949 . S
C1319 C1327 1.574 1_545 S
C1319 C1335 1.368 . S
H1320 C1328 0.950 . S
H1321 C1326 0.950 . S
H1322 C1327 0.949 . S
H1323 C1329 0.950 . S
H1324 C1330 0.950 . S
H1325 C1331 0.949 . S
C1326 H1321 0.950 . S
C1326 C1328 1.327 . S
C1326 C1332 1.429 . S
C1327 C1319 1.574 1_565 S
C1327 H1322 0.949 . S
C1327 C1333 1.368 . S
C1328 C1312 1.349 . S
C1328 H1320 0.950 . S
C1328 C1326 1.327 . S
C1329 C1317 1.349 . S
C1329 H1323 0.950 . S
C1329 C1330 1.327 . S
C1330 H1324 0.950 . S
C1330 C1329 1.327 . S
C1330 C1334 1.429 . S
C1331 C1314 1.574 1_545 S
C1331 H1325 0.949 . S
C1331 C1335 1.368 . S
C1332 C1313 1.429 . S
C1332 C1326 1.429 . S
C1332 C1333 1.523 . S
C1333 C1314 1.368 . S
C1333 C1327 1.368 . S
C1333 C1332 1.523 . S
C1334 C1318 1.429 . S
C1334 C1330 1.429 . S
C1334 C1335 1.523 . S
C1335 C1319 1.368 . S
C1335 C1331 1.368 . S
C1335 C1334 1.523 . S
H1336 C1311 0.950 . S
H1337 C1313 0.950 . S
H1338 C1314 0.949 . S
H1339 C1316 0.950 . S
H1340 C1318 0.950 . S
C1341 C1342 1.349 . S
C1341 C1343 1.327 . S
C1341 H1366 0.950 . S
C1342 C1341 1.349 . S
C1342 C1358 1.349 . S
C1343 C1341 1.327 . S
C1343 C1362 1.429 . S
C1343 H1367 0.950 . S
C1344 C1361 1.574 . S
C1344 C1363 1.368 . S
C1344 H1368 0.949 . S
H1345 C1349 0.949 . S
C1346 C1347 1.349 . S
C1346 C1348 1.327 . S
C1346 H1369 0.950 . S
C1347 C1346 1.349 . S
C1347 C1359 1.349 . S
C1348 C1346 1.327 . S
C1348 C1364 1.429 . S
C1348 H1370 0.950 . S
C1349 H1345 0.949 . S
C1349 C1357 1.574 . S
C1349 C1365 1.368 . S
H1350 C1358 0.950 . S
H1351 C1356 0.950 . S
H1352 C1357 0.949 . S
H1353 C1359 0.950 . S
H1354 C1360 0.950 . S
H1355 C1361 0.949 . S
C1356 H1351 0.950 . S
C1356 C1358 1.327 . S
C1356 C1362 1.429 . S
C1357 C1349 1.574 . S
C1357 H1352 0.949 . S
C1357 C1363 1.368 . S
C1358 C1342 1.349 . S
C1358 H1350 0.950 . S
C1358 C1356 1.327 . S
C1359 C1347 1.349 . S
C1359 H1353 0.950 . S
C1359 C1360 1.327 . S
C1360 H1354 0.950 . S
C1360 C1359 1.327 . S
C1360 C1364 1.429 . S
C1361 C1344 1.574 . S
C1361 H1355 0.949 . S
C1361 C1365 1.368 . S
C1362 C1343 1.429 . S
C1362 C1356 1.429 . S
C1362 C1363 1.523 . S
C1363 C1344 1.368 . S
C1363 C1357 1.368 . S
C1363 C1362 1.523 . S
C1364 C1348 1.429 . S
C1364 C1360 1.429 . S
C1364 C1365 1.523 . S
C1365 C1349 1.368 . S
C1365 C1361 1.368 . S
C1365 C1364 1.523 . S
H1366 C1341 0.950 . S
H1367 C1343 0.950 . S
H1368 C1344 0.949 . S
H1369 C1346 0.950 . S
H1370 C1348 0.950 . S
C1371 C1372 1.349 . S
C1371 C1373 1.327 . S
C1371 H1396 0.950 . S
C1372 C1371 1.349 . S
C1372 C1388 1.349 . S
C1373 C1371 1.327 . S
C1373 C1392 1.429 . S
C1373 H1397 0.950 . S
C1374 C1391 1.574 . S
C1374 C1393 1.368 . S
C1374 H1398 0.949 . S
H1375 C1379 0.949 . S
C1376 C1377 1.349 . S
C1376 C1378 1.327 . S
C1376 H1399 0.950 . S
C1377 C1376 1.349 . S
C1377 C1389 1.349 . S
C1378 C1376 1.327 . S
C1378 C1394 1.429 . S
C1378 H1400 0.950 . S
C1379 H1375 0.949 . S
C1379 C1387 1.574 . S
C1379 C1395 1.368 . S
H1380 C1388 0.950 . S
H1381 C1386 0.950 . S
H1382 C1387 0.949 . S
H1383 C1389 0.950 . S
H1384 C1390 0.950 . S
H1385 C1391 0.949 . S
C1386 H1381 0.950 . S
C1386 C1388 1.327 . S
C1386 C1392 1.429 . S
C1387 C1379 1.574 . S
C1387 H1382 0.949 . S
C1387 C1393 1.368 . S
C1388 C1372 1.349 . S
C1388 H1380 0.950 . S
C1388 C1386 1.327 . S
C1389 C1377 1.349 . S
C1389 H1383 0.950 . S
C1389 C1390 1.327 . S
C1390 H1384 0.950 . S
C1390 C1389 1.327 . S
C1390 C1394 1.429 . S
C1391 C1374 1.574 . S
C1391 H1385 0.949 . S
C1391 C1395 1.368 . S
C1392 C1373 1.429 . S
C1392 C1386 1.429 . S
C1392 C1393 1.523 . S
C1393 C1374 1.368 . S
C1393 C1387 1.368 . S
C1393 C1392 1.523 . S
C1394 C1378 1.429 . S
C1394 C1390 1.429 . S
C1394 C1395 1.523 . S
C1395 C1379 1.368 . S
C1395 C1391 1.368 . S
C1395 C1394 1.523 . S
H1396 C1371 0.950 . S
H1397 C1373 0.950 . S
H1398 C1374 0.949 . S
H1399 C1376 0.950 . S
H1400 C1378 0.950 . S
C1401 C1402 1.349 . S
C1401 C1403 1.327 . S
C1401 H1426 0.950 . S
C1402 C1401 1.349 . S
C1402 C1418 1.349 . S
C1403 C1401 1.327 . S
C1403 C1422 1.429 . S
C1403 H1427 0.950 . S
C1404 C1421 1.574 . S
C1404 C1423 1.368 . S
C1404 H1428 0.949 . S
H1405 C1409 0.949 . S
C1406 C1407 1.349 . S
C1406 C1408 1.327 . S
C1406 H1429 0.950 . S
C1407 C1406 1.349 . S
C1407 C1419 1.349 . S
C1408 C1406 1.327 . S
C1408 C1424 1.429 . S
C1408 H1430 0.950 . S
C1409 H1405 0.949 . S
C1409 C1417 1.574 . S
C1409 C1425 1.368 . S
H1410 C1418 0.950 . S
H1411 C1416 0.950 . S
H1412 C1417 0.949 . S
H1413 C1419 0.950 . S
H1414 C1420 0.950 . S
H1415 C1421 0.949 . S
C1416 H1411 0.950 . S
C1416 C1418 1.327 . S
C1416 C1422 1.429 . S
C1417 C1409 1.574 . S
C1417 H1412 0.949 . S
C1417 C1423 1.368 . S
C1418 C1402 1.349 . S
C1418 H1410 0.950 . S
C1418 C1416 1.327 . S
C1419 C1407 1.349 . S
C1419 H1413 0.950 . S
C1419 C1420 1.327 . S
C1420 H1414 0.950 . S
C1420 C1419 1.327 . S
C1420 C1424 1.429 . S
C1421 C1404 1.574 . S
C1421 H1415 0.949 . S
C1421 C1425 1.368 . S
C1422 C1403 1.429 . S
C1422 C1416 1.429 . S
C1422 C1423 1.523 . S
C1423 C1404 1.368 . S
C1423 C1417 1.368 . S
C1423 C1422 1.523 . S
C1424 C1408 1.429 . S
C1424 C1420 1.429 . S
C1424 C1425 1.523 . S
C1425 C1409 1.368 . S
C1425 C1421 1.368 . S
C1425 C1424 1.523 . S
H1426 C1401 0.950 . S
H1427 C1403 0.950 . S
H1428 C1404 0.949 . S
H1429 C1406 0.950 . S
H1430 C1408 0.950 . S
C1431 C1432 1.349 . S
C1431 C1433 1.327 . S
C1431 H1456 0.950 . S
C1432 C1431 1.349 . S
C1432 C1448 1.349 . S
C1433 C1431 1.327 . S
C1433 C1452 1.429 . S
C1433 H1457 0.950 . S
C1434 C1451 1.574 . S
C1434 C1453 1.368 . S
C1434 H1458 0.949 . S
H1435 C1439 0.949 . S
C1436 C1437 1.349 . S
C1436 C1438 1.327 . S
C1436 H1459 0.950 . S
C1437 C1436 1.349 . S
C1437 C1449 1.349 1_565 S
C1438 C1436 1.327 . S
C1438 C1454 1.429 . S
C1438 H1460 0.950 . S
C1439 H1435 0.949 . S
C1439 C1447 1.574 . S
C1439 C1455 1.368 . S
H1440 C1448 0.950 . S
H1441 C1446 0.950 . S
H1442 C1447 0.949 . S
H1443 C1449 0.950 . S
H1444 C1450 0.950 1_545 S
H1445 C1451 0.949 . S
C1446 H1441 0.950 . S
C1446 C1448 1.327 . S
C1446 C1452 1.429 . S
C1447 C1439 1.574 . S
C1447 H1442 0.949 . S
C1447 C1453 1.368 . S
C1448 C1432 1.349 . S
C1448 H1440 0.950 . S
C1448 C1446 1.327 . S
C1449 C1437 1.349 1_545 S
C1449 H1443 0.950 . S
C1449 C1450 1.327 1_545 S
C1450 H1444 0.950 1_565 S
C1450 C1449 1.327 1_565 S
C1450 C1454 1.429 . S
C1451 C1434 1.574 . S
C1451 H1445 0.949 . S
C1451 C1455 1.368 . S
C1452 C1433 1.429 . S
C1452 C1446 1.429 . S
C1452 C1453 1.523 . S
C1453 C1434 1.368 . S
C1453 C1447 1.368 . S
C1453 C1452 1.523 . S
C1454 C1438 1.429 . S
C1454 C1450 1.429 . S
C1454 C1455 1.523 . S
C1455 C1439 1.368 . S
C1455 C1451 1.368 . S
C1455 C1454 1.523 . S
H1456 C1431 0.950 . S
H1457 C1433 0.950 . S
H1458 C1434 0.949 . S
H1459 C1436 0.950 . S
H1460 C1438 0.950 . S
C1461 C1462 1.349 . S
C1461 C1463 1.327 . S
C1461 H1486 0.950 . S
C1462 C1461 1.349 . S
C1462 C1478 1.349 . S
C1463 C1461 1.327 . S
C1463 C1482 1.429 . S
C1463 H1487 0.950 . S
C1464 C1481 1.574 . S
C1464 C1483 1.368 . S
C1464 H1488 0.949 . S
H1465 C1469 0.949 1_655 S
C1466 C1467 1.349 . S
C1466 C1468 1.327 . S
C1466 H1489 0.950 . S
C1467 C1466 1.349 . S
C1467 C1479 1.349 1_455 S
C1468 C1466 1.327 . S
C1468 C1484 1.429 . S
C1468 H1490 0.950 . S
C1469 H1465 0.949 1_455 S
C1469 C1477 1.574 . S
C1469 C1485 1.368 . S
H1470 C1478 0.950 . S
H1471 C1476 0.950 . S
H1472 C1477 0.949 . S
H1473 C1479 0.950 . S
H1474 C1480 0.950 . S
H1475 C1481 0.949 . S
C1476 H1471 0.950 . S
C1476 C1478 1.327 . S
C1476 C1482 1.429 . S
C1477 C1469 1.574 . S
C1477 H1472 0.949 . S
C1477 C1483 1.368 . S
C1478 C1462 1.349 . S
C1478 H1470 0.950 . S
C1478 C1476 1.327 . S
C1479 C1467 1.349 1_655 S
C1479 H1473 0.950 . S
C1479 C1480 1.327 . S
C1480 H1474 0.950 . S
C1480 C1479 1.327 . S
C1480 C1484 1.429 1_655 S
C1481 C1464 1.574 . S
C1481 H1475 0.949 . S
C1481 C1485 1.368 . S
C1482 C1463 1.429 . S
C1482 C1476 1.429 . S
C1482 C1483 1.523 . S
C1483 C1464 1.368 . S
C1483 C1477 1.368 . S
C1483 C1482 1.523 . S
C1484 C1468 1.429 . S
C1484 C1480 1.429 1_455 S
C1484 C1485 1.523 . S
C1485 C1469 1.368 . S
C1485 C1481 1.368 . S
C1485 C1484 1.523 . S
H1486 C1461 0.950 . S
H1487 C1463 0.950 . S
H1488 C1464 0.949 . S
H1489 C1466 0.950 . S
H1490 C1468 0.950 . S
C1491 C1492 1.349 . S
C1491 C1493 1.327 . S
C1491 H1516 0.950 . S
C1492 C1491 1.349 . S
C1492 C1508 1.349 . S
C1493 C1491 1.327 . S
C1493 C1512 1.429 . S
C1493 H1517 0.950 . S
C1494 C1511 1.574 . S
C1494 C1513 1.368 . S
C1494 H1518 0.949 . S
H1495 C1499 0.949 . S
C1496 C1497 1.349 . S
C1496 C1498 1.327 . S
C1496 H1519 0.950 . S
C1497 C1496 1.349 . S
C1497 C1509 1.349 . S
C1498 C1496 1.327 . S
C1498 C1514 1.429 . S
C1498 H1520 0.950 . S
C1499 H1495 0.949 . S
C1499 C1507 1.574 . S
C1499 C1515 1.368 . S
H1500 C1508 0.950 . S
H1501 C1506 0.950 . S
H1502 C1507 0.949 . S
H1503 C1509 0.950 . S
H1504 C1510 0.950 . S
H1505 C1511 0.949 . S
C1506 H1501 0.950 . S
C1506 C1508 1.327 . S
C1506 C1512 1.429 . S
C1507 C1499 1.574 . S
C1507 H1502 0.949 . S
C1507 C1513 1.368 . S
C1508 C1492 1.349 . S
C1508 H1500 0.950 . S
C1508 C1506 1.327 . S
C1509 C1497 1.349 . S
C1509 H1503 0.950 . S
C1509 C1510 1.327 . S
C1510 H1504 0.950 . S
C1510 C1509 1.327 . S
C1510 C1514 1.429 . S
C1511 C1494 1.574 . S
C1511 H1505 0.949 . S
C1511 C1515 1.368 . S
C1512 C1493 1.429 . S
C1512 C1506 1.429 . S
C1512 C1513 1.523 . S
C1513 C1494 1.368 . S
C1513 C1507 1.368 . S
C1513 C1512 1.523 . S
C1514 C1498 1.429 . S
C1514 C1510 1.429 . S
C1514 C1515 1.523 . S
C1515 C1499 1.368 . S
C1515 C1511 1.368 . S
C1515 C1514 1.523 . S
H1516 C1491 0.950 . S
H1517 C1493 0.950 . S
H1518 C1494 0.949 . S
H1519 C1496 0.950 . S
H1520 C1498 0.950 . S
C1521 C1522 1.349 . S
C1521 C1523 1.327 . S
C1521 H1546 0.950 . S
C1522 C1521 1.349 . S
C1522 C1538 1.349 . S
C1523 C1521 1.327 . S
C1523 C1542 1.429 . S
C1523 H1547 0.950 . S
C1524 C1541 1.574 . S
C1524 C1543 1.368 . S
C1524 H1548 0.949 . S
H1525 C1529 0.949 . S
C1526 C1527 1.349 . S
C1526 C1528 1.327 . S
C1526 H1549 0.950 . S
C1527 C1526 1.349 . S
C1527 C1539 1.349 . S
C1528 C1526 1.327 . S
C1528 C1544 1.429 . S
C1528 H1550 0.950 . S
C1529 H1525 0.949 . S
C1529 C1537 1.574 . S
C1529 C1545 1.368 . S
H1530 C1538 0.950 . S
H1531 C1536 0.950 . S
H1532 C1537 0.949 . S
H1533 C1539 0.950 . S
H1534 C1540 0.950 . S
H1535 C1541 0.949 . S
C1536 H1531 0.950 . S
C1536 C1538 1.327 . S
C1536 C1542 1.429 . S
C1537 C1529 1.574 . S
C1537 H1532 0.949 . S
C1537 C1543 1.368 . S
C1538 C1522 1.349 . S
C1538 H1530 0.950 . S
C1538 C1536 1.327 . S
C1539 C1527 1.349 . S
C1539 H1533 0.950 . S
C1539 C1540 1.327 . S
C1540 H1534 0.950 . S
C1540 C1539 1.327 . S
C1540 C1544 1.429 . S
C1541 C1524 1.574 . S
C1541 H1535 0.949 . S
C1541 C1545 1.368 . S
C1542 C1523 1.429 . S
C1542 C1536 1.429 . S
C1542 C1543 1.523 . S
C1543 C1524 1.368 . S
C1543 C1537 1.368 . S
C1543 C1542 1.523 . S
C1544 C1528 1.429 . S
C1544 C1540 1.429 . S
C1544 C1545 1.523 . S
C1545 C1529 1.368 . S
C1545 C1541 1.368 . S
C1545 C1544 1.523 . S
H1546 C1521 0.950 . S
H1547 C1523 0.950 . S
H1548 C1524 0.949 . S
H1549 C1526 0.950 . S
H1550 C1528 0.950 . S
C1551 C1552 1.349 . S
C1551 C1553 1.327 . S
C1551 H1576 0.950 . S
C1552 C1551 1.349 . S
C1552 C1568 1.349 . S
C1553 C1551 1.327 . S
C1553 C1572 1.429 . S
C1553 H1577 0.950 . S
C1554 C1571 1.574 . S
C1554 C1573 1.368 . S
C1554 H1578 0.949 . S
H1555 C1559 0.949 . S
C1556 C1557 1.349 . S
C1556 C1558 1.327 . S
C1556 H1579 0.950 . S
C1557 C1556 1.349 . S
C1557 C1569 1.349 . S
C1558 C1556 1.327 . S
C1558 C1574 1.429 . S
C1558 H1580 0.950 . S
C1559 H1555 0.949 . S
C1559 C1567 1.574 . S
C1559 C1575 1.368 . S
H1560 C1568 0.950 . S
H1561 C1566 0.950 . S
H1562 C1567 0.949 . S
H1563 C1569 0.950 . S
H1564 C1570 0.950 . S
H1565 C1571 0.949 . S
C1566 H1561 0.950 . S
C1566 C1568 1.327 . S
C1566 C1572 1.429 . S
C1567 C1559 1.574 . S
C1567 H1562 0.949 . S
C1567 C1573 1.368 . S
C1568 C1552 1.349 . S
C1568 H1560 0.950 . S
C1568 C1566 1.327 . S
C1569 C1557 1.349 . S
C1569 H1563 0.950 . S
C1569 C1570 1.327 . S
C1570 H1564 0.950 . S
C1570 C1569 1.327 . S
C1570 C1574 1.429 . S
C1571 C1554 1.574 . S
C1571 H1565 0.949 . S
C1571 C1575 1.368 . S
C1572 C1553 1.429 . S
C1572 C1566 1.429 . S
C1572 C1573 1.523 . S
C1573 C1554 1.368 . S
C1573 C1567 1.368 . S
C1573 C1572 1.523 . S
C1574 C1558 1.429 . S
C1574 C1570 1.429 . S
C1574 C1575 1.523 . S
C1575 C1559 1.368 . S
C1575 C1571 1.368 . S
C1575 C1574 1.523 . S
H1576 C1551 0.950 . S
H1577 C1553 0.950 . S
H1578 C1554 0.949 . S
H1579 C1556 0.950 . S
H1580 C1558 0.950 . S
C1581 C1582 1.349 . S
C1581 C1583 1.327 . S
C1581 H1606 0.950 . S
C1582 C1581 1.349 . S
C1582 C1598 1.349 . S
C1583 C1581 1.327 . S
C1583 C1602 1.429 . S
C1583 H1607 0.950 . S
C1584 C1601 1.574 . S
C1584 C1603 1.368 . S
C1584 H1608 0.949 . S
H1585 C1589 0.949 . S
C1586 C1587 1.349 1_565 S
C1586 C1588 1.335 . S
C1586 H1609 0.950 . S
C1587 C1586 1.349 1_545 S
C1587 C1599 1.349 . S
C1588 C1586 1.335 . S
C1588 C1604 1.394 1_565 S
C1588 H1610 0.978 . S
C1589 H1585 0.949 . S
C1589 C1597 1.574 . S
C1589 C1605 1.368 . S
H1590 C1598 0.950 . S
H1591 C1596 0.950 . S
H1592 C1597 0.949 . S
H1593 C1599 0.950 . S
H1594 C1600 0.950 . S
H1595 C1601 0.949 1_565 S
C1596 H1591 0.950 . S
C1596 C1598 1.327 . S
C1596 C1602 1.429 . S
C1597 C1589 1.574 . S
C1597 H1592 0.949 . S
C1597 C1603 1.368 . S
C1598 C1582 1.349 . S
C1598 H1590 0.950 . S
C1598 C1596 1.327 . S
C1599 C1587 1.349 . S
C1599 H1593 0.950 . S
C1599 C1600 1.327 . S
C1600 H1594 0.950 . S
C1600 C1599 1.327 . S
C1600 C1604 1.429 . S
C1601 C1584 1.574 . S
C1601 H1595 0.949 1_545 S
C1601 C1605 1.368 . S
C1602 C1583 1.429 . S
C1602 C1596 1.429 . S
C1602 C1603 1.523 . S
C1603 C1584 1.368 . S
C1603 C1597 1.368 . S
C1603 C1602 1.523 . S
C1604 C1588 1.394 1_545 S
C1604 C1600 1.429 . S
C1604 C1605 1.523 . S
C1605 C1589 1.368 . S
C1605 C1601 1.368 . S
C1605 C1604 1.523 . S
H1606 C1581 0.950 . S
H1607 C1583 0.950 . S
H1608 C1584 0.949 . S
H1609 C1586 0.950 . S
H1610 C1588 0.978 . S
C1611 C1612 1.349 . S
C1611 C1613 1.327 . S
C1611 H1636 0.950 . S
C1612 C1611 1.349 . S
C1612 C1628 1.349 . S
C1613 C1611 1.327 . S
C1613 C1632 1.429 . S
C1613 H1637 0.950 . S
C1614 C1631 1.574 . S
C1614 C1633 1.368 . S
C1614 H1638 0.949 . S
H1615 C1619 0.949 . S
C1616 C1617 1.349 . S
C1616 C1618 1.327 . S
C1616 H1639 0.950 . S
C1617 C1616 1.349 . S
C1617 C1629 1.349 . S
C1618 C1616 1.327 . S
C1618 C1634 1.429 . S
C1618 H1640 0.950 . S
C1619 H1615 0.949 . S
C1619 C1627 1.574 . S
C1619 C1635 1.368 . S
H1620 C1628 0.950 . S
H1621 C1626 0.950 . S
H1622 C1627 0.949 . S
H1623 C1629 0.950 . S
H1624 C1630 0.950 . S
H1625 C1631 0.949 . S
C1626 H1621 0.950 . S
C1626 C1628 1.327 . S
C1626 C1632 1.429 . S
C1627 C1619 1.574 . S
C1627 H1622 0.949 . S
C1627 C1633 1.368 . S
C1628 C1612 1.349 . S
C1628 H1620 0.950 . S
C1628 C1626 1.327 . S
C1629 C1617 1.349 . S
C1629 H1623 0.950 . S
C1629 C1630 1.327 . S
C1630 H1624 0.950 . S
C1630 C1629 1.327 . S
C1630 C1634 1.429 . S
C1631 C1614 1.574 . S
C1631 H1625 0.949 . S
C1631 C1635 1.368 . S
C1632 C1613 1.429 . S
C1632 C1626 1.429 . S
C1632 C1633 1.523 . S
C1633 C1614 1.368 . S
C1633 C1627 1.368 . S
C1633 C1632 1.523 . S
C1634 C1618 1.429 . S
C1634 C1630 1.429 . S
C1634 C1635 1.523 . S
C1635 C1619 1.368 . S
C1635 C1631 1.368 . S
C1635 C1634 1.523 . S
H1636 C1611 0.950 . S
H1637 C1613 0.950 . S
H1638 C1614 0.949 . S
H1639 C1616 0.950 . S
H1640 C1618 0.950 . S
C1641 C1642 1.349 . S
C1641 C1643 1.327 . S
C1641 H1666 0.950 . S
C1642 C1641 1.349 . S
C1642 C1658 1.349 . S
C1643 C1641 1.327 . S
C1643 C1662 1.429 . S
C1643 H1667 0.950 . S
C1644 C1661 1.574 . S
C1644 C1663 1.368 . S
C1644 H1668 0.949 . S
H1645 C1649 0.949 . S
C1646 C1647 1.349 . S
C1646 C1648 1.327 . S
C1646 H1669 0.950 . S
C1647 C1646 1.349 . S
C1647 C1659 1.349 . S
C1648 C1646 1.327 . S
C1648 C1664 1.429 . S
C1648 H1670 0.950 . S
C1649 H1645 0.949 . S
C1649 C1657 1.574 . S
C1649 C1665 1.368 . S
H1650 C1658 0.950 . S
H1651 C1656 0.950 . S
H1652 C1657 0.949 . S
H1653 C1659 0.950 . S
H1654 C1660 0.950 . S
H1655 C1661 0.949 . S
C1656 H1651 0.950 . S
C1656 C1658 1.327 . S
C1656 C1662 1.429 . S
C1657 C1649 1.574 . S
C1657 H1652 0.949 . S
C1657 C1663 1.368 . S
C1658 C1642 1.349 . S
C1658 H1650 0.950 . S
C1658 C1656 1.327 . S
C1659 C1647 1.349 . S
C1659 H1653 0.950 . S
C1659 C1660 1.327 . S
C1660 H1654 0.950 . S
C1660 C1659 1.327 . S
C1660 C1664 1.429 . S
C1661 C1644 1.574 . S
C1661 H1655 0.949 . S
C1661 C1665 1.368 . S
C1662 C1643 1.429 . S
C1662 C1656 1.429 . S
C1662 C1663 1.523 . S
C1663 C1644 1.368 . S
C1663 C1657 1.368 . S
C1663 C1662 1.523 . S
C1664 C1648 1.429 . S
C1664 C1660 1.429 . S
C1664 C1665 1.523 . S
C1665 C1649 1.368 . S
C1665 C1661 1.368 . S
C1665 C1664 1.523 . S
H1666 C1641 0.950 . S
H1667 C1643 0.950 . S
H1668 C1644 0.949 . S
H1669 C1646 0.950 . S
H1670 C1648 0.950 . S
C1671 C1672 1.349 . S
C1671 C1673 1.327 . S
C1671 H1696 0.950 . S
C1672 C1671 1.349 . S
C1672 C1688 1.349 . S
C1673 C1671 1.327 . S
C1673 C1692 1.429 . S
C1673 H1697 0.950 . S
C1674 C1691 1.574 . S
C1674 C1693 1.368 . S
C1674 H1698 0.949 . S
H1675 C1679 0.949 . S
C1676 C1677 1.349 . S
C1676 C1678 1.327 . S
C1676 H1699 0.950 . S
C1677 C1676 1.349 . S
C1677 C1689 1.349 . S
C1678 C1676 1.327 . S
C1678 C1694 1.429 . S
C1678 H1700 0.950 . S
C1679 H1675 0.949 . S
C1679 C1687 1.574 . S
C1679 C1695 1.368 . S
H1680 C1688 0.950 . S
H1681 C1686 0.950 . S
H1682 C1687 0.949 . S
H1683 C1689 0.950 . S
H1684 C1690 0.950 . S
H1685 C1691 0.949 . S
C1686 H1681 0.950 . S
C1686 C1688 1.327 . S
C1686 C1692 1.429 . S
C1687 C1679 1.574 . S
C1687 H1682 0.949 . S
C1687 C1693 1.368 . S
C1688 C1672 1.349 . S
C1688 H1680 0.950 . S
C1688 C1686 1.327 . S
C1689 C1677 1.349 . S
C1689 H1683 0.950 . S
C1689 C1690 1.327 . S
C1690 H1684 0.950 . S
C1690 C1689 1.327 . S
C1690 C1694 1.429 . S
C1691 C1674 1.574 . S
C1691 H1685 0.949 . S
C1691 C1695 1.368 . S
C1692 C1673 1.429 . S
C1692 C1686 1.429 . S
C1692 C1693 1.523 . S
C1693 C1674 1.368 . S
C1693 C1687 1.368 . S
C1693 C1692 1.523 . S
C1694 C1678 1.429 . S
C1694 C1690 1.429 . S
C1694 C1695 1.523 . S
C1695 C1679 1.368 . S
C1695 C1691 1.368 . S
C1695 C1694 1.523 . S
H1696 C1671 0.950 . S
H1697 C1673 0.950 . S
H1698 C1674 0.949 . S
H1699 C1676 0.950 . S
H1700 C1678 0.950 . S
C1701 C1702 1.349 . S
C1701 C1703 1.327 . S
C1701 H1726 0.950 . S
C1702 C1701 1.349 . S
C1702 C1718 1.349 . S
C1703 C1701 1.327 . S
C1703 C1722 1.429 . S
C1703 H1727 0.950 . S
C1704 C1721 1.574 . S
C1704 C1723 1.368 . S
C1704 H1728 0.949 . S
H1705 C1709 0.949 . S
C1706 C1707 1.349 . S
C1706 C1708 1.327 . S
C1706 H1729 0.950 . S
C1707 C1706 1.349 . S
C1707 C1719 1.349 . S
C1708 C1706 1.327 . S
C1708 C1724 1.429 . S
C1708 H1730 0.950 . S
C1709 H1705 0.949 . S
C1709 C1717 1.574 . S
C1709 C1725 1.368 . S
H1710 C1718 0.950 . S
H1711 C1716 0.950 . S
H1712 C1717 0.949 . S
H1713 C1719 0.950 . S
H1714 C1720 0.950 . S
H1715 C1721 0.949 . S
C1716 H1711 0.950 . S
C1716 C1718 1.327 . S
C1716 C1722 1.429 . S
C1717 C1709 1.574 . S
C1717 H1712 0.949 . S
C1717 C1723 1.368 . S
C1718 C1702 1.349 . S
C1718 H1710 0.950 . S
C1718 C1716 1.327 . S
C1719 C1707 1.349 . S
C1719 H1713 0.950 . S
C1719 C1720 1.327 . S
C1720 H1714 0.950 . S
C1720 C1719 1.327 . S
C1720 C1724 1.429 . S
C1721 C1704 1.574 . S
C1721 H1715 0.949 . S
C1721 C1725 1.368 . S
C1722 C1703 1.429 . S
C1722 C1716 1.429 . S
C1722 C1723 1.523 . S
C1723 C1704 1.368 . S
C1723 C1717 1.368 . S
C1723 C1722 1.523 . S
C1724 C1708 1.429 . S
C1724 C1720 1.429 . S
C1724 C1725 1.523 . S
C1725 C1709 1.368 . S
C1725 C1721 1.368 . S
C1725 C1724 1.523 . S
H1726 C1701 0.950 . S
H1727 C1703 0.950 . S
H1728 C1704 0.949 . S
H1729 C1706 0.950 . S
H1730 C1708 0.950 . S
C1731 C1732 1.349 . S
C1731 C1733 1.327 . S
C1731 H1756 0.950 . S
C1732 C1731 1.349 . S
C1732 C1748 1.349 . S
C1733 C1731 1.327 . S
C1733 C1752 1.429 . S
C1733 H1757 0.950 . S
C1734 C1751 1.574 . S
C1734 C1753 1.368 . S
C1734 H1758 0.949 . S
H1735 C1739 0.949 . S
C1736 C1737 1.349 . S
C1736 C1738 1.327 . S
C1736 H1759 0.950 . S
C1737 C1736 1.349 . S
C1737 C1749 1.349 . S
C1738 C1736 1.327 . S
C1738 C1754 1.429 . S
C1738 H1760 0.950 . S
C1739 H1735 0.949 . S
C1739 C1747 1.574 . S
C1739 C1755 1.368 . S
H1740 C1748 0.950 . S
H1741 C1746 0.950 . S
H1742 C1747 0.949 . S
H1743 C1749 0.950 . S
H1744 C1750 0.950 . S
H1745 C1751 0.949 . S
C1746 H1741 0.950 . S
C1746 C1748 1.327 . S
C1746 C1752 1.429 . S
C1747 C1739 1.574 . S
C1747 H1742 0.949 . S
C1747 C1753 1.368 . S
C1748 C1732 1.349 . S
C1748 H1740 0.950 . S
C1748 C1746 1.327 . S
C1749 C1737 1.349 . S
C1749 H1743 0.950 . S
C1749 C1750 1.327 . S
C1750 H1744 0.950 . S
C1750 C1749 1.327 . S
C1750 C1754 1.429 . S
C1751 C1734 1.574 . S
C1751 H1745 0.949 . S
C1751 C1755 1.368 . S
C1752 C1733 1.429 . S
C1752 C1746 1.429 . S
C1752 C1753 1.523 . S
C1753 C1734 1.368 . S
C1753 C1747 1.368 . S
C1753 C1752 1.523 . S
C1754 C1738 1.429 . S
C1754 C1750 1.429 . S
C1754 C1755 1.523 . S
C1755 C1739 1.368 . S
C1755 C1751 1.368 . S
C1755 C1754 1.523 . S
H1756 C1731 0.950 . S
H1757 C1733 0.950 . S
H1758 C1734 0.949 . S
H1759 C1736 0.950 . S
H1760 C1738 0.950 . S
C1761 C1762 1.349 . S
C1761 C1763 1.327 . S
C1761 H1786 0.950 . S
C1762 C1761 1.349 . S
C1762 C1778 1.349 . S
C1763 C1761 1.327 . S
C1763 C1782 1.429 . S
C1763 H1787 0.950 . S
C1764 C1781 1.574 . S
C1764 C1783 1.368 . S
C1764 H1788 0.949 . S
H1765 C1769 0.949 . S
C1766 C1767 1.349 . S
C1766 C1768 1.327 . S
C1766 H1789 0.950 . S
C1767 C1766 1.349 . S
C1767 C1779 1.349 . S
C1768 C1766 1.327 . S
C1768 C1784 1.429 . S
C1768 H1790 0.950 . S
C1769 H1765 0.949 . S
C1769 C1777 1.574 . S
C1769 C1785 1.368 . S
H1770 C1778 0.950 . S
H1771 C1776 0.950 . S
H1772 C1777 0.949 . S
H1773 C1779 0.950 . S
H1774 C1780 0.950 . S
H1775 C1781 0.949 . S
C1776 H1771 0.950 . S
C1776 C1778 1.327 . S
C1776 C1782 1.429 . S
C1777 C1769 1.574 . S
C1777 H1772 0.949 . S
C1777 C1783 1.368 . S
C1778 C1762 1.349 . S
C1778 H1770 0.950 . S
C1778 C1776 1.327 . S
C1779 C1767 1.349 . S
C1779 H1773 0.950 . S
C1779 C1780 1.327 . S
C1780 H1774 0.950 . S
C1780 C1779 1.327 . S
C1780 C1784 1.429 . S
C1781 C1764 1.574 . S
C1781 H1775 0.949 . S
C1781 C1785 1.368 . S
C1782 C1763 1.429 . S
C1782 C1776 1.429 . S
C1782 C1783 1.523 . S
C1783 C1764 1.368 . S
C1783 C1777 1.368 . S
C1783 C1782 1.523 . S
C1784 C1768 1.429 . S
C1784 C1780 1.429 . S
C1784 C1785 1.523 . S
C1785 C1769 1.368 . S
C1785 C1781 1.368 . S
C1785 C1784 1.523 . S
H1786 C1761 0.950 . S
H1787 C1763 0.950 . S
H1788 C1764 0.949 . S
H1789 C1766 0.950 . S
H1790 C1768 0.950 . S
C1791 C1792 1.349 . S
C1791 C1793 1.327 . S
C1791 H1816 0.950 . S
C1792 C1791 1.349 . S
C1792 C1808 1.349 . S
C1793 C1791 1.327 . S
C1793 C1812 1.429 . S
C1793 H1817 0.950 . S
C1794 C1811 1.574 . S
C1794 C1813 1.368 . S
C1794 H1818 0.949 . S
H1795 C1799 0.949 . S
C1796 C1797 1.349 . S
C1796 C1798 1.327 . S
C1796 H1819 0.950 . S
C1797 C1796 1.349 . S
C1797 C1809 1.349 . S
C1798 C1796 1.327 . S
C1798 C1814 1.429 . S
C1798 H1820 0.950 . S
C1799 H1795 0.949 . S
C1799 C1807 1.574 . S
C1799 C1815 1.368 . S
H1800 C1808 0.950 . S
H1801 C1806 0.950 . S
H1802 C1807 0.949 . S
H1803 C1809 0.950 . S
H1804 C1810 0.950 . S
H1805 C1811 0.949 . S
C1806 H1801 0.950 . S
C1806 C1808 1.327 . S
C1806 C1812 1.429 . S
C1807 C1799 1.574 . S
C1807 H1802 0.949 . S
C1807 C1813 1.368 . S
C1808 C1792 1.349 . S
C1808 H1800 0.950 . S
C1808 C1806 1.327 . S
C1809 C1797 1.349 . S
C1809 H1803 0.950 . S
C1809 C1810 1.327 . S
C1810 H1804 0.950 . S
C1810 C1809 1.327 . S
C1810 C1814 1.429 . S
C1811 C1794 1.574 . S
C1811 H1805 0.949 . S
C1811 C1815 1.368 . S
C1812 C1793 1.429 . S
C1812 C1806 1.429 . S
C1812 C1813 1.523 . S
C1813 C1794 1.368 . S
C1813 C1807 1.368 . S
C1813 C1812 1.523 . S
C1814 C1798 1.429 . S
C1814 C1810 1.429 . S
C1814 C1815 1.523 . S
C1815 C1799 1.368 . S
C1815 C1811 1.368 . S
C1815 C1814 1.523 . S
H1816 C1791 0.950 . S
H1817 C1793 0.950 . S
H1818 C1794 0.949 . S
H1819 C1796 0.950 . S
H1820 C1798 0.950 . S
C1821 C1822 1.349 . S
C1821 C1823 1.327 . S
C1821 H1846 0.950 . S
C1822 C1821 1.349 . S
C1822 C1838 1.349 . S
C1823 C1821 1.327 . S
C1823 C1842 1.429 . S
C1823 H1847 0.950 . S
C1824 C1841 1.574 . S
C1824 C1843 1.368 . S
C1824 H1848 0.949 . S
H1825 C1829 0.949 . S
C1826 C1827 1.349 . S
C1826 C1828 1.327 . S
C1826 H1849 0.950 . S
C1827 C1826 1.349 . S
C1827 C1839 1.349 . S
C1828 C1826 1.327 . S
C1828 C1844 1.429 . S
C1828 H1850 0.950 . S
C1829 H1825 0.949 . S
C1829 C1837 1.574 . S
C1829 C1845 1.368 . S
H1830 C1838 0.950 . S
H1831 C1836 0.950 . S
H1832 C1837 0.949 . S
H1833 C1839 0.950 . S
H1834 C1840 0.950 . S
H1835 C1841 0.949 . S
C1836 H1831 0.950 . S
C1836 C1838 1.327 . S
C1836 C1842 1.429 . S
C1837 C1829 1.574 . S
C1837 H1832 0.949 . S
C1837 C1843 1.368 . S
C1838 C1822 1.349 . S
C1838 H1830 0.950 . S
C1838 C1836 1.327 . S
C1839 C1827 1.349 . S
C1839 H1833 0.950 . S
C1839 C1840 1.327 . S
C1840 H1834 0.950 . S
C1840 C1839 1.327 . S
C1840 C1844 1.429 . S
C1841 C1824 1.574 . S
C1841 H1835 0.949 . S
C1841 C1845 1.368 . S
C1842 C1823 1.429 . S
C1842 C1836 1.429 . S
C1842 C1843 1.523 . S
C1843 C1824 1.368 . S
C1843 C1837 1.368 . S
C1843 C1842 1.523 . S
C1844 C1828 1.429 . S
C1844 C1840 1.429 . S
C1844 C1845 1.523 . S
C1845 C1829 1.368 . S
C1845 C1841 1.368 . S
C1845 C1844 1.523 . S
H1846 C1821 0.950 . S
H1847 C1823 0.950 . S
H1848 C1824 0.949 . S
H1849 C1826 0.950 . S
H1850 C1828 0.950 . S
C1851 C1852 1.349 . S
C1851 C1853 1.327 . S
C1851 H1876 0.950 . S
C1852 C1851 1.349 . S
C1852 C1868 1.349 . S
C1853 C1851 1.327 . S
C1853 C1872 1.429 . S
C1853 H1877 0.950 . S
C1854 C1871 1.574 . S
C1854 C1873 1.368 . S
C1854 H1878 0.949 . S
H1855 C1859 0.949 . S
C1856 C1857 1.349 . S
C1856 C1858 1.327 . S
C1856 H1879 0.950 . S
C1857 C1856 1.349 . S
C1857 C1869 1.349 . S
C1858 C1856 1.327 . S
C1858 C1874 1.429 . S
C1858 H1880 0.950 . S
C1859 H1855 0.949 . S
C1859 C1867 1.574 . S
C1859 C1875 1.368 . S
H1860 C1868 0.950 . S
H1861 C1866 0.950 . S
H1862 C1867 0.949 . S
H1863 C1869 0.950 . S
H1864 C1870 0.950 . S
H1865 C1871 0.949 . S
C1866 H1861 0.950 . S
C1866 C1868 1.327 . S
C1866 C1872 1.429 . S
C1867 C1859 1.574 . S
C1867 H1862 0.949 . S
C1867 C1873 1.368 . S
C1868 C1852 1.349 . S
C1868 H1860 0.950 . S
C1868 C1866 1.327 . S
C1869 C1857 1.349 . S
C1869 H1863 0.950 . S
C1869 C1870 1.327 . S
C1870 H1864 0.950 . S
C1870 C1869 1.327 . S
C1870 C1874 1.429 . S
C1871 C1854 1.574 . S
C1871 H1865 0.949 . S
C1871 C1875 1.368 . S
C1872 C1853 1.429 . S
C1872 C1866 1.429 . S
C1872 C1873 1.523 . S
C1873 C1854 1.368 . S
C1873 C1867 1.368 . S
C1873 C1872 1.523 . S
C1874 C1858 1.429 . S
C1874 C1870 1.429 . S
C1874 C1875 1.523 . S
C1875 C1859 1.368 . S
C1875 C1871 1.368 . S
C1875 C1874 1.523 . S
H1876 C1851 0.950 . S
H1877 C1853 0.950 . S
H1878 C1854 0.949 . S
H1879 C1856 0.950 . S
H1880 C1858 0.950 . S
C1881 C1882 1.349 . S
C1881 C1883 1.327 . S
C1881 H1906 0.950 . S
C1882 C1881 1.349 . S
C1882 C1898 1.349 . S
C1883 C1881 1.327 . S
C1883 C1902 1.429 . S
C1883 H1907 0.950 . S
C1884 C1901 1.574 . S
C1884 C1903 1.368 . S
C1884 H1908 0.949 . S
H1885 C1889 0.949 . S
C1886 C1887 1.349 . S
C1886 C1888 1.327 . S
C1886 H1909 0.950 . S
C1887 C1886 1.349 . S
C1887 C1899 1.349 . S
C1888 C1886 1.327 . S
C1888 C1904 1.429 . S
C1888 H1910 0.950 . S
C1889 H1885 0.949 . S
C1889 C1897 1.574 . S
C1889 C1905 1.368 . S
H1890 C1898 0.950 . S
H1891 C1896 0.950 . S
H1892 C1897 0.949 . S
H1893 C1899 0.950 . S
H1894 C1900 0.950 . S
H1895 C1901 0.949 . S
C1896 H1891 0.950 . S
C1896 C1898 1.327 . S
C1896 C1902 1.429 . S
C1897 C1889 1.574 . S
C1897 H1892 0.949 . S
C1897 C1903 1.368 . S
C1898 C1882 1.349 . S
C1898 H1890 0.950 . S
C1898 C1896 1.327 . S
C1899 C1887 1.349 . S
C1899 H1893 0.950 . S
C1899 C1900 1.327 . S
C1900 H1894 0.950 . S
C1900 C1899 1.327 . S
C1900 C1904 1.429 . S
C1901 C1884 1.574 . S
C1901 H1895 0.949 . S
C1901 C1905 1.368 . S
C1902 C1883 1.429 . S
C1902 C1896 1.429 . S
C1902 C1903 1.523 . S
C1903 C1884 1.368 . S
C1903 C1897 1.368 . S
C1903 C1902 1.523 . S
C1904 C1888 1.429 . S
C1904 C1900 1.429 . S
C1904 C1905 1.523 . S
C1905 C1889 1.368 . S
C1905 C1901 1.368 . S
C1905 C1904 1.523 . S
H1906 C1881 0.950 . S
H1907 C1883 0.950 . S
H1908 C1884 0.949 . S
H1909 C1886 0.950 . S
H1910 C1888 0.950 . S
C1911 C1912 1.349 . S
C1911 C1913 1.327 . S
C1911 H1936 0.950 . S
C1912 C1911 1.349 . S
C1912 C1928 1.349 . S
C1913 C1911 1.327 . S
C1913 C1932 1.429 . S
C1913 H1937 0.950 . S
C1914 C1931 1.574 . S
C1914 C1933 1.368 . S
C1914 H1938 0.949 . S
H1915 C1919 0.949 . S
C1916 C1917 1.349 . S
C1916 C1918 1.327 . S
C1916 H1939 0.950 . S
C1917 C1916 1.349 . S
C1917 C1929 1.349 . S
C1918 C1916 1.327 . S
C1918 C1934 1.429 . S
C1918 H1940 0.950 . S
C1919 H1915 0.949 . S
C1919 C1927 1.574 . S
C1919 C1935 1.368 . S
H1920 C1928 0.950 . S
H1921 C1926 0.950 . S
H1922 C1927 0.949 . S
H1923 C1929 0.950 . S
H1924 C1930 0.950 . S
H1925 C1931 0.949 . S
C1926 H1921 0.950 . S
C1926 C1928 1.327 . S
C1926 C1932 1.429 . S
C1927 C1919 1.574 . S
C1927 H1922 0.949 . S
C1927 C1933 1.368 . S
C1928 C1912 1.349 . S
C1928 H1920 0.950 . S
C1928 C1926 1.327 . S
C1929 C1917 1.349 . S
C1929 H1923 0.950 . S
C1929 C1930 1.327 . S
C1930 H1924 0.950 . S
C1930 C1929 1.327 . S
C1930 C1934 1.429 . S
C1931 C1914 1.574 . S
C1931 H1925 0.949 . S
C1931 C1935 1.368 . S
C1932 C1913 1.429 . S
C1932 C1926 1.429 . S
C1932 C1933 1.523 . S
C1933 C1914 1.368 . S
C1933 C1927 1.368 . S
C1933 C1932 1.523 . S
C1934 C1918 1.429 . S
C1934 C1930 1.429 . S
C1934 C1935 1.523 . S
C1935 C1919 1.368 . S
C1935 C1931 1.368 . S
C1935 C1934 1.523 . S
H1936 C1911 0.950 . S
H1937 C1913 0.950 . S
H1938 C1914 0.949 . S
H1939 C1916 0.950 . S
H1940 C1918 0.950 . S
C1941 C1942 1.349 . S
C1941 C1943 1.327 . S
C1941 H1966 0.950 . S
C1942 C1941 1.349 . S
C1942 C1958 1.349 . S
C1943 C1941 1.327 . S
C1943 C1962 1.429 . S
C1943 H1967 0.950 . S
C1944 C1961 1.574 . S
C1944 C1963 1.368 . S
C1944 H1968 0.949 . S
H1945 C1949 0.949 . S
C1946 C1947 1.349 . S
C1946 C1948 1.327 . S
C1946 H1969 0.950 . S
C1947 C1946 1.349 . S
C1947 C1959 1.349 . S
C1948 C1946 1.327 . S
C1948 C1964 1.429 . S
C1948 H1970 0.950 . S
C1949 H1945 0.949 . S
C1949 C1957 1.574 . S
C1949 C1965 1.368 . S
H1950 C1958 0.950 . S
H1951 C1956 0.950 . S
H1952 C1957 0.949 . S
H1953 C1959 0.950 . S
H1954 C1960 0.950 . S
H1955 C1961 0.949 . S
C1956 H1951 0.950 . S
C1956 C1958 1.327 . S
C1956 C1962 1.429 . S
C1957 C1949 1.574 . S
C1957 H1952 0.949 . S
C1957 C1963 1.368 . S
C1958 C1942 1.349 . S
C1958 H1950 0.950 . S
C1958 C1956 1.327 . S
C1959 C1947 1.349 . S
C1959 H1953 0.950 . S
C1959 C1960 1.327 . S
C1960 H1954 0.950 . S
C1960 C1959 1.327 . S
C1960 C1964 1.429 . S
C1961 C1944 1.574 . S
C1961 H1955 0.949 . S
C1961 C1965 1.368 . S
C1962 C1943 1.429 . S
C1962 C1956 1.429 . S
C1962 C1963 1.523 . S
C1963 C1944 1.368 . S
C1963 C1957 1.368 . S
C1963 C1962 1.523 . S
C1964 C1948 1.429 . S
C1964 C1960 1.429 . S
C1964 C1965 1.523 . S
C1965 C1949 1.368 . S
C1965 C1961 1.368 . S
C1965 C1964 1.523 . S
H1966 C1941 0.950 . S
H1967 C1943 0.950 . S
H1968 C1944 0.949 . S
H1969 C1946 0.950 . S
H1970 C1948 0.950 . S
C352 C124 1.335 . S
C357 C179 1.261 . S
C382 C130 1.362 . S
C387 C200 1.285 . S
C412 C115 1.291 . S
C417 C222 1.125 . S
C442 C106 1.302 . S
C447 C201 1.129 1_556 S
C477 C221 1.287 . S
C472 C85 1.368 . S
C502 C97 1.286 . S
C507 C180 1.116 1_556 S
C537 C175 1.246 . S
C532 C103 1.326 . S
C567 C196 1.213 . S
C562 C88 1.279 . S
C592 C94 1.346 . S
C597 C219 1.161 1_556 S
C622 C121 1.306 . S
C627 C198 1.135 . S
C652 C133 1.261 . S
C657 C217 1.193 . S
C687 C177 1.166 . S
C682 C112 1.343 . S
C717 C242 1.261 . S
C712 C16 1.335 . S
C742 C22 1.363 . S
C747 C263 1.285 . S
C772 C7 1.291 . S
C777 C285 1.125 . S
C802 C160 1.302 . S
C807 C264 1.129 . S
C832 C139 1.368 . S
C837 C284 1.287 . S
C862 C151 1.286 . S
C867 C243 1.116 . S
C892 C157 1.326 . S
C897 C238 1.246 . S
C922 C142 1.279 . S
C927 C259 1.213 . S
C957 C282 1.161 . S
C952 C148 1.346 . S
C982 C13 1.306 . S
C987 C261 1.135 . S
C1017 C280 1.193 . S
C1012 C25 1.261 . S
C1042 C4 1.344 . S
C1047 C240 1.166 . S
C1077 C305 1.261 . S
C1072 C70 1.335 . S
C1102 C76 1.363 . S
C1107 C326 1.285 . S
C1137 C348 1.125 . S
C1132 C61 1.291 . S
C1167 C327 1.129 . S
C1162 C52 1.302 . S
C1197 C347 1.287 . S
C1192 C31 1.368 . S
C1222 C43 1.286 . S
C1227 C306 1.116 . S
C1252 C49 1.326 . S
C1257 C301 1.246 . S
C1282 C34 1.279 . S
C1287 C322 1.213 . S
C1317 C345 1.161 . S
C1312 C40 1.346 . S
C1342 C67 1.306 . S
C1347 C324 1.135 . S
C1372 C79 1.261 . S
C1377 C343 1.193 . S
C1402 C58 1.344 . S
C1407 C303 1.166 . S
C1432 C140 1.373 . S
C1437 C178 1.330 1_565 S
C1467 C199 1.370 . S
C1462 C149 1.414 . S
C1492 C158 1.472 . S
C1497 C218 1.438 . S
C1522 C59 1.535 . S
C1527 C197 1.499 1_655 S
C1552 C68 1.431 . S
C1557 C220 1.382 . S
C1587 C176 1.439 . S
C1582 C77 1.469 . S
C1612 C32 1.373 . S
C1617 C241 1.331 . S
C1642 C41 1.414 . S
C1647 C262 1.370 . S
C1672 C50 1.472 . S
C1677 C281 1.438 . S
C1702 C113 1.535 . S
C1707 C260 1.499 . S
C1737 C283 1.382 . S
C1732 C122 1.431 . S
C1762 C131 1.469 . S
C1767 C239 1.439 . S
C1792 C86 1.373 . S
C1797 C304 1.331 . S
C1822 C95 1.414 . S
C1827 C325 1.370 . S
C1857 C344 1.438 . S
C1852 C104 1.472 . S
C1882 C5 1.535 . S
C1887 C323 1.499 . S
C1912 C14 1.431 . S
C1917 C346 1.382 . S
C1942 C23 1.469 . S
C1947 C302 1.439 . S
