# Generated by pormake.
# Topology dag, (6,3)-cn, num edge types: 1
# Building blocks:
#     Node 0, Type 0, BuildingBlock: MIDCAF_clean_sbu_0, # of connection points: 6
#     Node 1, Type 0, BuildingBlock: MIDCAF_clean_sbu_0, # of connection points: 6
#     Node 2, Type 0, BuildingBlock: MIDCAF_clean_sbu_0, # of connection points: 6
#     Node 3, Type 0, BuildingBlock: MIDCAF_clean_sbu_0, # of connection points: 6
#     Node 4, Type 1, BuildingBlock: VETTIZ_charged_linker_0, # of connection points: 3
#     Node 5, Type 1, BuildingBlock: VETTIZ_charged_linker_0, # of connection points: 3
#     Node 6, Type 1, BuildingBlock: VETTIZ_charged_linker_0, # of connection points: 3
#     Node 7, Type 1, BuildingBlock: VETTIZ_charged_linker_0, # of connection points: 3
#     Node 8, Type 1, BuildingBlock: VETTIZ_charged_linker_0, # of connection points: 3
#     Node 9, Type 1, BuildingBlock: VETTIZ_charged_linker_0, # of connection points: 3
#     Node 10, Type 1, BuildingBlock: VETTIZ_charged_linker_0, # of connection points: 3
#     Node 11, Type 1, BuildingBlock: VETTIZ_charged_linker_0, # of connection points: 3
#     Edge 12, Type (0, 1), BuildingBlock: XIVTED_clean_linker_0, # of connection points: 2
#     Edge 13, Type (0, 1), BuildingBlock: XIVTED_clean_linker_0, # of connection points: 2
#     Edge 14, Type (0, 1), BuildingBlock: XIVTED_clean_linker_0, # of connection points: 2
#     Edge 15, Type (0, 1), BuildingBlock: XIVTED_clean_linker_0, # of connection points: 2
#     Edge 16, Type (0, 1), BuildingBlock: XIVTED_clean_linker_0, # of connection points: 2
#     Edge 17, Type (0, 1), BuildingBlock: XIVTED_clean_linker_0, # of connection points: 2
#     Edge 18, Type (0, 1), BuildingBlock: XIVTED_clean_linker_0, # of connection points: 2
#     Edge 19, Type (0, 1), BuildingBlock: XIVTED_clean_linker_0, # of connection points: 2
#     Edge 20, Type (0, 1), BuildingBlock: XIVTED_clean_linker_0, # of connection points: 2
#     Edge 21, Type (0, 1), BuildingBlock: XIVTED_clean_linker_0, # of connection points: 2
#     Edge 22, Type (0, 1), BuildingBlock: XIVTED_clean_linker_0, # of connection points: 2
#     Edge 23, Type (0, 1), BuildingBlock: XIVTED_clean_linker_0, # of connection points: 2
#     Edge 24, Type (0, 1), BuildingBlock: XIVTED_clean_linker_0, # of connection points: 2
#     Edge 25, Type (0, 1), BuildingBlock: XIVTED_clean_linker_0, # of connection points: 2
#     Edge 26, Type (0, 1), BuildingBlock: XIVTED_clean_linker_0, # of connection points: 2
#     Edge 27, Type (0, 1), BuildingBlock: XIVTED_clean_linker_0, # of connection points: 2
#     Edge 28, Type (0, 1), BuildingBlock: XIVTED_clean_linker_0, # of connection points: 2
#     Edge 29, Type (0, 1), BuildingBlock: XIVTED_clean_linker_0, # of connection points: 2
#     Edge 30, Type (0, 1), BuildingBlock: XIVTED_clean_linker_0, # of connection points: 2
#     Edge 31, Type (0, 1), BuildingBlock: XIVTED_clean_linker_0, # of connection points: 2
#     Edge 32, Type (0, 1), BuildingBlock: XIVTED_clean_linker_0, # of connection points: 2
#     Edge 33, Type (0, 1), BuildingBlock: XIVTED_clean_linker_0, # of connection points: 2
#     Edge 34, Type (0, 1), BuildingBlock: XIVTED_clean_linker_0, # of connection points: 2
#     Edge 35, Type (0, 1), BuildingBlock: XIVTED_clean_linker_0, # of connection points: 2
# Relax obj value: 0.316
# Max RMSD: 0.190
# Mean RMSD: 0.179
data_MOF--net-dag--node1-MIDCAF_clean_sbu_0--node2-VETTIZ_charged_linker_0--edge1-XIVTED_clean_linker_0
_symmetry_space_group_name_H-M    P1
_symmetry_Int_Tables_number       1
_symmetry_cell_setting            triclinic
loop_
_symmetry_equiv_pos_as_xyz
'x, y, z'
_cell_length_a     49.363791
_cell_length_b     49.340461
_cell_length_c     38.215034
_cell_angle_alpha  89.939131
_cell_angle_beta   89.979065
_cell_angle_gamma 90.057264
loop_
_atom_site_label
_atom_site_type_symbol
_atom_site_fract_x
_atom_site_fract_y
_atom_site_fract_z
_atom_type_partial_charge
Zn0 Zn 0.15636 0.83685 0.07556 0.0
Zn1 Zn 0.15448 0.8261 0.90758 0.0
Zn2 Zn 0.15758 0.83297 0.01295 0.0
C3 C 0.1643 0.87998 0.94528 0.0
C4 C 0.11391 0.8058 0.97222 0.0
O5 O 0.18806 0.80429 0.03448 0.0
O6 O 0.17206 0.8011 0.08831 0.0
C7 C 0.18569 0.88089 0.04318 0.0
O8 O 0.16363 0.87018 0.97709 0.0
O9 O 0.16139 0.86536 0.91788 0.0
O10 O 0.12938 0.81356 0.94767 0.0
O11 O 0.11842 0.81475 0.00311 0.0
O12 O 0.1823 0.86764 0.0712 0.0
O13 O 0.17359 0.87332 0.01512 0.0
O14 O 0.11443 0.82856 0.03428 0.0
O15 O 0.11815 0.84368 0.08828 0.0
C16 C 0.10328 0.83565 0.06353 0.0
O17 O 0.18824 0.80275 0.99829 0.0
O18 O 0.16437 0.81345 0.9541 0.0
C19 C 0.1881 0.793 0.06487 0.0
C20 C 0.18474 0.80113 0.96549 0.0
Zn21 Zn 0.6569 0.62602 0.47279 0.0
Zn22 Zn 0.6706 0.6702 0.57525 0.0
Zn23 Zn 0.66526 0.65744 0.5152 0.0
C24 C 0.65312 0.61585 0.57414 0.0
C25 C 0.63217 0.70626 0.54111 0.0
O26 O 0.65074 0.68483 0.4744 0.0
O27 O 0.67093 0.65587 0.43954 0.0
C28 C 0.70662 0.61673 0.4928 0.0
O29 O 0.65073 0.62214 0.54195 0.0
O30 O 0.66239 0.63313 0.59545 0.0
O31 O 0.64211 0.69913 0.57028 0.0
O32 O 0.63876 0.6932 0.51312 0.0
O33 O 0.68552 0.60215 0.49369 0.0
O34 O 0.70405 0.64267 0.4937 0.0
O35 O 0.62598 0.66922 0.49032 0.0
O36 O 0.61708 0.62569 0.48476 0.0
C37 C 0.60868 0.6499 0.48604 0.0
O38 O 0.7079 0.66925 0.51508 0.0
O39 O 0.70894 0.6821 0.57038 0.0
C40 C 0.66374 0.68004 0.44577 0.0
C41 C 0.72054 0.67965 0.54109 0.0
Zn42 Zn 0.82553 0.15742 0.92797 0.0
Zn43 Zn 0.84183 0.13094 0.04168 0.0
Zn44 Zn 0.83217 0.15064 0.98973 0.0
C45 C 0.88923 0.14454 0.02181 0.0
C46 C 0.78966 0.11814 0.02678 0.0
O47 O 0.79198 0.17069 0.98999 0.0
O48 O 0.78786 0.17152 0.9323 0.0
C49 C 0.86843 0.19198 0.9491 0.0
O50 O 0.8728 0.1626 0.00989 0.0
O51 O 0.88005 0.12155 0.03027 0.0
O52 O 0.81059 0.10526 0.03614 0.0
O53 O 0.79226 0.14225 0.01422 0.0
O54 O 0.8547 0.18537 0.92251 0.0
O55 O 0.86381 0.18036 0.97859 0.0
O56 O 0.83478 0.10984 0.97038 0.0
O57 O 0.83144 0.11854 0.91422 0.0
C58 C 0.83422 0.10156 0.93878 0.0
O59 O 0.80345 0.17043 0.02539 0.0
O60 O 0.83403 0.16733 0.06698 0.0
C61 C 0.77839 0.17675 0.96226 0.0
C62 C 0.81315 0.17887 0.05478 0.0
Zn63 Zn 0.3306 0.3358 0.56752 0.0
Zn64 Zn 0.34536 0.35981 0.45357 0.0
Zn65 Zn 0.33581 0.34068 0.50555 0.0
C66 C 0.39284 0.34593 0.4736 0.0
C67 C 0.29328 0.37334 0.46834 0.0
O68 O 0.29568 0.32069 0.50708 0.0
O69 O 0.2929 0.32143 0.56487 0.0
C70 C 0.37237 0.29994 0.54632 0.0
O71 O 0.37624 0.32794 0.48538 0.0
O72 O 0.38375 0.36889 0.4649 0.0
O73 O 0.31433 0.38578 0.45832 0.0
O74 O 0.29564 0.34949 0.48181 0.0
O75 O 0.35991 0.30807 0.57327 0.0
O76 O 0.36683 0.31045 0.51643 0.0
O77 O 0.3394 0.38185 0.52293 0.0
O78 O 0.33661 0.37493 0.57952 0.0
C79 C 0.33925 0.39112 0.55406 0.0
O80 O 0.30641 0.3211 0.47099 0.0
O81 O 0.33691 0.32326 0.42915 0.0
C82 C 0.28275 0.31533 0.53555 0.0
C83 C 0.3158 0.31227 0.44165 0.0
C84 C 0.25105 0.07292 0.10701 0.0
C85 C 0.24294 0.05848 0.07695 0.0
C86 C 0.21977 0.06727 0.05854 0.0
C87 C 0.2108 0.10093 0.10279 0.0
C88 C 0.23466 0.09406 0.11944 0.0
C89 C 0.23902 0.11056 0.15214 0.0
H90 H 0.19014 0.20049 0.26991 0.0
C91 C 0.19646 0.12094 0.12449 0.0
C92 C 0.21296 0.12708 0.1532 0.0
H93 H 0.27095 0.16659 0.26275 0.0
H94 H 0.25784 0.14111 0.21231 0.0
H95 H 0.18582 0.21376 0.18712 0.0
H96 H 0.15702 0.14544 0.24735 0.0
H97 H 0.13167 0.15492 0.21744 0.0
H98 H 0.14201 0.17846 0.25094 0.0
H99 H 0.15877 0.21668 0.21834 0.0
H100 H 0.15251 0.20599 0.17402 0.0
C101 C 0.26445 0.12863 0.14673 0.0
C102 C 0.24108 0.09093 0.18366 0.0
C103 C 0.09983 0.145 0.09313 0.0
C104 C 0.07942 0.16002 0.10983 0.0
C105 C 0.08588 0.17396 0.141 0.0
C106 C 0.11198 0.17226 0.15566 0.0
C107 C 0.13186 0.15638 0.13906 0.0
C108 C 0.12552 0.14323 0.10824 0.0
C109 C 0.14849 0.12642 0.0946 0.0
C110 C 0.16991 0.13175 0.12213 0.0
C111 C 0.16019 0.14926 0.14821 0.0
C112 C 0.15687 0.13774 0.05826 0.0
C113 C 0.13908 0.09637 0.09447 0.0
C114 C 0.20513 0.18772 0.25749 0.0
C115 C 0.23161 0.18549 0.2711 0.0
C116 C 0.25021 0.16831 0.25387 0.0
C117 C 0.24272 0.15373 0.22405 0.0
C118 C 0.21644 0.15646 0.21069 0.0
C119 C 0.19813 0.17334 0.22714 0.0
C120 C 0.1715 0.17464 0.20788 0.0
C121 C 0.17718 0.15622 0.1769 0.0
C122 C 0.20344 0.14534 0.17911 0.0
C123 C 0.16661 0.2043 0.1963 0.0
C124 C 0.14919 0.16296 0.23204 0.0
H125 H 0.18585 0.09313 0.05671 0.0
H126 H 0.26894 0.06698 0.12151 0.0
H127 H 0.22471 0.07544 0.1825 0.0
H128 H 0.23875 0.10118 0.20912 0.0
H129 H 0.26081 0.08012 0.18362 0.0
H130 H 0.26965 0.13099 0.11856 0.0
H131 H 0.28248 0.11989 0.15997 0.0
H132 H 0.26128 0.14959 0.15625 0.0
H133 H 0.09589 0.13443 0.06883 0.0
H134 H 0.07055 0.18557 0.15463 0.0
H135 H 0.11557 0.18302 0.17961 0.0
H136 H 0.1525 0.1598 0.05612 0.0
H137 H 0.14577 0.12738 0.03682 0.0
H138 H 0.17892 0.13614 0.05342 0.0
H139 H 0.12584 0.09198 0.11738 0.0
H140 H 0.15588 0.08176 0.09683 0.0
H141 H 0.12731 0.09163 0.07048 0.0
H142 H 0.21259 0.05653 0.03566 0.0
C143 C 0.20381 0.08838 0.0712 0.0
C144 C 0.33783 0.60173 0.63619 0.0
C145 C 0.34885 0.59024 0.6056 0.0
C146 C 0.36593 0.60618 0.58437 0.0
C147 C 0.36267 0.64338 0.62549 0.0
C148 C 0.34499 0.62826 0.64556 0.0
C149 C 0.33574 0.64341 0.6776 0.0
H150 H 0.33792 0.75747 0.77621 0.0
C151 C 0.36756 0.66931 0.64372 0.0
C152 C 0.35175 0.66965 0.67409 0.0
H153 H 0.28791 0.68598 0.78771 0.0
H154 H 0.31062 0.66486 0.73947 0.0
H155 H 0.39476 0.72157 0.75945 0.0
H156 H 0.33738 0.76098 0.69053 0.0
H157 H 0.37108 0.77013 0.67983 0.0
H158 H 0.35752 0.77935 0.72174 0.0
H159 H 0.39317 0.75782 0.75571 0.0
H160 H 0.4123 0.73757 0.72514 0.0
C161 C 0.34454 0.62701 0.71028 0.0
C162 C 0.30474 0.64808 0.67451 0.0
C163 C 0.43994 0.73131 0.59621 0.0
C164 C 0.45353 0.754 0.6096 0.0
C165 C 0.44371 0.76611 0.64059 0.0
C166 C 0.42114 0.75518 0.65832 0.0
C167 C 0.40864 0.73158 0.64529 0.0
C168 C 0.41813 0.72028 0.61455 0.0
C169 C 0.40469 0.69392 0.6059 0.0
C170 C 0.38548 0.69101 0.63644 0.0
C171 C 0.38741 0.7132 0.65941 0.0
C172 C 0.42671 0.6714 0.60564 0.0
C173 C 0.38925 0.69752 0.57087 0.0
C174 C 0.33219 0.73716 0.76841 0.0
C175 C 0.31074 0.72354 0.78538 0.0
C176 C 0.30394 0.69709 0.77464 0.0
C177 C 0.31713 0.68483 0.74652 0.0
C178 C 0.33751 0.69903 0.7287 0.0
C179 C 0.34522 0.72454 0.73995 0.0
C180 C 0.36772 0.73606 0.71753 0.0
C181 C 0.37072 0.71402 0.68985 0.0
C182 C 0.35307 0.69231 0.69697 0.0
C183 C 0.39339 0.73865 0.74049 0.0
C184 C 0.35811 0.76317 0.70156 0.0
H185 H 0.38636 0.64341 0.57709 0.0
H186 H 0.32422 0.59022 0.65277 0.0
H187 H 0.298 0.64812 0.64672 0.0
H188 H 0.29842 0.6681 0.68462 0.0
H189 H 0.29318 0.63196 0.68828 0.0
H190 H 0.36523 0.61852 0.70659 0.0
H191 H 0.33053 0.60979 0.71517 0.0
H192 H 0.34586 0.63946 0.7342 0.0
H193 H 0.44741 0.72088 0.57322 0.0
H194 H 0.45393 0.78359 0.65154 0.0
H195 H 0.41473 0.76503 0.68193 0.0
H196 H 0.44366 0.67635 0.62375 0.0
H197 H 0.4355 0.66876 0.5791 0.0
H198 H 0.41919 0.65162 0.6151 0.0
H199 H 0.38072 0.71832 0.56861 0.0
H200 H 0.37152 0.68392 0.56855 0.0
H201 H 0.40288 0.69428 0.54813 0.0
H202 H 0.37492 0.59785 0.56087 0.0
C203 C 0.3728 0.63264 0.59406 0.0
C204 C 0.74594 0.82524 0.25837 0.0
C205 C 0.75676 0.80218 0.27502 0.0
C206 C 0.78202 0.79214 0.26336 0.0
C207 C 0.78524 0.82787 0.21999 0.0
C208 C 0.76037 0.83756 0.23096 0.0
C209 C 0.75147 0.86187 0.21014 0.0
H210 H 0.77579 0.9511 0.07915 0.0
C211 C 0.79479 0.84504 0.19066 0.0
C212 C 0.77481 0.8648 0.1845 0.0
H213 H 0.70828 0.95082 0.15112 0.0
H214 H 0.7258 0.91024 0.1788 0.0
H215 H 0.8187 0.94105 0.13535 0.0
H216 H 0.77866 0.88577 0.06567 0.0
H217 H 0.81283 0.87591 0.06731 0.0
H218 H 0.80415 0.90923 0.05132 0.0
H219 H 0.82785 0.93829 0.09007 0.0
H220 H 0.84324 0.91727 0.12318 0.0
C221 C 0.74956 0.88642 0.23528 0.0
C222 C 0.72459 0.85471 0.19143 0.0
C223 C 0.88865 0.83086 0.13678 0.0
C224 C 0.90252 0.84404 0.10924 0.0
C225 C 0.88873 0.86415 0.08997 0.0
C226 C 0.86217 0.87159 0.09841 0.0
C227 C 0.84894 0.85896 0.12661 0.0
C228 C 0.86188 0.83854 0.14484 0.0
C229 C 0.844 0.82688 0.17323 0.0
C230 C 0.81885 0.84465 0.17 0.0
C231 C 0.82203 0.86342 0.14269 0.0
C232 C 0.85843 0.83085 0.20879 0.0
C233 C 0.83791 0.79691 0.16407 0.0
C234 C 0.76436 0.94192 0.10028 0.0
C235 C 0.74036 0.95389 0.11258 0.0
C236 C 0.72672 0.94186 0.14106 0.0
C237 C 0.73699 0.91835 0.1571 0.0
C238 C 0.76138 0.90695 0.14486 0.0
C239 C 0.77456 0.91882 0.11688 0.0
C240 C 0.8011 0.90532 0.10876 0.0
C241 C 0.80166 0.88312 0.1362 0.0
C242 C 0.77828 0.88399 0.15713 0.0
C243 C 0.82404 0.92643 0.11429 0.0
C244 C 0.79939 0.89353 0.07125 0.0
H245 H 0.81534 0.7962 0.2287 0.0
H246 H 0.72677 0.83374 0.26662 0.0
H247 H 0.72515 0.83358 0.1813 0.0
H248 H 0.7206 0.8675 0.1683 0.0
H249 H 0.70713 0.85629 0.20966 0.0
H250 H 0.76517 0.88513 0.25622 0.0
H251 H 0.72942 0.8873 0.2482 0.0
H252 H 0.75359 0.90595 0.22211 0.0
H253 H 0.89842 0.81501 0.15177 0.0
H254 H 0.89882 0.87487 0.06892 0.0
H255 H 0.85312 0.88731 0.08297 0.0
H256 H 0.86708 0.85163 0.21062 0.0
H257 H 0.87532 0.81618 0.21191 0.0
H258 H 0.84469 0.82879 0.23138 0.0
H259 H 0.83754 0.79376 0.13524 0.0
H260 H 0.81767 0.79029 0.17307 0.0
H261 H 0.85354 0.78317 0.17512 0.0
H262 H 0.7907 0.77408 0.2749 0.0
C263 C 0.79628 0.80485 0.23616 0.0
C264 C 0.63996 0.26882 0.80075 0.0
C265 C 0.65843 0.28146 0.82362 0.0
C266 C 0.66787 0.30772 0.81495 0.0
C267 C 0.64209 0.30706 0.76084 0.0
C268 C 0.63276 0.28151 0.76941 0.0
C269 C 0.61604 0.26909 0.74076 0.0
H270 H 0.5526 0.28327 0.58605 0.0
C271 C 0.63194 0.31373 0.72541 0.0
C272 C 0.61727 0.29116 0.71323 0.0
H273 H 0.54885 0.21514 0.65717 0.0
H274 H 0.5834 0.23566 0.6932 0.0
H275 H 0.55187 0.32736 0.64249 0.0
H276 H 0.61727 0.29017 0.58652 0.0
H277 H 0.62862 0.32318 0.59549 0.0
H278 H 0.59894 0.31823 0.5685 0.0
H279 H 0.55829 0.33224 0.59665 0.0
H280 H 0.57385 0.35337 0.62906 0.0
C281 C 0.58693 0.26495 0.75498 0.0
C282 C 0.63017 0.24272 0.72834 0.0
C283 C 0.64237 0.40894 0.67459 0.0
C284 C 0.6346 0.42025 0.64211 0.0
C285 C 0.62455 0.40282 0.6159 0.0
C286 C 0.62043 0.37531 0.6225 0.0
C287 C 0.6264 0.36477 0.65566 0.0
C288 C 0.6383 0.3811 0.68064 0.0
C289 C 0.64558 0.36524 0.71316 0.0
C290 C 0.63408 0.3374 0.70428 0.0
C291 C 0.62258 0.33754 0.6707 0.0
C292 C 0.63099 0.37815 0.74481 0.0
C293 C 0.67686 0.3647 0.71662 0.0
C294 C 0.5598 0.27218 0.60865 0.0
C295 C 0.54763 0.24762 0.61885 0.0
C296 C 0.5575 0.23429 0.64895 0.0
C297 C 0.57748 0.24634 0.66996 0.0
C298 C 0.58765 0.27206 0.6609 0.0
C299 C 0.57945 0.28406 0.63004 0.0
C300 C 0.59149 0.31176 0.625 0.0
C301 C 0.60781 0.31476 0.65843 0.0
C302 C 0.60537 0.29158 0.67944 0.0
C303 C 0.56784 0.33242 0.62297 0.0
C304 C 0.60992 0.31103 0.59211 0.0
H305 H 0.66769 0.3404 0.77862 0.0
H306 H 0.63165 0.249 0.80644 0.0
H307 H 0.65257 0.24437 0.73082 0.0
H308 H 0.62667 0.2384 0.70033 0.0
H309 H 0.62356 0.225 0.74413 0.0
H310 H 0.58073 0.28238 0.7716 0.0
H311 H 0.58562 0.24633 0.77126 0.0
H312 H 0.57149 0.26387 0.73419 0.0
H313 H 0.65074 0.42149 0.69513 0.0
H314 H 0.61962 0.41046 0.59011 0.0
H315 H 0.61217 0.3634 0.60164 0.0
H316 H 0.60917 0.38134 0.73881 0.0
H317 H 0.64002 0.39815 0.75133 0.0
H318 H 0.63175 0.36535 0.76845 0.0
H319 H 0.68691 0.36695 0.69071 0.0
H320 H 0.68438 0.34514 0.72691 0.0
H321 H 0.68423 0.38141 0.7336 0.0
H322 H 0.68241 0.31802 0.83144 0.0
C323 C 0.65964 0.32061 0.78389 0.0
C324 C 0.7467 0.44156 0.3657 0.0
C325 C 0.73967 0.45584 0.39626 0.0
C326 C 0.71725 0.44707 0.41612 0.0
C327 C 0.70795 0.41172 0.37405 0.0
C328 C 0.73078 0.41924 0.35543 0.0
C329 C 0.73563 0.4007 0.32467 0.0
H330 H 0.69116 0.29814 0.22156 0.0
C331 C 0.69462 0.38918 0.3554 0.0
C332 C 0.71084 0.38228 0.32668 0.0
H333 H 0.76983 0.33738 0.22129 0.0
H334 H 0.75556 0.36657 0.26774 0.0
H335 H 0.68943 0.29149 0.30545 0.0
H336 H 0.6548 0.35217 0.23738 0.0
H337 H 0.63084 0.34406 0.2698 0.0
H338 H 0.6417 0.31824 0.23949 0.0
H339 H 0.66236 0.2841 0.27553 0.0
H340 H 0.65577 0.29763 0.31841 0.0
C341 C 0.7624 0.38498 0.33111 0.0
C342 C 0.73564 0.41795 0.29087 0.0
C343 C 0.6017 0.35848 0.39548 0.0
C344 C 0.58193 0.34114 0.38128 0.0
C345 C 0.58839 0.32631 0.35081 0.0
C346 C 0.61377 0.32931 0.33444 0.0
C347 C 0.63292 0.34741 0.34855 0.0
C348 C 0.6266 0.3616 0.37858 0.0
C349 C 0.64847 0.38112 0.38905 0.0
C350 C 0.66923 0.37623 0.36057 0.0
C351 C 0.66021 0.35634 0.337 0.0
C352 C 0.65924 0.37268 0.42561 0.0
C353 C 0.63644 0.41014 0.38726 0.0
C354 C 0.70555 0.31277 0.23151 0.0
C355 C 0.73172 0.31526 0.21692 0.0
C356 C 0.74933 0.33515 0.23087 0.0
C357 C 0.74121 0.35194 0.25845 0.0
C358 C 0.71537 0.34869 0.27306 0.0
C359 C 0.69805 0.32926 0.25977 0.0
C360 C 0.67198 0.32761 0.28019 0.0
C361 C 0.67694 0.34875 0.30836 0.0
C362 C 0.70221 0.36141 0.30356 0.0
C363 C 0.66946 0.2987 0.29566 0.0
C364 C 0.64843 0.33573 0.25559 0.0
H365 H 0.68433 0.42 0.4212 0.0
H366 H 0.76406 0.44766 0.35025 0.0
H367 H 0.7178 0.43172 0.29043 0.0
H368 H 0.73436 0.40556 0.26691 0.0
H369 H 0.7542 0.43064 0.28926 0.0
H370 H 0.76842 0.3852 0.35917 0.0
H371 H 0.77944 0.39386 0.31593 0.0
H372 H 0.76051 0.36319 0.32452 0.0
H373 H 0.59782 0.36988 0.41916 0.0
H374 H 0.57356 0.31298 0.33898 0.0
H375 H 0.61732 0.31774 0.31111 0.0
H376 H 0.65725 0.35045 0.4298 0.0
H377 H 0.64787 0.38296 0.44687 0.0
H378 H 0.68114 0.3768 0.4288 0.0
H379 H 0.62238 0.41216 0.36464 0.0
H380 H 0.65181 0.42604 0.38306 0.0
H381 H 0.62481 0.41496 0.41135 0.0
H382 H 0.71132 0.45787 0.43958 0.0
C383 C 0.70141 0.4252 0.40521 0.0
C384 C 0.15167 0.22008 0.70611 0.0
C385 C 0.17217 0.20848 0.6854 0.0
C386 C 0.18391 0.18383 0.6967 0.0
C387 C 0.15588 0.18397 0.74901 0.0
C388 C 0.1444 0.20798 0.73779 0.0
C389 C 0.12482 0.21952 0.76381 0.0
H390 H 0.05283 0.20454 0.91172 0.0
C391 C 0.14429 0.17744 0.78382 0.0
C392 C 0.12648 0.19861 0.79272 0.0
H393 H 0.04865 0.27001 0.83656 0.0
H394 H 0.0867 0.25122 0.80533 0.0
H395 H 0.05893 0.15932 0.85957 0.0
H396 H 0.11893 0.20352 0.91721 0.0
H397 H 0.13166 0.17042 0.91396 0.0
H398 H 0.09999 0.1763 0.93649 0.0
H399 H 0.06487 0.15432 0.90545 0.0
H400 H 0.08307 0.13542 0.87277 0.0
C401 C 0.09645 0.22018 0.74646 0.0
C402 C 0.13554 0.2476 0.77585 0.0
C403 C 0.16412 0.08723 0.84496 0.0
C404 C 0.15502 0.07613 0.87703 0.0
C405 C 0.13868 0.09222 0.89899 0.0
C406 C 0.13102 0.11836 0.88915 0.0
C407 C 0.13934 0.12874 0.85669 0.0
C408 C 0.15608 0.11359 0.8354 0.0
C409 C 0.16353 0.1288 0.80237 0.0
C410 C 0.14752 0.15498 0.80697 0.0
C411 C 0.13331 0.15453 0.83881 0.0
C412 C 0.15349 0.11224 0.7706 0.0
C413 C 0.19446 0.13391 0.80257 0.0
C414 C 0.0606 0.21544 0.88925 0.0
C415 C 0.04743 0.2387 0.87647 0.0
C416 C 0.05809 0.25181 0.84667 0.0
C417 C 0.08016 0.2408 0.82849 0.0
C418 C 0.09169 0.21634 0.84015 0.0
C419 C 0.08247 0.20463 0.87073 0.0
C420 C 0.09659 0.17841 0.87884 0.0
C421 C 0.1154 0.17594 0.84763 0.0
C422 C 0.11229 0.19803 0.82495 0.0
C423 C 0.07493 0.15556 0.8795 0.0
C424 C 0.11252 0.18208 0.91351 0.0
H425 H 0.18561 0.15293 0.73556 0.0
H426 H 0.14164 0.23862 0.69832 0.0
H427 H 0.15806 0.2484 0.77497 0.0
H428 H 0.13041 0.25218 0.80338 0.0
H429 H 0.12778 0.2641 0.7588 0.0
H430 H 0.09305 0.20167 0.73043 0.0
H431 H 0.09438 0.23801 0.7289 0.0
H432 H 0.07967 0.22035 0.76551 0.0
H433 H 0.17708 0.07566 0.82769 0.0
H434 H 0.13096 0.08429 0.92347 0.0
H435 H 0.11824 0.1292 0.90695 0.0
H436 H 0.13223 0.10545 0.77479 0.0
H437 H 0.1662 0.09392 0.76667 0.0
H438 H 0.15342 0.124 0.74607 0.0
H439 H 0.20201 0.13708 0.8297 0.0
H440 H 0.2002 0.15252 0.78831 0.0
H441 H 0.2056 0.11639 0.79136 0.0
H442 H 0.20002 0.17445 0.68181 0.0
C443 C 0.17578 0.17148 0.72823 0.0
C444 C 0.28103 0.65932 0.23532 0.0
C445 C 0.29685 0.67875 0.21756 0.0
C446 C 0.32268 0.68527 0.23098 0.0
C447 C 0.31589 0.65443 0.27958 0.0
C448 C 0.29097 0.64736 0.26593 0.0
C449 C 0.27699 0.6259 0.28737 0.0
H450 H 0.27999 0.5416 0.42702 0.0
C451 C 0.31977 0.63915 0.31241 0.0
C452 C 0.29705 0.62233 0.3171 0.0
H453 H 0.22186 0.54243 0.34248 0.0
H454 H 0.244 0.58182 0.31745 0.0
H455 H 0.33164 0.55061 0.37883 0.0
H456 H 0.28277 0.60492 0.43979 0.0
H457 H 0.31542 0.61909 0.43981 0.0
H458 H 0.30994 0.5861 0.45919 0.0
H459 H 0.32968 0.55013 0.42577 0.0
H460 H 0.35328 0.57168 0.40339 0.0
C461 C 0.2743 0.59997 0.26466 0.0
C462 C 0.24965 0.63736 0.3005 0.0
C463 C 0.40577 0.65198 0.38425 0.0
C464 C 0.41415 0.64155 0.41686 0.0
C465 C 0.39564 0.62579 0.43643 0.0
C466 C 0.37017 0.61906 0.42298 0.0
C467 C 0.36277 0.6283 0.38963 0.0
C468 C 0.37997 0.64531 0.37138 0.0
C469 C 0.36762 0.6547 0.33743 0.0
C470 C 0.34071 0.63965 0.33788 0.0
C471 C 0.33828 0.62385 0.36822 0.0
C472 C 0.38602 0.64512 0.30704 0.0
C473 C 0.36378 0.68584 0.33951 0.0
C474 C 0.27156 0.55063 0.40358 0.0
C475 C 0.24903 0.53897 0.38684 0.0
C476 C 0.23923 0.55098 0.35582 0.0
C477 C 0.25222 0.57372 0.34125 0.0
C478 C 0.27552 0.58428 0.35754 0.0
C479 C 0.28458 0.57291 0.38843 0.0
C480 C 0.31035 0.58573 0.40131 0.0
C481 C 0.31573 0.60626 0.37257 0.0
C482 C 0.29523 0.60544 0.34711 0.0
C483 C 0.33251 0.56351 0.40267 0.0
C484 C 0.30455 0.59957 0.43696 0.0
H485 H 0.35192 0.6793 0.27082 0.0
H486 H 0.26101 0.65386 0.22617 0.0
H487 H 0.25232 0.65833 0.3106 0.0
H488 H 0.24101 0.62554 0.32236 0.0
H489 H 0.23453 0.63809 0.27899 0.0
H490 H 0.29007 0.59922 0.24387 0.0
H491 H 0.25425 0.59903 0.25152 0.0
H492 H 0.27743 0.58118 0.27993 0.0
H493 H 0.4192 0.66434 0.36851 0.0
H494 H 0.40094 0.61831 0.46218 0.0
H495 H 0.35738 0.60652 0.43888 0.0
H496 H 0.39405 0.62445 0.31235 0.0
H497 H 0.40361 0.65892 0.30358 0.0
H498 H 0.37515 0.64337 0.2819 0.0
H499 H 0.35938 0.69238 0.36679 0.0
H500 H 0.34628 0.69309 0.32415 0.0
H501 H 0.38231 0.69671 0.33079 0.0
H502 H 0.33565 0.69964 0.21761 0.0
C503 C 0.3322 0.67334 0.26189 0.0
C504 C 0.83867 0.89387 0.84014 0.0
C505 C 0.84524 0.9049 0.87315 0.0
C506 C 0.85878 0.88845 0.89772 0.0
C507 C 0.86076 0.85167 0.85599 0.0
C508 C 0.84662 0.86724 0.83214 0.0
C509 C 0.84208 0.85233 0.79814 0.0
H510 H 0.87275 0.74359 0.6968 0.0
C511 C 0.86787 0.82579 0.83909 0.0
C512 C 0.85704 0.82589 0.80512 0.0
H513 H 0.81552 0.8076 0.67352 0.0
H514 H 0.82573 0.82888 0.72878 0.0
H515 H 0.91866 0.78019 0.73898 0.0
H516 H 0.84918 0.73247 0.76765 0.0
H517 H 0.87216 0.72887 0.8023 0.0
H518 H 0.88142 0.7171 0.75917 0.0
H519 H 0.91689 0.744 0.73451 0.0
H520 H 0.92771 0.75956 0.77471 0.0
C521 C 0.85533 0.86884 0.76827 0.0
C522 C 0.81126 0.84775 0.79346 0.0
C523 C 0.93215 0.76202 0.90125 0.0
C524 C 0.94621 0.73874 0.89034 0.0
C525 C 0.93878 0.72633 0.85853 0.0
C526 C 0.91932 0.73822 0.83669 0.0
C527 C 0.90717 0.76279 0.84674 0.0
C528 C 0.913 0.77375 0.87908 0.0
C529 C 0.89912 0.80043 0.88497 0.0
C530 C 0.88412 0.80384 0.85064 0.0
C531 C 0.88914 0.78193 0.82828 0.0
C532 C 0.92128 0.82247 0.89011 0.0
C533 C 0.87939 0.79704 0.91625 0.0
C534 C 0.86224 0.76215 0.70329 0.0
C535 C 0.84321 0.77368 0.68031 0.0
C536 C 0.83063 0.79828 0.69014 0.0
C537 C 0.83625 0.81048 0.72258 0.0
C538 C 0.85434 0.79783 0.74578 0.0
C539 C 0.86681 0.77397 0.73594 0.0
C540 C 0.88327 0.7617 0.76486 0.0
C541 C 0.87868 0.78211 0.79379 0.0
C542 C 0.8623 0.80367 0.78235 0.0
C543 C 0.91324 0.76108 0.75283 0.0
C544 C 0.87116 0.73349 0.774 0.0
H545 H 0.87711 0.85085 0.90911 0.0
H546 H 0.82788 0.90578 0.82086 0.0
H547 H 0.801 0.84532 0.81921 0.0
H548 H 0.80661 0.82888 0.77912 0.0
H549 H 0.80166 0.86516 0.77982 0.0
H550 H 0.87614 0.87527 0.77581 0.0
H551 H 0.84339 0.88738 0.76247 0.0
H552 H 0.85753 0.8572 0.74385 0.0
H553 H 0.93764 0.77251 0.92511 0.0
H554 H 0.94912 0.70825 0.84964 0.0
H555 H 0.91542 0.72844 0.81216 0.0
H556 H 0.93966 0.8178 0.87436 0.0
H557 H 0.9276 0.82384 0.91794 0.0
H558 H 0.91501 0.84274 0.881 0.0
H559 H 0.87088 0.77616 0.91717 0.0
H560 H 0.86148 0.8104 0.91434 0.0
H561 H 0.88984 0.80076 0.94153 0.0
H562 H 0.86447 0.89636 0.9231 0.0
C563 C 0.8664 0.86198 0.88941 0.0
H564 H 0.20986 0.90889 0.98845 0.0
H565 H 0.25989 0.01934 0.12286 0.0
H566 H 0.20642 0.90463 0.10115 0.0
H567 H 0.2515 0.03507 0.01225 0.0
H568 H 0.25858 0.97112 0.11101 0.0
H569 H 0.23864 0.94944 0.99338 0.0
C570 C 0.21478 0.91666 0.01409 0.0
C571 C 0.20434 0.90434 0.04432 0.0
C572 C 0.25762 0.98508 0.08915 0.0
C573 C 0.23877 0.94913 0.05026 0.0
C574 C 0.25878 0.01278 0.09587 0.0
C575 C 0.25433 0.03138 0.06866 0.0
C576 C 0.25137 0.97606 0.05522 0.0
C577 C 0.25352 0.02136 0.03422 0.0
C578 C 0.23175 0.93933 0.01692 0.0
C579 C 0.21316 0.91393 0.07699 0.0
N580 N 0.25091 0.99432 0.02852 0.0
N581 N 0.22957 0.93581 0.07904 0.0
H582 H 0.59404 0.71751 0.49029 0.0
H583 H 0.46638 0.75928 0.53994 0.0
H584 H 0.61918 0.74104 0.59376 0.0
H585 H 0.50121 0.76513 0.6431 0.0
H586 H 0.51175 0.75826 0.51492 0.0
H587 H 0.55039 0.73927 0.5003 0.0
C588 C 0.5905 0.72768 0.51485 0.0
C589 C 0.60973 0.72625 0.54173 0.0
C590 C 0.50971 0.75998 0.54297 0.0
C591 C 0.56003 0.7521 0.55359 0.0
C592 C 0.48366 0.76086 0.55729 0.0
C593 C 0.47997 0.76164 0.59375 0.0
C594 C 0.53229 0.75963 0.5654 0.0
C595 C 0.50301 0.76432 0.61489 0.0
C596 C 0.56551 0.74039 0.52066 0.0
C597 C 0.6046 0.7408 0.57261 0.0
N598 N 0.52812 0.7627 0.60045 0.0
N599 N 0.58013 0.75258 0.57792 0.0
H600 H 0.76213 0.08651 0.98151 0.0
H601 H 0.72502 -0.00017 0.14759 0.0
H602 H 0.76065 0.11728 0.08678 0.0
H603 H 0.73623 0.96808 0.04351 0.0
H604 H 0.7216 0.04551 0.12297 0.0
H605 H 0.73537 0.04743 0.00046 0.0
C606 C 0.75476 0.08578 0.00822 0.0
C607 C 0.76347 0.10502 0.03268 0.0
C608 C 0.72413 0.02849 0.10541 0.0
C609 C 0.73431 0.05977 0.05506 0.0
C610 C 0.72595 0.00237 0.11946 0.0
C611 C 0.73153 0.98023 0.0976 0.0
C612 C 0.72802 0.03244 0.06931 0.0
C613 C 0.73259 0.98472 0.06135 0.0
C614 C 0.73991 0.06322 0.01924 0.0
C615 C 0.75412 0.10284 0.06717 0.0
N616 N 0.73137 0.01034 0.04841 0.0
N617 N 0.74065 0.08019 0.07761 0.0
H618 H 0.40977 0.2827 0.49774 0.0
H619 H 0.50235 0.22702 0.65064 0.0
H620 H 0.38541 0.27136 0.60501 0.0
H621 H 0.53316 0.24996 0.54905 0.0
H622 H 0.45669 0.2278 0.6272 0.0
H623 H 0.4516 0.25757 0.50985 0.0
C624 C 0.41314 0.27479 0.52367 0.0
C625 C 0.39476 0.28029 0.55071 0.0
C626 C 0.47346 0.23212 0.60977 0.0
C627 C 0.44185 0.25076 0.56463 0.0
C628 C 0.49972 0.23136 0.62308 0.0
C629 C 0.52171 0.23931 0.60211 0.0
C630 C 0.46907 0.24128 0.57543 0.0
C631 C 0.51672 0.24469 0.56654 0.0
C632 C 0.43685 0.26023 0.53054 0.0
C633 C 0.39943 0.26843 0.58356 0.0
N634 N 0.49085 0.24631 0.55451 0.0
N635 N 0.42265 0.25459 0.5897 0.0
H636 H 0.73633 0.62347 0.43345 0.0
H637 H 0.74792 0.50133 0.3569 0.0
H638 H 0.73221 0.57716 0.52876 0.0
H639 H 0.76155 0.46841 0.45979 0.0
H640 H 0.75623 0.54664 0.37964 0.0
H641 H 0.76099 0.58632 0.4057 0.0
C642 C 0.74183 0.60595 0.44901 0.0
C643 C 0.73194 0.60307 0.4832 0.0
C644 C 0.75851 0.52966 0.39725 0.0
C645 C 0.7584 0.5597 0.45119 0.0
C646 C 0.75381 0.50362 0.38405 0.0
C647 C 0.75352 0.48124 0.40668 0.0
C648 C 0.76283 0.53322 0.43344 0.0
C649 C 0.76109 0.48527 0.44164 0.0
C650 C 0.75529 0.58432 0.43288 0.0
C651 C 0.73933 0.57997 0.50219 0.0
N652 N 0.76484 0.51077 0.45408 0.0
N653 N 0.75151 0.55891 0.4857 0.0
H654 H 0.87504 0.22945 0.89726 0.0
H655 H 0.00269 0.25486 0.83997 0.0
H656 H 0.91364 0.19844 0.98977 0.0
H657 H 0.03015 0.23854 0.9451 0.0
H658 H 0.95659 0.25492 0.86044 0.0
H659 H 0.91621 0.25386 0.88267 0.0
C660 C 0.8923 0.22781 0.91464 0.0
C661 C 0.8913 0.21101 0.94426 0.0
C662 C 0.97241 0.25211 0.87959 0.0
C663 C 0.93933 0.23787 0.92679 0.0
C664 C -0.00091 0.25223 0.86772 0.0
C665 C 0.02042 0.24614 0.89067 0.0
C666 C 0.96688 0.24565 0.91475 0.0
C667 C 0.01428 0.24258 0.92627 0.0
C668 C 0.91608 0.24158 0.90607 0.0
C669 C 0.91384 0.21047 0.96638 0.0
N670 N 0.98806 0.2418 0.93706 0.0
N671 N 0.93716 0.22314 0.95684 0.0
H672 H 0.26503 0.40453 0.51349 0.0
H673 H 0.23591 0.49389 0.34855 0.0
H674 H 0.26526 0.37497 0.40764 0.0
H675 H 0.23856 0.52367 0.45456 0.0
H676 H 0.23063 0.44784 0.37105 0.0
H677 H 0.23885 0.44392 0.49452 0.0
C678 C 0.25815 0.40558 0.4866 0.0
C679 C 0.26721 0.38661 0.46204 0.0
C680 C 0.23168 0.46449 0.38945 0.0
C681 C 0.23873 0.43225 0.43965 0.0
C682 C 0.23453 0.49087 0.37657 0.0
C683 C 0.23838 0.51259 0.39974 0.0
C684 C 0.23297 0.45981 0.42572 0.0
C685 C 0.23644 0.50739 0.43578 0.0
C686 C 0.24362 0.42833 0.47557 0.0
C687 C 0.25848 0.38921 0.42733 0.0
N688 N 0.23446 0.4815 0.44767 0.0
N689 N 0.24535 0.41204 0.41692 0.0
H690 H 0.10427 0.78123 0.91023 0.0
H691 H 0.95751 0.73776 0.96101 0.0
H692 H 0.07502 0.78467 0.01659 0.0
H693 H 0.99417 0.72478 0.85984 0.0
H694 H 0.0026 0.74439 0.98599 0.0
H695 H 0.06721 0.75141 0.89525 0.0
C696 C 0.08989 0.77582 0.93051 0.0
C697 C 0.09199 0.7865 0.96438 0.0
C698 C 0.00079 0.73925 0.95855 0.0
C699 C 0.04917 0.75215 0.94725 0.0
C700 C 0.97506 0.73543 0.94427 0.0
C701 C 0.97198 0.73173 0.90803 0.0
C702 C 0.02341 0.73942 0.93629 0.0
C703 C 0.99539 0.72803 0.88779 0.0
C704 C 0.0688 0.7585 0.92198 0.0
C705 C 0.07335 0.77792 0.98978 0.0
N706 N 0.02007 0.73268 0.90204 0.0
N707 N 0.05226 0.76168 0.9805 0.0
H708 H 0.83011 0.05779 0.98329 0.0
H709 H 0.85024 0.94904 0.82996 0.0
H710 H 0.84105 0.07872 0.87447 0.0
H711 H 0.82865 0.92695 0.93572 0.0
H712 H 0.84654 0.99672 0.846 0.0
H713 H 0.8304 0.00968 0.96706 0.0
C714 C 0.83275 0.05229 0.95607 0.0
C715 C 0.83564 0.07233 0.93023 0.0
C716 C 0.84245 0.98146 0.86568 0.0
C717 C 0.83579 0.01745 0.91145 0.0
C718 C 0.84431 0.95416 0.85642 0.0
C719 C 0.83991 0.93386 0.88154 0.0
C720 C 0.83628 0.98861 0.90038 0.0
C721 C 0.83272 0.94188 0.91562 0.0
C722 C 0.83274 0.02485 0.94678 0.0
C723 C 0.83873 0.06402 0.8953 0.0
N724 N 0.83131 0.9686 0.92409 0.0
N725 N 0.83877 0.03729 0.88699 0.0
H726 H 0.41603 0.30198 0.4413 0.0
H727 H 0.55321 0.3827 0.41068 0.0
H728 H 0.43489 0.37869 0.48925 0.0
H729 H 0.54736 0.29712 0.3881 0.0
H730 H 0.50906 0.38093 0.4382 0.0
H731 H 0.46339 0.29837 0.42166 0.0
C732 C 0.43039 0.31755 0.44874 0.0
C733 C 0.4218 0.3404 0.46753 0.0
C734 C 0.51743 0.36242 0.42752 0.0
C735 C 0.47533 0.33712 0.44382 0.0
C736 C 0.54285 0.36337 0.41187 0.0
C737 C 0.55442 0.33992 0.3974 0.0
C738 C 0.50295 0.33795 0.42841 0.0
C739 C 0.53927 0.31575 0.39872 0.0
C740 C 0.45727 0.31568 0.43714 0.0
C741 C 0.4408 0.36065 0.47508 0.0
N742 N 0.51425 0.3154 0.41387 0.0
N743 N 0.46656 0.35863 0.46299 0.0
H744 H 0.15578 0.92355 0.99022 0.0
H745 H 0.1569 0.03116 0.83481 0.0
H746 H 0.17812 0.90407 0.88386 0.0
H747 H 0.16601 0.05564 0.94263 0.0
H748 H 0.16179 0.98396 0.8529 0.0
H749 H 0.15678 0.97194 0.97443 0.0
C750 C 0.16122 0.92935 0.96381 0.0
C751 C 0.16709 0.90957 0.93853 0.0
C752 C 0.16295 -0.0003 0.87258 0.0
C753 C 0.16723 0.96464 0.92 0.0
C754 C 0.16036 0.02672 0.8622 0.0
C755 C 0.16093 0.04754 0.88717 0.0
C756 C 0.1659 0.9933 0.90825 0.0
C757 C 0.16492 0.0403 0.92248 0.0
C758 C 0.16165 0.95694 0.95476 0.0
C759 C 0.17344 0.9184 0.90442 0.0
N760 N 0.167 0.0138 0.932 0.0
N761 N 0.17307 0.9451 0.89617 0.0
H762 H 0.58337 0.68734 0.44374 0.0
H763 H 0.44549 0.60553 0.45313 0.0
H764 H 0.56802 0.62193 0.51589 0.0
H765 H 0.44779 0.68634 0.40953 0.0
H766 H 0.49134 0.61148 0.47412 0.0
H767 H 0.53465 0.6886 0.42964 0.0
C768 C 0.5696 0.67389 0.4574 0.0
C769 C 0.57949 0.65476 0.48136 0.0
C770 C 0.4818 0.62808 0.46028 0.0
C771 C 0.52442 0.65524 0.46441 0.0
C772 C 0.45541 0.62477 0.44838 0.0
C773 C 0.44236 0.64559 0.42986 0.0
C774 C 0.49578 0.65225 0.45323 0.0
C775 C 0.45699 0.66962 0.42347 0.0
C776 C 0.54193 0.67439 0.44909 0.0
C777 C 0.56111 0.63702 0.49733 0.0
N778 N 0.48301 0.67226 0.43499 0.0
N779 N 0.53456 0.63753 0.48836 0.0
H780 H 0.34372 0.416 0.61736 0.0
H781 H 0.34007 0.56702 0.54108 0.0
H782 H 0.3379 0.43338 0.50684 0.0
H783 H 0.34808 0.5472 0.65066 0.0
H784 H 0.33743 0.51858 0.52759 0.0
H785 H 0.34407 0.4643 0.62948 0.0
C786 C 0.34261 0.42999 0.59555 0.0
C787 C 0.34085 0.42057 0.56099 0.0
C788 C 0.33962 0.52488 0.55458 0.0
C789 C 0.34109 0.47624 0.57481 0.0
C790 C 0.34117 0.55251 0.56232 0.0
C791 C 0.34438 0.56122 0.59708 0.0
C792 C 0.34135 0.50582 0.5818 0.0
C793 C 0.34528 0.54151 0.62355 0.0
C794 C 0.34275 0.45765 0.60253 0.0
C795 C 0.33944 0.43975 0.53387 0.0
N796 N 0.34392 0.5148 0.61533 0.0
N797 N 0.33956 0.46673 0.54137 0.0
H798 H 0.07689 0.83301 0.12605 0.0
H799 H 0.92743 0.83988 0.04497 0.0
H800 H 0.06164 0.83517 0.01495 0.0
H801 H 0.94421 0.83539 0.15561 0.0
H802 H 0.97596 0.83578 0.03301 0.0
H803 H 0.02827 0.832 0.13678 0.0
C804 C 0.0633 0.83314 0.1038 0.0
C805 C 0.0735 0.83398 0.06945 0.0
C806 C 0.96903 0.83551 0.05989 0.0
C807 C 0.01732 0.83288 0.08171 0.0
C808 C 0.94129 0.83792 0.06679 0.0
C809 C 0.93161 0.83823 0.10142 0.0
C810 C 0.98742 0.83348 0.0878 0.0
C811 C 0.95059 0.83509 0.12851 0.0
C812 C 0.03544 0.83249 0.11 0.0
C813 C 0.05476 0.83414 0.04181 0.0
N814 N 0.97751 0.83309 0.12113 0.0
N815 N 0.02759 0.83367 0.04853 0.0
H816 H 0.62382 0.57627 0.54082 0.0
H817 H 0.673 0.45707 0.66503 0.0
H818 H 0.67041 0.59152 0.63434 0.0
H819 H 0.59972 0.45162 0.60359 0.0
H820 H 0.67569 0.5054 0.65072 0.0
H821 H 0.6181 0.52904 0.55944 0.0
C822 C 0.63266 0.56974 0.56536 0.0
C823 C 0.64752 0.58787 0.58611 0.0
C824 C 0.65902 0.49352 0.64051 0.0
C825 C 0.64152 0.53388 0.60718 0.0
C826 C 0.65739 0.46594 0.64878 0.0
C827 C 0.6363 0.44996 0.63517 0.0
C828 C 0.63965 0.50514 0.61815 0.0
C829 C 0.61683 0.46275 0.6139 0.0
C830 C 0.62938 0.54284 0.57598 0.0
C831 C 0.65863 0.57829 0.61764 0.0
N832 N 0.61913 0.48945 0.6058 0.0
N833 N 0.65565 0.55188 0.62704 0.0
H834 H 0.93173 0.11238 0.006 0.0
H835 H 0.04235 0.20195 0.10686 0.0
H836 H 0.9117 0.18827 0.05524 0.0
H837 H 0.05231 0.11757 0.07989 0.0
H838 H 0.99648 0.20052 0.08201 0.0
H839 H 0.97862 0.1177 0.02521 0.0
C840 C 0.93743 0.13044 0.02036 0.0
C841 C 0.91807 0.15015 0.02856 0.0
C842 C 0.00884 0.18241 0.08149 0.0
C843 C 0.97151 0.15613 0.0515 0.0
C844 C 0.03495 0.18315 0.09585 0.0
C845 C 0.0514 0.15991 0.09531 0.0
C846 C -0.00079 0.1583 0.06639 0.0
C847 C 0.04075 0.13619 0.08029 0.0
C848 C 0.96412 0.13341 0.03152 0.0
C849 C 0.92627 0.17293 0.0478 0.0
N850 N 0.01546 0.13605 0.06644 0.0
N851 N 0.95244 0.17531 0.05872 0.0
H852 H 0.17644 0.74181 0.08516 0.0
H853 H 0.3051 0.73169 0.19745 0.0
H854 H 0.24292 0.79663 0.0669 0.0
H855 H 0.26327 0.65864 0.16605 0.0
H856 H 0.28307 0.75593 0.14979 0.0
H857 H 0.20758 0.71034 0.11416 0.0
C858 C 0.19781 0.74675 0.08643 0.0
C859 C 0.20736 0.77156 0.07367 0.0
C860 C 0.27913 0.73447 0.15301 0.0
C861 C 0.24266 0.73653 0.10786 0.0
C862 C 0.29176 0.72051 0.18022 0.0
C863 C 0.28587 0.69302 0.18626 0.0
C864 C 0.26001 0.72106 0.13215 0.0
C865 C 0.26789 0.67997 0.16321 0.0
C866 C 0.21552 0.7289 0.10297 0.0
C867 C 0.23503 0.77746 0.07625 0.0
N868 N 0.2552 0.69423 0.1376 0.0
N869 N 0.25171 0.76031 0.0939 0.0
H870 H 0.73746 0.72875 0.5184 0.0
H871 H 0.84091 0.71844 0.67074 0.0
H872 H 0.76569 0.65361 0.56239 0.0
H873 H 0.82495 0.7938 0.6167 0.0
H874 H 0.82186 0.69391 0.62216 0.0
H875 H 0.77722 0.75179 0.54246 0.0
C876 C 0.75288 0.71685 0.53147 0.0
C877 C 0.74847 0.68934 0.53857 0.0
C878 C 0.82288 0.7158 0.6205 0.0
C879 C 0.79309 0.71559 0.56761 0.0
C880 C 0.83405 0.73002 0.64839 0.0
C881 C 0.83447 0.75854 0.64839 0.0
C882 C 0.81112 0.72999 0.59256 0.0
C883 C 0.82443 0.77193 0.61857 0.0
C884 C 0.77538 0.73006 0.5457 0.0
C885 C 0.76855 0.67488 0.55634 0.0
N886 N 0.81268 0.75758 0.5922 0.0
N887 N 0.7897 0.68829 0.57102 0.0
H888 H 0.75866 0.18821 0.0605 0.0
H889 H 0.76937 0.32511 0.16474 0.0
H890 H 0.83643 0.21763 0.09524 0.0
H891 H 0.71594 0.2623 0.20356 0.0
H892 H 0.78824 0.29265 0.12329 0.0
H893 H 0.73648 0.22258 0.0976 0.0
C894 C 0.771 0.20207 0.07565 0.0
C895 C 0.79934 0.20009 0.07517 0.0
C896 C 0.77217 0.28626 0.14079 0.0
C897 C 0.77434 0.23948 0.11631 0.0
C898 C 0.7615 0.30465 0.16481 0.0
C899 C 0.74124 0.29656 0.18861 0.0
C900 C 0.76197 0.25982 0.13955 0.0
C901 C 0.73126 0.26985 0.18584 0.0
C902 C 0.75838 0.22148 0.09676 0.0
C903 C 0.8145 0.21842 0.09522 0.0
N904 N 0.74171 0.25246 0.16175 0.0
N905 N 0.80181 0.23755 0.11479 0.0
H906 H 0.23403 0.33449 0.55555 0.0
H907 H 0.19297 0.18735 0.62365 0.0
H908 H 0.27458 0.26204 0.52129 0.0
H909 H 0.17507 0.2635 0.67452 0.0
H910 H 0.21259 0.21269 0.57449 0.0
H911 H 0.19958 0.30665 0.58415 0.0
C912 C 0.23486 0.31266 0.55259 0.0
C913 C 0.25704 0.30046 0.53613 0.0
C914 C 0.20385 0.22369 0.59624 0.0
C915 C 0.21872 0.26846 0.57039 0.0
C916 C 0.1929 0.20927 0.62455 0.0
C917 C 0.1823 0.22312 0.65369 0.0
C918 C 0.2039 0.25214 0.59685 0.0
C919 C 0.18236 0.25164 0.65269 0.0
C920 C 0.2155 0.29674 0.56944 0.0
C921 C 0.25758 0.27211 0.53359 0.0
N922 N 0.19304 0.26506 0.62496 0.0
N923 N 0.23907 0.25695 0.55141 0.0
H924 H 0.63947 0.72674 0.4195 0.0
H925 H 0.77803 0.7779 0.3335 0.0
H926 H 0.71488 0.68278 0.42298 0.0
H927 H 0.70143 0.79509 0.28359 0.0
H928 H 0.7542 0.75157 0.37777 0.0
H929 H 0.66115 0.76031 0.37996 0.0
C930 C 0.66053 0.72433 0.41219 0.0
C931 C 0.67538 0.70189 0.42402 0.0
C932 C 0.74259 0.76126 0.35722 0.0
C933 C 0.70018 0.74003 0.38014 0.0
C934 C 0.75621 0.77616 0.33169 0.0
C935 C 0.7419 0.78832 0.30409 0.0
C936 C 0.71432 0.75863 0.35566 0.0
C937 C 0.71341 0.7861 0.30426 0.0
C938 C 0.67281 0.74331 0.38967 0.0
C939 C 0.70262 0.6996 0.41399 0.0
N940 N 0.70054 0.77137 0.32951 0.0
N941 N 0.71411 0.71841 0.39284 0.0
H942 H 0.73001 0.15561 0.94449 0.0
H943 H 0.67674 0.30149 0.88743 0.0
H944 H 0.76827 0.22939 0.97869 0.0
H945 H 0.66594 0.22645 0.83066 0.0
H946 H 0.69902 0.27592 0.93437 0.0
H947 H 0.6929 0.18215 0.91975 0.0
C948 C 0.72985 0.17738 0.94828 0.0
C949 C 0.75207 0.19043 0.96354 0.0
C950 C 0.69118 0.26518 0.91183 0.0
C951 C 0.7106 0.22099 0.93377 0.0
C952 C 0.67872 0.27975 0.88476 0.0
C953 C 0.66941 0.26634 0.85452 0.0
C954 C 0.69395 0.23697 0.90895 0.0
C955 C 0.67209 0.23796 0.85336 0.0
C956 C 0.70893 0.19256 0.93367 0.0
C957 C 0.75129 0.21868 0.96724 0.0
N958 N 0.68414 0.22438 0.87997 0.0
N959 N 0.73118 0.23319 0.95159 0.0
H960 H 0.261 0.3053 0.43587 0.0
H961 H 0.26885 0.17191 0.32194 0.0
H962 H 0.33747 0.27273 0.40118 0.0
H963 H 0.21481 0.23663 0.29117 0.0
H964 H 0.2878 0.20146 0.36688 0.0
H965 H 0.2374 0.27254 0.39779 0.0
C966 C 0.27273 0.29102 0.42059 0.0
C967 C 0.30114 0.29168 0.42129 0.0
C968 C 0.27156 0.20892 0.35042 0.0
C969 C 0.27453 0.25418 0.37898 0.0
C970 C 0.26084 0.19222 0.3245 0.0
C971 C 0.24054 0.20186 0.30186 0.0
C972 C 0.26144 0.23519 0.35454 0.0
C973 C 0.23031 0.22809 0.30785 0.0
C974 C 0.25932 0.27254 0.39893 0.0
C975 C 0.31553 0.27293 0.40103 0.0
N976 N 0.24094 0.2439 0.33358 0.0
N977 N 0.30205 0.25477 0.38083 0.0
H978 H 0.17335 0.78011 0.90209 0.0
H979 H 0.32677 0.75192 0.84436 0.0
H980 H 0.23998 0.79336 0.973 0.0
H981 H 0.25595 0.72548 0.78778 0.0
H982 H 0.2969 0.77063 0.89023 0.0
H983 H 0.20475 0.76278 0.85873 0.0
C984 C 0.19471 0.77934 0.90853 0.0
C985 C 0.2041 0.78835 0.94108 0.0
C986 C 0.28803 0.76069 0.86774 0.0
C987 C 0.24052 0.76841 0.89122 0.0
C988 C 0.305 0.75023 0.84151 0.0
C989 C 0.29379 0.73691 0.81244 0.0
C990 C 0.25976 0.75803 0.86444 0.0
C991 C 0.2655 0.7352 0.80998 0.0
C992 C 0.21269 0.76936 0.88373 0.0
C993 C 0.23196 0.78649 0.94818 0.0
N994 N 0.24957 0.74556 0.83554 0.0
N995 N 0.24932 0.77687 0.92328 0.0
loop_
_geom_bond_atom_site_label_1
_geom_bond_atom_site_label_2
_geom_bond_distance
_geom_bond_site_symmetry_2
_ccdc_geom_bond_type
Zn0 O6 1.920 . S
Zn0 O12 1.898 . S
Zn0 O15 1.905 . S
Zn1 O9 1.905 . S
Zn1 O10 1.898 . S
Zn1 O18 1.920 . S
Zn2 O5 2.080 . S
Zn2 O8 2.114 1_554 S
Zn2 O11 2.120 1_554 S
Zn2 O13 2.120 . S
Zn2 O14 2.114 . S
Zn2 O17 2.080 1_554 S
C3 O8 1.166 . S
C3 O9 1.182 . S
C4 O10 1.167 . S
C4 O11 1.299 . S
O5 Zn2 2.080 . S
O5 C19 1.305 . S
O6 Zn0 1.920 . S
O6 C19 1.234 . S
C7 O12 1.167 . S
C7 O13 1.299 . S
O8 Zn2 2.114 1_556 S
O8 C3 1.166 . S
O9 Zn1 1.905 . S
O9 C3 1.182 . S
O10 Zn1 1.898 . S
O10 C4 1.167 . S
O11 Zn2 2.120 1_556 S
O11 C4 1.299 . S
O12 Zn0 1.898 . S
O12 C7 1.167 . S
O13 Zn2 2.120 . S
O13 C7 1.299 . S
O14 Zn2 2.114 . S
O14 C16 1.166 . S
O15 Zn0 1.905 . S
O15 C16 1.182 . S
C16 O14 1.166 . S
C16 O15 1.182 . S
O17 Zn2 2.080 1_556 S
O17 C20 1.305 . S
O18 Zn1 1.920 . S
O18 C20 1.234 . S
C19 O5 1.305 . S
C19 O6 1.234 . S
C20 O17 1.305 . S
C20 O18 1.234 . S
Zn21 O27 1.920 . S
Zn21 O33 1.898 . S
Zn21 O36 1.905 . S
Zn22 O30 1.905 . S
Zn22 O31 1.898 . S
Zn22 O39 1.920 . S
Zn23 O26 2.080 . S
Zn23 O29 2.114 . S
Zn23 O32 2.120 . S
Zn23 O34 2.120 . S
Zn23 O35 2.114 . S
Zn23 O38 2.080 . S
C24 O29 1.166 . S
C24 O30 1.182 . S
C25 O31 1.167 . S
C25 O32 1.299 . S
O26 Zn23 2.080 . S
O26 C40 1.305 . S
O27 Zn21 1.920 . S
O27 C40 1.234 . S
C28 O33 1.167 . S
C28 O34 1.299 . S
O29 Zn23 2.114 . S
O29 C24 1.166 . S
O30 Zn22 1.905 . S
O30 C24 1.182 . S
O31 Zn22 1.898 . S
O31 C25 1.167 . S
O32 Zn23 2.120 . S
O32 C25 1.299 . S
O33 Zn21 1.898 . S
O33 C28 1.167 . S
O34 Zn23 2.120 . S
O34 C28 1.299 . S
O35 Zn23 2.114 . S
O35 C37 1.166 . S
O36 Zn21 1.905 . S
O36 C37 1.182 . S
C37 O35 1.166 . S
C37 O36 1.182 . S
O38 Zn23 2.080 . S
O38 C41 1.305 . S
O39 Zn22 1.920 . S
O39 C41 1.234 . S
C40 O26 1.305 . S
C40 O27 1.234 . S
C41 O38 1.305 . S
C41 O39 1.234 . S
Zn42 O48 1.920 . S
Zn42 O54 1.898 . S
Zn42 O57 1.905 . S
Zn43 O51 1.905 . S
Zn43 O52 1.898 . S
Zn43 O60 1.920 . S
Zn44 O47 2.080 1_554 S
Zn44 O50 2.114 . S
Zn44 O53 2.120 . S
Zn44 O55 2.120 1_554 S
Zn44 O56 2.114 1_554 S
Zn44 O59 2.080 . S
C45 O50 1.166 . S
C45 O51 1.182 . S
C46 O52 1.167 . S
C46 O53 1.299 . S
O47 Zn44 2.080 1_556 S
O47 C61 1.305 . S
O48 Zn42 1.920 . S
O48 C61 1.234 . S
C49 O54 1.167 . S
C49 O55 1.299 . S
O50 Zn44 2.114 . S
O50 C45 1.166 . S
O51 Zn43 1.905 . S
O51 C45 1.182 . S
O52 Zn43 1.898 . S
O52 C46 1.167 . S
O53 Zn44 2.120 . S
O53 C46 1.299 . S
O54 Zn42 1.898 . S
O54 C49 1.167 . S
O55 Zn44 2.120 1_556 S
O55 C49 1.299 . S
O56 Zn44 2.114 1_556 S
O56 C58 1.166 . S
O57 Zn42 1.905 . S
O57 C58 1.182 . S
C58 O56 1.166 . S
C58 O57 1.182 . S
O59 Zn44 2.080 . S
O59 C62 1.305 . S
O60 Zn43 1.920 . S
O60 C62 1.234 . S
C61 O47 1.305 . S
C61 O48 1.234 . S
C62 O59 1.305 . S
C62 O60 1.234 . S
Zn63 O69 1.920 . S
Zn63 O75 1.898 . S
Zn63 O78 1.905 . S
Zn64 O72 1.905 . S
Zn64 O73 1.898 . S
Zn64 O81 1.920 . S
Zn65 O68 2.080 . S
Zn65 O71 2.114 . S
Zn65 O74 2.120 . S
Zn65 O76 2.120 . S
Zn65 O77 2.114 . S
Zn65 O80 2.080 . S
C66 O71 1.166 . S
C66 O72 1.182 . S
C67 O73 1.167 . S
C67 O74 1.299 . S
O68 Zn65 2.080 . S
O68 C82 1.305 . S
O69 Zn63 1.920 . S
O69 C82 1.234 . S
C70 O75 1.167 . S
C70 O76 1.299 . S
O71 Zn65 2.114 . S
O71 C66 1.166 . S
O72 Zn64 1.905 . S
O72 C66 1.182 . S
O73 Zn64 1.898 . S
O73 C67 1.167 . S
O74 Zn65 2.120 . S
O74 C67 1.299 . S
O75 Zn63 1.898 . S
O75 C70 1.167 . S
O76 Zn65 2.120 . S
O76 C70 1.299 . S
O77 Zn65 2.114 . S
O77 C79 1.166 . S
O78 Zn63 1.905 . S
O78 C79 1.182 . S
C79 O77 1.166 . S
C79 O78 1.182 . S
O80 Zn65 2.080 . S
O80 C83 1.305 . S
O81 Zn64 1.920 . S
O81 C83 1.234 . S
C82 O68 1.305 . S
C82 O69 1.234 . S
C83 O80 1.305 . S
C83 O81 1.234 . S
C84 C85 1.391 . S
C84 C88 1.391 . S
C84 H126 0.948 . S
C85 C84 1.391 . S
C85 C86 1.391 . S
C86 C85 1.391 . S
C86 H142 0.947 . S
C86 C143 1.392 . S
C87 C88 1.391 . S
C87 C91 1.397 . S
C87 C143 1.419 . S
C88 C84 1.391 . S
C88 C87 1.391 . S
C88 C89 1.399 . S
C89 C88 1.399 . S
C89 C92 1.396 . S
C89 C101 1.453 . S
C89 C102 1.684 . S
H90 C114 0.948 . S
C91 C87 1.397 . S
C91 C92 1.394 . S
C91 C110 1.723 . S
C92 C89 1.396 . S
C92 C91 1.394 . S
C92 C122 1.723 . S
H93 C116 0.947 . S
H94 C117 0.948 . S
H95 C123 0.982 . S
H96 C124 0.979 . S
H97 C124 0.980 . S
H98 C124 0.983 . S
H99 C123 0.979 . S
H100 C123 0.977 . S
C101 C89 1.453 . S
C101 H130 0.982 . S
C101 H131 0.979 . S
C101 H132 0.977 . S
C102 C89 1.684 . S
C102 H127 0.979 . S
C102 H128 0.980 . S
C102 H129 0.983 . S
C103 C104 1.391 . S
C103 C108 1.391 . S
C103 H133 0.948 . S
C104 C103 1.391 . S
C104 C105 1.391 . S
C105 C104 1.391 . S
C105 C106 1.392 . S
C105 H134 0.947 . S
C106 C105 1.392 . S
C106 C107 1.419 . S
C106 H135 0.948 . S
C107 C106 1.419 . S
C107 C108 1.391 . S
C107 C111 1.397 . S
C108 C103 1.391 . S
C108 C107 1.391 . S
C108 C109 1.399 . S
C109 C108 1.399 . S
C109 C110 1.396 . S
C109 C112 1.453 . S
C109 C113 1.684 . S
C110 C91 1.723 . S
C110 C109 1.396 . S
C110 C111 1.394 . S
C111 C107 1.397 . S
C111 C110 1.394 . S
C111 C121 1.723 . S
C112 C109 1.453 . S
C112 H136 0.982 . S
C112 H137 0.979 . S
C112 H138 0.977 . S
C113 C109 1.684 . S
C113 H139 0.979 . S
C113 H140 0.980 . S
C113 H141 0.983 . S
C114 H90 0.948 . S
C114 C115 1.391 . S
C114 C119 1.391 . S
C115 C114 1.391 . S
C115 C116 1.391 . S
C116 H93 0.947 . S
C116 C115 1.391 . S
C116 C117 1.392 . S
C117 H94 0.948 . S
C117 C116 1.392 . S
C117 C118 1.419 . S
C118 C117 1.419 . S
C118 C119 1.391 . S
C118 C122 1.397 . S
C119 C114 1.391 . S
C119 C118 1.391 . S
C119 C120 1.399 . S
C120 C119 1.399 . S
C120 C121 1.396 . S
C120 C123 1.453 . S
C120 C124 1.684 . S
C121 C111 1.723 . S
C121 C120 1.396 . S
C121 C122 1.394 . S
C122 C92 1.723 . S
C122 C118 1.397 . S
C122 C121 1.394 . S
C123 H95 0.982 . S
C123 H99 0.979 . S
C123 H100 0.977 . S
C123 C120 1.453 . S
C124 H96 0.979 . S
C124 H97 0.980 . S
C124 H98 0.983 . S
C124 C120 1.684 . S
H125 C143 0.948 . S
H126 C84 0.948 . S
H127 C102 0.979 . S
H128 C102 0.980 . S
H129 C102 0.983 . S
H130 C101 0.982 . S
H131 C101 0.979 . S
H132 C101 0.977 . S
H133 C103 0.948 . S
H134 C105 0.947 . S
H135 C106 0.948 . S
H136 C112 0.982 . S
H137 C112 0.979 . S
H138 C112 0.977 . S
H139 C113 0.979 . S
H140 C113 0.980 . S
H141 C113 0.983 . S
H142 C86 0.947 . S
C143 C86 1.392 . S
C143 C87 1.419 . S
C143 H125 0.948 . S
C144 C145 1.391 . S
C144 C148 1.391 . S
C144 H186 0.948 . S
C145 C144 1.391 . S
C145 C146 1.391 . S
C146 C145 1.391 . S
C146 H202 0.947 . S
C146 C203 1.392 . S
C147 C148 1.391 . S
C147 C151 1.397 . S
C147 C203 1.419 . S
C148 C144 1.391 . S
C148 C147 1.391 . S
C148 C149 1.399 . S
C149 C148 1.399 . S
C149 C152 1.396 . S
C149 C161 1.453 . S
C149 C162 1.684 . S
H150 C174 0.948 . S
C151 C147 1.397 . S
C151 C152 1.394 . S
C151 C170 1.723 . S
C152 C149 1.396 . S
C152 C151 1.394 . S
C152 C182 1.723 . S
H153 C176 0.947 . S
H154 C177 0.948 . S
H155 C183 0.982 . S
H156 C184 0.979 . S
H157 C184 0.980 . S
H158 C184 0.983 . S
H159 C183 0.979 . S
H160 C183 0.977 . S
C161 C149 1.453 . S
C161 H190 0.982 . S
C161 H191 0.979 . S
C161 H192 0.977 . S
C162 C149 1.684 . S
C162 H187 0.979 . S
C162 H188 0.980 . S
C162 H189 0.983 . S
C163 C164 1.391 . S
C163 C168 1.391 . S
C163 H193 0.948 . S
C164 C163 1.391 . S
C164 C165 1.391 . S
C165 C164 1.391 . S
C165 C166 1.392 . S
C165 H194 0.947 . S
C166 C165 1.392 . S
C166 C167 1.419 . S
C166 H195 0.948 . S
C167 C166 1.419 . S
C167 C168 1.391 . S
C167 C171 1.397 . S
C168 C163 1.391 . S
C168 C167 1.391 . S
C168 C169 1.399 . S
C169 C168 1.399 . S
C169 C170 1.396 . S
C169 C172 1.453 . S
C169 C173 1.684 . S
C170 C151 1.723 . S
C170 C169 1.396 . S
C170 C171 1.394 . S
C171 C167 1.397 . S
C171 C170 1.394 . S
C171 C181 1.723 . S
C172 C169 1.453 . S
C172 H196 0.982 . S
C172 H197 0.979 . S
C172 H198 0.977 . S
C173 C169 1.684 . S
C173 H199 0.979 . S
C173 H200 0.980 . S
C173 H201 0.983 . S
C174 H150 0.948 . S
C174 C175 1.391 . S
C174 C179 1.391 . S
C175 C174 1.391 . S
C175 C176 1.391 . S
C176 H153 0.947 . S
C176 C175 1.391 . S
C176 C177 1.392 . S
C177 H154 0.948 . S
C177 C176 1.392 . S
C177 C178 1.419 . S
C178 C177 1.419 . S
C178 C179 1.391 . S
C178 C182 1.397 . S
C179 C174 1.391 . S
C179 C178 1.391 . S
C179 C180 1.399 . S
C180 C179 1.399 . S
C180 C181 1.396 . S
C180 C183 1.453 . S
C180 C184 1.684 . S
C181 C171 1.723 . S
C181 C180 1.396 . S
C181 C182 1.394 . S
C182 C152 1.723 . S
C182 C178 1.397 . S
C182 C181 1.394 . S
C183 H155 0.982 . S
C183 H159 0.979 . S
C183 H160 0.977 . S
C183 C180 1.453 . S
C184 H156 0.979 . S
C184 H157 0.980 . S
C184 H158 0.983 . S
C184 C180 1.684 . S
H185 C203 0.948 . S
H186 C144 0.948 . S
H187 C162 0.979 . S
H188 C162 0.980 . S
H189 C162 0.983 . S
H190 C161 0.982 . S
H191 C161 0.979 . S
H192 C161 0.977 . S
H193 C163 0.948 . S
H194 C165 0.947 . S
H195 C166 0.948 . S
H196 C172 0.982 . S
H197 C172 0.979 . S
H198 C172 0.977 . S
H199 C173 0.979 . S
H200 C173 0.980 . S
H201 C173 0.983 . S
H202 C146 0.947 . S
C203 C146 1.392 . S
C203 C147 1.419 . S
C203 H185 0.948 . S
C204 C205 1.391 . S
C204 C208 1.391 . S
C204 H246 0.948 . S
C205 C204 1.391 . S
C205 C206 1.391 . S
C206 C205 1.391 . S
C206 H262 0.947 . S
C206 C263 1.392 . S
C207 C208 1.391 . S
C207 C211 1.397 . S
C207 C263 1.419 . S
C208 C204 1.391 . S
C208 C207 1.391 . S
C208 C209 1.399 . S
C209 C208 1.399 . S
C209 C212 1.396 . S
C209 C221 1.453 . S
C209 C222 1.684 . S
H210 C234 0.948 . S
C211 C207 1.397 . S
C211 C212 1.394 . S
C211 C230 1.723 . S
C212 C209 1.396 . S
C212 C211 1.394 . S
C212 C242 1.723 . S
H213 C236 0.947 . S
H214 C237 0.948 . S
H215 C243 0.982 . S
H216 C244 0.979 . S
H217 C244 0.980 . S
H218 C244 0.983 . S
H219 C243 0.979 . S
H220 C243 0.977 . S
C221 C209 1.453 . S
C221 H250 0.982 . S
C221 H251 0.979 . S
C221 H252 0.977 . S
C222 C209 1.684 . S
C222 H247 0.979 . S
C222 H248 0.980 . S
C222 H249 0.983 . S
C223 C224 1.391 . S
C223 C228 1.391 . S
C223 H253 0.948 . S
C224 C223 1.391 . S
C224 C225 1.391 . S
C225 C224 1.391 . S
C225 C226 1.392 . S
C225 H254 0.947 . S
C226 C225 1.392 . S
C226 C227 1.419 . S
C226 H255 0.948 . S
C227 C226 1.419 . S
C227 C228 1.391 . S
C227 C231 1.397 . S
C228 C223 1.391 . S
C228 C227 1.391 . S
C228 C229 1.399 . S
C229 C228 1.399 . S
C229 C230 1.396 . S
C229 C232 1.453 . S
C229 C233 1.684 . S
C230 C211 1.723 . S
C230 C229 1.396 . S
C230 C231 1.394 . S
C231 C227 1.397 . S
C231 C230 1.394 . S
C231 C241 1.723 . S
C232 C229 1.453 . S
C232 H256 0.982 . S
C232 H257 0.979 . S
C232 H258 0.977 . S
C233 C229 1.684 . S
C233 H259 0.979 . S
C233 H260 0.980 . S
C233 H261 0.983 . S
C234 H210 0.948 . S
C234 C235 1.391 . S
C234 C239 1.391 . S
C235 C234 1.391 . S
C235 C236 1.391 . S
C236 H213 0.947 . S
C236 C235 1.391 . S
C236 C237 1.392 . S
C237 H214 0.948 . S
C237 C236 1.392 . S
C237 C238 1.419 . S
C238 C237 1.419 . S
C238 C239 1.391 . S
C238 C242 1.397 . S
C239 C234 1.391 . S
C239 C238 1.391 . S
C239 C240 1.399 . S
C240 C239 1.399 . S
C240 C241 1.396 . S
C240 C243 1.453 . S
C240 C244 1.684 . S
C241 C231 1.723 . S
C241 C240 1.396 . S
C241 C242 1.394 . S
C242 C212 1.723 . S
C242 C238 1.397 . S
C242 C241 1.394 . S
C243 H215 0.982 . S
C243 H219 0.979 . S
C243 H220 0.977 . S
C243 C240 1.453 . S
C244 H216 0.979 . S
C244 H217 0.980 . S
C244 H218 0.983 . S
C244 C240 1.684 . S
H245 C263 0.948 . S
H246 C204 0.948 . S
H247 C222 0.979 . S
H248 C222 0.980 . S
H249 C222 0.983 . S
H250 C221 0.982 . S
H251 C221 0.979 . S
H252 C221 0.977 . S
H253 C223 0.948 . S
H254 C225 0.947 . S
H255 C226 0.948 . S
H256 C232 0.982 . S
H257 C232 0.979 . S
H258 C232 0.977 . S
H259 C233 0.979 . S
H260 C233 0.980 . S
H261 C233 0.983 . S
H262 C206 0.947 . S
C263 C206 1.392 . S
C263 C207 1.419 . S
C263 H245 0.948 . S
C264 C265 1.391 . S
C264 C268 1.391 . S
C264 H306 0.948 . S
C265 C264 1.391 . S
C265 C266 1.391 . S
C266 C265 1.391 . S
C266 H322 0.947 . S
C266 C323 1.392 . S
C267 C268 1.391 . S
C267 C271 1.397 . S
C267 C323 1.419 . S
C268 C264 1.391 . S
C268 C267 1.391 . S
C268 C269 1.399 . S
C269 C268 1.399 . S
C269 C272 1.396 . S
C269 C281 1.453 . S
C269 C282 1.684 . S
H270 C294 0.948 . S
C271 C267 1.397 . S
C271 C272 1.394 . S
C271 C290 1.723 . S
C272 C269 1.396 . S
C272 C271 1.394 . S
C272 C302 1.723 . S
H273 C296 0.947 . S
H274 C297 0.948 . S
H275 C303 0.982 . S
H276 C304 0.979 . S
H277 C304 0.980 . S
H278 C304 0.983 . S
H279 C303 0.979 . S
H280 C303 0.977 . S
C281 C269 1.453 . S
C281 H310 0.982 . S
C281 H311 0.979 . S
C281 H312 0.977 . S
C282 C269 1.684 . S
C282 H307 0.979 . S
C282 H308 0.980 . S
C282 H309 0.983 . S
C283 C284 1.391 . S
C283 C288 1.391 . S
C283 H313 0.948 . S
C284 C283 1.391 . S
C284 C285 1.391 . S
C285 C284 1.391 . S
C285 C286 1.392 . S
C285 H314 0.947 . S
C286 C285 1.392 . S
C286 C287 1.419 . S
C286 H315 0.948 . S
C287 C286 1.419 . S
C287 C288 1.391 . S
C287 C291 1.397 . S
C288 C283 1.391 . S
C288 C287 1.391 . S
C288 C289 1.399 . S
C289 C288 1.399 . S
C289 C290 1.396 . S
C289 C292 1.453 . S
C289 C293 1.684 . S
C290 C271 1.723 . S
C290 C289 1.396 . S
C290 C291 1.394 . S
C291 C287 1.397 . S
C291 C290 1.394 . S
C291 C301 1.723 . S
C292 C289 1.453 . S
C292 H316 0.982 . S
C292 H317 0.979 . S
C292 H318 0.977 . S
C293 C289 1.684 . S
C293 H319 0.979 . S
C293 H320 0.980 . S
C293 H321 0.983 . S
C294 H270 0.948 . S
C294 C295 1.391 . S
C294 C299 1.391 . S
C295 C294 1.391 . S
C295 C296 1.391 . S
C296 H273 0.947 . S
C296 C295 1.391 . S
C296 C297 1.392 . S
C297 H274 0.948 . S
C297 C296 1.392 . S
C297 C298 1.419 . S
C298 C297 1.419 . S
C298 C299 1.391 . S
C298 C302 1.397 . S
C299 C294 1.391 . S
C299 C298 1.391 . S
C299 C300 1.399 . S
C300 C299 1.399 . S
C300 C301 1.396 . S
C300 C303 1.453 . S
C300 C304 1.684 . S
C301 C291 1.723 . S
C301 C300 1.396 . S
C301 C302 1.394 . S
C302 C272 1.723 . S
C302 C298 1.397 . S
C302 C301 1.394 . S
C303 H275 0.982 . S
C303 H279 0.979 . S
C303 H280 0.977 . S
C303 C300 1.453 . S
C304 H276 0.979 . S
C304 H277 0.980 . S
C304 H278 0.983 . S
C304 C300 1.684 . S
H305 C323 0.948 . S
H306 C264 0.948 . S
H307 C282 0.979 . S
H308 C282 0.980 . S
H309 C282 0.983 . S
H310 C281 0.982 . S
H311 C281 0.979 . S
H312 C281 0.977 . S
H313 C283 0.948 . S
H314 C285 0.947 . S
H315 C286 0.948 . S
H316 C292 0.982 . S
H317 C292 0.979 . S
H318 C292 0.977 . S
H319 C293 0.979 . S
H320 C293 0.980 . S
H321 C293 0.983 . S
H322 C266 0.947 . S
C323 C266 1.392 . S
C323 C267 1.419 . S
C323 H305 0.948 . S
C324 C325 1.391 . S
C324 C328 1.391 . S
C324 H366 0.948 . S
C325 C324 1.391 . S
C325 C326 1.391 . S
C326 C325 1.391 . S
C326 H382 0.947 . S
C326 C383 1.392 . S
C327 C328 1.391 . S
C327 C331 1.397 . S
C327 C383 1.419 . S
C328 C324 1.391 . S
C328 C327 1.391 . S
C328 C329 1.399 . S
C329 C328 1.399 . S
C329 C332 1.396 . S
C329 C341 1.453 . S
C329 C342 1.684 . S
H330 C354 0.948 . S
C331 C327 1.397 . S
C331 C332 1.394 . S
C331 C350 1.723 . S
C332 C329 1.396 . S
C332 C331 1.394 . S
C332 C362 1.723 . S
H333 C356 0.947 . S
H334 C357 0.948 . S
H335 C363 0.982 . S
H336 C364 0.979 . S
H337 C364 0.980 . S
H338 C364 0.983 . S
H339 C363 0.979 . S
H340 C363 0.977 . S
C341 C329 1.453 . S
C341 H370 0.982 . S
C341 H371 0.979 . S
C341 H372 0.977 . S
C342 C329 1.684 . S
C342 H367 0.979 . S
C342 H368 0.980 . S
C342 H369 0.983 . S
C343 C344 1.391 . S
C343 C348 1.391 . S
C343 H373 0.948 . S
C344 C343 1.391 . S
C344 C345 1.391 . S
C345 C344 1.391 . S
C345 C346 1.392 . S
C345 H374 0.947 . S
C346 C345 1.392 . S
C346 C347 1.419 . S
C346 H375 0.948 . S
C347 C346 1.419 . S
C347 C348 1.391 . S
C347 C351 1.397 . S
C348 C343 1.391 . S
C348 C347 1.391 . S
C348 C349 1.399 . S
C349 C348 1.399 . S
C349 C350 1.396 . S
C349 C352 1.453 . S
C349 C353 1.684 . S
C350 C331 1.723 . S
C350 C349 1.396 . S
C350 C351 1.394 . S
C351 C347 1.397 . S
C351 C350 1.394 . S
C351 C361 1.723 . S
C352 C349 1.453 . S
C352 H376 0.982 . S
C352 H377 0.979 . S
C352 H378 0.977 . S
C353 C349 1.684 . S
C353 H379 0.979 . S
C353 H380 0.980 . S
C353 H381 0.983 . S
C354 H330 0.948 . S
C354 C355 1.391 . S
C354 C359 1.391 . S
C355 C354 1.391 . S
C355 C356 1.391 . S
C356 H333 0.947 . S
C356 C355 1.391 . S
C356 C357 1.392 . S
C357 H334 0.948 . S
C357 C356 1.392 . S
C357 C358 1.419 . S
C358 C357 1.419 . S
C358 C359 1.391 . S
C358 C362 1.397 . S
C359 C354 1.391 . S
C359 C358 1.391 . S
C359 C360 1.399 . S
C360 C359 1.399 . S
C360 C361 1.396 . S
C360 C363 1.453 . S
C360 C364 1.684 . S
C361 C351 1.723 . S
C361 C360 1.396 . S
C361 C362 1.394 . S
C362 C332 1.723 . S
C362 C358 1.397 . S
C362 C361 1.394 . S
C363 H335 0.982 . S
C363 H339 0.979 . S
C363 H340 0.977 . S
C363 C360 1.453 . S
C364 H336 0.979 . S
C364 H337 0.980 . S
C364 H338 0.983 . S
C364 C360 1.684 . S
H365 C383 0.948 . S
H366 C324 0.948 . S
H367 C342 0.979 . S
H368 C342 0.980 . S
H369 C342 0.983 . S
H370 C341 0.982 . S
H371 C341 0.979 . S
H372 C341 0.977 . S
H373 C343 0.948 . S
H374 C345 0.947 . S
H375 C346 0.948 . S
H376 C352 0.982 . S
H377 C352 0.979 . S
H378 C352 0.977 . S
H379 C353 0.979 . S
H380 C353 0.980 . S
H381 C353 0.983 . S
H382 C326 0.947 . S
C383 C326 1.392 . S
C383 C327 1.419 . S
C383 H365 0.948 . S
C384 C385 1.391 . S
C384 C388 1.391 . S
C384 H426 0.948 . S
C385 C384 1.391 . S
C385 C386 1.391 . S
C386 C385 1.391 . S
C386 H442 0.947 . S
C386 C443 1.392 . S
C387 C388 1.391 . S
C387 C391 1.397 . S
C387 C443 1.419 . S
C388 C384 1.391 . S
C388 C387 1.391 . S
C388 C389 1.399 . S
C389 C388 1.399 . S
C389 C392 1.396 . S
C389 C401 1.453 . S
C389 C402 1.684 . S
H390 C414 0.948 . S
C391 C387 1.397 . S
C391 C392 1.394 . S
C391 C410 1.723 . S
C392 C389 1.396 . S
C392 C391 1.394 . S
C392 C422 1.723 . S
H393 C416 0.947 . S
H394 C417 0.948 . S
H395 C423 0.982 . S
H396 C424 0.979 . S
H397 C424 0.980 . S
H398 C424 0.983 . S
H399 C423 0.979 . S
H400 C423 0.977 . S
C401 C389 1.453 . S
C401 H430 0.982 . S
C401 H431 0.979 . S
C401 H432 0.977 . S
C402 C389 1.684 . S
C402 H427 0.979 . S
C402 H428 0.980 . S
C402 H429 0.983 . S
C403 C404 1.391 . S
C403 C408 1.391 . S
C403 H433 0.948 . S
C404 C403 1.391 . S
C404 C405 1.391 . S
C405 C404 1.391 . S
C405 C406 1.392 . S
C405 H434 0.947 . S
C406 C405 1.392 . S
C406 C407 1.419 . S
C406 H435 0.948 . S
C407 C406 1.419 . S
C407 C408 1.391 . S
C407 C411 1.397 . S
C408 C403 1.391 . S
C408 C407 1.391 . S
C408 C409 1.399 . S
C409 C408 1.399 . S
C409 C410 1.396 . S
C409 C412 1.453 . S
C409 C413 1.684 . S
C410 C391 1.723 . S
C410 C409 1.396 . S
C410 C411 1.394 . S
C411 C407 1.397 . S
C411 C410 1.394 . S
C411 C421 1.723 . S
C412 C409 1.453 . S
C412 H436 0.982 . S
C412 H437 0.979 . S
C412 H438 0.977 . S
C413 C409 1.684 . S
C413 H439 0.979 . S
C413 H440 0.980 . S
C413 H441 0.983 . S
C414 H390 0.948 . S
C414 C415 1.391 . S
C414 C419 1.391 . S
C415 C414 1.391 . S
C415 C416 1.391 . S
C416 H393 0.947 . S
C416 C415 1.391 . S
C416 C417 1.392 . S
C417 H394 0.948 . S
C417 C416 1.392 . S
C417 C418 1.419 . S
C418 C417 1.419 . S
C418 C419 1.391 . S
C418 C422 1.397 . S
C419 C414 1.391 . S
C419 C418 1.391 . S
C419 C420 1.399 . S
C420 C419 1.399 . S
C420 C421 1.396 . S
C420 C423 1.453 . S
C420 C424 1.684 . S
C421 C411 1.723 . S
C421 C420 1.396 . S
C421 C422 1.394 . S
C422 C392 1.723 . S
C422 C418 1.397 . S
C422 C421 1.394 . S
C423 H395 0.982 . S
C423 H399 0.979 . S
C423 H400 0.977 . S
C423 C420 1.453 . S
C424 H396 0.979 . S
C424 H397 0.980 . S
C424 H398 0.983 . S
C424 C420 1.684 . S
H425 C443 0.948 . S
H426 C384 0.948 . S
H427 C402 0.979 . S
H428 C402 0.980 . S
H429 C402 0.983 . S
H430 C401 0.982 . S
H431 C401 0.979 . S
H432 C401 0.977 . S
H433 C403 0.948 . S
H434 C405 0.947 . S
H435 C406 0.948 . S
H436 C412 0.982 . S
H437 C412 0.979 . S
H438 C412 0.977 . S
H439 C413 0.979 . S
H440 C413 0.980 . S
H441 C413 0.983 . S
H442 C386 0.947 . S
C443 C386 1.392 . S
C443 C387 1.419 . S
C443 H425 0.948 . S
C444 C445 1.391 . S
C444 C448 1.391 . S
C444 H486 0.948 . S
C445 C444 1.391 . S
C445 C446 1.391 . S
C446 C445 1.391 . S
C446 H502 0.947 . S
C446 C503 1.392 . S
C447 C448 1.391 . S
C447 C451 1.397 . S
C447 C503 1.419 . S
C448 C444 1.391 . S
C448 C447 1.391 . S
C448 C449 1.399 . S
C449 C448 1.399 . S
C449 C452 1.396 . S
C449 C461 1.453 . S
C449 C462 1.684 . S
H450 C474 0.948 . S
C451 C447 1.397 . S
C451 C452 1.394 . S
C451 C470 1.723 . S
C452 C449 1.396 . S
C452 C451 1.394 . S
C452 C482 1.723 . S
H453 C476 0.947 . S
H454 C477 0.948 . S
H455 C483 0.982 . S
H456 C484 0.979 . S
H457 C484 0.980 . S
H458 C484 0.983 . S
H459 C483 0.979 . S
H460 C483 0.977 . S
C461 C449 1.453 . S
C461 H490 0.982 . S
C461 H491 0.979 . S
C461 H492 0.977 . S
C462 C449 1.684 . S
C462 H487 0.979 . S
C462 H488 0.980 . S
C462 H489 0.983 . S
C463 C464 1.391 . S
C463 C468 1.391 . S
C463 H493 0.948 . S
C464 C463 1.391 . S
C464 C465 1.391 . S
C465 C464 1.391 . S
C465 C466 1.392 . S
C465 H494 0.947 . S
C466 C465 1.392 . S
C466 C467 1.419 . S
C466 H495 0.948 . S
C467 C466 1.419 . S
C467 C468 1.391 . S
C467 C471 1.397 . S
C468 C463 1.391 . S
C468 C467 1.391 . S
C468 C469 1.399 . S
C469 C468 1.399 . S
C469 C470 1.396 . S
C469 C472 1.453 . S
C469 C473 1.684 . S
C470 C451 1.723 . S
C470 C469 1.396 . S
C470 C471 1.394 . S
C471 C467 1.397 . S
C471 C470 1.394 . S
C471 C481 1.723 . S
C472 C469 1.453 . S
C472 H496 0.982 . S
C472 H497 0.979 . S
C472 H498 0.977 . S
C473 C469 1.684 . S
C473 H499 0.979 . S
C473 H500 0.980 . S
C473 H501 0.983 . S
C474 H450 0.948 . S
C474 C475 1.391 . S
C474 C479 1.391 . S
C475 C474 1.391 . S
C475 C476 1.391 . S
C476 H453 0.947 . S
C476 C475 1.391 . S
C476 C477 1.392 . S
C477 H454 0.948 . S
C477 C476 1.392 . S
C477 C478 1.419 . S
C478 C477 1.419 . S
C478 C479 1.391 . S
C478 C482 1.397 . S
C479 C474 1.391 . S
C479 C478 1.391 . S
C479 C480 1.399 . S
C480 C479 1.399 . S
C480 C481 1.396 . S
C480 C483 1.453 . S
C480 C484 1.684 . S
C481 C471 1.723 . S
C481 C480 1.396 . S
C481 C482 1.394 . S
C482 C452 1.723 . S
C482 C478 1.397 . S
C482 C481 1.394 . S
C483 H455 0.982 . S
C483 H459 0.979 . S
C483 H460 0.977 . S
C483 C480 1.453 . S
C484 H456 0.979 . S
C484 H457 0.980 . S
C484 H458 0.983 . S
C484 C480 1.684 . S
H485 C503 0.948 . S
H486 C444 0.948 . S
H487 C462 0.979 . S
H488 C462 0.980 . S
H489 C462 0.983 . S
H490 C461 0.982 . S
H491 C461 0.979 . S
H492 C461 0.977 . S
H493 C463 0.948 . S
H494 C465 0.947 . S
H495 C466 0.948 . S
H496 C472 0.982 . S
H497 C472 0.979 . S
H498 C472 0.977 . S
H499 C473 0.979 . S
H500 C473 0.980 . S
H501 C473 0.983 . S
H502 C446 0.947 . S
C503 C446 1.392 . S
C503 C447 1.419 . S
C503 H485 0.948 . S
C504 C505 1.391 . S
C504 C508 1.391 . S
C504 H546 0.948 . S
C505 C504 1.391 . S
C505 C506 1.391 . S
C506 C505 1.391 . S
C506 H562 0.947 . S
C506 C563 1.392 . S
C507 C508 1.391 . S
C507 C511 1.397 . S
C507 C563 1.419 . S
C508 C504 1.391 . S
C508 C507 1.391 . S
C508 C509 1.399 . S
C509 C508 1.399 . S
C509 C512 1.396 . S
C509 C521 1.453 . S
C509 C522 1.684 . S
H510 C534 0.948 . S
C511 C507 1.397 . S
C511 C512 1.394 . S
C511 C530 1.723 . S
C512 C509 1.396 . S
C512 C511 1.394 . S
C512 C542 1.723 . S
H513 C536 0.947 . S
H514 C537 0.948 . S
H515 C543 0.982 . S
H516 C544 0.979 . S
H517 C544 0.980 . S
H518 C544 0.983 . S
H519 C543 0.979 . S
H520 C543 0.977 . S
C521 C509 1.453 . S
C521 H550 0.982 . S
C521 H551 0.979 . S
C521 H552 0.977 . S
C522 C509 1.684 . S
C522 H547 0.979 . S
C522 H548 0.980 . S
C522 H549 0.983 . S
C523 C524 1.391 . S
C523 C528 1.391 . S
C523 H553 0.948 . S
C524 C523 1.391 . S
C524 C525 1.391 . S
C525 C524 1.391 . S
C525 C526 1.392 . S
C525 H554 0.947 . S
C526 C525 1.392 . S
C526 C527 1.419 . S
C526 H555 0.948 . S
C527 C526 1.419 . S
C527 C528 1.391 . S
C527 C531 1.397 . S
C528 C523 1.391 . S
C528 C527 1.391 . S
C528 C529 1.399 . S
C529 C528 1.399 . S
C529 C530 1.396 . S
C529 C532 1.453 . S
C529 C533 1.684 . S
C530 C511 1.723 . S
C530 C529 1.396 . S
C530 C531 1.394 . S
C531 C527 1.397 . S
C531 C530 1.394 . S
C531 C541 1.723 . S
C532 C529 1.453 . S
C532 H556 0.982 . S
C532 H557 0.979 . S
C532 H558 0.977 . S
C533 C529 1.684 . S
C533 H559 0.979 . S
C533 H560 0.980 . S
C533 H561 0.983 . S
C534 H510 0.948 . S
C534 C535 1.391 . S
C534 C539 1.391 . S
C535 C534 1.391 . S
C535 C536 1.391 . S
C536 H513 0.947 . S
C536 C535 1.391 . S
C536 C537 1.392 . S
C537 H514 0.948 . S
C537 C536 1.392 . S
C537 C538 1.419 . S
C538 C537 1.419 . S
C538 C539 1.391 . S
C538 C542 1.397 . S
C539 C534 1.391 . S
C539 C538 1.391 . S
C539 C540 1.399 . S
C540 C539 1.399 . S
C540 C541 1.396 . S
C540 C543 1.453 . S
C540 C544 1.684 . S
C541 C531 1.723 . S
C541 C540 1.396 . S
C541 C542 1.394 . S
C542 C512 1.723 . S
C542 C538 1.397 . S
C542 C541 1.394 . S
C543 H515 0.982 . S
C543 H519 0.979 . S
C543 H520 0.977 . S
C543 C540 1.453 . S
C544 H516 0.979 . S
C544 H517 0.980 . S
C544 H518 0.983 . S
C544 C540 1.684 . S
H545 C563 0.948 . S
H546 C504 0.948 . S
H547 C522 0.979 . S
H548 C522 0.980 . S
H549 C522 0.983 . S
H550 C521 0.982 . S
H551 C521 0.979 . S
H552 C521 0.977 . S
H553 C523 0.948 . S
H554 C525 0.947 . S
H555 C526 0.948 . S
H556 C532 0.982 . S
H557 C532 0.979 . S
H558 C532 0.977 . S
H559 C533 0.979 . S
H560 C533 0.980 . S
H561 C533 0.983 . S
H562 C506 0.947 . S
C563 C506 1.392 . S
C563 C507 1.419 . S
C563 H545 0.948 . S
H564 C570 0.930 . S
H565 C574 0.930 . S
H566 C579 0.929 . S
H567 C577 0.929 . S
H568 C572 0.929 . S
H569 C578 0.929 . S
C570 H564 0.930 . S
C570 C571 1.367 . S
C570 C578 1.378 . S
C571 C570 1.367 . S
C571 C579 1.433 . S
C572 H568 0.929 . S
C572 C574 1.378 . S
C572 C576 1.350 . S
C573 C576 1.463 . S
C573 C578 1.350 . S
C573 N581 1.427 . S
C574 H565 0.930 . S
C574 C572 1.378 . S
C574 C575 1.367 1_565 S
C575 C574 1.367 1_545 S
C575 C577 1.433 . S
C576 C572 1.350 . S
C576 C573 1.463 . S
C576 N580 1.427 . S
C577 H567 0.929 . S
C577 C575 1.433 . S
C577 N580 1.384 1_545 S
C578 H569 0.929 . S
C578 C570 1.378 . S
C578 C573 1.350 . S
C579 H566 0.929 . S
C579 C571 1.433 . S
C579 N581 1.384 . S
N580 C576 1.427 . S
N580 C577 1.384 1_565 S
N581 C573 1.427 . S
N581 C579 1.384 . S
H582 C588 0.930 . S
H583 C592 0.930 . S
H584 C597 0.929 . S
H585 C595 0.929 . S
H586 C590 0.929 . S
H587 C596 0.929 . S
C588 H582 0.930 . S
C588 C589 1.367 . S
C588 C596 1.378 . S
C589 C588 1.367 . S
C589 C597 1.433 . S
C590 H586 0.929 . S
C590 C592 1.378 . S
C590 C594 1.350 . S
C591 C594 1.463 . S
C591 C596 1.350 . S
C591 N599 1.427 . S
C592 H583 0.930 . S
C592 C590 1.378 . S
C592 C593 1.367 . S
C593 C592 1.367 . S
C593 C595 1.433 . S
C594 C590 1.350 . S
C594 C591 1.463 . S
C594 N598 1.427 . S
C595 H585 0.929 . S
C595 C593 1.433 . S
C595 N598 1.384 . S
C596 H587 0.929 . S
C596 C588 1.378 . S
C596 C591 1.350 . S
C597 H584 0.929 . S
C597 C589 1.433 . S
C597 N599 1.384 . S
N598 C594 1.427 . S
N598 C595 1.384 . S
N599 C591 1.427 . S
N599 C597 1.384 . S
H600 C606 0.930 . S
H601 C610 0.930 . S
H602 C615 0.929 . S
H603 C613 0.929 . S
H604 C608 0.929 . S
H605 C614 0.929 . S
C606 H600 0.930 . S
C606 C607 1.367 . S
C606 C614 1.378 . S
C607 C606 1.367 . S
C607 C615 1.433 . S
C608 H604 0.929 . S
C608 C610 1.378 . S
C608 C612 1.350 . S
C609 C612 1.463 . S
C609 C614 1.350 . S
C609 N617 1.427 . S
C610 H601 0.930 . S
C610 C608 1.378 . S
C610 C611 1.367 1_545 S
C611 C610 1.367 1_565 S
C611 C613 1.433 . S
C612 C608 1.350 . S
C612 C609 1.463 . S
C612 N616 1.427 . S
C613 H603 0.929 . S
C613 C611 1.433 . S
C613 N616 1.384 1_565 S
C614 H605 0.929 . S
C614 C606 1.378 . S
C614 C609 1.350 . S
C615 H602 0.929 . S
C615 C607 1.433 . S
C615 N617 1.384 . S
N616 C612 1.427 . S
N616 C613 1.384 1_545 S
N617 C609 1.427 . S
N617 C615 1.384 . S
H618 C624 0.930 . S
H619 C628 0.930 . S
H620 C633 0.929 . S
H621 C631 0.929 . S
H622 C626 0.929 . S
H623 C632 0.929 . S
C624 H618 0.930 . S
C624 C625 1.367 . S
C624 C632 1.378 . S
C625 C624 1.367 . S
C625 C633 1.433 . S
C626 H622 0.929 . S
C626 C628 1.378 . S
C626 C630 1.350 . S
C627 C630 1.463 . S
C627 C632 1.350 . S
C627 N635 1.427 . S
C628 H619 0.930 . S
C628 C626 1.378 . S
C628 C629 1.367 . S
C629 C628 1.367 . S
C629 C631 1.433 . S
C630 C626 1.350 . S
C630 C627 1.463 . S
C630 N634 1.427 . S
C631 H621 0.929 . S
C631 C629 1.433 . S
C631 N634 1.384 . S
C632 H623 0.929 . S
C632 C624 1.378 . S
C632 C627 1.350 . S
C633 H620 0.929 . S
C633 C625 1.433 . S
C633 N635 1.384 . S
N634 C630 1.427 . S
N634 C631 1.384 . S
N635 C627 1.427 . S
N635 C633 1.384 . S
H636 C642 0.930 . S
H637 C646 0.930 . S
H638 C651 0.929 . S
H639 C649 0.929 . S
H640 C644 0.929 . S
H641 C650 0.929 . S
C642 H636 0.930 . S
C642 C643 1.367 . S
C642 C650 1.378 . S
C643 C642 1.367 . S
C643 C651 1.433 . S
C644 H640 0.929 . S
C644 C646 1.378 . S
C644 C648 1.350 . S
C645 C648 1.463 . S
C645 C650 1.350 . S
C645 N653 1.427 . S
C646 H637 0.930 . S
C646 C644 1.378 . S
C646 C647 1.367 . S
C647 C646 1.367 . S
C647 C649 1.433 . S
C648 C644 1.350 . S
C648 C645 1.463 . S
C648 N652 1.427 . S
C649 H639 0.929 . S
C649 C647 1.433 . S
C649 N652 1.384 . S
C650 H641 0.929 . S
C650 C642 1.378 . S
C650 C645 1.350 . S
C651 H638 0.929 . S
C651 C643 1.433 . S
C651 N653 1.384 . S
N652 C648 1.427 . S
N652 C649 1.384 . S
N653 C645 1.427 . S
N653 C651 1.384 . S
H654 C660 0.930 . S
H655 C664 0.915 1_455 S
H656 C669 0.929 . S
H657 C667 0.929 1_455 S
H658 C662 0.929 . S
H659 C668 0.929 . S
C660 H654 0.930 . S
C660 C661 1.367 . S
C660 C668 1.378 . S
C661 C660 1.367 . S
C661 C669 1.433 . S
C662 H658 0.929 . S
C662 C664 1.409 . S
C662 C666 1.350 . S
C663 C666 1.463 . S
C663 C668 1.350 . S
C663 N671 1.427 . S
C664 H655 0.915 1_655 S
C664 C662 1.409 . S
C664 C665 1.352 1_655 S
C665 C664 1.352 1_455 S
C665 C667 1.433 1_455 S
C666 C662 1.350 . S
C666 C663 1.463 . S
C666 N670 1.427 . S
C667 H657 0.929 1_655 S
C667 C665 1.433 1_655 S
C667 N670 1.384 . S
C668 H659 0.929 . S
C668 C660 1.378 . S
C668 C663 1.350 . S
C669 H656 0.929 . S
C669 C661 1.433 . S
C669 N671 1.384 . S
N670 C666 1.427 . S
N670 C667 1.384 . S
N671 C663 1.427 . S
N671 C669 1.384 . S
H672 C678 0.930 . S
H673 C682 0.930 . S
H674 C687 0.929 . S
H675 C685 0.929 . S
H676 C680 0.929 . S
H677 C686 0.929 . S
C678 H672 0.930 . S
C678 C679 1.367 . S
C678 C686 1.378 . S
C679 C678 1.367 . S
C679 C687 1.433 . S
C680 H676 0.929 . S
C680 C682 1.378 . S
C680 C684 1.350 . S
C681 C684 1.463 . S
C681 C686 1.350 . S
C681 N689 1.427 . S
C682 H673 0.930 . S
C682 C680 1.378 . S
C682 C683 1.367 . S
C683 C682 1.367 . S
C683 C685 1.433 . S
C684 C680 1.350 . S
C684 C681 1.463 . S
C684 N688 1.427 . S
C685 H675 0.929 . S
C685 C683 1.433 . S
C685 N688 1.384 . S
C686 H677 0.929 . S
C686 C678 1.378 . S
C686 C681 1.350 . S
C687 H674 0.929 . S
C687 C679 1.433 . S
C687 N689 1.384 . S
N688 C684 1.427 . S
N688 C685 1.384 . S
N689 C681 1.427 . S
N689 C687 1.384 . S
H690 C696 0.930 . S
H691 C700 0.930 . S
H692 C705 0.929 . S
H693 C703 0.929 . S
H694 C698 0.929 . S
H695 C704 0.929 . S
C696 H690 0.930 . S
C696 C697 1.367 . S
C696 C704 1.378 . S
C697 C696 1.367 . S
C697 C705 1.433 . S
C698 H694 0.929 . S
C698 C700 1.378 1_455 S
C698 C702 1.350 . S
C699 C702 1.463 . S
C699 C704 1.350 . S
C699 N707 1.427 . S
C700 H691 0.930 . S
C700 C698 1.378 1_655 S
C700 C701 1.367 . S
C701 C700 1.367 . S
C701 C703 1.433 1_655 S
C702 C698 1.350 . S
C702 C699 1.463 . S
C702 N706 1.427 . S
C703 H693 0.929 . S
C703 C701 1.433 1_455 S
C703 N706 1.384 . S
C704 H695 0.929 . S
C704 C696 1.378 . S
C704 C699 1.350 . S
C705 H692 0.929 . S
C705 C697 1.433 . S
C705 N707 1.384 . S
N706 C702 1.427 . S
N706 C703 1.384 . S
N707 C699 1.427 . S
N707 C705 1.384 . S
H708 C714 0.930 . S
H709 C718 0.930 . S
H710 C723 0.929 . S
H711 C721 0.929 . S
H712 C716 0.929 1_545 S
H713 C722 0.929 . S
C714 H708 0.930 . S
C714 C715 1.367 . S
C714 C722 1.378 . S
C715 C714 1.367 . S
C715 C723 1.433 . S
C716 H712 0.929 1_565 S
C716 C718 1.378 . S
C716 C720 1.350 . S
C717 C720 1.463 1_545 S
C717 C722 1.350 . S
C717 N725 1.427 . S
C718 H709 0.930 . S
C718 C716 1.378 . S
C718 C719 1.367 . S
C719 C718 1.367 . S
C719 C721 1.433 . S
C720 C716 1.350 . S
C720 C717 1.463 1_565 S
C720 N724 1.427 . S
C721 H711 0.929 . S
C721 C719 1.433 . S
C721 N724 1.384 . S
C722 H713 0.929 . S
C722 C714 1.378 . S
C722 C717 1.350 . S
C723 H710 0.929 . S
C723 C715 1.433 . S
C723 N725 1.384 . S
N724 C720 1.427 . S
N724 C721 1.384 . S
N725 C717 1.427 . S
N725 C723 1.384 . S
H726 C732 0.930 . S
H727 C736 0.930 . S
H728 C741 0.929 . S
H729 C739 0.929 . S
H730 C734 0.929 . S
H731 C740 0.929 . S
C732 H726 0.930 . S
C732 C733 1.367 . S
C732 C740 1.378 . S
C733 C732 1.367 . S
C733 C741 1.433 . S
C734 H730 0.929 . S
C734 C736 1.378 . S
C734 C738 1.350 . S
C735 C738 1.463 . S
C735 C740 1.350 . S
C735 N743 1.427 . S
C736 H727 0.930 . S
C736 C734 1.378 . S
C736 C737 1.367 . S
C737 C736 1.367 . S
C737 C739 1.433 . S
C738 C734 1.350 . S
C738 C735 1.463 . S
C738 N742 1.427 . S
C739 H729 0.929 . S
C739 C737 1.433 . S
C739 N742 1.384 . S
C740 H731 0.929 . S
C740 C732 1.378 . S
C740 C735 1.350 . S
C741 H728 0.929 . S
C741 C733 1.433 . S
C741 N743 1.384 . S
N742 C738 1.427 . S
N742 C739 1.384 . S
N743 C735 1.427 . S
N743 C741 1.384 . S
H744 C750 0.930 . S
H745 C754 0.930 . S
H746 C759 0.929 . S
H747 C757 0.929 . S
H748 C752 0.916 1_565 S
H749 C758 0.929 . S
C750 H744 0.930 . S
C750 C751 1.367 . S
C750 C758 1.378 . S
C751 C750 1.367 . S
C751 C759 1.433 . S
C752 H748 0.916 1_545 S
C752 C754 1.378 . S
C752 C756 1.350 . S
C753 C756 1.463 1_565 S
C753 C758 1.350 . S
C753 N761 1.427 . S
C754 H745 0.930 . S
C754 C752 1.378 . S
C754 C755 1.367 . S
C755 C754 1.367 . S
C755 C757 1.433 . S
C756 C752 1.350 . S
C756 C753 1.463 1_545 S
C756 N760 1.427 . S
C757 H747 0.929 . S
C757 C755 1.433 . S
C757 N760 1.384 . S
C758 H749 0.929 . S
C758 C750 1.378 . S
C758 C753 1.350 . S
C759 H746 0.929 . S
C759 C751 1.433 . S
C759 N761 1.384 . S
N760 C756 1.427 . S
N760 C757 1.384 . S
N761 C753 1.427 . S
N761 C759 1.384 . S
H762 C768 0.930 . S
H763 C772 0.930 . S
H764 C777 0.929 . S
H765 C775 0.929 . S
H766 C770 0.929 . S
H767 C776 0.929 . S
C768 H762 0.930 . S
C768 C769 1.367 . S
C768 C776 1.378 . S
C769 C768 1.367 . S
C769 C777 1.433 . S
C770 H766 0.929 . S
C770 C772 1.378 . S
C770 C774 1.350 . S
C771 C774 1.463 . S
C771 C776 1.350 . S
C771 N779 1.427 . S
C772 H763 0.930 . S
C772 C770 1.378 . S
C772 C773 1.367 . S
C773 C772 1.367 . S
C773 C775 1.433 . S
C774 C770 1.350 . S
C774 C771 1.463 . S
C774 N778 1.427 . S
C775 H765 0.929 . S
C775 C773 1.433 . S
C775 N778 1.384 . S
C776 H767 0.929 . S
C776 C768 1.378 . S
C776 C771 1.350 . S
C777 H764 0.929 . S
C777 C769 1.433 . S
C777 N779 1.384 . S
N778 C774 1.427 . S
N778 C775 1.384 . S
N779 C771 1.427 . S
N779 C777 1.384 . S
H780 C786 0.930 . S
H781 C790 0.930 . S
H782 C795 0.929 . S
H783 C793 0.929 . S
H784 C788 0.929 . S
H785 C794 0.929 . S
C786 H780 0.930 . S
C786 C787 1.367 . S
C786 C794 1.378 . S
C787 C786 1.367 . S
C787 C795 1.433 . S
C788 H784 0.929 . S
C788 C790 1.378 . S
C788 C792 1.350 . S
C789 C792 1.463 . S
C789 C794 1.350 . S
C789 N797 1.427 . S
C790 H781 0.930 . S
C790 C788 1.378 . S
C790 C791 1.367 . S
C791 C790 1.367 . S
C791 C793 1.433 . S
C792 C788 1.350 . S
C792 C789 1.463 . S
C792 N796 1.427 . S
C793 H783 0.929 . S
C793 C791 1.433 . S
C793 N796 1.384 . S
C794 H785 0.929 . S
C794 C786 1.378 . S
C794 C789 1.350 . S
C795 H782 0.929 . S
C795 C787 1.433 . S
C795 N797 1.384 . S
N796 C792 1.427 . S
N796 C793 1.384 . S
N797 C789 1.427 . S
N797 C795 1.384 . S
H798 C804 0.930 . S
H799 C808 0.930 . S
H800 C813 0.929 . S
H801 C811 0.929 . S
H802 C806 0.942 . S
H803 C812 0.929 . S
C804 H798 0.930 . S
C804 C805 1.367 . S
C804 C812 1.378 . S
C805 C804 1.367 . S
C805 C813 1.433 . S
C806 H802 0.942 . S
C806 C808 1.378 . S
C806 C810 1.350 . S
C807 C810 1.463 1_455 S
C807 C812 1.350 . S
C807 N815 1.427 . S
C808 H799 0.930 . S
C808 C806 1.378 . S
C808 C809 1.367 . S
C809 C808 1.367 . S
C809 C811 1.433 . S
C810 C806 1.350 . S
C810 C807 1.463 1_655 S
C810 N814 1.427 . S
C811 H801 0.929 . S
C811 C809 1.433 . S
C811 N814 1.384 . S
C812 H803 0.929 . S
C812 C804 1.378 . S
C812 C807 1.350 . S
C813 H800 0.929 . S
C813 C805 1.433 . S
C813 N815 1.384 . S
N814 C810 1.427 . S
N814 C811 1.384 . S
N815 C807 1.427 . S
N815 C813 1.384 . S
H816 C822 0.930 . S
H817 C826 0.930 . S
H818 C831 0.929 . S
H819 C829 0.929 . S
H820 C824 0.929 . S
H821 C830 0.929 . S
C822 H816 0.930 . S
C822 C823 1.367 . S
C822 C830 1.378 . S
C823 C822 1.367 . S
C823 C831 1.433 . S
C824 H820 0.929 . S
C824 C826 1.378 . S
C824 C828 1.350 . S
C825 C828 1.463 . S
C825 C830 1.350 . S
C825 N833 1.427 . S
C826 H817 0.930 . S
C826 C824 1.378 . S
C826 C827 1.367 . S
C827 C826 1.367 . S
C827 C829 1.433 . S
C828 C824 1.350 . S
C828 C825 1.463 . S
C828 N832 1.427 . S
C829 H819 0.929 . S
C829 C827 1.433 . S
C829 N832 1.384 . S
C830 H821 0.929 . S
C830 C822 1.378 . S
C830 C825 1.350 . S
C831 H818 0.929 . S
C831 C823 1.433 . S
C831 N833 1.384 . S
N832 C828 1.427 . S
N832 C829 1.384 . S
N833 C825 1.427 . S
N833 C831 1.384 . S
H834 C840 0.930 . S
H835 C844 0.930 . S
H836 C849 0.929 . S
H837 C847 0.929 . S
H838 C842 0.929 1_655 S
H839 C848 0.929 . S
C840 H834 0.930 . S
C840 C841 1.367 . S
C840 C848 1.378 . S
C841 C840 1.367 . S
C841 C849 1.433 . S
C842 H838 0.929 1_455 S
C842 C844 1.378 . S
C842 C846 1.350 . S
C843 C846 1.463 1_655 S
C843 C848 1.350 . S
C843 N851 1.427 . S
C844 H835 0.930 . S
C844 C842 1.378 . S
C844 C845 1.367 . S
C845 C844 1.367 . S
C845 C847 1.433 . S
C846 C842 1.350 . S
C846 C843 1.463 1_455 S
C846 N850 1.427 . S
C847 H837 0.929 . S
C847 C845 1.433 . S
C847 N850 1.384 . S
C848 H839 0.929 . S
C848 C840 1.378 . S
C848 C843 1.350 . S
C849 H836 0.929 . S
C849 C841 1.433 . S
C849 N851 1.384 . S
N850 C846 1.427 . S
N850 C847 1.384 . S
N851 C843 1.427 . S
N851 C849 1.384 . S
H852 C858 0.930 . S
H853 C862 0.930 . S
H854 C867 0.929 . S
H855 C865 0.929 . S
H856 C860 0.929 . S
H857 C866 0.929 . S
C858 H852 0.930 . S
C858 C859 1.367 . S
C858 C866 1.378 . S
C859 C858 1.367 . S
C859 C867 1.433 . S
C860 H856 0.929 . S
C860 C862 1.378 . S
C860 C864 1.350 . S
C861 C864 1.463 . S
C861 C866 1.350 . S
C861 N869 1.427 . S
C862 H853 0.930 . S
C862 C860 1.378 . S
C862 C863 1.367 . S
C863 C862 1.367 . S
C863 C865 1.433 . S
C864 C860 1.350 . S
C864 C861 1.463 . S
C864 N868 1.427 . S
C865 H855 0.929 . S
C865 C863 1.433 . S
C865 N868 1.384 . S
C866 H857 0.929 . S
C866 C858 1.378 . S
C866 C861 1.350 . S
C867 H854 0.929 . S
C867 C859 1.433 . S
C867 N869 1.384 . S
N868 C864 1.427 . S
N868 C865 1.384 . S
N869 C861 1.427 . S
N869 C867 1.384 . S
H870 C876 0.930 . S
H871 C880 0.930 . S
H872 C885 0.929 . S
H873 C883 0.929 . S
H874 C878 0.929 . S
H875 C884 0.929 . S
C876 H870 0.930 . S
C876 C877 1.367 . S
C876 C884 1.378 . S
C877 C876 1.367 . S
C877 C885 1.433 . S
C878 H874 0.929 . S
C878 C880 1.378 . S
C878 C882 1.350 . S
C879 C882 1.463 . S
C879 C884 1.350 . S
C879 N887 1.427 . S
C880 H871 0.930 . S
C880 C878 1.378 . S
C880 C881 1.367 . S
C881 C880 1.367 . S
C881 C883 1.433 . S
C882 C878 1.350 . S
C882 C879 1.463 . S
C882 N886 1.427 . S
C883 H873 0.929 . S
C883 C881 1.433 . S
C883 N886 1.384 . S
C884 H875 0.929 . S
C884 C876 1.378 . S
C884 C879 1.350 . S
C885 H872 0.929 . S
C885 C877 1.433 . S
C885 N887 1.384 . S
N886 C882 1.427 . S
N886 C883 1.384 . S
N887 C879 1.427 . S
N887 C885 1.384 . S
H888 C894 0.930 . S
H889 C898 0.930 . S
H890 C903 0.929 . S
H891 C901 0.929 . S
H892 C896 0.929 . S
H893 C902 0.929 . S
C894 H888 0.930 . S
C894 C895 1.367 . S
C894 C902 1.378 . S
C895 C894 1.367 . S
C895 C903 1.433 . S
C896 H892 0.929 . S
C896 C898 1.378 . S
C896 C900 1.350 . S
C897 C900 1.463 . S
C897 C902 1.350 . S
C897 N905 1.427 . S
C898 H889 0.930 . S
C898 C896 1.378 . S
C898 C899 1.367 . S
C899 C898 1.367 . S
C899 C901 1.433 . S
C900 C896 1.350 . S
C900 C897 1.463 . S
C900 N904 1.427 . S
C901 H891 0.929 . S
C901 C899 1.433 . S
C901 N904 1.384 . S
C902 H893 0.929 . S
C902 C894 1.378 . S
C902 C897 1.350 . S
C903 H890 0.929 . S
C903 C895 1.433 . S
C903 N905 1.384 . S
N904 C900 1.427 . S
N904 C901 1.384 . S
N905 C897 1.427 . S
N905 C903 1.384 . S
H906 C912 0.930 . S
H907 C916 0.930 . S
H908 C921 0.929 . S
H909 C919 0.929 . S
H910 C914 0.929 . S
H911 C920 0.929 . S
C912 H906 0.930 . S
C912 C913 1.367 . S
C912 C920 1.378 . S
C913 C912 1.367 . S
C913 C921 1.433 . S
C914 H910 0.929 . S
C914 C916 1.378 . S
C914 C918 1.350 . S
C915 C918 1.463 . S
C915 C920 1.350 . S
C915 N923 1.427 . S
C916 H907 0.930 . S
C916 C914 1.378 . S
C916 C917 1.367 . S
C917 C916 1.367 . S
C917 C919 1.433 . S
C918 C914 1.350 . S
C918 C915 1.463 . S
C918 N922 1.427 . S
C919 H909 0.929 . S
C919 C917 1.433 . S
C919 N922 1.384 . S
C920 H911 0.929 . S
C920 C912 1.378 . S
C920 C915 1.350 . S
C921 H908 0.929 . S
C921 C913 1.433 . S
C921 N923 1.384 . S
N922 C918 1.427 . S
N922 C919 1.384 . S
N923 C915 1.427 . S
N923 C921 1.384 . S
H924 C930 0.930 . S
H925 C934 0.930 . S
H926 C939 0.929 . S
H927 C937 0.929 . S
H928 C932 0.929 . S
H929 C938 0.929 . S
C930 H924 0.930 . S
C930 C931 1.367 . S
C930 C938 1.378 . S
C931 C930 1.367 . S
C931 C939 1.433 . S
C932 H928 0.929 . S
C932 C934 1.378 . S
C932 C936 1.350 . S
C933 C936 1.463 . S
C933 C938 1.350 . S
C933 N941 1.427 . S
C934 H925 0.930 . S
C934 C932 1.378 . S
C934 C935 1.367 . S
C935 C934 1.367 . S
C935 C937 1.433 . S
C936 C932 1.350 . S
C936 C933 1.463 . S
C936 N940 1.427 . S
C937 H927 0.929 . S
C937 C935 1.433 . S
C937 N940 1.384 . S
C938 H929 0.929 . S
C938 C930 1.378 . S
C938 C933 1.350 . S
C939 H926 0.929 . S
C939 C931 1.433 . S
C939 N941 1.384 . S
N940 C936 1.427 . S
N940 C937 1.384 . S
N941 C933 1.427 . S
N941 C939 1.384 . S
H942 C948 0.930 . S
H943 C952 0.930 . S
H944 C957 0.929 . S
H945 C955 0.929 . S
H946 C950 0.929 . S
H947 C956 0.929 . S
C948 H942 0.930 . S
C948 C949 1.367 . S
C948 C956 1.378 . S
C949 C948 1.367 . S
C949 C957 1.433 . S
C950 H946 0.929 . S
C950 C952 1.378 . S
C950 C954 1.350 . S
C951 C954 1.463 . S
C951 C956 1.350 . S
C951 N959 1.427 . S
C952 H943 0.930 . S
C952 C950 1.378 . S
C952 C953 1.367 . S
C953 C952 1.367 . S
C953 C955 1.433 . S
C954 C950 1.350 . S
C954 C951 1.463 . S
C954 N958 1.427 . S
C955 H945 0.929 . S
C955 C953 1.433 . S
C955 N958 1.384 . S
C956 H947 0.929 . S
C956 C948 1.378 . S
C956 C951 1.350 . S
C957 H944 0.929 . S
C957 C949 1.433 . S
C957 N959 1.384 . S
N958 C954 1.427 . S
N958 C955 1.384 . S
N959 C951 1.427 . S
N959 C957 1.384 . S
H960 C966 0.930 . S
H961 C970 0.930 . S
H962 C975 0.929 . S
H963 C973 0.929 . S
H964 C968 0.929 . S
H965 C974 0.929 . S
C966 H960 0.930 . S
C966 C967 1.367 . S
C966 C974 1.378 . S
C967 C966 1.367 . S
C967 C975 1.433 . S
C968 H964 0.929 . S
C968 C970 1.378 . S
C968 C972 1.350 . S
C969 C972 1.463 . S
C969 C974 1.350 . S
C969 N977 1.427 . S
C970 H961 0.930 . S
C970 C968 1.378 . S
C970 C971 1.367 . S
C971 C970 1.367 . S
C971 C973 1.433 . S
C972 C968 1.350 . S
C972 C969 1.463 . S
C972 N976 1.427 . S
C973 H963 0.929 . S
C973 C971 1.433 . S
C973 N976 1.384 . S
C974 H965 0.929 . S
C974 C966 1.378 . S
C974 C969 1.350 . S
C975 H962 0.929 . S
C975 C967 1.433 . S
C975 N977 1.384 . S
N976 C972 1.427 . S
N976 C973 1.384 . S
N977 C969 1.427 . S
N977 C975 1.384 . S
H978 C984 0.930 . S
H979 C988 0.930 . S
H980 C993 0.929 . S
H981 C991 0.929 . S
H982 C986 0.929 . S
H983 C992 0.929 . S
C984 H978 0.930 . S
C984 C985 1.367 . S
C984 C992 1.378 . S
C985 C984 1.367 . S
C985 C993 1.433 . S
C986 H982 0.929 . S
C986 C988 1.378 . S
C986 C990 1.350 . S
C987 C990 1.463 . S
C987 C992 1.350 . S
C987 N995 1.427 . S
C988 H979 0.930 . S
C988 C986 1.378 . S
C988 C989 1.367 . S
C989 C988 1.367 . S
C989 C991 1.433 . S
C990 C986 1.350 . S
C990 C987 1.463 . S
C990 N994 1.427 . S
C991 H981 0.929 . S
C991 C989 1.433 . S
C991 N994 1.384 . S
C992 H983 0.929 . S
C992 C984 1.378 . S
C992 C987 1.350 . S
C993 H980 0.929 . S
C993 C985 1.433 . S
C993 N995 1.384 . S
N994 C990 1.427 . S
N994 C991 1.384 . S
N995 C987 1.427 . S
N995 C993 1.384 . S
C571 C7 0.803 . S
C575 C85 0.800 . S
C589 C25 0.783 . S
C593 C164 0.813 . S
C607 C46 0.804 . S
C611 C235 0.815 . S
C629 C295 0.815 . S
C625 C70 0.810 . S
C647 C325 0.761 . S
C643 C28 0.797 . S
C661 C49 0.807 . S
C665 C415 0.804 . S
C679 C67 0.809 . S
C683 C475 0.815 . S
C697 C4 0.774 . S
C701 C524 0.805 . S
C715 C58 1.702 . S
C719 C505 1.684 . S
C737 C344 1.779 . S
C733 C66 1.704 . S
C755 C404 1.683 . S
C751 C3 1.702 . S
C769 C37 1.696 . S
C773 C464 1.679 . S
C791 C145 1.686 . S
C787 C79 1.691 . S
C805 C16 1.699 . S
C809 C224 1.693 . S
C827 C284 1.689 . S
C823 C24 1.694 . S
C845 C104 1.784 . S
C841 C45 1.701 . S
C863 C445 1.100 . S
C859 C19 1.006 . S
C881 C535 1.108 . S
C877 C41 1.019 . S
C895 C62 0.988 . S
C899 C355 1.113 . S
C917 C385 1.100 . S
C913 C82 1.004 . S
C935 C205 1.103 . S
C931 C40 0.991 . S
C949 C61 1.002 . S
C953 C265 1.103 . S
C971 C115 1.114 . S
C967 C83 0.985 . S
C989 C175 1.111 . S
C985 C20 0.984 . S
