# Generated by pormake.
# Topology pth, (4,4)-cn, num edge types: 1
# Building blocks:
#     Node 0, Type 0, BuildingBlock: KUFVIS_clean_sbu_0, # of connection points: 4
#     Node 1, Type 0, BuildingBlock: KUFVIS_clean_sbu_0, # of connection points: 4
#     Node 2, Type 0, BuildingBlock: KUFVIS_clean_sbu_0, # of connection points: 4
#     Node 3, Type 1, BuildingBlock: AZAVOO_clean_linker_0, # of connection points: 4
#     Node 4, Type 1, BuildingBlock: AZAVOO_clean_linker_0, # of connection points: 4
#     Node 5, Type 1, BuildingBlock: AZAVOO_clean_linker_0, # of connection points: 4
#     Edge 6, Type (0, 1), BuildingBlock: OJICUG_clean_linker_0, # of connection points: 2
#     Edge 7, Type (0, 1), BuildingBlock: OJICUG_clean_linker_0, # of connection points: 2
#     Edge 8, Type (0, 1), BuildingBlock: OJICUG_clean_linker_0, # of connection points: 2
#     Edge 9, Type (0, 1), BuildingBlock: OJICUG_clean_linker_0, # of connection points: 2
#     Edge 10, Type (0, 1), BuildingBlock: OJICUG_clean_linker_0, # of connection points: 2
#     Edge 11, Type (0, 1), BuildingBlock: OJICUG_clean_linker_0, # of connection points: 2
#     Edge 12, Type (0, 1), BuildingBlock: OJICUG_clean_linker_0, # of connection points: 2
#     Edge 13, Type (0, 1), BuildingBlock: OJICUG_clean_linker_0, # of connection points: 2
#     Edge 14, Type (0, 1), BuildingBlock: OJICUG_clean_linker_0, # of connection points: 2
#     Edge 15, Type (0, 1), BuildingBlock: OJICUG_clean_linker_0, # of connection points: 2
#     Edge 16, Type (0, 1), BuildingBlock: OJICUG_clean_linker_0, # of connection points: 2
#     Edge 17, Type (0, 1), BuildingBlock: OJICUG_clean_linker_0, # of connection points: 2
# Relax obj value: 0.128
# Max RMSD: 0.225
# Mean RMSD: 0.161
data_MOF--net-pth--node1-KUFVIS_clean_sbu_0--node2-AZAVOO_clean_linker_0--edge1-OJICUG_clean_linker_0
_symmetry_space_group_name_H-M    P1
_symmetry_Int_Tables_number       1
_symmetry_cell_setting            triclinic
loop_
_symmetry_equiv_pos_as_xyz
'x, y, z'
_cell_length_a     20.056471
_cell_length_b     20.333177
_cell_length_c     55.26789
_cell_angle_alpha  92.855224
_cell_angle_beta   90.900464
_cell_angle_gamma 120.26356
loop_
_atom_site_label
_atom_site_type_symbol
_atom_site_fract_x
_atom_site_fract_y
_atom_site_fract_z
_atom_type_partial_charge
Mn0 Mn 0.11033 0.08515 0.08512 0.0
Mn1 Mn 0.03043 0.18539 0.06518 0.0
C2 C 0.0518 0.05602 0.04689 0.0
C3 C 0.09804 0.98604 0.10739 0.0
C4 C 0.20277 0.24433 0.0667 0.0
O5 O 0.10416 0.1405 0.1158 0.0
O6 O 0.04145 0.19725 0.10117 0.0
C7 C 0.87541 0.09375 0.08461 0.0
N8 N 0.92043 0.12474 0.06547 0.0
C9 C 0.80895 0.07192 0.03786 0.0
C10 C 0.76133 0.03997 0.05731 0.0
C11 C 0.79474 0.05079 0.08077 0.0
C12 C 0.88894 0.11454 0.04281 0.0
H13 H 0.90095 0.10147 0.10263 0.0
C14 C 0.07181 0.18028 0.11853 0.0
O15 O 0.16565 0.04417 0.10381 0.0
O16 O 0.03829 0.98556 0.0979 0.0
N17 N 0.01573 0.17902 0.03065 0.0
C18 C 0.06994 0.20805 0.01362 0.0
C19 C 0.04616 0.19947 0.98906 0.0
C20 C 0.96702 0.1617 0.9823 0.0
C21 C 0.91232 0.13299 0.00017 0.0
C22 C 0.93945 0.1438 0.02438 0.0
H23 H 0.13085 0.23705 0.01871 0.0
O24 O 0.10018 0.03386 0.05247 0.0
O25 O 0.03744 0.09251 0.06411 0.0
O26 O 0.20027 0.18463 0.07406 0.0
O27 O 0.14326 0.25112 0.06367 0.0
C28 C 0.83196 0.09233 0.99487 0.0
C29 C 0.78032 0.0615 0.01368 0.0
H30 H 0.69911 0.00622 0.0544 0.0
H31 H 0.75839 0.02575 0.09584 0.0
H32 H 0.08873 0.22166 0.97537 0.0
H33 H 0.9489 0.15444 0.96331 0.0
H34 H 0.8093 0.08309 0.97632 0.0
H35 H 0.71873 0.02886 0.0093 0.0
Mn36 Mn 0.0264 0.05381 0.41676 0.0
Mn37 Mn 0.13881 0.23 0.44415 0.0
C38 C 0.11123 0.07184 0.44828 0.0
C39 C 0.00881 0.96115 0.38692 0.0
C40 C 0.97079 0.12622 0.45499 0.0
O41 O 0.0155 0.12259 0.39329 0.0
O42 O 0.1006 0.2376 0.41157 0.0
C43 C 0.268 0.28327 0.41097 0.0
N44 N 0.24209 0.27099 0.43385 0.0
C45 C 0.37076 0.31863 0.45082 0.0
C46 C 0.39901 0.33332 0.42748 0.0
C47 C 0.34732 0.31513 0.40745 0.0
C48 C 0.29114 0.28697 0.45321 0.0
H49 H 0.22832 0.2682 0.39552 0.0
C50 C 0.05293 0.19542 0.39413 0.0
O51 O 0.94981 0.95887 0.39715 0.0
O52 O 0.07622 0.02 0.39258 0.0
N53 N 0.18103 0.23269 0.47576 0.0
C54 C 0.14411 0.21166 0.49694 0.0
C55 C 0.18732 0.22345 0.51861 0.0
C56 C 0.26806 0.25776 0.51836 0.0
C57 C 0.30492 0.28039 0.49645 0.0
C58 C 0.25888 0.26745 0.47544 0.0
H59 H 0.08212 0.18557 0.49731 0.0
O60 O 0.05418 0.00424 0.44192 0.0
O61 O 0.11896 0.12698 0.43545 0.0
O62 O 0.95825 0.06932 0.44075 0.0
O63 O 0.03423 0.19022 0.45649 0.0
C64 C 0.38544 0.31421 0.49458 0.0
C65 C 0.41829 0.3329 0.47177 0.0
H66 H 0.46012 0.3576 0.42468 0.0
H67 H 0.36852 0.32533 0.38934 0.0
H68 H 0.15843 0.20602 0.53545 0.0
H69 H 0.30113 0.26615 0.53508 0.0
H70 H 0.42254 0.32516 0.51053 0.0
H71 H 0.48012 0.35763 0.4705 0.0
Mn72 Mn 0.10237 0.10862 0.75966 0.0
Mn73 Mn 0.03224 0.21239 0.78612 0.0
C74 C 0.16869 0.19238 0.79267 0.0
C75 C 0.18154 0.09732 0.73153 0.0
C76 C 0.96464 0.04251 0.79175 0.0
O77 O 0.02289 0.10059 0.73428 0.0
O78 O 0.99185 0.18417 0.75175 0.0
C79 C 0.10995 0.35131 0.7587 0.0
N80 N 0.09564 0.31786 0.78022 0.0
C81 C 0.17767 0.43887 0.8022 0.0
C82 C 0.1925 0.47469 0.78029 0.0
C83 C 0.1586 0.43067 0.75845 0.0
C84 C 0.12799 0.35968 0.80135 0.0
H85 H 0.08487 0.31758 0.74187 0.0
C86 C 0.98801 0.13872 0.73409 0.0
O87 O 0.1245 0.03707 0.74 0.0
O88 O 0.18859 0.16268 0.73802 0.0
N89 N 0.06882 0.24349 0.81926 0.0
C90 C 0.05343 0.19953 0.83854 0.0
C91 C 0.0855 0.23445 0.86163 0.0
C92 C 0.13315 0.3141 0.86466 0.0
C93 C 0.14826 0.35815 0.84455 0.0
C94 C 0.11383 0.32027 0.82203 0.0
H95 H 0.01716 0.13826 0.83634 0.0
O96 O 0.1799 0.13611 0.78709 0.0
O97 O 0.11843 0.197 0.77888 0.0
O98 O 0.01557 0.03531 0.78033 0.0
O99 O 0.96369 0.10493 0.7939 0.0
C100 C 0.19728 0.43799 0.8459 0.0
C101 C 0.21198 0.47833 0.82474 0.0
H102 H 0.23063 0.53579 0.77999 0.0
H103 H 0.17035 0.45781 0.74144 0.0
H104 H 0.0736 0.20001 0.87704 0.0
H105 H 0.15805 0.34077 0.88247 0.0
H106 H 0.22497 0.46878 0.86306 0.0
H107 H 0.25081 0.53954 0.82595 0.0
H108 H 0.9778 0.35733 0.09589 0.0
H109 H 0.07784 0.01216 0.28776 0.0
H110 H 0.89132 0.34507 0.22212 0.0
H111 H 0.91296 0.25471 0.19781 0.0
H112 H 0.15357 0.37773 0.2223 0.0
H113 H 0.13123 0.46838 0.24655 0.0
H114 H 0.89819 0.45838 0.18631 0.0
H115 H 0.90943 0.4103 0.14595 0.0
H116 H 0.15259 0.49811 0.16217 0.0
H117 H 0.14034 0.54535 0.20246 0.0
H118 H 0.90543 0.62999 0.20728 0.0
H119 H 0.92899 0.7223 0.17713 0.0
H120 H 0.16337 0.76756 0.17211 0.0
H121 H 0.14031 0.67865 0.20339 0.0
H122 H 0.87845 0.63582 0.26129 0.0
H123 H 0.8809 0.75379 0.27444 0.0
H124 H 0.12754 0.88113 0.2656 0.0
H125 H 0.1243 0.76253 0.25277 0.0
H126 H 0.87457 0.54005 0.29844 0.0
H127 H 0.87283 0.62621 0.33075 0.0
H128 H 0.12091 0.76934 0.32775 0.0
H129 H 0.12179 0.68178 0.29669 0.0
H130 H 0.89477 0.35658 0.27361 0.0
H131 H 0.90628 0.27757 0.30325 0.0
H132 H 0.11465 0.47555 0.33437 0.0
H133 H 0.10721 0.55091 0.30295 0.0
O134 O 0.97505 0.37881 0.11161 0.0
O135 O 0.10026 0.42708 0.12061 0.0
O136 O 0.94801 0.89686 0.28617 0.0
O137 O 0.07483 0.96506 0.28187 0.0
C138 C 0.00419 0.48232 0.24167 0.0
C139 C 0.00984 0.52816 0.22244 0.0
C140 C 0.00878 0.59623 0.22715 0.0
C141 C 0.00087 0.61808 0.25101 0.0
C142 C 0.99736 0.57352 0.27042 0.0
C143 C -0.00102 0.5052 0.26584 0.0
C144 C 0.00987 0.41348 0.23586 0.0
C145 C 0.94771 0.35008 0.22325 0.0
C146 C 0.96031 0.29859 0.20932 0.0
C147 C 0.03533 0.31015 0.20782 0.0
C148 C 0.0954 0.36819 0.22293 0.0
C149 C 0.08261 0.41947 0.23697 0.0
C150 C 0.01836 0.50504 0.19727 0.0
C151 C 0.95391 0.46772 0.18099 0.0
C152 C 0.96048 0.44006 0.15801 0.0
C153 C 0.0318 0.44979 0.1509 0.0
C154 C 0.09673 0.4892 0.1671 0.0
C155 C 0.08997 0.51643 0.19009 0.0
C156 C 0.02098 0.64736 0.20739 0.0
C157 C 0.96169 0.65974 0.19956 0.0
C158 C 0.97522 0.7121 0.18218 0.0
C159 C 0.04815 0.7524 0.17208 0.0
C160 C 0.1069 0.73845 0.17969 0.0
C161 C 0.09357 0.68687 0.19731 0.0
C162 C 0.00118 0.69075 0.25615 0.0
C163 C 0.93276 0.6894 0.26198 0.0
C164 C 0.9344 0.75681 0.26954 0.0
C165 C 0.00455 0.82687 0.27122 0.0
C166 C 0.07262 0.82818 0.2646 0.0
C167 C 0.07091 0.76065 0.2571 0.0
C168 C 0.99839 0.60438 0.29537 0.0
C169 C 0.92877 0.5878 0.30581 0.0
C170 C 0.9278 0.6382 0.32386 0.0
C171 C 0.99649 0.70587 0.33159 0.0
C172 C 0.06681 0.71777 0.32263 0.0
C173 C 0.0677 0.66721 0.30489 0.0
C174 C -3e-05 0.45988 0.28605 0.0
C175 C 0.94302 0.38267 0.28683 0.0
C176 C 0.94938 0.33764 0.30404 0.0
C177 C 0.01197 0.36934 0.32129 0.0
C178 C 0.0668 0.44782 0.32107 0.0
C179 C 0.06165 0.492 0.3034 0.0
C180 C 0.03811 0.41814 0.12681 0.0
C181 C 0.00707 0.89818 0.28016 0.0
H182 H 0.59509 0.01864 0.43031 0.0
H183 H 0.17542 0.16938 0.64239 0.0
H184 H 0.60638 0.96008 0.55752 0.0
H185 H 0.69633 0.96814 0.52737 0.0
H186 H 0.85197 0.20422 0.55191 0.0
H187 H 0.75797 0.19644 0.58096 0.0
H188 H 0.48079 0.96697 0.52834 0.0
H189 H 0.51035 0.96704 0.48552 0.0
H190 H 0.69487 0.20185 0.49698 0.0
H191 H 0.66376 0.20133 0.53962 0.0
H192 H 0.34522 0.96725 0.55816 0.0
H193 H 0.25345 0.96714 0.52842 0.0
H194 H 0.41981 0.19995 0.51426 0.0
H195 H 0.5111 0.19962 0.54416 0.0
H196 H 0.34329 0.96708 0.61181 0.0
H197 H 0.23403 0.97307 0.62853 0.0
H198 H 0.34512 0.21231 0.61475 0.0
H199 H 0.45432 0.20558 0.59829 0.0
H200 H 0.46228 0.97131 0.64383 0.0
H201 H 0.38536 0.97187 0.67769 0.0
H202 H 0.47868 0.21416 0.67229 0.0
H203 H 0.5572 0.21307 0.63969 0.0
H204 H 0.64642 0.98338 0.61186 0.0
H205 H 0.74748 0.99658 0.64026 0.0
H206 H 0.77511 0.21045 0.67003 0.0
H207 H 0.68059 0.20034 0.63993 0.0
O208 O 0.58331 0.02031 0.44717 0.0
O209 O 0.67841 0.14053 0.45417 0.0
O210 O 0.16243 0.04188 0.64208 0.0
O211 O 0.21688 0.16492 0.63528 0.0
C212 C 0.6081 0.08116 0.58055 0.0
C213 C 0.55556 0.0824 0.56339 0.0
C214 C 0.48957 0.08304 0.57116 0.0
C215 C 0.47621 0.08394 0.59599 0.0
C216 C 0.53032 0.08635 0.61333 0.0
C217 C 0.59676 0.08493 0.60571 0.0
C218 C 0.67521 0.07791 0.57115 0.0
C219 C 0.66137 0.01263 0.55705 0.0
C220 C 0.713 0.01764 0.53965 0.0
C221 C 0.78065 0.08765 0.53657 0.0
C222 C 0.79906 0.15019 0.5531 0.0
C223 C 0.7464 0.14546 0.57019 0.0
C224 C 0.57041 0.08398 0.53706 0.0
C225 C 0.52701 0.01853 0.52148 0.0
C226 C 0.54428 0.01868 0.49707 0.0
C227 C 0.60526 0.08434 0.48785 0.0
C228 C 0.64769 0.15027 0.50349 0.0
C229 C 0.63009 0.15013 0.52785 0.0
C230 C 0.43441 0.08341 0.55322 0.0
C231 C 0.36147 0.01825 0.5487 0.0
C232 C 0.30926 0.01844 0.53182 0.0
C233 C 0.32954 0.08373 0.51915 0.0
C234 C 0.40295 0.14883 0.52367 0.0
C235 C 0.45494 0.14877 0.5407 0.0
C236 C 0.40679 0.086 0.60403 0.0
C237 C 0.3436 0.02056 0.61229 0.0
C238 C 0.28138 0.0242 0.62185 0.0
C239 C 0.2811 0.09335 0.62314 0.0
C240 C 0.34363 0.15827 0.61414 0.0
C241 C 0.40588 0.15455 0.60462 0.0
C242 C 0.51509 0.09211 0.63927 0.0
C243 C 0.46946 0.02515 0.65104 0.0
C244 C 0.42404 0.02535 0.66999 0.0
C245 C 0.42362 0.09254 0.67729 0.0
C246 C 0.47715 0.1612 0.66741 0.0
C247 C 0.52303 0.16101 0.64877 0.0
C248 C 0.65548 0.09065 0.62382 0.0
C249 C 0.67512 0.0335 0.62436 0.0
C250 C 0.73247 0.04081 0.64088 0.0
C251 C 0.77035 0.10476 0.65764 0.0
C252 C 0.74926 0.16119 0.65718 0.0
C253 C 0.69361 0.15478 0.64024 0.0
C254 C 0.62472 0.08376 0.46207 0.0
C255 C 0.21639 0.09815 0.63404 0.0
H256 H 0.76189 0.87527 0.07542 0.0
H257 H 0.22348 0.13623 0.91723 0.0
H258 H 0.66712 0.83109 0.94428 0.0
H259 H 0.77414 0.9418 0.96648 0.0
H260 H 0.92091 0.84632 0.95332 0.0
H261 H 0.81365 0.73617 0.93075 0.0
H262 H 0.58049 0.73076 0.98462 0.0
H263 H 0.63813 0.79445 0.02451 0.0
H264 H 0.81273 0.73057 0.01687 0.0
H265 H 0.75426 0.66692 0.97705 0.0
H266 H 0.43051 0.56893 0.96732 0.0
H267 H 0.35783 0.49603 0.00081 0.0
H268 H 0.53726 0.44407 0.01727 0.0
H269 H 0.60856 0.51562 0.9829 0.0
H270 H 0.38445 0.51419 0.91573 0.0
H271 H 0.26988 0.38671 0.91065 0.0
H272 H 0.40931 0.28792 0.92934 0.0
H273 H 0.52356 0.4159 0.9343 0.0
H274 H 0.47306 0.61647 0.87728 0.0
H275 H 0.37725 0.52277 0.84694 0.0
H276 H 0.47835 0.38044 0.85392 0.0
H277 H 0.57461 0.47474 0.88378 0.0
H278 H 0.63598 0.79523 0.89735 0.0
H279 H 0.71019 0.87961 0.86632 0.0
H280 H 0.77442 0.71581 0.84019 0.0
H281 H 0.70424 0.63432 0.87274 0.0
O282 O 0.73847 0.84758 0.06 0.0
O283 O 0.82215 0.80674 0.05634 0.0
O284 O 0.198 0.24118 0.91098 0.0
O285 O 0.26783 0.18733 0.91924 0.0
C286 C 0.66353 0.69856 0.93259 0.0
C287 C 0.63006 0.65865 0.95341 0.0
C288 C 0.56378 0.58578 0.95091 0.0
C289 C 0.53215 0.55146 0.92765 0.0
C290 C 0.56628 0.59068 0.90672 0.0
C291 C 0.63131 0.66518 0.90914 0.0
C292 C 0.7327 0.77555 0.93617 0.0
C293 C 0.7236 0.83625 0.94497 0.0
C294 C 0.7846 0.89912 0.9578 0.0
C295 C 0.85511 0.90162 0.96205 0.0
C296 C 0.86721 0.84589 0.95027 0.0
C297 C 0.80605 0.78295 0.93734 0.0
C298 C 0.66333 0.69443 0.97802 0.0
C299 C 0.63084 0.73017 0.99171 0.0
C300 C 0.66394 0.76654 0.01445 0.0
C301 C 0.72995 0.76745 0.02391 0.0
C302 C 0.76176 0.73069 0.01017 0.0
C303 C 0.7286 0.6944 0.98743 0.0
C304 C 0.52428 0.54695 0.97267 0.0
C305 C 0.45436 0.54234 0.97831 0.0
C306 C 0.41342 0.50132 0.99764 0.0
C307 C 0.44197 0.46452 0.01186 0.0
C308 C 0.51352 0.47133 0.00658 0.0
C309 C 0.55442 0.51233 0.98708 0.0
C310 C 0.46221 0.47407 0.92524 0.0
C311 C 0.39007 0.46489 0.91867 0.0
C312 C 0.32475 0.39202 0.91578 0.0
C313 C 0.33046 0.32703 0.91948 0.0
C314 C 0.40289 0.33668 0.92629 0.0
C315 C 0.46818 0.40964 0.9292 0.0
C316 C 0.53056 0.5522 0.88271 0.0
C317 C 0.47689 0.56696 0.87132 0.0
C318 C 0.42169 0.51301 0.85427 0.0
C319 C 0.41951 0.44376 0.84868 0.0
C320 C 0.47815 0.43286 0.85831 0.0
C321 C 0.53381 0.48713 0.87503 0.0
C322 C 0.66563 0.70918 0.88758 0.0
C323 C 0.66586 0.77745 0.88486 0.0
C324 C 0.70779 0.82532 0.86682 0.0
C325 C 0.74923 0.80523 0.85066 0.0
C326 C 0.74488 0.73427 0.85257 0.0
C327 C 0.70391 0.68697 0.87098 0.0
C328 C 0.76631 0.80807 0.04775 0.0
C329 C 0.2613 0.24944 0.91629 0.0
C330 C 0.12096 0.2862 0.15021 0.0
C331 C 0.06958 0.20955 0.14301 0.0
H332 H 0.15142 0.3776 0.17689 0.0
C333 C 0.01189 0.16328 0.15843 0.0
H334 H 0.16543 0.32266 0.13835 0.0
C335 C 0.00326 0.19462 0.18044 0.0
C336 C 0.05282 0.27239 0.18733 0.0
H337 H 0.97151 0.10394 0.15296 0.0
H338 H 0.95624 0.15889 0.19165 0.0
C339 C 0.11313 0.31727 0.1723 0.0
C340 C 0.87741 0.04416 0.48456 0.0
C341 C 0.91475 0.11408 0.47367 0.0
H342 H 0.80988 0.98212 0.51362 0.0
C343 C 0.90688 0.17487 0.48324 0.0
H344 H 0.88414 0.99688 0.47792 0.0
C345 C 0.86289 0.16605 0.50347 0.0
C346 C 0.82768 0.0969 0.51503 0.0
H347 H 0.93549 0.22951 0.47523 0.0
H348 H 0.85653 0.21361 0.50998 0.0
C349 C 0.83511 0.0359 0.50515 0.0
C350 C 0.8344 0.96987 0.80921 0.0
C351 C 0.90618 0.97687 0.80444 0.0
H352 H 0.72707 0.90829 0.82631 0.0
C353 C 0.92345 0.92331 0.81328 0.0
H354 H 0.81908 0.00977 0.80237 0.0
C355 C 0.87166 0.86629 0.82765 0.0
C356 C 0.8006 0.86052 0.83314 0.0
H357 H 0.9786 0.92758 0.81005 0.0
H358 H 0.88909 0.82892 0.83525 0.0
C359 C 0.78188 0.91188 0.82311 0.0
C360 C 0.01735 0.85537 0.12158 0.0
C361 C 0.08823 0.92434 0.12252 0.0
H362 H 0.94997 0.74614 0.13583 0.0
C363 C 0.14747 0.93506 0.13894 0.0
H364 H 0.97084 0.84525 0.10891 0.0
C365 C 0.13497 0.87882 0.15478 0.0
C366 C 0.06329 0.81032 0.15427 0.0
H367 H 0.20253 0.98793 0.14014 0.0
H368 H 0.18074 0.89022 0.16793 0.0
C369 C 0.0052 0.79878 0.13714 0.0
C370 C 0.14319 0.04968 0.48929 0.0
C371 C 0.16805 0.08036 0.46685 0.0
H372 H 0.17577 0.02926 0.52389 0.0
C373 C 0.24564 0.11085 0.46132 0.0
H374 H 0.08296 0.0244 0.49357 0.0
C375 C 0.29864 0.11309 0.47848 0.0
C376 C 0.27419 0.08353 0.5012 0.0
H377 H 0.26496 0.13195 0.44365 0.0
H378 H 0.3583 0.13649 0.47381 0.0
C379 C 0.19603 0.052 0.50647 0.0
C380 C 0.25134 0.24668 0.83064 0.0
C381 C 0.2273 0.25776 0.80805 0.0
H382 H 0.33081 0.29794 0.86145 0.0
C383 C 0.26685 0.33015 0.79874 0.0
H384 H 0.22253 0.19085 0.83788 0.0
C385 C 0.32837 0.39132 0.81214 0.0
C386 C 0.35283 0.38024 0.83469 0.0
H387 H 0.25113 0.33905 0.78087 0.0
H388 H 0.35812 0.44667 0.80461 0.0
C389 C 0.31341 0.3076 0.84394 0.0
C390 C 0.94332 0.19361 0.70281 0.0
C391 C 0.93836 0.12927 0.71272 0.0
H392 H 0.89799 0.23669 0.67687 0.0
C393 C 0.88123 0.05638 0.70345 0.0
H394 H 0.98735 0.25046 0.70953 0.0
C395 C 0.82733 0.0481 0.68535 0.0
C396 C 0.83073 0.11267 0.67573 0.0
H397 H 0.87587 0.00591 0.71104 0.0
H398 H 0.78147 0.99105 0.67962 0.0
C399 C 0.89115 0.18547 0.68426 0.0
C400 C 0.92291 0.98404 0.02602 0.0
C401 C 0.00323 0.02404 0.02452 0.0
H402 H 0.81346 0.91802 0.00709 0.0
C403 C 0.0358 0.02568 0.00211 0.0
H404 H 0.89683 0.97901 0.04336 0.0
C405 C 0.98801 0.98881 0.98128 0.0
C406 C 0.90726 0.95 0.98275 0.0
H407 H 0.09797 0.05471 0.0008 0.0
H408 H 0.01391 0.98945 0.96418 0.0
C409 C 0.87539 0.94883 0.00528 0.0
C410 C 0.06228 0.87823 0.37571 0.0
C411 C 0.00272 0.89475 0.37283 0.0
H412 H 0.10468 0.80346 0.36642 0.0
C413 C 0.93805 0.84597 0.35754 0.0
H414 H 0.11193 0.91384 0.38791 0.0
C415 C 0.93484 0.78337 0.34449 0.0
C416 C 0.99525 0.76733 0.34712 0.0
H417 H 0.89119 0.85739 0.35519 0.0
H418 H 0.88613 0.74905 0.33185 0.0
C419 C 0.05807 0.8148 0.36334 0.0
C420 C 0.22675 0.02907 0.70313 0.0
C421 C 0.24225 0.09393 0.71779 0.0
H422 H 0.27131 0.97828 0.67832 0.0
C423 C 0.31822 0.15598 0.7203 0.0
H424 H 0.16863 0.9804 0.701 0.0
C425 C 0.3776 0.15378 0.70821 0.0
C426 C 0.36226 0.09027 0.69272 0.0
H427 H 0.33217 0.2061 0.73196 0.0
H428 H 0.43555 0.20239 0.71091 0.0
C429 C 0.28599 0.02761 0.69045 0.0
C430 C 0.32705 0.28799 0.04633 0.0
C431 C 0.27592 0.30565 0.05809 0.0
H432 H 0.41941 0.32438 0.02206 0.0
C433 C 0.28853 0.38008 0.05787 0.0
H434 H 0.31832 0.23085 0.0461 0.0
C435 C 0.34707 0.43399 0.04443 0.0
C436 C 0.39328 0.41413 0.03059 0.0
H437 H 0.25045 0.39542 0.06704 0.0
H438 H 0.35337 0.49001 0.04383 0.0
C439 C 0.38504 0.34169 0.03256 0.0
C440 C 0.10569 0.29795 0.3652 0.0
C441 C 0.04163 0.23471 0.37411 0.0
H442 H 0.14734 0.38663 0.34082 0.0
C443 C 0.96734 0.21334 0.36492 0.0
H444 H 0.16369 0.31538 0.37183 0.0
C445 C 0.95729 0.25665 0.34781 0.0
C446 C 0.02158 0.32108 0.33905 0.0
H447 H 0.91694 0.16515 0.37173 0.0
H448 H 0.89896 0.2406 0.34202 0.0
C449 C 0.09598 0.33963 0.34761 0.0
loop_
_geom_bond_atom_site_label_1
_geom_bond_atom_site_label_2
_geom_bond_distance
_geom_bond_site_symmetry_2
_ccdc_geom_bond_type
Mn0 O5 2.095 . S
Mn0 O15 2.162 . S
Mn0 O16 2.297 1_545 S
Mn0 O24 2.385 1_545 S
Mn0 O25 2.209 . S
Mn0 O26 2.094 . S
Mn1 O6 2.121 . S
Mn1 N8 2.257 1_455 S
Mn1 N17 2.282 1_455 S
Mn1 O25 2.215 . S
Mn1 O27 2.117 . S
C2 O24 1.234 1_545 S
C2 O25 1.283 . S
C3 O15 1.281 1_565 S
C3 O16 1.236 . S
C4 O26 1.240 . S
C4 O27 1.264 . S
O5 Mn0 2.095 . S
O5 C14 1.250 . S
O6 Mn1 2.121 . S
O6 C14 1.258 . S
C7 N8 1.326 . S
C7 C11 1.460 . S
C7 H13 0.929 . S
N8 Mn1 2.257 1_655 S
N8 C7 1.326 . S
N8 C12 1.362 . S
C9 C10 1.258 . S
C9 C12 1.431 . S
C9 C29 1.449 . S
C10 C9 1.258 . S
C10 C11 1.477 . S
C10 H30 0.931 . S
C11 C7 1.460 . S
C11 C10 1.477 . S
C11 H31 0.930 . S
C12 N8 1.362 . S
C12 C9 1.431 . S
C12 C22 1.476 . S
H13 C7 0.929 . S
C14 O5 1.250 . S
C14 O6 1.258 . S
O15 Mn0 2.162 . S
O15 C3 1.281 1_545 S
O16 Mn0 2.297 1_565 S
O16 C3 1.236 . S
N17 Mn1 2.282 1_655 S
N17 C18 1.328 1_655 S
N17 C22 1.318 . S
C18 N17 1.328 1_455 S
C18 C19 1.457 1_554 S
C18 H23 0.929 . S
C19 C18 1.457 1_556 S
C19 C20 1.291 1_455 S
C19 H32 0.931 . S
C20 C19 1.291 1_655 S
C20 C21 1.373 . S
C20 H33 0.929 . S
C21 C20 1.373 . S
C21 C22 1.396 1_556 S
C21 C28 1.403 . S
C22 C12 1.476 . S
C22 N17 1.318 . S
C22 C21 1.396 1_554 S
H23 C18 0.929 . S
O24 Mn0 2.385 1_565 S
O24 C2 1.234 1_565 S
O25 Mn0 2.209 . S
O25 Mn1 2.215 . S
O25 C2 1.283 . S
O26 Mn0 2.094 . S
O26 C4 1.240 . S
O27 Mn1 2.117 . S
O27 C4 1.264 . S
C28 C21 1.403 . S
C28 C29 1.399 1_556 S
C28 H34 0.929 . S
C29 C9 1.449 . S
C29 C28 1.399 1_554 S
C29 H35 0.930 . S
H30 C10 0.931 . S
H31 C11 0.930 . S
H32 C19 0.931 . S
H33 C20 0.929 . S
H34 C28 0.929 . S
H35 C29 0.930 . S
Mn36 O41 2.091 1_455 S
Mn36 O51 2.162 1_445 S
Mn36 O52 2.303 1_545 S
Mn36 O60 2.391 1_545 S
Mn36 O61 2.214 . S
Mn36 O62 2.087 1_445 S
Mn37 O42 2.121 . S
Mn37 N44 2.257 . S
Mn37 N53 2.282 . S
Mn37 O61 2.215 . S
Mn37 O63 2.117 1_455 S
C38 O60 1.234 1_545 S
C38 O61 1.283 . S
C39 O51 1.281 1_455 S
C39 O52 1.236 . S
C40 O62 1.240 1_545 S
C40 O63 1.264 . S
O41 Mn36 2.091 1_655 S
O41 C50 1.250 1_655 S
O42 Mn37 2.121 . S
O42 C50 1.258 . S
C43 N44 1.326 . S
C43 C47 1.460 . S
C43 H49 0.929 . S
N44 Mn37 2.257 . S
N44 C43 1.326 . S
N44 C48 1.362 . S
C45 C46 1.258 . S
C45 C48 1.431 . S
C45 C65 1.449 . S
C46 C45 1.258 . S
C46 C47 1.477 . S
C46 H66 0.931 . S
C47 C43 1.460 . S
C47 C46 1.477 . S
C47 H67 0.930 . S
C48 N44 1.362 . S
C48 C45 1.431 . S
C48 C58 1.476 . S
H49 C43 0.929 . S
C50 O41 1.250 1_455 S
C50 O42 1.258 . S
O51 Mn36 2.162 1_665 S
O51 C39 1.281 1_655 S
O52 Mn36 2.303 1_565 S
O52 C39 1.236 . S
N53 Mn37 2.282 . S
N53 C54 1.328 . S
N53 C58 1.318 . S
C54 N53 1.328 . S
C54 C55 1.457 . S
C54 H59 0.929 . S
C55 C54 1.457 . S
C55 C56 1.291 . S
C55 H68 0.931 . S
C56 C55 1.291 . S
C56 C57 1.373 . S
C56 H69 0.929 . S
C57 C56 1.373 . S
C57 C58 1.396 . S
C57 C64 1.403 . S
C58 C48 1.476 . S
C58 N53 1.318 . S
C58 C57 1.396 . S
H59 C54 0.929 . S
O60 Mn36 2.391 1_565 S
O60 C38 1.234 1_565 S
O61 Mn36 2.214 . S
O61 Mn37 2.215 . S
O61 C38 1.283 . S
O62 Mn36 2.087 1_665 S
O62 C40 1.240 1_565 S
O63 Mn37 2.117 1_655 S
O63 C40 1.264 . S
C64 C57 1.403 . S
C64 C65 1.399 . S
C64 H70 0.929 . S
C65 C45 1.449 . S
C65 C64 1.399 . S
C65 H71 0.930 . S
H66 C46 0.931 . S
H67 C47 0.930 . S
H68 C55 0.931 . S
H69 C56 0.929 . S
H70 C64 0.929 . S
H71 C65 0.930 . S
Mn72 O77 2.095 . S
Mn72 O87 2.162 . S
Mn72 O88 2.297 . S
Mn72 O96 2.385 . S
Mn72 O97 2.209 . S
Mn72 O98 2.094 . S
Mn73 O78 2.121 . S
Mn73 N80 2.257 . S
Mn73 N89 2.282 . S
Mn73 O97 2.215 . S
Mn73 O99 2.117 . S
C74 O96 1.234 . S
C74 O97 1.283 . S
C75 O87 1.281 . S
C75 O88 1.236 . S
C76 O98 1.240 . S
C76 O99 1.264 . S
O77 Mn72 2.095 . S
O77 C86 1.250 . S
O78 Mn73 2.121 . S
O78 C86 1.258 . S
C79 N80 1.326 . S
C79 C83 1.460 . S
C79 H85 0.929 . S
N80 Mn73 2.257 . S
N80 C79 1.326 . S
N80 C84 1.362 . S
C81 C82 1.258 . S
C81 C84 1.431 . S
C81 C101 1.449 . S
C82 C81 1.258 . S
C82 C83 1.477 . S
C82 H102 0.931 . S
C83 C79 1.460 . S
C83 C82 1.477 . S
C83 H103 0.930 . S
C84 N80 1.362 . S
C84 C81 1.431 . S
C84 C94 1.476 . S
H85 C79 0.929 . S
C86 O77 1.250 . S
C86 O78 1.258 . S
O87 Mn72 2.162 . S
O87 C75 1.281 . S
O88 Mn72 2.297 . S
O88 C75 1.236 . S
N89 Mn73 2.282 . S
N89 C90 1.328 . S
N89 C94 1.318 . S
C90 N89 1.328 . S
C90 C91 1.457 . S
C90 H95 0.929 . S
C91 C90 1.457 . S
C91 C92 1.291 . S
C91 H104 0.931 . S
C92 C91 1.291 . S
C92 C93 1.373 . S
C92 H105 0.929 . S
C93 C92 1.373 . S
C93 C94 1.396 . S
C93 C100 1.403 . S
C94 C84 1.476 . S
C94 N89 1.318 . S
C94 C93 1.396 . S
H95 C90 0.929 . S
O96 Mn72 2.385 . S
O96 C74 1.234 . S
O97 Mn72 2.209 . S
O97 Mn73 2.215 . S
O97 C74 1.283 . S
O98 Mn72 2.094 . S
O98 C76 1.240 . S
O99 Mn73 2.117 . S
O99 C76 1.264 . S
C100 C93 1.403 . S
C100 C101 1.399 . S
C100 H106 0.929 . S
C101 C81 1.449 . S
C101 C100 1.399 . S
C101 H107 0.930 . S
H102 C82 0.931 . S
H103 C83 0.930 . S
H104 C91 0.931 . S
H105 C92 0.929 . S
H106 C100 0.929 . S
H107 C101 0.930 . S
H108 O134 0.856 . S
H109 O137 0.854 1_545 S
H110 C145 0.930 . S
H111 C146 0.930 . S
H112 C148 0.930 . S
H113 C149 0.930 . S
H114 C151 0.931 1_655 S
H115 C152 0.930 1_655 S
H116 C154 0.930 . S
H117 C155 0.929 . S
H118 C157 0.930 1_655 S
H119 C158 0.931 1_655 S
H120 C160 0.930 . S
H121 C161 0.929 . S
H122 C163 0.931 . S
H123 C164 0.930 . S
H124 C166 0.930 . S
H125 C167 0.932 . S
H126 C169 0.930 . S
H127 C170 0.929 . S
H128 C172 0.931 . S
H129 C173 0.930 . S
H130 C175 0.929 . S
H131 C176 0.931 . S
H132 C178 0.930 . S
H133 C179 0.929 . S
O134 H108 0.856 . S
O134 C180 1.300 . S
O135 C180 1.209 . S
O136 C181 1.186 1_655 S
O137 H109 0.854 1_565 S
O137 C181 1.297 . S
C138 C139 1.404 . S
C138 C143 1.397 . S
C138 C144 1.492 . S
C139 C138 1.404 . S
C139 C140 1.396 . S
C139 C150 1.492 . S
C140 C139 1.396 . S
C140 C141 1.397 . S
C140 C156 1.509 . S
C141 C140 1.397 . S
C141 C142 1.412 . S
C141 C162 1.485 . S
C142 C141 1.412 . S
C142 C143 1.388 . S
C142 C168 1.490 . S
C143 C138 1.397 . S
C143 C142 1.388 . S
C143 C174 1.519 . S
C144 C138 1.492 . S
C144 C145 1.363 1_455 S
C144 C149 1.390 . S
C145 H110 0.930 . S
C145 C144 1.363 1_655 S
C145 C146 1.372 . S
C146 H111 0.930 . S
C146 C145 1.372 . S
C146 C147 1.383 1_655 S
C147 C146 1.383 1_455 S
C147 C148 1.395 . S
C148 H112 0.930 . S
C148 C147 1.395 . S
C148 C149 1.362 . S
C149 H113 0.930 . S
C149 C144 1.390 . S
C149 C148 1.362 . S
C150 C139 1.492 . S
C150 C151 1.377 . S
C150 C155 1.397 . S
C151 H114 0.931 1_455 S
C151 C150 1.377 . S
C151 C152 1.376 . S
C152 H115 0.930 1_455 S
C152 C151 1.376 . S
C152 C153 1.376 . S
C153 C152 1.376 . S
C153 C154 1.378 . S
C153 C180 1.486 . S
C154 H116 0.930 . S
C154 C153 1.378 . S
C154 C155 1.376 . S
C155 H117 0.929 . S
C155 C150 1.397 . S
C155 C154 1.376 . S
C156 C140 1.509 . S
C156 C157 1.391 . S
C156 C161 1.386 . S
C157 H118 0.930 1_455 S
C157 C156 1.391 . S
C157 C158 1.375 . S
C158 H119 0.931 1_455 S
C158 C157 1.375 . S
C158 C159 1.375 . S
C159 C158 1.375 . S
C159 C160 1.361 . S
C160 H120 0.930 . S
C160 C159 1.361 . S
C160 C161 1.399 . S
C161 H121 0.929 . S
C161 C156 1.386 . S
C161 C160 1.399 . S
C162 C141 1.485 . S
C162 C163 1.394 1_455 S
C162 C167 1.360 . S
C163 H122 0.931 . S
C163 C162 1.394 1_655 S
C163 C164 1.372 . S
C164 H123 0.930 . S
C164 C163 1.372 . S
C164 C165 1.397 1_655 S
C165 C164 1.397 1_455 S
C165 C166 1.390 . S
C165 C181 1.476 . S
C166 H124 0.930 . S
C166 C165 1.390 . S
C166 C167 1.366 . S
C167 H125 0.932 . S
C167 C162 1.360 . S
C167 C166 1.366 . S
C168 C142 1.490 . S
C168 C169 1.380 1_455 S
C168 C173 1.386 . S
C169 H126 0.930 . S
C169 C168 1.380 1_655 S
C169 C170 1.381 . S
C170 H127 0.929 . S
C170 C169 1.381 . S
C170 C171 1.371 . S
C171 C170 1.371 . S
C171 C172 1.380 1_655 S
C172 H128 0.931 . S
C172 C171 1.380 1_455 S
C172 C173 1.387 . S
C173 H129 0.930 . S
C173 C168 1.386 . S
C173 C172 1.387 . S
C174 C143 1.519 . S
C174 C175 1.377 1_455 S
C174 C179 1.361 . S
C175 H130 0.929 . S
C175 C174 1.377 1_655 S
C175 C176 1.386 . S
C176 H131 0.931 . S
C176 C175 1.386 . S
C176 C177 1.363 1_655 S
C177 C176 1.363 1_455 S
C177 C178 1.385 . S
C178 H132 0.930 . S
C178 C177 1.385 . S
C178 C179 1.396 . S
C179 H133 0.929 . S
C179 C174 1.361 . S
C179 C178 1.396 . S
C180 O134 1.300 . S
C180 O135 1.209 . S
C180 C153 1.486 . S
C181 O136 1.186 1_455 S
C181 O137 1.297 . S
C181 C165 1.476 . S
H182 O208 0.856 . S
H183 O211 0.854 . S
H184 C219 0.930 . S
H185 C220 0.930 1_565 S
H186 C222 0.930 . S
H187 C223 0.930 . S
H188 C225 0.931 . S
H189 C226 0.930 . S
H190 C228 0.930 . S
H191 C229 0.929 . S
H192 C231 0.930 . S
H193 C232 0.931 . S
H194 C234 0.930 . S
H195 C235 0.929 . S
H196 C237 0.931 . S
H197 C238 0.930 . S
H198 C240 0.930 . S
H199 C241 0.932 . S
H200 C243 0.930 . S
H201 C244 0.929 . S
H202 C246 0.931 . S
H203 C247 0.930 . S
H204 C249 0.929 . S
H205 C250 0.931 . S
H206 C252 0.930 . S
H207 C253 0.929 . S
O208 H182 0.856 . S
O208 C254 1.300 . S
O209 C254 1.209 . S
O210 C255 1.199 . S
O211 H183 0.854 . S
O211 C255 1.297 . S
C212 C213 1.404 . S
C212 C217 1.397 . S
C212 C218 1.492 . S
C213 C212 1.404 . S
C213 C214 1.396 . S
C213 C224 1.492 . S
C214 C213 1.396 . S
C214 C215 1.397 . S
C214 C230 1.509 . S
C215 C214 1.397 . S
C215 C216 1.412 . S
C215 C236 1.485 . S
C216 C215 1.412 . S
C216 C217 1.388 . S
C216 C242 1.490 . S
C217 C212 1.397 . S
C217 C216 1.388 . S
C217 C248 1.519 . S
C218 C212 1.492 . S
C218 C219 1.363 . S
C218 C223 1.390 . S
C219 H184 0.930 . S
C219 C218 1.363 . S
C219 C220 1.372 . S
C220 H185 0.930 1_545 S
C220 C219 1.372 . S
C220 C221 1.383 . S
C221 C220 1.383 . S
C221 C222 1.395 . S
C222 H186 0.930 . S
C222 C221 1.395 . S
C222 C223 1.362 . S
C223 H187 0.930 . S
C223 C218 1.390 . S
C223 C222 1.362 . S
C224 C213 1.492 . S
C224 C225 1.377 . S
C224 C229 1.397 . S
C225 H188 0.931 . S
C225 C224 1.377 . S
C225 C226 1.376 . S
C226 H189 0.930 . S
C226 C225 1.376 . S
C226 C227 1.376 . S
C227 C226 1.376 . S
C227 C228 1.378 . S
C227 C254 1.486 . S
C228 H190 0.930 . S
C228 C227 1.378 . S
C228 C229 1.376 . S
C229 H191 0.929 . S
C229 C224 1.397 . S
C229 C228 1.376 . S
C230 C214 1.509 . S
C230 C231 1.391 . S
C230 C235 1.386 . S
C231 H192 0.930 . S
C231 C230 1.391 . S
C231 C232 1.375 . S
C232 H193 0.931 . S
C232 C231 1.375 . S
C232 C233 1.375 . S
C233 C232 1.375 . S
C233 C234 1.361 . S
C234 H194 0.930 . S
C234 C233 1.361 . S
C234 C235 1.399 . S
C235 H195 0.929 . S
C235 C230 1.386 . S
C235 C234 1.399 . S
C236 C215 1.485 . S
C236 C237 1.394 . S
C236 C241 1.360 . S
C237 H196 0.931 . S
C237 C236 1.394 . S
C237 C238 1.372 . S
C238 H197 0.930 . S
C238 C237 1.372 . S
C238 C239 1.397 . S
C239 C238 1.397 . S
C239 C240 1.390 . S
C239 C255 1.476 . S
C240 H198 0.930 . S
C240 C239 1.390 . S
C240 C241 1.366 . S
C241 H199 0.932 . S
C241 C236 1.360 . S
C241 C240 1.366 . S
C242 C216 1.490 . S
C242 C243 1.380 . S
C242 C247 1.386 . S
C243 H200 0.930 . S
C243 C242 1.380 . S
C243 C244 1.381 . S
C244 H201 0.929 . S
C244 C243 1.381 . S
C244 C245 1.371 . S
C245 C244 1.371 . S
C245 C246 1.380 . S
C246 H202 0.931 . S
C246 C245 1.380 . S
C246 C247 1.387 . S
C247 H203 0.930 . S
C247 C242 1.386 . S
C247 C246 1.387 . S
C248 C217 1.519 . S
C248 C249 1.377 . S
C248 C253 1.361 . S
C249 H204 0.929 . S
C249 C248 1.377 . S
C249 C250 1.386 . S
C250 H205 0.931 . S
C250 C249 1.386 . S
C250 C251 1.363 . S
C251 C250 1.363 . S
C251 C252 1.385 . S
C252 H206 0.930 . S
C252 C251 1.385 . S
C252 C253 1.396 . S
C253 H207 0.929 . S
C253 C248 1.361 . S
C253 C252 1.396 . S
C254 O208 1.300 . S
C254 O209 1.209 . S
C254 C227 1.486 . S
C255 O210 1.199 . S
C255 O211 1.297 . S
C255 C239 1.476 . S
H256 O282 0.856 . S
H257 O285 0.854 . S
H258 C293 0.930 . S
H259 C294 0.930 . S
H260 C296 0.930 . S
H261 C297 0.930 . S
H262 C299 0.931 . S
H263 C300 0.930 . S
H264 C302 0.930 . S
H265 C303 0.945 . S
H266 C305 0.930 . S
H267 C306 0.931 1_554 S
H268 C308 0.930 . S
H269 C309 0.929 . S
H270 C311 0.931 . S
H271 C312 0.930 . S
H272 C314 0.930 . S
H273 C315 0.932 . S
H274 C317 0.930 . S
H275 C318 0.929 . S
H276 C320 0.931 . S
H277 C321 0.930 . S
H278 C323 0.929 . S
H279 C324 0.931 . S
H280 C326 0.930 . S
H281 C327 0.929 . S
O282 H256 0.856 . S
O282 C328 1.300 . S
O283 C328 1.209 . S
O284 C329 1.199 . S
O285 H257 0.854 . S
O285 C329 1.297 . S
C286 C287 1.404 . S
C286 C291 1.397 . S
C286 C292 1.492 . S
C287 C286 1.404 . S
C287 C288 1.396 . S
C287 C298 1.492 . S
C288 C287 1.396 . S
C288 C289 1.397 . S
C288 C304 1.509 . S
C289 C288 1.397 . S
C289 C290 1.412 . S
C289 C310 1.485 . S
C290 C289 1.412 . S
C290 C291 1.388 . S
C290 C316 1.490 . S
C291 C286 1.397 . S
C291 C290 1.388 . S
C291 C322 1.519 . S
C292 C286 1.492 . S
C292 C293 1.363 . S
C292 C297 1.390 . S
C293 H258 0.930 . S
C293 C292 1.363 . S
C293 C294 1.372 . S
C294 H259 0.930 . S
C294 C293 1.372 . S
C294 C295 1.383 . S
C295 C294 1.383 . S
C295 C296 1.395 . S
C296 H260 0.930 . S
C296 C295 1.395 . S
C296 C297 1.362 . S
C297 H261 0.930 . S
C297 C292 1.390 . S
C297 C296 1.362 . S
C298 C287 1.492 . S
C298 C299 1.377 1_556 S
C298 C303 1.405 . S
C299 H262 0.931 . S
C299 C298 1.377 1_554 S
C299 C300 1.376 . S
C300 H263 0.930 . S
C300 C299 1.376 . S
C300 C301 1.376 . S
C301 C300 1.376 . S
C301 C302 1.378 . S
C301 C328 1.486 . S
C302 H264 0.930 . S
C302 C301 1.378 . S
C302 C303 1.353 1_554 S
C303 H265 0.945 . S
C303 C298 1.405 . S
C303 C302 1.353 1_556 S
C304 C288 1.509 . S
C304 C305 1.391 . S
C304 C309 1.386 . S
C305 H266 0.930 . S
C305 C304 1.391 . S
C305 C306 1.375 . S
C306 H267 0.931 1_556 S
C306 C305 1.375 . S
C306 C307 1.375 1_556 S
C307 C306 1.375 1_554 S
C307 C308 1.361 . S
C308 H268 0.930 . S
C308 C307 1.361 . S
C308 C309 1.399 1_554 S
C309 H269 0.929 . S
C309 C304 1.386 . S
C309 C308 1.399 1_556 S
C310 C289 1.485 . S
C310 C311 1.394 . S
C310 C315 1.360 . S
C311 H270 0.931 . S
C311 C310 1.394 . S
C311 C312 1.372 . S
C312 H271 0.930 . S
C312 C311 1.372 . S
C312 C313 1.397 . S
C313 C312 1.397 . S
C313 C314 1.390 . S
C313 C329 1.476 . S
C314 H272 0.930 . S
C314 C313 1.390 . S
C314 C315 1.366 . S
C315 H273 0.932 . S
C315 C310 1.360 . S
C315 C314 1.366 . S
C316 C290 1.490 . S
C316 C317 1.380 . S
C316 C321 1.386 . S
C317 H274 0.930 . S
C317 C316 1.380 . S
C317 C318 1.381 . S
C318 H275 0.929 . S
C318 C317 1.381 . S
C318 C319 1.371 . S
C319 C318 1.371 . S
C319 C320 1.380 . S
C320 H276 0.931 . S
C320 C319 1.380 . S
C320 C321 1.387 . S
C321 H277 0.930 . S
C321 C316 1.386 . S
C321 C320 1.387 . S
C322 C291 1.519 . S
C322 C323 1.377 . S
C322 C327 1.361 . S
C323 H278 0.929 . S
C323 C322 1.377 . S
C323 C324 1.386 . S
C324 H279 0.931 . S
C324 C323 1.386 . S
C324 C325 1.363 . S
C325 C324 1.363 . S
C325 C326 1.385 . S
C326 H280 0.930 . S
C326 C325 1.385 . S
C326 C327 1.396 . S
C327 H281 0.929 . S
C327 C322 1.361 . S
C327 C326 1.396 . S
C328 O282 1.300 . S
C328 O283 1.209 . S
C328 C301 1.486 . S
C329 O284 1.199 . S
C329 O285 1.297 . S
C329 C313 1.476 . S
C330 C331 1.387 . S
C330 H334 0.950 . S
C330 C339 1.390 . S
C331 C330 1.387 . S
C331 C333 1.387 . S
H332 C339 0.950 . S
C333 C331 1.387 . S
C333 C335 1.390 1_455 S
C333 H337 0.950 1_455 S
H334 C330 0.950 . S
C335 C333 1.390 1_655 S
C335 C336 1.387 1_655 S
C335 H338 0.950 . S
C336 C335 1.387 1_455 S
C336 C339 1.387 . S
H337 C333 0.950 1_655 S
H338 C335 0.950 . S
C339 C330 1.390 . S
C339 H332 0.950 . S
C339 C336 1.387 . S
C340 C341 1.387 1_565 S
C340 H344 0.950 . S
C340 C349 1.390 . S
C341 C340 1.387 1_545 S
C341 C343 1.387 . S
H342 C349 0.950 . S
C343 C341 1.387 . S
C343 C345 1.390 . S
C343 H347 0.950 . S
H344 C340 0.950 . S
C345 C343 1.390 . S
C345 C346 1.387 . S
C345 H348 0.950 . S
C346 C345 1.387 . S
C346 C349 1.387 1_545 S
H347 C343 0.950 . S
H348 C345 0.950 . S
C349 C340 1.390 . S
C349 H342 0.950 . S
C349 C346 1.387 1_565 S
C350 C351 1.387 . S
C350 H354 0.950 1_565 S
C350 C359 1.390 . S
C351 C350 1.387 . S
C351 C353 1.387 . S
H352 C359 0.950 . S
C353 C351 1.387 . S
C353 C355 1.390 . S
C353 H357 0.950 . S
H354 C350 0.950 1_545 S
C355 C353 1.390 . S
C355 C356 1.387 . S
C355 H358 0.950 . S
C356 C355 1.387 . S
C356 C359 1.387 . S
H357 C353 0.950 . S
H358 C355 0.950 . S
C359 C350 1.390 . S
C359 H352 0.950 . S
C359 C356 1.387 . S
C360 C361 1.387 . S
C360 H364 0.950 . S
C360 C369 1.390 . S
C361 C360 1.387 . S
C361 C363 1.387 . S
H362 C369 0.950 . S
C363 C361 1.387 . S
C363 C365 1.390 . S
C363 H367 0.950 1_565 S
H364 C360 0.950 . S
C365 C363 1.390 . S
C365 C366 1.387 . S
C365 H368 0.950 . S
C366 C365 1.387 . S
C366 C369 1.387 . S
H367 C363 0.950 1_545 S
H368 C365 0.950 . S
C369 C360 1.390 . S
C369 H362 0.950 . S
C369 C366 1.387 . S
C370 C371 1.387 . S
C370 H374 0.950 . S
C370 C379 1.390 . S
C371 C370 1.387 . S
C371 C373 1.387 . S
H372 C379 0.950 . S
C373 C371 1.387 . S
C373 C375 1.390 . S
C373 H377 0.950 . S
H374 C370 0.950 . S
C375 C373 1.390 . S
C375 C376 1.387 . S
C375 H378 0.950 . S
C376 C375 1.387 . S
C376 C379 1.387 . S
H377 C373 0.950 . S
H378 C375 0.950 . S
C379 C370 1.390 . S
C379 H372 0.950 . S
C379 C376 1.387 . S
C380 C381 1.387 . S
C380 H384 0.950 . S
C380 C389 1.390 . S
C381 C380 1.387 . S
C381 C383 1.387 . S
H382 C389 0.950 . S
C383 C381 1.387 . S
C383 C385 1.390 . S
C383 H387 0.950 . S
H384 C380 0.950 . S
C385 C383 1.390 . S
C385 C386 1.387 . S
C385 H388 0.950 . S
C386 C385 1.387 . S
C386 C389 1.387 . S
H387 C383 0.950 . S
H388 C385 0.950 . S
C389 C380 1.390 . S
C389 H382 0.950 . S
C389 C386 1.387 . S
C390 C391 1.387 . S
C390 H394 0.950 1_655 S
C390 C399 1.390 . S
C391 C390 1.387 . S
C391 C393 1.387 . S
H392 C399 0.950 . S
C393 C391 1.387 . S
C393 C395 1.390 . S
C393 H397 0.950 . S
H394 C390 0.950 1_455 S
C395 C393 1.390 . S
C395 C396 1.387 . S
C395 H398 0.950 . S
C396 C395 1.387 . S
C396 C399 1.387 . S
H397 C393 0.950 . S
H398 C395 0.950 . S
C399 C390 1.390 . S
C399 H392 0.950 . S
C399 C396 1.387 . S
C400 C401 1.387 1_545 S
C400 H404 0.950 . S
C400 C409 1.390 1_554 S
C401 C400 1.387 1_565 S
C401 C403 1.387 . S
H402 C409 0.950 . S
C403 C401 1.387 . S
C403 C405 1.390 . S
C403 H407 0.950 . S
H404 C400 0.950 . S
C405 C403 1.390 . S
C405 C406 1.387 1_554 S
C405 H408 0.937 1_554 S
C406 C405 1.387 1_556 S
C406 C409 1.388 1_565 S
H407 C403 0.950 . S
H408 C405 0.937 1_556 S
C409 C400 1.390 1_556 S
C409 H402 0.950 . S
C409 C406 1.388 1_545 S
C410 C411 1.389 . S
C410 H414 0.950 . S
C410 C419 1.390 . S
C411 C410 1.389 . S
C411 C413 1.387 1_455 S
H412 C419 0.950 . S
C413 C411 1.387 1_655 S
C413 C415 1.390 . S
C413 H417 0.950 . S
H414 C410 0.950 . S
C415 C413 1.390 . S
C415 C416 1.387 . S
C415 H418 0.950 . S
C416 C415 1.387 . S
C416 C419 1.387 1_655 S
H417 C413 0.950 . S
H418 C415 0.950 . S
C419 C410 1.390 . S
C419 H412 0.950 . S
C419 C416 1.387 1_455 S
C420 C421 1.387 . S
C420 H424 0.950 . S
C420 C429 1.390 . S
C421 C420 1.387 . S
C421 C423 1.387 . S
H422 C429 0.950 . S
C423 C421 1.387 . S
C423 C425 1.390 . S
C423 H427 0.950 . S
H424 C420 0.950 . S
C425 C423 1.390 . S
C425 C426 1.387 . S
C425 H428 0.950 . S
C426 C425 1.387 . S
C426 C429 1.387 . S
H427 C423 0.950 . S
H428 C425 0.950 . S
C429 C420 1.390 . S
C429 H422 0.950 . S
C429 C426 1.387 . S
C430 C431 1.387 . S
C430 H434 0.950 . S
C430 C439 1.390 . S
C431 C430 1.387 . S
C431 C433 1.387 . S
H432 C439 0.950 1_556 S
C433 C431 1.387 . S
C433 C435 1.390 . S
C433 H437 0.950 . S
H434 C430 0.950 . S
C435 C433 1.390 . S
C435 C436 1.387 . S
C435 H438 0.950 . S
C436 C435 1.387 . S
C436 C439 1.387 . S
H437 C433 0.950 . S
H438 C435 0.950 . S
C439 C430 1.390 . S
C439 H432 0.950 1_554 S
C439 C436 1.387 . S
C440 C441 1.387 . S
C440 H444 0.950 . S
C440 C449 1.390 . S
C441 C440 1.387 . S
C441 C443 1.387 1_455 S
H442 C449 0.950 . S
C443 C441 1.387 1_655 S
C443 C445 1.392 1_655 S
C443 H447 0.950 . S
H444 C440 0.950 . S
C445 C443 1.392 1_455 S
C445 C446 1.391 . S
C445 H448 0.944 1_455 S
C446 C445 1.391 . S
C446 C449 1.387 . S
H447 C443 0.950 . S
H448 C445 0.944 1_655 S
C449 C440 1.390 . S
C449 H442 0.950 . S
C449 C446 1.387 . S
C336 C147 1.508 . S
C331 C14 1.698 . S
C341 C40 1.543 . S
C346 C221 1.468 . S
C351 C76 2.012 1_665 S
C356 C325 2.028 . S
C361 C3 0.928 . S
C366 C159 0.927 . S
C376 C233 1.008 . S
C371 C38 1.032 . S
C381 C74 1.766 . S
C386 C319 1.559 . S
C396 C251 2.026 . S
C391 C86 1.995 1_655 S
C401 C2 1.630 1_665 S
C406 C295 1.498 . S
C416 C171 1.544 . S
C411 C39 1.733 . S
C426 C245 1.487 . S
C421 C75 1.655 . S
C436 C307 0.937 . S
C431 C4 0.932 . S
C441 C50 2.040 . S
C446 C177 2.091 . S
