# Generated by pormake.
# Topology tsx, (6,3)-cn, num edge types: 1
# Building blocks:
#     Node 0, Type 0, BuildingBlock: MIDCAF_clean_sbu_0, # of connection points: 6
#     Node 1, Type 0, BuildingBlock: MIDCAF_clean_sbu_0, # of connection points: 6
#     Node 2, Type 1, BuildingBlock: BELTOD_clean_linker_0, # of connection points: 3
#     Node 3, Type 1, BuildingBlock: BELTOD_clean_linker_0, # of connection points: 3
#     Node 4, Type 1, BuildingBlock: BELTOD_clean_linker_0, # of connection points: 3
#     Node 5, Type 1, BuildingBlock: BELTOD_clean_linker_0, # of connection points: 3
#     Edge 6, Type (0, 1), BuildingBlock: AJUNOK_clean_linker_0, # of connection points: 2
#     Edge 7, Type (0, 1), BuildingBlock: AJUNOK_clean_linker_0, # of connection points: 2
#     Edge 8, Type (0, 1), BuildingBlock: AJUNOK_clean_linker_0, # of connection points: 2
#     Edge 9, Type (0, 1), BuildingBlock: AJUNOK_clean_linker_0, # of connection points: 2
#     Edge 10, Type (0, 1), BuildingBlock: AJUNOK_clean_linker_0, # of connection points: 2
#     Edge 11, Type (0, 1), BuildingBlock: AJUNOK_clean_linker_0, # of connection points: 2
#     Edge 12, Type (0, 1), BuildingBlock: AJUNOK_clean_linker_0, # of connection points: 2
#     Edge 13, Type (0, 1), BuildingBlock: AJUNOK_clean_linker_0, # of connection points: 2
#     Edge 14, Type (0, 1), BuildingBlock: AJUNOK_clean_linker_0, # of connection points: 2
#     Edge 15, Type (0, 1), BuildingBlock: AJUNOK_clean_linker_0, # of connection points: 2
#     Edge 16, Type (0, 1), BuildingBlock: AJUNOK_clean_linker_0, # of connection points: 2
#     Edge 17, Type (0, 1), BuildingBlock: AJUNOK_clean_linker_0, # of connection points: 2
# Relax obj value: 0.109
# Max RMSD: 0.178
# Mean RMSD: 0.106
data_MOF--net-tsx--node1-MIDCAF_clean_sbu_0--node2-BELTOD_clean_linker_0--edge1-AJUNOK_clean_linker_0
_symmetry_space_group_name_H-M    P1
_symmetry_Int_Tables_number       1
_symmetry_cell_setting            triclinic
loop_
_symmetry_equiv_pos_as_xyz
'x, y, z'
_cell_length_a     17.045271
_cell_length_b     17.851237
_cell_length_c     32.838601
_cell_angle_alpha  91.149109
_cell_angle_beta   96.099993
_cell_angle_gamma 89.906683
loop_
_atom_site_label
_atom_site_type_symbol
_atom_site_fract_x
_atom_site_fract_y
_atom_site_fract_z
_atom_type_partial_charge
Zn0 Zn 0.89438 0.01204 0.96181 0.0
Zn1 Zn 0.15268 0.0071 0.0631 0.0
Zn2 Zn 0.0306 0.01583 0.01039 0.0
C3 C 0.13051 0.15911 0.04358 0.0
C4 C 0.1886 0.91903 0.99867 0.0
O5 O 0.93889 0.95208 0.03812 0.0
O6 O 0.82979 0.95128 0.99502 0.0
C7 C 0.93483 0.163 0.97778 0.0
O8 O 0.07016 0.13301 0.02087 0.0
O9 O 0.17641 0.11556 0.06451 0.0
O10 O 0.2165 0.93737 0.03451 0.0
O11 O 0.12191 0.94582 0.98312 0.0
O12 O 0.88008 0.12208 0.96073 0.0
O13 O 0.9972 0.13383 0.99678 0.0
O14 O 0.05717 0.95875 0.95336 0.0
O15 O 0.94135 0.96141 0.91567 0.0
C16 C 0.01366 0.94426 0.9196 0.0
O17 O 0.99841 0.97248 0.06988 0.0
O18 O 0.10997 0.96682 0.11068 0.0
C19 C 0.86708 0.93054 0.0281 0.0
C20 C 0.03639 0.95797 0.10494 0.0
Zn21 Zn 0.63852 0.49859 0.55956 0.0
Zn22 Zn 0.37425 0.50871 0.46425 0.0
Zn23 Zn 0.51287 0.5088 0.51111 0.0
C24 C 0.4912 0.45156 0.41723 0.0
C25 C 0.41534 0.65808 0.48609 0.0
O26 O 0.48664 0.45573 0.56905 0.0
O27 O 0.60302 0.44393 0.60483 0.0
C28 C 0.67221 0.42294 0.49112 0.0
O29 O 0.53537 0.46059 0.45132 0.0
O30 O 0.41871 0.46781 0.41474 0.0
O31 O 0.35945 0.61868 0.46885 0.0
O32 O 0.47906 0.62738 0.50257 0.0
O33 O 0.70534 0.44208 0.52583 0.0
O34 O 0.60103 0.44369 0.47954 0.0
O35 O 0.55343 0.62602 0.5255 0.0
O36 O 0.65929 0.60605 0.56891 0.0
C37 C 0.61284 0.65098 0.54945 0.0
O38 O 0.42438 0.43889 0.53796 0.0
O39 O 0.31433 0.43985 0.49565 0.0
C40 C 0.52937 0.43493 0.60166 0.0
C41 C 0.35324 0.41569 0.52751 0.0
P42 P 0.12348 0.11848 0.39057 0.0
H43 H 0.10552 0.26429 0.43012 0.0
H44 H 0.9895 0.3281 0.45124 0.0
H45 H 0.85451 0.12369 0.429 0.0
H46 H 0.97268 0.05888 0.41125 0.0
H47 H 0.29412 0.10084 0.3971 0.0
H48 H 0.38271 0.00712 0.42994 0.0
H49 H 0.18765 0.91085 0.48462 0.0
H50 H 0.09917 0.00537 0.45193 0.0
H51 H 0.9714 0.13135 0.33927 0.0
H52 H 0.1831 -0.0016 0.3403 0.0
O53 O 0.17488 0.18901 0.37388 0.0
H54 H 0.91674 0.06829 0.27662 0.0
H55 H 0.1333 0.94219 0.27478 0.0
C56 C 0.04677 0.15762 0.41793 0.0
C57 C 0.05156 0.23269 0.43095 0.0
C58 C 0.98484 0.26933 0.44244 0.0
C59 C 0.91207 0.23162 0.4406 0.0
C60 C 0.90944 0.15451 0.43092 0.0
C61 C 0.977 0.11737 0.42062 0.0
C62 C 0.19008 0.06018 0.42217 0.0
C63 C 0.27073 0.06109 0.41716 0.0
C64 C 0.32142 0.00755 0.43594 0.0
C65 C 0.29222 0.95194 0.45994 0.0
C66 C 0.21216 0.95388 0.46691 0.0
C67 C 0.16135 0.00749 0.44797 0.0
C68 C 0.08015 0.06723 0.34581 0.0
C69 C 0.0055 0.087 0.32679 0.0
C70 C 0.97455 0.05158 0.29032 0.0
C71 C 0.01949 -0.00131 0.2706 0.0
C72 C 0.09477 0.97957 0.28968 0.0
C73 C 0.12427 0.01287 0.32707 0.0
P74 P 0.09443 0.92665 0.61582 0.0
H75 H 0.024 0.82502 0.55129 0.0
H76 H 0.88774 0.79116 0.52911 0.0
H77 H 0.80721 0.9684 0.60594 0.0
H78 H 0.94493 0.00137 0.62874 0.0
H79 H 0.22539 0.01345 0.65645 0.0
H80 H 0.28589 0.13187 0.64103 0.0
H81 H 0.12395 0.14795 0.531 0.0
H82 H 0.06098 0.03075 0.54773 0.0
H83 H 0.1172 0.79992 0.67138 0.0
H84 H 0.06806 0.03645 0.68021 0.0
O85 O 0.15098 0.8586 0.59923 0.0
H86 H 0.11452 0.78989 0.74577 0.0
H87 H 0.06599 0.02678 0.75419 0.0
C88 C 0.99459 0.91446 0.59244 0.0
C89 C 0.97728 0.85769 0.56284 0.0
C90 C 0.89905 0.83883 0.54983 0.0
C91 C 0.83652 0.87639 0.56622 0.0
C92 C 0.8541 0.9376 0.5933 0.0
C93 C 0.93271 0.95646 0.60633 0.0
C94 C 0.1371 0.01461 0.60394 0.0
C95 C 0.20197 0.04303 0.62935 0.0
C96 C 0.23723 0.11026 0.62025 0.0
C97 C 0.20977 0.14915 0.5848 0.0
C98 C 0.14556 0.11976 0.5589 0.0
C99 C 0.10965 0.05277 0.56835 0.0
C100 C 0.09443 0.91922 0.67045 0.0
C101 C 0.10667 0.84975 0.68934 0.0
C102 C 0.10503 0.844 0.73172 0.0
C103 C 0.09101 0.90776 0.75566 0.0
C104 C 0.07846 0.97708 0.73652 0.0
C105 C 0.07934 0.98258 0.69425 0.0
P106 P 0.63118 0.61994 0.8799 0.0
H107 H 0.59987 0.664 0.96331 0.0
H108 H 0.4865 0.72676 0.98952 0.0
H109 H 0.36041 0.7165 0.86832 0.0
H110 H 0.47313 0.6559 0.84237 0.0
H111 H 0.80239 0.60937 0.89032 0.0
H112 H 0.8925 0.51597 0.92215 0.0
H113 H 0.69664 0.40631 0.96958 0.0
H114 H 0.60696 0.50227 0.93907 0.0
H115 H 0.62044 0.65689 0.79356 0.0
H116 H 0.56294 0.46922 0.86571 0.0
O117 O 0.68049 0.69535 0.8674 0.0
H118 H 0.56275 0.59183 0.73162 0.0
H119 H 0.50575 0.40309 0.80321 0.0
C120 C 0.54438 0.65327 0.90124 0.0
C121 C 0.54706 0.67365 0.94274 0.0
C122 C 0.4823 0.70937 0.95757 0.0
C123 C 0.41436 0.72569 0.9309 0.0
C124 C 0.41182 0.70442 0.88951 0.0
C125 C 0.47629 0.66896 0.8748 0.0
C126 C 0.69787 0.56269 0.91226 0.0
C127 C 0.779 0.56663 0.90862 0.0
C128 C 0.8305 0.51274 0.9265 0.0
C129 C 0.80148 0.45277 0.94754 0.0
C130 C 0.72086 0.45186 0.95354 0.0
C131 C 0.66942 0.50645 0.93599 0.0
C132 C 0.59802 0.56711 0.83411 0.0
C133 C 0.59644 0.60127 0.79606 0.0
C134 C 0.56219 0.56457 0.76079 0.0
C135 C 0.5289 0.49296 0.76288 0.0
C136 C 0.53073 0.45841 0.80096 0.0
C137 C 0.56435 0.49574 0.83648 0.0
P138 P 0.58785 0.45534 0.11413 0.0
H139 H 0.52707 0.36627 0.04205 0.0
H140 H 0.39373 0.32841 0.01616 0.0
H141 H 0.29952 0.48312 0.10135 0.0
H142 H 0.43416 0.52019 0.12766 0.0
H143 H 0.7222 0.5341 0.15659 0.0
H144 H 0.78708 0.65216 0.14445 0.0
H145 H 0.62017 0.68653 0.03798 0.0
H146 H 0.55338 0.56963 0.05124 0.0
H147 H 0.59496 0.32484 0.16717 0.0
H148 H 0.56282 0.56365 0.17952 0.0
O149 O 0.6466 0.38815 0.09853 0.0
H150 H 0.58625 0.31181 0.241 0.0
H151 H 0.55546 0.55098 0.25291 0.0
C152 C 0.49041 0.44425 0.08761 0.0
C153 C 0.47783 0.39367 0.05443 0.0
C154 C 0.4012 0.37288 0.03916 0.0
C155 C 0.33584 0.40263 0.05678 0.0
C156 C 0.3487 0.4591 0.08727 0.0
C157 C 0.42558 0.47991 0.1025 0.0
C158 C 0.63227 0.54386 0.10523 0.0
C159 C 0.69891 0.56757 0.13093 0.0
C160 C 0.73642 0.63466 0.12375 0.0
C161 C 0.70924 0.67814 0.08998 0.0
C162 C 0.64207 0.65434 0.06437 0.0
C163 C 0.60401 0.58747 0.07184 0.0
C164 C 0.58188 0.44545 0.16817 0.0
C165 C 0.5871 0.37446 0.18582 0.0
C166 C 0.58218 0.36702 0.22784 0.0
C167 C 0.57249 0.43065 0.25265 0.0
C168 C 0.56553 0.50137 0.23463 0.0
C169 C 0.56946 0.5086 0.19269 0.0
C170 C 0.17665 0.27302 0.08226 0.0
C171 C 0.15268 0.23873 0.04412 0.0
C172 C 0.22867 0.33382 0.0855 0.0
C173 C 0.25948 0.36166 0.05069 0.0
H174 H 0.16148 0.24791 0.11017 0.0
H175 H 0.25163 0.35315 0.11592 0.0
S176 S 0.19915 0.30291 0.94295 0.0
N177 N 0.15089 0.24547 0.9703 0.0
N178 N 0.24967 0.36003 0.97622 0.0
C179 C 0.22766 0.33415 0.01193 0.0
C180 C 0.17375 0.27254 0.00867 0.0
C181 C 0.26282 0.87986 0.9402 0.0
C182 C 0.23275 0.86285 0.97702 0.0
C183 C 0.31954 0.83343 0.92454 0.0
C184 C 0.34822 0.76905 0.94549 0.0
H185 H 0.24648 0.93158 0.92491 0.0
H186 H 0.34402 0.85011 0.89698 0.0
S187 S 0.28036 0.69608 0.04062 0.0
N188 N 0.23009 0.77445 0.03219 0.0
N189 N 0.33622 0.68712 0.00269 0.0
C190 C 0.31523 0.74961 0.98117 0.0
C191 C 0.25759 0.79659 0.99695 0.0
C192 C 0.7495 0.87389 0.05435 0.0
C193 C 0.83123 0.87277 0.05165 0.0
C194 C 0.71095 0.81195 0.06861 0.0
C195 C 0.75266 0.74631 0.08014 0.0
H196 H 0.71465 0.92199 0.04393 0.0
H197 H 0.64763 0.81462 0.06941 0.0
S198 S 0.96738 0.7145 0.0775 0.0
N199 N 0.95281 0.80113 0.06174 0.0
N200 N 0.88034 0.68401 0.08767 0.0
C201 C 0.83493 0.7454 0.07873 0.0
C202 C 0.87425 0.80886 0.0647 0.0
C203 C 0.88599 0.28291 0.00501 0.0
C204 C 0.92413 0.24445 0.97499 0.0
C205 C 0.8506 0.35299 0.997 0.0
C206 C 0.85219 0.38668 0.95866 0.0
H207 H 0.87848 0.25625 0.0337 0.0
H208 H 0.81838 0.3792 0.02018 0.0
S209 S 0.94924 0.30918 0.87087 0.0
N210 N 0.96556 0.24587 0.90675 0.0
N211 N 0.89915 0.37701 0.89121 0.0
C212 C 0.89463 0.35038 0.92939 0.0
C213 C 0.93046 0.27927 0.93767 0.0
C214 C 0.66643 0.76008 0.51655 0.0
C215 C 0.63667 0.73025 0.55106 0.0
C216 C 0.72567 0.81522 0.52104 0.0
C217 C 0.75624 0.84244 0.56014 0.0
H218 H 0.65134 0.73425 0.4866 0.0
H219 H 0.75295 0.83129 0.49419 0.0
S220 S 0.68378 0.79342 0.65889 0.0
N221 N 0.63104 0.74065 0.62435 0.0
N222 N 0.74177 0.84417 0.63311 0.0
C223 C 0.71862 0.82035 0.59411 0.0
C224 C 0.65875 0.76419 0.58945 0.0
C225 C 0.76671 0.39261 0.44122 0.0
C226 C 0.71382 0.36789 0.46789 0.0
C227 C 0.82776 0.34608 0.43051 0.0
C228 C 0.83944 0.27422 0.44725 0.0
H229 H 0.76477 0.44997 0.43115 0.0
H230 H 0.86858 0.36813 0.41062 0.0
S231 S 0.71335 0.18347 0.51748 0.0
N232 N 0.67268 0.26641 0.50876 0.0
N233 N 0.78963 0.17976 0.49042 0.0
C234 C 0.78396 0.2476 0.47227 0.0
C235 C 0.72077 0.29447 0.48229 0.0
C236 C 0.23774 0.34766 0.54941 0.0
C237 C 0.31997 0.3529 0.54879 0.0
C238 C 0.2028 0.28234 0.56213 0.0
C239 C 0.24869 0.2196 0.57444 0.0
H240 H 0.1999 0.39363 0.53881 0.0
H241 H 0.13913 0.28047 0.56161 0.0
S242 S 0.46627 0.20347 0.57681 0.0
N243 N 0.44624 0.2892 0.56093 0.0
N244 N 0.38064 0.16645 0.58471 0.0
C245 C 0.33118 0.22462 0.57479 0.0
C246 C 0.36676 0.29131 0.56202 0.0
C247 C 0.40694 0.77387 0.44646 0.0
C248 C 0.40642 0.7397 0.4845 0.0
C249 C 0.37529 0.84549 0.4399 0.0
C250 C 0.34082 0.8849 0.47103 0.0
H251 H 0.42708 0.74296 0.42079 0.0
H252 H 0.37246 0.86763 0.4093 0.0
S253 S 0.33485 0.82319 0.57777 0.0
N254 N 0.37677 0.75263 0.55493 0.0
N255 N 0.31637 0.8878 0.54267 0.0
C256 C 0.3451 0.85335 0.5101 0.0
C257 C 0.37823 0.7805 0.51684 0.0
C258 C 0.96114 0.01415 0.15688 0.0
C259 C 0.99573 0.94951 0.14168 0.0
C260 C 0.96148 0.02668 0.19912 0.0
C261 C 0.99461 0.9739 0.22745 0.0
H262 H 0.94404 0.05986 0.13656 0.0
H263 H 0.94352 0.08151 0.20931 0.0
S264 S 0.06655 0.78448 0.20129 0.0
N265 N 0.04778 0.82561 0.1567 0.0
N266 N 0.04199 0.84576 0.23612 0.0
C267 C 0.01646 0.90364 0.21192 0.0
C268 C 0.0184 0.89212 0.16894 0.0
C269 C 0.10907 0.96036 0.86851 0.0
C270 C 0.04828 0.91828 0.88263 0.0
C271 C 0.12661 0.95285 0.82785 0.0
C272 C 0.08421 0.90267 0.80015 0.0
H273 H 0.13862 0.00383 0.88789 0.0
H274 H 0.17053 0.98956 0.81737 0.0
S275 S 0.92542 0.7739 0.82373 0.0
N276 N 0.95034 0.82042 0.86716 0.0
N277 N 0.98362 0.80565 0.79079 0.0
C278 C 0.02753 0.85617 0.81488 0.0
C279 C 0.00931 0.86433 0.85613 0.0
C280 C 0.44343 0.47301 0.65365 0.0
C281 C 0.49453 0.41884 0.63959 0.0
C282 C 0.44664 0.49093 0.69554 0.0
C283 C 0.49943 0.45369 0.72423 0.0
H284 H 0.41038 0.50962 0.63217 0.0
H285 H 0.41467 0.5397 0.70497 0.0
S286 S 0.62428 0.29052 0.7032 0.0
N287 N 0.58324 0.31548 0.65765 0.0
N288 N 0.58854 0.3483 0.73655 0.0
C289 C 0.53909 0.39025 0.71103 0.0
C290 C 0.53625 0.37254 0.66843 0.0
C291 C 0.48321 0.38487 0.34968 0.0
C292 C 0.52528 0.43224 0.379 0.0
C293 C 0.50282 0.38013 0.30932 0.0
C294 C 0.5641 0.42386 0.29683 0.0
H295 H 0.43221 0.35426 0.35748 0.0
H296 H 0.46642 0.34602 0.28713 0.0
S297 S 0.69522 0.55292 0.36239 0.0
N298 N 0.63362 0.52032 0.39337 0.0
N299 N 0.67054 0.51144 0.31746 0.0
C300 C 0.60947 0.46804 0.32641 0.0
C301 C 0.5901 0.47216 0.36758 0.0
loop_
_geom_bond_atom_site_label_1
_geom_bond_atom_site_label_2
_geom_bond_distance
_geom_bond_site_symmetry_2
_ccdc_geom_bond_type
Zn0 O6 1.920 1_545 S
Zn0 O12 1.898 . S
Zn0 O15 1.905 1_545 S
Zn1 O9 1.905 . S
Zn1 O10 1.898 1_545 S
Zn1 O18 1.920 1_545 S
Zn2 O5 2.080 1_445 S
Zn2 O8 2.114 . S
Zn2 O11 2.120 1_545 S
Zn2 O13 2.120 1_455 S
Zn2 O14 2.114 1_554 S
Zn2 O17 2.080 . S
C3 O8 1.166 . S
C3 O9 1.182 . S
C4 O10 1.167 . S
C4 O11 1.299 . S
O5 Zn2 2.080 1_665 S
O5 C19 1.305 . S
O6 Zn0 1.920 1_565 S
O6 C19 1.234 1_556 S
C7 O12 1.167 . S
C7 O13 1.299 1_556 S
O8 Zn2 2.114 . S
O8 C3 1.166 . S
O9 Zn1 1.905 . S
O9 C3 1.182 . S
O10 Zn1 1.898 1_565 S
O10 C4 1.167 . S
O11 Zn2 2.120 1_565 S
O11 C4 1.299 . S
O12 Zn0 1.898 . S
O12 C7 1.167 . S
O13 Zn2 2.120 1_655 S
O13 C7 1.299 1_554 S
O14 Zn2 2.114 1_556 S
O14 C16 1.166 1_445 S
O15 Zn0 1.905 1_565 S
O15 C16 1.182 . S
C16 O14 1.166 1_665 S
C16 O15 1.182 . S
O17 Zn2 2.080 . S
O17 C20 1.305 1_545 S
O18 Zn1 1.920 1_565 S
O18 C20 1.234 . S
C19 O5 1.305 . S
C19 O6 1.234 1_554 S
C20 O17 1.305 1_565 S
C20 O18 1.234 . S
Zn21 O27 1.920 . S
Zn21 O33 1.898 . S
Zn21 O36 1.905 . S
Zn22 O30 1.905 . S
Zn22 O31 1.898 . S
Zn22 O39 1.920 . S
Zn23 O26 2.080 . S
Zn23 O29 2.114 . S
Zn23 O32 2.120 . S
Zn23 O34 2.120 . S
Zn23 O35 2.114 . S
Zn23 O38 2.080 . S
C24 O29 1.166 . S
C24 O30 1.182 . S
C25 O31 1.167 . S
C25 O32 1.299 . S
O26 Zn23 2.080 . S
O26 C40 1.305 . S
O27 Zn21 1.920 . S
O27 C40 1.234 . S
C28 O33 1.167 . S
C28 O34 1.299 . S
O29 Zn23 2.114 . S
O29 C24 1.166 . S
O30 Zn22 1.905 . S
O30 C24 1.182 . S
O31 Zn22 1.898 . S
O31 C25 1.167 . S
O32 Zn23 2.120 . S
O32 C25 1.299 . S
O33 Zn21 1.898 . S
O33 C28 1.167 . S
O34 Zn23 2.120 . S
O34 C28 1.299 . S
O35 Zn23 2.114 . S
O35 C37 1.166 . S
O36 Zn21 1.905 . S
O36 C37 1.182 . S
C37 O35 1.166 . S
C37 O36 1.182 . S
O38 Zn23 2.080 . S
O38 C41 1.305 . S
O39 Zn22 1.920 . S
O39 C41 1.234 . S
C40 O26 1.305 . S
C40 O27 1.234 . S
C41 O38 1.305 . S
C41 O39 1.234 . S
P42 O53 1.490 . S
P42 C56 1.812 . S
P42 C62 1.803 . S
P42 C68 1.819 . S
H43 C57 0.941 . S
H44 C58 0.939 . S
H45 C60 0.940 . S
H46 C61 0.940 . S
H47 C63 0.939 . S
H48 C64 0.942 . S
H49 C66 0.940 . S
H50 C67 0.939 . S
H51 C69 0.941 . S
H52 C73 0.939 1_565 S
O53 P42 1.490 . S
H54 C70 0.939 . S
H55 C72 0.940 . S
C56 P42 1.812 . S
C56 C57 1.389 . S
C56 C61 1.391 1_455 S
C57 H43 0.941 . S
C57 C56 1.389 . S
C57 C58 1.397 . S
C58 H44 0.939 . S
C58 C57 1.397 . S
C58 C59 1.378 1_455 S
C59 C58 1.378 1_655 S
C59 C60 1.378 . S
C60 H45 0.940 . S
C60 C59 1.378 . S
C60 C61 1.396 . S
C61 H46 0.940 . S
C61 C56 1.391 1_655 S
C61 C60 1.396 . S
C62 P42 1.803 . S
C62 C63 1.378 . S
C62 C67 1.400 1_545 S
C63 H47 0.939 . S
C63 C62 1.378 . S
C63 C64 1.361 1_545 S
C64 H48 0.942 . S
C64 C63 1.361 1_565 S
C64 C65 1.369 . S
C65 C64 1.369 . S
C65 C66 1.404 . S
C66 H49 0.940 . S
C66 C65 1.404 . S
C66 C67 1.389 . S
C67 H50 0.939 . S
C67 C62 1.400 1_565 S
C67 C66 1.389 . S
C68 P42 1.819 . S
C68 C69 1.391 . S
C68 C73 1.391 . S
C69 H51 0.941 . S
C69 C68 1.391 . S
C69 C70 1.396 . S
C70 H54 0.939 . S
C70 C69 1.396 . S
C70 C71 1.397 . S
C71 C70 1.397 . S
C71 C72 1.385 1_545 S
C72 H55 0.940 . S
C72 C71 1.385 1_565 S
C72 C73 1.388 1_565 S
C73 H52 0.939 1_545 S
C73 C68 1.391 . S
C73 C72 1.388 1_545 S
P74 O85 1.490 . S
P74 C88 1.812 1_455 S
P74 C94 1.803 1_565 S
P74 C100 1.819 . S
H75 C89 0.941 1_455 S
H76 C90 0.939 . S
H77 C92 0.940 . S
H78 C93 0.940 . S
H79 C95 0.939 . S
H80 C96 0.942 . S
H81 C98 0.940 . S
H82 C99 0.939 . S
H83 C101 0.941 . S
H84 C105 0.939 . S
O85 P74 1.490 . S
H86 C102 0.939 . S
H87 C104 0.940 . S
C88 P74 1.812 1_655 S
C88 C89 1.389 . S
C88 C93 1.391 . S
C89 H75 0.941 1_655 S
C89 C88 1.389 . S
C89 C90 1.397 . S
C90 H76 0.939 . S
C90 C89 1.397 . S
C90 C91 1.378 . S
C91 C90 1.378 . S
C91 C92 1.378 . S
C92 H77 0.940 . S
C92 C91 1.378 . S
C92 C93 1.396 . S
C93 H78 0.940 . S
C93 C88 1.391 . S
C93 C92 1.396 . S
C94 P74 1.803 1_545 S
C94 C95 1.378 . S
C94 C99 1.400 . S
C95 H79 0.939 . S
C95 C94 1.378 . S
C95 C96 1.361 . S
C96 H80 0.942 . S
C96 C95 1.361 . S
C96 C97 1.369 . S
C97 C96 1.369 . S
C97 C98 1.404 . S
C98 H81 0.940 . S
C98 C97 1.404 . S
C98 C99 1.389 . S
C99 H82 0.939 . S
C99 C94 1.400 . S
C99 C98 1.389 . S
C100 P74 1.819 . S
C100 C101 1.391 . S
C100 C105 1.391 1_565 S
C101 H83 0.941 . S
C101 C100 1.391 . S
C101 C102 1.396 . S
C102 H86 0.939 . S
C102 C101 1.396 . S
C102 C103 1.397 1_565 S
C103 C102 1.397 1_545 S
C103 C104 1.385 . S
C104 H87 0.940 . S
C104 C103 1.385 . S
C104 C105 1.388 . S
C105 H84 0.939 . S
C105 C100 1.391 1_545 S
C105 C104 1.388 . S
P106 O117 1.490 . S
P106 C120 1.812 . S
P106 C126 1.803 . S
P106 C132 1.819 . S
H107 C121 0.941 . S
H108 C122 0.943 . S
H109 C124 0.940 . S
H110 C125 0.940 . S
H111 C127 0.939 . S
H112 C128 0.942 . S
H113 C130 0.940 . S
H114 C131 0.939 . S
H115 C133 0.941 . S
H116 C137 0.939 . S
O117 P106 1.490 . S
H118 C134 0.939 . S
H119 C136 0.940 . S
C120 P106 1.812 . S
C120 C121 1.389 . S
C120 C125 1.391 . S
C121 H107 0.941 . S
C121 C120 1.389 . S
C121 C122 1.397 . S
C122 H108 0.943 . S
C122 C121 1.397 . S
C122 C123 1.378 . S
C123 C122 1.378 . S
C123 C124 1.378 . S
C124 H109 0.940 . S
C124 C123 1.378 . S
C124 C125 1.396 . S
C125 H110 0.940 . S
C125 C120 1.391 . S
C125 C124 1.396 . S
C126 P106 1.803 . S
C126 C127 1.378 . S
C126 C131 1.400 . S
C127 H111 0.939 . S
C127 C126 1.378 . S
C127 C128 1.361 . S
C128 H112 0.942 . S
C128 C127 1.361 . S
C128 C129 1.369 . S
C129 C128 1.369 . S
C129 C130 1.404 . S
C130 H113 0.940 . S
C130 C129 1.404 . S
C130 C131 1.389 . S
C131 H114 0.939 . S
C131 C126 1.400 . S
C131 C130 1.389 . S
C132 P106 1.819 . S
C132 C133 1.391 . S
C132 C137 1.391 . S
C133 H115 0.941 . S
C133 C132 1.391 . S
C133 C134 1.396 . S
C134 H118 0.939 . S
C134 C133 1.396 . S
C134 C135 1.397 . S
C135 C134 1.397 . S
C135 C136 1.385 . S
C136 H119 0.940 . S
C136 C135 1.385 . S
C136 C137 1.388 . S
C137 H116 0.939 . S
C137 C132 1.391 . S
C137 C136 1.388 . S
P138 O149 1.490 . S
P138 C152 1.812 . S
P138 C158 1.803 . S
P138 C164 1.819 . S
H139 C153 0.941 . S
H140 C154 0.939 . S
H141 C156 0.940 . S
H142 C157 0.940 . S
H143 C159 0.939 . S
H144 C160 0.942 . S
H145 C162 0.940 . S
H146 C163 0.939 . S
H147 C165 0.941 . S
H148 C169 0.939 . S
O149 P138 1.490 . S
H150 C166 0.939 . S
H151 C168 0.940 . S
C152 P138 1.812 . S
C152 C153 1.389 . S
C152 C157 1.391 . S
C153 H139 0.941 . S
C153 C152 1.389 . S
C153 C154 1.397 . S
C154 H140 0.939 . S
C154 C153 1.397 . S
C154 C155 1.378 . S
C155 C154 1.378 . S
C155 C156 1.378 . S
C156 H141 0.940 . S
C156 C155 1.378 . S
C156 C157 1.396 . S
C157 H142 0.940 . S
C157 C152 1.391 . S
C157 C156 1.396 . S
C158 P138 1.803 . S
C158 C159 1.378 . S
C158 C163 1.400 . S
C159 H143 0.939 . S
C159 C158 1.378 . S
C159 C160 1.361 . S
C160 H144 0.942 . S
C160 C159 1.361 . S
C160 C161 1.369 . S
C161 C160 1.369 . S
C161 C162 1.404 . S
C162 H145 0.940 . S
C162 C161 1.404 . S
C162 C163 1.389 . S
C163 H146 0.939 . S
C163 C158 1.400 . S
C163 C162 1.389 . S
C164 P138 1.819 . S
C164 C165 1.391 . S
C164 C169 1.391 . S
C165 H147 0.941 . S
C165 C164 1.391 . S
C165 C166 1.396 . S
C166 H150 0.939 . S
C166 C165 1.396 . S
C166 C167 1.397 . S
C167 C166 1.397 . S
C167 C168 1.385 . S
C168 H151 0.940 . S
C168 C167 1.385 . S
C168 C169 1.388 . S
C169 H148 0.939 . S
C169 C164 1.391 . S
C169 C168 1.388 . S
C170 C171 1.369 . S
C170 C172 1.419 . S
C170 H174 0.930 . S
C171 C170 1.369 . S
C171 C180 1.429 1_554 S
C172 C170 1.419 . S
C172 C173 1.363 . S
C172 H175 0.929 . S
C173 C172 1.363 . S
C173 C179 1.428 . S
H174 C170 0.930 . S
H175 C172 0.929 . S
S176 N177 1.613 . S
S176 N178 1.610 . S
N177 S176 1.613 . S
N177 C180 1.350 . S
N178 S176 1.610 . S
N178 C179 1.351 1_556 S
C179 C173 1.428 . S
C179 N178 1.351 1_554 S
C179 C180 1.434 1_554 S
C180 C171 1.429 1_556 S
C180 N177 1.350 . S
C180 C179 1.434 1_556 S
C181 C182 1.369 . S
C181 C183 1.419 . S
C181 H185 0.930 . S
C182 C181 1.369 . S
C182 C191 1.429 1_556 S
C183 C181 1.419 . S
C183 C184 1.363 . S
C183 H186 0.929 . S
C184 C183 1.363 . S
C184 C190 1.428 1_556 S
H185 C181 0.930 . S
H186 C183 0.929 . S
S187 N188 1.613 . S
S187 N189 1.610 . S
N188 S187 1.613 . S
N188 C191 1.350 . S
N189 S187 1.610 . S
N189 C190 1.351 . S
C190 C184 1.428 1_554 S
C190 N189 1.351 . S
C190 C191 1.434 . S
C191 C182 1.429 1_554 S
C191 N188 1.350 . S
C191 C190 1.434 . S
C192 C193 1.369 . S
C192 C194 1.419 . S
C192 H196 0.930 . S
C193 C192 1.369 . S
C193 C202 1.429 . S
C194 C192 1.419 . S
C194 C195 1.363 . S
C194 H197 0.929 . S
C195 C194 1.363 . S
C195 C201 1.428 . S
H196 C192 0.930 . S
H197 C194 0.929 . S
S198 N199 1.613 . S
S198 N200 1.610 . S
N199 S198 1.613 . S
N199 C202 1.350 1_556 S
N200 S198 1.610 . S
N200 C201 1.351 1_556 S
C201 C195 1.428 . S
C201 N200 1.351 1_554 S
C201 C202 1.434 . S
C202 C193 1.429 . S
C202 N199 1.350 1_554 S
C202 C201 1.434 . S
C203 C204 1.369 1_554 S
C203 C205 1.419 . S
C203 H207 0.930 . S
C204 C203 1.369 1_556 S
C204 C213 1.429 . S
C205 C203 1.419 . S
C205 C206 1.363 1_554 S
C205 H208 0.929 . S
C206 C205 1.363 1_556 S
C206 C212 1.428 . S
H207 C203 0.930 . S
H208 C205 0.929 . S
S209 N210 1.613 . S
S209 N211 1.610 . S
N210 S209 1.613 . S
N210 C213 1.350 . S
N211 S209 1.610 . S
N211 C212 1.351 . S
C212 C206 1.428 . S
C212 N211 1.351 . S
C212 C213 1.434 . S
C213 C204 1.429 . S
C213 N210 1.350 . S
C213 C212 1.434 . S
C214 C215 1.369 . S
C214 C216 1.419 . S
C214 H218 0.930 . S
C215 C214 1.369 . S
C215 C224 1.429 . S
C216 C214 1.419 . S
C216 C217 1.363 . S
C216 H219 0.929 . S
C217 C216 1.363 . S
C217 C223 1.428 . S
H218 C214 0.930 . S
H219 C216 0.929 . S
S220 N221 1.613 . S
S220 N222 1.610 . S
N221 S220 1.613 . S
N221 C224 1.350 . S
N222 S220 1.610 . S
N222 C223 1.351 . S
C223 C217 1.428 . S
C223 N222 1.351 . S
C223 C224 1.434 . S
C224 C215 1.429 . S
C224 N221 1.350 . S
C224 C223 1.434 . S
C225 C226 1.369 . S
C225 C227 1.419 . S
C225 H229 0.930 . S
C226 C225 1.369 . S
C226 C235 1.429 . S
C227 C225 1.419 . S
C227 C228 1.363 . S
C227 H230 0.929 . S
C228 C227 1.363 . S
C228 C234 1.428 . S
H229 C225 0.930 . S
H230 C227 0.929 . S
S231 N232 1.613 . S
S231 N233 1.610 . S
N232 S231 1.613 . S
N232 C235 1.350 . S
N233 S231 1.610 . S
N233 C234 1.351 . S
C234 C228 1.428 . S
C234 N233 1.351 . S
C234 C235 1.434 . S
C235 C226 1.429 . S
C235 N232 1.350 . S
C235 C234 1.434 . S
C236 C237 1.369 . S
C236 C238 1.419 . S
C236 H240 0.930 . S
C237 C236 1.369 . S
C237 C246 1.429 . S
C238 C236 1.419 . S
C238 C239 1.363 . S
C238 H241 0.929 . S
C239 C238 1.363 . S
C239 C245 1.428 . S
H240 C236 0.930 . S
H241 C238 0.929 . S
S242 N243 1.613 . S
S242 N244 1.610 . S
N243 S242 1.613 . S
N243 C246 1.350 . S
N244 S242 1.610 . S
N244 C245 1.351 . S
C245 C239 1.428 . S
C245 N244 1.351 . S
C245 C246 1.434 . S
C246 C237 1.429 . S
C246 N243 1.350 . S
C246 C245 1.434 . S
C247 C248 1.369 . S
C247 C249 1.419 . S
C247 H251 0.930 . S
C248 C247 1.369 . S
C248 C257 1.429 . S
C249 C247 1.419 . S
C249 C250 1.363 . S
C249 H252 0.929 . S
C250 C249 1.363 . S
C250 C256 1.428 . S
H251 C247 0.930 . S
H252 C249 0.929 . S
S253 N254 1.613 . S
S253 N255 1.610 . S
N254 S253 1.613 . S
N254 C257 1.350 . S
N255 S253 1.610 . S
N255 C256 1.351 . S
C256 C250 1.428 . S
C256 N255 1.351 . S
C256 C257 1.434 . S
C257 C248 1.429 . S
C257 N254 1.350 . S
C257 C256 1.434 . S
C258 C259 1.369 1_545 S
C258 C260 1.419 . S
C258 H262 0.930 . S
C259 C258 1.369 1_565 S
C259 C268 1.429 . S
C260 C258 1.419 . S
C260 C261 1.363 . S
C260 H263 0.929 . S
C261 C260 1.363 . S
C261 C267 1.428 1_545 S
H262 C258 0.930 . S
H263 C260 0.929 . S
S264 N265 1.613 . S
S264 N266 1.610 . S
N265 S264 1.613 . S
N265 C268 1.350 1_655 S
N266 S264 1.610 . S
N266 C267 1.351 1_655 S
C267 C261 1.428 1_565 S
C267 N266 1.351 1_455 S
C267 C268 1.434 . S
C268 C259 1.429 . S
C268 N265 1.350 1_455 S
C268 C267 1.434 . S
C269 C270 1.369 1_545 S
C269 C271 1.419 . S
C269 H273 0.930 . S
C270 C269 1.369 1_565 S
C270 C279 1.429 1_455 S
C271 C269 1.419 . S
C271 C272 1.363 . S
C271 H274 0.929 . S
C272 C271 1.363 . S
C272 C278 1.428 1_445 S
H273 C269 0.930 . S
H274 C271 0.929 . S
S275 N276 1.613 . S
S275 N277 1.610 . S
N276 S275 1.613 . S
N276 C279 1.350 . S
N277 S275 1.610 . S
N277 C278 1.351 . S
C278 C272 1.428 1_665 S
C278 N277 1.351 . S
C278 C279 1.434 . S
C279 C270 1.429 1_655 S
C279 N276 1.350 . S
C279 C278 1.434 . S
C280 C281 1.369 . S
C280 C282 1.419 . S
C280 H284 0.930 . S
C281 C280 1.369 . S
C281 C290 1.429 . S
C282 C280 1.419 . S
C282 C283 1.363 . S
C282 H285 0.929 . S
C283 C282 1.363 . S
C283 C289 1.428 . S
H284 C280 0.930 . S
H285 C282 0.929 . S
S286 N287 1.613 . S
S286 N288 1.610 . S
N287 S286 1.613 . S
N287 C290 1.350 . S
N288 S286 1.610 . S
N288 C289 1.351 . S
C289 C283 1.428 . S
C289 N288 1.351 . S
C289 C290 1.434 . S
C290 C281 1.429 . S
C290 N287 1.350 . S
C290 C289 1.434 . S
C291 C292 1.369 . S
C291 C293 1.419 . S
C291 H295 0.930 . S
C292 C291 1.369 . S
C292 C301 1.429 . S
C293 C291 1.419 . S
C293 C294 1.363 . S
C293 H296 0.929 . S
C294 C293 1.363 . S
C294 C300 1.428 . S
H295 C291 0.930 . S
H296 C293 0.929 . S
S297 N298 1.613 . S
S297 N299 1.610 . S
N298 S297 1.613 . S
N298 C301 1.350 . S
N299 S297 1.610 . S
N299 C300 1.351 . S
C300 C294 1.428 . S
C300 N299 1.351 . S
C300 C301 1.434 . S
C301 C292 1.429 . S
C301 N298 1.350 . S
C301 C300 1.434 . S
C173 C155 1.309 . S
C171 C3 1.208 . S
C182 C4 1.466 1_556 S
C184 C123 1.580 . S
C193 C19 1.491 . S
C195 C161 1.574 . S
C204 C7 1.204 . S
C206 C129 1.318 . S
C215 C37 1.206 . S
C217 C91 1.307 . S
C226 C28 1.473 . S
C228 C59 1.583 . S
C239 C97 1.571 . S
C237 C41 1.495 . S
C250 C65 1.322 . S
C248 C25 1.208 . S
C259 C20 1.338 . S
C261 C71 1.512 . S
C270 C16 1.365 1_455 S
C272 C103 1.481 . S
C283 C135 1.511 . S
C281 C40 1.336 . S
C292 C24 1.359 . S
C294 C167 1.486 . S
