# Generated by pormake.
# Topology apo, (3,6)-cn, num edge types: 1
# Building blocks:
#     Node 0, Type 0, BuildingBlock: QEWDON_clean_linker_0, # of connection points: 3
#     Node 1, Type 0, BuildingBlock: QEWDON_clean_linker_0, # of connection points: 3
#     Node 2, Type 0, BuildingBlock: QEWDON_clean_linker_0, # of connection points: 3
#     Node 3, Type 0, BuildingBlock: QEWDON_clean_linker_0, # of connection points: 3
#     Node 4, Type 0, BuildingBlock: QEWDON_clean_linker_0, # of connection points: 3
#     Node 5, Type 0, BuildingBlock: QEWDON_clean_linker_0, # of connection points: 3
#     Node 6, Type 0, BuildingBlock: QEWDON_clean_linker_0, # of connection points: 3
#     Node 7, Type 0, BuildingBlock: QEWDON_clean_linker_0, # of connection points: 3
#     Node 8, Type 1, BuildingBlock: KUMBOL_clean_sbu_1, # of connection points: 6
#     Node 9, Type 1, BuildingBlock: KUMBOL_clean_sbu_1, # of connection points: 6
#     Node 10, Type 1, BuildingBlock: KUMBOL_clean_sbu_1, # of connection points: 6
#     Node 11, Type 1, BuildingBlock: KUMBOL_clean_sbu_1, # of connection points: 6
#     Edge 12, Type (0, 1), BuildingBlock: AJUNOK_clean_linker_0, # of connection points: 2
#     Edge 13, Type (0, 1), BuildingBlock: AJUNOK_clean_linker_0, # of connection points: 2
#     Edge 14, Type (0, 1), BuildingBlock: AJUNOK_clean_linker_0, # of connection points: 2
#     Edge 15, Type (0, 1), BuildingBlock: AJUNOK_clean_linker_0, # of connection points: 2
#     Edge 16, Type (0, 1), BuildingBlock: AJUNOK_clean_linker_0, # of connection points: 2
#     Edge 17, Type (0, 1), BuildingBlock: AJUNOK_clean_linker_0, # of connection points: 2
#     Edge 18, Type (0, 1), BuildingBlock: AJUNOK_clean_linker_0, # of connection points: 2
#     Edge 19, Type (0, 1), BuildingBlock: AJUNOK_clean_linker_0, # of connection points: 2
#     Edge 20, Type (0, 1), BuildingBlock: AJUNOK_clean_linker_0, # of connection points: 2
#     Edge 21, Type (0, 1), BuildingBlock: AJUNOK_clean_linker_0, # of connection points: 2
#     Edge 22, Type (0, 1), BuildingBlock: AJUNOK_clean_linker_0, # of connection points: 2
#     Edge 23, Type (0, 1), BuildingBlock: AJUNOK_clean_linker_0, # of connection points: 2
#     Edge 24, Type (0, 1), BuildingBlock: AJUNOK_clean_linker_0, # of connection points: 2
#     Edge 25, Type (0, 1), BuildingBlock: AJUNOK_clean_linker_0, # of connection points: 2
#     Edge 26, Type (0, 1), BuildingBlock: AJUNOK_clean_linker_0, # of connection points: 2
#     Edge 27, Type (0, 1), BuildingBlock: AJUNOK_clean_linker_0, # of connection points: 2
#     Edge 28, Type (0, 1), BuildingBlock: AJUNOK_clean_linker_0, # of connection points: 2
#     Edge 29, Type (0, 1), BuildingBlock: AJUNOK_clean_linker_0, # of connection points: 2
#     Edge 30, Type (0, 1), BuildingBlock: AJUNOK_clean_linker_0, # of connection points: 2
#     Edge 31, Type (0, 1), BuildingBlock: AJUNOK_clean_linker_0, # of connection points: 2
#     Edge 32, Type (0, 1), BuildingBlock: AJUNOK_clean_linker_0, # of connection points: 2
#     Edge 33, Type (0, 1), BuildingBlock: AJUNOK_clean_linker_0, # of connection points: 2
#     Edge 34, Type (0, 1), BuildingBlock: AJUNOK_clean_linker_0, # of connection points: 2
#     Edge 35, Type (0, 1), BuildingBlock: AJUNOK_clean_linker_0, # of connection points: 2
# Relax obj value: 0.076
# Max RMSD: 0.275
# Mean RMSD: 0.216
data_MOF--net-apo--node1-KUMBOL_clean_sbu_1--node2-QEWDON_clean_linker_0--edge1-AJUNOK_clean_linker_0
_symmetry_space_group_name_H-M    P1
_symmetry_Int_Tables_number       1
_symmetry_cell_setting            triclinic
loop_
_symmetry_equiv_pos_as_xyz
'x, y, z'
_cell_length_a     22.76298
_cell_length_b     31.584338
_cell_length_c     40.081585
_cell_angle_alpha  89.748179
_cell_angle_beta   90.012082
_cell_angle_gamma 90.736378
loop_
_atom_site_label
_atom_site_type_symbol
_atom_site_fract_x
_atom_site_fract_y
_atom_site_fract_z
_atom_type_partial_charge
H0 H 0.27388 0.39875 0.3702 0.0
C1 C 0.29358 0.39986 0.39481 0.0
C2 C 0.34304 0.42606 0.40051 0.0
C3 C 0.268 0.37674 0.42133 0.0
H4 H 0.40347 0.45045 0.43709 0.0
C5 C 0.36707 0.42871 0.43265 0.0
C6 C 0.34238 0.40591 0.45939 0.0
C7 C 0.2929 0.37993 0.45348 0.0
C8 C 0.21154 0.35314 0.41687 0.0
H9 H 0.27302 0.36263 0.47408 0.0
C10 C 0.20405 0.32138 0.39238 0.0
C11 C 0.15012 0.29895 0.38997 0.0
C12 C 0.16436 0.36241 0.43816 0.0
H13 H 0.16872 0.38684 0.45694 0.0
C14 C 0.11098 0.34062 0.43539 0.0
H15 H 0.24004 0.31362 0.3759 0.0
C16 C 0.1039 0.30903 0.41155 0.0
H17 H 0.06221 0.29218 0.40999 0.0
H18 H 0.07502 0.34813 0.45192 0.0
H19 H 0.2413 0.12574 0.86657 0.0
C20 C 0.21932 0.12253 0.89045 0.0
C21 C 0.17132 0.09428 0.89385 0.0
C22 C 0.24086 0.1447 0.9184 0.0
H23 H 0.11054 0.06434 0.92801 0.0
C24 C 0.14548 0.08777 0.92534 0.0
C25 C 0.1668 0.10916 0.95359 0.0
C26 C 0.2129 0.13878 0.94948 0.0
C27 C 0.29758 0.16882 0.91706 0.0
H28 H 0.22883 0.15628 0.97093 0.0
C29 C 0.31 0.20023 0.89262 0.0
C30 C 0.36457 0.22234 0.89301 0.0
C31 C 0.34049 0.15964 0.94122 0.0
H32 H 0.33277 0.13527 0.95989 0.0
C33 C 0.39402 0.1813 0.94158 0.0
H34 H 0.27762 0.20744 0.87368 0.0
C35 C 0.40595 0.21243 0.91783 0.0
H36 H 0.44776 0.22915 0.91904 0.0
H37 H 0.42645 0.17397 0.96042 0.0
H38 H 0.75986 0.12445 0.69011 0.0
C39 C 0.77825 0.12605 0.66519 0.0
C40 C 0.82718 0.10128 0.65695 0.0
C41 C 0.7496 0.14973 0.64045 0.0
H42 H 0.88437 0.0817 0.61676 0.0
C43 C 0.84759 0.10131 0.62363 0.0
C44 C 0.81949 0.12533 0.59886 0.0
C45 C 0.77121 0.14987 0.60771 0.0
C46 C 0.69173 0.16881 0.64677 0.0
H47 H 0.74778 0.16712 0.58849 0.0
C48 C 0.68513 0.20322 0.66859 0.0
C49 C 0.63031 0.22313 0.6712 0.0
C50 C 0.64289 0.15372 0.6287 0.0
H51 H 0.64712 0.12721 0.61184 0.0
C52 C 0.58845 0.17293 0.63187 0.0
H53 H 0.72265 0.21538 0.68236 0.0
C54 C 0.58222 0.20767 0.65278 0.0
H55 H 0.53973 0.22256 0.65465 0.0
H56 H 0.55116 0.16117 0.61777 0.0
H57 H 0.74236 0.39364 0.18855 0.0
C58 C 0.73212 0.39761 0.16232 0.0
C59 C 0.68462 0.42313 0.15259 0.0
C60 C 0.76912 0.37969 0.13827 0.0
H61 H 0.63915 0.45022 0.11039 0.0
C62 C 0.67385 0.42935 0.11836 0.0
C63 C 0.70963 0.41097 0.09407 0.0
C64 C 0.75679 0.38584 0.10421 0.0
C65 C 0.82563 0.36043 0.14825 0.0
H66 H 0.78596 0.3729 0.08557 0.0
C67 C 0.82829 0.32571 0.17049 0.0
C68 C 0.88306 0.30796 0.17856 0.0
C69 C 0.87809 0.3775 0.13504 0.0
H70 H 0.87721 0.40444 0.11822 0.0
C71 C 0.93216 0.36035 0.14356 0.0
H72 H 0.78822 0.31192 0.1806 0.0
C73 C 0.9347 0.32566 0.16505 0.0
H74 H 0.97708 0.31225 0.17093 0.0
H75 H 0.97223 0.37377 0.13323 0.0
H76 H 0.67517 0.66015 0.68695 0.0
C77 C 0.67689 0.64786 0.66178 0.0
C78 C 0.65706 0.60606 0.65516 0.0
C79 C 0.69736 0.67391 0.63538 0.0
H80 H 0.63919 0.5597 0.61674 0.0
C81 C 0.65651 0.59109 0.62215 0.0
C82 C 0.67581 0.617 0.59594 0.0
C83 C 0.69821 0.65733 0.60292 0.0
C84 C 0.71224 0.71977 0.63934 0.0
H85 H 0.71469 0.67667 0.58243 0.0
C86 C 0.75243 0.73534 0.66349 0.0
C87 C 0.77005 0.77856 0.66284 0.0
C88 C 0.68875 0.74823 0.61582 0.0
H89 H 0.65668 0.73765 0.59758 0.0
C90 C 0.70775 0.7901 0.61444 0.0
H91 H 0.77014 0.71417 0.68219 0.0
C92 C 0.74896 0.80492 0.6372 0.0
H93 H 0.76375 0.83757 0.63506 0.0
H94 H 0.69075 0.81113 0.59545 0.0
H95 H 0.82364 0.87298 0.18584 0.0
C96 C 0.82504 0.88604 0.16081 0.0
C97 C 0.84554 0.92797 0.15571 0.0
C98 C 0.80933 0.86041 0.13336 0.0
H99 H 0.86732 0.97587 0.11921 0.0
C100 C 0.85028 0.94399 0.12303 0.0
C101 C 0.83595 0.91886 0.09525 0.0
C102 C 0.81451 0.8775 0.10081 0.0
C103 C 0.79553 0.81414 0.13739 0.0
H104 H 0.80466 0.85757 0.07955 0.0
C105 C 0.75415 0.79782 0.16088 0.0
C106 C 0.74193 0.7536 0.16246 0.0
C107 C 0.82473 0.78562 0.11642 0.0
H108 H 0.85765 0.79673 0.09882 0.0
C109 C 0.81229 0.74248 0.11772 0.0
H110 H 0.73189 0.81914 0.17762 0.0
C111 C 0.77112 0.72664 0.14026 0.0
H112 H 0.76219 0.69285 0.14041 0.0
H113 H 0.8348 0.72112 0.10114 0.0
H114 H 0.19225 0.86368 0.35294 0.0
C115 C 0.18047 0.86811 0.37888 0.0
C116 C 0.15606 0.90663 0.38933 0.0
C117 C 0.18636 0.83419 0.40132 0.0
H118 H 0.11985 0.94026 0.43144 0.0
C119 C 0.13998 0.91122 0.42315 0.0
C120 C 0.14747 0.87791 0.44614 0.0
C121 C 0.17051 0.83949 0.43489 0.0
C122 C 0.19743 0.79105 0.38872 0.0
H123 H 0.17306 0.81276 0.4519 0.0
C124 C 0.25326 0.77837 0.37752 0.0
C125 C 0.26172 0.73631 0.36686 0.0
C126 C 0.1503 0.76195 0.38828 0.0
H127 H 0.10707 0.77122 0.39666 0.0
C128 C 0.15821 0.72088 0.3768 0.0
H129 H 0.28995 0.80057 0.37802 0.0
C130 C 0.21341 0.7081 0.36615 0.0
H131 H 0.21844 0.67598 0.35728 0.0
H132 H 0.12146 0.69881 0.37629 0.0
H133 H 0.34295 0.66871 0.86198 0.0
C134 C 0.34019 0.65864 0.88775 0.0
C135 C 0.35681 0.6172 0.89737 0.0
C136 C 0.32458 0.68871 0.91199 0.0
H137 H 0.36949 0.57571 0.94014 0.0
C138 C 0.35725 0.60701 0.93175 0.0
C139 C 0.34578 0.6375 0.95604 0.0
C140 C 0.32701 0.67746 0.94591 0.0
C141 C 0.31282 0.73377 0.9034 0.0
H142 H 0.31835 0.70116 0.9647 0.0
C143 C 0.26968 0.74563 0.87986 0.0
C144 C 0.25259 0.7886 0.87688 0.0
C145 C 0.34199 0.76546 0.92182 0.0
H146 H 0.37648 0.75749 0.93931 0.0
C147 C 0.32565 0.80747 0.91907 0.0
H148 H 0.24929 0.72135 0.86466 0.0
C149 C 0.28053 0.81879 0.89763 0.0
H150 H 0.26737 0.85159 0.89771 0.0
H151 H 0.34715 0.8313 0.93428 0.0
C152 C 0.84311 0.04173 0.30807 0.0
C153 C 0.86331 0.97125 0.3289 0.0
C154 C 0.88158 1.01337 0.32263 0.0
C155 C 0.80675 0.95784 0.31921 0.0
C156 C 0.78584 0.02878 0.29907 0.0
C157 C 0.76808 0.98655 0.30438 0.0
N158 N 0.86218 0.08207 0.30237 0.0
C159 C 0.82521 0.11179 0.28971 0.0
C160 C 0.74808 0.05879 0.2852 0.0
C161 C 0.7677 0.10056 0.28081 0.0
Gd162 Gd 0.06976 0.10533 0.23933 0.0
Gd163 Gd 0.95857 0.09849 0.31883 0.0
N164 N 0.93598 0.02739 0.33179 0.0
C165 C 0.90188 0.94421 0.34554 0.0
C166 C 0.97148 1.00223 0.35052 0.0
C167 C 0.95579 0.96002 0.35693 0.0
H168 H 0.01116 0.01492 0.36143 0.0
H169 H 0.98483 0.93994 0.37117 0.0
H170 H 0.05419 0.20243 0.20909 0.0
H171 H 0.83996 0.14419 0.28663 0.0
H172 H 0.11022 0.2703 0.20687 0.0
H173 H 0.88957 0.91161 0.3508 0.0
H174 H 0.7921 0.92552 0.32363 0.0
H175 H 0.17171 0.03011 0.25649 0.0
H176 H 0.70364 0.05013 0.27806 0.0
H177 H 0.73859 0.12407 0.2705 0.0
H178 H 0.29257 0.23862 0.26154 0.0
H179 H 0.72435 0.97589 0.29744 0.0
H180 H 0.3289 0.09332 0.28825 0.0
H181 H 0.27209 0.02719 0.27884 0.0
N182 N 0.16821 0.09762 0.25701 0.0
C183 C 0.20032 0.13409 0.25963 0.0
C184 C 0.19453 0.05943 0.26202 0.0
C185 C 0.28406 0.09492 0.27931 0.0
C186 C 0.2521 0.05754 0.27408 0.0
C187 C 0.2589 0.13378 0.27113 0.0
H188 H 0.33603 0.17237 0.28187 0.0
N189 N 0.12039 0.17033 0.23623 0.0
C190 C 0.17607 0.17147 0.24829 0.0
C191 C 0.1847 0.24553 0.23352 0.0
C192 C 0.20932 0.2094 0.248 0.0
C193 C 0.09752 0.20455 0.22007 0.0
C194 C 0.12905 0.24284 0.21883 0.0
O195 O 0.93141 0.06978 0.26861 0.0
O196 O 0.01668 0.0448 0.24578 0.0
O197 O 0.03949 0.11713 0.18894 0.0
O198 O 0.12051 0.08392 0.19652 0.0
O199 O 0.05039 0.07243 0.32423 0.0
O200 O 0.07434 0.04636 0.27242 0.0
O201 O 0.0657 0.16049 0.27552 0.0
O202 O 0.05032 0.1259 0.32465 0.0
O203 O 0.95005 0.09171 0.37236 0.0
O204 O 0.91493 0.14702 0.34819 0.0
O205 O 0.97771 0.13146 0.23528 0.0
O206 O 0.9504 0.15753 0.28672 0.0
C207 C 0.95938 0.04264 0.24966 0.0
C208 C 0.07666 0.04457 0.3053 0.0
C209 C 0.0694 0.07226 0.14565 0.0
C210 C 0.07585 0.06143 0.08538 0.0
C211 C 0.01627 0.01399 0.11992 0.0
C212 C 0.03187 0.03692 0.14839 0.0
C213 C 0.03783 0.02622 0.08856 0.0
C214 C 0.09133 0.08436 0.11419 0.0
C215 C 0.08349 0.0986 0.17478 0.0
C216 C 0.2665 0.20968 0.26114 0.0
C217 C 0.29121 0.17195 0.27275 0.0
H218 H 0.2089 0.27529 0.23272 0.0
C219 C 0.07027 0.15883 0.30807 0.0
C220 C 0.95211 0.16027 0.25381 0.0
C221 C 0.8691 0.12205 0.39834 0.0
C222 C 0.83028 0.1154 0.45499 0.0
C223 C 0.76625 0.10424 0.4072 0.0
C224 C 0.81319 0.11229 0.38557 0.0
C225 C 0.77472 0.10549 0.44171 0.0
C226 C 0.87732 0.12404 0.43316 0.0
C227 C 0.92048 0.12617 0.37617 0.0
H228 H 0.98733 0.9867 0.12223 0.0
H229 H 0.01429 0.0274 0.1724 0.0
H230 H 0.02559 1.00787 0.06684 0.0
H231 H 0.11962 0.11214 0.11205 0.0
H232 H 0.72327 0.09655 0.39719 0.0
H233 H 0.80591 0.11027 0.359 0.0
H234 H 0.73785 0.09887 0.45809 0.0
H235 H 0.92055 0.13107 0.44326 0.0
C236 C 0.69756 0.45414 0.78946 0.0
C237 C 0.70267 0.53098 0.78889 0.0
C238 C 0.6711 0.49297 0.79463 0.0
C239 C 0.76099 0.52943 0.77759 0.0
C240 C 0.75632 0.45246 0.77849 0.0
C241 C 0.78777 0.49029 0.77246 0.0
N242 N 0.66585 0.41807 0.79525 0.0
C243 C 0.69082 0.37934 0.79154 0.0
C244 C 0.78173 0.41279 0.77388 0.0
C245 C 0.7489 0.37608 0.7806 0.0
Gd246 Gd 0.43415 0.42055 0.74644 0.0
Gd247 Gd 0.56823 0.42682 0.81256 0.0
N248 N 0.61419 0.4934 0.8051 0.0
C249 C 0.67471 0.56942 0.79482 0.0
C250 C 0.58768 0.5307 0.81226 0.0
C251 C 0.61714 0.56924 0.80686 0.0
H252 H 0.54395 0.5309 0.82209 0.0
H253 H 0.59549 0.59879 0.8121 0.0
H254 H 0.4671 0.31732 0.73634 0.0
H255 H 0.66631 0.35088 0.79754 0.0
H256 H 0.42078 0.24759 0.74554 0.0
H257 H 0.6974 0.59934 0.79064 0.0
H258 H 0.78587 0.55832 0.7729 0.0
H259 H 0.32711 0.4909 0.7532 0.0
H260 H 0.82675 0.41016 0.76544 0.0
H261 H 0.76841 0.34527 0.77756 0.0
H262 H 0.224 0.27977 0.77898 0.0
H263 H 0.83288 0.48961 0.76387 0.0
H264 H 0.16919 0.42574 0.78239 0.0
H265 H 0.2225 0.49277 0.7699 0.0
N266 N 0.33396 0.42474 0.75935 0.0
C267 C 0.30493 0.38744 0.76455 0.0
C268 C 0.30481 0.46208 0.76035 0.0
C269 C 0.21534 0.42504 0.77583 0.0
C270 C 0.24533 0.46295 0.76898 0.0
C271 C 0.24488 0.38659 0.77322 0.0
H272 H 0.17015 0.34626 0.78554 0.0
N273 N 0.39316 0.35196 0.75236 0.0
C274 C 0.33521 0.34993 0.76067 0.0
C275 C 0.33796 0.27348 0.76076 0.0
C276 C 0.30629 0.31063 0.76557 0.0
C277 C 0.42304 0.31583 0.74563 0.0
C278 C 0.39637 0.27612 0.75029 0.0
O279 O 0.57991 0.45668 0.76132 0.0
O280 O 0.48947 0.48053 0.7444 0.0
O281 O 0.44259 0.39686 0.69599 0.0
O282 O 0.38305 0.44798 0.70603 0.0
O283 O 0.4805 0.4568 0.82451 0.0
O284 O 0.43413 0.48116 0.77699 0.0
O285 O 0.42009 0.39108 0.79804 0.0
O286 O 0.5113 0.36781 0.81407 0.0
O287 O 0.56072 0.44618 0.86439 0.0
O288 O 0.62213 0.3977 0.85085 0.0
O289 O 0.52313 0.39219 0.73422 0.0
O290 O 0.56218 0.36661 0.78316 0.0
C291 C 0.54713 0.48274 0.74401 0.0
C292 C 0.44871 0.48528 0.80879 0.0
C293 C 0.42731 0.44575 0.65267 0.0
C294 C 0.42899 0.45001 0.59181 0.0
C295 C 0.48989 0.49777 0.62496 0.0
C296 C 0.46858 0.47902 0.65423 0.0
C297 C 0.47031 0.48341 0.59391 0.0
C298 C 0.40737 0.43147 0.62144 0.0
C299 C 0.40672 0.42438 0.68327 0.0
C300 C 0.24682 0.30966 0.77489 0.0
C301 C 0.21617 0.34753 0.77865 0.0
H302 H 0.31741 0.24266 0.76437 0.0
C303 C 0.45365 0.36496 0.81492 0.0
C304 C 0.55595 0.36503 0.75061 0.0
C305 C 0.64708 0.44065 0.89678 0.0
C306 C 0.68929 0.44947 0.95239 0.0
C307 C 0.73286 0.48593 0.90476 0.0
C308 C 0.69039 0.46809 0.88388 0.0
C309 C 0.73248 0.47668 0.9388 0.0
C310 C 0.64681 0.43118 0.93111 0.0
C311 C 0.60253 0.42151 0.87466 0.0
H312 H 0.52171 0.52349 0.62635 0.0
H313 H 0.48438 0.49034 0.67801 0.0
H314 H 0.48694 0.49872 0.57153 0.0
H315 H 0.37585 0.40549 0.62019 0.0
H316 H 0.76631 0.50688 0.8945 0.0
H317 H 0.69169 0.47557 0.85771 0.0
H318 H 0.76634 0.49048 0.9545 0.0
H319 H 0.6134 0.41002 0.94127 0.0
C320 C 0.82355 0.88314 0.81555 0.0
C321 C 0.83326 0.81093 0.8353 0.0
C322 C 0.85866 0.85066 0.82729 0.0
C323 C 0.77283 0.80398 0.8302 0.0
C324 C 0.76247 0.87692 0.81184 0.0
C325 C 0.73749 0.83693 0.81862 0.0
N326 N 0.84901 0.92122 0.80851 0.0
C327 C 0.81592 0.95522 0.79983 0.0
C328 C 0.72822 0.91135 0.80206 0.0
C329 C 0.75503 0.95078 0.79635 0.0
Gd330 Gd 0.05504 0.92259 0.73373 0.0
Gd331 Gd 0.95022 0.92673 0.81673 0.0
N332 N 0.91691 0.8586 0.83247 0.0
C333 C 0.86895 0.77979 0.84927 0.0
C334 C 0.95077 0.82932 0.8483 0.0
C335 C 0.92766 0.78931 0.85634 0.0
H336 H 0.99522 0.83674 0.85565 0.0
H337 H 0.9549 0.76605 0.86852 0.0
H338 H 0.04321 0.02427 0.71092 0.0
H339 H 0.83636 0.98587 0.79587 0.0
H340 H 0.10357 0.09019 0.71288 0.0
H341 H 0.85111 0.74889 0.85581 0.0
H342 H 0.75271 0.77354 0.83597 0.0
H343 H 0.15066 0.84254 0.74009 0.0
H344 H 0.68107 0.90793 0.79915 0.0
H345 H 0.72884 0.9777 0.78921 0.0
H346 H 0.28982 0.04459 0.75549 0.0
H347 H 0.69072 0.83139 0.81556 0.0
H348 H 0.31881 0.89512 0.76605 0.0
H349 H 0.25522 0.8328 0.7544 0.0
N350 N 0.15439 0.90953 0.74547 0.0
C351 C 0.18967 0.94426 0.74907 0.0
C352 C 0.17784 0.86994 0.74561 0.0
C353 C 0.27291 0.89957 0.76 0.0
C354 C 0.23718 0.86432 0.75338 0.0
C355 C 0.24967 0.94024 0.75708 0.0
H356 H 0.33099 0.97436 0.76709 0.0
N357 N 0.10972 0.98629 0.73259 0.0
C358 C 0.16682 0.98382 0.74214 0.0
C359 C 0.17911 0.05921 0.73377 0.0
C360 C 0.20282 0.02038 0.7436 0.0
C361 C 0.08779 0.02335 0.72023 0.0
C362 C 0.12169 0.06055 0.72144 0.0
O363 O 0.91373 0.89871 0.76919 0.0
O364 O 0.99133 0.86727 0.74221 0.0
O365 O 0.02762 0.93856 0.6834 0.0
O366 O 0.09931 0.89586 0.69045 0.0
O367 O 0.03554 0.8903 0.82017 0.0
O368 O 0.05832 0.86454 0.76755 0.0
O369 O 0.0567 0.97624 0.77177 0.0
O370 O 0.04613 0.94295 0.82145 0.0
O371 O 0.92943 0.92435 0.87006 0.0
O372 O 0.93559 0.98521 0.84373 0.0
O373 O 0.96612 0.95118 0.72839 0.0
O374 O 0.94232 0.98173 0.77912 0.0
C375 C 0.93465 0.87001 0.7488 0.0
C376 C 0.06264 0.86344 0.80039 0.0
C377 C 0.04476 0.88971 0.64031 0.0
C378 C 0.04987 0.87299 0.58077 0.0
C379 C 0.97412 0.84077 0.61593 0.0
C380 C 0.99597 0.86249 0.64364 0.0
C381 C 1.00059 0.84611 0.58468 0.0
C382 C 0.07187 0.8947 0.60889 0.0
C383 C 0.06597 0.91474 0.6689 0.0
C384 C 0.2616 0.01679 0.75377 0.0
C385 C 0.28501 0.97679 0.76045 0.0
H386 H 0.20534 0.08806 0.7346 0.0
C387 C 0.07118 0.97227 0.80323 0.0
C388 C 0.94032 0.98059 0.74601 0.0
C389 C 0.91275 0.98815 0.9033 0.0
C390 C 0.88969 0.98866 0.96312 0.0
C391 C 0.90787 0.05473 0.93337 0.0
C392 C 0.91679 0.03257 0.90382 0.0
C393 C 0.89483 0.033 0.96285 0.0
C394 C 0.89846 0.9662 0.93315 0.0
C395 C 0.92629 0.96541 0.87193 0.0
H396 H 0.93629 0.81991 0.61863 0.0
H397 H 0.97447 0.85851 0.66756 0.0
H398 H 0.98284 0.82891 0.56355 0.0
H399 H 0.10914 0.91616 0.60619 0.0
H400 H 0.91159 0.08893 0.93347 0.0
H401 H 0.92769 0.05031 0.88143 0.0
H402 H 0.88852 0.05087 0.98556 0.0
H403 H 0.89549 0.93193 0.93333 0.0
C404 C 0.71304 0.62432 0.30186 0.0
C405 C 0.71686 0.70065 0.30788 0.0
C406 C 0.68473 0.66214 0.30809 0.0
C407 C 0.77732 0.70059 0.3009 0.0
C408 C 0.77399 0.62404 0.29547 0.0
C409 C 0.80583 0.66238 0.29479 0.0
N410 N 0.68105 0.58777 0.30208 0.0
C411 C 0.70754 0.5497 0.29781 0.0
C412 C 0.80118 0.58516 0.29007 0.0
C413 C 0.76785 0.54779 0.29152 0.0
Gd414 Gd 0.45023 0.60528 0.24306 0.0
Gd415 Gd 0.58034 0.59368 0.31239 0.0
N416 N 0.62592 0.66124 0.31439 0.0
C417 C 0.68742 0.73811 0.31501 0.0
C418 C 0.59795 0.69747 0.32329 0.0
C419 C 0.62788 0.73641 0.32315 0.0
H420 H 0.55309 0.69688 0.33135 0.0
H421 H 0.60513 0.76505 0.32978 0.0
H422 H 0.45339 0.49877 0.24488 0.0
H423 H 0.68221 0.52062 0.29971 0.0
H424 H 0.38308 0.43881 0.24859 0.0
H425 H 0.7105 0.76833 0.31505 0.0
H426 H 0.80257 0.72991 0.30049 0.0
H427 H 0.37161 0.6931 0.25224 0.0
H428 H 0.84791 0.58361 0.28516 0.0
H429 H 0.78859 0.5175 0.28793 0.0
H430 H 0.19676 0.50494 0.26525 0.0
H431 H 0.8526 0.6628 0.28974 0.0
H432 H 0.193 0.65641 0.27176 0.0
H433 H 0.26903 0.71251 0.26511 0.0
N434 N 0.35424 0.62705 0.25419 0.0
C435 C 0.31293 0.59574 0.25683 0.0
C436 C 0.33897 0.66853 0.25636 0.0
C437 C 0.23802 0.64778 0.26665 0.0
C438 C 0.28085 0.67954 0.26305 0.0
C439 C 0.25364 0.60529 0.2632 0.0
H440 H 0.16622 0.579 0.27089 0.0
N441 N 0.38817 0.54565 0.24938 0.0
C442 C 0.33013 0.55388 0.25367 0.0
C443 C 0.30791 0.47884 0.25464 0.0
C444 C 0.28853 0.52063 0.2568 0.0
C445 C 0.40724 0.50499 0.24709 0.0
C446 C 0.36755 0.47101 0.24982 0.0
O447 O 0.60459 0.62223 0.26227 0.0
O448 O 0.52209 0.65643 0.24287 0.0
O449 O 0.4533 0.58185 0.19244 0.0
O450 O 0.40826 0.64017 0.20285 0.0
O451 O 0.49693 0.62885 0.32524 0.0
O452 O 0.46906 0.66093 0.27636 0.0
O453 O 0.42661 0.57335 0.29247 0.0
O454 O 0.51314 0.54197 0.30514 0.0
O455 O 0.57867 0.60542 0.36603 0.0
O456 O 0.61555 0.54768 0.34713 0.0
O457 O 0.52521 0.56233 0.22919 0.0
O458 O 0.58155 0.54016 0.27478 0.0
C459 C 0.57972 0.65211 0.24436 0.0
C460 C 0.4655 0.65695 0.30892 0.0
C461 C 0.44987 0.63217 0.1494 0.0
C462 C 0.44504 0.64215 0.08909 0.0
C463 C 0.52807 0.67025 0.12073 0.0
C464 C 0.50381 0.65399 0.15014 0.0
C465 C 0.49902 0.66434 0.09036 0.0
C466 C 0.42062 0.62618 0.1189 0.0
C467 C 0.42493 0.61379 0.17998 0.0
C468 C 0.22933 0.53007 0.26272 0.0
C469 C 0.21196 0.57226 0.26601 0.0
H470 H 0.27735 0.45242 0.25708 0.0
C471 C 0.45692 0.54631 0.31034 0.0
C472 C 0.56498 0.5379 0.24312 0.0
C473 C 0.6556 0.57436 0.39748 0.0
C474 C 0.68895 0.57933 0.45529 0.0
C475 C 0.75997 0.57423 0.41036 0.0
C476 C 0.71448 0.57285 0.3871 0.0
C477 C 0.74741 0.57733 0.44426 0.0
C478 C 0.64307 0.57764 0.43171 0.0
C479 C 0.60684 0.57094 0.37327 0.0
H480 H 0.56967 0.68723 0.12145 0.0
H481 H 0.52729 0.65796 0.17337 0.0
H482 H 0.51864 0.67727 0.06784 0.0
H483 H 0.37964 0.60832 0.11832 0.0
H484 H 0.80515 0.57301 0.40204 0.0
H485 H 0.72573 0.57024 0.36117 0.0
H486 H 0.78348 0.57903 0.46187 0.0
H487 H 0.59775 0.57853 0.43998 0.0
C488 C 0.15559 0.98357 0.37287 0.0
C489 C 0.14303 0.94106 0.36479 0.0
C490 C 0.13743 0.0169 0.35218 0.0
C491 C 0.10653 1.00912 0.32238 0.0
H492 H 0.17816 0.99123 0.39591 0.0
H493 H 0.14568 0.04915 0.36021 0.0
S494 S 0.06257 0.90405 0.28946 0.0
N495 N 0.09749 0.89332 0.32455 0.0
N496 N 0.06533 0.95606 0.28534 0.0
C497 C 0.09619 0.9669 0.31308 0.0
C498 C 0.11382 0.93287 0.33439 0.0
C499 C 0.42465 0.55763 0.88303 0.0
C500 C 0.37998 0.58544 0.87285 0.0
C501 C 0.44527 0.5257 0.86228 0.0
C502 C 0.42507 0.52088 0.8293 0.0
H503 H 0.44465 0.56028 0.90744 0.0
H504 H 0.47844 0.50502 0.87236 0.0
S505 S 0.31466 0.58903 0.78788 0.0
N506 N 0.31753 0.60672 0.82652 0.0
N507 N 0.36303 0.55065 0.786 0.0
C508 C 0.38358 0.55032 0.81773 0.0
C509 C 0.35976 0.58164 0.83968 0.0
C510 C 0.57983 0.5858 0.6972 0.0
C511 C 0.63391 0.57753 0.6817 0.0
C512 C 0.55189 0.55511 0.71749 0.0
C513 C 0.57733 0.51529 0.72311 0.0
H514 H 0.5579 0.61547 0.69247 0.0
H515 H 0.50987 0.56245 0.7286 0.0
S516 S 0.71912 0.4787 0.68849 0.0
N517 N 0.71235 0.52732 0.67382 0.0
N518 N 0.66019 0.46969 0.71157 0.0
C519 C 0.63215 0.50723 0.70834 0.0
C520 C 0.66031 0.53832 0.68773 0.0
C521 C 0.9213 0.94374 0.19948 0.0
C522 C 0.86833 0.95442 0.18367 0.0
C523 C 0.94962 0.97203 0.22144 0.0
C524 C 0.92563 1.0118 0.22889 0.0
H525 H 0.94246 0.91417 0.19358 0.0
H526 H 0.99139 0.96307 0.23203 0.0
S527 S 0.78712 0.0544 0.19431 0.0
N528 N 0.79255 1.00712 0.17721 0.0
N529 N 0.84511 0.05995 0.21875 0.0
C530 C 0.87164 0.02218 0.21406 0.0
C531 C 0.84326 0.99363 0.19135 0.0
C532 C 0.86038 0.02881 0.67251 0.0
C533 C 0.85247 0.0712 0.68175 0.0
C534 C 0.88612 0.99974 0.69426 0.0
C535 C 0.90544 1.01153 0.72638 0.0
H536 H 0.84682 0.01793 0.64805 0.0
H537 H 0.89177 0.96768 0.68539 0.0
S538 S 0.89151 0.11813 0.76367 0.0
N539 N 0.86335 0.1233 0.72589 0.0
N540 N 0.91173 0.06823 0.76702 0.0
C541 C 0.8955 0.05335 0.73663 0.0
C542 C 0.86912 0.08325 0.71427 0.0
C543 C 0.6818 0.46944 0.20318 0.0
C544 C 0.65129 0.44809 0.17765 0.0
C545 C 0.6532 0.49757 0.22446 0.0
C546 C 0.59301 0.50591 0.22127 0.0
H547 H 0.72885 0.46602 0.20587 0.0
H548 H 0.67946 0.5146 0.24224 0.0
S549 S 0.49218 0.45734 0.15887 0.0
N550 N 0.55626 0.43544 0.15147 0.0
N551 N 0.50372 0.49054 0.18992 0.0
C552 C 0.5618 0.48471 0.19582 0.0
C553 C 0.59055 0.45518 0.17458 0.0
C554 C 0.42711 0.44918 0.36459 0.0
C555 C 0.36815 0.45378 0.37407 0.0
C556 C 0.45499 0.4789 0.34365 0.0
C557 C 0.42523 0.51479 0.3317 0.0
H558 H 0.45225 0.42283 0.37408 0.0
H559 H 0.50058 0.4739 0.33724 0.0
S560 S 0.27057 0.54213 0.35096 0.0
N561 N 0.28087 0.49677 0.37062 0.0
N562 N 0.33328 0.55347 0.33204 0.0
C563 C 0.36593 0.51958 0.34103 0.0
C564 C 0.3374 0.48888 0.362 0.0
C565 C 0.18048 0.0301 0.85819 0.0
C566 C 0.151 0.06774 0.86566 0.0
C567 C 0.1557 1.00011 0.83635 0.0
C568 C 0.10122 1.00718 0.82093 0.0
H569 H 0.22135 0.02281 0.87068 0.0
H570 H 0.17832 0.9706 0.83241 0.0
S571 S 0.00835 0.10166 0.83097 0.0
N572 N 0.06566 0.11104 0.85526 0.0
N573 N 0.02002 0.05529 0.81338 0.0
C574 C 0.07287 0.04559 0.8269 0.0
C575 C 0.09755 0.07575 0.84954 0.0
C576 C 0.08338 0.09222 0.99326 0.0
C577 C 0.14412 0.098 0.98762 0.0
C578 C 0.06157 0.08033 1.02483 0.0
C579 C 0.09957 0.07409 0.0521 0.0
H580 H 0.05235 0.09709 0.97315 0.0
H581 H 0.01454 0.07635 0.028 0.0
S582 S 0.26223 0.08109 0.05017 0.0
N583 N 0.24199 0.09328 1.0118 0.0
N584 N 0.20075 0.07225 0.07104 0.0
C585 C 0.16023 0.07932 0.0468 0.0
C586 C 0.18253 0.09094 1.01465 0.0
C587 C 0.32637 0.4216 0.52012 0.0
C588 C 0.36533 0.41258 0.49386 0.0
C589 C 0.34723 0.43254 0.55196 0.0
C590 C 0.40783 0.43513 0.5587 0.0
H591 H 0.27941 0.42175 0.51575 0.0
H592 H 0.31572 0.44045 0.57112 0.0
S593 S 0.52795 0.40948 0.49994 0.0
N594 N 0.46733 0.4031 0.47778 0.0
N595 N 0.50639 0.42424 0.53741 0.0
C596 C 0.44717 0.42461 0.5331 0.0
C597 C 0.42598 0.41319 0.50077 0.0
C598 C 0.69758 0.38865 0.03434 0.0
C599 C 0.70106 0.42119 0.05817 0.0
C600 C 0.69158 0.39791 1.00019 0.0
C601 C 0.68967 0.44003 0.9887 0.0
H602 H 0.69977 0.35583 0.04215 0.0
H603 H 0.69018 0.37199 0.98258 0.0
S604 S 0.69573 0.53665 0.04091 0.0
N605 N 0.70152 0.49719 0.06781 0.0
N606 N 0.68945 0.51442 1.00385 0.0
C607 C 0.69203 0.47276 1.01232 0.0
C608 C 0.69791 0.46339 0.04699 0.0
C609 C 0.8437 0.15771 0.54313 0.0
C610 C 0.83435 0.12121 0.56287 0.0
C611 C 0.84609 0.15533 0.50813 0.0
C612 C 0.83822 0.11645 0.4917 0.0
H613 H 0.84682 0.18854 0.5548 0.0
H614 H 0.851 0.18431 0.49379 0.0
S615 S 0.81618 1.01145 0.53166 0.0
N616 N 0.82064 0.04477 0.56325 0.0
N617 N 0.8243 0.0405 0.49755 0.0
C618 C 0.83147 0.07958 0.5111 0.0
C619 C 0.82986 0.08189 0.54668 0.0
C620 C 0.90263 0.95573 0.05401 0.0
C621 C 0.84894 0.93458 0.06061 0.0
C622 C 0.9161 0.97182 1.02219 0.0
C623 C 0.87698 0.96679 0.99533 0.0
H624 H 0.93472 0.95991 0.07365 0.0
H625 H 0.95733 0.98875 1.01858 0.0
S626 S 0.73074 0.91409 0.99859 0.0
N627 N 0.75609 0.9099 0.03708 0.0
N628 N 0.78254 0.93908 0.97704 0.0
C629 C 0.82384 0.94488 1.00111 0.0
C630 C 0.8096 0.92897 0.03373 0.0
C631 C 0.70116 0.56797 0.54937 0.0
C632 C 0.67069 0.60346 0.56076 0.0
C633 C 0.70456 0.5591 0.51515 0.0
C634 C 0.67702 0.58514 0.49133 0.0
H635 H 0.7249 0.54827 0.56683 0.0
H636 H 0.73048 0.53246 0.50715 0.0
S637 S 0.58696 0.6794 0.50907 0.0
N638 N 0.60856 0.66271 0.54614 0.0
N639 N 0.61518 0.64621 0.48188 0.0
C640 C 0.64358 0.61924 0.50269 0.0
C641 C 0.64042 0.62837 0.53742 0.0
C642 C 0.4233 0.61837 0.99719 0.0
C643 C 0.36519 0.63108 0.99114 0.0
C644 C 0.4479 0.62059 0.02917 0.0
C645 C 0.41535 0.6354 0.05646 0.0
H646 H 0.45121 0.60892 0.97671 0.0
H647 H 0.49341 0.61179 0.03237 0.0
S648 S 0.25942 0.66817 0.05465 0.0
N649 N 0.27409 0.65545 1.01562 0.0
N650 N 0.32055 0.66008 0.07583 0.0
C651 C 0.35614 0.64586 0.0512 0.0
C652 C 0.33107 0.64368 1.01852 0.0
C653 C 0.06601 0.89041 0.48701 0.0
C654 C 0.12539 0.88114 0.48105 0.0
C655 C 0.04236 0.88866 0.51939 0.0
C656 C 0.07734 0.87824 0.54717 0.0
H657 H 0.03707 0.89751 0.46632 0.0
H658 H 0.99605 0.89495 0.52268 0.0
S659 S 0.23626 0.85389 0.5452 0.0
N660 N 0.21921 0.86292 0.50576 0.0
N661 N 0.175 0.86018 0.56661 0.0
C662 C 0.13727 0.87049 0.54169 0.0
C663 C 0.16117 0.87172 0.50866 0.0
C664 C 0.14791 0.22197 0.3761 0.0
C665 C 0.1403 0.26416 0.36582 0.0
C666 C 0.12646 0.18804 0.35683 0.0
C667 C 0.09654 0.19509 0.32659 0.0
H668 H 0.16832 0.21525 0.39994 0.0
H669 H 0.13226 0.15606 0.36604 0.0
S670 S 0.06441 0.30002 0.28924 0.0
N671 N 0.10105 0.31129 0.32372 0.0
N672 N 0.06016 0.24783 0.28762 0.0
C673 C 0.08995 0.23722 0.31572 0.0
C674 C 0.11186 0.27168 0.33535 0.0
C675 C 0.43617 0.2553 0.85309 0.0
C676 C 0.38053 0.25617 0.8684 0.0
C677 C 0.45863 0.2903 0.83547 0.0
C678 C 0.4263 0.32771 0.83204 0.0
H679 H 0.46368 0.22776 0.85585 0.0
H680 H 0.50222 0.28812 0.82488 0.0
S681 S 0.27649 0.34549 0.86526 0.0
N682 N 0.29215 0.29687 0.87742 0.0
N683 N 0.33416 0.36274 0.84393 0.0
C684 C 0.36927 0.32835 0.84566 0.0
C685 C 0.34637 0.29255 0.86382 0.0
C686 C 0.60668 0.29933 0.67737 0.0
C687 C 0.62197 0.26074 0.69234 0.0
C688 C 0.58813 0.33354 0.69663 0.0
C689 C 0.58355 0.33026 0.73159 0.0
H690 H 0.60711 0.30257 0.65044 0.0
H691 H 0.57547 0.36231 0.68384 0.0
S692 S 0.61967 0.23551 0.78256 0.0
N693 N 0.63337 0.22114 0.7438 0.0
N694 N 0.59735 0.28497 0.7803 0.0
C695 C 0.60081 0.29209 0.74691 0.0
C696 C 0.62026 0.25741 0.72718 0.0
C697 C 0.89936 0.23068 0.18322 0.0
C698 C 0.88809 0.2692 0.19911 0.0
C699 C 0.91713 0.19515 0.20143 0.0
C700 C 0.92491 0.1968 0.23632 0.0
H701 H 0.89697 0.22858 0.15627 0.0
H702 H 0.92687 0.1666 0.18774 0.0
S703 S 0.89691 0.29015 0.28979 0.0
N704 N 0.88266 0.30688 0.25155 0.0
N705 N 0.91586 0.24006 0.2862 0.0
C706 C 0.91077 0.23475 0.2527 0.0
C707 C 0.89261 0.27101 0.23398 0.0
C708 C 0.86548 0.78218 0.69539 0.0
C709 C 0.80919 0.7981 0.68855 0.0
C710 C 0.90597 0.80519 0.71521 0.0
C711 C 0.89155 0.84489 0.72874 0.0
H712 H 0.87911 0.75268 0.68429 0.0
H713 H 0.9491 0.79214 0.71951 0.0
S714 S 0.74969 0.9003 0.71758 0.0
N715 N 0.74045 0.85492 0.69805 0.0
N716 N 0.81703 0.89925 0.73266 0.0
C717 C 0.83501 0.86061 0.72229 0.0
C718 C 0.79376 0.83691 0.70297 0.0
C719 C 0.71925 0.69739 0.20473 0.0
C720 C 0.70062 0.73345 0.1871 0.0
C721 C 0.67988 0.67197 0.22294 0.0
C722 C 0.6198 0.68174 0.22546 0.0
H723 H 0.76463 0.68761 0.20329 0.0
H724 H 0.69694 0.64356 0.23431 0.0
S725 S 0.54879 0.77466 0.18597 0.0
N726 N 0.61815 0.77862 0.17406 0.0
N727 N 0.5443 0.73215 0.21005 0.0
C728 C 0.60085 0.71899 0.2093 0.0
C729 C 0.64116 0.74461 0.18996 0.0
C730 C 0.35092 0.73971 0.32981 0.0
C731 C 0.32019 0.72058 0.35643 0.0
C732 C 0.40026 0.72021 0.31567 0.0
C733 C 0.41999 0.68074 0.32743 0.0
H734 H 0.33495 0.7687 0.31871 0.0
H735 H 0.42157 0.73527 0.29449 0.0
S736 S 0.3608 0.62186 0.40075 0.0
N737 N 0.31793 0.66337 0.3971 0.0
N738 N 0.4094 0.62638 0.37035 0.0
C739 C 0.39238 0.66321 0.35582 0.0
C740 C 0.3426 0.68312 0.37024 0.0
C741 C 0.21 0.84498 0.84002 0.0
C742 C 0.20563 0.80353 0.85328 0.0
C743 C 0.16346 0.86354 0.82291 0.0
C744 C 0.11222 0.84058 0.81546 0.0
H745 H 0.24919 0.86418 0.84366 0.0
H746 H 0.16769 0.89641 0.81541 0.0
S747 S 0.07821 0.7302 0.84085 0.0
N748 N 0.1438 0.73991 0.85696 0.0
N749 N 0.05976 0.77366 0.82053 0.0
C750 C 0.10792 0.79837 0.82627 0.0
C751 C 0.15407 0.77994 0.84574 0.0
loop_
_geom_bond_atom_site_label_1
_geom_bond_atom_site_label_2
_geom_bond_distance
_geom_bond_site_symmetry_2
_ccdc_geom_bond_type
H0 C1 0.949 . S
C1 H0 0.949 . S
C1 C2 1.395 . S
C1 C3 1.391 . S
C2 C1 1.395 . S
C2 C5 1.390 . S
C3 C1 1.391 . S
C3 C7 1.387 . S
C3 C8 1.491 . S
H4 C5 0.950 . S
C5 C2 1.390 . S
C5 H4 0.950 . S
C5 C6 1.378 . S
C6 C5 1.378 . S
C6 C7 1.409 . S
C7 C3 1.387 . S
C7 C6 1.409 . S
C7 H9 0.951 . S
C8 C3 1.491 . S
C8 C10 1.382 . S
C8 C12 1.404 . S
H9 C7 0.951 . S
C10 C8 1.382 . S
C10 C11 1.390 . S
C10 H15 0.949 . S
C11 C10 1.390 . S
C11 C16 1.399 . S
C12 C8 1.404 . S
C12 H13 0.950 . S
C12 C14 1.375 . S
H13 C12 0.950 . S
C14 C12 1.375 . S
C14 C16 1.382 . S
C14 H18 0.950 . S
H15 C10 0.949 . S
C16 C11 1.399 . S
C16 C14 1.382 . S
C16 H17 0.952 . S
H17 C16 0.952 . S
H18 C14 0.950 . S
H19 C20 0.949 . S
C20 H19 0.949 . S
C20 C21 1.395 . S
C20 C22 1.391 . S
C21 C20 1.395 . S
C21 C24 1.390 . S
C22 C20 1.391 . S
C22 C26 1.387 . S
C22 C27 1.491 . S
H23 C24 0.950 . S
C24 C21 1.390 . S
C24 H23 0.950 . S
C24 C25 1.378 . S
C25 C24 1.378 . S
C25 C26 1.409 . S
C26 C22 1.387 . S
C26 C25 1.409 . S
C26 H28 0.951 . S
C27 C22 1.491 . S
C27 C29 1.382 . S
C27 C31 1.404 . S
H28 C26 0.951 . S
C29 C27 1.382 . S
C29 C30 1.390 . S
C29 H34 0.949 . S
C30 C29 1.390 . S
C30 C35 1.399 . S
C31 C27 1.404 . S
C31 H32 0.950 . S
C31 C33 1.375 . S
H32 C31 0.950 . S
C33 C31 1.375 . S
C33 C35 1.382 . S
C33 H37 0.950 . S
H34 C29 0.949 . S
C35 C30 1.399 . S
C35 C33 1.382 . S
C35 H36 0.952 . S
H36 C35 0.952 . S
H37 C33 0.950 . S
H38 C39 0.949 . S
C39 H38 0.949 . S
C39 C40 1.395 . S
C39 C41 1.391 . S
C40 C39 1.395 . S
C40 C43 1.390 . S
C41 C39 1.391 . S
C41 C45 1.387 . S
C41 C46 1.491 . S
H42 C43 0.950 . S
C43 C40 1.390 . S
C43 H42 0.950 . S
C43 C44 1.378 . S
C44 C43 1.378 . S
C44 C45 1.409 . S
C45 C41 1.387 . S
C45 C44 1.409 . S
C45 H47 0.951 . S
C46 C41 1.491 . S
C46 C48 1.382 . S
C46 C50 1.404 . S
H47 C45 0.951 . S
C48 C46 1.382 . S
C48 C49 1.390 . S
C48 H53 0.949 . S
C49 C48 1.390 . S
C49 C54 1.399 . S
C50 C46 1.404 . S
C50 H51 0.950 . S
C50 C52 1.375 . S
H51 C50 0.950 . S
C52 C50 1.375 . S
C52 C54 1.382 . S
C52 H56 0.950 . S
H53 C48 0.949 . S
C54 C49 1.399 . S
C54 C52 1.382 . S
C54 H55 0.952 . S
H55 C54 0.952 . S
H56 C52 0.950 . S
H57 C58 0.949 . S
C58 H57 0.949 . S
C58 C59 1.395 . S
C58 C60 1.391 . S
C59 C58 1.395 . S
C59 C62 1.390 . S
C60 C58 1.391 . S
C60 C64 1.387 . S
C60 C65 1.491 . S
H61 C62 0.950 . S
C62 C59 1.390 . S
C62 H61 0.950 . S
C62 C63 1.378 . S
C63 C62 1.378 . S
C63 C64 1.409 . S
C64 C60 1.387 . S
C64 C63 1.409 . S
C64 H66 0.951 . S
C65 C60 1.491 . S
C65 C67 1.382 . S
C65 C69 1.404 . S
H66 C64 0.951 . S
C67 C65 1.382 . S
C67 C68 1.390 . S
C67 H72 0.949 . S
C68 C67 1.390 . S
C68 C73 1.399 . S
C69 C65 1.404 . S
C69 H70 0.950 . S
C69 C71 1.375 . S
H70 C69 0.950 . S
C71 C69 1.375 . S
C71 C73 1.382 . S
C71 H75 0.950 . S
H72 C67 0.949 . S
C73 C68 1.399 . S
C73 C71 1.382 . S
C73 H74 0.952 . S
H74 C73 0.952 . S
H75 C71 0.950 . S
H76 C77 0.949 . S
C77 H76 0.949 . S
C77 C78 1.395 . S
C77 C79 1.391 . S
C78 C77 1.395 . S
C78 C81 1.390 . S
C79 C77 1.391 . S
C79 C83 1.387 . S
C79 C84 1.491 . S
H80 C81 0.950 . S
C81 C78 1.390 . S
C81 H80 0.950 . S
C81 C82 1.378 . S
C82 C81 1.378 . S
C82 C83 1.409 . S
C83 C79 1.387 . S
C83 C82 1.409 . S
C83 H85 0.951 . S
C84 C79 1.491 . S
C84 C86 1.382 . S
C84 C88 1.404 . S
H85 C83 0.951 . S
C86 C84 1.382 . S
C86 C87 1.390 . S
C86 H91 0.949 . S
C87 C86 1.390 . S
C87 C92 1.399 . S
C88 C84 1.404 . S
C88 H89 0.950 . S
C88 C90 1.375 . S
H89 C88 0.950 . S
C90 C88 1.375 . S
C90 C92 1.382 . S
C90 H94 0.950 . S
H91 C86 0.949 . S
C92 C87 1.399 . S
C92 C90 1.382 . S
C92 H93 0.952 . S
H93 C92 0.952 . S
H94 C90 0.950 . S
H95 C96 0.949 . S
C96 H95 0.949 . S
C96 C97 1.395 . S
C96 C98 1.391 . S
C97 C96 1.395 . S
C97 C100 1.390 . S
C98 C96 1.391 . S
C98 C102 1.387 . S
C98 C103 1.491 . S
H99 C100 0.950 . S
C100 C97 1.390 . S
C100 H99 0.950 . S
C100 C101 1.378 . S
C101 C100 1.378 . S
C101 C102 1.409 . S
C102 C98 1.387 . S
C102 C101 1.409 . S
C102 H104 0.951 . S
C103 C98 1.491 . S
C103 C105 1.382 . S
C103 C107 1.404 . S
H104 C102 0.951 . S
C105 C103 1.382 . S
C105 C106 1.390 . S
C105 H110 0.949 . S
C106 C105 1.390 . S
C106 C111 1.399 . S
C107 C103 1.404 . S
C107 H108 0.950 . S
C107 C109 1.375 . S
H108 C107 0.950 . S
C109 C107 1.375 . S
C109 C111 1.382 . S
C109 H113 0.950 . S
H110 C105 0.949 . S
C111 C106 1.399 . S
C111 C109 1.382 . S
C111 H112 0.952 . S
H112 C111 0.952 . S
H113 C109 0.950 . S
H114 C115 0.949 . S
C115 H114 0.949 . S
C115 C116 1.395 . S
C115 C117 1.391 . S
C116 C115 1.395 . S
C116 C119 1.390 . S
C117 C115 1.391 . S
C117 C121 1.387 . S
C117 C122 1.491 . S
H118 C119 0.950 . S
C119 C116 1.390 . S
C119 H118 0.950 . S
C119 C120 1.378 . S
C120 C119 1.378 . S
C120 C121 1.409 . S
C121 C117 1.387 . S
C121 C120 1.409 . S
C121 H123 0.951 . S
C122 C117 1.491 . S
C122 C124 1.382 . S
C122 C126 1.404 . S
H123 C121 0.951 . S
C124 C122 1.382 . S
C124 C125 1.390 . S
C124 H129 0.949 . S
C125 C124 1.390 . S
C125 C130 1.399 . S
C126 C122 1.404 . S
C126 H127 0.950 . S
C126 C128 1.375 . S
H127 C126 0.950 . S
C128 C126 1.375 . S
C128 C130 1.382 . S
C128 H132 0.950 . S
H129 C124 0.949 . S
C130 C125 1.399 . S
C130 C128 1.382 . S
C130 H131 0.952 . S
H131 C130 0.952 . S
H132 C128 0.950 . S
H133 C134 0.949 . S
C134 H133 0.949 . S
C134 C135 1.395 . S
C134 C136 1.391 . S
C135 C134 1.395 . S
C135 C138 1.390 . S
C136 C134 1.391 . S
C136 C140 1.387 . S
C136 C141 1.491 . S
H137 C138 0.950 . S
C138 C135 1.390 . S
C138 H137 0.950 . S
C138 C139 1.378 . S
C139 C138 1.378 . S
C139 C140 1.409 . S
C140 C136 1.387 . S
C140 C139 1.409 . S
C140 H142 0.951 . S
C141 C136 1.491 . S
C141 C143 1.382 . S
C141 C145 1.404 . S
H142 C140 0.951 . S
C143 C141 1.382 . S
C143 C144 1.390 . S
C143 H148 0.949 . S
C144 C143 1.390 . S
C144 C149 1.399 . S
C145 C141 1.404 . S
C145 H146 0.950 . S
C145 C147 1.375 . S
H146 C145 0.950 . S
C147 C145 1.375 . S
C147 C149 1.382 . S
C147 H151 0.950 . S
H148 C143 0.949 . S
C149 C144 1.399 . S
C149 C147 1.382 . S
C149 H150 0.952 . S
H150 C149 0.952 . S
H151 C147 0.950 . S
C152 C154 1.422 . S
C152 C156 1.415 . S
C152 N158 1.369 . S
C153 C154 1.421 1_565 S
C153 C155 1.417 . S
C153 C165 1.422 . S
C154 C152 1.422 . S
C154 C153 1.421 1_545 S
C154 N164 1.359 . S
C155 C153 1.417 . S
C155 C157 1.329 1_565 S
C155 H174 0.930 . S
C156 C152 1.415 . S
C156 C157 1.437 . S
C156 C160 1.413 . S
C157 C155 1.329 1_545 S
C157 C156 1.437 . S
C157 H179 0.929 . S
N158 C152 1.369 . S
N158 C159 1.338 . S
N158 Gd163 2.622 . S
C159 N158 1.338 . S
C159 C161 1.378 . S
C159 H171 0.929 . S
C160 C156 1.413 . S
C160 C161 1.348 . S
C160 H176 0.931 . S
C161 C159 1.378 . S
C161 C160 1.348 . S
C161 H177 0.930 . S
Gd162 N182 2.622 . S
Gd162 N189 2.570 . S
Gd162 O196 2.353 1_455 S
Gd162 O197 2.468 . S
Gd162 O198 2.427 . S
Gd162 O200 2.388 . S
Gd162 O201 2.386 . S
Gd162 O205 2.307 1_455 S
Gd162 C215 2.805 . S
Gd163 N158 2.622 . S
Gd163 N164 2.570 . S
Gd163 O195 2.386 . S
Gd163 O199 2.307 1_655 S
Gd163 O202 2.353 1_655 S
Gd163 O203 2.468 . S
Gd163 O204 2.427 . S
Gd163 O206 2.388 . S
Gd163 C227 2.805 . S
N164 C154 1.359 . S
N164 Gd163 2.570 . S
N164 C166 1.343 1_545 S
C165 C153 1.422 . S
C165 C167 1.321 . S
C165 H173 0.931 . S
C166 N164 1.343 1_565 S
C166 C167 1.390 . S
C166 H168 0.931 . S
C167 C165 1.321 . S
C167 C166 1.390 . S
C167 H169 0.930 . S
H168 C166 0.931 . S
H169 C167 0.930 . S
H170 C193 0.931 . S
H171 C159 0.929 . S
H172 C194 0.930 . S
H173 C165 0.931 . S
H174 C155 0.930 . S
H175 C184 0.929 . S
H176 C160 0.931 . S
H177 C161 0.930 . S
H178 C216 0.930 . S
H179 C157 0.929 . S
H180 C185 0.931 . S
H181 C186 0.930 . S
N182 Gd162 2.622 . S
N182 C183 1.369 . S
N182 C184 1.338 . S
C183 N182 1.369 . S
C183 C187 1.415 . S
C183 C190 1.422 . S
C184 H175 0.929 . S
C184 N182 1.338 . S
C184 C186 1.378 . S
C185 H180 0.931 . S
C185 C186 1.348 . S
C185 C187 1.413 . S
C186 H181 0.930 . S
C186 C184 1.378 . S
C186 C185 1.348 . S
C187 C183 1.415 . S
C187 C185 1.413 . S
C187 C217 1.437 . S
H188 C217 0.929 . S
N189 Gd162 2.570 . S
N189 C190 1.359 . S
N189 C193 1.343 . S
C190 C183 1.422 . S
C190 N189 1.359 . S
C190 C192 1.421 . S
C191 C192 1.422 . S
C191 C194 1.321 . S
C191 H218 0.931 . S
C192 C190 1.421 . S
C192 C191 1.422 . S
C192 C216 1.417 . S
C193 H170 0.931 . S
C193 N189 1.343 . S
C193 C194 1.390 . S
C194 H172 0.930 . S
C194 C191 1.321 . S
C194 C193 1.390 . S
O195 Gd163 2.386 . S
O195 C207 1.265 . S
O196 Gd162 2.353 1_655 S
O196 C207 1.242 . S
O197 Gd162 2.468 . S
O197 C215 1.263 . S
O198 Gd162 2.427 . S
O198 C215 1.252 . S
O199 Gd163 2.307 1_455 S
O199 C208 1.261 . S
O200 Gd162 2.388 . S
O200 C208 1.252 . S
O201 Gd162 2.386 . S
O201 C219 1.265 . S
O202 Gd163 2.353 1_455 S
O202 C219 1.242 . S
O203 Gd163 2.468 . S
O203 C227 1.263 . S
O204 Gd163 2.427 . S
O204 C227 1.252 . S
O205 Gd162 2.307 1_655 S
O205 C220 1.261 . S
O206 Gd163 2.388 . S
O206 C220 1.252 . S
C207 O195 1.265 . S
C207 O196 1.242 . S
C208 O199 1.261 . S
C208 O200 1.252 . S
C209 C212 1.394 . S
C209 C214 1.370 . S
C209 C215 1.500 . S
C210 C213 1.383 . S
C210 C214 1.395 . S
C211 C212 1.396 . S
C211 C213 1.365 . S
C211 H228 0.929 1_545 S
C212 C209 1.394 . S
C212 C211 1.396 . S
C212 H229 0.930 . S
C213 C210 1.383 . S
C213 C211 1.365 . S
C213 H230 0.931 . S
C214 C209 1.370 . S
C214 C210 1.395 . S
C214 H231 0.930 . S
C215 Gd162 2.805 . S
C215 O197 1.263 . S
C215 O198 1.252 . S
C215 C209 1.500 . S
C216 H178 0.930 . S
C216 C192 1.417 . S
C216 C217 1.329 . S
C217 C187 1.437 . S
C217 H188 0.929 . S
C217 C216 1.329 . S
H218 C191 0.931 . S
C219 O201 1.265 . S
C219 O202 1.242 . S
C220 O205 1.261 . S
C220 O206 1.252 . S
C221 C224 1.394 . S
C221 C226 1.370 . S
C221 C227 1.500 . S
C222 C225 1.383 . S
C222 C226 1.395 . S
C223 C224 1.396 . S
C223 C225 1.365 . S
C223 H232 0.929 . S
C224 C221 1.394 . S
C224 C223 1.396 . S
C224 H233 0.930 . S
C225 C222 1.383 . S
C225 C223 1.365 . S
C225 H234 0.931 . S
C226 C221 1.370 . S
C226 C222 1.395 . S
C226 H235 0.930 . S
C227 Gd163 2.805 . S
C227 O203 1.263 . S
C227 O204 1.252 . S
C227 C221 1.500 . S
H228 C211 0.929 1_565 S
H229 C212 0.930 . S
H230 C213 0.931 . S
H231 C214 0.930 . S
H232 C223 0.929 . S
H233 C224 0.930 . S
H234 C225 0.931 . S
H235 C226 0.930 . S
C236 C238 1.422 . S
C236 C240 1.415 . S
C236 N242 1.369 . S
C237 C238 1.421 . S
C237 C239 1.417 . S
C237 C249 1.422 . S
C238 C236 1.422 . S
C238 C237 1.421 . S
C238 N248 1.359 . S
C239 C237 1.417 . S
C239 C241 1.329 . S
C239 H258 0.930 . S
C240 C236 1.415 . S
C240 C241 1.437 . S
C240 C244 1.413 . S
C241 C239 1.329 . S
C241 C240 1.437 . S
C241 H263 0.929 . S
N242 C236 1.369 . S
N242 C243 1.338 . S
N242 Gd247 2.622 . S
C243 N242 1.338 . S
C243 C245 1.378 . S
C243 H255 0.929 . S
C244 C240 1.413 . S
C244 C245 1.348 . S
C244 H260 0.931 . S
C245 C243 1.378 . S
C245 C244 1.348 . S
C245 H261 0.930 . S
Gd246 N266 2.622 . S
Gd246 N273 2.570 . S
Gd246 O280 2.353 . S
Gd246 O281 2.468 . S
Gd246 O282 2.427 . S
Gd246 O284 2.388 . S
Gd246 O285 2.386 . S
Gd246 O289 2.307 . S
Gd246 C299 2.805 . S
Gd247 N242 2.622 . S
Gd247 N248 2.570 . S
Gd247 O279 2.386 . S
Gd247 O283 2.307 . S
Gd247 O286 2.353 . S
Gd247 O287 2.468 . S
Gd247 O288 2.427 . S
Gd247 O290 2.388 . S
Gd247 C311 2.805 . S
N248 C238 1.359 . S
N248 Gd247 2.570 . S
N248 C250 1.343 . S
C249 C237 1.422 . S
C249 C251 1.321 . S
C249 H257 0.931 . S
C250 N248 1.343 . S
C250 C251 1.390 . S
C250 H252 0.931 . S
C251 C249 1.321 . S
C251 C250 1.390 . S
C251 H253 0.930 . S
H252 C250 0.931 . S
H253 C251 0.930 . S
H254 C277 0.931 . S
H255 C243 0.929 . S
H256 C278 0.930 . S
H257 C249 0.931 . S
H258 C239 0.930 . S
H259 C268 0.929 . S
H260 C244 0.931 . S
H261 C245 0.930 . S
H262 C300 0.930 . S
H263 C241 0.929 . S
H264 C269 0.931 . S
H265 C270 0.930 . S
N266 Gd246 2.622 . S
N266 C267 1.369 . S
N266 C268 1.338 . S
C267 N266 1.369 . S
C267 C271 1.415 . S
C267 C274 1.422 . S
C268 H259 0.929 . S
C268 N266 1.338 . S
C268 C270 1.378 . S
C269 H264 0.931 . S
C269 C270 1.348 . S
C269 C271 1.413 . S
C270 H265 0.930 . S
C270 C268 1.378 . S
C270 C269 1.348 . S
C271 C267 1.415 . S
C271 C269 1.413 . S
C271 C301 1.437 . S
H272 C301 0.929 . S
N273 Gd246 2.570 . S
N273 C274 1.359 . S
N273 C277 1.343 . S
C274 C267 1.422 . S
C274 N273 1.359 . S
C274 C276 1.421 . S
C275 C276 1.422 . S
C275 C278 1.321 . S
C275 H302 0.931 . S
C276 C274 1.421 . S
C276 C275 1.422 . S
C276 C300 1.417 . S
C277 H254 0.931 . S
C277 N273 1.343 . S
C277 C278 1.390 . S
C278 H256 0.930 . S
C278 C275 1.321 . S
C278 C277 1.390 . S
O279 Gd247 2.386 . S
O279 C291 1.265 . S
O280 Gd246 2.353 . S
O280 C291 1.242 . S
O281 Gd246 2.468 . S
O281 C299 1.263 . S
O282 Gd246 2.427 . S
O282 C299 1.252 . S
O283 Gd247 2.307 . S
O283 C292 1.261 . S
O284 Gd246 2.388 . S
O284 C292 1.252 . S
O285 Gd246 2.386 . S
O285 C303 1.265 . S
O286 Gd247 2.353 . S
O286 C303 1.242 . S
O287 Gd247 2.468 . S
O287 C311 1.263 . S
O288 Gd247 2.427 . S
O288 C311 1.252 . S
O289 Gd246 2.307 . S
O289 C304 1.261 . S
O290 Gd247 2.388 . S
O290 C304 1.252 . S
C291 O279 1.265 . S
C291 O280 1.242 . S
C292 O283 1.261 . S
C292 O284 1.252 . S
C293 C296 1.394 . S
C293 C298 1.370 . S
C293 C299 1.500 . S
C294 C297 1.383 . S
C294 C298 1.395 . S
C295 C296 1.396 . S
C295 C297 1.365 . S
C295 H312 0.929 . S
C296 C293 1.394 . S
C296 C295 1.396 . S
C296 H313 0.930 . S
C297 C294 1.383 . S
C297 C295 1.365 . S
C297 H314 0.931 . S
C298 C293 1.370 . S
C298 C294 1.395 . S
C298 H315 0.930 . S
C299 Gd246 2.805 . S
C299 O281 1.263 . S
C299 O282 1.252 . S
C299 C293 1.500 . S
C300 H262 0.930 . S
C300 C276 1.417 . S
C300 C301 1.329 . S
C301 C271 1.437 . S
C301 H272 0.929 . S
C301 C300 1.329 . S
H302 C275 0.931 . S
C303 O285 1.265 . S
C303 O286 1.242 . S
C304 O289 1.261 . S
C304 O290 1.252 . S
C305 C308 1.394 . S
C305 C310 1.370 . S
C305 C311 1.500 . S
C306 C309 1.383 . S
C306 C310 1.395 . S
C307 C308 1.396 . S
C307 C309 1.365 . S
C307 H316 0.929 . S
C308 C305 1.394 . S
C308 C307 1.396 . S
C308 H317 0.930 . S
C309 C306 1.383 . S
C309 C307 1.365 . S
C309 H318 0.931 . S
C310 C305 1.370 . S
C310 C306 1.395 . S
C310 H319 0.930 . S
C311 Gd247 2.805 . S
C311 O287 1.263 . S
C311 O288 1.252 . S
C311 C305 1.500 . S
H312 C295 0.929 . S
H313 C296 0.930 . S
H314 C297 0.931 . S
H315 C298 0.930 . S
H316 C307 0.929 . S
H317 C308 0.930 . S
H318 C309 0.931 . S
H319 C310 0.930 . S
C320 C322 1.422 . S
C320 C324 1.415 . S
C320 N326 1.369 . S
C321 C322 1.421 . S
C321 C323 1.417 . S
C321 C333 1.422 . S
C322 C320 1.422 . S
C322 C321 1.421 . S
C322 N332 1.359 . S
C323 C321 1.417 . S
C323 C325 1.329 . S
C323 H342 0.930 . S
C324 C320 1.415 . S
C324 C325 1.437 . S
C324 C328 1.413 . S
C325 C323 1.329 . S
C325 C324 1.437 . S
C325 H347 0.929 . S
N326 C320 1.369 . S
N326 C327 1.338 . S
N326 Gd331 2.622 . S
C327 N326 1.338 . S
C327 C329 1.378 . S
C327 H339 0.929 . S
C328 C324 1.413 . S
C328 C329 1.348 . S
C328 H344 0.931 . S
C329 C327 1.378 . S
C329 C328 1.348 . S
C329 H345 0.930 . S
Gd330 N350 2.622 . S
Gd330 N357 2.570 . S
Gd330 O364 2.346 1_455 S
Gd330 O365 2.468 . S
Gd330 O366 2.427 . S
Gd330 O368 2.388 . S
Gd330 O369 2.386 . S
Gd330 O373 2.292 1_455 S
Gd330 C383 2.805 . S
Gd331 N326 2.622 . S
Gd331 N332 2.570 . S
Gd331 O363 2.386 . S
Gd331 O367 2.307 1_655 S
Gd331 O370 2.353 1_655 S
Gd331 O371 2.468 . S
Gd331 O372 2.427 . S
Gd331 O374 2.388 . S
Gd331 C395 2.805 . S
N332 C322 1.359 . S
N332 Gd331 2.570 . S
N332 C334 1.343 . S
C333 C321 1.422 . S
C333 C335 1.321 . S
C333 H341 0.931 . S
C334 N332 1.343 . S
C334 C335 1.390 . S
C334 H336 0.931 . S
C335 C333 1.321 . S
C335 C334 1.390 . S
C335 H337 0.930 . S
H336 C334 0.931 . S
H337 C335 0.930 . S
H338 C361 0.931 . S
H339 C327 0.929 . S
H340 C362 0.930 . S
H341 C333 0.931 . S
H342 C323 0.930 . S
H343 C352 0.929 . S
H344 C328 0.931 . S
H345 C329 0.930 . S
H346 C384 0.930 . S
H347 C325 0.929 . S
H348 C353 0.931 . S
H349 C354 0.930 . S
N350 Gd330 2.622 . S
N350 C351 1.369 . S
N350 C352 1.338 . S
C351 N350 1.369 . S
C351 C355 1.415 . S
C351 C358 1.422 . S
C352 H343 0.929 . S
C352 N350 1.338 . S
C352 C354 1.378 . S
C353 H348 0.931 . S
C353 C354 1.348 . S
C353 C355 1.413 . S
C354 H349 0.930 . S
C354 C352 1.378 . S
C354 C353 1.348 . S
C355 C351 1.415 . S
C355 C353 1.413 . S
C355 C385 1.437 . S
H356 C385 0.929 . S
N357 Gd330 2.570 . S
N357 C358 1.359 . S
N357 C361 1.343 1_565 S
C358 C351 1.422 . S
C358 N357 1.359 . S
C358 C360 1.421 1_565 S
C359 C360 1.422 . S
C359 C362 1.321 . S
C359 H386 0.931 . S
C360 C358 1.421 1_545 S
C360 C359 1.422 . S
C360 C384 1.417 . S
C361 H338 0.931 . S
C361 N357 1.343 1_545 S
C361 C362 1.390 . S
C362 H340 0.930 . S
C362 C359 1.321 . S
C362 C361 1.390 . S
O363 Gd331 2.386 . S
O363 C375 1.265 . S
O364 Gd330 2.346 1_655 S
O364 C375 1.250 . S
O365 Gd330 2.468 . S
O365 C383 1.263 . S
O366 Gd330 2.427 . S
O366 C383 1.252 . S
O367 Gd331 2.307 1_455 S
O367 C376 1.261 . S
O368 Gd330 2.388 . S
O368 C376 1.252 . S
O369 Gd330 2.386 . S
O369 C387 1.265 . S
O370 Gd331 2.353 1_455 S
O370 C387 1.242 . S
O371 Gd331 2.468 . S
O371 C395 1.263 . S
O372 Gd331 2.427 . S
O372 C395 1.252 . S
O373 Gd330 2.292 1_655 S
O373 C388 1.279 . S
O374 Gd331 2.388 . S
O374 C388 1.252 . S
C375 O363 1.265 . S
C375 O364 1.250 . S
C376 O367 1.261 . S
C376 O368 1.252 . S
C377 C380 1.394 . S
C377 C382 1.370 . S
C377 C383 1.500 . S
C378 C381 1.383 . S
C378 C382 1.395 . S
C379 C380 1.396 . S
C379 C381 1.365 . S
C379 H396 0.929 . S
C380 C377 1.394 . S
C380 C379 1.396 . S
C380 H397 0.930 . S
C381 C378 1.383 . S
C381 C379 1.365 . S
C381 H398 0.931 . S
C382 C377 1.370 . S
C382 C378 1.395 . S
C382 H399 0.930 . S
C383 Gd330 2.805 . S
C383 O365 1.263 . S
C383 O366 1.252 . S
C383 C377 1.500 . S
C384 H346 0.930 . S
C384 C360 1.417 . S
C384 C385 1.329 1_545 S
C385 C355 1.437 . S
C385 H356 0.929 . S
C385 C384 1.329 1_565 S
H386 C359 0.931 . S
C387 O369 1.265 . S
C387 O370 1.242 . S
C388 O373 1.279 . S
C388 O374 1.252 . S
C389 C392 1.394 . S
C389 C394 1.370 . S
C389 C395 1.500 . S
C390 C393 1.383 . S
C390 C394 1.395 . S
C391 C392 1.396 . S
C391 C393 1.365 . S
C391 H400 0.929 1_565 S
C392 C389 1.394 . S
C392 C391 1.396 . S
C392 H401 0.930 . S
C393 C390 1.383 . S
C393 C391 1.365 . S
C393 H402 0.931 . S
C394 C389 1.370 . S
C394 C390 1.395 . S
C394 H403 0.930 . S
C395 Gd331 2.805 . S
C395 O371 1.263 . S
C395 O372 1.252 . S
C395 C389 1.500 . S
H396 C379 0.929 . S
H397 C380 0.930 . S
H398 C381 0.931 . S
H399 C382 0.930 . S
H400 C391 0.929 1_545 S
H401 C392 0.930 . S
H402 C393 0.931 . S
H403 C394 0.930 . S
C404 C406 1.422 . S
C404 C408 1.415 . S
C404 N410 1.369 . S
C405 C406 1.421 . S
C405 C407 1.417 . S
C405 C417 1.422 . S
C406 C404 1.422 . S
C406 C405 1.421 . S
C406 N416 1.359 . S
C407 C405 1.417 . S
C407 C409 1.329 . S
C407 H426 0.930 . S
C408 C404 1.415 . S
C408 C409 1.437 . S
C408 C412 1.413 . S
C409 C407 1.329 . S
C409 C408 1.437 . S
C409 H431 0.929 . S
N410 C404 1.369 . S
N410 C411 1.338 . S
N410 Gd415 2.622 . S
C411 N410 1.338 . S
C411 C413 1.378 . S
C411 H423 0.929 . S
C412 C408 1.413 . S
C412 C413 1.348 . S
C412 H428 0.931 . S
C413 C411 1.378 . S
C413 C412 1.348 . S
C413 H429 0.930 . S
Gd414 N434 2.622 . S
Gd414 N441 2.570 . S
Gd414 O448 2.353 . S
Gd414 O449 2.468 . S
Gd414 O450 2.427 . S
Gd414 O452 2.388 . S
Gd414 O453 2.386 . S
Gd414 O457 2.307 . S
Gd414 C467 2.805 . S
Gd415 N410 2.622 . S
Gd415 N416 2.570 . S
Gd415 O447 2.386 . S
Gd415 O451 2.307 . S
Gd415 O454 2.353 . S
Gd415 O455 2.468 . S
Gd415 O456 2.427 . S
Gd415 O458 2.388 . S
Gd415 C479 2.805 . S
N416 C406 1.359 . S
N416 Gd415 2.570 . S
N416 C418 1.343 . S
C417 C405 1.422 . S
C417 C419 1.321 . S
C417 H425 0.931 . S
C418 N416 1.343 . S
C418 C419 1.390 . S
C418 H420 0.931 . S
C419 C417 1.321 . S
C419 C418 1.390 . S
C419 H421 0.930 . S
H420 C418 0.931 . S
H421 C419 0.930 . S
H422 C445 0.931 . S
H423 C411 0.929 . S
H424 C446 0.930 . S
H425 C417 0.931 . S
H426 C407 0.930 . S
H427 C436 0.929 . S
H428 C412 0.931 . S
H429 C413 0.930 . S
H430 C468 0.930 . S
H431 C409 0.929 . S
H432 C437 0.931 . S
H433 C438 0.930 . S
N434 Gd414 2.622 . S
N434 C435 1.369 . S
N434 C436 1.338 . S
C435 N434 1.369 . S
C435 C439 1.415 . S
C435 C442 1.422 . S
C436 H427 0.929 . S
C436 N434 1.338 . S
C436 C438 1.378 . S
C437 H432 0.931 . S
C437 C438 1.348 . S
C437 C439 1.413 . S
C438 H433 0.930 . S
C438 C436 1.378 . S
C438 C437 1.348 . S
C439 C435 1.415 . S
C439 C437 1.413 . S
C439 C469 1.437 . S
H440 C469 0.929 . S
N441 Gd414 2.570 . S
N441 C442 1.359 . S
N441 C445 1.343 . S
C442 C435 1.422 . S
C442 N441 1.359 . S
C442 C444 1.421 . S
C443 C444 1.422 . S
C443 C446 1.321 . S
C443 H470 0.931 . S
C444 C442 1.421 . S
C444 C443 1.422 . S
C444 C468 1.417 . S
C445 H422 0.931 . S
C445 N441 1.343 . S
C445 C446 1.390 . S
C446 H424 0.930 . S
C446 C443 1.321 . S
C446 C445 1.390 . S
O447 Gd415 2.386 . S
O447 C459 1.265 . S
O448 Gd414 2.353 . S
O448 C459 1.242 . S
O449 Gd414 2.468 . S
O449 C467 1.263 . S
O450 Gd414 2.427 . S
O450 C467 1.252 . S
O451 Gd415 2.307 . S
O451 C460 1.261 . S
O452 Gd414 2.388 . S
O452 C460 1.252 . S
O453 Gd414 2.386 . S
O453 C471 1.265 . S
O454 Gd415 2.353 . S
O454 C471 1.242 . S
O455 Gd415 2.468 . S
O455 C479 1.263 . S
O456 Gd415 2.427 . S
O456 C479 1.252 . S
O457 Gd414 2.307 . S
O457 C472 1.261 . S
O458 Gd415 2.388 . S
O458 C472 1.252 . S
C459 O447 1.265 . S
C459 O448 1.242 . S
C460 O451 1.261 . S
C460 O452 1.252 . S
C461 C464 1.394 . S
C461 C466 1.370 . S
C461 C467 1.500 . S
C462 C465 1.383 . S
C462 C466 1.395 . S
C463 C464 1.396 . S
C463 C465 1.365 . S
C463 H480 0.929 . S
C464 C461 1.394 . S
C464 C463 1.396 . S
C464 H481 0.930 . S
C465 C462 1.383 . S
C465 C463 1.365 . S
C465 H482 0.931 . S
C466 C461 1.370 . S
C466 C462 1.395 . S
C466 H483 0.930 . S
C467 Gd414 2.805 . S
C467 O449 1.263 . S
C467 O450 1.252 . S
C467 C461 1.500 . S
C468 H430 0.930 . S
C468 C444 1.417 . S
C468 C469 1.329 . S
C469 C439 1.437 . S
C469 H440 0.929 . S
C469 C468 1.329 . S
H470 C443 0.931 . S
C471 O453 1.265 . S
C471 O454 1.242 . S
C472 O457 1.261 . S
C472 O458 1.252 . S
C473 C476 1.394 . S
C473 C478 1.370 . S
C473 C479 1.500 . S
C474 C477 1.383 . S
C474 C478 1.395 . S
C475 C476 1.396 . S
C475 C477 1.365 . S
C475 H484 0.929 . S
C476 C473 1.394 . S
C476 C475 1.396 . S
C476 H485 0.930 . S
C477 C474 1.383 . S
C477 C475 1.365 . S
C477 H486 0.931 . S
C478 C473 1.370 . S
C478 C474 1.395 . S
C478 H487 0.930 . S
C479 Gd415 2.805 . S
C479 O455 1.263 . S
C479 O456 1.252 . S
C479 C473 1.500 . S
H480 C463 0.929 . S
H481 C464 0.930 . S
H482 C465 0.931 . S
H483 C466 0.930 . S
H484 C475 0.929 . S
H485 C476 0.930 . S
H486 C477 0.931 . S
H487 C478 0.930 . S
C488 C489 1.369 . S
C488 C490 1.419 . S
C488 H492 0.930 . S
C489 C488 1.369 . S
C489 C498 1.429 . S
C490 C488 1.419 . S
C490 C491 1.363 . S
C490 H493 0.929 1_565 S
C491 C490 1.363 . S
C491 C497 1.428 . S
H492 C488 0.930 . S
H493 C490 0.929 1_545 S
S494 N495 1.613 . S
S494 N496 1.610 . S
N495 S494 1.613 . S
N495 C498 1.350 . S
N496 S494 1.610 . S
N496 C497 1.351 . S
C497 C491 1.428 . S
C497 N496 1.351 . S
C497 C498 1.434 . S
C498 C489 1.429 . S
C498 N495 1.350 . S
C498 C497 1.434 . S
C499 C500 1.369 . S
C499 C501 1.419 . S
C499 H503 0.930 . S
C500 C499 1.369 . S
C500 C509 1.429 . S
C501 C499 1.419 . S
C501 C502 1.363 . S
C501 H504 0.929 . S
C502 C501 1.363 . S
C502 C508 1.428 . S
H503 C499 0.930 . S
H504 C501 0.929 . S
S505 N506 1.613 . S
S505 N507 1.610 . S
N506 S505 1.613 . S
N506 C509 1.350 . S
N507 S505 1.610 . S
N507 C508 1.351 . S
C508 C502 1.428 . S
C508 N507 1.351 . S
C508 C509 1.434 . S
C509 C500 1.429 . S
C509 N506 1.350 . S
C509 C508 1.434 . S
C510 C511 1.369 . S
C510 C512 1.419 . S
C510 H514 0.930 . S
C511 C510 1.369 . S
C511 C520 1.429 . S
C512 C510 1.419 . S
C512 C513 1.363 . S
C512 H515 0.929 . S
C513 C512 1.363 . S
C513 C519 1.428 . S
H514 C510 0.930 . S
H515 C512 0.929 . S
S516 N517 1.613 . S
S516 N518 1.610 . S
N517 S516 1.613 . S
N517 C520 1.350 . S
N518 S516 1.610 . S
N518 C519 1.351 . S
C519 C513 1.428 . S
C519 N518 1.351 . S
C519 C520 1.434 . S
C520 C511 1.429 . S
C520 N517 1.350 . S
C520 C519 1.434 . S
C521 C522 1.369 . S
C521 C523 1.419 . S
C521 H525 0.930 . S
C522 C521 1.369 . S
C522 C531 1.429 . S
C523 C521 1.419 . S
C523 C524 1.363 . S
C523 H526 0.929 . S
C524 C523 1.363 . S
C524 C530 1.428 . S
H525 C521 0.930 . S
H526 C523 0.929 . S
S527 N528 1.613 . S
S527 N529 1.610 . S
N528 S527 1.613 . S
N528 C531 1.350 . S
N529 S527 1.610 . S
N529 C530 1.351 . S
C530 C524 1.428 . S
C530 N529 1.351 . S
C530 C531 1.434 . S
C531 C522 1.429 . S
C531 N528 1.350 . S
C531 C530 1.434 . S
C532 C533 1.369 . S
C532 C534 1.419 . S
C532 H536 0.930 . S
C533 C532 1.369 . S
C533 C542 1.429 . S
C534 C532 1.419 . S
C534 C535 1.363 . S
C534 H537 0.943 . S
C535 C534 1.363 . S
C535 C541 1.428 . S
H536 C532 0.930 . S
H537 C534 0.943 . S
S538 N539 1.613 . S
S538 N540 1.610 . S
N539 S538 1.613 . S
N539 C542 1.350 . S
N540 S538 1.610 . S
N540 C541 1.351 . S
C541 C535 1.428 . S
C541 N540 1.351 . S
C541 C542 1.434 . S
C542 C533 1.429 . S
C542 N539 1.350 . S
C542 C541 1.434 . S
C543 C544 1.369 . S
C543 C545 1.419 . S
C543 H547 0.930 . S
C544 C543 1.369 . S
C544 C553 1.429 . S
C545 C543 1.419 . S
C545 C546 1.363 . S
C545 H548 0.929 . S
C546 C545 1.363 . S
C546 C552 1.428 . S
H547 C543 0.930 . S
H548 C545 0.929 . S
S549 N550 1.613 . S
S549 N551 1.610 . S
N550 S549 1.613 . S
N550 C553 1.350 . S
N551 S549 1.610 . S
N551 C552 1.351 . S
C552 C546 1.428 . S
C552 N551 1.351 . S
C552 C553 1.434 . S
C553 C544 1.429 . S
C553 N550 1.350 . S
C553 C552 1.434 . S
C554 C555 1.369 . S
C554 C556 1.419 . S
C554 H558 0.930 . S
C555 C554 1.369 . S
C555 C564 1.429 . S
C556 C554 1.419 . S
C556 C557 1.363 . S
C556 H559 0.929 . S
C557 C556 1.363 . S
C557 C563 1.428 . S
H558 C554 0.930 . S
H559 C556 0.929 . S
S560 N561 1.613 . S
S560 N562 1.610 . S
N561 S560 1.613 . S
N561 C564 1.350 . S
N562 S560 1.610 . S
N562 C563 1.351 . S
C563 C557 1.428 . S
C563 N562 1.351 . S
C563 C564 1.434 . S
C564 C555 1.429 . S
C564 N561 1.350 . S
C564 C563 1.434 . S
C565 C566 1.369 . S
C565 C567 1.419 . S
C565 H569 0.930 . S
C566 C565 1.369 . S
C566 C575 1.429 . S
C567 C565 1.419 . S
C567 C568 1.363 . S
C567 H570 0.929 . S
C568 C567 1.363 . S
C568 C574 1.428 . S
H569 C565 0.930 . S
H570 C567 0.929 . S
S571 N572 1.613 . S
S571 N573 1.610 . S
N572 S571 1.613 . S
N572 C575 1.350 . S
N573 S571 1.610 . S
N573 C574 1.351 . S
C574 C568 1.428 . S
C574 N573 1.351 . S
C574 C575 1.434 . S
C575 C566 1.429 . S
C575 N572 1.350 . S
C575 C574 1.434 . S
C576 C577 1.369 . S
C576 C578 1.419 1_556 S
C576 H580 0.930 . S
C577 C576 1.369 . S
C577 C586 1.429 1_556 S
C578 C576 1.419 1_554 S
C578 C579 1.363 . S
C578 H581 0.929 . S
C579 C578 1.363 . S
C579 C585 1.428 . S
H580 C576 0.930 . S
H581 C578 0.929 . S
S582 N583 1.613 . S
S582 N584 1.610 . S
N583 S582 1.613 . S
N583 C586 1.350 . S
N584 S582 1.610 . S
N584 C585 1.351 . S
C585 C579 1.428 . S
C585 N584 1.351 . S
C585 C586 1.434 . S
C586 C577 1.429 1_554 S
C586 N583 1.350 . S
C586 C585 1.434 . S
C587 C588 1.369 . S
C587 C589 1.419 . S
C587 H591 0.930 . S
C588 C587 1.369 . S
C588 C597 1.429 . S
C589 C587 1.419 . S
C589 C590 1.363 . S
C589 H592 0.929 . S
C590 C589 1.363 . S
C590 C596 1.428 . S
H591 C587 0.930 . S
H592 C589 0.929 . S
S593 N594 1.613 . S
S593 N595 1.610 . S
N594 S593 1.613 . S
N594 C597 1.350 . S
N595 S593 1.610 . S
N595 C596 1.351 . S
C596 C590 1.428 . S
C596 N595 1.351 . S
C596 C597 1.434 . S
C597 C588 1.429 . S
C597 N594 1.350 . S
C597 C596 1.434 . S
C598 C599 1.377 . S
C598 C600 1.411 1_554 S
C598 H602 0.930 . S
C599 C598 1.377 . S
C599 C608 1.429 . S
C600 C598 1.411 1_556 S
C600 C601 1.363 . S
C600 H603 0.929 . S
C601 C600 1.363 . S
C601 C607 1.428 . S
H602 C598 0.930 . S
H603 C600 0.929 . S
S604 N605 1.613 . S
S604 N606 1.610 . S
N605 S604 1.613 . S
N605 C608 1.350 . S
N606 S604 1.610 . S
N606 C607 1.351 1_554 S
C607 C601 1.428 . S
C607 N606 1.351 1_556 S
C607 C608 1.434 1_556 S
C608 C599 1.429 . S
C608 N605 1.350 . S
C608 C607 1.434 1_554 S
C609 C610 1.369 . S
C609 C611 1.419 . S
C609 H613 0.930 . S
C610 C609 1.369 . S
C610 C619 1.429 . S
C611 C609 1.419 . S
C611 C612 1.363 . S
C611 H614 0.929 . S
C612 C611 1.363 . S
C612 C618 1.428 . S
H613 C609 0.930 . S
H614 C611 0.929 . S
S615 N616 1.613 1_565 S
S615 N617 1.610 1_565 S
N616 S615 1.613 1_545 S
N616 C619 1.350 . S
N617 S615 1.610 1_545 S
N617 C618 1.351 . S
C618 C612 1.428 . S
C618 N617 1.351 . S
C618 C619 1.434 . S
C619 C610 1.429 . S
C619 N616 1.350 . S
C619 C618 1.434 . S
C620 C621 1.369 . S
C620 C622 1.419 1_554 S
C620 H624 0.930 . S
C621 C620 1.369 . S
C621 C630 1.429 1_554 S
C622 C620 1.419 1_556 S
C622 C623 1.363 . S
C622 H625 0.929 . S
C623 C622 1.363 . S
C623 C629 1.428 . S
H624 C620 0.930 . S
H625 C622 0.929 . S
S626 N627 1.613 . S
S626 N628 1.610 . S
N627 S626 1.613 . S
N627 C630 1.350 . S
N628 S626 1.610 . S
N628 C629 1.351 . S
C629 C623 1.428 . S
C629 N628 1.351 . S
C629 C630 1.434 . S
C630 C621 1.429 1_556 S
C630 N627 1.350 . S
C630 C629 1.434 . S
C631 C632 1.369 . S
C631 C633 1.419 . S
C631 H635 0.930 . S
C632 C631 1.369 . S
C632 C641 1.429 . S
C633 C631 1.419 . S
C633 C634 1.363 . S
C633 H636 0.929 . S
C634 C633 1.363 . S
C634 C640 1.428 . S
H635 C631 0.930 . S
H636 C633 0.929 . S
S637 N638 1.613 . S
S637 N639 1.610 . S
N638 S637 1.613 . S
N638 C641 1.350 . S
N639 S637 1.610 . S
N639 C640 1.351 . S
C640 C634 1.428 . S
C640 N639 1.351 . S
C640 C641 1.434 . S
C641 C632 1.429 . S
C641 N638 1.350 . S
C641 C640 1.434 . S
C642 C643 1.369 . S
C642 C644 1.419 1_556 S
C642 H646 0.930 . S
C643 C642 1.369 . S
C643 C652 1.429 . S
C644 C642 1.419 1_554 S
C644 C645 1.363 . S
C644 H647 0.929 . S
C645 C644 1.363 . S
C645 C651 1.428 . S
H646 C642 0.930 . S
H647 C644 0.929 . S
S648 N649 1.613 1_554 S
S648 N650 1.610 . S
N649 S648 1.613 1_556 S
N649 C652 1.350 . S
N650 S648 1.610 . S
N650 C651 1.351 . S
C651 C645 1.428 . S
C651 N650 1.351 . S
C651 C652 1.434 1_554 S
C652 C643 1.429 . S
C652 N649 1.350 . S
C652 C651 1.434 1_556 S
C653 C654 1.369 . S
C653 C655 1.419 . S
C653 H657 0.930 . S
C654 C653 1.369 . S
C654 C663 1.429 . S
C655 C653 1.419 . S
C655 C656 1.363 . S
C655 H658 0.929 . S
C656 C655 1.363 . S
C656 C662 1.428 . S
H657 C653 0.930 . S
H658 C655 0.929 . S
S659 N660 1.613 . S
S659 N661 1.610 . S
N660 S659 1.613 . S
N660 C663 1.350 . S
N661 S659 1.610 . S
N661 C662 1.351 . S
C662 C656 1.428 . S
C662 N661 1.351 . S
C662 C663 1.434 . S
C663 C654 1.429 . S
C663 N660 1.350 . S
C663 C662 1.434 . S
C664 C665 1.369 . S
C664 C666 1.419 . S
C664 H668 0.930 . S
C665 C664 1.369 . S
C665 C674 1.429 . S
C666 C664 1.419 . S
C666 C667 1.363 . S
C666 H669 0.929 . S
C667 C666 1.363 . S
C667 C673 1.428 . S
H668 C664 0.930 . S
H669 C666 0.929 . S
S670 N671 1.613 . S
S670 N672 1.610 . S
N671 S670 1.613 . S
N671 C674 1.350 . S
N672 S670 1.610 . S
N672 C673 1.351 . S
C673 C667 1.428 . S
C673 N672 1.351 . S
C673 C674 1.434 . S
C674 C665 1.429 . S
C674 N671 1.350 . S
C674 C673 1.434 . S
C675 C676 1.369 . S
C675 C677 1.419 . S
C675 H679 0.930 . S
C676 C675 1.369 . S
C676 C685 1.429 . S
C677 C675 1.419 . S
C677 C678 1.363 . S
C677 H680 0.929 . S
C678 C677 1.363 . S
C678 C684 1.428 . S
H679 C675 0.930 . S
H680 C677 0.929 . S
S681 N682 1.613 . S
S681 N683 1.610 . S
N682 S681 1.613 . S
N682 C685 1.350 . S
N683 S681 1.610 . S
N683 C684 1.351 . S
C684 C678 1.428 . S
C684 N683 1.351 . S
C684 C685 1.434 . S
C685 C676 1.429 . S
C685 N682 1.350 . S
C685 C684 1.434 . S
C686 C687 1.369 . S
C686 C688 1.419 . S
C686 H690 0.930 . S
C687 C686 1.369 . S
C687 C696 1.429 . S
C688 C686 1.419 . S
C688 C689 1.363 . S
C688 H691 0.929 . S
C689 C688 1.363 . S
C689 C695 1.428 . S
H690 C686 0.930 . S
H691 C688 0.929 . S
S692 N693 1.613 . S
S692 N694 1.610 . S
N693 S692 1.613 . S
N693 C696 1.350 . S
N694 S692 1.610 . S
N694 C695 1.351 . S
C695 C689 1.428 . S
C695 N694 1.351 . S
C695 C696 1.434 . S
C696 C687 1.429 . S
C696 N693 1.350 . S
C696 C695 1.434 . S
C697 C698 1.369 . S
C697 C699 1.419 . S
C697 H701 0.930 . S
C698 C697 1.369 . S
C698 C707 1.429 . S
C699 C697 1.419 . S
C699 C700 1.363 . S
C699 H702 0.929 . S
C700 C699 1.363 . S
C700 C706 1.428 . S
H701 C697 0.930 . S
H702 C699 0.929 . S
S703 N704 1.613 . S
S703 N705 1.610 . S
N704 S703 1.613 . S
N704 C707 1.350 . S
N705 S703 1.610 . S
N705 C706 1.351 . S
C706 C700 1.428 . S
C706 N705 1.351 . S
C706 C707 1.434 . S
C707 C698 1.429 . S
C707 N704 1.350 . S
C707 C706 1.434 . S
C708 C709 1.369 . S
C708 C710 1.419 . S
C708 H712 0.930 . S
C709 C708 1.369 . S
C709 C718 1.429 . S
C710 C708 1.419 . S
C710 C711 1.363 . S
C710 H713 0.929 . S
C711 C710 1.363 . S
C711 C717 1.428 . S
H712 C708 0.930 . S
H713 C710 0.929 . S
S714 N715 1.613 . S
S714 N716 1.610 . S
N715 S714 1.613 . S
N715 C718 1.350 . S
N716 S714 1.610 . S
N716 C717 1.351 . S
C717 C711 1.428 . S
C717 N716 1.351 . S
C717 C718 1.434 . S
C718 C709 1.429 . S
C718 N715 1.350 . S
C718 C717 1.434 . S
C719 C720 1.369 . S
C719 C721 1.419 . S
C719 H723 0.930 . S
C720 C719 1.369 . S
C720 C729 1.429 . S
C721 C719 1.419 . S
C721 C722 1.363 . S
C721 H724 0.929 . S
C722 C721 1.363 . S
C722 C728 1.428 . S
H723 C719 0.930 . S
H724 C721 0.929 . S
S725 N726 1.613 . S
S725 N727 1.610 . S
N726 S725 1.613 . S
N726 C729 1.350 . S
N727 S725 1.610 . S
N727 C728 1.351 . S
C728 C722 1.428 . S
C728 N727 1.351 . S
C728 C729 1.434 . S
C729 C720 1.429 . S
C729 N726 1.350 . S
C729 C728 1.434 . S
C730 C731 1.369 . S
C730 C732 1.419 . S
C730 H734 0.930 . S
C731 C730 1.369 . S
C731 C740 1.429 . S
C732 C730 1.419 . S
C732 C733 1.363 . S
C732 H735 0.929 . S
C733 C732 1.363 . S
C733 C739 1.428 . S
H734 C730 0.930 . S
H735 C732 0.929 . S
S736 N737 1.613 . S
S736 N738 1.610 . S
N737 S736 1.613 . S
N737 C740 1.350 . S
N738 S736 1.610 . S
N738 C739 1.351 . S
C739 C733 1.428 . S
C739 N738 1.351 . S
C739 C740 1.434 . S
C740 C731 1.429 . S
C740 N737 1.350 . S
C740 C739 1.434 . S
C741 C742 1.369 . S
C741 C743 1.419 . S
C741 H745 0.930 . S
C742 C741 1.369 . S
C742 C751 1.429 . S
C743 C741 1.419 . S
C743 C744 1.363 . S
C743 H746 0.929 . S
C744 C743 1.363 . S
C744 C750 1.428 . S
H745 C741 0.930 . S
H746 C743 0.929 . S
S747 N748 1.613 1_655 S
S747 N749 1.610 . S
N748 S747 1.613 1_455 S
N748 C751 1.350 . S
N749 S747 1.610 . S
N749 C750 1.351 1_655 S
C750 C744 1.428 . S
C750 N749 1.351 1_455 S
C750 C751 1.434 . S
C751 C742 1.429 . S
C751 N748 1.350 . S
C751 C750 1.434 . S
C489 C116 1.807 . S
C491 C208 1.806 1_565 S
C502 C292 1.805 . S
C500 C135 1.809 . S
C513 C291 1.801 . S
C511 C78 1.809 . S
C522 C97 1.810 . S
C524 C207 1.801 1_565 S
C535 C388 1.805 1_545 S
C533 C40 1.809 . S
C546 C472 1.808 . S
C544 C59 1.807 . S
C555 C2 1.810 . S
C557 C471 1.799 . S
C566 C21 1.808 . S
C568 C387 1.801 1_545 S
C579 C210 1.548 . S
C577 C25 1.730 . S
C590 C294 1.558 . S
C588 C6 1.728 . S
C601 C306 1.432 . S
C599 C63 1.721 . S
C612 C222 1.431 . S
C610 C44 1.721 . S
C623 C390 1.550 . S
C621 C101 1.729 . S
C632 C82 1.726 . S
C634 C474 1.557 . S
C645 C462 1.422 . S
C643 C139 1.721 . S
C654 C120 1.722 . S
C656 C378 1.418 . S
C667 C219 1.510 . S
C665 C11 1.444 . S
C678 C303 1.510 . S
C676 C30 1.445 . S
C687 C49 1.431 . S
C689 C304 1.468 . S
C700 C220 1.469 . S
C698 C68 1.428 . S
C711 C375 1.510 . S
C709 C87 1.369 . S
C720 C106 1.383 . S
C722 C459 1.510 . S
C731 C125 1.373 . S
C733 C460 1.473 . S
C742 C144 1.383 . S
C744 C376 1.470 . S
