# Generated by pormake.
# Topology eea, (3,6)-cn, num edge types: 1
# Building blocks:
#     Node 0, Type 0, BuildingBlock: BETDIP_clean_linker_0, # of connection points: 3
#     Node 1, Type 0, BuildingBlock: BETDIP_clean_linker_0, # of connection points: 3
#     Node 2, Type 0, BuildingBlock: BETDIP_clean_linker_0, # of connection points: 3
#     Node 3, Type 0, BuildingBlock: BETDIP_clean_linker_0, # of connection points: 3
#     Node 4, Type 0, BuildingBlock: BETDIP_clean_linker_0, # of connection points: 3
#     Node 5, Type 0, BuildingBlock: BETDIP_clean_linker_0, # of connection points: 3
#     Node 6, Type 0, BuildingBlock: BETDIP_clean_linker_0, # of connection points: 3
#     Node 7, Type 0, BuildingBlock: BETDIP_clean_linker_0, # of connection points: 3
#     Node 8, Type 0, BuildingBlock: BETDIP_clean_linker_0, # of connection points: 3
#     Node 9, Type 0, BuildingBlock: BETDIP_clean_linker_0, # of connection points: 3
#     Node 10, Type 0, BuildingBlock: BETDIP_clean_linker_0, # of connection points: 3
#     Node 11, Type 0, BuildingBlock: BETDIP_clean_linker_0, # of connection points: 3
#     Node 12, Type 0, BuildingBlock: BETDIP_clean_linker_0, # of connection points: 3
#     Node 13, Type 0, BuildingBlock: BETDIP_clean_linker_0, # of connection points: 3
#     Node 14, Type 0, BuildingBlock: BETDIP_clean_linker_0, # of connection points: 3
#     Node 15, Type 0, BuildingBlock: BETDIP_clean_linker_0, # of connection points: 3
#     Node 16, Type 0, BuildingBlock: BETDIP_clean_linker_0, # of connection points: 3
#     Node 17, Type 0, BuildingBlock: BETDIP_clean_linker_0, # of connection points: 3
#     Node 18, Type 1, BuildingBlock: KUMJIN_clean_sbu_0, # of connection points: 6
#     Node 19, Type 1, BuildingBlock: KUMJIN_clean_sbu_0, # of connection points: 6
#     Node 20, Type 1, BuildingBlock: KUMJIN_clean_sbu_0, # of connection points: 6
#     Node 21, Type 1, BuildingBlock: KUMJIN_clean_sbu_0, # of connection points: 6
#     Node 22, Type 1, BuildingBlock: KUMJIN_clean_sbu_0, # of connection points: 6
#     Node 23, Type 1, BuildingBlock: KUMJIN_clean_sbu_0, # of connection points: 6
#     Node 24, Type 1, BuildingBlock: KUMJIN_clean_sbu_0, # of connection points: 6
#     Node 25, Type 1, BuildingBlock: KUMJIN_clean_sbu_0, # of connection points: 6
#     Node 26, Type 1, BuildingBlock: KUMJIN_clean_sbu_0, # of connection points: 6
#     Edge 27, Type (0, 1), BuildingBlock: XIVTED_clean_linker_0, # of connection points: 2
#     Edge 28, Type (0, 1), BuildingBlock: XIVTED_clean_linker_0, # of connection points: 2
#     Edge 29, Type (0, 1), BuildingBlock: XIVTED_clean_linker_0, # of connection points: 2
#     Edge 30, Type (0, 1), BuildingBlock: XIVTED_clean_linker_0, # of connection points: 2
#     Edge 31, Type (0, 1), BuildingBlock: XIVTED_clean_linker_0, # of connection points: 2
#     Edge 32, Type (0, 1), BuildingBlock: XIVTED_clean_linker_0, # of connection points: 2
#     Edge 33, Type (0, 1), BuildingBlock: XIVTED_clean_linker_0, # of connection points: 2
#     Edge 34, Type (0, 1), BuildingBlock: XIVTED_clean_linker_0, # of connection points: 2
#     Edge 35, Type (0, 1), BuildingBlock: XIVTED_clean_linker_0, # of connection points: 2
#     Edge 36, Type (0, 1), BuildingBlock: XIVTED_clean_linker_0, # of connection points: 2
#     Edge 37, Type (0, 1), BuildingBlock: XIVTED_clean_linker_0, # of connection points: 2
#     Edge 38, Type (0, 1), BuildingBlock: XIVTED_clean_linker_0, # of connection points: 2
#     Edge 39, Type (0, 1), BuildingBlock: XIVTED_clean_linker_0, # of connection points: 2
#     Edge 40, Type (0, 1), BuildingBlock: XIVTED_clean_linker_0, # of connection points: 2
#     Edge 41, Type (0, 1), BuildingBlock: XIVTED_clean_linker_0, # of connection points: 2
#     Edge 42, Type (0, 1), BuildingBlock: XIVTED_clean_linker_0, # of connection points: 2
#     Edge 43, Type (0, 1), BuildingBlock: XIVTED_clean_linker_0, # of connection points: 2
#     Edge 44, Type (0, 1), BuildingBlock: XIVTED_clean_linker_0, # of connection points: 2
#     Edge 45, Type (0, 1), BuildingBlock: XIVTED_clean_linker_0, # of connection points: 2
#     Edge 46, Type (0, 1), BuildingBlock: XIVTED_clean_linker_0, # of connection points: 2
#     Edge 47, Type (0, 1), BuildingBlock: XIVTED_clean_linker_0, # of connection points: 2
#     Edge 48, Type (0, 1), BuildingBlock: XIVTED_clean_linker_0, # of connection points: 2
#     Edge 49, Type (0, 1), BuildingBlock: XIVTED_clean_linker_0, # of connection points: 2
#     Edge 50, Type (0, 1), BuildingBlock: XIVTED_clean_linker_0, # of connection points: 2
#     Edge 51, Type (0, 1), BuildingBlock: XIVTED_clean_linker_0, # of connection points: 2
#     Edge 52, Type (0, 1), BuildingBlock: XIVTED_clean_linker_0, # of connection points: 2
#     Edge 53, Type (0, 1), BuildingBlock: XIVTED_clean_linker_0, # of connection points: 2
#     Edge 54, Type (0, 1), BuildingBlock: XIVTED_clean_linker_0, # of connection points: 2
#     Edge 55, Type (0, 1), BuildingBlock: XIVTED_clean_linker_0, # of connection points: 2
#     Edge 56, Type (0, 1), BuildingBlock: XIVTED_clean_linker_0, # of connection points: 2
#     Edge 57, Type (0, 1), BuildingBlock: XIVTED_clean_linker_0, # of connection points: 2
#     Edge 58, Type (0, 1), BuildingBlock: XIVTED_clean_linker_0, # of connection points: 2
#     Edge 59, Type (0, 1), BuildingBlock: XIVTED_clean_linker_0, # of connection points: 2
#     Edge 60, Type (0, 1), BuildingBlock: XIVTED_clean_linker_0, # of connection points: 2
#     Edge 61, Type (0, 1), BuildingBlock: XIVTED_clean_linker_0, # of connection points: 2
#     Edge 62, Type (0, 1), BuildingBlock: XIVTED_clean_linker_0, # of connection points: 2
#     Edge 63, Type (0, 1), BuildingBlock: XIVTED_clean_linker_0, # of connection points: 2
#     Edge 64, Type (0, 1), BuildingBlock: XIVTED_clean_linker_0, # of connection points: 2
#     Edge 65, Type (0, 1), BuildingBlock: XIVTED_clean_linker_0, # of connection points: 2
#     Edge 66, Type (0, 1), BuildingBlock: XIVTED_clean_linker_0, # of connection points: 2
#     Edge 67, Type (0, 1), BuildingBlock: XIVTED_clean_linker_0, # of connection points: 2
#     Edge 68, Type (0, 1), BuildingBlock: XIVTED_clean_linker_0, # of connection points: 2
#     Edge 69, Type (0, 1), BuildingBlock: XIVTED_clean_linker_0, # of connection points: 2
#     Edge 70, Type (0, 1), BuildingBlock: XIVTED_clean_linker_0, # of connection points: 2
#     Edge 71, Type (0, 1), BuildingBlock: XIVTED_clean_linker_0, # of connection points: 2
#     Edge 72, Type (0, 1), BuildingBlock: XIVTED_clean_linker_0, # of connection points: 2
#     Edge 73, Type (0, 1), BuildingBlock: XIVTED_clean_linker_0, # of connection points: 2
#     Edge 74, Type (0, 1), BuildingBlock: XIVTED_clean_linker_0, # of connection points: 2
#     Edge 75, Type (0, 1), BuildingBlock: XIVTED_clean_linker_0, # of connection points: 2
#     Edge 76, Type (0, 1), BuildingBlock: XIVTED_clean_linker_0, # of connection points: 2
#     Edge 77, Type (0, 1), BuildingBlock: XIVTED_clean_linker_0, # of connection points: 2
#     Edge 78, Type (0, 1), BuildingBlock: XIVTED_clean_linker_0, # of connection points: 2
#     Edge 79, Type (0, 1), BuildingBlock: XIVTED_clean_linker_0, # of connection points: 2
#     Edge 80, Type (0, 1), BuildingBlock: XIVTED_clean_linker_0, # of connection points: 2
# Relax obj value: 0.025
# Max RMSD: 0.166
# Mean RMSD: 0.120
data_MOF--net-eea--node1-KUMJIN_clean_sbu_0--node2-BETDIP_clean_linker_0--edge1-XIVTED_clean_linker_0
_symmetry_space_group_name_H-M    P1
_symmetry_Int_Tables_number       1
_symmetry_cell_setting            triclinic
loop_
_symmetry_equiv_pos_as_xyz
'x, y, z'
_cell_length_a     54.530809
_cell_length_b     56.084398
_cell_length_c     67.264665
_cell_angle_alpha  89.977926
_cell_angle_beta   89.962845
_cell_angle_gamma 119.95119
loop_
_atom_site_label
_atom_site_type_symbol
_atom_site_fract_x
_atom_site_fract_y
_atom_site_fract_z
_atom_type_partial_charge
H0 H 0.20545 0.08725 0.39418 0.0
H1 H 0.25303 0.15035 0.43717 0.0
H2 H 0.26305 0.07946 0.43393 0.0
H3 H 0.2151 0.15604 0.43531 0.0
C4 C 0.21137 0.15475 0.41938 0.0
C5 C 0.22087 0.09518 0.40608 0.0
C6 C 0.23356 0.08011 0.41284 0.0
C7 C 0.22723 0.12018 0.41506 0.0
C8 C 0.24702 0.13054 0.43066 0.0
C9 C 0.25971 0.11577 0.43772 0.0
C10 C 0.25309 0.09079 0.42858 0.0
N11 N 0.21388 0.13477 0.40792 0.0
H12 H 0.93151 0.12865 0.38313 0.0
H13 H 0.87207 0.10146 0.4315 0.0
H14 H 0.93793 0.18595 0.42839 0.0
H15 H 0.8733 0.06167 0.42602 0.0
C16 C 0.87068 0.06073 0.40997 0.0
C17 C 0.92405 0.13309 0.39681 0.0
C18 C 0.9377 0.16001 0.40454 0.0
C19 C 0.90069 0.11177 0.40662 0.0
C20 C 0.89049 0.11763 0.42406 0.0
C21 C 0.90378 0.1443 0.43202 0.0
C22 C 0.92748 0.16534 0.42224 0.0
N23 N 0.88706 0.08481 0.39837 0.0
H24 H 0.89601 0.80776 0.38351 0.0
H25 H 0.91954 0.77467 0.43318 0.0
H26 H 0.83753 0.76703 0.43162 0.0
H27 H 0.96263 0.80403 0.42457 0.0
C28 C 0.96283 0.80536 0.40848 0.0
C29 C 0.89114 0.79748 0.39781 0.0
C30 C 0.8641 0.78764 0.40632 0.0
C31 C 0.91173 0.79343 0.40748 0.0
C32 C 0.90469 0.77907 0.42576 0.0
C33 C 0.87821 0.76997 0.4347 0.0
C34 C 0.85817 0.77441 0.4249 0.0
N35 N 0.93872 0.80284 0.39823 0.0
H36 H 0.0954 0.20548 0.64593 0.0
H37 H 0.15471 0.23681 0.5975 0.0
H38 H 0.07847 0.24128 0.59467 0.0
H39 H 0.18435 0.25244 0.62708 0.0
C40 C 0.17591 0.23163 0.63277 0.0
C41 C 0.10124 0.21491 0.63135 0.0
C42 C 0.08352 0.22271 0.62136 0.0
C43 C 0.12735 0.22068 0.62305 0.0
C44 C 0.13511 0.23323 0.60423 0.0
C45 C 0.11764 0.24074 0.59385 0.0
C46 C 0.09191 0.23533 0.60254 0.0
N47 N 0.14594 0.21423 0.63373 0.0
H48 H 0.79751 0.8811 0.64249 0.0
H49 H 0.76849 0.90831 0.59297 0.0
H50 H 0.75749 0.82684 0.59275 0.0
H51 H 0.82136 0.94841 0.60378 0.0
C52 C 0.81057 0.94827 0.61742 0.0
C53 C 0.78746 0.87692 0.62802 0.0
C54 C 0.77838 0.85147 0.61864 0.0
C55 C 0.78435 0.89746 0.61861 0.0
C56 C 0.77099 0.8923 0.60008 0.0
C57 C 0.76068 0.86665 0.59081 0.0
C58 C 0.76481 0.84645 0.60006 0.0
N59 N 0.79454 0.92328 0.62799 0.0
H60 H 0.12176 0.91023 0.64317 0.0
H61 H 0.1012 0.85325 0.5947 0.0
H62 H 0.1787 0.93077 0.59354 0.0
H63 H 0.08444 0.82374 0.62283 0.0
C64 C 0.07174 0.83178 0.62928 0.0
C65 C 0.12699 0.90521 0.62881 0.0
C66 C 0.15286 0.9235 0.61956 0.0
C67 C 0.10848 0.87963 0.62012 0.0
C68 C 0.11544 0.87282 0.60158 0.0
C69 C 0.14096 0.89106 0.59201 0.0
C70 C 0.15929 0.91635 0.60106 0.0
N71 N 0.08327 0.86078 0.63038 0.0
H72 H 0.88506 0.42369 0.71971 0.0
H73 H 0.9235 0.48152 0.76737 0.0
H74 H 0.93439 0.41101 0.76404 0.0
H75 H 0.88546 0.4864 0.76347 0.0
C76 C 0.88315 0.48603 0.74742 0.0
C77 C 0.89771 0.43002 0.73313 0.0
C78 C 0.90983 0.41472 0.74037 0.0
C79 C 0.90161 0.45349 0.74318 0.0
C80 C 0.9189 0.46248 0.76018 0.0
C81 C 0.93095 0.44736 0.76777 0.0
C82 C 0.92611 0.4234 0.75783 0.0
N83 N 0.88839 0.46798 0.73569 0.0
H84 H 0.59689 0.45878 0.71651 0.0
H85 H 0.54008 0.43475 0.76648 0.0
H86 H 0.60824 0.51781 0.7618 0.0
H87 H 0.53535 0.39376 0.7608 0.0
C88 C 0.53432 0.39242 0.74469 0.0
C89 C 0.59049 0.46385 0.7304 0.0
C90 C 0.60515 0.49103 0.73768 0.0
C91 C 0.56735 0.44316 0.7409 0.0
C92 C 0.55872 0.45 0.7587 0.0
C93 C 0.57342 0.47679 0.76639 0.0
C94 C 0.5965 0.49719 0.75574 0.0
N95 N 0.55243 0.41594 0.73301 0.0
H96 H 0.55667 0.13484 0.71305 0.0
H97 H 0.59058 0.1136 0.76338 0.0
H98 H 0.50676 0.10253 0.76628 0.0
H99 H 0.6317 0.16056 0.74843 0.0
C100 C 0.62938 0.14877 0.73504 0.0
C101 C 0.55431 0.12728 0.72815 0.0
C102 C 0.52893 0.11917 0.73865 0.0
C103 C 0.57676 0.12566 0.73712 0.0
C104 C 0.57351 0.11533 0.75659 0.0
C105 C 0.54822 0.10675 0.76718 0.0
C106 C 0.52625 0.10903 0.75815 0.0
N107 N 0.60209 0.13342 0.72623 0.0
H108 H 0.75958 0.54171 0.97946 0.0
H109 H 0.81465 0.56513 0.92858 0.0
H110 H 0.74413 0.57936 0.9288 0.0
H111 H 0.80802 0.51776 0.94121 0.0
C112 C 0.81755 0.52843 0.95502 0.0
C113 C 0.76506 0.55035 0.96463 0.0
C114 C 0.74873 0.56023 0.95527 0.0
C115 C 0.78859 0.55166 0.95492 0.0
C116 C 0.79597 0.56325 0.93577 0.0
C117 C 0.78041 0.57387 0.92639 0.0
C118 C 0.75672 0.57198 0.9362 0.0
N119 N 0.80566 0.54275 0.96493 0.0
H120 H 0.47891 0.22616 0.96799 0.0
H121 H 0.43962 0.24571 0.92031 0.0
H122 H 0.42628 0.16395 0.92544 0.0
H123 H 0.47734 0.28762 0.92383 0.0
C124 C 0.47923 0.28962 0.9399 0.0
C125 C 0.46579 0.21985 0.95479 0.0
C126 C 0.45308 0.19246 0.94806 0.0
C127 C 0.46165 0.23935 0.94461 0.0
C128 C 0.44372 0.23109 0.92796 0.0
C129 C 0.43087 0.20394 0.921 0.0
C130 C 0.43589 0.18483 0.93098 0.0
N131 N 0.47494 0.26687 0.95177 0.0
H132 H 0.78284 0.24461 0.97225 0.0
H133 H 0.77116 0.18676 0.9261 0.0
H134 H 0.84311 0.26841 0.92445 0.0
H135 H 0.73537 0.21529 0.97747 0.0
C136 C 0.73112 0.19496 0.97305 0.0
C137 C 0.78964 0.23975 0.95849 0.0
C138 C 0.81478 0.25988 0.94927 0.0
C139 C 0.77369 0.21337 0.94993 0.0
C140 C 0.78322 0.20724 0.93236 0.0
C141 C 0.80816 0.22699 0.923 0.0
C142 C 0.8237 0.25318 0.93156 0.0
N143 N 0.74853 0.19195 0.95869 0.0
H144 H 0.53726 0.75376 0.06059 0.0
H145 H 0.58643 0.81832 0.10215 0.0
H146 H 0.59687 0.74763 0.09932 0.0
H147 H 0.54746 0.82287 0.10117 0.0
C148 C 0.54364 0.82161 0.08525 0.0
C149 C 0.55322 0.76213 0.07212 0.0
C150 C 0.56635 0.7474 0.07875 0.0
C151 C 0.55983 0.78737 0.08077 0.0
C152 C 0.58027 0.79832 0.09593 0.0
C153 C 0.5934 0.7839 0.1029 0.0
C154 C 0.58656 0.75867 0.09407 0.0
N155 N 0.54609 0.80164 0.07375 0.0
H156 H 0.26305 0.7945 0.04697 0.0
H157 H 0.20808 0.76994 0.09798 0.0
H158 H 0.27709 0.85274 0.09355 0.0
H159 H 0.20588 0.72894 0.09145 0.0
C160 C 0.20211 0.72794 0.07553 0.0
C161 C 0.25731 0.79941 0.06119 0.0
C162 C 0.27275 0.82635 0.06883 0.0
C163 C 0.23431 0.77872 0.07182 0.0
C164 C 0.22656 0.7853 0.09009 0.0
C165 C 0.24183 0.81193 0.09801 0.0
C166 C 0.26485 0.83229 0.08728 0.0
N167 N 0.21855 0.75175 0.06363 0.0
H168 H 0.22472 0.4731 0.04866 0.0
H169 H 0.24868 0.43994 0.09797 0.0
H170 H 0.1675 0.43498 0.09769 0.0
H171 H 0.26641 0.42724 0.07023 0.0
C172 C 0.27852 0.44755 0.06356 0.0
C173 C 0.22007 0.46319 0.06308 0.0
C174 C 0.19353 0.45444 0.07206 0.0
C175 C 0.2399 0.45747 0.07213 0.0
C176 C 0.23349 0.44418 0.09081 0.0
C177 C 0.20731 0.43578 0.1001 0.0
C178 C 0.18767 0.44115 0.09059 0.0
N179 N 0.26569 0.46429 0.06204 0.0
H180 H 0.42818 0.87225 0.31385 0.0
H181 H 0.48421 0.89391 0.26371 0.0
H182 H 0.41508 0.91024 0.26234 0.0
H183 H 0.47484 0.84542 0.27729 0.0
C184 C 0.48517 0.85691 0.29068 0.0
C185 C 0.43415 0.8807 0.299 0.0
C186 C 0.41829 0.89068 0.28907 0.0
C187 C 0.45778 0.88161 0.2898 0.0
C188 C 0.46581 0.89296 0.27066 0.0
C189 C 0.45073 0.90363 0.26067 0.0
C190 C 0.42688 0.90215 0.26995 0.0
N191 N 0.47423 0.87233 0.3002 0.0
H192 H 0.14396 0.55756 0.30199 0.0
H193 H 0.10369 0.57761 0.25525 0.0
H194 H 0.09061 0.49587 0.25937 0.0
H195 H 0.14188 0.61934 0.25851 0.0
C196 C 0.14413 0.62136 0.27456 0.0
C197 C 0.13056 0.5514 0.28893 0.0
C198 C 0.11773 0.52409 0.282 0.0
C199 C 0.12624 0.57102 0.27909 0.0
C200 C 0.10797 0.56294 0.26262 0.0
C201 C 0.09506 0.53588 0.25547 0.0
C202 C 0.10028 0.51668 0.26509 0.0
N203 N 0.13979 0.59851 0.28634 0.0
H204 H 0.45683 0.5812 0.30988 0.0
H205 H 0.42591 0.52359 0.26152 0.0
H206 H 0.50715 0.59701 0.25689 0.0
H207 H 0.3838 0.53139 0.27595 0.0
C208 C 0.38649 0.5224 0.28952 0.0
C209 C 0.45998 0.57525 0.29519 0.0
C210 C 0.4845 0.59268 0.28421 0.0
C211 C 0.4387 0.55062 0.28693 0.0
C212 C 0.44225 0.5428 0.26779 0.0
C213 C 0.46692 0.55954 0.25685 0.0
C214 C 0.48781 0.58441 0.26515 0.0
N215 N 0.41385 0.53369 0.29806 0.0
Eu216 Eu 0.48962 0.99108 0.98949 0.0
C217 C 0.54701 0.08758 0.05097 0.0
C218 C 0.59651 0.10044 0.05122 0.0
C219 C 0.58295 0.13486 0.05802 0.0
C220 C 0.56775 0.08054 0.04854 0.0
C221 C 0.5543 0.11467 0.05617 0.0
C222 C 0.60403 0.12776 0.05553 0.0
C223 C 0.50437 0.09929 0.05895 0.0
N224 N 0.51957 0.06753 0.04928 0.0
C225 C 0.49823 0.07269 0.05388 0.0
C226 C 0.53253 0.12047 0.05987 0.0
Eu227 Eu 0.5107 0.02333 0.03963 0.0
N228 N 0.55973 0.05393 0.04447 0.0
C229 C 0.57924 0.04544 0.0443 0.0
C230 C 0.61676 0.09213 0.04996 0.0
C231 C 0.60803 0.06443 0.04677 0.0
H232 H 0.47643 0.05638 0.05306 0.0
H233 H 0.62347 0.05769 0.04612 0.0
H234 H 0.62603 0.1434 0.05743 0.0
H235 H 0.4874 0.10344 0.06212 0.0
H236 H 0.57286 0.02415 0.04175 0.0
H237 H 0.37618 0.95366 0.98361 0.0
H238 H 0.63907 0.1068 0.05185 0.0
H239 H 0.52553 0.96016 0.97482 0.0
H240 H 0.42653 0.98826 0.98784 0.0
H241 H 0.51599 0.91391 0.96474 0.0
H242 H 0.589 0.15587 0.06182 0.0
H243 H 0.36198 0.90495 0.97755 0.0
H244 H 0.37651 0.86955 0.97123 0.0
H245 H 0.53725 0.14103 0.06388 0.0
H246 H 0.41458 0.85873 0.96597 0.0
N247 N 0.44083 0.95941 0.98482 0.0
C248 C 0.42072 0.96713 0.98516 0.0
C249 C 0.38416 0.92006 0.97942 0.0
C250 C 0.40503 0.91259 0.97787 0.0
C251 C 0.3921 0.94755 0.98278 0.0
C252 C 0.43358 0.93306 0.98054 0.0
H253 H 0.46666 0.87525 0.96314 0.0
N254 N 0.48213 0.94757 0.97927 0.0
C255 C 0.49862 0.91726 0.96842 0.0
C256 C 0.45492 0.92694 0.97765 0.0
C257 C 0.50395 0.94342 0.97409 0.0
C258 C 0.47075 0.89547 0.96759 0.0
C259 C 0.44844 0.90024 0.97193 0.0
O260 O 0.51344 0.00331 0.96163 0.0
O261 O 0.52279 0.02464 0.0079 0.0
O262 O 0.50695 0.05316 0.01901 0.0
O263 O 0.47561 0.02272 0.99539 0.0
O264 O 0.53704 0.0074 0.98712 0.0
O265 O 0.47544 0.00607 0.96448 0.0
O266 O 0.48813 0.01387 0.068 0.0
O267 O 0.47742 0.98991 0.02124 0.0
O268 O 0.49341 0.96093 0.00979 0.0
O269 O 0.52395 0.99113 0.03388 0.0
O270 O 0.46339 0.00735 0.04204 0.0
O271 O 0.5229 0.00606 0.06427 0.0
C272 C 0.54478 0.02616 1.00056 0.0
C273 C 0.48707 0.99721 0.93248 0.0
C274 C 0.49154 0.0035 0.89641 0.0
C275 C 0.49856 0.01444 0.91579 0.0
C276 C 0.47269 0.97514 0.89405 0.0
C277 C 0.46821 0.96904 0.92974 0.0
C278 C 0.46107 0.95811 0.91062 0.0
C279 C 0.48852 0.04702 0.0044 0.0
C280 C 0.49556 0.00863 0.95262 0.0
C281 C 0.42001 0.87945 0.97015 0.0
C282 C 0.39833 0.88561 0.97314 0.0
C283 C 0.45552 0.98856 0.02861 0.0
C284 C 0.51482 0.01718 0.09654 0.0
C285 C 0.50513 0.9997 0.11322 0.0
C286 C 0.5153 0.01008 0.13241 0.0
C287 C 0.53512 0.03827 0.13455 0.0
C288 C 0.53459 0.04514 0.09907 0.0
C289 C 0.54464 0.0556 0.11799 0.0
C290 C 0.51101 0.96677 0.02494 0.0
C291 C 0.50438 0.00602 0.07658 0.0
H292 H 0.51331 0.03618 0.9179 0.0
H293 H 0.46662 0.96617 0.87936 0.0
H294 H 0.4591 0.95551 0.94236 0.0
H295 H 0.44649 0.93634 0.90862 0.0
H296 H 0.49005 0.97802 0.1112 0.0
H297 H 0.54304 0.04705 0.14908 0.0
H298 H 0.54227 0.05887 0.08645 0.0
H299 H 0.55983 0.07725 0.11984 0.0
Eu300 Eu 0.02629 0.49961 0.98899 0.0
C301 C 0.92149 0.4612 0.04486 0.0
C302 C 0.90754 0.49545 0.03947 0.0
C303 C 0.87213 0.44875 0.04851 0.0
C304 C 0.92848 0.48768 0.03965 0.0
C305 C 0.89342 0.44171 0.05007 0.0
C306 C 0.87919 0.4756 0.04319 0.0
C307 C 0.91026 0.41127 0.06076 0.0
N308 N 0.94265 0.45531 0.04668 0.0
C309 C 0.93777 0.43135 0.05547 0.0
C310 C 0.88788 0.41624 0.05765 0.0
Eu311 Eu 0.98861 0.48993 0.03705 0.0
N312 N 0.95617 0.50647 0.03663 0.0
C313 C 0.96464 0.53382 0.03528 0.0
C314 C 0.91592 0.52319 0.03658 0.0
C315 C 0.94467 0.54254 0.03494 0.0
H316 H 0.95505 0.4274 0.05774 0.0
H317 H 0.95146 0.56415 0.03327 0.0
H318 H 0.86275 0.48109 0.04283 0.0
H319 H 0.90635 0.39198 0.06717 0.0
H320 H 0.98676 0.549 0.03386 0.0
H321 H 0.0307 0.4039 0.99265 0.0
H322 H 0.9005 0.53 0.03632 0.0
H323 H 0.07766 0.56159 0.97404 0.0
H324 H 0.00775 0.43171 0.99178 0.0
H325 H 0.1297 0.58702 0.96996 0.0
H326 H 0.85037 0.43394 0.05217 0.0
H327 H 0.08281 0.42616 0.99134 0.0
H328 H 0.12973 0.46933 0.98838 0.0
H329 H 0.86661 0.40072 0.06186 0.0
H330 H 0.15683 0.51936 0.98302 0.0
N331 N 0.0463 0.47025 0.98989 0.0
C332 C 0.03044 0.44216 0.99097 0.0
C333 C 0.07283 0.43869 0.99078 0.0
C334 C 0.08898 0.4673 0.98905 0.0
C335 C 0.04342 0.42607 0.99151 0.0
C336 C 0.07494 0.48272 0.98843 0.0
H337 H 0.15704 0.56337 0.97598 0.0
N338 N 0.07603 0.52489 0.98408 0.0
C339 C 0.11897 0.56574 0.97472 0.0
C340 C 0.09029 0.51093 0.9858 0.0
C341 C 0.08961 0.5514 0.97723 0.0
C342 C 0.13431 0.55232 0.97814 0.0
C343 C 0.11992 0.52438 0.98317 0.0
O344 O 0.03013 0.51935 0.96027 0.0
O345 O 0.9898 0.49874 0.00456 0.0
O346 O 0.95957 0.45213 0.01908 0.0
O347 O 0.98548 0.45775 0.98988 0.0
O348 O 0.01045 0.52979 0.98393 0.0
O349 O 0.01246 0.47516 0.9618 0.0
O350 O 0.9977 0.48006 0.06662 0.0
O351 O 0.02587 0.49203 0.02155 0.0
O352 O 0.05355 0.53742 0.0076 0.0
O353 O 0.02257 0.53505 0.03268 0.0
O354 O 1.00593 0.46112 0.04241 0.0
O355 O 0.99956 0.51902 0.06151 0.0
C356 C 0.98927 0.51854 0.99604 0.0
C357 C 0.03666 0.49757 0.93239 0.0
C358 C 0.03836 0.49417 0.8963 0.0
C359 C 0.02358 0.49304 0.91377 0.0
C360 C 0.06655 0.49997 0.89781 0.0
C361 C 0.06462 0.50295 0.93359 0.0
C362 C 0.07951 0.50424 0.91637 0.0
C363 C 0.96317 0.44349 1.0016 0.0
C364 C 0.02066 0.49653 0.95026 0.0
C365 C 0.13406 0.50931 0.98471 0.0
C366 C 0.11861 0.48082 0.98766 0.0
C367 C 0.02697 0.47266 0.03025 0.0
C368 C 0.98483 0.49879 0.0932 0.0
C369 C 0.99815 0.50074 0.11141 0.0
C370 C 0.98362 0.4973 0.12944 0.0
C371 C 0.95541 0.4916 0.12892 0.0
C372 C 0.95677 0.49331 0.09298 0.0
C373 C 0.94212 0.48962 0.11077 0.0
C374 C 0.04678 0.54816 0.02271 0.0
C375 C 1.00051 0.50241 0.07465 0.0
H376 H 1.00171 0.48821 0.913 0.0
H377 H 0.07869 0.50141 0.88466 0.0
H378 H 0.07498 0.50612 0.94773 0.0
H379 H 0.10117 0.50859 0.91742 0.0
H380 H 0.02001 0.50547 0.1115 0.0
H381 H 0.94358 0.48853 0.14254 0.0
H382 H 0.94623 0.49202 0.07912 0.0
H383 H 0.92043 0.48528 0.11049 0.0
Eu384 Eu 0.53012 0.50964 0.03564 0.0
C385 C 0.46982 0.55091 0.97756 0.0
C386 C 0.42039 0.51556 0.97844 0.0
C387 C 0.4334 0.56303 0.97169 0.0
C388 C 0.44928 0.52372 0.9804 0.0
C389 C 0.46216 0.57075 0.97262 0.0
C390 C 0.41254 0.53548 0.97463 0.0
C391 C 0.5118 0.60365 0.96785 0.0
N392 N 0.49738 0.55758 0.97826 0.0
C393 C 0.51833 0.58323 0.97281 0.0
C394 C 0.48362 0.5975 0.96804 0.0
Eu395 Eu 0.50685 0.52212 0.98697 0.0
N396 N 0.45761 0.50494 0.98365 0.0
C397 C 0.43829 0.47745 0.98347 0.0
C398 C 0.40033 0.48751 0.9796 0.0
C399 C 0.40937 0.46835 0.98179 0.0
H400 H 0.54015 0.58809 0.97277 0.0
H401 H 0.39408 0.44657 0.98224 0.0
H402 H 0.39044 0.52964 0.97328 0.0
H403 H 0.5285 0.62412 0.96395 0.0
H404 H 0.44501 0.46245 0.98521 0.0
H405 H 0.64283 0.58606 0.03915 0.0
H406 H 0.37792 0.48041 0.97824 0.0
H407 H 0.4975 0.44373 0.05009 0.0
H408 H 0.59188 0.56972 0.03619 0.0
H409 H 0.50968 0.40821 0.05923 0.0
H410 H 0.42707 0.57803 0.96812 0.0
H411 H 0.65943 0.55275 0.04432 0.0
H412 H 0.64742 0.50385 0.05024 0.0
H413 H 0.4786 0.61333 0.96414 0.0
H414 H 0.61118 0.45542 0.05575 0.0
N415 N 0.57951 0.52737 0.03905 0.0
C416 C 0.5987 0.55489 0.03847 0.0
C417 C 0.63697 0.54542 0.043 0.0
C418 C 0.61711 0.51739 0.04474 0.0
C419 C 0.62768 0.56428 0.04014 0.0
C420 C 0.58813 0.50892 0.0428 0.0
H421 H 0.55978 0.41967 0.05951 0.0
N422 N 0.54019 0.47469 0.04484 0.0
C423 C 0.52624 0.42877 0.05538 0.0
C424 C 0.56782 0.4817 0.04578 0.0
C425 C 0.51942 0.44892 0.05022 0.0
C426 C 0.55454 0.43529 0.05546 0.0
C427 C 0.57579 0.46214 0.05093 0.0
O428 O 0.50705 0.497 0.06375 0.0
O429 O 0.49522 0.51042 0.01874 0.0
O430 O 0.51031 0.55497 0.0081 0.0
O431 O 0.54215 0.5546 0.03105 0.0
O432 O 0.48345 0.47795 0.03816 0.0
O433 O 0.54436 0.5373 0.06121 0.0
O434 O 0.52881 0.53513 0.95845 0.0
O435 O 0.54125 0.52091 0.0039 0.0
O436 O 0.52655 0.47667 0.01467 0.0
O437 O 0.4952 0.4771 0.9912 0.0
O438 O 0.55409 0.55271 0.98396 0.0
O439 O 0.49231 0.49434 0.96147 0.0
C440 C 0.47418 0.48924 0.02588 0.0
C441 C 0.53397 0.51582 0.09271 0.0
C442 C 0.52964 0.51612 0.12879 0.0
C443 C 0.52193 0.52031 0.1097 0.0
C444 C 0.54959 0.5073 0.13059 0.0
C445 C 0.55397 0.50724 0.09477 0.0
C446 C 0.56169 0.50298 0.11365 0.0
C447 C 0.52848 0.56618 0.02293 0.0
C448 C 0.52479 0.51947 0.073 0.0
C449 C 0.60463 0.4702 0.05201 0.0
C450 C 0.62526 0.49778 0.04889 0.0
C451 C 0.56281 0.54118 0.99648 0.0
C452 C 0.50069 0.51569 0.92999 0.0
C453 C 0.51241 0.51192 0.91251 0.0
C454 C 0.5032 0.51545 0.89375 0.0
C455 C 0.4821 0.52288 0.89279 0.0
C456 C 0.47957 0.52293 0.92871 0.0
C457 C 0.47038 0.52654 0.91019 0.0
C458 C 0.50871 0.46551 0.99964 0.0
C459 C 0.51108 0.51245 0.94937 0.0
H460 H 0.50627 0.52669 0.10803 0.0
H461 H 0.55617 0.50419 0.14508 0.0
H462 H 0.56355 0.5038 0.08185 0.0
H463 H 0.57715 0.49635 0.11516 0.0
H464 H 0.52893 0.50659 0.91356 0.0
H465 H 0.47432 0.52542 0.87859 0.0
H466 H 0.4702 0.52577 0.94197 0.0
H467 H 0.45404 0.53209 0.90931 0.0
Eu468 Eu 0.15419 0.32128 0.32271 0.0
C469 C 0.21277 0.42014 0.38167 0.0
C470 C 0.26229 0.43314 0.38094 0.0
C471 C 0.2489 0.46784 0.38706 0.0
C472 C 0.23345 0.41305 0.3791 0.0
C473 C 0.2202 0.44749 0.38613 0.0
C474 C 0.26992 0.46068 0.38446 0.0
C475 C 0.17042 0.43207 0.39015 0.0
N476 N 0.18529 0.39992 0.38092 0.0
C477 C 0.16414 0.40522 0.38579 0.0
C478 C 0.19856 0.45337 0.39008 0.0
Eu479 Eu 0.17616 0.3553 0.3723 0.0
N480 N 0.22532 0.38622 0.37593 0.0
C481 C 0.24484 0.37774 0.37595 0.0
C482 C 0.28253 0.4248 0.3798 0.0
C483 C 0.27372 0.39691 0.37764 0.0
H484 H 0.14235 0.38881 0.38572 0.0
H485 H 0.28915 0.39016 0.37715 0.0
H486 H 0.29198 0.47645 0.38572 0.0
H487 H 0.15357 0.43631 0.39354 0.0
H488 H 0.23836 0.35629 0.37415 0.0
H489 H 0.04087 0.28494 0.31777 0.0
H490 H 0.3049 0.43959 0.3811 0.0
H491 H 0.18904 0.28918 0.30849 0.0
H492 H 0.09143 0.31923 0.32126 0.0
H493 H 0.1787 0.24238 0.29926 0.0
H494 H 0.25506 0.48903 0.39028 0.0
H495 H 0.02595 0.23589 0.31257 0.0
H496 H 0.03973 0.19982 0.3069 0.0
H497 H 0.20339 0.47414 0.39355 0.0
H498 H 0.07726 0.18821 0.30179 0.0
N499 N 0.10518 0.28991 0.3187 0.0
C500 C 0.08532 0.29796 0.31897 0.0
C501 C 0.04823 0.25087 0.31413 0.0
C502 C 0.06881 0.24301 0.31268 0.0
C503 C 0.05657 0.27854 0.31701 0.0
C504 C 0.09751 0.26332 0.31492 0.0
H505 H 0.12915 0.20404 0.29853 0.0
N506 N 0.14587 0.2772 0.31333 0.0
C507 C 0.16158 0.2461 0.30295 0.0
C508 C 0.11853 0.25674 0.31216 0.0
C509 C 0.16737 0.27256 0.30814 0.0
C510 C 0.13359 0.2245 0.30261 0.0
C511 C 0.1116 0.22975 0.30694 0.0
O512 O 0.17733 0.33174 0.29455 0.0
O513 O 0.18755 0.35513 0.34064 0.0
O514 O 0.17204 0.38441 0.35127 0.0
O515 O 0.14068 0.35351 0.32783 0.0
O516 O 0.20162 0.33741 0.32024 0.0
O517 O 0.1404 0.33626 0.29747 0.0
O518 O 0.15391 0.34656 0.40076 0.0
O519 O 0.1426 0.32133 0.35448 0.0
O520 O 0.15842 0.29184 0.3435 0.0
O521 O 0.18891 0.32256 0.36743 0.0
O522 O 0.12895 0.33956 0.37491 0.0
O523 O 0.18954 0.33996 0.39751 0.0
C524 C 0.2095 0.3565 0.33344 0.0
C525 C 0.15036 0.32537 0.26563 0.0
C526 C 0.15076 0.33047 0.22944 0.0
C527 C 0.15979 0.34209 0.24852 0.0
C528 C 0.1325 0.30184 0.22788 0.0
C529 C 0.132 0.29699 0.26362 0.0
C530 C 0.12322 0.28532 0.24485 0.0
C531 C 0.15366 0.378 0.3366 0.0
C532 C 0.15986 0.33758 0.28549 0.0
C533 C 0.08304 0.20914 0.30558 0.0
C534 C 0.06167 0.21576 0.30848 0.0
C535 C 0.12085 0.32033 0.36181 0.0
C536 C 0.18134 0.35224 0.42934 0.0
C537 C 0.17223 0.33567 0.4465 0.0
C538 C 0.1823 0.34724 0.46543 0.0
C539 C 0.20141 0.37571 0.46684 0.0
C540 C 0.20047 0.3805 0.43114 0.0
C541 C 0.21039 0.39214 0.4498 0.0
C542 C 0.17605 0.29805 0.35868 0.0
C543 C 0.17087 0.33989 0.40967 0.0
H544 H 0.17372 0.36408 0.25011 0.0
H545 H 0.12557 0.2921 0.21349 0.0
H546 H 0.12449 0.28386 0.27655 0.0
H547 H 0.10917 0.26335 0.24343 0.0
H548 H 0.15769 0.31376 0.44503 0.0
H549 H 0.20921 0.38539 0.48115 0.0
H550 H 0.20772 0.39354 0.41814 0.0
H551 H 0.22506 0.414 0.45109 0.0
Eu552 Eu 0.69823 0.83345 0.32119 0.0
C553 C 0.59269 0.79444 0.37645 0.0
C554 C 0.5796 0.82941 0.37174 0.0
C555 C 0.54347 0.78258 0.37981 0.0
C556 C 0.60021 0.82121 0.3718 0.0
C557 C 0.56441 0.77506 0.38124 0.0
C558 C 0.55106 0.80974 0.37504 0.0
C559 C 0.58036 0.74372 0.39139 0.0
N560 N 0.61354 0.7881 0.3782 0.0
C561 C 0.60809 0.76373 0.38658 0.0
C562 C 0.55831 0.74919 0.38832 0.0
Eu563 Eu 0.65991 0.82247 0.36919 0.0
N564 N 0.62805 0.83976 0.36911 0.0
C565 C 0.63695 0.86723 0.36812 0.0
C566 C 0.58846 0.85733 0.36932 0.0
C567 C 0.61732 0.87638 0.36796 0.0
H568 H 0.62513 0.75942 0.38885 0.0
H569 H 0.62447 0.89811 0.36662 0.0
H570 H 0.53488 0.81557 0.37475 0.0
H571 H 0.57601 0.7241 0.39744 0.0
H572 H 0.65914 0.88222 0.3669 0.0
H573 H 0.71942 0.74762 0.32397 0.0
H574 H 0.57331 0.86447 0.36918 0.0
H575 H 0.74093 0.89682 0.304 0.0
H576 H 0.68995 0.76923 0.32352 0.0
H577 H 0.7919 0.92789 0.29711 0.0
H578 H 0.52156 0.76788 0.38315 0.0
H579 H 0.77149 0.77624 0.32182 0.0
H580 H 0.81426 0.82294 0.31734 0.0
H581 H 0.53686 0.73374 0.3922 0.0
H582 H 0.83417 0.87228 0.3104 0.0
N583 N 0.72477 0.81025 0.32141 0.0
C584 C 0.71254 0.78223 0.32242 0.0
C585 C 0.75862 0.78597 0.32154 0.0
C586 C 0.77097 0.81448 0.31943 0.0
C587 C 0.72924 0.76975 0.32271 0.0
C588 C 0.75325 0.82615 0.31924 0.0
H589 H 0.82595 0.91151 0.30242 0.0
N590 N 0.74657 0.86397 0.31405 0.0
C591 C 0.78455 0.90724 0.30251 0.0
C592 C 0.76453 0.85395 0.31565 0.0
C593 C 0.75579 0.88965 0.30641 0.0
C594 C 0.8037 0.89794 0.3056 0.0
C595 C 0.7937 0.87077 0.31173 0.0
O596 O 0.69555 0.84933 0.2921 0.0
O597 O 0.6612 0.83143 0.33678 0.0
O598 O 0.63178 0.78513 0.35063 0.0
O599 O 0.66105 0.78945 0.32366 0.0
O600 O 0.68134 0.86286 0.31636 0.0
O601 O 0.68527 0.80686 0.29507 0.0
O602 O 0.66785 0.81141 0.39871 0.0
O603 O 0.69714 0.8247 0.35362 0.0
O604 O 0.72593 0.87028 0.34049 0.0
O605 O 0.69392 0.86754 0.36491 0.0
O606 O 0.67712 0.79351 0.37425 0.0
O607 O 0.672 0.85138 0.39386 0.0
C608 C 0.66017 0.85105 0.32843 0.0
C609 C 0.70481 0.82911 0.26455 0.0
C610 C 0.70667 0.82971 0.22829 0.0
C611 C 0.69194 0.82703 0.24612 0.0
C612 C 0.73463 0.83472 0.22927 0.0
C613 C 0.73253 0.83371 0.26521 0.0
C614 C 0.74739 0.83665 0.24764 0.0
C615 C 0.63765 0.7756 0.3344 0.0
C616 C 0.68897 0.82648 0.28287 0.0
C617 C 0.81165 0.85959 0.31307 0.0
C618 C 0.8003 0.83149 0.31695 0.0
C619 C 0.69815 0.80513 0.36208 0.0
C620 C 0.6565 0.83121 0.42543 0.0
C621 C 0.67035 0.83489 0.44366 0.0
C622 C 0.65603 0.83222 0.46166 0.0
C623 C 0.6275 0.82558 0.4611 0.0
C624 C 0.62815 0.82483 0.42516 0.0
C625 C 0.61372 0.82193 0.44292 0.0
C626 C 0.71864 0.88068 0.35554 0.0
C627 C 0.67195 0.83416 0.40688 0.0
H628 H 0.67026 0.82279 0.24574 0.0
H629 H 0.7467 0.83729 0.21585 0.0
H630 H 0.74265 0.83494 0.27922 0.0
H631 H 0.76886 0.84038 0.24826 0.0
H632 H 0.69242 0.84032 0.44376 0.0
H633 H 0.61579 0.82302 0.47469 0.0
H634 H 0.61723 0.82223 0.41127 0.0
H635 H 0.5918 0.81688 0.44261 0.0
Eu636 Eu 0.2011 0.84411 0.36935 0.0
C637 C 0.14116 0.88512 0.31008 0.0
C638 C 0.0915 0.85049 0.31172 0.0
C639 C 0.10528 0.89779 0.30357 0.0
C640 C 0.1203 0.85823 0.31357 0.0
C641 C 0.13392 0.90507 0.30453 0.0
C642 C 0.0841 0.87055 0.30719 0.0
C643 C 0.18369 0.93718 0.29944 0.0
N644 N 0.16858 0.89138 0.31088 0.0
C645 C 0.18979 0.91667 0.30501 0.0
C646 C 0.15565 0.93148 0.29947 0.0
Eu647 Eu 0.17737 0.85578 0.32053 0.0
N648 N 0.12819 0.8393 0.3176 0.0
C649 C 0.10842 0.81197 0.31853 0.0
C650 C 0.07105 0.8227 0.31387 0.0
C651 C 0.07958 0.80331 0.31702 0.0
H652 H 0.21151 0.9212 0.30507 0.0
H653 H 0.06397 0.7817 0.3183 0.0
H654 H 0.06209 0.86505 0.30591 0.0
H655 H 0.2006 0.95737 0.29519 0.0
H656 H 0.11471 0.79677 0.32098 0.0
H657 H 0.31392 0.92038 0.37167 0.0
H658 H 0.04871 0.81593 0.31263 0.0
H659 H 0.16875 0.77851 0.38435 0.0
H660 H 0.2629 0.90414 0.36943 0.0
H661 H 0.18105 0.74291 0.39315 0.0
H662 H 0.09928 0.91288 0.29953 0.0
H663 H 0.33053 0.88697 0.3762 0.0
H664 H 0.31856 0.83802 0.38184 0.0
H665 H 0.15096 0.94737 0.29509 0.0
H666 H 0.28238 0.78966 0.3877 0.0
N667 N 0.25054 0.86177 0.37207 0.0
C668 C 0.26975 0.88928 0.37144 0.0
C669 C 0.30806 0.87968 0.3752 0.0
C670 C 0.28819 0.85166 0.377 0.0
C671 C 0.29876 0.8986 0.3727 0.0
C672 C 0.25919 0.84325 0.37547 0.0
H673 H 0.23107 0.75411 0.39236 0.0
N674 N 0.21127 0.80915 0.37823 0.0
C675 C 0.19752 0.76336 0.38899 0.0
C676 C 0.2389 0.81606 0.37863 0.0
C677 C 0.19063 0.78354 0.38404 0.0
C678 C 0.22577 0.76974 0.38846 0.0
C679 C 0.24693 0.79648 0.38356 0.0
O680 O 0.17934 0.83141 0.39799 0.0
O681 O 0.16643 0.84532 0.35254 0.0
O682 O 0.18187 0.88964 0.34099 0.0
O683 O 0.21307 0.88908 0.36452 0.0
O684 O 0.15417 0.81344 0.3725 0.0
O685 O 0.21569 0.87216 0.39472 0.0
O686 O 0.19901 0.86722 0.29182 0.0
O687 O 0.21178 0.85453 0.33744 0.0
O688 O 0.19645 0.81041 0.34864 0.0
O689 O 0.16462 0.81068 0.32559 0.0
O690 O 0.22461 0.88589 0.3171 0.0
O691 O 0.16191 0.82702 0.29561 0.0
C692 C 0.14514 0.82486 0.36013 0.0
C693 C 0.20786 0.85102 0.42625 0.0
C694 C 0.20749 0.85279 0.46256 0.0
C695 C 0.19741 0.85588 0.44398 0.0
C696 C 0.22787 0.84438 0.46302 0.0
C697 C 0.22838 0.84298 0.42712 0.0
C698 C 0.23823 0.83957 0.44541 0.0
C699 C 0.19985 0.90086 0.35592 0.0
C700 C 0.19709 0.85416 0.40697 0.0
C701 C 0.27578 0.80446 0.38415 0.0
C702 C 0.29638 0.832 0.38084 0.0
C703 C 0.23333 0.87454 0.32977 0.0
C704 C 0.17028 0.8472 0.26369 0.0
C705 C 0.18218 0.84345 0.24629 0.0
C706 C 0.17288 0.84662 0.22745 0.0
C707 C 0.15148 0.85363 0.22635 0.0
C708 C 0.14888 0.85402 0.26225 0.0
C709 C 0.13957 0.85725 0.24367 0.0
C710 C 0.1781 0.79902 0.33393 0.0
C711 C 0.18075 0.84438 0.28318 0.0
H712 H 0.18184 0.8625 0.44327 0.0
H713 H 0.23571 0.8413 0.47702 0.0
H714 H 0.2368 0.83934 0.4137 0.0
H715 H 0.25395 0.83318 0.44594 0.0
H716 H 0.19891 0.83841 0.24744 0.0
H717 H 0.14361 0.85588 0.21211 0.0
H718 H 0.13934 0.85682 0.27544 0.0
H719 H 0.12301 0.86249 0.24267 0.0
Eu720 Eu 0.82023 0.65064 0.6548 0.0
C721 C 0.88135 0.75031 0.71354 0.0
C722 C 0.93082 0.76307 0.71323 0.0
C723 C 0.91758 0.79787 0.71939 0.0
C724 C 0.90198 0.74312 0.71107 0.0
C725 C 0.88886 0.77764 0.71817 0.0
C726 C 0.93853 0.79059 0.71692 0.0
C727 C 0.83907 0.76244 0.7218 0.0
N728 N 0.85384 0.73021 0.71255 0.0
C729 C 0.83271 0.73561 0.71729 0.0
C730 C 0.86726 0.78363 0.722 0.0
Eu731 Eu 0.8446 0.68556 0.70393 0.0
N732 N 0.89376 0.7163 0.70776 0.0
C733 C 0.91315 0.70766 0.70805 0.0
C734 C 0.95095 0.75458 0.71228 0.0
C735 C 0.94202 0.72668 0.71 0.0
H736 H 0.81088 0.7193 0.71703 0.0
H737 H 0.95737 0.71981 0.70966 0.0
H738 H 0.96059 0.80626 0.71843 0.0
H739 H 0.82225 0.76675 0.7251 0.0
H740 H 0.90657 0.68618 0.70623 0.0
H741 H 0.70707 0.61577 0.65193 0.0
H742 H 0.97332 0.76926 0.71382 0.0
H743 H 0.85369 0.61753 0.63961 0.0
H744 H 0.75787 0.64948 0.65476 0.0
H745 H 0.84231 0.57055 0.63014 0.0
H746 H 0.92379 0.81904 0.72275 0.0
H747 H 0.69125 0.56656 0.64647 0.0
H748 H 0.70408 0.52997 0.6401 0.0
H749 H 0.87215 0.80438 0.72559 0.0
H750 H 0.74091 0.51764 0.63411 0.0
N751 N 0.77094 0.61971 0.65154 0.0
C752 C 0.7514 0.62814 0.65234 0.0
C753 C 0.71364 0.5813 0.64773 0.0
C754 C 0.73386 0.57304 0.64574 0.0
C755 C 0.72249 0.60906 0.65075 0.0
C756 C 0.76273 0.59304 0.64761 0.0
H757 H 0.7925 0.53273 0.62998 0.0
N758 N 0.81084 0.60625 0.64516 0.0
C759 C 0.82552 0.57459 0.63419 0.0
C760 C 0.78336 0.58608 0.64433 0.0
C761 C 0.83189 0.60118 0.63953 0.0
C762 C 0.79739 0.55329 0.63418 0.0
C763 C 0.77584 0.55896 0.63899 0.0
O764 O 0.84267 0.66142 0.62637 0.0
O765 O 0.85512 0.68466 0.672 0.0
O766 O 0.8408 0.71472 0.68267 0.0
O767 O 0.80738 0.68309 0.66064 0.0
O768 O 0.86695 0.66505 0.65127 0.0
O769 O 0.80561 0.66558 0.63002 0.0
O770 O 0.82283 0.67687 0.7326 0.0
O771 O 0.81018 0.65141 0.68677 0.0
O772 O 0.82525 0.62148 0.67547 0.0
O773 O 0.85708 0.65282 0.69856 0.0
O774 O 0.79746 0.67003 0.70751 0.0
O775 O 0.8583 0.67012 0.72891 0.0
C776 C 0.87611 0.68449 0.66426 0.0
C777 C 0.81512 0.65523 0.59785 0.0
C778 C 0.8177 0.66053 0.56169 0.0
C779 C 0.82592 0.67194 0.58086 0.0
C780 C 0.79833 0.6322 0.55985 0.0
C781 C 0.79573 0.62709 0.59565 0.0
C782 C 0.78738 0.61568 0.57673 0.0
C783 C 0.82127 0.70793 0.66877 0.0
C784 C 0.82487 0.66716 0.61772 0.0
C785 C 0.74712 0.53866 0.63799 0.0
C786 C 0.72616 0.54568 0.6414 0.0
C787 C 0.78876 0.6505 0.6946 0.0
C788 C 0.85048 0.68223 0.76098 0.0
C789 C 0.83921 0.6662 0.77825 0.0
C790 C 0.84863 0.67792 0.79723 0.0
C791 C 0.86972 0.70581 0.79856 0.0
C792 C 0.87147 0.70995 0.76271 0.0
C793 C 0.88106 0.72162 0.78142 0.0
C794 C 0.84369 0.62809 0.69019 0.0
C795 C 0.83982 0.67005 0.74128 0.0
H796 H 0.8411 0.69366 0.58256 0.0
H797 H 0.79137 0.62287 0.54534 0.0
H798 H 0.78714 0.61394 0.60852 0.0
H799 H 0.7724 0.59393 0.57514 0.0
H800 H 0.82277 0.64483 0.77692 0.0
H801 H 0.87768 0.71536 0.81289 0.0
H802 H 0.88039 0.72257 0.74963 0.0
H803 H 0.8973 0.74304 0.78264 0.0
Eu804 Eu 0.36351 0.16353 0.65588 0.0
C805 C 0.257 0.12839 0.70937 0.0
C806 C 0.24506 0.16445 0.70647 0.0
C807 C 0.20805 0.11736 0.71285 0.0
C808 C 0.26521 0.15568 0.7059 0.0
C809 C 0.22842 0.10903 0.71333 0.0
C810 C 0.21635 0.14503 0.70944 0.0
C811 C 0.24267 0.07529 0.71987 0.0
N812 N 0.27726 0.12112 0.71007 0.0
C813 C 0.27075 0.09529 0.71599 0.0
C814 C 0.22134 0.08208 0.71829 0.0
Eu815 Eu 0.32415 0.15584 0.70271 0.0
N816 N 0.29316 0.17397 0.70332 0.0
C817 C 0.3026 0.20156 0.7027 0.0
C818 C 0.25448 0.19258 0.70472 0.0
C819 C 0.28343 0.21125 0.70314 0.0
H820 H 0.28719 0.08995 0.71714 0.0
H821 H 0.29099 0.23309 0.70216 0.0
H822 H 0.20053 0.15133 0.70968 0.0
H823 H 0.23749 0.05466 0.72407 0.0
H824 H 0.32491 0.21621 0.70141 0.0
H825 H 0.3975 0.08706 0.66099 0.0
H826 H 0.23967 0.20015 0.70504 0.0
H827 H 0.39966 0.2277 0.63807 0.0
H828 H 0.36332 0.10362 0.66005 0.0
H829 H 0.44897 0.2624 0.62959 0.0
H830 H 0.18594 0.10273 0.71567 0.0
H831 H 0.44873 0.12001 0.65746 0.0
H832 H 0.48755 0.16845 0.65084 0.0
H833 H 0.19962 0.06659 0.72141 0.0
H834 H 0.5016 0.21626 0.6422 0.0
N835 N 0.39483 0.14572 0.6566 0.0
C836 C 0.38557 0.11825 0.65845 0.0
C837 C 0.4338 0.12742 0.65705 0.0
C838 C 0.443 0.15531 0.65393 0.0
C839 C 0.4049 0.10876 0.65899 0.0
C840 C 0.4227 0.16389 0.65362 0.0
H841 H 0.48728 0.25131 0.63377 0.0
N842 N 0.41017 0.19767 0.64736 0.0
C843 C 0.44414 0.24238 0.6351 0.0
C844 C 0.43062 0.19074 0.64882 0.0
C845 C 0.41625 0.2227 0.63987 0.0
C846 C 0.46571 0.23607 0.63754 0.0
C847 C 0.45903 0.20983 0.64415 0.0
O848 O 0.35628 0.17336 0.62581 0.0
O849 O 0.32738 0.16481 0.6703 0.0
O850 O 0.29507 0.12238 0.68151 0.0
O851 O 0.3285 0.11905 0.66194 0.0
O852 O 0.34893 0.19421 0.64877 0.0
O853 O 0.35106 0.13321 0.63208 0.0
O854 O 0.32952 0.14395 0.73259 0.0
O855 O 0.36073 0.15537 0.6884 0.0
O856 O 0.39233 0.19888 0.67595 0.0
O857 O 0.35927 0.20044 0.6973 0.0
O858 O 0.33931 0.12542 0.70948 0.0
O859 O 0.3372 0.18526 0.72715 0.0
C860 C 0.32802 0.18467 0.66107 0.0
C861 C 0.36766 0.1521 0.60018 0.0
C862 C 0.37011 0.15306 0.56392 0.0
C863 C 0.35512 0.15027 0.58165 0.0
C864 C 0.39796 0.15778 0.56512 0.0
C865 C 0.39532 0.15653 0.60103 0.0
C866 C 0.41038 0.15942 0.58358 0.0
C867 C 0.30235 0.10888 0.66892 0.0
C868 C 0.35187 0.15009 0.6184 0.0
C869 C 0.47961 0.20181 0.64551 0.0
C870 C 0.4716 0.17459 0.65042 0.0
C871 C 0.36071 0.13579 0.69758 0.0
C872 C 0.32005 0.16587 0.75884 0.0
C873 C 0.33346 0.16878 0.77716 0.0
C874 C 0.31927 0.16695 0.79508 0.0
C875 C 0.29136 0.1621 0.79434 0.0
C876 C 0.29227 0.16112 0.75839 0.0
C877 C 0.27801 0.15922 0.77607 0.0
C878 C 0.38509 0.21142 0.68949 0.0
C879 C 0.33528 0.16744 0.74044 0.0
H880 H 0.33354 0.14633 0.58111 0.0
H881 H 0.41025 0.16045 0.55181 0.0
H882 H 0.40527 0.15777 0.61512 0.0
H883 H 0.43179 0.16301 0.58436 0.0
H884 H 0.3551 0.17284 0.7774 0.0
H885 H 0.27976 0.16027 0.80786 0.0
H886 H 0.28161 0.15889 0.74445 0.0
H887 H 0.25651 0.15545 0.77562 0.0
Eu888 Eu 0.86626 0.17465 0.70221 0.0
C889 C 0.80438 0.21461 0.64495 0.0
C890 C 0.75461 0.18086 0.64807 0.0
C891 C 0.76901 0.22847 0.64049 0.0
C892 C 0.78331 0.18794 0.64886 0.0
C893 C 0.79748 0.23507 0.6403 0.0
C894 C 0.74761 0.2014 0.64437 0.0
C895 C 0.84712 0.26639 0.63393 0.0
N896 N 0.83161 0.2202 0.64464 0.0
C897 C 0.85287 0.24534 0.63851 0.0
C898 C 0.81934 0.26134 0.63506 0.0
Eu899 Eu 0.83989 0.18399 0.65359 0.0
N900 N 0.79081 0.16855 0.65213 0.0
C901 C 0.77064 0.14137 0.65319 0.0
C902 C 0.73382 0.15321 0.65034 0.0
C903 C 0.74189 0.13333 0.65256 0.0
H904 H 0.87439 0.24935 0.63776 0.0
H905 H 0.72598 0.11182 0.65391 0.0
H906 H 0.72569 0.19641 0.64392 0.0
H907 H 0.8641 0.28648 0.62955 0.0
H908 H 0.77658 0.12582 0.65503 0.0
H909 H 0.98007 0.24754 0.70215 0.0
H910 H 0.71154 0.14692 0.64987 0.0
H911 H 0.83193 0.10888 0.71709 0.0
H912 H 0.92944 0.23317 0.70065 0.0
H913 H 0.84253 0.07194 0.72522 0.0
H914 H 0.76329 0.24396 0.63715 0.0
H915 H 0.99486 0.21281 0.70693 0.0
H916 H 0.98106 0.16346 0.71307 0.0
H917 H 0.81492 0.27764 0.63142 0.0
H918 H 0.94366 0.11569 0.71937 0.0
N919 N 0.91544 0.19054 0.70411 0.0
C920 C 0.93548 0.21775 0.70282 0.0
C921 C 0.97254 0.20635 0.70631 0.0
C922 C 0.95189 0.17866 0.70866 0.0
C923 C 0.96427 0.22602 0.70365 0.0
C924 C 0.92313 0.17134 0.70763 0.0
H925 H 0.89198 0.08144 0.72419 0.0
N926 N 0.87482 0.1386 0.71108 0.0
C927 C 0.85949 0.09223 0.72123 0.0
C928 C 0.90216 0.14452 0.71121 0.0
C929 C 0.85357 0.11317 0.7167 0.0
C930 C 0.88743 0.09767 0.72058 0.0
C931 C 0.90924 0.12417 0.71582 0.0
O932 O 0.84671 0.16408 0.73163 0.0
O933 O 0.83123 0.17556 0.68591 0.0
O934 O 0.84635 0.21869 0.67377 0.0
O935 O 0.88001 0.21972 0.69569 0.0
O936 O 0.81898 0.14568 0.70737 0.0
O937 O 0.88279 0.20461 0.72637 0.0
O938 O 0.85926 0.19422 0.62411 0.0
O939 O 0.8749 0.18315 0.66991 0.0
O940 O 0.86056 0.14055 0.68173 0.0
O941 O 0.82633 0.13888 0.66007 0.0
O942 O 0.88717 0.21259 0.64812 0.0
O943 O 0.82263 0.15408 0.62944 0.0
C944 C 0.80992 0.1564 0.69443 0.0
C945 C 0.8772 0.18593 0.75864 0.0
C946 C 0.87766 0.18884 0.79489 0.0
C947 C 0.86658 0.19053 0.77636 0.0
C948 C 0.89946 0.18233 0.79534 0.0
C949 C 0.89897 0.17954 0.75944 0.0
C950 C 0.91 0.17774 0.77771 0.0
C951 C 0.86637 0.23116 0.68728 0.0
C952 C 0.86512 0.18751 0.7395 0.0
C953 C 0.9378 0.13108 0.71602 0.0
C954 C 0.95909 0.15828 0.71244 0.0
C955 C 0.89623 0.20202 0.66119 0.0
C956 C 0.82815 0.17315 0.59729 0.0
C957 C 0.83967 0.17045 0.57934 0.0
C958 C 0.82854 0.1727 0.56099 0.0
C959 C 0.80581 0.17788 0.56095 0.0
C960 C 0.80546 0.17823 0.59691 0.0
C961 C 0.7944 0.18062 0.57881 0.0
C962 C 0.84057 0.1279 0.66824 0.0
C963 C 0.84031 0.17103 0.61624 0.0
H964 H 0.84997 0.19577 0.77565 0.0
H965 H 0.90817 0.18046 0.80933 0.0
H966 H 0.90741 0.17595 0.74598 0.0
H967 H 0.92673 0.1727 0.77822 0.0
H968 H 0.85701 0.16622 0.5797 0.0
H969 H 0.79702 0.18011 0.5471 0.0
H970 H 0.7963 0.18035 0.61055 0.0
H971 H 0.77695 0.18465 0.57863 0.0
H972 H 0.31686 0.82394 0.05086 0.0
H973 H 0.40574 0.9871 0.03421 0.0
H974 H 0.28514 0.87931 0.06238 0.0
H975 H 0.4411 0.93414 0.02596 0.0
H976 H 0.35931 0.94659 0.03996 0.0
H977 H 0.36018 0.86256 0.03695 0.0
C978 C 0.31882 0.84411 0.05018 0.0
C979 C 0.29751 0.84849 0.05803 0.0
C980 C 0.37709 0.9437 0.03664 0.0
C981 C 0.34703 0.89275 0.04233 0.0
C982 C 0.40355 0.96683 0.03332 0.0
C983 C 0.4271 0.96389 0.02933 0.0
C984 C 0.3742 0.91735 0.03639 0.0
C985 C 0.42332 0.93724 0.02862 0.0
C986 C 0.34361 0.86617 0.04235 0.0
C987 C 0.30124 0.87509 0.05684 0.0
N988 N 0.39737 0.91497 0.03223 0.0
N989 N 0.32554 0.89617 0.04932 0.0
H990 H 0.13956 0.41399 0.06505 0.0
H991 H 0.08264 0.51454 0.03023 0.0
H992 H 0.19525 0.50105 0.05667 0.0
H993 H 0.03005 0.42726 0.0395 0.0
H994 H 0.12468 0.51058 0.03769 0.0
H995 H 0.10009 0.41869 0.05295 0.0
C996 C 0.14349 0.43414 0.06048 0.0
C997 C 0.17069 0.4572 0.06204 0.0
C998 C 0.10397 0.49227 0.03793 0.0
C999 C 0.12525 0.46292 0.04831 0.0
C1000 C 0.08002 0.49451 0.03359 0.0
C1001 C 0.05294 0.471 0.03368 0.0
C1002 C 0.10071 0.46642 0.04273 0.0
C1003 C 0.05059 0.44576 0.03888 0.0
C1004 C 0.1209 0.43685 0.05359 0.0
C1005 C 0.1746 0.48275 0.05569 0.0
N1006 N 0.07408 0.44412 0.04307 0.0
N1007 N 0.15205 0.485 0.0493 0.0
H1008 H 0.55251 0.7298 0.03991 0.0
H1009 H 0.56294 0.59535 0.05396 0.0
H1010 H 0.56275 0.70234 0.09778 0.0
H1011 H 0.50588 0.59795 0.01063 0.0
H1012 H 0.57095 0.63908 0.0674 0.0
H1013 H 0.54218 0.68533 0.02608 0.0
C1014 C 0.55243 0.7145 0.04976 0.0
C1015 C 0.55888 0.72014 0.07007 0.0
C1016 C 0.55679 0.63006 0.05487 0.0
C1017 C 0.54792 0.66967 0.05413 0.0
C1018 C 0.55225 0.60514 0.04712 0.0
C1019 C 0.53397 0.59303 0.03089 0.0
C1020 C 0.54337 0.64325 0.04617 0.0
C1021 C 0.52062 0.60674 0.02281 0.0
C1022 C 0.54669 0.68921 0.0418 0.0
C1023 C 0.5588 0.69946 0.08196 0.0
N1024 N 0.52577 0.63127 0.03042 0.0
N1025 N 0.55374 0.67531 0.07378 0.0
H1026 H 0.82934 0.27358 0.98854 0.0
H1027 H 0.94924 0.42756 0.9629 0.0
H1028 H 0.84159 0.30967 0.93012 0.0
H1029 H 0.9248 0.39849 0.02296 0.0
H1030 H 0.91078 0.38373 0.95064 0.0
H1031 H 0.86402 0.3188 1.00176 0.0
C1032 C 0.83896 0.29105 0.97854 0.0
C1033 C 0.83275 0.28769 0.95813 0.0
C1034 C 0.91369 0.38699 0.96653 0.0
C1035 C 0.8729 0.33936 0.97308 0.0
C1036 C 0.93578 0.41197 0.97354 0.0
C1037 C 0.94012 0.41684 0.99404 0.0
C1038 C 0.89597 0.3665 0.98011 0.0
C1039 C 0.92191 0.39589 0.0071 0.0
C1040 C 0.85893 0.31682 0.98607 0.0
C1041 C 0.84614 0.3111 0.94587 0.0
N1042 N 0.90074 0.3716 0.99994 0.0
N1043 N 0.86573 0.33579 0.95348 0.0
H1044 H 0.73452 0.60049 0.9581 0.0
H1045 H 0.57758 0.50077 0.9986 0.0
H1046 H 0.70472 0.51606 0.97446 0.0
H1047 H 0.61229 0.58752 0.98801 0.0
H1048 H 0.62416 0.5059 0.99167 0.0
H1049 H 0.69055 0.5963 0.9707 0.0
C1050 C 0.71873 0.58106 0.96445 0.0
C1051 C 0.72327 0.55852 0.96504 0.0
C1052 C 0.62169 0.52388 0.99108 0.0
C1053 C 0.67246 0.55346 0.97951 0.0
C1054 C 0.59512 0.52099 0.99517 0.0
C1055 C 0.59119 0.54389 0.99428 0.0
C1056 C 0.64441 0.54977 0.98565 0.0
C1057 C 0.61448 0.5694 0.98908 0.0
C1058 C 0.69359 0.57868 0.97171 0.0
C1059 C 0.70217 0.53398 0.97374 0.0
N1060 N 0.63998 0.57164 0.98494 0.0
N1061 N 0.67757 0.532 0.98042 0.0
H1062 H 0.50213 0.19977 0.9653 0.0
H1063 H 0.44326 0.04004 0.98239 0.0
H1064 H 0.41498 0.1379 0.95486 0.0
H1065 H 0.51906 0.10258 0.01108 0.0
H1066 H 0.43385 0.07577 0.97039 0.0
H1067 H 0.50996 0.16471 0.98085 0.0
C1068 C 0.48455 0.17893 0.96644 0.0
C1069 C 0.45789 0.1718 0.95857 0.0
C1070 C 0.45244 0.08165 0.97943 0.0
C1071 C 0.46693 0.1315 0.97599 0.0
C1072 C 0.45789 0.06127 0.98622 0.0
C1073 C 0.482 0.06833 0.99774 0.0
C1074 C 0.47143 0.10935 0.98393 0.0
C1075 C 0.50015 0.0962 0.00231 0.0
C1076 C 0.4891 0.1589 0.97524 0.0
C1077 C 0.43606 0.1443 0.96026 0.0
N1078 N 0.49461 0.11574 0.99524 0.0
N1079 N 0.44113 0.12514 0.96863 0.0
H1080 H 0.68683 0.19343 0.99321 0.0
H1081 H 0.59489 0.0285 0.99391 0.0
H1082 H 0.71515 0.1405 0.96822 0.0
H1083 H 0.55866 0.0803 0.0043 0.0
H1084 H 0.64135 0.0697 0.98944 0.0
H1085 H 0.64187 0.15246 0.00247 0.0
C1086 C 0.68363 0.1732 0.98978 0.0
C1087 C 0.70461 0.17038 0.97976 0.0
C1088 C 0.62331 0.07209 0.99292 0.0
C1089 C 0.65347 0.12356 0.99032 0.0
C1090 C 0.59686 0.0486 0.99552 0.0
C1091 C 0.57309 0.05104 0.99993 0.0
C1092 C 0.626 0.09828 0.99449 0.0
C1093 C 0.57659 0.07752 1.00146 0.0
C1094 C 0.65799 0.14988 0.995 0.0
C1095 C 0.69948 0.14371 0.97573 0.0
N1096 N 0.60257 0.10015 0.99878 0.0
N1097 N 0.67445 0.12139 0.98099 0.0
H1098 H 0.82862 0.48688 0.94921 0.0
H1099 H 0.98551 0.56426 0.98819 0.0
H1100 H 0.86077 0.56445 0.97958 0.0
H1101 H 0.9343 0.47621 0.99404 0.0
H1102 H 0.9426 0.56649 0.98033 0.0
H1103 H 0.86954 0.48379 0.96106 0.0
C1104 C 0.84423 0.50316 0.95851 0.0
C1105 C 0.84124 0.52584 0.96356 0.0
C1106 C 0.94079 0.54674 0.98351 0.0
C1107 C 0.88848 0.52286 0.9766 0.0
C1108 C 0.96521 0.54545 0.98791 0.0
C1109 C 0.96333 0.5201 0.99219 0.0
C1110 C 0.91449 0.52238 0.98259 0.0
C1111 C 0.93659 0.49623 0.99126 0.0
C1112 C 0.86749 0.50135 0.96527 0.0
C1113 C 0.86215 0.54648 0.97553 0.0
N1114 N 0.91325 0.49792 0.98639 0.0
N1115 N 0.88515 0.54472 0.98141 0.0
H1116 H 0.47434 0.33011 0.92193 0.0
H1117 H 0.53247 0.43491 0.01204 0.0
H1118 H 0.49513 0.30795 0.97828 0.0
H1119 H 0.47484 0.43589 0.96844 0.0
H1120 H 0.5249 0.39156 0.99813 0.0
H1121 H 0.48094 0.37278 0.9368 0.0
C1122 C 0.4804 0.33434 0.93743 0.0
C1123 C 0.48411 0.31557 0.94894 0.0
C1124 C 0.51377 0.40122 0.99176 0.0
C1125 C 0.4919 0.36422 0.96594 0.0
C1126 C 0.51793 0.42591 0.99974 0.0
C1127 C 0.5039 0.43894 0.99165 0.0
C1128 C 0.49601 0.38981 0.97524 0.0
C1129 C 0.48599 0.42659 0.97528 0.0
C1130 C 0.484 0.35854 0.9459 0.0
C1131 C 0.49193 0.32188 0.96894 0.0
N1132 N 0.48271 0.40281 0.96753 0.0
N1133 N 0.49575 0.34583 0.97681 0.0
H1134 H 0.16453 0.68314 0.09612 0.0
H1135 H 0.08758 0.59107 1.00085 0.0
H1136 H 0.18695 0.71379 0.03619 0.0
H1137 H 0.05473 0.56882 0.06043 0.0
H1138 H 0.12519 0.63522 0.01323 0.0
H1139 H 0.12557 0.64018 0.08316 0.0
C1140 C 0.16123 0.68075 0.0802 0.0
C1141 C 0.17897 0.70199 0.06721 0.0
C1142 C 0.10971 0.62072 0.02359 0.0
C1143 C 0.1344 0.65284 0.05221 0.0
C1144 C 0.08833 0.59536 0.01654 0.0
C1145 C 0.06819 0.57598 0.02963 0.0
C1146 C 0.11112 0.6267 0.04396 0.0
C1147 C 0.06977 0.58312 0.04977 0.0
C1148 C 0.13892 0.65628 0.07281 0.0
C1149 C 0.17376 0.69791 0.04672 0.0
N1150 N 0.091 0.60778 0.05634 0.0
N1151 N 0.15199 0.67373 0.03983 0.0
H1152 H 0.3203 0.49783 0.04813 0.0
H1153 H 0.42723 0.44004 0.03109 0.0
H1154 H 0.30147 0.41496 0.06053 0.0
H1155 H 0.45451 0.5263 0.0258 0.0
H1156 H 0.37926 0.43045 0.03797 0.0
H1157 H 0.36776 0.5088 0.0364 0.0
C1158 C 0.32605 0.48193 0.04826 0.0
C1159 C 0.30693 0.45541 0.05535 0.0
C1160 C 0.39555 0.45151 0.03516 0.0
C1161 C 0.36093 0.46775 0.04198 0.0
C1162 C 0.42296 0.45695 0.03116 0.0
C1163 C 0.44475 0.48389 0.02758 0.0
C1164 C 0.38971 0.47324 0.03599 0.0
C1165 C 0.43814 0.50514 0.02811 0.0
C1166 C 0.35313 0.48821 0.04161 0.0
C1167 C 0.31552 0.43566 0.05523 0.0
N1168 N 0.41119 0.49938 0.03231 0.0
N1169 N 0.34172 0.44221 0.04871 0.0
H1170 H 0.54935 0.86759 0.10236 0.0
H1171 H 0.48821 0.91328 0.01205 0.0
H1172 H 0.52526 0.82247 0.04716 0.0
H1173 H 0.54527 0.97028 0.05585 0.0
H1174 H 0.49623 0.87746 0.02602 0.0
H1175 H 0.54179 0.90302 0.08715 0.0
C1176 C 0.54236 0.86515 0.08704 0.0
C1177 C 0.53802 0.84224 0.07596 0.0
C1178 C 0.50711 0.8979 0.03241 0.0
C1179 C 0.5292 0.88248 0.05851 0.0
C1180 C 0.50267 0.91842 0.02441 0.0
C1181 C 0.51631 0.94501 0.03261 0.0
C1182 C 0.52482 0.90385 0.049 0.0
C1183 C 0.53431 0.95018 0.04895 0.0
C1184 C 0.53819 0.88539 0.07835 0.0
C1185 C 0.52897 0.83995 0.05617 0.0
N1186 N 0.53786 0.92975 0.05668 0.0
N1187 N 0.52471 0.85983 0.04806 0.0
H1188 H 0.94886 0.21252 0.39739 0.0
H1189 H 0.10705 0.26612 0.35974 0.0
H1190 H 0.98364 0.15906 0.38862 0.0
H1191 H 0.07102 0.31844 0.36848 0.0
H1192 H 0.0607 0.22583 0.36657 0.0
H1193 H 0.99197 0.25065 0.38345 0.0
C1194 C 0.96558 0.2088 0.39248 0.0
C1195 C 0.96278 0.18264 0.39441 0.0
C1196 C 0.06282 0.24608 0.36674 0.0
C1197 C 0.01232 0.22628 0.37834 0.0
C1198 C 0.08922 0.26905 0.36269 0.0
C1199 C 0.09265 0.29555 0.36323 0.0
C1200 C 0.03986 0.24974 0.37173 0.0
C1201 C 0.0691 0.29829 0.36775 0.0
C1202 C 0.99016 0.23056 0.38443 0.0
C1203 C 0.98489 0.17889 0.38739 0.0
N1204 N 0.04375 0.2757 0.37188 0.0
N1205 N 0.00886 0.20054 0.37986 0.0
H1206 H 0.81004 0.74694 0.39952 0.0
H1207 H 0.75389 0.84688 0.3619 0.0
H1208 H 0.86591 0.83372 0.38993 0.0
H1209 H 0.70103 0.75969 0.37149 0.0
H1210 H 0.79575 0.8429 0.3699 0.0
H1211 H 0.77074 0.75133 0.38665 0.0
C1212 C 0.81405 0.76695 0.39455 0.0
C1213 C 0.84125 0.79004 0.39599 0.0
C1214 C 0.77502 0.82461 0.37008 0.0
C1215 C 0.79603 0.79539 0.38131 0.0
C1216 C 0.75117 0.82686 0.36542 0.0
C1217 C 0.72407 0.80341 0.36553 0.0
C1218 C 0.77163 0.7988 0.37519 0.0
C1219 C 0.7216 0.77817 0.3709 0.0
C1220 C 0.79156 0.76948 0.38719 0.0
C1221 C 0.84526 0.8154 0.38907 0.0
N1222 N 0.74499 0.77652 0.37542 0.0
N1223 N 0.82282 0.81748 0.38222 0.0
H1224 H 0.222 0.0639 0.37357 0.0
H1225 H 0.23264 0.92949 0.38777 0.0
H1226 H 0.22851 0.03431 0.43157 0.0
H1227 H 0.1785 0.93319 0.34248 0.0
H1228 H 0.23959 0.97279 0.40134 0.0
H1229 H 0.21297 0.02005 0.35923 0.0
C1230 C 0.22136 0.04825 0.38334 0.0
C1231 C 0.22645 0.05313 0.40383 0.0
C1232 C 0.22632 0.96411 0.38835 0.0
C1233 C 0.217 0.00342 0.38737 0.0
C1234 C 0.2224 0.93944 0.38052 0.0
C1235 C 0.20517 0.92771 0.36376 0.0
C1236 C 0.21334 0.97743 0.37919 0.0
C1237 C 0.19238 0.94164 0.35514 0.0
C1238 C 0.21637 0.02334 0.3751 0.0
C1239 C 0.22565 0.03203 0.41564 0.0
N1240 N 0.19688 0.9659 0.36287 0.0
N1241 N 0.22137 0.00829 0.40721 0.0
H1242 H 0.5044 0.60545 0.32264 0.0
H1243 H 0.62528 0.75881 0.29585 0.0
H1244 H 0.51519 0.64152 0.26428 0.0
H1245 H 0.60117 0.73013 0.35601 0.0
H1246 H 0.58788 0.71421 0.28374 0.0
H1247 H 0.54192 0.64977 0.3351 0.0
C1248 C 0.51448 0.62267 0.31246 0.0
C1249 C 0.50667 0.6196 0.29233 0.0
C1250 C 0.5907 0.71772 0.29962 0.0
C1251 C 0.54997 0.67025 0.30643 0.0
C1252 C 0.61214 0.74309 0.30653 0.0
C1253 C 0.616 0.74831 0.327 0.0
C1254 C 0.57322 0.69728 0.31329 0.0
C1255 C 0.59838 0.72726 0.34016 0.0
C1256 C 0.53601 0.64792 0.31957 0.0
C1257 C 0.52083 0.64265 0.27981 0.0
N1258 N 0.57777 0.70264 0.3331 0.0
N1259 N 0.54182 0.6669 0.28704 0.0
H1260 H 0.4044 0.9313 0.29083 0.0
H1261 H 0.24722 0.83355 0.33164 0.0
H1262 H 0.37383 0.84711 0.30833 0.0
H1263 H 0.28308 0.92043 0.32104 0.0
H1264 H 0.29345 0.83795 0.32456 0.0
H1265 H 0.36055 0.92777 0.30307 0.0
C1266 C 0.38846 0.91205 0.29733 0.0
C1267 C 0.39276 0.88939 0.29837 0.0
C1268 C 0.29132 0.85612 0.32399 0.0
C1269 C 0.34213 0.88512 0.31245 0.0
C1270 C 0.26495 0.85364 0.32818 0.0
C1271 C 0.26148 0.87681 0.32738 0.0
C1272 C 0.31426 0.88186 0.31854 0.0
C1273 C 0.28495 0.90214 0.32209 0.0
C1274 C 0.36341 0.91007 0.30439 0.0
C1275 C 0.37148 0.86512 0.30726 0.0
N1276 N 0.31025 0.90398 0.31786 0.0
N1277 N 0.34698 0.86353 0.31376 0.0
H1278 H 0.16709 0.53113 0.2985 0.0
H1279 H 0.10833 0.37106 0.31459 0.0
H1280 H 0.07975 0.46942 0.28853 0.0
H1281 H 0.18467 0.43357 0.34275 0.0
H1282 H 0.09891 0.40691 0.30276 0.0
H1283 H 0.17522 0.49581 0.31322 0.0
C1284 C 0.14954 0.51027 0.29958 0.0
C1285 C 0.12273 0.50327 0.29208 0.0
C1286 C 0.11763 0.41274 0.31164 0.0
C1287 C 0.1321 0.46266 0.30854 0.0
C1288 C 0.12309 0.3923 0.31832 0.0
C1289 C 0.14729 0.39932 0.3297 0.0
C1290 C 0.13672 0.44043 0.31612 0.0
C1291 C 0.16564 0.4272 0.33413 0.0
C1292 C 0.15425 0.49009 0.30789 0.0
C1293 C 0.10093 0.47573 0.29366 0.0
N1294 N 0.16007 0.44677 0.32721 0.0
N1295 N 0.10615 0.45643 0.30155 0.0
H1296 H 0.33222 0.51062 0.28549 0.0
H1297 H 0.26144 0.36151 0.32913 0.0
H1298 H 0.38352 0.48298 0.3153 0.0
H1299 H 0.21949 0.4093 0.33203 0.0
H1300 H 0.30618 0.40383 0.32167 0.0
H1301 H 0.28975 0.47161 0.29978 0.0
C1302 C 0.33448 0.4964 0.29518 0.0
C1303 C 0.36127 0.49996 0.29931 0.0
C1304 C 0.28724 0.40504 0.32431 0.0
C1305 C 0.31297 0.45513 0.31528 0.0
C1306 C 0.26181 0.38099 0.32851 0.0
C1307 C 0.23696 0.38207 0.33155 0.0
C1308 C 0.28744 0.43006 0.32238 0.0
C1309 C 0.23829 0.40765 0.33023 0.0
C1310 C 0.31033 0.47428 0.30337 0.0
C1311 C 0.36319 0.48099 0.31189 0.0
N1312 N 0.26305 0.43061 0.32549 0.0
N1313 N 0.33926 0.45906 0.31922 0.0
H1314 H 0.49637 0.81543 0.28522 0.0
H1315 H 0.65522 0.8962 0.32092 0.0
H1316 H 0.52955 0.89431 0.31383 0.0
H1317 H 0.60564 0.80801 0.32661 0.0
H1318 H 0.61161 0.89748 0.31376 0.0
H1319 H 0.53826 0.81338 0.29607 0.0
C1320 C 0.51241 0.83221 0.29394 0.0
C1321 C 0.50944 0.85496 0.29877 0.0
C1322 C 0.61031 0.87791 0.31675 0.0
C1323 C 0.55775 0.85315 0.31068 0.0
C1324 C 0.63512 0.87716 0.32074 0.0
C1325 C 0.63389 0.85205 0.32483 0.0
C1326 C 0.58425 0.85325 0.31605 0.0
C1327 C 0.60742 0.82786 0.32401 0.0
C1328 C 0.53624 0.83101 0.30013 0.0
C1329 C 0.53091 0.87627 0.30997 0.0
N1330 N 0.58367 0.82903 0.31958 0.0
N1331 N 0.5544 0.87505 0.31531 0.0
H1332 H 0.13921 0.66197 0.25689 0.0
H1333 H 0.20213 0.76837 0.34573 0.0
H1334 H 0.16143 0.63997 0.31275 0.0
H1335 H 0.1424 0.76869 0.30373 0.0
H1336 H 0.1934 0.72448 0.33205 0.0
H1337 H 0.1469 0.70501 0.27178 0.0
C1338 C 0.1458 0.6663 0.27228 0.0
C1339 C 0.14959 0.64747 0.28365 0.0
C1340 C 0.18207 0.73412 0.32599 0.0
C1341 C 0.15865 0.69656 0.30067 0.0
C1342 C 0.18689 0.75911 0.33386 0.0
C1343 C 0.17262 0.77212 0.32614 0.0
C1344 C 0.16343 0.72241 0.30995 0.0
C1345 C 0.15379 0.75943 0.31027 0.0
C1346 C 0.15003 0.69073 0.28077 0.0
C1347 C 0.15814 0.65394 0.30353 0.0
N1348 N 0.1499 0.73539 0.30261 0.0
N1349 N 0.16258 0.67812 0.31141 0.0
H1350 H 0.85845 0.04762 0.37028 0.0
H1351 H 0.72461 0.89954 0.39362 0.0
H1352 H 0.83279 0.01485 0.42946 0.0
H1353 H 0.76071 0.92443 0.33508 0.0
H1354 H 0.76137 0.9437 0.40663 0.0
H1355 H 0.82055 0.0042 0.35667 0.0
C1356 C 0.84487 0.03127 0.38039 0.0
C1357 C 0.8487 0.03471 0.40102 0.0
C1358 C 0.76129 0.93948 0.39092 0.0
C1359 C 0.80528 0.98525 0.38563 0.0
C1360 C 0.74018 0.91433 0.38345 0.0
C1361 C 0.7398 0.90807 0.36322 0.0
C1362 C 0.78206 0.95869 0.37804 0.0
C1363 C 0.76061 0.92802 0.35079 0.0
C1364 C 0.82326 0.00652 0.37263 0.0
C1365 C 0.83053 0.01292 0.41346 0.0
N1366 N 0.78089 0.95244 0.35838 0.0
N1367 N 0.80955 0.98916 0.40558 0.0
H1368 H 0.99213 0.7811 0.42035 0.0
H1369 H 0.12848 0.86394 0.35663 0.0
H1370 H 0.98989 0.83274 0.37378 0.0
H1371 H 0.09733 0.77867 0.37102 0.0
H1372 H 0.08167 0.85786 0.36502 0.0
H1373 H 0.03482 0.7847 0.4055 0.0
C1374 C 1.0006 0.79307 0.40688 0.0
C1375 C 0.98741 0.80644 0.39817 0.0
C1376 C 0.08504 0.84043 0.36597 0.0
C1377 C 0.03677 0.81136 0.38142 0.0
C1378 C 0.11165 0.84383 0.3611 0.0
C1379 C 0.11658 0.82158 0.36271 0.0
C1380 C 0.06374 0.81495 0.37326 0.0
C1381 C 0.09434 0.79626 0.36936 0.0
C1382 C 0.02489 0.79507 0.39841 0.0
C1383 C 0.99932 0.82188 0.38079 0.0
N1384 N 0.06907 0.79372 0.37462 0.0
N1385 N 0.0237 0.82432 0.37311 0.0
H1386 H 0.21696 0.20078 0.43634 0.0
H1387 H 0.15318 0.24428 0.34645 0.0
H1388 H 0.19242 0.1551 0.3814 0.0
H1389 H 0.21085 0.30235 0.38947 0.0
H1390 H 0.16192 0.20899 0.36051 0.0
H1391 H 0.20868 0.23577 0.42112 0.0
C1392 C 0.20973 0.19813 0.42107 0.0
C1393 C 0.20547 0.17518 0.41007 0.0
C1394 C 0.17277 0.22954 0.36672 0.0
C1395 C 0.19579 0.21489 0.39262 0.0
C1396 C 0.16793 0.24977 0.35865 0.0
C1397 C 0.18158 0.27652 0.36657 0.0
C1398 C 0.19089 0.23594 0.38311 0.0
C1399 C 0.1999 0.28211 0.38278 0.0
C1400 C 0.20515 0.21811 0.41238 0.0
C1401 C 0.19609 0.17261 0.39035 0.0
N1402 N 0.20386 0.26196 0.39057 0.0
N1403 N 0.19141 0.19223 0.38224 0.0
H1404 H 0.61635 0.54333 0.72995 0.0
H1405 H 0.77445 0.59615 0.69231 0.0
H1406 H 0.65037 0.48929 0.72109 0.0
H1407 H 0.73924 0.64894 0.70216 0.0
H1408 H 0.72791 0.55598 0.699 0.0
H1409 H 0.65958 0.58126 0.71601 0.0
C1410 C 0.63291 0.53943 0.72495 0.0
C1411 C 0.6299 0.51318 0.72693 0.0
C1412 C 0.73025 0.57631 0.69946 0.0
C1413 C 0.67968 0.55666 0.71095 0.0
C1414 C 0.75677 0.59922 0.69551 0.0
C1415 C 0.76048 0.62582 0.69634 0.0
C1416 C 0.70744 0.58011 0.70462 0.0
C1417 C 0.73712 0.62872 0.70118 0.0
C1418 C 0.6576 0.56109 0.71694 0.0
C1419 C 0.65182 0.5092 0.71984 0.0
N1420 N 0.71164 0.60618 0.70516 0.0
N1421 N 0.67594 0.53078 0.71238 0.0
H1422 H 0.53048 0.16208 0.71753 0.0
H1423 H 0.36121 0.08949 0.70859 0.0
H1424 H 0.47251 0.08056 0.73931 0.0
H1425 H 0.41709 0.17563 0.6967 0.0
H1426 H 0.40235 0.08466 0.71657 0.0
H1427 H 0.48992 0.166 0.70582 0.0
C1428 C 0.50928 0.1449 0.71965 0.0
C1429 C 0.50493 0.12106 0.72961 0.0
C1430 C 0.4057 0.10461 0.71208 0.0
C1431 C 0.45842 0.12549 0.71643 0.0
C1432 C 0.38221 0.10734 0.70752 0.0
C1433 C 0.3858 0.13281 0.70148 0.0
C1434 C 0.43309 0.12763 0.71087 0.0
C1435 C 0.41343 0.15545 0.70074 0.0
C1436 C 0.48613 0.14723 0.71311 0.0
C1437 C 0.47692 0.09951 0.73202 0.0
N1438 N 0.43603 0.15232 0.70529 0.0
N1439 N 0.45483 0.10227 0.72557 0.0
H1440 H 0.94751 0.3965 0.73451 0.0
H1441 H 0.83571 0.25691 0.68103 0.0
H1442 H 0.8608 0.3746 0.72317 0.0
H1443 H 0.91333 0.26919 0.7075 0.0
H1444 H 0.84736 0.30288 0.69189 0.0
H1445 H 0.93788 0.35265 0.72022 0.0
C1446 C 0.92644 0.38248 0.72902 0.0
C1447 C 0.90485 0.38916 0.73025 0.0
C1448 C 0.86186 0.29553 0.69527 0.0
C1449 C 0.89386 0.33912 0.71361 0.0
C1450 C 0.85533 0.26934 0.68899 0.0
C1451 C 0.87361 0.25919 0.69336 0.0
C1452 C 0.88692 0.31176 0.70591 0.0
C1453 C 0.89856 0.27613 0.70389 0.0
C1454 C 0.92101 0.35751 0.72081 0.0
C1455 C 0.87816 0.37047 0.72242 0.0
N1456 N 0.9045 0.30162 0.70981 0.0
N1457 N 0.87339 0.34625 0.7145 0.0
H1458 H 0.14385 0.96157 0.63933 0.0
H1459 H 0.30965 0.06967 0.64987 0.0
H1460 H 0.21012 0.94514 0.62179 0.0
H1461 H 0.24476 0.0844 0.6735 0.0
H1462 H 0.27304 0.02387 0.63951 0.0
H1463 H 0.17999 0.00623 0.65262 0.0
C1464 C 0.16593 0.96723 0.63843 0.0
C1465 C 0.17396 0.94973 0.62918 0.0
C1466 C 0.26677 0.03705 0.64705 0.0
C1467 C 0.21539 0.00082 0.64414 0.0
C1468 C 0.28771 0.06329 0.65292 0.0
C1469 C 0.28034 0.08093 0.66266 0.0
C1470 C 0.23814 0.02835 0.65079 0.0
C1471 C 0.25149 0.07143 0.66622 0.0
C1472 C 0.18656 0.99277 0.64592 0.0
C1473 C 0.20294 0.9582 0.62837 0.0
N1474 N 0.23145 0.04583 0.66024 0.0
N1475 N 0.22252 0.98311 0.63561 0.0
H1476 H 0.04308 0.17814 0.64267 0.0
H1477 H 0.90887 0.16038 0.66354 0.0
H1478 H 0.06267 0.25826 0.62126 0.0
H1479 H 0.94654 0.24718 0.65205 0.0
H1480 H 0.95413 0.16326 0.65669 0.0
H1481 H 0.99809 0.17127 0.65552 0.0
C1482 C 0.03794 0.19431 0.64067 0.0
C1483 C 0.05661 0.2186 0.63049 0.0
C1484 C 0.95297 0.18192 0.65605 0.0
C1485 C 1.0044 0.21063 0.6447 0.0
C1486 C 0.92692 0.18021 0.66004 0.0
C1487 C 0.92411 0.20372 0.65892 0.0
C1488 C 0.97645 0.20738 0.65062 0.0
C1489 C 0.94793 0.22865 0.65342 0.0
C1490 C 0.01193 0.19024 0.64781 0.0
C1491 C 0.04874 0.23885 0.62848 0.0
N1492 N 0.973 0.22981 0.64949 0.0
N1493 N 0.02333 0.23435 0.63539 0.0
H1494 H 0.82603 0.85982 0.63832 0.0
H1495 H 0.77521 0.69991 0.64725 0.0
H1496 H 0.74348 0.79535 0.61979 0.0
H1497 H 0.85074 0.76352 0.67554 0.0
H1498 H 0.7638 0.73472 0.6364 0.0
H1499 H 0.83573 0.82499 0.65184 0.0
C1500 C 0.8098 0.83836 0.63729 0.0
C1501 C 0.7839 0.83053 0.62783 0.0
C1502 C 0.78279 0.74105 0.64507 0.0
C1503 C 0.79514 0.7905 0.64296 0.0
C1504 C 0.78939 0.72119 0.65122 0.0
C1505 C 0.81395 0.72879 0.66237 0.0
C1506 C 0.801 0.76878 0.64993 0.0
C1507 C 0.83147 0.75669 0.6671 0.0
C1508 C 0.81544 0.81847 0.64491 0.0
C1509 C 0.76391 0.80236 0.62664 0.0
N1510 N 0.82471 0.7757 0.66078 0.0
N1511 N 0.77001 0.78337 0.63402 0.0
H1512 H 0.02993 0.84123 0.64434 0.0
H1513 H 0.92264 0.67992 0.66041 0.0
H1514 H 0.04956 0.77698 0.63279 0.0
H1515 H 0.89627 0.7404 0.6655 0.0
H1516 H 0.97113 0.7167 0.65467 0.0
H1517 H 0.98269 0.80617 0.65611 0.0
C1518 C 0.02438 0.81981 0.64442 0.0
C1519 C 0.04359 0.8119 0.63752 0.0
C1520 C 0.95491 0.72211 0.65725 0.0
C1521 C 0.98987 0.77189 0.65092 0.0
C1522 C 0.92726 0.70109 0.6606 0.0
C1523 C 0.90564 0.70723 0.66374 0.0
C1524 C 0.96104 0.74959 0.65659 0.0
C1525 C 0.91255 0.73493 0.66353 0.0
C1526 C 0.99744 0.79983 0.6511 0.0
C1527 C 0.03534 0.78392 0.63792 0.0
N1528 N 0.9397 0.75516 0.65991 0.0
N1529 N 0.00917 0.765 0.64443 0.0
H1530 H 0.1664 0.18033 0.64547 0.0
H1531 H 0.33318 0.23434 0.65417 0.0
H1532 H 0.23257 0.26348 0.6337 0.0
H1533 H 0.27029 0.14894 0.66164 0.0
H1534 H 0.29558 0.24515 0.64852 0.0
H1535 H 0.20288 0.16808 0.65362 0.0
C1536 C 0.18854 0.196 0.64471 0.0
C1537 C 0.19652 0.22299 0.63888 0.0
C1538 C 0.28982 0.22402 0.65152 0.0
C1539 C 0.23819 0.20915 0.64802 0.0
C1540 C 0.31134 0.2179 0.65478 0.0
C1541 C 0.30479 0.19089 0.65894 0.0
C1542 C 0.26134 0.2029 0.65203 0.0
C1543 C 0.27616 0.17018 0.65908 0.0
C1544 C 0.20933 0.189 0.64929 0.0
C1545 C 0.22547 0.24244 0.6381 0.0
N1546 N 0.25543 0.17661 0.65573 0.0
N1547 N 0.24513 0.23516 0.64256 0.0
H1548 H 0.8561 0.99894 0.612 0.0
H1549 H 0.79099 0.08553 0.65365 0.0
H1550 H 0.77464 0.95675 0.64088 0.0
H1551 H 0.8773 0.10848 0.66754 0.0
H1552 H 0.78293 0.04058 0.64194 0.0
H1553 H 0.8631 0.04276 0.62523 0.0
C1554 C 0.83976 0.99899 0.62113 0.0
C1555 C 0.81495 0.97441 0.6256 0.0
C1556 C 0.80354 0.05557 0.64763 0.0
C1557 C 0.82237 0.02402 0.64011 0.0
C1558 C 0.80818 0.08112 0.65418 0.0
C1559 C 0.83483 0.10065 0.6615 0.0
C1560 C 0.82596 0.05006 0.64787 0.0
C1561 C 0.85643 0.09395 0.66201 0.0
C1562 C 0.84376 0.02383 0.62866 0.0
C1563 C 0.79422 0.97536 0.63737 0.0
N1564 N 0.85163 0.06931 0.65502 0.0
N1565 N 0.79824 -8e-05 0.64409 0.0
H1566 H 0.48775 0.35258 0.76289 0.0
H1567 H 0.44082 0.24151 0.67792 0.0
H1568 H 0.53084 0.37325 0.70635 0.0
H1569 H 0.38002 0.24411 0.7177 0.0
H1570 H 0.47675 0.28668 0.69001 0.0
H1571 H 0.45072 0.30922 0.74873 0.0
C1572 C 0.48937 0.34792 0.74747 0.0
C1573 C 0.51225 0.36645 0.73573 0.0
C1574 C 0.45544 0.27742 0.6959 0.0
C1575 C 0.47031 0.31684 0.71957 0.0
C1576 C 0.43481 0.25166 0.68893 0.0
C1577 C 0.40706 0.23905 0.69647 0.0
C1578 C 0.44856 0.29034 0.71095 0.0
C1579 C 0.40099 0.25298 0.71131 0.0
C1580 C 0.46822 0.3233 0.73941 0.0
C1581 C 0.51343 0.35952 0.71585 0.0
N1582 N 0.42163 0.27774 0.71819 0.0
N1583 N 0.49284 0.33506 0.70841 0.0
H1584 H 0.68328 0.19069 0.73887 0.0
H1585 H 0.75855 0.11082 0.70083 0.0
H1586 H 0.6343 0.11135 0.7111 0.0
H1587 H 0.79875 0.19895 0.69515 0.0
H1588 H 0.71337 0.10905 0.70795 0.0
H1589 H 0.72672 0.19314 0.72629 0.0
C1590 C 0.6817 0.17389 0.72996 0.0
C1591 C 0.65521 0.15089 0.72591 0.0
C1592 C 0.73203 0.12871 0.70487 0.0
C1593 C 0.70482 0.15318 0.71196 0.0
C1594 C 0.75775 0.12973 0.70088 0.0
C1595 C 0.78224 0.15499 0.69699 0.0
C1596 C 0.73107 0.15325 0.70578 0.0
C1597 C 0.78025 0.179 0.69761 0.0
C1598 C 0.70646 0.17532 0.72277 0.0
C1599 C 0.65432 0.12958 0.7144 0.0
N1600 N 0.7552 0.17757 0.70212 0.0
N1601 N 0.67882 0.13102 0.70808 0.0
H1602 H 0.86528 0.48638 0.70916 0.0
H1603 H 0.87938 0.63342 0.72054 0.0
H1604 H 0.88515 0.53026 0.76484 0.0
H1605 H 0.82169 0.57435 0.67798 0.0
H1606 H 0.88824 0.59821 0.73407 0.0
H1607 H 0.85519 0.52079 0.69462 0.0
C1608 C 0.86751 0.50325 0.71829 0.0
C1609 C 0.87611 0.50568 0.7382 0.0
C1610 C 0.87371 0.59302 0.72172 0.0
C1611 C 0.86506 0.54494 0.72169 0.0
C1612 C 0.86867 0.61313 0.7139 0.0
C1613 C 0.84988 0.60697 0.69793 0.0
C1614 C 0.8602 0.56659 0.7134 0.0
C1615 C 0.83666 0.58019 0.69007 0.0
C1616 C 0.86168 0.52274 0.71003 0.0
C1617 C 0.87855 0.52775 0.74944 0.0
N1618 N 0.84219 0.56097 0.69782 0.0
N1619 N 0.8733 0.54671 0.74098 0.0
H1620 H 0.50516 0.93879 0.24845 0.0
H1621 H 0.46124 0.96909 0.1416 0.0
H1622 H 0.41874 0.90003 0.22788 0.0
H1623 H 0.5468 0.00952 0.16396 0.0
H1624 H 0.4454 0.9413 0.172 0.0
H1625 H 0.52086 0.96251 0.2166 0.0
C1626 C 0.48947 0.93502 0.23717 0.0
C1627 C 0.46054 0.91734 0.24093 0.0
C1628 C 0.46765 0.9562 0.17022 0.0
C1629 C 0.47844 0.94489 0.20434 0.0
C1630 C 0.47674 0.97196 0.1528 0.0
C1631 C 0.50539 0.99186 0.15025 0.0
C1632 C 0.48735 0.96025 0.18519 0.0
C1633 C 0.52445 0.99481 0.16539 0.0
C1634 C 0.49846 0.94875 0.21899 0.0
C1635 C 0.44122 0.91372 0.22578 0.0
N1636 N 0.51509 0.97928 0.18217 0.0
N1637 N 0.4505 0.9274 0.20819 0.0
H1638 H 0.05378 0.54857 0.24717 0.0
H1639 H 0.0193 0.47803 0.13969 0.0
H1640 H 0.094 0.50512 0.22347 0.0
H1641 H 0.9812 0.52368 0.16299 0.0
H1642 H 0.04496 0.48551 0.17094 0.0
H1643 H 0.02504 0.53738 0.21711 0.0
C1644 C 0.05656 0.53668 0.23561 0.0
C1645 C 0.07643 0.52791 0.23776 0.0
C1646 C 0.03089 0.49379 0.16925 0.0
C1647 C 0.04347 0.51484 0.20336 0.0
C1648 C 0.01634 0.48964 0.15138 0.0
C1649 C 0.99817 0.50036 0.14868 0.0
C1650 C 0.02731 0.50882 0.18454 0.0
C1651 C 0.99477 0.51482 0.16447 0.0
C1652 C 0.04006 0.53018 0.2185 0.0
C1653 C 0.07879 0.51213 0.22248 0.0
N1654 N 0.00931 0.51873 0.18168 0.0
N1655 N 0.06261 0.50622 0.20588 0.0
H1656 H 0.45875 0.50915 0.24556 0.0
H1657 H 0.52115 0.5595 0.13603 0.0
H1658 H 0.48596 0.59066 0.22306 0.0
H1659 H 0.50985 0.48455 0.16249 0.0
H1660 H 0.50212 0.56849 0.16621 0.0
H1661 H 0.47093 0.49699 0.21351 0.0
C1662 C 0.46693 0.52435 0.23378 0.0
C1663 C 0.47156 0.551 0.23699 0.0
C1664 C 0.50371 0.55003 0.1654 0.0
C1665 C 0.48573 0.53736 0.20042 0.0
C1666 C 0.51443 0.54481 0.14813 0.0
C1667 C 0.51722 0.5213 0.14678 0.0
C1668 C 0.49556 0.53155 0.18142 0.0
C1669 C 0.50845 0.50312 0.16302 0.0
C1670 C 0.47407 0.51748 0.21556 0.0
C1671 C 0.48244 0.57 0.22128 0.0
N1672 N 0.49804 0.50864 0.17967 0.0
N1673 N 0.48923 0.56284 0.2037 0.0
H1674 H 0.92146 0.46923 0.80142 0.0
H1675 H 0.04313 0.46589 0.86461 0.0
H1676 H 0.97913 0.44543 0.77655 0.0
H1677 H 1.00124 0.51034 0.88309 0.0
H1678 H 0.01854 0.45631 0.83278 0.0
H1679 H 0.949 0.48252 0.83206 0.0
C1680 C 0.94007 0.46704 0.8023 0.0
C1681 C 0.94796 0.45617 0.78633 0.0
C1682 C 0.01484 0.46827 0.84378 0.0
C1683 C 0.97926 0.47086 0.82159 0.0
C1684 C 0.02899 0.47388 0.86193 0.0
C1685 C 0.02422 0.4889 0.87663 0.0
C1686 C 0.99558 0.47751 0.84032 0.0
C1687 C 1.00522 0.49825 0.87239 0.0
C1688 C 0.9557 0.47451 0.81986 0.0
C1689 C 0.97197 0.4533 0.78855 0.0
N1690 N 0.9915 0.49229 0.85467 0.0
N1691 N 0.98669 0.46048 0.80589 0.0
H1692 H 0.55839 0.4464 0.80065 0.0
H1693 H 0.51882 0.54657 0.85969 0.0
H1694 H 0.56853 0.52185 0.77599 0.0
H1695 H 0.51503 0.47436 0.88555 0.0
H1696 H 0.53713 0.53803 0.82894 0.0
H1697 H 0.54256 0.45645 0.83188 0.0
C1698 C 0.5572 0.46506 0.8018 0.0
C1699 C 0.56464 0.48324 0.78564 0.0
C1700 C 0.53239 0.52411 0.84136 0.0
C1701 C 0.54669 0.49499 0.82145 0.0
C1702 C 0.52179 0.52888 0.85889 0.0
C1703 C 0.51528 0.51109 0.87521 0.0
C1704 C 0.53639 0.50128 0.84007 0.0
C1705 C 0.51999 0.48875 0.87342 0.0
C1706 C 0.54831 0.47087 0.81968 0.0
C1707 C 0.56318 0.50735 0.7881 0.0
N1708 N 0.53012 0.48442 0.85615 0.0
N1709 N 0.55423 0.51246 0.80563 0.0
H1710 H 0.56113 0.06783 0.77978 0.0
H1711 H 0.4966 0.05399 0.88919 0.0
H1712 H 0.52546 0.11687 0.80037 0.0
H1713 H 0.51383 0.99368 0.86299 0.0
H1714 H 0.51362 0.08146 0.85866 0.0
H1715 H 0.5506 0.0448 0.81214 0.0
C1716 C 0.55141 0.07401 0.7912 0.0
C1717 C 0.54404 0.09423 0.78732 0.0
C1718 C 0.51379 0.06227 0.85964 0.0
C1719 C 0.53171 0.06777 0.82438 0.0
C1720 C 0.50424 0.04668 0.8771 0.0
C1721 C 0.5036 0.0214 0.87859 0.0
C1722 C 0.52304 0.05267 0.84362 0.0
C1723 C 0.51357 0.01284 0.86239 0.0
C1724 C 0.54521 0.0607 0.80962 0.0
C1725 C 0.53118 0.10116 0.80263 0.0
N1726 N 0.52283 0.0284 0.84561 0.0
N1727 N 0.52538 0.08793 0.82046 0.0
H1728 H 0.08536 0.23315 0.56039 0.0
H1729 H 0.2146 0.34988 0.49747 0.0
H1730 H 0.17072 0.28109 0.58256 0.0
H1731 H 0.12903 0.30509 0.47525 0.0
H1732 H 0.19894 0.32326 0.52817 0.0
H1733 H 0.10088 0.25781 0.52871 0.0
C1734 C 0.10734 0.24889 0.55864 0.0
C1735 C 0.12673 0.25501 0.57424 0.0
C1736 C 0.18354 0.31917 0.51659 0.0
C1737 C 0.1447 0.28317 0.53787 0.0
C1738 C 0.19246 0.33448 0.49905 0.0
C1739 C 0.17308 0.32993 0.48375 0.0
C1740 C 0.15495 0.29905 0.51899 0.0
C1741 C 0.14477 0.30922 0.48655 0.0
C1742 C 0.11621 0.26286 0.54049 0.0
C1743 C 0.15504 0.27535 0.57093 0.0
N1744 N 0.13654 0.29466 0.50386 0.0
N1745 N 0.16311 0.28868 0.55319 0.0
H1746 H 0.76541 0.84002 0.558 0.0
H1747 H 0.65275 0.85968 0.49429 0.0
H1748 H 0.72088 0.88023 0.57999 0.0
H1749 H 0.6934 0.8154 0.47292 0.0
H1750 H 0.67779 0.86748 0.52577 0.0
H1751 H 0.73954 0.8309 0.52664 0.0
C1752 C 0.75009 0.84681 0.55627 0.0
C1753 C 0.74533 0.86096 0.57163 0.0
C1754 C 0.68122 0.85602 0.51422 0.0
C1755 C 0.71587 0.85082 0.53575 0.0
C1756 C 0.66679 0.85141 0.49627 0.0
C1757 C 0.67094 0.83682 0.48094 0.0
C1758 C 0.70001 0.84601 0.51691 0.0
C1759 C 0.68981 0.82704 0.48424 0.0
C1760 C 0.73544 0.84171 0.53834 0.0
C1761 C 0.72553 0.86961 0.56846 0.0
N1762 N 0.70365 0.83181 0.50186 0.0
N1763 N 0.71155 0.86441 0.55089 0.0
H1764 H 0.108 0.86624 0.55898 0.0
H1765 H 0.23859 0.87927 0.49548 0.0
H1766 H 0.19291 0.89902 0.5815 0.0
H1767 H 0.1532 0.83983 0.47278 0.0
H1768 H 0.22172 0.88734 0.52685 0.0
H1769 H 0.12343 0.85646 0.52722 0.0
C1770 C 0.12981 0.87121 0.5573 0.0
C1771 C 0.14925 0.8837 0.57288 0.0
C1772 C 0.20659 0.87688 0.51506 0.0
C1773 C 0.16707 0.87285 0.53659 0.0
C1774 C 0.21621 0.87215 0.49712 0.0
C1775 C 0.19727 0.85863 0.48147 0.0
C1776 C 0.17773 0.86815 0.51749 0.0
C1777 C 0.16861 0.85049 0.48438 0.0
C1778 C 0.13863 0.86578 0.53914 0.0
C1779 C 0.17729 0.88988 0.56981 0.0
N1780 N 0.15968 0.85531 0.50206 0.0
N1781 N 0.18532 0.88447 0.55207 0.0
H1782 H 0.64292 0.78294 0.1083 0.0
H1783 H 0.67062 0.84832 0.21732 0.0
H1784 H 0.58902 0.80885 0.13666 0.0
H1785 H 0.71054 0.80394 0.19473 0.0
H1786 H 0.64528 0.84019 0.18589 0.0
H1787 H 0.67274 0.79683 0.13797 0.0
C1788 C 0.63736 0.79157 0.12073 0.0
C1789 C 0.61324 0.79448 0.12002 0.0
C1790 C 0.65969 0.83235 0.1878 0.0
C1791 C 0.64752 0.81075 0.15391 0.0
C1792 C 0.67406 0.83685 0.20578 0.0
C1793 C 0.69257 0.82658 0.20879 0.0
C1794 C 0.66392 0.81758 0.17263 0.0
C1795 C 0.69669 0.81245 0.19306 0.0
C1796 C 0.65447 0.7996 0.13762 0.0
C1797 C 0.6075 0.80642 0.13643 0.0
N1798 N 0.68238 0.80827 0.17571 0.0
N1799 N 0.62443 0.81399 0.15272 0.0
H1800 H 0.23833 0.8575 0.10822 0.0
H1801 H 0.18543 0.80594 0.21943 0.0
H1802 H 0.22651 0.78106 0.13214 0.0
H1803 H 0.18822 0.87757 0.19334 0.0
H1804 H 0.20404 0.79842 0.18843 0.0
H1805 H 0.22352 0.86708 0.14014 0.0
C1806 C 0.23281 0.84283 0.12023 0.0
C1807 C 0.23356 0.81839 0.11747 0.0
C1808 C 0.20063 0.81582 0.1895 0.0
C1809 C 0.21639 0.82912 0.15403 0.0
C1810 C 0.19018 0.82022 0.20724 0.0
C1811 C 0.18515 0.84236 0.20897 0.0
C1812 C 0.20624 0.83374 0.17336 0.0
C1813 C 0.19139 0.86001 0.19258 0.0
C1814 C 0.2242 0.84822 0.13842 0.0
C1815 C 0.22587 0.79997 0.13351 0.0
N1816 N 0.20158 0.85531 0.17548 0.0
N1817 N 0.21761 0.8057 0.15108 0.0
H1818 H 0.15664 0.39106 0.11045 0.0
H1819 H 0.2035 0.37429 0.22018 0.0
H1820 H 0.2404 0.44489 0.1335 0.0
H1821 H 0.11889 0.32623 0.19678 0.0
H1822 H 0.21806 0.40056 0.18899 0.0
H1823 H 0.14329 0.36687 0.1421 0.0
C1824 C 0.17223 0.39795 0.12223 0.0
C1825 C 0.19963 0.42031 0.1193 0.0
C1826 C 0.19632 0.38428 0.19073 0.0
C1827 C 0.18448 0.39222 0.1558 0.0
C1828 C 0.18793 0.36938 0.20858 0.0
C1829 C 0.15995 0.3478 0.21111 0.0
C1830 C 0.17657 0.37759 0.17529 0.0
C1831 C 0.14081 0.34226 0.19544 0.0
C1832 C 0.16461 0.38399 0.14033 0.0
C1833 C 0.21908 0.42771 0.13503 0.0
N1834 N 0.14948 0.35695 0.17828 0.0
N1835 N 0.21111 0.41376 0.15263 0.0
H1836 H 0.7991 0.55845 0.89335 0.0
H1837 H 0.83217 0.69313 0.83107 0.0
H1838 H 0.78251 0.6216 0.91463 0.0
H1839 H 0.83757 0.62535 0.80555 0.0
H1840 H 0.81481 0.66725 0.86199 0.0
H1841 H 0.81439 0.5827 0.86141 0.0
C1842 C 0.79871 0.57741 0.89133 0.0
C1843 C 0.78942 0.58794 0.90672 0.0
C1844 C 0.81968 0.65792 0.84965 0.0
C1845 C 0.80683 0.61577 0.87018 0.0
C1846 C 0.82973 0.67277 0.83199 0.0
C1847 C 0.83652 0.66149 0.81571 0.0
C1848 C 0.81653 0.63155 0.85122 0.0
C1849 C 0.83246 0.6348 0.81769 0.0
C1850 C 0.80728 0.59116 0.87305 0.0
C1851 C 0.78912 0.61248 0.90315 0.0
N1852 N 0.82292 0.62081 0.83516 0.0
N1853 N 0.79777 0.62555 0.88535 0.0
H1854 H 0.42974 0.1723 0.88954 0.0
H1855 H 0.31774 0.1952 0.82784 0.0
H1856 H 0.39017 0.21712 0.91179 0.0
H1857 H 0.35387 0.14686 0.80643 0.0
H1858 H 0.34287 0.20199 0.85919 0.0
H1859 H 0.40084 0.16118 0.8595 0.0
C1860 C 0.41478 0.17957 0.88819 0.0
C1861 C 0.41248 0.1958 0.90314 0.0
C1862 C 0.34523 0.18981 0.84767 0.0
C1863 C 0.3796 0.18345 0.86872 0.0
C1864 C 0.33075 0.1858 0.82979 0.0
C1865 C 0.33375 0.1705 0.81444 0.0
C1866 C 0.36292 0.17851 0.85025 0.0
C1867 C 0.35127 0.15916 0.81773 0.0
C1868 C 0.3984 0.17336 0.87099 0.0
C1869 C 0.39298 0.20494 0.90049 0.0
N1870 N 0.36525 0.16346 0.83525 0.0
N1871 N 0.37738 0.19873 0.88359 0.0
H1872 H 0.86235 0.24034 0.91332 0.0
H1873 H 0.82251 0.1722 0.80495 0.0
H1874 H 0.7771 0.19847 0.89034 0.0
H1875 H 0.90776 0.21719 0.82777 0.0
H1876 H 0.80515 0.18083 0.83614 0.0
H1877 H 0.87901 0.23096 0.88224 0.0
C1878 C 0.84712 0.22925 0.90169 0.0
C1879 C 0.81829 0.22034 0.90441 0.0
C1880 C 0.82765 0.18879 0.83432 0.0
C1881 C 0.83724 0.20927 0.86875 0.0
C1882 C 0.83761 0.18402 0.81646 0.0
C1883 C 0.86667 0.19395 0.81371 0.0
C1884 C 0.84688 0.20364 0.84956 0.0
C1885 C 0.88516 0.20878 0.8293 0.0
C1886 C 0.85665 0.22379 0.88396 0.0
C1887 C 0.79948 0.20555 0.88895 0.0
N1888 N 0.87496 0.21316 0.8465 0.0
N1889 N 0.80929 0.20056 0.87176 0.0
H1890 H 0.25416 0.13965 0.4717 0.0
H1891 H 0.37461 0.12814 0.53009 0.0
H1892 H 0.3087 0.1141 0.44388 0.0
H1893 H 0.33456 0.17229 0.55293 0.0
H1894 H 0.35063 0.12272 0.49842 0.0
H1895 H 0.28339 0.15198 0.50153 0.0
C1896 C 0.27251 0.13699 0.47173 0.0
C1897 C 0.27883 0.12562 0.45526 0.0
C1898 C 0.34724 0.13375 0.51032 0.0
C1899 C 0.31205 0.13916 0.48959 0.0
C1900 C 0.36103 0.13698 0.52841 0.0
C1901 C 0.35653 0.1506 0.5443 0.0
C1902 C 0.32858 0.14399 0.5081 0.0
C1903 C 0.33827 0.16117 0.54127 0.0
C1904 C 0.2891 0.14389 0.48884 0.0
C1905 C 0.30266 0.12226 0.45634 0.0
N1906 N 0.32483 0.15748 0.52358 0.0
N1907 N 0.31825 0.12878 0.47327 0.0
H1908 H 0.84864 0.12655 0.44194 0.0
H1909 H 0.88436 0.19277 0.55098 0.0
H1910 H 0.93377 0.17479 0.46437 0.0
H1911 H 0.7997 0.14514 0.52754 0.0
H1912 H 0.90311 0.18688 0.51944 0.0
H1913 H 0.83057 0.1339 0.47315 0.0
C1914 C 0.86354 0.13866 0.45347 0.0
C1915 C 0.89276 0.14993 0.45058 0.0
C1916 C 0.88044 0.17777 0.52119 0.0
C1917 C 0.8722 0.15862 0.48639 0.0
C1918 C 0.8697 0.18098 0.53924 0.0
C1919 C 0.84039 0.16944 0.54193 0.0
C1920 C 0.86173 0.16285 0.50572 0.0
C1921 C 0.82245 0.15471 0.52607 0.0
C1922 C 0.85322 0.14296 0.47127 0.0
C1923 C 0.9111 0.16589 0.46591 0.0
N1924 N 0.8334 0.1518 0.5087 0.0
N1925 N 0.90052 0.16965 0.4832 0.0
H1926 H 0.85339 0.77868 0.46722 0.0
H1927 H 0.83794 0.64929 0.52783 0.0
H1928 H 0.88676 0.72779 0.4464 0.0
H1929 H 0.82334 0.71119 0.55423 0.0
H1930 H 0.85425 0.67682 0.49743 0.0
H1931 H 0.84045 0.75329 0.4987 0.0
C1932 C 0.85798 0.76214 0.46928 0.0
C1933 C 0.87113 0.75531 0.45414 0.0
C1934 C 0.84763 0.68448 0.50989 0.0
C1935 C 0.85635 0.72613 0.49014 0.0
C1936 C 0.83818 0.66871 0.52722 0.0
C1937 C 0.82914 0.67789 0.54357 0.0
C1938 C 0.84776 0.70955 0.50875 0.0
C1939 C 0.83027 0.7034 0.54203 0.0
C1940 C 0.85074 0.74777 0.48729 0.0
C1941 C 0.87686 0.7339 0.45771 0.0
N1942 N 0.83917 0.71823 0.52488 0.0
N1943 N 0.86927 0.71996 0.47527 0.0
loop_
_geom_bond_atom_site_label_1
_geom_bond_atom_site_label_2
_geom_bond_distance
_geom_bond_site_symmetry_2
_ccdc_geom_bond_type
H0 C5 0.930 . S
H1 C8 0.930 . S
H2 C10 0.930 . S
H3 C4 1.016 . S
C4 H3 1.016 . S
C4 N11 1.286 . S
C5 H0 0.930 . S
C5 C6 1.397 . S
C5 C7 1.361 . S
C6 C5 1.397 . S
C6 C10 1.390 . S
C7 C5 1.361 . S
C7 C8 1.393 . S
C7 N11 1.413 . S
C8 H1 0.930 . S
C8 C7 1.393 . S
C8 C9 1.399 . S
C9 C8 1.399 . S
C9 C10 1.381 . S
C10 H2 0.930 . S
C10 C6 1.390 . S
C10 C9 1.381 . S
N11 C4 1.286 . S
N11 C7 1.413 . S
H12 C17 0.930 . S
H13 C20 0.930 . S
H14 C22 0.930 . S
H15 C16 1.016 . S
C16 H15 1.016 . S
C16 N23 1.286 . S
C17 H12 0.930 . S
C17 C18 1.397 . S
C17 C19 1.361 . S
C18 C17 1.397 . S
C18 C22 1.390 . S
C19 C17 1.361 . S
C19 C20 1.393 . S
C19 N23 1.413 . S
C20 H13 0.930 . S
C20 C19 1.393 . S
C20 C21 1.399 . S
C21 C20 1.399 . S
C21 C22 1.381 . S
C22 H14 0.930 . S
C22 C18 1.390 . S
C22 C21 1.381 . S
N23 C16 1.286 . S
N23 C19 1.413 . S
H24 C29 0.930 . S
H25 C32 0.930 . S
H26 C34 0.930 . S
H27 C28 1.016 . S
C28 H27 1.016 . S
C28 N35 1.286 . S
C29 H24 0.930 . S
C29 C30 1.397 . S
C29 C31 1.361 . S
C30 C29 1.397 . S
C30 C34 1.390 . S
C31 C29 1.361 . S
C31 C32 1.393 . S
C31 N35 1.413 . S
C32 H25 0.930 . S
C32 C31 1.393 . S
C32 C33 1.399 . S
C33 C32 1.399 . S
C33 C34 1.381 . S
C34 H26 0.930 . S
C34 C30 1.390 . S
C34 C33 1.381 . S
N35 C28 1.286 . S
N35 C31 1.413 . S
H36 C41 0.930 . S
H37 C44 0.930 . S
H38 C46 0.930 . S
H39 C40 1.016 . S
C40 H39 1.016 . S
C40 N47 1.286 . S
C41 H36 0.930 . S
C41 C42 1.397 . S
C41 C43 1.361 . S
C42 C41 1.397 . S
C42 C46 1.390 . S
C43 C41 1.361 . S
C43 C44 1.393 . S
C43 N47 1.413 . S
C44 H37 0.930 . S
C44 C43 1.393 . S
C44 C45 1.399 . S
C45 C44 1.399 . S
C45 C46 1.381 . S
C46 H38 0.930 . S
C46 C42 1.390 . S
C46 C45 1.381 . S
N47 C40 1.286 . S
N47 C43 1.413 . S
H48 C53 0.930 . S
H49 C56 0.930 . S
H50 C58 0.930 . S
H51 C52 1.016 . S
C52 H51 1.016 . S
C52 N59 1.286 . S
C53 H48 0.930 . S
C53 C54 1.397 . S
C53 C55 1.361 . S
C54 C53 1.397 . S
C54 C58 1.390 . S
C55 C53 1.361 . S
C55 C56 1.393 . S
C55 N59 1.413 . S
C56 H49 0.930 . S
C56 C55 1.393 . S
C56 C57 1.399 . S
C57 C56 1.399 . S
C57 C58 1.381 . S
C58 H50 0.930 . S
C58 C54 1.390 . S
C58 C57 1.381 . S
N59 C52 1.286 . S
N59 C55 1.413 . S
H60 C65 0.930 . S
H61 C68 0.930 . S
H62 C70 0.930 . S
H63 C64 1.016 . S
C64 H63 1.016 . S
C64 N71 1.286 . S
C65 H60 0.930 . S
C65 C66 1.397 . S
C65 C67 1.361 . S
C66 C65 1.397 . S
C66 C70 1.390 . S
C67 C65 1.361 . S
C67 C68 1.393 . S
C67 N71 1.413 . S
C68 H61 0.930 . S
C68 C67 1.393 . S
C68 C69 1.399 . S
C69 C68 1.399 . S
C69 C70 1.381 . S
C70 H62 0.930 . S
C70 C66 1.390 . S
C70 C69 1.381 . S
N71 C64 1.286 . S
N71 C67 1.413 . S
H72 C77 0.930 . S
H73 C80 0.930 . S
H74 C82 0.930 . S
H75 C76 1.016 . S
C76 H75 1.016 . S
C76 N83 1.286 . S
C77 H72 0.930 . S
C77 C78 1.397 . S
C77 C79 1.361 . S
C78 C77 1.397 . S
C78 C82 1.390 . S
C79 C77 1.361 . S
C79 C80 1.393 . S
C79 N83 1.413 . S
C80 H73 0.930 . S
C80 C79 1.393 . S
C80 C81 1.399 . S
C81 C80 1.399 . S
C81 C82 1.381 . S
C82 H74 0.930 . S
C82 C78 1.390 . S
C82 C81 1.381 . S
N83 C76 1.286 . S
N83 C79 1.413 . S
H84 C89 0.930 . S
H85 C92 0.930 . S
H86 C94 0.930 . S
H87 C88 1.016 . S
C88 H87 1.016 . S
C88 N95 1.286 . S
C89 H84 0.930 . S
C89 C90 1.397 . S
C89 C91 1.361 . S
C90 C89 1.397 . S
C90 C94 1.390 . S
C91 C89 1.361 . S
C91 C92 1.393 . S
C91 N95 1.413 . S
C92 H85 0.930 . S
C92 C91 1.393 . S
C92 C93 1.399 . S
C93 C92 1.399 . S
C93 C94 1.381 . S
C94 H86 0.930 . S
C94 C90 1.390 . S
C94 C93 1.381 . S
N95 C88 1.286 . S
N95 C91 1.413 . S
H96 C101 0.930 . S
H97 C104 0.930 . S
H98 C106 0.930 . S
H99 C100 1.016 . S
C100 H99 1.016 . S
C100 N107 1.286 . S
C101 H96 0.930 . S
C101 C102 1.397 . S
C101 C103 1.361 . S
C102 C101 1.397 . S
C102 C106 1.390 . S
C103 C101 1.361 . S
C103 C104 1.393 . S
C103 N107 1.413 . S
C104 H97 0.930 . S
C104 C103 1.393 . S
C104 C105 1.399 . S
C105 C104 1.399 . S
C105 C106 1.381 . S
C106 H98 0.930 . S
C106 C102 1.390 . S
C106 C105 1.381 . S
N107 C100 1.286 . S
N107 C103 1.413 . S
H108 C113 0.930 . S
H109 C116 0.930 . S
H110 C118 0.930 . S
H111 C112 1.016 . S
C112 H111 1.016 . S
C112 N119 1.286 . S
C113 H108 0.930 . S
C113 C114 1.397 . S
C113 C115 1.361 . S
C114 C113 1.397 . S
C114 C118 1.390 . S
C115 C113 1.361 . S
C115 C116 1.393 . S
C115 N119 1.413 . S
C116 H109 0.930 . S
C116 C115 1.393 . S
C116 C117 1.399 . S
C117 C116 1.399 . S
C117 C118 1.381 . S
C118 H110 0.930 . S
C118 C114 1.390 . S
C118 C117 1.381 . S
N119 C112 1.286 . S
N119 C115 1.413 . S
H120 C125 0.930 . S
H121 C128 0.930 . S
H122 C130 0.930 . S
H123 C124 1.016 . S
C124 H123 1.016 . S
C124 N131 1.286 . S
C125 H120 0.930 . S
C125 C126 1.397 . S
C125 C127 1.361 . S
C126 C125 1.397 . S
C126 C130 1.390 . S
C127 C125 1.361 . S
C127 C128 1.393 . S
C127 N131 1.413 . S
C128 H121 0.930 . S
C128 C127 1.393 . S
C128 C129 1.399 . S
C129 C128 1.399 . S
C129 C130 1.381 . S
C130 H122 0.930 . S
C130 C126 1.390 . S
C130 C129 1.381 . S
N131 C124 1.286 . S
N131 C127 1.413 . S
H132 C137 0.930 . S
H133 C140 0.930 . S
H134 C142 0.930 . S
H135 C136 1.016 . S
C136 H135 1.016 . S
C136 N143 1.286 . S
C137 H132 0.930 . S
C137 C138 1.397 . S
C137 C139 1.361 . S
C138 C137 1.397 . S
C138 C142 1.390 . S
C139 C137 1.361 . S
C139 C140 1.393 . S
C139 N143 1.413 . S
C140 H133 0.930 . S
C140 C139 1.393 . S
C140 C141 1.399 . S
C141 C140 1.399 . S
C141 C142 1.381 . S
C142 H134 0.930 . S
C142 C138 1.390 . S
C142 C141 1.381 . S
N143 C136 1.286 . S
N143 C139 1.413 . S
H144 C149 0.930 . S
H145 C152 0.930 . S
H146 C154 0.930 . S
H147 C148 1.016 . S
C148 H147 1.016 . S
C148 N155 1.286 . S
C149 H144 0.930 . S
C149 C150 1.397 . S
C149 C151 1.361 . S
C150 C149 1.397 . S
C150 C154 1.390 . S
C151 C149 1.361 . S
C151 C152 1.393 . S
C151 N155 1.413 . S
C152 H145 0.930 . S
C152 C151 1.393 . S
C152 C153 1.399 . S
C153 C152 1.399 . S
C153 C154 1.381 . S
C154 H146 0.930 . S
C154 C150 1.390 . S
C154 C153 1.381 . S
N155 C148 1.286 . S
N155 C151 1.413 . S
H156 C161 0.930 . S
H157 C164 0.930 . S
H158 C166 0.930 . S
H159 C160 1.016 . S
C160 H159 1.016 . S
C160 N167 1.286 . S
C161 H156 0.930 . S
C161 C162 1.397 . S
C161 C163 1.361 . S
C162 C161 1.397 . S
C162 C166 1.390 . S
C163 C161 1.361 . S
C163 C164 1.393 . S
C163 N167 1.413 . S
C164 H157 0.930 . S
C164 C163 1.393 . S
C164 C165 1.399 . S
C165 C164 1.399 . S
C165 C166 1.381 . S
C166 H158 0.930 . S
C166 C162 1.390 . S
C166 C165 1.381 . S
N167 C160 1.286 . S
N167 C163 1.413 . S
H168 C173 0.930 . S
H169 C176 0.930 . S
H170 C178 0.930 . S
H171 C172 1.016 . S
C172 H171 1.016 . S
C172 N179 1.286 . S
C173 H168 0.930 . S
C173 C174 1.397 . S
C173 C175 1.361 . S
C174 C173 1.397 . S
C174 C178 1.390 . S
C175 C173 1.361 . S
C175 C176 1.393 . S
C175 N179 1.413 . S
C176 H169 0.930 . S
C176 C175 1.393 . S
C176 C177 1.399 . S
C177 C176 1.399 . S
C177 C178 1.381 . S
C178 H170 0.930 . S
C178 C174 1.390 . S
C178 C177 1.381 . S
N179 C172 1.286 . S
N179 C175 1.413 . S
H180 C185 0.930 . S
H181 C188 0.930 . S
H182 C190 0.930 . S
H183 C184 1.016 . S
C184 H183 1.016 . S
C184 N191 1.286 . S
C185 H180 0.930 . S
C185 C186 1.397 . S
C185 C187 1.361 . S
C186 C185 1.397 . S
C186 C190 1.390 . S
C187 C185 1.361 . S
C187 C188 1.393 . S
C187 N191 1.413 . S
C188 H181 0.930 . S
C188 C187 1.393 . S
C188 C189 1.399 . S
C189 C188 1.399 . S
C189 C190 1.381 . S
C190 H182 0.930 . S
C190 C186 1.390 . S
C190 C189 1.381 . S
N191 C184 1.286 . S
N191 C187 1.413 . S
H192 C197 0.930 . S
H193 C200 0.930 . S
H194 C202 0.930 . S
H195 C196 1.016 . S
C196 H195 1.016 . S
C196 N203 1.286 . S
C197 H192 0.930 . S
C197 C198 1.397 . S
C197 C199 1.361 . S
C198 C197 1.397 . S
C198 C202 1.390 . S
C199 C197 1.361 . S
C199 C200 1.393 . S
C199 N203 1.413 . S
C200 H193 0.930 . S
C200 C199 1.393 . S
C200 C201 1.399 . S
C201 C200 1.399 . S
C201 C202 1.381 . S
C202 H194 0.930 . S
C202 C198 1.390 . S
C202 C201 1.381 . S
N203 C196 1.286 . S
N203 C199 1.413 . S
H204 C209 0.930 . S
H205 C212 0.930 . S
H206 C214 0.930 . S
H207 C208 1.016 . S
C208 H207 1.016 . S
C208 N215 1.286 . S
C209 H204 0.930 . S
C209 C210 1.397 . S
C209 C211 1.361 . S
C210 C209 1.397 . S
C210 C214 1.390 . S
C211 C209 1.361 . S
C211 C212 1.393 . S
C211 N215 1.413 . S
C212 H205 0.930 . S
C212 C211 1.393 . S
C212 C213 1.399 . S
C213 C212 1.399 . S
C213 C214 1.381 . S
C214 H206 0.930 . S
C214 C210 1.390 . S
C214 C213 1.381 . S
N215 C208 1.286 . S
N215 C211 1.413 . S
Eu216 N247 2.657 . S
Eu216 N254 2.609 . S
Eu216 O260 2.558 . S
Eu216 O261 2.612 1_566 S
Eu216 O263 2.339 1_565 S
Eu216 O264 2.563 1_565 S
Eu216 O265 2.419 1_565 S
Eu216 O267 2.380 1_556 S
Eu216 O268 2.429 . S
Eu216 C280 2.847 1_565 S
C217 C220 1.429 . S
C217 C221 1.411 . S
C217 N224 1.377 . S
C218 C220 1.420 . S
C218 C222 1.423 . S
C218 C230 1.392 . S
C219 C221 1.420 . S
C219 C222 1.351 . S
C219 H242 0.931 . S
C220 C217 1.429 . S
C220 C218 1.420 . S
C220 N228 1.362 . S
C221 C217 1.411 . S
C221 C219 1.420 . S
C221 C226 1.395 . S
C222 C218 1.423 . S
C222 C219 1.351 . S
C222 H234 0.930 . S
C223 C225 1.400 . S
C223 C226 1.386 . S
C223 H235 0.930 . S
N224 C217 1.377 . S
N224 C225 1.321 . S
N224 Eu227 2.609 . S
C225 C223 1.400 . S
C225 N224 1.321 . S
C225 H232 0.930 . S
C226 C221 1.395 . S
C226 C223 1.386 . S
C226 H245 0.930 . S
Eu227 N224 2.609 . S
Eu227 N228 2.657 . S
Eu227 O261 2.380 . S
Eu227 O262 2.432 . S
Eu227 O266 2.558 . S
Eu227 O267 2.612 1_545 S
Eu227 O269 2.339 1_545 S
Eu227 O270 2.563 1_545 S
Eu227 O271 2.419 1_545 S
Eu227 C291 2.848 . S
N228 C220 1.362 . S
N228 Eu227 2.657 . S
N228 C229 1.334 . S
C229 N228 1.334 . S
C229 C231 1.413 . S
C229 H236 0.929 . S
C230 C218 1.392 . S
C230 C231 1.367 . S
C230 H238 0.930 . S
C231 C229 1.413 . S
C231 C230 1.367 . S
C231 H233 0.930 . S
H232 C225 0.930 . S
H233 C231 0.930 . S
H234 C222 0.930 . S
H235 C223 0.930 . S
H236 C229 0.929 . S
H237 C251 0.930 . S
H238 C230 0.930 . S
H239 C257 0.930 . S
H240 C248 0.929 . S
H241 C255 0.930 . S
H242 C219 0.931 . S
H243 C249 0.930 . S
H244 C282 0.930 . S
H245 C226 0.930 . S
H246 C281 0.931 . S
N247 Eu216 2.657 . S
N247 C248 1.334 . S
N247 C252 1.362 . S
C248 H240 0.929 . S
C248 N247 1.334 . S
C248 C251 1.413 . S
C249 H243 0.930 . S
C249 C250 1.392 . S
C249 C251 1.367 . S
C250 C249 1.392 . S
C250 C252 1.420 . S
C250 C282 1.423 . S
C251 H237 0.930 . S
C251 C248 1.413 . S
C251 C249 1.367 . S
C252 N247 1.362 . S
C252 C250 1.420 . S
C252 C256 1.429 . S
H253 C258 0.930 . S
N254 Eu216 2.609 . S
N254 C256 1.377 . S
N254 C257 1.321 . S
C255 H241 0.930 . S
C255 C257 1.400 . S
C255 C258 1.386 . S
C256 C252 1.429 . S
C256 N254 1.377 . S
C256 C259 1.411 . S
C257 H239 0.930 . S
C257 N254 1.321 . S
C257 C255 1.400 . S
C258 H253 0.930 . S
C258 C255 1.386 . S
C258 C259 1.395 . S
C259 C256 1.411 . S
C259 C258 1.395 . S
C259 C281 1.420 . S
O260 Eu216 2.558 . S
O260 C280 1.244 1_565 S
O261 Eu216 2.612 1_544 S
O261 Eu227 2.380 . S
O261 C272 1.276 1_554 S
O262 Eu227 2.432 . S
O262 C279 1.264 . S
O263 Eu216 2.339 1_545 S
O263 C279 1.254 1_556 S
O264 Eu216 2.563 1_545 S
O264 C272 1.235 . S
O265 Eu216 2.419 1_545 S
O265 C280 1.260 . S
O266 Eu227 2.558 . S
O266 C291 1.257 . S
O267 Eu216 2.380 1_554 S
O267 Eu227 2.612 1_565 S
O267 C283 1.276 . S
O268 Eu216 2.429 . S
O268 C290 1.270 1_556 S
O269 Eu227 2.339 1_565 S
O269 C290 1.254 . S
O270 Eu227 2.563 1_565 S
O270 C283 1.235 . S
O271 Eu227 2.419 1_565 S
O271 C291 1.249 1_565 S
C272 O261 1.276 1_556 S
C272 O264 1.235 . S
C273 C275 1.393 . S
C273 C277 1.395 1_545 S
C273 C280 1.494 . S
C274 C275 1.392 . S
C274 C276 1.386 . S
C275 C273 1.393 . S
C275 C274 1.392 . S
C275 H292 0.930 . S
C276 C274 1.386 . S
C276 C278 1.395 1_545 S
C276 H293 0.930 . S
C277 C273 1.395 1_565 S
C277 C278 1.379 . S
C277 H294 0.930 . S
C278 C276 1.395 1_565 S
C278 C277 1.379 . S
C278 H295 0.930 . S
C279 O262 1.264 . S
C279 O263 1.254 1_554 S
C280 Eu216 2.847 1_545 S
C280 O260 1.244 1_545 S
C280 O265 1.260 . S
C280 C273 1.494 . S
C281 H246 0.931 . S
C281 C259 1.420 . S
C281 C282 1.351 . S
C282 H244 0.930 . S
C282 C250 1.423 . S
C282 C281 1.351 . S
C283 O267 1.276 . S
C283 O270 1.235 . S
C284 C285 1.393 1_545 S
C284 C288 1.395 . S
C284 C291 1.492 . S
C285 C284 1.393 1_565 S
C285 C286 1.392 . S
C285 H296 0.930 . S
C286 C285 1.392 . S
C286 C287 1.386 . S
C287 C286 1.386 . S
C287 C289 1.395 1_565 S
C287 H297 0.930 . S
C288 C284 1.395 . S
C288 C289 1.379 . S
C288 H298 0.930 . S
C289 C287 1.395 1_545 S
C289 C288 1.379 . S
C289 H299 0.930 . S
C290 O268 1.270 1_554 S
C290 O269 1.254 . S
C291 Eu227 2.848 . S
C291 O266 1.257 . S
C291 O271 1.249 1_545 S
C291 C284 1.492 . S
H292 C275 0.930 . S
H293 C276 0.930 . S
H294 C277 0.930 . S
H295 C278 0.930 . S
H296 C285 0.930 . S
H297 C287 0.930 . S
H298 C288 0.930 . S
H299 C289 0.930 . S
Eu300 N331 2.657 . S
Eu300 N338 2.609 . S
Eu300 O344 2.558 . S
Eu300 O345 2.612 1_456 S
Eu300 O347 2.339 1_455 S
Eu300 O348 2.563 1_455 S
Eu300 O349 2.422 . S
Eu300 O351 2.380 1_556 S
Eu300 O352 2.403 1_556 S
Eu300 C364 2.848 . S
C301 C304 1.429 . S
C301 C305 1.411 . S
C301 N308 1.377 . S
C302 C304 1.420 . S
C302 C306 1.423 . S
C302 C314 1.392 . S
C303 C305 1.420 . S
C303 C306 1.351 . S
C303 H326 0.931 . S
C304 C301 1.429 . S
C304 C302 1.420 . S
C304 N312 1.362 . S
C305 C301 1.411 . S
C305 C303 1.420 . S
C305 C310 1.395 . S
C306 C302 1.423 . S
C306 C303 1.351 . S
C306 H318 0.930 . S
C307 C309 1.400 . S
C307 C310 1.386 . S
C307 H319 0.930 . S
N308 C301 1.377 . S
N308 C309 1.321 . S
N308 Eu311 2.609 . S
C309 C307 1.400 . S
C309 N308 1.321 . S
C309 H316 0.930 . S
C310 C305 1.395 . S
C310 C307 1.386 . S
C310 H329 0.930 . S
Eu311 N308 2.609 . S
Eu311 N312 2.657 . S
Eu311 O345 2.380 . S
Eu311 O346 2.432 . S
Eu311 O350 2.558 . S
Eu311 O351 2.612 1_655 S
Eu311 O353 2.339 1_655 S
Eu311 O354 2.563 1_655 S
Eu311 O355 2.419 1_655 S
Eu311 C375 2.848 . S
N312 C304 1.362 . S
N312 Eu311 2.657 . S
N312 C313 1.334 . S
C313 N312 1.334 . S
C313 C315 1.413 . S
C313 H320 0.929 . S
C314 C302 1.392 . S
C314 C315 1.367 . S
C314 H322 0.930 . S
C315 C313 1.413 . S
C315 C314 1.367 . S
C315 H317 0.930 . S
H316 C309 0.930 . S
H317 C315 0.930 . S
H318 C306 0.930 . S
H319 C307 0.930 . S
H320 C313 0.929 . S
H321 C335 0.930 . S
H322 C314 0.930 . S
H323 C341 0.930 . S
H324 C332 0.929 . S
H325 C339 0.930 . S
H326 C303 0.931 . S
H327 C333 0.930 . S
H328 C366 0.930 . S
H329 C310 0.930 . S
H330 C365 0.931 . S
N331 Eu300 2.657 . S
N331 C332 1.334 . S
N331 C336 1.362 . S
C332 H324 0.929 . S
C332 N331 1.334 . S
C332 C335 1.413 . S
C333 H327 0.930 . S
C333 C334 1.392 . S
C333 C335 1.367 . S
C334 C333 1.392 . S
C334 C336 1.420 . S
C334 C366 1.423 . S
C335 H321 0.930 . S
C335 C332 1.413 . S
C335 C333 1.367 . S
C336 N331 1.362 . S
C336 C334 1.420 . S
C336 C340 1.429 . S
H337 C342 0.930 . S
N338 Eu300 2.609 . S
N338 C340 1.377 . S
N338 C341 1.321 . S
C339 H325 0.930 . S
C339 C341 1.400 . S
C339 C342 1.386 . S
C340 C336 1.429 . S
C340 N338 1.377 . S
C340 C343 1.411 . S
C341 H323 0.930 . S
C341 N338 1.321 . S
C341 C339 1.400 . S
C342 H337 0.930 . S
C342 C339 1.386 . S
C342 C343 1.395 . S
C343 C340 1.411 . S
C343 C342 1.395 . S
C343 C365 1.420 . S
O344 Eu300 2.558 . S
O344 C364 1.257 . S
O345 Eu300 2.612 1_654 S
O345 Eu311 2.380 . S
O345 C356 1.276 1_554 S
O346 Eu311 2.432 . S
O346 C363 1.264 . S
O347 Eu300 2.339 1_655 S
O347 C363 1.254 1_556 S
O348 Eu300 2.563 1_655 S
O348 C356 1.235 . S
O349 Eu300 2.422 . S
O349 C364 1.248 . S
O350 Eu311 2.558 . S
O350 C375 1.257 . S
O351 Eu300 2.380 1_554 S
O351 Eu311 2.612 1_455 S
O351 C367 1.276 . S
O352 Eu300 2.403 1_554 S
O352 C374 1.323 . S
O353 Eu311 2.339 1_455 S
O353 C374 1.254 . S
O354 Eu311 2.563 1_455 S
O354 C367 1.235 . S
O355 Eu311 2.419 1_455 S
O355 C375 1.249 1_455 S
C356 O345 1.276 1_556 S
C356 O348 1.235 . S
C357 C359 1.393 1_455 S
C357 C361 1.395 . S
C357 C364 1.492 . S
C358 C359 1.392 . S
C358 C360 1.386 . S
C359 C357 1.393 1_655 S
C359 C358 1.392 . S
C359 H376 0.930 . S
C360 C358 1.386 . S
C360 C362 1.395 1_655 S
C360 H377 0.930 . S
C361 C357 1.395 . S
C361 C362 1.379 . S
C361 H378 0.930 . S
C362 C360 1.395 1_455 S
C362 C361 1.379 . S
C362 H379 0.930 . S
C363 O346 1.264 . S
C363 O347 1.254 1_554 S
C364 Eu300 2.848 . S
C364 O344 1.257 . S
C364 O349 1.248 . S
C364 C357 1.492 . S
C365 H330 0.931 . S
C365 C343 1.420 . S
C365 C366 1.351 . S
C366 H328 0.930 . S
C366 C334 1.423 . S
C366 C365 1.351 . S
C367 O351 1.276 . S
C367 O354 1.235 . S
C368 C369 1.393 . S
C368 C372 1.395 1_455 S
C368 C375 1.492 1_455 S
C369 C368 1.393 . S
C369 C370 1.392 . S
C369 H380 0.930 . S
C370 C369 1.392 . S
C370 C371 1.386 . S
C371 C370 1.386 . S
C371 C373 1.395 1_455 S
C371 H381 0.930 . S
C372 C368 1.395 1_655 S
C372 C373 1.379 . S
C372 H382 0.930 . S
C373 C371 1.395 1_655 S
C373 C372 1.379 . S
C373 H383 0.930 . S
C374 O352 1.323 . S
C374 O353 1.254 . S
C375 Eu311 2.848 . S
C375 O350 1.257 . S
C375 O355 1.249 1_655 S
C375 C368 1.492 1_655 S
H376 C359 0.930 . S
H377 C360 0.930 . S
H378 C361 0.930 . S
H379 C362 0.930 . S
H380 C369 0.930 . S
H381 C371 0.930 . S
H382 C372 0.930 . S
H383 C373 0.930 . S
Eu384 N415 2.657 . S
Eu384 N422 2.609 . S
Eu384 O428 2.558 . S
Eu384 O429 2.612 . S
Eu384 O431 2.339 . S
Eu384 O432 2.563 . S
Eu384 O433 2.419 . S
Eu384 O435 2.380 . S
Eu384 O436 2.432 . S
Eu384 C448 2.848 . S
C385 C388 1.429 . S
C385 C389 1.411 . S
C385 N392 1.377 . S
C386 C388 1.420 . S
C386 C390 1.423 . S
C386 C398 1.392 . S
C387 C389 1.420 . S
C387 C390 1.351 . S
C387 H410 0.931 . S
C388 C385 1.429 . S
C388 C386 1.420 . S
C388 N396 1.362 . S
C389 C385 1.411 . S
C389 C387 1.420 . S
C389 C394 1.395 . S
C390 C386 1.423 . S
C390 C387 1.351 . S
C390 H402 0.930 . S
C391 C393 1.400 . S
C391 C394 1.386 . S
C391 H403 0.930 . S
N392 C385 1.377 . S
N392 C393 1.321 . S
N392 Eu395 2.609 . S
C393 C391 1.400 . S
C393 N392 1.321 . S
C393 H400 0.930 . S
C394 C389 1.395 . S
C394 C391 1.386 . S
C394 H413 0.930 . S
Eu395 N392 2.609 . S
Eu395 N396 2.657 . S
Eu395 O429 2.380 1_556 S
Eu395 O430 2.432 1_556 S
Eu395 O434 2.558 . S
Eu395 O435 2.612 1_556 S
Eu395 O437 2.339 . S
Eu395 O438 2.563 . S
Eu395 O439 2.419 . S
Eu395 C459 2.848 . S
N396 C388 1.362 . S
N396 Eu395 2.657 . S
N396 C397 1.334 . S
C397 N396 1.334 . S
C397 C399 1.413 . S
C397 H404 0.929 . S
C398 C386 1.392 . S
C398 C399 1.367 . S
C398 H406 0.930 . S
C399 C397 1.413 . S
C399 C398 1.367 . S
C399 H401 0.930 . S
H400 C393 0.930 . S
H401 C399 0.930 . S
H402 C390 0.930 . S
H403 C391 0.930 . S
H404 C397 0.929 . S
H405 C419 0.930 . S
H406 C398 0.930 . S
H407 C425 0.930 . S
H408 C416 0.929 . S
H409 C423 0.930 . S
H410 C387 0.931 . S
H411 C417 0.930 . S
H412 C450 0.930 . S
H413 C394 0.930 . S
H414 C449 0.931 . S
N415 Eu384 2.657 . S
N415 C416 1.334 . S
N415 C420 1.362 . S
C416 H408 0.929 . S
C416 N415 1.334 . S
C416 C419 1.413 . S
C417 H411 0.930 . S
C417 C418 1.392 . S
C417 C419 1.367 . S
C418 C417 1.392 . S
C418 C420 1.420 . S
C418 C450 1.423 . S
C419 H405 0.930 . S
C419 C416 1.413 . S
C419 C417 1.367 . S
C420 N415 1.362 . S
C420 C418 1.420 . S
C420 C424 1.429 . S
H421 C426 0.930 . S
N422 Eu384 2.609 . S
N422 C424 1.377 . S
N422 C425 1.321 . S
C423 H409 0.930 . S
C423 C425 1.400 . S
C423 C426 1.386 . S
C424 C420 1.429 . S
C424 N422 1.377 . S
C424 C427 1.411 . S
C425 H407 0.930 . S
C425 N422 1.321 . S
C425 C423 1.400 . S
C426 H421 0.930 . S
C426 C423 1.386 . S
C426 C427 1.395 . S
C427 C424 1.411 . S
C427 C426 1.395 . S
C427 C449 1.420 . S
O428 Eu384 2.558 . S
O428 C448 1.257 . S
O429 Eu384 2.612 . S
O429 Eu395 2.380 1_554 S
O429 C440 1.276 . S
O430 Eu395 2.432 1_554 S
O430 C447 1.264 . S
O431 Eu384 2.339 . S
O431 C447 1.254 . S
O432 Eu384 2.563 . S
O432 C440 1.235 . S
O433 Eu384 2.419 . S
O433 C448 1.249 . S
O434 Eu395 2.558 . S
O434 C459 1.257 . S
O435 Eu384 2.380 . S
O435 Eu395 2.612 1_554 S
O435 C451 1.276 1_554 S
O436 Eu384 2.432 . S
O436 C458 1.264 . S
O437 Eu395 2.339 . S
O437 C458 1.254 1_556 S
O438 Eu395 2.563 . S
O438 C451 1.235 . S
O439 Eu395 2.419 . S
O439 C459 1.249 . S
C440 O429 1.276 . S
C440 O432 1.235 . S
C441 C443 1.393 . S
C441 C445 1.395 . S
C441 C448 1.492 . S
C442 C443 1.392 . S
C442 C444 1.386 . S
C443 C441 1.393 . S
C443 C442 1.392 . S
C443 H460 0.930 . S
C444 C442 1.386 . S
C444 C446 1.395 . S
C444 H461 0.930 . S
C445 C441 1.395 . S
C445 C446 1.379 . S
C445 H462 0.930 . S
C446 C444 1.395 . S
C446 C445 1.379 . S
C446 H463 0.930 . S
C447 O430 1.264 . S
C447 O431 1.254 . S
C448 Eu384 2.848 . S
C448 O428 1.257 . S
C448 O433 1.249 . S
C448 C441 1.492 . S
C449 H414 0.931 . S
C449 C427 1.420 . S
C449 C450 1.351 . S
C450 H412 0.930 . S
C450 C418 1.423 . S
C450 C449 1.351 . S
C451 O435 1.276 1_556 S
C451 O438 1.235 . S
C452 C453 1.393 . S
C452 C456 1.395 . S
C452 C459 1.492 . S
C453 C452 1.393 . S
C453 C454 1.392 . S
C453 H464 0.930 . S
C454 C453 1.392 . S
C454 C455 1.386 . S
C455 C454 1.386 . S
C455 C457 1.395 . S
C455 H465 0.930 . S
C456 C452 1.395 . S
C456 C457 1.379 . S
C456 H466 0.930 . S
C457 C455 1.395 . S
C457 C456 1.379 . S
C457 H467 0.930 . S
C458 O436 1.264 . S
C458 O437 1.254 1_554 S
C459 Eu395 2.848 . S
C459 O434 1.257 . S
C459 O439 1.249 . S
C459 C452 1.492 . S
H460 C443 0.930 . S
H461 C444 0.930 . S
H462 C445 0.930 . S
H463 C446 0.930 . S
H464 C453 0.930 . S
H465 C455 0.930 . S
H466 C456 0.930 . S
H467 C457 0.930 . S
Eu468 N499 2.657 . S
Eu468 N506 2.609 . S
Eu468 O512 2.558 . S
Eu468 O513 2.612 . S
Eu468 O515 2.339 . S
Eu468 O516 2.563 . S
Eu468 O517 2.419 . S
Eu468 O519 2.380 . S
Eu468 O520 2.432 . S
Eu468 C532 2.848 . S
C469 C472 1.429 . S
C469 C473 1.411 . S
C469 N476 1.377 . S
C470 C472 1.420 . S
C470 C474 1.423 . S
C470 C482 1.392 . S
C471 C473 1.420 . S
C471 C474 1.351 . S
C471 H494 0.931 . S
C472 C469 1.429 . S
C472 C470 1.420 . S
C472 N480 1.362 . S
C473 C469 1.411 . S
C473 C471 1.420 . S
C473 C478 1.395 . S
C474 C470 1.423 . S
C474 C471 1.351 . S
C474 H486 0.930 . S
C475 C477 1.400 . S
C475 C478 1.386 . S
C475 H487 0.930 . S
N476 C469 1.377 . S
N476 C477 1.321 . S
N476 Eu479 2.609 . S
C477 C475 1.400 . S
C477 N476 1.321 . S
C477 H484 0.930 . S
C478 C473 1.395 . S
C478 C475 1.386 . S
C478 H497 0.930 . S
Eu479 N476 2.609 . S
Eu479 N480 2.657 . S
Eu479 O513 2.380 . S
Eu479 O514 2.432 . S
Eu479 O518 2.558 . S
Eu479 O519 2.612 . S
Eu479 O521 2.339 . S
Eu479 O522 2.563 . S
Eu479 O523 2.419 . S
Eu479 C543 2.848 . S
N480 C472 1.362 . S
N480 Eu479 2.657 . S
N480 C481 1.334 . S
C481 N480 1.334 . S
C481 C483 1.413 . S
C481 H488 0.929 . S
C482 C470 1.392 . S
C482 C483 1.367 . S
C482 H490 0.930 . S
C483 C481 1.413 . S
C483 C482 1.367 . S
C483 H485 0.930 . S
H484 C477 0.930 . S
H485 C483 0.930 . S
H486 C474 0.930 . S
H487 C475 0.930 . S
H488 C481 0.929 . S
H489 C503 0.930 . S
H490 C482 0.930 . S
H491 C509 0.930 . S
H492 C500 0.929 . S
H493 C507 0.930 . S
H494 C471 0.931 . S
H495 C501 0.930 1_655 S
H496 C534 0.932 1_655 S
H497 C478 0.930 . S
H498 C533 0.931 . S
N499 Eu468 2.657 . S
N499 C500 1.334 . S
N499 C504 1.362 . S
C500 H492 0.929 . S
C500 N499 1.334 . S
C500 C503 1.413 . S
C501 H495 0.930 1_455 S
C501 C502 1.392 . S
C501 C503 1.367 . S
C502 C501 1.392 . S
C502 C504 1.420 . S
C502 C534 1.423 . S
C503 H489 0.930 . S
C503 C500 1.413 . S
C503 C501 1.367 . S
C504 N499 1.362 . S
C504 C502 1.420 . S
C504 C508 1.429 . S
H505 C510 0.930 . S
N506 Eu468 2.609 . S
N506 C508 1.377 . S
N506 C509 1.321 . S
C507 H493 0.930 . S
C507 C509 1.400 . S
C507 C510 1.386 . S
C508 C504 1.429 . S
C508 N506 1.377 . S
C508 C511 1.411 . S
C509 H491 0.930 . S
C509 N506 1.321 . S
C509 C507 1.400 . S
C510 H505 0.930 . S
C510 C507 1.386 . S
C510 C511 1.395 . S
C511 C508 1.411 . S
C511 C510 1.395 . S
C511 C533 1.420 . S
O512 Eu468 2.558 . S
O512 C532 1.257 . S
O513 Eu468 2.612 . S
O513 Eu479 2.380 . S
O513 C524 1.276 . S
O514 Eu479 2.432 . S
O514 C531 1.264 . S
O515 Eu468 2.339 . S
O515 C531 1.254 . S
O516 Eu468 2.563 . S
O516 C524 1.235 . S
O517 Eu468 2.419 . S
O517 C532 1.249 . S
O518 Eu479 2.558 . S
O518 C543 1.257 . S
O519 Eu468 2.380 . S
O519 Eu479 2.612 . S
O519 C535 1.276 . S
O520 Eu468 2.432 . S
O520 C542 1.264 . S
O521 Eu479 2.339 . S
O521 C542 1.254 . S
O522 Eu479 2.563 . S
O522 C535 1.235 . S
O523 Eu479 2.419 . S
O523 C543 1.249 . S
C524 O513 1.276 . S
C524 O516 1.235 . S
C525 C527 1.393 . S
C525 C529 1.395 . S
C525 C532 1.492 . S
C526 C527 1.392 . S
C526 C528 1.386 . S
C527 C525 1.393 . S
C527 C526 1.392 . S
C527 H544 0.930 . S
C528 C526 1.386 . S
C528 C530 1.395 . S
C528 H545 0.930 . S
C529 C525 1.395 . S
C529 C530 1.379 . S
C529 H546 0.930 . S
C530 C528 1.395 . S
C530 C529 1.379 . S
C530 H547 0.930 . S
C531 O514 1.264 . S
C531 O515 1.254 . S
C532 Eu468 2.848 . S
C532 O512 1.257 . S
C532 O517 1.249 . S
C532 C525 1.492 . S
C533 H498 0.931 . S
C533 C511 1.420 . S
C533 C534 1.351 . S
C534 H496 0.932 1_455 S
C534 C502 1.423 . S
C534 C533 1.351 . S
C535 O519 1.276 . S
C535 O522 1.235 . S
C536 C537 1.393 . S
C536 C540 1.395 . S
C536 C543 1.492 . S
C537 C536 1.393 . S
C537 C538 1.392 . S
C537 H548 0.930 . S
C538 C537 1.392 . S
C538 C539 1.386 . S
C539 C538 1.386 . S
C539 C541 1.395 . S
C539 H549 0.930 . S
C540 C536 1.395 . S
C540 C541 1.379 . S
C540 H550 0.930 . S
C541 C539 1.395 . S
C541 C540 1.379 . S
C541 H551 0.930 . S
C542 O520 1.264 . S
C542 O521 1.254 . S
C543 Eu479 2.848 . S
C543 O518 1.257 . S
C543 O523 1.249 . S
C543 C536 1.492 . S
H544 C527 0.930 . S
H545 C528 0.930 . S
H546 C529 0.930 . S
H547 C530 0.930 . S
H548 C537 0.930 . S
H549 C539 0.930 . S
H550 C540 0.930 . S
H551 C541 0.930 . S
Eu552 N583 2.657 . S
Eu552 N590 2.609 . S
Eu552 O596 2.558 . S
Eu552 O597 2.612 . S
Eu552 O599 2.339 . S
Eu552 O600 2.563 . S
Eu552 O601 2.419 . S
Eu552 O603 2.380 . S
Eu552 O604 2.432 . S
Eu552 C616 2.848 . S
C553 C556 1.429 . S
C553 C557 1.411 . S
C553 N560 1.377 . S
C554 C556 1.420 . S
C554 C558 1.423 . S
C554 C566 1.392 . S
C555 C557 1.420 . S
C555 C558 1.351 . S
C555 H578 0.931 . S
C556 C553 1.429 . S
C556 C554 1.420 . S
C556 N564 1.362 . S
C557 C553 1.411 . S
C557 C555 1.420 . S
C557 C562 1.395 . S
C558 C554 1.423 . S
C558 C555 1.351 . S
C558 H570 0.930 . S
C559 C561 1.400 . S
C559 C562 1.386 . S
C559 H571 0.930 . S
N560 C553 1.377 . S
N560 C561 1.321 . S
N560 Eu563 2.609 . S
C561 C559 1.400 . S
C561 N560 1.321 . S
C561 H568 0.930 . S
C562 C557 1.395 . S
C562 C559 1.386 . S
C562 H581 0.930 . S
Eu563 N560 2.609 . S
Eu563 N564 2.657 . S
Eu563 O597 2.380 . S
Eu563 O598 2.432 . S
Eu563 O602 2.558 . S
Eu563 O603 2.612 . S
Eu563 O605 2.339 . S
Eu563 O606 2.563 . S
Eu563 O607 2.419 . S
Eu563 C627 2.848 . S
N564 C556 1.362 . S
N564 Eu563 2.657 . S
N564 C565 1.334 . S
C565 N564 1.334 . S
C565 C567 1.413 . S
C565 H572 0.929 . S
C566 C554 1.392 . S
C566 C567 1.367 . S
C566 H574 0.930 . S
C567 C565 1.413 . S
C567 C566 1.367 . S
C567 H569 0.930 . S
H568 C561 0.930 . S
H569 C567 0.930 . S
H570 C558 0.930 . S
H571 C559 0.930 . S
H572 C565 0.929 . S
H573 C587 0.930 . S
H574 C566 0.930 . S
H575 C593 0.930 . S
H576 C584 0.929 . S
H577 C591 0.930 . S
H578 C555 0.931 . S
H579 C585 0.930 . S
H580 C618 0.930 . S
H581 C562 0.930 . S
H582 C617 0.931 . S
N583 Eu552 2.657 . S
N583 C584 1.334 . S
N583 C588 1.362 . S
C584 H576 0.929 . S
C584 N583 1.334 . S
C584 C587 1.413 . S
C585 H579 0.930 . S
C585 C586 1.392 . S
C585 C587 1.367 . S
C586 C585 1.392 . S
C586 C588 1.420 . S
C586 C618 1.423 . S
C587 H573 0.930 . S
C587 C584 1.413 . S
C587 C585 1.367 . S
C588 N583 1.362 . S
C588 C586 1.420 . S
C588 C592 1.429 . S
H589 C594 0.930 . S
N590 Eu552 2.609 . S
N590 C592 1.377 . S
N590 C593 1.321 . S
C591 H577 0.930 . S
C591 C593 1.400 . S
C591 C594 1.386 . S
C592 C588 1.429 . S
C592 N590 1.377 . S
C592 C595 1.411 . S
C593 H575 0.930 . S
C593 N590 1.321 . S
C593 C591 1.400 . S
C594 H589 0.930 . S
C594 C591 1.386 . S
C594 C595 1.395 . S
C595 C592 1.411 . S
C595 C594 1.395 . S
C595 C617 1.420 . S
O596 Eu552 2.558 . S
O596 C616 1.257 . S
O597 Eu552 2.612 . S
O597 Eu563 2.380 . S
O597 C608 1.276 . S
O598 Eu563 2.432 . S
O598 C615 1.264 . S
O599 Eu552 2.339 . S
O599 C615 1.254 . S
O600 Eu552 2.563 . S
O600 C608 1.235 . S
O601 Eu552 2.419 . S
O601 C616 1.249 . S
O602 Eu563 2.558 . S
O602 C627 1.257 . S
O603 Eu552 2.380 . S
O603 Eu563 2.612 . S
O603 C619 1.276 . S
O604 Eu552 2.432 . S
O604 C626 1.264 . S
O605 Eu563 2.339 . S
O605 C626 1.254 . S
O606 Eu563 2.563 . S
O606 C619 1.235 . S
O607 Eu563 2.419 . S
O607 C627 1.249 . S
C608 O597 1.276 . S
C608 O600 1.235 . S
C609 C611 1.393 . S
C609 C613 1.395 . S
C609 C616 1.492 . S
C610 C611 1.392 . S
C610 C612 1.386 . S
C611 C609 1.393 . S
C611 C610 1.392 . S
C611 H628 0.930 . S
C612 C610 1.386 . S
C612 C614 1.395 . S
C612 H629 0.930 . S
C613 C609 1.395 . S
C613 C614 1.379 . S
C613 H630 0.930 . S
C614 C612 1.395 . S
C614 C613 1.379 . S
C614 H631 0.930 . S
C615 O598 1.264 . S
C615 O599 1.254 . S
C616 Eu552 2.848 . S
C616 O596 1.257 . S
C616 O601 1.249 . S
C616 C609 1.492 . S
C617 H582 0.931 . S
C617 C595 1.420 . S
C617 C618 1.351 . S
C618 H580 0.930 . S
C618 C586 1.423 . S
C618 C617 1.351 . S
C619 O603 1.276 . S
C619 O606 1.235 . S
C620 C621 1.393 . S
C620 C624 1.395 . S
C620 C627 1.492 . S
C621 C620 1.393 . S
C621 C622 1.392 . S
C621 H632 0.930 . S
C622 C621 1.392 . S
C622 C623 1.386 . S
C623 C622 1.386 . S
C623 C625 1.395 . S
C623 H633 0.930 . S
C624 C620 1.395 . S
C624 C625 1.379 . S
C624 H634 0.930 . S
C625 C623 1.395 . S
C625 C624 1.379 . S
C625 H635 0.930 . S
C626 O604 1.264 . S
C626 O605 1.254 . S
C627 Eu563 2.848 . S
C627 O602 1.257 . S
C627 O607 1.249 . S
C627 C620 1.492 . S
H628 C611 0.930 . S
H629 C612 0.930 . S
H630 C613 0.930 . S
H631 C614 0.930 . S
H632 C621 0.930 . S
H633 C623 0.930 . S
H634 C624 0.930 . S
H635 C625 0.930 . S
Eu636 N667 2.657 . S
Eu636 N674 2.609 . S
Eu636 O680 2.558 . S
Eu636 O681 2.612 . S
Eu636 O683 2.339 . S
Eu636 O684 2.563 . S
Eu636 O685 2.419 . S
Eu636 O687 2.380 . S
Eu636 O688 2.432 . S
Eu636 C700 2.848 . S
C637 C640 1.429 . S
C637 C641 1.411 . S
C637 N644 1.377 . S
C638 C640 1.420 . S
C638 C642 1.423 . S
C638 C650 1.392 . S
C639 C641 1.420 . S
C639 C642 1.351 . S
C639 H662 0.931 . S
C640 C637 1.429 . S
C640 C638 1.420 . S
C640 N648 1.362 . S
C641 C637 1.411 . S
C641 C639 1.420 . S
C641 C646 1.395 . S
C642 C638 1.423 . S
C642 C639 1.351 . S
C642 H654 0.930 . S
C643 C645 1.400 . S
C643 C646 1.386 . S
C643 H655 0.930 . S
N644 C637 1.377 . S
N644 C645 1.321 . S
N644 Eu647 2.609 . S
C645 C643 1.400 . S
C645 N644 1.321 . S
C645 H652 0.930 . S
C646 C641 1.395 . S
C646 C643 1.386 . S
C646 H665 0.930 . S
Eu647 N644 2.609 . S
Eu647 N648 2.657 . S
Eu647 O681 2.380 . S
Eu647 O682 2.432 . S
Eu647 O686 2.558 . S
Eu647 O687 2.612 . S
Eu647 O689 2.339 . S
Eu647 O690 2.563 . S
Eu647 O691 2.419 . S
Eu647 C711 2.848 . S
N648 C640 1.362 . S
N648 Eu647 2.657 . S
N648 C649 1.334 . S
C649 N648 1.334 . S
C649 C651 1.413 . S
C649 H656 0.929 . S
C650 C638 1.392 . S
C650 C651 1.367 . S
C650 H658 0.930 . S
C651 C649 1.413 . S
C651 C650 1.367 . S
C651 H653 0.930 . S
H652 C645 0.930 . S
H653 C651 0.930 . S
H654 C642 0.930 . S
H655 C643 0.930 . S
H656 C649 0.929 . S
H657 C671 0.930 . S
H658 C650 0.930 . S
H659 C677 0.930 . S
H660 C668 0.929 . S
H661 C675 0.930 . S
H662 C639 0.931 . S
H663 C669 0.930 . S
H664 C702 0.930 . S
H665 C646 0.930 . S
H666 C701 0.931 . S
N667 Eu636 2.657 . S
N667 C668 1.334 . S
N667 C672 1.362 . S
C668 H660 0.929 . S
C668 N667 1.334 . S
C668 C671 1.413 . S
C669 H663 0.930 . S
C669 C670 1.392 . S
C669 C671 1.367 . S
C670 C669 1.392 . S
C670 C672 1.420 . S
C670 C702 1.423 . S
C671 H657 0.930 . S
C671 C668 1.413 . S
C671 C669 1.367 . S
C672 N667 1.362 . S
C672 C670 1.420 . S
C672 C676 1.429 . S
H673 C678 0.930 . S
N674 Eu636 2.609 . S
N674 C676 1.377 . S
N674 C677 1.321 . S
C675 H661 0.930 . S
C675 C677 1.400 . S
C675 C678 1.386 . S
C676 C672 1.429 . S
C676 N674 1.377 . S
C676 C679 1.411 . S
C677 H659 0.930 . S
C677 N674 1.321 . S
C677 C675 1.400 . S
C678 H673 0.930 . S
C678 C675 1.386 . S
C678 C679 1.395 . S
C679 C676 1.411 . S
C679 C678 1.395 . S
C679 C701 1.420 . S
O680 Eu636 2.558 . S
O680 C700 1.257 . S
O681 Eu636 2.612 . S
O681 Eu647 2.380 . S
O681 C692 1.276 . S
O682 Eu647 2.432 . S
O682 C699 1.264 . S
O683 Eu636 2.339 . S
O683 C699 1.254 . S
O684 Eu636 2.563 . S
O684 C692 1.235 . S
O685 Eu636 2.419 . S
O685 C700 1.249 . S
O686 Eu647 2.558 . S
O686 C711 1.257 . S
O687 Eu636 2.380 . S
O687 Eu647 2.612 . S
O687 C703 1.276 . S
O688 Eu636 2.432 . S
O688 C710 1.264 . S
O689 Eu647 2.339 . S
O689 C710 1.254 . S
O690 Eu647 2.563 . S
O690 C703 1.235 . S
O691 Eu647 2.419 . S
O691 C711 1.249 . S
C692 O681 1.276 . S
C692 O684 1.235 . S
C693 C695 1.393 . S
C693 C697 1.395 . S
C693 C700 1.492 . S
C694 C695 1.392 . S
C694 C696 1.386 . S
C695 C693 1.393 . S
C695 C694 1.392 . S
C695 H712 0.930 . S
C696 C694 1.386 . S
C696 C698 1.395 . S
C696 H713 0.930 . S
C697 C693 1.395 . S
C697 C698 1.379 . S
C697 H714 0.930 . S
C698 C696 1.395 . S
C698 C697 1.379 . S
C698 H715 0.930 . S
C699 O682 1.264 . S
C699 O683 1.254 . S
C700 Eu636 2.848 . S
C700 O680 1.257 . S
C700 O685 1.249 . S
C700 C693 1.492 . S
C701 H666 0.931 . S
C701 C679 1.420 . S
C701 C702 1.351 . S
C702 H664 0.930 . S
C702 C670 1.423 . S
C702 C701 1.351 . S
C703 O687 1.276 . S
C703 O690 1.235 . S
C704 C705 1.393 . S
C704 C708 1.395 . S
C704 C711 1.492 . S
C705 C704 1.393 . S
C705 C706 1.392 . S
C705 H716 0.930 . S
C706 C705 1.392 . S
C706 C707 1.386 . S
C707 C706 1.386 . S
C707 C709 1.395 . S
C707 H717 0.930 . S
C708 C704 1.395 . S
C708 C709 1.379 . S
C708 H718 0.930 . S
C709 C707 1.395 . S
C709 C708 1.379 . S
C709 H719 0.930 . S
C710 O688 1.264 . S
C710 O689 1.254 . S
C711 Eu647 2.848 . S
C711 O686 1.257 . S
C711 O691 1.249 . S
C711 C704 1.492 . S
H712 C695 0.930 . S
H713 C696 0.930 . S
H714 C697 0.930 . S
H715 C698 0.930 . S
H716 C705 0.930 . S
H717 C707 0.930 . S
H718 C708 0.930 . S
H719 C709 0.930 . S
Eu720 N751 2.657 . S
Eu720 N758 2.609 . S
Eu720 O764 2.558 . S
Eu720 O765 2.612 . S
Eu720 O767 2.339 . S
Eu720 O768 2.563 . S
Eu720 O769 2.419 . S
Eu720 O771 2.380 . S
Eu720 O772 2.432 . S
Eu720 C784 2.848 . S
C721 C724 1.429 . S
C721 C725 1.411 . S
C721 N728 1.377 . S
C722 C724 1.420 . S
C722 C726 1.423 . S
C722 C734 1.392 . S
C723 C725 1.420 . S
C723 C726 1.351 . S
C723 H746 0.931 . S
C724 C721 1.429 . S
C724 C722 1.420 . S
C724 N732 1.362 . S
C725 C721 1.411 . S
C725 C723 1.420 . S
C725 C730 1.395 . S
C726 C722 1.423 . S
C726 C723 1.351 . S
C726 H738 0.930 . S
C727 C729 1.400 . S
C727 C730 1.386 . S
C727 H739 0.930 . S
N728 C721 1.377 . S
N728 C729 1.321 . S
N728 Eu731 2.609 . S
C729 C727 1.400 . S
C729 N728 1.321 . S
C729 H736 0.930 . S
C730 C725 1.395 . S
C730 C727 1.386 . S
C730 H749 0.930 . S
Eu731 N728 2.609 . S
Eu731 N732 2.657 . S
Eu731 O765 2.380 . S
Eu731 O766 2.432 . S
Eu731 O770 2.558 . S
Eu731 O771 2.612 . S
Eu731 O773 2.339 . S
Eu731 O774 2.563 . S
Eu731 O775 2.419 . S
Eu731 C795 2.848 . S
N732 C724 1.362 . S
N732 Eu731 2.657 . S
N732 C733 1.334 . S
C733 N732 1.334 . S
C733 C735 1.413 . S
C733 H740 0.929 . S
C734 C722 1.392 . S
C734 C735 1.367 . S
C734 H742 0.930 . S
C735 C733 1.413 . S
C735 C734 1.367 . S
C735 H737 0.930 . S
H736 C729 0.930 . S
H737 C735 0.930 . S
H738 C726 0.930 . S
H739 C727 0.930 . S
H740 C733 0.929 . S
H741 C755 0.930 . S
H742 C734 0.930 . S
H743 C761 0.930 . S
H744 C752 0.929 . S
H745 C759 0.930 . S
H746 C723 0.931 . S
H747 C753 0.930 . S
H748 C786 0.930 . S
H749 C730 0.930 . S
H750 C785 0.931 . S
N751 Eu720 2.657 . S
N751 C752 1.334 . S
N751 C756 1.362 . S
C752 H744 0.929 . S
C752 N751 1.334 . S
C752 C755 1.413 . S
C753 H747 0.930 . S
C753 C754 1.392 . S
C753 C755 1.367 . S
C754 C753 1.392 . S
C754 C756 1.420 . S
C754 C786 1.423 . S
C755 H741 0.930 . S
C755 C752 1.413 . S
C755 C753 1.367 . S
C756 N751 1.362 . S
C756 C754 1.420 . S
C756 C760 1.429 . S
H757 C762 0.930 . S
N758 Eu720 2.609 . S
N758 C760 1.377 . S
N758 C761 1.321 . S
C759 H745 0.930 . S
C759 C761 1.400 . S
C759 C762 1.386 . S
C760 C756 1.429 . S
C760 N758 1.377 . S
C760 C763 1.411 . S
C761 H743 0.930 . S
C761 N758 1.321 . S
C761 C759 1.400 . S
C762 H757 0.930 . S
C762 C759 1.386 . S
C762 C763 1.395 . S
C763 C760 1.411 . S
C763 C762 1.395 . S
C763 C785 1.420 . S
O764 Eu720 2.558 . S
O764 C784 1.257 . S
O765 Eu720 2.612 . S
O765 Eu731 2.380 . S
O765 C776 1.276 . S
O766 Eu731 2.432 . S
O766 C783 1.264 . S
O767 Eu720 2.339 . S
O767 C783 1.254 . S
O768 Eu720 2.563 . S
O768 C776 1.235 . S
O769 Eu720 2.419 . S
O769 C784 1.249 . S
O770 Eu731 2.558 . S
O770 C795 1.257 . S
O771 Eu720 2.380 . S
O771 Eu731 2.612 . S
O771 C787 1.276 . S
O772 Eu720 2.432 . S
O772 C794 1.264 . S
O773 Eu731 2.339 . S
O773 C794 1.254 . S
O774 Eu731 2.563 . S
O774 C787 1.235 . S
O775 Eu731 2.419 . S
O775 C795 1.249 . S
C776 O765 1.276 . S
C776 O768 1.235 . S
C777 C779 1.393 . S
C777 C781 1.395 . S
C777 C784 1.492 . S
C778 C779 1.392 . S
C778 C780 1.386 . S
C779 C777 1.393 . S
C779 C778 1.392 . S
C779 H796 0.930 . S
C780 C778 1.386 . S
C780 C782 1.395 . S
C780 H797 0.930 . S
C781 C777 1.395 . S
C781 C782 1.379 . S
C781 H798 0.930 . S
C782 C780 1.395 . S
C782 C781 1.379 . S
C782 H799 0.930 . S
C783 O766 1.264 . S
C783 O767 1.254 . S
C784 Eu720 2.848 . S
C784 O764 1.257 . S
C784 O769 1.249 . S
C784 C777 1.492 . S
C785 H750 0.931 . S
C785 C763 1.420 . S
C785 C786 1.351 . S
C786 H748 0.930 . S
C786 C754 1.423 . S
C786 C785 1.351 . S
C787 O771 1.276 . S
C787 O774 1.235 . S
C788 C789 1.393 . S
C788 C792 1.395 . S
C788 C795 1.492 . S
C789 C788 1.393 . S
C789 C790 1.392 . S
C789 H800 0.930 . S
C790 C789 1.392 . S
C790 C791 1.386 . S
C791 C790 1.386 . S
C791 C793 1.395 . S
C791 H801 0.930 . S
C792 C788 1.395 . S
C792 C793 1.379 . S
C792 H802 0.930 . S
C793 C791 1.395 . S
C793 C792 1.379 . S
C793 H803 0.930 . S
C794 O772 1.264 . S
C794 O773 1.254 . S
C795 Eu731 2.848 . S
C795 O770 1.257 . S
C795 O775 1.249 . S
C795 C788 1.492 . S
H796 C779 0.930 . S
H797 C780 0.930 . S
H798 C781 0.930 . S
H799 C782 0.930 . S
H800 C789 0.930 . S
H801 C791 0.930 . S
H802 C792 0.930 . S
H803 C793 0.930 . S
Eu804 N835 2.657 . S
Eu804 N842 2.609 . S
Eu804 O848 2.558 . S
Eu804 O849 2.612 . S
Eu804 O851 2.339 . S
Eu804 O852 2.563 . S
Eu804 O853 2.419 . S
Eu804 O855 2.380 . S
Eu804 O856 2.432 . S
Eu804 C868 2.848 . S
C805 C808 1.429 . S
C805 C809 1.411 . S
C805 N812 1.377 . S
C806 C808 1.420 . S
C806 C810 1.423 . S
C806 C818 1.392 . S
C807 C809 1.420 . S
C807 C810 1.351 . S
C807 H830 0.931 . S
C808 C805 1.429 . S
C808 C806 1.420 . S
C808 N816 1.362 . S
C809 C805 1.411 . S
C809 C807 1.420 . S
C809 C814 1.395 . S
C810 C806 1.423 . S
C810 C807 1.351 . S
C810 H822 0.930 . S
C811 C813 1.400 . S
C811 C814 1.386 . S
C811 H823 0.930 . S
N812 C805 1.377 . S
N812 C813 1.321 . S
N812 Eu815 2.609 . S
C813 C811 1.400 . S
C813 N812 1.321 . S
C813 H820 0.930 . S
C814 C809 1.395 . S
C814 C811 1.386 . S
C814 H833 0.930 . S
Eu815 N812 2.609 . S
Eu815 N816 2.657 . S
Eu815 O849 2.380 . S
Eu815 O850 2.432 . S
Eu815 O854 2.558 . S
Eu815 O855 2.612 . S
Eu815 O857 2.339 . S
Eu815 O858 2.563 . S
Eu815 O859 2.419 . S
Eu815 C879 2.848 . S
N816 C808 1.362 . S
N816 Eu815 2.657 . S
N816 C817 1.334 . S
C817 N816 1.334 . S
C817 C819 1.413 . S
C817 H824 0.929 . S
C818 C806 1.392 . S
C818 C819 1.367 . S
C818 H826 0.930 . S
C819 C817 1.413 . S
C819 C818 1.367 . S
C819 H821 0.930 . S
H820 C813 0.930 . S
H821 C819 0.930 . S
H822 C810 0.930 . S
H823 C811 0.930 . S
H824 C817 0.929 . S
H825 C839 0.930 . S
H826 C818 0.930 . S
H827 C845 0.930 . S
H828 C836 0.929 . S
H829 C843 0.930 . S
H830 C807 0.931 . S
H831 C837 0.930 . S
H832 C870 0.930 . S
H833 C814 0.930 . S
H834 C869 0.931 . S
N835 Eu804 2.657 . S
N835 C836 1.334 . S
N835 C840 1.362 . S
C836 H828 0.929 . S
C836 N835 1.334 . S
C836 C839 1.413 . S
C837 H831 0.930 . S
C837 C838 1.392 . S
C837 C839 1.367 . S
C838 C837 1.392 . S
C838 C840 1.420 . S
C838 C870 1.423 . S
C839 H825 0.930 . S
C839 C836 1.413 . S
C839 C837 1.367 . S
C840 N835 1.362 . S
C840 C838 1.420 . S
C840 C844 1.429 . S
H841 C846 0.930 . S
N842 Eu804 2.609 . S
N842 C844 1.377 . S
N842 C845 1.321 . S
C843 H829 0.930 . S
C843 C845 1.400 . S
C843 C846 1.386 . S
C844 C840 1.429 . S
C844 N842 1.377 . S
C844 C847 1.411 . S
C845 H827 0.930 . S
C845 N842 1.321 . S
C845 C843 1.400 . S
C846 H841 0.930 . S
C846 C843 1.386 . S
C846 C847 1.395 . S
C847 C844 1.411 . S
C847 C846 1.395 . S
C847 C869 1.420 . S
O848 Eu804 2.558 . S
O848 C868 1.257 . S
O849 Eu804 2.612 . S
O849 Eu815 2.380 . S
O849 C860 1.276 . S
O850 Eu815 2.432 . S
O850 C867 1.264 . S
O851 Eu804 2.339 . S
O851 C867 1.254 . S
O852 Eu804 2.563 . S
O852 C860 1.235 . S
O853 Eu804 2.419 . S
O853 C868 1.249 . S
O854 Eu815 2.558 . S
O854 C879 1.257 . S
O855 Eu804 2.380 . S
O855 Eu815 2.612 . S
O855 C871 1.276 . S
O856 Eu804 2.432 . S
O856 C878 1.264 . S
O857 Eu815 2.339 . S
O857 C878 1.254 . S
O858 Eu815 2.563 . S
O858 C871 1.235 . S
O859 Eu815 2.419 . S
O859 C879 1.249 . S
C860 O849 1.276 . S
C860 O852 1.235 . S
C861 C863 1.393 . S
C861 C865 1.395 . S
C861 C868 1.492 . S
C862 C863 1.392 . S
C862 C864 1.386 . S
C863 C861 1.393 . S
C863 C862 1.392 . S
C863 H880 0.930 . S
C864 C862 1.386 . S
C864 C866 1.395 . S
C864 H881 0.930 . S
C865 C861 1.395 . S
C865 C866 1.379 . S
C865 H882 0.930 . S
C866 C864 1.395 . S
C866 C865 1.379 . S
C866 H883 0.930 . S
C867 O850 1.264 . S
C867 O851 1.254 . S
C868 Eu804 2.848 . S
C868 O848 1.257 . S
C868 O853 1.249 . S
C868 C861 1.492 . S
C869 H834 0.931 . S
C869 C847 1.420 . S
C869 C870 1.351 . S
C870 H832 0.930 . S
C870 C838 1.423 . S
C870 C869 1.351 . S
C871 O855 1.276 . S
C871 O858 1.235 . S
C872 C873 1.393 . S
C872 C876 1.395 . S
C872 C879 1.492 . S
C873 C872 1.393 . S
C873 C874 1.392 . S
C873 H884 0.930 . S
C874 C873 1.392 . S
C874 C875 1.386 . S
C875 C874 1.386 . S
C875 C877 1.395 . S
C875 H885 0.930 . S
C876 C872 1.395 . S
C876 C877 1.379 . S
C876 H886 0.930 . S
C877 C875 1.395 . S
C877 C876 1.379 . S
C877 H887 0.930 . S
C878 O856 1.264 . S
C878 O857 1.254 . S
C879 Eu815 2.848 . S
C879 O854 1.257 . S
C879 O859 1.249 . S
C879 C872 1.492 . S
H880 C863 0.930 . S
H881 C864 0.930 . S
H882 C865 0.930 . S
H883 C866 0.930 . S
H884 C873 0.930 . S
H885 C875 0.930 . S
H886 C876 0.930 . S
H887 C877 0.930 . S
Eu888 N919 2.657 . S
Eu888 N926 2.609 . S
Eu888 O932 2.558 . S
Eu888 O933 2.612 . S
Eu888 O935 2.339 . S
Eu888 O936 2.563 . S
Eu888 O937 2.419 . S
Eu888 O939 2.380 . S
Eu888 O940 2.432 . S
Eu888 C952 2.848 . S
C889 C892 1.429 . S
C889 C893 1.411 . S
C889 N896 1.377 . S
C890 C892 1.420 . S
C890 C894 1.423 . S
C890 C902 1.392 . S
C891 C893 1.420 . S
C891 C894 1.351 . S
C891 H914 0.931 . S
C892 C889 1.429 . S
C892 C890 1.420 . S
C892 N900 1.362 . S
C893 C889 1.411 . S
C893 C891 1.420 . S
C893 C898 1.395 . S
C894 C890 1.423 . S
C894 C891 1.351 . S
C894 H906 0.930 . S
C895 C897 1.400 . S
C895 C898 1.386 . S
C895 H907 0.930 . S
N896 C889 1.377 . S
N896 C897 1.321 . S
N896 Eu899 2.609 . S
C897 C895 1.400 . S
C897 N896 1.321 . S
C897 H904 0.930 . S
C898 C893 1.395 . S
C898 C895 1.386 . S
C898 H917 0.930 . S
Eu899 N896 2.609 . S
Eu899 N900 2.657 . S
Eu899 O933 2.380 . S
Eu899 O934 2.432 . S
Eu899 O938 2.558 . S
Eu899 O939 2.612 . S
Eu899 O941 2.339 . S
Eu899 O942 2.563 . S
Eu899 O943 2.419 . S
Eu899 C963 2.848 . S
N900 C892 1.362 . S
N900 Eu899 2.657 . S
N900 C901 1.334 . S
C901 N900 1.334 . S
C901 C903 1.413 . S
C901 H908 0.929 . S
C902 C890 1.392 . S
C902 C903 1.367 . S
C902 H910 0.930 . S
C903 C901 1.413 . S
C903 C902 1.367 . S
C903 H905 0.930 . S
H904 C897 0.930 . S
H905 C903 0.930 . S
H906 C894 0.930 . S
H907 C895 0.930 . S
H908 C901 0.929 . S
H909 C923 0.930 . S
H910 C902 0.930 . S
H911 C929 0.930 . S
H912 C920 0.929 . S
H913 C927 0.930 . S
H914 C891 0.931 . S
H915 C921 0.930 1_455 S
H916 C954 0.930 1_455 S
H917 C898 0.930 . S
H918 C953 0.931 . S
N919 Eu888 2.657 . S
N919 C920 1.334 . S
N919 C924 1.362 . S
C920 H912 0.929 . S
C920 N919 1.334 . S
C920 C923 1.413 . S
C921 H915 0.930 1_655 S
C921 C922 1.392 . S
C921 C923 1.367 . S
C922 C921 1.392 . S
C922 C924 1.420 . S
C922 C954 1.423 . S
C923 H909 0.930 . S
C923 C920 1.413 . S
C923 C921 1.367 . S
C924 N919 1.362 . S
C924 C922 1.420 . S
C924 C928 1.429 . S
H925 C930 0.930 . S
N926 Eu888 2.609 . S
N926 C928 1.377 . S
N926 C929 1.321 . S
C927 H913 0.930 . S
C927 C929 1.400 . S
C927 C930 1.386 . S
C928 C924 1.429 . S
C928 N926 1.377 . S
C928 C931 1.411 . S
C929 H911 0.930 . S
C929 N926 1.321 . S
C929 C927 1.400 . S
C930 H925 0.930 . S
C930 C927 1.386 . S
C930 C931 1.395 . S
C931 C928 1.411 . S
C931 C930 1.395 . S
C931 C953 1.420 . S
O932 Eu888 2.558 . S
O932 C952 1.257 . S
O933 Eu888 2.612 . S
O933 Eu899 2.380 . S
O933 C944 1.276 . S
O934 Eu899 2.432 . S
O934 C951 1.264 . S
O935 Eu888 2.339 . S
O935 C951 1.254 . S
O936 Eu888 2.563 . S
O936 C944 1.235 . S
O937 Eu888 2.419 . S
O937 C952 1.249 . S
O938 Eu899 2.558 . S
O938 C963 1.257 . S
O939 Eu888 2.380 . S
O939 Eu899 2.612 . S
O939 C955 1.276 . S
O940 Eu888 2.432 . S
O940 C962 1.264 . S
O941 Eu899 2.339 . S
O941 C962 1.254 . S
O942 Eu899 2.563 . S
O942 C955 1.235 . S
O943 Eu899 2.419 . S
O943 C963 1.249 . S
C944 O933 1.276 . S
C944 O936 1.235 . S
C945 C947 1.393 . S
C945 C949 1.395 . S
C945 C952 1.492 . S
C946 C947 1.392 . S
C946 C948 1.386 . S
C947 C945 1.393 . S
C947 C946 1.392 . S
C947 H964 0.930 . S
C948 C946 1.386 . S
C948 C950 1.395 . S
C948 H965 0.930 . S
C949 C945 1.395 . S
C949 C950 1.379 . S
C949 H966 0.930 . S
C950 C948 1.395 . S
C950 C949 1.379 . S
C950 H967 0.930 . S
C951 O934 1.264 . S
C951 O935 1.254 . S
C952 Eu888 2.848 . S
C952 O932 1.257 . S
C952 O937 1.249 . S
C952 C945 1.492 . S
C953 H918 0.931 . S
C953 C931 1.420 . S
C953 C954 1.351 . S
C954 H916 0.930 1_655 S
C954 C922 1.423 . S
C954 C953 1.351 . S
C955 O939 1.276 . S
C955 O942 1.235 . S
C956 C957 1.393 . S
C956 C960 1.395 . S
C956 C963 1.492 . S
C957 C956 1.393 . S
C957 C958 1.392 . S
C957 H968 0.930 . S
C958 C957 1.392 . S
C958 C959 1.386 . S
C959 C958 1.386 . S
C959 C961 1.395 . S
C959 H969 0.930 . S
C960 C956 1.395 . S
C960 C961 1.379 . S
C960 H970 0.930 . S
C961 C959 1.395 . S
C961 C960 1.379 . S
C961 H971 0.930 . S
C962 O940 1.264 . S
C962 O941 1.254 . S
C963 Eu899 2.848 . S
C963 O938 1.257 . S
C963 O943 1.249 . S
C963 C956 1.492 . S
H964 C947 0.930 . S
H965 C948 0.930 . S
H966 C949 0.930 . S
H967 C950 0.930 . S
H968 C957 0.930 . S
H969 C959 0.930 . S
H970 C960 0.930 . S
H971 C961 0.930 . S
H972 C978 0.930 . S
H973 C982 0.930 . S
H974 C987 0.929 . S
H975 C985 0.929 . S
H976 C980 0.929 . S
H977 C986 0.929 . S
C978 H972 0.930 . S
C978 C979 1.367 . S
C978 C986 1.378 . S
C979 C978 1.367 . S
C979 C987 1.433 . S
C980 H976 0.929 . S
C980 C982 1.378 . S
C980 C984 1.350 . S
C981 C984 1.463 . S
C981 C986 1.350 . S
C981 N989 1.427 . S
C982 H973 0.930 . S
C982 C980 1.378 . S
C982 C983 1.367 . S
C983 C982 1.367 . S
C983 C985 1.433 . S
C984 C980 1.350 . S
C984 C981 1.463 . S
C984 N988 1.427 . S
C985 H975 0.929 . S
C985 C983 1.433 . S
C985 N988 1.384 . S
C986 H977 0.929 . S
C986 C978 1.378 . S
C986 C981 1.350 . S
C987 H974 0.929 . S
C987 C979 1.433 . S
C987 N989 1.384 . S
N988 C984 1.427 . S
N988 C985 1.384 . S
N989 C981 1.427 . S
N989 C987 1.384 . S
H990 C996 0.930 . S
H991 C1000 0.930 . S
H992 C1005 0.929 . S
H993 C1003 0.929 . S
H994 C998 0.929 . S
H995 C1004 0.929 . S
C996 H990 0.930 . S
C996 C997 1.367 . S
C996 C1004 1.378 . S
C997 C996 1.367 . S
C997 C1005 1.433 . S
C998 H994 0.929 . S
C998 C1000 1.378 . S
C998 C1002 1.350 . S
C999 C1002 1.463 . S
C999 C1004 1.350 . S
C999 N1007 1.427 . S
C1000 H991 0.930 . S
C1000 C998 1.378 . S
C1000 C1001 1.367 . S
C1001 C1000 1.367 . S
C1001 C1003 1.433 . S
C1002 C998 1.350 . S
C1002 C999 1.463 . S
C1002 N1006 1.427 . S
C1003 H993 0.929 . S
C1003 C1001 1.433 . S
C1003 N1006 1.384 . S
C1004 H995 0.929 . S
C1004 C996 1.378 . S
C1004 C999 1.350 . S
C1005 H992 0.929 . S
C1005 C997 1.433 . S
C1005 N1007 1.384 . S
N1006 C1002 1.427 . S
N1006 C1003 1.384 . S
N1007 C999 1.427 . S
N1007 C1005 1.384 . S
H1008 C1014 0.930 . S
H1009 C1018 0.930 . S
H1010 C1023 0.929 . S
H1011 C1021 0.878 1_556 S
H1012 C1016 0.929 . S
H1013 C1022 0.929 . S
C1014 H1008 0.930 . S
C1014 C1015 1.367 . S
C1014 C1022 1.378 . S
C1015 C1014 1.367 . S
C1015 C1023 1.433 . S
C1016 H1012 0.929 . S
C1016 C1018 1.378 . S
C1016 C1020 1.350 . S
C1017 C1020 1.463 . S
C1017 C1022 1.350 . S
C1017 N1025 1.427 . S
C1018 H1009 0.930 . S
C1018 C1016 1.378 . S
C1018 C1019 1.367 . S
C1019 C1018 1.367 . S
C1019 C1021 1.433 . S
C1020 C1016 1.350 . S
C1020 C1017 1.463 . S
C1020 N1024 1.427 . S
C1021 H1011 0.878 1_554 S
C1021 C1019 1.433 . S
C1021 N1024 1.384 . S
C1022 H1013 0.929 . S
C1022 C1014 1.378 . S
C1022 C1017 1.350 . S
C1023 H1010 0.929 . S
C1023 C1015 1.433 . S
C1023 N1025 1.384 . S
N1024 C1020 1.427 . S
N1024 C1021 1.384 . S
N1025 C1017 1.427 . S
N1025 C1023 1.384 . S
H1026 C1032 0.930 . S
H1027 C1036 0.930 . S
H1028 C1041 0.929 . S
H1029 C1039 0.929 1_554 S
H1030 C1034 0.929 . S
H1031 C1040 0.929 . S
C1032 H1026 0.930 . S
C1032 C1033 1.367 . S
C1032 C1040 1.378 . S
C1033 C1032 1.367 . S
C1033 C1041 1.433 . S
C1034 H1030 0.929 . S
C1034 C1036 1.378 . S
C1034 C1038 1.350 . S
C1035 C1038 1.463 . S
C1035 C1040 1.350 . S
C1035 N1043 1.427 . S
C1036 H1027 0.930 . S
C1036 C1034 1.378 . S
C1036 C1037 1.367 . S
C1037 C1036 1.367 . S
C1037 C1039 1.433 . S
C1038 C1034 1.350 . S
C1038 C1035 1.463 . S
C1038 N1042 1.427 . S
C1039 H1029 0.929 1_556 S
C1039 C1037 1.433 . S
C1039 N1042 1.384 . S
C1040 H1031 0.929 . S
C1040 C1032 1.378 . S
C1040 C1035 1.350 . S
C1041 H1028 0.929 . S
C1041 C1033 1.433 . S
C1041 N1043 1.384 . S
N1042 C1038 1.427 . S
N1042 C1039 1.384 . S
N1043 C1035 1.427 . S
N1043 C1041 1.384 . S
H1044 C1050 0.930 . S
H1045 C1054 0.924 1_554 S
H1046 C1059 0.929 . S
H1047 C1057 0.929 . S
H1048 C1052 0.929 . S
H1049 C1058 0.929 . S
C1050 H1044 0.930 . S
C1050 C1051 1.367 . S
C1050 C1058 1.378 . S
C1051 C1050 1.367 . S
C1051 C1059 1.433 . S
C1052 H1048 0.929 . S
C1052 C1054 1.378 . S
C1052 C1056 1.350 . S
C1053 C1056 1.463 . S
C1053 C1058 1.350 . S
C1053 N1061 1.427 . S
C1054 H1045 0.924 1_556 S
C1054 C1052 1.378 . S
C1054 C1055 1.367 . S
C1055 C1054 1.367 . S
C1055 C1057 1.433 . S
C1056 C1052 1.350 . S
C1056 C1053 1.463 . S
C1056 N1060 1.427 . S
C1057 H1047 0.929 . S
C1057 C1055 1.433 . S
C1057 N1060 1.384 . S
C1058 H1049 0.929 . S
C1058 C1050 1.378 . S
C1058 C1053 1.350 . S
C1059 H1046 0.929 . S
C1059 C1051 1.433 . S
C1059 N1061 1.384 . S
N1060 C1056 1.427 . S
N1060 C1057 1.384 . S
N1061 C1053 1.427 . S
N1061 C1059 1.384 . S
H1062 C1068 0.930 . S
H1063 C1072 0.920 1_554 S
H1064 C1077 0.929 . S
H1065 C1075 0.929 . S
H1066 C1070 0.929 . S
H1067 C1076 0.929 . S
C1068 H1062 0.930 . S
C1068 C1069 1.367 . S
C1068 C1076 1.378 . S
C1069 C1068 1.367 . S
C1069 C1077 1.433 . S
C1070 H1066 0.929 . S
C1070 C1072 1.384 . S
C1070 C1074 1.350 . S
C1071 C1074 1.463 . S
C1071 C1076 1.350 . S
C1071 N1079 1.427 . S
C1072 H1063 0.920 1_556 S
C1072 C1070 1.384 . S
C1072 C1073 1.371 . S
C1073 C1072 1.371 . S
C1073 C1075 1.433 . S
C1074 C1070 1.350 . S
C1074 C1071 1.463 . S
C1074 N1078 1.427 . S
C1075 H1065 0.929 . S
C1075 C1073 1.433 . S
C1075 N1078 1.384 . S
C1076 H1067 0.929 . S
C1076 C1068 1.378 . S
C1076 C1071 1.350 . S
C1077 H1064 0.929 . S
C1077 C1069 1.433 . S
C1077 N1079 1.384 . S
N1078 C1074 1.427 . S
N1078 C1075 1.384 . S
N1079 C1071 1.427 . S
N1079 C1077 1.384 . S
H1080 C1086 0.930 . S
H1081 C1090 0.930 . S
H1082 C1095 0.929 . S
H1083 C1093 0.930 1_554 S
H1084 C1088 0.929 . S
H1085 C1094 0.929 . S
C1086 H1080 0.930 . S
C1086 C1087 1.367 . S
C1086 C1094 1.378 . S
C1087 C1086 1.367 . S
C1087 C1095 1.433 . S
C1088 H1084 0.929 . S
C1088 C1090 1.378 . S
C1088 C1092 1.350 . S
C1089 C1092 1.463 . S
C1089 C1094 1.350 . S
C1089 N1097 1.427 . S
C1090 H1081 0.930 . S
C1090 C1088 1.378 . S
C1090 C1091 1.367 . S
C1091 C1090 1.367 . S
C1091 C1093 1.433 . S
C1092 C1088 1.350 . S
C1092 C1089 1.463 . S
C1092 N1096 1.427 . S
C1093 H1083 0.930 1_556 S
C1093 C1091 1.433 . S
C1093 N1096 1.383 . S
C1094 H1085 0.929 . S
C1094 C1086 1.378 . S
C1094 C1089 1.350 . S
C1095 H1082 0.929 . S
C1095 C1087 1.433 . S
C1095 N1097 1.384 . S
N1096 C1092 1.427 . S
N1096 C1093 1.383 . S
N1097 C1089 1.427 . S
N1097 C1095 1.384 . S
H1098 C1104 0.930 . S
H1099 C1108 0.917 1_554 S
H1100 C1113 0.929 . S
H1101 C1111 0.929 . S
H1102 C1106 0.929 . S
H1103 C1112 0.929 . S
C1104 H1098 0.930 . S
C1104 C1105 1.367 . S
C1104 C1112 1.378 . S
C1105 C1104 1.367 . S
C1105 C1113 1.433 . S
C1106 H1102 0.929 . S
C1106 C1108 1.378 . S
C1106 C1110 1.350 . S
C1107 C1110 1.463 . S
C1107 C1112 1.350 . S
C1107 N1115 1.427 . S
C1108 H1099 0.917 1_556 S
C1108 C1106 1.378 . S
C1108 C1109 1.367 . S
C1109 C1108 1.367 . S
C1109 C1111 1.433 . S
C1110 C1106 1.350 . S
C1110 C1107 1.463 . S
C1110 N1114 1.427 . S
C1111 H1101 0.929 . S
C1111 C1109 1.433 . S
C1111 N1114 1.384 . S
C1112 H1103 0.929 . S
C1112 C1104 1.378 . S
C1112 C1107 1.350 . S
C1113 H1100 0.929 . S
C1113 C1105 1.433 . S
C1113 N1115 1.384 . S
N1114 C1110 1.427 . S
N1114 C1111 1.384 . S
N1115 C1107 1.427 . S
N1115 C1113 1.384 . S
H1116 C1122 0.930 . S
H1117 C1126 0.930 . S
H1118 C1131 0.929 1_554 S
H1119 C1129 0.929 . S
H1120 C1124 0.929 . S
H1121 C1130 0.929 . S
C1122 H1116 0.930 . S
C1122 C1123 1.367 . S
C1122 C1130 1.378 . S
C1123 C1122 1.367 . S
C1123 C1131 1.433 . S
C1124 H1120 0.929 . S
C1124 C1126 1.378 . S
C1124 C1128 1.350 1_554 S
C1125 C1128 1.463 . S
C1125 C1130 1.350 . S
C1125 N1133 1.427 . S
C1126 H1117 0.930 . S
C1126 C1124 1.378 . S
C1126 C1127 1.367 1_554 S
C1127 C1126 1.367 1_556 S
C1127 C1129 1.433 . S
C1128 C1124 1.350 1_556 S
C1128 C1125 1.463 . S
C1128 N1132 1.427 . S
C1129 H1119 0.929 . S
C1129 C1127 1.433 . S
C1129 N1132 1.384 . S
C1130 H1121 0.929 . S
C1130 C1122 1.378 . S
C1130 C1125 1.350 . S
C1131 H1118 0.929 1_556 S
C1131 C1123 1.433 . S
C1131 N1133 1.384 . S
N1132 C1128 1.427 . S
N1132 C1129 1.384 . S
N1133 C1125 1.427 . S
N1133 C1131 1.384 . S
H1134 C1140 0.930 . S
H1135 C1144 0.930 1_556 S
H1136 C1149 0.929 . S
H1137 C1147 0.929 . S
H1138 C1142 0.929 . S
H1139 C1148 0.929 . S
C1140 H1134 0.930 . S
C1140 C1141 1.367 . S
C1140 C1148 1.378 . S
C1141 C1140 1.367 . S
C1141 C1149 1.433 . S
C1142 H1138 0.929 . S
C1142 C1144 1.378 . S
C1142 C1146 1.350 . S
C1143 C1146 1.463 . S
C1143 C1148 1.350 . S
C1143 N1151 1.427 . S
C1144 H1135 0.930 1_554 S
C1144 C1142 1.378 . S
C1144 C1145 1.367 . S
C1145 C1144 1.367 . S
C1145 C1147 1.433 . S
C1146 C1142 1.350 . S
C1146 C1143 1.463 . S
C1146 N1150 1.427 . S
C1147 H1137 0.929 . S
C1147 C1145 1.433 . S
C1147 N1150 1.384 . S
C1148 H1139 0.929 . S
C1148 C1140 1.378 . S
C1148 C1143 1.350 . S
C1149 H1136 0.929 . S
C1149 C1141 1.433 . S
C1149 N1151 1.384 . S
N1150 C1146 1.427 . S
N1150 C1147 1.384 . S
N1151 C1143 1.427 . S
N1151 C1149 1.384 . S
H1152 C1158 0.930 . S
H1153 C1162 0.930 . S
H1154 C1167 0.929 . S
H1155 C1165 0.982 . S
H1156 C1160 0.929 . S
H1157 C1166 0.929 . S
C1158 H1152 0.930 . S
C1158 C1159 1.367 . S
C1158 C1166 1.378 . S
C1159 C1158 1.367 . S
C1159 C1167 1.433 . S
C1160 H1156 0.929 . S
C1160 C1162 1.378 . S
C1160 C1164 1.350 . S
C1161 C1164 1.463 . S
C1161 C1166 1.350 . S
C1161 N1169 1.427 . S
C1162 H1153 0.930 . S
C1162 C1160 1.378 . S
C1162 C1163 1.367 . S
C1163 C1162 1.367 . S
C1163 C1165 1.433 . S
C1164 C1160 1.350 . S
C1164 C1161 1.463 . S
C1164 N1168 1.427 . S
C1165 H1155 0.982 . S
C1165 C1163 1.433 . S
C1165 N1168 1.384 . S
C1166 H1157 0.929 . S
C1166 C1158 1.378 . S
C1166 C1161 1.350 . S
C1167 H1154 0.929 . S
C1167 C1159 1.433 . S
C1167 N1169 1.384 . S
N1168 C1164 1.427 . S
N1168 C1165 1.384 . S
N1169 C1161 1.427 . S
N1169 C1167 1.384 . S
H1170 C1176 0.930 . S
H1171 C1180 0.912 1_556 S
H1172 C1185 0.929 . S
H1173 C1183 0.929 . S
H1174 C1178 0.929 . S
H1175 C1184 0.929 . S
C1176 H1170 0.930 . S
C1176 C1177 1.367 . S
C1176 C1184 1.378 . S
C1177 C1176 1.367 . S
C1177 C1185 1.433 . S
C1178 H1174 0.929 . S
C1178 C1180 1.378 . S
C1178 C1182 1.350 . S
C1179 C1182 1.463 . S
C1179 C1184 1.350 . S
C1179 N1187 1.427 . S
C1180 H1171 0.912 1_554 S
C1180 C1178 1.378 . S
C1180 C1181 1.367 . S
C1181 C1180 1.367 . S
C1181 C1183 1.433 . S
C1182 C1178 1.350 . S
C1182 C1179 1.463 . S
C1182 N1186 1.427 . S
C1183 H1173 0.929 . S
C1183 C1181 1.433 . S
C1183 N1186 1.384 . S
C1184 H1175 0.929 . S
C1184 C1176 1.378 . S
C1184 C1179 1.350 . S
C1185 H1172 0.929 . S
C1185 C1177 1.433 . S
C1185 N1187 1.384 . S
N1186 C1182 1.427 . S
N1186 C1183 1.384 . S
N1187 C1179 1.427 . S
N1187 C1185 1.384 . S
H1188 C1194 0.930 . S
H1189 C1198 0.930 . S
H1190 C1203 0.929 . S
H1191 C1201 0.929 . S
H1192 C1196 0.929 . S
H1193 C1202 0.929 . S
C1194 H1188 0.930 . S
C1194 C1195 1.367 . S
C1194 C1202 1.378 . S
C1195 C1194 1.367 . S
C1195 C1203 1.433 . S
C1196 H1192 0.929 . S
C1196 C1198 1.378 . S
C1196 C1200 1.350 . S
C1197 C1200 1.463 1_655 S
C1197 C1202 1.350 . S
C1197 N1205 1.427 . S
C1198 H1189 0.930 . S
C1198 C1196 1.378 . S
C1198 C1199 1.367 . S
C1199 C1198 1.367 . S
C1199 C1201 1.433 . S
C1200 C1196 1.350 . S
C1200 C1197 1.463 1_455 S
C1200 N1204 1.427 . S
C1201 H1191 0.929 . S
C1201 C1199 1.433 . S
C1201 N1204 1.384 . S
C1202 H1193 0.929 . S
C1202 C1194 1.378 . S
C1202 C1197 1.350 . S
C1203 H1190 0.929 . S
C1203 C1195 1.433 . S
C1203 N1205 1.384 . S
N1204 C1200 1.427 . S
N1204 C1201 1.384 . S
N1205 C1197 1.427 . S
N1205 C1203 1.384 . S
H1206 C1212 0.930 . S
H1207 C1216 0.930 . S
H1208 C1221 0.929 . S
H1209 C1219 0.929 . S
H1210 C1214 0.929 . S
H1211 C1220 0.929 . S
C1212 H1206 0.930 . S
C1212 C1213 1.367 . S
C1212 C1220 1.378 . S
C1213 C1212 1.367 . S
C1213 C1221 1.433 . S
C1214 H1210 0.929 . S
C1214 C1216 1.378 . S
C1214 C1218 1.350 . S
C1215 C1218 1.463 . S
C1215 C1220 1.350 . S
C1215 N1223 1.427 . S
C1216 H1207 0.930 . S
C1216 C1214 1.378 . S
C1216 C1217 1.367 . S
C1217 C1216 1.367 . S
C1217 C1219 1.433 . S
C1218 C1214 1.350 . S
C1218 C1215 1.463 . S
C1218 N1222 1.427 . S
C1219 H1209 0.929 . S
C1219 C1217 1.433 . S
C1219 N1222 1.384 . S
C1220 H1211 0.929 . S
C1220 C1212 1.378 . S
C1220 C1215 1.350 . S
C1221 H1208 0.929 . S
C1221 C1213 1.433 . S
C1221 N1223 1.384 . S
N1222 C1218 1.427 . S
N1222 C1219 1.384 . S
N1223 C1215 1.427 . S
N1223 C1221 1.384 . S
H1224 C1230 0.930 . S
H1225 C1234 0.930 . S
H1226 C1239 0.929 . S
H1227 C1237 0.929 . S
H1228 C1232 0.929 . S
H1229 C1238 0.929 . S
C1230 H1224 0.930 . S
C1230 C1231 1.367 . S
C1230 C1238 1.378 . S
C1231 C1230 1.367 . S
C1231 C1239 1.433 . S
C1232 H1228 0.929 . S
C1232 C1234 1.378 . S
C1232 C1236 1.350 . S
C1233 C1236 1.463 1_545 S
C1233 C1238 1.350 . S
C1233 N1241 1.427 . S
C1234 H1225 0.930 . S
C1234 C1232 1.378 . S
C1234 C1235 1.367 . S
C1235 C1234 1.367 . S
C1235 C1237 1.433 . S
C1236 C1232 1.350 . S
C1236 C1233 1.463 1_565 S
C1236 N1240 1.427 . S
C1237 H1227 0.929 . S
C1237 C1235 1.433 . S
C1237 N1240 1.384 . S
C1238 H1229 0.929 . S
C1238 C1230 1.378 . S
C1238 C1233 1.350 . S
C1239 H1226 0.929 . S
C1239 C1231 1.433 . S
C1239 N1241 1.384 . S
N1240 C1236 1.427 . S
N1240 C1237 1.384 . S
N1241 C1233 1.427 . S
N1241 C1239 1.384 . S
H1242 C1248 0.930 . S
H1243 C1252 0.930 . S
H1244 C1257 0.929 . S
H1245 C1255 0.929 . S
H1246 C1250 0.929 . S
H1247 C1256 0.929 . S
C1248 H1242 0.930 . S
C1248 C1249 1.367 . S
C1248 C1256 1.378 . S
C1249 C1248 1.367 . S
C1249 C1257 1.433 . S
C1250 H1246 0.929 . S
C1250 C1252 1.378 . S
C1250 C1254 1.350 . S
C1251 C1254 1.463 . S
C1251 C1256 1.350 . S
C1251 N1259 1.427 . S
C1252 H1243 0.930 . S
C1252 C1250 1.378 . S
C1252 C1253 1.367 . S
C1253 C1252 1.367 . S
C1253 C1255 1.433 . S
C1254 C1250 1.350 . S
C1254 C1251 1.463 . S
C1254 N1258 1.427 . S
C1255 H1245 0.929 . S
C1255 C1253 1.433 . S
C1255 N1258 1.384 . S
C1256 H1247 0.929 . S
C1256 C1248 1.378 . S
C1256 C1251 1.350 . S
C1257 H1244 0.929 . S
C1257 C1249 1.433 . S
C1257 N1259 1.384 . S
N1258 C1254 1.427 . S
N1258 C1255 1.384 . S
N1259 C1251 1.427 . S
N1259 C1257 1.384 . S
H1260 C1266 0.930 . S
H1261 C1270 0.930 . S
H1262 C1275 0.929 . S
H1263 C1273 0.929 . S
H1264 C1268 0.929 . S
H1265 C1274 0.929 . S
C1266 H1260 0.930 . S
C1266 C1267 1.367 . S
C1266 C1274 1.378 . S
C1267 C1266 1.367 . S
C1267 C1275 1.433 . S
C1268 H1264 0.929 . S
C1268 C1270 1.378 . S
C1268 C1272 1.350 . S
C1269 C1272 1.463 . S
C1269 C1274 1.350 . S
C1269 N1277 1.427 . S
C1270 H1261 0.930 . S
C1270 C1268 1.378 . S
C1270 C1271 1.367 . S
C1271 C1270 1.367 . S
C1271 C1273 1.433 . S
C1272 C1268 1.350 . S
C1272 C1269 1.463 . S
C1272 N1276 1.427 . S
C1273 H1263 0.929 . S
C1273 C1271 1.433 . S
C1273 N1276 1.384 . S
C1274 H1265 0.929 . S
C1274 C1266 1.378 . S
C1274 C1269 1.350 . S
C1275 H1262 0.929 . S
C1275 C1267 1.433 . S
C1275 N1277 1.384 . S
N1276 C1272 1.427 . S
N1276 C1273 1.384 . S
N1277 C1269 1.427 . S
N1277 C1275 1.384 . S
H1278 C1284 0.930 . S
H1279 C1288 0.930 . S
H1280 C1293 0.929 . S
H1281 C1291 0.929 . S
H1282 C1286 0.929 . S
H1283 C1292 0.929 . S
C1284 H1278 0.930 . S
C1284 C1285 1.367 . S
C1284 C1292 1.378 . S
C1285 C1284 1.367 . S
C1285 C1293 1.433 . S
C1286 H1282 0.929 . S
C1286 C1288 1.378 . S
C1286 C1290 1.350 . S
C1287 C1290 1.463 . S
C1287 C1292 1.350 . S
C1287 N1295 1.427 . S
C1288 H1279 0.930 . S
C1288 C1286 1.378 . S
C1288 C1289 1.367 . S
C1289 C1288 1.367 . S
C1289 C1291 1.433 . S
C1290 C1286 1.350 . S
C1290 C1287 1.463 . S
C1290 N1294 1.427 . S
C1291 H1281 0.929 . S
C1291 C1289 1.433 . S
C1291 N1294 1.384 . S
C1292 H1283 0.929 . S
C1292 C1284 1.378 . S
C1292 C1287 1.350 . S
C1293 H1280 0.929 . S
C1293 C1285 1.433 . S
C1293 N1295 1.384 . S
N1294 C1290 1.427 . S
N1294 C1291 1.384 . S
N1295 C1287 1.427 . S
N1295 C1293 1.384 . S
H1296 C1302 0.930 . S
H1297 C1306 0.930 . S
H1298 C1311 0.929 . S
H1299 C1309 0.929 . S
H1300 C1304 0.929 . S
H1301 C1310 0.929 . S
C1302 H1296 0.930 . S
C1302 C1303 1.367 . S
C1302 C1310 1.378 . S
C1303 C1302 1.367 . S
C1303 C1311 1.433 . S
C1304 H1300 0.929 . S
C1304 C1306 1.378 . S
C1304 C1308 1.350 . S
C1305 C1308 1.463 . S
C1305 C1310 1.350 . S
C1305 N1313 1.427 . S
C1306 H1297 0.930 . S
C1306 C1304 1.378 . S
C1306 C1307 1.367 . S
C1307 C1306 1.367 . S
C1307 C1309 1.433 . S
C1308 C1304 1.350 . S
C1308 C1305 1.463 . S
C1308 N1312 1.427 . S
C1309 H1299 0.929 . S
C1309 C1307 1.433 . S
C1309 N1312 1.384 . S
C1310 H1301 0.929 . S
C1310 C1302 1.378 . S
C1310 C1305 1.350 . S
C1311 H1298 0.929 . S
C1311 C1303 1.433 . S
C1311 N1313 1.384 . S
N1312 C1308 1.427 . S
N1312 C1309 1.384 . S
N1313 C1305 1.427 . S
N1313 C1311 1.384 . S
H1314 C1320 0.930 . S
H1315 C1324 0.930 . S
H1316 C1329 0.929 . S
H1317 C1327 0.929 . S
H1318 C1322 0.929 . S
H1319 C1328 0.929 . S
C1320 H1314 0.930 . S
C1320 C1321 1.367 . S
C1320 C1328 1.378 . S
C1321 C1320 1.367 . S
C1321 C1329 1.433 . S
C1322 H1318 0.929 . S
C1322 C1324 1.378 . S
C1322 C1326 1.350 . S
C1323 C1326 1.463 . S
C1323 C1328 1.350 . S
C1323 N1331 1.427 . S
C1324 H1315 0.930 . S
C1324 C1322 1.378 . S
C1324 C1325 1.367 . S
C1325 C1324 1.367 . S
C1325 C1327 1.433 . S
C1326 C1322 1.350 . S
C1326 C1323 1.463 . S
C1326 N1330 1.427 . S
C1327 H1317 0.929 . S
C1327 C1325 1.433 . S
C1327 N1330 1.384 . S
C1328 H1319 0.929 . S
C1328 C1320 1.378 . S
C1328 C1323 1.350 . S
C1329 H1316 0.929 . S
C1329 C1321 1.433 . S
C1329 N1331 1.384 . S
N1330 C1326 1.427 . S
N1330 C1327 1.384 . S
N1331 C1323 1.427 . S
N1331 C1329 1.384 . S
H1332 C1338 0.930 . S
H1333 C1342 0.930 . S
H1334 C1347 0.929 . S
H1335 C1345 0.929 . S
H1336 C1340 0.929 . S
H1337 C1346 0.929 . S
C1338 H1332 0.930 . S
C1338 C1339 1.367 . S
C1338 C1346 1.378 . S
C1339 C1338 1.367 . S
C1339 C1347 1.433 . S
C1340 H1336 0.929 . S
C1340 C1342 1.378 . S
C1340 C1344 1.350 . S
C1341 C1344 1.463 . S
C1341 C1346 1.350 . S
C1341 N1349 1.427 . S
C1342 H1333 0.930 . S
C1342 C1340 1.378 . S
C1342 C1343 1.367 . S
C1343 C1342 1.367 . S
C1343 C1345 1.433 . S
C1344 C1340 1.350 . S
C1344 C1341 1.463 . S
C1344 N1348 1.427 . S
C1345 H1335 0.929 . S
C1345 C1343 1.433 . S
C1345 N1348 1.384 . S
C1346 H1337 0.929 . S
C1346 C1338 1.378 . S
C1346 C1341 1.350 . S
C1347 H1334 0.929 . S
C1347 C1339 1.433 . S
C1347 N1349 1.384 . S
N1348 C1344 1.427 . S
N1348 C1345 1.384 . S
N1349 C1341 1.427 . S
N1349 C1347 1.384 . S
H1350 C1356 0.930 . S
H1351 C1360 0.930 . S
H1352 C1365 0.929 . S
H1353 C1363 0.929 . S
H1354 C1358 0.929 . S
H1355 C1364 0.929 . S
C1356 H1350 0.930 . S
C1356 C1357 1.367 . S
C1356 C1364 1.378 1_545 S
C1357 C1356 1.367 . S
C1357 C1365 1.433 . S
C1358 H1354 0.929 . S
C1358 C1360 1.378 . S
C1358 C1362 1.350 . S
C1359 C1362 1.463 . S
C1359 C1364 1.350 . S
C1359 N1367 1.427 . S
C1360 H1351 0.930 . S
C1360 C1358 1.378 . S
C1360 C1361 1.367 . S
C1361 C1360 1.367 . S
C1361 C1363 1.433 . S
C1362 C1358 1.350 . S
C1362 C1359 1.463 . S
C1362 N1366 1.427 . S
C1363 H1353 0.929 . S
C1363 C1361 1.433 . S
C1363 N1366 1.384 . S
C1364 H1355 0.929 . S
C1364 C1356 1.378 1_565 S
C1364 C1359 1.350 . S
C1365 H1352 0.929 . S
C1365 C1357 1.433 . S
C1365 N1367 1.384 1_545 S
N1366 C1362 1.427 . S
N1366 C1363 1.384 . S
N1367 C1359 1.427 . S
N1367 C1365 1.384 1_565 S
H1368 C1374 0.930 . S
H1369 C1378 0.930 . S
H1370 C1383 0.929 1_655 S
H1371 C1381 0.929 . S
H1372 C1376 0.929 . S
H1373 C1382 0.929 . S
C1374 H1368 0.930 . S
C1374 C1375 1.367 1_455 S
C1374 C1382 1.378 . S
C1375 C1374 1.367 1_655 S
C1375 C1383 1.433 1_655 S
C1376 H1372 0.929 . S
C1376 C1378 1.378 . S
C1376 C1380 1.350 . S
C1377 C1380 1.463 . S
C1377 C1382 1.350 . S
C1377 N1385 1.427 . S
C1378 H1369 0.930 . S
C1378 C1376 1.378 . S
C1378 C1379 1.367 . S
C1379 C1378 1.367 . S
C1379 C1381 1.433 . S
C1380 C1376 1.350 . S
C1380 C1377 1.463 . S
C1380 N1384 1.427 . S
C1381 H1371 0.929 . S
C1381 C1379 1.433 . S
C1381 N1384 1.384 . S
C1382 H1373 0.929 . S
C1382 C1374 1.378 . S
C1382 C1377 1.350 . S
C1383 H1370 0.929 1_455 S
C1383 C1375 1.433 1_455 S
C1383 N1385 1.384 . S
N1384 C1380 1.427 . S
N1384 C1381 1.384 . S
N1385 C1377 1.427 . S
N1385 C1383 1.384 . S
H1386 C1392 0.930 . S
H1387 C1396 0.930 . S
H1388 C1401 0.929 . S
H1389 C1399 0.929 . S
H1390 C1394 0.929 . S
H1391 C1400 0.929 . S
C1392 H1386 0.930 . S
C1392 C1393 1.367 . S
C1392 C1400 1.378 . S
C1393 C1392 1.367 . S
C1393 C1401 1.433 . S
C1394 H1390 0.929 . S
C1394 C1396 1.378 . S
C1394 C1398 1.350 . S
C1395 C1398 1.463 . S
C1395 C1400 1.350 . S
C1395 N1403 1.427 . S
C1396 H1387 0.930 . S
C1396 C1394 1.378 . S
C1396 C1397 1.367 . S
C1397 C1396 1.367 . S
C1397 C1399 1.433 . S
C1398 C1394 1.350 . S
C1398 C1395 1.463 . S
C1398 N1402 1.427 . S
C1399 H1389 0.929 . S
C1399 C1397 1.433 . S
C1399 N1402 1.384 . S
C1400 H1391 0.929 . S
C1400 C1392 1.378 . S
C1400 C1395 1.350 . S
C1401 H1388 0.929 . S
C1401 C1393 1.433 . S
C1401 N1403 1.384 . S
N1402 C1398 1.427 . S
N1402 C1399 1.384 . S
N1403 C1395 1.427 . S
N1403 C1401 1.384 . S
H1404 C1410 0.930 . S
H1405 C1414 0.930 . S
H1406 C1419 0.929 . S
H1407 C1417 0.929 . S
H1408 C1412 0.929 . S
H1409 C1418 0.929 . S
C1410 H1404 0.930 . S
C1410 C1411 1.367 . S
C1410 C1418 1.378 . S
C1411 C1410 1.367 . S
C1411 C1419 1.433 . S
C1412 H1408 0.929 . S
C1412 C1414 1.378 . S
C1412 C1416 1.350 . S
C1413 C1416 1.463 . S
C1413 C1418 1.350 . S
C1413 N1421 1.427 . S
C1414 H1405 0.930 . S
C1414 C1412 1.378 . S
C1414 C1415 1.367 . S
C1415 C1414 1.367 . S
C1415 C1417 1.433 . S
C1416 C1412 1.350 . S
C1416 C1413 1.463 . S
C1416 N1420 1.427 . S
C1417 H1407 0.929 . S
C1417 C1415 1.433 . S
C1417 N1420 1.384 . S
C1418 H1409 0.929 . S
C1418 C1410 1.378 . S
C1418 C1413 1.350 . S
C1419 H1406 0.929 . S
C1419 C1411 1.433 . S
C1419 N1421 1.384 . S
N1420 C1416 1.427 . S
N1420 C1417 1.384 . S
N1421 C1413 1.427 . S
N1421 C1419 1.384 . S
H1422 C1428 0.930 . S
H1423 C1432 0.930 . S
H1424 C1437 0.929 . S
H1425 C1435 0.929 . S
H1426 C1430 0.929 . S
H1427 C1436 0.929 . S
C1428 H1422 0.930 . S
C1428 C1429 1.367 . S
C1428 C1436 1.378 . S
C1429 C1428 1.367 . S
C1429 C1437 1.433 . S
C1430 H1426 0.929 . S
C1430 C1432 1.378 . S
C1430 C1434 1.350 . S
C1431 C1434 1.463 . S
C1431 C1436 1.350 . S
C1431 N1439 1.427 . S
C1432 H1423 0.930 . S
C1432 C1430 1.378 . S
C1432 C1433 1.367 . S
C1433 C1432 1.367 . S
C1433 C1435 1.433 . S
C1434 C1430 1.350 . S
C1434 C1431 1.463 . S
C1434 N1438 1.427 . S
C1435 H1425 0.929 . S
C1435 C1433 1.433 . S
C1435 N1438 1.384 . S
C1436 H1427 0.929 . S
C1436 C1428 1.378 . S
C1436 C1431 1.350 . S
C1437 H1424 0.929 . S
C1437 C1429 1.433 . S
C1437 N1439 1.384 . S
N1438 C1434 1.427 . S
N1438 C1435 1.384 . S
N1439 C1431 1.427 . S
N1439 C1437 1.384 . S
H1440 C1446 0.930 . S
H1441 C1450 0.930 . S
H1442 C1455 0.929 . S
H1443 C1453 0.929 . S
H1444 C1448 0.929 . S
H1445 C1454 0.929 . S
C1446 H1440 0.930 . S
C1446 C1447 1.367 . S
C1446 C1454 1.378 . S
C1447 C1446 1.367 . S
C1447 C1455 1.433 . S
C1448 H1444 0.929 . S
C1448 C1450 1.378 . S
C1448 C1452 1.350 . S
C1449 C1452 1.463 . S
C1449 C1454 1.350 . S
C1449 N1457 1.427 . S
C1450 H1441 0.930 . S
C1450 C1448 1.378 . S
C1450 C1451 1.367 . S
C1451 C1450 1.367 . S
C1451 C1453 1.433 . S
C1452 C1448 1.350 . S
C1452 C1449 1.463 . S
C1452 N1456 1.427 . S
C1453 H1443 0.929 . S
C1453 C1451 1.433 . S
C1453 N1456 1.384 . S
C1454 H1445 0.929 . S
C1454 C1446 1.378 . S
C1454 C1449 1.350 . S
C1455 H1442 0.929 . S
C1455 C1447 1.433 . S
C1455 N1457 1.384 . S
N1456 C1452 1.427 . S
N1456 C1453 1.384 . S
N1457 C1449 1.427 . S
N1457 C1455 1.384 . S
H1458 C1464 0.930 . S
H1459 C1468 0.930 . S
H1460 C1473 0.929 . S
H1461 C1471 0.929 . S
H1462 C1466 0.929 1_565 S
H1463 C1472 0.929 1_545 S
C1464 H1458 0.930 . S
C1464 C1465 1.367 . S
C1464 C1472 1.378 . S
C1465 C1464 1.367 . S
C1465 C1473 1.433 . S
C1466 H1462 0.929 1_545 S
C1466 C1468 1.378 . S
C1466 C1470 1.350 . S
C1467 C1470 1.463 1_565 S
C1467 C1472 1.350 . S
C1467 N1475 1.427 . S
C1468 H1459 0.930 . S
C1468 C1466 1.378 . S
C1468 C1469 1.367 . S
C1469 C1468 1.367 . S
C1469 C1471 1.433 . S
C1470 C1466 1.350 . S
C1470 C1467 1.463 1_545 S
C1470 N1474 1.427 . S
C1471 H1461 0.929 . S
C1471 C1469 1.433 . S
C1471 N1474 1.384 . S
C1472 H1463 0.929 1_565 S
C1472 C1464 1.378 . S
C1472 C1467 1.350 . S
C1473 H1460 0.929 . S
C1473 C1465 1.433 . S
C1473 N1475 1.384 . S
N1474 C1470 1.427 . S
N1474 C1471 1.384 . S
N1475 C1467 1.427 . S
N1475 C1473 1.384 . S
H1476 C1482 0.930 . S
H1477 C1486 0.930 . S
H1478 C1491 0.929 . S
H1479 C1489 0.929 . S
H1480 C1484 0.929 . S
H1481 C1490 0.929 . S
C1482 H1476 0.930 . S
C1482 C1483 1.367 . S
C1482 C1490 1.378 . S
C1483 C1482 1.367 . S
C1483 C1491 1.433 . S
C1484 H1480 0.929 . S
C1484 C1486 1.378 . S
C1484 C1488 1.350 . S
C1485 C1488 1.463 1_455 S
C1485 C1490 1.350 . S
C1485 N1493 1.427 . S
C1486 H1477 0.930 . S
C1486 C1484 1.378 . S
C1486 C1487 1.367 . S
C1487 C1486 1.367 . S
C1487 C1489 1.433 . S
C1488 C1484 1.350 . S
C1488 C1485 1.463 1_655 S
C1488 N1492 1.427 . S
C1489 H1479 0.929 . S
C1489 C1487 1.433 . S
C1489 N1492 1.384 . S
C1490 H1481 0.929 . S
C1490 C1482 1.378 . S
C1490 C1485 1.350 . S
C1491 H1478 0.929 . S
C1491 C1483 1.433 . S
C1491 N1493 1.384 . S
N1492 C1488 1.427 . S
N1492 C1489 1.384 . S
N1493 C1485 1.427 . S
N1493 C1491 1.384 . S
H1494 C1500 0.930 . S
H1495 C1504 0.930 . S
H1496 C1509 0.929 . S
H1497 C1507 0.929 . S
H1498 C1502 0.929 . S
H1499 C1508 0.929 . S
C1500 H1494 0.930 . S
C1500 C1501 1.367 . S
C1500 C1508 1.378 . S
C1501 C1500 1.367 . S
C1501 C1509 1.433 . S
C1502 H1498 0.929 . S
C1502 C1504 1.378 . S
C1502 C1506 1.350 . S
C1503 C1506 1.463 . S
C1503 C1508 1.350 . S
C1503 N1511 1.427 . S
C1504 H1495 0.930 . S
C1504 C1502 1.378 . S
C1504 C1505 1.367 . S
C1505 C1504 1.367 . S
C1505 C1507 1.433 . S
C1506 C1502 1.350 . S
C1506 C1503 1.463 . S
C1506 N1510 1.427 . S
C1507 H1497 0.929 . S
C1507 C1505 1.433 . S
C1507 N1510 1.384 . S
C1508 H1499 0.929 . S
C1508 C1500 1.378 . S
C1508 C1503 1.350 . S
C1509 H1496 0.929 . S
C1509 C1501 1.433 . S
C1509 N1511 1.384 . S
N1510 C1506 1.427 . S
N1510 C1507 1.384 . S
N1511 C1503 1.427 . S
N1511 C1509 1.384 . S
H1512 C1518 0.930 1_455 S
H1513 C1522 0.930 . S
H1514 C1527 0.929 . S
H1515 C1525 0.929 . S
H1516 C1520 0.929 . S
H1517 C1526 0.929 . S
C1518 H1512 0.930 1_655 S
C1518 C1519 1.367 1_655 S
C1518 C1526 1.378 . S
C1519 C1518 1.367 1_455 S
C1519 C1527 1.433 . S
C1520 H1516 0.929 . S
C1520 C1522 1.378 . S
C1520 C1524 1.350 . S
C1521 C1524 1.463 . S
C1521 C1526 1.350 . S
C1521 N1529 1.427 . S
C1522 H1513 0.930 . S
C1522 C1520 1.378 . S
C1522 C1523 1.367 . S
C1523 C1522 1.367 . S
C1523 C1525 1.433 . S
C1524 C1520 1.350 . S
C1524 C1521 1.463 . S
C1524 N1528 1.427 . S
C1525 H1515 0.929 . S
C1525 C1523 1.433 . S
C1525 N1528 1.384 . S
C1526 H1517 0.929 . S
C1526 C1518 1.378 . S
C1526 C1521 1.350 . S
C1527 H1514 0.929 . S
C1527 C1519 1.433 . S
C1527 N1529 1.384 1_455 S
N1528 C1524 1.427 . S
N1528 C1525 1.384 . S
N1529 C1521 1.427 . S
N1529 C1527 1.384 1_655 S
H1530 C1536 0.930 . S
H1531 C1540 0.930 . S
H1532 C1545 0.929 . S
H1533 C1543 0.929 . S
H1534 C1538 0.929 . S
H1535 C1544 0.929 . S
C1536 H1530 0.930 . S
C1536 C1537 1.367 . S
C1536 C1544 1.378 . S
C1537 C1536 1.367 . S
C1537 C1545 1.433 . S
C1538 H1534 0.929 . S
C1538 C1540 1.378 . S
C1538 C1542 1.350 . S
C1539 C1542 1.463 . S
C1539 C1544 1.350 . S
C1539 N1547 1.427 . S
C1540 H1531 0.930 . S
C1540 C1538 1.378 . S
C1540 C1541 1.367 . S
C1541 C1540 1.367 . S
C1541 C1543 1.433 . S
C1542 C1538 1.350 . S
C1542 C1539 1.463 . S
C1542 N1546 1.427 . S
C1543 H1533 0.929 . S
C1543 C1541 1.433 . S
C1543 N1546 1.384 . S
C1544 H1535 0.929 . S
C1544 C1536 1.378 . S
C1544 C1539 1.350 . S
C1545 H1532 0.929 . S
C1545 C1537 1.433 . S
C1545 N1547 1.384 . S
N1546 C1542 1.427 . S
N1546 C1543 1.384 . S
N1547 C1539 1.427 . S
N1547 C1545 1.384 . S
H1548 C1554 0.930 . S
H1549 C1558 0.930 . S
H1550 C1563 0.929 . S
H1551 C1561 0.929 . S
H1552 C1556 0.929 . S
H1553 C1562 0.929 . S
C1554 H1548 0.930 . S
C1554 C1555 1.367 1_545 S
C1554 C1562 1.378 . S
C1555 C1554 1.367 1_565 S
C1555 C1563 1.433 . S
C1556 H1552 0.929 . S
C1556 C1558 1.378 . S
C1556 C1560 1.350 . S
C1557 C1560 1.463 . S
C1557 C1562 1.350 . S
C1557 N1565 1.427 . S
C1558 H1549 0.930 . S
C1558 C1556 1.378 . S
C1558 C1559 1.367 . S
C1559 C1558 1.367 . S
C1559 C1561 1.433 . S
C1560 C1556 1.350 . S
C1560 C1557 1.463 . S
C1560 N1564 1.427 . S
C1561 H1551 0.929 . S
C1561 C1559 1.433 . S
C1561 N1564 1.384 . S
C1562 H1553 0.929 . S
C1562 C1554 1.378 . S
C1562 C1557 1.350 . S
C1563 H1550 0.929 . S
C1563 C1555 1.433 . S
C1563 N1565 1.384 1_565 S
N1564 C1560 1.427 . S
N1564 C1561 1.384 . S
N1565 C1557 1.427 . S
N1565 C1563 1.384 1_545 S
H1566 C1572 0.930 . S
H1567 C1576 0.930 . S
H1568 C1581 0.929 . S
H1569 C1579 0.929 . S
H1570 C1574 0.929 . S
H1571 C1580 0.929 . S
C1572 H1566 0.930 . S
C1572 C1573 1.367 . S
C1572 C1580 1.378 . S
C1573 C1572 1.367 . S
C1573 C1581 1.433 . S
C1574 H1570 0.929 . S
C1574 C1576 1.378 . S
C1574 C1578 1.350 . S
C1575 C1578 1.463 . S
C1575 C1580 1.350 . S
C1575 N1583 1.427 . S
C1576 H1567 0.930 . S
C1576 C1574 1.378 . S
C1576 C1577 1.367 . S
C1577 C1576 1.367 . S
C1577 C1579 1.433 . S
C1578 C1574 1.350 . S
C1578 C1575 1.463 . S
C1578 N1582 1.427 . S
C1579 H1569 0.929 . S
C1579 C1577 1.433 . S
C1579 N1582 1.384 . S
C1580 H1571 0.929 . S
C1580 C1572 1.378 . S
C1580 C1575 1.350 . S
C1581 H1568 0.929 . S
C1581 C1573 1.433 . S
C1581 N1583 1.384 . S
N1582 C1578 1.427 . S
N1582 C1579 1.384 . S
N1583 C1575 1.427 . S
N1583 C1581 1.384 . S
H1584 C1590 0.930 . S
H1585 C1594 0.930 . S
H1586 C1599 0.929 . S
H1587 C1597 0.929 . S
H1588 C1592 0.929 . S
H1589 C1598 0.929 . S
C1590 H1584 0.930 . S
C1590 C1591 1.367 . S
C1590 C1598 1.378 . S
C1591 C1590 1.367 . S
C1591 C1599 1.433 . S
C1592 H1588 0.929 . S
C1592 C1594 1.378 . S
C1592 C1596 1.350 . S
C1593 C1596 1.463 . S
C1593 C1598 1.350 . S
C1593 N1601 1.427 . S
C1594 H1585 0.930 . S
C1594 C1592 1.378 . S
C1594 C1595 1.367 . S
C1595 C1594 1.367 . S
C1595 C1597 1.433 . S
C1596 C1592 1.350 . S
C1596 C1593 1.463 . S
C1596 N1600 1.427 . S
C1597 H1587 0.929 . S
C1597 C1595 1.433 . S
C1597 N1600 1.384 . S
C1598 H1589 0.929 . S
C1598 C1590 1.378 . S
C1598 C1593 1.350 . S
C1599 H1586 0.929 . S
C1599 C1591 1.433 . S
C1599 N1601 1.384 . S
N1600 C1596 1.427 . S
N1600 C1597 1.384 . S
N1601 C1593 1.427 . S
N1601 C1599 1.384 . S
H1602 C1608 0.930 . S
H1603 C1612 0.930 . S
H1604 C1617 0.929 . S
H1605 C1615 0.929 . S
H1606 C1610 0.929 . S
H1607 C1616 0.929 . S
C1608 H1602 0.930 . S
C1608 C1609 1.367 . S
C1608 C1616 1.378 . S
C1609 C1608 1.367 . S
C1609 C1617 1.433 . S
C1610 H1606 0.929 . S
C1610 C1612 1.378 . S
C1610 C1614 1.350 . S
C1611 C1614 1.463 . S
C1611 C1616 1.350 . S
C1611 N1619 1.427 . S
C1612 H1603 0.930 . S
C1612 C1610 1.378 . S
C1612 C1613 1.367 . S
C1613 C1612 1.367 . S
C1613 C1615 1.433 . S
C1614 C1610 1.350 . S
C1614 C1611 1.463 . S
C1614 N1618 1.427 . S
C1615 H1605 0.929 . S
C1615 C1613 1.433 . S
C1615 N1618 1.384 . S
C1616 H1607 0.929 . S
C1616 C1608 1.378 . S
C1616 C1611 1.350 . S
C1617 H1604 0.929 . S
C1617 C1609 1.433 . S
C1617 N1619 1.384 . S
N1618 C1614 1.427 . S
N1618 C1615 1.384 . S
N1619 C1611 1.427 . S
N1619 C1617 1.384 . S
H1620 C1626 0.930 . S
H1621 C1630 0.930 . S
H1622 C1635 0.929 . S
H1623 C1633 0.929 . S
H1624 C1628 0.929 . S
H1625 C1634 0.929 . S
C1626 H1620 0.930 . S
C1626 C1627 1.367 . S
C1626 C1634 1.378 . S
C1627 C1626 1.367 . S
C1627 C1635 1.433 . S
C1628 H1624 0.929 . S
C1628 C1630 1.378 . S
C1628 C1632 1.350 . S
C1629 C1632 1.463 . S
C1629 C1634 1.350 . S
C1629 N1637 1.427 . S
C1630 H1621 0.930 . S
C1630 C1628 1.378 . S
C1630 C1631 1.367 . S
C1631 C1630 1.367 . S
C1631 C1633 1.433 . S
C1632 C1628 1.350 . S
C1632 C1629 1.463 . S
C1632 N1636 1.427 . S
C1633 H1623 0.929 . S
C1633 C1631 1.433 . S
C1633 N1636 1.384 . S
C1634 H1625 0.929 . S
C1634 C1626 1.378 . S
C1634 C1629 1.350 . S
C1635 H1622 0.929 . S
C1635 C1627 1.433 . S
C1635 N1637 1.384 . S
N1636 C1632 1.427 . S
N1636 C1633 1.384 . S
N1637 C1629 1.427 . S
N1637 C1635 1.384 . S
H1638 C1644 0.930 . S
H1639 C1648 0.930 . S
H1640 C1653 0.929 . S
H1641 C1651 0.929 . S
H1642 C1646 0.929 . S
H1643 C1652 0.929 . S
C1644 H1638 0.930 . S
C1644 C1645 1.367 . S
C1644 C1652 1.378 . S
C1645 C1644 1.367 . S
C1645 C1653 1.433 . S
C1646 H1642 0.929 . S
C1646 C1648 1.378 . S
C1646 C1650 1.350 . S
C1647 C1650 1.463 . S
C1647 C1652 1.350 . S
C1647 N1655 1.427 . S
C1648 H1639 0.930 . S
C1648 C1646 1.378 . S
C1648 C1649 1.367 . S
C1649 C1648 1.367 . S
C1649 C1651 1.433 . S
C1650 C1646 1.350 . S
C1650 C1647 1.463 . S
C1650 N1654 1.427 . S
C1651 H1641 0.929 . S
C1651 C1649 1.433 . S
C1651 N1654 1.384 . S
C1652 H1643 0.929 . S
C1652 C1644 1.378 . S
C1652 C1647 1.350 . S
C1653 H1640 0.929 . S
C1653 C1645 1.433 . S
C1653 N1655 1.384 . S
N1654 C1650 1.427 . S
N1654 C1651 1.384 . S
N1655 C1647 1.427 . S
N1655 C1653 1.384 . S
H1656 C1662 0.930 . S
H1657 C1666 0.930 . S
H1658 C1671 0.929 . S
H1659 C1669 0.929 . S
H1660 C1664 0.929 . S
H1661 C1670 0.929 . S
C1662 H1656 0.930 . S
C1662 C1663 1.367 . S
C1662 C1670 1.378 . S
C1663 C1662 1.367 . S
C1663 C1671 1.433 . S
C1664 H1660 0.929 . S
C1664 C1666 1.378 . S
C1664 C1668 1.350 . S
C1665 C1668 1.463 . S
C1665 C1670 1.350 . S
C1665 N1673 1.427 . S
C1666 H1657 0.930 . S
C1666 C1664 1.378 . S
C1666 C1667 1.367 . S
C1667 C1666 1.367 . S
C1667 C1669 1.433 . S
C1668 C1664 1.350 . S
C1668 C1665 1.463 . S
C1668 N1672 1.427 . S
C1669 H1659 0.929 . S
C1669 C1667 1.433 . S
C1669 N1672 1.384 . S
C1670 H1661 0.929 . S
C1670 C1662 1.378 . S
C1670 C1665 1.350 . S
C1671 H1658 0.929 . S
C1671 C1663 1.433 . S
C1671 N1673 1.384 . S
N1672 C1668 1.427 . S
N1672 C1669 1.384 . S
N1673 C1665 1.427 . S
N1673 C1671 1.384 . S
H1674 C1680 0.930 . S
H1675 C1684 0.930 . S
H1676 C1689 0.929 . S
H1677 C1687 0.929 . S
H1678 C1682 0.929 . S
H1679 C1688 0.929 . S
C1680 H1674 0.930 . S
C1680 C1681 1.367 . S
C1680 C1688 1.378 . S
C1681 C1680 1.367 . S
C1681 C1689 1.433 . S
C1682 H1678 0.929 . S
C1682 C1684 1.378 . S
C1682 C1686 1.350 . S
C1683 C1686 1.463 . S
C1683 C1688 1.350 . S
C1683 N1691 1.427 . S
C1684 H1675 0.930 . S
C1684 C1682 1.378 . S
C1684 C1685 1.367 . S
C1685 C1684 1.367 . S
C1685 C1687 1.433 . S
C1686 C1682 1.350 . S
C1686 C1683 1.463 . S
C1686 N1690 1.427 . S
C1687 H1677 0.929 . S
C1687 C1685 1.433 . S
C1687 N1690 1.384 . S
C1688 H1679 0.929 . S
C1688 C1680 1.378 . S
C1688 C1683 1.350 . S
C1689 H1676 0.929 . S
C1689 C1681 1.433 . S
C1689 N1691 1.384 . S
N1690 C1686 1.427 . S
N1690 C1687 1.384 . S
N1691 C1683 1.427 . S
N1691 C1689 1.384 . S
H1692 C1698 0.930 . S
H1693 C1702 0.930 . S
H1694 C1707 0.929 . S
H1695 C1705 0.929 . S
H1696 C1700 0.929 . S
H1697 C1706 0.929 . S
C1698 H1692 0.930 . S
C1698 C1699 1.367 . S
C1698 C1706 1.378 . S
C1699 C1698 1.367 . S
C1699 C1707 1.433 . S
C1700 H1696 0.929 . S
C1700 C1702 1.378 . S
C1700 C1704 1.350 . S
C1701 C1704 1.463 . S
C1701 C1706 1.350 . S
C1701 N1709 1.427 . S
C1702 H1693 0.930 . S
C1702 C1700 1.378 . S
C1702 C1703 1.367 . S
C1703 C1702 1.367 . S
C1703 C1705 1.433 . S
C1704 C1700 1.350 . S
C1704 C1701 1.463 . S
C1704 N1708 1.427 . S
C1705 H1695 0.929 . S
C1705 C1703 1.433 . S
C1705 N1708 1.384 . S
C1706 H1697 0.929 . S
C1706 C1698 1.378 . S
C1706 C1701 1.350 . S
C1707 H1694 0.929 . S
C1707 C1699 1.433 . S
C1707 N1709 1.384 . S
N1708 C1704 1.427 . S
N1708 C1705 1.384 . S
N1709 C1701 1.427 . S
N1709 C1707 1.384 . S
H1710 C1716 0.930 . S
H1711 C1720 0.930 . S
H1712 C1725 0.929 . S
H1713 C1723 0.929 . S
H1714 C1718 0.929 . S
H1715 C1724 0.929 . S
C1716 H1710 0.930 . S
C1716 C1717 1.367 . S
C1716 C1724 1.378 . S
C1717 C1716 1.367 . S
C1717 C1725 1.433 . S
C1718 H1714 0.929 . S
C1718 C1720 1.378 . S
C1718 C1722 1.350 . S
C1719 C1722 1.463 . S
C1719 C1724 1.350 . S
C1719 N1727 1.427 . S
C1720 H1711 0.930 . S
C1720 C1718 1.378 . S
C1720 C1721 1.367 . S
C1721 C1720 1.367 . S
C1721 C1723 1.433 . S
C1722 C1718 1.350 . S
C1722 C1719 1.463 . S
C1722 N1726 1.427 . S
C1723 H1713 0.929 . S
C1723 C1721 1.433 . S
C1723 N1726 1.384 . S
C1724 H1715 0.929 . S
C1724 C1716 1.378 . S
C1724 C1719 1.350 . S
C1725 H1712 0.929 . S
C1725 C1717 1.433 . S
C1725 N1727 1.384 . S
N1726 C1722 1.427 . S
N1726 C1723 1.384 . S
N1727 C1719 1.427 . S
N1727 C1725 1.384 . S
H1728 C1734 0.930 . S
H1729 C1738 0.930 . S
H1730 C1743 0.929 . S
H1731 C1741 0.929 . S
H1732 C1736 0.929 . S
H1733 C1742 0.929 . S
C1734 H1728 0.930 . S
C1734 C1735 1.367 . S
C1734 C1742 1.378 . S
C1735 C1734 1.367 . S
C1735 C1743 1.433 . S
C1736 H1732 0.929 . S
C1736 C1738 1.378 . S
C1736 C1740 1.350 . S
C1737 C1740 1.463 . S
C1737 C1742 1.350 . S
C1737 N1745 1.427 . S
C1738 H1729 0.930 . S
C1738 C1736 1.378 . S
C1738 C1739 1.367 . S
C1739 C1738 1.367 . S
C1739 C1741 1.433 . S
C1740 C1736 1.350 . S
C1740 C1737 1.463 . S
C1740 N1744 1.427 . S
C1741 H1731 0.929 . S
C1741 C1739 1.433 . S
C1741 N1744 1.384 . S
C1742 H1733 0.929 . S
C1742 C1734 1.378 . S
C1742 C1737 1.350 . S
C1743 H1730 0.929 . S
C1743 C1735 1.433 . S
C1743 N1745 1.384 . S
N1744 C1740 1.427 . S
N1744 C1741 1.384 . S
N1745 C1737 1.427 . S
N1745 C1743 1.384 . S
H1746 C1752 0.930 . S
H1747 C1756 0.930 . S
H1748 C1761 0.929 . S
H1749 C1759 0.929 . S
H1750 C1754 0.929 . S
H1751 C1760 0.929 . S
C1752 H1746 0.930 . S
C1752 C1753 1.367 . S
C1752 C1760 1.378 . S
C1753 C1752 1.367 . S
C1753 C1761 1.433 . S
C1754 H1750 0.929 . S
C1754 C1756 1.378 . S
C1754 C1758 1.350 . S
C1755 C1758 1.463 . S
C1755 C1760 1.350 . S
C1755 N1763 1.427 . S
C1756 H1747 0.930 . S
C1756 C1754 1.378 . S
C1756 C1757 1.367 . S
C1757 C1756 1.367 . S
C1757 C1759 1.433 . S
C1758 C1754 1.350 . S
C1758 C1755 1.463 . S
C1758 N1762 1.427 . S
C1759 H1749 0.929 . S
C1759 C1757 1.433 . S
C1759 N1762 1.384 . S
C1760 H1751 0.929 . S
C1760 C1752 1.378 . S
C1760 C1755 1.350 . S
C1761 H1748 0.929 . S
C1761 C1753 1.433 . S
C1761 N1763 1.384 . S
N1762 C1758 1.427 . S
N1762 C1759 1.384 . S
N1763 C1755 1.427 . S
N1763 C1761 1.384 . S
H1764 C1770 0.930 . S
H1765 C1774 0.930 . S
H1766 C1779 0.929 . S
H1767 C1777 0.929 . S
H1768 C1772 0.929 . S
H1769 C1778 0.929 . S
C1770 H1764 0.930 . S
C1770 C1771 1.367 . S
C1770 C1778 1.378 . S
C1771 C1770 1.367 . S
C1771 C1779 1.433 . S
C1772 H1768 0.929 . S
C1772 C1774 1.378 . S
C1772 C1776 1.350 . S
C1773 C1776 1.463 . S
C1773 C1778 1.350 . S
C1773 N1781 1.427 . S
C1774 H1765 0.930 . S
C1774 C1772 1.378 . S
C1774 C1775 1.367 . S
C1775 C1774 1.367 . S
C1775 C1777 1.433 . S
C1776 C1772 1.350 . S
C1776 C1773 1.463 . S
C1776 N1780 1.427 . S
C1777 H1767 0.929 . S
C1777 C1775 1.433 . S
C1777 N1780 1.384 . S
C1778 H1769 0.929 . S
C1778 C1770 1.378 . S
C1778 C1773 1.350 . S
C1779 H1766 0.929 . S
C1779 C1771 1.433 . S
C1779 N1781 1.384 . S
N1780 C1776 1.427 . S
N1780 C1777 1.384 . S
N1781 C1773 1.427 . S
N1781 C1779 1.384 . S
H1782 C1788 0.930 . S
H1783 C1792 0.930 . S
H1784 C1797 0.929 . S
H1785 C1795 0.929 . S
H1786 C1790 0.929 . S
H1787 C1796 0.929 . S
C1788 H1782 0.930 . S
C1788 C1789 1.367 . S
C1788 C1796 1.378 . S
C1789 C1788 1.367 . S
C1789 C1797 1.433 . S
C1790 H1786 0.929 . S
C1790 C1792 1.378 . S
C1790 C1794 1.350 . S
C1791 C1794 1.463 . S
C1791 C1796 1.350 . S
C1791 N1799 1.427 . S
C1792 H1783 0.930 . S
C1792 C1790 1.378 . S
C1792 C1793 1.367 . S
C1793 C1792 1.367 . S
C1793 C1795 1.433 . S
C1794 C1790 1.350 . S
C1794 C1791 1.463 . S
C1794 N1798 1.427 . S
C1795 H1785 0.929 . S
C1795 C1793 1.433 . S
C1795 N1798 1.384 . S
C1796 H1787 0.929 . S
C1796 C1788 1.378 . S
C1796 C1791 1.350 . S
C1797 H1784 0.929 . S
C1797 C1789 1.433 . S
C1797 N1799 1.384 . S
N1798 C1794 1.427 . S
N1798 C1795 1.384 . S
N1799 C1791 1.427 . S
N1799 C1797 1.384 . S
H1800 C1806 0.930 . S
H1801 C1810 0.930 . S
H1802 C1815 0.929 . S
H1803 C1813 0.929 . S
H1804 C1808 0.929 . S
H1805 C1814 0.929 . S
C1806 H1800 0.930 . S
C1806 C1807 1.367 . S
C1806 C1814 1.378 . S
C1807 C1806 1.367 . S
C1807 C1815 1.433 . S
C1808 H1804 0.929 . S
C1808 C1810 1.378 . S
C1808 C1812 1.350 . S
C1809 C1812 1.463 . S
C1809 C1814 1.350 . S
C1809 N1817 1.427 . S
C1810 H1801 0.930 . S
C1810 C1808 1.378 . S
C1810 C1811 1.367 . S
C1811 C1810 1.367 . S
C1811 C1813 1.433 . S
C1812 C1808 1.350 . S
C1812 C1809 1.463 . S
C1812 N1816 1.427 . S
C1813 H1803 0.929 . S
C1813 C1811 1.433 . S
C1813 N1816 1.384 . S
C1814 H1805 0.929 . S
C1814 C1806 1.378 . S
C1814 C1809 1.350 . S
C1815 H1802 0.929 . S
C1815 C1807 1.433 . S
C1815 N1817 1.384 . S
N1816 C1812 1.427 . S
N1816 C1813 1.384 . S
N1817 C1809 1.427 . S
N1817 C1815 1.384 . S
H1818 C1824 0.930 . S
H1819 C1828 0.930 . S
H1820 C1833 0.929 . S
H1821 C1831 0.929 . S
H1822 C1826 0.929 . S
H1823 C1832 0.929 . S
C1824 H1818 0.930 . S
C1824 C1825 1.367 . S
C1824 C1832 1.378 . S
C1825 C1824 1.367 . S
C1825 C1833 1.433 . S
C1826 H1822 0.929 . S
C1826 C1828 1.378 . S
C1826 C1830 1.350 . S
C1827 C1830 1.463 . S
C1827 C1832 1.350 . S
C1827 N1835 1.427 . S
C1828 H1819 0.930 . S
C1828 C1826 1.378 . S
C1828 C1829 1.367 . S
C1829 C1828 1.367 . S
C1829 C1831 1.433 . S
C1830 C1826 1.350 . S
C1830 C1827 1.463 . S
C1830 N1834 1.427 . S
C1831 H1821 0.929 . S
C1831 C1829 1.433 . S
C1831 N1834 1.384 . S
C1832 H1823 0.929 . S
C1832 C1824 1.378 . S
C1832 C1827 1.350 . S
C1833 H1820 0.929 . S
C1833 C1825 1.433 . S
C1833 N1835 1.384 . S
N1834 C1830 1.427 . S
N1834 C1831 1.384 . S
N1835 C1827 1.427 . S
N1835 C1833 1.384 . S
H1836 C1842 0.930 . S
H1837 C1846 0.930 . S
H1838 C1851 0.929 . S
H1839 C1849 0.929 . S
H1840 C1844 0.929 . S
H1841 C1850 0.929 . S
C1842 H1836 0.930 . S
C1842 C1843 1.367 . S
C1842 C1850 1.378 . S
C1843 C1842 1.367 . S
C1843 C1851 1.433 . S
C1844 H1840 0.929 . S
C1844 C1846 1.378 . S
C1844 C1848 1.350 . S
C1845 C1848 1.463 . S
C1845 C1850 1.350 . S
C1845 N1853 1.427 . S
C1846 H1837 0.930 . S
C1846 C1844 1.378 . S
C1846 C1847 1.367 . S
C1847 C1846 1.367 . S
C1847 C1849 1.433 . S
C1848 C1844 1.350 . S
C1848 C1845 1.463 . S
C1848 N1852 1.427 . S
C1849 H1839 0.929 . S
C1849 C1847 1.433 . S
C1849 N1852 1.384 . S
C1850 H1841 0.929 . S
C1850 C1842 1.378 . S
C1850 C1845 1.350 . S
C1851 H1838 0.929 . S
C1851 C1843 1.433 . S
C1851 N1853 1.384 . S
N1852 C1848 1.427 . S
N1852 C1849 1.384 . S
N1853 C1845 1.427 . S
N1853 C1851 1.384 . S
H1854 C1860 0.930 . S
H1855 C1864 0.930 . S
H1856 C1869 0.929 . S
H1857 C1867 0.929 . S
H1858 C1862 0.929 . S
H1859 C1868 0.929 . S
C1860 H1854 0.930 . S
C1860 C1861 1.367 . S
C1860 C1868 1.378 . S
C1861 C1860 1.367 . S
C1861 C1869 1.433 . S
C1862 H1858 0.929 . S
C1862 C1864 1.378 . S
C1862 C1866 1.350 . S
C1863 C1866 1.463 . S
C1863 C1868 1.350 . S
C1863 N1871 1.427 . S
C1864 H1855 0.930 . S
C1864 C1862 1.378 . S
C1864 C1865 1.367 . S
C1865 C1864 1.367 . S
C1865 C1867 1.433 . S
C1866 C1862 1.350 . S
C1866 C1863 1.463 . S
C1866 N1870 1.427 . S
C1867 H1857 0.929 . S
C1867 C1865 1.433 . S
C1867 N1870 1.384 . S
C1868 H1859 0.929 . S
C1868 C1860 1.378 . S
C1868 C1863 1.350 . S
C1869 H1856 0.929 . S
C1869 C1861 1.433 . S
C1869 N1871 1.384 . S
N1870 C1866 1.427 . S
N1870 C1867 1.384 . S
N1871 C1863 1.427 . S
N1871 C1869 1.384 . S
H1872 C1878 0.930 . S
H1873 C1882 0.930 . S
H1874 C1887 0.929 . S
H1875 C1885 0.929 . S
H1876 C1880 0.929 . S
H1877 C1886 0.929 . S
C1878 H1872 0.930 . S
C1878 C1879 1.367 . S
C1878 C1886 1.378 . S
C1879 C1878 1.367 . S
C1879 C1887 1.433 . S
C1880 H1876 0.929 . S
C1880 C1882 1.378 . S
C1880 C1884 1.350 . S
C1881 C1884 1.463 . S
C1881 C1886 1.350 . S
C1881 N1889 1.427 . S
C1882 H1873 0.930 . S
C1882 C1880 1.378 . S
C1882 C1883 1.367 . S
C1883 C1882 1.367 . S
C1883 C1885 1.433 . S
C1884 C1880 1.350 . S
C1884 C1881 1.463 . S
C1884 N1888 1.427 . S
C1885 H1875 0.929 . S
C1885 C1883 1.433 . S
C1885 N1888 1.384 . S
C1886 H1877 0.929 . S
C1886 C1878 1.378 . S
C1886 C1881 1.350 . S
C1887 H1874 0.929 . S
C1887 C1879 1.433 . S
C1887 N1889 1.384 . S
N1888 C1884 1.427 . S
N1888 C1885 1.384 . S
N1889 C1881 1.427 . S
N1889 C1887 1.384 . S
H1890 C1896 0.930 . S
H1891 C1900 0.930 . S
H1892 C1905 0.929 . S
H1893 C1903 0.929 . S
H1894 C1898 0.929 . S
H1895 C1904 0.929 . S
C1896 H1890 0.930 . S
C1896 C1897 1.367 . S
C1896 C1904 1.378 . S
C1897 C1896 1.367 . S
C1897 C1905 1.433 . S
C1898 H1894 0.929 . S
C1898 C1900 1.378 . S
C1898 C1902 1.350 . S
C1899 C1902 1.463 . S
C1899 C1904 1.350 . S
C1899 N1907 1.427 . S
C1900 H1891 0.930 . S
C1900 C1898 1.378 . S
C1900 C1901 1.367 . S
C1901 C1900 1.367 . S
C1901 C1903 1.433 . S
C1902 C1898 1.350 . S
C1902 C1899 1.463 . S
C1902 N1906 1.427 . S
C1903 H1893 0.929 . S
C1903 C1901 1.433 . S
C1903 N1906 1.384 . S
C1904 H1895 0.929 . S
C1904 C1896 1.378 . S
C1904 C1899 1.350 . S
C1905 H1892 0.929 . S
C1905 C1897 1.433 . S
C1905 N1907 1.384 . S
N1906 C1902 1.427 . S
N1906 C1903 1.384 . S
N1907 C1899 1.427 . S
N1907 C1905 1.384 . S
H1908 C1914 0.930 . S
H1909 C1918 0.930 . S
H1910 C1923 0.929 . S
H1911 C1921 0.929 . S
H1912 C1916 0.929 . S
H1913 C1922 0.929 . S
C1914 H1908 0.930 . S
C1914 C1915 1.367 . S
C1914 C1922 1.378 . S
C1915 C1914 1.367 . S
C1915 C1923 1.433 . S
C1916 H1912 0.929 . S
C1916 C1918 1.378 . S
C1916 C1920 1.350 . S
C1917 C1920 1.463 . S
C1917 C1922 1.350 . S
C1917 N1925 1.427 . S
C1918 H1909 0.930 . S
C1918 C1916 1.378 . S
C1918 C1919 1.367 . S
C1919 C1918 1.367 . S
C1919 C1921 1.433 . S
C1920 C1916 1.350 . S
C1920 C1917 1.463 . S
C1920 N1924 1.427 . S
C1921 H1911 0.929 . S
C1921 C1919 1.433 . S
C1921 N1924 1.384 . S
C1922 H1913 0.929 . S
C1922 C1914 1.378 . S
C1922 C1917 1.350 . S
C1923 H1910 0.929 . S
C1923 C1915 1.433 . S
C1923 N1925 1.384 . S
N1924 C1920 1.427 . S
N1924 C1921 1.384 . S
N1925 C1917 1.427 . S
N1925 C1923 1.384 . S
H1926 C1932 0.930 . S
H1927 C1936 0.930 . S
H1928 C1941 0.929 . S
H1929 C1939 0.929 . S
H1930 C1934 0.929 . S
H1931 C1940 0.929 . S
C1932 H1926 0.930 . S
C1932 C1933 1.367 . S
C1932 C1940 1.378 . S
C1933 C1932 1.367 . S
C1933 C1941 1.433 . S
C1934 H1930 0.929 . S
C1934 C1936 1.378 . S
C1934 C1938 1.350 . S
C1935 C1938 1.463 . S
C1935 C1940 1.350 . S
C1935 N1943 1.427 . S
C1936 H1927 0.930 . S
C1936 C1934 1.378 . S
C1936 C1937 1.367 . S
C1937 C1936 1.367 . S
C1937 C1939 1.433 . S
C1938 C1934 1.350 . S
C1938 C1935 1.463 . S
C1938 N1942 1.427 . S
C1939 H1929 0.929 . S
C1939 C1937 1.433 . S
C1939 N1942 1.384 . S
C1940 H1931 0.929 . S
C1940 C1932 1.378 . S
C1940 C1935 1.350 . S
C1941 H1928 0.929 . S
C1941 C1933 1.433 . S
C1941 N1943 1.384 . S
N1942 C1938 1.427 . S
N1942 C1939 1.384 . S
N1943 C1935 1.427 . S
N1943 C1941 1.384 . S
C979 C162 1.453 . S
C983 C283 1.397 . S
C997 C174 1.474 . S
C1001 C367 1.433 . S
C1015 C150 1.449 . S
C1019 C447 1.444 . S
C1033 C138 1.427 . S
C1037 C363 1.428 1_556 S
C1055 C451 1.383 . S
C1051 C114 1.433 . S
C1069 C126 1.407 . S
C1073 C279 1.396 1_556 S
C1091 C272 1.438 . S
C1087 C136 1.499 . S
C1109 C356 1.469 . S
C1105 C112 1.519 . S
C1123 C124 1.508 . S
C1127 C458 1.483 1_556 S
C1141 C160 1.479 . S
C1145 C374 1.452 . S
C1159 C172 1.476 . S
C1163 C440 1.411 . S
C1181 C290 1.429 . S
C1177 C148 1.460 . S
C1199 C535 1.390 . S
C1195 C18 1.453 . S
C1213 C30 1.475 . S
C1217 C619 1.434 . S
C1231 C6 1.448 . S
C1235 C699 1.445 . S
C1249 C210 1.430 . S
C1253 C615 1.427 . S
C1267 C186 1.436 . S
C1271 C703 1.373 . S
C1285 C198 1.409 . S
C1289 C531 1.400 . S
C1303 C208 1.492 . S
C1307 C524 1.451 . S
C1321 C184 1.515 . S
C1325 C608 1.477 . S
C1343 C710 1.483 . S
C1339 C196 1.508 . S
C1357 C16 1.489 . S
C1361 C626 1.456 . S
C1379 C692 1.427 . S
C1375 C28 1.467 . S
C1393 C4 1.460 . S
C1397 C542 1.433 . S
C1415 C787 1.395 . S
C1411 C90 1.451 . S
C1429 C102 1.480 . S
C1433 C871 1.423 . S
C1451 C951 1.445 . S
C1447 C78 1.446 . S
C1469 C867 1.421 . S
C1465 C66 1.429 . S
C1487 C955 1.388 . S
C1483 C42 1.433 . S
C1501 C54 1.409 . S
C1505 C783 1.398 . S
C1519 C64 1.499 . S
C1523 C776 1.438 . S
C1537 C40 1.523 . S
C1541 C860 1.463 . S
C1559 C962 1.476 . S
C1555 C52 1.511 . S
C1573 C88 1.481 . S
C1577 C878 1.457 . S
C1591 C100 1.468 . S
C1595 C944 1.420 . S
C1609 C76 1.470 . S
C1613 C794 1.435 . S
C1627 C189 1.569 . S
C1631 C286 1.459 . S
C1649 C370 1.496 . S
C1645 C201 1.628 . S
C1663 C213 1.578 . S
C1667 C442 1.404 . S
C1681 C81 1.601 . S
C1685 C358 1.404 . S
C1699 C93 1.592 . S
C1703 C454 1.447 . S
C1721 C274 1.383 . S
C1717 C105 1.539 . S
C1735 C45 1.568 . S
C1739 C538 1.442 . S
C1753 C57 1.626 . S
C1757 C622 1.480 . S
C1771 C69 1.579 . S
C1775 C694 1.397 . S
C1789 C153 1.595 . S
C1793 C610 1.402 . S
C1811 C706 1.462 . S
C1807 C165 1.586 . S
C1825 C177 1.534 . S
C1829 C526 1.369 . S
C1843 C117 1.572 . S
C1847 C790 1.442 . S
C1861 C129 1.628 . S
C1865 C874 1.475 . S
C1883 C946 1.387 . S
C1879 C141 1.572 . S
C1897 C9 1.601 . S
C1901 C862 1.409 . S
C1915 C21 1.588 . S
C1919 C958 1.464 . S
C1933 C33 1.537 . S
C1937 C778 1.358 . S
