# Generated by pormake.
# Topology anh, (6,3)-cn, num edge types: 1
# Building blocks:
#     Node 0, Type 0, BuildingBlock: CUKXOW_clean_sbu_0, # of connection points: 6
#     Node 1, Type 0, BuildingBlock: CUKXOW_clean_sbu_0, # of connection points: 6
#     Node 2, Type 0, BuildingBlock: CUKXOW_clean_sbu_0, # of connection points: 6
#     Node 3, Type 1, BuildingBlock: CUQRIR_clean_linker_1, # of connection points: 3
#     Node 4, Type 1, BuildingBlock: CUQRIR_clean_linker_1, # of connection points: 3
#     Node 5, Type 1, BuildingBlock: CUQRIR_clean_linker_1, # of connection points: 3
#     Node 6, Type 1, BuildingBlock: CUQRIR_clean_linker_1, # of connection points: 3
#     Node 7, Type 1, BuildingBlock: CUQRIR_clean_linker_1, # of connection points: 3
#     Node 8, Type 1, BuildingBlock: CUQRIR_clean_linker_1, # of connection points: 3
#     Edge 9, Type (0, 1), BuildingBlock: XUDNAN_clean_linker_2, # of connection points: 2
#     Edge 10, Type (0, 1), BuildingBlock: XUDNAN_clean_linker_2, # of connection points: 2
#     Edge 11, Type (0, 1), BuildingBlock: XUDNAN_clean_linker_2, # of connection points: 2
#     Edge 12, Type (0, 1), BuildingBlock: XUDNAN_clean_linker_2, # of connection points: 2
#     Edge 13, Type (0, 1), BuildingBlock: XUDNAN_clean_linker_2, # of connection points: 2
#     Edge 14, Type (0, 1), BuildingBlock: XUDNAN_clean_linker_2, # of connection points: 2
#     Edge 15, Type (0, 1), BuildingBlock: XUDNAN_clean_linker_2, # of connection points: 2
#     Edge 16, Type (0, 1), BuildingBlock: XUDNAN_clean_linker_2, # of connection points: 2
#     Edge 17, Type (0, 1), BuildingBlock: XUDNAN_clean_linker_2, # of connection points: 2
#     Edge 18, Type (0, 1), BuildingBlock: XUDNAN_clean_linker_2, # of connection points: 2
#     Edge 19, Type (0, 1), BuildingBlock: XUDNAN_clean_linker_2, # of connection points: 2
#     Edge 20, Type (0, 1), BuildingBlock: XUDNAN_clean_linker_2, # of connection points: 2
#     Edge 21, Type (0, 1), BuildingBlock: XUDNAN_clean_linker_2, # of connection points: 2
#     Edge 22, Type (0, 1), BuildingBlock: XUDNAN_clean_linker_2, # of connection points: 2
#     Edge 23, Type (0, 1), BuildingBlock: XUDNAN_clean_linker_2, # of connection points: 2
#     Edge 24, Type (0, 1), BuildingBlock: XUDNAN_clean_linker_2, # of connection points: 2
#     Edge 25, Type (0, 1), BuildingBlock: XUDNAN_clean_linker_2, # of connection points: 2
#     Edge 26, Type (0, 1), BuildingBlock: XUDNAN_clean_linker_2, # of connection points: 2
# Relax obj value: 0.141
# Max RMSD: 0.197
# Mean RMSD: 0.165
data_MOF--net-anh--node1-CUKXOW_clean_sbu_0--node2-CUQRIR_clean_linker_1--edge1-XUDNAN_clean_linker_2
_symmetry_space_group_name_H-M    P1
_symmetry_Int_Tables_number       1
_symmetry_cell_setting            triclinic
loop_
_symmetry_equiv_pos_as_xyz
'x, y, z'
_cell_length_a     26.554791
_cell_length_b     25.888493
_cell_length_c     45.323541
_cell_angle_alpha  89.654324
_cell_angle_beta   89.777512
_cell_angle_gamma 112.67822
loop_
_atom_site_label
_atom_site_type_symbol
_atom_site_fract_x
_atom_site_fract_y
_atom_site_fract_z
_atom_type_partial_charge
Tb0 Tb 1.03146 0.5477 0.15526 0.0
C1 C 0.99424 0.4801 0.21485 0.0
Tb2 Tb 0.96089 0.41608 0.15489 0.0
O3 O 0.96157 0.57484 0.1506 0.0
O4 O 0.94953 0.4924 0.15398 0.0
O5 O 1.03308 0.52268 0.20123 0.0
C6 C 0.87744 0.31794 0.15614 0.0
O7 O 0.95601 0.43885 0.20065 0.0
C8 C 0.0682 0.43882 0.1583 0.0
C9 C 1.00791 0.47921 0.09491 0.0
O10 O 0.92481 0.32813 0.16769 0.0
O11 O 0.87677 0.36292 0.14363 0.0
O12 O 1.03002 0.38883 0.15776 0.0
O13 O 0.0435 0.47193 0.15686 0.0
O14 O 0.97444 0.43202 0.10777 0.0
O15 O 0.03408 0.52677 0.10911 0.0
C16 C 0.11893 0.64224 0.1522 0.0
O17 O 0.10682 0.60127 0.13376 0.0
O18 O 0.08141 0.63036 0.17259 0.0
C19 C 0.92392 0.52439 0.15131 0.0
Tb20 Tb 0.54386 0.98644 0.507 0.0
C21 C 0.60228 0.02433 0.44479 0.0
Tb22 Tb 0.66832 0.0554 0.50489 0.0
O23 O 0.53134 0.05554 0.52931 0.0
O24 O 0.59643 0.07115 0.50032 0.0
O25 O 0.55638 0.99439 0.45922 0.0
C26 C 0.76601 0.13766 0.49653 0.0
O27 O 0.64937 0.05258 0.45806 0.0
C28 C 0.63909 0.94713 0.51156 0.0
C29 C 0.60992 0.01394 0.56591 0.0
O30 O 0.72644 0.14134 0.51218 0.0
O31 O 0.75088 0.0873 0.48614 0.0
O32 O 0.68508 0.98366 0.52113 0.0
O33 O 0.61504 0.97199 0.49686 0.0
O34 O 0.64993 0.05481 0.55196 0.0
O35 O 0.56829 0.97653 0.55175 0.0
C36 C 0.44278 0.90886 0.50381 0.0
O37 O 0.48492 0.90047 0.51351 0.0
O38 O 0.45749 0.96091 0.4958 0.0
C39 C 0.5753 0.09366 0.51834 0.0
Tb40 Tb 0.56481 0.61142 0.84208 0.0
C41 C 0.63203 0.61412 0.89902 0.0
Tb42 Tb 0.68079 0.62407 0.83385 0.0
O43 O 0.5478 0.52757 0.85943 0.0
O44 O 0.60429 0.56003 0.82528 0.0
O45 O 0.5888 0.62168 0.88835 0.0
C46 C 0.75912 0.5845 0.83018 0.0
O47 O 0.67177 0.61191 0.88181 0.0
C48 C 0.6679 0.71968 0.83434 0.0
C49 C 0.61639 0.63217 0.77829 0.0
O50 O 0.71149 0.55882 0.84191 0.0
O51 O 0.76416 0.63433 0.82154 0.0
O52 O 0.70905 0.71312 0.82156 0.0
O53 O 0.64161 0.67632 0.84939 0.0
O54 O 0.65508 0.6167 0.78846 0.0
O55 O 0.57884 0.63836 0.79569 0.0
C56 C 0.46136 0.60002 0.84367 0.0
O57 O 0.47942 0.56342 0.83424 0.0
O58 O 0.50197 0.64504 0.85171 0.0
C59 C 0.582 0.51829 0.84205 0.0
C60 C 0.49904 0.98977 0.18911 0.0
N61 N 0.53721 0.01402 0.20973 0.0
N62 N 0.45557 0.94803 0.20122 0.0
C63 C 0.50486 1.00668 0.15706 0.0
C64 C 0.46877 0.94779 0.23006 0.0
N65 N 0.5185 0.98815 0.23529 0.0
C66 C 0.43625 0.90383 0.25223 0.0
H67 H 0.52736 0.05258 0.15467 0.0
H68 H 0.4644 0.99443 0.14641 0.0
H69 H 0.52878 0.98586 0.14555 0.0
H70 H 0.41459 0.86298 0.24137 0.0
H71 H 0.40535 0.917 0.26274 0.0
H72 H 0.46288 0.89823 0.26971 0.0
C73 C 0.58834 0.51576 0.52995 0.0
N74 N 0.5917 0.5589 0.54768 0.0
N75 N 0.59429 0.47401 0.54593 0.0
C76 C 0.579 0.51459 0.49721 0.0
C77 C 0.60148 0.49336 0.5739 0.0
N78 N 0.59993 0.54479 0.57494 0.0
C79 C 0.61217 0.46288 0.6 0.0
H80 H 0.53579 0.50792 0.49312 0.0
H81 H 0.58725 0.4805 0.48628 0.0
H82 H 0.60497 0.55547 0.48716 0.0
H83 H 0.63417 0.4923 0.61767 0.0
H84 H 0.63624 0.43808 0.59327 0.0
H85 H 0.57252 0.43359 0.60911 0.0
C86 C 0.03973 0.3923 0.8422 0.0
N87 N 0.0713 0.40619 0.86648 0.0
N88 N 0.98777 0.38657 0.8483 0.0
C89 C 0.06142 0.38926 0.81179 0.0
C90 C 0.98806 0.39212 0.87816 0.0
N91 N 0.03856 0.40409 0.88899 0.0
C92 C 0.94217 0.39749 0.89606 0.0
H93 H 0.0893 0.43154 0.80428 0.0
H94 H 1.02773 0.37145 0.79576 0.0
H95 H 0.08586 0.36286 0.81263 0.0
H96 H 0.90485 0.35896 0.8939 0.0
H97 H 0.93366 0.43373 0.88787 0.0
H98 H 0.95147 0.40368 0.91988 0.0
C99 C 0.08825 0.53347 0.47158 0.0
N100 N 0.05922 0.49753 0.45048 0.0
N101 N 0.11802 0.5841 0.45955 0.0
C102 C 0.08811 0.51907 0.50375 0.0
C103 C 0.10653 0.5778 0.43045 0.0
N104 N 0.07122 0.5249 0.42481 0.0
C105 C 0.12907 0.62389 0.40772 0.0
H106 H 0.12597 0.54722 0.51468 0.0
H107 H 0.08369 0.47491 0.50659 0.0
H108 H 0.05281 0.52401 0.51469 0.0
H109 H 0.16648 0.62185 0.39776 0.0
H110 H 0.14035 0.66579 0.41767 0.0
H111 H 0.09903 0.61916 0.38995 0.0
C112 C 0.64387 0.12754 0.81827 0.0
N113 N 0.63998 0.08413 0.80045 0.0
N114 N 0.63071 0.16683 0.80355 0.0
C115 C 0.66606 0.13372 0.84911 0.0
C116 C 0.61896 0.1452 0.77599 0.0
N117 N 0.62556 0.09601 0.77407 0.0
C118 C 0.59423 0.16777 0.75174 0.0
H119 H 0.63202 0.11404 0.86499 0.0
H120 H 0.68765 0.17851 0.85477 0.0
H121 H 0.69472 0.11207 0.85137 0.0
H122 H 0.62736 0.19876 0.73837 0.0
H123 H 0.56782 0.18817 0.76092 0.0
H124 H 0.56924 0.1338 0.73683 0.0
C125 C 0.50267 0.50042 0.14851 0.0
N126 N 0.54637 0.51108 0.12998 0.0
N127 N 0.45952 0.50591 0.13436 0.0
C128 C 0.50331 0.48795 0.18089 0.0
C129 C 0.47861 0.51959 0.10638 0.0
N130 N 0.53122 0.52391 0.10384 0.0
C131 C 0.44317 0.52035 0.08055 0.0
H132 H 0.48961 0.44207 0.18422 0.0
H133 H 0.47534 0.50273 0.19326 0.0
H134 H 0.54521 0.50818 0.18979 0.0
H135 H 0.44406 0.56327 0.07761 0.0
H136 H 0.40025 0.49131 0.08433 0.0
H137 H 0.45777 0.50793 0.05986 0.0
H138 H 0.1639 0.52867 0.13789 0.0
H139 H 0.10744 0.3705 0.18557 0.0
H140 H 0.20118 0.37441 0.18759 0.0
H141 H 0.26145 0.50174 0.09338 0.0
H142 H 0.31319 0.57166 0.09406 0.0
H143 H 0.24239 0.56084 0.09856 0.0
H144 H 0.26377 0.61383 0.14809 0.0
H145 H 0.33484 0.62571 0.14338 0.0
H146 H 0.29892 0.59217 0.17649 0.0
H147 H 0.2989 0.38891 0.18081 0.0
H148 H 0.39538 0.41533 0.16644 0.0
H149 H 0.39503 0.5664 0.12484 0.0
C150 C 0.17163 0.49577 0.14941 0.0
C151 C 0.12769 0.44938 0.16188 0.0
C152 C 0.13987 0.40653 0.17597 0.0
C153 C 0.19329 0.40831 0.17726 0.0
C154 C 0.23537 0.45338 0.16432 0.0
C155 C 0.22561 0.49672 0.15081 0.0
C156 C 0.2788 0.53861 0.13745 0.0
C157 C 0.27363 0.54348 0.10386 0.0
C158 C 0.29506 0.59599 0.15223 0.0
C159 C 0.31908 0.51127 0.14509 0.0
C160 C 0.29287 0.46223 0.16073 0.0
C161 C 0.32013 0.42783 0.16904 0.0
C162 C 0.37538 0.44345 0.16102 0.0
C163 C 0.4038 0.4934 0.14494 0.0
C164 C 0.37491 0.52801 0.13724 0.0
H165 H 0.79803 0.24712 0.51317 0.0
H166 H 0.84853 0.13476 0.46149 0.0
H167 H 0.93079 0.21488 0.44484 0.0
H168 H 0.83924 0.35938 0.46156 0.0
H169 H 0.86251 0.41367 0.48888 0.0
H170 H 0.80924 0.34721 0.49799 0.0
H171 H 0.86586 0.33578 0.54219 0.0
H172 H 0.91926 0.40235 0.53326 0.0
H173 H 0.93461 0.34048 0.536 0.0
H174 H 1.00481 0.3081 0.43156 0.0
H175 H 0.06742 0.40748 0.42471 0.0
H176 H 0.96927 0.45855 0.48524 0.0
C177 C 0.82686 0.23936 0.4987 0.0
C178 C 0.81724 0.18484 0.4887 0.0
C179 C 0.85542 0.17626 0.46951 0.0
C180 C 0.90215 0.22148 0.4599 0.0
C181 C 0.91013 0.27493 0.4698 0.0
C182 C 0.87377 0.28403 0.48895 0.0
C183 C 0.89119 0.34571 0.49574 0.0
C184 C 0.84797 0.36777 0.48542 0.0
C185 C 0.90346 0.35671 0.52876 0.0
C186 C 0.94277 0.36992 0.47726 0.0
C187 C 0.95297 0.32844 0.4624 0.0
C188 C 0.99748 0.34085 0.44328 0.0
C189 C 1.03262 0.39712 0.43942 0.0
C190 C 1.02307 0.43995 0.45466 0.0
C191 C 0.97763 0.42615 0.47376 0.0
H192 H 0.71401 0.81163 0.79777 0.0
H193 H 0.59582 0.74494 0.86859 0.0
H194 H 0.57675 0.8312 0.86758 0.0
H195 H 0.76783 0.95538 0.82092 0.0
H196 H 0.77461 0.9841 0.7841 0.0
H197 H 0.77907 0.91716 0.79017 0.0
H198 H 0.70138 0.87179 0.75263 0.0
H199 H 0.69675 0.93866 0.74644 0.0
H200 H 0.63709 0.87913 0.75769 0.0
H201 H 0.5712 0.92503 0.85943 0.0
H202 H 0.57723 0.01881 0.84359 0.0
H203 H 0.69837 0.02608 0.77772 0.0
C204 C 0.68423 0.81535 0.8131 0.0
C205 C 0.65658 0.77164 0.83343 0.0
C206 C 0.6175 0.77781 0.85289 0.0
C207 C 0.60646 0.82673 0.85248 0.0
C208 C 0.6345 0.86912 0.8323 0.0
C209 C 0.67233 0.86386 0.81279 0.0
C210 C 0.6961 0.91552 0.79305 0.0
C211 C 0.75809 0.94477 0.79733 0.0
C212 C 0.68199 0.90035 0.76052 0.0
C213 C 0.66634 0.95096 0.80479 0.0
C214 C 0.63097 0.92322 0.82742 0.0
C215 C 0.59888 0.94712 0.84181 0.0
C216 C 0.60284 1.00055 0.83284 0.0
C217 C 0.63864 0.02992 0.80973 0.0
C218 C 0.67074 1.0046 0.79548 0.0
H219 H 0.87136 0.5906 0.13053 0.0
H220 H 0.8389 0.42739 0.16914 0.0
H221 H 0.73958 0.40602 0.16749 0.0
H222 H 0.7667 0.61806 0.16951 0.0
H223 H 0.74922 0.65268 0.13894 0.0
H224 H 0.81735 0.65403 0.14188 0.0
H225 H 0.80949 0.61182 0.08962 0.0
H226 H 0.74139 0.61058 0.0865 0.0
H227 H 0.75324 0.5472 0.08145 0.0
H228 H 0.64202 0.40371 0.16247 0.0
H229 H 0.55701 0.41938 0.15361 0.0
H230 H 0.65191 0.58528 0.11944 0.0
C231 C 0.84332 0.5501 0.13841 0.0
C232 C 0.86336 0.51002 0.14932 0.0
C233 C 0.82498 0.45796 0.15972 0.0
C234 C 0.76828 0.44581 0.15918 0.0
C235 C 0.74996 0.48618 0.14824 0.0
C236 C 0.78649 0.53729 0.13791 0.0
C237 C 0.75633 0.5737 0.12751 0.0
C238 C 0.77343 0.62783 0.14554 0.0
C239 C 0.76569 0.58659 0.0943 0.0
C240 C 0.69717 0.53558 0.13387 0.0
C241 C 0.69438 0.4852 0.14578 0.0
C242 C 0.64411 0.44318 0.15329 0.0
C243 C 0.59585 0.45262 0.14842 0.0
C244 C 0.59733 0.50376 0.13619 0.0
C245 C 0.64912 0.54577 0.12891 0.0
H246 H 0.41303 0.79564 0.50216 0.0
H247 H 0.34784 0.9255 0.50001 0.0
H248 H 0.25444 0.85337 0.4951 0.0
H249 H 0.32841 0.71474 0.44635 0.0
H250 H 0.32062 0.64806 0.46224 0.0
H251 H 0.38095 0.70909 0.46967 0.0
H252 H 0.36276 0.69242 0.52581 0.0
H253 H 0.302 0.63144 0.51855 0.0
H254 H 0.29802 0.68704 0.54096 0.0
H255 H 0.16934 0.76812 0.48745 0.0
H256 H 0.09985 0.67658 0.47216 0.0
H257 H 0.22055 0.60284 0.47651 0.0
C258 C 0.37886 0.80864 0.5012 0.0
C259 C 0.38716 0.86583 0.50181 0.0
C260 C 0.34198 0.88172 0.49973 0.0
C261 C 0.28889 0.84108 0.49713 0.0
C262 C 0.28194 0.7849 0.4964 0.0
C263 C 0.32574 0.76866 0.49804 0.0
C264 C 0.30788 0.70617 0.49357 0.0
C265 C 0.33613 0.69382 0.46634 0.0
C266 C 0.31829 0.67759 0.52138 0.0
C267 C 0.24736 0.68996 0.48856 0.0
C268 C 0.23305 0.73582 0.49092 0.0
C269 C 0.17992 0.73183 0.48586 0.0
C270 C 0.14077 0.67997 0.47735 0.0
C271 C 0.15527 0.63335 0.47365 0.0
C272 C 0.20877 0.63803 0.47987 0.0
H273 H 0.61604 0.47056 0.79562 0.0
H274 H 0.56616 0.44595 0.8876 0.0
H275 H 0.57579 0.35486 0.8879 0.0
H276 H 0.54092 0.31886 0.77815 0.0
H277 H 0.59037 0.31992 0.75056 0.0
H278 H 0.57741 0.38218 0.75759 0.0
H279 H 0.67781 0.4325 0.76355 0.0
H280 H 0.69666 0.37273 0.76316 0.0
H281 H 0.71227 0.41909 0.79446 0.0
H282 H 0.5813 0.26305 0.8771 0.0
H283 H 0.59205 0.17969 0.85757 0.0
H284 H 0.65333 0.26797 0.77501 0.0
C285 C 0.60767 0.44604 0.81582 0.0
C286 C 0.59073 0.46527 0.8417 0.0
C287 C 0.57916 0.43183 0.86759 0.0
C288 C 0.5844 0.38003 0.86795 0.0
C289 C 0.60053 0.36178 0.84209 0.0
C290 C 0.61167 0.39343 0.81641 0.0
C291 C 0.62629 0.36261 0.79148 0.0
C292 C 0.58107 0.34486 0.76807 0.0
C293 C 0.68158 0.39859 0.77738 0.0
C294 C 0.62671 0.31129 0.80803 0.0
C295 C 0.60864 0.31042 0.83669 0.0
C296 C 0.59735 0.26391 0.85504 0.0
C297 C 0.6045 0.21681 0.84385 0.0
C298 C 0.62535 0.21696 0.815 0.0
C299 C 0.6373 0.2657 0.79712 0.0
H300 H 0.69267 0.8893 0.53891 0.0
H301 H 0.54898 0.86695 0.48718 0.0
H302 H 0.51823 0.76427 0.49258 0.0
H303 H 0.71668 0.77624 0.50437 0.0
H304 H 0.74263 0.75651 0.53742 0.0
H305 H 0.75019 0.82805 0.53185 0.0
H306 H 0.7015 0.82536 0.58194 0.0
H307 H 0.69355 0.75366 0.58752 0.0
H308 H 0.63463 0.77197 0.58852 0.0
H309 H 0.50197 0.66333 0.50575 0.0
H310 H 0.50727 0.573 0.52049 0.0
H311 H 0.66944 0.66261 0.55458 0.0
C312 C 0.65453 0.86276 0.52893 0.0
C313 C 0.62179 0.88589 0.51379 0.0
C314 C 0.5731 0.84996 0.50019 0.0
C315 C 0.55569 0.79162 0.50284 0.0
C316 C 0.58852 0.77004 0.51833 0.0
C317 C 0.63753 0.80455 0.53056 0.0
C318 C 0.66736 0.77098 0.54408 0.0
C319 C 0.72247 0.7837 0.52849 0.0
C320 C 0.67467 0.78112 0.57749 0.0
C321 C 0.62736 0.71228 0.53772 0.0
C322 C 0.58161 0.7124 0.52339 0.0
C323 C 0.53798 0.66277 0.51662 0.0
C324 C 0.54138 0.61181 0.52485 0.0
C325 C 0.58845 0.61111 0.53905 0.0
C326 C 0.63218 0.66197 0.54493 0.0
H327 H 0.74762 0.4793 0.84635 0.0
H328 H 0.85457 0.62734 0.799 0.0
H329 H 0.91652 0.5794 0.78727 0.0
H330 H 0.85138 0.45542 0.88007 0.0
H331 H 0.82002 0.37995 0.88021 0.0
H332 H 0.77818 0.42028 0.87984 0.0
H333 H 0.73062 0.36872 0.83353 0.0
H334 H 0.77274 0.32867 0.8331 0.0
H335 H 0.77024 0.36837 0.80087 0.0
H336 H 0.97407 0.52578 0.78997 0.0
H337 H 1.02539 0.47299 0.80904 0.0
H338 H 0.87741 0.34907 0.84655 0.0
C339 C 0.78359 0.50111 0.83298 0.0
C340 C 0.79669 0.5569 0.82348 0.0
C341 C 0.84422 0.58464 0.80649 0.0
C342 C 0.87905 0.55743 0.79939 0.0
C343 C 0.86512 0.50236 0.80909 0.0
C344 C 0.81838 0.47422 0.82546 0.0
C345 C 0.81761 0.41896 0.83733 0.0
C346 C 0.81687 0.41868 0.87136 0.0
C347 C 0.7699 0.36828 0.82538 0.0
C348 C 0.87134 0.42074 0.8252 0.0
C349 C 0.89809 0.46929 0.8091 0.0
C350 C 0.95275 0.48632 0.80126 0.0
C351 C 0.98161 0.45509 0.81182 0.0
C352 C 0.95536 0.40594 0.8291 0.0
C353 C 0.89848 0.38627 0.83344 0.0
H354 H 0.15074 0.73228 0.18905 0.0
H355 H 0.20338 0.66136 0.11426 0.0
H356 H 0.29406 0.73828 0.11586 0.0
H357 H 0.22902 0.88164 0.16872 0.0
H358 H 0.24472 0.90179 0.20664 0.0
H359 H 0.18198 0.84448 0.19765 0.0
H360 H 0.20739 0.77967 0.23326 0.0
H361 H 0.27027 0.83655 0.24218 0.0
H362 H 0.27153 0.77194 0.22835 0.0
H363 H 0.38136 0.81395 0.12969 0.0
H364 H 0.45931 0.88809 0.15338 0.0
H365 H 0.34947 0.91504 0.21667 0.0
C366 C 0.18107 0.73383 0.17265 0.0
C367 C 0.17038 0.69137 0.15148 0.0
C368 C 0.21092 0.69396 0.13052 0.0
C369 C 0.26245 0.73742 0.13123 0.0
C370 C 0.27223 0.77822 0.15272 0.0
C371 C 0.23258 0.77732 0.17284 0.0
C372 C 0.2548 0.82452 0.19473 0.0
C373 C 0.22591 0.86555 0.19174 0.0
C374 C 0.25075 0.80178 0.2265 0.0
C375 C 0.31347 0.85088 0.18432 0.0
C376 C 0.32259 0.8236 0.16002 0.0
C377 C 0.37455 0.83684 0.14815 0.0
C378 C 0.41845 0.87907 0.16159 0.0
C379 C 0.40984 0.90778 0.18631 0.0
C380 C 0.35666 0.89397 0.19753 0.0
H381 H 0.52325 0.14739 0.55052 0.0
H382 H 0.65528 0.17629 0.48777 0.0
H383 H 0.67421 0.27747 0.48754 0.0
H384 H 0.47389 0.24491 0.51823 0.0
H385 H 0.45661 0.26763 0.55297 0.0
H386 H 0.45532 0.19786 0.54954 0.0
H387 H 0.52242 0.21552 0.59328 0.0
H388 H 0.52348 0.28516 0.59703 0.0
H389 H 0.58646 0.27512 0.59204 0.0
H390 H 0.67813 0.37554 0.49395 0.0
H391 H 0.66737 0.46354 0.50743 0.0
H392 H 0.52978 0.36977 0.56348 0.0
C393 C 0.55645 0.17515 0.53697 0.0
C394 C 0.58841 0.15432 0.51952 0.0
C395 C 0.63107 0.19166 0.50176 0.0
C396 C 0.64181 0.2491 0.5013 0.0
C397 C 0.6091 0.26828 0.51849 0.0
C398 C 0.56731 0.23247 0.53601 0.0
C399 C 0.53745 0.26355 0.55192 0.0
C400 C 0.47726 0.24221 0.5426 0.0
C401 C 0.5428 0.2596 0.58556 0.0
C402 C 0.56896 0.3224 0.54062 0.0
C403 C 0.6102 0.32433 0.5214 0.0
C404 C 0.64564 0.37447 0.50874 0.0
C405 C 0.63906 0.424 0.51624 0.0
C406 C 0.59715 0.42271 0.53591 0.0
C407 C 0.56158 0.3713 0.54807 0.0
H408 H 0.39062 0.49962 0.86146 0.0
H409 H 0.40303 0.66756 0.84011 0.0
H410 H 0.30246 0.63643 0.84649 0.0
H411 H 0.27066 0.42576 0.82472 0.0
H412 H 0.24373 0.37107 0.85211 0.0
H413 H 0.31633 0.40775 0.84809 0.0
H414 H 0.32389 0.43474 0.90338 0.0
H415 H 0.25126 0.39761 0.90769 0.0
H416 H 0.2827 0.47022 0.91792 0.0
H417 H 0.20083 0.58285 0.84814 0.0
H418 H 0.10535 0.5142 0.85147 0.0
H419 H 0.16116 0.38384 0.87638 0.0
C420 C 0.37216 0.53002 0.85849 0.0
C421 C 0.40365 0.58569 0.85006 0.0
C422 C 0.37892 0.62474 0.84661 0.0
C423 C 0.32217 0.60735 0.85015 0.0
C424 C 0.29196 0.55148 0.85784 0.0
C425 C 0.31633 0.51377 0.8626 0.0
C426 C 0.27511 0.45592 0.87018 0.0
C427 C 0.27657 0.41261 0.84741 0.0
C428 C 0.28376 0.43863 0.90167 0.0
C429 C 0.22314 0.46624 0.86802 0.0
C430 C 0.23375 0.52158 0.86072 0.0
C431 C 0.19213 0.54 0.85474 0.0
C432 C 0.13839 0.501 0.85661 0.0
C433 C 0.12693 0.44486 0.86505 0.0
C434 C 0.16956 0.42709 0.87075 0.0
H435 H 0.77256 0.30486 0.16742 0.0
H436 H 0.87815 0.21385 0.15583 0.0
H437 H 0.801 0.12504 0.16783 0.0
H438 H 0.7051 0.22822 0.23081 0.0
H439 H 0.63931 0.2293 0.22216 0.0
H440 H 0.70058 0.28497 0.2092 0.0
H441 H 0.66614 0.26698 0.15538 0.0
H442 H 0.60436 0.21172 0.16816 0.0
H443 H 0.64594 0.19762 0.14034 0.0
H444 H 0.71305 0.04706 0.18016 0.0
H445 H 0.61996 0.98424 0.19601 0.0
H446 H 0.5746 0.12661 0.20591 0.0
C447 C 0.77878 0.2659 0.16676 0.0
C448 C 0.83044 0.26531 0.16016 0.0
C449 C 0.83831 0.21439 0.16049 0.0
C450 C 0.79492 0.16402 0.16728 0.0
C451 C 0.74456 0.16591 0.17431 0.0
C452 C 0.73629 0.21547 0.17438 0.0
C453 C 0.67935 0.20633 0.18507 0.0
C454 C 0.68123 0.23916 0.2135 0.0
C455 C 0.64704 0.22155 0.16078 0.0
C456 C 0.65696 0.14389 0.19095 0.0
C457 C 0.69508 0.12139 0.18414 0.0
C458 C 0.68321 0.06423 0.18617 0.0
C459 C 0.6308 0.02907 0.19536 0.0
C460 C 0.59199 0.05146 0.20341 0.0
C461 C 0.6049 0.10938 0.20101 0.0
H462 H 0.99299 0.38806 0.06004 0.0
H463 H 0.05178 0.56964 0.05821 0.0
H464 H 0.07842 0.57025 0.00609 0.0
H465 H 0.09899 0.37699 0.01195 0.0
H466 H 0.05292 0.31524 0.99373 0.0
H467 H 0.0404 0.32853 0.0315 0.0
H468 H 0.94357 0.32275 0.01778 0.0
H469 H 0.95551 0.30824 0.98022 0.0
H470 H 0.93613 0.36619 0.98825 0.0
H471 H 0.08959 0.55132 0.95362 0.0
H472 H 0.08171 0.51318 0.90351 0.0
H473 H 1.02439 0.34504 0.93915 0.0
C474 C 1.0113 0.42792 0.04865 0.0
C475 C 1.02017 0.47877 0.06317 0.0
C476 C 0.04465 0.53011 0.04756 0.0
C477 C 0.06025 0.53097 0.018 0.0
C478 C 0.05175 0.48023 0.00447 0.0
C479 C 1.02776 0.42963 0.01919 0.0
C480 C 1.02108 0.38103 0.99903 0.0
C481 C 0.05541 0.34854 0.0097 0.0
C482 C 0.96048 0.3423 0.99615 0.0
C483 C 0.04366 0.41224 0.97049 0.0
C484 C 0.06147 0.46948 0.97423 0.0
C485 C 0.07782 0.50679 0.95052 0.0
C486 C 0.07423 0.48492 0.92212 0.0
C487 C 0.0557 0.42652 0.91779 0.0
C488 C 0.04148 0.38992 0.9423 0.0
H489 H 0.51879 0.02111 0.40861 0.0
H490 H 0.68504 0.02922 0.40797 0.0
H491 H 0.68415 0.02686 0.35348 0.0
H492 H 0.46929 0.92894 0.34882 0.0
H493 H 0.4279 0.96371 0.33373 0.0
H494 H 0.44214 0.96762 0.37263 0.0
H495 H 0.48174 0.07605 0.3694 0.0
H496 H 0.46762 0.07244 0.33044 0.0
H497 H 0.53582 0.11141 0.34339 0.0
H498 H 0.66086 0.01176 0.29981 0.0
H499 H 0.61973 0.99376 0.25042 0.0
H500 H 0.47399 0.00928 0.28487 0.0
C501 C 0.555 0.02263 0.39692 0.0
C502 C 0.60187 0.025 0.41233 0.0
C503 C 0.64879 0.02755 0.39645 0.0
C504 C 0.64865 0.02618 0.36556 0.0
C505 C 0.60173 0.02361 0.35095 0.0
C506 C 0.55607 0.02281 0.36605 0.0
C507 C 0.51105 0.02021 0.34501 0.0
C508 C 0.45957 0.96695 0.35037 0.0
C509 C 0.49833 0.07319 0.3472 0.0
C510 C 0.53798 0.018 0.31582 0.0
C511 C 0.59013 0.01966 0.31973 0.0
C512 C 0.62086 0.01249 0.29629 0.0
C513 C 0.59751 1.00315 0.26813 0.0
C514 C 0.54461 1.00246 0.26357 0.0
C515 C 0.51497 0.01073 0.28774 0.0
H516 H 0.53253 0.58931 0.73892 0.0
H517 H 0.70366 0.69636 0.74643 0.0
H518 H 0.71331 0.69939 0.69233 0.0
H519 H 0.54899 0.50551 0.68684 0.0
H520 H 0.48855 0.49467 0.66561 0.0
H521 H 0.49038 0.51209 0.704 0.0
H522 H 0.46669 0.59772 0.69111 0.0
H523 H 0.46415 0.58014 0.65255 0.0
H524 H 0.50811 0.64892 0.66467 0.0
H525 H 0.71121 0.67165 0.64101 0.0
H526 H 0.6946 0.62144 0.59365 0.0
H527 H 0.52406 0.5367 0.61618 0.0
C528 C 0.57113 0.61549 0.72891 0.0
C529 C 0.61723 0.64332 0.74651 0.0
C530 C 0.6679 0.6753 0.73307 0.0
C531 C 0.67369 0.67739 0.7024 0.0
C532 C 0.6283 0.64734 0.6855 0.0
C533 C 0.57766 0.6176 0.69812 0.0
C534 C 0.53773 0.58277 0.67515 0.0
C535 C 0.51513 0.52008 0.6834 0.0
C536 C 0.49142 0.60366 0.6706 0.0
C537 C 0.57475 0.59503 0.64824 0.0
C538 C 0.62664 0.633 0.6547 0.0
C539 C 0.67018 0.64428 0.63508 0.0
C540 C 0.66048 0.61606 0.60819 0.0
C541 C 0.60751 0.57857 0.60078 0.0
C542 C 0.56412 0.56789 0.62096 0.0
H543 H 0.67822 0.09088 0.60405 0.0
H544 H 0.54224 0.92972 0.60172 0.0
H545 H 0.53905 0.9272 0.65614 0.0
H546 H 0.74309 0.06402 0.67146 0.0
H547 H 0.76168 0.1348 0.68414 0.0
H548 H 0.75768 0.12053 0.64515 0.0
H549 H 0.68927 0.16926 0.63904 0.0
H550 H 0.69326 0.18375 0.67789 0.0
H551 H 0.62793 0.14587 0.66124 0.0
H552 H 0.54428 0.9472 0.71095 0.0
H553 H 0.55636 0.99053 0.76064 0.0
H554 H 0.68902 0.13656 0.72678 0.0
C555 C 0.64848 0.05447 0.61493 0.0
C556 C 0.61064 0.01047 0.59854 0.0
C557 C 0.57176 0.96403 0.61374 0.0
C558 C 0.56977 0.96202 0.64469 0.0
C559 C 0.60715 1.00656 0.66019 0.0
C560 C 0.64587 0.05185 0.64577 0.0
C561 C 0.67838 0.09651 0.6673 0.0
C562 C 0.73879 0.1044 0.66699 0.0
C563 C 0.67177 0.1521 0.66099 0.0
C564 C 0.65084 0.07013 0.69596 0.0
C565 C 0.61031 0.01787 0.69159 0.0
C566 C 0.57659 0.98762 0.71471 0.0
C567 C 0.58369 0.01219 0.74279 0.0
C568 C 0.62395 0.06625 0.74721 0.0
C569 C 0.65862 0.09471 0.72374 0.0
H570 H 0.5942 0.65821 0.94497 0.0
H571 H 0.67186 0.54277 0.92476 0.0
H572 H 0.66401 0.51338 0.97714 0.0
H573 H 0.65904 0.69839 0.01914 0.0
H574 H 0.59863 0.70386 0.03455 0.0
H575 H 0.61497 0.7193 0.99602 0.0
H576 H 0.51964 0.64625 0.98199 0.0
H577 H 0.50317 0.6305 0.02038 0.0
H578 H 0.49886 0.57522 0.99531 0.0
H579 H 0.6321 0.48468 0.02962 0.0
H580 H 0.58756 0.4667 0.0788 0.0
H581 H 0.54434 0.61054 0.06718 0.0
C582 C 0.61063 0.6277 0.95177 0.0
C583 C 0.63382 0.60289 0.93093 0.0
C584 C 0.65461 0.56283 0.9405 0.0
C585 C 0.65017 0.54574 0.97018 0.0
C586 C 0.62624 0.57028 0.99017 0.0
C587 C 0.60802 0.6114 0.98149 0.0
C588 C 0.58249 0.62994 0.00714 0.0
C589 C 0.61579 0.69153 0.01466 0.0
C590 C 0.5225 0.61985 1.00081 0.0
C591 C 0.58698 0.59114 0.03122 0.0
C592 C 0.61206 0.55678 0.02104 0.0
C593 C 0.61416 0.51266 0.0382 0.0
C594 C 0.58915 0.50294 0.06621 0.0
C595 C 0.56355 0.53797 0.07703 0.0
C596 C 0.56422 0.58358 0.05955 0.0
H597 H 0.08272 0.51576 0.2511 0.0
H598 H 0.90595 0.43742 0.25169 0.0
H599 H 0.90609 0.43329 0.3063 0.0
H600 H 0.10192 0.43286 0.31242 0.0
H601 H 0.15989 0.49033 0.32658 0.0
H602 H 0.14564 0.48617 0.28763 0.0
H603 H 0.14365 0.58552 0.28856 0.0
H604 H 0.15811 0.59004 0.32743 0.0
H605 H 0.09866 0.60008 0.3141 0.0
H606 H 0.9259 0.44638 0.36104 0.0
H607 H 0.96431 0.47226 0.4111 0.0
H608 H 0.1277 0.53071 0.37439 0.0
C609 C 0.04408 0.4978 0.26277 0.0
C610 C 0.99428 0.47742 0.24735 0.0
C611 C 0.94452 0.45332 0.26323 0.0
C612 C 0.94422 0.45074 0.29418 0.0
C613 C 0.9941 0.47121 0.30878 0.0
C614 C 0.04313 0.49361 0.29356 0.0
C615 C 0.09108 0.5126 0.31439 0.0
C616 C 0.12673 0.47844 0.30999 0.0
C617 C 0.12484 0.5758 0.31091 0.0
C618 C 0.06139 0.49908 0.34374 0.0
C619 C 1.00546 0.47534 0.34013 0.0
C620 C 0.96965 0.46385 0.36415 0.0
C621 C 0.99168 0.47826 0.39248 0.0
C622 C 0.04883 0.50321 0.39646 0.0
C623 C 0.08386 0.51191 0.37184 0.0
loop_
_geom_bond_atom_site_label_1
_geom_bond_atom_site_label_2
_geom_bond_distance
_geom_bond_site_symmetry_2
_ccdc_geom_bond_type
Tb0 O3 2.453 1_455 S
Tb0 O4 2.596 1_455 S
Tb0 O5 2.374 . S
Tb0 O13 2.343 . S
Tb0 O15 2.353 . S
Tb0 O17 2.427 . S
Tb0 O18 2.513 . S
C1 O5 1.251 1_655 S
C1 O7 1.263 . S
Tb2 O4 2.343 . S
Tb2 O7 2.353 . S
Tb2 O10 2.427 . S
Tb2 O11 2.513 . S
Tb2 O12 2.453 1_655 S
Tb2 O13 2.596 1_655 S
Tb2 O14 2.374 . S
O3 Tb0 2.453 1_655 S
O3 C19 1.245 . S
O4 Tb0 2.596 1_655 S
O4 Tb2 2.343 . S
O4 C19 1.259 . S
O5 Tb0 2.374 . S
O5 C1 1.251 1_455 S
C6 O10 1.275 . S
C6 O11 1.246 . S
O7 C1 1.263 . S
O7 Tb2 2.353 . S
C8 O12 1.245 . S
C8 O13 1.259 . S
C9 O14 1.250 1_455 S
C9 O15 1.263 . S
O10 Tb2 2.427 . S
O10 C6 1.275 . S
O11 Tb2 2.513 . S
O11 C6 1.246 . S
O12 Tb2 2.453 1_455 S
O12 C8 1.245 . S
O13 Tb0 2.343 . S
O13 Tb2 2.596 1_455 S
O13 C8 1.259 . S
O14 Tb2 2.374 . S
O14 C9 1.250 1_655 S
O15 Tb0 2.353 . S
O15 C9 1.263 . S
C16 O17 1.275 . S
C16 O18 1.246 . S
O17 Tb0 2.427 . S
O17 C16 1.275 . S
O18 Tb0 2.513 . S
O18 C16 1.246 . S
C19 O3 1.245 . S
C19 O4 1.259 . S
Tb20 O23 2.444 1_565 S
Tb20 O24 2.591 1_565 S
Tb20 O25 2.374 1_565 S
Tb20 O33 2.350 . S
Tb20 O35 2.354 1_565 S
Tb20 O37 2.433 . S
Tb20 O38 2.520 . S
C21 O25 1.251 . S
C21 O27 1.263 . S
Tb22 O24 2.343 . S
Tb22 O27 2.353 . S
Tb22 O30 2.427 . S
Tb22 O31 2.513 . S
Tb22 O32 2.453 1_545 S
Tb22 O33 2.596 1_545 S
Tb22 O34 2.374 . S
O23 Tb20 2.444 1_545 S
O23 C39 1.245 . S
O24 Tb20 2.591 1_545 S
O24 Tb22 2.343 . S
O24 C39 1.259 . S
O25 Tb20 2.374 1_545 S
O25 C21 1.251 . S
C26 O30 1.275 . S
C26 O31 1.246 . S
O27 C21 1.263 . S
O27 Tb22 2.353 . S
C28 O32 1.245 . S
C28 O33 1.259 . S
C29 O34 1.250 . S
C29 O35 1.263 . S
O30 Tb22 2.427 . S
O30 C26 1.275 . S
O31 Tb22 2.513 . S
O31 C26 1.246 . S
O32 Tb22 2.453 1_565 S
O32 C28 1.245 . S
O33 Tb20 2.350 . S
O33 Tb22 2.596 1_565 S
O33 C28 1.259 . S
O34 Tb22 2.374 . S
O34 C29 1.250 . S
O35 Tb20 2.354 1_545 S
O35 C29 1.263 . S
C36 O37 1.275 . S
C36 O38 1.246 . S
O37 Tb20 2.433 . S
O37 C36 1.275 . S
O38 Tb20 2.520 . S
O38 C36 1.246 . S
C39 O23 1.245 . S
C39 O24 1.259 . S
Tb40 O43 2.453 . S
Tb40 O44 2.596 . S
Tb40 O45 2.374 . S
Tb40 O53 2.343 . S
Tb40 O55 2.353 . S
Tb40 O57 2.427 . S
Tb40 O58 2.513 . S
C41 O45 1.251 . S
C41 O47 1.263 . S
Tb42 O44 2.343 . S
Tb42 O47 2.353 . S
Tb42 O50 2.427 . S
Tb42 O51 2.513 . S
Tb42 O52 2.453 . S
Tb42 O53 2.596 . S
Tb42 O54 2.374 . S
O43 Tb40 2.453 . S
O43 C59 1.245 . S
O44 Tb40 2.596 . S
O44 Tb42 2.343 . S
O44 C59 1.259 . S
O45 Tb40 2.374 . S
O45 C41 1.251 . S
C46 O50 1.275 . S
C46 O51 1.246 . S
O47 C41 1.263 . S
O47 Tb42 2.353 . S
C48 O52 1.245 . S
C48 O53 1.259 . S
C49 O54 1.250 . S
C49 O55 1.263 . S
O50 Tb42 2.427 . S
O50 C46 1.275 . S
O51 Tb42 2.513 . S
O51 C46 1.246 . S
O52 Tb42 2.453 . S
O52 C48 1.245 . S
O53 Tb40 2.343 . S
O53 Tb42 2.596 . S
O53 C48 1.259 . S
O54 Tb42 2.374 . S
O54 C49 1.250 . S
O55 Tb40 2.353 . S
O55 C49 1.263 . S
C56 O57 1.275 . S
C56 O58 1.246 . S
O57 Tb40 2.427 . S
O57 C56 1.275 . S
O58 Tb40 2.513 . S
O58 C56 1.246 . S
C59 O43 1.245 . S
C59 O44 1.259 . S
C60 N61 1.317 1_565 S
C60 N62 1.348 . S
C60 C63 1.485 . S
N61 C60 1.317 1_545 S
N61 N65 1.370 . S
N62 C60 1.348 . S
N62 C64 1.346 . S
C63 C60 1.485 . S
C63 H67 0.960 1_565 S
C63 H68 0.961 . S
C63 H69 0.960 1_565 S
C64 N62 1.346 . S
C64 N65 1.307 1_565 S
C64 C66 1.486 . S
N65 N61 1.370 . S
N65 C64 1.307 1_545 S
C66 C64 1.486 . S
C66 H70 0.960 . S
C66 H71 0.960 . S
C66 H72 0.959 . S
H67 C63 0.960 1_545 S
H68 C63 0.961 . S
H69 C63 0.960 1_545 S
H70 C66 0.960 . S
H71 C66 0.960 . S
H72 C66 0.959 . S
C73 N74 1.317 . S
C73 N75 1.348 . S
C73 C76 1.485 . S
N74 C73 1.317 . S
N74 N78 1.370 . S
N75 C73 1.348 . S
N75 C77 1.346 . S
C76 C73 1.485 . S
C76 H80 0.960 . S
C76 H81 0.961 . S
C76 H82 0.960 . S
C77 N75 1.346 . S
C77 N78 1.307 . S
C77 C79 1.486 . S
N78 N74 1.370 . S
N78 C77 1.307 . S
C79 C77 1.486 . S
C79 H83 0.960 . S
C79 H84 0.960 . S
C79 H85 0.959 . S
H80 C76 0.960 . S
H81 C76 0.961 . S
H82 C76 0.960 . S
H83 C79 0.960 . S
H84 C79 0.960 . S
H85 C79 0.959 . S
C86 N87 1.317 . S
C86 N88 1.348 . S
C86 C89 1.485 . S
N87 C86 1.317 . S
N87 N91 1.370 . S
N88 C86 1.348 . S
N88 C90 1.346 . S
C89 C86 1.485 . S
C89 H93 0.960 . S
C89 H94 0.961 . S
C89 H95 0.960 . S
C90 N88 1.346 . S
C90 N91 1.307 . S
C90 C92 1.486 1_455 S
N91 N87 1.370 . S
N91 C90 1.307 . S
C92 C90 1.486 1_655 S
C92 H96 0.960 . S
C92 H97 0.960 . S
C92 H98 0.959 . S
H93 C89 0.960 . S
H94 C89 0.961 . S
H95 C89 0.960 . S
H96 C92 0.960 . S
H97 C92 0.960 . S
H98 C92 0.959 . S
C99 N100 1.317 1_455 S
C99 N101 1.348 . S
C99 C102 1.485 . S
N100 C99 1.317 1_655 S
N100 N104 1.370 1_655 S
N101 C99 1.348 . S
N101 C103 1.346 . S
C102 C99 1.485 . S
C102 H106 0.977 . S
C102 H107 0.961 . S
C102 H108 0.960 1_455 S
C103 N101 1.346 . S
C103 N104 1.307 . S
C103 C105 1.486 . S
N104 N100 1.370 1_455 S
N104 C103 1.307 . S
C105 C103 1.486 . S
C105 H109 0.960 . S
C105 H110 0.960 . S
C105 H111 0.959 . S
H106 C102 0.977 . S
H107 C102 0.961 . S
H108 C102 0.960 1_655 S
H109 C105 0.960 . S
H110 C105 0.960 . S
H111 C105 0.959 . S
C112 N113 1.317 . S
C112 N114 1.348 . S
C112 C115 1.485 . S
N113 C112 1.317 . S
N113 N117 1.370 . S
N114 C112 1.348 . S
N114 C116 1.346 . S
C115 C112 1.485 . S
C115 H119 0.960 . S
C115 H120 0.961 . S
C115 H121 0.960 . S
C116 N114 1.346 . S
C116 N117 1.307 . S
C116 C118 1.486 . S
N117 N113 1.370 . S
N117 C116 1.307 . S
C118 C116 1.486 . S
C118 H122 0.960 . S
C118 H123 0.960 . S
C118 H124 0.959 . S
H119 C115 0.960 . S
H120 C115 0.961 . S
H121 C115 0.960 . S
H122 C118 0.960 . S
H123 C118 0.960 . S
H124 C118 0.959 . S
C125 N126 1.317 . S
C125 N127 1.348 . S
C125 C128 1.485 . S
N126 C125 1.317 . S
N126 N130 1.370 . S
N127 C125 1.348 . S
N127 C129 1.346 . S
C128 C125 1.485 . S
C128 H132 0.960 . S
C128 H133 0.961 . S
C128 H134 0.960 . S
C129 N127 1.346 . S
C129 N130 1.307 . S
C129 C131 1.486 . S
N130 N126 1.370 . S
N130 C129 1.307 . S
C131 C129 1.486 . S
C131 H135 0.960 . S
C131 H136 0.960 . S
C131 H137 0.959 . S
H132 C128 0.960 . S
H133 C128 0.961 . S
H134 C128 0.960 . S
H135 C131 0.960 . S
H136 C131 0.960 . S
H137 C131 0.959 . S
H138 C150 0.930 . S
H139 C152 0.930 . S
H140 C153 0.930 . S
H141 C157 0.959 . S
H142 C157 0.959 . S
H143 C157 0.961 . S
H144 C158 0.960 . S
H145 C158 0.961 . S
H146 C158 0.959 . S
H147 C161 0.929 . S
H148 C162 0.931 . S
H149 C164 0.930 . S
C150 H138 0.930 . S
C150 C151 1.399 . S
C150 C155 1.399 . S
C151 C150 1.399 . S
C151 C152 1.376 . S
C152 H139 0.930 . S
C152 C151 1.376 . S
C152 C153 1.388 . S
C153 H140 0.930 . S
C153 C152 1.388 . S
C153 C154 1.390 . S
C154 C153 1.390 . S
C154 C155 1.394 . S
C154 C160 1.465 . S
C155 C150 1.399 . S
C155 C154 1.394 . S
C155 C156 1.516 . S
C156 C155 1.516 . S
C156 C157 1.502 . S
C156 C158 1.561 . S
C156 C159 1.526 . S
C157 H141 0.959 . S
C157 H142 0.959 . S
C157 H143 0.961 . S
C157 C156 1.502 . S
C158 H144 0.960 . S
C158 H145 0.961 . S
C158 H146 0.959 . S
C158 C156 1.561 . S
C159 C156 1.526 . S
C159 C160 1.396 . S
C159 C164 1.390 . S
C160 C154 1.465 . S
C160 C159 1.396 . S
C160 C161 1.399 . S
C161 H147 0.929 . S
C161 C160 1.399 . S
C161 C162 1.385 . S
C162 H148 0.931 . S
C162 C161 1.385 . S
C162 C163 1.389 . S
C163 C162 1.389 . S
C163 C164 1.387 . S
C164 H149 0.930 . S
C164 C159 1.390 . S
C164 C163 1.387 . S
H165 C177 0.930 . S
H166 C179 0.930 . S
H167 C180 0.930 . S
H168 C184 0.959 . S
H169 C184 0.959 . S
H170 C184 0.961 . S
H171 C185 0.960 . S
H172 C185 0.961 . S
H173 C185 0.959 . S
H174 C188 0.929 . S
H175 C189 0.931 . S
H176 C191 0.930 . S
C177 H165 0.930 . S
C177 C178 1.399 . S
C177 C182 1.399 . S
C178 C177 1.399 . S
C178 C179 1.376 . S
C179 H166 0.930 . S
C179 C178 1.376 . S
C179 C180 1.388 . S
C180 H167 0.930 . S
C180 C179 1.388 . S
C180 C181 1.390 . S
C181 C180 1.390 . S
C181 C182 1.394 . S
C181 C187 1.465 . S
C182 C177 1.399 . S
C182 C181 1.394 . S
C182 C183 1.516 . S
C183 C182 1.516 . S
C183 C184 1.502 . S
C183 C185 1.561 . S
C183 C186 1.526 . S
C184 H168 0.959 . S
C184 H169 0.959 . S
C184 H170 0.961 . S
C184 C183 1.502 . S
C185 H171 0.960 . S
C185 H172 0.961 . S
C185 H173 0.959 . S
C185 C183 1.561 . S
C186 C183 1.526 . S
C186 C187 1.396 . S
C186 C191 1.390 . S
C187 C181 1.465 . S
C187 C186 1.396 . S
C187 C188 1.399 . S
C188 H174 0.929 . S
C188 C187 1.399 . S
C188 C189 1.385 . S
C189 H175 0.931 . S
C189 C188 1.385 . S
C189 C190 1.389 . S
C190 C189 1.389 . S
C190 C191 1.387 . S
C191 H176 0.930 . S
C191 C186 1.390 . S
C191 C190 1.387 . S
H192 C204 0.930 . S
H193 C206 0.930 . S
H194 C207 0.930 . S
H195 C211 0.959 . S
H196 C211 0.959 . S
H197 C211 0.961 . S
H198 C212 0.960 . S
H199 C212 0.961 . S
H200 C212 0.959 . S
H201 C215 0.929 . S
H202 C216 0.931 . S
H203 C218 0.930 . S
C204 H192 0.930 . S
C204 C205 1.399 . S
C204 C209 1.399 . S
C205 C204 1.399 . S
C205 C206 1.376 . S
C206 H193 0.930 . S
C206 C205 1.376 . S
C206 C207 1.388 . S
C207 H194 0.930 . S
C207 C206 1.388 . S
C207 C208 1.390 . S
C208 C207 1.390 . S
C208 C209 1.394 . S
C208 C214 1.465 . S
C209 C204 1.399 . S
C209 C208 1.394 . S
C209 C210 1.516 . S
C210 C209 1.516 . S
C210 C211 1.502 . S
C210 C212 1.561 . S
C210 C213 1.526 . S
C211 H195 0.959 . S
C211 H196 0.959 . S
C211 H197 0.961 . S
C211 C210 1.502 . S
C212 H198 0.960 . S
C212 H199 0.961 . S
C212 H200 0.959 . S
C212 C210 1.561 . S
C213 C210 1.526 . S
C213 C214 1.396 . S
C213 C218 1.390 . S
C214 C208 1.465 . S
C214 C213 1.396 . S
C214 C215 1.399 . S
C215 H201 0.929 . S
C215 C214 1.399 . S
C215 C216 1.385 . S
C216 H202 0.931 . S
C216 C215 1.385 . S
C216 C217 1.389 . S
C217 C216 1.389 . S
C217 C218 1.387 . S
C218 H203 0.930 . S
C218 C213 1.390 . S
C218 C217 1.387 . S
H219 C231 0.930 . S
H220 C233 0.930 . S
H221 C234 0.930 . S
H222 C238 0.959 . S
H223 C238 0.959 . S
H224 C238 0.961 . S
H225 C239 0.960 . S
H226 C239 0.961 . S
H227 C239 0.959 . S
H228 C242 0.929 . S
H229 C243 0.931 . S
H230 C245 0.930 . S
C231 H219 0.930 . S
C231 C232 1.399 . S
C231 C236 1.399 . S
C232 C231 1.399 . S
C232 C233 1.376 . S
C233 H220 0.930 . S
C233 C232 1.376 . S
C233 C234 1.388 . S
C234 H221 0.930 . S
C234 C233 1.388 . S
C234 C235 1.390 . S
C235 C234 1.390 . S
C235 C236 1.394 . S
C235 C241 1.465 . S
C236 C231 1.399 . S
C236 C235 1.394 . S
C236 C237 1.516 . S
C237 C236 1.516 . S
C237 C238 1.502 . S
C237 C239 1.561 . S
C237 C240 1.526 . S
C238 H222 0.959 . S
C238 H223 0.959 . S
C238 H224 0.961 . S
C238 C237 1.502 . S
C239 H225 0.960 . S
C239 H226 0.961 . S
C239 H227 0.959 . S
C239 C237 1.561 . S
C240 C237 1.526 . S
C240 C241 1.396 . S
C240 C245 1.390 . S
C241 C235 1.465 . S
C241 C240 1.396 . S
C241 C242 1.399 . S
C242 H228 0.929 . S
C242 C241 1.399 . S
C242 C243 1.385 . S
C243 H229 0.931 . S
C243 C242 1.385 . S
C243 C244 1.389 . S
C244 C243 1.389 . S
C244 C245 1.387 . S
C245 H230 0.930 . S
C245 C240 1.390 . S
C245 C244 1.387 . S
H246 C258 0.930 . S
H247 C260 0.930 . S
H248 C261 0.930 . S
H249 C265 0.959 . S
H250 C265 0.959 . S
H251 C265 0.961 . S
H252 C266 0.960 . S
H253 C266 0.961 . S
H254 C266 0.959 . S
H255 C269 0.929 . S
H256 C270 0.931 . S
H257 C272 0.930 . S
C258 H246 0.930 . S
C258 C259 1.399 . S
C258 C263 1.399 . S
C259 C258 1.399 . S
C259 C260 1.376 . S
C260 H247 0.930 . S
C260 C259 1.376 . S
C260 C261 1.388 . S
C261 H248 0.930 . S
C261 C260 1.388 . S
C261 C262 1.390 . S
C262 C261 1.390 . S
C262 C263 1.394 . S
C262 C268 1.465 . S
C263 C258 1.399 . S
C263 C262 1.394 . S
C263 C264 1.516 . S
C264 C263 1.516 . S
C264 C265 1.502 . S
C264 C266 1.561 . S
C264 C267 1.526 . S
C265 H249 0.959 . S
C265 H250 0.959 . S
C265 H251 0.961 . S
C265 C264 1.502 . S
C266 H252 0.960 . S
C266 H253 0.961 . S
C266 H254 0.959 . S
C266 C264 1.561 . S
C267 C264 1.526 . S
C267 C268 1.396 . S
C267 C272 1.390 . S
C268 C262 1.465 . S
C268 C267 1.396 . S
C268 C269 1.399 . S
C269 H255 0.929 . S
C269 C268 1.399 . S
C269 C270 1.385 . S
C270 H256 0.931 . S
C270 C269 1.385 . S
C270 C271 1.389 . S
C271 C270 1.389 . S
C271 C272 1.387 . S
C272 H257 0.930 . S
C272 C267 1.390 . S
C272 C271 1.387 . S
H273 C285 0.930 . S
H274 C287 0.930 . S
H275 C288 0.930 . S
H276 C292 0.959 . S
H277 C292 0.959 . S
H278 C292 0.961 . S
H279 C293 0.960 . S
H280 C293 0.961 . S
H281 C293 0.959 . S
H282 C296 0.929 . S
H283 C297 0.931 . S
H284 C299 0.930 . S
C285 H273 0.930 . S
C285 C286 1.399 . S
C285 C290 1.399 . S
C286 C285 1.399 . S
C286 C287 1.376 . S
C287 H274 0.930 . S
C287 C286 1.376 . S
C287 C288 1.388 . S
C288 H275 0.930 . S
C288 C287 1.388 . S
C288 C289 1.390 . S
C289 C288 1.390 . S
C289 C290 1.394 . S
C289 C295 1.465 . S
C290 C285 1.399 . S
C290 C289 1.394 . S
C290 C291 1.516 . S
C291 C290 1.516 . S
C291 C292 1.502 . S
C291 C293 1.561 . S
C291 C294 1.526 . S
C292 H276 0.959 . S
C292 H277 0.959 . S
C292 H278 0.961 . S
C292 C291 1.502 . S
C293 H279 0.960 . S
C293 H280 0.961 . S
C293 H281 0.959 . S
C293 C291 1.561 . S
C294 C291 1.526 . S
C294 C295 1.396 . S
C294 C299 1.390 . S
C295 C289 1.465 . S
C295 C294 1.396 . S
C295 C296 1.399 . S
C296 H282 0.929 . S
C296 C295 1.399 . S
C296 C297 1.385 . S
C297 H283 0.931 . S
C297 C296 1.385 . S
C297 C298 1.389 . S
C298 C297 1.389 . S
C298 C299 1.387 . S
C299 H284 0.930 . S
C299 C294 1.390 . S
C299 C298 1.387 . S
H300 C312 0.930 . S
H301 C314 0.930 . S
H302 C315 0.930 . S
H303 C319 0.959 . S
H304 C319 0.959 . S
H305 C319 0.961 . S
H306 C320 0.960 . S
H307 C320 0.961 . S
H308 C320 0.959 . S
H309 C323 0.929 . S
H310 C324 0.931 . S
H311 C326 0.930 . S
C312 H300 0.930 . S
C312 C313 1.399 . S
C312 C317 1.399 . S
C313 C312 1.399 . S
C313 C314 1.376 . S
C314 H301 0.930 . S
C314 C313 1.376 . S
C314 C315 1.388 . S
C315 H302 0.930 . S
C315 C314 1.388 . S
C315 C316 1.390 . S
C316 C315 1.390 . S
C316 C317 1.394 . S
C316 C322 1.465 . S
C317 C312 1.399 . S
C317 C316 1.394 . S
C317 C318 1.516 . S
C318 C317 1.516 . S
C318 C319 1.502 . S
C318 C320 1.561 . S
C318 C321 1.526 . S
C319 H303 0.959 . S
C319 H304 0.959 . S
C319 H305 0.961 . S
C319 C318 1.502 . S
C320 H306 0.960 . S
C320 H307 0.961 . S
C320 H308 0.959 . S
C320 C318 1.561 . S
C321 C318 1.526 . S
C321 C322 1.396 . S
C321 C326 1.390 . S
C322 C316 1.465 . S
C322 C321 1.396 . S
C322 C323 1.399 . S
C323 H309 0.929 . S
C323 C322 1.399 . S
C323 C324 1.385 . S
C324 H310 0.931 . S
C324 C323 1.385 . S
C324 C325 1.389 . S
C325 C324 1.389 . S
C325 C326 1.387 . S
C326 H311 0.930 . S
C326 C321 1.390 . S
C326 C325 1.387 . S
H327 C339 0.930 . S
H328 C341 0.930 . S
H329 C342 0.930 . S
H330 C346 0.959 . S
H331 C346 0.959 . S
H332 C346 0.961 . S
H333 C347 0.960 . S
H334 C347 0.961 . S
H335 C347 0.959 . S
H336 C350 0.929 . S
H337 C351 0.931 . S
H338 C353 0.930 . S
C339 H327 0.930 . S
C339 C340 1.399 . S
C339 C344 1.399 . S
C340 C339 1.399 . S
C340 C341 1.376 . S
C341 H328 0.930 . S
C341 C340 1.376 . S
C341 C342 1.388 . S
C342 H329 0.930 . S
C342 C341 1.388 . S
C342 C343 1.390 . S
C343 C342 1.390 . S
C343 C344 1.394 . S
C343 C349 1.465 . S
C344 C339 1.399 . S
C344 C343 1.394 . S
C344 C345 1.516 . S
C345 C344 1.516 . S
C345 C346 1.502 . S
C345 C347 1.561 . S
C345 C348 1.526 . S
C346 H330 0.959 . S
C346 H331 0.959 . S
C346 H332 0.961 . S
C346 C345 1.502 . S
C347 H333 0.960 . S
C347 H334 0.961 . S
C347 H335 0.959 . S
C347 C345 1.561 . S
C348 C345 1.526 . S
C348 C349 1.396 . S
C348 C353 1.390 . S
C349 C343 1.465 . S
C349 C348 1.396 . S
C349 C350 1.399 . S
C350 H336 0.929 . S
C350 C349 1.399 . S
C350 C351 1.385 . S
C351 H337 0.931 . S
C351 C350 1.385 . S
C351 C352 1.389 . S
C352 C351 1.389 . S
C352 C353 1.387 . S
C353 H338 0.930 . S
C353 C348 1.390 . S
C353 C352 1.387 . S
H354 C366 0.930 . S
H355 C368 0.930 . S
H356 C369 0.930 . S
H357 C373 0.959 . S
H358 C373 0.959 . S
H359 C373 0.961 . S
H360 C374 0.960 . S
H361 C374 0.961 . S
H362 C374 0.959 . S
H363 C377 0.929 . S
H364 C378 0.931 . S
H365 C380 0.930 . S
C366 H354 0.930 . S
C366 C367 1.399 . S
C366 C371 1.399 . S
C367 C366 1.399 . S
C367 C368 1.376 . S
C368 H355 0.930 . S
C368 C367 1.376 . S
C368 C369 1.388 . S
C369 H356 0.930 . S
C369 C368 1.388 . S
C369 C370 1.390 . S
C370 C369 1.390 . S
C370 C371 1.394 . S
C370 C376 1.465 . S
C371 C366 1.399 . S
C371 C370 1.394 . S
C371 C372 1.516 . S
C372 C371 1.516 . S
C372 C373 1.502 . S
C372 C374 1.561 . S
C372 C375 1.526 . S
C373 H357 0.959 . S
C373 H358 0.959 . S
C373 H359 0.961 . S
C373 C372 1.502 . S
C374 H360 0.960 . S
C374 H361 0.961 . S
C374 H362 0.959 . S
C374 C372 1.561 . S
C375 C372 1.526 . S
C375 C376 1.396 . S
C375 C380 1.390 . S
C376 C370 1.465 . S
C376 C375 1.396 . S
C376 C377 1.399 . S
C377 H363 0.929 . S
C377 C376 1.399 . S
C377 C378 1.385 . S
C378 H364 0.931 . S
C378 C377 1.385 . S
C378 C379 1.389 . S
C379 C378 1.389 . S
C379 C380 1.387 . S
C380 H365 0.930 . S
C380 C375 1.390 . S
C380 C379 1.387 . S
H381 C393 0.930 . S
H382 C395 0.930 . S
H383 C396 0.930 . S
H384 C400 0.959 . S
H385 C400 0.959 . S
H386 C400 0.961 . S
H387 C401 0.960 . S
H388 C401 0.961 . S
H389 C401 0.959 . S
H390 C404 0.929 . S
H391 C405 0.931 . S
H392 C407 0.930 . S
C393 H381 0.930 . S
C393 C394 1.399 . S
C393 C398 1.399 . S
C394 C393 1.399 . S
C394 C395 1.376 . S
C395 H382 0.930 . S
C395 C394 1.376 . S
C395 C396 1.388 . S
C396 H383 0.930 . S
C396 C395 1.388 . S
C396 C397 1.390 . S
C397 C396 1.390 . S
C397 C398 1.394 . S
C397 C403 1.465 . S
C398 C393 1.399 . S
C398 C397 1.394 . S
C398 C399 1.516 . S
C399 C398 1.516 . S
C399 C400 1.502 . S
C399 C401 1.561 . S
C399 C402 1.526 . S
C400 H384 0.959 . S
C400 H385 0.959 . S
C400 H386 0.961 . S
C400 C399 1.502 . S
C401 H387 0.960 . S
C401 H388 0.961 . S
C401 H389 0.959 . S
C401 C399 1.561 . S
C402 C399 1.526 . S
C402 C403 1.396 . S
C402 C407 1.390 . S
C403 C397 1.465 . S
C403 C402 1.396 . S
C403 C404 1.399 . S
C404 H390 0.929 . S
C404 C403 1.399 . S
C404 C405 1.385 . S
C405 H391 0.931 . S
C405 C404 1.385 . S
C405 C406 1.389 . S
C406 C405 1.389 . S
C406 C407 1.387 . S
C407 H392 0.930 . S
C407 C402 1.390 . S
C407 C406 1.387 . S
H408 C420 0.930 . S
H409 C422 0.930 . S
H410 C423 0.930 . S
H411 C427 0.959 . S
H412 C427 0.959 . S
H413 C427 0.961 . S
H414 C428 0.960 . S
H415 C428 0.961 . S
H416 C428 0.959 . S
H417 C431 0.929 . S
H418 C432 0.931 . S
H419 C434 0.930 . S
C420 H408 0.930 . S
C420 C421 1.399 . S
C420 C425 1.399 . S
C421 C420 1.399 . S
C421 C422 1.376 . S
C422 H409 0.930 . S
C422 C421 1.376 . S
C422 C423 1.388 . S
C423 H410 0.930 . S
C423 C422 1.388 . S
C423 C424 1.390 . S
C424 C423 1.390 . S
C424 C425 1.394 . S
C424 C430 1.465 . S
C425 C420 1.399 . S
C425 C424 1.394 . S
C425 C426 1.516 . S
C426 C425 1.516 . S
C426 C427 1.502 . S
C426 C428 1.561 . S
C426 C429 1.526 . S
C427 H411 0.959 . S
C427 H412 0.959 . S
C427 H413 0.961 . S
C427 C426 1.502 . S
C428 H414 0.960 . S
C428 H415 0.961 . S
C428 H416 0.959 . S
C428 C426 1.561 . S
C429 C426 1.526 . S
C429 C430 1.396 . S
C429 C434 1.390 . S
C430 C424 1.465 . S
C430 C429 1.396 . S
C430 C431 1.399 . S
C431 H417 0.929 . S
C431 C430 1.399 . S
C431 C432 1.385 . S
C432 H418 0.931 . S
C432 C431 1.385 . S
C432 C433 1.389 . S
C433 C432 1.389 . S
C433 C434 1.387 . S
C434 H419 0.930 . S
C434 C429 1.390 . S
C434 C433 1.387 . S
H435 C447 0.930 . S
H436 C449 0.930 . S
H437 C450 0.930 . S
H438 C454 0.959 . S
H439 C454 0.959 . S
H440 C454 0.961 . S
H441 C455 0.960 . S
H442 C455 0.961 . S
H443 C455 0.959 . S
H444 C458 0.929 . S
H445 C459 0.931 . S
H446 C461 0.930 . S
C447 H435 0.930 . S
C447 C448 1.399 . S
C447 C452 1.399 . S
C448 C447 1.399 . S
C448 C449 1.376 . S
C449 H436 0.930 . S
C449 C448 1.376 . S
C449 C450 1.388 . S
C450 H437 0.930 . S
C450 C449 1.388 . S
C450 C451 1.390 . S
C451 C450 1.390 . S
C451 C452 1.394 . S
C451 C457 1.465 . S
C452 C447 1.399 . S
C452 C451 1.394 . S
C452 C453 1.516 . S
C453 C452 1.516 . S
C453 C454 1.502 . S
C453 C455 1.561 . S
C453 C456 1.526 . S
C454 H438 0.959 . S
C454 H439 0.959 . S
C454 H440 0.961 . S
C454 C453 1.502 . S
C455 H441 0.960 . S
C455 H442 0.961 . S
C455 H443 0.959 . S
C455 C453 1.561 . S
C456 C453 1.526 . S
C456 C457 1.396 . S
C456 C461 1.390 . S
C457 C451 1.465 . S
C457 C456 1.396 . S
C457 C458 1.399 . S
C458 H444 0.929 . S
C458 C457 1.399 . S
C458 C459 1.385 . S
C459 H445 0.931 . S
C459 C458 1.385 . S
C459 C460 1.389 . S
C460 C459 1.389 . S
C460 C461 1.387 . S
C461 H446 0.930 . S
C461 C456 1.390 . S
C461 C460 1.387 . S
H462 C474 0.930 . S
H463 C476 0.930 . S
H464 C477 0.930 . S
H465 C481 0.959 . S
H466 C481 0.959 . S
H467 C481 0.961 . S
H468 C482 0.960 . S
H469 C482 0.961 . S
H470 C482 0.959 . S
H471 C485 0.929 . S
H472 C486 0.931 . S
H473 C488 0.930 . S
C474 H462 0.930 . S
C474 C475 1.399 . S
C474 C479 1.399 . S
C475 C474 1.399 . S
C475 C476 1.376 . S
C476 H463 0.930 . S
C476 C475 1.376 . S
C476 C477 1.388 . S
C477 H464 0.930 . S
C477 C476 1.388 . S
C477 C478 1.390 . S
C478 C477 1.390 . S
C478 C479 1.394 . S
C478 C484 1.465 1_554 S
C479 C474 1.399 . S
C479 C478 1.394 . S
C479 C480 1.516 1_554 S
C480 C479 1.516 1_556 S
C480 C481 1.502 . S
C480 C482 1.561 1_455 S
C480 C483 1.526 . S
C481 H465 0.959 . S
C481 H466 0.959 . S
C481 H467 0.961 . S
C481 C480 1.502 . S
C482 H468 0.960 . S
C482 H469 0.961 . S
C482 H470 0.959 . S
C482 C480 1.561 1_655 S
C483 C480 1.526 . S
C483 C484 1.396 . S
C483 C488 1.390 . S
C484 C478 1.465 1_556 S
C484 C483 1.396 . S
C484 C485 1.399 . S
C485 H471 0.929 . S
C485 C484 1.399 . S
C485 C486 1.385 . S
C486 H472 0.931 . S
C486 C485 1.385 . S
C486 C487 1.389 . S
C487 C486 1.389 . S
C487 C488 1.387 . S
C488 H473 0.930 . S
C488 C483 1.390 . S
C488 C487 1.387 . S
H489 C501 0.930 . S
H490 C503 0.930 . S
H491 C504 0.930 . S
H492 C508 0.959 . S
H493 C508 0.959 . S
H494 C508 0.961 . S
H495 C509 0.960 . S
H496 C509 0.961 . S
H497 C509 0.959 . S
H498 C512 0.929 . S
H499 C513 0.931 . S
H500 C515 0.930 . S
C501 H489 0.930 . S
C501 C502 1.399 . S
C501 C506 1.399 . S
C502 C501 1.399 . S
C502 C503 1.376 1_545 S
C503 H490 0.930 . S
C503 C502 1.376 1_565 S
C503 C504 1.388 . S
C504 H491 0.930 . S
C504 C503 1.388 . S
C504 C505 1.390 1_565 S
C505 C504 1.390 1_545 S
C505 C506 1.394 . S
C505 C511 1.465 1_545 S
C506 C501 1.399 . S
C506 C505 1.394 . S
C506 C507 1.516 . S
C507 C506 1.516 . S
C507 C508 1.502 . S
C507 C509 1.561 . S
C507 C510 1.526 . S
C508 H492 0.959 . S
C508 H493 0.959 . S
C508 H494 0.961 . S
C508 C507 1.502 . S
C509 H495 0.960 . S
C509 H496 0.961 . S
C509 H497 0.959 . S
C509 C507 1.561 . S
C510 C507 1.526 . S
C510 C511 1.396 1_545 S
C510 C515 1.390 . S
C511 C505 1.465 1_565 S
C511 C510 1.396 1_565 S
C511 C512 1.399 . S
C512 H498 0.929 . S
C512 C511 1.399 . S
C512 C513 1.385 . S
C513 H499 0.931 . S
C513 C512 1.385 . S
C513 C514 1.389 1_565 S
C514 C513 1.389 1_545 S
C514 C515 1.387 . S
C515 H500 0.930 . S
C515 C510 1.390 . S
C515 C514 1.387 . S
H516 C528 0.930 . S
H517 C530 0.930 . S
H518 C531 0.930 . S
H519 C535 0.959 . S
H520 C535 0.959 . S
H521 C535 0.961 . S
H522 C536 0.960 . S
H523 C536 0.961 . S
H524 C536 0.959 . S
H525 C539 0.929 . S
H526 C540 0.931 . S
H527 C542 0.930 . S
C528 H516 0.930 . S
C528 C529 1.399 . S
C528 C533 1.399 . S
C529 C528 1.399 . S
C529 C530 1.376 . S
C530 H517 0.930 . S
C530 C529 1.376 . S
C530 C531 1.388 . S
C531 H518 0.930 . S
C531 C530 1.388 . S
C531 C532 1.390 . S
C532 C531 1.390 . S
C532 C533 1.394 . S
C532 C538 1.465 . S
C533 C528 1.399 . S
C533 C532 1.394 . S
C533 C534 1.516 . S
C534 C533 1.516 . S
C534 C535 1.502 . S
C534 C536 1.561 . S
C534 C537 1.526 . S
C535 H519 0.959 . S
C535 H520 0.959 . S
C535 H521 0.961 . S
C535 C534 1.502 . S
C536 H522 0.960 . S
C536 H523 0.961 . S
C536 H524 0.959 . S
C536 C534 1.561 . S
C537 C534 1.526 . S
C537 C538 1.396 . S
C537 C542 1.390 . S
C538 C532 1.465 . S
C538 C537 1.396 . S
C538 C539 1.399 . S
C539 H525 0.929 . S
C539 C538 1.399 . S
C539 C540 1.385 . S
C540 H526 0.931 . S
C540 C539 1.385 . S
C540 C541 1.389 . S
C541 C540 1.389 . S
C541 C542 1.387 . S
C542 H527 0.930 . S
C542 C537 1.390 . S
C542 C541 1.387 . S
H543 C555 0.930 . S
H544 C557 0.930 . S
H545 C558 0.930 . S
H546 C562 0.959 . S
H547 C562 0.959 . S
H548 C562 0.961 . S
H549 C563 0.960 . S
H550 C563 0.961 . S
H551 C563 0.959 . S
H552 C566 0.929 . S
H553 C567 0.931 . S
H554 C569 0.930 . S
C555 H543 0.930 . S
C555 C556 1.399 . S
C555 C560 1.399 . S
C556 C555 1.399 . S
C556 C557 1.376 1_545 S
C557 H544 0.930 . S
C557 C556 1.376 1_565 S
C557 C558 1.388 . S
C558 H545 0.930 . S
C558 C557 1.388 . S
C558 C559 1.390 . S
C559 C558 1.390 . S
C559 C560 1.394 1_565 S
C559 C565 1.465 . S
C560 C555 1.399 . S
C560 C559 1.394 1_545 S
C560 C561 1.516 . S
C561 C560 1.516 . S
C561 C562 1.502 . S
C561 C563 1.561 . S
C561 C564 1.526 . S
C562 H546 0.959 . S
C562 H547 0.959 . S
C562 H548 0.961 . S
C562 C561 1.502 . S
C563 H549 0.960 . S
C563 H550 0.961 . S
C563 H551 0.959 . S
C563 C561 1.561 . S
C564 C561 1.526 . S
C564 C565 1.396 1_545 S
C564 C569 1.390 . S
C565 C559 1.465 . S
C565 C564 1.396 1_565 S
C565 C566 1.399 . S
C566 H552 0.929 . S
C566 C565 1.399 . S
C566 C567 1.385 . S
C567 H553 0.931 . S
C567 C566 1.385 . S
C567 C568 1.389 1_565 S
C568 C567 1.389 1_545 S
C568 C569 1.387 . S
C569 H554 0.930 . S
C569 C564 1.390 . S
C569 C568 1.387 . S
H570 C582 0.930 . S
H571 C584 0.930 . S
H572 C585 0.930 . S
H573 C589 0.959 . S
H574 C589 0.959 . S
H575 C589 0.961 1_556 S
H576 C590 0.952 1_556 S
H577 C590 0.961 . S
H578 C590 0.959 . S
H579 C593 0.929 . S
H580 C594 0.931 . S
H581 C596 0.930 . S
C582 H570 0.930 . S
C582 C583 1.399 . S
C582 C587 1.399 . S
C583 C582 1.399 . S
C583 C584 1.376 . S
C584 H571 0.930 . S
C584 C583 1.376 . S
C584 C585 1.388 . S
C585 H572 0.930 . S
C585 C584 1.388 . S
C585 C586 1.390 . S
C586 C585 1.390 . S
C586 C587 1.394 . S
C586 C592 1.465 1_556 S
C587 C582 1.399 . S
C587 C586 1.394 . S
C587 C588 1.516 1_556 S
C588 C587 1.516 1_554 S
C588 C589 1.502 . S
C588 C590 1.561 . S
C588 C591 1.526 . S
C589 H573 0.959 . S
C589 H574 0.959 . S
C589 H575 0.961 1_554 S
C589 C588 1.502 . S
C590 H576 0.952 1_554 S
C590 H577 0.961 . S
C590 H578 0.959 . S
C590 C588 1.561 . S
C591 C588 1.526 . S
C591 C592 1.396 . S
C591 C596 1.390 . S
C592 C586 1.465 1_554 S
C592 C591 1.396 . S
C592 C593 1.399 . S
C593 H579 0.929 . S
C593 C592 1.399 . S
C593 C594 1.385 . S
C594 H580 0.931 . S
C594 C593 1.385 . S
C594 C595 1.389 . S
C595 C594 1.389 . S
C595 C596 1.387 . S
C596 H581 0.930 . S
C596 C591 1.390 . S
C596 C595 1.387 . S
H597 C609 0.930 . S
H598 C611 0.930 . S
H599 C612 0.930 . S
H600 C616 0.959 . S
H601 C616 0.959 . S
H602 C616 0.961 . S
H603 C617 0.960 . S
H604 C617 0.961 . S
H605 C617 0.959 1_455 S
H606 C620 0.929 . S
H607 C621 0.931 . S
H608 C623 0.930 . S
C609 H597 0.930 . S
C609 C610 1.399 . S
C609 C614 1.399 . S
C610 C609 1.399 . S
C610 C611 1.376 1_655 S
C611 H598 0.930 . S
C611 C610 1.376 1_455 S
C611 C612 1.388 . S
C612 H599 0.930 . S
C612 C611 1.388 . S
C612 C613 1.390 . S
C613 C612 1.390 . S
C613 C614 1.394 1_455 S
C613 C619 1.465 . S
C614 C609 1.399 . S
C614 C613 1.394 1_655 S
C614 C615 1.516 . S
C615 C614 1.516 . S
C615 C616 1.502 . S
C615 C617 1.561 . S
C615 C618 1.526 . S
C616 H600 0.959 . S
C616 H601 0.959 . S
C616 H602 0.961 . S
C616 C615 1.502 . S
C617 H603 0.960 . S
C617 H604 0.961 . S
C617 H605 0.959 1_655 S
C617 C615 1.561 . S
C618 C615 1.526 . S
C618 C619 1.396 1_655 S
C618 C623 1.390 . S
C619 C613 1.465 . S
C619 C618 1.396 1_455 S
C619 C620 1.399 . S
C620 H606 0.929 . S
C620 C619 1.399 . S
C620 C621 1.385 . S
C621 H607 0.931 . S
C621 C620 1.385 . S
C621 C622 1.389 . S
C622 C621 1.389 . S
C622 C623 1.387 1_455 S
C623 H608 0.930 . S
C623 C618 1.390 . S
C623 C622 1.387 1_655 S
C151 C8 1.659 . S
C163 N127 1.721 . S
C178 C26 1.276 . S
C190 N100 1.262 . S
C205 C48 1.445 . S
C217 N113 1.488 1_565 S
C232 C19 1.963 . S
C244 N126 2.104 . S
C271 N101 1.533 . S
C259 C36 1.456 . S
C298 N114 1.715 . S
C286 C59 1.634 . S
C313 C28 1.447 . S
C325 N74 1.492 . S
C340 C46 0.936 . S
C352 N88 0.965 1_655 S
C367 C16 1.532 . S
C379 N62 1.528 . S
C406 N75 1.696 . S
C394 C39 1.644 . S
C433 N87 1.320 . S
C421 C56 1.230 . S
C448 C6 1.300 . S
C460 N61 1.283 . S
C487 N91 1.502 . S
C475 C9 1.482 . S
C502 C21 1.496 . S
C514 N65 1.501 . S
C529 C49 1.503 . S
C541 N78 1.536 . S
C568 N117 1.548 . S
C556 C29 1.522 . S
C595 N130 1.564 . S
C583 C41 1.592 . S
C610 C1 1.525 . S
C622 N104 1.546 . S
