# Generated by pormake.
# Topology eea, (3,6)-cn, num edge types: 1
# Building blocks:
#     Node 0, Type 0, BuildingBlock: PAMTOO_clean_linker_0, # of connection points: 3
#     Node 1, Type 0, BuildingBlock: PAMTOO_clean_linker_0, # of connection points: 3
#     Node 2, Type 0, BuildingBlock: PAMTOO_clean_linker_0, # of connection points: 3
#     Node 3, Type 0, BuildingBlock: PAMTOO_clean_linker_0, # of connection points: 3
#     Node 4, Type 0, BuildingBlock: PAMTOO_clean_linker_0, # of connection points: 3
#     Node 5, Type 0, BuildingBlock: PAMTOO_clean_linker_0, # of connection points: 3
#     Node 6, Type 0, BuildingBlock: PAMTOO_clean_linker_0, # of connection points: 3
#     Node 7, Type 0, BuildingBlock: PAMTOO_clean_linker_0, # of connection points: 3
#     Node 8, Type 0, BuildingBlock: PAMTOO_clean_linker_0, # of connection points: 3
#     Node 9, Type 0, BuildingBlock: PAMTOO_clean_linker_0, # of connection points: 3
#     Node 10, Type 0, BuildingBlock: PAMTOO_clean_linker_0, # of connection points: 3
#     Node 11, Type 0, BuildingBlock: PAMTOO_clean_linker_0, # of connection points: 3
#     Node 12, Type 0, BuildingBlock: PAMTOO_clean_linker_0, # of connection points: 3
#     Node 13, Type 0, BuildingBlock: PAMTOO_clean_linker_0, # of connection points: 3
#     Node 14, Type 0, BuildingBlock: PAMTOO_clean_linker_0, # of connection points: 3
#     Node 15, Type 0, BuildingBlock: PAMTOO_clean_linker_0, # of connection points: 3
#     Node 16, Type 0, BuildingBlock: PAMTOO_clean_linker_0, # of connection points: 3
#     Node 17, Type 0, BuildingBlock: PAMTOO_clean_linker_0, # of connection points: 3
#     Node 18, Type 1, BuildingBlock: CUWYAW_clean_sbu_0, # of connection points: 6
#     Node 19, Type 1, BuildingBlock: CUWYAW_clean_sbu_0, # of connection points: 6
#     Node 20, Type 1, BuildingBlock: CUWYAW_clean_sbu_0, # of connection points: 6
#     Node 21, Type 1, BuildingBlock: CUWYAW_clean_sbu_0, # of connection points: 6
#     Node 22, Type 1, BuildingBlock: CUWYAW_clean_sbu_0, # of connection points: 6
#     Node 23, Type 1, BuildingBlock: CUWYAW_clean_sbu_0, # of connection points: 6
#     Node 24, Type 1, BuildingBlock: CUWYAW_clean_sbu_0, # of connection points: 6
#     Node 25, Type 1, BuildingBlock: CUWYAW_clean_sbu_0, # of connection points: 6
#     Node 26, Type 1, BuildingBlock: CUWYAW_clean_sbu_0, # of connection points: 6
#     Edge 27, Type (0, 1), None
#     Edge 28, Type (0, 1), None
#     Edge 29, Type (0, 1), None
#     Edge 30, Type (0, 1), None
#     Edge 31, Type (0, 1), None
#     Edge 32, Type (0, 1), None
#     Edge 33, Type (0, 1), None
#     Edge 34, Type (0, 1), None
#     Edge 35, Type (0, 1), None
#     Edge 36, Type (0, 1), None
#     Edge 37, Type (0, 1), None
#     Edge 38, Type (0, 1), None
#     Edge 39, Type (0, 1), None
#     Edge 40, Type (0, 1), None
#     Edge 41, Type (0, 1), None
#     Edge 42, Type (0, 1), None
#     Edge 43, Type (0, 1), None
#     Edge 44, Type (0, 1), None
#     Edge 45, Type (0, 1), None
#     Edge 46, Type (0, 1), None
#     Edge 47, Type (0, 1), None
#     Edge 48, Type (0, 1), None
#     Edge 49, Type (0, 1), None
#     Edge 50, Type (0, 1), None
#     Edge 51, Type (0, 1), None
#     Edge 52, Type (0, 1), None
#     Edge 53, Type (0, 1), None
#     Edge 54, Type (0, 1), None
#     Edge 55, Type (0, 1), None
#     Edge 56, Type (0, 1), None
#     Edge 57, Type (0, 1), None
#     Edge 58, Type (0, 1), None
#     Edge 59, Type (0, 1), None
#     Edge 60, Type (0, 1), None
#     Edge 61, Type (0, 1), None
#     Edge 62, Type (0, 1), None
#     Edge 63, Type (0, 1), None
#     Edge 64, Type (0, 1), None
#     Edge 65, Type (0, 1), None
#     Edge 66, Type (0, 1), None
#     Edge 67, Type (0, 1), None
#     Edge 68, Type (0, 1), None
#     Edge 69, Type (0, 1), None
#     Edge 70, Type (0, 1), None
#     Edge 71, Type (0, 1), None
#     Edge 72, Type (0, 1), None
#     Edge 73, Type (0, 1), None
#     Edge 74, Type (0, 1), None
#     Edge 75, Type (0, 1), None
#     Edge 76, Type (0, 1), None
#     Edge 77, Type (0, 1), None
#     Edge 78, Type (0, 1), None
#     Edge 79, Type (0, 1), None
#     Edge 80, Type (0, 1), None
# Relax obj value: 0.060
# Max RMSD: 0.276
# Mean RMSD: 0.200
data_MOF--net-eea--node1-CUWYAW_clean_sbu_0--node2-PAMTOO_clean_linker_0--edge1-none
_symmetry_space_group_name_H-M    P1
_symmetry_Int_Tables_number       1
_symmetry_cell_setting            triclinic
loop_
_symmetry_equiv_pos_as_xyz
'x, y, z'
_cell_length_a     23.729344
_cell_length_b     23.117038
_cell_length_c     37.904528
_cell_angle_alpha  92.966769
_cell_angle_beta   92.017343
_cell_angle_gamma 119.50652
loop_
_atom_site_label
_atom_site_type_symbol
_atom_site_fract_x
_atom_site_fract_y
_atom_site_fract_z
_atom_type_partial_charge
H0 H 0.3155 0.05764 0.42726 0.0
H1 H 0.27916 0.2174 0.45899 0.0
H2 H 0.18451 0.09443 0.36396 0.0
H3 H 0.28224 0.26421 0.37546 0.0
C4 C 0.24146 0.26186 0.39023 0.0
O5 O 0.2054 0.20031 0.40318 0.0
H6 H 0.26121 0.30039 0.41292 0.0
C7 C 0.29012 0.08485 0.42356 0.0
C8 C 0.2459 0.06659 0.39386 0.0
C9 C 0.29862 0.13568 0.44917 0.0
C10 C 0.27068 0.17525 0.44123 0.0
C11 C 0.23132 0.16129 0.41022 0.0
C12 C 0.21749 0.10617 0.38711 0.0
H13 H 0.98841 0.27815 0.44798 0.0
H14 H 0.84804 0.07197 0.45483 0.0
H15 H 0.95115 0.13284 0.36089 0.0
H16 H 0.78873 0.03373 0.36287 0.0
C17 C 0.7964 1.00227 0.38155 0.0
O18 O 0.86146 0.03187 0.39227 0.0
H19 H 0.7675 0.9961 0.40495 0.0
C20 C 0.96212 0.22749 0.4359 0.0
C21 C 0.97677 0.21226 0.40202 0.0
C22 C 0.91583 0.17736 0.45519 0.0
C23 C 0.88384 0.11141 0.44037 0.0
C24 C 0.89495 0.09585 0.40613 0.0
C25 C 0.94111 0.14612 0.3868 0.0
H26 H 0.76336 0.71866 0.44621 0.0
H27 H 0.95829 0.75729 0.4685 0.0
H28 H 0.91032 0.82589 0.3747 0.0
H29 H 0.99288 0.75762 0.36909 0.0
C30 C 0.02589 0.78455 0.39311 0.0
O31 O 1.00351 0.82105 0.41174 0.0
H32 H 0.02687 0.74703 0.40995 0.0
C33 C 0.81266 0.73782 0.43849 0.0
C34 C 0.83099 0.77181 0.40758 0.0
C35 C 0.85762 0.73182 0.46074 0.0
C36 C 0.92235 0.76045 0.45154 0.0
C37 C 0.94097 0.79307 0.42015 0.0
C38 C 0.89511 0.79834 0.39805 0.0
H39 H 0.04981 0.31168 0.60783 0.0
H40 H 0.19811 0.25811 0.59556 0.0
H41 H 0.09528 0.21606 0.69021 0.0
H42 H 0.25125 0.28069 0.69339 0.0
C43 C 0.25043 0.24952 0.66977 0.0
O44 O 0.18726 0.20873 0.65638 0.0
H45 H 0.27913 0.28237 0.64919 0.0
C46 C 0.07856 0.29092 0.61829 0.0
C47 C 0.06623 0.26385 0.65152 0.0
C48 C 0.12629 0.28959 0.59791 0.0
C49 C 0.16109 0.25979 0.61082 0.0
C50 C 0.15106 0.23486 0.64424 0.0
C51 C 0.10413 0.23744 0.66484 0.0
H52 H 0.77857 0.77303 0.61845 0.0
H53 H 0.82038 0.97205 0.60011 0.0
H54 H 0.87842 0.93342 0.70009 0.0
H55 H 0.79232 1.00583 0.69023 0.0
C56 C 0.82912 0.04319 0.67395 0.0
O57 O 0.87227 0.02309 0.66333 0.0
H58 H 0.80386 0.04895 0.65026 0.0
C59 C 0.79911 0.82469 0.62766 0.0
C60 C 0.83008 0.84728 0.66192 0.0
C61 C 0.79633 0.8696 0.6048 0.0
C62 C 0.82367 0.93703 0.61684 0.0
C63 C 0.85158 0.95929 0.65129 0.0
C64 C 0.85576 0.91495 0.67355 0.0
H65 H 0.28871 0.9885 0.63183 0.0
H66 H 0.09638 0.83105 0.59587 0.0
H67 H 0.12494 0.95099 0.69135 0.0
H68 H 0.05628 0.79915 0.69165 0.0
C69 C 0.0232 0.78913 0.66772 0.0
O70 O 0.04203 0.84661 0.65087 0.0
H71 H 0.02501 0.75139 0.6491 0.0
C72 C 0.23713 0.96138 0.63437 0.0
C73 C 0.21189 0.9785 0.66365 0.0
C74 C 0.19543 0.91175 0.60779 0.0
C75 C 0.1294 0.87265 0.6142 0.0
C76 C 0.10486 0.8862 0.64454 0.0
C77 C 0.14542 0.94009 0.66854 0.0
H78 H 0.98245 0.39097 0.76082 0.0
H79 H 0.94692 0.5511 0.79298 0.0
H80 H 0.85179 0.42871 0.69785 0.0
H81 H 0.95015 0.59859 0.70967 0.0
C82 C 0.90927 0.59617 0.72437 0.0
O83 O 0.87314 0.53457 0.73727 0.0
H84 H 0.92889 0.63464 0.74709 0.0
C85 C 0.95723 0.41837 0.75724 0.0
C86 C 0.91298 0.40039 0.72758 0.0
C87 C 0.966 0.46916 0.78295 0.0
C88 C 0.93826 0.50899 0.77515 0.0
C89 C 0.89888 0.49533 0.74417 0.0
C90 C 0.8848 0.44023 0.72097 0.0
H91 H 0.65588 0.61121 0.78184 0.0
H92 H 0.51459 0.40507 0.78789 0.0
H93 H 0.61855 0.46677 0.69428 0.0
H94 H 0.45688 0.36881 0.69523 0.0
C95 C 0.46355 0.33683 0.71398 0.0
O96 O 0.52829 0.36564 0.72522 0.0
H97 H 0.4341 0.33074 0.73713 0.0
C98 C 0.62947 0.56069 0.76958 0.0
C99 C 0.64421 0.54576 0.73567 0.0
C100 C 0.58287 0.51042 0.78867 0.0
C101 C 0.55067 0.44463 0.77361 0.0
C102 C 0.56199 0.4294 0.73935 0.0
C103 C 0.60845 0.47981 0.72024 0.0
H104 H 0.42823 0.05005 0.7767 0.0
H105 H 0.62422 0.09411 0.80232 0.0
H106 H 0.57725 0.15898 0.70681 0.0
H107 H 0.65981 0.08979 0.70288 0.0
C108 C 0.69277 0.11793 0.72673 0.0
O109 O 0.66979 0.15454 0.74471 0.0
H110 H 0.69477 0.08223 0.74461 0.0
C111 C 0.47843 0.07144 0.77023 0.0
C112 C 0.49728 0.10513 0.73933 0.0
C113 C 0.5234 0.06792 0.79373 0.0
C114 C 0.58809 0.09528 0.78455 0.0
C115 C 0.60707 0.12658 0.75277 0.0
C116 C 0.5616 0.13163 0.7302 0.0
H117 H 0.71768 0.64502 0.94183 0.0
H118 H 0.86603 0.59161 0.92929 0.0
H119 H 0.76313 0.54889 1.02394 0.0
H120 H 0.91963 0.61402 0.02687 0.0
C121 C 0.91844 0.5826 1.00327 0.0
O122 O 0.85518 0.54184 0.99 0.0
H123 H 0.94742 0.61617 0.98301 0.0
C124 C 0.74645 0.62422 0.95222 0.0
C125 C 0.73408 0.59692 0.9854 0.0
C126 C 0.79419 0.62304 0.93179 0.0
C127 C 0.829 0.59318 0.94459 0.0
C128 C 0.81897 0.56804 0.97797 0.0
C129 C 0.772 0.57045 0.99862 0.0
H130 H 0.44205 0.1047 0.95196 0.0
H131 H 0.48494 0.30426 0.93359 0.0
H132 H 0.54481 0.2659 0.03309 0.0
H133 H 0.46039 0.3387 1.0251 0.0
C134 C 0.49545 0.37579 1.00802 0.0
O135 O 0.53803 0.35547 0.99664 0.0
H136 H 0.469 0.38109 0.98472 0.0
C137 C 0.46322 0.15661 0.9611 0.0
C138 C 0.49531 0.17947 0.99516 0.0
C139 C 0.46036 0.20174 0.93836 0.0
C140 C 0.48823 0.26923 0.95031 0.0
C141 C 0.51687 0.29157 0.9846 0.0
C142 C 0.52143 0.24726 1.00671 0.0
H143 H 0.95601 0.32082 0.96516 0.0
H144 H 0.76358 0.1636 0.92917 0.0
H145 H 0.7921 0.28429 1.02432 0.0
H146 H 0.72354 0.13489 0.02592 0.0
C147 C 0.69062 0.12325 1.00171 0.0
O148 O 0.70922 0.17979 0.98403 0.0
H149 H 0.69335 0.08467 0.98425 0.0
C150 C 0.9044 0.29389 0.96763 0.0
C151 C 0.87915 0.31124 0.99684 0.0
C152 C 0.86267 0.24427 0.94104 0.0
C153 C 0.79662 0.20529 0.94744 0.0
C154 C 0.77204 0.21922 0.97766 0.0
C155 C 0.81262 0.27318 1.0016 0.0
H156 H 0.64979 0.72384 0.09468 0.0
H157 H 0.61338 0.88328 0.12698 0.0
H158 H 0.51911 0.76141 0.03161 0.0
H159 H 0.6181 0.93173 0.04424 0.0
C160 C 0.57704 0.92914 0.05881 0.0
O161 O 0.54022 0.86713 0.07113 0.0
H162 H 0.59737 0.96749 0.08158 0.0
C163 C 0.62434 0.75101 0.09113 0.0
C164 C 0.58021 0.73307 0.06141 0.0
C165 C 0.63274 0.80155 0.11692 0.0
C166 C 0.60487 0.84125 0.10913 0.0
C167 C 0.56572 0.82772 0.07808 0.0
C168 C 0.55193 0.77282 0.0548 0.0
H169 H 0.32344 0.94326 0.11542 0.0
H170 H 0.18246 0.73708 0.12158 0.0
H171 H 0.2869 0.7986 0.02811 0.0
H172 H 0.1253 0.70129 0.0289 0.0
C173 C 0.13166 0.66914 0.04766 0.0
O174 O 0.19633 0.69759 0.05898 0.0
H175 H 0.10214 0.66318 0.07076 0.0
C176 C 0.29727 0.89268 0.10322 0.0
C177 C 0.31227 0.87768 0.0694 0.0
C178 C 0.25062 0.84244 0.12229 0.0
C179 C 0.21864 0.7766 0.10732 0.0
C180 C 0.23017 0.76132 0.07313 0.0
C181 C 0.27672 0.81168 0.05403 0.0
H182 H 0.09657 0.38468 0.11191 0.0
H183 H 0.29132 0.42331 0.1349 0.0
H184 H 0.24433 0.49196 0.04082 0.0
H185 H 0.32729 0.42293 0.03618 0.0
C186 C 0.36018 0.45074 0.06011 0.0
O187 O 0.33718 0.48717 0.07825 0.0
H188 H 0.36204 0.41475 0.07782 0.0
C189 C 0.14594 0.40375 0.10433 0.0
C190 C 0.16461 0.43781 0.07346 0.0
C191 C 0.19068 0.39778 0.12679 0.0
C192 C 0.25552 0.42641 0.11778 0.0
C193 C 0.27448 0.45902 0.08641 0.0
C194 C 0.22885 0.4643 0.06412 0.0
H195 H 0.38413 0.97889 0.27518 0.0
H196 H 0.53245 0.92537 0.26279 0.0
H197 H 0.42861 0.88177 0.35711 0.0
H198 H 0.5847 0.94623 0.36057 0.0
C199 C 0.58392 0.9151 0.33694 0.0
O200 O 0.52081 0.87474 0.32332 0.0
H201 H 0.613 0.94802 0.31647 0.0
C202 C 0.41279 0.95796 0.28557 0.0
C203 C 0.40009 0.93034 0.31865 0.0
C204 C 0.46069 0.95694 0.26523 0.0
C205 C 0.49533 0.92687 0.27803 0.0
C206 C 0.48491 0.90133 0.31132 0.0
C207 C 0.43779 0.90363 0.33188 0.0
H208 H 0.11282 0.44014 0.28447 0.0
H209 H 0.15415 0.63929 0.26684 0.0
H210 H 0.21167 0.5996 0.36666 0.0
H211 H 0.12606 0.67193 0.35753 0.0
C212 C 0.1624 0.70936 0.34109 0.0
O213 O 0.20566 0.68964 0.3302 0.0
H214 H 0.1366 0.71482 0.31755 0.0
C215 C 0.13308 0.49167 0.29387 0.0
C216 C 0.16369 0.51389 0.32821 0.0
C217 C 0.13033 0.5368 0.27116 0.0
C218 C 0.15743 0.60409 0.28343 0.0
C219 C 0.18514 0.62599 0.31794 0.0
C220 C 0.18923 0.58143 0.34006 0.0
H221 H 0.62235 0.65352 0.29907 0.0
H222 H 0.43012 0.49658 0.26251 0.0
H223 H 0.45801 0.61589 0.35811 0.0
H224 H 0.38874 0.46323 0.35764 0.0
C225 C 0.35581 0.45402 0.33376 0.0
O226 O 0.37526 0.51198 0.31729 0.0
H227 H 0.3572 0.41639 0.31487 0.0
C228 C 0.57072 0.62648 0.30144 0.0
C229 C 0.54526 0.64347 0.33068 0.0
C230 C 0.52918 0.5771 0.2747 0.0
C231 C 0.46306 0.53803 0.28094 0.0
C232 C 0.43826 0.55143 0.31121 0.0
C233 C 0.4787 0.60509 0.33537 0.0
C234 C 0.53815 0.08791 0.13555 0.0
Eu235 Eu 0.51546 0.05828 0.06756 0.0
C236 C 0.51477 0.05235 0.16777 0.0
C237 C 0.50349 0.08413 0.19696 0.0
C238 C 0.48391 0.0523 0.22827 0.0
C239 C 0.47574 0.98821 0.231 0.0
C240 C 0.48542 0.95576 0.20135 0.0
C241 C 0.50443 0.98736 0.16996 0.0
C242 C 0.5041 0.135 1.01893 0.0
C243 C 0.37026 0.92942 0.05318 0.0
C244 C 0.43073 0.95232 0.92685 0.0
Eu245 Eu 0.47394 0.9891 0.99296 0.0
C246 C 0.45536 0.98145 0.89286 0.0
C247 C 0.50079 0.97014 0.87522 0.0
C248 C 0.52404 0.99894 0.84338 0.0
C249 C 0.50223 0.0395 0.8285 0.0
C250 C 0.45756 0.05134 0.84657 0.0
C251 C 0.43394 0.02211 0.87797 0.0
C252 C 0.53597 0.9439 0.03453 0.0
C253 C 0.62266 0.09583 1.01209 0.0
O254 O 0.57316 0.07095 0.11611 0.0
O255 O 0.4964 0.09723 0.11667 0.0
O256 O 0.54577 0.15779 0.0461 0.0
O257 O 0.46662 0.07288 1.01983 0.0
O258 O 0.41199 0.98116 0.07448 0.0
O259 O 0.38338 0.91935 1.02042 0.0
O260 O 0.41183 0.98495 0.94804 0.0
O261 O 0.46302 0.92909 0.94404 0.0
O262 O 0.54219 0.94796 1.00078 0.0
O263 O 0.49502 0.96 0.04427 0.0
O264 O 0.57494 0.07507 0.9871 0.0
O265 O 0.61141 0.08535 0.04565 0.0
H266 H 0.51086 0.1341 0.19573 0.0
H267 H 0.47723 0.07871 0.25072 0.0
H268 H 0.47865 0.90602 0.20251 0.0
H269 H 0.51188 0.96132 0.14761 0.0
H270 H 0.51822 0.93881 0.88589 0.0
H271 H 0.558 0.98836 0.8301 0.0
H272 H 0.44054 0.08335 0.83645 0.0
H273 H 0.39879 0.03149 0.89066 0.0
C274 C 0.98112 0.47213 0.1376 0.0
Eu275 Eu 0.99435 0.47435 0.06983 0.0
C276 C 0.02214 0.48536 0.17042 0.0
C277 C 0.99623 0.44503 0.19856 0.0
C278 C 0.03285 0.45924 0.23078 0.0
C279 C 0.09588 0.5144 0.23541 0.0
C280 C 0.12288 0.55264 0.20653 0.0
C281 C 0.08643 0.53812 0.17427 0.0
C282 C 0.92033 0.36976 1.02207 0.0
C283 C 0.11861 0.45447 0.05592 0.0
C284 C 0.04298 0.44705 0.92488 0.0
Eu285 Eu 0.04533 0.48185 0.99158 0.0
C286 C 0.03489 0.46609 0.88938 0.0
C287 C 0.06046 0.44889 0.86049 0.0
C288 C 0.04188 0.45406 0.82579 0.0
C289 C 0.9961 0.47512 0.81937 0.0
C290 C 0.97346 0.49548 0.84883 0.0
C291 C 0.99326 0.49185 0.88328 0.0
C292 C 0.10941 0.60266 0.02883 0.0
C293 C 0.94894 0.54211 1.01332 0.0
O294 O 0.99209 0.52359 0.11984 0.0
O295 O 0.96998 0.41962 0.11718 0.0
O296 O 0.8971 0.3923 0.04624 0.0
O297 O 0.98165 0.40175 1.02496 0.0
O298 O 0.08807 0.47407 0.07773 0.0
O299 O 0.10697 0.44692 1.02097 0.0
O300 O 0.99167 0.4258 0.94323 0.0
O301 O 0.09744 0.48516 0.94416 0.0
O302 O 0.12023 0.59351 0.99616 0.0
O303 O 0.06733 0.54773 0.03865 0.0
O304 O 0.97002 0.51679 0.98796 0.0
O305 O 0.95724 0.53738 0.04748 0.0
H306 H 0.94694 0.40357 0.19591 0.0
H307 H 1.0107 0.42914 0.25258 0.0
H308 H 0.17168 0.59495 0.20922 0.0
H309 H 0.10793 0.56912 0.15267 0.0
H310 H 0.09252 0.42862 0.86467 0.0
H311 H 0.06187 0.43934 0.80418 0.0
H312 H 0.93711 0.51047 0.84572 0.0
H313 H 0.97258 0.50519 0.90516 0.0
C314 C 0.50237 0.56256 0.92302 0.0
Eu315 Eu 0.52846 0.56664 0.99059 0.0
C316 C 0.52571 0.5501 0.88951 0.0
C317 C 0.53432 0.59139 0.86199 0.0
C318 C 0.55483 0.57976 0.82959 0.0
C319 C 0.56665 0.52622 0.82406 0.0
C320 C 0.55942 0.48576 0.85198 0.0
C321 C 0.53943 0.49778 0.8845 0.0
C322 C 0.56034 0.67165 0.03799 0.0
C323 C 0.67591 0.58841 1.00289 0.0
C324 C 0.62308 0.59483 0.13516 0.0
Eu325 Eu 0.58475 0.56003 0.06827 0.0
C326 C 0.59771 0.57726 0.17034 0.0
C327 C 0.64056 0.59453 0.20043 0.0
C328 C 0.61813 0.59072 0.23447 0.0
C329 C 0.55246 0.57095 0.23908 0.0
C330 C 0.50949 0.55089 0.20848 0.0
C331 C 0.53163 0.55318 0.17472 0.0
C332 C 0.53202 0.44086 0.02944 0.0
C333 C 0.42732 0.49557 0.04925 0.0
O334 O 0.47096 0.51161 0.94205 0.0
O335 O 0.54272 0.61755 0.94216 0.0
O336 O 0.51219 0.64824 1.01411 0.0
O337 O 0.59122 0.64006 0.03509 0.0
O338 O 0.6249 0.57401 0.98128 0.0
O339 O 0.67534 0.59239 0.03802 0.0
O340 O 0.59427 0.61943 0.11602 0.0
O341 O 0.63556 0.55354 0.11644 0.0
O342 O 0.55608 0.44911 0.0619 0.0
O343 O 0.53812 0.4952 1.02103 0.0
O344 O 0.47643 0.52059 0.07393 0.0
O345 O 0.435 0.50199 1.01498 0.0
H346 H 0.52434 0.63224 0.86543 0.0
H347 H 0.55951 0.61141 0.8085 0.0
H348 H 0.56896 0.44463 0.84861 0.0
H349 H 0.5341 0.46579 0.90553 0.0
H350 H 0.6919 0.61369 0.19764 0.0
H351 H 0.65289 0.60524 0.25699 0.0
H352 H 0.45901 0.53694 0.21011 0.0
H353 H 0.49756 0.54003 0.15192 0.0
C354 C 0.20469 0.41961 0.4681 0.0
Eu355 Eu 0.18137 0.39072 0.4001 0.0
C356 C 0.18084 0.38417 0.50029 0.0
C357 C 0.16958 0.41626 0.52936 0.0
C358 C 0.14969 0.38463 0.5607 0.0
C359 C 0.14119 0.32046 0.56358 0.0
C360 C 0.15076 0.28766 0.53404 0.0
C361 C 0.17008 0.31907 0.50263 0.0
C362 C 0.17137 0.46878 0.35193 0.0
C363 C 0.03491 0.26372 0.38573 0.0
C364 C 0.09341 0.28531 0.25898 0.0
Eu365 Eu 0.13811 0.32229 0.32502 0.0
C366 C 0.12043 0.3118 0.22523 0.0
C367 C 0.08476 0.28013 0.19312 0.0
C368 C 0.10886 0.30666 0.16108 0.0
C369 C 0.16919 0.36549 0.16053 0.0
C370 C 0.20564 0.3961 0.1928 0.0
C371 C 0.18136 0.36958 0.22487 0.0
C372 C 0.19909 0.27511 0.36606 0.0
C373 C 0.28792 0.42693 0.34425 0.0
O374 O 0.23872 0.40154 0.44847 0.0
O375 O 0.16369 0.43034 0.44941 0.0
O376 O 0.21304 0.49082 0.37909 0.0
O377 O 0.13304 0.40677 0.35269 0.0
O378 O 0.07764 0.31454 0.40721 0.0
O379 O 0.04711 0.25401 0.35268 0.0
O380 O 0.07998 0.32341 0.27949 0.0
O381 O 0.12236 0.25913 0.27662 0.0
O382 O 0.20557 0.28003 0.33234 0.0
O383 O 0.15902 0.29229 0.37605 0.0
O384 O 0.24016 0.4066 0.3193 0.0
O385 O 0.27684 0.41679 0.37786 0.0
H386 H 0.17727 0.46632 0.52803 0.0
H387 H 0.14311 0.41128 0.58307 0.0
H388 H 0.14376 0.23786 0.53533 0.0
H389 H 0.1775 0.29278 0.48038 0.0
H390 H 0.0378 0.23542 0.19284 0.0
H391 H 0.07977 0.28163 0.13667 0.0
H392 H 0.25175 0.44189 0.19337 0.0
H393 H 0.20959 0.3949 0.24942 0.0
C394 C 0.64633 0.80456 0.47148 0.0
Eu395 Eu 0.65971 0.80689 0.40372 0.0
C396 C 0.68744 0.81779 0.50427 0.0
C397 C 0.66141 0.77801 0.53259 0.0
C398 C 0.69824 0.79225 0.56475 0.0
C399 C 0.76159 0.8469 0.56913 0.0
C400 C 0.78866 0.88456 0.54007 0.0
C401 C 0.75201 0.86999 0.50787 0.0
C402 C 0.58621 0.70209 0.35595 0.0
C403 C 0.78463 0.78797 0.39004 0.0
C404 C 0.70948 0.78 0.259 0.0
Eu405 Eu 0.71114 0.81481 0.32561 0.0
C406 C 0.70143 0.79883 0.22345 0.0
C407 C 0.72708 0.78156 0.19463 0.0
C408 C 0.70852 0.78655 0.15989 0.0
C409 C 0.66268 0.80749 0.15337 0.0
C410 C 0.6399 0.82784 0.18277 0.0
C411 C 0.6597 0.82443 0.21725 0.0
C412 C 0.77459 0.93574 0.36283 0.0
C413 C 0.61363 0.87389 0.34703 0.0
O414 O 0.65729 0.85603 0.45373 0.0
O415 O 0.63521 0.7521 0.45104 0.0
O416 O 0.56271 0.72445 0.38005 0.0
O417 O 0.64754 0.7344 0.35889 0.0
O418 O 0.75362 0.80701 0.4118 0.0
O419 O 0.77323 0.78057 0.35509 0.0
O420 O 0.658 0.75849 0.27723 0.0
O421 O 0.76374 0.81847 0.27836 0.0
O422 O 0.78558 0.9266 0.33019 0.0
O423 O 0.73264 0.88072 0.37266 0.0
O424 O 0.63552 0.84929 0.32174 0.0
O425 O 0.62212 0.86944 0.38121 0.0
H426 H 0.61191 0.73697 0.53014 0.0
H427 H 0.67604 0.76262 0.5867 0.0
H428 H 0.83769 0.92648 0.54257 0.0
H429 H 0.7736 0.90053 0.48612 0.0
H430 H 0.75921 0.76139 0.1989 0.0
H431 H 0.72861 0.77181 0.13833 0.0
H432 H 0.60346 0.84269 0.17961 0.0
H433 H 0.63894 0.8378 0.23908 0.0
C434 C 0.16825 0.89496 0.25589 0.0
Eu435 Eu 0.19426 0.89968 0.3235 0.0
C436 C 0.19196 0.88235 0.22256 0.0
C437 C 0.20073 0.92341 0.19491 0.0
C438 C 0.22174 0.91172 0.1627 0.0
C439 C 0.23391 0.85835 0.15751 0.0
C440 C 0.22649 0.81813 0.18556 0.0
C441 C 0.206 0.83021 0.21789 0.0
C442 C 0.22605 1.00498 0.37063 0.0
C443 C 0.34179 0.92176 0.33603 0.0
C444 C 0.28877 0.92891 0.46816 0.0
Eu445 Eu 0.25052 0.89368 0.4013 0.0
C446 C 0.26346 0.91152 0.50336 0.0
C447 C 0.30638 0.92867 0.53341 0.0
C448 C 0.28408 0.92495 0.56747 0.0
C449 C 0.21848 0.90539 0.57214 0.0
C450 C 0.17541 0.8854 0.5416 0.0
C451 C 0.19743 0.88763 0.5078 0.0
C452 C 0.19772 0.77427 0.36274 0.0
C453 C 0.0931 0.82886 0.3822 0.0
O454 O 0.1369 0.84416 0.27503 0.0
O455 O 0.20834 0.95017 0.27494 0.0
O456 O 0.17789 0.98137 0.34674 0.0
O457 O 0.25699 0.97343 0.36789 0.0
O458 O 0.29079 0.90711 0.31436 0.0
O459 O 0.34117 0.92602 0.37115 0.0
O460 O 0.25991 0.95335 0.44893 0.0
O461 O 0.30134 0.88758 0.44956 0.0
O462 O 0.22235 0.78286 0.3951 0.0
O463 O 0.20372 0.8285 0.35422 0.0
O464 O 0.14218 0.85429 0.40691 0.0
O465 O 0.10078 0.83524 0.34793 0.0
H466 H 0.19052 0.96414 0.19809 0.0
H467 H 0.22655 0.94317 0.14149 0.0
H468 H 0.23627 0.77712 0.18244 0.0
H469 H 0.20056 0.79843 0.23904 0.0
H470 H 0.35768 0.94766 0.53056 0.0
H471 H 0.31889 0.93938 0.58996 0.0
H472 H 0.12497 0.87156 0.54331 0.0
H473 H 0.1633 0.87454 0.48504 0.0
C474 C 0.87177 0.75357 0.80201 0.0
Eu475 Eu 0.84855 0.72474 0.73399 0.0
C476 C 0.84817 0.71801 0.83421 0.0
C477 C 0.83685 0.74988 0.86335 0.0
C478 C 0.8172 0.71815 0.89468 0.0
C479 C 0.80901 0.65408 0.89749 0.0
C480 C 0.81868 0.6215 0.86788 0.0
C481 C 0.83776 0.65301 0.83648 0.0
C482 C 0.83798 0.80243 0.68577 0.0
C483 C 0.7024 0.59735 0.7195 0.0
C484 C 0.76121 0.61885 0.5929 0.0
Eu485 Eu 0.80577 0.65622 0.65894 0.0
C486 C 0.78809 0.64541 0.55915 0.0
C487 C 0.75237 0.6137 0.52706 0.0
C488 C 0.77626 0.64038 0.49501 0.0
C489 C 0.83644 0.69938 0.49446 0.0
C490 C 0.87297 0.73001 0.52669 0.0
C491 C 0.84888 0.70335 0.55877 0.0
C492 C 0.86703 0.6095 0.70013 0.0
C493 C 0.95527 0.76159 0.67818 0.0
O494 O 0.90607 0.73592 0.78236 0.0
O495 O 0.83049 0.76392 0.78334 0.0
O496 O 0.87959 0.82473 0.71296 0.0
O497 O 0.8 0.74035 0.68653 0.0
O498 O 0.74493 0.6482 0.74102 0.0
O499 O 0.71478 0.58773 0.68649 0.0
O500 O 0.74736 0.65667 0.61335 0.0
O501 O 0.79057 0.59314 0.61059 0.0
O502 O 0.87365 0.6145 0.66642 0.0
O503 O 0.82672 0.62641 0.71003 0.0
O504 O 0.90751 0.74104 0.65322 0.0
O505 O 0.94418 0.75133 0.71179 0.0
H506 H 0.84427 0.79986 0.86207 0.0
H507 H 0.81054 0.74465 0.91709 0.0
H508 H 0.81191 0.57178 0.86911 0.0
H509 H 0.84525 0.62689 0.81418 0.0
H510 H 0.7055 0.56887 0.5268 0.0
H511 H 0.74713 0.61534 0.47062 0.0
H512 H 0.91897 0.77592 0.52725 0.0
H513 H 0.87715 0.7287 0.58331 0.0
C514 C 0.31351 0.14027 0.80424 0.0
Eu515 Eu 0.32718 0.14205 0.73642 0.0
C516 C 0.35327 0.15267 0.83745 0.0
C517 C 0.32452 0.11558 0.8663 0.0
C518 C 0.36037 0.12896 0.89874 0.0
C519 C 0.42558 0.17967 0.90276 0.0
C520 C 0.45497 0.21499 0.87337 0.0
C521 C 0.4192 0.20145 0.84093 0.0
C522 C 0.25306 0.03719 0.6888 0.0
C523 C 0.45135 0.12198 0.72192 0.0
C524 C 0.37528 0.11443 0.59129 0.0
Eu525 Eu 0.37764 0.1494 0.65795 0.0
C526 C 0.36721 0.13326 0.55575 0.0
C527 C 0.39307 0.11617 0.52696 0.0
C528 C 0.37459 0.12114 0.49221 0.0
C529 C 0.32862 0.14189 0.48563 0.0
C530 C 0.30568 0.16216 0.515 0.0
C531 C 0.32539 0.15873 0.5495 0.0
C532 C 0.44155 0.27036 0.69516 0.0
C533 C 0.28057 0.20869 0.67977 0.0
O534 O 0.326 0.19209 0.78643 0.0
O535 O 0.3021 0.08761 0.78388 0.0
O536 O 0.22988 0.05969 0.71302 0.0
O537 O 0.31438 0.06941 0.69155 0.0
O538 O 0.42081 0.14137 0.74389 0.0
O539 O 0.43958 0.11458 0.68701 0.0
O540 O 0.32395 0.09323 0.60963 0.0
O541 O 0.42973 0.15267 0.61055 0.0
O542 O 0.45216 0.26122 0.66245 0.0
O543 O 0.39977 0.21533 0.70504 0.0
O544 O 0.302 0.18382 0.65438 0.0
O545 O 0.28956 0.20458 0.71394 0.0
H546 H 0.27381 0.07733 0.86398 0.0
H547 H 0.33645 0.10153 0.92104 0.0
H548 H 0.50527 0.25428 0.87579 0.0
H549 H 0.44266 0.22998 0.81885 0.0
H550 H 0.42529 0.09612 0.53127 0.0
H551 H 0.39479 0.1065 0.47068 0.0
H552 H 0.26918 0.17691 0.51177 0.0
H553 H 0.3045 0.172 0.5713 0.0
C554 C 0.83464 0.2296 0.58931 0.0
Eu555 Eu 0.86066 0.23369 0.65688 0.0
C556 C 0.85826 0.21723 0.55587 0.0
C557 C 0.86651 0.25819 0.52822 0.0
C558 C 0.88725 0.24658 0.49588 0.0
C559 C 0.89966 0.1934 0.49055 0.0
C560 C 0.89286 0.15336 0.51861 0.0
C561 C 0.87264 0.16535 0.55106 0.0
C562 C 0.89285 0.33881 0.70425 0.0
C563 C 1.00817 0.25553 0.66904 0.0
C564 C 0.95581 0.26199 0.80135 0.0
Eu565 Eu 0.91733 0.22719 0.73448 0.0
C566 C 0.9306 0.24432 0.83655 0.0
C567 C 0.97361 0.26159 0.86657 0.0
C568 C 0.95135 0.25771 0.90066 0.0
C569 C 0.88571 0.23788 0.90538 0.0
C570 C 0.84256 0.21772 0.87486 0.0
C571 C 0.86454 0.22009 0.84104 0.0
C572 C 0.86444 0.108 0.6957 0.0
C573 C 0.75982 0.16268 0.71572 0.0
O574 O 0.80326 0.17862 0.60833 0.0
O575 O 0.87481 0.28462 0.60846 0.0
O576 O 0.84458 0.31538 0.68044 0.0
O577 O 0.92369 0.30718 0.7013 0.0
O578 O 0.95704 0.24095 0.64749 0.0
O579 O 1.00779 0.25972 0.70417 0.0
O580 O 0.92685 0.28652 0.78228 0.0
O581 O 0.96835 0.2208 0.78258 0.0
O582 O 0.88927 0.11643 0.72799 0.0
O583 O 0.87026 0.16225 0.68734 0.0
O584 O 0.80906 0.18764 0.74032 0.0
O585 O 0.76728 0.16916 0.68144 0.0
H586 H 0.85606 0.29873 0.5315 0.0
H587 H 0.89161 0.27792 0.47468 0.0
H588 H 0.90285 0.11251 0.51539 0.0
H589 H 0.86762 0.13366 0.57219 0.0
H590 H 0.02494 0.28082 0.86369 0.0
H591 H 0.98624 0.27228 0.92311 0.0
H592 H 0.79207 0.20366 0.87659 0.0
H593 H 0.83035 0.2069 0.81829 0.0
loop_
_geom_bond_atom_site_label_1
_geom_bond_atom_site_label_2
_geom_bond_distance
_geom_bond_site_symmetry_2
_ccdc_geom_bond_type
H0 C7 0.929 . S
H1 C10 0.930 . S
H2 C12 0.929 . S
H3 C4 0.969 . S
C4 H3 0.969 . S
C4 O5 1.550 . S
C4 H6 0.973 . S
O5 C4 1.550 . S
O5 C11 1.412 . S
H6 C4 0.973 . S
C7 H0 0.929 . S
C7 C8 1.400 . S
C7 C9 1.364 . S
C8 C7 1.400 . S
C8 C12 1.377 . S
C9 C7 1.364 . S
C9 C10 1.374 . S
C10 H1 0.930 . S
C10 C9 1.374 . S
C10 C11 1.383 . S
C11 O5 1.412 . S
C11 C10 1.383 . S
C11 C12 1.394 . S
C12 H2 0.929 . S
C12 C8 1.377 . S
C12 C11 1.394 . S
H13 C20 0.929 . S
H14 C23 0.930 . S
H15 C25 0.929 . S
H16 C17 0.969 1_545 S
C17 H16 0.969 1_565 S
C17 O18 1.550 1_565 S
C17 H19 0.973 . S
O18 C17 1.550 1_545 S
O18 C24 1.412 . S
H19 C17 0.973 . S
C20 H13 0.929 . S
C20 C21 1.400 . S
C20 C22 1.364 . S
C21 C20 1.400 . S
C21 C25 1.377 . S
C22 C20 1.364 . S
C22 C23 1.374 . S
C23 H14 0.930 . S
C23 C22 1.374 . S
C23 C24 1.383 . S
C24 O18 1.412 . S
C24 C23 1.383 . S
C24 C25 1.394 . S
C25 H15 0.929 . S
C25 C21 1.377 . S
C25 C24 1.394 . S
H26 C33 0.929 . S
H27 C36 0.930 . S
H28 C38 0.929 . S
H29 C30 0.969 . S
C30 H29 0.969 . S
C30 O31 1.550 1_455 S
C30 H32 0.973 . S
O31 C30 1.550 1_655 S
O31 C37 1.412 . S
H32 C30 0.973 . S
C33 H26 0.929 . S
C33 C34 1.400 . S
C33 C35 1.364 . S
C34 C33 1.400 . S
C34 C38 1.377 . S
C35 C33 1.364 . S
C35 C36 1.374 . S
C36 H27 0.930 . S
C36 C35 1.374 . S
C36 C37 1.383 . S
C37 O31 1.412 . S
C37 C36 1.383 . S
C37 C38 1.394 . S
C38 H28 0.929 . S
C38 C34 1.377 . S
C38 C37 1.394 . S
H39 C46 0.929 . S
H40 C49 0.930 . S
H41 C51 0.929 . S
H42 C43 0.969 . S
C43 H42 0.969 . S
C43 O44 1.550 . S
C43 H45 0.973 . S
O44 C43 1.550 . S
O44 C50 1.412 . S
H45 C43 0.973 . S
C46 H39 0.929 . S
C46 C47 1.400 . S
C46 C48 1.364 . S
C47 C46 1.400 . S
C47 C51 1.377 . S
C48 C46 1.364 . S
C48 C49 1.374 . S
C49 H40 0.930 . S
C49 C48 1.374 . S
C49 C50 1.383 . S
C50 O44 1.412 . S
C50 C49 1.383 . S
C50 C51 1.394 . S
C51 H41 0.929 . S
C51 C47 1.377 . S
C51 C50 1.394 . S
H52 C59 0.929 . S
H53 C62 0.930 . S
H54 C64 0.929 . S
H55 C56 0.970 1_565 S
C56 H55 0.970 1_545 S
C56 O57 1.550 1_545 S
C56 H58 0.973 . S
O57 C56 1.550 1_565 S
O57 C63 1.412 . S
H58 C56 0.973 . S
C59 H52 0.929 . S
C59 C60 1.400 . S
C59 C61 1.364 . S
C60 C59 1.400 . S
C60 C64 1.377 . S
C61 C59 1.364 . S
C61 C62 1.374 . S
C62 H53 0.930 . S
C62 C61 1.374 . S
C62 C63 1.383 . S
C63 O57 1.412 . S
C63 C62 1.383 . S
C63 C64 1.394 . S
C64 H54 0.929 . S
C64 C60 1.377 . S
C64 C63 1.394 . S
H65 C72 0.929 . S
H66 C75 0.930 . S
H67 C77 0.929 . S
H68 C69 0.962 1_455 S
C69 H68 0.962 1_655 S
C69 O70 1.549 1_655 S
C69 H71 0.976 . S
O70 C69 1.549 1_455 S
O70 C76 1.412 . S
H71 C69 0.976 . S
C72 H65 0.929 . S
C72 C73 1.400 . S
C72 C74 1.364 . S
C73 C72 1.400 . S
C73 C77 1.377 . S
C74 C72 1.364 . S
C74 C75 1.374 . S
C75 H66 0.930 . S
C75 C74 1.374 . S
C75 C76 1.383 . S
C76 O70 1.412 . S
C76 C75 1.383 . S
C76 C77 1.394 . S
C77 H67 0.929 . S
C77 C73 1.377 . S
C77 C76 1.394 . S
H78 C85 0.929 . S
H79 C88 0.930 . S
H80 C90 0.929 . S
H81 C82 0.969 . S
C82 H81 0.969 . S
C82 O83 1.550 . S
C82 H84 0.973 . S
O83 C82 1.550 . S
O83 C89 1.412 . S
H84 C82 0.973 . S
C85 H78 0.929 . S
C85 C86 1.400 . S
C85 C87 1.364 . S
C86 C85 1.400 . S
C86 C90 1.377 . S
C87 C85 1.364 . S
C87 C88 1.374 . S
C88 H79 0.930 . S
C88 C87 1.374 . S
C88 C89 1.383 . S
C89 O83 1.412 . S
C89 C88 1.383 . S
C89 C90 1.394 . S
C90 H80 0.929 . S
C90 C86 1.377 . S
C90 C89 1.394 . S
H91 C98 0.929 . S
H92 C101 0.930 . S
H93 C103 0.929 . S
H94 C95 0.969 . S
C95 H94 0.969 . S
C95 O96 1.550 . S
C95 H97 0.973 . S
O96 C95 1.550 . S
O96 C102 1.412 . S
H97 C95 0.973 . S
C98 H91 0.929 . S
C98 C99 1.400 . S
C98 C100 1.364 . S
C99 C98 1.400 . S
C99 C103 1.377 . S
C100 C98 1.364 . S
C100 C101 1.374 . S
C101 H92 0.930 . S
C101 C100 1.374 . S
C101 C102 1.383 . S
C102 O96 1.412 . S
C102 C101 1.383 . S
C102 C103 1.394 . S
C103 H93 0.929 . S
C103 C99 1.377 . S
C103 C102 1.394 . S
H104 C111 0.929 . S
H105 C114 0.930 . S
H106 C116 0.929 . S
H107 C108 0.969 . S
C108 H107 0.969 . S
C108 O109 1.550 . S
C108 H110 0.973 . S
O109 C108 1.550 . S
O109 C115 1.412 . S
H110 C108 0.973 . S
C111 H104 0.929 . S
C111 C112 1.400 . S
C111 C113 1.364 . S
C112 C111 1.400 . S
C112 C116 1.377 . S
C113 C111 1.364 . S
C113 C114 1.374 . S
C114 H105 0.930 . S
C114 C113 1.374 . S
C114 C115 1.383 . S
C115 O109 1.412 . S
C115 C114 1.383 . S
C115 C116 1.394 . S
C116 H106 0.929 . S
C116 C112 1.377 . S
C116 C115 1.394 . S
H117 C124 0.929 . S
H118 C127 0.930 . S
H119 C129 0.936 . S
H120 C121 0.969 . S
C121 H120 0.969 . S
C121 O122 1.550 . S
C121 H123 0.973 . S
O122 C121 1.550 . S
O122 C128 1.412 . S
H123 C121 0.973 . S
C124 H117 0.929 . S
C124 C125 1.400 . S
C124 C126 1.364 . S
C125 C124 1.400 . S
C125 C129 1.377 . S
C126 C124 1.364 . S
C126 C127 1.374 . S
C127 H118 0.930 . S
C127 C126 1.374 . S
C127 C128 1.383 . S
C128 O122 1.412 . S
C128 C127 1.383 . S
C128 C129 1.394 . S
C129 H119 0.936 . S
C129 C125 1.377 . S
C129 C128 1.394 . S
H130 C137 0.929 . S
H131 C140 0.930 . S
H132 C142 0.929 . S
H133 C134 0.969 . S
C134 H133 0.969 . S
C134 O135 1.550 1_556 S
C134 H136 0.973 . S
O135 C134 1.550 1_554 S
O135 C141 1.412 1_554 S
H136 C134 0.973 . S
C137 H130 0.929 . S
C137 C138 1.400 . S
C137 C139 1.364 . S
C138 C137 1.400 . S
C138 C142 1.377 1_556 S
C139 C137 1.364 . S
C139 C140 1.374 . S
C140 H131 0.930 . S
C140 C139 1.374 . S
C140 C141 1.383 . S
C141 O135 1.412 1_556 S
C141 C140 1.383 . S
C141 C142 1.394 1_556 S
C142 H132 0.929 . S
C142 C138 1.377 1_554 S
C142 C141 1.394 1_554 S
H143 C150 0.929 . S
H144 C153 0.930 . S
H145 C155 0.929 1_554 S
H146 C147 0.969 . S
C147 H146 0.969 . S
C147 O148 1.550 . S
C147 H149 0.973 . S
O148 C147 1.550 . S
O148 C154 1.412 . S
H149 C147 0.973 . S
C150 H143 0.929 . S
C150 C151 1.400 . S
C150 C152 1.364 . S
C151 C150 1.400 . S
C151 C155 1.377 . S
C152 C150 1.364 . S
C152 C153 1.374 . S
C153 H144 0.930 . S
C153 C152 1.374 . S
C153 C154 1.383 . S
C154 O148 1.412 . S
C154 C153 1.383 . S
C154 C155 1.394 . S
C155 H145 0.929 1_556 S
C155 C151 1.377 . S
C155 C154 1.394 . S
H156 C163 0.929 . S
H157 C166 0.930 . S
H158 C168 0.929 1_556 S
H159 C160 0.969 . S
C160 H159 0.969 . S
C160 O161 1.550 . S
C160 H162 0.973 . S
O161 C160 1.550 . S
O161 C167 1.412 . S
H162 C160 0.973 . S
C163 H156 0.929 . S
C163 C164 1.400 . S
C163 C165 1.364 . S
C164 C163 1.400 . S
C164 C168 1.377 . S
C165 C163 1.364 . S
C165 C166 1.374 . S
C166 H157 0.930 . S
C166 C165 1.374 . S
C166 C167 1.383 . S
C167 O161 1.412 . S
C167 C166 1.383 . S
C167 C168 1.394 . S
C168 H158 0.929 1_554 S
C168 C164 1.377 . S
C168 C167 1.394 . S
H169 C176 0.929 . S
H170 C179 0.930 . S
H171 C181 0.929 1_556 S
H172 C173 0.969 . S
C173 H172 0.969 . S
C173 O174 1.550 . S
C173 H175 0.973 . S
O174 C173 1.550 . S
O174 C180 1.412 . S
H175 C173 0.973 . S
C176 H169 0.929 . S
C176 C177 1.400 . S
C176 C178 1.364 . S
C177 C176 1.400 . S
C177 C181 1.377 . S
C178 C176 1.364 . S
C178 C179 1.374 . S
C179 H170 0.930 . S
C179 C178 1.374 . S
C179 C180 1.383 . S
C180 O174 1.412 . S
C180 C179 1.383 . S
C180 C181 1.394 . S
C181 H171 0.929 1_554 S
C181 C177 1.377 . S
C181 C180 1.394 . S
H182 C189 0.929 . S
H183 C192 0.930 . S
H184 C194 0.929 . S
H185 C186 0.969 . S
C186 H185 0.969 . S
C186 O187 1.550 . S
C186 H188 0.973 . S
O187 C186 1.550 . S
O187 C193 1.412 . S
H188 C186 0.973 . S
C189 H182 0.929 . S
C189 C190 1.400 . S
C189 C191 1.364 . S
C190 C189 1.400 . S
C190 C194 1.377 . S
C191 C189 1.364 . S
C191 C192 1.374 . S
C192 H183 0.930 . S
C192 C191 1.374 . S
C192 C193 1.383 . S
C193 O187 1.412 . S
C193 C192 1.383 . S
C193 C194 1.394 . S
C194 H184 0.929 . S
C194 C190 1.377 . S
C194 C193 1.394 . S
H195 C202 0.929 . S
H196 C205 0.930 . S
H197 C207 0.929 . S
H198 C199 0.969 . S
C199 H198 0.969 . S
C199 O200 1.550 . S
C199 H201 0.973 . S
O200 C199 1.550 . S
O200 C206 1.412 . S
H201 C199 0.973 . S
C202 H195 0.929 . S
C202 C203 1.400 . S
C202 C204 1.364 . S
C203 C202 1.400 . S
C203 C207 1.377 . S
C204 C202 1.364 . S
C204 C205 1.374 . S
C205 H196 0.930 . S
C205 C204 1.374 . S
C205 C206 1.383 . S
C206 O200 1.412 . S
C206 C205 1.383 . S
C206 C207 1.394 . S
C207 H197 0.929 . S
C207 C203 1.377 . S
C207 C206 1.394 . S
H208 C215 0.929 . S
H209 C218 0.930 . S
H210 C220 0.929 . S
H211 C212 0.969 . S
C212 H211 0.969 . S
C212 O213 1.550 . S
C212 H214 0.973 . S
O213 C212 1.550 . S
O213 C219 1.412 . S
H214 C212 0.973 . S
C215 H208 0.929 . S
C215 C216 1.400 . S
C215 C217 1.364 . S
C216 C215 1.400 . S
C216 C220 1.377 . S
C217 C215 1.364 . S
C217 C218 1.374 . S
C218 H209 0.930 . S
C218 C217 1.374 . S
C218 C219 1.383 . S
C219 O213 1.412 . S
C219 C218 1.383 . S
C219 C220 1.394 . S
C220 H210 0.929 . S
C220 C216 1.377 . S
C220 C219 1.394 . S
H221 C228 0.929 . S
H222 C231 0.930 . S
H223 C233 0.929 . S
H224 C225 0.969 . S
C225 H224 0.969 . S
C225 O226 1.550 . S
C225 H227 0.973 . S
O226 C225 1.550 . S
O226 C232 1.412 . S
H227 C225 0.973 . S
C228 H221 0.929 . S
C228 C229 1.400 . S
C228 C230 1.364 . S
C229 C228 1.400 . S
C229 C233 1.377 . S
C230 C228 1.364 . S
C230 C231 1.374 . S
C231 H222 0.930 . S
C231 C230 1.374 . S
C231 C232 1.383 . S
C232 O226 1.412 . S
C232 C231 1.383 . S
C232 C233 1.394 . S
C233 H223 0.929 . S
C233 C229 1.377 . S
C233 C232 1.394 . S
C234 Eu235 2.835 . S
C234 C236 1.500 1_545 S
C234 O254 1.257 1_545 S
C234 O255 1.260 . S
Eu235 C234 2.835 . S
Eu235 O254 2.473 1_545 S
Eu235 O255 2.480 . S
Eu235 O256 2.430 . S
Eu235 O257 2.670 1_554 S
Eu235 O258 2.394 1_545 S
Eu235 O263 2.355 1_545 S
Eu235 O265 2.374 . S
C236 C234 1.500 1_565 S
C236 C237 1.377 1_565 S
C236 C241 1.377 . S
C237 C236 1.377 1_545 S
C237 C238 1.395 . S
C237 H266 0.931 . S
C238 C237 1.395 . S
C238 C239 1.383 1_545 S
C238 H267 0.931 . S
C239 C238 1.383 1_565 S
C239 C240 1.394 . S
C240 C239 1.394 . S
C240 C241 1.378 . S
C240 H268 0.931 . S
C241 C236 1.377 . S
C241 C240 1.378 . S
C241 H269 0.931 . S
C242 O256 1.259 . S
C242 O257 1.270 1_554 S
C243 O258 1.251 . S
C243 O259 1.251 1_554 S
C244 Eu245 2.835 1_545 S
C244 C246 1.500 . S
C244 O260 1.257 . S
C244 O261 1.260 1_545 S
Eu245 C244 2.835 1_565 S
Eu245 O257 2.355 1_565 S
Eu245 O259 2.374 . S
Eu245 O260 2.473 1_565 S
Eu245 O261 2.480 . S
Eu245 O262 2.430 . S
Eu245 O263 2.670 1_556 S
Eu245 O264 2.394 1_565 S
C246 C244 1.500 . S
C246 C247 1.377 1_545 S
C246 C251 1.377 . S
C247 C246 1.377 1_565 S
C247 C248 1.395 1_565 S
C247 H270 0.931 . S
C248 C247 1.395 1_545 S
C248 C249 1.383 . S
C248 H271 0.931 1_545 S
C249 C248 1.383 . S
C249 C250 1.394 . S
C250 C249 1.394 . S
C250 C251 1.378 . S
C250 H272 0.931 . S
C251 C246 1.377 . S
C251 C250 1.378 . S
C251 H273 0.931 . S
C252 O262 1.259 1_554 S
C252 O263 1.270 . S
C253 O264 1.251 . S
C253 O265 1.251 1_556 S
O254 C234 1.257 1_565 S
O254 Eu235 2.473 1_565 S
O255 C234 1.260 . S
O255 Eu235 2.480 . S
O256 Eu235 2.430 . S
O256 C242 1.259 . S
O257 Eu235 2.670 1_556 S
O257 C242 1.270 1_556 S
O257 Eu245 2.355 1_545 S
O258 Eu235 2.394 1_565 S
O258 C243 1.251 . S
O259 C243 1.251 1_556 S
O259 Eu245 2.374 . S
O260 C244 1.257 . S
O260 Eu245 2.473 1_545 S
O261 C244 1.260 1_565 S
O261 Eu245 2.480 . S
O262 Eu245 2.430 . S
O262 C252 1.259 1_556 S
O263 Eu235 2.355 1_565 S
O263 Eu245 2.670 1_554 S
O263 C252 1.270 . S
O264 Eu245 2.394 1_545 S
O264 C253 1.251 . S
O265 Eu235 2.374 . S
O265 C253 1.251 1_554 S
H266 C237 0.931 . S
H267 C238 0.931 . S
H268 C240 0.931 . S
H269 C241 0.931 . S
H270 C247 0.931 . S
H271 C248 0.931 1_565 S
H272 C250 0.931 . S
H273 C251 0.931 . S
C274 Eu275 2.835 1_455 S
C274 C276 1.500 . S
C274 O294 1.257 . S
C274 O295 1.260 1_455 S
Eu275 C274 2.835 1_655 S
Eu275 O294 2.473 1_655 S
Eu275 O295 2.480 . S
Eu275 O296 2.430 . S
Eu275 O297 2.670 1_554 S
Eu275 O298 2.394 1_655 S
Eu275 O303 2.355 1_655 S
Eu275 O305 2.374 . S
C276 C274 1.500 . S
C276 C277 1.377 . S
C276 C281 1.377 . S
C277 C276 1.377 . S
C277 C278 1.395 . S
C277 H306 0.931 1_455 S
C278 C277 1.395 . S
C278 C279 1.383 . S
C278 H307 0.931 1_455 S
C279 C278 1.383 . S
C279 C280 1.394 . S
C280 C279 1.394 . S
C280 C281 1.378 . S
C280 H308 0.931 . S
C281 C276 1.377 . S
C281 C280 1.378 . S
C281 H309 0.931 . S
C282 O296 1.259 1_556 S
C282 O297 1.270 . S
C283 O298 1.251 . S
C283 O299 1.221 1_554 S
C284 Eu285 2.838 . S
C284 C286 1.497 1_455 S
C284 O300 1.255 1_455 S
C284 O301 1.265 . S
Eu285 C284 2.838 . S
Eu285 O297 2.355 1_455 S
Eu285 O299 2.395 . S
Eu285 O300 2.473 1_455 S
Eu285 O301 2.480 . S
Eu285 O302 2.430 . S
Eu285 O303 2.670 1_556 S
Eu285 O304 2.394 1_455 S
C286 C284 1.497 1_655 S
C286 C287 1.377 1_655 S
C286 C291 1.377 . S
C287 C286 1.377 1_455 S
C287 C288 1.395 1_455 S
C287 H310 0.931 . S
C288 C287 1.395 1_655 S
C288 C289 1.383 . S
C288 H311 0.931 1_655 S
C289 C288 1.383 . S
C289 C290 1.394 . S
C290 C289 1.394 . S
C290 C291 1.378 . S
C290 H312 0.931 . S
C291 C286 1.377 . S
C291 C290 1.378 . S
C291 H313 0.931 . S
C292 O302 1.259 1_554 S
C292 O303 1.270 . S
C293 O304 1.251 . S
C293 O305 1.251 1_556 S
O294 C274 1.257 . S
O294 Eu275 2.473 1_455 S
O295 C274 1.260 1_655 S
O295 Eu275 2.480 . S
O296 Eu275 2.430 . S
O296 C282 1.259 1_554 S
O297 Eu275 2.670 1_556 S
O297 C282 1.270 . S
O297 Eu285 2.355 1_655 S
O298 Eu275 2.394 1_455 S
O298 C283 1.251 . S
O299 C283 1.221 1_556 S
O299 Eu285 2.395 . S
O300 C284 1.255 1_655 S
O300 Eu285 2.473 1_655 S
O301 C284 1.265 . S
O301 Eu285 2.480 . S
O302 Eu285 2.430 . S
O302 C292 1.259 1_556 S
O303 Eu275 2.355 1_455 S
O303 Eu285 2.670 1_554 S
O303 C292 1.270 . S
O304 Eu285 2.394 1_655 S
O304 C293 1.251 . S
O305 Eu275 2.374 . S
O305 C293 1.251 1_554 S
H306 C277 0.931 1_655 S
H307 C278 0.931 1_655 S
H308 C280 0.931 . S
H309 C281 0.931 . S
H310 C287 0.931 . S
H311 C288 0.931 1_455 S
H312 C290 0.931 . S
H313 C291 0.931 . S
C314 Eu315 2.835 . S
C314 C316 1.500 . S
C314 O334 1.257 . S
C314 O335 1.260 . S
Eu315 C314 2.835 . S
Eu315 O334 2.473 . S
Eu315 O335 2.480 . S
Eu315 O336 2.430 . S
Eu315 O337 2.670 1_556 S
Eu315 O338 2.394 . S
Eu315 O343 2.355 . S
Eu315 O345 2.376 . S
C316 C314 1.500 . S
C316 C317 1.377 . S
C316 C321 1.377 . S
C317 C316 1.377 . S
C317 C318 1.395 . S
C317 H346 0.931 . S
C318 C317 1.395 . S
C318 C319 1.383 . S
C318 H347 0.931 . S
C319 C318 1.383 . S
C319 C320 1.394 . S
C320 C319 1.394 . S
C320 C321 1.378 . S
C320 H348 0.931 . S
C321 C316 1.377 . S
C321 C320 1.378 . S
C321 H349 0.931 . S
C322 O336 1.259 1_554 S
C322 O337 1.270 . S
C323 O338 1.251 . S
C323 O339 1.251 1_556 S
C324 Eu325 2.835 . S
C324 C326 1.500 . S
C324 O340 1.257 . S
C324 O341 1.260 . S
Eu325 C324 2.835 . S
Eu325 O337 2.355 . S
Eu325 O339 2.374 . S
Eu325 O340 2.473 . S
Eu325 O341 2.480 . S
Eu325 O342 2.430 . S
Eu325 O343 2.670 1_554 S
Eu325 O344 2.394 . S
C326 C324 1.500 . S
C326 C327 1.377 . S
C326 C331 1.377 . S
C327 C326 1.377 . S
C327 C328 1.395 . S
C327 H350 0.931 . S
C328 C327 1.395 . S
C328 C329 1.383 . S
C328 H351 0.931 . S
C329 C328 1.383 . S
C329 C330 1.394 . S
C330 C329 1.394 . S
C330 C331 1.378 . S
C330 H352 0.931 . S
C331 C326 1.377 . S
C331 C330 1.378 . S
C331 H353 0.931 . S
C332 O342 1.259 . S
C332 O343 1.270 1_554 S
C333 O344 1.251 . S
C333 O345 1.248 1_554 S
O334 C314 1.257 . S
O334 Eu315 2.473 . S
O335 C314 1.260 . S
O335 Eu315 2.480 . S
O336 Eu315 2.430 . S
O336 C322 1.259 1_556 S
O337 Eu315 2.670 1_554 S
O337 C322 1.270 . S
O337 Eu325 2.355 . S
O338 Eu315 2.394 . S
O338 C323 1.251 . S
O339 C323 1.251 1_554 S
O339 Eu325 2.374 . S
O340 C324 1.257 . S
O340 Eu325 2.473 . S
O341 C324 1.260 . S
O341 Eu325 2.480 . S
O342 Eu325 2.430 . S
O342 C332 1.259 . S
O343 Eu315 2.355 . S
O343 Eu325 2.670 1_556 S
O343 C332 1.270 1_556 S
O344 Eu325 2.394 . S
O344 C333 1.251 . S
O345 Eu315 2.376 . S
O345 C333 1.248 1_556 S
H346 C317 0.931 . S
H347 C318 0.931 . S
H348 C320 0.931 . S
H349 C321 0.931 . S
H350 C327 0.931 . S
H351 C328 0.931 . S
H352 C330 0.931 . S
H353 C331 0.931 . S
C354 Eu355 2.835 . S
C354 C356 1.500 . S
C354 O374 1.257 . S
C354 O375 1.260 . S
Eu355 C354 2.835 . S
Eu355 O374 2.473 . S
Eu355 O375 2.480 . S
Eu355 O376 2.430 . S
Eu355 O377 2.670 . S
Eu355 O378 2.394 . S
Eu355 O383 2.355 . S
Eu355 O385 2.374 . S
C356 C354 1.500 . S
C356 C357 1.377 . S
C356 C361 1.377 . S
C357 C356 1.377 . S
C357 C358 1.395 . S
C357 H386 0.931 . S
C358 C357 1.395 . S
C358 C359 1.383 . S
C358 H387 0.931 . S
C359 C358 1.383 . S
C359 C360 1.394 . S
C360 C359 1.394 . S
C360 C361 1.378 . S
C360 H388 0.931 . S
C361 C356 1.377 . S
C361 C360 1.378 . S
C361 H389 0.931 . S
C362 O376 1.259 . S
C362 O377 1.270 . S
C363 O378 1.251 . S
C363 O379 1.251 . S
C364 Eu365 2.835 . S
C364 C366 1.500 . S
C364 O380 1.257 . S
C364 O381 1.260 . S
Eu365 C364 2.835 . S
Eu365 O377 2.355 . S
Eu365 O379 2.374 . S
Eu365 O380 2.473 . S
Eu365 O381 2.480 . S
Eu365 O382 2.430 . S
Eu365 O383 2.670 . S
Eu365 O384 2.394 . S
C366 C364 1.500 . S
C366 C367 1.377 . S
C366 C371 1.377 . S
C367 C366 1.377 . S
C367 C368 1.395 . S
C367 H390 0.931 . S
C368 C367 1.395 . S
C368 C369 1.383 . S
C368 H391 0.931 . S
C369 C368 1.383 . S
C369 C370 1.394 . S
C370 C369 1.394 . S
C370 C371 1.378 . S
C370 H392 0.931 . S
C371 C366 1.377 . S
C371 C370 1.378 . S
C371 H393 0.931 . S
C372 O382 1.259 . S
C372 O383 1.270 . S
C373 O384 1.251 . S
C373 O385 1.251 . S
O374 C354 1.257 . S
O374 Eu355 2.473 . S
O375 C354 1.260 . S
O375 Eu355 2.480 . S
O376 Eu355 2.430 . S
O376 C362 1.259 . S
O377 Eu355 2.670 . S
O377 C362 1.270 . S
O377 Eu365 2.355 . S
O378 Eu355 2.394 . S
O378 C363 1.251 . S
O379 C363 1.251 . S
O379 Eu365 2.374 . S
O380 C364 1.257 . S
O380 Eu365 2.473 . S
O381 C364 1.260 . S
O381 Eu365 2.480 . S
O382 Eu365 2.430 . S
O382 C372 1.259 . S
O383 Eu355 2.355 . S
O383 Eu365 2.670 . S
O383 C372 1.270 . S
O384 Eu365 2.394 . S
O384 C373 1.251 . S
O385 Eu355 2.374 . S
O385 C373 1.251 . S
H386 C357 0.931 . S
H387 C358 0.931 . S
H388 C360 0.931 . S
H389 C361 0.931 . S
H390 C367 0.931 . S
H391 C368 0.931 . S
H392 C370 0.931 . S
H393 C371 0.931 . S
C394 Eu395 2.835 . S
C394 C396 1.500 . S
C394 O414 1.257 . S
C394 O415 1.260 . S
Eu395 C394 2.835 . S
Eu395 O414 2.473 . S
Eu395 O415 2.480 . S
Eu395 O416 2.430 . S
Eu395 O417 2.670 . S
Eu395 O418 2.394 . S
Eu395 O423 2.355 . S
Eu395 O425 2.374 . S
C396 C394 1.500 . S
C396 C397 1.377 . S
C396 C401 1.377 . S
C397 C396 1.377 . S
C397 C398 1.395 . S
C397 H426 0.931 . S
C398 C397 1.395 . S
C398 C399 1.383 . S
C398 H427 0.931 . S
C399 C398 1.383 . S
C399 C400 1.394 . S
C400 C399 1.394 . S
C400 C401 1.378 . S
C400 H428 0.931 . S
C401 C396 1.377 . S
C401 C400 1.378 . S
C401 H429 0.931 . S
C402 O416 1.259 . S
C402 O417 1.270 . S
C403 O418 1.251 . S
C403 O419 1.251 . S
C404 Eu405 2.835 . S
C404 C406 1.500 . S
C404 O420 1.257 . S
C404 O421 1.260 . S
Eu405 C404 2.835 . S
Eu405 O417 2.355 . S
Eu405 O419 2.374 . S
Eu405 O420 2.473 . S
Eu405 O421 2.480 . S
Eu405 O422 2.430 . S
Eu405 O423 2.670 . S
Eu405 O424 2.394 . S
C406 C404 1.500 . S
C406 C407 1.377 . S
C406 C411 1.377 . S
C407 C406 1.377 . S
C407 C408 1.395 . S
C407 H430 0.931 . S
C408 C407 1.395 . S
C408 C409 1.383 . S
C408 H431 0.931 . S
C409 C408 1.383 . S
C409 C410 1.394 . S
C410 C409 1.394 . S
C410 C411 1.378 . S
C410 H432 0.931 . S
C411 C406 1.377 . S
C411 C410 1.378 . S
C411 H433 0.931 . S
C412 O422 1.259 . S
C412 O423 1.270 . S
C413 O424 1.251 . S
C413 O425 1.251 . S
O414 C394 1.257 . S
O414 Eu395 2.473 . S
O415 C394 1.260 . S
O415 Eu395 2.480 . S
O416 Eu395 2.430 . S
O416 C402 1.259 . S
O417 Eu395 2.670 . S
O417 C402 1.270 . S
O417 Eu405 2.355 . S
O418 Eu395 2.394 . S
O418 C403 1.251 . S
O419 C403 1.251 . S
O419 Eu405 2.374 . S
O420 C404 1.257 . S
O420 Eu405 2.473 . S
O421 C404 1.260 . S
O421 Eu405 2.480 . S
O422 Eu405 2.430 . S
O422 C412 1.259 . S
O423 Eu395 2.355 . S
O423 Eu405 2.670 . S
O423 C412 1.270 . S
O424 Eu405 2.394 . S
O424 C413 1.251 . S
O425 Eu395 2.374 . S
O425 C413 1.251 . S
H426 C397 0.931 . S
H427 C398 0.931 . S
H428 C400 0.931 . S
H429 C401 0.931 . S
H430 C407 0.931 . S
H431 C408 0.931 . S
H432 C410 0.931 . S
H433 C411 0.931 . S
C434 Eu435 2.835 . S
C434 C436 1.500 . S
C434 O454 1.257 . S
C434 O455 1.260 . S
Eu435 C434 2.835 . S
Eu435 O454 2.473 . S
Eu435 O455 2.480 . S
Eu435 O456 2.430 1_565 S
Eu435 O457 2.670 . S
Eu435 O458 2.394 . S
Eu435 O463 2.355 . S
Eu435 O465 2.374 . S
C436 C434 1.500 . S
C436 C437 1.377 . S
C436 C441 1.377 . S
C437 C436 1.377 . S
C437 C438 1.395 . S
C437 H466 0.931 . S
C438 C437 1.395 . S
C438 C439 1.383 . S
C438 H467 0.931 . S
C439 C438 1.383 . S
C439 C440 1.394 . S
C440 C439 1.394 . S
C440 C441 1.378 . S
C440 H468 0.931 . S
C441 C436 1.377 . S
C441 C440 1.378 . S
C441 H469 0.931 . S
C442 O456 1.259 . S
C442 O457 1.270 1_545 S
C443 O458 1.251 . S
C443 O459 1.251 . S
C444 Eu445 2.835 . S
C444 C446 1.500 . S
C444 O460 1.257 . S
C444 O461 1.260 . S
Eu445 C444 2.835 . S
Eu445 O457 2.355 . S
Eu445 O459 2.374 . S
Eu445 O460 2.473 . S
Eu445 O461 2.480 . S
Eu445 O462 2.430 . S
Eu445 O463 2.670 . S
Eu445 O464 2.394 . S
C446 C444 1.500 . S
C446 C447 1.377 . S
C446 C451 1.377 . S
C447 C446 1.377 . S
C447 C448 1.395 . S
C447 H470 0.931 . S
C448 C447 1.395 . S
C448 C449 1.383 . S
C448 H471 0.931 . S
C449 C448 1.383 . S
C449 C450 1.394 . S
C450 C449 1.394 . S
C450 C451 1.378 . S
C450 H472 0.931 . S
C451 C446 1.377 . S
C451 C450 1.378 . S
C451 H473 0.931 . S
C452 O462 1.259 . S
C452 O463 1.270 . S
C453 O464 1.251 . S
C453 O465 1.251 . S
O454 C434 1.257 . S
O454 Eu435 2.473 . S
O455 C434 1.260 . S
O455 Eu435 2.480 . S
O456 Eu435 2.430 1_545 S
O456 C442 1.259 . S
O457 Eu435 2.670 . S
O457 C442 1.270 1_565 S
O457 Eu445 2.355 . S
O458 Eu435 2.394 . S
O458 C443 1.251 . S
O459 C443 1.251 . S
O459 Eu445 2.374 . S
O460 C444 1.257 . S
O460 Eu445 2.473 . S
O461 C444 1.260 . S
O461 Eu445 2.480 . S
O462 Eu445 2.430 . S
O462 C452 1.259 . S
O463 Eu435 2.355 . S
O463 Eu445 2.670 . S
O463 C452 1.270 . S
O464 Eu445 2.394 . S
O464 C453 1.251 . S
O465 Eu435 2.374 . S
O465 C453 1.251 . S
H466 C437 0.931 . S
H467 C438 0.931 . S
H468 C440 0.931 . S
H469 C441 0.931 . S
H470 C447 0.931 . S
H471 C448 0.931 . S
H472 C450 0.931 . S
H473 C451 0.931 . S
C474 Eu475 2.835 . S
C474 C476 1.500 . S
C474 O494 1.257 . S
C474 O495 1.260 . S
Eu475 C474 2.835 . S
Eu475 O494 2.473 . S
Eu475 O495 2.480 . S
Eu475 O496 2.430 . S
Eu475 O497 2.670 . S
Eu475 O498 2.394 . S
Eu475 O503 2.355 . S
Eu475 O505 2.374 . S
C476 C474 1.500 . S
C476 C477 1.377 . S
C476 C481 1.377 . S
C477 C476 1.377 . S
C477 C478 1.395 . S
C477 H506 0.931 . S
C478 C477 1.395 . S
C478 C479 1.383 . S
C478 H507 0.931 . S
C479 C478 1.383 . S
C479 C480 1.394 . S
C480 C479 1.394 . S
C480 C481 1.378 . S
C480 H508 0.931 . S
C481 C476 1.377 . S
C481 C480 1.378 . S
C481 H509 0.931 . S
C482 O496 1.259 . S
C482 O497 1.270 . S
C483 O498 1.251 . S
C483 O499 1.251 . S
C484 Eu485 2.835 . S
C484 C486 1.500 . S
C484 O500 1.257 . S
C484 O501 1.260 . S
Eu485 C484 2.835 . S
Eu485 O497 2.355 . S
Eu485 O499 2.374 . S
Eu485 O500 2.473 . S
Eu485 O501 2.480 . S
Eu485 O502 2.430 . S
Eu485 O503 2.670 . S
Eu485 O504 2.394 . S
C486 C484 1.500 . S
C486 C487 1.377 . S
C486 C491 1.377 . S
C487 C486 1.377 . S
C487 C488 1.395 . S
C487 H510 0.931 . S
C488 C487 1.395 . S
C488 C489 1.383 . S
C488 H511 0.931 . S
C489 C488 1.383 . S
C489 C490 1.394 . S
C490 C489 1.394 . S
C490 C491 1.378 . S
C490 H512 0.931 . S
C491 C486 1.377 . S
C491 C490 1.378 . S
C491 H513 0.931 . S
C492 O502 1.259 . S
C492 O503 1.270 . S
C493 O504 1.251 . S
C493 O505 1.251 . S
O494 C474 1.257 . S
O494 Eu475 2.473 . S
O495 C474 1.260 . S
O495 Eu475 2.480 . S
O496 Eu475 2.430 . S
O496 C482 1.259 . S
O497 Eu475 2.670 . S
O497 C482 1.270 . S
O497 Eu485 2.355 . S
O498 Eu475 2.394 . S
O498 C483 1.251 . S
O499 C483 1.251 . S
O499 Eu485 2.374 . S
O500 C484 1.257 . S
O500 Eu485 2.473 . S
O501 C484 1.260 . S
O501 Eu485 2.480 . S
O502 Eu485 2.430 . S
O502 C492 1.259 . S
O503 Eu475 2.355 . S
O503 Eu485 2.670 . S
O503 C492 1.270 . S
O504 Eu485 2.394 . S
O504 C493 1.251 . S
O505 Eu475 2.374 . S
O505 C493 1.251 . S
H506 C477 0.931 . S
H507 C478 0.931 . S
H508 C480 0.931 . S
H509 C481 0.931 . S
H510 C487 0.931 . S
H511 C488 0.931 . S
H512 C490 0.931 . S
H513 C491 0.931 . S
C514 Eu515 2.835 . S
C514 C516 1.500 . S
C514 O534 1.257 . S
C514 O535 1.260 . S
Eu515 C514 2.835 . S
Eu515 O534 2.473 . S
Eu515 O535 2.480 . S
Eu515 O536 2.430 . S
Eu515 O537 2.670 . S
Eu515 O538 2.394 . S
Eu515 O543 2.355 . S
Eu515 O545 2.374 . S
C516 C514 1.500 . S
C516 C517 1.377 . S
C516 C521 1.377 . S
C517 C516 1.377 . S
C517 C518 1.395 . S
C517 H546 0.931 . S
C518 C517 1.395 . S
C518 C519 1.383 . S
C518 H547 0.931 . S
C519 C518 1.383 . S
C519 C520 1.394 . S
C520 C519 1.394 . S
C520 C521 1.378 . S
C520 H548 0.931 . S
C521 C516 1.377 . S
C521 C520 1.378 . S
C521 H549 0.931 . S
C522 O536 1.259 . S
C522 O537 1.270 . S
C523 O538 1.251 . S
C523 O539 1.251 . S
C524 Eu525 2.835 . S
C524 C526 1.500 . S
C524 O540 1.257 . S
C524 O541 1.260 . S
Eu525 C524 2.835 . S
Eu525 O537 2.355 . S
Eu525 O539 2.374 . S
Eu525 O540 2.473 . S
Eu525 O541 2.480 . S
Eu525 O542 2.430 . S
Eu525 O543 2.670 . S
Eu525 O544 2.394 . S
C526 C524 1.500 . S
C526 C527 1.377 . S
C526 C531 1.377 . S
C527 C526 1.377 . S
C527 C528 1.395 . S
C527 H550 0.931 . S
C528 C527 1.395 . S
C528 C529 1.383 . S
C528 H551 0.931 . S
C529 C528 1.383 . S
C529 C530 1.394 . S
C530 C529 1.394 . S
C530 C531 1.378 . S
C530 H552 0.931 . S
C531 C526 1.377 . S
C531 C530 1.378 . S
C531 H553 0.931 . S
C532 O542 1.259 . S
C532 O543 1.270 . S
C533 O544 1.251 . S
C533 O545 1.251 . S
O534 C514 1.257 . S
O534 Eu515 2.473 . S
O535 C514 1.260 . S
O535 Eu515 2.480 . S
O536 Eu515 2.430 . S
O536 C522 1.259 . S
O537 Eu515 2.670 . S
O537 C522 1.270 . S
O537 Eu525 2.355 . S
O538 Eu515 2.394 . S
O538 C523 1.251 . S
O539 C523 1.251 . S
O539 Eu525 2.374 . S
O540 C524 1.257 . S
O540 Eu525 2.473 . S
O541 C524 1.260 . S
O541 Eu525 2.480 . S
O542 Eu525 2.430 . S
O542 C532 1.259 . S
O543 Eu515 2.355 . S
O543 Eu525 2.670 . S
O543 C532 1.270 . S
O544 Eu525 2.394 . S
O544 C533 1.251 . S
O545 Eu515 2.374 . S
O545 C533 1.251 . S
H546 C517 0.931 . S
H547 C518 0.931 . S
H548 C520 0.931 . S
H549 C521 0.931 . S
H550 C527 0.931 . S
H551 C528 0.931 . S
H552 C530 0.931 . S
H553 C531 0.931 . S
C554 Eu555 2.835 . S
C554 C556 1.500 . S
C554 O574 1.257 . S
C554 O575 1.260 . S
Eu555 C554 2.835 . S
Eu555 O574 2.473 . S
Eu555 O575 2.480 . S
Eu555 O576 2.430 . S
Eu555 O577 2.670 . S
Eu555 O578 2.394 . S
Eu555 O583 2.355 . S
Eu555 O585 2.374 . S
C556 C554 1.500 . S
C556 C557 1.377 . S
C556 C561 1.377 . S
C557 C556 1.377 . S
C557 C558 1.395 . S
C557 H586 0.931 . S
C558 C557 1.395 . S
C558 C559 1.383 . S
C558 H587 0.931 . S
C559 C558 1.383 . S
C559 C560 1.394 . S
C560 C559 1.394 . S
C560 C561 1.378 . S
C560 H588 0.931 . S
C561 C556 1.377 . S
C561 C560 1.378 . S
C561 H589 0.931 . S
C562 O576 1.259 . S
C562 O577 1.270 . S
C563 O578 1.251 1_455 S
C563 O579 1.251 . S
C564 Eu565 2.835 . S
C564 C566 1.500 . S
C564 O580 1.257 . S
C564 O581 1.260 . S
Eu565 C564 2.835 . S
Eu565 O577 2.355 . S
Eu565 O579 2.374 1_655 S
Eu565 O580 2.473 . S
Eu565 O581 2.480 . S
Eu565 O582 2.430 . S
Eu565 O583 2.670 . S
Eu565 O584 2.394 . S
C566 C564 1.500 . S
C566 C567 1.377 . S
C566 C571 1.377 . S
C567 C566 1.377 . S
C567 C568 1.395 . S
C567 H590 0.931 . S
C568 C567 1.395 . S
C568 C569 1.383 . S
C568 H591 0.931 . S
C569 C568 1.383 . S
C569 C570 1.394 . S
C570 C569 1.394 . S
C570 C571 1.378 . S
C570 H592 0.931 . S
C571 C566 1.377 . S
C571 C570 1.378 . S
C571 H593 0.931 . S
C572 O582 1.259 . S
C572 O583 1.270 . S
C573 O584 1.251 . S
C573 O585 1.251 . S
O574 C554 1.257 . S
O574 Eu555 2.473 . S
O575 C554 1.260 . S
O575 Eu555 2.480 . S
O576 Eu555 2.430 . S
O576 C562 1.259 . S
O577 Eu555 2.670 . S
O577 C562 1.270 . S
O577 Eu565 2.355 . S
O578 Eu555 2.394 . S
O578 C563 1.251 1_655 S
O579 C563 1.251 . S
O579 Eu565 2.374 1_455 S
O580 C564 1.257 . S
O580 Eu565 2.473 . S
O581 C564 1.260 . S
O581 Eu565 2.480 . S
O582 Eu565 2.430 . S
O582 C572 1.259 . S
O583 Eu555 2.355 . S
O583 Eu565 2.670 . S
O583 C572 1.270 . S
O584 Eu565 2.394 . S
O584 C573 1.251 . S
O585 Eu555 2.374 . S
O585 C573 1.251 . S
H586 C557 0.931 . S
H587 C558 0.931 . S
H588 C560 0.931 . S
H589 C561 0.931 . S
H590 C567 0.931 . S
H591 C568 0.931 . S
H592 C570 0.931 . S
H593 C571 0.931 . S
C177 C243 1.759 . S
C190 C283 1.890 . S
C164 C322 1.608 . S
C151 C282 1.481 . S
C323 C125 1.635 . S
C138 C242 1.459 1_556 S
C253 C147 1.899 . S
C293 C121 1.606 . S
C134 C332 1.939 1_556 S
C173 C292 1.773 . S
C186 C333 1.619 . S
C252 C160 1.983 . S
C363 C21 1.758 1_455 S
C34 C403 1.891 . S
C8 C442 1.608 . S
C229 C402 1.481 . S
C203 C443 1.635 . S
C216 C362 1.458 . S
C225 C373 1.898 . S
C199 C413 1.606 . S
C452 C212 1.939 . S
C17 C412 1.774 . S
C453 C30 1.619 . S
C4 C372 1.983 . S
C483 C99 1.759 . S
C112 C523 1.890 . S
C562 C86 1.608 . S
C522 C73 1.481 1_545 S
C563 C47 1.635 . S
C60 C482 1.458 . S
C69 C493 1.906 . S
C43 C533 1.605 . S
C572 C56 1.939 . S
C95 C532 1.773 . S
C108 C573 1.619 . S
C82 C492 1.983 . S
C204 C239 2.121 . S
C279 C217 2.400 . S
C230 C329 1.622 . S
C87 C289 1.900 . S
C100 C319 1.926 . S
C249 C113 1.391 . S
C48 C359 2.121 . S
C61 C399 2.400 . S
C74 C449 1.622 . S
C165 C409 1.900 . S
C439 C178 1.926 . S
C191 C369 1.391 . S
C126 C479 2.122 . S
C139 C519 2.400 . S
C569 C152 1.622 . S
C9 C529 1.900 . S
C22 C559 1.926 . S
C35 C489 1.391 . S
