# Generated by pormake.
# Topology pyr, (3,6)-cn, num edge types: 1
# Building blocks:
#     Node 0, Type 0, BuildingBlock: MIDCAF_clean_linker_0, # of connection points: 3
#     Node 1, Type 0, BuildingBlock: MIDCAF_clean_linker_0, # of connection points: 3
#     Node 2, Type 0, BuildingBlock: MIDCAF_clean_linker_0, # of connection points: 3
#     Node 3, Type 0, BuildingBlock: MIDCAF_clean_linker_0, # of connection points: 3
#     Node 4, Type 0, BuildingBlock: MIDCAF_clean_linker_0, # of connection points: 3
#     Node 5, Type 0, BuildingBlock: MIDCAF_clean_linker_0, # of connection points: 3
#     Node 6, Type 0, BuildingBlock: MIDCAF_clean_linker_0, # of connection points: 3
#     Node 7, Type 0, BuildingBlock: MIDCAF_clean_linker_0, # of connection points: 3
#     Node 8, Type 1, BuildingBlock: BETDIP_clean_sbu_0, # of connection points: 6
#     Node 9, Type 1, BuildingBlock: BETDIP_clean_sbu_0, # of connection points: 6
#     Node 10, Type 1, BuildingBlock: BETDIP_clean_sbu_0, # of connection points: 6
#     Node 11, Type 1, BuildingBlock: BETDIP_clean_sbu_0, # of connection points: 6
#     Edge 12, Type (0, 1), BuildingBlock: XUDNAN_clean_linker_2, # of connection points: 2
#     Edge 13, Type (0, 1), BuildingBlock: XUDNAN_clean_linker_2, # of connection points: 2
#     Edge 14, Type (0, 1), BuildingBlock: XUDNAN_clean_linker_2, # of connection points: 2
#     Edge 15, Type (0, 1), BuildingBlock: XUDNAN_clean_linker_2, # of connection points: 2
#     Edge 16, Type (0, 1), BuildingBlock: XUDNAN_clean_linker_2, # of connection points: 2
#     Edge 17, Type (0, 1), BuildingBlock: XUDNAN_clean_linker_2, # of connection points: 2
#     Edge 18, Type (0, 1), BuildingBlock: XUDNAN_clean_linker_2, # of connection points: 2
#     Edge 19, Type (0, 1), BuildingBlock: XUDNAN_clean_linker_2, # of connection points: 2
#     Edge 20, Type (0, 1), BuildingBlock: XUDNAN_clean_linker_2, # of connection points: 2
#     Edge 21, Type (0, 1), BuildingBlock: XUDNAN_clean_linker_2, # of connection points: 2
#     Edge 22, Type (0, 1), BuildingBlock: XUDNAN_clean_linker_2, # of connection points: 2
#     Edge 23, Type (0, 1), BuildingBlock: XUDNAN_clean_linker_2, # of connection points: 2
#     Edge 24, Type (0, 1), BuildingBlock: XUDNAN_clean_linker_2, # of connection points: 2
#     Edge 25, Type (0, 1), BuildingBlock: XUDNAN_clean_linker_2, # of connection points: 2
#     Edge 26, Type (0, 1), BuildingBlock: XUDNAN_clean_linker_2, # of connection points: 2
#     Edge 27, Type (0, 1), BuildingBlock: XUDNAN_clean_linker_2, # of connection points: 2
#     Edge 28, Type (0, 1), BuildingBlock: XUDNAN_clean_linker_2, # of connection points: 2
#     Edge 29, Type (0, 1), BuildingBlock: XUDNAN_clean_linker_2, # of connection points: 2
#     Edge 30, Type (0, 1), BuildingBlock: XUDNAN_clean_linker_2, # of connection points: 2
#     Edge 31, Type (0, 1), BuildingBlock: XUDNAN_clean_linker_2, # of connection points: 2
#     Edge 32, Type (0, 1), BuildingBlock: XUDNAN_clean_linker_2, # of connection points: 2
#     Edge 33, Type (0, 1), BuildingBlock: XUDNAN_clean_linker_2, # of connection points: 2
#     Edge 34, Type (0, 1), BuildingBlock: XUDNAN_clean_linker_2, # of connection points: 2
#     Edge 35, Type (0, 1), BuildingBlock: XUDNAN_clean_linker_2, # of connection points: 2
# Relax obj value: 0.119
# Max RMSD: 0.192
# Mean RMSD: 0.087
data_MOF--net-pyr--node1-BETDIP_clean_sbu_0--node2-MIDCAF_clean_linker_0--edge1-XUDNAN_clean_linker_2
_symmetry_space_group_name_H-M    P1
_symmetry_Int_Tables_number       1
_symmetry_cell_setting            triclinic
loop_
_symmetry_equiv_pos_as_xyz
'x, y, z'
_cell_length_a     43.156184
_cell_length_b     47.150088
_cell_length_c     46.348689
_cell_angle_alpha  88.736078
_cell_angle_beta   93.162733
_cell_angle_gamma 102.40777
loop_
_atom_site_label
_atom_site_type_symbol
_atom_site_fract_x
_atom_site_fract_y
_atom_site_fract_z
_atom_type_partial_charge
C0 C 0.29799 0.26933 0.31393 0.0
C1 C 0.30111 0.24403 0.32935 0.0
C2 C 0.32347 0.22851 0.32088 0.0
C3 C 0.34135 0.23745 0.29678 0.0
H4 H 0.426 0.2327 0.24981 0.0
H5 H 0.45954 0.20122 0.2329 0.0
H6 H 0.42733 0.21453 0.14488 0.0
H7 H 0.39436 0.24638 0.16145 0.0
H8 H 0.35607 0.29691 0.14831 0.0
H9 H 0.32714 0.32408 0.11492 0.0
H10 H 0.29009 0.35978 0.18737 0.0
H11 H 0.31913 0.33327 0.22053 0.0
H12 H 0.31194 0.29733 0.278 0.0
H13 H 0.28081 0.28165 0.31972 0.0
H14 H 0.32674 0.20916 0.33261 0.0
H15 H 0.35764 0.22449 0.29032 0.0
N16 N 0.37412 0.25468 0.24391 0.0
N17 N 0.37473 0.27844 0.19877 0.0
N18 N 0.3423 0.28858 0.23433 0.0
C19 C 0.38553 0.25932 0.21704 0.0
C20 C 0.35334 0.2934 0.20742 0.0
C21 C 0.35243 0.26927 0.25269 0.0
C22 C 0.40748 0.24195 0.20696 0.0
C23 C 0.42632 0.22912 0.22683 0.0
C24 C 0.44558 0.21126 0.21722 0.0
C25 C 0.44577 0.20549 0.18768 0.0
C26 C 0.4274 0.21864 0.16779 0.0
C27 C 0.40867 0.23694 0.1773 0.0
C28 C 0.33965 0.31267 0.18711 0.0
C29 C 0.34225 0.31103 0.1571 0.0
C30 C 0.32557 0.32644 0.13796 0.0
C31 C 0.30626 0.344 0.14848 0.0
C32 C 0.30505 0.34677 0.1785 0.0
C33 C 0.32151 0.33129 0.19756 0.0
C34 C 0.3371 0.26201 0.28054 0.0
C35 C 0.31576 0.27821 0.28985 0.0
C36 C 0.10558 0.83183 0.70128 0.0
C37 C 0.10722 0.83156 0.67113 0.0
C38 C 0.12001 0.81003 0.65862 0.0
C39 C 0.13356 0.79086 0.67598 0.0
H40 H 0.18367 0.72295 0.67542 0.0
H41 H 0.2194 0.7006 0.6492 0.0
H42 H 0.29009 0.71974 0.71985 0.0
H43 H 0.25398 0.74101 0.74647 0.0
H44 H 0.2423 0.77641 0.79872 0.0
H45 H 0.26265 0.80395 0.84192 0.0
H46 H 0.17287 0.82964 0.84744 0.0
H47 H 0.15286 0.80289 0.80356 0.0
H48 H 0.11936 0.81477 0.74193 0.0
H49 H 0.09586 0.8482 0.71152 0.0
H50 H 0.1211 0.80906 0.63537 0.0
H51 H 0.14487 0.7757 0.66557 0.0
N52 N 0.17256 0.76045 0.71208 0.0
N53 N 0.20262 0.75858 0.75554 0.0
N54 N 0.16286 0.78559 0.75247 0.0
C55 C 0.19576 0.75044 0.72756 0.0
C56 C 0.18601 0.77589 0.76825 0.0
C57 C 0.15592 0.778 0.7244 0.0
C58 C 0.216 0.734 0.71298 0.0
C59 C 0.20669 0.72206 0.68552 0.0
C60 C 0.22729 0.70941 0.67038 0.0
C61 C 0.25786 0.70866 0.68219 0.0
C62 C 0.26665 0.71959 0.71014 0.0
C63 C 0.24592 0.73196 0.72541 0.0
C64 C 0.19611 0.78782 0.79738 0.0
C65 C 0.22665 0.78745 0.80942 0.0
C66 C 0.2383 0.8032 0.83434 0.0
C67 C 0.21956 0.8194 0.84797 0.0
C68 C 0.18822 0.818 0.83709 0.0
C69 C 0.17667 0.80251 0.81201 0.0
C70 C 0.1348 0.79299 0.70626 0.0
C71 C 0.11926 0.81274 0.7187 0.0
C72 C 0.61848 0.26246 0.92352 0.0
C73 C 0.59718 0.24307 0.90532 0.0
C74 C 0.59148 0.25249 0.87668 0.0
C75 C 0.60632 0.28033 0.86678 0.0
H76 H 0.60085 0.35058 0.80216 0.0
H77 H 0.58678 0.37564 0.75781 0.0
H78 H 0.66528 0.44739 0.77719 0.0
H79 H 0.67946 0.42269 0.82068 0.0
H80 H 0.72931 0.42237 0.87463 0.0
H81 H 0.77401 0.44603 0.90697 0.0
H82 H 0.75301 0.37385 0.96674 0.0
H83 H 0.7088 0.35052 0.93511 0.0
H84 H 0.64959 0.30411 0.92855 0.0
H85 H 0.62323 0.25664 0.94579 0.0
H86 H 0.57575 0.23825 0.86163 0.0
H87 H 0.60138 0.2866 0.84467 0.0
N88 N 0.63539 0.34209 0.85028 0.0
N89 N 0.67738 0.38269 0.85889 0.0
N90 N 0.67041 0.3432 0.89109 0.0
C91 C 0.65158 0.36915 0.84211 0.0
C92 C 0.68701 0.36986 0.8834 0.0
C93 C 0.64475 0.32899 0.87497 0.0
C94 C 0.64163 0.38425 0.8152 0.0
C95 C 0.6151 0.37173 0.79698 0.0
C96 C 0.60685 0.38621 0.77156 0.0
C97 C 0.62504 0.41352 0.7635 0.0
C98 C 0.65098 0.4262 0.78215 0.0
C99 C 0.6591 0.41191 0.80739 0.0
C100 C 0.71502 0.38454 0.90219 0.0
C101 C 0.73426 0.41154 0.89466 0.0
C102 C 0.76004 0.42506 0.91312 0.0
C103 C 0.76698 0.41203 0.93966 0.0
C104 C 0.74811 0.38484 0.94678 0.0
C105 C 0.72267 0.37134 0.92842 0.0
C106 C 0.62768 0.29954 0.88506 0.0
C107 C 0.63351 0.29005 0.91357 0.0
C108 C 0.76588 0.67272 0.40944 0.0
C109 C 0.76115 0.6422 0.41121 0.0
C110 C 0.7829 0.62899 0.39765 0.0
C111 C 0.80791 0.64554 0.38244 0.0
H112 H 0.86465 0.64039 0.31612 0.0
H113 H 0.88547 0.6157 0.2789 0.0
H114 H 0.94397 0.69677 0.25166 0.0
H115 H 0.92285 0.72221 0.28962 0.0
H116 H 0.93783 0.77352 0.35893 0.0
H117 H 0.95724 0.81986 0.3846 0.0
H118 H 0.86224 0.81763 0.4103 0.0
H119 H 0.84307 0.77225 0.38512 0.0
H120 H 0.79408 0.7127 0.39388 0.0
H121 H 0.74964 0.68394 0.41898 0.0
H122 H 0.78099 0.60575 0.39899 0.0
H123 H 0.82402 0.63449 0.3724 0.0
N124 N 0.85344 0.68199 0.34418 0.0
N125 N 0.89047 0.7262 0.33822 0.0
N126 N 0.85151 0.72169 0.37272 0.0
C127 C 0.87852 0.6979 0.33013 0.0
C128 C 0.87682 0.73822 0.35966 0.0
C129 C 0.83974 0.69365 0.36538 0.0
C130 C 0.89208 0.68355 0.30642 0.0
C131 C 0.88184 0.65335 0.30234 0.0
C132 C 0.89384 0.63899 0.2808 0.0
C133 C 0.91649 0.6541 0.26216 0.0
C134 C 0.92636 0.68444 0.26547 0.0
C135 C 0.91446 0.69897 0.28745 0.0
C136 C 0.88891 0.7687 0.37024 0.0
C137 C 0.92103 0.7833 0.36953 0.0
C138 C 0.93216 0.80986 0.38426 0.0
C139 C 0.91139 0.82227 0.39999 0.0
C140 C 0.87906 0.80852 0.39895 0.0
C141 C 0.86806 0.78234 0.3844 0.0
C142 C 0.81257 0.67594 0.38085 0.0
C143 C 0.79135 0.68932 0.39474 0.0
C144 C 0.59841 0.83793 0.85033 0.0
C145 C 0.59366 0.84201 0.87956 0.0
C146 C 0.60341 0.82319 0.90041 0.0
C147 C 0.61939 0.80198 0.8924 0.0
H148 H 0.66648 0.73846 0.92621 0.0
H149 H 0.69617 0.71668 0.9642 0.0
H150 H 0.76192 0.70291 0.90183 0.0
H151 H 0.73269 0.72404 0.8641 0.0
H152 H 0.73343 0.74897 0.80511 0.0
H153 H 0.76396 0.76446 0.76308 0.0
H154 H 0.69413 0.81266 0.73169 0.0
H155 H 0.66397 0.79798 0.77442 0.0
H156 H 0.61868 0.81503 0.81967 0.0
H157 H 0.59065 0.85174 0.8337 0.0
H158 H 0.60033 0.82587 0.92315 0.0
H159 H 0.62783 0.78877 0.90921 0.0
N160 N 0.65942 0.76374 0.87586 0.0
N161 N 0.6926 0.7511 0.84225 0.0
N162 N 0.65878 0.78218 0.82839 0.0
C163 C 0.68182 0.7489 0.86934 0.0
C164 C 0.68122 0.76754 0.82161 0.0
C165 C 0.64759 0.78029 0.8554 0.0
C166 C 0.6973 0.73328 0.89209 0.0
C167 C 0.68709 0.73052 0.92057 0.0
C168 C 0.70399 0.71808 0.9423 0.0
C169 C 0.73153 0.70865 0.93591 0.0
C170 C 0.74105 0.71052 0.90737 0.0
C171 C 0.7241 0.72252 0.88571 0.0
C172 C 0.69648 0.77267 0.79351 0.0
C173 C 0.72421 0.76251 0.78909 0.0
C174 C 0.74171 0.77125 0.76478 0.0
C175 C 0.73178 0.79016 0.74416 0.0
C176 C 0.70285 0.79862 0.74752 0.0
C177 C 0.68544 0.79006 0.77196 0.0
C178 C 0.62605 0.7992 0.86335 0.0
C179 C 0.61441 0.81678 0.84231 0.0
C180 C 0.83125 0.26428 0.23847 0.0
C181 C 0.80609 0.27449 0.22417 0.0
C182 C 0.79436 0.2964 0.23721 0.0
C183 C 0.80603 0.30646 0.26465 0.0
H184 H 0.80294 0.36856 0.32665 0.0
H185 H 0.76977 0.39744 0.34798 0.0
H186 H 0.78235 0.35685 0.43096 0.0
H187 H 0.81551 0.32778 0.40972 0.0
H188 H 0.85278 0.27837 0.41464 0.0
H189 H 0.87083 0.24061 0.44345 0.0
H190 H 0.91351 0.21459 0.36917 0.0
H191 H 0.89518 0.25224 0.33993 0.0
H192 H 0.86117 0.26488 0.27693 0.0
H193 H 0.84138 0.24789 0.22875 0.0
H194 H 0.77483 0.30464 0.22703 0.0
H195 H 0.79531 0.32238 0.27449 0.0
N196 N 0.8249 0.32166 0.32365 0.0
N197 N 0.84446 0.30864 0.36903 0.0
N198 N 0.85381 0.28487 0.32747 0.0
C199 C 0.8284 0.32555 0.35266 0.0
C200 C 0.85753 0.28845 0.35658 0.0
C201 C 0.83751 0.30143 0.31083 0.0
C202 C 0.81169 0.34565 0.3664 0.0
C203 C 0.79899 0.366 0.34953 0.0
C204 C 0.78012 0.38269 0.36176 0.0
C205 C 0.77332 0.37923 0.39107 0.0
C206 C 0.78695 0.35971 0.40822 0.0
C207 C 0.80611 0.34321 0.39606 0.0
C208 C 0.87223 0.26817 0.37485 0.0
C209 C 0.86642 0.26497 0.40444 0.0
C210 C 0.87663 0.24328 0.42096 0.0
C211 C 0.8933 0.22463 0.40842 0.0
C212 C 0.90075 0.22879 0.37932 0.0
C213 C 0.8901 0.25024 0.36261 0.0
C214 C 0.82952 0.29466 0.27986 0.0
C215 C 0.84274 0.27415 0.26605 0.0
C216 C 0.27038 0.64316 0.19633 0.0
C217 C 0.26922 0.64753 0.1661 0.0
C218 C 0.29719 0.66216 0.15337 0.0
C219 C 0.3246 0.67381 0.17024 0.0
H220 H 0.37705 0.76107 0.18074 0.0
H221 H 0.40677 0.80428 0.15693 0.0
H222 H 0.49123 0.79658 0.20804 0.0
H223 H 0.46141 0.75323 0.23212 0.0
H224 H 0.45057 0.70333 0.28582 0.0
H225 H 0.4697 0.6831 0.3302 0.0
H226 H 0.37822 0.625 0.33747 0.0
H227 H 0.35947 0.6446 0.29212 0.0
H228 H 0.2982 0.65162 0.23658 0.0
H229 H 0.24943 0.63199 0.20699 0.0
H230 H 0.29789 0.66513 0.13017 0.0
H231 H 0.34522 0.68557 0.15945 0.0
N232 N 0.37156 0.71118 0.20715 0.0
N233 N 0.40884 0.7139 0.24625 0.0
N234 N 0.36427 0.67483 0.24312 0.0
C235 C 0.39866 0.72553 0.22115 0.0
C236 C 0.39173 0.68859 0.25755 0.0
C237 C 0.35425 0.68593 0.2177 0.0
C238 C 0.41678 0.75329 0.20833 0.0
C239 C 0.40193 0.76861 0.18716 0.0
C240 C 0.41892 0.79364 0.17357 0.0
C241 C 0.45148 0.80399 0.18037 0.0
C242 C 0.46623 0.78912 0.20202 0.0
C243 C 0.44909 0.76428 0.21596 0.0
C244 C 0.40329 0.6759 0.28516 0.0
C245 C 0.4344 0.68627 0.29679 0.0
C246 C 0.44536 0.67465 0.3226 0.0
C247 C 0.42554 0.65246 0.33814 0.0
C248 C 0.39448 0.64181 0.32631 0.0
C249 C 0.38359 0.65326 0.30023 0.0
C250 C 0.32545 0.6707 0.20047 0.0
C251 C 0.2983 0.65449 0.21334 0.0
C252 C 0.13037 0.28334 0.67357 0.0
C253 C 0.10415 0.26362 0.68403 0.0
C254 C 0.08858 0.27241 0.70719 0.0
C255 C 0.09992 0.2999 0.72015 0.0
H256 H 0.08571 0.36931 0.78458 0.0
H257 H 0.06962 0.38905 0.82895 0.0
H258 H 0.16263 0.44472 0.83987 0.0
H259 H 0.17851 0.42576 0.79602 0.0
H260 H 0.22012 0.44334 0.74001 0.0
H261 H 0.26718 0.47089 0.7173 0.0
H262 H 0.25688 0.40485 0.65227 0.0
H263 H 0.21045 0.37712 0.67517 0.0
H264 H 0.16195 0.32454 0.67717 0.0
H265 H 0.1427 0.27763 0.65554 0.0
H266 H 0.06829 0.25773 0.71582 0.0
H267 H 0.08789 0.30573 0.7383 0.0
N268 N 0.12957 0.35816 0.74762 0.0
N269 N 0.1708 0.4002 0.7471 0.0
N270 N 0.16719 0.36485 0.7119 0.0
C271 C 0.14451 0.38433 0.75955 0.0
C272 C 0.18227 0.3907 0.72322 0.0
C273 C 0.14104 0.34826 0.7236 0.0
C274 C 0.13354 0.39573 0.78648 0.0
C275 C 0.10267 0.38584 0.7964 0.0
C276 C 0.09333 0.39733 0.8217 0.0
C277 C 0.11481 0.41855 0.83802 0.0
C278 C 0.14545 0.42842 0.82796 0.0
C279 C 0.15455 0.41743 0.80263 0.0
C280 C 0.21119 0.4079 0.70955 0.0
C281 C 0.22787 0.43464 0.72091 0.0
C282 C 0.25488 0.45055 0.70773 0.0
C283 C 0.26604 0.44022 0.68281 0.0
C284 C 0.24944 0.41342 0.67161 0.0
C285 C 0.2225 0.39754 0.68473 0.0
C286 C 0.12683 0.3193 0.70997 0.0
C287 C 0.1414 0.31054 0.68615 0.0
Tb288 Tb 0.97923 1.02755 0.56484 0.0
Tb289 Tb 0.03782 0.04907 0.5319 0.0
C290 C 0.92925 1.00108 0.5868 0.0
C291 C 0.9122 0.97239 0.59647 0.0
C292 C 0.92777 0.95216 0.61029 0.0
C293 C 0.91002 0.92642 0.6219 0.0
C294 C 0.87659 0.92082 0.61988 0.0
C295 C 0.86136 0.94054 0.60473 0.0
C296 C 0.87901 0.96606 0.59318 0.0
C297 C 0.01305 0.07946 0.58101 0.0
C298 C 0.03854 0.99926 0.57905 0.0
C299 C 0.09314 0.07321 0.5188 0.0
C300 C 0.11093 0.09488 0.49907 0.0
C301 C 0.13299 0.11837 0.51123 0.0
C302 C 0.15154 0.13883 0.49366 0.0
C303 C 0.14855 0.13621 0.46346 0.0
C304 C 0.12628 0.11273 0.45119 0.0
C305 C 0.10752 0.09222 0.46887 0.0
C306 C 0.9954 1.00617 0.5063 0.0
C307 C 0.97735 0.07208 0.51421 0.0
O308 O 0.93205 1.00483 0.55888 0.0
O309 O 0.95482 1.01364 0.60211 0.0
O310 O 0.02338 0.05774 0.57368 0.0
O311 O 0.98248 0.0718 0.58086 0.0
O312 O 1.00816 0.99807 0.58318 0.0
O313 O 0.05473 1.01824 0.56104 0.0
O314 O 0.07712 0.0834 0.53777 0.0
O315 O 0.07789 0.04816 0.50839 0.0
O316 O 1.00259 1.00954 0.5329 0.0
O317 O 0.01387 1.02691 0.49252 0.0
O318 O 1.00871 0.07915 0.51632 0.0
O319 O 0.96138 0.04876 0.52733 0.0
H320 H 0.95345 0.95662 0.61287 0.0
H321 H 0.92234 0.91159 0.63351 0.0
H322 H 0.83567 0.93655 0.60243 0.0
H323 H 0.86663 0.98135 0.58239 0.0
H324 H 0.13621 0.12069 0.53448 0.0
H325 H 0.16883 0.15634 0.50382 0.0
H326 H 0.12332 0.11028 0.42796 0.0
H327 H 0.09065 0.07427 0.45895 0.0
Tb328 Tb 0.56828 0.03288 0.04491 0.0
Tb329 Tb 0.49504 1.00971 1.04079 0.0
C330 C 0.6249 0.06065 0.04796 0.0
C331 C 0.64346 0.08877 0.058 0.0
C332 C 0.62899 0.11186 0.0638 0.0
C333 C 0.64713 0.13745 0.07597 0.0
C334 C 0.6798 0.14002 0.08273 0.0
C335 C 0.69422 0.11717 0.07587 0.0
C336 C 0.67618 0.09179 0.06361 0.0
C337 C 0.54626 0.98107 0.06864 0.0
C338 C 0.52428 0.0584 0.0854 0.0
C339 C 0.44141 0.97748 0.04689 0.0
C340 C 0.41388 0.96455 1.02792 0.0
C341 C 0.39477 0.93781 1.03561 0.0
C342 C 0.36898 0.92472 1.01745 0.0
C343 C 0.36186 0.9383 0.99136 0.0
C344 C 0.38105 0.96519 0.98379 0.0
C345 C 0.40696 0.97816 1.00186 0.0
C346 C 0.51195 0.056 1.00584 0.0
C347 C 0.53853 0.99151 0.99455 0.0
O348 O 0.60571 0.06088 1.02505 0.0
O349 O 0.61203 0.04288 0.06824 0.0
O350 O 0.5337 1.00289 0.06896 0.0
O351 O 0.57278 0.98846 0.05583 0.0
O352 O 0.55178 0.06253 0.07292 0.0
O353 O 0.50036 0.03639 0.07899 0.0
O354 O 0.46718 0.96759 0.0437 0.0
O355 O 0.44727 1.00581 0.04955 0.0
O356 O 0.52879 0.04364 1.02264 0.0
O357 O 0.4831 0.04101 1.00769 0.0
O358 O 0.51188 0.98427 1.00844 0.0
O359 O 0.56232 1.01295 1.00278 0.0
H360 H 0.60366 0.1098 0.05965 0.0
H361 H 0.63541 0.15468 0.0812 0.0
H362 H 0.71941 0.11872 0.08052 0.0
H363 H 0.68768 0.07416 0.0592 0.0
H364 H 0.3999 0.92697 0.0556 0.0
H365 H 0.3545 0.90408 1.02389 0.0
H366 H 0.37642 0.97593 0.9636 0.0
H367 H 0.4217 0.99866 0.99538 0.0
Tb368 Tb 0.52769 0.56434 0.56952 0.0
Tb369 Tb 0.5139 0.50714 0.54285 0.0
C370 C 0.52203 0.61225 0.58876 0.0
C371 C 0.49361 0.62371 0.59368 0.0
C372 C 0.46666 0.61713 0.57459 0.0
C373 C 0.43921 0.62683 0.58011 0.0
C374 C 0.43805 0.64308 0.60492 0.0
C375 C 0.46502 0.64954 0.62406 0.0
C376 C 0.49259 0.63997 0.61844 0.0
C377 C 0.55451 0.52591 0.59806 0.0
C378 C 0.46186 0.51982 0.57964 0.0
C379 C 0.52107 0.45856 0.52676 0.0
C380 C 0.5442 0.45022 0.50814 0.0
C381 C 0.56274 0.43096 0.51898 0.0
C382 C 0.58798 0.42598 0.50362 0.0
C383 C 0.59508 0.44006 0.47696 0.0
C384 C 0.57558 0.45844 0.46558 0.0
C385 C 0.55051 0.4636 0.48108 0.0
C386 C 0.48944 0.54642 0.51226 0.0
C387 C 0.57834 0.55375 0.52844 0.0
O388 O 0.52726 0.60819 0.56179 0.0
O389 O 0.52598 0.59042 0.60536 0.0
O390 O 0.52661 0.52115 0.58648 0.0
O391 O 0.56776 0.55303 0.59442 0.0
O392 O 0.47669 0.54721 0.5759 0.0
O393 O 0.47452 0.49854 0.57118 0.0
O394 O 0.53337 0.47055 0.55111 0.0
O395 O 0.50022 0.47204 0.51442 0.0
O396 O 0.51591 0.55021 0.52623 0.0
O397 O 0.4763 0.51896 0.51372 0.0
O398 O 0.5616 0.52659 0.52771 0.0
O399 O 0.56861 0.57398 0.54261 0.0
H400 H 0.46664 0.60418 0.55556 0.0
H401 H 0.41867 0.62115 0.5652 0.0
H402 H 0.46489 0.66223 0.64324 0.0
H403 H 0.51304 0.64505 0.63353 0.0
H404 H 0.55848 0.42063 0.53994 0.0
H405 H 0.60268 0.41199 0.51325 0.0
H406 H 0.58001 0.46927 0.44491 0.0
H407 H 0.53678 0.47878 0.47227 0.0
Tb408 Tb 1.00795 0.55 1.03616 0.0
Tb409 Tb 0.02429 0.50522 0.07518 0.0
C410 C 0.97859 0.58203 1.00635 0.0
C411 C 0.95332 0.59784 1.01001 0.0
C412 C 0.93528 0.59383 1.03465 0.0
C413 C 0.90969 0.60748 1.0365 0.0
C414 C 0.90174 0.62521 1.01367 0.0
C415 C 0.92038 0.62944 0.9893 0.0
C416 C 0.94595 0.61594 0.98757 0.0
C417 C 0.06812 0.5621 0.05586 0.0
C418 C 0.99362 0.55068 0.10398 0.0
C419 C 0.05107 0.46969 0.1023 0.0
C420 C 0.07876 0.45711 0.09747 0.0
C421 C 0.10828 0.47473 0.09102 0.0
C422 C 0.13438 0.4623 0.08723 0.0
C423 C 0.13128 0.43207 0.08937 0.0
C424 C 0.10155 0.41447 0.09509 0.0
C425 C 0.07557 0.42692 0.09922 0.0
C426 C 0.96441 0.49452 0.0547 0.0
C427 C 0.04321 0.50655 1.00944 0.0
O428 O 0.96988 0.55374 1.00748 0.0
O429 O 1.00569 0.59172 1.02055 0.0
O430 O 0.04439 0.55044 0.07003 0.0
O431 O 0.05797 0.5685 1.03016 0.0
O432 O 0.98725 0.5594 0.07721 0.0
O433 O 1.01068 0.53073 0.10859 0.0
O434 O 0.05685 0.49746 0.10796 0.0
O435 O 0.02657 0.46185 0.08416 0.0
O436 O 0.9887 0.50499 1.04105 0.0
O437 O 0.9734 0.48842 0.0808 0.0
O438 O 0.05036 0.50048 1.0367 0.0
O439 O 0.02342 0.52396 1.00318 0.0
H440 H 0.94051 0.57973 0.05213 0.0
H441 H 0.89594 0.60391 0.05561 0.0
H442 H 0.91457 0.64238 0.97102 0.0
H443 H 0.95947 0.61903 0.9683 0.0
H444 H 0.11133 0.49809 0.08913 0.0
H445 H 0.15702 0.47632 0.08271 0.0
H446 H 0.09861 0.39113 0.09723 0.0
H447 H 0.053 0.41296 0.10408 0.0
H448 H 0.2706 0.18777 0.33985 0.0
H449 H 0.28269 0.27551 0.37188 0.0
H450 H 0.24378 0.25763 0.4088 0.0
H451 H 0.18754 0.16607 0.3487 0.0
H452 H 0.18874 0.12952 0.36015 0.0
H453 H 0.21801 0.14899 0.33657 0.0
H454 H 0.26322 0.14071 0.37282 0.0
H455 H 0.2341 0.12088 0.39634 0.0
H456 H 0.2633 0.15162 0.40986 0.0
H457 H 0.20286 0.2304 0.44148 0.0
H458 H 0.16461 0.19529 0.46932 0.0
H459 H 0.1802 0.1252 0.41658 0.0
C460 C 0.2655 0.20318 0.35493 0.0
C461 C 0.2797 0.23306 0.35299 0.0
C462 C 0.27187 0.25257 0.37279 0.0
C463 C 0.24986 0.24262 0.39386 0.0
C464 C 0.23596 0.21311 0.39485 0.0
C465 C 0.24362 0.19363 0.37607 0.0
C466 C 0.22521 0.16304 0.38166 0.0
C467 C 0.20359 0.15122 0.35519 0.0
C468 C 0.24781 0.14288 0.39072 0.0
C469 C 0.20596 0.16835 0.40653 0.0
C470 C 0.21246 0.19739 0.41376 0.0
C471 C 0.19769 0.20758 0.43612 0.0
C472 C 0.17608 0.18748 0.45184 0.0
C473 C 0.16949 0.15751 0.44517 0.0
C474 C 0.18443 0.14799 0.42197 0.0
H475 H 0.26203 0.81127 0.89247 0.0
H476 H 0.21011 0.87419 0.85622 0.0
H477 H 0.23747 0.91001 0.89204 0.0
H478 H 0.26593 0.83437 0.96843 0.0
H479 H 0.30578 0.82886 0.975 0.0
H480 H 0.27912 0.80683 0.94896 0.0
H481 H 0.32023 0.82215 0.90975 0.0
H482 H 0.34693 0.84428 0.93559 0.0
H483 H 0.33492 0.86021 0.90225 0.0
H484 H 0.2743 0.94068 0.92811 0.0
H485 H 0.31726 0.96358 0.96302 0.0
H486 H 0.34626 0.88133 0.97496 0.0
C487 C 0.25611 0.83245 0.89226 0.0
C488 C 0.23364 0.83973 0.87162 0.0
C489 C 0.22663 0.86776 0.87217 0.0
C490 C 0.24222 0.88838 0.89235 0.0
C491 C 0.26472 0.88068 0.91191 0.0
C492 C 0.27154 0.85335 0.91218 0.0
C493 C 0.29826 0.85126 0.93418 0.0
C494 C 0.28656 0.82901 0.95806 0.0
C495 C 0.32676 0.84406 0.91956 0.0
C496 C 0.30592 0.88192 0.94568 0.0
C497 C 0.28613 0.89847 0.93271 0.0
C498 C 0.28971 0.92787 0.93867 0.0
C499 C 0.31428 0.94072 0.95834 0.0
C500 C 0.33496 0.92419 0.97174 0.0
C501 C 0.33043 0.89436 0.96546 0.0
H502 H 0.56697 0.42012 0.73647 0.0
H503 H 0.66877 0.44106 0.72617 0.0
H504 H 0.66071 0.46875 0.68188 0.0
H505 H 0.54383 0.4129 0.65815 0.0
H506 H 0.51002 0.42929 0.66075 0.0
H507 H 0.52305 0.40952 0.69117 0.0
H508 H 0.528 0.45454 0.72341 0.0
H509 H 0.51499 0.47439 0.69311 0.0
H510 H 0.55224 0.48876 0.71248 0.0
H511 H 0.64306 0.4973 0.6409 0.0
H512 H 0.61638 0.5243 0.60474 0.0
H513 H 0.52506 0.48463 0.63807 0.0
C514 C 0.5875 0.43017 0.72465 0.0
C515 C 0.61867 0.42849 0.73531 0.0
C516 C 0.64476 0.44231 0.71908 0.0
C517 C 0.64041 0.458 0.69364 0.0
C518 C 0.60969 0.45974 0.6841 0.0
C519 C 0.58356 0.44611 0.69889 0.0
C520 C 0.55323 0.45248 0.68401 0.0
C521 C 0.53123 0.42437 0.67286 0.0
C522 C 0.53611 0.4685 0.70447 0.0
C523 C 0.56656 0.47215 0.65895 0.0
C524 C 0.59926 0.47586 0.65957 0.0
C525 C 0.61744 0.49422 0.63996 0.0
C526 C 0.60206 0.5095 0.61944 0.0
C527 C 0.56865 0.50631 0.61815 0.0
C528 C 0.55057 0.48699 0.63801 0.0
H529 H 0.92445 0.66233 0.20236 0.0
H530 H 0.94139 0.607 0.27499 0.0
H531 H 0.96185 0.57566 0.24244 0.0
H532 H 0.8984 0.60434 0.15078 0.0
H533 H 0.91752 0.62397 0.1205 0.0
H534 H 0.90503 0.64341 0.14923 0.0
H535 H 0.96219 0.67404 0.15684 0.0
H536 H 0.97477 0.65482 0.12798 0.0
H537 H 0.99476 0.65594 0.16326 0.0
H538 H 0.97918 0.54932 0.20315 0.0
H539 H 0.99444 0.52962 0.15896 0.0
H540 H 0.96707 0.60016 0.10886 0.0
C541 C 0.93285 0.64381 0.21136 0.0
C542 C 0.93113 0.63718 0.24146 0.0
C543 C 0.94211 0.61251 0.25218 0.0
C544 C 0.95386 0.59452 0.2338 0.0
C545 C 0.95464 0.60119 0.20439 0.0
C546 C 0.9446 0.62522 0.19304 0.0
C547 C 0.94783 0.62668 0.16026 0.0
C548 C 0.91525 0.62447 0.14425 0.0
C549 C 0.97128 0.65453 0.15157 0.0
C550 C 0.96114 0.59973 0.15519 0.0
C551 C 0.96479 0.58556 0.18116 0.0
C552 C 0.97654 0.56029 0.18269 0.0
C553 C 0.9852 0.54923 0.15723 0.0
C554 C 0.98221 0.56316 0.13005 0.0
C555 C 0.96966 0.5888 0.12911 0.0
H556 H 0.42228 0.15692 0.15645 0.0
H557 H 0.50947 0.20733 0.19607 0.0
H558 H 0.53961 0.17342 0.17639 0.0
H559 H 0.44189 0.08588 0.16948 0.0
H560 H 0.42279 0.07153 0.13572 0.0
H561 H 0.40846 0.09919 0.1539 0.0
H562 H 0.41524 0.13158 0.10775 0.0
H563 H 0.42955 0.10404 0.08946 0.0
H564 H 0.45336 0.14042 0.09183 0.0
H565 H 0.56031 0.1363 0.14815 0.0
H566 H 0.56941 0.09728 0.11684 0.0
H567 H 0.4677 0.06989 0.09896 0.0
C568 C 0.4477 0.16065 0.16109 0.0
C569 C 0.46376 0.18467 0.17751 0.0
C570 C 0.49692 0.18891 0.18349 0.0
C571 C 0.51413 0.16983 0.17241 0.0
C572 C 0.49759 0.14643 0.15594 0.0
C573 C 0.46503 0.1416 0.15068 0.0
C574 C 0.4528 0.11514 0.1322 0.0
C575 C 0.43015 0.09154 0.14883 0.0
C576 C 0.43681 0.1233 0.10362 0.0
C577 C 0.48362 0.10613 0.12727 0.0
C578 C 0.50926 0.12444 0.14101 0.0
C579 C 0.54036 0.1215 0.13776 0.0
C580 C 0.5453 0.09935 0.11992 0.0
C581 C 0.51922 0.08029 0.10589 0.0
C582 C 0.48806 0.08365 0.10996 0.0
H583 H 0.05495 0.85676 0.67159 0.0
H584 H 0.14461 0.86256 0.63132 0.0
H585 H 0.13685 0.90637 0.60459 0.0
H586 H 0.01308 0.88091 0.60782 0.0
H587 H 0.99118 0.90109 0.62856 0.0
H588 H 1.00322 0.86957 0.6442 0.0
H589 H 0.03168 0.90062 0.68722 0.0
H590 H 0.02001 0.93227 0.67151 0.0
H591 H 0.06137 0.93293 0.68028 0.0
H592 H 0.12174 0.95055 0.58466 0.0
H593 H 0.09704 0.99052 0.56771 0.0
H594 H 0.01558 0.95632 0.61893 0.0
C595 C 0.07272 0.86717 0.65691 0.0
C596 C 0.10027 0.85614 0.65331 0.0
C597 C 0.12308 0.87031 0.63399 0.0
C598 C 0.11904 0.89536 0.61891 0.0
C599 C 0.09193 0.90589 0.6232 0.0
C600 C 0.06886 0.89212 0.64132 0.0
C601 C 0.04181 0.90808 0.64153 0.0
C602 C 1.01047 0.88876 0.62982 0.0
C603 C 0.03854 0.91913 0.67195 0.0
C604 C 0.05358 0.93304 0.62092 0.0
C605 C 0.08268 0.93137 0.6109 0.0
C606 C 0.09883 0.95203 0.59212 0.0
C607 C 0.08457 0.97478 0.58273 0.0
C608 C 0.05424 0.97661 0.59188 0.0
C609 C 0.03872 0.95554 0.6115 0.0
H610 H 0.82885 0.44103 0.92927 0.0
H611 H 0.76363 0.41623 0.99797 0.0
H612 H 0.80621 0.43669 1.03394 0.0
H613 H 0.89659 0.4243 0.96712 0.0
H614 H 0.92483 0.45472 0.95327 0.0
H615 H 0.88884 0.43988 0.9323 0.0
H616 H 0.87469 0.49057 0.92955 0.0
H617 H 0.91072 0.50556 0.95049 0.0
H618 H 0.87293 0.50973 0.96246 0.0
H619 H 0.85613 0.45677 0.06306 0.0
H620 H 0.91046 0.47621 0.0834 0.0
H621 H 0.94448 0.48956 0.99677 0.0
C622 C 0.82344 0.44036 0.95183 0.0
C623 C 0.79277 0.42674 0.96071 0.0
C624 C 0.78691 0.42607 0.99056 0.0
C625 C 0.81094 0.43782 1.01121 0.0
C626 C 0.84095 0.45048 1.00188 0.0
C627 C 0.84735 0.45205 0.97293 0.0
C628 C 0.88215 0.46603 0.96905 0.0
C629 C 0.8991 0.44497 0.95458 0.0
C630 C 0.8853 0.49467 0.95187 0.0
C631 C 0.89428 0.47152 1.00034 0.0
C632 C 0.86997 0.46248 1.01884 0.0
C633 C 0.8753 0.46418 0.04877 0.0
C634 C 0.90627 0.4752 0.06014 0.0
C635 C 0.93167 0.48452 1.04175 0.0
C636 C 0.92546 0.4829 1.01139 0.0
H637 H 0.73018 0.65673 0.45849 0.0
H638 H 0.72816 0.58654 0.39859 0.0
H639 H 0.68416 0.55633 0.42385 0.0
H640 H 0.70953 0.61289 0.52206 0.0
H641 H 0.68401 0.63502 0.53492 0.0
H642 H 0.71684 0.65113 0.51332 0.0
H643 H 0.67843 0.67037 0.4768 0.0
H644 H 0.64552 0.65448 0.49839 0.0
H645 H 0.64466 0.64533 0.46075 0.0
H646 H 0.64033 0.53326 0.45528 0.0
H647 H 0.59702 0.5199 0.48858 0.0
H648 H 0.62331 0.60582 0.52625 0.0
C649 C 0.72047 0.63513 0.45038 0.0
C650 C 0.73358 0.62416 0.42656 0.0
C651 C 0.71976 0.59551 0.41719 0.0
C652 C 0.69437 0.5781 0.43129 0.0
C653 C 0.68235 0.58956 0.45463 0.0
C654 C 0.69463 0.61751 0.46395 0.0
C655 C 0.67625 0.62482 0.48889 0.0
C656 C 0.69796 0.63135 0.51643 0.0
C657 C 0.66027 0.65026 0.48071 0.0
C658 C 0.65174 0.59658 0.49205 0.0
C659 C 0.65604 0.5765 0.47222 0.0
C660 C 0.63672 0.54878 0.4709 0.0
C661 C 0.61211 0.54139 0.49005 0.0
C662 C 0.60648 0.56172 0.51018 0.0
C663 C 0.62685 0.58971 0.5112 0.0
H664 H 0.29321 0.39821 0.1515 0.0
H665 H 0.26976 0.31883 0.1019 0.0
H666 H 0.22677 0.33687 0.07514 0.0
H667 H 0.21766 0.40192 0.16337 0.0
H668 H 0.22292 0.44084 0.16068 0.0
H669 H 0.25617 0.42498 0.17121 0.0
H670 H 0.28772 0.45214 0.1292 0.0
H671 H 0.25453 0.46835 0.11862 0.0
H672 H 0.27059 0.44816 0.09276 0.0
H673 H 0.18039 0.35889 0.06082 0.0
H674 H 0.13584 0.38439 0.05849 0.0
H675 H 0.18919 0.44928 0.11751 0.0
C676 C 0.2796 0.385 0.13443 0.0
C677 C 0.28493 0.35719 0.12869 0.0
C678 C 0.26652 0.34044 0.10631 0.0
C679 C 0.24194 0.35047 0.09105 0.0
C680 C 0.23638 0.37744 0.09817 0.0
C681 C 0.25501 0.39469 0.11905 0.0
C682 C 0.24199 0.42123 0.12498 0.0
C683 C 0.23422 0.42227 0.15694 0.0
C684 C 0.26509 0.44912 0.11584 0.0
C685 C 0.21218 0.41542 0.10536 0.0
C686 C 0.2096 0.39031 0.08971 0.0
C687 C 0.18251 0.37896 0.0724 0.0
C688 C 0.15727 0.39343 0.07135 0.0
C689 C 0.15931 0.41891 0.08759 0.0
C690 C 0.1874 0.43029 0.10427 0.0
H691 H 0.61868 0.20634 0.94662 0.0
H692 H 0.53663 0.21289 0.89012 0.0
H693 H 0.50823 0.16561 0.90822 0.0
H694 H 0.61118 0.12836 0.94164 0.0
H695 H 0.62232 0.12358 0.97921 0.0
H696 H 0.6374 0.15752 0.96101 0.0
H697 H 0.61504 0.18501 0.99992 0.0
H698 H 0.59996 0.15114 1.01817 0.0
H699 H 0.57349 0.17465 1.00721 0.0
H700 H 0.48749 0.11841 0.93299 0.0
H701 H 0.47543 0.0744 0.96345 0.0
H702 H 0.56935 0.09744 1.00597 0.0
C703 C 0.5947 0.19801 0.93805 0.0
C704 C 0.58029 0.21372 0.91643 0.0
C705 C 0.54885 0.20142 0.90595 0.0
C706 C 0.53227 0.17451 0.91634 0.0
C707 C 0.54713 0.15981 0.93748 0.0
C708 C 0.5776 0.17108 0.94837 0.0
C709 C 0.58753 0.15093 0.9717 0.0
C710 C 0.61632 0.13942 0.96285 0.0
C711 C 0.59441 0.16636 1.00098 0.0
C712 C 0.55784 0.12666 0.97218 0.0
C713 C 0.53495 0.13237 0.95214 0.0
C714 C 0.50529 0.11369 0.94865 0.0
C715 C 0.49867 0.08867 0.96612 0.0
C716 C 0.52147 0.08216 0.98696 0.0
C717 C 0.5516 0.10147 0.98993 0.0
H718 H 0.95069 0.87667 0.38907 0.0
H719 H 0.89789 0.82523 0.45618 0.0
H720 H 0.91271 0.86653 0.4894 0.0
H721 H 0.01545 0.91588 0.43696 0.0
H722 H 0.01902 0.94981 0.41741 0.0
H723 H 1.00511 0.91596 0.39874 0.0
H724 H 0.95431 0.93306 0.38049 0.0
H725 H 0.96796 0.96687 0.39929 0.0
H726 H 0.92968 0.94438 0.40624 0.0
H727 H 0.93259 0.91295 0.51578 0.0
H728 H 0.95736 0.96175 0.53398 0.0
H729 H 0.99685 0.98545 0.45054 0.0
C730 C 0.94255 0.87409 0.41085 0.0
C731 C 0.92289 0.84755 0.41988 0.0
C732 C 0.9126 0.84527 0.44855 0.0
C733 C 0.92097 0.86866 0.46767 0.0
C734 C 0.93972 0.89458 0.45804 0.0
C735 C 0.95052 0.89755 0.43037 0.0
C736 C 0.97008 0.92821 0.42572 0.0
C737 C 1.00446 0.92741 0.41933 0.0
C738 C 0.95458 0.94406 0.40149 0.0
C739 C 0.96852 0.94181 0.45504 0.0
C740 C 0.95088 0.92185 0.47329 0.0
C741 C 0.94635 0.92879 0.50163 0.0
C742 C 0.96045 0.95668 0.51177 0.0
C743 C 0.9788 0.97766 0.49372 0.0
C744 C 0.98264 0.97008 0.46481 0.0
H745 H 0.30287 0.67774 0.70097 0.0
H746 H 0.26635 0.71665 0.6241 0.0
H747 H 0.30672 0.70196 0.59568 0.0
H748 H 0.38423 0.70152 0.68663 0.0
H749 H 0.39576 0.6691 0.70058 0.0
H750 H 0.36219 0.68027 0.71454 0.0
H751 H 0.3264 0.63007 0.70194 0.0
H752 H 0.35992 0.61869 0.68805 0.0
H753 H 0.32418 0.6169 0.6655 0.0
H754 H 0.3526 0.68528 0.57595 0.0
H755 H 0.40112 0.6679 0.56649 0.0
H756 H 0.409 0.64139 0.65639 0.0
C757 C 0.30325 0.68316 0.67816 0.0
C758 C 0.28112 0.69819 0.66481 0.0
C759 C 0.28247 0.7046 0.6348 0.0
C760 C 0.3055 0.69653 0.61846 0.0
C761 C 0.32714 0.68213 0.63239 0.0
C762 C 0.32623 0.67545 0.66155 0.0
C763 C 0.35309 0.6609 0.6715 0.0
C764 C 0.37512 0.67904 0.69468 0.0
C765 C 0.34011 0.62979 0.68238 0.0
C766 C 0.36953 0.66089 0.64348 0.0
C767 C 0.354 0.67298 0.62113 0.0
C768 C 0.36487 0.67561 0.59324 0.0
C769 C 0.39237 0.66561 0.58806 0.0
C770 C 0.40881 0.65331 0.61069 0.0
C771 C 0.39711 0.65094 0.63872 0.0
H772 H 0.74294 0.8464 0.72477 0.0
H773 H 0.76988 0.76416 0.71208 0.0
H774 H 0.80967 0.78818 0.67793 0.0
H775 H 0.75107 0.87242 0.65007 0.0
H776 H 0.76611 0.90948 0.66104 0.0
H777 H 0.73885 0.88517 0.68311 0.0
H778 H 0.77928 0.89619 0.72703 0.0
H779 H 0.80679 0.92026 0.70507 0.0
H780 H 0.81896 0.89044 0.72418 0.0
H781 H 0.84932 0.82265 0.64748 0.0
H782 H 0.88253 0.86374 0.62138 0.0
H783 H 0.82763 0.92201 0.6539 0.0
C784 C 0.7565 0.83314 0.71426 0.0
C785 C 0.75312 0.80333 0.72107 0.0
C786 C 0.77218 0.7871 0.7074 0.0
C787 C 0.79476 0.80052 0.68788 0.0
C788 C 0.79782 0.83011 0.68214 0.0
C789 C 0.77891 0.84609 0.69474 0.0
C790 C 0.78731 0.87769 0.68579 0.0
C791 C 0.75916 0.88671 0.669 0.0
C792 C 0.79877 0.89728 0.71208 0.0
C793 C 0.81413 0.87714 0.66637 0.0
C794 C 0.82002 0.84959 0.66449 0.0
C795 C 0.84465 0.84424 0.64855 0.0
C796 C 0.86348 0.86766 0.63396 0.0
C797 C 0.85733 0.8959 0.63534 0.0
C798 C 0.83243 0.90053 0.65191 0.0
H799 H 0.79346 0.21663 0.21153 0.0
H800 H 0.78092 0.29991 0.17672 0.0
H801 H 0.74827 0.27489 0.13549 0.0
H802 H 0.79903 0.18316 0.14171 0.0
H803 H 0.778 0.14805 0.15383 0.0
H804 H 0.80194 0.17295 0.17931 0.0
H805 H 0.75319 0.16924 0.21056 0.0
H806 H 0.72902 0.14463 0.18506 0.0
H807 H 0.71713 0.17749 0.19444 0.0
H808 H 0.71308 0.23982 0.10009 0.0
H809 H 0.68167 0.19804 0.0722 0.0
H810 H 0.71955 0.13889 0.13012 0.0
C811 C 0.78474 0.22982 0.19487 0.0
C812 C 0.78991 0.2603 0.19741 0.0
C813 C 0.77708 0.2765 0.17543 0.0
C814 C 0.75862 0.2625 0.15186 0.0
C815 C 0.75346 0.23234 0.15044 0.0
C816 C 0.76652 0.21628 0.17122 0.0
C817 C 0.75665 0.1841 0.16543 0.0
C818 C 0.78563 0.17132 0.15972 0.0
C819 C 0.73788 0.16793 0.19035 0.0
C820 C 0.73559 0.18446 0.13836 0.0
C821 C 0.73392 0.21242 0.12996 0.0
C822 C 0.71457 0.21786 0.10626 0.0
C823 C 0.6967 0.19408 0.09067 0.0
C824 C 0.69855 0.16534 0.09882 0.0
C825 C 0.71824 0.16066 0.12299 0.0
H826 H 0.41045 0.59646 0.36262 0.0
H827 H 0.46693 0.68307 0.37957 0.0
H828 H 0.48811 0.66547 0.42518 0.0
H829 H 0.39038 0.57991 0.43785 0.0
H830 H 0.39239 0.54224 0.43559 0.0
H831 H 0.38144 0.56134 0.40383 0.0
H832 H 0.4269 0.54753 0.3768 0.0
H833 H 0.438 0.52842 0.40847 0.0
H834 H 0.46699 0.55672 0.39229 0.0
H835 H 0.50555 0.63837 0.46829 0.0
H836 H 0.51597 0.60403 0.50662 0.0
H837 H 0.44589 0.53526 0.46506 0.0
C838 C 0.42699 0.6119 0.37598 0.0
C839 C 0.43721 0.64129 0.36672 0.0
C840 C 0.45917 0.66036 0.38523 0.0
C841 C 0.47122 0.65061 0.41154 0.0
C842 C 0.46098 0.62164 0.41971 0.0
C843 C 0.43914 0.60255 0.40266 0.0
C844 C 0.43214 0.57247 0.41678 0.0
C845 C 0.397 0.56346 0.42393 0.0
C846 C 0.44157 0.54996 0.39743 0.0
C847 C 0.45365 0.57763 0.44423 0.0
C848 C 0.47013 0.60619 0.44534 0.0
C849 C 0.49242 0.61607 0.46782 0.0
C850 C 0.49812 0.59637 0.48966 0.0
C851 C 0.48143 0.56701 0.48937 0.0
C852 C 0.45871 0.55765 0.46628 0.0
H853 H 0.0639 0.44338 0.85131 0.0
H854 H 0.1483 0.4184 0.88934 0.0
H855 H 0.13894 0.43805 0.93618 0.0
H856 H 0.07509 0.51124 0.88936 0.0
H857 H 0.03351 0.50887 0.89451 0.0
H858 H 0.04548 0.4916 0.86395 0.0
H859 H 1.01065 0.44241 0.87932 0.0
H860 H 0.99844 0.45957 0.90984 0.0
H861 H 0.01622 0.42847 0.91533 0.0
H862 H 0.12116 0.46027 0.979 0.0
H863 H 0.0965 0.48435 1.01526 0.0
H864 H 0.02399 0.4979 0.95085 0.0
C865 C 0.08013 0.44178 0.86963 0.0
C866 C 0.10689 0.42916 0.86654 0.0
C867 C 0.12778 0.42795 0.89102 0.0
C868 C 0.12262 0.43906 0.91779 0.0
C869 C 0.09648 0.45171 0.92006 0.0
C870 C 0.07553 0.45324 0.89671 0.0
C871 C 0.04987 0.46888 0.90522 0.0
C872 C 0.05107 0.49681 0.88718 0.0
C873 C 0.01683 0.44862 0.90225 0.0
C874 C 0.05974 0.47581 0.93688 0.0
C875 C 0.08663 0.46545 0.94487 0.0
C876 C 0.10016 0.46854 0.97294 0.0
C877 C 0.08588 0.48233 0.99347 0.0
C878 C 0.05831 0.49334 0.98614 0.0
C879 C 0.04523 0.49011 0.95722 0.0
H880 H 0.5517 0.84465 0.92168 0.0
H881 H 0.61005 0.89753 0.85879 0.0
H882 H 0.59619 0.94136 0.87761 0.0
H883 H 0.4896 0.88921 0.92235 0.0
H884 H 0.48557 0.88393 0.96071 0.0
H885 H 0.49605 0.85612 0.9395 0.0
H886 H 0.54624 0.85738 0.97326 0.0
H887 H 0.536 0.88518 0.99445 0.0
H888 H 0.5743 0.89136 0.97894 0.0
H889 H 0.58366 0.9798 0.90792 0.0
H890 H 0.57041 1.01014 0.94628 0.0
H891 H 0.51851 0.93292 0.98866 0.0
C892 C 0.56102 0.86539 0.9115 0.0
C893 C 0.58174 0.86759 0.88858 0.0
C894 C 0.5936 0.89517 0.87595 0.0
C895 C 0.58598 0.92025 0.88657 0.0
C896 C 0.56616 0.91742 0.90964 0.0
C897 C 0.55348 0.89067 0.92175 0.0
C898 C 0.53478 0.8939 0.94777 0.0
C899 C 0.4994 0.87997 0.94224 0.0
C900 C 0.54867 0.88121 0.97522 0.0
C901 C 0.54008 0.92667 0.94909 0.0
C902 C 0.55808 0.93981 0.92676 0.0
C903 C 0.56887 0.96983 0.92508 0.0
C904 C 0.56138 0.98686 0.94697 0.0
C905 C 0.54304 0.97382 0.97001 0.0
C906 C 0.53176 0.94343 0.97075 0.0
H907 H 0.95075 0.20831 0.41668 0.0
H908 H 0.8517 0.18428 0.43752 0.0
H909 H 0.86231 0.14167 0.46507 0.0
H910 H 0.96351 0.13531 0.40905 0.0
H911 H 1.00299 0.1434 0.42596 0.0
H912 H 0.9876 0.17154 0.40687 0.0
H913 H 0.99862 0.20345 0.45266 0.0
H914 H 0.01414 0.17544 0.47183 0.0
H915 H 0.98217 0.18896 0.48618 0.0
H916 H 0.88305 0.10192 0.4898 0.0
H917 H 0.91346 0.06872 0.51364 0.0
H918 H 1.00011 0.11903 0.47885 0.0
C919 C 0.93137 0.19393 0.42697 0.0
C920 C 0.9004 0.19946 0.42506 0.0
C921 C 0.87561 0.18045 0.43898 0.0
C922 C 0.88136 0.15615 0.4545 0.0
C923 C 0.91211 0.1513 0.45607 0.0
C924 C 0.93681 0.16972 0.44296 0.0
C925 C 0.96787 0.16002 0.44915 0.0
C926 C 0.98128 0.1521 0.42108 0.0
C927 C 0.99213 0.18336 0.46596 0.0
C928 C 0.95668 0.13332 0.46778 0.0
C929 C 0.92437 0.1286 0.47118 0.0
C930 C 0.90838 0.10537 0.48735 0.0
C931 C 0.92593 0.08657 0.50075 0.0
C932 C 0.95922 0.09123 0.49816 0.0
C933 C 0.97471 0.11488 0.48127 0.0
H934 H 0.2198 0.59811 0.17006 0.0
H935 H 0.24918 0.6777 0.12035 0.0
H936 H 0.20245 0.66343 0.08726 0.0
H937 H 0.18707 0.55162 0.10994 0.0
H938 H 0.15347 0.5316 0.12849 0.0
H939 H 0.18978 0.54727 0.14867 0.0
H940 H 0.15882 0.575 0.1804 0.0
H941 H 0.12244 0.55928 0.16033 0.0
H942 H 0.1348 0.59817 0.16334 0.0
H943 H 0.15495 0.64026 0.0576 0.0
H944 H 0.10501 0.61172 1.03588 0.0
H945 H 0.10123 0.54849 0.10581 0.0
C946 C 0.21628 0.61263 0.15236 0.0
C947 C 0.23903 0.63879 0.14758 0.0
C948 C 0.2331 0.6571 0.12412 0.0
C949 C 0.20635 0.6493 0.10519 0.0
C950 C 0.18502 0.62323 0.11001 0.0
C951 C 0.1892 0.60529 0.1332 0.0
C952 C 0.16175 0.57878 0.13341 0.0
C953 C 0.17374 0.55066 0.12992 0.0
C954 C 0.14336 0.57776 0.16102 0.0
C955 C 0.14172 0.58484 0.10678 0.0
C956 C 0.15606 0.61045 0.0935 0.0
C957 C 0.14328 0.62032 0.06795 0.0
C958 C 0.11489 0.60384 0.05569 0.0
C959 C 0.09901 0.57792 0.06915 0.0
C960 C 0.11267 0.56831 0.09512 0.0
H961 H 0.31368 0.42028 0.65691 0.0
H962 H 0.28278 0.49951 0.67515 0.0
H963 H 0.32881 0.52812 0.65063 0.0
H964 H 0.3977 0.44959 0.66691 0.0
H965 H 0.40815 0.42921 0.63787 0.0
H966 H 0.3729 0.41494 0.65709 0.0
H967 H 0.33906 0.41023 0.60883 0.0
H968 H 0.3742 0.42455 0.58946 0.0
H969 H 0.34064 0.44168 0.58567 0.0
H970 H 0.37838 0.54836 0.62368 0.0
H971 H 0.42784 0.55856 0.59745 0.0
H972 H 0.42634 0.46624 0.59574 0.0
C973 C 0.31638 0.44363 0.65561 0.0
C974 C 0.29437 0.45752 0.66819 0.0
C975 C 0.29935 0.48823 0.66622 0.0
C976 C 0.32538 0.50472 0.65208 0.0
C977 C 0.34644 0.49031 0.6399 0.0
C978 C 0.34227 0.46045 0.64155 0.0
C979 C 0.3685 0.45034 0.62676 0.0
C980 C 0.38796 0.43512 0.64846 0.0
C981 C 0.35477 0.43053 0.60116 0.0
C982 C 0.38804 0.47915 0.61647 0.0
C983 C 0.37488 0.50194 0.62427 0.0
C984 C 0.38882 0.53064 0.61744 0.0
C985 C 0.41699 0.53622 0.60246 0.0
C986 C 0.43112 0.51326 0.59432 0.0
C987 C 0.41618 0.48433 0.60141 0.0
H988 H 0.7947 0.72739 0.94737 0.0
H989 H 0.71294 0.66388 0.97421 0.0
H990 H 0.74837 0.63967 1.00531 0.0
H991 H 0.84201 0.68095 0.93785 0.0
H992 H 0.87882 0.70406 0.95078 0.0
H993 H 0.84695 0.71991 0.93627 0.0
H994 H 0.84788 0.74825 0.98372 0.0
H995 H 0.88011 0.73264 0.99838 0.0
H996 H 0.84434 0.72886 1.01776 0.0
H997 H 0.7933 0.61728 1.02508 0.0
H998 H 0.84294 0.59944 1.03256 0.0
H999 H 0.89527 0.67895 0.99424 0.0
C1000 C 0.78426 0.70894 0.96058 0.0
C1001 C 0.75126 0.69743 0.9586 0.0
C1002 C 0.73821 0.67313 0.97581 0.0
C1003 C 0.75816 0.6593 0.99348 0.0
C1004 C 0.79089 0.6705 0.994 0.0
C1005 C 0.80376 0.69512 0.97833 0.0
C1006 C 0.83965 0.70101 0.97978 0.0
C1007 C 0.85258 0.70148 0.94938 0.0
C1008 C 0.85382 0.72937 0.99588 0.0
C1009 C 0.84504 0.6749 0.99721 0.0
C1010 C 0.81675 0.65779 1.00573 0.0
C1011 C 0.81566 0.63091 1.01925 0.0
C1012 C 0.84403 0.62098 1.02349 0.0
C1013 C 0.87304 0.63782 1.01402 0.0
C1014 C 0.8735 0.66554 1.00168 0.0
H1015 H 0.43606 0.85676 0.16382 0.0
H1016 H 0.50966 0.80748 0.15835 0.0
H1017 H 0.54061 0.84683 0.12917 0.0
H1018 H 0.44133 0.88787 0.09147 0.0
H1019 H 0.43552 0.92281 0.10211 0.0
H1020 H 0.41855 0.89068 0.12235 0.0
H1021 H 0.44737 0.91423 0.1692 0.0
H1022 H 0.46433 0.94637 0.14897 0.0
H1023 H 0.48984 0.92749 0.17036 0.0
H1024 H 0.56297 0.89032 0.09905 0.0
H1025 H 0.57748 0.93698 0.07301 0.0
H1026 H 0.49151 0.96074 0.09916 0.0
C1027 C 0.45869 0.85426 0.15645 0.0
C1028 C 0.47039 0.82885 0.1636 0.0
C1029 C 0.50027 0.82671 0.15363 0.0
C1030 C 0.51797 0.84892 0.13681 0.0
C1031 C 0.50578 0.87351 0.13013 0.0
C1032 C 0.47699 0.87655 0.13983 0.0
C1033 C 0.46996 0.90574 0.13005 0.0
C1034 C 0.43953 0.9015 0.11032 0.0
C1035 C 0.46775 0.92457 0.15621 0.0
C1036 C 0.4992 0.91849 0.11324 0.0
C1037 C 0.51932 0.89928 0.11341 0.0
C1038 C 0.54749 0.90559 0.09896 0.0
C1039 C 0.55552 0.93224 0.08416 0.0
C1040 C 0.53576 0.95269 0.08397 0.0
C1041 C 0.50713 0.94561 0.09879 0.0
H1042 H 0.04433 0.23264 0.66425 0.0
H1043 H 0.14338 0.22709 0.67428 0.0
H1044 H 0.13096 0.18008 0.6493 0.0
H1045 H 1.01097 0.15466 0.67416 0.0
H1046 H 0.97901 0.154 0.64729 0.0
H1047 H 0.99526 0.18675 0.66712 0.0
H1048 H 1.00645 0.21498 0.61895 0.0
H1049 H 0.99047 0.18227 0.59899 0.0
H1050 H 0.03016 0.20242 0.59318 0.0
H1051 H 0.10853 0.13414 0.62178 0.0
H1052 H 0.07701 0.09178 0.59521 0.0
H1053 H 0.99224 0.12621 0.60179 0.0
C1054 C 0.06326 0.22127 0.66157 0.0
C1055 C 0.09494 0.23376 0.67128 0.0
C1056 C 0.11903 0.21823 0.66691 0.0
C1057 C 0.1122 0.19141 0.65274 0.0
C1058 C 0.08103 0.18003 0.64286 0.0
C1059 C 0.05685 0.19432 0.64718 0.0
C1060 C 0.02551 0.17736 0.63372 0.0
C1061 C 1.00125 0.16762 0.65696 0.0
C1062 C 0.01238 0.19534 0.60979 0.0
C1063 C 0.03593 0.15149 0.62119 0.0
C1064 C 0.06809 0.15352 0.62674 0.0
C1065 C 0.08331 0.13235 0.61731 0.0
C1066 C 0.06523 0.1084 0.60203 0.0
C1067 C 0.03219 0.10566 0.59613 0.0
C1068 C 0.01748 0.12766 0.60586 0.0
H1069 H 0.72372 0.35609 0.4245 0.0
H1070 H 0.77077 0.43661 0.3842 0.0
H1071 H 0.73038 0.46118 0.40199 0.0
H1072 H 0.64483 0.36424 0.40788 0.0
H1073 H 0.62966 0.34849 0.44142 0.0
H1074 H 0.66308 0.33769 0.42673 0.0
H1075 H 0.69643 0.35182 0.47451 0.0
H1076 H 0.66304 0.3625 0.48942 0.0
H1077 H 0.7007 0.38792 0.48846 0.0
H1078 H 0.68436 0.47657 0.42367 0.0
H1079 H 0.63637 0.48182 0.44768 0.0
H1080 H 0.61858 0.39057 0.47221 0.0
C1081 C 0.72584 0.37902 0.41984 0.0
C1082 C 0.75046 0.39455 0.40316 0.0
C1083 C 0.75201 0.42435 0.3969 0.0
C1084 C 0.72926 0.43846 0.40696 0.0
C1085 C 0.70509 0.4224 0.4231 0.0
C1086 C 0.70325 0.39334 0.42951 0.0
C1087 C 0.67438 0.38077 0.44646 0.0
C1088 C 0.65165 0.35636 0.42961 0.0
C1089 C 0.68424 0.37014 0.4765 0.0
C1090 C 0.66021 0.40729 0.44858 0.0
C1091 C 0.67831 0.4311 0.43506 0.0
C1092 C 0.66995 0.45804 0.43424 0.0
C1093 C 0.64247 0.46074 0.44775 0.0
C1094 C 0.62353 0.43662 0.46179 0.0
C1095 C 0.63263 0.40955 0.46199 0.0
loop_
_geom_bond_atom_site_label_1
_geom_bond_atom_site_label_2
_geom_bond_distance
_geom_bond_site_symmetry_2
_ccdc_geom_bond_type
C0 C1 1.384 . S
C0 H13 0.947 . S
C0 C35 1.382 . S
C1 C0 1.384 . S
C1 C2 1.378 . S
C2 C1 1.378 . S
C2 C3 1.378 . S
C2 H14 0.952 . S
C3 C2 1.378 . S
C3 H15 0.950 . S
C3 C34 1.383 . S
H4 C23 0.947 . S
H5 C24 0.946 . S
H6 C26 0.953 . S
H7 C27 0.945 . S
H8 C29 0.952 . S
H9 C30 0.949 . S
H10 C32 0.950 . S
H11 C33 0.948 . S
H12 C35 0.951 . S
H13 C0 0.947 . S
H14 C2 0.952 . S
H15 C3 0.950 . S
N16 C19 1.382 . S
N16 C21 1.363 . S
N17 C19 1.371 . S
N17 C20 1.372 . S
N18 C20 1.361 . S
N18 C21 1.377 . S
C19 N16 1.382 . S
C19 N17 1.371 . S
C19 C22 1.480 . S
C20 N17 1.372 . S
C20 N18 1.361 . S
C20 C28 1.457 . S
C21 N16 1.363 . S
C21 N18 1.377 . S
C21 C34 1.479 . S
C22 C19 1.480 . S
C22 C23 1.383 . S
C22 C27 1.385 . S
C23 H4 0.947 . S
C23 C22 1.383 . S
C23 C24 1.388 . S
C24 H5 0.946 . S
C24 C23 1.388 . S
C24 C25 1.384 . S
C25 C24 1.384 . S
C25 C26 1.377 . S
C26 H6 0.953 . S
C26 C25 1.377 . S
C26 C27 1.369 . S
C27 H7 0.945 . S
C27 C22 1.385 . S
C27 C26 1.369 . S
C28 C20 1.457 . S
C28 C29 1.372 . S
C28 C33 1.364 . S
C29 H8 0.952 . S
C29 C28 1.372 . S
C29 C30 1.389 . S
C30 H9 0.949 . S
C30 C29 1.389 . S
C30 C31 1.387 . S
C31 C30 1.387 . S
C31 C32 1.372 . S
C32 H10 0.950 . S
C32 C31 1.372 . S
C32 C33 1.379 . S
C33 H11 0.948 . S
C33 C28 1.364 . S
C33 C32 1.379 . S
C34 C3 1.383 . S
C34 C21 1.479 . S
C34 C35 1.398 . S
C35 C0 1.382 . S
C35 H12 0.951 . S
C35 C34 1.398 . S
C36 C37 1.384 . S
C36 H49 0.947 . S
C36 C71 1.382 . S
C37 C36 1.384 . S
C37 C38 1.378 . S
C38 C37 1.378 . S
C38 C39 1.378 . S
C38 H50 0.952 . S
C39 C38 1.378 . S
C39 H51 0.950 . S
C39 C70 1.383 . S
H40 C59 0.947 . S
H41 C60 0.946 . S
H42 C62 0.953 . S
H43 C63 0.945 . S
H44 C65 0.952 . S
H45 C66 0.949 . S
H46 C68 0.950 . S
H47 C69 0.948 . S
H48 C71 0.951 . S
H49 C36 0.947 . S
H50 C38 0.952 . S
H51 C39 0.950 . S
N52 C55 1.382 . S
N52 C57 1.363 . S
N53 C55 1.371 . S
N53 C56 1.372 . S
N54 C56 1.361 . S
N54 C57 1.377 . S
C55 N52 1.382 . S
C55 N53 1.371 . S
C55 C58 1.480 . S
C56 N53 1.372 . S
C56 N54 1.361 . S
C56 C64 1.457 . S
C57 N52 1.363 . S
C57 N54 1.377 . S
C57 C70 1.479 . S
C58 C55 1.480 . S
C58 C59 1.383 . S
C58 C63 1.385 . S
C59 H40 0.947 . S
C59 C58 1.383 . S
C59 C60 1.388 . S
C60 H41 0.946 . S
C60 C59 1.388 . S
C60 C61 1.384 . S
C61 C60 1.384 . S
C61 C62 1.377 . S
C62 H42 0.953 . S
C62 C61 1.377 . S
C62 C63 1.369 . S
C63 H43 0.945 . S
C63 C58 1.385 . S
C63 C62 1.369 . S
C64 C56 1.457 . S
C64 C65 1.372 . S
C64 C69 1.364 . S
C65 H44 0.952 . S
C65 C64 1.372 . S
C65 C66 1.389 . S
C66 H45 0.949 . S
C66 C65 1.389 . S
C66 C67 1.387 . S
C67 C66 1.387 . S
C67 C68 1.372 . S
C68 H46 0.950 . S
C68 C67 1.372 . S
C68 C69 1.379 . S
C69 H47 0.948 . S
C69 C64 1.364 . S
C69 C68 1.379 . S
C70 C39 1.383 . S
C70 C57 1.479 . S
C70 C71 1.398 . S
C71 C36 1.382 . S
C71 H48 0.951 . S
C71 C70 1.398 . S
C72 C73 1.384 . S
C72 H85 0.947 . S
C72 C107 1.382 . S
C73 C72 1.384 . S
C73 C74 1.378 . S
C74 C73 1.378 . S
C74 C75 1.378 . S
C74 H86 0.952 . S
C75 C74 1.378 . S
C75 H87 0.950 . S
C75 C106 1.383 . S
H76 C95 0.947 . S
H77 C96 0.946 . S
H78 C98 0.953 . S
H79 C99 0.945 . S
H80 C101 0.952 . S
H81 C102 0.949 . S
H82 C104 0.950 . S
H83 C105 0.948 . S
H84 C107 0.951 . S
H85 C72 0.947 . S
H86 C74 0.952 . S
H87 C75 0.950 . S
N88 C91 1.382 . S
N88 C93 1.363 . S
N89 C91 1.371 . S
N89 C92 1.372 . S
N90 C92 1.361 . S
N90 C93 1.377 . S
C91 N88 1.382 . S
C91 N89 1.371 . S
C91 C94 1.480 . S
C92 N89 1.372 . S
C92 N90 1.361 . S
C92 C100 1.457 . S
C93 N88 1.363 . S
C93 N90 1.377 . S
C93 C106 1.479 . S
C94 C91 1.480 . S
C94 C95 1.383 . S
C94 C99 1.385 . S
C95 H76 0.947 . S
C95 C94 1.383 . S
C95 C96 1.388 . S
C96 H77 0.946 . S
C96 C95 1.388 . S
C96 C97 1.384 . S
C97 C96 1.384 . S
C97 C98 1.377 . S
C98 H78 0.953 . S
C98 C97 1.377 . S
C98 C99 1.369 . S
C99 H79 0.945 . S
C99 C94 1.385 . S
C99 C98 1.369 . S
C100 C92 1.457 . S
C100 C101 1.372 . S
C100 C105 1.364 . S
C101 H80 0.952 . S
C101 C100 1.372 . S
C101 C102 1.389 . S
C102 H81 0.949 . S
C102 C101 1.389 . S
C102 C103 1.387 . S
C103 C102 1.387 . S
C103 C104 1.372 . S
C104 H82 0.950 . S
C104 C103 1.372 . S
C104 C105 1.379 . S
C105 H83 0.948 . S
C105 C100 1.364 . S
C105 C104 1.379 . S
C106 C75 1.383 . S
C106 C93 1.479 . S
C106 C107 1.398 . S
C107 C72 1.382 . S
C107 H84 0.951 . S
C107 C106 1.398 . S
C108 C109 1.384 . S
C108 H121 0.947 . S
C108 C143 1.382 . S
C109 C108 1.384 . S
C109 C110 1.378 . S
C110 C109 1.378 . S
C110 C111 1.378 . S
C110 H122 0.952 . S
C111 C110 1.378 . S
C111 H123 0.950 . S
C111 C142 1.383 . S
H112 C131 0.947 . S
H113 C132 0.946 . S
H114 C134 0.953 . S
H115 C135 0.945 . S
H116 C137 0.952 . S
H117 C138 0.949 . S
H118 C140 0.950 . S
H119 C141 0.948 . S
H120 C143 0.951 . S
H121 C108 0.947 . S
H122 C110 0.952 . S
H123 C111 0.950 . S
N124 C127 1.382 . S
N124 C129 1.363 . S
N125 C127 1.371 . S
N125 C128 1.372 . S
N126 C128 1.361 . S
N126 C129 1.377 . S
C127 N124 1.382 . S
C127 N125 1.371 . S
C127 C130 1.480 . S
C128 N125 1.372 . S
C128 N126 1.361 . S
C128 C136 1.457 . S
C129 N124 1.363 . S
C129 N126 1.377 . S
C129 C142 1.479 . S
C130 C127 1.480 . S
C130 C131 1.383 . S
C130 C135 1.385 . S
C131 H112 0.947 . S
C131 C130 1.383 . S
C131 C132 1.388 . S
C132 H113 0.946 . S
C132 C131 1.388 . S
C132 C133 1.384 . S
C133 C132 1.384 . S
C133 C134 1.377 . S
C134 H114 0.953 . S
C134 C133 1.377 . S
C134 C135 1.369 . S
C135 H115 0.945 . S
C135 C130 1.385 . S
C135 C134 1.369 . S
C136 C128 1.457 . S
C136 C137 1.372 . S
C136 C141 1.364 . S
C137 H116 0.952 . S
C137 C136 1.372 . S
C137 C138 1.389 . S
C138 H117 0.949 . S
C138 C137 1.389 . S
C138 C139 1.387 . S
C139 C138 1.387 . S
C139 C140 1.372 . S
C140 H118 0.950 . S
C140 C139 1.372 . S
C140 C141 1.379 . S
C141 H119 0.948 . S
C141 C136 1.364 . S
C141 C140 1.379 . S
C142 C111 1.383 . S
C142 C129 1.479 . S
C142 C143 1.398 . S
C143 C108 1.382 . S
C143 H120 0.951 . S
C143 C142 1.398 . S
C144 C145 1.384 . S
C144 H157 0.947 . S
C144 C179 1.382 . S
C145 C144 1.384 . S
C145 C146 1.378 . S
C146 C145 1.378 . S
C146 C147 1.378 . S
C146 H158 0.952 . S
C147 C146 1.378 . S
C147 H159 0.950 . S
C147 C178 1.383 . S
H148 C167 0.947 . S
H149 C168 0.946 . S
H150 C170 0.953 . S
H151 C171 0.945 . S
H152 C173 0.952 . S
H153 C174 0.949 . S
H154 C176 0.950 . S
H155 C177 0.948 . S
H156 C179 0.951 . S
H157 C144 0.947 . S
H158 C146 0.952 . S
H159 C147 0.950 . S
N160 C163 1.382 . S
N160 C165 1.363 . S
N161 C163 1.371 . S
N161 C164 1.372 . S
N162 C164 1.361 . S
N162 C165 1.377 . S
C163 N160 1.382 . S
C163 N161 1.371 . S
C163 C166 1.480 . S
C164 N161 1.372 . S
C164 N162 1.361 . S
C164 C172 1.457 . S
C165 N160 1.363 . S
C165 N162 1.377 . S
C165 C178 1.479 . S
C166 C163 1.480 . S
C166 C167 1.383 . S
C166 C171 1.385 . S
C167 H148 0.947 . S
C167 C166 1.383 . S
C167 C168 1.388 . S
C168 H149 0.946 . S
C168 C167 1.388 . S
C168 C169 1.384 . S
C169 C168 1.384 . S
C169 C170 1.377 . S
C170 H150 0.953 . S
C170 C169 1.377 . S
C170 C171 1.369 . S
C171 H151 0.945 . S
C171 C166 1.385 . S
C171 C170 1.369 . S
C172 C164 1.457 . S
C172 C173 1.372 . S
C172 C177 1.364 . S
C173 H152 0.952 . S
C173 C172 1.372 . S
C173 C174 1.389 . S
C174 H153 0.949 . S
C174 C173 1.389 . S
C174 C175 1.387 . S
C175 C174 1.387 . S
C175 C176 1.372 . S
C176 H154 0.950 . S
C176 C175 1.372 . S
C176 C177 1.379 . S
C177 H155 0.948 . S
C177 C172 1.364 . S
C177 C176 1.379 . S
C178 C147 1.383 . S
C178 C165 1.479 . S
C178 C179 1.398 . S
C179 C144 1.382 . S
C179 H156 0.951 . S
C179 C178 1.398 . S
C180 C181 1.384 . S
C180 H193 0.947 . S
C180 C215 1.382 . S
C181 C180 1.384 . S
C181 C182 1.378 . S
C182 C181 1.378 . S
C182 C183 1.378 . S
C182 H194 0.952 . S
C183 C182 1.378 . S
C183 H195 0.950 . S
C183 C214 1.383 . S
H184 C203 0.947 . S
H185 C204 0.946 . S
H186 C206 0.953 . S
H187 C207 0.945 . S
H188 C209 0.952 . S
H189 C210 0.949 . S
H190 C212 0.950 . S
H191 C213 0.948 . S
H192 C215 0.951 . S
H193 C180 0.947 . S
H194 C182 0.952 . S
H195 C183 0.950 . S
N196 C199 1.382 . S
N196 C201 1.363 . S
N197 C199 1.371 . S
N197 C200 1.372 . S
N198 C200 1.361 . S
N198 C201 1.377 . S
C199 N196 1.382 . S
C199 N197 1.371 . S
C199 C202 1.480 . S
C200 N197 1.372 . S
C200 N198 1.361 . S
C200 C208 1.457 . S
C201 N196 1.363 . S
C201 N198 1.377 . S
C201 C214 1.479 . S
C202 C199 1.480 . S
C202 C203 1.383 . S
C202 C207 1.385 . S
C203 H184 0.947 . S
C203 C202 1.383 . S
C203 C204 1.388 . S
C204 H185 0.946 . S
C204 C203 1.388 . S
C204 C205 1.384 . S
C205 C204 1.384 . S
C205 C206 1.377 . S
C206 H186 0.953 . S
C206 C205 1.377 . S
C206 C207 1.369 . S
C207 H187 0.945 . S
C207 C202 1.385 . S
C207 C206 1.369 . S
C208 C200 1.457 . S
C208 C209 1.372 . S
C208 C213 1.364 . S
C209 H188 0.952 . S
C209 C208 1.372 . S
C209 C210 1.389 . S
C210 H189 0.949 . S
C210 C209 1.389 . S
C210 C211 1.387 . S
C211 C210 1.387 . S
C211 C212 1.372 . S
C212 H190 0.950 . S
C212 C211 1.372 . S
C212 C213 1.379 . S
C213 H191 0.948 . S
C213 C208 1.364 . S
C213 C212 1.379 . S
C214 C183 1.383 . S
C214 C201 1.479 . S
C214 C215 1.398 . S
C215 C180 1.382 . S
C215 H192 0.951 . S
C215 C214 1.398 . S
C216 C217 1.384 . S
C216 H229 0.947 . S
C216 C251 1.382 . S
C217 C216 1.384 . S
C217 C218 1.378 . S
C218 C217 1.378 . S
C218 C219 1.378 . S
C218 H230 0.952 . S
C219 C218 1.378 . S
C219 H231 0.950 . S
C219 C250 1.383 . S
H220 C239 0.947 . S
H221 C240 0.946 . S
H222 C242 0.953 . S
H223 C243 0.945 . S
H224 C245 0.952 . S
H225 C246 0.949 . S
H226 C248 0.950 . S
H227 C249 0.948 . S
H228 C251 0.951 . S
H229 C216 0.947 . S
H230 C218 0.952 . S
H231 C219 0.950 . S
N232 C235 1.382 . S
N232 C237 1.363 . S
N233 C235 1.371 . S
N233 C236 1.372 . S
N234 C236 1.361 . S
N234 C237 1.377 . S
C235 N232 1.382 . S
C235 N233 1.371 . S
C235 C238 1.480 . S
C236 N233 1.372 . S
C236 N234 1.361 . S
C236 C244 1.457 . S
C237 N232 1.363 . S
C237 N234 1.377 . S
C237 C250 1.479 . S
C238 C235 1.480 . S
C238 C239 1.383 . S
C238 C243 1.385 . S
C239 H220 0.947 . S
C239 C238 1.383 . S
C239 C240 1.388 . S
C240 H221 0.946 . S
C240 C239 1.388 . S
C240 C241 1.384 . S
C241 C240 1.384 . S
C241 C242 1.377 . S
C242 H222 0.953 . S
C242 C241 1.377 . S
C242 C243 1.369 . S
C243 H223 0.945 . S
C243 C238 1.385 . S
C243 C242 1.369 . S
C244 C236 1.457 . S
C244 C245 1.372 . S
C244 C249 1.364 . S
C245 H224 0.952 . S
C245 C244 1.372 . S
C245 C246 1.389 . S
C246 H225 0.949 . S
C246 C245 1.389 . S
C246 C247 1.387 . S
C247 C246 1.387 . S
C247 C248 1.372 . S
C248 H226 0.950 . S
C248 C247 1.372 . S
C248 C249 1.379 . S
C249 H227 0.948 . S
C249 C244 1.364 . S
C249 C248 1.379 . S
C250 C219 1.383 . S
C250 C237 1.479 . S
C250 C251 1.398 . S
C251 C216 1.382 . S
C251 H228 0.951 . S
C251 C250 1.398 . S
C252 C253 1.384 . S
C252 H265 0.947 . S
C252 C287 1.382 . S
C253 C252 1.384 . S
C253 C254 1.378 . S
C254 C253 1.378 . S
C254 C255 1.378 . S
C254 H266 0.952 . S
C255 C254 1.378 . S
C255 H267 0.950 . S
C255 C286 1.383 . S
H256 C275 0.947 . S
H257 C276 0.946 . S
H258 C278 0.953 . S
H259 C279 0.945 . S
H260 C281 0.952 . S
H261 C282 0.949 . S
H262 C284 0.950 . S
H263 C285 0.948 . S
H264 C287 0.951 . S
H265 C252 0.947 . S
H266 C254 0.952 . S
H267 C255 0.950 . S
N268 C271 1.382 . S
N268 C273 1.363 . S
N269 C271 1.371 . S
N269 C272 1.372 . S
N270 C272 1.361 . S
N270 C273 1.377 . S
C271 N268 1.382 . S
C271 N269 1.371 . S
C271 C274 1.480 . S
C272 N269 1.372 . S
C272 N270 1.361 . S
C272 C280 1.457 . S
C273 N268 1.363 . S
C273 N270 1.377 . S
C273 C286 1.479 . S
C274 C271 1.480 . S
C274 C275 1.383 . S
C274 C279 1.385 . S
C275 H256 0.947 . S
C275 C274 1.383 . S
C275 C276 1.388 . S
C276 H257 0.946 . S
C276 C275 1.388 . S
C276 C277 1.384 . S
C277 C276 1.384 . S
C277 C278 1.377 . S
C278 H258 0.953 . S
C278 C277 1.377 . S
C278 C279 1.369 . S
C279 H259 0.945 . S
C279 C274 1.385 . S
C279 C278 1.369 . S
C280 C272 1.457 . S
C280 C281 1.372 . S
C280 C285 1.364 . S
C281 H260 0.952 . S
C281 C280 1.372 . S
C281 C282 1.389 . S
C282 H261 0.949 . S
C282 C281 1.389 . S
C282 C283 1.387 . S
C283 C282 1.387 . S
C283 C284 1.372 . S
C284 H262 0.950 . S
C284 C283 1.372 . S
C284 C285 1.379 . S
C285 H263 0.948 . S
C285 C280 1.364 . S
C285 C284 1.379 . S
C286 C255 1.383 . S
C286 C273 1.479 . S
C286 C287 1.398 . S
C287 C252 1.382 . S
C287 H264 0.951 . S
C287 C286 1.398 . S
Tb288 C290 2.824 . S
Tb288 O308 2.507 . S
Tb288 O309 2.444 . S
Tb288 O310 2.649 1_665 S
Tb288 O311 2.392 1_565 S
Tb288 O312 2.393 1_655 S
Tb288 O316 2.342 . S
Tb288 O319 2.326 1_565 S
Tb289 C299 2.809 . S
Tb289 O310 2.325 . S
Tb289 O313 2.341 1_545 S
Tb289 O314 2.484 . S
Tb289 O315 2.440 . S
Tb289 O316 2.658 1_445 S
Tb289 O317 2.409 1_545 S
Tb289 O318 2.365 1_455 S
C290 Tb288 2.824 . S
C290 C291 1.514 . S
C290 O308 1.248 . S
C290 O309 1.266 . S
C291 C290 1.514 . S
C291 C292 1.359 . S
C291 C296 1.348 . S
C292 C291 1.359 . S
C292 C293 1.380 . S
C292 H320 0.929 . S
C293 C292 1.380 . S
C293 C294 1.347 . S
C293 H321 0.931 . S
C294 C293 1.347 . S
C294 C295 1.369 . S
C295 C294 1.369 . S
C295 C296 1.408 . S
C295 H322 0.930 . S
C296 C291 1.348 . S
C296 C295 1.408 . S
C296 H323 0.930 . S
C297 O310 1.281 . S
C297 O311 1.254 1_455 S
C298 O312 1.236 . S
C298 O313 1.266 . S
C299 Tb289 2.809 . S
C299 C300 1.514 . S
C299 O314 1.248 . S
C299 O315 1.266 . S
C300 C299 1.514 . S
C300 C301 1.359 . S
C300 C305 1.348 . S
C301 C300 1.359 . S
C301 C302 1.380 . S
C301 H324 0.929 . S
C302 C301 1.380 . S
C302 C303 1.347 . S
C302 H325 0.931 . S
C303 C302 1.347 . S
C303 C304 1.369 . S
C304 C303 1.369 . S
C304 C305 1.408 . S
C304 H326 0.930 . S
C305 C300 1.348 . S
C305 C304 1.408 . S
C305 H327 0.930 . S
C306 O316 1.281 . S
C306 O317 1.254 1_655 S
C307 O318 1.250 . S
C307 O319 1.266 . S
O308 Tb288 2.507 . S
O308 C290 1.248 . S
O309 Tb288 2.444 . S
O309 C290 1.266 . S
O310 Tb288 2.649 1_445 S
O310 Tb289 2.325 . S
O310 C297 1.281 . S
O311 Tb288 2.392 1_545 S
O311 C297 1.254 1_655 S
O312 Tb288 2.393 1_455 S
O312 C298 1.236 . S
O313 Tb289 2.341 1_565 S
O313 C298 1.266 . S
O314 Tb289 2.484 . S
O314 C299 1.248 . S
O315 Tb289 2.440 . S
O315 C299 1.266 . S
O316 Tb288 2.342 . S
O316 Tb289 2.658 1_665 S
O316 C306 1.281 . S
O317 Tb289 2.409 1_565 S
O317 C306 1.254 1_455 S
O318 Tb289 2.365 1_655 S
O318 C307 1.250 . S
O319 Tb288 2.326 1_545 S
O319 C307 1.266 . S
H320 C292 0.929 . S
H321 C293 0.931 . S
H322 C295 0.930 . S
H323 C296 0.930 . S
H324 C301 0.929 . S
H325 C302 0.931 . S
H326 C304 0.930 . S
H327 C305 0.930 . S
Tb328 C330 2.809 . S
Tb328 O348 2.484 . S
Tb328 O349 2.440 . S
Tb328 O350 2.658 1_545 S
Tb328 O351 2.409 1_545 S
Tb328 O352 2.378 . S
Tb328 O356 2.325 1_554 S
Tb328 O359 2.341 1_544 S
Tb329 C339 2.809 . S
Tb329 O350 2.325 1_556 S
Tb329 O353 2.341 1_566 S
Tb329 O354 2.484 . S
Tb329 O355 2.440 . S
Tb329 O356 2.658 1_565 S
Tb329 O357 2.409 1_565 S
Tb329 O358 2.378 . S
C330 Tb328 2.809 . S
C330 C331 1.514 . S
C330 O348 1.248 . S
C330 O349 1.266 . S
C331 C330 1.514 . S
C331 C332 1.359 . S
C331 C336 1.348 . S
C332 C331 1.359 . S
C332 C333 1.380 . S
C332 H360 0.929 . S
C333 C332 1.380 . S
C333 C334 1.347 . S
C333 H361 0.931 . S
C334 C333 1.347 . S
C334 C335 1.369 . S
C335 C334 1.369 . S
C335 C336 1.408 . S
C335 H362 0.930 . S
C336 C331 1.348 . S
C336 C335 1.408 . S
C336 H363 0.930 . S
C337 O350 1.281 . S
C337 O351 1.254 . S
C338 O352 1.236 . S
C338 O353 1.266 . S
C339 Tb329 2.809 . S
C339 C340 1.514 . S
C339 O354 1.248 . S
C339 O355 1.266 . S
C340 C339 1.514 . S
C340 C341 1.359 . S
C340 C345 1.348 . S
C341 C340 1.359 . S
C341 C342 1.380 . S
C341 H364 0.929 . S
C342 C341 1.380 . S
C342 C343 1.347 . S
C342 H365 0.931 . S
C343 C342 1.347 . S
C343 C344 1.369 . S
C344 C343 1.369 . S
C344 C345 1.408 . S
C344 H366 0.930 . S
C345 C340 1.348 . S
C345 C344 1.408 . S
C345 H367 0.930 . S
C346 O356 1.281 . S
C346 O357 1.254 . S
C347 O358 1.236 . S
C347 O359 1.266 . S
O348 Tb328 2.484 . S
O348 C330 1.248 . S
O349 Tb328 2.440 . S
O349 C330 1.266 . S
O350 Tb328 2.658 1_565 S
O350 Tb329 2.325 1_554 S
O350 C337 1.281 . S
O351 Tb328 2.409 1_565 S
O351 C337 1.254 . S
O352 Tb328 2.378 . S
O352 C338 1.236 . S
O353 Tb329 2.341 1_544 S
O353 C338 1.266 . S
O354 Tb329 2.484 . S
O354 C339 1.248 . S
O355 Tb329 2.440 . S
O355 C339 1.266 . S
O356 Tb328 2.325 1_556 S
O356 Tb329 2.658 1_545 S
O356 C346 1.281 . S
O357 Tb329 2.409 1_545 S
O357 C346 1.254 . S
O358 Tb329 2.378 . S
O358 C347 1.236 . S
O359 Tb328 2.341 1_566 S
O359 C347 1.266 . S
H360 C332 0.929 . S
H361 C333 0.931 . S
H362 C335 0.930 . S
H363 C336 0.930 . S
H364 C341 0.929 . S
H365 C342 0.931 . S
H366 C344 0.930 . S
H367 C345 0.930 . S
Tb368 C370 2.809 . S
Tb368 O388 2.484 . S
Tb368 O389 2.440 . S
Tb368 O390 2.658 . S
Tb368 O391 2.409 . S
Tb368 O392 2.378 . S
Tb368 O396 2.325 . S
Tb368 O399 2.341 . S
Tb369 C379 2.809 . S
Tb369 O390 2.325 . S
Tb369 O393 2.341 . S
Tb369 O394 2.484 . S
Tb369 O395 2.440 . S
Tb369 O396 2.658 . S
Tb369 O397 2.409 . S
Tb369 O398 2.378 . S
C370 Tb368 2.809 . S
C370 C371 1.514 . S
C370 O388 1.248 . S
C370 O389 1.266 . S
C371 C370 1.514 . S
C371 C372 1.359 . S
C371 C376 1.348 . S
C372 C371 1.359 . S
C372 C373 1.380 . S
C372 H400 0.929 . S
C373 C372 1.380 . S
C373 C374 1.347 . S
C373 H401 0.931 . S
C374 C373 1.347 . S
C374 C375 1.369 . S
C375 C374 1.369 . S
C375 C376 1.408 . S
C375 H402 0.930 . S
C376 C371 1.348 . S
C376 C375 1.408 . S
C376 H403 0.930 . S
C377 O390 1.281 . S
C377 O391 1.254 . S
C378 O392 1.236 . S
C378 O393 1.266 . S
C379 Tb369 2.809 . S
C379 C380 1.514 . S
C379 O394 1.248 . S
C379 O395 1.266 . S
C380 C379 1.514 . S
C380 C381 1.359 . S
C380 C385 1.348 . S
C381 C380 1.359 . S
C381 C382 1.380 . S
C381 H404 0.929 . S
C382 C381 1.380 . S
C382 C383 1.347 . S
C382 H405 0.931 . S
C383 C382 1.347 . S
C383 C384 1.369 . S
C384 C383 1.369 . S
C384 C385 1.408 . S
C384 H406 0.930 . S
C385 C380 1.348 . S
C385 C384 1.408 . S
C385 H407 0.930 . S
C386 O396 1.281 . S
C386 O397 1.254 . S
C387 O398 1.236 . S
C387 O399 1.266 . S
O388 Tb368 2.484 . S
O388 C370 1.248 . S
O389 Tb368 2.440 . S
O389 C370 1.266 . S
O390 Tb368 2.658 . S
O390 Tb369 2.325 . S
O390 C377 1.281 . S
O391 Tb368 2.409 . S
O391 C377 1.254 . S
O392 Tb368 2.378 . S
O392 C378 1.236 . S
O393 Tb369 2.341 . S
O393 C378 1.266 . S
O394 Tb369 2.484 . S
O394 C379 1.248 . S
O395 Tb369 2.440 . S
O395 C379 1.266 . S
O396 Tb368 2.325 . S
O396 Tb369 2.658 . S
O396 C386 1.281 . S
O397 Tb369 2.409 . S
O397 C386 1.254 . S
O398 Tb369 2.378 . S
O398 C387 1.236 . S
O399 Tb368 2.341 . S
O399 C387 1.266 . S
H400 C372 0.929 . S
H401 C373 0.931 . S
H402 C375 0.930 . S
H403 C376 0.930 . S
H404 C381 0.929 . S
H405 C382 0.931 . S
H406 C384 0.930 . S
H407 C385 0.930 . S
Tb408 C410 2.809 1_455 S
Tb408 O428 2.484 1_455 S
Tb408 O429 2.440 1_455 S
Tb408 O430 2.658 1_556 S
Tb408 O431 2.409 1_556 S
Tb408 O432 2.378 1_456 S
Tb408 O436 2.325 1_455 S
Tb408 O439 2.341 . S
Tb409 C419 2.809 . S
Tb409 O430 2.325 . S
Tb409 O433 2.341 1_455 S
Tb409 O434 2.484 . S
Tb409 O435 2.440 . S
Tb409 O436 2.658 1_454 S
Tb409 O437 2.409 1_455 S
Tb409 O438 2.378 1_554 S
C410 Tb408 2.809 1_655 S
C410 C411 1.514 . S
C410 O428 1.248 . S
C410 O429 1.266 . S
C411 C410 1.514 . S
C411 C412 1.359 . S
C411 C416 1.348 . S
C412 C411 1.359 . S
C412 C413 1.380 . S
C412 H440 0.929 . S
C413 C412 1.380 . S
C413 C414 1.347 . S
C413 H441 0.931 . S
C414 C413 1.347 . S
C414 C415 1.369 . S
C415 C414 1.369 . S
C415 C416 1.408 . S
C415 H442 0.930 . S
C416 C411 1.348 . S
C416 C415 1.408 . S
C416 H443 0.930 . S
C417 O430 1.281 . S
C417 O431 1.254 . S
C418 O432 1.236 . S
C418 O433 1.266 . S
C419 Tb409 2.809 . S
C419 C420 1.514 . S
C419 O434 1.248 . S
C419 O435 1.266 . S
C420 C419 1.514 . S
C420 C421 1.359 . S
C420 C425 1.348 . S
C421 C420 1.359 . S
C421 C422 1.380 . S
C421 H444 0.929 . S
C422 C421 1.380 . S
C422 C423 1.347 . S
C422 H445 0.931 . S
C423 C422 1.347 . S
C423 C424 1.369 . S
C424 C423 1.369 . S
C424 C425 1.408 . S
C424 H446 0.930 . S
C425 C420 1.348 . S
C425 C424 1.408 . S
C425 H447 0.930 . S
C426 O436 1.281 . S
C426 O437 1.254 1_556 S
C427 O438 1.236 . S
C427 O439 1.266 . S
O428 Tb408 2.484 1_655 S
O428 C410 1.248 . S
O429 Tb408 2.440 1_655 S
O429 C410 1.266 . S
O430 Tb408 2.658 1_554 S
O430 Tb409 2.325 . S
O430 C417 1.281 . S
O431 Tb408 2.409 1_554 S
O431 C417 1.254 . S
O432 Tb408 2.378 1_654 S
O432 C418 1.236 . S
O433 Tb409 2.341 1_655 S
O433 C418 1.266 . S
O434 Tb409 2.484 . S
O434 C419 1.248 . S
O435 Tb409 2.440 . S
O435 C419 1.266 . S
O436 Tb408 2.325 1_655 S
O436 Tb409 2.658 1_656 S
O436 C426 1.281 . S
O437 Tb409 2.409 1_655 S
O437 C426 1.254 1_554 S
O438 Tb409 2.378 1_556 S
O438 C427 1.236 . S
O439 Tb408 2.341 . S
O439 C427 1.266 . S
H440 C412 0.929 . S
H441 C413 0.931 . S
H442 C415 0.930 . S
H443 C416 0.930 . S
H444 C421 0.929 . S
H445 C422 0.931 . S
H446 C424 0.930 . S
H447 C425 0.930 . S
H448 C460 0.930 . S
H449 C462 0.930 . S
H450 C463 0.930 . S
H451 C467 0.959 . S
H452 C467 0.959 . S
H453 C467 0.961 . S
H454 C468 0.960 . S
H455 C468 0.961 . S
H456 C468 0.959 . S
H457 C471 0.929 . S
H458 C472 0.931 . S
H459 C474 0.930 . S
C460 H448 0.930 . S
C460 C461 1.399 . S
C460 C465 1.399 . S
C461 C460 1.399 . S
C461 C462 1.376 . S
C462 H449 0.930 . S
C462 C461 1.376 . S
C462 C463 1.388 . S
C463 H450 0.930 . S
C463 C462 1.388 . S
C463 C464 1.390 . S
C464 C463 1.390 . S
C464 C465 1.394 . S
C464 C470 1.465 . S
C465 C460 1.399 . S
C465 C464 1.394 . S
C465 C466 1.516 . S
C466 C465 1.516 . S
C466 C467 1.502 . S
C466 C468 1.561 . S
C466 C469 1.526 . S
C467 H451 0.959 . S
C467 H452 0.959 . S
C467 H453 0.961 . S
C467 C466 1.502 . S
C468 H454 0.960 . S
C468 H455 0.961 . S
C468 H456 0.959 . S
C468 C466 1.561 . S
C469 C466 1.526 . S
C469 C470 1.396 . S
C469 C474 1.390 . S
C470 C464 1.465 . S
C470 C469 1.396 . S
C470 C471 1.399 . S
C471 H457 0.929 . S
C471 C470 1.399 . S
C471 C472 1.385 . S
C472 H458 0.931 . S
C472 C471 1.385 . S
C472 C473 1.389 . S
C473 C472 1.389 . S
C473 C474 1.387 . S
C474 H459 0.930 . S
C474 C469 1.390 . S
C474 C473 1.387 . S
H475 C487 0.930 . S
H476 C489 0.930 . S
H477 C490 0.930 . S
H478 C494 0.959 . S
H479 C494 0.959 . S
H480 C494 0.961 . S
H481 C495 0.960 . S
H482 C495 0.961 . S
H483 C495 0.959 . S
H484 C498 0.929 . S
H485 C499 0.931 . S
H486 C501 0.930 . S
C487 H475 0.930 . S
C487 C488 1.399 . S
C487 C492 1.399 . S
C488 C487 1.399 . S
C488 C489 1.376 . S
C489 H476 0.930 . S
C489 C488 1.376 . S
C489 C490 1.388 . S
C490 H477 0.930 . S
C490 C489 1.388 . S
C490 C491 1.390 . S
C491 C490 1.390 . S
C491 C492 1.394 . S
C491 C497 1.465 . S
C492 C487 1.399 . S
C492 C491 1.394 . S
C492 C493 1.516 . S
C493 C492 1.516 . S
C493 C494 1.502 . S
C493 C495 1.561 . S
C493 C496 1.526 . S
C494 H478 0.959 . S
C494 H479 0.959 . S
C494 H480 0.961 . S
C494 C493 1.502 . S
C495 H481 0.960 . S
C495 H482 0.961 . S
C495 H483 0.959 . S
C495 C493 1.561 . S
C496 C493 1.526 . S
C496 C497 1.396 . S
C496 C501 1.390 . S
C497 C491 1.465 . S
C497 C496 1.396 . S
C497 C498 1.399 . S
C498 H484 0.929 . S
C498 C497 1.399 . S
C498 C499 1.385 . S
C499 H485 0.931 . S
C499 C498 1.385 . S
C499 C500 1.389 . S
C500 C499 1.389 . S
C500 C501 1.387 . S
C501 H486 0.930 . S
C501 C496 1.390 . S
C501 C500 1.387 . S
H502 C514 0.930 . S
H503 C516 0.930 . S
H504 C517 0.930 . S
H505 C521 0.959 . S
H506 C521 0.959 . S
H507 C521 0.961 . S
H508 C522 0.960 . S
H509 C522 0.961 . S
H510 C522 0.959 . S
H511 C525 0.929 . S
H512 C526 0.931 . S
H513 C528 0.930 . S
C514 H502 0.930 . S
C514 C515 1.399 . S
C514 C519 1.399 . S
C515 C514 1.399 . S
C515 C516 1.376 . S
C516 H503 0.930 . S
C516 C515 1.376 . S
C516 C517 1.388 . S
C517 H504 0.930 . S
C517 C516 1.388 . S
C517 C518 1.390 . S
C518 C517 1.390 . S
C518 C519 1.394 . S
C518 C524 1.465 . S
C519 C514 1.399 . S
C519 C518 1.394 . S
C519 C520 1.516 . S
C520 C519 1.516 . S
C520 C521 1.502 . S
C520 C522 1.561 . S
C520 C523 1.526 . S
C521 H505 0.959 . S
C521 H506 0.959 . S
C521 H507 0.961 . S
C521 C520 1.502 . S
C522 H508 0.960 . S
C522 H509 0.961 . S
C522 H510 0.959 . S
C522 C520 1.561 . S
C523 C520 1.526 . S
C523 C524 1.396 . S
C523 C528 1.390 . S
C524 C518 1.465 . S
C524 C523 1.396 . S
C524 C525 1.399 . S
C525 H511 0.929 . S
C525 C524 1.399 . S
C525 C526 1.385 . S
C526 H512 0.931 . S
C526 C525 1.385 . S
C526 C527 1.389 . S
C527 C526 1.389 . S
C527 C528 1.387 . S
C528 H513 0.930 . S
C528 C523 1.390 . S
C528 C527 1.387 . S
H529 C541 0.930 . S
H530 C543 0.930 . S
H531 C544 0.930 . S
H532 C548 0.959 . S
H533 C548 0.959 . S
H534 C548 0.961 . S
H535 C549 0.960 . S
H536 C549 0.961 . S
H537 C549 0.959 . S
H538 C552 0.929 . S
H539 C553 0.931 . S
H540 C555 0.930 . S
C541 H529 0.930 . S
C541 C542 1.399 . S
C541 C546 1.399 . S
C542 C541 1.399 . S
C542 C543 1.376 . S
C543 H530 0.930 . S
C543 C542 1.376 . S
C543 C544 1.388 . S
C544 H531 0.930 . S
C544 C543 1.388 . S
C544 C545 1.390 . S
C545 C544 1.390 . S
C545 C546 1.394 . S
C545 C551 1.465 . S
C546 C541 1.399 . S
C546 C545 1.394 . S
C546 C547 1.516 . S
C547 C546 1.516 . S
C547 C548 1.502 . S
C547 C549 1.561 . S
C547 C550 1.526 . S
C548 H532 0.959 . S
C548 H533 0.959 . S
C548 H534 0.961 . S
C548 C547 1.502 . S
C549 H535 0.960 . S
C549 H536 0.961 . S
C549 H537 0.959 . S
C549 C547 1.561 . S
C550 C547 1.526 . S
C550 C551 1.396 . S
C550 C555 1.390 . S
C551 C545 1.465 . S
C551 C550 1.396 . S
C551 C552 1.399 . S
C552 H538 0.929 . S
C552 C551 1.399 . S
C552 C553 1.385 . S
C553 H539 0.931 . S
C553 C552 1.385 . S
C553 C554 1.389 . S
C554 C553 1.389 . S
C554 C555 1.387 . S
C555 H540 0.930 . S
C555 C550 1.390 . S
C555 C554 1.387 . S
H556 C568 0.930 . S
H557 C570 0.930 . S
H558 C571 0.930 . S
H559 C575 0.959 . S
H560 C575 0.959 . S
H561 C575 0.961 . S
H562 C576 0.960 . S
H563 C576 0.961 . S
H564 C576 0.959 . S
H565 C579 0.929 . S
H566 C580 0.931 . S
H567 C582 0.930 . S
C568 H556 0.930 . S
C568 C569 1.399 . S
C568 C573 1.399 . S
C569 C568 1.399 . S
C569 C570 1.376 . S
C570 H557 0.930 . S
C570 C569 1.376 . S
C570 C571 1.388 . S
C571 H558 0.930 . S
C571 C570 1.388 . S
C571 C572 1.390 . S
C572 C571 1.390 . S
C572 C573 1.394 . S
C572 C578 1.465 . S
C573 C568 1.399 . S
C573 C572 1.394 . S
C573 C574 1.516 . S
C574 C573 1.516 . S
C574 C575 1.502 . S
C574 C576 1.561 . S
C574 C577 1.526 . S
C575 H559 0.959 . S
C575 H560 0.959 . S
C575 H561 0.961 . S
C575 C574 1.502 . S
C576 H562 0.960 . S
C576 H563 0.961 . S
C576 H564 0.959 . S
C576 C574 1.561 . S
C577 C574 1.526 . S
C577 C578 1.396 . S
C577 C582 1.390 . S
C578 C572 1.465 . S
C578 C577 1.396 . S
C578 C579 1.399 . S
C579 H565 0.929 . S
C579 C578 1.399 . S
C579 C580 1.385 . S
C580 H566 0.931 . S
C580 C579 1.385 . S
C580 C581 1.389 . S
C581 C580 1.389 . S
C581 C582 1.387 . S
C582 H567 0.930 . S
C582 C577 1.390 . S
C582 C581 1.387 . S
H583 C595 0.930 . S
H584 C597 0.930 . S
H585 C598 0.930 . S
H586 C602 0.946 1_655 S
H587 C602 0.946 1_655 S
H588 C602 0.960 1_655 S
H589 C603 0.960 . S
H590 C603 0.961 . S
H591 C603 0.959 . S
H592 C606 0.929 . S
H593 C607 0.931 . S
H594 C609 0.930 . S
C595 H583 0.930 . S
C595 C596 1.399 . S
C595 C600 1.399 . S
C596 C595 1.399 . S
C596 C597 1.376 . S
C597 H584 0.930 . S
C597 C596 1.376 . S
C597 C598 1.388 . S
C598 H585 0.930 . S
C598 C597 1.388 . S
C598 C599 1.390 . S
C599 C598 1.390 . S
C599 C600 1.394 . S
C599 C605 1.465 . S
C600 C595 1.399 . S
C600 C599 1.394 . S
C600 C601 1.516 . S
C601 C600 1.516 . S
C601 C602 1.530 . S
C601 C603 1.561 . S
C601 C604 1.526 . S
C602 H586 0.946 1_455 S
C602 H587 0.946 1_455 S
C602 H588 0.960 1_455 S
C602 C601 1.530 . S
C603 H589 0.960 . S
C603 H590 0.961 . S
C603 H591 0.959 . S
C603 C601 1.561 . S
C604 C601 1.526 . S
C604 C605 1.396 . S
C604 C609 1.390 . S
C605 C599 1.465 . S
C605 C604 1.396 . S
C605 C606 1.399 . S
C606 H592 0.929 . S
C606 C605 1.399 . S
C606 C607 1.385 . S
C607 H593 0.931 . S
C607 C606 1.385 . S
C607 C608 1.389 . S
C608 C607 1.389 . S
C608 C609 1.387 . S
C609 H594 0.930 . S
C609 C604 1.390 . S
C609 C608 1.387 . S
H610 C622 0.930 . S
H611 C624 0.930 . S
H612 C625 0.930 . S
H613 C629 0.959 . S
H614 C629 0.959 . S
H615 C629 0.961 . S
H616 C630 0.960 . S
H617 C630 0.961 . S
H618 C630 0.959 . S
H619 C633 0.929 . S
H620 C634 0.931 . S
H621 C636 0.930 . S
C622 H610 0.930 . S
C622 C623 1.399 . S
C622 C627 1.399 . S
C623 C622 1.399 . S
C623 C624 1.376 . S
C624 H611 0.930 . S
C624 C623 1.376 . S
C624 C625 1.388 . S
C625 H612 0.930 . S
C625 C624 1.388 . S
C625 C626 1.390 . S
C626 C625 1.390 . S
C626 C627 1.394 . S
C626 C632 1.465 . S
C627 C622 1.399 . S
C627 C626 1.394 . S
C627 C628 1.516 . S
C628 C627 1.516 . S
C628 C629 1.502 . S
C628 C630 1.561 . S
C628 C631 1.526 . S
C629 H613 0.959 . S
C629 H614 0.959 . S
C629 H615 0.961 . S
C629 C628 1.502 . S
C630 H616 0.960 . S
C630 H617 0.961 . S
C630 H618 0.959 . S
C630 C628 1.561 . S
C631 C628 1.526 . S
C631 C632 1.396 . S
C631 C636 1.390 . S
C632 C626 1.465 . S
C632 C631 1.396 . S
C632 C633 1.399 . S
C633 H619 0.929 . S
C633 C632 1.399 . S
C633 C634 1.385 . S
C634 H620 0.931 . S
C634 C633 1.385 . S
C634 C635 1.389 . S
C635 C634 1.389 . S
C635 C636 1.387 . S
C636 H621 0.930 . S
C636 C631 1.390 . S
C636 C635 1.387 . S
H637 C649 0.930 . S
H638 C651 0.930 . S
H639 C652 0.930 . S
H640 C656 0.959 . S
H641 C656 0.959 . S
H642 C656 0.961 . S
H643 C657 0.960 . S
H644 C657 0.961 . S
H645 C657 0.959 . S
H646 C660 0.929 . S
H647 C661 0.931 . S
H648 C663 0.930 . S
C649 H637 0.930 . S
C649 C650 1.399 . S
C649 C654 1.399 . S
C650 C649 1.399 . S
C650 C651 1.376 . S
C651 H638 0.930 . S
C651 C650 1.376 . S
C651 C652 1.388 . S
C652 H639 0.930 . S
C652 C651 1.388 . S
C652 C653 1.390 . S
C653 C652 1.390 . S
C653 C654 1.394 . S
C653 C659 1.465 . S
C654 C649 1.399 . S
C654 C653 1.394 . S
C654 C655 1.516 . S
C655 C654 1.516 . S
C655 C656 1.502 . S
C655 C657 1.561 . S
C655 C658 1.526 . S
C656 H640 0.959 . S
C656 H641 0.959 . S
C656 H642 0.961 . S
C656 C655 1.502 . S
C657 H643 0.960 . S
C657 H644 0.961 . S
C657 H645 0.959 . S
C657 C655 1.561 . S
C658 C655 1.526 . S
C658 C659 1.396 . S
C658 C663 1.390 . S
C659 C653 1.465 . S
C659 C658 1.396 . S
C659 C660 1.399 . S
C660 H646 0.929 . S
C660 C659 1.399 . S
C660 C661 1.385 . S
C661 H647 0.931 . S
C661 C660 1.385 . S
C661 C662 1.389 . S
C662 C661 1.389 . S
C662 C663 1.387 . S
C663 H648 0.930 . S
C663 C658 1.390 . S
C663 C662 1.387 . S
H664 C676 0.930 . S
H665 C678 0.930 . S
H666 C679 0.930 . S
H667 C683 0.959 . S
H668 C683 0.959 . S
H669 C683 0.961 . S
H670 C684 0.960 . S
H671 C684 0.961 . S
H672 C684 0.959 . S
H673 C687 0.929 . S
H674 C688 0.931 . S
H675 C690 0.930 . S
C676 H664 0.930 . S
C676 C677 1.399 . S
C676 C681 1.399 . S
C677 C676 1.399 . S
C677 C678 1.376 . S
C678 H665 0.930 . S
C678 C677 1.376 . S
C678 C679 1.388 . S
C679 H666 0.930 . S
C679 C678 1.388 . S
C679 C680 1.390 . S
C680 C679 1.390 . S
C680 C681 1.394 . S
C680 C686 1.465 . S
C681 C676 1.399 . S
C681 C680 1.394 . S
C681 C682 1.516 . S
C682 C681 1.516 . S
C682 C683 1.502 . S
C682 C684 1.561 . S
C682 C685 1.526 . S
C683 H667 0.959 . S
C683 H668 0.959 . S
C683 H669 0.961 . S
C683 C682 1.502 . S
C684 H670 0.960 . S
C684 H671 0.961 . S
C684 H672 0.959 . S
C684 C682 1.561 . S
C685 C682 1.526 . S
C685 C686 1.396 . S
C685 C690 1.390 . S
C686 C680 1.465 . S
C686 C685 1.396 . S
C686 C687 1.399 . S
C687 H673 0.929 . S
C687 C686 1.399 . S
C687 C688 1.385 . S
C688 H674 0.931 . S
C688 C687 1.385 . S
C688 C689 1.389 . S
C689 C688 1.389 . S
C689 C690 1.387 . S
C690 H675 0.930 . S
C690 C685 1.390 . S
C690 C689 1.387 . S
H691 C703 0.930 . S
H692 C705 0.930 . S
H693 C706 0.930 . S
H694 C710 0.959 . S
H695 C710 0.959 . S
H696 C710 0.961 . S
H697 C711 0.960 . S
H698 C711 0.961 . S
H699 C711 0.959 . S
H700 C714 0.929 . S
H701 C715 0.931 . S
H702 C717 0.930 . S
C703 H691 0.930 . S
C703 C704 1.399 . S
C703 C708 1.399 . S
C704 C703 1.399 . S
C704 C705 1.376 . S
C705 H692 0.930 . S
C705 C704 1.376 . S
C705 C706 1.388 . S
C706 H693 0.930 . S
C706 C705 1.388 . S
C706 C707 1.390 . S
C707 C706 1.390 . S
C707 C708 1.394 . S
C707 C713 1.465 . S
C708 C703 1.399 . S
C708 C707 1.394 . S
C708 C709 1.516 . S
C709 C708 1.516 . S
C709 C710 1.502 . S
C709 C711 1.561 . S
C709 C712 1.526 . S
C710 H694 0.959 . S
C710 H695 0.959 . S
C710 H696 0.961 . S
C710 C709 1.502 . S
C711 H697 0.960 . S
C711 H698 0.961 . S
C711 H699 0.959 . S
C711 C709 1.561 . S
C712 C709 1.526 . S
C712 C713 1.396 . S
C712 C717 1.390 . S
C713 C707 1.465 . S
C713 C712 1.396 . S
C713 C714 1.399 . S
C714 H700 0.929 . S
C714 C713 1.399 . S
C714 C715 1.385 . S
C715 H701 0.931 . S
C715 C714 1.385 . S
C715 C716 1.389 . S
C716 C715 1.389 . S
C716 C717 1.387 . S
C717 H702 0.930 . S
C717 C712 1.390 . S
C717 C716 1.387 . S
H718 C730 0.930 . S
H719 C732 0.930 . S
H720 C733 0.930 . S
H721 C737 0.959 . S
H722 C737 0.959 . S
H723 C737 0.961 . S
H724 C738 0.960 . S
H725 C738 0.961 . S
H726 C738 0.959 . S
H727 C741 0.929 . S
H728 C742 0.931 . S
H729 C744 0.930 . S
C730 H718 0.930 . S
C730 C731 1.399 . S
C730 C735 1.399 . S
C731 C730 1.399 . S
C731 C732 1.376 . S
C732 H719 0.930 . S
C732 C731 1.376 . S
C732 C733 1.388 . S
C733 H720 0.930 . S
C733 C732 1.388 . S
C733 C734 1.390 . S
C734 C733 1.390 . S
C734 C735 1.394 . S
C734 C740 1.465 . S
C735 C730 1.399 . S
C735 C734 1.394 . S
C735 C736 1.516 . S
C736 C735 1.516 . S
C736 C737 1.502 . S
C736 C738 1.561 . S
C736 C739 1.526 . S
C737 H721 0.959 . S
C737 H722 0.959 . S
C737 H723 0.961 . S
C737 C736 1.502 . S
C738 H724 0.960 . S
C738 H725 0.961 . S
C738 H726 0.959 . S
C738 C736 1.561 . S
C739 C736 1.526 . S
C739 C740 1.396 . S
C739 C744 1.390 . S
C740 C734 1.465 . S
C740 C739 1.396 . S
C740 C741 1.399 . S
C741 H727 0.929 . S
C741 C740 1.399 . S
C741 C742 1.385 . S
C742 H728 0.931 . S
C742 C741 1.385 . S
C742 C743 1.389 . S
C743 C742 1.389 . S
C743 C744 1.387 . S
C744 H729 0.930 . S
C744 C739 1.390 . S
C744 C743 1.387 . S
H745 C757 0.930 . S
H746 C759 0.930 . S
H747 C760 0.930 . S
H748 C764 0.959 . S
H749 C764 0.959 . S
H750 C764 0.961 . S
H751 C765 0.960 . S
H752 C765 0.961 . S
H753 C765 0.959 . S
H754 C768 0.929 . S
H755 C769 0.931 . S
H756 C771 0.930 . S
C757 H745 0.930 . S
C757 C758 1.399 . S
C757 C762 1.399 . S
C758 C757 1.399 . S
C758 C759 1.376 . S
C759 H746 0.930 . S
C759 C758 1.376 . S
C759 C760 1.388 . S
C760 H747 0.930 . S
C760 C759 1.388 . S
C760 C761 1.390 . S
C761 C760 1.390 . S
C761 C762 1.394 . S
C761 C767 1.465 . S
C762 C757 1.399 . S
C762 C761 1.394 . S
C762 C763 1.516 . S
C763 C762 1.516 . S
C763 C764 1.502 . S
C763 C765 1.561 . S
C763 C766 1.526 . S
C764 H748 0.959 . S
C764 H749 0.959 . S
C764 H750 0.961 . S
C764 C763 1.502 . S
C765 H751 0.960 . S
C765 H752 0.961 . S
C765 H753 0.959 . S
C765 C763 1.561 . S
C766 C763 1.526 . S
C766 C767 1.396 . S
C766 C771 1.390 . S
C767 C761 1.465 . S
C767 C766 1.396 . S
C767 C768 1.399 . S
C768 H754 0.929 . S
C768 C767 1.399 . S
C768 C769 1.385 . S
C769 H755 0.931 . S
C769 C768 1.385 . S
C769 C770 1.389 . S
C770 C769 1.389 . S
C770 C771 1.387 . S
C771 H756 0.930 . S
C771 C766 1.390 . S
C771 C770 1.387 . S
H772 C784 0.930 . S
H773 C786 0.930 . S
H774 C787 0.930 . S
H775 C791 0.959 . S
H776 C791 0.959 . S
H777 C791 0.961 . S
H778 C792 0.960 . S
H779 C792 0.961 . S
H780 C792 0.959 . S
H781 C795 0.929 . S
H782 C796 0.931 . S
H783 C798 0.930 . S
C784 H772 0.930 . S
C784 C785 1.399 . S
C784 C789 1.399 . S
C785 C784 1.399 . S
C785 C786 1.376 . S
C786 H773 0.930 . S
C786 C785 1.376 . S
C786 C787 1.388 . S
C787 H774 0.930 . S
C787 C786 1.388 . S
C787 C788 1.390 . S
C788 C787 1.390 . S
C788 C789 1.394 . S
C788 C794 1.465 . S
C789 C784 1.399 . S
C789 C788 1.394 . S
C789 C790 1.516 . S
C790 C789 1.516 . S
C790 C791 1.502 . S
C790 C792 1.561 . S
C790 C793 1.526 . S
C791 H775 0.959 . S
C791 H776 0.959 . S
C791 H777 0.961 . S
C791 C790 1.502 . S
C792 H778 0.960 . S
C792 H779 0.961 . S
C792 H780 0.959 . S
C792 C790 1.561 . S
C793 C790 1.526 . S
C793 C794 1.396 . S
C793 C798 1.390 . S
C794 C788 1.465 . S
C794 C793 1.396 . S
C794 C795 1.399 . S
C795 H781 0.929 . S
C795 C794 1.399 . S
C795 C796 1.385 . S
C796 H782 0.931 . S
C796 C795 1.385 . S
C796 C797 1.389 . S
C797 C796 1.389 . S
C797 C798 1.387 . S
C798 H783 0.930 . S
C798 C793 1.390 . S
C798 C797 1.387 . S
H799 C811 0.930 . S
H800 C813 0.930 . S
H801 C814 0.930 . S
H802 C818 0.959 . S
H803 C818 0.959 . S
H804 C818 0.961 . S
H805 C819 0.960 . S
H806 C819 0.961 . S
H807 C819 0.959 . S
H808 C822 0.929 . S
H809 C823 0.931 . S
H810 C825 0.930 . S
C811 H799 0.930 . S
C811 C812 1.399 . S
C811 C816 1.399 . S
C812 C811 1.399 . S
C812 C813 1.376 . S
C813 H800 0.930 . S
C813 C812 1.376 . S
C813 C814 1.388 . S
C814 H801 0.930 . S
C814 C813 1.388 . S
C814 C815 1.390 . S
C815 C814 1.390 . S
C815 C816 1.394 . S
C815 C821 1.465 . S
C816 C811 1.399 . S
C816 C815 1.394 . S
C816 C817 1.516 . S
C817 C816 1.516 . S
C817 C818 1.502 . S
C817 C819 1.561 . S
C817 C820 1.526 . S
C818 H802 0.959 . S
C818 H803 0.959 . S
C818 H804 0.961 . S
C818 C817 1.502 . S
C819 H805 0.960 . S
C819 H806 0.961 . S
C819 H807 0.959 . S
C819 C817 1.561 . S
C820 C817 1.526 . S
C820 C821 1.396 . S
C820 C825 1.390 . S
C821 C815 1.465 . S
C821 C820 1.396 . S
C821 C822 1.399 . S
C822 H808 0.929 . S
C822 C821 1.399 . S
C822 C823 1.385 . S
C823 H809 0.931 . S
C823 C822 1.385 . S
C823 C824 1.389 . S
C824 C823 1.389 . S
C824 C825 1.387 . S
C825 H810 0.930 . S
C825 C820 1.390 . S
C825 C824 1.387 . S
H826 C838 0.930 . S
H827 C840 0.930 . S
H828 C841 0.930 . S
H829 C845 0.959 . S
H830 C845 0.959 . S
H831 C845 0.961 . S
H832 C846 0.960 . S
H833 C846 0.961 . S
H834 C846 0.959 . S
H835 C849 0.929 . S
H836 C850 0.931 . S
H837 C852 0.930 . S
C838 H826 0.930 . S
C838 C839 1.399 . S
C838 C843 1.399 . S
C839 C838 1.399 . S
C839 C840 1.376 . S
C840 H827 0.930 . S
C840 C839 1.376 . S
C840 C841 1.388 . S
C841 H828 0.930 . S
C841 C840 1.388 . S
C841 C842 1.390 . S
C842 C841 1.390 . S
C842 C843 1.394 . S
C842 C848 1.465 . S
C843 C838 1.399 . S
C843 C842 1.394 . S
C843 C844 1.516 . S
C844 C843 1.516 . S
C844 C845 1.502 . S
C844 C846 1.561 . S
C844 C847 1.526 . S
C845 H829 0.959 . S
C845 H830 0.959 . S
C845 H831 0.961 . S
C845 C844 1.502 . S
C846 H832 0.960 . S
C846 H833 0.961 . S
C846 H834 0.959 . S
C846 C844 1.561 . S
C847 C844 1.526 . S
C847 C848 1.396 . S
C847 C852 1.390 . S
C848 C842 1.465 . S
C848 C847 1.396 . S
C848 C849 1.399 . S
C849 H835 0.929 . S
C849 C848 1.399 . S
C849 C850 1.385 . S
C850 H836 0.931 . S
C850 C849 1.385 . S
C850 C851 1.389 . S
C851 C850 1.389 . S
C851 C852 1.387 . S
C852 H837 0.930 . S
C852 C847 1.390 . S
C852 C851 1.387 . S
H853 C865 0.930 . S
H854 C867 0.930 . S
H855 C868 0.930 . S
H856 C872 0.959 . S
H857 C872 0.959 . S
H858 C872 0.961 . S
H859 C873 0.960 . S
H860 C873 0.961 . S
H861 C873 0.959 . S
H862 C876 0.929 . S
H863 C877 0.931 . S
H864 C879 0.930 . S
C865 H853 0.930 . S
C865 C866 1.399 . S
C865 C870 1.399 . S
C866 C865 1.399 . S
C866 C867 1.376 . S
C867 H854 0.930 . S
C867 C866 1.376 . S
C867 C868 1.388 . S
C868 H855 0.930 . S
C868 C867 1.388 . S
C868 C869 1.390 . S
C869 C868 1.390 . S
C869 C870 1.394 . S
C869 C875 1.465 . S
C870 C865 1.399 . S
C870 C869 1.394 . S
C870 C871 1.516 . S
C871 C870 1.516 . S
C871 C872 1.502 . S
C871 C873 1.561 . S
C871 C874 1.526 . S
C872 H856 0.959 . S
C872 H857 0.959 . S
C872 H858 0.961 . S
C872 C871 1.502 . S
C873 H859 0.960 . S
C873 H860 0.961 . S
C873 H861 0.959 . S
C873 C871 1.561 . S
C874 C871 1.526 . S
C874 C875 1.396 . S
C874 C879 1.390 . S
C875 C869 1.465 . S
C875 C874 1.396 . S
C875 C876 1.399 . S
C876 H862 0.929 . S
C876 C875 1.399 . S
C876 C877 1.385 . S
C877 H863 0.931 . S
C877 C876 1.385 . S
C877 C878 1.389 . S
C878 C877 1.389 . S
C878 C879 1.387 . S
C879 H864 0.930 . S
C879 C874 1.390 . S
C879 C878 1.387 . S
H880 C892 0.930 . S
H881 C894 0.930 . S
H882 C895 0.930 . S
H883 C899 0.959 . S
H884 C899 0.959 . S
H885 C899 0.961 . S
H886 C900 0.960 . S
H887 C900 0.961 . S
H888 C900 0.959 . S
H889 C903 0.929 . S
H890 C904 0.931 . S
H891 C906 0.930 . S
C892 H880 0.930 . S
C892 C893 1.399 . S
C892 C897 1.399 . S
C893 C892 1.399 . S
C893 C894 1.376 . S
C894 H881 0.930 . S
C894 C893 1.376 . S
C894 C895 1.388 . S
C895 H882 0.930 . S
C895 C894 1.388 . S
C895 C896 1.390 . S
C896 C895 1.390 . S
C896 C897 1.394 . S
C896 C902 1.465 . S
C897 C892 1.399 . S
C897 C896 1.394 . S
C897 C898 1.516 . S
C898 C897 1.516 . S
C898 C899 1.502 . S
C898 C900 1.561 . S
C898 C901 1.526 . S
C899 H883 0.959 . S
C899 H884 0.959 . S
C899 H885 0.961 . S
C899 C898 1.502 . S
C900 H886 0.960 . S
C900 H887 0.961 . S
C900 H888 0.959 . S
C900 C898 1.561 . S
C901 C898 1.526 . S
C901 C902 1.396 . S
C901 C906 1.390 . S
C902 C896 1.465 . S
C902 C901 1.396 . S
C902 C903 1.399 . S
C903 H889 0.929 . S
C903 C902 1.399 . S
C903 C904 1.385 . S
C904 H890 0.931 . S
C904 C903 1.385 . S
C904 C905 1.389 . S
C905 C904 1.389 . S
C905 C906 1.387 . S
C906 H891 0.930 . S
C906 C901 1.390 . S
C906 C905 1.387 . S
H907 C919 0.930 . S
H908 C921 0.930 . S
H909 C922 0.930 . S
H910 C926 0.959 . S
H911 C926 0.959 . S
H912 C926 0.961 . S
H913 C927 0.960 . S
H914 C927 0.961 . S
H915 C927 0.959 1_655 S
H916 C930 0.929 . S
H917 C931 0.931 . S
H918 C933 0.930 1_455 S
C919 H907 0.930 . S
C919 C920 1.399 . S
C919 C924 1.399 . S
C920 C919 1.399 . S
C920 C921 1.376 . S
C921 H908 0.930 . S
C921 C920 1.376 . S
C921 C922 1.388 . S
C922 H909 0.930 . S
C922 C921 1.388 . S
C922 C923 1.390 . S
C923 C922 1.390 . S
C923 C924 1.394 . S
C923 C929 1.465 . S
C924 C919 1.399 . S
C924 C923 1.394 . S
C924 C925 1.516 . S
C925 C924 1.516 . S
C925 C926 1.502 1_655 S
C925 C927 1.561 1_655 S
C925 C928 1.526 . S
C926 H910 0.959 . S
C926 H911 0.959 . S
C926 H912 0.961 . S
C926 C925 1.502 1_455 S
C927 H913 0.960 . S
C927 H914 0.961 . S
C927 H915 0.959 1_455 S
C927 C925 1.561 1_455 S
C928 C925 1.526 . S
C928 C929 1.396 . S
C928 C933 1.390 . S
C929 C923 1.465 . S
C929 C928 1.396 . S
C929 C930 1.399 . S
C930 H916 0.929 . S
C930 C929 1.399 . S
C930 C931 1.385 . S
C931 H917 0.931 . S
C931 C930 1.385 . S
C931 C932 1.389 . S
C932 C931 1.389 . S
C932 C933 1.387 . S
C933 H918 0.930 1_655 S
C933 C928 1.390 . S
C933 C932 1.387 . S
H934 C946 0.930 . S
H935 C948 0.930 . S
H936 C949 0.930 . S
H937 C953 0.959 . S
H938 C953 0.959 . S
H939 C953 0.961 . S
H940 C954 0.960 . S
H941 C954 0.961 . S
H942 C954 0.959 . S
H943 C957 0.929 . S
H944 C958 0.931 . S
H945 C960 0.930 . S
C946 H934 0.930 . S
C946 C947 1.399 . S
C946 C951 1.399 . S
C947 C946 1.399 . S
C947 C948 1.376 . S
C948 H935 0.930 . S
C948 C947 1.376 . S
C948 C949 1.388 . S
C949 H936 0.930 . S
C949 C948 1.388 . S
C949 C950 1.390 . S
C950 C949 1.390 . S
C950 C951 1.394 . S
C950 C956 1.465 . S
C951 C946 1.399 . S
C951 C950 1.394 . S
C951 C952 1.516 . S
C952 C951 1.516 . S
C952 C953 1.502 . S
C952 C954 1.561 . S
C952 C955 1.526 . S
C953 H937 0.959 . S
C953 H938 0.959 . S
C953 H939 0.961 . S
C953 C952 1.502 . S
C954 H940 0.960 . S
C954 H941 0.961 . S
C954 H942 0.959 . S
C954 C952 1.561 . S
C955 C952 1.526 . S
C955 C956 1.396 . S
C955 C960 1.390 . S
C956 C950 1.465 . S
C956 C955 1.396 . S
C956 C957 1.399 . S
C957 H943 0.929 . S
C957 C956 1.399 . S
C957 C958 1.385 . S
C958 H944 0.931 . S
C958 C957 1.385 . S
C958 C959 1.389 . S
C959 C958 1.389 . S
C959 C960 1.387 . S
C960 H945 0.930 . S
C960 C955 1.390 . S
C960 C959 1.387 . S
H961 C973 0.930 . S
H962 C975 0.930 . S
H963 C976 0.930 . S
H964 C980 0.959 . S
H965 C980 0.959 . S
H966 C980 0.961 . S
H967 C981 0.960 . S
H968 C981 0.961 . S
H969 C981 0.959 . S
H970 C984 0.929 . S
H971 C985 0.931 . S
H972 C987 0.930 . S
C973 H961 0.930 . S
C973 C974 1.399 . S
C973 C978 1.399 . S
C974 C973 1.399 . S
C974 C975 1.376 . S
C975 H962 0.930 . S
C975 C974 1.376 . S
C975 C976 1.388 . S
C976 H963 0.930 . S
C976 C975 1.388 . S
C976 C977 1.390 . S
C977 C976 1.390 . S
C977 C978 1.394 . S
C977 C983 1.465 . S
C978 C973 1.399 . S
C978 C977 1.394 . S
C978 C979 1.516 . S
C979 C978 1.516 . S
C979 C980 1.502 . S
C979 C981 1.561 . S
C979 C982 1.526 . S
C980 H964 0.959 . S
C980 H965 0.959 . S
C980 H966 0.961 . S
C980 C979 1.502 . S
C981 H967 0.960 . S
C981 H968 0.961 . S
C981 H969 0.959 . S
C981 C979 1.561 . S
C982 C979 1.526 . S
C982 C983 1.396 . S
C982 C987 1.390 . S
C983 C977 1.465 . S
C983 C982 1.396 . S
C983 C984 1.399 . S
C984 H970 0.929 . S
C984 C983 1.399 . S
C984 C985 1.385 . S
C985 H971 0.931 . S
C985 C984 1.385 . S
C985 C986 1.389 . S
C986 C985 1.389 . S
C986 C987 1.387 . S
C987 H972 0.930 . S
C987 C982 1.390 . S
C987 C986 1.387 . S
H988 C1000 0.930 . S
H989 C1002 0.930 . S
H990 C1003 0.930 . S
H991 C1007 0.959 . S
H992 C1007 0.959 . S
H993 C1007 0.961 . S
H994 C1008 0.960 . S
H995 C1008 0.961 . S
H996 C1008 0.959 . S
H997 C1011 0.929 . S
H998 C1012 0.931 . S
H999 C1014 0.930 . S
C1000 H988 0.930 . S
C1000 C1001 1.399 . S
C1000 C1005 1.399 . S
C1001 C1000 1.399 . S
C1001 C1002 1.376 . S
C1002 H989 0.930 . S
C1002 C1001 1.376 . S
C1002 C1003 1.388 . S
C1003 H990 0.930 . S
C1003 C1002 1.388 . S
C1003 C1004 1.390 . S
C1004 C1003 1.390 . S
C1004 C1005 1.394 . S
C1004 C1010 1.465 . S
C1005 C1000 1.399 . S
C1005 C1004 1.394 . S
C1005 C1006 1.516 . S
C1006 C1005 1.516 . S
C1006 C1007 1.502 . S
C1006 C1008 1.561 . S
C1006 C1009 1.526 . S
C1007 H991 0.959 . S
C1007 H992 0.959 . S
C1007 H993 0.961 . S
C1007 C1006 1.502 . S
C1008 H994 0.960 . S
C1008 H995 0.961 . S
C1008 H996 0.959 . S
C1008 C1006 1.561 . S
C1009 C1006 1.526 . S
C1009 C1010 1.396 . S
C1009 C1014 1.390 . S
C1010 C1004 1.465 . S
C1010 C1009 1.396 . S
C1010 C1011 1.399 . S
C1011 H997 0.929 . S
C1011 C1010 1.399 . S
C1011 C1012 1.385 . S
C1012 H998 0.931 . S
C1012 C1011 1.385 . S
C1012 C1013 1.389 . S
C1013 C1012 1.389 . S
C1013 C1014 1.387 . S
C1014 H999 0.930 . S
C1014 C1009 1.390 . S
C1014 C1013 1.387 . S
H1015 C1027 0.930 . S
H1016 C1029 0.930 . S
H1017 C1030 0.930 . S
H1018 C1034 0.959 . S
H1019 C1034 0.959 . S
H1020 C1034 0.961 . S
H1021 C1035 0.960 . S
H1022 C1035 0.961 . S
H1023 C1035 0.959 . S
H1024 C1038 0.929 . S
H1025 C1039 0.931 . S
H1026 C1041 0.930 . S
C1027 H1015 0.930 . S
C1027 C1028 1.399 . S
C1027 C1032 1.399 . S
C1028 C1027 1.399 . S
C1028 C1029 1.376 . S
C1029 H1016 0.930 . S
C1029 C1028 1.376 . S
C1029 C1030 1.388 . S
C1030 H1017 0.930 . S
C1030 C1029 1.388 . S
C1030 C1031 1.390 . S
C1031 C1030 1.390 . S
C1031 C1032 1.394 . S
C1031 C1037 1.465 . S
C1032 C1027 1.399 . S
C1032 C1031 1.394 . S
C1032 C1033 1.516 . S
C1033 C1032 1.516 . S
C1033 C1034 1.502 . S
C1033 C1035 1.561 . S
C1033 C1036 1.526 . S
C1034 H1018 0.959 . S
C1034 H1019 0.959 . S
C1034 H1020 0.961 . S
C1034 C1033 1.502 . S
C1035 H1021 0.960 . S
C1035 H1022 0.961 . S
C1035 H1023 0.959 . S
C1035 C1033 1.561 . S
C1036 C1033 1.526 . S
C1036 C1037 1.396 . S
C1036 C1041 1.390 . S
C1037 C1031 1.465 . S
C1037 C1036 1.396 . S
C1037 C1038 1.399 . S
C1038 H1024 0.929 . S
C1038 C1037 1.399 . S
C1038 C1039 1.385 . S
C1039 H1025 0.931 . S
C1039 C1038 1.385 . S
C1039 C1040 1.389 . S
C1040 C1039 1.389 . S
C1040 C1041 1.387 . S
C1041 H1026 0.930 . S
C1041 C1036 1.390 . S
C1041 C1040 1.387 . S
H1042 C1054 0.930 . S
H1043 C1056 0.930 . S
H1044 C1057 0.930 . S
H1045 C1061 0.959 . S
H1046 C1061 0.985 . S
H1047 C1061 0.961 . S
H1048 C1062 0.960 . S
H1049 C1062 0.961 . S
H1050 C1062 0.959 . S
H1051 C1065 0.929 . S
H1052 C1066 0.931 . S
H1053 C1068 0.930 . S
C1054 H1042 0.930 . S
C1054 C1055 1.399 . S
C1054 C1059 1.399 . S
C1055 C1054 1.399 . S
C1055 C1056 1.376 . S
C1056 H1043 0.930 . S
C1056 C1055 1.376 . S
C1056 C1057 1.388 . S
C1057 H1044 0.930 . S
C1057 C1056 1.388 . S
C1057 C1058 1.390 . S
C1058 C1057 1.390 . S
C1058 C1059 1.394 . S
C1058 C1064 1.465 . S
C1059 C1054 1.399 . S
C1059 C1058 1.394 . S
C1059 C1060 1.516 . S
C1060 C1059 1.516 . S
C1060 C1061 1.502 . S
C1060 C1062 1.561 . S
C1060 C1063 1.526 . S
C1061 H1045 0.959 . S
C1061 H1046 0.985 . S
C1061 H1047 0.961 . S
C1061 C1060 1.502 . S
C1062 H1048 0.960 . S
C1062 H1049 0.961 . S
C1062 H1050 0.959 . S
C1062 C1060 1.561 . S
C1063 C1060 1.526 . S
C1063 C1064 1.396 . S
C1063 C1068 1.390 . S
C1064 C1058 1.465 . S
C1064 C1063 1.396 . S
C1064 C1065 1.399 . S
C1065 H1051 0.929 . S
C1065 C1064 1.399 . S
C1065 C1066 1.385 . S
C1066 H1052 0.931 . S
C1066 C1065 1.385 . S
C1066 C1067 1.389 . S
C1067 C1066 1.389 . S
C1067 C1068 1.387 . S
C1068 H1053 0.930 . S
C1068 C1063 1.390 . S
C1068 C1067 1.387 . S
H1069 C1081 0.930 . S
H1070 C1083 0.930 . S
H1071 C1084 0.930 . S
H1072 C1088 0.959 . S
H1073 C1088 0.959 . S
H1074 C1088 0.961 . S
H1075 C1089 0.960 . S
H1076 C1089 0.961 . S
H1077 C1089 0.959 . S
H1078 C1092 0.929 . S
H1079 C1093 0.931 . S
H1080 C1095 0.930 . S
C1081 H1069 0.930 . S
C1081 C1082 1.399 . S
C1081 C1086 1.399 . S
C1082 C1081 1.399 . S
C1082 C1083 1.376 . S
C1083 H1070 0.930 . S
C1083 C1082 1.376 . S
C1083 C1084 1.388 . S
C1084 H1071 0.930 . S
C1084 C1083 1.388 . S
C1084 C1085 1.390 . S
C1085 C1084 1.390 . S
C1085 C1086 1.394 . S
C1085 C1091 1.465 . S
C1086 C1081 1.399 . S
C1086 C1085 1.394 . S
C1086 C1087 1.516 . S
C1087 C1086 1.516 . S
C1087 C1088 1.502 . S
C1087 C1089 1.561 . S
C1087 C1090 1.526 . S
C1088 H1072 0.959 . S
C1088 H1073 0.959 . S
C1088 H1074 0.961 . S
C1088 C1087 1.502 . S
C1089 H1075 0.960 . S
C1089 H1076 0.961 . S
C1089 H1077 0.959 . S
C1089 C1087 1.561 . S
C1090 C1087 1.526 . S
C1090 C1091 1.396 . S
C1090 C1095 1.390 . S
C1091 C1085 1.465 . S
C1091 C1090 1.396 . S
C1091 C1092 1.399 . S
C1092 H1078 0.929 . S
C1092 C1091 1.399 . S
C1092 C1093 1.385 . S
C1093 H1079 0.931 . S
C1093 C1092 1.385 . S
C1093 C1094 1.389 . S
C1094 C1093 1.389 . S
C1094 C1095 1.387 . S
C1095 H1080 0.930 . S
C1095 C1090 1.390 . S
C1095 C1094 1.387 . S
C461 C1 1.348 . S
C473 C303 1.333 . S
C488 C67 1.296 . S
C500 C343 1.332 . S
C527 C377 2.252 . S
C515 C97 2.246 . S
C542 C133 2.630 . S
C554 C418 2.593 . S
C581 C338 1.454 . S
C569 C25 1.451 . S
C608 C298 2.181 . S
C596 C37 2.081 . S
C635 C426 1.561 . S
C623 C103 1.563 . S
C662 C387 1.803 . S
C650 C109 1.879 . S
C677 C31 1.387 . S
C689 C423 1.432 . S
C716 C346 1.942 . S
C704 C73 2.034 . S
C731 C139 2.435 . S
C743 C306 2.393 . S
C758 C61 1.597 . S
C770 C374 1.613 . S
C797 C294 1.337 . S
C785 C175 1.301 . S
C812 C181 1.326 . S
C824 C334 1.284 . S
C839 C247 2.269 . S
C851 C386 2.268 . S
C866 C277 2.627 . S
C878 C427 2.609 . S
C893 C145 1.344 . S
C905 C347 1.435 . S
C932 C307 2.190 . S
C920 C211 2.077 . S
C959 C417 1.542 . S
C947 C217 1.564 . S
C986 C378 1.833 . S
C974 C283 1.869 . S
C1001 C169 1.382 . S
C1013 C414 1.350 . S
C1040 C337 1.963 . S
C1028 C241 2.021 . S
C1067 C297 2.405 . S
C1055 C253 2.454 . S
C1082 C205 1.627 . S
C1094 C383 1.630 . S
