# Generated by pormake.
# Topology rtl, (3,6)-cn, num edge types: 1
# Building blocks:
#     Node 0, Type 0, BuildingBlock: BETDAH_clean_linker_0, # of connection points: 3
#     Node 1, Type 0, BuildingBlock: BETDAH_clean_linker_0, # of connection points: 3
#     Node 2, Type 0, BuildingBlock: BETDAH_clean_linker_0, # of connection points: 3
#     Node 3, Type 0, BuildingBlock: BETDAH_clean_linker_0, # of connection points: 3
#     Node 4, Type 1, BuildingBlock: LEVNOQ01_clean_sbu_1, # of connection points: 6
#     Node 5, Type 1, BuildingBlock: LEVNOQ01_clean_sbu_1, # of connection points: 6
#     Edge 6, Type (0, 1), BuildingBlock: FUNLAD_clean_linker_0, # of connection points: 2
#     Edge 7, Type (0, 1), BuildingBlock: FUNLAD_clean_linker_0, # of connection points: 2
#     Edge 8, Type (0, 1), BuildingBlock: FUNLAD_clean_linker_0, # of connection points: 2
#     Edge 9, Type (0, 1), BuildingBlock: FUNLAD_clean_linker_0, # of connection points: 2
#     Edge 10, Type (0, 1), BuildingBlock: FUNLAD_clean_linker_0, # of connection points: 2
#     Edge 11, Type (0, 1), BuildingBlock: FUNLAD_clean_linker_0, # of connection points: 2
#     Edge 12, Type (0, 1), BuildingBlock: FUNLAD_clean_linker_0, # of connection points: 2
#     Edge 13, Type (0, 1), BuildingBlock: FUNLAD_clean_linker_0, # of connection points: 2
#     Edge 14, Type (0, 1), BuildingBlock: FUNLAD_clean_linker_0, # of connection points: 2
#     Edge 15, Type (0, 1), BuildingBlock: FUNLAD_clean_linker_0, # of connection points: 2
#     Edge 16, Type (0, 1), BuildingBlock: FUNLAD_clean_linker_0, # of connection points: 2
#     Edge 17, Type (0, 1), BuildingBlock: FUNLAD_clean_linker_0, # of connection points: 2
# Relax obj value: 0.016
# Max RMSD: 0.117
# Mean RMSD: 0.087
data_MOF--net-rtl--node1-LEVNOQ01_clean_sbu_1--node2-BETDAH_clean_linker_0--edge1-FUNLAD_clean_linker_0
_symmetry_space_group_name_H-M    P1
_symmetry_Int_Tables_number       1
_symmetry_cell_setting            triclinic
loop_
_symmetry_equiv_pos_as_xyz
'x, y, z'
_cell_length_a     41.358587
_cell_length_b     41.38427
_cell_length_c     26.152907
_cell_angle_alpha  91.404573
_cell_angle_beta   98.84539
_cell_angle_gamma 90.242253
loop_
_atom_site_label
_atom_site_type_symbol
_atom_site_fract_x
_atom_site_fract_y
_atom_site_fract_z
_atom_type_partial_charge
H0 H 0.15456 0.88569 0.04675 0.0
H1 H 0.21765 0.81065 0.11534 0.0
H2 H 0.20127 0.82105 0.95033 0.0
C3 C 0.17105 0.86582 0.04278 0.0
C4 C 0.17624 0.85565 0.99306 0.0
C5 C 0.18593 0.84997 0.08728 0.0
C6 C 0.20601 0.82306 0.08149 0.0
C7 C 0.21135 0.8126 0.03182 0.0
C8 C 0.19652 0.82901 0.98824 0.0
N9 N 0.23157 0.78594 0.02337 0.0
C10 C 0.24748 0.76572 0.06076 0.0
H11 H 0.66655 0.64472 0.63382 0.0
H12 H 0.68717 0.73295 0.56065 0.0
H13 H 0.70205 0.7287 0.72611 0.0
C14 C 0.67484 0.66965 0.63684 0.0
C15 C 0.68445 0.68416 0.68601 0.0
C16 C 0.67461 0.68717 0.59129 0.0
C17 C 0.68744 0.71888 0.59509 0.0
C18 C 0.69807 0.73341 0.64403 0.0
C19 C 0.69576 0.71633 0.68891 0.0
N20 N 0.70701 0.76653 0.64933 0.0
C21 C 0.73327 0.77952 0.62923 0.0
H22 H 0.8642 0.14653 0.98082 0.0
H23 H 0.81056 0.22917 0.02421 0.0
H24 H 0.80748 0.20275 0.86364 0.0
C25 C 0.84839 0.16682 0.96979 0.0
C26 C 0.83673 0.17164 0.91724 0.0
C27 C 0.83945 0.18758 0.00864 0.0
C28 C 0.81756 0.21305 0.9946 0.0
C29 C 0.80601 0.2183 0.9419 0.0
C30 C 0.81594 0.19782 0.90398 0.0
N31 N 0.78541 0.24444 0.92446 0.0
C32 C 0.76795 0.26399 0.95428 0.0
H33 H 0.34935 0.38983 0.50733 0.0
H34 H 0.31185 0.31872 0.60046 0.0
H35 H 0.29071 0.31006 0.43473 0.0
C36 C 0.33473 0.36835 0.51025 0.0
C37 C 0.32014 0.35168 0.46482 0.0
C38 C 0.33197 0.35676 0.55951 0.0
C39 C 0.31443 0.32799 0.56289 0.0
C40 C 0.29937 0.3112 0.51836 0.0
C41 C 0.30215 0.3231 0.46925 0.0
N42 N 0.28238 0.28207 0.52511 0.0
C43 C 0.26105 0.26525 0.48723 0.0
O44 O 0.98157 0.08233 0.57431 0.0
Mg45 Mg 0.02551 0.06214 0.56061 0.0
O46 O 0.96115 0.03596 0.54138 0.0
Mg47 Mg -0.00221 0.01291 0.48909 0.0
O48 O 0.03407 0.05777 0.48555 0.0
O49 O 0.05554 0.09666 0.54287 0.0
O50 O 0.03373 0.98781 0.43723 0.0
O51 O 0.96582 0.03987 0.41955 0.0
Mg52 Mg 0.96255 0.9693 0.41332 0.0
O53 O 0.96221 0.96758 0.49188 0.0
O54 O 0.004 0.95266 0.38535 0.0
O55 O 0.93372 0.00433 0.37253 0.0
O56 O 0.9361 0.93219 0.43255 0.0
C57 C 0.04659 -0.00145 0.60247 0.0
C58 C 0.95812 0.06245 0.56615 0.0
C59 C 0.05245 0.08352 0.49715 0.0
C60 C 0.03143 0.96549 0.40211 0.0
C61 C 0.94264 0.03331 0.38242 0.0
C62 C 0.9432 0.94231 0.48 0.0
O63 O 0.04912 0.0286 0.6126 0.0
O64 O 0.0295 0.98819 0.56029 0.0
O65 O 0.55969 0.50218 0.20648 0.0
Mg66 Mg 0.53894 0.46698 0.15191 0.0
O67 O 0.53878 0.54044 0.15468 0.0
Mg68 Mg 0.50995 0.51466 0.07947 0.0
O69 O 0.54788 0.47181 0.07731 0.0
O70 O 0.57163 0.43494 0.13285 0.0
O71 O 0.48145 0.4902 0.00282 0.0
O72 O 0.54868 0.5396 0.03405 0.0
Mg73 Mg 0.48567 0.56509 0.01202 0.0
O74 O 0.47229 0.55779 0.08309 0.0
O75 O 0.46778 0.53148 0.95244 0.0
O76 O 0.53067 0.58754 0.01035 0.0
O77 O 0.45192 0.59673 0.02872 0.0
C78 C 0.46966 0.46242 0.14942 0.0
C79 C 0.55566 0.53185 0.1972 0.0
C80 C 0.56774 0.44756 0.08775 0.0
C81 C 0.46842 0.50129 0.95928 0.0
C82 C 0.55344 0.56721 0.01562 0.0
C83 C 0.45331 0.58265 0.07242 0.0
O84 O 0.49483 0.44548 0.16138 0.0
O85 O 0.47143 0.48844 0.1245 0.0
C86 C 0.24012 0.21089 0.45982 0.0
C87 C 0.23661 0.24449 0.45737 0.0
C88 C 0.21383 0.19031 0.44076 0.0
C89 C 0.18337 0.20309 0.4189 0.0
C90 C 0.18086 0.23684 0.41367 0.0
C91 C 0.20717 0.25736 0.43295 0.0
C92 C 0.15267 0.18316 0.408 0.0
C93 C 0.15107 0.15082 0.41381 0.0
C94 C 0.12049 0.13312 0.42082 0.0
C95 C 0.12064 0.09906 0.42133 0.0
C96 C 0.09592 0.08189 0.44057 0.0
C97 C 0.07081 0.09862 0.45992 0.0
H98 H 0.09206 0.17542 0.437 0.0
C99 C 0.069 0.13226 0.45514 0.0
C100 C 0.0934 0.14936 0.43573 0.0
H101 H 0.05001 0.14569 0.47045 0.0
H102 H 0.26265 0.20056 0.4791 0.0
H103 H 0.21729 0.1647 0.44611 0.0
H104 H 0.15785 0.24755 0.39721 0.0
H105 H 0.2039 0.2833 0.4312 0.0
H106 H 0.13007 0.19649 0.39909 0.0
H107 H 0.17334 0.13678 0.41847 0.0
H108 H 0.14114 0.0858 0.4103 0.0
H109 H 0.09815 0.05598 0.44476 0.0
C110 C 0.29925 0.74662 0.10983 0.0
C111 C 0.26639 0.74085 0.08911 0.0
C112 C 0.31984 0.72085 0.12624 0.0
C113 C 0.3078 0.68877 0.12192 0.0
C114 C 0.27433 0.68352 0.10379 0.0
C115 C 0.25381 0.70932 0.08755 0.0
C116 C 0.32991 0.66022 0.12775 0.0
C117 C 0.36091 0.66103 0.15323 0.0
C118 C 0.38577 0.63607 0.14526 0.0
C119 C 0.41884 0.6456 0.15205 0.0
C120 C 0.44218 0.62597 0.13362 0.0
C121 C 0.43303 0.59612 0.10906 0.0
H122 H 0.35245 0.5957 0.12138 0.0
C123 C 0.40082 0.58491 0.10717 0.0
C124 C 0.37735 0.60461 0.12546 0.0
H125 H 0.39318 0.5621 0.08772 0.0
H126 H 0.30952 0.77079 0.11038 0.0
H127 H 0.3455 0.72612 0.13867 0.0
H128 H 0.26436 0.65918 0.09958 0.0
H129 H 0.22859 0.70434 0.0709 0.0
H130 H 0.32088 0.6386 0.10578 0.0
H131 H 0.36969 0.68262 0.17555 0.0
H132 H 0.42622 0.66947 0.16765 0.0
H133 H 0.46679 0.63533 0.13462 0.0
C134 C 0.78076 0.81604 0.65059 0.0
C135 C 0.76112 0.79595 0.61442 0.0
C136 C 0.80739 0.83283 0.63656 0.0
C137 C 0.81468 0.82987 0.5858 0.0
C138 C 0.79502 0.80927 0.54999 0.0
C139 C 0.7684 0.79254 0.56411 0.0
C140 C 0.84275 0.84701 0.56854 0.0
C141 C 0.85896 0.87274 0.59341 0.0
C142 C 0.88543 0.88992 0.57183 0.0
C143 C 0.89014 0.92344 0.58078 0.0
C144 C 0.91154 0.94073 0.55447 0.0
C145 C 0.92846 0.92459 0.519 0.0
H146 H 0.90341 0.84762 0.53444 0.0
C147 C 0.92598 0.8908 0.51379 0.0
C148 C 0.90502 0.8736 0.54029 0.0
H149 H 0.93912 0.87777 0.48709 0.0
H150 H 0.77548 0.8188 0.68979 0.0
H151 H 0.82224 0.84768 0.66579 0.0
H152 H 0.80011 0.80628 0.51074 0.0
H153 H 0.75347 0.77708 0.53571 0.0
H154 H 0.84915 0.83888 0.53161 0.0
H155 H 0.85109 0.88318 0.62785 0.0
H156 H 0.87582 0.93654 0.6057 0.0
H157 H 0.91294 0.96682 0.55891 0.0
C158 C 0.7128 0.28573 0.95344 0.0
C159 C 0.74617 0.28668 0.97386 0.0
C160 C 0.69183 0.30988 0.96677 0.0
C161 C 0.70401 0.33562 0.00061 0.0
C162 C 0.73738 0.33582 0.02218 0.0
C163 C 0.75837 0.31167 0.00859 0.0
C164 C 0.68264 0.36196 0.01579 0.0
C165 C 0.65396 0.37052 0.9874 0.0
C166 C 0.6319 0.39518 0.0057 0.0
C167 C 0.59786 0.39209 0.9904 0.0
C168 C 0.57626 0.4118 0.01323 0.0
C169 C 0.58847 0.4352 0.051 0.0
H170 H 0.66994 0.42472 0.05132 0.0
C171 C 0.62238 0.4402 0.06294 0.0
C172 C 0.64393 0.42061 0.04021 0.0
H173 H 0.63227 0.45795 0.09244 0.0
H174 H 0.70303 0.2666 0.92631 0.0
H175 H 0.66617 0.30808 0.95066 0.0
H176 H 0.74738 0.35509 0.04881 0.0
H177 H 0.78417 0.31293 0.02431 0.0
H178 H 0.69107 0.37457 0.05232 0.0
H179 H 0.64522 0.35786 0.95104 0.0
H180 H 0.58793 0.37301 0.96335 0.0
H181 H 0.55018 0.40713 0.00427 0.0
C182 C 0.17727 0.89451 0.15083 0.0
C183 C 0.17917 0.86126 0.13915 0.0
C184 C 0.16628 0.90536 0.1962 0.0
C185 C 0.15711 0.88312 0.23139 0.0
C186 C 0.1609 0.84992 0.22107 0.0
C187 C 0.17181 0.83909 0.17559 0.0
C188 C 0.13995 0.89292 0.27555 0.0
C189 C 0.13512 0.92377 0.2908 0.0
C190 C 0.11078 0.93264 0.32531 0.0
C191 C 0.11316 0.96271 0.35211 0.0
C192 C 0.08823 0.97315 0.37946 0.0
C193 C 0.06019 0.95388 0.37956 0.0
H194 H 0.07959 0.89022 0.30601 0.0
C195 C 0.05838 0.92348 0.35404 0.0
C196 C 0.08317 0.91303 0.32725 0.0
H197 H 0.03717 0.90792 0.35342 0.0
H198 H 0.18334 0.91227 0.12399 0.0
H199 H 0.16377 0.9311 0.20192 0.0
H200 H 0.15401 0.83213 0.24724 0.0
H201 H 0.17283 0.81333 0.16778 0.0
H202 H 0.12906 0.87349 0.29444 0.0
H203 H 0.14797 0.9435 0.27599 0.0
H204 H 0.13396 0.97851 0.35082 0.0
H205 H 0.09026 0.99676 0.39856 0.0
C206 C 0.65325 0.64553 0.7337 0.0
C207 C 0.68003 0.66671 0.7339 0.0
C208 C 0.64759 0.63082 0.77903 0.0
C209 C 0.66831 0.63719 0.82607 0.0
C210 C 0.69523 0.658 0.82647 0.0
C211 C 0.7013 0.67227 0.78083 0.0
C212 C 0.65983 0.62557 0.8757 0.0
C213 C 0.64383 0.59746 0.87915 0.0
C214 C 0.62713 0.5895 0.92379 0.0
C215 C 0.61932 0.5571 0.93178 0.0
C216 C 0.59763 0.54938 0.96597 0.0
C217 C 0.58282 0.57406 0.99177 0.0
H218 H 0.61922 0.63921 0.94745 0.0
C219 C 0.59236 0.60627 0.9865 0.0
C220 C 0.61438 0.61394 0.9531 0.0
H221 H 0.58125 0.62578 0.00588 0.0
H222 H 0.63568 0.64124 0.69899 0.0
H223 H 0.62595 0.61581 0.77755 0.0
H224 H 0.71138 0.66355 0.86233 0.0
H225 H 0.72242 0.68802 0.78257 0.0
H226 H 0.66564 0.64141 0.90964 0.0
H227 H 0.64091 0.58039 0.84648 0.0
H228 H 0.62864 0.53782 0.90949 0.0
H229 H 0.59051 0.52435 0.96895 0.0
C230 C 0.83388 0.17857 0.10183 0.0
C231 C 0.85381 0.18215 0.0634 0.0
C232 C 0.84736 0.16836 0.15131 0.0
C233 C 0.88108 0.16171 0.16318 0.0
C234 C 0.90117 0.16767 0.12576 0.0
C235 C 0.8877 0.17751 0.07638 0.0
C236 C 0.89604 0.14668 0.21243 0.0
C237 C 0.8794 0.12639 0.23865 0.0
C238 C 0.89542 0.10475 0.27964 0.0
C239 C 0.87995 0.07527 0.28629 0.0
C240 C 0.8951 0.05261 0.32049 0.0
C241 C 0.92599 0.05901 0.34982 0.0
H242 H 0.93813 0.13471 0.30745 0.0
C243 C 0.94088 0.08923 0.34546 0.0
C244 C 0.92582 0.11187 0.31046 0.0
H245 H 0.96457 0.09496 0.36784 0.0
H246 H 0.80771 0.18218 0.09292 0.0
H247 H 0.83122 0.16507 0.17967 0.0
H248 H 0.92723 0.16318 0.13387 0.0
H249 H 0.90371 0.18055 0.04769 0.0
H250 H 0.92241 0.14883 0.22304 0.0
H251 H 0.85353 0.12215 0.22511 0.0
H252 H 0.85645 0.06918 0.26355 0.0
H253 H 0.88269 0.02977 0.32337 0.0
C254 C 0.36341 0.35825 0.65033 0.0
C255 C 0.34732 0.37472 0.60734 0.0
C256 C 0.37746 0.37524 0.6954 0.0
C257 C 0.37573 0.40922 0.69852 0.0
C258 C 0.3595 0.42552 0.65554 0.0
C259 C 0.34558 0.40858 0.61058 0.0
C260 C 0.38996 0.42895 0.74528 0.0
C261 C 0.41057 0.418 0.78636 0.0
C262 C 0.42539 0.43952 0.83063 0.0
C263 C 0.43642 0.42626 0.87923 0.0
C264 C 0.45053 0.44602 0.92133 0.0
C265 C 0.45404 0.47948 0.91552 0.0
H266 H 0.4231 0.48406 0.78773 0.0
C267 C 0.44361 0.49251 0.86659 0.0
C268 C 0.42975 0.47288 0.82476 0.0
H269 H 0.44639 0.51808 0.8602 0.0
H270 H 0.3654 0.33217 0.64902 0.0
H271 H 0.38928 0.36147 0.72747 0.0
H272 H 0.35756 0.45162 0.65663 0.0
H273 H 0.33299 0.42204 0.57857 0.0
H274 H 0.38305 0.45421 0.74521 0.0
H275 H 0.41691 0.39264 0.78833 0.0
H276 H 0.43385 0.40057 0.8848 0.0
H277 H 0.45849 0.43514 0.95832 0.0
C278 C 0.67101 0.67535 0.49482 0.0
C279 C 0.65789 0.67287 0.54117 0.0
C280 C 0.65577 0.65943 0.44922 0.0
C281 C 0.62711 0.6409 0.44939 0.0
C282 C 0.6135 0.63963 0.49518 0.0
C283 C 0.62845 0.65557 0.5402 0.0
C284 C 0.61222 0.61993 0.40493 0.0
C285 C 0.61456 0.6247 0.35483 0.0
C286 C 0.6 0.6011 0.31364 0.0
C287 C 0.58541 0.61169 0.26486 0.0
C288 C 0.57069 0.58943 0.22676 0.0
C289 C 0.57087 0.55613 0.23656 0.0
H290 H 0.61264 0.55863 0.35937 0.0
C291 C 0.58634 0.54567 0.28498 0.0
C292 C 0.60071 0.56779 0.32286 0.0
H293 H 0.58733 0.52027 0.29391 0.0
H294 H 0.69363 0.68853 0.49429 0.0
H295 H 0.6672 0.66054 0.41475 0.0
H296 H 0.5914 0.6257 0.49645 0.0
H297 H 0.61706 0.6539 0.57469 0.0
H298 H 0.59771 0.59953 0.41425 0.0
H299 H 0.62609 0.64651 0.34367 0.0
H300 H 0.58484 0.63721 0.2566 0.0
H301 H 0.55925 0.59828 0.1897 0.0
C302 C 0.82464 0.14205 0.83088 0.0
C303 C 0.84674 0.14995 0.87607 0.0
C304 C 0.83456 0.1233 0.79092 0.0
C305 C 0.86677 0.11177 0.79541 0.0
C306 C 0.88842 0.11846 0.84128 0.0
C307 C 0.87867 0.13756 0.88095 0.0
C308 C 0.87891 0.09362 0.75256 0.0
C309 C 0.8689 0.09994 0.70234 0.0
C310 C 0.8868 0.08754 0.66109 0.0
C311 C 0.89442 0.10904 0.624 0.0
C312 C 0.91603 0.09998 0.59023 0.0
C313 C 0.92943 0.06886 0.5917 0.0
H314 H 0.89262 0.0385 0.68824 0.0
C315 C 0.91953 0.04632 0.62556 0.0
C316 C 0.8986 0.0557 0.66051 0.0
H317 H 0.92986 0.02228 0.62769 0.0
H318 H 0.7996 0.15035 0.82626 0.0
H319 H 0.81697 0.11782 0.75665 0.0
H320 H 0.91337 0.1098 0.84576 0.0
H321 H 0.89653 0.14334 0.91477 0.0
H322 H 0.89961 0.07767 0.76273 0.0
H323 H 0.85073 0.11853 0.69212 0.0
H324 H 0.88546 0.13362 0.62353 0.0
H325 H 0.92353 0.11779 0.56461 0.0
C326 C 0.32564 0.39663 0.40327 0.0
C327 C 0.32559 0.36337 0.41327 0.0
C328 C 0.33477 0.40786 0.35741 0.0
C329 C 0.34421 0.38601 0.32035 0.0
C330 C 0.34231 0.3527 0.3292 0.0
C331 C 0.33321 0.34151 0.37502 0.0
C332 C 0.35839 0.39636 0.27403 0.0
C333 C 0.36869 0.4267 0.26655 0.0
C334 C 0.39029 0.43456 0.22764 0.0
C335 C 0.39331 0.46682 0.21294 0.0
C336 C 0.41751 0.47584 0.18368 0.0
C337 C 0.4395 0.45277 0.16941 0.0
H338 H 0.41043 0.38632 0.22146 0.0
C339 C 0.43527 0.42029 0.18155 0.0
C340 C 0.41108 0.41126 0.21026 0.0
H341 H 0.45183 0.40192 0.17106 0.0
H342 H 0.31916 0.41411 0.43142 0.0
H343 H 0.33486 0.43365 0.35204 0.0
H344 H 0.34923 0.33518 0.30146 0.0
H345 H 0.33365 0.31575 0.38143 0.0
H346 H 0.36281 0.37727 0.2468 0.0
H347 H 0.36337 0.44644 0.29184 0.0
H348 H 0.37781 0.48535 0.226 0.0
H349 H 0.42032 0.5011 0.17522 0.0
C350 C 0.14786 0.85613 0.90035 0.0
C351 C 0.16073 0.87306 0.94639 0.0
C352 C 0.13342 0.87267 0.8566 0.0
C353 C 0.13152 0.90668 0.85791 0.0
C354 C 0.14435 0.92344 0.90404 0.0
C355 C 0.15879 0.90695 0.94756 0.0
C356 C 0.1167 0.92607 0.81291 0.0
C357 C 0.10516 0.91425 0.76487 0.0
C358 C 0.09149 0.93555 0.72165 0.0
C359 C 0.0681 0.9232 0.68099 0.0
C360 C 0.05397 0.94323 0.64114 0.0
C361 C 0.0631 0.976 0.64122 0.0
H362 H 0.12077 0.97811 0.74899 0.0
C363 C 0.08752 0.98788 0.68069 0.0
C364 C 0.1017 0.96793 0.72005 0.0
H365 H 0.09566 0.01282 0.68143 0.0
H366 H 0.14856 0.82998 0.89829 0.0
H367 H 0.12377 0.85854 0.82235 0.0
H368 H 0.14344 0.94959 0.90644 0.0
H369 H 0.16886 0.92087 0.98198 0.0
H370 H 0.11514 0.95189 0.82038 0.0
H371 H 0.10472 0.88845 0.75671 0.0
H372 H 0.06015 0.89822 0.6807 0.0
H373 H 0.03533 0.9333 0.61118 0.0
loop_
_geom_bond_atom_site_label_1
_geom_bond_atom_site_label_2
_geom_bond_distance
_geom_bond_site_symmetry_2
_ccdc_geom_bond_type
H0 C3 0.929 . S
H1 C6 0.929 . S
H2 C8 0.930 1_556 S
C3 H0 0.929 . S
C3 C4 1.398 . S
C3 C5 1.396 . S
C4 C3 1.398 . S
C4 C8 1.407 . S
C5 C3 1.396 . S
C5 C6 1.394 . S
C6 H1 0.929 . S
C6 C5 1.394 . S
C6 C7 1.382 . S
C7 C6 1.382 . S
C7 C8 1.392 . S
C7 N9 1.420 . S
C8 H2 0.930 1_554 S
C8 C4 1.407 . S
C8 C7 1.392 . S
N9 C7 1.420 . S
N9 C10 1.244 . S
C10 N9 1.244 . S
H11 C14 0.929 . S
H12 C17 0.929 . S
H13 C19 0.930 . S
C14 H11 0.929 . S
C14 C15 1.398 . S
C14 C16 1.396 . S
C15 C14 1.398 . S
C15 C19 1.407 . S
C16 C14 1.396 . S
C16 C17 1.394 . S
C17 H12 0.929 . S
C17 C16 1.394 . S
C17 C18 1.382 . S
C18 C17 1.382 . S
C18 C19 1.392 . S
C18 N20 1.420 . S
C19 H13 0.930 . S
C19 C15 1.407 . S
C19 C18 1.392 . S
N20 C18 1.420 . S
N20 C21 1.244 . S
C21 N20 1.244 . S
H22 C25 0.929 . S
H23 C28 0.929 . S
H24 C30 0.930 . S
C25 H22 0.929 . S
C25 C26 1.398 1_554 S
C25 C27 1.396 . S
C26 C25 1.398 1_556 S
C26 C30 1.407 . S
C27 C25 1.396 . S
C27 C28 1.394 . S
C28 H23 0.929 . S
C28 C27 1.394 . S
C28 C29 1.382 1_554 S
C29 C28 1.382 1_556 S
C29 C30 1.392 . S
C29 N31 1.420 . S
C30 H24 0.930 . S
C30 C26 1.407 . S
C30 C29 1.392 . S
N31 C29 1.420 . S
N31 C32 1.244 1_556 S
C32 N31 1.244 1_554 S
H33 C36 0.929 . S
H34 C39 0.929 . S
H35 C41 0.930 . S
C36 H33 0.929 . S
C36 C37 1.398 . S
C36 C38 1.396 . S
C37 C36 1.398 . S
C37 C41 1.407 . S
C38 C36 1.396 . S
C38 C39 1.394 . S
C39 H34 0.929 . S
C39 C38 1.394 . S
C39 C40 1.382 . S
C40 C39 1.382 . S
C40 C41 1.392 . S
C40 N42 1.420 . S
C41 H35 0.930 . S
C41 C37 1.407 . S
C41 C40 1.392 . S
N42 C40 1.420 . S
N42 C43 1.244 . S
C43 N42 1.244 . S
O44 Mg45 1.990 . S
O44 C58 1.253 1_455 S
Mg45 O44 1.990 . S
Mg45 O48 2.180 . S
Mg45 O49 2.117 . S
Mg45 O63 2.030 . S
O46 Mg47 2.072 1_655 S
O46 C58 1.260 . S
Mg47 O46 2.072 1_455 S
Mg47 O48 2.099 . S
Mg47 O50 2.079 1_545 S
Mg47 O51 2.072 1_455 S
Mg47 O53 2.099 1_445 S
Mg47 O64 2.079 1_545 S
O48 Mg45 2.180 . S
O48 Mg47 2.099 . S
O48 C59 1.279 . S
O49 Mg45 2.117 . S
O49 C59 1.250 . S
O50 Mg47 2.079 1_565 S
O50 C60 1.264 . S
O51 Mg47 2.072 1_655 S
O51 C61 1.260 . S
Mg52 O53 2.180 . S
Mg52 O54 2.030 1_655 S
Mg52 O55 1.990 1_565 S
Mg52 O56 2.117 . S
O53 Mg47 2.099 1_665 S
O53 Mg52 2.180 . S
O53 C62 1.279 . S
O54 Mg52 2.030 1_455 S
O54 C60 1.248 . S
O55 Mg52 1.990 1_545 S
O55 C61 1.253 . S
O56 Mg52 2.117 . S
O56 C62 1.250 . S
C57 O63 1.248 1_565 S
C57 O64 1.264 . S
C58 O44 1.253 1_655 S
C58 O46 1.260 . S
C59 O48 1.279 . S
C59 O49 1.250 . S
C60 O50 1.264 . S
C60 O54 1.248 . S
C61 O51 1.260 . S
C61 O55 1.253 . S
C62 O53 1.279 . S
C62 O56 1.250 . S
O63 Mg45 2.030 . S
O63 C57 1.248 1_545 S
O64 Mg47 2.079 1_565 S
O64 C57 1.264 . S
O65 Mg66 1.990 . S
O65 C79 1.253 . S
Mg66 O65 1.990 . S
Mg66 O69 2.180 . S
Mg66 O70 2.117 . S
Mg66 O84 2.030 . S
O67 Mg68 2.072 . S
O67 C79 1.260 . S
Mg68 O67 2.072 . S
Mg68 O69 2.099 . S
Mg68 O71 2.079 1_554 S
Mg68 O72 2.072 1_554 S
Mg68 O74 2.099 . S
Mg68 O85 2.079 . S
O69 Mg66 2.180 . S
O69 Mg68 2.099 . S
O69 C80 1.279 . S
O70 Mg66 2.117 . S
O70 C80 1.250 . S
O71 Mg68 2.079 1_556 S
O71 C81 1.264 . S
O72 Mg68 2.072 1_556 S
O72 C82 1.260 . S
Mg73 O74 2.180 1_556 S
Mg73 O75 2.030 . S
Mg73 O76 1.990 . S
Mg73 O77 2.117 . S
O74 Mg68 2.099 . S
O74 Mg73 2.180 1_554 S
O74 C83 1.279 . S
O75 Mg73 2.030 . S
O75 C81 1.248 . S
O76 Mg73 1.990 . S
O76 C82 1.253 . S
O77 Mg73 2.117 . S
O77 C83 1.250 1_556 S
C78 O84 1.248 . S
C78 O85 1.264 . S
C79 O65 1.253 . S
C79 O67 1.260 . S
C80 O69 1.279 . S
C80 O70 1.250 . S
C81 O71 1.264 . S
C81 O75 1.248 . S
C82 O72 1.260 . S
C82 O76 1.253 . S
C83 O74 1.279 . S
C83 O77 1.250 1_554 S
O84 Mg66 2.030 . S
O84 C78 1.248 . S
O85 Mg68 2.079 . S
O85 C78 1.264 . S
C86 C87 1.386 . S
C86 C88 1.383 . S
C86 H102 0.951 . S
C87 C86 1.386 . S
C87 C91 1.383 . S
C88 C86 1.383 . S
C88 C89 1.402 . S
C88 H103 0.951 . S
C89 C88 1.402 . S
C89 C90 1.375 . S
C89 C92 1.481 . S
C90 C89 1.375 . S
C90 C91 1.367 . S
C90 H104 0.951 . S
C91 C87 1.383 . S
C91 C90 1.367 . S
C91 H105 0.950 . S
C92 C89 1.481 . S
C92 C93 1.297 . S
C92 H106 0.950 . S
C93 C92 1.297 . S
C93 C94 1.479 . S
C93 H107 0.950 . S
C94 C93 1.479 . S
C94 C95 1.375 . S
C94 C100 1.404 . S
C95 C94 1.375 . S
C95 C96 1.369 . S
C95 H108 0.950 . S
C96 C95 1.369 . S
C96 C97 1.392 . S
C96 H109 0.951 . S
C97 C96 1.392 . S
C97 C99 1.384 . S
H98 C100 0.949 . S
C99 C97 1.384 . S
C99 C100 1.385 . S
C99 H101 0.950 . S
C100 C94 1.404 . S
C100 H98 0.949 . S
C100 C99 1.385 . S
H101 C99 0.950 . S
H102 C86 0.951 . S
H103 C88 0.951 . S
H104 C90 0.951 . S
H105 C91 0.950 . S
H106 C92 0.950 . S
H107 C93 0.950 . S
H108 C95 0.950 . S
H109 C96 0.951 . S
C110 C111 1.386 . S
C110 C112 1.383 . S
C110 H126 0.951 . S
C111 C110 1.386 . S
C111 C115 1.383 . S
C112 C110 1.383 . S
C112 C113 1.402 . S
C112 H127 0.951 . S
C113 C112 1.402 . S
C113 C114 1.375 . S
C113 C116 1.481 . S
C114 C113 1.375 . S
C114 C115 1.367 . S
C114 H128 0.951 . S
C115 C111 1.383 . S
C115 C114 1.367 . S
C115 H129 0.950 . S
C116 C113 1.481 . S
C116 C117 1.297 . S
C116 H130 0.950 . S
C117 C116 1.297 . S
C117 C118 1.479 . S
C117 H131 0.950 . S
C118 C117 1.479 . S
C118 C119 1.375 . S
C118 C124 1.404 . S
C119 C118 1.375 . S
C119 C120 1.369 . S
C119 H132 0.950 . S
C120 C119 1.369 . S
C120 C121 1.392 . S
C120 H133 0.951 . S
C121 C120 1.392 . S
C121 C123 1.384 . S
H122 C124 0.949 . S
C123 C121 1.384 . S
C123 C124 1.385 . S
C123 H125 0.950 . S
C124 C118 1.404 . S
C124 H122 0.949 . S
C124 C123 1.385 . S
H125 C123 0.950 . S
H126 C110 0.951 . S
H127 C112 0.951 . S
H128 C114 0.951 . S
H129 C115 0.950 . S
H130 C116 0.950 . S
H131 C117 0.950 . S
H132 C119 0.950 . S
H133 C120 0.951 . S
C134 C135 1.386 . S
C134 C136 1.383 . S
C134 H150 0.951 . S
C135 C134 1.386 . S
C135 C139 1.383 . S
C136 C134 1.383 . S
C136 C137 1.402 . S
C136 H151 0.951 . S
C137 C136 1.402 . S
C137 C138 1.375 . S
C137 C140 1.481 . S
C138 C137 1.375 . S
C138 C139 1.367 . S
C138 H152 0.951 . S
C139 C135 1.383 . S
C139 C138 1.367 . S
C139 H153 0.950 . S
C140 C137 1.481 . S
C140 C141 1.297 . S
C140 H154 0.950 . S
C141 C140 1.297 . S
C141 C142 1.479 . S
C141 H155 0.950 . S
C142 C141 1.479 . S
C142 C143 1.375 . S
C142 C148 1.404 . S
C143 C142 1.375 . S
C143 C144 1.369 . S
C143 H156 0.950 . S
C144 C143 1.369 . S
C144 C145 1.392 . S
C144 H157 0.951 . S
C145 C144 1.392 . S
C145 C147 1.384 . S
H146 C148 0.949 . S
C147 C145 1.384 . S
C147 C148 1.385 . S
C147 H149 0.950 . S
C148 C142 1.404 . S
C148 H146 0.949 . S
C148 C147 1.385 . S
H149 C147 0.950 . S
H150 C134 0.951 . S
H151 C136 0.951 . S
H152 C138 0.951 . S
H153 C139 0.950 . S
H154 C140 0.950 . S
H155 C141 0.950 . S
H156 C143 0.950 . S
H157 C144 0.951 . S
C158 C159 1.386 . S
C158 C160 1.383 . S
C158 H174 0.951 . S
C159 C158 1.386 . S
C159 C163 1.383 1_554 S
C160 C158 1.383 . S
C160 C161 1.402 . S
C160 H175 0.951 . S
C161 C160 1.402 . S
C161 C162 1.375 1_554 S
C161 C164 1.481 . S
C162 C161 1.375 1_556 S
C162 C163 1.367 . S
C162 H176 0.951 . S
C163 C159 1.383 1_556 S
C163 C162 1.367 . S
C163 H177 0.950 . S
C164 C161 1.481 . S
C164 C165 1.297 . S
C164 H178 0.950 1_554 S
C165 C164 1.297 . S
C165 C166 1.479 . S
C165 H179 0.950 . S
C166 C165 1.479 . S
C166 C167 1.375 . S
C166 C172 1.404 . S
C167 C166 1.375 . S
C167 C168 1.369 . S
C167 H180 0.950 . S
C168 C167 1.369 . S
C168 C169 1.392 . S
C168 H181 0.951 . S
C169 C168 1.392 . S
C169 C171 1.384 . S
H170 C172 0.949 1_556 S
C171 C169 1.384 . S
C171 C172 1.385 . S
C171 H173 0.950 1_554 S
C172 C166 1.404 . S
C172 H170 0.949 1_554 S
C172 C171 1.385 . S
H173 C171 0.950 1_556 S
H174 C158 0.951 . S
H175 C160 0.951 . S
H176 C162 0.951 . S
H177 C163 0.950 . S
H178 C164 0.950 1_556 S
H179 C165 0.950 . S
H180 C167 0.950 . S
H181 C168 0.951 . S
C182 C183 1.386 . S
C182 C184 1.383 . S
C182 H198 0.951 . S
C183 C182 1.386 . S
C183 C187 1.383 . S
C184 C182 1.383 . S
C184 C185 1.402 . S
C184 H199 0.951 . S
C185 C184 1.402 . S
C185 C186 1.375 . S
C185 C188 1.481 . S
C186 C185 1.375 . S
C186 C187 1.367 . S
C186 H200 0.951 . S
C187 C183 1.383 . S
C187 C186 1.367 . S
C187 H201 0.950 . S
C188 C185 1.481 . S
C188 C189 1.297 . S
C188 H202 0.950 . S
C189 C188 1.297 . S
C189 C190 1.479 . S
C189 H203 0.950 . S
C190 C189 1.479 . S
C190 C191 1.375 . S
C190 C196 1.404 . S
C191 C190 1.375 . S
C191 C192 1.369 . S
C191 H204 0.950 . S
C192 C191 1.369 . S
C192 C193 1.392 . S
C192 H205 0.951 . S
C193 C192 1.392 . S
C193 C195 1.384 . S
H194 C196 0.949 . S
C195 C193 1.384 . S
C195 C196 1.385 . S
C195 H197 0.950 . S
C196 C190 1.404 . S
C196 H194 0.949 . S
C196 C195 1.385 . S
H197 C195 0.950 . S
H198 C182 0.951 . S
H199 C184 0.951 . S
H200 C186 0.951 . S
H201 C187 0.950 . S
H202 C188 0.950 . S
H203 C189 0.950 . S
H204 C191 0.950 . S
H205 C192 0.951 . S
C206 C207 1.386 . S
C206 C208 1.383 . S
C206 H222 0.951 . S
C207 C206 1.386 . S
C207 C211 1.383 . S
C208 C206 1.383 . S
C208 C209 1.402 . S
C208 H223 0.951 . S
C209 C208 1.402 . S
C209 C210 1.375 . S
C209 C212 1.481 . S
C210 C209 1.375 . S
C210 C211 1.367 . S
C210 H224 0.951 . S
C211 C207 1.383 . S
C211 C210 1.367 . S
C211 H225 0.950 . S
C212 C209 1.481 . S
C212 C213 1.297 . S
C212 H226 0.950 . S
C213 C212 1.297 . S
C213 C214 1.479 . S
C213 H227 0.950 . S
C214 C213 1.479 . S
C214 C215 1.375 . S
C214 C220 1.404 . S
C215 C214 1.375 . S
C215 C216 1.369 . S
C215 H228 0.950 . S
C216 C215 1.369 . S
C216 C217 1.392 . S
C216 H229 0.951 . S
C217 C216 1.392 . S
C217 C219 1.384 . S
H218 C220 0.949 . S
C219 C217 1.384 . S
C219 C220 1.385 . S
C219 H221 0.950 . S
C220 C214 1.404 . S
C220 H218 0.949 . S
C220 C219 1.385 . S
H221 C219 0.950 . S
H222 C206 0.951 . S
H223 C208 0.951 . S
H224 C210 0.951 . S
H225 C211 0.950 . S
H226 C212 0.950 . S
H227 C213 0.950 . S
H228 C215 0.950 . S
H229 C216 0.951 . S
C230 C231 1.386 . S
C230 C232 1.383 . S
C230 H246 0.951 . S
C231 C230 1.386 . S
C231 C235 1.383 . S
C232 C230 1.383 . S
C232 C233 1.402 . S
C232 H247 0.951 . S
C233 C232 1.402 . S
C233 C234 1.375 . S
C233 C236 1.481 . S
C234 C233 1.375 . S
C234 C235 1.367 . S
C234 H248 0.951 . S
C235 C231 1.383 . S
C235 C234 1.367 . S
C235 H249 0.950 . S
C236 C233 1.481 . S
C236 C237 1.297 . S
C236 H250 0.950 . S
C237 C236 1.297 . S
C237 C238 1.479 . S
C237 H251 0.950 . S
C238 C237 1.479 . S
C238 C239 1.375 . S
C238 C244 1.404 . S
C239 C238 1.375 . S
C239 C240 1.369 . S
C239 H252 0.950 . S
C240 C239 1.369 . S
C240 C241 1.392 . S
C240 H253 0.951 . S
C241 C240 1.392 . S
C241 C243 1.384 . S
H242 C244 0.949 . S
C243 C241 1.384 . S
C243 C244 1.385 . S
C243 H245 0.950 . S
C244 C238 1.404 . S
C244 H242 0.949 . S
C244 C243 1.385 . S
H245 C243 0.950 . S
H246 C230 0.951 . S
H247 C232 0.951 . S
H248 C234 0.951 . S
H249 C235 0.950 . S
H250 C236 0.950 . S
H251 C237 0.950 . S
H252 C239 0.950 . S
H253 C240 0.951 . S
C254 C255 1.386 . S
C254 C256 1.383 . S
C254 H270 0.951 . S
C255 C254 1.386 . S
C255 C259 1.383 . S
C256 C254 1.383 . S
C256 C257 1.402 . S
C256 H271 0.951 . S
C257 C256 1.402 . S
C257 C258 1.375 . S
C257 C260 1.481 . S
C258 C257 1.375 . S
C258 C259 1.367 . S
C258 H272 0.951 . S
C259 C255 1.383 . S
C259 C258 1.367 . S
C259 H273 0.950 . S
C260 C257 1.481 . S
C260 C261 1.297 . S
C260 H274 0.950 . S
C261 C260 1.297 . S
C261 C262 1.479 . S
C261 H275 0.950 . S
C262 C261 1.479 . S
C262 C263 1.375 . S
C262 C268 1.404 . S
C263 C262 1.375 . S
C263 C264 1.369 . S
C263 H276 0.950 . S
C264 C263 1.369 . S
C264 C265 1.392 . S
C264 H277 0.951 . S
C265 C264 1.392 . S
C265 C267 1.384 . S
H266 C268 0.949 . S
C267 C265 1.384 . S
C267 C268 1.385 . S
C267 H269 0.950 . S
C268 C262 1.404 . S
C268 H266 0.949 . S
C268 C267 1.385 . S
H269 C267 0.950 . S
H270 C254 0.951 . S
H271 C256 0.951 . S
H272 C258 0.951 . S
H273 C259 0.950 . S
H274 C260 0.950 . S
H275 C261 0.950 . S
H276 C263 0.950 . S
H277 C264 0.951 . S
C278 C279 1.386 . S
C278 C280 1.383 . S
C278 H294 0.951 . S
C279 C278 1.386 . S
C279 C283 1.383 . S
C280 C278 1.383 . S
C280 C281 1.402 . S
C280 H295 0.951 . S
C281 C280 1.402 . S
C281 C282 1.375 . S
C281 C284 1.481 . S
C282 C281 1.375 . S
C282 C283 1.367 . S
C282 H296 0.951 . S
C283 C279 1.383 . S
C283 C282 1.367 . S
C283 H297 0.950 . S
C284 C281 1.481 . S
C284 C285 1.297 . S
C284 H298 0.950 . S
C285 C284 1.297 . S
C285 C286 1.479 . S
C285 H299 0.950 . S
C286 C285 1.479 . S
C286 C287 1.375 . S
C286 C292 1.404 . S
C287 C286 1.375 . S
C287 C288 1.369 . S
C287 H300 0.950 . S
C288 C287 1.369 . S
C288 C289 1.392 . S
C288 H301 0.951 . S
C289 C288 1.392 . S
C289 C291 1.384 . S
H290 C292 0.949 . S
C291 C289 1.384 . S
C291 C292 1.385 . S
C291 H293 0.950 . S
C292 C286 1.404 . S
C292 H290 0.949 . S
C292 C291 1.385 . S
H293 C291 0.950 . S
H294 C278 0.951 . S
H295 C280 0.951 . S
H296 C282 0.951 . S
H297 C283 0.950 . S
H298 C284 0.950 . S
H299 C285 0.950 . S
H300 C287 0.950 . S
H301 C288 0.951 . S
C302 C303 1.386 . S
C302 C304 1.383 . S
C302 H318 0.951 . S
C303 C302 1.386 . S
C303 C307 1.383 . S
C304 C302 1.383 . S
C304 C305 1.402 . S
C304 H319 0.951 . S
C305 C304 1.402 . S
C305 C306 1.375 . S
C305 C308 1.481 . S
C306 C305 1.375 . S
C306 C307 1.367 . S
C306 H320 0.951 . S
C307 C303 1.383 . S
C307 C306 1.367 . S
C307 H321 0.950 . S
C308 C305 1.481 . S
C308 C309 1.297 . S
C308 H322 0.950 . S
C309 C308 1.297 . S
C309 C310 1.479 . S
C309 H323 0.950 . S
C310 C309 1.479 . S
C310 C311 1.375 . S
C310 C316 1.404 . S
C311 C310 1.375 . S
C311 C312 1.369 . S
C311 H324 0.950 . S
C312 C311 1.369 . S
C312 C313 1.392 . S
C312 H325 0.951 . S
C313 C312 1.392 . S
C313 C315 1.384 . S
H314 C316 0.949 . S
C315 C313 1.384 . S
C315 C316 1.385 . S
C315 H317 0.967 . S
C316 C310 1.404 . S
C316 H314 0.949 . S
C316 C315 1.385 . S
H317 C315 0.967 . S
H318 C302 0.951 . S
H319 C304 0.951 . S
H320 C306 0.951 . S
H321 C307 0.950 . S
H322 C308 0.950 . S
H323 C309 0.950 . S
H324 C311 0.950 . S
H325 C312 0.951 . S
C326 C327 1.386 . S
C326 C328 1.383 . S
C326 H342 0.951 . S
C327 C326 1.386 . S
C327 C331 1.383 . S
C328 C326 1.383 . S
C328 C329 1.402 . S
C328 H343 0.951 . S
C329 C328 1.402 . S
C329 C330 1.375 . S
C329 C332 1.481 . S
C330 C329 1.375 . S
C330 C331 1.367 . S
C330 H344 0.951 . S
C331 C327 1.383 . S
C331 C330 1.367 . S
C331 H345 0.950 . S
C332 C329 1.481 . S
C332 C333 1.297 . S
C332 H346 0.950 . S
C333 C332 1.297 . S
C333 C334 1.479 . S
C333 H347 0.950 . S
C334 C333 1.479 . S
C334 C335 1.375 . S
C334 C340 1.404 . S
C335 C334 1.375 . S
C335 C336 1.369 . S
C335 H348 0.950 . S
C336 C335 1.369 . S
C336 C337 1.392 . S
C336 H349 0.951 . S
C337 C336 1.392 . S
C337 C339 1.384 . S
H338 C340 0.949 . S
C339 C337 1.384 . S
C339 C340 1.385 . S
C339 H341 0.950 . S
C340 C334 1.404 . S
C340 H338 0.949 . S
C340 C339 1.385 . S
H341 C339 0.950 . S
H342 C326 0.951 . S
H343 C328 0.951 . S
H344 C330 0.951 . S
H345 C331 0.950 . S
H346 C332 0.950 . S
H347 C333 0.950 . S
H348 C335 0.950 . S
H349 C336 0.951 . S
C350 C351 1.386 . S
C350 C352 1.383 . S
C350 H366 0.951 . S
C351 C350 1.386 . S
C351 C355 1.383 . S
C352 C350 1.383 . S
C352 C353 1.402 . S
C352 H367 0.951 . S
C353 C352 1.402 . S
C353 C354 1.375 . S
C353 C356 1.481 . S
C354 C353 1.375 . S
C354 C355 1.367 . S
C354 H368 0.951 . S
C355 C351 1.383 . S
C355 C354 1.367 . S
C355 H369 0.950 . S
C356 C353 1.481 . S
C356 C357 1.297 . S
C356 H370 0.950 . S
C357 C356 1.297 . S
C357 C358 1.479 . S
C357 H371 0.950 . S
C358 C357 1.479 . S
C358 C359 1.375 . S
C358 C364 1.404 . S
C359 C358 1.375 . S
C359 C360 1.369 . S
C359 H372 0.950 . S
C360 C359 1.369 . S
C360 C361 1.392 . S
C360 H373 0.951 . S
C361 C360 1.392 . S
C361 C363 1.384 . S
H362 C364 0.949 . S
C363 C361 1.384 . S
C363 C364 1.385 . S
C363 H365 0.950 1_565 S
C364 C358 1.404 . S
C364 H362 0.949 . S
C364 C363 1.385 . S
H365 C363 0.950 1_545 S
H366 C350 0.951 . S
H367 C352 0.951 . S
H368 C354 0.951 . S
H369 C355 0.950 . S
H370 C356 0.950 . S
H371 C357 0.950 . S
H372 C359 0.950 . S
H373 C360 0.951 . S
C97 C59 1.178 . S
C87 C43 1.446 . S
C111 C10 1.470 . S
C121 C83 1.353 . S
C135 C21 1.593 . S
C145 C62 1.401 . S
C159 C32 1.609 . S
C169 C80 1.342 . S
C193 C60 1.489 . S
C183 C5 1.487 . S
C217 C82 1.590 . S
C207 C15 1.622 . S
C231 C27 1.583 . S
C241 C61 1.499 . S
C255 C38 1.497 . S
C265 C81 1.486 . S
C289 C79 1.417 . S
C279 C16 1.507 . S
C313 C58 1.435 . S
C303 C26 1.530 . S
C337 C78 1.367 . S
C327 C37 1.456 . S
C351 C4 1.451 1_556 S
C361 C57 1.373 . S
