# Generated by pormake.
# Topology pyr, (3,6)-cn, num edge types: 1
# Building blocks:
#     Node 0, Type 0, BuildingBlock: VETTIZ_charged_linker_0, # of connection points: 3
#     Node 1, Type 0, BuildingBlock: VETTIZ_charged_linker_0, # of connection points: 3
#     Node 2, Type 0, BuildingBlock: VETTIZ_charged_linker_0, # of connection points: 3
#     Node 3, Type 0, BuildingBlock: VETTIZ_charged_linker_0, # of connection points: 3
#     Node 4, Type 0, BuildingBlock: VETTIZ_charged_linker_0, # of connection points: 3
#     Node 5, Type 0, BuildingBlock: VETTIZ_charged_linker_0, # of connection points: 3
#     Node 6, Type 0, BuildingBlock: VETTIZ_charged_linker_0, # of connection points: 3
#     Node 7, Type 0, BuildingBlock: VETTIZ_charged_linker_0, # of connection points: 3
#     Node 8, Type 1, BuildingBlock: CIFDUS_clean_sbu_1, # of connection points: 6
#     Node 9, Type 1, BuildingBlock: CIFDUS_clean_sbu_1, # of connection points: 6
#     Node 10, Type 1, BuildingBlock: CIFDUS_clean_sbu_1, # of connection points: 6
#     Node 11, Type 1, BuildingBlock: CIFDUS_clean_sbu_1, # of connection points: 6
#     Edge 12, Type (0, 1), BuildingBlock: CIFDUS_clean_linker_0, # of connection points: 2
#     Edge 13, Type (0, 1), BuildingBlock: CIFDUS_clean_linker_0, # of connection points: 2
#     Edge 14, Type (0, 1), BuildingBlock: CIFDUS_clean_linker_0, # of connection points: 2
#     Edge 15, Type (0, 1), BuildingBlock: CIFDUS_clean_linker_0, # of connection points: 2
#     Edge 16, Type (0, 1), BuildingBlock: CIFDUS_clean_linker_0, # of connection points: 2
#     Edge 17, Type (0, 1), BuildingBlock: CIFDUS_clean_linker_0, # of connection points: 2
#     Edge 18, Type (0, 1), BuildingBlock: CIFDUS_clean_linker_0, # of connection points: 2
#     Edge 19, Type (0, 1), BuildingBlock: CIFDUS_clean_linker_0, # of connection points: 2
#     Edge 20, Type (0, 1), BuildingBlock: CIFDUS_clean_linker_0, # of connection points: 2
#     Edge 21, Type (0, 1), BuildingBlock: CIFDUS_clean_linker_0, # of connection points: 2
#     Edge 22, Type (0, 1), BuildingBlock: CIFDUS_clean_linker_0, # of connection points: 2
#     Edge 23, Type (0, 1), BuildingBlock: CIFDUS_clean_linker_0, # of connection points: 2
#     Edge 24, Type (0, 1), BuildingBlock: CIFDUS_clean_linker_0, # of connection points: 2
#     Edge 25, Type (0, 1), BuildingBlock: CIFDUS_clean_linker_0, # of connection points: 2
#     Edge 26, Type (0, 1), BuildingBlock: CIFDUS_clean_linker_0, # of connection points: 2
#     Edge 27, Type (0, 1), BuildingBlock: CIFDUS_clean_linker_0, # of connection points: 2
#     Edge 28, Type (0, 1), BuildingBlock: CIFDUS_clean_linker_0, # of connection points: 2
#     Edge 29, Type (0, 1), BuildingBlock: CIFDUS_clean_linker_0, # of connection points: 2
#     Edge 30, Type (0, 1), BuildingBlock: CIFDUS_clean_linker_0, # of connection points: 2
#     Edge 31, Type (0, 1), BuildingBlock: CIFDUS_clean_linker_0, # of connection points: 2
#     Edge 32, Type (0, 1), BuildingBlock: CIFDUS_clean_linker_0, # of connection points: 2
#     Edge 33, Type (0, 1), BuildingBlock: CIFDUS_clean_linker_0, # of connection points: 2
#     Edge 34, Type (0, 1), BuildingBlock: CIFDUS_clean_linker_0, # of connection points: 2
#     Edge 35, Type (0, 1), BuildingBlock: CIFDUS_clean_linker_0, # of connection points: 2
# Relax obj value: 0.036
# Max RMSD: 0.111
# Mean RMSD: 0.047
data_MOF--net-pry--node1-CIFDUS_clean_sbu_1--node2-VETTIZ_charged_linker_0--edge1-CIFDUS_clean_linker_0
_symmetry_space_group_name_H-M    P1
_symmetry_Int_Tables_number       1
_symmetry_cell_setting            triclinic
loop_
_symmetry_equiv_pos_as_xyz
'x, y, z'
_cell_length_a     40.726497
_cell_length_b     39.38631
_cell_length_c     39.144226
_cell_angle_alpha  92.319525
_cell_angle_beta   91.145747
_cell_angle_gamma 93.539399
loop_
_atom_site_label
_atom_site_type_symbol
_atom_site_fract_x
_atom_site_fract_y
_atom_site_fract_z
_atom_type_partial_charge
C0 C 0.1265 0.09978 0.25114 0.0
C1 C 0.10099 0.11359 0.27032 0.0
C2 C 0.08343 0.13945 0.25578 0.0
C3 C 0.11769 0.13916 0.20576 0.0
C4 C 0.13445 0.11302 0.21903 0.0
C5 C 0.16118 0.10222 0.19532 0.0
H6 H 0.25445 0.13637 0.05737 0.0
C7 C 0.1326 0.14847 0.17285 0.0
C8 C 0.15833 0.12705 0.16651 0.0
H9 H 0.26081 0.0518 0.12451 0.0
H10 H 0.21461 0.07069 0.1552 0.0
H11 H 0.23377 0.19504 0.11162 0.0
H12 H 0.17505 0.12185 0.0473 0.0
H13 H 0.15657 0.16096 0.04716 0.0
H14 H 0.19712 0.15784 0.02993 0.0
H15 H 0.23399 0.19512 0.0657 0.0
H16 H 0.20295 0.2156 0.08948 0.0
C17 C 0.19455 0.10749 0.21493 0.0
C18 C 0.15244 0.065 0.18256 0.0
C19 C 0.08824 0.24693 0.10937 0.0
C20 C 0.09569 0.2625 0.0783 0.0
C21 C 0.1221 0.25014 0.05942 0.0
C22 C 0.14019 0.22319 0.07106 0.0
C23 C 0.13181 0.20777 0.10186 0.0
C24 C 0.10598 0.21968 0.12018 0.0
C25 C 0.09967 0.20015 0.1519 0.0
C26 C 0.12588 0.17442 0.14982 0.0
C27 C 0.14495 0.17897 0.12062 0.0
C28 C 0.10535 0.22528 0.18331 0.0
C29 C 0.06456 0.18255 0.14848 0.0
C30 C 0.24617 0.12114 0.0782 0.0
C31 C 0.26293 0.09246 0.08818 0.0
C32 C 0.2501 0.07457 0.11621 0.0
C33 C 0.22266 0.08538 0.1341 0.0
C34 C 0.20691 0.11419 0.12387 0.0
C35 C 0.21819 0.13092 0.09568 0.0
C36 C 0.19663 0.15912 0.08634 0.0
C37 C 0.17148 0.15764 0.11447 0.0
C38 C 0.17783 0.13146 0.13685 0.0
C39 C 0.21781 0.19313 0.08813 0.0
C40 C 0.18056 0.14983 0.05073 0.0
H41 H 0.07729 0.17213 0.21494 0.0
H42 H 0.14045 0.07974 0.26118 0.0
H43 H 0.12539 0.06029 0.17861 0.0
H44 H 0.16294 0.05886 0.15743 0.0
H45 H 0.16066 0.04675 0.20138 0.0
H46 H 0.19647 0.13266 0.22901 0.0
H47 H 0.19716 0.08752 0.23388 0.0
H48 H 0.21586 0.10747 0.19804 0.0
H49 H 0.06905 0.25578 0.12556 0.0
H50 H 0.12864 0.26089 0.03529 0.0
H51 H 0.16 0.21528 0.05553 0.0
H52 H 0.12478 0.24549 0.17835 0.0
H53 H 0.08254 0.23804 0.18964 0.0
H54 H 0.11444 0.21301 0.20625 0.0
H55 H 0.05862 0.17413 0.12146 0.0
H56 H 0.06173 0.15904 0.1629 0.0
H57 H 0.04571 0.20015 0.15679 0.0
H58 H 0.06302 0.14995 0.26902 0.0
C59 C 0.0916 0.15224 0.22398 0.0
C60 C 0.26705 0.89656 0.5625 0.0
C61 C 0.24767 0.92236 0.57483 0.0
C62 C 0.25993 0.94489 0.60152 0.0
C63 C 0.30961 0.91428 0.60509 0.0
C64 C 0.29806 0.89321 0.57778 0.0
C65 C 0.32206 0.86725 0.56788 0.0
H66 H 0.45119 0.77869 0.61099 0.0
C67 C 0.34162 0.90253 0.61664 0.0
C68 C 0.34931 0.87533 0.59464 0.0
H69 H 0.38828 0.76522 0.52077 0.0
H70 H 0.36261 0.81726 0.53574 0.0
H71 H 0.46506 0.86275 0.60186 0.0
H72 H 0.39804 0.80428 0.66427 0.0
H73 H 0.41909 0.83732 0.68939 0.0
H74 H 0.44202 0.80473 0.66953 0.0
H75 H 0.47902 0.84298 0.63957 0.0
H76 H 0.46263 0.8846 0.64163 0.0
C77 C 0.33385 0.87421 0.53122 0.0
C78 C 0.30482 0.83149 0.57182 0.0
C79 C 0.39417 0.95293 0.72739 0.0
C80 C 0.42212 0.94572 0.7467 0.0
C81 C 0.44278 0.92099 0.73379 0.0
C82 C 0.43494 0.90282 0.70271 0.0
C83 C 0.40623 0.90958 0.68423 0.0
C84 C 0.38684 0.93482 0.6964 0.0
C85 C 0.35748 0.93899 0.6735 0.0
C86 C 0.36224 0.91208 0.64556 0.0
C87 C 0.39062 0.89455 0.65205 0.0
C88 C 0.36033 0.97538 0.65972 0.0
C89 C 0.32615 0.9308 0.69427 0.0
C90 C 0.43241 0.78761 0.59417 0.0
C91 C 0.42159 0.76813 0.56466 0.0
C92 C 0.39712 0.78015 0.54333 0.0
C93 C 0.38199 0.81009 0.55235 0.0
C94 C 0.39138 0.82811 0.58308 0.0
C95 C 0.41729 0.81783 0.60262 0.0
C96 C 0.42498 0.84165 0.63334 0.0
C97 C 0.39832 0.86679 0.62978 0.0
C98 C 0.3783 0.85805 0.6007 0.0
C99 C 0.4598 0.85885 0.62926 0.0
C100 C 0.42105 0.82109 0.66602 0.0
H101 H 0.29858 0.95858 0.63739 0.0
H102 H 0.25812 0.87927 0.54168 0.0
H103 H 0.29199 0.83036 0.59662 0.0
H104 H 0.32191 0.8109 0.57186 0.0
H105 H 0.28617 0.82546 0.55101 0.0
H106 H 0.33048 0.90095 0.52437 0.0
H107 H 0.32003 0.85729 0.51182 0.0
H108 H 0.36057 0.87124 0.52856 0.0
H109 H 0.37797 0.97194 0.73656 0.0
H110 H 0.46432 0.9148 0.7484 0.0
H111 H 0.45111 0.88368 0.69465 0.0
H112 H 0.38654 0.98439 0.65684 0.0
H113 H 0.34896 0.99386 0.67732 0.0
H114 H 0.34922 0.97663 0.63383 0.0
H115 H 0.32965 0.90898 0.71089 0.0
H116 H 0.30431 0.92287 0.67815 0.0
H117 H 0.32035 0.95296 0.71104 0.0
H118 H 0.24517 0.965 0.61115 0.0
C119 C 0.29082 0.94101 0.61673 0.0
C120 C 0.61691 0.26324 0.90926 0.0
C121 C 0.58789 0.24455 0.89695 0.0
C122 C 0.56511 0.26204 0.87745 0.0
C123 C 0.60233 0.31215 0.87816 0.0
C124 C 0.62289 0.29716 0.90052 0.0
C125 C 0.65054 0.32168 0.91377 0.0
H126 H 0.73195 0.47559 0.9052 0.0
C127 C 0.61674 0.34628 0.87163 0.0
C128 C 0.64423 0.35279 0.89346 0.0
H129 H 0.75581 0.39174 0.96797 0.0
H130 H 0.70622 0.36065 0.94817 0.0
H131 H 0.64982 0.46996 0.90543 0.0
H132 H 0.7232 0.42621 0.84222 0.0
H133 H 0.68971 0.43332 0.81538 0.0
H134 H 0.71183 0.46905 0.83749 0.0
H135 H 0.67779 0.49453 0.87978 0.0
H136 H 0.64002 0.47476 0.86167 0.0
C137 C 0.64591 0.32849 0.9526 0.0
C138 C 0.68358 0.30655 0.90452 0.0
C139 C 0.5846 0.39887 0.76159 0.0
C140 C 0.59565 0.42833 0.74508 0.0
C141 C 0.61821 0.45184 0.76282 0.0
C142 C 0.63023 0.44537 0.79572 0.0
C143 C 0.61972 0.41505 0.81108 0.0
C144 C 0.59652 0.39297 0.79434 0.0
C145 C 0.58674 0.36276 0.81483 0.0
C146 C 0.61019 0.36875 0.84539 0.0
C147 C 0.62941 0.39941 0.84324 0.0
C148 C 0.55023 0.36498 0.82503 0.0
C149 C 0.59342 0.33009 0.79337 0.0
C150 C 0.72713 0.45044 0.91473 0.0
C151 C 0.74897 0.43634 0.93807 0.0
C152 C 0.73995 0.40392 0.9504 0.0
C153 C 0.71116 0.38546 0.9384 0.0
C154 C 0.69156 0.39885 0.9129 0.0
C155 C 0.69967 0.43087 0.90147 0.0
C156 C 0.67896 0.43907 0.87088 0.0
C157 C 0.65547 0.40764 0.86749 0.0
C158 C 0.66297 0.38427 0.89228 0.0
C159 C 0.6607 0.47143 0.87965 0.0
C160 C 0.70187 0.44236 0.83979 0.0
H161 H 0.55427 0.30701 0.85272 0.0
H162 H 0.63504 0.25234 0.92521 0.0
H163 H 0.68198 0.29418 0.87842 0.0
H164 H 0.70424 0.32596 0.90377 0.0
H165 H 0.69005 0.28701 0.92275 0.0
H166 H 0.61937 0.32718 0.95898 0.0
H167 H 0.65798 0.3094 0.96784 0.0
H168 H 0.65522 0.35433 0.96157 0.0
H169 H 0.56734 0.38016 0.74911 0.0
H170 H 0.62642 0.47541 0.75148 0.0
H171 H 0.64735 0.46411 0.80793 0.0
H172 H 0.54083 0.39034 0.82029 0.0
H173 H 0.5339 0.34574 0.81034 0.0
H174 H 0.54691 0.36153 0.85277 0.0
H175 H 0.6192 0.33135 0.78442 0.0
H176 H 0.58994 0.30665 0.80755 0.0
H177 H 0.57668 0.32693 0.77057 0.0
H178 H 0.54128 0.25051 0.8696 0.0
C179 C 0.5723 0.29542 0.8679 0.0
C180 C 0.94247 0.728 0.42825 0.0
C181 C 0.93622 0.74461 0.45991 0.0
C182 C 0.91133 0.72979 0.48032 0.0
C183 C 0.89871 0.68467 0.43697 0.0
C184 C 0.92395 0.69812 0.41767 0.0
C185 C 0.92798 0.67759 0.38492 0.0
H186 H 0.87009 0.55132 0.27358 0.0
C187 C 0.88343 0.65419 0.41797 0.0
C188 C 0.90086 0.64967 0.38763 0.0
H189 H 0.95431 0.62242 0.26262 0.0
H190 H 0.94584 0.64674 0.31881 0.0
H191 H 0.89074 0.53232 0.34817 0.0
H192 H 0.82153 0.60279 0.31359 0.0
H193 H 0.80275 0.57456 0.34239 0.0
H194 H 0.81833 0.55777 0.30335 0.0
H195 H 0.84961 0.51806 0.33489 0.0
H196 H 0.85953 0.53299 0.3784 0.0
C197 C 0.96252 0.66317 0.38586 0.0
C198 C 0.92186 0.70076 0.35465 0.0
C199 C 0.77519 0.59721 0.45667 0.0
C200 C 0.75606 0.56795 0.44428 0.0
C201 C 0.76979 0.54656 0.41915 0.0
C202 C 0.79967 0.55588 0.40402 0.0
C203 C 0.81668 0.5867 0.4143 0.0
C204 C 0.80563 0.6057 0.44169 0.0
C205 C 0.82987 0.63505 0.45205 0.0
C206 C 0.85555 0.632 0.42448 0.0
C207 C 0.84705 0.60412 0.40186 0.0
C208 C 0.84426 0.62875 0.48806 0.0
C209 C 0.81221 0.66855 0.44999 0.0
C210 C 0.88698 0.57196 0.28312 0.0
C211 C 0.9126 0.58515 0.26275 0.0
C212 C 0.93368 0.61223 0.27682 0.0
C213 C 0.92899 0.62615 0.30983 0.0
C214 C 0.90305 0.61289 0.32946 0.0
C215 C 0.88294 0.58584 0.31624 0.0
C216 C 0.85744 0.57405 0.34125 0.0
C217 C 0.86453 0.59966 0.37104 0.0
C218 C 0.8913 0.62232 0.36397 0.0
C219 C 0.86434 0.53739 0.35115 0.0
C220 C 0.82309 0.57727 0.32447 0.0
H221 H 0.8736 0.69062 0.48535 0.0
H222 H 0.96075 0.73838 0.41122 0.0
H223 H 0.90246 0.71861 0.36081 0.0
H224 H 0.91261 0.68652 0.33121 0.0
H225 H 0.94456 0.71629 0.34868 0.0
H226 H 0.96911 0.65572 0.41213 0.0
H227 H 0.98172 0.6824 0.37805 0.0
H228 H 0.96389 0.6397 0.36967 0.0
H229 H 0.76631 0.61378 0.4767 0.0
H230 H 0.75712 0.52271 0.41048 0.0
H231 H 0.80809 0.53901 0.38435 0.0
H232 H 0.84211 0.60128 0.49385 0.0
H233 H 0.83127 0.64278 0.50835 0.0
H234 H 0.87096 0.63593 0.4903 0.0
H235 H 0.79872 0.66934 0.42506 0.0
H236 H 0.82933 0.69138 0.45183 0.0
H237 H 0.79412 0.67077 0.4707 0.0
H238 H 0.90616 0.74104 0.50515 0.0
C239 C 0.89252 0.70017 0.46896 0.0
C240 C 0.89983 0.7826 0.94926 0.0
C241 C 0.92583 0.76375 0.93741 0.0
C242 C 0.94352 0.77544 0.90906 0.0
C243 C 0.90726 0.82206 0.9032 0.0
C244 C 0.89121 0.81152 0.93211 0.0
C245 C 0.86396 0.83384 0.94171 0.0
H246 H 0.75966 0.95319 0.90037 0.0
C247 C 0.89039 0.85174 0.89019 0.0
C248 C 0.86524 0.85883 0.91314 0.0
H249 H 0.76255 0.89486 0.99147 0.0
H250 H 0.81272 0.87132 0.9737 0.0
H251 H 0.77911 0.89798 0.84853 0.0
H252 H 0.84181 0.97376 0.90424 0.0
H253 H 0.85694 0.97035 0.86267 0.0
H254 H 0.81584 0.98389 0.86899 0.0
H255 H 0.78144 0.94195 0.83788 0.0
H256 H 0.80927 0.91234 0.82022 0.0
C257 C 0.83133 0.81134 0.94061 0.0
C258 C 0.87288 0.85165 0.97706 0.0
C259 C 0.92179 0.90424 0.77636 0.0
C260 C 0.90914 0.93112 0.75839 0.0
C261 C 0.88201 0.94735 0.77174 0.0
C262 C 0.86797 0.93766 0.80246 0.0
C263 C 0.88105 0.91134 0.82053 0.0
C264 C 0.90745 0.89492 0.8075 0.0
C265 C 0.91812 0.86784 0.83099 0.0
C266 C 0.89385 0.87085 0.86001 0.0
C267 C 0.87218 0.89651 0.85355 0.0
C268 C 0.91358 0.83305 0.81125 0.0
C269 C 0.95386 0.87738 0.84349 0.0
C270 C 0.77159 0.93598 0.9168 0.0
C271 C 0.75661 0.92538 0.94709 0.0
C272 C 0.77313 0.90297 0.96773 0.0
C273 C 0.80232 0.88918 0.95732 0.0
C274 C 0.81568 0.89786 0.92586 0.0
C275 C 0.80121 0.92197 0.90682 0.0
C276 C 0.81997 0.92875 0.87469 0.0
C277 C 0.84699 0.9037 0.87703 0.0
C278 C 0.84407 0.88546 0.90695 0.0
C279 C 0.7964 0.92012 0.84354 0.0
C280 C 0.83429 0.96616 0.87738 0.0
H281 H 0.94841 0.81164 0.87015 0.0
H282 H 0.88607 0.77463 0.97126 0.0
H283 H 0.89994 0.85367 0.98208 0.0
H284 H 0.86566 0.87831 0.97874 0.0
H285 H 0.86143 0.83741 0.99814 0.0
H286 H 0.83001 0.79381 0.91753 0.0
H287 H 0.8294 0.79555 0.96344 0.0
H288 H 0.80922 0.82601 0.9389 0.0
H289 H 0.94297 0.89168 0.76704 0.0
H290 H 0.87193 0.96813 0.75849 0.0
H291 H 0.84753 0.95134 0.81107 0.0
H292 H 0.88955 0.83073 0.79704 0.0
H293 H 0.93334 0.83013 0.79239 0.0
H294 H 0.91318 0.81131 0.8281 0.0
H295 H 0.95749 0.90525 0.8494 0.0
H296 H 0.96023 0.8652 0.86743 0.0
H297 H 0.9717 0.87054 0.82363 0.0
H298 H 0.96366 0.7614 0.89938 0.0
C299 C 0.93437 0.80439 0.89189 0.0
C300 C 0.74883 0.12461 0.45218 0.0
C301 C 0.7655 0.09657 0.43967 0.0
C302 C 0.75403 0.07911 0.40923 0.0
C303 C 0.70925 0.11635 0.40462 0.0
C304 C 0.72058 0.13389 0.43433 0.0
C305 C 0.69843 0.16173 0.44457 0.0
H306 H 0.56349 0.24812 0.40811 0.0
C307 C 0.679 0.13142 0.39264 0.0
C308 C 0.67246 0.15821 0.41589 0.0
H309 H 0.62772 0.26292 0.49759 0.0
H310 H 0.66111 0.21848 0.47583 0.0
H311 H 0.55617 0.17069 0.41132 0.0
H312 H 0.61942 0.23597 0.35261 0.0
H313 H 0.60424 0.20211 0.32493 0.0
H314 H 0.57582 0.22967 0.34492 0.0
H315 H 0.54189 0.18866 0.37281 0.0
H316 H 0.56051 0.14821 0.37233 0.0
C317 C 0.68367 0.15347 0.47963 0.0
C318 C 0.71873 0.1962 0.44439 0.0
C319 C 0.61746 0.08139 0.28526 0.0
C320 C 0.588 0.08958 0.26895 0.0
C321 C 0.57169 0.11785 0.28167 0.0
C322 C 0.58381 0.13711 0.31047 0.0
C323 C 0.61265 0.12816 0.32713 0.0
C324 C 0.62916 0.10091 0.31443 0.0
C325 C 0.65923 0.09521 0.33605 0.0
C326 C 0.65769 0.12326 0.36383 0.0
C327 C 0.63037 0.1424 0.35833 0.0
C328 C 0.65471 0.05928 0.3507 0.0
C329 C 0.68987 0.10073 0.31363 0.0
C330 C 0.58439 0.24171 0.42354 0.0
C331 C 0.59248 0.25914 0.45498 0.0
C332 C 0.62078 0.25025 0.47324 0.0
C333 C 0.64006 0.22417 0.46067 0.0
C334 C 0.6309 0.20651 0.42961 0.0
C335 C 0.60337 0.21549 0.41178 0.0
C336 C 0.59605 0.1934 0.38011 0.0
C337 C 0.62381 0.16963 0.38154 0.0
C338 C 0.64449 0.17746 0.41035 0.0
C339 C 0.56186 0.17432 0.38397 0.0
C340 C 0.59873 0.21627 0.34885 0.0
H341 H 0.71872 0.07427 0.36879 0.0
H342 H 0.75697 0.13819 0.47575 0.0
H343 H 0.73414 0.19745 0.42127 0.0
H344 H 0.70327 0.21817 0.44344 0.0
H345 H 0.73542 0.19964 0.46724 0.0
H346 H 0.6782 0.12557 0.48142 0.0
H347 H 0.70108 0.16199 0.50092 0.0
H348 H 0.65992 0.16483 0.48385 0.0
H349 H 0.63059 0.05986 0.27609 0.0
H350 H 0.54939 0.1252 0.26918 0.0
H351 H 0.57 0.15812 0.31872 0.0
H352 H 0.62843 0.05289 0.35636 0.0
H353 H 0.66267 0.03943 0.33224 0.0
H354 H 0.66792 0.05719 0.37537 0.0
H355 H 0.68645 0.12138 0.29554 0.0
H356 H 0.71235 0.10919 0.32863 0.0
H357 H 0.69446 0.07726 0.29824 0.0
H358 H 0.76659 0.05752 0.39916 0.0
C359 C 0.72619 0.08887 0.39163 0.0
C360 C 0.41973 0.63803 0.26975 0.0
C361 C 0.40805 0.60829 0.28532 0.0
C362 C 0.38252 0.58754 0.26869 0.0
C363 C 0.38092 0.62645 0.22222 0.0
C364 C 0.40618 0.64632 0.23838 0.0
C365 C 0.41641 0.67698 0.21885 0.0
H366 H 0.395 0.77802 0.08686 0.0
C367 C 0.37197 0.6432 0.19041 0.0
C368 C 0.39266 0.67277 0.18851 0.0
H369 H 0.4636 0.79161 0.17303 0.0
H370 H 0.44397 0.73843 0.1941 0.0
H371 H 0.33269 0.75016 0.13236 0.0
H372 H 0.40275 0.6956 0.07359 0.0
H373 H 0.36301 0.67636 0.06551 0.0
H374 H 0.37213 0.71963 0.05365 0.0
H375 H 0.33326 0.75034 0.08649 0.0
H376 H 0.31165 0.71663 0.10828 0.0
C377 C 0.41072 0.70924 0.24166 0.0
C378 C 0.45249 0.67346 0.20783 0.0
C379 C 0.27585 0.5942 0.11612 0.0
C380 C 0.26061 0.60438 0.08595 0.0
C381 C 0.27398 0.63361 0.07022 0.0
C382 C 0.30172 0.65244 0.08455 0.0
C383 C 0.3162 0.64211 0.11505 0.0
C384 C 0.30343 0.61312 0.12999 0.0
C385 C 0.32176 0.60563 0.16223 0.0
C386 C 0.34739 0.6352 0.16462 0.0
C387 C 0.3441 0.65666 0.13697 0.0
C388 C 0.29751 0.60667 0.1922 0.0
C389 C 0.33756 0.57113 0.15653 0.0
C390 C 0.4054 0.76962 0.11051 0.0
C391 C 0.43118 0.7891 0.12815 0.0
C392 C 0.44424 0.777 0.15858 0.0
C393 C 0.43257 0.74603 0.171 0.0
C394 C 0.40697 0.72688 0.15336 0.0
C395 C 0.39366 0.73856 0.12366 0.0
C396 C 0.36611 0.71444 0.10907 0.0
C397 C 0.3652 0.68672 0.13517 0.0
C398 C 0.38931 0.69443 0.16085 0.0
C399 C 0.33414 0.73372 0.10871 0.0
C400 C 0.37621 0.70081 0.07344 0.0
H401 H 0.34953 0.57972 0.22597 0.0
H402 H 0.43897 0.65489 0.28179 0.0
H403 H 0.45699 0.64643 0.20115 0.0
H404 H 0.45865 0.68721 0.18452 0.0
H405 H 0.47015 0.68238 0.22875 0.0
H406 H 0.39168 0.70403 0.26109 0.0
H407 H 0.43366 0.71883 0.25562 0.0
H408 H 0.40111 0.73006 0.227 0.0
H409 H 0.26604 0.57234 0.12939 0.0
H410 H 0.26306 0.64186 0.04676 0.0
H411 H 0.31072 0.67442 0.07145 0.0
H412 H 0.28006 0.62702 0.18895 0.0
H413 H 0.28277 0.5821 0.19356 0.0
H414 H 0.30981 0.61286 0.21723 0.0
H415 H 0.34646 0.56821 0.12994 0.0
H416 H 0.35953 0.56878 0.17305 0.0
H417 H 0.31951 0.54946 0.16068 0.0
H418 H 0.37344 0.56405 0.27962 0.0
C419 C 0.36887 0.59649 0.2373 0.0
C420 C 0.06876 0.28936 0.59554 0.0
C421 C 0.07733 0.27383 0.56411 0.0
C422 C 0.098 0.29236 0.54218 0.0
C423 C 0.10635 0.33812 0.5851 0.0
C424 C 0.08346 0.32177 0.60543 0.0
C425 C 0.0794 0.34171 0.63876 0.0
H426 H 0.13762 0.47106 0.74847 0.0
C427 C 0.12131 0.36838 0.60441 0.0
C428 C 0.1053 0.3711 0.63584 0.0
H429 H 0.05425 0.40014 0.7631 0.0
H430 H 0.06206 0.37376 0.70705 0.0
H431 H 0.11824 0.48564 0.66803 0.0
H432 H 0.18307 0.42275 0.72063 0.0
H433 H 0.20247 0.43037 0.68194 0.0
H434 H 0.1956 0.46569 0.71124 0.0
H435 H 0.15431 0.50127 0.6923 0.0
H436 H 0.15642 0.48864 0.64764 0.0
C437 C 0.0442 0.35432 0.639 0.0
C438 C 0.0872 0.31876 0.66865 0.0
C439 C 0.22796 0.42608 0.56276 0.0
C440 C 0.25023 0.45107 0.57823 0.0
C441 C 0.24134 0.46849 0.60842 0.0
C442 C 0.2114 0.4602 0.62393 0.0
C443 C 0.19022 0.43369 0.60951 0.0
C444 C 0.19819 0.41763 0.57901 0.0
C445 C 0.17299 0.38936 0.56822 0.0
C446 C 0.14926 0.3905 0.5978 0.0
C447 C 0.15967 0.4164 0.62189 0.0
C448 C 0.15643 0.39864 0.53412 0.0
C449 C 0.19078 0.3557 0.5663 0.0
C450 C 0.12068 0.45011 0.73965 0.0
C451 C 0.09531 0.43776 0.7605 0.0
C452 C 0.07438 0.40989 0.74792 0.0
C453 C 0.07874 0.39482 0.71519 0.0
C454 C 0.10437 0.40761 0.69478 0.0
C455 C 0.12453 0.43505 0.70717 0.0
C456 C 0.15064 0.44554 0.68258 0.0
C457 C 0.14291 0.42002 0.65312 0.0
C458 C 0.1158 0.39768 0.66018 0.0
C459 C 0.14495 0.48229 0.6721 0.0
C460 C 0.18477 0.44115 0.69981 0.0
H461 H 0.12883 0.33654 0.535 0.0
H462 H 0.05285 0.2757 0.61286 0.0
H463 H 0.1091 0.30415 0.66294 0.0
H464 H 0.09338 0.33325 0.69283 0.0
H465 H 0.06619 0.30021 0.67301 0.0
H466 H 0.03701 0.36288 0.61331 0.0
H467 H 0.026 0.33368 0.64586 0.0
H468 H 0.04193 0.37663 0.65657 0.0
H469 H 0.23435 0.41223 0.53962 0.0
H470 H 0.25812 0.48798 0.62056 0.0
H471 H 0.20646 0.47407 0.64719 0.0
H472 H 0.15785 0.42665 0.53098 0.0
H473 H 0.16841 0.38679 0.51178 0.0
H474 H 0.12975 0.39116 0.53298 0.0
H475 H 0.20741 0.35407 0.589 0.0
H476 H 0.17401 0.3327 0.56631 0.0
H477 H 0.20596 0.35417 0.54309 0.0
H478 H 0.10464 0.28104 0.51779 0.0
C479 C 0.11232 0.32441 0.55237 0.0
O480 O 0.96382 0.03577 0.5018 0.0
Mn481 Mn 0.00704 0.00968 0.5091 0.0
O482 O 0.9364 0.00886 0.45702 0.0
Mn483 Mn 0.9695 0.98119 0.44478 0.0
O484 O 0.05119 0.98459 0.51612 0.0
O485 O 0.02818 0.05162 0.5357 0.0
Mn486 Mn 0.04564 0.03598 0.57357 0.0
O487 O 0.98559 0.98863 0.55329 0.0
O488 O 0.0816 0.01611 0.55626 0.0
O489 O 0.02835 0.02949 0.46372 0.0
O490 O 1.00308 0.99971 0.41945 0.0
O491 O 0.03946 0.08073 0.58299 0.0
O492 O 0.01765 0.00803 0.59761 0.0
C493 C 0.97591 0.93684 0.47202 0.0
C494 C 0.93853 0.03125 0.48145 0.0
C495 C 0.07849 0.99269 0.53277 0.0
C496 C 0.02553 0.08025 0.55296 0.0
C497 C 0.99287 0.99033 0.58548 0.0
C498 C 0.02546 0.02104 0.43142 0.0
O499 O 0.98691 0.96718 0.48303 0.0
O500 O 0.96092 0.93524 0.44248 0.0
O501 O 0.4946 0.01629 0.95531 0.0
Mn502 Mn 0.50951 0.01492 0.00747 0.0
O503 O 0.49138 0.96212 0.9341 0.0
Mn504 Mn 0.51235 0.94462 0.97063 0.0
O505 O 0.52552 0.01459 0.05903 0.0
O506 O 0.52046 0.06562 0.00751 0.0
Mn507 Mn 0.50001 0.08443 0.0422 0.0
O508 O 0.45988 0.02166 0.02227 0.0
O509 O 0.51736 0.0671 0.08131 0.0
O510 O 0.55898 0.0064 0.9933 0.0
O511 O 0.55728 0.95201 0.97283 0.0
O512 O 0.52214 0.11995 0.0226 0.0
O513 O 0.45538 0.07707 0.03495 0.0
C514 C 0.48699 0.93448 0.01591 0.0
C515 C 0.48764 0.99361 0.9311 0.0
C516 C 0.52726 0.03724 0.08386 0.0
C517 C 0.53184 0.09628 1.00194 0.0
C518 C 0.44246 0.04718 0.02969 0.0
C519 C 0.57328 0.97978 0.98202 0.0
O520 O 0.49786 0.96454 0.00778 0.0
O521 O 0.49242 0.9101 0.99396 0.0
O522 O 0.55018 0.52253 0.49267 0.0
Mn523 Mn 0.50311 0.50975 0.51148 0.0
O524 O 0.55024 0.48861 0.44471 0.0
Mn525 Mn 0.50658 0.47154 0.44307 0.0
O526 O 0.45579 0.49517 0.52859 0.0
O527 O 0.52103 0.51566 0.56012 0.0
Mn528 Mn 0.49387 0.54006 0.58348 0.0
O529 O 0.49011 0.56144 0.51038 0.0
O530 O 0.4538 0.51501 0.58312 0.0
O531 O 0.51655 0.45866 0.51372 0.0
O532 O 0.49767 0.43219 0.46552 0.0
O533 O 0.52567 0.53115 0.61449 0.0
O534 O 0.49391 0.58169 0.5649 0.0
C535 C 0.47056 0.50645 0.43355 0.0
C536 C 0.56465 0.51032 0.46619 0.0
C537 C 0.44094 0.4983 0.55713 0.0
C538 C 0.53673 0.51348 0.58906 0.0
C539 C 0.48867 0.5858 0.53335 0.0
C540 C 0.50994 0.43117 0.49536 0.0
O541 O 0.48506 0.50379 0.46301 0.0
O542 O 0.47851 0.48473 0.40989 0.0
O543 O 0.95771 0.49581 0.00563 0.0
Mn544 Mn 0.00791 0.51403 0.01238 0.0
O545 O 0.94546 0.50646 0.95145 0.0
Mn546 Mn 0.98367 0.53098 0.94426 0.0
O547 O 0.0569 0.53297 0.01958 0.0
O548 O 0.99954 0.51789 0.06459 0.0
Mn549 Mn 0.03238 0.49421 0.07997 0.0
O550 O 0.02228 0.46227 0.013 0.0
O551 O 0.07283 0.51506 0.07053 0.0
O552 O 0.99459 0.56598 0.01125 0.0
O553 O 0.98408 0.57601 0.95654 0.0
O554 O 0.01317 0.50685 0.11858 0.0
O555 O 0.02647 0.44905 0.06753 0.0
C556 C 0.02388 0.50789 0.92736 0.0
C557 C 0.93727 0.49504 0.98 0.0
C558 C 0.07868 0.53077 0.0434 0.0
C559 C 0.99361 0.5208 0.0975 0.0
C560 C 0.02613 0.4403 0.03619 0.0
C561 C 0.98734 0.58621 0.98741 0.0
O562 O 0.01772 0.51025 0.96033 0.0
O563 O 1.00394 0.52097 0.90598 0.0
H564 H 0.09833 0.04853 0.29428 0.0
H565 H 0.08389 0.15263 0.32592 0.0
H566 H 0.06278 0.13424 0.3804 0.0
H567 H 0.04318 0.08783 0.41755 0.0
H568 H 0.05795 0.98403 0.38566 0.0
H569 H 0.08469 1.00297 0.33396 0.0
C570 C 0.09119 0.0673 0.31329 0.0
C571 C 0.09218 0.10194 0.30532 0.0
C572 C 0.07907 0.05655 0.34499 0.0
C573 C 0.08262 0.12569 0.33062 0.0
C574 C 0.0707 0.11522 0.36209 0.0
C575 C 0.05326 0.06954 0.39983 0.0
C576 C 0.04883 0.03455 0.40573 0.0
C577 C 0.06808 0.08062 0.36939 0.0
C578 C 0.06131 0.01113 0.38193 0.0
C579 C 0.07639 0.02192 0.35212 0.0
H580 H 0.47888 0.97735 0.77422 0.0
H581 H 0.37791 0.94958 0.79729 0.0
H582 H 0.38753 0.96991 0.85656 0.0
H583 H 0.42666 0.98743 0.90348 0.0
H584 H 0.52752 0.01526 0.88124 0.0
H585 H 0.51595 0.00414 0.82003 0.0
C586 C 0.45897 0.97622 0.79221 0.0
C587 C 0.42784 0.96164 0.78153 0.0
C588 C 0.46461 0.98827 0.82634 0.0
C589 C 0.40208 0.96068 0.80491 0.0
C590 C 0.40756 0.97227 0.83883 0.0
C591 C 0.44558 0.9928 0.88498 0.0
C592 C 0.47766 1.00285 0.89663 0.0
C593 C 0.43891 0.98528 0.85004 0.0
C594 C 0.5024 0.00855 0.87266 0.0
C595 C 0.49593 1.00145 0.83775 0.0
H596 H 0.62776 0.46067 0.69317 0.0
H597 H 0.53428 0.41013 0.71748 0.0
H598 H 0.5126 0.42082 0.6613 0.0
H599 H 0.51601 0.4536 0.61025 0.0
H600 H 0.60375 0.51575 0.59163 0.0
H601 H 0.63238 0.49032 0.63897 0.0
C602 C 0.60263 0.45202 0.6863 0.0
C603 C 0.58294 0.43446 0.70995 0.0
C604 C 0.58941 0.45993 0.65431 0.0
C605 C 0.55056 0.423 0.69998 0.0
C606 C 0.5379 0.42927 0.6677 0.0
C607 C 0.542 0.46005 0.61543 0.0
C608 C 0.55787 0.48627 0.59756 0.0
C609 C 0.55672 0.44856 0.64511 0.0
C610 C 0.59124 0.49516 0.60475 0.0
C611 C 0.60723 0.48138 0.63252 0.0
H612 H 0.93767 0.61641 0.206 0.0
H613 H 0.90072 0.51845 0.2402 0.0
H614 H 0.91365 0.49196 0.18569 0.0
H615 H 0.94414 0.49415 0.1328 0.0
H616 H 0.98801 0.58949 0.10094 0.0
H617 H 0.96354 0.61938 0.14945 0.0
C618 C 0.93244 0.58925 0.2017 0.0
C619 C 0.91832 0.5697 0.22785 0.0
C620 C 0.94116 0.5736 0.17039 0.0
C621 C 0.91106 0.53462 0.22093 0.0
C622 C 0.91871 0.51919 0.18963 0.0
C623 C 0.94683 0.52174 0.13551 0.0
C624 C 0.96722 0.5397 0.11298 0.0
C625 C 0.93464 0.53819 0.16465 0.0
C626 C 0.97155 0.57526 0.11731 0.0
C627 C 0.95823 0.59218 0.1456 0.0
H628 H 0.31197 0.05081 0.11001 0.0
H629 H 0.28393 0.10808 0.02293 0.0
H630 H 0.33531 0.09706 0.9964 0.0
H631 H 0.39078 0.0751 0.99925 0.0
H632 H 0.41602 0.01183 0.08171 0.0
H633 H 0.36247 0.0198 0.10746 0.0
C634 C 0.31613 0.06041 0.08488 0.0
C635 C 0.29344 0.0817 0.06978 0.0
C636 C 0.34543 0.05238 0.06834 0.0
C637 C 0.30076 0.09335 0.03691 0.0
C638 C 0.33027 0.08651 0.02104 0.0
C639 C 0.384 0.062 0.02216 0.0
C640 C 0.40718 0.0425 0.03828 0.0
C641 C 0.3531 0.06665 0.03677 0.0
C642 C 0.39835 0.02628 0.06836 0.0
C643 C 0.36789 0.03132 0.08337 0.0
H644 H 0.22669 0.96837 0.53143 0.0
H645 H 0.19362 0.88271 0.58938 0.0
H646 H 0.13614 0.89285 0.57551 0.0
H647 H 0.09572 0.9318 0.55429 0.0
H648 H 0.12928 0.01791 0.49721 0.0
H649 H 0.18604 1.00157 0.50227 0.0
C650 C 0.20679 0.95155 0.54022 0.0
C651 C 0.21394 0.92504 0.56144 0.0
C652 C 0.17397 0.95762 0.53217 0.0
C653 C 0.18832 0.90327 0.57295 0.0
C654 C 0.15557 0.90913 0.56511 0.0
C655 C 0.11536 0.9459 0.54164 0.0
C656 C 0.10854 0.97558 0.5249 0.0
C657 C 0.14807 0.93689 0.54563 0.0
C658 C 0.13412 0.99452 0.50954 0.0
C659 C 0.16658 0.98549 0.51289 0.0
H660 H 0.79163 0.43003 0.9942 0.0
H661 H 0.78418 0.48022 0.89783 0.0
H662 H 0.83857 0.50548 0.90646 0.0
H663 H 0.88956 0.51012 0.93676 0.0
H664 H 0.90473 0.45483 0.02817 0.0
H665 H 0.84607 0.43431 0.02549 0.0
C666 C 0.80179 0.44622 0.97484 0.0
C667 C 0.78252 0.45332 0.94561 0.0
C668 C 0.83481 0.45939 0.97865 0.0
C669 C 0.79676 0.47498 0.92141 0.0
C670 C 0.82856 0.48919 0.92589 0.0
C671 C 0.88057 0.49327 0.95623 0.0
C672 C 0.90195 0.48338 0.98219 0.0
C673 C 0.84785 0.481 0.95385 0.0
C674 C 0.88899 0.46256 0.00764 0.0
C675 C 0.8555 0.45081 0.00599 0.0
H676 H 0.70508 0.53851 0.4058 0.0
H677 H 0.72775 0.58144 0.50734 0.0
H678 H 0.67039 0.56945 0.5232 0.0
H679 H 0.61328 0.54474 0.50815 0.0
H680 H 0.59498 0.49968 0.40634 0.0
H681 H 0.65122 0.51326 0.39166 0.0
C682 C 0.69809 0.54459 0.4318 0.0
C683 C 0.72134 0.56042 0.45533 0.0
C684 C 0.66547 0.53697 0.44095 0.0
C685 C 0.71068 0.56934 0.48839 0.0
C686 C 0.67777 0.56229 0.4976 0.0
C687 C 0.6216 0.53816 0.48274 0.0
C688 C 0.59945 0.52113 0.45855 0.0
C689 C 0.65482 0.54594 0.47406 0.0
C690 C 0.61102 0.51263 0.42578 0.0
C691 C 0.6434 0.52044 0.41713 0.0
H692 H 0.11461 0.31657 0.03748 0.0
H693 H 0.0306 0.27337 0.09024 0.0
H694 H 1.00023 0.32255 0.07802 0.0
H695 H 0.99903 0.38083 0.05784 0.0
H696 H 0.08018 0.42284 1.00108 0.0
H697 H 0.10923 0.37067 0.00792 0.0
C698 C 0.08945 0.31729 0.04578 0.0
C699 C 0.07585 0.29123 0.06621 0.0
C700 C 0.0712 0.34551 0.0375 0.0
C701 C 0.04288 0.29334 0.07617 0.0
C702 C 0.02504 0.32143 0.06869 0.0
C703 C 0.02246 0.37796 0.04567 0.0
C704 C 0.03712 0.40555 0.02846 0.0
C705 C 0.03917 0.34806 0.05015 0.0
C706 C 0.0679 0.40173 0.01362 0.0
C707 C 0.0848 0.37207 0.01814 0.0
H708 H 0.61656 0.20712 0.94716 0.0
H709 H 0.54315 0.1963 0.86501 0.0
H710 H 0.52285 0.14262 0.88649 0.0
H711 H 0.51937 0.1045 0.93509 0.0
H712 H 0.59593 0.11303 0.01285 0.0
H713 H 0.62335 0.16042 0.98433 0.0
C714 C 0.59681 0.19324 0.9328 0.0
C715 C 0.58025 0.20803 0.90562 0.0
C716 C 0.58617 0.16112 0.94403 0.0
C717 C 0.55508 0.1878 0.88772 0.0
C718 C 0.54373 0.1563 0.89946 0.0
C719 C 0.54314 0.11539 0.94449 0.0
C720 C 0.55558 0.10573 0.97605 0.0
C721 C 0.55811 0.1435 0.92858 0.0
C722 C 0.58614 0.12007 0.98835 0.0
C723 C 0.60137 0.14772 0.9725 0.0
H724 H 0.91474 0.79783 0.50004 0.0
H725 H 0.99944 0.76746 0.44419 0.0
H726 H 0.02393 0.82523 0.45028 0.0
H727 H 0.01633 0.88619 0.46207 0.0
H728 H 0.93346 0.91595 0.52006 0.0
H729 H 0.91444 0.85621 0.52458 0.0
C730 C 0.93905 0.80319 0.4901 0.0
C731 C 0.95428 0.77805 0.47027 0.0
C732 C 0.95367 0.83652 0.49449 0.0
C733 C 0.98598 0.78629 0.45796 0.0
C734 C 1.0004 0.8194 0.46184 0.0
C735 C 0.99522 0.87943 0.47745 0.0
C736 C 0.97646 0.90539 0.49095 0.0
C737 C 0.9838 0.84504 0.47876 0.0
C738 C 0.94868 0.8964 0.51006 0.0
C739 C 0.93737 0.86221 0.51191 0.0
H740 H 0.46105 0.74023 0.51601 0.0
H741 H 0.40061 0.71652 0.60214 0.0
H742 H 0.41146 0.65652 0.59493 0.0
H743 H 0.44026 0.61186 0.56709 0.0
H744 H 0.50656 0.63365 0.48536 0.0
H745 H 0.49047 0.69317 0.48669 0.0
C746 C 0.45052 0.72174 0.53312 0.0
C747 C 0.43044 0.73253 0.5599 0.0
C748 C 0.4575 0.68711 0.5292 0.0
C749 C 0.41653 0.70864 0.58181 0.0
C750 C 0.4225 0.6744 0.57751 0.0
C751 C 0.4509 0.62952 0.54913 0.0
C752 C 0.47455 0.61853 0.52619 0.0
C753 C 0.44315 0.66351 0.55162 0.0
C754 C 0.48801 0.64147 0.50296 0.0
C755 C 0.47917 0.67555 0.50418 0.0
H756 H 0.92124 0.89923 0.69582 0.0
H757 H 0.93309 0.99563 0.75247 0.0
H758 H 0.95678 0.02247 0.70294 0.0
H759 H 0.97517 0.01901 0.64446 0.0
H760 H 0.96452 0.92421 0.58539 0.0
H761 H 0.93864 0.8964 0.63436 0.0
C762 C 0.9293 0.92601 0.69721 0.0
C763 C 0.92557 0.94541 0.72793 0.0
C764 C 0.94261 0.94164 0.66807 0.0
C765 C 0.93571 0.98018 0.72925 0.0
C766 C 0.94916 0.99559 0.70089 0.0
C767 C 0.9668 0.99229 0.64207 0.0
C768 C 0.97162 0.97376 0.61129 0.0
C769 C 0.95267 0.97666 0.67026 0.0
C770 C 0.96061 0.9392 0.60859 0.0
C771 C 0.94623 0.92326 0.63679 0.0
H772 H 0.61861 0.06733 0.21111 0.0
H773 H 0.52434 0.0661 0.25951 0.0
H774 H 0.49731 0.0426 0.20694 0.0
H775 H 0.4993 0.03174 0.14496 0.0
H776 H 0.59269 0.03338 0.09546 0.0
H777 H 0.62135 0.04648 0.15056 0.0
C778 C 0.5923 0.06104 0.21033 0.0
C779 C 0.5734 0.06919 0.23894 0.0
C780 C 0.57674 0.04765 0.17973 0.0
C781 C 0.53931 0.06086 0.23758 0.0
C782 C 0.52382 0.0473 0.20755 0.0
C783 C 0.52599 0.03336 0.1466 0.0
C784 C 0.54394 0.03102 0.11649 0.0
C785 C 0.54209 0.04184 0.17813 0.0
C786 C 0.57847 0.03417 0.11855 0.0
C787 C 0.5948 0.04227 0.14998 0.0
H788 H 0.37834 0.57795 0.33948 0.0
H789 H 0.47305 0.61621 0.30453 0.0
H790 H 0.49959 0.59684 0.35558 0.0
H791 H 0.49745 0.5604 0.40443 0.0
H792 H 0.40475 0.51447 0.43516 0.0
H793 H 0.37572 0.54617 0.39251 0.0
C794 C 0.40476 0.58213 0.34307 0.0
C795 C 0.42355 0.59839 0.31791 0.0
C796 C 0.42022 0.56981 0.37211 0.0
C797 C 0.45774 0.60418 0.32345 0.0
C798 C 0.47308 0.59294 0.35266 0.0
C799 C 0.47074 0.55882 0.4029 0.0
C800 C 0.45309 0.5358 0.42314 0.0
C801 C 0.45473 0.57485 0.37658 0.0
C802 C 0.41865 0.53281 0.42036 0.0
C803 C 0.4022 0.55031 0.39542 0.0
H804 H 0.07736 0.40927 0.82109 0.0
H805 H 0.10119 0.50591 0.77612 0.0
H806 H 0.09136 0.53565 0.83001 0.0
H807 H 0.06816 0.53523 0.88657 0.0
H808 H 0.03644 0.44051 0.93006 0.0
H809 H 0.0587 0.40894 0.88124 0.0
C810 C 0.0805 0.43681 0.82315 0.0
C811 C 0.09011 0.45517 0.79436 0.0
C812 C 0.07395 0.4541 0.85432 0.0
C813 C 0.09438 0.4909 0.79775 0.0
C814 C 0.08867 0.50806 0.82864 0.0
C815 C 0.06765 0.50761 0.88614 0.0
C816 C 0.05099 0.49019 0.9119 0.0
C817 C 0.07778 0.49002 0.85679 0.0
C818 C 0.04977 0.45447 0.91088 0.0
C819 C 0.06167 0.43649 0.88244 0.0
H820 H 0.7266 0.98733 0.94934 0.0
H821 H 0.70838 0.87947 0.96258 0.0
H822 H 0.65211 0.8881 0.97778 0.0
H823 H 0.6078 0.92461 0.9862 0.0
H824 H 0.62114 0.03242 0.9715 0.0
H825 H 0.67973 0.02573 0.95915 0.0
C826 C 0.71018 0.96586 0.95553 0.0
C827 C 0.72201 0.93276 0.95524 0.0
C828 C 0.67712 0.97098 0.96435 0.0
C829 C 0.70034 0.90521 0.96325 0.0
C830 C 0.66802 0.91007 0.97188 0.0
C831 C 0.62332 0.94691 0.98031 0.0
C832 C 0.60979 0.97894 0.97938 0.0
C833 C 0.6562 0.94267 0.97249 0.0
C834 C 0.63077 0.00745 0.97246 0.0
C835 C 0.66421 0.0035 0.96507 0.0
H836 H 0.82591 0.12881 0.45507 0.0
H837 H 0.76823 0.03438 0.46514 0.0
H838 H 0.81687 0.00705 0.48488 0.0
H839 H 0.87671 0.0075 0.49041 0.0
H840 H 0.93599 0.1005 0.47925 0.0
H841 H 0.88608 0.1312 0.4694 0.0
C842 C 0.82401 0.10256 0.46255 0.0
C843 C 0.79368 0.08345 0.45846 0.0
C844 C 0.85242 0.08674 0.47333 0.0
C845 C 0.79141 0.0494 0.46793 0.0
C846 C 0.8192 0.03376 0.4791 0.0
C847 C 0.87855 0.03475 0.48693 0.0
C848 C 0.90975 0.05185 0.48564 0.0
C849 C 0.84997 0.0518 0.48064 0.0
C850 C 0.9121 0.08701 0.48079 0.0
C851 C 0.88358 0.1044 0.47476 0.0
H852 H 0.2056 0.62923 0.0568 0.0
H853 H 0.24746 0.53544 0.08353 0.0
H854 H 0.19527 0.504 0.06979 0.0
H855 H 0.13636 0.50387 0.05603 0.0
H856 H 0.09433 0.59625 0.02637 0.0
H857 H 0.14822 0.62744 0.03447 0.0
C858 C 0.2036 0.60182 0.05884 0.0
C859 C 0.23034 0.58495 0.07208 0.0
C860 C 0.17347 0.58365 0.05042 0.0
C861 C 0.22709 0.54935 0.07452 0.0
C862 C 0.19728 0.53123 0.06644 0.0
C863 C 0.13925 0.53069 0.05063 0.0
C864 C 0.11165 0.54789 0.0408 0.0
C865 C 0.1701 0.54825 0.05534 0.0
C866 C 0.11545 0.58253 0.0337 0.0
C867 C 0.14615 0.60037 0.03865 0.0
H868 H 0.30618 0.43954 0.61159 0.0
H869 H 0.26969 0.47591 0.51675 0.0
H870 H 0.32638 0.49096 0.49947 0.0
H871 H 0.38653 0.49796 0.5142 0.0
H872 H 0.42103 0.46209 0.61038 0.0
H873 H 0.36525 0.44193 0.62398 0.0
C874 C 0.31076 0.45045 0.58697 0.0
C875 C 0.28405 0.45691 0.56554 0.0
C876 C 0.34314 0.45901 0.57747 0.0
C877 C 0.29005 0.47075 0.53359 0.0
C878 C 0.32241 0.47941 0.52383 0.0
C879 C 0.38177 0.4851 0.53774 0.0
C880 C 0.4078 0.4816 0.56138 0.0
C881 C 0.34922 0.47421 0.54587 0.0
C882 C 0.40134 0.46523 0.59196 0.0
C883 C 0.36945 0.45379 0.59981 0.0
H884 H 0.98433 0.7411 0.96177 0.0
H885 H 0.88116 0.71141 0.94713 0.0
H886 H 0.89018 0.65517 0.96816 0.0
H887 H 0.92821 0.61231 0.98464 0.0
H888 H 0.03137 0.64062 0.99928 0.0
H889 H 0.02159 0.69953 0.98569 0.0
C890 C 0.96385 0.72236 0.96353 0.0
C891 C 0.93211 0.73044 0.95262 0.0
C892 C 0.96917 0.68991 0.97619 0.0
C893 C 0.90577 0.70596 0.95538 0.0
C894 C 0.91092 0.67373 0.96743 0.0
C895 C 0.94829 0.6318 0.98647 0.0
C896 C 0.98035 0.62231 0.99397 0.0
C897 C 0.94255 0.66522 0.9774 0.0
C898 C 0.00634 0.6475 0.99481 0.0
C899 C 1.00079 0.68104 0.98627 0.0
H900 H 0.39959 0.84027 0.09842 0.0
H901 H 0.49604 0.80997 0.12765 0.0
H902 H 0.52132 0.86138 0.10492 0.0
H903 H 0.51712 0.90935 0.06847 0.0
H904 H 0.42244 0.93608 0.03152 0.0
H905 H 0.3952 0.893 0.06662 0.0
C906 C 0.4261 0.84504 0.09987 0.0
C907 C 0.44581 0.82121 0.11473 0.0
C908 C 0.44076 0.87445 0.08583 0.0
C909 C 0.48015 0.82798 0.1168 0.0
C910 C 0.49473 0.85741 0.10374 0.0
C911 C 0.49046 0.90691 0.06968 0.0
C912 C 0.4717 0.92586 0.04802 0.0
C913 C 0.47539 0.88031 0.08745 0.0
C914 C 0.43724 0.92212 0.04874 0.0
C915 C 0.42177 0.89688 0.06808 0.0
H916 H 0.01756 0.23658 0.55472 0.0
H917 H 0.12266 0.22802 0.55655 0.0
H918 H 0.11508 0.16717 0.54309 0.0
H919 H 0.07927 0.11577 0.53587 0.0
H920 H 0.97437 0.12091 0.54122 0.0
H921 H 0.98074 0.18351 0.54397 0.0
C922 C 0.03864 0.22125 0.55196 0.0
C923 C 0.07068 0.23676 0.55645 0.0
C924 C 0.03407 0.18579 0.54429 0.0
C925 C 0.09783 0.21669 0.55289 0.0
C926 C 0.09353 0.18191 0.54503 0.0
C927 C 0.0577 0.13068 0.53598 0.0
C928 C 0.02637 0.1138 0.53751 0.0
C929 C 0.06185 0.16617 0.54085 0.0
C930 C 0.99868 0.13332 0.53905 0.0
C931 C 1.00246 0.16911 0.54157 0.0
H932 H 0.61046 0.3185 0.49249 0.0
H933 H 0.5255 0.26034 0.44815 0.0
H934 H 0.49122 0.30712 0.46141 0.0
H935 H 0.48643 0.36684 0.4793 0.0
H936 H 0.56985 0.42469 0.52623 0.0
H937 H 0.60307 0.37515 0.51995 0.0
C938 C 0.58433 0.31561 0.48643 0.0
C939 C 0.57107 0.28611 0.46815 0.0
C940 C 0.56425 0.34251 0.49495 0.0
C941 C 0.53696 0.28314 0.46079 0.0
C942 C 0.51708 0.30979 0.46877 0.0
C943 C 0.51156 0.36822 0.48926 0.0
C944 C 0.52565 0.39938 0.50311 0.0
C945 C 0.53063 0.33993 0.48492 0.0
C946 C 0.55827 0.40089 0.51582 0.0
C947 C 0.57745 0.37269 0.5117 0.0
loop_
_geom_bond_atom_site_label_1
_geom_bond_atom_site_label_2
_geom_bond_distance
_geom_bond_site_symmetry_2
_ccdc_geom_bond_type
C0 C1 1.391 . S
C0 C4 1.391 . S
C0 H42 0.948 . S
C1 C0 1.391 . S
C1 C2 1.391 . S
C2 C1 1.391 . S
C2 H58 0.947 . S
C2 C59 1.392 . S
C3 C4 1.391 . S
C3 C7 1.397 . S
C3 C59 1.419 . S
C4 C0 1.391 . S
C4 C3 1.391 . S
C4 C5 1.399 . S
C5 C4 1.399 . S
C5 C8 1.396 . S
C5 C17 1.453 . S
C5 C18 1.684 . S
H6 C30 0.948 . S
C7 C3 1.397 . S
C7 C8 1.394 . S
C7 C26 1.723 . S
C8 C5 1.396 . S
C8 C7 1.394 . S
C8 C38 1.723 . S
H9 C32 0.947 . S
H10 C33 0.948 . S
H11 C39 0.982 . S
H12 C40 0.979 . S
H13 C40 0.980 . S
H14 C40 0.983 . S
H15 C39 0.979 . S
H16 C39 0.977 . S
C17 C5 1.453 . S
C17 H46 0.982 . S
C17 H47 0.979 . S
C17 H48 0.977 . S
C18 C5 1.684 . S
C18 H43 0.979 . S
C18 H44 0.980 . S
C18 H45 0.983 . S
C19 C20 1.391 . S
C19 C24 1.391 . S
C19 H49 0.948 . S
C20 C19 1.391 . S
C20 C21 1.391 . S
C21 C20 1.391 . S
C21 C22 1.392 . S
C21 H50 0.947 . S
C22 C21 1.392 . S
C22 C23 1.419 . S
C22 H51 0.948 . S
C23 C22 1.419 . S
C23 C24 1.391 . S
C23 C27 1.397 . S
C24 C19 1.391 . S
C24 C23 1.391 . S
C24 C25 1.399 . S
C25 C24 1.399 . S
C25 C26 1.396 . S
C25 C28 1.453 . S
C25 C29 1.684 . S
C26 C7 1.723 . S
C26 C25 1.396 . S
C26 C27 1.394 . S
C27 C23 1.397 . S
C27 C26 1.394 . S
C27 C37 1.723 . S
C28 C25 1.453 . S
C28 H52 0.982 . S
C28 H53 0.979 . S
C28 H54 0.977 . S
C29 C25 1.684 . S
C29 H55 0.979 . S
C29 H56 0.980 . S
C29 H57 0.983 . S
C30 H6 0.948 . S
C30 C31 1.391 . S
C30 C35 1.391 . S
C31 C30 1.391 . S
C31 C32 1.391 . S
C32 H9 0.947 . S
C32 C31 1.391 . S
C32 C33 1.392 . S
C33 H10 0.948 . S
C33 C32 1.392 . S
C33 C34 1.419 . S
C34 C33 1.419 . S
C34 C35 1.391 . S
C34 C38 1.397 . S
C35 C30 1.391 . S
C35 C34 1.391 . S
C35 C36 1.399 . S
C36 C35 1.399 . S
C36 C37 1.396 . S
C36 C39 1.453 . S
C36 C40 1.684 . S
C37 C27 1.723 . S
C37 C36 1.396 . S
C37 C38 1.394 . S
C38 C8 1.723 . S
C38 C34 1.397 . S
C38 C37 1.394 . S
C39 H11 0.982 . S
C39 H15 0.979 . S
C39 H16 0.977 . S
C39 C36 1.453 . S
C40 H12 0.979 . S
C40 H13 0.980 . S
C40 H14 0.983 . S
C40 C36 1.684 . S
H41 C59 0.948 . S
H42 C0 0.948 . S
H43 C18 0.979 . S
H44 C18 0.980 . S
H45 C18 0.983 . S
H46 C17 0.982 . S
H47 C17 0.979 . S
H48 C17 0.977 . S
H49 C19 0.948 . S
H50 C21 0.947 . S
H51 C22 0.948 . S
H52 C28 0.982 . S
H53 C28 0.979 . S
H54 C28 0.977 . S
H55 C29 0.979 . S
H56 C29 0.980 . S
H57 C29 0.983 . S
H58 C2 0.947 . S
C59 C2 1.392 . S
C59 C3 1.419 . S
C59 H41 0.948 . S
C60 C61 1.391 . S
C60 C64 1.391 . S
C60 H102 0.948 . S
C61 C60 1.391 . S
C61 C62 1.391 . S
C62 C61 1.391 . S
C62 H118 0.947 . S
C62 C119 1.392 . S
C63 C64 1.391 . S
C63 C67 1.397 . S
C63 C119 1.419 . S
C64 C60 1.391 . S
C64 C63 1.391 . S
C64 C65 1.399 . S
C65 C64 1.399 . S
C65 C68 1.396 . S
C65 C77 1.453 . S
C65 C78 1.684 . S
H66 C90 0.948 . S
C67 C63 1.397 . S
C67 C68 1.394 . S
C67 C86 1.723 . S
C68 C65 1.396 . S
C68 C67 1.394 . S
C68 C98 1.723 . S
H69 C92 0.947 . S
H70 C93 0.948 . S
H71 C99 0.982 . S
H72 C100 0.979 . S
H73 C100 0.980 . S
H74 C100 0.983 . S
H75 C99 0.979 . S
H76 C99 0.977 . S
C77 C65 1.453 . S
C77 H106 0.982 . S
C77 H107 0.979 . S
C77 H108 0.977 . S
C78 C65 1.684 . S
C78 H103 0.979 . S
C78 H104 0.980 . S
C78 H105 0.983 . S
C79 C80 1.391 . S
C79 C84 1.391 . S
C79 H109 0.948 . S
C80 C79 1.391 . S
C80 C81 1.391 . S
C81 C80 1.391 . S
C81 C82 1.392 . S
C81 H110 0.947 . S
C82 C81 1.392 . S
C82 C83 1.419 . S
C82 H111 0.948 . S
C83 C82 1.419 . S
C83 C84 1.391 . S
C83 C87 1.397 . S
C84 C79 1.391 . S
C84 C83 1.391 . S
C84 C85 1.399 . S
C85 C84 1.399 . S
C85 C86 1.396 . S
C85 C88 1.453 . S
C85 C89 1.684 . S
C86 C67 1.723 . S
C86 C85 1.396 . S
C86 C87 1.394 . S
C87 C83 1.397 . S
C87 C86 1.394 . S
C87 C97 1.723 . S
C88 C85 1.453 . S
C88 H112 0.982 . S
C88 H113 0.979 . S
C88 H114 0.977 . S
C89 C85 1.684 . S
C89 H115 0.979 . S
C89 H116 0.980 . S
C89 H117 0.983 . S
C90 H66 0.948 . S
C90 C91 1.391 . S
C90 C95 1.391 . S
C91 C90 1.391 . S
C91 C92 1.391 . S
C92 H69 0.947 . S
C92 C91 1.391 . S
C92 C93 1.392 . S
C93 H70 0.948 . S
C93 C92 1.392 . S
C93 C94 1.419 . S
C94 C93 1.419 . S
C94 C95 1.391 . S
C94 C98 1.397 . S
C95 C90 1.391 . S
C95 C94 1.391 . S
C95 C96 1.399 . S
C96 C95 1.399 . S
C96 C97 1.396 . S
C96 C99 1.453 . S
C96 C100 1.684 . S
C97 C87 1.723 . S
C97 C96 1.396 . S
C97 C98 1.394 . S
C98 C68 1.723 . S
C98 C94 1.397 . S
C98 C97 1.394 . S
C99 H71 0.982 . S
C99 H75 0.979 . S
C99 H76 0.977 . S
C99 C96 1.453 . S
C100 H72 0.979 . S
C100 H73 0.980 . S
C100 H74 0.983 . S
C100 C96 1.684 . S
H101 C119 0.948 . S
H102 C60 0.948 . S
H103 C78 0.979 . S
H104 C78 0.980 . S
H105 C78 0.983 . S
H106 C77 0.982 . S
H107 C77 0.979 . S
H108 C77 0.977 . S
H109 C79 0.948 . S
H110 C81 0.947 . S
H111 C82 0.948 . S
H112 C88 0.982 . S
H113 C88 0.979 . S
H114 C88 0.977 . S
H115 C89 0.979 . S
H116 C89 0.980 . S
H117 C89 0.983 . S
H118 C62 0.947 . S
C119 C62 1.392 . S
C119 C63 1.419 . S
C119 H101 0.948 . S
C120 C121 1.391 . S
C120 C124 1.391 . S
C120 H162 0.948 . S
C121 C120 1.391 . S
C121 C122 1.391 . S
C122 C121 1.391 . S
C122 H178 0.947 . S
C122 C179 1.392 . S
C123 C124 1.391 . S
C123 C127 1.397 . S
C123 C179 1.419 . S
C124 C120 1.391 . S
C124 C123 1.391 . S
C124 C125 1.399 . S
C125 C124 1.399 . S
C125 C128 1.396 . S
C125 C137 1.453 . S
C125 C138 1.684 . S
H126 C150 0.948 . S
C127 C123 1.397 . S
C127 C128 1.394 . S
C127 C146 1.723 . S
C128 C125 1.396 . S
C128 C127 1.394 . S
C128 C158 1.723 . S
H129 C152 0.947 . S
H130 C153 0.948 . S
H131 C159 0.982 . S
H132 C160 0.979 . S
H133 C160 0.980 . S
H134 C160 0.983 . S
H135 C159 0.979 . S
H136 C159 0.977 . S
C137 C125 1.453 . S
C137 H166 0.982 . S
C137 H167 0.979 . S
C137 H168 0.977 . S
C138 C125 1.684 . S
C138 H163 0.979 . S
C138 H164 0.980 . S
C138 H165 0.983 . S
C139 C140 1.391 . S
C139 C144 1.391 . S
C139 H169 0.948 . S
C140 C139 1.391 . S
C140 C141 1.391 . S
C141 C140 1.391 . S
C141 C142 1.392 . S
C141 H170 0.947 . S
C142 C141 1.392 . S
C142 C143 1.419 . S
C142 H171 0.948 . S
C143 C142 1.419 . S
C143 C144 1.391 . S
C143 C147 1.397 . S
C144 C139 1.391 . S
C144 C143 1.391 . S
C144 C145 1.399 . S
C145 C144 1.399 . S
C145 C146 1.396 . S
C145 C148 1.453 . S
C145 C149 1.684 . S
C146 C127 1.723 . S
C146 C145 1.396 . S
C146 C147 1.394 . S
C147 C143 1.397 . S
C147 C146 1.394 . S
C147 C157 1.723 . S
C148 C145 1.453 . S
C148 H172 0.982 . S
C148 H173 0.979 . S
C148 H174 0.977 . S
C149 C145 1.684 . S
C149 H175 0.979 . S
C149 H176 0.980 . S
C149 H177 0.983 . S
C150 H126 0.948 . S
C150 C151 1.391 . S
C150 C155 1.391 . S
C151 C150 1.391 . S
C151 C152 1.391 . S
C152 H129 0.947 . S
C152 C151 1.391 . S
C152 C153 1.392 . S
C153 H130 0.948 . S
C153 C152 1.392 . S
C153 C154 1.419 . S
C154 C153 1.419 . S
C154 C155 1.391 . S
C154 C158 1.397 . S
C155 C150 1.391 . S
C155 C154 1.391 . S
C155 C156 1.399 . S
C156 C155 1.399 . S
C156 C157 1.396 . S
C156 C159 1.453 . S
C156 C160 1.684 . S
C157 C147 1.723 . S
C157 C156 1.396 . S
C157 C158 1.394 . S
C158 C128 1.723 . S
C158 C154 1.397 . S
C158 C157 1.394 . S
C159 H131 0.982 . S
C159 H135 0.979 . S
C159 H136 0.977 . S
C159 C156 1.453 . S
C160 H132 0.979 . S
C160 H133 0.980 . S
C160 H134 0.983 . S
C160 C156 1.684 . S
H161 C179 0.948 . S
H162 C120 0.948 . S
H163 C138 0.979 . S
H164 C138 0.980 . S
H165 C138 0.983 . S
H166 C137 0.982 . S
H167 C137 0.979 . S
H168 C137 0.977 . S
H169 C139 0.948 . S
H170 C141 0.947 . S
H171 C142 0.948 . S
H172 C148 0.982 . S
H173 C148 0.979 . S
H174 C148 0.977 . S
H175 C149 0.979 . S
H176 C149 0.980 . S
H177 C149 0.983 . S
H178 C122 0.947 . S
C179 C122 1.392 . S
C179 C123 1.419 . S
C179 H161 0.948 . S
C180 C181 1.391 . S
C180 C184 1.391 . S
C180 H222 0.948 . S
C181 C180 1.391 . S
C181 C182 1.391 . S
C182 C181 1.391 . S
C182 H238 0.947 . S
C182 C239 1.392 . S
C183 C184 1.391 . S
C183 C187 1.397 . S
C183 C239 1.419 . S
C184 C180 1.391 . S
C184 C183 1.391 . S
C184 C185 1.399 . S
C185 C184 1.399 . S
C185 C188 1.396 . S
C185 C197 1.453 . S
C185 C198 1.684 . S
H186 C210 0.948 . S
C187 C183 1.397 . S
C187 C188 1.394 . S
C187 C206 1.723 . S
C188 C185 1.396 . S
C188 C187 1.394 . S
C188 C218 1.723 . S
H189 C212 0.947 . S
H190 C213 0.948 . S
H191 C219 0.982 . S
H192 C220 0.979 . S
H193 C220 0.980 . S
H194 C220 0.983 . S
H195 C219 0.979 . S
H196 C219 0.977 . S
C197 C185 1.453 . S
C197 H226 0.982 . S
C197 H227 0.979 . S
C197 H228 0.977 . S
C198 C185 1.684 . S
C198 H223 0.979 . S
C198 H224 0.980 . S
C198 H225 0.983 . S
C199 C200 1.391 . S
C199 C204 1.391 . S
C199 H229 0.948 . S
C200 C199 1.391 . S
C200 C201 1.391 . S
C201 C200 1.391 . S
C201 C202 1.392 . S
C201 H230 0.947 . S
C202 C201 1.392 . S
C202 C203 1.419 . S
C202 H231 0.948 . S
C203 C202 1.419 . S
C203 C204 1.391 . S
C203 C207 1.397 . S
C204 C199 1.391 . S
C204 C203 1.391 . S
C204 C205 1.399 . S
C205 C204 1.399 . S
C205 C206 1.396 . S
C205 C208 1.453 . S
C205 C209 1.684 . S
C206 C187 1.723 . S
C206 C205 1.396 . S
C206 C207 1.394 . S
C207 C203 1.397 . S
C207 C206 1.394 . S
C207 C217 1.723 . S
C208 C205 1.453 . S
C208 H232 0.982 . S
C208 H233 0.979 . S
C208 H234 0.977 . S
C209 C205 1.684 . S
C209 H235 0.979 . S
C209 H236 0.980 . S
C209 H237 0.983 . S
C210 H186 0.948 . S
C210 C211 1.391 . S
C210 C215 1.391 . S
C211 C210 1.391 . S
C211 C212 1.391 . S
C212 H189 0.947 . S
C212 C211 1.391 . S
C212 C213 1.392 . S
C213 H190 0.948 . S
C213 C212 1.392 . S
C213 C214 1.419 . S
C214 C213 1.419 . S
C214 C215 1.391 . S
C214 C218 1.397 . S
C215 C210 1.391 . S
C215 C214 1.391 . S
C215 C216 1.399 . S
C216 C215 1.399 . S
C216 C217 1.396 . S
C216 C219 1.453 . S
C216 C220 1.684 . S
C217 C207 1.723 . S
C217 C216 1.396 . S
C217 C218 1.394 . S
C218 C188 1.723 . S
C218 C214 1.397 . S
C218 C217 1.394 . S
C219 H191 0.982 . S
C219 H195 0.979 . S
C219 H196 0.977 . S
C219 C216 1.453 . S
C220 H192 0.979 . S
C220 H193 0.980 . S
C220 H194 0.983 . S
C220 C216 1.684 . S
H221 C239 0.948 . S
H222 C180 0.948 . S
H223 C198 0.979 . S
H224 C198 0.980 . S
H225 C198 0.983 . S
H226 C197 0.982 . S
H227 C197 0.979 . S
H228 C197 0.977 . S
H229 C199 0.948 . S
H230 C201 0.947 . S
H231 C202 0.948 . S
H232 C208 0.982 . S
H233 C208 0.979 . S
H234 C208 0.977 . S
H235 C209 0.979 . S
H236 C209 0.980 . S
H237 C209 0.983 . S
H238 C182 0.947 . S
C239 C182 1.392 . S
C239 C183 1.419 . S
C239 H221 0.948 . S
C240 C241 1.391 . S
C240 C244 1.391 . S
C240 H282 0.948 . S
C241 C240 1.391 . S
C241 C242 1.391 . S
C242 C241 1.391 . S
C242 H298 0.947 . S
C242 C299 1.392 . S
C243 C244 1.391 . S
C243 C247 1.397 . S
C243 C299 1.419 . S
C244 C240 1.391 . S
C244 C243 1.391 . S
C244 C245 1.399 . S
C245 C244 1.399 . S
C245 C248 1.396 . S
C245 C257 1.453 . S
C245 C258 1.684 . S
H246 C270 0.948 . S
C247 C243 1.397 . S
C247 C248 1.394 . S
C247 C266 1.723 . S
C248 C245 1.396 . S
C248 C247 1.394 . S
C248 C278 1.723 . S
H249 C272 0.947 . S
H250 C273 0.948 . S
H251 C279 0.982 . S
H252 C280 0.979 . S
H253 C280 0.980 . S
H254 C280 0.983 . S
H255 C279 0.979 . S
H256 C279 0.977 . S
C257 C245 1.453 . S
C257 H286 0.982 . S
C257 H287 0.979 . S
C257 H288 0.977 . S
C258 C245 1.684 . S
C258 H283 0.979 . S
C258 H284 0.980 . S
C258 H285 0.983 . S
C259 C260 1.391 . S
C259 C264 1.391 . S
C259 H289 0.948 . S
C260 C259 1.391 . S
C260 C261 1.391 . S
C261 C260 1.391 . S
C261 C262 1.392 . S
C261 H290 0.947 . S
C262 C261 1.392 . S
C262 C263 1.419 . S
C262 H291 0.948 . S
C263 C262 1.419 . S
C263 C264 1.391 . S
C263 C267 1.397 . S
C264 C259 1.391 . S
C264 C263 1.391 . S
C264 C265 1.399 . S
C265 C264 1.399 . S
C265 C266 1.396 . S
C265 C268 1.453 . S
C265 C269 1.684 . S
C266 C247 1.723 . S
C266 C265 1.396 . S
C266 C267 1.394 . S
C267 C263 1.397 . S
C267 C266 1.394 . S
C267 C277 1.723 . S
C268 C265 1.453 . S
C268 H292 0.982 . S
C268 H293 0.979 . S
C268 H294 0.977 . S
C269 C265 1.684 . S
C269 H295 0.979 . S
C269 H296 0.980 . S
C269 H297 0.983 . S
C270 H246 0.948 . S
C270 C271 1.391 . S
C270 C275 1.391 . S
C271 C270 1.391 . S
C271 C272 1.391 . S
C272 H249 0.947 . S
C272 C271 1.391 . S
C272 C273 1.392 . S
C273 H250 0.948 . S
C273 C272 1.392 . S
C273 C274 1.419 . S
C274 C273 1.419 . S
C274 C275 1.391 . S
C274 C278 1.397 . S
C275 C270 1.391 . S
C275 C274 1.391 . S
C275 C276 1.399 . S
C276 C275 1.399 . S
C276 C277 1.396 . S
C276 C279 1.453 . S
C276 C280 1.684 . S
C277 C267 1.723 . S
C277 C276 1.396 . S
C277 C278 1.394 . S
C278 C248 1.723 . S
C278 C274 1.397 . S
C278 C277 1.394 . S
C279 H251 0.982 . S
C279 H255 0.979 . S
C279 H256 0.977 . S
C279 C276 1.453 . S
C280 H252 0.979 . S
C280 H253 0.980 . S
C280 H254 0.983 . S
C280 C276 1.684 . S
H281 C299 0.948 . S
H282 C240 0.948 . S
H283 C258 0.979 . S
H284 C258 0.980 . S
H285 C258 0.983 . S
H286 C257 0.982 . S
H287 C257 0.979 . S
H288 C257 0.977 . S
H289 C259 0.948 . S
H290 C261 0.947 . S
H291 C262 0.948 . S
H292 C268 0.982 . S
H293 C268 0.979 . S
H294 C268 0.977 . S
H295 C269 0.979 . S
H296 C269 0.980 . S
H297 C269 0.983 . S
H298 C242 0.947 . S
C299 C242 1.392 . S
C299 C243 1.419 . S
C299 H281 0.948 . S
C300 C301 1.391 . S
C300 C304 1.391 . S
C300 H342 0.948 . S
C301 C300 1.391 . S
C301 C302 1.391 . S
C302 C301 1.391 . S
C302 H358 0.947 . S
C302 C359 1.392 . S
C303 C304 1.391 . S
C303 C307 1.397 . S
C303 C359 1.419 . S
C304 C300 1.391 . S
C304 C303 1.391 . S
C304 C305 1.399 . S
C305 C304 1.399 . S
C305 C308 1.396 . S
C305 C317 1.453 . S
C305 C318 1.684 . S
H306 C330 0.948 . S
C307 C303 1.397 . S
C307 C308 1.394 . S
C307 C326 1.723 . S
C308 C305 1.396 . S
C308 C307 1.394 . S
C308 C338 1.723 . S
H309 C332 0.947 . S
H310 C333 0.948 . S
H311 C339 0.982 . S
H312 C340 0.979 . S
H313 C340 0.980 . S
H314 C340 0.983 . S
H315 C339 0.979 . S
H316 C339 0.977 . S
C317 C305 1.453 . S
C317 H346 0.982 . S
C317 H347 0.979 . S
C317 H348 0.977 . S
C318 C305 1.684 . S
C318 H343 0.979 . S
C318 H344 0.980 . S
C318 H345 0.983 . S
C319 C320 1.391 . S
C319 C324 1.391 . S
C319 H349 0.948 . S
C320 C319 1.391 . S
C320 C321 1.391 . S
C321 C320 1.391 . S
C321 C322 1.392 . S
C321 H350 0.947 . S
C322 C321 1.392 . S
C322 C323 1.419 . S
C322 H351 0.948 . S
C323 C322 1.419 . S
C323 C324 1.391 . S
C323 C327 1.397 . S
C324 C319 1.391 . S
C324 C323 1.391 . S
C324 C325 1.399 . S
C325 C324 1.399 . S
C325 C326 1.396 . S
C325 C328 1.453 . S
C325 C329 1.684 . S
C326 C307 1.723 . S
C326 C325 1.396 . S
C326 C327 1.394 . S
C327 C323 1.397 . S
C327 C326 1.394 . S
C327 C337 1.723 . S
C328 C325 1.453 . S
C328 H352 0.982 . S
C328 H353 0.979 . S
C328 H354 0.977 . S
C329 C325 1.684 . S
C329 H355 0.979 . S
C329 H356 0.980 . S
C329 H357 0.983 . S
C330 H306 0.948 . S
C330 C331 1.391 . S
C330 C335 1.391 . S
C331 C330 1.391 . S
C331 C332 1.391 . S
C332 H309 0.947 . S
C332 C331 1.391 . S
C332 C333 1.392 . S
C333 H310 0.948 . S
C333 C332 1.392 . S
C333 C334 1.419 . S
C334 C333 1.419 . S
C334 C335 1.391 . S
C334 C338 1.397 . S
C335 C330 1.391 . S
C335 C334 1.391 . S
C335 C336 1.399 . S
C336 C335 1.399 . S
C336 C337 1.396 . S
C336 C339 1.453 . S
C336 C340 1.684 . S
C337 C327 1.723 . S
C337 C336 1.396 . S
C337 C338 1.394 . S
C338 C308 1.723 . S
C338 C334 1.397 . S
C338 C337 1.394 . S
C339 H311 0.982 . S
C339 H315 0.979 . S
C339 H316 0.977 . S
C339 C336 1.453 . S
C340 H312 0.979 . S
C340 H313 0.980 . S
C340 H314 0.983 . S
C340 C336 1.684 . S
H341 C359 0.948 . S
H342 C300 0.948 . S
H343 C318 0.979 . S
H344 C318 0.980 . S
H345 C318 0.983 . S
H346 C317 0.982 . S
H347 C317 0.979 . S
H348 C317 0.977 . S
H349 C319 0.948 . S
H350 C321 0.947 . S
H351 C322 0.948 . S
H352 C328 0.982 . S
H353 C328 0.979 . S
H354 C328 0.977 . S
H355 C329 0.979 . S
H356 C329 0.980 . S
H357 C329 0.983 . S
H358 C302 0.947 . S
C359 C302 1.392 . S
C359 C303 1.419 . S
C359 H341 0.948 . S
C360 C361 1.391 . S
C360 C364 1.391 . S
C360 H402 0.948 . S
C361 C360 1.391 . S
C361 C362 1.391 . S
C362 C361 1.391 . S
C362 H418 0.947 . S
C362 C419 1.392 . S
C363 C364 1.391 . S
C363 C367 1.397 . S
C363 C419 1.419 . S
C364 C360 1.391 . S
C364 C363 1.391 . S
C364 C365 1.399 . S
C365 C364 1.399 . S
C365 C368 1.396 . S
C365 C377 1.453 . S
C365 C378 1.684 . S
H366 C390 0.948 . S
C367 C363 1.397 . S
C367 C368 1.394 . S
C367 C386 1.723 . S
C368 C365 1.396 . S
C368 C367 1.394 . S
C368 C398 1.723 . S
H369 C392 0.947 . S
H370 C393 0.948 . S
H371 C399 0.982 . S
H372 C400 0.979 . S
H373 C400 0.980 . S
H374 C400 0.983 . S
H375 C399 0.979 . S
H376 C399 0.977 . S
C377 C365 1.453 . S
C377 H406 0.982 . S
C377 H407 0.979 . S
C377 H408 0.977 . S
C378 C365 1.684 . S
C378 H403 0.979 . S
C378 H404 0.980 . S
C378 H405 0.983 . S
C379 C380 1.391 . S
C379 C384 1.391 . S
C379 H409 0.948 . S
C380 C379 1.391 . S
C380 C381 1.391 . S
C381 C380 1.391 . S
C381 C382 1.392 . S
C381 H410 0.947 . S
C382 C381 1.392 . S
C382 C383 1.419 . S
C382 H411 0.948 . S
C383 C382 1.419 . S
C383 C384 1.391 . S
C383 C387 1.397 . S
C384 C379 1.391 . S
C384 C383 1.391 . S
C384 C385 1.399 . S
C385 C384 1.399 . S
C385 C386 1.396 . S
C385 C388 1.453 . S
C385 C389 1.684 . S
C386 C367 1.723 . S
C386 C385 1.396 . S
C386 C387 1.394 . S
C387 C383 1.397 . S
C387 C386 1.394 . S
C387 C397 1.723 . S
C388 C385 1.453 . S
C388 H412 0.982 . S
C388 H413 0.979 . S
C388 H414 0.977 . S
C389 C385 1.684 . S
C389 H415 0.979 . S
C389 H416 0.980 . S
C389 H417 0.983 . S
C390 H366 0.948 . S
C390 C391 1.391 . S
C390 C395 1.391 . S
C391 C390 1.391 . S
C391 C392 1.391 . S
C392 H369 0.947 . S
C392 C391 1.391 . S
C392 C393 1.392 . S
C393 H370 0.948 . S
C393 C392 1.392 . S
C393 C394 1.419 . S
C394 C393 1.419 . S
C394 C395 1.391 . S
C394 C398 1.397 . S
C395 C390 1.391 . S
C395 C394 1.391 . S
C395 C396 1.399 . S
C396 C395 1.399 . S
C396 C397 1.396 . S
C396 C399 1.453 . S
C396 C400 1.684 . S
C397 C387 1.723 . S
C397 C396 1.396 . S
C397 C398 1.394 . S
C398 C368 1.723 . S
C398 C394 1.397 . S
C398 C397 1.394 . S
C399 H371 0.982 . S
C399 H375 0.979 . S
C399 H376 0.977 . S
C399 C396 1.453 . S
C400 H372 0.979 . S
C400 H373 0.980 . S
C400 H374 0.983 . S
C400 C396 1.684 . S
H401 C419 0.948 . S
H402 C360 0.948 . S
H403 C378 0.979 . S
H404 C378 0.980 . S
H405 C378 0.983 . S
H406 C377 0.982 . S
H407 C377 0.979 . S
H408 C377 0.977 . S
H409 C379 0.948 . S
H410 C381 0.947 . S
H411 C382 0.948 . S
H412 C388 0.982 . S
H413 C388 0.979 . S
H414 C388 0.977 . S
H415 C389 0.979 . S
H416 C389 0.980 . S
H417 C389 0.983 . S
H418 C362 0.947 . S
C419 C362 1.392 . S
C419 C363 1.419 . S
C419 H401 0.948 . S
C420 C421 1.391 . S
C420 C424 1.391 . S
C420 H462 0.948 . S
C421 C420 1.391 . S
C421 C422 1.391 . S
C422 C421 1.391 . S
C422 H478 0.947 . S
C422 C479 1.392 . S
C423 C424 1.391 . S
C423 C427 1.397 . S
C423 C479 1.419 . S
C424 C420 1.391 . S
C424 C423 1.391 . S
C424 C425 1.399 . S
C425 C424 1.399 . S
C425 C428 1.396 . S
C425 C437 1.453 . S
C425 C438 1.684 . S
H426 C450 0.948 . S
C427 C423 1.397 . S
C427 C428 1.394 . S
C427 C446 1.723 . S
C428 C425 1.396 . S
C428 C427 1.394 . S
C428 C458 1.723 . S
H429 C452 0.947 . S
H430 C453 0.948 . S
H431 C459 0.982 . S
H432 C460 0.979 . S
H433 C460 0.980 . S
H434 C460 0.983 . S
H435 C459 0.979 . S
H436 C459 0.977 . S
C437 C425 1.453 . S
C437 H466 0.982 . S
C437 H467 0.979 . S
C437 H468 0.977 . S
C438 C425 1.684 . S
C438 H463 0.979 . S
C438 H464 0.980 . S
C438 H465 0.983 . S
C439 C440 1.391 . S
C439 C444 1.391 . S
C439 H469 0.948 . S
C440 C439 1.391 . S
C440 C441 1.391 . S
C441 C440 1.391 . S
C441 C442 1.392 . S
C441 H470 0.947 . S
C442 C441 1.392 . S
C442 C443 1.419 . S
C442 H471 0.948 . S
C443 C442 1.419 . S
C443 C444 1.391 . S
C443 C447 1.397 . S
C444 C439 1.391 . S
C444 C443 1.391 . S
C444 C445 1.399 . S
C445 C444 1.399 . S
C445 C446 1.396 . S
C445 C448 1.453 . S
C445 C449 1.684 . S
C446 C427 1.723 . S
C446 C445 1.396 . S
C446 C447 1.394 . S
C447 C443 1.397 . S
C447 C446 1.394 . S
C447 C457 1.723 . S
C448 C445 1.453 . S
C448 H472 0.982 . S
C448 H473 0.979 . S
C448 H474 0.977 . S
C449 C445 1.684 . S
C449 H475 0.979 . S
C449 H476 0.980 . S
C449 H477 0.983 . S
C450 H426 0.948 . S
C450 C451 1.391 . S
C450 C455 1.391 . S
C451 C450 1.391 . S
C451 C452 1.391 . S
C452 H429 0.947 . S
C452 C451 1.391 . S
C452 C453 1.392 . S
C453 H430 0.948 . S
C453 C452 1.392 . S
C453 C454 1.419 . S
C454 C453 1.419 . S
C454 C455 1.391 . S
C454 C458 1.397 . S
C455 C450 1.391 . S
C455 C454 1.391 . S
C455 C456 1.399 . S
C456 C455 1.399 . S
C456 C457 1.396 . S
C456 C459 1.453 . S
C456 C460 1.684 . S
C457 C447 1.723 . S
C457 C456 1.396 . S
C457 C458 1.394 . S
C458 C428 1.723 . S
C458 C454 1.397 . S
C458 C457 1.394 . S
C459 H431 0.982 . S
C459 H435 0.979 . S
C459 H436 0.977 . S
C459 C456 1.453 . S
C460 H432 0.979 . S
C460 H433 0.980 . S
C460 H434 0.983 . S
C460 C456 1.684 . S
H461 C479 0.948 . S
H462 C420 0.948 . S
H463 C438 0.979 . S
H464 C438 0.980 . S
H465 C438 0.983 . S
H466 C437 0.982 . S
H467 C437 0.979 . S
H468 C437 0.977 . S
H469 C439 0.948 . S
H470 C441 0.947 . S
H471 C442 0.948 . S
H472 C448 0.982 . S
H473 C448 0.979 . S
H474 C448 0.977 . S
H475 C449 0.979 . S
H476 C449 0.980 . S
H477 C449 0.983 . S
H478 C422 0.947 . S
C479 C422 1.392 . S
C479 C423 1.419 . S
C479 H461 0.948 . S
O480 Mn481 2.163 1_655 S
O480 C494 1.244 . S
Mn481 O480 2.163 1_455 S
Mn481 O484 2.160 1_545 S
Mn481 O485 2.221 . S
Mn481 O487 2.163 1_445 S
Mn481 O489 2.160 . S
Mn481 O499 2.221 1_445 S
O482 Mn483 2.087 1_545 S
O482 C494 1.256 . S
Mn483 O482 2.087 1_565 S
Mn483 O490 2.089 1_565 S
Mn483 O499 2.290 . S
Mn483 O500 2.251 . S
O484 Mn481 2.160 1_565 S
O484 C495 1.239 . S
O485 Mn481 2.221 . S
O485 Mn486 2.290 . S
O485 C496 1.278 . S
Mn486 O485 2.290 . S
Mn486 O488 2.089 1_545 S
Mn486 O491 2.251 . S
Mn486 O492 2.087 . S
O487 Mn481 2.163 1_665 S
O487 C497 1.244 . S
O488 Mn486 2.089 1_565 S
O488 C495 1.256 . S
O489 Mn481 2.160 . S
O489 C498 1.239 . S
O490 Mn483 2.089 1_545 S
O490 C498 1.256 1_655 S
O491 Mn486 2.251 . S
O491 C496 1.241 . S
O492 Mn486 2.087 . S
O492 C497 1.256 1_445 S
C493 O499 1.278 . S
C493 O500 1.241 . S
C494 O480 1.244 . S
C494 O482 1.256 . S
C495 O484 1.239 . S
C495 O488 1.256 . S
C496 O485 1.278 . S
C496 O491 1.241 . S
C497 O487 1.244 . S
C497 O492 1.256 1_665 S
C498 O489 1.239 . S
C498 O490 1.256 1_455 S
O499 Mn481 2.221 1_665 S
O499 Mn483 2.290 . S
O499 C493 1.278 . S
O500 Mn483 2.251 . S
O500 C493 1.241 . S
O501 Mn502 2.163 1_556 S
O501 C515 1.244 1_545 S
Mn502 O501 2.163 1_554 S
Mn502 O505 2.160 . S
Mn502 O506 2.221 1_554 S
Mn502 O508 2.163 . S
Mn502 O510 2.160 1_554 S
Mn502 O520 2.221 1_545 S
O503 Mn504 2.087 . S
O503 C515 1.256 . S
Mn504 O503 2.087 . S
Mn504 O511 2.089 . S
Mn504 O520 2.290 1_556 S
Mn504 O521 2.251 1_556 S
O505 Mn502 2.160 . S
O505 C516 1.239 . S
O506 Mn502 2.221 1_556 S
O506 Mn507 2.290 1_556 S
O506 C517 1.278 . S
Mn507 O506 2.290 1_554 S
Mn507 O509 2.089 . S
Mn507 O512 2.251 1_554 S
Mn507 O513 2.087 . S
O508 Mn502 2.163 . S
O508 C518 1.244 . S
O509 Mn507 2.089 . S
O509 C516 1.256 . S
O510 Mn502 2.160 1_556 S
O510 C519 1.239 1_545 S
O511 Mn504 2.089 . S
O511 C519 1.256 . S
O512 Mn507 2.251 1_556 S
O512 C517 1.241 . S
O513 Mn507 2.087 . S
O513 C518 1.256 . S
C514 O520 1.278 . S
C514 O521 1.241 . S
C515 O501 1.244 1_565 S
C515 O503 1.256 . S
C516 O505 1.239 . S
C516 O509 1.256 . S
C517 O506 1.278 . S
C517 O512 1.241 . S
C518 O508 1.244 . S
C518 O513 1.256 . S
C519 O510 1.239 1_565 S
C519 O511 1.256 . S
O520 Mn502 2.221 1_565 S
O520 Mn504 2.290 1_554 S
O520 C514 1.278 . S
O521 Mn504 2.251 1_554 S
O521 C514 1.241 . S
O522 Mn523 2.163 . S
O522 C536 1.244 . S
Mn523 O522 2.163 . S
Mn523 O526 2.160 . S
Mn523 O527 2.221 . S
Mn523 O529 2.163 . S
Mn523 O531 2.160 . S
Mn523 O541 2.221 . S
O524 Mn525 2.087 . S
O524 C536 1.256 . S
Mn525 O524 2.087 . S
Mn525 O532 2.089 . S
Mn525 O541 2.290 . S
Mn525 O542 2.251 . S
O526 Mn523 2.160 . S
O526 C537 1.239 . S
O527 Mn523 2.221 . S
O527 Mn528 2.290 . S
O527 C538 1.278 . S
Mn528 O527 2.290 . S
Mn528 O530 2.089 . S
Mn528 O533 2.251 . S
Mn528 O534 2.087 . S
O529 Mn523 2.163 . S
O529 C539 1.244 . S
O530 Mn528 2.089 . S
O530 C537 1.256 . S
O531 Mn523 2.160 . S
O531 C540 1.239 . S
O532 Mn525 2.089 . S
O532 C540 1.256 . S
O533 Mn528 2.251 . S
O533 C538 1.241 . S
O534 Mn528 2.087 . S
O534 C539 1.256 . S
C535 O541 1.278 . S
C535 O542 1.241 . S
C536 O522 1.244 . S
C536 O524 1.256 . S
C537 O526 1.239 . S
C537 O530 1.256 . S
C538 O527 1.278 . S
C538 O533 1.241 . S
C539 O529 1.244 . S
C539 O534 1.256 . S
C540 O531 1.239 . S
C540 O532 1.256 . S
O541 Mn523 2.221 . S
O541 Mn525 2.290 . S
O541 C535 1.278 . S
O542 Mn525 2.251 . S
O542 C535 1.241 . S
O543 Mn544 2.163 1_655 S
O543 C557 1.244 1_554 S
Mn544 O543 2.163 1_455 S
Mn544 O547 2.160 . S
Mn544 O548 2.221 1_455 S
Mn544 O550 2.163 . S
Mn544 O552 2.160 1_454 S
Mn544 O562 2.221 1_554 S
O545 Mn546 2.087 . S
O545 C557 1.256 . S
Mn546 O545 2.087 . S
Mn546 O553 2.089 . S
Mn546 O562 2.290 1_655 S
Mn546 O563 2.251 . S
O547 Mn544 2.160 . S
O547 C558 1.239 . S
O548 Mn544 2.221 1_655 S
O548 Mn549 2.290 1_655 S
O548 C559 1.278 . S
Mn549 O548 2.290 1_455 S
Mn549 O551 2.089 . S
Mn549 O554 2.251 1_455 S
Mn549 O555 2.087 . S
O550 Mn544 2.163 . S
O550 C560 1.244 . S
O551 Mn549 2.089 . S
O551 C558 1.256 . S
O552 Mn544 2.160 1_656 S
O552 C561 1.239 . S
O553 Mn546 2.089 . S
O553 C561 1.256 . S
O554 Mn549 2.251 1_655 S
O554 C559 1.241 . S
O555 Mn549 2.087 . S
O555 C560 1.256 . S
C556 O562 1.278 . S
C556 O563 1.241 1_455 S
C557 O543 1.244 1_556 S
C557 O545 1.256 . S
C558 O547 1.239 . S
C558 O551 1.256 . S
C559 O548 1.278 . S
C559 O554 1.241 . S
C560 O550 1.244 . S
C560 O555 1.256 . S
C561 O552 1.239 . S
C561 O553 1.256 . S
O562 Mn544 2.221 1_556 S
O562 Mn546 2.290 1_455 S
O562 C556 1.278 . S
O563 Mn546 2.251 . S
O563 C556 1.241 1_655 S
H564 C570 0.930 . S
H565 C573 0.930 . S
H566 C574 0.930 . S
H567 C575 0.930 . S
H568 C578 0.930 1_565 S
H569 C579 0.922 1_565 S
C570 H564 0.930 . S
C570 C571 1.355 . S
C570 C572 1.415 . S
C571 C570 1.355 . S
C571 C573 1.419 . S
C572 C570 1.415 . S
C572 C577 1.425 . S
C572 C579 1.409 . S
C573 H565 0.930 . S
C573 C571 1.419 . S
C573 C574 1.362 . S
C574 H566 0.930 . S
C574 C573 1.362 . S
C574 C577 1.409 . S
C575 H567 0.930 . S
C575 C576 1.355 . S
C575 C577 1.415 . S
C576 C575 1.355 . S
C576 C578 1.419 . S
C577 C572 1.425 . S
C577 C574 1.409 . S
C577 C575 1.415 . S
C578 H568 0.930 1_545 S
C578 C576 1.419 . S
C578 C579 1.362 . S
C579 H569 0.922 1_545 S
C579 C572 1.409 . S
C579 C578 1.362 . S
H580 C586 0.930 . S
H581 C589 0.930 . S
H582 C590 0.930 . S
H583 C591 0.918 1_545 S
H584 C594 0.930 . S
H585 C595 0.930 . S
C586 H580 0.930 . S
C586 C587 1.355 . S
C586 C588 1.415 . S
C587 C586 1.355 . S
C587 C589 1.419 . S
C588 C586 1.415 . S
C588 C593 1.425 . S
C588 C595 1.409 . S
C589 H581 0.930 . S
C589 C587 1.419 . S
C589 C590 1.362 . S
C590 H582 0.930 . S
C590 C589 1.362 . S
C590 C593 1.409 . S
C591 H583 0.918 1_565 S
C591 C592 1.355 . S
C591 C593 1.415 . S
C592 C591 1.355 . S
C592 C594 1.419 . S
C593 C588 1.425 . S
C593 C590 1.409 . S
C593 C591 1.415 . S
C594 H584 0.930 . S
C594 C592 1.419 . S
C594 C595 1.362 . S
C595 H585 0.930 . S
C595 C588 1.409 . S
C595 C594 1.362 . S
H596 C602 0.930 . S
H597 C605 0.930 . S
H598 C606 0.930 . S
H599 C607 0.930 . S
H600 C610 0.930 . S
H601 C611 0.930 . S
C602 H596 0.930 . S
C602 C603 1.355 . S
C602 C604 1.415 . S
C603 C602 1.355 . S
C603 C605 1.419 . S
C604 C602 1.415 . S
C604 C609 1.425 . S
C604 C611 1.409 . S
C605 H597 0.930 . S
C605 C603 1.419 . S
C605 C606 1.362 . S
C606 H598 0.930 . S
C606 C605 1.362 . S
C606 C609 1.409 . S
C607 H599 0.930 . S
C607 C608 1.355 . S
C607 C609 1.415 . S
C608 C607 1.355 . S
C608 C610 1.419 . S
C609 C604 1.425 . S
C609 C606 1.409 . S
C609 C607 1.415 . S
C610 H600 0.930 . S
C610 C608 1.419 . S
C610 C611 1.362 . S
C611 H601 0.930 . S
C611 C604 1.409 . S
C611 C610 1.362 . S
H612 C618 0.930 . S
H613 C621 0.930 . S
H614 C622 0.930 . S
H615 C623 0.930 . S
H616 C626 0.930 . S
H617 C627 0.930 . S
C618 H612 0.930 . S
C618 C619 1.355 . S
C618 C620 1.415 . S
C619 C618 1.355 . S
C619 C621 1.419 . S
C620 C618 1.415 . S
C620 C625 1.425 . S
C620 C627 1.409 . S
C621 H613 0.930 . S
C621 C619 1.419 . S
C621 C622 1.362 . S
C622 H614 0.930 . S
C622 C621 1.362 . S
C622 C625 1.409 . S
C623 H615 0.930 . S
C623 C624 1.355 . S
C623 C625 1.415 . S
C624 C623 1.355 . S
C624 C626 1.419 . S
C625 C620 1.425 . S
C625 C622 1.409 . S
C625 C623 1.415 . S
C626 H616 0.930 . S
C626 C624 1.419 . S
C626 C627 1.362 . S
C627 H617 0.930 . S
C627 C620 1.409 . S
C627 C626 1.362 . S
H628 C634 0.930 . S
H629 C637 0.930 . S
H630 C638 0.930 1_556 S
H631 C639 0.930 . S
H632 C642 0.930 . S
H633 C643 0.930 . S
C634 H628 0.930 . S
C634 C635 1.355 . S
C634 C636 1.415 . S
C635 C634 1.355 . S
C635 C637 1.419 . S
C636 C634 1.415 . S
C636 C641 1.425 . S
C636 C643 1.409 . S
C637 H629 0.930 . S
C637 C635 1.419 . S
C637 C638 1.362 . S
C638 H630 0.930 1_554 S
C638 C637 1.362 . S
C638 C641 1.409 . S
C639 H631 0.930 . S
C639 C640 1.355 . S
C639 C641 1.415 . S
C640 C639 1.355 . S
C640 C642 1.419 . S
C641 C636 1.425 . S
C641 C638 1.409 . S
C641 C639 1.415 . S
C642 H632 0.930 . S
C642 C640 1.419 . S
C642 C643 1.362 . S
C643 H633 0.930 . S
C643 C636 1.409 . S
C643 C642 1.362 . S
H644 C650 0.930 . S
H645 C653 0.930 . S
H646 C654 0.930 . S
H647 C655 0.930 . S
H648 C658 0.930 1_545 S
H649 C659 0.930 1_545 S
C650 H644 0.930 . S
C650 C651 1.355 . S
C650 C652 1.415 . S
C651 C650 1.355 . S
C651 C653 1.419 . S
C652 C650 1.415 . S
C652 C657 1.425 . S
C652 C659 1.409 . S
C653 H645 0.930 . S
C653 C651 1.419 . S
C653 C654 1.362 . S
C654 H646 0.930 . S
C654 C653 1.362 . S
C654 C657 1.409 . S
C655 H647 0.930 . S
C655 C656 1.355 . S
C655 C657 1.415 . S
C656 C655 1.355 . S
C656 C658 1.419 . S
C657 C652 1.425 . S
C657 C654 1.409 . S
C657 C655 1.415 . S
C658 H648 0.930 1_565 S
C658 C656 1.419 . S
C658 C659 1.362 . S
C659 H649 0.930 1_565 S
C659 C652 1.409 . S
C659 C658 1.362 . S
H660 C666 0.930 . S
H661 C669 0.930 . S
H662 C670 0.930 . S
H663 C671 0.930 . S
H664 C674 0.930 . S
H665 C675 0.952 . S
C666 H660 0.930 . S
C666 C667 1.355 . S
C666 C668 1.415 . S
C667 C666 1.355 . S
C667 C669 1.419 . S
C668 C666 1.415 . S
C668 C673 1.425 . S
C668 C675 1.384 1_556 S
C669 H661 0.930 . S
C669 C667 1.419 . S
C669 C670 1.362 . S
C670 H662 0.930 . S
C670 C669 1.362 . S
C670 C673 1.409 . S
C671 H663 0.930 . S
C671 C672 1.355 . S
C671 C673 1.415 . S
C672 C671 1.355 . S
C672 C674 1.419 1_556 S
C673 C668 1.425 . S
C673 C670 1.409 . S
C673 C671 1.415 . S
C674 H664 0.930 . S
C674 C672 1.419 1_554 S
C674 C675 1.367 . S
C675 H665 0.952 . S
C675 C668 1.384 1_554 S
C675 C674 1.367 . S
H676 C682 0.930 . S
H677 C685 0.930 . S
H678 C686 0.930 . S
H679 C687 0.930 . S
H680 C690 0.930 . S
H681 C691 0.930 . S
C682 H676 0.930 . S
C682 C683 1.355 . S
C682 C684 1.415 . S
C683 C682 1.355 . S
C683 C685 1.419 . S
C684 C682 1.415 . S
C684 C689 1.425 . S
C684 C691 1.409 . S
C685 H677 0.930 . S
C685 C683 1.419 . S
C685 C686 1.362 . S
C686 H678 0.930 . S
C686 C685 1.362 . S
C686 C689 1.409 . S
C687 H679 0.930 . S
C687 C688 1.355 . S
C687 C689 1.415 . S
C688 C687 1.355 . S
C688 C690 1.419 . S
C689 C684 1.425 . S
C689 C686 1.409 . S
C689 C687 1.415 . S
C690 H680 0.930 . S
C690 C688 1.419 . S
C690 C691 1.362 . S
C691 H681 0.930 . S
C691 C684 1.409 . S
C691 C690 1.362 . S
H692 C698 0.930 . S
H693 C701 0.930 . S
H694 C702 0.930 . S
H695 C703 0.930 . S
H696 C706 0.930 . S
H697 C707 0.930 . S
C698 H692 0.930 . S
C698 C699 1.355 . S
C698 C700 1.415 . S
C699 C698 1.355 . S
C699 C701 1.419 . S
C700 C698 1.415 . S
C700 C705 1.425 . S
C700 C707 1.409 . S
C701 H693 0.930 . S
C701 C699 1.419 . S
C701 C702 1.362 . S
C702 H694 0.930 . S
C702 C701 1.362 . S
C702 C705 1.409 . S
C703 H695 0.930 . S
C703 C704 1.355 . S
C703 C705 1.415 . S
C704 C703 1.355 . S
C704 C706 1.419 . S
C705 C700 1.425 . S
C705 C702 1.409 . S
C705 C703 1.415 . S
C706 H696 0.930 . S
C706 C704 1.419 . S
C706 C707 1.362 . S
C707 H697 0.930 . S
C707 C700 1.409 . S
C707 C706 1.362 . S
H708 C714 0.930 . S
H709 C717 0.930 . S
H710 C718 0.930 . S
H711 C719 0.930 . S
H712 C722 0.930 1_554 S
H713 C723 0.930 1_554 S
C714 H708 0.930 . S
C714 C715 1.355 . S
C714 C716 1.415 . S
C715 C714 1.355 . S
C715 C717 1.419 . S
C716 C714 1.415 . S
C716 C721 1.425 . S
C716 C723 1.409 . S
C717 H709 0.930 . S
C717 C715 1.419 . S
C717 C718 1.362 . S
C718 H710 0.930 . S
C718 C717 1.362 . S
C718 C721 1.409 . S
C719 H711 0.930 . S
C719 C720 1.355 . S
C719 C721 1.415 . S
C720 C719 1.355 . S
C720 C722 1.419 . S
C721 C716 1.425 . S
C721 C718 1.409 . S
C721 C719 1.415 . S
C722 H712 0.930 1_556 S
C722 C720 1.419 . S
C722 C723 1.362 . S
C723 H713 0.930 1_556 S
C723 C716 1.409 . S
C723 C722 1.362 . S
H724 C730 0.930 . S
H725 C733 0.930 . S
H726 C734 0.930 1_455 S
H727 C735 0.930 1_455 S
H728 C738 0.930 . S
H729 C739 0.930 . S
C730 H724 0.930 . S
C730 C731 1.355 . S
C730 C732 1.415 . S
C731 C730 1.355 . S
C731 C733 1.419 . S
C732 C730 1.415 . S
C732 C737 1.425 . S
C732 C739 1.409 . S
C733 H725 0.930 . S
C733 C731 1.419 . S
C733 C734 1.362 . S
C734 H726 0.930 1_655 S
C734 C733 1.362 . S
C734 C737 1.409 . S
C735 H727 0.930 1_655 S
C735 C736 1.355 . S
C735 C737 1.415 . S
C736 C735 1.355 . S
C736 C738 1.419 . S
C737 C732 1.425 . S
C737 C734 1.409 . S
C737 C735 1.415 . S
C738 H728 0.930 . S
C738 C736 1.419 . S
C738 C739 1.362 . S
C739 H729 0.930 . S
C739 C732 1.409 . S
C739 C738 1.362 . S
H740 C746 0.930 . S
H741 C749 0.930 . S
H742 C750 0.930 . S
H743 C751 0.930 . S
H744 C754 0.930 . S
H745 C755 0.930 . S
C746 H740 0.930 . S
C746 C747 1.355 . S
C746 C748 1.415 . S
C747 C746 1.355 . S
C747 C749 1.419 . S
C748 C746 1.415 . S
C748 C753 1.425 . S
C748 C755 1.409 . S
C749 H741 0.930 . S
C749 C747 1.419 . S
C749 C750 1.362 . S
C750 H742 0.930 . S
C750 C749 1.362 . S
C750 C753 1.409 . S
C751 H743 0.930 . S
C751 C752 1.355 . S
C751 C753 1.415 . S
C752 C751 1.355 . S
C752 C754 1.419 . S
C753 C748 1.425 . S
C753 C750 1.409 . S
C753 C751 1.415 . S
C754 H744 0.930 . S
C754 C752 1.419 . S
C754 C755 1.362 . S
C755 H745 0.930 . S
C755 C748 1.409 . S
C755 C754 1.362 . S
H756 C762 0.930 . S
H757 C765 0.930 . S
H758 C766 0.930 1_545 S
H759 C767 0.902 1_545 S
H760 C770 0.930 1_455 S
H761 C771 0.930 . S
C762 H756 0.930 . S
C762 C763 1.355 . S
C762 C764 1.415 . S
C763 C762 1.355 . S
C763 C765 1.419 . S
C764 C762 1.415 . S
C764 C769 1.425 . S
C764 C771 1.409 . S
C765 H757 0.930 . S
C765 C763 1.419 . S
C765 C766 1.362 . S
C766 H758 0.930 1_565 S
C766 C765 1.362 . S
C766 C769 1.409 . S
C767 H759 0.902 1_565 S
C767 C768 1.355 . S
C767 C769 1.415 . S
C768 C767 1.355 . S
C768 C770 1.419 . S
C769 C764 1.425 . S
C769 C766 1.409 . S
C769 C767 1.415 . S
C770 H760 0.930 1_655 S
C770 C768 1.419 . S
C770 C771 1.362 . S
C771 H761 0.930 . S
C771 C764 1.409 . S
C771 C770 1.362 . S
H772 C778 0.930 . S
H773 C781 0.930 . S
H774 C782 0.930 . S
H775 C783 0.930 . S
H776 C786 0.930 . S
H777 C787 0.930 . S
C778 H772 0.930 . S
C778 C779 1.355 . S
C778 C780 1.415 . S
C779 C778 1.355 . S
C779 C781 1.419 . S
C780 C778 1.415 . S
C780 C785 1.425 . S
C780 C787 1.409 . S
C781 H773 0.930 . S
C781 C779 1.419 . S
C781 C782 1.362 . S
C782 H774 0.930 . S
C782 C781 1.362 . S
C782 C785 1.409 . S
C783 H775 0.930 . S
C783 C784 1.355 . S
C783 C785 1.415 . S
C784 C783 1.355 . S
C784 C786 1.419 . S
C785 C780 1.425 . S
C785 C782 1.409 . S
C785 C783 1.415 . S
C786 H776 0.930 . S
C786 C784 1.419 . S
C786 C787 1.362 . S
C787 H777 0.930 . S
C787 C780 1.409 . S
C787 C786 1.362 . S
H788 C794 0.930 . S
H789 C797 0.930 . S
H790 C798 0.930 . S
H791 C799 0.930 . S
H792 C802 0.930 . S
H793 C803 0.930 . S
C794 H788 0.930 . S
C794 C795 1.355 . S
C794 C796 1.415 . S
C795 C794 1.355 . S
C795 C797 1.419 . S
C796 C794 1.415 . S
C796 C801 1.425 . S
C796 C803 1.409 . S
C797 H789 0.930 . S
C797 C795 1.419 . S
C797 C798 1.362 . S
C798 H790 0.930 . S
C798 C797 1.362 . S
C798 C801 1.409 . S
C799 H791 0.930 . S
C799 C800 1.355 . S
C799 C801 1.415 . S
C800 C799 1.355 . S
C800 C802 1.419 . S
C801 C796 1.425 . S
C801 C798 1.409 . S
C801 C799 1.415 . S
C802 H792 0.930 . S
C802 C800 1.419 . S
C802 C803 1.362 . S
C803 H793 0.930 . S
C803 C796 1.409 . S
C803 C802 1.362 . S
H804 C810 0.930 . S
H805 C813 0.930 . S
H806 C814 0.930 . S
H807 C815 0.930 . S
H808 C818 0.930 . S
H809 C819 0.930 . S
C810 H804 0.930 . S
C810 C811 1.355 . S
C810 C812 1.415 . S
C811 C810 1.355 . S
C811 C813 1.419 . S
C812 C810 1.415 . S
C812 C817 1.425 . S
C812 C819 1.409 . S
C813 H805 0.930 . S
C813 C811 1.419 . S
C813 C814 1.362 . S
C814 H806 0.930 . S
C814 C813 1.362 . S
C814 C817 1.409 . S
C815 H807 0.930 . S
C815 C816 1.355 . S
C815 C817 1.415 . S
C816 C815 1.355 . S
C816 C818 1.419 . S
C817 C812 1.425 . S
C817 C814 1.409 . S
C817 C815 1.415 . S
C818 H808 0.930 . S
C818 C816 1.419 . S
C818 C819 1.362 . S
C819 H809 0.930 . S
C819 C812 1.409 . S
C819 C818 1.362 . S
H820 C826 0.930 . S
H821 C829 0.930 . S
H822 C830 0.930 . S
H823 C831 0.930 . S
H824 C834 0.930 . S
H825 C835 0.930 . S
C826 H820 0.930 . S
C826 C827 1.355 . S
C826 C828 1.415 . S
C827 C826 1.355 . S
C827 C829 1.419 . S
C828 C826 1.415 . S
C828 C833 1.425 . S
C828 C835 1.409 1_565 S
C829 H821 0.930 . S
C829 C827 1.419 . S
C829 C830 1.362 . S
C830 H822 0.930 . S
C830 C829 1.362 . S
C830 C833 1.409 . S
C831 H823 0.930 . S
C831 C832 1.355 . S
C831 C833 1.415 . S
C832 C831 1.355 . S
C832 C834 1.419 1_565 S
C833 C828 1.425 . S
C833 C830 1.409 . S
C833 C831 1.415 . S
C834 H824 0.930 . S
C834 C832 1.419 1_545 S
C834 C835 1.362 . S
C835 H825 0.930 . S
C835 C828 1.409 1_545 S
C835 C834 1.362 . S
H836 C842 0.930 . S
H837 C845 0.930 . S
H838 C846 0.930 . S
H839 C847 0.930 . S
H840 C850 0.930 . S
H841 C851 0.930 . S
C842 H836 0.930 . S
C842 C843 1.355 . S
C842 C844 1.415 . S
C843 C842 1.355 . S
C843 C845 1.419 . S
C844 C842 1.415 . S
C844 C849 1.425 . S
C844 C851 1.409 . S
C845 H837 0.930 . S
C845 C843 1.419 . S
C845 C846 1.362 . S
C846 H838 0.930 . S
C846 C845 1.362 . S
C846 C849 1.409 . S
C847 H839 0.930 . S
C847 C848 1.355 . S
C847 C849 1.415 . S
C848 C847 1.355 . S
C848 C850 1.419 . S
C849 C844 1.425 . S
C849 C846 1.409 . S
C849 C847 1.415 . S
C850 H840 0.930 . S
C850 C848 1.419 . S
C850 C851 1.362 . S
C851 H841 0.930 . S
C851 C844 1.409 . S
C851 C850 1.362 . S
H852 C858 0.930 . S
H853 C861 0.930 . S
H854 C862 0.930 . S
H855 C863 0.930 . S
H856 C866 0.930 . S
H857 C867 0.930 . S
C858 H852 0.930 . S
C858 C859 1.355 . S
C858 C860 1.415 . S
C859 C858 1.355 . S
C859 C861 1.419 . S
C860 C858 1.415 . S
C860 C865 1.425 . S
C860 C867 1.409 . S
C861 H853 0.930 . S
C861 C859 1.419 . S
C861 C862 1.362 . S
C862 H854 0.930 . S
C862 C861 1.362 . S
C862 C865 1.409 . S
C863 H855 0.930 . S
C863 C864 1.355 . S
C863 C865 1.415 . S
C864 C863 1.355 . S
C864 C866 1.419 . S
C865 C860 1.425 . S
C865 C862 1.409 . S
C865 C863 1.415 . S
C866 H856 0.930 . S
C866 C864 1.419 . S
C866 C867 1.362 . S
C867 H857 0.930 . S
C867 C860 1.409 . S
C867 C866 1.362 . S
H868 C874 0.930 . S
H869 C877 0.930 . S
H870 C878 0.930 . S
H871 C879 0.930 . S
H872 C882 0.930 . S
H873 C883 0.930 . S
C874 H868 0.930 . S
C874 C875 1.355 . S
C874 C876 1.415 . S
C875 C874 1.355 . S
C875 C877 1.419 . S
C876 C874 1.415 . S
C876 C881 1.425 . S
C876 C883 1.409 . S
C877 H869 0.930 . S
C877 C875 1.419 . S
C877 C878 1.362 . S
C878 H870 0.930 . S
C878 C877 1.362 . S
C878 C881 1.409 . S
C879 H871 0.930 . S
C879 C880 1.355 . S
C879 C881 1.415 . S
C880 C879 1.355 . S
C880 C882 1.419 . S
C881 C876 1.425 . S
C881 C878 1.409 . S
C881 C879 1.415 . S
C882 H872 0.930 . S
C882 C880 1.419 . S
C882 C883 1.362 . S
C883 H873 0.930 . S
C883 C876 1.409 . S
C883 C882 1.362 . S
H884 C890 0.930 . S
H885 C893 0.930 . S
H886 C894 0.930 . S
H887 C895 0.930 . S
H888 C898 0.930 1_455 S
H889 C899 0.930 1_455 S
C890 H884 0.930 . S
C890 C891 1.355 . S
C890 C892 1.415 . S
C891 C890 1.355 . S
C891 C893 1.419 . S
C892 C890 1.415 . S
C892 C897 1.425 . S
C892 C899 1.409 . S
C893 H885 0.930 . S
C893 C891 1.419 . S
C893 C894 1.362 . S
C894 H886 0.930 . S
C894 C893 1.362 . S
C894 C897 1.409 . S
C895 H887 0.930 . S
C895 C896 1.355 . S
C895 C897 1.415 . S
C896 C895 1.355 . S
C896 C898 1.419 . S
C897 C892 1.425 . S
C897 C894 1.409 . S
C897 C895 1.415 . S
C898 H888 0.930 1_655 S
C898 C896 1.419 . S
C898 C899 1.362 . S
C899 H889 0.930 1_655 S
C899 C892 1.409 . S
C899 C898 1.362 . S
H900 C906 0.930 . S
H901 C909 0.930 . S
H902 C910 0.930 . S
H903 C911 0.930 . S
H904 C914 0.930 . S
H905 C915 0.930 . S
C906 H900 0.930 . S
C906 C907 1.355 . S
C906 C908 1.415 . S
C907 C906 1.355 . S
C907 C909 1.419 . S
C908 C906 1.415 . S
C908 C913 1.425 . S
C908 C915 1.409 . S
C909 H901 0.930 . S
C909 C907 1.419 . S
C909 C910 1.362 . S
C910 H902 0.930 . S
C910 C909 1.362 . S
C910 C913 1.409 . S
C911 H903 0.930 . S
C911 C912 1.355 . S
C911 C913 1.415 . S
C912 C911 1.355 . S
C912 C914 1.419 . S
C913 C908 1.425 . S
C913 C910 1.409 . S
C913 C911 1.415 . S
C914 H904 0.930 . S
C914 C912 1.419 . S
C914 C915 1.362 . S
C915 H905 0.930 . S
C915 C908 1.409 . S
C915 C914 1.362 . S
H916 C922 0.930 . S
H917 C925 0.930 . S
H918 C926 0.930 . S
H919 C927 0.930 . S
H920 C930 0.929 . S
H921 C931 0.930 1_655 S
C922 H916 0.930 . S
C922 C923 1.355 . S
C922 C924 1.415 . S
C923 C922 1.355 . S
C923 C925 1.419 . S
C924 C922 1.415 . S
C924 C929 1.425 . S
C924 C931 1.409 . S
C925 H917 0.930 . S
C925 C923 1.419 . S
C925 C926 1.362 . S
C926 H918 0.930 . S
C926 C925 1.362 . S
C926 C929 1.409 . S
C927 H919 0.930 . S
C927 C928 1.355 . S
C927 C929 1.415 . S
C928 C927 1.355 . S
C928 C930 1.420 1_455 S
C929 C924 1.425 . S
C929 C926 1.409 . S
C929 C927 1.415 . S
C930 H920 0.929 . S
C930 C928 1.420 1_655 S
C930 C931 1.362 1_655 S
C931 H921 0.930 1_455 S
C931 C924 1.409 . S
C931 C930 1.362 1_455 S
H932 C938 0.930 . S
H933 C941 0.930 . S
H934 C942 0.930 . S
H935 C943 0.930 . S
H936 C946 0.930 . S
H937 C947 0.930 . S
C938 H932 0.930 . S
C938 C939 1.355 . S
C938 C940 1.415 . S
C939 C938 1.355 . S
C939 C941 1.419 . S
C940 C938 1.415 . S
C940 C945 1.425 . S
C940 C947 1.409 . S
C941 H933 0.930 . S
C941 C939 1.419 . S
C941 C942 1.362 . S
C942 H934 0.930 . S
C942 C941 1.362 . S
C942 C945 1.409 . S
C943 H935 0.930 . S
C943 C944 1.355 . S
C943 C945 1.415 . S
C944 C943 1.355 . S
C944 C946 1.419 . S
C945 C940 1.425 . S
C945 C942 1.409 . S
C945 C943 1.415 . S
C946 H936 0.930 . S
C946 C944 1.419 . S
C946 C947 1.362 . S
C947 H937 0.930 . S
C947 C940 1.409 . S
C947 C946 1.362 . S
C571 C1 1.570 . S
C576 C498 1.521 . S
C587 C80 1.466 . S
C592 C515 1.477 . S
C608 C538 1.278 . S
C603 C140 1.456 . S
C619 C211 1.721 . S
C624 C559 1.414 . S
C640 C518 1.763 . S
C635 C31 1.783 . S
C656 C495 1.648 . S
C651 C61 1.616 . S
C672 C557 1.373 . S
C667 C151 1.369 . S
C688 C536 1.460 . S
C683 C200 1.485 . S
C699 C20 1.744 . S
C704 C560 1.718 . S
C720 C517 1.242 . S
C715 C121 1.546 . S
C731 C181 1.662 . S
C736 C493 1.555 . S
C747 C91 1.462 . S
C752 C539 1.545 . S
C768 C497 1.594 . S
C763 C260 1.624 . S
C779 C320 1.317 . S
C784 C516 1.303 . S
C795 C361 1.535 . S
C800 C535 1.292 . S
C811 C451 1.723 . S
C816 C556 1.451 . S
C827 C271 1.723 . S
C832 C519 1.739 . S
C848 C494 1.759 . S
C843 C301 1.725 . S
C864 C558 1.244 . S
C859 C380 1.281 . S
C880 C537 1.548 . S
C875 C440 1.601 . S
C891 C241 1.555 . S
C896 C561 1.561 . S
C912 C514 1.319 . S
C907 C391 1.516 . S
C928 C496 1.431 . S
C923 C421 1.424 . S
C939 C331 1.482 . S
C944 C540 1.473 . S
