# Generated by pormake.
# Topology apo, (3,6)-cn, num edge types: 1
# Building blocks:
#     Node 0, Type 0, BuildingBlock: BETDAH_clean_linker_0, # of connection points: 3
#     Node 1, Type 0, BuildingBlock: BETDAH_clean_linker_0, # of connection points: 3
#     Node 2, Type 0, BuildingBlock: BETDAH_clean_linker_0, # of connection points: 3
#     Node 3, Type 0, BuildingBlock: BETDAH_clean_linker_0, # of connection points: 3
#     Node 4, Type 0, BuildingBlock: BETDAH_clean_linker_0, # of connection points: 3
#     Node 5, Type 0, BuildingBlock: BETDAH_clean_linker_0, # of connection points: 3
#     Node 6, Type 0, BuildingBlock: BETDAH_clean_linker_0, # of connection points: 3
#     Node 7, Type 0, BuildingBlock: BETDAH_clean_linker_0, # of connection points: 3
#     Node 8, Type 1, BuildingBlock: KUMBUR_clean_sbu_1, # of connection points: 6
#     Node 9, Type 1, BuildingBlock: KUMBUR_clean_sbu_1, # of connection points: 6
#     Node 10, Type 1, BuildingBlock: KUMBUR_clean_sbu_1, # of connection points: 6
#     Node 11, Type 1, BuildingBlock: KUMBUR_clean_sbu_1, # of connection points: 6
#     Edge 12, Type (0, 1), BuildingBlock: XIVTED_clean_linker_0, # of connection points: 2
#     Edge 13, Type (0, 1), BuildingBlock: XIVTED_clean_linker_0, # of connection points: 2
#     Edge 14, Type (0, 1), BuildingBlock: XIVTED_clean_linker_0, # of connection points: 2
#     Edge 15, Type (0, 1), BuildingBlock: XIVTED_clean_linker_0, # of connection points: 2
#     Edge 16, Type (0, 1), BuildingBlock: XIVTED_clean_linker_0, # of connection points: 2
#     Edge 17, Type (0, 1), BuildingBlock: XIVTED_clean_linker_0, # of connection points: 2
#     Edge 18, Type (0, 1), BuildingBlock: XIVTED_clean_linker_0, # of connection points: 2
#     Edge 19, Type (0, 1), BuildingBlock: XIVTED_clean_linker_0, # of connection points: 2
#     Edge 20, Type (0, 1), BuildingBlock: XIVTED_clean_linker_0, # of connection points: 2
#     Edge 21, Type (0, 1), BuildingBlock: XIVTED_clean_linker_0, # of connection points: 2
#     Edge 22, Type (0, 1), BuildingBlock: XIVTED_clean_linker_0, # of connection points: 2
#     Edge 23, Type (0, 1), BuildingBlock: XIVTED_clean_linker_0, # of connection points: 2
#     Edge 24, Type (0, 1), BuildingBlock: XIVTED_clean_linker_0, # of connection points: 2
#     Edge 25, Type (0, 1), BuildingBlock: XIVTED_clean_linker_0, # of connection points: 2
#     Edge 26, Type (0, 1), BuildingBlock: XIVTED_clean_linker_0, # of connection points: 2
#     Edge 27, Type (0, 1), BuildingBlock: XIVTED_clean_linker_0, # of connection points: 2
#     Edge 28, Type (0, 1), BuildingBlock: XIVTED_clean_linker_0, # of connection points: 2
#     Edge 29, Type (0, 1), BuildingBlock: XIVTED_clean_linker_0, # of connection points: 2
#     Edge 30, Type (0, 1), BuildingBlock: XIVTED_clean_linker_0, # of connection points: 2
#     Edge 31, Type (0, 1), BuildingBlock: XIVTED_clean_linker_0, # of connection points: 2
#     Edge 32, Type (0, 1), BuildingBlock: XIVTED_clean_linker_0, # of connection points: 2
#     Edge 33, Type (0, 1), BuildingBlock: XIVTED_clean_linker_0, # of connection points: 2
#     Edge 34, Type (0, 1), BuildingBlock: XIVTED_clean_linker_0, # of connection points: 2
#     Edge 35, Type (0, 1), BuildingBlock: XIVTED_clean_linker_0, # of connection points: 2
# Relax obj value: 0.036
# Max RMSD: 0.221
# Mean RMSD: 0.156
data_MOF--net-apo--node1-KUMBUR_clean_sbu_1--node2-BETDAH_clean_linker_0--edge1-XIVTED_clean_linker_0
_symmetry_space_group_name_H-M    P1
_symmetry_Int_Tables_number       1
_symmetry_cell_setting            triclinic
loop_
_symmetry_equiv_pos_as_xyz
'x, y, z'
_cell_length_a     27.547386
_cell_length_b     42.133665
_cell_length_c     51.828189
_cell_angle_alpha  89.51858
_cell_angle_beta   90.051444
_cell_angle_gamma 90.630467
loop_
_atom_site_label
_atom_site_type_symbol
_atom_site_fract_x
_atom_site_fract_y
_atom_site_fract_z
_atom_type_partial_charge
H0 H 0.35698 0.43393 0.42899 0.0
H1 H 0.27929 0.37783 0.37292 0.0
H2 H 0.28269 0.34849 0.45262 0.0
C3 C 0.33499 0.4133 0.42425 0.0
C4 C 0.32192 0.39182 0.44391 0.0
C5 C 0.31954 0.40878 0.39861 0.0
C6 C 0.29147 0.38158 0.39254 0.0
C7 C 0.27794 0.35991 0.41225 0.0
C8 C 0.29307 0.36538 0.43766 0.0
N9 N 0.24837 0.33259 0.40794 0.0
C10 C 0.23242 0.32071 0.3844 0.0
H11 H 0.14977 0.07337 0.93025 0.0
H12 H 0.22853 0.12807 0.87298 0.0
H13 H 0.22824 0.15746 0.95225 0.0
C14 C 0.17252 0.09359 0.92509 0.0
C15 C 0.187 0.11483 0.94439 0.0
C16 C 0.18753 0.09783 0.8993 0.0
C17 C 0.21659 0.12454 0.89271 0.0
C18 C 0.2315 0.14595 0.91204 0.0
C19 C 0.21679 0.14074 0.93761 0.0
N20 N 0.2622 0.17267 0.9072 0.0
C21 C 0.27726 0.18464 0.88339 0.0
H22 H 0.85937 0.10423 0.58999 0.0
H23 H 0.82945 0.1545 0.6605 0.0
H24 H 0.84 0.20529 0.58895 0.0
C25 C 0.85129 0.12591 0.60013 0.0
C26 C 0.85034 0.15465 0.58616 0.0
C27 C 0.84466 0.12531 0.62717 0.0
C28 C 0.83336 0.15387 0.63972 0.0
C29 C 0.83101 0.18247 0.62578 0.0
C30 C 0.84034 0.18282 0.59929 0.0
N31 N 0.82587 0.21169 0.63868 0.0
C32 C 0.783 0.22055 0.65054 0.0
H33 H 0.65706 0.41478 0.09268 0.0
H34 H 0.67434 0.3544 0.15968 0.0
H35 H 0.68304 0.31518 0.08378 0.0
C36 C 0.66341 0.39165 0.10126 0.0
C37 C 0.6701 0.3656 0.08501 0.0
C38 C 0.66439 0.38811 0.12832 0.0
C39 C 0.67472 0.35806 0.13897 0.0
C40 C 0.682 0.33194 0.12282 0.0
C41 C 0.67924 0.33575 0.09601 0.0
N42 N 0.68574 0.30097 0.13327 0.0
C43 C 0.72608 0.29086 0.147 0.0
H44 H 0.64982 0.57592 0.58964 0.0
H45 H 0.72791 0.63129 0.646 0.0
H46 H 0.72496 0.66122 0.56641 0.0
C47 C 0.67201 0.59644 0.59447 0.0
C48 C 0.68524 0.61802 0.57493 0.0
C49 C 0.68745 0.60071 0.62012 0.0
C50 C 0.71578 0.62774 0.62634 0.0
C51 C 0.72959 0.64948 0.60674 0.0
C52 C 0.71442 0.64427 0.58129 0.0
N53 N 0.75942 0.67663 0.61123 0.0
C54 C 0.7752 0.68823 0.63488 0.0
H55 H 0.8605 0.93527 0.08999 0.0
H56 H 0.78174 0.85189 0.06658 0.0
H57 H 0.7805 0.87971 0.14622 0.0
C58 C 0.83751 0.91503 0.0948 0.0
C59 C 0.8221 0.91032 0.12048 0.0
C60 C 0.82313 0.89424 0.07516 0.0
C61 C 0.7931 0.86828 0.08149 0.0
C62 C 0.778 0.86261 0.10693 0.0
C63 C 0.79275 0.88359 0.12659 0.0
N64 N 0.74717 0.83585 0.11134 0.0
C65 C 0.73155 0.8237 0.13498 0.0
H66 H 0.15138 0.91208 0.42588 0.0
H67 H 0.25747 0.88048 0.37058 0.0
H68 H 0.26671 0.85076 0.44966 0.0
C69 C 0.18264 0.89802 0.42092 0.0
C70 C 0.20557 0.88051 0.44053 0.0
C71 C 0.20113 0.8987 0.39551 0.0
C72 C 0.24267 0.88071 0.38993 0.0
C73 C 0.26639 0.86379 0.40961 0.0
C74 C 0.24815 0.86414 0.43474 0.0
N75 N 0.31048 0.84781 0.40511 0.0
C76 C 0.31749 0.82714 0.38477 0.0
H77 H 0.37555 0.60013 0.92437 0.0
H78 H 0.3507 0.70009 0.93115 0.0
H79 H 0.31734 0.65369 0.86004 0.0
C80 C 0.36197 0.622 0.9161 0.0
C81 C 0.34638 0.62305 0.89012 0.0
C82 C 0.36333 0.64961 0.9311 0.0
C83 C 0.34905 0.67846 0.91998 0.0
C84 C 0.3317 0.67984 0.89469 0.0
C85 C 0.32982 0.65216 0.87982 0.0
N86 N 0.32111 0.71001 0.884 0.0
C87 C 0.27913 0.71693 0.8703 0.0
Tb88 Tb 0.06598 0.11573 0.23443 0.0
C89 C 0.85732 0.09525 0.26583 0.0
N90 N 0.88455 0.12149 0.27095 0.0
C91 C 0.81974 0.15452 0.25587 0.0
C92 C 0.81133 0.09749 0.25407 0.0
C93 C 0.86469 0.1509 0.26809 0.0
C94 C 0.79344 0.12766 0.24821 0.0
C95 C 0.84477 0.03875 0.27238 0.0
C96 C 0.87357 0.06637 0.27486 0.0
C97 C 0.80041 0.04039 0.25906 0.0
C98 C 0.78373 0.06974 0.24987 0.0
Tb99 Tb 0.95985 0.11243 0.28837 0.0
N100 N 0.91679 0.06579 0.28739 0.0
C101 C 0.86076 0.01068 0.28411 0.0
C102 C 0.93093 0.03913 0.30046 0.0
C103 C 0.90358 0.01104 0.29866 0.0
H104 H 0.88339 0.17165 0.27532 0.0
H105 H 0.91557 0.9897 0.3084 0.0
H106 H 0.15953 0.08461 0.26425 0.0
H107 H 0.04547 0.22957 0.18601 0.0
H108 H 0.96397 0.03946 0.31162 0.0
H109 H 0.83966 0.98891 0.28272 0.0
H110 H 0.0267 0.17329 0.19425 0.0
H111 H 0.80506 0.17797 0.25279 0.0
H112 H 0.778 0.01934 0.25656 0.0
H113 H 0.74858 0.0709 0.24053 0.0
H114 H 0.23899 0.10274 0.28131 0.0
H115 H 0.75829 0.13048 0.23914 0.0
H116 H 0.11653 0.25492 0.20695 0.0
N117 N 0.13974 0.13033 0.25058 0.0
C118 C 0.15391 0.16089 0.24655 0.0
C119 C 0.21524 0.1194 0.27174 0.0
C120 C 0.19869 0.17239 0.25596 0.0
C121 C 0.17022 0.10921 0.26217 0.0
C122 C 0.22932 0.15123 0.2689 0.0
N123 N 0.08209 0.16753 0.22266 0.0
C124 C 0.05585 0.18436 0.2049 0.0
C125 C 0.13705 0.21217 0.22749 0.0
C126 C 0.12346 0.18037 0.23259 0.0
C127 C 0.10744 0.23038 0.21136 0.0
C128 C 0.06721 0.2162 0.19959 0.0
H129 H 0.26409 0.1591 0.27642 0.0
H130 H 0.24538 0.21389 0.25936 0.0
H131 H 0.19137 0.24879 0.23436 0.0
O132 O 0.09705 0.11868 0.19726 0.0
O133 O 0.07779 0.13254 0.2741 0.0
O134 O 0.00598 0.15509 0.28566 0.0
O135 O 0.09664 0.07486 0.21854 0.0
O136 O 0.9948 0.13606 0.22473 0.0
O137 O 0.96432 0.15486 0.26315 0.0
O138 O 0.98001 0.11043 0.32757 0.0
O139 O 0.97027 0.07295 0.2612 0.0
O140 O 0.99405 0.09769 0.22385 0.0
O141 O 0.90859 0.12449 0.31663 0.0
O142 O 0.0273 0.08777 0.29809 0.0
O143 O 0.06714 0.07372 0.26008 0.0
C144 C 0.0537 0.15539 0.28519 0.0
C145 C 0.08451 0.07191 0.17332 0.0
C146 C 0.07937 0.06667 0.12633 0.0
C147 C 0.04499 0.04202 0.12972 0.0
C148 C 0.05005 0.04724 0.17608 0.0
C149 C 0.03051 0.03247 0.1544 0.0
C150 C 0.09913 0.08145 0.14837 0.0
C151 C 0.96772 0.15594 0.23779 0.0
C152 C 0.10436 0.08834 0.19622 0.0
C153 C 0.21143 0.20443 0.25198 0.0
C154 C 0.18058 0.22432 0.23783 0.0
C155 C 0.9704 0.07487 0.23594 0.0
C156 C 0.94187 0.14823 0.35352 0.0
C157 C 0.93419 0.16897 0.39726 0.0
C158 C 0.94663 0.19938 0.38767 0.0
C159 C 0.95417 0.17872 0.34446 0.0
C160 C 0.93198 0.1434 0.37988 0.0
C161 C 0.95666 0.2041 0.3615 0.0
C162 C 0.05726 0.0697 0.28492 0.0
C163 C 0.93892 0.12143 0.33559 0.0
H164 H 0.02966 0.02976 0.11329 0.0
H165 H 0.03803 0.03935 0.19497 0.0
H166 H 0.00404 0.01348 0.15674 0.0
H167 H 0.12518 0.10075 0.14618 0.0
H168 H 0.94785 0.21971 0.4003 0.0
H169 H 0.96148 0.18292 0.3242 0.0
H170 H 0.92302 0.11971 0.38679 0.0
H171 H 0.96602 0.22761 0.35438 0.0
Tb172 Tb 0.44095 0.39488 0.73268 0.0
C173 C 0.64366 0.42399 0.76496 0.0
N174 N 0.62001 0.39565 0.76759 0.0
C175 C 0.68763 0.36946 0.7481 0.0
C176 C 0.68905 0.42642 0.75252 0.0
C177 C 0.64311 0.36833 0.76107 0.0
C178 C 0.71024 0.39872 0.74329 0.0
C179 C 0.6482 0.47979 0.77586 0.0
C180 C 0.62379 0.45027 0.77642 0.0
C181 C 0.69228 0.48276 0.76241 0.0
C182 C 0.71262 0.45612 0.75069 0.0
Tb183 Tb 0.54563 0.39711 0.78768 0.0
N184 N 0.58058 0.44653 0.78874 0.0
C185 C 0.6278 0.5052 0.78913 0.0
C186 C 0.56172 0.47071 0.80284 0.0
C187 C 0.58469 0.50051 0.80296 0.0
H188 H 0.62807 0.34551 0.76643 0.0
H189 H 0.56918 0.51981 0.81373 0.0
H190 H 0.34827 0.42748 0.76188 0.0
H191 H 0.45684 0.28235 0.68338 0.0
H192 H 0.52872 0.46703 0.81374 0.0
H193 H 0.64543 0.52831 0.78921 0.0
H194 H 0.47889 0.33774 0.69265 0.0
H195 H 0.70496 0.3477 0.74236 0.0
H196 H 0.71139 0.50535 0.76141 0.0
H197 H 0.74728 0.45854 0.74097 0.0
H198 H 0.26712 0.41078 0.77773 0.0
H199 H 0.74507 0.39952 0.7336 0.0
H200 H 0.383 0.25831 0.70281 0.0
N201 N 0.36574 0.38176 0.74779 0.0
C202 C 0.34979 0.35179 0.7431 0.0
C203 C 0.29019 0.39388 0.76819 0.0
C204 C 0.30394 0.34115 0.75177 0.0
C205 C 0.33618 0.40323 0.75932 0.0
C206 C 0.27419 0.36259 0.76467 0.0
N207 N 0.42227 0.34403 0.72011 0.0
C208 C 0.44844 0.32711 0.70264 0.0
C209 C 0.36423 0.30082 0.72357 0.0
C210 C 0.3796 0.33201 0.72927 0.0
C211 C 0.39345 0.28239 0.70767 0.0
C212 C 0.43526 0.29584 0.69675 0.0
H213 H 0.23865 0.35537 0.77165 0.0
H214 H 0.25445 0.30087 0.75392 0.0
H215 H 0.30725 0.26551 0.72915 0.0
O216 O 0.40975 0.39378 0.69553 0.0
O217 O 0.42644 0.37595 0.77157 0.0
O218 O 0.49798 0.35483 0.78621 0.0
O219 O 0.41448 0.43727 0.71663 0.0
O220 O 0.51133 0.37292 0.72415 0.0
O221 O 0.54211 0.35468 0.76309 0.0
O222 O 0.53711 0.40203 0.82805 0.0
O223 O 0.53419 0.43632 0.75987 0.0
O224 O 0.51379 0.41163 0.72245 0.0
O225 O 0.59639 0.37607 0.81253 0.0
O226 O 0.47517 0.41731 0.79802 0.0
O227 O 0.44054 0.43537 0.75951 0.0
C228 C 0.45045 0.35343 0.78346 0.0
C229 C 0.42565 0.4403 0.67123 0.0
C230 C 0.43114 0.44465 0.62412 0.0
C231 C 0.46579 0.46919 0.62698 0.0
C232 C 0.46026 0.4649 0.67347 0.0
C233 C 0.48017 0.47914 0.65147 0.0
C234 C 0.41115 0.43037 0.64649 0.0
C235 C 0.53719 0.35265 0.73783 0.0
C236 C 0.40515 0.42439 0.69441 0.0
C237 C 0.2893 0.30967 0.74713 0.0
C238 C 0.31946 0.28951 0.73311 0.0
C239 C 0.5367 0.43434 0.7347 0.0
C240 C 0.61134 0.4029 0.85134 0.0
C241 C 0.64479 0.40793 0.89481 0.0
C242 C 0.68085 0.42863 0.8851 0.0
C243 C 0.64826 0.4232 0.84208 0.0
C244 C 0.60948 0.39552 0.87785 0.0
C245 C 0.68234 0.4363 0.8589 0.0
C246 C 0.44749 0.43711 0.78479 0.0
C247 C 0.57723 0.38739 0.8333 0.0
H248 H 0.48135 0.48108 0.61028 0.0
H249 H 0.47207 0.47315 0.6922 0.0
H250 H 0.50682 0.49806 0.6534 0.0
H251 H 0.38492 0.41115 0.64472 0.0
H252 H 0.70807 0.43876 0.89779 0.0
H253 H 0.65168 0.42834 0.82179 0.0
H254 H 0.58185 0.37922 0.88506 0.0
H255 H 0.71057 0.45197 0.85153 0.0
Tb256 Tb 0.04484 0.89737 0.73083 0.0
C257 C 0.85079 0.85089 0.77613 0.0
N258 N 0.86636 0.88093 0.77098 0.0
C259 C 0.79065 0.89254 0.7503 0.0
C260 C 0.80511 0.83995 0.76754 0.0
C261 C 0.8365 0.9022 0.75909 0.0
C262 C 0.77509 0.86117 0.75427 0.0
C263 C 0.86587 0.80009 0.79651 0.0
C264 C 0.88081 0.83135 0.79034 0.0
C265 C 0.82129 0.78848 0.78707 0.0
C266 C 0.7909 0.80841 0.77266 0.0
Tb267 Tb 0.94141 0.89454 0.78602 0.0
N268 N 0.92327 0.84366 0.79939 0.0
C269 C 0.89534 0.78188 0.81273 0.0
C270 C 0.9497 0.82694 0.81712 0.0
C271 C 0.93695 0.79561 0.82348 0.0
H272 H 0.84822 0.9265 0.75619 0.0
H273 H 0.95874 0.78228 0.83707 0.0
H274 H 0.12553 0.84167 0.74728 0.0
H275 H 0.07619 0.02069 0.70732 0.0
H276 H 0.98003 0.83778 0.82696 0.0
H277 H 0.88522 0.75775 0.81794 0.0
H278 H 0.03183 0.9692 0.70663 0.0
H279 H 0.76736 0.90928 0.74048 0.0
H280 H 0.80941 0.76442 0.79138 0.0
H281 H 0.75618 0.79937 0.76595 0.0
H282 H 0.20469 0.83971 0.76931 0.0
H283 H 0.73966 0.85373 0.74736 0.0
H284 H 0.15424 0.02527 0.73086 0.0
N285 N 0.12095 0.89205 0.74843 0.0
C286 C 0.14661 0.91945 0.75167 0.0
C287 C 0.18835 0.86238 0.76495 0.0
C288 C 0.19314 0.91957 0.76301 0.0
C289 C 0.14273 0.86358 0.75311 0.0
C290 C 0.21324 0.89056 0.77047 0.0
N291 N 0.08344 0.94562 0.7302 0.0
C292 C 0.06576 0.97119 0.71695 0.0
C293 C 0.15426 0.97583 0.74267 0.0
C294 C 0.12771 0.94713 0.74164 0.0
C295 C 0.13494 1.00273 0.73056 0.0
C296 C 0.09086 1.00025 0.71727 0.0
H297 H 0.24889 0.88958 0.77928 0.0
H298 H 0.25441 0.94906 0.77438 0.0
H299 H 0.22024 0.99842 0.75657 0.0
O300 O 0.02868 0.90365 0.69151 0.0
O301 O 0.0351 0.93649 0.75838 0.0
O302 O 0.01441 0.91123 0.79585 0.0
O303 O 0.09448 0.88113 0.70308 0.0
O304 O 0.97411 0.91742 0.72135 0.0
O305 O 0.93992 0.93577 0.75934 0.0
O306 O 0.91116 0.8931 0.82339 0.0
O307 O 0.92685 0.87525 0.7474 0.0
O308 O 0.99889 0.85443 0.73351 0.0
O309 O 0.91408 0.93659 0.80163 0.0
O310 O 0.01217 0.87264 0.79464 0.0
O311 O 0.04233 0.8547 0.75573 0.0
C312 C 0.03733 0.93416 0.78358 0.0
C313 C 0.05958 0.86531 0.66364 0.0
C314 C 0.06856 0.84948 0.6187 0.0
C315 C 0.04195 0.82154 0.62419 0.0
C316 C 0.03347 0.83723 0.66881 0.0
C317 C 0.02469 0.81548 0.64913 0.0
C318 C 0.07722 0.87128 0.63866 0.0
C319 C 0.94725 0.9377 0.73411 0.0
C320 C 0.06726 0.88919 0.68374 0.0
C321 C 0.21885 0.94841 0.76544 0.0
C322 C 0.19947 0.9765 0.75523 0.0
C323 C 0.95128 0.85291 0.73579 0.0
C324 C 0.92628 0.9399 0.84688 0.0
C325 C 0.93194 0.94506 0.89386 0.0
C326 C 0.96657 0.96955 0.8904 0.0
C327 C 0.96085 0.96447 0.84403 0.0
C328 C 0.91188 0.93038 0.87186 0.0
C329 C 0.98084 0.97909 0.86567 0.0
C330 C 0.03813 0.85259 0.78105 0.0
C331 C 0.90567 0.92364 0.82409 0.0
H332 H 0.03506 0.80418 0.6093 0.0
H333 H 0.01973 0.83223 0.68795 0.0
H334 H 0.00441 0.79386 0.65321 0.0
H335 H 0.09689 0.89321 0.63469 0.0
H336 H 0.98218 0.98171 0.9068 0.0
H337 H 0.97255 0.97243 0.8251 0.0
H338 H 0.88566 0.91119 0.8741 0.0
H339 H 0.00744 0.99799 0.86327 0.0
Tb340 Tb 0.46026 0.61349 0.23031 0.0
C341 C 0.65195 0.66059 0.27628 0.0
N342 N 0.63735 0.63036 0.27142 0.0
C343 C 0.7139 0.61967 0.25151 0.0
C344 C 0.6975 0.67208 0.26787 0.0
C345 C 0.6681 0.60946 0.26008 0.0
C346 C 0.72845 0.65123 0.25514 0.0
C347 C 0.63499 0.71117 0.29588 0.0
C348 C 0.62107 0.67975 0.29002 0.0
C349 C 0.6794 0.72335 0.28655 0.0
C350 C 0.71067 0.7038 0.27263 0.0
Tb351 Tb 0.56243 0.61583 0.28617 0.0
N352 N 0.57883 0.66689 0.29901 0.0
C353 C 0.60473 0.72895 0.31173 0.0
C354 C 0.55183 0.68315 0.31653 0.0
C355 C 0.56347 0.71464 0.32253 0.0
H356 H 0.65708 0.58503 0.25741 0.0
H357 H 0.54113 0.72762 0.33588 0.0
H358 H 0.38028 0.66949 0.24719 0.0
H359 H 0.42783 0.49095 0.20642 0.0
H360 H 0.52184 0.67182 0.32645 0.0
H361 H 0.61404 0.7532 0.31668 0.0
H362 H 0.47273 0.54227 0.20594 0.0
H363 H 0.7379 0.60322 0.24211 0.0
H364 H 0.69049 0.74754 0.29062 0.0
H365 H 0.74527 0.71327 0.26604 0.0
H366 H 0.30083 0.67108 0.26869 0.0
H367 H 0.76383 0.6591 0.24839 0.0
H368 H 0.34952 0.48621 0.22969 0.0
N369 N 0.38408 0.61893 0.24768 0.0
C370 C 0.35806 0.59155 0.25069 0.0
C371 C 0.3169 0.64846 0.26419 0.0
C372 C 0.31143 0.59135 0.26188 0.0
C373 C 0.36265 0.6474 0.25255 0.0
C374 C 0.29159 0.62025 0.26941 0.0
N375 N 0.42113 0.56553 0.22935 0.0
C376 C 0.43868 0.5402 0.21613 0.0
C377 C 0.3499 0.53539 0.24155 0.0
C378 C 0.37676 0.564 0.24066 0.0
C379 C 0.36905 0.50867 0.22948 0.0
C380 C 0.41328 0.51124 0.21634 0.0
H381 H 0.25587 0.62115 0.27809 0.0
H382 H 0.24974 0.56187 0.27295 0.0
H383 H 0.28355 0.51279 0.25516 0.0
O384 O 0.47877 0.60974 0.19107 0.0
O385 O 0.46946 0.57371 0.25783 0.0
O386 O 0.48955 0.59821 0.29548 0.0
O387 O 0.41023 0.62865 0.2022 0.0
O388 O 0.53067 0.59255 0.22163 0.0
O389 O 0.56498 0.57469 0.26011 0.0
O390 O 0.59246 0.61768 0.32356 0.0
O391 O 0.57757 0.63503 0.24728 0.0
O392 O 0.50594 0.65638 0.23315 0.0
O393 O 0.59025 0.57403 0.3026 0.0
O394 O 0.49091 0.63669 0.29423 0.0
O395 O 0.46278 0.65572 0.25501 0.0
C396 C 0.46722 0.57536 0.28305 0.0
C397 C 0.44564 0.64898 0.16415 0.0
C398 C 0.44417 0.66728 0.11926 0.0
C399 C 0.4578 0.69784 0.12766 0.0
C400 C 0.45929 0.67954 0.17205 0.0
C401 C 0.46542 0.7038 0.15384 0.0
C402 C 0.43832 0.64289 0.13782 0.0
C403 C 0.55772 0.57256 0.23492 0.0
C404 C 0.43927 0.62315 0.1831 0.0
C405 C 0.28539 0.56257 0.26413 0.0
C406 C 0.30456 0.53463 0.25394 0.0
C407 C 0.55354 0.65757 0.23536 0.0
C408 C 0.57834 0.57104 0.34793 0.0
C409 C 0.57361 0.56622 0.39501 0.0
C410 C 0.53886 0.54174 0.39215 0.0
C411 C 0.5436 0.54654 0.34566 0.0
C412 C 0.59327 0.5807 0.37266 0.0
C413 C 0.52403 0.53207 0.36766 0.0
C414 C 0.46569 0.65711 0.28036 0.0
C415 C 0.59852 0.58721 0.32482 0.0
H416 H 0.46181 0.71734 0.11407 0.0
H417 H 0.46496 0.68464 0.19227 0.0
H418 H 0.4758 0.72739 0.16004 0.0
H419 H 0.42854 0.61906 0.13186 0.0
H420 H 0.52354 0.52971 0.40884 0.0
H421 H 0.53142 0.53855 0.32692 0.0
H422 H 0.61955 0.5999 0.37443 0.0
H423 H 0.49729 0.51321 0.36572 0.0
H424 H 0.10453 0.9133 0.38927 0.0
H425 H 0.12799 0.02851 0.26827 0.0
H426 H 0.24575 0.93238 0.35591 0.0
H427 H 0.03861 0.04964 0.3343 0.0
H428 H 0.16328 0.98408 0.29278 0.0
H429 H 0.07016 0.95359 0.36078 0.0
C430 C 0.12845 0.92579 0.37599 0.0
C431 C 0.17854 0.91974 0.37557 0.0
C432 C 0.13576 0.99854 0.30166 0.0
C433 C 0.13863 0.96518 0.34221 0.0
C434 C 0.11564 0.02388 0.28779 0.0
C435 C 0.08 0.04292 0.29913 0.0
C436 C 0.11909 0.99173 0.3267 0.0
C437 C 0.0655 0.03561 0.32452 0.0
C438 C 0.1086 0.94865 0.35963 0.0
C439 C 0.207 0.93601 0.35702 0.0
N440 N 0.08469 0.01047 0.33729 0.0
N441 N 0.18668 0.95809 0.34113 0.0
H442 H 0.33323 0.55983 0.90308 0.0
H443 H 0.41495 0.49386 0.76557 0.0
H444 H 0.37223 0.6209 0.83882 0.0
H445 H 0.42839 0.4403 0.83652 0.0
H446 H 0.38314 0.53851 0.79018 0.0
H447 H 0.35212 0.51371 0.87676 0.0
C448 C 0.34554 0.56366 0.88346 0.0
C449 C 0.3516 0.59456 0.87338 0.0
C450 C 0.39275 0.51688 0.80029 0.0
C451 C 0.37239 0.54159 0.84296 0.0
C452 C 0.41068 0.49134 0.78627 0.0
C453 C 0.4246 0.46336 0.79903 0.0
C454 C 0.38803 0.51425 0.82721 0.0
C455 C 0.41849 0.4615 0.82591 0.0
C456 C 0.35613 0.53725 0.86842 0.0
C457 C 0.36645 0.59772 0.84749 0.0
N458 N 0.40068 0.48659 0.83909 0.0
N459 N 0.37651 0.57163 0.83326 0.0
H460 H 0.69411 0.53649 0.61594 0.0
H461 H 0.55006 0.497 0.74677 0.0
H462 H 0.64904 0.609 0.66874 0.0
H463 H 0.58141 0.42826 0.68815 0.0
H464 H 0.59301 0.53772 0.7212 0.0
H465 H 0.66102 0.49604 0.64506 0.0
C466 C 0.67746 0.54388 0.63381 0.0
C467 C 0.67374 0.57622 0.63975 0.0
C468 C 0.59069 0.51371 0.71398 0.0
C469 C 0.63551 0.52982 0.67333 0.0
C470 C 0.56644 0.49045 0.72863 0.0
C471 C 0.56264 0.45919 0.71965 0.0
C472 C 0.61116 0.50564 0.69014 0.0
C473 C 0.58351 0.45208 0.69577 0.0
C474 C 0.65851 0.52074 0.65044 0.0
C475 C 0.65265 0.58436 0.66341 0.0
N476 N 0.60687 0.47509 0.68188 0.0
N477 N 0.63388 0.56131 0.67926 0.0
H478 H 0.85657 0.9 0.16988 0.0
H479 H 0.92976 0.08295 0.18853 0.0
H480 H 0.82087 0.97492 0.11613 0.0
H481 H 0.9519 0.01226 0.24785 0.0
H482 H 0.88854 0.04313 0.16226 0.0
H483 H 0.88879 0.94013 0.19974 0.0
C484 C 0.85494 0.92486 0.1645 0.0
C485 C 0.83663 0.93405 0.1403 0.0
C486 C 0.90193 0.03626 0.18112 0.0
C487 C 0.87385 0.97998 0.17415 0.0
C488 C 0.92565 0.05901 0.19609 0.0
C489 C 0.94388 0.05093 0.22049 0.0
C490 C 0.89677 1.00496 0.19044 0.0
C491 C 0.93758 0.01956 0.22932 0.0
C492 C 0.87358 0.94773 0.18147 0.0
C493 C 0.8356 0.96663 0.13431 0.0
N494 N 0.91475 0.99764 0.21425 0.0
N495 N 0.85425 0.98827 0.15097 0.0
H496 H 0.91187 0.07929 0.61722 0.0
H497 H 0.89325 0.98836 0.75131 0.0
H498 H 0.80175 0.104 0.6727 0.0
H499 H 0.95011 0.9466 0.68191 0.0
H500 H 0.86313 0.03305 0.72515 0.0
H501 H 0.93069 0.03271 0.64287 0.0
C502 C 0.89084 0.07478 0.63452 0.0
C503 C 0.85454 0.09576 0.64245 0.0
C504 C 0.8819 0.01388 0.71577 0.0
C505 C 0.8777 0.04244 0.6727 0.0
C506 C 0.89913 0.9884 0.73065 0.0
C507 C 0.92485 0.96377 0.71891 0.0
C508 C 0.89104 0.01481 0.68909 0.0
C509 C 0.93112 0.96509 0.69201 0.0
C510 C 0.90208 0.04816 0.64935 0.0
C511 C 0.83031 0.08884 0.66581 0.0
N512 N 0.91488 0.99026 0.67815 0.0
N513 N 0.84255 0.0629 0.68022 0.0
H514 H 0.5954 0.43291 0.11894 0.0
H515 H 0.60901 0.52106 0.25354 0.0
H516 H 0.70107 0.40503 0.17622 0.0
H517 H 0.55717 0.56399 0.18285 0.0
H518 H 0.63825 0.47579 0.22834 0.0
H519 H 0.57441 0.47804 0.14517 0.0
C520 C 0.61479 0.43643 0.13689 0.0
C521 C 0.65094 0.41532 0.14501 0.0
C522 C 0.62075 0.49534 0.21849 0.0
C523 C 0.62568 0.46696 0.17575 0.0
C524 C 0.60408 0.52115 0.2328 0.0
C525 C 0.57998 0.54626 0.22039 0.0
C526 C 0.61267 0.49463 0.19173 0.0
C527 C 0.57486 0.54513 0.19345 0.0
C528 C 0.60246 0.46222 0.15199 0.0
C529 C 0.67302 0.42064 0.16913 0.0
N530 N 0.59054 0.51968 0.18015 0.0
N531 N 0.66001 0.44597 0.18372 0.0
H532 H 0.31287 0.47303 0.40276 0.0
H533 H 0.45094 0.5131 0.27021 0.0
H534 H 0.3567 0.4005 0.34966 0.0
H535 H 0.42462 0.58102 0.33018 0.0
H536 H 0.40863 0.47229 0.29604 0.0
H537 H 0.34475 0.51347 0.3733 0.0
C538 C 0.32904 0.46561 0.38477 0.0
C539 C 0.33277 0.43327 0.37886 0.0
C540 C 0.41188 0.49616 0.30347 0.0
C541 C 0.36951 0.47971 0.34482 0.0
C542 C 0.4357 0.51949 0.28866 0.0
C543 C 0.4409 0.55053 0.29798 0.0
C544 C 0.39313 0.50397 0.32778 0.0
C545 C 0.42149 0.55738 0.32227 0.0
C546 C 0.34727 0.48877 0.36793 0.0
C547 C 0.35313 0.42515 0.355 0.0
N548 N 0.39851 0.53434 0.33629 0.0
N549 N 0.37117 0.44822 0.33893 0.0
H550 H 0.19025 0.03338 0.90441 0.0
H551 H 0.05382 0.99677 0.7711 0.0
H552 H 0.15137 0.10692 0.85007 0.0
H553 H 0.0797 0.92713 0.83078 0.0
H554 H 0.09618 0.03678 0.79718 0.0
H555 H 0.15737 0.99366 0.87512 0.0
C556 C 0.17487 0.04118 0.88622 0.0
C557 C 0.17293 0.07362 0.87988 0.0
C558 C 0.09284 0.01271 0.8045 0.0
C559 C 0.13515 0.02798 0.84599 0.0
C560 C 0.069 0.98983 0.78954 0.0
C561 C 0.0637 0.95853 0.79869 0.0
C562 C 0.11144 1.00421 0.82882 0.0
C563 C 0.08296 0.95098 0.82299 0.0
C564 C 0.15612 0.01844 0.86946 0.0
C565 C 0.15359 0.0822 0.85575 0.0
N566 N 0.10592 0.97362 0.83717 0.0
N567 N 0.13505 0.05953 0.83976 0.0
H568 H 0.24163 0.1205 0.98853 0.0
H569 H 0.02227 0.07278 0.08317 0.0
H570 H 0.09677 0.09759 0.9624 0.0
H571 H 0.17065 0.08336 0.10882 0.0
H572 H 0.04802 0.08583 0.0393 0.0
H573 H 0.21533 0.11121 0.03309 0.0
C574 C 0.20421 0.11372 0.99217 0.0
C575 C 0.1714 0.10974 0.97164 0.0
C576 C 0.07499 0.08536 0.05451 0.0
C577 C 0.1411 0.09889 0.02266 0.0
C578 C 0.06034 0.07776 0.0796 0.0
C579 C 0.09439 0.07662 0.0998 0.0
C580 C 0.12412 0.09203 0.0494 0.0
C581 C 0.14303 0.08411 0.09398 0.0
C582 C 0.18929 0.10826 0.01761 0.0
C583 C 0.12349 0.10054 0.97754 0.0
N584 N 0.15645 0.09136 0.06933 0.0
N585 N 0.10983 0.09546 1.00246 0.0
H586 H 0.26846 0.38576 0.48842 0.0
H587 H 0.48795 0.43789 0.58102 0.0
H588 H 0.41198 0.41042 0.46107 0.0
H589 H 0.3398 0.42755 0.60713 0.0
H590 H 0.46193 0.42358 0.5376 0.0
H591 H 0.29525 0.39631 0.53262 0.0
C592 C 0.30571 0.39317 0.49173 0.0
C593 C 0.33797 0.39731 0.47097 0.0
C594 C 0.43509 0.42439 0.55282 0.0
C595 C 0.36883 0.4096 0.52154 0.0
C596 C 0.44988 0.43273 0.57765 0.0
C597 C 0.41599 0.43425 0.59784 0.0
C598 C 0.38599 0.41734 0.548 0.0
C599 C 0.36734 0.42648 0.5923 0.0
C600 C 0.3209 0.39936 0.51695 0.0
C601 C 0.38567 0.40731 0.47641 0.0
N602 N 0.3538 0.41848 0.56792 0.0
N603 N 0.39962 0.41309 0.50112 0.0
H604 H 0.7307 0.34386 0.04736 0.0
H605 H 0.56985 0.40832 0.92965 0.0
H606 H 0.59839 0.39587 0.0582 0.0
H607 H 0.72185 0.38656 0.92274 0.0
H608 H 0.57427 0.39591 0.97602 0.0
H609 H 0.72271 0.35156 1.0006 0.0
C610 C 0.69986 0.35674 0.03986 0.0
C611 C 0.66535 0.36945 0.05663 0.0
C612 C 0.60657 0.39377 0.96429 0.0
C613 C 0.65579 0.37817 1.00329 0.0
C614 C 0.60397 0.40065 0.93788 0.0
C615 C 0.64562 0.39867 0.92247 0.0
C616 C 0.65095 0.38437 0.9752 0.0
C617 C 0.68905 0.38875 0.93405 0.0
C618 C 0.69541 0.36124 0.01323 0.0
C619 C 0.62614 0.38606 0.04593 0.0
N620 N 0.69059 0.38194 0.95969 0.0
N621 N 0.62235 0.38989 0.01993 0.0
H622 H 0.91228 0.19614 0.56188 0.0
H623 H 0.86437 0.13029 0.41975 0.0
H624 H 0.81895 0.11543 0.54712 0.0
H625 H 0.97882 0.19693 0.43881 0.0
H626 H 0.84498 0.12513 0.46571 0.0
H627 H 0.93378 0.19815 0.51625 0.0
C628 C 0.89603 0.17894 0.54897 0.0
C629 C 0.86344 0.15573 0.55831 0.0
C630 C 0.87443 0.14078 0.45979 0.0
C631 C 0.88831 0.15772 0.50587 0.0
C632 C 0.88575 0.14363 0.43355 0.0
C633 C 0.92315 0.16428 0.42524 0.0
C634 C 0.90047 0.15883 0.47791 0.0
C635 C 0.94904 0.18123 0.44411 0.0
C636 C 0.90863 0.17995 0.52292 0.0
C637 C 0.84431 0.13366 0.54074 0.0
N638 N 0.93707 0.17825 0.46945 0.0
N639 N 0.8568 0.1353 0.51532 0.0
H640 H 0.76882 0.88969 0.03086 0.0
H641 H 0.98884 0.93885 0.93712 0.0
H642 H 0.9136 0.9117 0.0576 0.0
H643 H 0.84054 0.92863 0.91124 0.0
H644 H 0.96286 0.92533 0.98089 0.0
H645 H 0.79545 0.89993 0.98651 0.0
C646 C 0.8063 0.89647 0.0274 0.0
C647 C 0.83899 0.8999 0.04803 0.0
C648 C 0.93598 0.926 0.96564 0.0
C649 C 0.86968 0.91187 0.99725 0.0
C650 C 0.95075 0.93387 0.94062 0.0
C651 C 0.91681 0.93517 0.92038 0.0
C652 C 0.88683 0.91923 0.97063 0.0
C653 C 0.86811 0.92771 0.9261 0.0
C654 C 0.82141 0.90248 1.00207 0.0
C655 C 0.88698 0.90914 0.04236 0.0
N656 N 0.85459 0.92017 0.95067 0.0
N657 N 0.90084 0.91477 0.01755 0.0
H658 H 0.73835 0.62412 0.53029 0.0
H659 H 0.51743 0.5728 0.43835 0.0
H660 H 0.59481 0.60013 0.55797 0.0
H661 H 0.66525 0.58305 0.41169 0.0
H662 H 0.54406 0.587 0.48168 0.0
H663 H 0.711 0.61383 0.48613 0.0
C664 C 0.70099 0.61692 0.52706 0.0
C665 C 0.66888 0.61285 0.54789 0.0
C666 C 0.5707 0.5862 0.46636 0.0
C667 C 0.63739 0.60086 0.4974 0.0
C668 C 0.55556 0.57791 0.44158 0.0
C669 C 0.58917 0.57641 0.42126 0.0
C670 C 0.61987 0.59319 0.471 0.0
C671 C 0.63792 0.58411 0.42663 0.0
C672 C 0.68547 0.61087 0.50186 0.0
C673 C 0.621 0.60315 0.54256 0.0
N674 N 0.65181 0.59205 0.45096 0.0
N675 N 0.60675 0.59749 0.51789 0.0
H676 H 0.43016 0.68883 0.95371 0.0
H677 H 0.37445 0.62885 0.09699 0.0
H678 H 0.3356 0.60899 0.97016 0.0
H679 H 0.49411 0.69165 0.07753 0.0
H680 H 0.35895 0.6212 0.051 0.0
H681 H 0.45316 0.69053 0.99922 0.0
C682 C 0.4144 0.67156 0.96695 0.0
C683 C 0.38069 0.64887 0.95822 0.0
C684 C 0.38878 0.63649 0.05683 0.0
C685 C 0.4066 0.65076 0.01044 0.0
C686 C 0.39785 0.64079 0.08313 0.0
C687 C 0.43552 0.66114 0.09131 0.0
C688 C 0.41727 0.65284 0.0385 0.0
C689 C 0.46402 0.67629 0.07228 0.0
C690 C 0.42765 0.67246 0.99291 0.0
C691 C 0.36182 0.62681 0.97612 0.0
N692 N 0.4541 0.672 0.04685 0.0
N693 N 0.37462 0.62851 1.00146 0.0
H694 H 0.25373 0.88618 0.48663 0.0
H695 H 0.02142 0.84136 0.57256 0.0
H696 H 0.11068 0.87121 0.45473 0.0
H697 H 0.15846 0.87211 0.60466 0.0
H698 H 0.05376 0.85099 0.5292 0.0
H699 H 0.21981 0.88025 0.53002 0.0
C700 C 0.21515 0.88167 0.48878 0.0
C701 C 0.18502 0.87904 0.46703 0.0
C702 C 0.0767 0.85575 0.54572 0.0
C703 C 0.14589 0.87221 0.51665 0.0
C704 C 0.05836 0.85006 0.57047 0.0
C705 C 0.08733 0.85585 0.59227 0.0
C706 C 0.12455 0.86705 0.54269 0.0
C707 C 0.13472 0.86756 0.58842 0.0
C708 C 0.19576 0.87843 0.51355 0.0
C709 C 0.13517 0.87362 0.47096 0.0
N710 N 0.15192 0.8726 0.56413 0.0
N711 N 0.11723 0.87015 0.49527 0.0
H712 H 0.27248 0.27001 0.36176 0.0
H713 H 0.02339 0.21617 0.29353 0.0
H714 H 0.14288 0.32614 0.3633 0.0
H715 H 0.14472 0.15421 0.30621 0.0
H716 H 0.06922 0.2594 0.31404 0.0
H717 H 0.23002 0.23074 0.335 0.0
C718 C 0.23539 0.27438 0.35585 0.0
C719 C 0.21114 0.30135 0.36435 0.0
C720 C 0.08595 0.2364 0.31217 0.0
C721 C 0.16183 0.25627 0.33452 0.0
C722 C 0.05972 0.21168 0.30059 0.0
C723 C 0.08055 0.18164 0.29789 0.0
C724 C 0.13338 0.23104 0.32112 0.0
C725 C 0.12771 0.17717 0.30737 0.0
C726 C 0.21098 0.25185 0.34084 0.0
C727 C 0.16286 0.30574 0.35675 0.0
N728 N 0.15254 0.20156 0.31848 0.0
N729 N 0.1396 0.28331 0.34237 0.0
H730 H 0.36505 0.17796 0.86075 0.0
H731 H 0.35749 0.35389 0.80173 0.0
H732 H 0.23812 0.23665 0.86155 0.0
H733 H 0.48127 0.29303 0.79407 0.0
H734 H 0.31181 0.30994 0.82125 0.0
H735 H 0.40654 0.21776 0.83345 0.0
C736 C 0.34557 0.19889 0.85454 0.0
C737 C 0.29808 0.20404 0.863 0.0
C738 C 0.34885 0.30602 0.81519 0.0
C739 C 0.34548 0.25004 0.83263 0.0
C740 C 0.37487 0.33112 0.80389 0.0
C741 C 0.42301 0.32702 0.79593 0.0
C742 C 0.37133 0.27657 0.81903 0.0
C743 C 0.44423 0.29724 0.79998 0.0
C744 C 0.36932 0.22172 0.83918 0.0
C745 C 0.27462 0.23175 0.85506 0.0
N746 N 0.41831 0.27318 0.81131 0.0
N747 N 0.29867 0.25385 0.8405 0.0
H748 H 0.72304 0.26154 0.62722 0.0
H749 H 0.57184 0.2959 0.75596 0.0
H750 H 0.74819 0.21258 0.69918 0.0
H751 H 0.57023 0.356 0.68817 0.0
H752 H 0.62707 0.25994 0.73378 0.0
H753 H 0.65699 0.29085 0.64743 0.0
C754 C 0.71399 0.25671 0.64723 0.0
C755 C 0.74057 0.23476 0.66166 0.0
C756 C 0.61431 0.28087 0.72371 0.0
C757 C 0.66587 0.26828 0.68502 0.0
C758 C 0.58282 0.30138 0.73634 0.0
C759 C 0.56678 0.32912 0.72397 0.0
C760 C 0.62949 0.28801 0.69843 0.0
C761 C 0.58165 0.33489 0.69846 0.0
C762 C 0.67655 0.2735 0.65879 0.0
C763 C 0.72809 0.22935 0.68751 0.0
N764 N 0.61231 0.31462 0.6866 0.0
N765 N 0.69166 0.24615 0.69847 0.0
H766 H 0.7613 0.30126 0.19524 0.0
H767 H 0.93262 0.14953 0.18894 0.0
H768 H 0.78092 0.24506 0.1271 0.0
H769 H 0.93353 0.21368 0.25336 0.0
H770 H 0.87816 0.18514 0.16586 0.0
H771 H 0.82517 0.27054 0.21701 0.0
C772 C 0.77961 0.28268 0.18485 0.0
C773 C 0.76638 0.27551 0.15947 0.0
C774 C 0.89036 0.19159 0.185 0.0
C775 C 0.8384 0.24022 0.18403 0.0
C776 C 0.92157 0.17126 0.19816 0.0
C777 C 0.9371 0.17848 0.22322 0.0
C778 C 0.87427 0.21935 0.19698 0.0
C779 C 0.92166 0.20698 0.23422 0.0
C780 C 0.81588 0.26515 0.19721 0.0
C781 C 0.79049 0.2512 0.14672 0.0
N782 N 0.89071 0.22627 0.22113 0.0
N783 N 0.82516 0.23427 0.15918 0.0
H784 H 0.73377 0.73726 0.65923 0.0
H785 H 0.98376 0.79312 0.72544 0.0
H786 H 0.86552 0.68352 0.65506 0.0
H787 H 0.85823 0.85256 0.71735 0.0
H788 H 0.9387 0.74979 0.70462 0.0
H789 H 0.77546 0.77608 0.68674 0.0
C790 C 0.7712 0.73329 0.66472 0.0
C791 C 0.79627 0.70715 0.65526 0.0
C792 C 0.92087 0.77224 0.70761 0.0
C793 C 0.84466 0.75174 0.68596 0.0
C794 C 0.94663 0.79701 0.71938 0.0
C795 C 0.92451 0.82641 0.72336 0.0
C796 C 0.87256 0.77687 0.69978 0.0
C797 C 0.87633 0.8301 0.71519 0.0
C798 C 0.79515 0.75557 0.68016 0.0
C799 C 0.84494 0.70327 0.66234 0.0
N800 N 0.852 0.80568 0.70382 0.0
N801 N 0.86772 0.72546 0.67715 0.0
H802 H 0.77244 0.77384 0.1592 0.0
H803 H 0.52159 0.71759 0.22474 0.0
H804 H 0.64141 0.82844 0.15515 0.0
H805 H 0.64662 0.65782 0.21705 0.0
H806 H 0.56719 0.76117 0.20409 0.0
H807 H 0.73027 0.73454 0.18655 0.0
C808 C 0.73507 0.77788 0.16469 0.0
C809 C 0.71033 0.80441 0.15531 0.0
C810 C 0.5848 0.7386 0.20712 0.0
C811 C 0.66139 0.75929 0.18579 0.0
C812 C 0.55871 0.71367 0.21878 0.0
C813 C 0.58058 0.68413 0.22288 0.0
C814 C 0.63314 0.73394 0.19947 0.0
C815 C 0.62875 0.68039 0.21482 0.0
C816 C 0.71084 0.75533 0.18004 0.0
C817 C 0.66174 0.80838 0.16238 0.0
N818 N 0.6534 0.70496 0.20355 0.0
N819 N 0.63867 0.78593 0.17708 0.0
H820 H 0.30776 0.7646 0.39323 0.0
H821 H 0.44524 0.71699 0.26315 0.0
H822 H 0.35675 0.83354 0.33695 0.0
H823 H 0.42434 0.65366 0.32808 0.0
H824 H 0.40242 0.75855 0.28664 0.0
H825 H 0.33882 0.72208 0.36606 0.0
C826 C 0.32444 0.77062 0.37487 0.0
C827 C 0.32976 0.8023 0.36709 0.0
C828 C 0.40706 0.73552 0.29569 0.0
C829 C 0.36598 0.75416 0.33617 0.0
C830 C 0.43133 0.71183 0.28229 0.0
C831 C 0.43854 0.68202 0.29383 0.0
C832 C 0.38953 0.72919 0.32068 0.0
C833 C 0.41995 0.67648 0.31864 0.0
C834 C 0.34242 0.74645 0.35947 0.0
C835 C 0.35192 0.80919 0.34339 0.0
N836 N 0.39634 0.69985 0.33125 0.0
N837 N 0.36951 0.78525 0.32873 0.0
H838 H 0.21504 0.75455 0.89336 0.0
H839 H 0.07197 0.79603 0.76291 0.0
H840 H 0.24916 0.71198 0.82042 0.0
H841 H 0.07105 0.85458 0.8308 0.0
H842 H 0.12606 0.75896 0.78525 0.0
H843 H 0.15029 0.78474 0.8724 0.0
C844 C 0.20815 0.75123 0.87296 0.0
C845 C 0.23692 0.73085 0.85849 0.0
C846 C 0.11373 0.77982 0.79528 0.0
C847 C 0.16376 0.76547 0.83432 0.0
C848 C 0.08297 0.80099 0.78256 0.0
C849 C 0.06745 0.82862 0.79492 0.0
C850 C 0.12849 0.78609 0.82068 0.0
C851 C 0.08211 0.8336 0.82051 0.0
C852 C 0.1715 0.76856 0.86098 0.0
C853 C 0.22727 0.72745 0.83214 0.0
N854 N 0.1119 0.81262 0.8325 0.0
N855 N 0.1915 0.74475 0.82079 0.0
loop_
_geom_bond_atom_site_label_1
_geom_bond_atom_site_label_2
_geom_bond_distance
_geom_bond_site_symmetry_2
_ccdc_geom_bond_type
H0 C3 0.929 . S
H1 C6 0.929 . S
H2 C8 0.930 . S
C3 H0 0.929 . S
C3 C4 1.398 . S
C3 C5 1.396 . S
C4 C3 1.398 . S
C4 C8 1.407 . S
C5 C3 1.396 . S
C5 C6 1.394 . S
C6 H1 0.929 . S
C6 C5 1.394 . S
C6 C7 1.382 . S
C7 C6 1.382 . S
C7 C8 1.392 . S
C7 N9 1.420 . S
C8 H2 0.930 . S
C8 C4 1.407 . S
C8 C7 1.392 . S
N9 C7 1.420 . S
N9 C10 1.244 . S
C10 N9 1.244 . S
H11 C14 0.929 . S
H12 C17 0.929 . S
H13 C19 0.930 . S
C14 H11 0.929 . S
C14 C15 1.398 . S
C14 C16 1.396 . S
C15 C14 1.398 . S
C15 C19 1.407 . S
C16 C14 1.396 . S
C16 C17 1.394 . S
C17 H12 0.929 . S
C17 C16 1.394 . S
C17 C18 1.382 . S
C18 C17 1.382 . S
C18 C19 1.392 . S
C18 N20 1.420 . S
C19 H13 0.930 . S
C19 C15 1.407 . S
C19 C18 1.392 . S
N20 C18 1.420 . S
N20 C21 1.244 . S
C21 N20 1.244 . S
H22 C25 0.929 . S
H23 C28 0.929 . S
H24 C30 0.930 . S
C25 H22 0.929 . S
C25 C26 1.398 . S
C25 C27 1.396 . S
C26 C25 1.398 . S
C26 C30 1.407 . S
C27 C25 1.396 . S
C27 C28 1.394 . S
C28 H23 0.929 . S
C28 C27 1.394 . S
C28 C29 1.382 . S
C29 C28 1.382 . S
C29 C30 1.392 . S
C29 N31 1.420 . S
C30 H24 0.930 . S
C30 C26 1.407 . S
C30 C29 1.392 . S
N31 C29 1.420 . S
N31 C32 1.244 . S
C32 N31 1.244 . S
H33 C36 0.929 . S
H34 C39 0.929 . S
H35 C41 0.930 . S
C36 H33 0.929 . S
C36 C37 1.398 . S
C36 C38 1.396 . S
C37 C36 1.398 . S
C37 C41 1.407 . S
C38 C36 1.396 . S
C38 C39 1.394 . S
C39 H34 0.929 . S
C39 C38 1.394 . S
C39 C40 1.382 . S
C40 C39 1.382 . S
C40 C41 1.392 . S
C40 N42 1.420 . S
C41 H35 0.930 . S
C41 C37 1.407 . S
C41 C40 1.392 . S
N42 C40 1.420 . S
N42 C43 1.244 . S
C43 N42 1.244 . S
H44 C47 0.929 . S
H45 C50 0.929 . S
H46 C52 0.930 . S
C47 H44 0.929 . S
C47 C48 1.398 . S
C47 C49 1.396 . S
C48 C47 1.398 . S
C48 C52 1.407 . S
C49 C47 1.396 . S
C49 C50 1.394 . S
C50 H45 0.929 . S
C50 C49 1.394 . S
C50 C51 1.382 . S
C51 C50 1.382 . S
C51 C52 1.392 . S
C51 N53 1.420 . S
C52 H46 0.930 . S
C52 C48 1.407 . S
C52 C51 1.392 . S
N53 C51 1.420 . S
N53 C54 1.244 . S
C54 N53 1.244 . S
H55 C58 0.929 . S
H56 C61 0.929 . S
H57 C63 0.930 . S
C58 H55 0.929 . S
C58 C59 1.398 . S
C58 C60 1.396 . S
C59 C58 1.398 . S
C59 C63 1.407 . S
C60 C58 1.396 . S
C60 C61 1.394 . S
C61 H56 0.929 . S
C61 C60 1.394 . S
C61 C62 1.382 . S
C62 C61 1.382 . S
C62 C63 1.392 . S
C62 N64 1.420 . S
C63 H57 0.930 . S
C63 C59 1.407 . S
C63 C62 1.392 . S
N64 C62 1.420 . S
N64 C65 1.244 . S
C65 N64 1.244 . S
H66 C69 0.929 . S
H67 C72 0.929 . S
H68 C74 0.930 . S
C69 H66 0.929 . S
C69 C70 1.398 . S
C69 C71 1.396 . S
C70 C69 1.398 . S
C70 C74 1.407 . S
C71 C69 1.396 . S
C71 C72 1.394 . S
C72 H67 0.929 . S
C72 C71 1.394 . S
C72 C73 1.382 . S
C73 C72 1.382 . S
C73 C74 1.392 . S
C73 N75 1.420 . S
C74 H68 0.930 . S
C74 C70 1.407 . S
C74 C73 1.392 . S
N75 C73 1.420 . S
N75 C76 1.244 . S
C76 N75 1.244 . S
H77 C80 0.929 . S
H78 C83 0.929 . S
H79 C85 0.930 . S
C80 H77 0.929 . S
C80 C81 1.398 . S
C80 C82 1.396 . S
C81 C80 1.398 . S
C81 C85 1.407 . S
C82 C80 1.396 . S
C82 C83 1.394 . S
C83 H78 0.929 . S
C83 C82 1.394 . S
C83 C84 1.382 . S
C84 C83 1.382 . S
C84 C85 1.392 . S
C84 N86 1.420 . S
C85 H79 0.930 . S
C85 C81 1.407 . S
C85 C84 1.392 . S
N86 C84 1.420 . S
N86 C87 1.244 . S
C87 N86 1.244 . S
Tb88 N117 2.617 . S
Tb88 N123 2.572 . S
Tb88 O132 2.465 . S
Tb88 O133 2.387 . S
Tb88 O135 2.428 . S
Tb88 O136 2.308 . S
Tb88 O140 2.349 . S
Tb88 O143 2.393 . S
Tb88 C152 2.802 . S
C89 N90 1.379 . S
C89 C92 1.416 . S
C89 C96 1.424 . S
N90 C89 1.379 . S
N90 C93 1.334 . S
N90 Tb99 2.617 . S
C91 C93 1.390 . S
C91 C94 1.339 . S
C91 H111 0.930 . S
C92 C89 1.416 . S
C92 C94 1.416 . S
C92 C98 1.448 . S
C93 N90 1.334 . S
C93 C91 1.390 . S
C93 H104 0.930 . S
C94 C91 1.339 . S
C94 C92 1.416 . S
C94 H115 0.930 . S
C95 C96 1.413 . S
C95 C97 1.427 . S
C95 C101 1.416 1_545 S
C96 C89 1.424 . S
C96 C95 1.413 . S
C96 N100 1.361 . S
C97 C95 1.427 . S
C97 C98 1.328 . S
C97 H112 0.929 . S
C98 C92 1.448 . S
C98 C97 1.328 . S
C98 H113 0.930 . S
Tb99 N90 2.617 . S
Tb99 N100 2.572 . S
Tb99 O134 2.349 1_655 S
Tb99 O137 2.393 . S
Tb99 O138 2.465 . S
Tb99 O139 2.387 . S
Tb99 O141 2.428 . S
Tb99 O142 2.308 1_655 S
Tb99 C163 2.802 . S
N100 C96 1.361 . S
N100 Tb99 2.572 . S
N100 C102 1.340 . S
C101 C95 1.416 1_565 S
C101 C103 1.332 . S
C101 H109 0.931 . S
C102 N100 1.340 . S
C102 C103 1.407 1_545 S
C102 H108 0.930 . S
C103 C101 1.332 . S
C103 C102 1.407 1_565 S
C103 H105 0.929 . S
H104 C93 0.930 . S
H105 C103 0.929 . S
H106 C121 0.930 . S
H107 C128 0.929 . S
H108 C102 0.930 . S
H109 C101 0.931 . S
H110 C124 0.930 . S
H111 C91 0.930 . S
H112 C97 0.929 . S
H113 C98 0.930 . S
H114 C119 0.930 . S
H115 C94 0.930 . S
H116 C127 0.931 . S
N117 Tb88 2.617 . S
N117 C118 1.379 . S
N117 C121 1.334 . S
C118 N117 1.379 . S
C118 C120 1.416 . S
C118 C126 1.424 . S
C119 H114 0.930 . S
C119 C121 1.390 . S
C119 C122 1.339 . S
C120 C118 1.416 . S
C120 C122 1.416 . S
C120 C153 1.448 . S
C121 H106 0.930 . S
C121 N117 1.334 . S
C121 C119 1.390 . S
C122 C119 1.339 . S
C122 C120 1.416 . S
C122 H129 0.930 . S
N123 Tb88 2.572 . S
N123 C124 1.340 . S
N123 C126 1.361 . S
C124 H110 0.930 . S
C124 N123 1.340 . S
C124 C128 1.407 . S
C125 C126 1.413 . S
C125 C127 1.416 . S
C125 C154 1.427 . S
C126 C118 1.424 . S
C126 N123 1.361 . S
C126 C125 1.413 . S
C127 H116 0.931 . S
C127 C125 1.416 . S
C127 C128 1.332 . S
C128 H107 0.929 . S
C128 C124 1.407 . S
C128 C127 1.332 . S
H129 C122 0.930 . S
H130 C153 0.930 . S
H131 C154 0.929 . S
O132 Tb88 2.465 . S
O132 C152 1.264 . S
O133 Tb88 2.387 . S
O133 C144 1.264 . S
O134 Tb99 2.349 1_455 S
O134 C144 1.243 . S
O135 Tb88 2.428 . S
O135 C152 1.256 . S
O136 Tb88 2.308 . S
O136 C151 1.266 1_455 S
O137 Tb99 2.393 . S
O137 C151 1.248 . S
O138 Tb99 2.465 . S
O138 C163 1.264 . S
O139 Tb99 2.387 . S
O139 C155 1.264 . S
O140 Tb88 2.349 . S
O140 C155 1.243 1_455 S
O141 Tb99 2.428 . S
O141 C163 1.256 . S
O142 Tb99 2.308 1_455 S
O142 C162 1.266 . S
O143 Tb88 2.393 . S
O143 C162 1.248 . S
C144 O133 1.264 . S
C144 O134 1.243 . S
C145 C148 1.399 . S
C145 C150 1.383 . S
C145 C152 1.496 . S
C146 C147 1.399 . S
C146 C150 1.389 . S
C147 C146 1.399 . S
C147 C149 1.380 . S
C147 H164 0.929 . S
C148 C145 1.399 . S
C148 C149 1.392 . S
C148 H165 0.929 . S
C149 C147 1.380 . S
C149 C148 1.392 . S
C149 H166 0.929 . S
C150 C145 1.383 . S
C150 C146 1.389 . S
C150 H167 0.931 . S
C151 O136 1.266 1_655 S
C151 O137 1.248 . S
C152 Tb88 2.802 . S
C152 O132 1.264 . S
C152 O135 1.256 . S
C152 C145 1.496 . S
C153 C120 1.448 . S
C153 H130 0.930 . S
C153 C154 1.328 . S
C154 C125 1.427 . S
C154 H131 0.929 . S
C154 C153 1.328 . S
C155 O139 1.264 . S
C155 O140 1.243 1_655 S
C156 C159 1.399 . S
C156 C160 1.383 . S
C156 C163 1.496 . S
C157 C158 1.399 . S
C157 C160 1.389 . S
C158 C157 1.399 . S
C158 C161 1.380 . S
C158 H168 0.929 . S
C159 C156 1.399 . S
C159 C161 1.392 . S
C159 H169 0.929 . S
C160 C156 1.383 . S
C160 C157 1.389 . S
C160 H170 0.931 . S
C161 C158 1.380 . S
C161 C159 1.392 . S
C161 H171 0.929 . S
C162 O142 1.266 . S
C162 O143 1.248 . S
C163 Tb99 2.802 . S
C163 O138 1.264 . S
C163 O141 1.256 . S
C163 C156 1.496 . S
H164 C147 0.929 . S
H165 C148 0.929 . S
H166 C149 0.929 . S
H167 C150 0.931 . S
H168 C158 0.929 . S
H169 C159 0.929 . S
H170 C160 0.931 . S
H171 C161 0.929 . S
Tb172 N201 2.617 . S
Tb172 N207 2.572 . S
Tb172 O216 2.465 . S
Tb172 O217 2.387 . S
Tb172 O219 2.428 . S
Tb172 O220 2.308 . S
Tb172 O224 2.349 . S
Tb172 O227 2.393 . S
Tb172 C236 2.802 . S
C173 N174 1.379 . S
C173 C176 1.416 . S
C173 C180 1.424 . S
N174 C173 1.379 . S
N174 C177 1.334 . S
N174 Tb183 2.617 . S
C175 C177 1.390 . S
C175 C178 1.339 . S
C175 H195 0.930 . S
C176 C173 1.416 . S
C176 C178 1.416 . S
C176 C182 1.448 . S
C177 N174 1.334 . S
C177 C175 1.390 . S
C177 H188 0.930 . S
C178 C175 1.339 . S
C178 C176 1.416 . S
C178 H199 0.930 . S
C179 C180 1.413 . S
C179 C181 1.427 . S
C179 C185 1.416 . S
C180 C173 1.424 . S
C180 C179 1.413 . S
C180 N184 1.361 . S
C181 C179 1.427 . S
C181 C182 1.328 . S
C181 H196 0.929 . S
C182 C176 1.448 . S
C182 C181 1.328 . S
C182 H197 0.930 . S
Tb183 N174 2.617 . S
Tb183 N184 2.572 . S
Tb183 O218 2.349 . S
Tb183 O221 2.393 . S
Tb183 O222 2.465 . S
Tb183 O223 2.387 . S
Tb183 O225 2.428 . S
Tb183 O226 2.308 . S
Tb183 C247 2.802 . S
N184 C180 1.361 . S
N184 Tb183 2.572 . S
N184 C186 1.340 . S
C185 C179 1.416 . S
C185 C187 1.332 . S
C185 H193 0.931 . S
C186 N184 1.340 . S
C186 C187 1.407 . S
C186 H192 0.930 . S
C187 C185 1.332 . S
C187 C186 1.407 . S
C187 H189 0.929 . S
H188 C177 0.930 . S
H189 C187 0.929 . S
H190 C205 0.930 . S
H191 C212 0.929 . S
H192 C186 0.930 . S
H193 C185 0.931 . S
H194 C208 0.930 . S
H195 C175 0.930 . S
H196 C181 0.929 . S
H197 C182 0.930 . S
H198 C203 0.930 . S
H199 C178 0.930 . S
H200 C211 0.931 . S
N201 Tb172 2.617 . S
N201 C202 1.379 . S
N201 C205 1.334 . S
C202 N201 1.379 . S
C202 C204 1.416 . S
C202 C210 1.424 . S
C203 H198 0.930 . S
C203 C205 1.390 . S
C203 C206 1.339 . S
C204 C202 1.416 . S
C204 C206 1.416 . S
C204 C237 1.448 . S
C205 H190 0.930 . S
C205 N201 1.334 . S
C205 C203 1.390 . S
C206 C203 1.339 . S
C206 C204 1.416 . S
C206 H213 0.930 . S
N207 Tb172 2.572 . S
N207 C208 1.340 . S
N207 C210 1.361 . S
C208 H194 0.930 . S
C208 N207 1.340 . S
C208 C212 1.407 . S
C209 C210 1.413 . S
C209 C211 1.416 . S
C209 C238 1.427 . S
C210 C202 1.424 . S
C210 N207 1.361 . S
C210 C209 1.413 . S
C211 H200 0.931 . S
C211 C209 1.416 . S
C211 C212 1.332 . S
C212 H191 0.929 . S
C212 C208 1.407 . S
C212 C211 1.332 . S
H213 C206 0.930 . S
H214 C237 0.930 . S
H215 C238 0.929 . S
O216 Tb172 2.465 . S
O216 C236 1.264 . S
O217 Tb172 2.387 . S
O217 C228 1.264 . S
O218 Tb183 2.349 . S
O218 C228 1.243 . S
O219 Tb172 2.428 . S
O219 C236 1.256 . S
O220 Tb172 2.308 . S
O220 C235 1.266 . S
O221 Tb183 2.393 . S
O221 C235 1.248 . S
O222 Tb183 2.465 . S
O222 C247 1.264 . S
O223 Tb183 2.387 . S
O223 C239 1.264 . S
O224 Tb172 2.349 . S
O224 C239 1.243 . S
O225 Tb183 2.428 . S
O225 C247 1.256 . S
O226 Tb183 2.308 . S
O226 C246 1.266 . S
O227 Tb172 2.393 . S
O227 C246 1.248 . S
C228 O217 1.264 . S
C228 O218 1.243 . S
C229 C232 1.399 . S
C229 C234 1.383 . S
C229 C236 1.496 . S
C230 C231 1.399 . S
C230 C234 1.389 . S
C231 C230 1.399 . S
C231 C233 1.380 . S
C231 H248 0.929 . S
C232 C229 1.399 . S
C232 C233 1.392 . S
C232 H249 0.929 . S
C233 C231 1.380 . S
C233 C232 1.392 . S
C233 H250 0.929 . S
C234 C229 1.383 . S
C234 C230 1.389 . S
C234 H251 0.931 . S
C235 O220 1.266 . S
C235 O221 1.248 . S
C236 Tb172 2.802 . S
C236 O216 1.264 . S
C236 O219 1.256 . S
C236 C229 1.496 . S
C237 C204 1.448 . S
C237 H214 0.930 . S
C237 C238 1.328 . S
C238 C209 1.427 . S
C238 H215 0.929 . S
C238 C237 1.328 . S
C239 O223 1.264 . S
C239 O224 1.243 . S
C240 C243 1.399 . S
C240 C244 1.383 . S
C240 C247 1.496 . S
C241 C242 1.399 . S
C241 C244 1.389 . S
C242 C241 1.399 . S
C242 C245 1.380 . S
C242 H252 0.929 . S
C243 C240 1.399 . S
C243 C245 1.392 . S
C243 H253 0.929 . S
C244 C240 1.383 . S
C244 C241 1.389 . S
C244 H254 0.931 . S
C245 C242 1.380 . S
C245 C243 1.392 . S
C245 H255 0.929 . S
C246 O226 1.266 . S
C246 O227 1.248 . S
C247 Tb183 2.802 . S
C247 O222 1.264 . S
C247 O225 1.256 . S
C247 C240 1.496 . S
H248 C231 0.929 . S
H249 C232 0.929 . S
H250 C233 0.929 . S
H251 C234 0.931 . S
H252 C242 0.929 . S
H253 C243 0.929 . S
H254 C244 0.931 . S
H255 C245 0.929 . S
Tb256 N285 2.617 . S
Tb256 N291 2.572 . S
Tb256 O300 2.465 . S
Tb256 O301 2.387 . S
Tb256 O303 2.428 . S
Tb256 O304 2.313 . S
Tb256 O308 2.349 . S
Tb256 O311 2.393 . S
Tb256 C320 2.802 . S
C257 N258 1.379 . S
C257 C260 1.416 . S
C257 C264 1.424 . S
N258 C257 1.379 . S
N258 C261 1.334 . S
N258 Tb267 2.617 . S
C259 C261 1.390 . S
C259 C262 1.339 . S
C259 H279 0.930 . S
C260 C257 1.416 . S
C260 C262 1.416 . S
C260 C266 1.448 . S
C261 N258 1.334 . S
C261 C259 1.390 . S
C261 H272 0.930 . S
C262 C259 1.339 . S
C262 C260 1.416 . S
C262 H283 0.930 . S
C263 C264 1.413 . S
C263 C265 1.427 . S
C263 C269 1.416 . S
C264 C257 1.424 . S
C264 C263 1.413 . S
C264 N268 1.361 . S
C265 C263 1.427 . S
C265 C266 1.328 . S
C265 H280 0.929 . S
C266 C260 1.448 . S
C266 C265 1.328 . S
C266 H281 0.930 . S
Tb267 N258 2.617 . S
Tb267 N268 2.572 . S
Tb267 O302 2.349 1_655 S
Tb267 O305 2.393 . S
Tb267 O306 2.465 . S
Tb267 O307 2.387 . S
Tb267 O309 2.428 . S
Tb267 O310 2.308 1_655 S
Tb267 C331 2.802 . S
N268 C264 1.361 . S
N268 Tb267 2.572 . S
N268 C270 1.340 . S
C269 C263 1.416 . S
C269 C271 1.332 . S
C269 H277 0.931 . S
C270 N268 1.340 . S
C270 C271 1.407 . S
C270 H276 0.930 . S
C271 C269 1.332 . S
C271 C270 1.407 . S
C271 H273 0.929 . S
H272 C261 0.930 . S
H273 C271 0.929 . S
H274 C289 0.930 . S
H275 C296 0.929 . S
H276 C270 0.930 . S
H277 C269 0.931 . S
H278 C292 0.930 . S
H279 C259 0.930 . S
H280 C265 0.929 . S
H281 C266 0.930 . S
H282 C287 0.930 . S
H283 C262 0.930 . S
H284 C295 0.931 . S
N285 Tb256 2.617 . S
N285 C286 1.379 . S
N285 C289 1.334 . S
C286 N285 1.379 . S
C286 C288 1.416 . S
C286 C294 1.424 . S
C287 H282 0.930 . S
C287 C289 1.390 . S
C287 C290 1.339 . S
C288 C286 1.416 . S
C288 C290 1.416 . S
C288 C321 1.448 . S
C289 H274 0.930 . S
C289 N285 1.334 . S
C289 C287 1.390 . S
C290 C287 1.339 . S
C290 C288 1.416 . S
C290 H297 0.930 . S
N291 Tb256 2.572 . S
N291 C292 1.340 . S
N291 C294 1.361 . S
C292 H278 0.930 . S
C292 N291 1.340 . S
C292 C296 1.407 1_565 S
C293 C294 1.413 . S
C293 C295 1.416 1_565 S
C293 C322 1.427 . S
C294 C286 1.424 . S
C294 N291 1.361 . S
C294 C293 1.413 . S
C295 H284 0.931 . S
C295 C293 1.416 1_545 S
C295 C296 1.332 . S
C296 H275 0.929 . S
C296 C292 1.407 1_545 S
C296 C295 1.332 . S
H297 C290 0.930 . S
H298 C321 0.930 . S
H299 C322 0.929 . S
O300 Tb256 2.465 . S
O300 C320 1.264 . S
O301 Tb256 2.387 . S
O301 C312 1.264 . S
O302 Tb267 2.349 1_455 S
O302 C312 1.243 . S
O303 Tb256 2.428 . S
O303 C320 1.256 . S
O304 Tb256 2.313 . S
O304 C319 1.260 1_455 S
O305 Tb267 2.393 . S
O305 C319 1.248 . S
O306 Tb267 2.465 . S
O306 C331 1.264 . S
O307 Tb267 2.387 . S
O307 C323 1.264 . S
O308 Tb256 2.349 . S
O308 C323 1.243 1_455 S
O309 Tb267 2.428 . S
O309 C331 1.256 . S
O310 Tb267 2.308 1_455 S
O310 C330 1.266 . S
O311 Tb256 2.393 . S
O311 C330 1.248 . S
C312 O301 1.264 . S
C312 O302 1.243 . S
C313 C316 1.399 . S
C313 C318 1.383 . S
C313 C320 1.496 . S
C314 C315 1.399 . S
C314 C318 1.389 . S
C315 C314 1.399 . S
C315 C317 1.380 . S
C315 H332 0.929 . S
C316 C313 1.399 . S
C316 C317 1.392 . S
C316 H333 0.929 . S
C317 C315 1.380 . S
C317 C316 1.392 . S
C317 H334 0.929 . S
C318 C313 1.383 . S
C318 C314 1.389 . S
C318 H335 0.931 . S
C319 O304 1.260 1_655 S
C319 O305 1.248 . S
C320 Tb256 2.802 . S
C320 O300 1.264 . S
C320 O303 1.256 . S
C320 C313 1.496 . S
C321 C288 1.448 . S
C321 H298 0.930 . S
C321 C322 1.328 . S
C322 C293 1.427 . S
C322 H299 0.929 . S
C322 C321 1.328 . S
C323 O307 1.264 . S
C323 O308 1.243 1_655 S
C324 C327 1.399 . S
C324 C328 1.383 . S
C324 C331 1.496 . S
C325 C326 1.399 . S
C325 C328 1.389 . S
C326 C325 1.399 . S
C326 C329 1.380 . S
C326 H336 0.929 . S
C327 C324 1.399 . S
C327 C329 1.392 . S
C327 H337 0.929 . S
C328 C324 1.383 . S
C328 C325 1.389 . S
C328 H338 0.931 . S
C329 C326 1.380 . S
C329 C327 1.392 . S
C329 H339 0.929 . S
C330 O310 1.266 . S
C330 O311 1.248 . S
C331 Tb267 2.802 . S
C331 O306 1.264 . S
C331 O309 1.256 . S
C331 C324 1.496 . S
H332 C315 0.929 . S
H333 C316 0.929 . S
H334 C317 0.929 . S
H335 C318 0.931 . S
H336 C326 0.929 . S
H337 C327 0.929 . S
H338 C328 0.931 . S
H339 C329 0.929 . S
Tb340 N369 2.617 . S
Tb340 N375 2.572 . S
Tb340 O384 2.465 . S
Tb340 O385 2.387 . S
Tb340 O387 2.428 . S
Tb340 O388 2.308 . S
Tb340 O392 2.349 . S
Tb340 O395 2.393 . S
Tb340 C404 2.802 . S
C341 N342 1.379 . S
C341 C344 1.416 . S
C341 C348 1.424 . S
N342 C341 1.379 . S
N342 C345 1.334 . S
N342 Tb351 2.617 . S
C343 C345 1.390 . S
C343 C346 1.339 . S
C343 H363 0.930 . S
C344 C341 1.416 . S
C344 C346 1.416 . S
C344 C350 1.448 . S
C345 N342 1.334 . S
C345 C343 1.390 . S
C345 H356 0.930 . S
C346 C343 1.339 . S
C346 C344 1.416 . S
C346 H367 0.930 . S
C347 C348 1.413 . S
C347 C349 1.427 . S
C347 C353 1.416 . S
C348 C341 1.424 . S
C348 C347 1.413 . S
C348 N352 1.361 . S
C349 C347 1.427 . S
C349 C350 1.328 . S
C349 H364 0.929 . S
C350 C344 1.448 . S
C350 C349 1.328 . S
C350 H365 0.930 . S
Tb351 N342 2.617 . S
Tb351 N352 2.572 . S
Tb351 O386 2.349 . S
Tb351 O389 2.393 . S
Tb351 O390 2.465 . S
Tb351 O391 2.387 . S
Tb351 O393 2.428 . S
Tb351 O394 2.308 . S
Tb351 C415 2.802 . S
N352 C348 1.361 . S
N352 Tb351 2.572 . S
N352 C354 1.340 . S
C353 C347 1.416 . S
C353 C355 1.332 . S
C353 H361 0.931 . S
C354 N352 1.340 . S
C354 C355 1.407 . S
C354 H360 0.930 . S
C355 C353 1.332 . S
C355 C354 1.407 . S
C355 H357 0.929 . S
H356 C345 0.930 . S
H357 C355 0.929 . S
H358 C373 0.930 . S
H359 C380 0.929 . S
H360 C354 0.930 . S
H361 C353 0.931 . S
H362 C376 0.930 . S
H363 C343 0.930 . S
H364 C349 0.929 . S
H365 C350 0.930 . S
H366 C371 0.930 . S
H367 C346 0.930 . S
H368 C379 0.931 . S
N369 Tb340 2.617 . S
N369 C370 1.379 . S
N369 C373 1.334 . S
C370 N369 1.379 . S
C370 C372 1.416 . S
C370 C378 1.424 . S
C371 H366 0.930 . S
C371 C373 1.390 . S
C371 C374 1.339 . S
C372 C370 1.416 . S
C372 C374 1.416 . S
C372 C405 1.448 . S
C373 H358 0.930 . S
C373 N369 1.334 . S
C373 C371 1.390 . S
C374 C371 1.339 . S
C374 C372 1.416 . S
C374 H381 0.930 . S
N375 Tb340 2.572 . S
N375 C376 1.340 . S
N375 C378 1.361 . S
C376 H362 0.930 . S
C376 N375 1.340 . S
C376 C380 1.407 . S
C377 C378 1.413 . S
C377 C379 1.416 . S
C377 C406 1.427 . S
C378 C370 1.424 . S
C378 N375 1.361 . S
C378 C377 1.413 . S
C379 H368 0.931 . S
C379 C377 1.416 . S
C379 C380 1.332 . S
C380 H359 0.929 . S
C380 C376 1.407 . S
C380 C379 1.332 . S
H381 C374 0.930 . S
H382 C405 0.930 . S
H383 C406 0.929 . S
O384 Tb340 2.465 . S
O384 C404 1.264 . S
O385 Tb340 2.387 . S
O385 C396 1.264 . S
O386 Tb351 2.349 . S
O386 C396 1.243 . S
O387 Tb340 2.428 . S
O387 C404 1.256 . S
O388 Tb340 2.308 . S
O388 C403 1.266 . S
O389 Tb351 2.393 . S
O389 C403 1.248 . S
O390 Tb351 2.465 . S
O390 C415 1.264 . S
O391 Tb351 2.387 . S
O391 C407 1.264 . S
O392 Tb340 2.349 . S
O392 C407 1.243 . S
O393 Tb351 2.428 . S
O393 C415 1.256 . S
O394 Tb351 2.308 . S
O394 C414 1.266 . S
O395 Tb340 2.393 . S
O395 C414 1.248 . S
C396 O385 1.264 . S
C396 O386 1.243 . S
C397 C400 1.399 . S
C397 C402 1.383 . S
C397 C404 1.496 . S
C398 C399 1.399 . S
C398 C402 1.389 . S
C399 C398 1.399 . S
C399 C401 1.380 . S
C399 H416 0.929 . S
C400 C397 1.399 . S
C400 C401 1.392 . S
C400 H417 0.929 . S
C401 C399 1.380 . S
C401 C400 1.392 . S
C401 H418 0.929 . S
C402 C397 1.383 . S
C402 C398 1.389 . S
C402 H419 0.931 . S
C403 O388 1.266 . S
C403 O389 1.248 . S
C404 Tb340 2.802 . S
C404 O384 1.264 . S
C404 O387 1.256 . S
C404 C397 1.496 . S
C405 C372 1.448 . S
C405 H382 0.930 . S
C405 C406 1.328 . S
C406 C377 1.427 . S
C406 H383 0.929 . S
C406 C405 1.328 . S
C407 O391 1.264 . S
C407 O392 1.243 . S
C408 C411 1.399 . S
C408 C412 1.383 . S
C408 C415 1.496 . S
C409 C410 1.399 . S
C409 C412 1.389 . S
C410 C409 1.399 . S
C410 C413 1.380 . S
C410 H420 0.929 . S
C411 C408 1.399 . S
C411 C413 1.392 . S
C411 H421 0.929 . S
C412 C408 1.383 . S
C412 C409 1.389 . S
C412 H422 0.931 . S
C413 C410 1.380 . S
C413 C411 1.392 . S
C413 H423 0.929 . S
C414 O394 1.266 . S
C414 O395 1.248 . S
C415 Tb351 2.802 . S
C415 O390 1.264 . S
C415 O393 1.256 . S
C415 C408 1.496 . S
H416 C399 0.929 . S
H417 C400 0.929 . S
H418 C401 0.929 . S
H419 C402 0.931 . S
H420 C410 0.929 . S
H421 C411 0.929 . S
H422 C412 0.931 . S
H423 C413 0.929 . S
H424 C430 0.930 . S
H425 C434 0.930 . S
H426 C439 0.929 . S
H427 C437 0.929 . S
H428 C432 0.929 . S
H429 C438 0.929 . S
C430 H424 0.930 . S
C430 C431 1.367 . S
C430 C438 1.378 . S
C431 C430 1.367 . S
C431 C439 1.433 . S
C432 H428 0.929 . S
C432 C434 1.378 1_565 S
C432 C436 1.350 . S
C433 C436 1.463 . S
C433 C438 1.350 . S
C433 N441 1.427 . S
C434 H425 0.930 . S
C434 C432 1.378 1_545 S
C434 C435 1.367 . S
C435 C434 1.367 . S
C435 C437 1.433 . S
C436 C432 1.350 . S
C436 C433 1.463 . S
C436 N440 1.427 1_565 S
C437 H427 0.929 . S
C437 C435 1.433 . S
C437 N440 1.384 . S
C438 H429 0.929 . S
C438 C430 1.378 . S
C438 C433 1.350 . S
C439 H426 0.929 . S
C439 C431 1.433 . S
C439 N441 1.384 . S
N440 C436 1.427 1_545 S
N440 C437 1.384 . S
N441 C433 1.427 . S
N441 C439 1.384 . S
H442 C448 0.930 . S
H443 C452 0.930 . S
H444 C457 0.929 . S
H445 C455 0.929 . S
H446 C450 0.929 . S
H447 C456 0.929 . S
C448 H442 0.930 . S
C448 C449 1.367 . S
C448 C456 1.378 . S
C449 C448 1.367 . S
C449 C457 1.433 . S
C450 H446 0.929 . S
C450 C452 1.378 . S
C450 C454 1.350 . S
C451 C454 1.463 . S
C451 C456 1.350 . S
C451 N459 1.427 . S
C452 H443 0.930 . S
C452 C450 1.378 . S
C452 C453 1.367 . S
C453 C452 1.367 . S
C453 C455 1.433 . S
C454 C450 1.350 . S
C454 C451 1.463 . S
C454 N458 1.427 . S
C455 H445 0.929 . S
C455 C453 1.433 . S
C455 N458 1.384 . S
C456 H447 0.929 . S
C456 C448 1.378 . S
C456 C451 1.350 . S
C457 H444 0.929 . S
C457 C449 1.433 . S
C457 N459 1.384 . S
N458 C454 1.427 . S
N458 C455 1.384 . S
N459 C451 1.427 . S
N459 C457 1.384 . S
H460 C466 0.930 . S
H461 C470 0.930 . S
H462 C475 0.929 . S
H463 C473 0.929 . S
H464 C468 0.929 . S
H465 C474 0.929 . S
C466 H460 0.930 . S
C466 C467 1.367 . S
C466 C474 1.378 . S
C467 C466 1.367 . S
C467 C475 1.433 . S
C468 H464 0.929 . S
C468 C470 1.378 . S
C468 C472 1.350 . S
C469 C472 1.463 . S
C469 C474 1.350 . S
C469 N477 1.427 . S
C470 H461 0.930 . S
C470 C468 1.378 . S
C470 C471 1.367 . S
C471 C470 1.367 . S
C471 C473 1.433 . S
C472 C468 1.350 . S
C472 C469 1.463 . S
C472 N476 1.427 . S
C473 H463 0.929 . S
C473 C471 1.433 . S
C473 N476 1.384 . S
C474 H465 0.929 . S
C474 C466 1.378 . S
C474 C469 1.350 . S
C475 H462 0.929 . S
C475 C467 1.433 . S
C475 N477 1.384 . S
N476 C472 1.427 . S
N476 C473 1.384 . S
N477 C469 1.427 . S
N477 C475 1.384 . S
H478 C484 0.930 . S
H479 C488 0.930 . S
H480 C493 0.929 . S
H481 C491 0.929 1_565 S
H482 C486 0.929 . S
H483 C492 0.929 . S
C484 H478 0.930 . S
C484 C485 1.367 . S
C484 C492 1.378 . S
C485 C484 1.367 . S
C485 C493 1.433 . S
C486 H482 0.929 . S
C486 C488 1.378 . S
C486 C490 1.350 1_545 S
C487 C490 1.463 . S
C487 C492 1.350 . S
C487 N495 1.427 . S
C488 H479 0.930 . S
C488 C486 1.378 . S
C488 C489 1.367 . S
C489 C488 1.367 . S
C489 C491 1.433 . S
C490 C486 1.350 1_565 S
C490 C487 1.463 . S
C490 N494 1.427 . S
C491 H481 0.929 1_545 S
C491 C489 1.433 . S
C491 N494 1.384 1_545 S
C492 H483 0.929 . S
C492 C484 1.378 . S
C492 C487 1.350 . S
C493 H480 0.929 . S
C493 C485 1.433 . S
C493 N495 1.384 . S
N494 C490 1.427 . S
N494 C491 1.384 1_565 S
N495 C487 1.427 . S
N495 C493 1.384 . S
H496 C502 0.930 . S
H497 C506 0.930 . S
H498 C511 0.929 . S
H499 C509 0.929 . S
H500 C504 0.929 . S
H501 C510 0.929 . S
C502 H496 0.930 . S
C502 C503 1.367 . S
C502 C510 1.378 . S
C503 C502 1.367 . S
C503 C511 1.433 . S
C504 H500 0.929 . S
C504 C506 1.378 1_545 S
C504 C508 1.350 . S
C505 C508 1.463 . S
C505 C510 1.350 . S
C505 N513 1.427 . S
C506 H497 0.930 . S
C506 C504 1.378 1_565 S
C506 C507 1.367 . S
C507 C506 1.367 . S
C507 C509 1.433 . S
C508 C504 1.350 . S
C508 C505 1.463 . S
C508 N512 1.427 1_545 S
C509 H499 0.929 . S
C509 C507 1.433 . S
C509 N512 1.384 . S
C510 H501 0.929 . S
C510 C502 1.378 . S
C510 C505 1.350 . S
C511 H498 0.929 . S
C511 C503 1.433 . S
C511 N513 1.384 . S
N512 C508 1.427 1_565 S
N512 C509 1.384 . S
N513 C505 1.427 . S
N513 C511 1.384 . S
H514 C520 0.930 . S
H515 C524 0.930 . S
H516 C529 0.929 . S
H517 C527 0.929 . S
H518 C522 0.929 . S
H519 C528 0.929 . S
C520 H514 0.930 . S
C520 C521 1.367 . S
C520 C528 1.378 . S
C521 C520 1.367 . S
C521 C529 1.433 . S
C522 H518 0.929 . S
C522 C524 1.378 . S
C522 C526 1.350 . S
C523 C526 1.463 . S
C523 C528 1.350 . S
C523 N531 1.427 . S
C524 H515 0.930 . S
C524 C522 1.378 . S
C524 C525 1.367 . S
C525 C524 1.367 . S
C525 C527 1.433 . S
C526 C522 1.350 . S
C526 C523 1.463 . S
C526 N530 1.427 . S
C527 H517 0.929 . S
C527 C525 1.433 . S
C527 N530 1.384 . S
C528 H519 0.929 . S
C528 C520 1.378 . S
C528 C523 1.350 . S
C529 H516 0.929 . S
C529 C521 1.433 . S
C529 N531 1.384 . S
N530 C526 1.427 . S
N530 C527 1.384 . S
N531 C523 1.427 . S
N531 C529 1.384 . S
H532 C538 0.930 . S
H533 C542 0.930 . S
H534 C547 0.929 . S
H535 C545 0.929 . S
H536 C540 0.929 . S
H537 C546 0.929 . S
C538 H532 0.930 . S
C538 C539 1.367 . S
C538 C546 1.378 . S
C539 C538 1.367 . S
C539 C547 1.433 . S
C540 H536 0.929 . S
C540 C542 1.378 . S
C540 C544 1.350 . S
C541 C544 1.463 . S
C541 C546 1.350 . S
C541 N549 1.427 . S
C542 H533 0.930 . S
C542 C540 1.378 . S
C542 C543 1.367 . S
C543 C542 1.367 . S
C543 C545 1.433 . S
C544 C540 1.350 . S
C544 C541 1.463 . S
C544 N548 1.427 . S
C545 H535 0.929 . S
C545 C543 1.433 . S
C545 N548 1.384 . S
C546 H537 0.929 . S
C546 C538 1.378 . S
C546 C541 1.350 . S
C547 H534 0.929 . S
C547 C539 1.433 . S
C547 N549 1.384 . S
N548 C544 1.427 . S
N548 C545 1.384 . S
N549 C541 1.427 . S
N549 C547 1.384 . S
H550 C556 0.930 . S
H551 C560 0.930 1_545 S
H552 C565 0.929 . S
H553 C563 0.929 . S
H554 C558 0.929 . S
H555 C564 0.929 . S
C556 H550 0.930 . S
C556 C557 1.367 . S
C556 C564 1.378 . S
C557 C556 1.367 . S
C557 C565 1.433 . S
C558 H554 0.929 . S
C558 C560 1.378 1_545 S
C558 C562 1.350 . S
C559 C562 1.463 . S
C559 C564 1.350 . S
C559 N567 1.427 . S
C560 H551 0.930 1_565 S
C560 C558 1.378 1_565 S
C560 C561 1.367 . S
C561 C560 1.367 . S
C561 C563 1.433 . S
C562 C558 1.350 . S
C562 C559 1.463 . S
C562 N566 1.427 1_545 S
C563 H553 0.929 . S
C563 C561 1.433 . S
C563 N566 1.384 . S
C564 H555 0.929 . S
C564 C556 1.378 . S
C564 C559 1.350 . S
C565 H552 0.929 . S
C565 C557 1.433 . S
C565 N567 1.384 . S
N566 C562 1.427 1_565 S
N566 C563 1.384 . S
N567 C559 1.427 . S
N567 C565 1.384 . S
H568 C574 0.930 . S
H569 C578 0.930 . S
H570 C583 0.929 . S
H571 C581 0.929 . S
H572 C576 0.929 . S
H573 C582 0.929 . S
C574 H568 0.930 . S
C574 C575 1.367 . S
C574 C582 1.378 1_556 S
C575 C574 1.367 . S
C575 C583 1.433 . S
C576 H572 0.929 . S
C576 C578 1.378 . S
C576 C580 1.350 . S
C577 C580 1.463 . S
C577 C582 1.350 . S
C577 N585 1.427 1_554 S
C578 H569 0.930 . S
C578 C576 1.378 . S
C578 C579 1.367 . S
C579 C578 1.367 . S
C579 C581 1.433 . S
C580 C576 1.350 . S
C580 C577 1.463 . S
C580 N584 1.427 . S
C581 H571 0.929 . S
C581 C579 1.433 . S
C581 N584 1.384 . S
C582 H573 0.929 . S
C582 C574 1.378 1_554 S
C582 C577 1.350 . S
C583 H570 0.929 . S
C583 C575 1.433 . S
C583 N585 1.384 . S
N584 C580 1.427 . S
N584 C581 1.384 . S
N585 C577 1.427 1_556 S
N585 C583 1.384 . S
H586 C592 0.930 . S
H587 C596 0.930 . S
H588 C601 0.929 . S
H589 C599 0.929 . S
H590 C594 0.929 . S
H591 C600 0.929 . S
C592 H586 0.930 . S
C592 C593 1.367 . S
C592 C600 1.378 . S
C593 C592 1.367 . S
C593 C601 1.433 . S
C594 H590 0.929 . S
C594 C596 1.378 . S
C594 C598 1.350 . S
C595 C598 1.463 . S
C595 C600 1.350 . S
C595 N603 1.427 . S
C596 H587 0.930 . S
C596 C594 1.378 . S
C596 C597 1.367 . S
C597 C596 1.367 . S
C597 C599 1.433 . S
C598 C594 1.350 . S
C598 C595 1.463 . S
C598 N602 1.427 . S
C599 H589 0.929 . S
C599 C597 1.433 . S
C599 N602 1.384 . S
C600 H591 0.929 . S
C600 C592 1.378 . S
C600 C595 1.350 . S
C601 H588 0.929 . S
C601 C593 1.433 . S
C601 N603 1.384 . S
N602 C598 1.427 . S
N602 C599 1.384 . S
N603 C595 1.427 . S
N603 C601 1.384 . S
H604 C610 0.930 . S
H605 C614 0.930 . S
H606 C619 0.929 . S
H607 C617 0.929 . S
H608 C612 0.929 . S
H609 C618 0.947 . S
C610 H604 0.930 . S
C610 C611 1.367 . S
C610 C618 1.354 1_554 S
C611 C610 1.367 . S
C611 C619 1.433 . S
C612 H608 0.929 . S
C612 C614 1.378 . S
C612 C616 1.350 . S
C613 C616 1.463 . S
C613 C618 1.355 . S
C613 N621 1.427 1_556 S
C614 H605 0.930 . S
C614 C612 1.378 . S
C614 C615 1.367 . S
C615 C614 1.367 . S
C615 C617 1.433 . S
C616 C612 1.350 . S
C616 C613 1.463 . S
C616 N620 1.427 . S
C617 H607 0.929 . S
C617 C615 1.433 . S
C617 N620 1.384 . S
C618 H609 0.947 . S
C618 C610 1.354 1_556 S
C618 C613 1.355 . S
C619 H606 0.929 . S
C619 C611 1.433 . S
C619 N621 1.384 . S
N620 C616 1.427 . S
N620 C617 1.384 . S
N621 C613 1.427 1_554 S
N621 C619 1.384 . S
H622 C628 0.930 . S
H623 C632 0.930 . S
H624 C637 0.929 . S
H625 C635 0.929 . S
H626 C630 0.929 . S
H627 C636 0.929 . S
C628 H622 0.930 . S
C628 C629 1.367 . S
C628 C636 1.378 . S
C629 C628 1.367 . S
C629 C637 1.433 . S
C630 H626 0.929 . S
C630 C632 1.378 . S
C630 C634 1.350 . S
C631 C634 1.463 . S
C631 C636 1.350 . S
C631 N639 1.427 . S
C632 H623 0.930 . S
C632 C630 1.378 . S
C632 C633 1.367 . S
C633 C632 1.367 . S
C633 C635 1.433 . S
C634 C630 1.350 . S
C634 C631 1.463 . S
C634 N638 1.427 . S
C635 H625 0.929 . S
C635 C633 1.433 . S
C635 N638 1.384 . S
C636 H627 0.929 . S
C636 C628 1.378 . S
C636 C631 1.350 . S
C637 H624 0.929 . S
C637 C629 1.433 . S
C637 N639 1.384 . S
N638 C634 1.427 . S
N638 C635 1.384 . S
N639 C631 1.427 . S
N639 C637 1.384 . S
H640 C646 0.930 . S
H641 C650 0.930 . S
H642 C655 0.929 . S
H643 C653 0.929 . S
H644 C648 0.929 . S
H645 C654 0.929 . S
C646 H640 0.930 . S
C646 C647 1.367 . S
C646 C654 1.378 1_554 S
C647 C646 1.367 . S
C647 C655 1.433 . S
C648 H644 0.929 . S
C648 C650 1.378 . S
C648 C652 1.350 . S
C649 C652 1.463 . S
C649 C654 1.350 . S
C649 N657 1.427 1_556 S
C650 H641 0.930 . S
C650 C648 1.378 . S
C650 C651 1.367 . S
C651 C650 1.367 . S
C651 C653 1.433 . S
C652 C648 1.350 . S
C652 C649 1.463 . S
C652 N656 1.427 . S
C653 H643 0.929 . S
C653 C651 1.433 . S
C653 N656 1.384 . S
C654 H645 0.929 . S
C654 C646 1.378 1_556 S
C654 C649 1.350 . S
C655 H642 0.929 . S
C655 C647 1.433 . S
C655 N657 1.384 . S
N656 C652 1.427 . S
N656 C653 1.384 . S
N657 C649 1.427 1_554 S
N657 C655 1.384 . S
H658 C664 0.930 . S
H659 C668 0.930 . S
H660 C673 0.929 . S
H661 C671 0.929 . S
H662 C666 0.929 . S
H663 C672 0.929 . S
C664 H658 0.930 . S
C664 C665 1.367 . S
C664 C672 1.378 . S
C665 C664 1.367 . S
C665 C673 1.433 . S
C666 H662 0.929 . S
C666 C668 1.378 . S
C666 C670 1.350 . S
C667 C670 1.463 . S
C667 C672 1.350 . S
C667 N675 1.427 . S
C668 H659 0.930 . S
C668 C666 1.378 . S
C668 C669 1.367 . S
C669 C668 1.367 . S
C669 C671 1.433 . S
C670 C666 1.350 . S
C670 C667 1.463 . S
C670 N674 1.427 . S
C671 H661 0.929 . S
C671 C669 1.433 . S
C671 N674 1.384 . S
C672 H663 0.929 . S
C672 C664 1.378 . S
C672 C667 1.350 . S
C673 H660 0.929 . S
C673 C665 1.433 . S
C673 N675 1.384 . S
N674 C670 1.427 . S
N674 C671 1.384 . S
N675 C667 1.427 . S
N675 C673 1.384 . S
H676 C682 0.930 . S
H677 C686 0.930 . S
H678 C691 0.929 . S
H679 C689 0.929 . S
H680 C684 0.929 . S
H681 C690 0.929 . S
C682 H676 0.930 . S
C682 C683 1.367 . S
C682 C690 1.378 . S
C683 C682 1.367 . S
C683 C691 1.433 . S
C684 H680 0.929 . S
C684 C686 1.378 . S
C684 C688 1.350 . S
C685 C688 1.463 . S
C685 C690 1.350 1_554 S
C685 N693 1.427 1_554 S
C686 H677 0.930 . S
C686 C684 1.378 . S
C686 C687 1.367 . S
C687 C686 1.367 . S
C687 C689 1.433 . S
C688 C684 1.350 . S
C688 C685 1.463 . S
C688 N692 1.427 . S
C689 H679 0.929 . S
C689 C687 1.433 . S
C689 N692 1.384 . S
C690 H681 0.929 . S
C690 C682 1.378 . S
C690 C685 1.350 1_556 S
C691 H678 0.929 . S
C691 C683 1.433 . S
C691 N693 1.384 . S
N692 C688 1.427 . S
N692 C689 1.384 . S
N693 C685 1.427 1_556 S
N693 C691 1.384 . S
H694 C700 0.930 . S
H695 C704 0.930 . S
H696 C709 0.929 . S
H697 C707 0.929 . S
H698 C702 0.929 . S
H699 C708 0.929 . S
C700 H694 0.930 . S
C700 C701 1.367 . S
C700 C708 1.378 . S
C701 C700 1.367 . S
C701 C709 1.433 . S
C702 H698 0.929 . S
C702 C704 1.378 . S
C702 C706 1.350 . S
C703 C706 1.463 . S
C703 C708 1.350 . S
C703 N711 1.427 . S
C704 H695 0.930 . S
C704 C702 1.378 . S
C704 C705 1.367 . S
C705 C704 1.367 . S
C705 C707 1.433 . S
C706 C702 1.350 . S
C706 C703 1.463 . S
C706 N710 1.427 . S
C707 H697 0.929 . S
C707 C705 1.433 . S
C707 N710 1.384 . S
C708 H699 0.929 . S
C708 C700 1.378 . S
C708 C703 1.350 . S
C709 H696 0.929 . S
C709 C701 1.433 . S
C709 N711 1.384 . S
N710 C706 1.427 . S
N710 C707 1.384 . S
N711 C703 1.427 . S
N711 C709 1.384 . S
H712 C718 0.930 . S
H713 C722 0.930 . S
H714 C727 0.929 . S
H715 C725 0.929 . S
H716 C720 0.929 . S
H717 C726 0.929 . S
C718 H712 0.930 . S
C718 C719 1.367 . S
C718 C726 1.378 . S
C719 C718 1.367 . S
C719 C727 1.433 . S
C720 H716 0.929 . S
C720 C722 1.378 . S
C720 C724 1.350 . S
C721 C724 1.463 . S
C721 C726 1.350 . S
C721 N729 1.427 . S
C722 H713 0.930 . S
C722 C720 1.378 . S
C722 C723 1.367 . S
C723 C722 1.367 . S
C723 C725 1.433 . S
C724 C720 1.350 . S
C724 C721 1.463 . S
C724 N728 1.427 . S
C725 H715 0.929 . S
C725 C723 1.433 . S
C725 N728 1.384 . S
C726 H717 0.929 . S
C726 C718 1.378 . S
C726 C721 1.350 . S
C727 H714 0.929 . S
C727 C719 1.433 . S
C727 N729 1.384 . S
N728 C724 1.427 . S
N728 C725 1.384 . S
N729 C721 1.427 . S
N729 C727 1.384 . S
H730 C736 0.930 . S
H731 C740 0.930 . S
H732 C745 0.929 . S
H733 C743 0.929 . S
H734 C738 0.929 . S
H735 C744 0.929 . S
C736 H730 0.930 . S
C736 C737 1.367 . S
C736 C744 1.378 . S
C737 C736 1.367 . S
C737 C745 1.433 . S
C738 H734 0.929 . S
C738 C740 1.378 . S
C738 C742 1.350 . S
C739 C742 1.463 . S
C739 C744 1.350 . S
C739 N747 1.427 . S
C740 H731 0.930 . S
C740 C738 1.378 . S
C740 C741 1.367 . S
C741 C740 1.367 . S
C741 C743 1.433 . S
C742 C738 1.350 . S
C742 C739 1.463 . S
C742 N746 1.427 . S
C743 H733 0.929 . S
C743 C741 1.433 . S
C743 N746 1.384 . S
C744 H735 0.929 . S
C744 C736 1.378 . S
C744 C739 1.350 . S
C745 H732 0.929 . S
C745 C737 1.433 . S
C745 N747 1.384 . S
N746 C742 1.427 . S
N746 C743 1.384 . S
N747 C739 1.427 . S
N747 C745 1.384 . S
H748 C754 0.930 . S
H749 C758 0.930 . S
H750 C763 0.929 . S
H751 C761 0.929 . S
H752 C756 0.929 . S
H753 C762 0.929 . S
C754 H748 0.930 . S
C754 C755 1.367 . S
C754 C762 1.378 . S
C755 C754 1.367 . S
C755 C763 1.433 . S
C756 H752 0.929 . S
C756 C758 1.378 . S
C756 C760 1.350 . S
C757 C760 1.463 . S
C757 C762 1.350 . S
C757 N765 1.427 . S
C758 H749 0.930 . S
C758 C756 1.378 . S
C758 C759 1.367 . S
C759 C758 1.367 . S
C759 C761 1.433 . S
C760 C756 1.350 . S
C760 C757 1.463 . S
C760 N764 1.427 . S
C761 H751 0.929 . S
C761 C759 1.433 . S
C761 N764 1.384 . S
C762 H753 0.929 . S
C762 C754 1.378 . S
C762 C757 1.350 . S
C763 H750 0.929 . S
C763 C755 1.433 . S
C763 N765 1.384 . S
N764 C760 1.427 . S
N764 C761 1.384 . S
N765 C757 1.427 . S
N765 C763 1.384 . S
H766 C772 0.930 . S
H767 C776 0.930 . S
H768 C781 0.929 . S
H769 C779 0.929 . S
H770 C774 0.929 . S
H771 C780 0.929 . S
C772 H766 0.930 . S
C772 C773 1.367 . S
C772 C780 1.378 . S
C773 C772 1.367 . S
C773 C781 1.433 . S
C774 H770 0.929 . S
C774 C776 1.378 . S
C774 C778 1.350 . S
C775 C778 1.463 . S
C775 C780 1.350 . S
C775 N783 1.427 . S
C776 H767 0.930 . S
C776 C774 1.378 . S
C776 C777 1.367 . S
C777 C776 1.367 . S
C777 C779 1.433 . S
C778 C774 1.350 . S
C778 C775 1.463 . S
C778 N782 1.427 . S
C779 H769 0.929 . S
C779 C777 1.433 . S
C779 N782 1.384 . S
C780 H771 0.929 . S
C780 C772 1.378 . S
C780 C775 1.350 . S
C781 H768 0.929 . S
C781 C773 1.433 . S
C781 N783 1.384 . S
N782 C778 1.427 . S
N782 C779 1.384 . S
N783 C775 1.427 . S
N783 C781 1.384 . S
H784 C790 0.930 . S
H785 C794 0.930 . S
H786 C799 0.929 . S
H787 C797 0.929 . S
H788 C792 0.929 . S
H789 C798 0.929 . S
C790 H784 0.930 . S
C790 C791 1.367 . S
C790 C798 1.378 . S
C791 C790 1.367 . S
C791 C799 1.433 . S
C792 H788 0.929 . S
C792 C794 1.378 . S
C792 C796 1.350 . S
C793 C796 1.463 . S
C793 C798 1.350 . S
C793 N801 1.427 . S
C794 H785 0.930 . S
C794 C792 1.378 . S
C794 C795 1.367 . S
C795 C794 1.367 . S
C795 C797 1.433 . S
C796 C792 1.350 . S
C796 C793 1.463 . S
C796 N800 1.427 . S
C797 H787 0.929 . S
C797 C795 1.433 . S
C797 N800 1.384 . S
C798 H789 0.929 . S
C798 C790 1.378 . S
C798 C793 1.350 . S
C799 H786 0.929 . S
C799 C791 1.433 . S
C799 N801 1.384 . S
N800 C796 1.427 . S
N800 C797 1.384 . S
N801 C793 1.427 . S
N801 C799 1.384 . S
H802 C808 0.930 . S
H803 C812 0.930 . S
H804 C817 0.929 . S
H805 C815 0.929 . S
H806 C810 0.929 . S
H807 C816 0.929 . S
C808 H802 0.930 . S
C808 C809 1.367 . S
C808 C816 1.378 . S
C809 C808 1.367 . S
C809 C817 1.433 . S
C810 H806 0.929 . S
C810 C812 1.378 . S
C810 C814 1.350 . S
C811 C814 1.463 . S
C811 C816 1.350 . S
C811 N819 1.427 . S
C812 H803 0.930 . S
C812 C810 1.378 . S
C812 C813 1.367 . S
C813 C812 1.367 . S
C813 C815 1.433 . S
C814 C810 1.350 . S
C814 C811 1.463 . S
C814 N818 1.427 . S
C815 H805 0.929 . S
C815 C813 1.433 . S
C815 N818 1.384 . S
C816 H807 0.929 . S
C816 C808 1.378 . S
C816 C811 1.350 . S
C817 H804 0.929 . S
C817 C809 1.433 . S
C817 N819 1.384 . S
N818 C814 1.427 . S
N818 C815 1.384 . S
N819 C811 1.427 . S
N819 C817 1.384 . S
H820 C826 0.930 . S
H821 C830 0.930 . S
H822 C835 0.929 . S
H823 C833 0.929 . S
H824 C828 0.929 . S
H825 C834 0.929 . S
C826 H820 0.930 . S
C826 C827 1.367 . S
C826 C834 1.378 . S
C827 C826 1.367 . S
C827 C835 1.433 . S
C828 H824 0.929 . S
C828 C830 1.378 . S
C828 C832 1.350 . S
C829 C832 1.463 . S
C829 C834 1.350 . S
C829 N837 1.427 . S
C830 H821 0.930 . S
C830 C828 1.378 . S
C830 C831 1.367 . S
C831 C830 1.367 . S
C831 C833 1.433 . S
C832 C828 1.350 . S
C832 C829 1.463 . S
C832 N836 1.427 . S
C833 H823 0.929 . S
C833 C831 1.433 . S
C833 N836 1.384 . S
C834 H825 0.929 . S
C834 C826 1.378 . S
C834 C829 1.350 . S
C835 H822 0.929 . S
C835 C827 1.433 . S
C835 N837 1.384 . S
N836 C832 1.427 . S
N836 C833 1.384 . S
N837 C829 1.427 . S
N837 C835 1.384 . S
H838 C844 0.930 . S
H839 C848 0.930 . S
H840 C853 0.929 . S
H841 C851 0.929 . S
H842 C846 0.929 . S
H843 C852 0.929 . S
C844 H838 0.930 . S
C844 C845 1.367 . S
C844 C852 1.378 . S
C845 C844 1.367 . S
C845 C853 1.433 . S
C846 H842 0.929 . S
C846 C848 1.378 . S
C846 C850 1.350 . S
C847 C850 1.463 . S
C847 C852 1.350 . S
C847 N855 1.427 . S
C848 H839 0.930 . S
C848 C846 1.378 . S
C848 C849 1.367 . S
C849 C848 1.367 . S
C849 C851 1.433 . S
C850 C846 1.350 . S
C850 C847 1.463 . S
C850 N854 1.427 . S
C851 H841 0.929 . S
C851 C849 1.433 . S
C851 N854 1.384 . S
C852 H843 0.929 . S
C852 C844 1.378 . S
C852 C847 1.350 . S
C853 H840 0.929 . S
C853 C845 1.433 . S
C853 N855 1.384 . S
N854 C850 1.427 . S
N854 C851 1.384 . S
N855 C847 1.427 . S
N855 C853 1.384 . S
C431 C71 1.664 . S
C435 C162 1.645 . S
C453 C246 1.624 . S
C449 C81 1.640 . S
C471 C239 1.660 . S
C467 C49 1.657 . S
C485 C59 1.632 . S
C489 C155 1.631 . S
C507 C319 1.648 . S
C503 C27 1.663 . S
C525 C403 1.685 . S
C521 C38 1.700 . S
C539 C5 1.656 . S
C543 C396 1.661 . S
C557 C16 1.696 . S
C561 C312 1.702 . S
C579 C146 1.411 . S
C575 C15 1.563 . S
C597 C230 1.426 . S
C593 C4 1.578 . S
C615 C241 1.380 . S
C611 C37 1.569 . S
C633 C157 1.373 . S
C629 C26 1.579 . S
C651 C325 1.471 . S
C647 C60 1.615 . S
C665 C48 1.640 . S
C669 C409 1.485 . S
C687 C398 1.412 . S
C683 C82 1.616 . S
C701 C70 1.646 . S
C705 C314 1.439 . S
C723 C144 1.500 . S
C719 C10 1.493 . S
C741 C228 1.545 . S
C737 C21 1.538 . S
C755 C32 1.488 . S
C759 C235 1.463 . S
C777 C151 1.517 . S
C773 C43 1.530 . S
C795 C323 1.593 . S
C791 C54 1.575 . S
C809 C65 1.544 . S
C813 C407 1.545 . S
C827 C76 1.579 . S
C831 C414 1.560 . S
C845 C87 1.539 . S
C849 C330 1.510 . S
