# Generated by pormake.
# Topology anh, (6,3)-cn, num edge types: 1
# Building blocks:
#     Node 0, Type 0, BuildingBlock: VOLQOD_clean_sbu_1, # of connection points: 6
#     Node 1, Type 0, BuildingBlock: VOLQOD_clean_sbu_1, # of connection points: 6
#     Node 2, Type 0, BuildingBlock: VOLQOD_clean_sbu_1, # of connection points: 6
#     Node 3, Type 1, BuildingBlock: VETTIZ_charged_linker_0, # of connection points: 3
#     Node 4, Type 1, BuildingBlock: VETTIZ_charged_linker_0, # of connection points: 3
#     Node 5, Type 1, BuildingBlock: VETTIZ_charged_linker_0, # of connection points: 3
#     Node 6, Type 1, BuildingBlock: VETTIZ_charged_linker_0, # of connection points: 3
#     Node 7, Type 1, BuildingBlock: VETTIZ_charged_linker_0, # of connection points: 3
#     Node 8, Type 1, BuildingBlock: VETTIZ_charged_linker_0, # of connection points: 3
#     Edge 9, Type (0, 1), BuildingBlock: XIVTED_clean_linker_0, # of connection points: 2
#     Edge 10, Type (0, 1), BuildingBlock: XIVTED_clean_linker_0, # of connection points: 2
#     Edge 11, Type (0, 1), BuildingBlock: XIVTED_clean_linker_0, # of connection points: 2
#     Edge 12, Type (0, 1), BuildingBlock: XIVTED_clean_linker_0, # of connection points: 2
#     Edge 13, Type (0, 1), BuildingBlock: XIVTED_clean_linker_0, # of connection points: 2
#     Edge 14, Type (0, 1), BuildingBlock: XIVTED_clean_linker_0, # of connection points: 2
#     Edge 15, Type (0, 1), BuildingBlock: XIVTED_clean_linker_0, # of connection points: 2
#     Edge 16, Type (0, 1), BuildingBlock: XIVTED_clean_linker_0, # of connection points: 2
#     Edge 17, Type (0, 1), BuildingBlock: XIVTED_clean_linker_0, # of connection points: 2
#     Edge 18, Type (0, 1), BuildingBlock: XIVTED_clean_linker_0, # of connection points: 2
#     Edge 19, Type (0, 1), BuildingBlock: XIVTED_clean_linker_0, # of connection points: 2
#     Edge 20, Type (0, 1), BuildingBlock: XIVTED_clean_linker_0, # of connection points: 2
#     Edge 21, Type (0, 1), BuildingBlock: XIVTED_clean_linker_0, # of connection points: 2
#     Edge 22, Type (0, 1), BuildingBlock: XIVTED_clean_linker_0, # of connection points: 2
#     Edge 23, Type (0, 1), BuildingBlock: XIVTED_clean_linker_0, # of connection points: 2
#     Edge 24, Type (0, 1), BuildingBlock: XIVTED_clean_linker_0, # of connection points: 2
#     Edge 25, Type (0, 1), BuildingBlock: XIVTED_clean_linker_0, # of connection points: 2
#     Edge 26, Type (0, 1), BuildingBlock: XIVTED_clean_linker_0, # of connection points: 2
# Relax obj value: 0.169
# Max RMSD: 0.231
# Mean RMSD: 0.117
data_MOF--net-anh--node1-VOLQOD_clean_sbu_1--node2-VETTIZ_charged_linker_0--edge1-XIVTED_clean_linker_0
_symmetry_space_group_name_H-M    P1
_symmetry_Int_Tables_number       1
_symmetry_cell_setting            triclinic
loop_
_symmetry_equiv_pos_as_xyz
'x, y, z'
_cell_length_a     34.533858
_cell_length_b     34.306313
_cell_length_c     74.648185
_cell_angle_alpha  90.079782
_cell_angle_beta   89.788516
_cell_angle_gamma 120.18458
loop_
_atom_site_label
_atom_site_type_symbol
_atom_site_fract_x
_atom_site_fract_y
_atom_site_fract_z
_atom_type_partial_charge
O0 O 0.03177 0.57797 0.20308 0.0
Zn1 Zn 0.02158 0.58126 0.17666 0.0
O2 O 0.02104 0.53111 0.16401 0.0
Zn3 Zn 0.96376 0.49423 0.15217 0.0
Zn4 Zn 0.03135 0.49395 0.18067 0.0
Zn5 Zn 0.06791 0.55459 0.14612 0.0
O6 O 0.96868 0.50262 0.12522 0.0
O7 O 0.04184 0.54833 0.12183 0.0
O8 O 0.96288 0.58011 0.17394 0.0
O9 O 0.92134 0.51411 0.16035 0.0
O10 O 0.93528 0.42867 0.15892 0.0
O11 O 0.97733 0.43201 0.18196 0.0
O12 O 0.08235 0.48567 0.1727 0.0
O13 O 0.07228 0.64069 0.16802 0.0
O14 O 0.10194 0.52132 0.1465 0.0
O15 O 0.11025 0.6209 0.14968 0.0
C16 C 0.0409 0.55262 0.21244 0.0
C17 C 0.00258 0.52678 0.11532 0.0
C18 C 0.94319 0.40998 0.17202 0.0
C19 C 0.92538 0.54908 0.16804 0.0
C20 C 0.10537 0.49653 0.15833 0.0
C21 C 0.10604 0.65101 0.158 0.0
O22 O 0.04309 0.51994 0.20542 0.0
O23 O 0.46131 0.988 0.4555 0.0
Zn24 Zn 0.45424 0.99021 0.48226 0.0
O25 O 0.49915 0.98236 0.49509 0.0
Zn26 Zn 0.53514 0.03367 0.51058 0.0
Zn27 Zn 0.53899 0.97728 0.47804 0.0
Zn28 Zn 0.46903 0.92816 0.50954 0.0
O29 O 0.53545 0.01483 0.5361 0.0
O30 O 0.48229 0.94265 0.53565 0.0
O31 O 0.45625 0.04753 0.48971 0.0
O32 O 0.50765 0.07277 0.51117 0.0
O33 O 0.59828 0.07228 0.50135 0.0
O34 O 0.59924 0.03344 0.47774 0.0
O35 O 0.54654 0.9241 0.48349 0.0
O36 O 0.39193 0.94024 0.48816 0.0
O37 O 0.49036 0.88577 0.50266 0.0
O38 O 0.40227 0.89612 0.50683 0.0
C39 C 0.48531 0.97721 0.44605 0.0
C40 C 0.51038 0.97772 0.54416 0.0
C41 C 0.61834 0.068 0.4878 0.0
C42 C 0.47799 0.07556 0.50211 0.0
C43 C 0.5223 0.88926 0.49293 0.0
C44 C 0.37638 0.90532 0.49804 0.0
O45 O 0.51466 0.9701 0.45317 0.0
O46 O 0.43999 0.46317 0.79475 0.0
Zn47 Zn 0.43685 0.44766 0.82096 0.0
O48 O 0.49575 0.48545 0.83217 0.0
Zn49 Zn 0.49364 0.52422 0.85044 0.0
Zn50 Zn 0.53987 0.52438 0.81437 0.0
Zn51 Zn 0.51381 0.44674 0.8439 0.0
O52 O 0.51484 0.5167 0.87442 0.0
O53 O 0.51674 0.45354 0.87079 0.0
O54 O 0.38921 0.45696 0.83316 0.0
O55 O 0.43069 0.50758 0.85377 0.0
O56 O 0.52581 0.58947 0.8435 0.0
O57 O 0.55918 0.59016 0.81802 0.0
O58 O 0.59429 0.51736 0.81502 0.0
O59 O 0.4191 0.38135 0.82155 0.0
O60 O 0.57451 0.46244 0.83503 0.0
O61 O 0.47265 0.38188 0.8381 0.0
C62 C 0.4727 0.48623 0.78415 0.0
C63 C 0.51935 0.48486 0.88078 0.0
C64 C 0.55032 0.61069 0.83015 0.0
C65 C 0.39307 0.48209 0.84645 0.0
C66 C 0.60247 0.49053 0.82382 0.0
C67 C 0.43689 0.36076 0.82901 0.0
O68 O 0.51278 0.50899 0.78984 0.0
C69 C 0.64189 0.11198 0.20833 0.0
C70 C 0.68173 0.12952 0.21834 0.0
C71 C 0.67945 0.11362 0.23597 0.0
C72 C 0.5988 0.06825 0.234 0.0
C73 C 0.60107 0.08112 0.21634 0.0
C74 C 0.55578 0.05824 0.20752 0.0
H75 H 0.33356 0.91114 0.21442 0.0
C76 C 0.55129 0.03835 0.23867 0.0
C77 C 0.52589 0.03174 0.22317 0.0
H78 H 0.41007 0.97458 0.16645 0.0
H79 H 0.47677 0.01741 0.18428 0.0
H80 H 0.40219 0.89032 0.23214 0.0
H81 H 0.38056 0.0025 0.23896 0.0
H82 H 0.39606 0.99227 0.26002 0.0
H83 H 0.3453 0.94918 0.24959 0.0
H84 H 0.35334 0.88566 0.24282 0.0
H85 H 0.40365 0.90145 0.25523 0.0
C86 C 0.55597 0.027 0.1925 0.0
C87 C 0.54559 0.09488 0.20091 0.0
C88 C 0.50767 0.99189 0.3034 0.0
C89 C 0.46618 0.9678 0.31223 0.0
C90 C 0.42646 0.94968 0.30213 0.0
C91 C 0.42812 0.95556 0.2835 0.0
C92 C 0.46994 0.98003 0.27489 0.0
C93 C 0.50876 -0.0022 0.28486 0.0
C94 C 0.55014 0.02416 0.27362 0.0
C95 C 0.52972 0.0196 0.25524 0.0
C96 C 0.48285 0.99352 0.25605 0.0
C97 C 0.5785 0.00068 0.27463 0.0
C98 C 0.57452 0.0736 0.28034 0.0
C99 C 0.36433 0.9351 0.20774 0.0
C100 C 0.36652 0.93935 0.18897 0.0
C101 C 0.40762 0.9703 0.18086 0.0
C102 C 0.4463 0.99494 0.19122 0.0
C103 C 0.44393 0.9883 0.20986 0.0
C104 C 0.40321 0.95951 0.21785 0.0
C105 C 0.40705 0.95572 0.23775 0.0
C106 C 0.45717 0.98519 0.24025 0.0
C107 C 0.47856 0.00439 0.22391 0.0
C108 C 0.39051 0.90572 0.24239 0.0
C109 C 0.38073 0.97558 0.24719 0.0
H110 H 0.63885 0.07342 0.25741 0.0
H111 H 0.64201 0.1229 0.19472 0.0
H112 H 0.55489 0.12139 0.2113 0.0
H113 H 0.50969 0.08153 0.1982 0.0
H114 H 0.56494 0.11146 0.18856 0.0
H115 H 0.58118 0.01657 0.19512 0.0
H116 H 0.56409 0.04414 0.17927 0.0
H117 H 0.52376 0.9949 0.19156 0.0
H118 H 0.53877 0.00691 0.31084 0.0
H119 H 0.39411 0.93076 0.30864 0.0
H120 H 0.39679 0.94087 0.27652 0.0
H121 H 0.55725 0.96404 0.27756 0.0
H122 H 0.60419 0.01563 0.28532 0.0
H123 H 0.5951 0.00202 0.26174 0.0
H124 H 0.55004 0.08499 0.28304 0.0
H125 H 0.59832 0.0978 0.27052 0.0
H126 H 0.59281 0.07696 0.29299 0.0
H127 H 0.7095 0.12491 0.24385 0.0
C128 C 0.63831 0.0834 0.24386 0.0
C129 C 0.51636 0.58889 0.53278 0.0
C130 C 0.53215 0.63292 0.53905 0.0
C131 C 0.5325 0.64041 0.55765 0.0
C132 C 0.49718 0.56013 0.56313 0.0
C133 C 0.49873 0.55318 0.54497 0.0
C134 C 0.47751 0.50414 0.54029 0.0
H135 H 0.38506 0.28887 0.56772 0.0
C136 C 0.47336 0.51556 0.57191 0.0
C137 C 0.46153 0.48268 0.55856 0.0
H138 H 0.42699 0.34302 0.51433 0.0
H139 H 0.44171 0.41572 0.52447 0.0
H140 H 0.46487 0.36594 0.58725 0.0
H141 H 0.33351 0.34613 0.57739 0.0
H142 H 0.34939 0.37072 0.59871 0.0
H143 H 0.34358 0.31607 0.59468 0.0
H144 H 0.41533 0.32312 0.59824 0.0
H145 H 0.4466 0.37939 0.60707 0.0
C146 C 0.51466 0.49608 0.53254 0.0
C147 C 0.43783 0.49183 0.52741 0.0
C148 C 0.45165 0.50419 0.6394 0.0
C149 C 0.43157 0.46732 0.65124 0.0
C150 C 0.40963 0.42323 0.64419 0.0
C151 C 0.40892 0.41595 0.62571 0.0
C152 C 0.43066 0.4531 0.61412 0.0
C153 C 0.4508 0.49632 0.62098 0.0
C154 C 0.47155 0.53167 0.60659 0.0
C155 C 0.46131 0.50245 0.59002 0.0
C156 C 0.4376 0.45651 0.59455 0.0
C157 C 0.52256 0.56018 0.61017 0.0
C158 C 0.44699 0.55904 0.60643 0.0
C159 C 0.39671 0.3163 0.55818 0.0
C160 C 0.40547 0.31039 0.54028 0.0
C161 C 0.41983 0.34659 0.52818 0.0
C162 C 0.42911 0.38906 0.53418 0.0
C163 C 0.4243 0.39545 0.55246 0.0
C164 C 0.40677 0.3591 0.56402 0.0
C165 C 0.40523 0.37256 0.58308 0.0
C166 C 0.42651 0.42327 0.58112 0.0
C167 C 0.4378 0.43637 0.5632 0.0
C168 C 0.43419 0.35948 0.59466 0.0
C169 C 0.35548 0.35011 0.58894 0.0
H170 H 0.5152 0.61193 0.58367 0.0
H171 H 0.51597 0.5821 0.51859 0.0
H172 H 0.42122 0.51165 0.53061 0.0
H173 H 0.4109 0.45624 0.52857 0.0
H174 H 0.44935 0.49903 0.51326 0.0
H175 H 0.54745 0.51845 0.53909 0.0
H176 H 0.51915 0.50316 0.51794 0.0
H177 H 0.50835 0.46164 0.53498 0.0
H178 H 0.46812 0.5385 0.64437 0.0
H179 H 0.39425 0.39422 0.653 0.0
H180 H 0.39238 0.38162 0.6212 0.0
H181 H 0.53573 0.53852 0.61514 0.0
H182 H 0.53 0.58644 0.62046 0.0
H183 H 0.54234 0.57652 0.598 0.0
H184 H 0.41095 0.53725 0.60993 0.0
H185 H 0.44689 0.57283 0.59308 0.0
H186 H 0.46187 0.58705 0.61629 0.0
H187 H 0.54396 0.67397 0.56282 0.0
C188 C 0.51513 0.60424 0.56973 0.0
C189 C 0.14249 0.57143 0.8798 0.0
C190 C 0.17432 0.56865 0.89055 0.0
C191 C 0.174 0.57513 0.9092 0.0
C192 C 0.10839 0.5826 0.90629 0.0
C193 C 0.10981 0.57823 0.88794 0.0
C194 C 0.07141 0.57857 0.87868 0.0
H195 H 0.86522 0.55162 0.8848 0.0
C196 C 0.06758 0.58406 0.91072 0.0
C197 C 0.04579 0.5819 0.89464 0.0
H198 H 0.94308 0.56933 0.83694 0.0
H199 H 0.00735 0.58478 0.85505 0.0
H200 H 0.89671 0.49492 0.90728 0.0
H201 H 0.9478 0.63833 0.90593 0.0
H202 H 0.94784 0.62283 0.92835 0.0
H203 H 0.89545 0.59986 0.91646 0.0
H204 H 0.86612 0.52009 0.91629 0.0
H205 H 0.90702 0.51507 0.92943 0.0
C206 C 0.04436 0.53324 0.86856 0.0
C207 C 0.09045 0.62093 0.86653 0.0
C208 C 0.02471 0.58059 0.97581 0.0
C209 C 0.98625 0.5754 0.98445 0.0
C210 C 0.95047 0.5715 0.97408 0.0
C211 C 0.95332 0.57315 0.95528 0.0
C212 C 0.99208 0.57809 0.94684 0.0
C213 C 0.02685 0.58167 0.95715 0.0
C214 C 0.0645 0.58434 0.94611 0.0
C215 C 0.04727 0.58308 0.92737 0.0
C216 C 0.00496 0.57946 0.92783 0.0
C217 C 0.06861 0.5422 0.95035 0.0
C218 C 0.10726 0.63007 0.95005 0.0
C219 C 0.89627 0.55891 0.8783 0.0
C220 C 0.89931 0.5584 0.85955 0.0
C221 C 0.94025 0.56922 0.8514 0.0
C222 C 0.97723 0.57785 0.86192 0.0
C223 C 0.97288 0.57547 0.88068 0.0
C224 C 0.93351 0.56795 0.88859 0.0
C225 C 0.93588 0.56913 0.90871 0.0
C226 C 0.98272 0.57704 0.91157 0.0
C227 C 0.00373 0.57969 0.89509 0.0
C228 C 0.89946 0.5226 0.91596 0.0
C229 C 0.93122 0.60936 0.91536 0.0
H230 H 0.14248 0.58615 0.93136 0.0
H231 H 0.1424 0.56742 0.8654 0.0
H232 H 0.12378 0.64801 0.87124 0.0
H233 H 0.06918 0.63663 0.86667 0.0
H234 H 0.0946 0.61282 0.85249 0.0
H235 H 0.03908 0.5046 0.87723 0.0
H236 H 0.0625 0.5327 0.85632 0.0
H237 H 0.01065 0.52576 0.86457 0.0
H238 H 0.05228 0.5825 0.98341 0.0
H239 H 0.92049 0.56742 0.98051 0.0
H240 H 0.92508 0.56999 0.94805 0.0
H241 H 0.03677 0.51395 0.95577 0.0
H242 H 0.09509 0.55002 0.96044 0.0
H243 H 0.07546 0.52785 0.93829 0.0
H244 H 0.09913 0.65752 0.95116 0.0
H245 H 0.13254 0.64085 0.93924 0.0
H246 H 0.12282 0.62877 0.96286 0.0
H247 H 0.1979 0.57283 0.91784 0.0
C248 C 0.14143 0.58238 0.91709 0.0
C249 C 0.89715 0.38905 0.44976 0.0
C250 C 0.87831 0.34921 0.43947 0.0
C251 C 0.89193 0.35195 0.42143 0.0
C252 C 0.9385 0.43294 0.4238 0.0
C253 C 0.92741 0.43028 0.44172 0.0
C254 C 0.95186 0.47558 0.45081 0.0
H255 H 0.10012 0.69908 0.44416 0.0
C256 C 0.96888 0.48073 0.4193 0.0
C257 C 0.97725 0.50596 0.43509 0.0
H258 H 0.04291 0.62113 0.4924 0.0
H259 H -0.00308 0.55455 0.47453 0.0
H260 H 0.11919 0.63129 0.4259 0.0
H261 H 0.00656 0.65151 0.42036 0.0
H262 H 0.01819 0.63888 0.39891 0.0
H263 H 0.05998 0.68878 0.41035 0.0
H264 H 0.12283 0.67905 0.41448 0.0
H265 H 0.10626 0.62683 0.403 0.0
C266 C 0.98379 0.4741 0.46502 0.0
C267 C 0.91692 0.48671 0.45854 0.0
C268 C 0.01591 0.52588 0.35464 0.0
C269 C 0.04153 0.5678 0.34611 0.0
C270 C 0.05989 0.60751 0.35645 0.0
C271 C 0.05306 0.60543 0.37503 0.0
C272 C 0.02753 0.5632 0.38337 0.0
C273 C 0.00922 0.52439 0.37316 0.0
C274 C 0.98204 0.48259 0.38419 0.0
C275 C 0.98719 0.50272 0.40274 0.0
C276 C 0.01402 0.54983 0.40218 0.0
C277 C 0.00399 0.4528 0.38278 0.0
C278 C 0.93296 0.45959 0.37755 0.0
C279 C 0.07669 0.66805 0.45091 0.0
C280 C 0.07488 0.66534 0.46969 0.0
C281 C 0.04491 0.62392 0.47793 0.0
C282 C 0.01859 0.58533 0.46755 0.0
C283 C 0.02287 0.58812 0.44879 0.0
C284 C 0.05101 0.62921 0.44078 0.0
C285 C 0.05362 0.62561 0.42081 0.0
C286 C 0.02361 0.57531 0.41817 0.0
C287 C 0.00533 0.55354 0.43455 0.0
C288 C 0.10296 0.64173 0.41561 0.0
C289 C 0.03393 0.65276 0.41201 0.0
H290 H 0.92993 0.39315 0.39973 0.0
H291 H 0.88797 0.38856 0.46367 0.0
H292 H 0.89021 0.47906 0.44854 0.0
H293 H 0.93145 0.52271 0.46192 0.0
H294 H 0.90071 0.46638 0.47074 0.0
H295 H 0.9928 0.44797 0.46177 0.0
H296 H 0.96814 0.46623 0.47854 0.0
H297 H 0.01631 0.50597 0.46564 0.0
H298 H 0.00065 0.4948 0.34702 0.0
H299 H 0.07995 0.64018 0.35019 0.0
H300 H 0.06812 0.63679 0.38217 0.0
H301 H 0.04068 0.47358 0.38028 0.0
H302 H 0.98932 0.42816 0.37164 0.0
H303 H 0.00119 0.43454 0.39536 0.0
H304 H 0.92302 0.4852 0.37474 0.0
H305 H 0.90845 0.43665 0.3875 0.0
H306 H 0.92878 0.4405 0.36498 0.0
H307 H 0.87962 0.32193 0.41327 0.0
C308 C 0.92155 0.39345 0.41355 0.0
C309 C 0.54866 0.91505 0.79469 0.0
C310 C 0.56561 0.88886 0.78714 0.0
C311 C 0.57119 0.88944 0.7684 0.0
C312 C 0.54026 0.93844 0.76495 0.0
C313 C 0.53617 0.9395 0.78334 0.0
C314 C 0.51627 0.96813 0.78885 0.0
H315 H 0.41374 0.08383 0.76353 0.0
C316 C 0.52075 0.96374 0.7568 0.0
C317 C 0.50628 0.9811 0.77067 0.0
H318 H 0.46039 0.07666 0.81657 0.0
H319 H 0.48572 0.02731 0.80537 0.0
H320 H 0.50396 0.10615 0.74554 0.0
H321 H 0.37903 0.98133 0.75067 0.0
H322 H 0.39939 0.98247 0.72895 0.0
H323 H 0.38627 0.02518 0.73557 0.0
H324 H 0.45518 0.09431 0.73287 0.0
H325 H 0.49438 0.07801 0.725 0.0
C326 C 0.55233 0.00969 0.79923 0.0
C327 C 0.473 0.93853 0.79973 0.0
C328 C 0.51289 0.97026 0.68904 0.0
C329 C 0.49183 0.98618 0.67754 0.0
C330 C 0.4672 0.00493 0.68487 0.0
C331 C 0.46431 0.0086 0.70346 0.0
C332 C 0.48605 0.99307 0.71484 0.0
C333 C 0.50911 0.97354 0.70758 0.0
C334 C 0.52716 0.95581 0.7217 0.0
C335 C 0.51282 0.96974 0.73865 0.0
C336 C 0.48921 0.9919 0.73454 0.0
C337 C 0.57882 0.98066 0.71977 0.0
C338 C 0.50365 0.90374 0.71964 0.0
C339 C 0.4296 0.07214 0.77286 0.0
C340 C 0.43498 0.08485 0.79103 0.0
C341 C 0.45495 0.06729 0.80257 0.0
C342 C 0.47037 0.03907 0.796 0.0
C343 C 0.4666 0.02875 0.77765 0.0
C344 C 0.44663 0.04545 0.76644 0.0
C345 C 0.44943 0.03513 0.74708 0.0
C346 C 0.47462 0.00967 0.74848 0.0
C347 C 0.4838 0.00509 0.76644 0.0
C348 C 0.47683 0.08051 0.73693 0.0
C349 C 0.40115 0.0047 0.74003 0.0
H350 H 0.56333 0.91242 0.74321 0.0
H351 H 0.54453 0.9159 0.80904 0.0
H352 H 0.45157 0.90599 0.79273 0.0
H353 H 0.45225 0.95437 0.80147 0.0
H354 H 0.48098 0.93085 0.81321 0.0
H355 H 0.58676 0.01839 0.7951 0.0
H356 H 0.54943 0.00336 0.81389 0.0
H357 H 0.55073 0.04052 0.79646 0.0
H358 H 0.53112 0.95471 0.6837 0.0
H359 H 0.45064 0.01726 0.67618 0.0
H360 H 0.44533 0.02347 0.70824 0.0
H361 H 0.59237 0.01715 0.71703 0.0
H362 H 0.58906 0.96658 0.7085 0.0
H363 H 0.59583 0.97949 0.73208 0.0
H364 H 0.471 0.88981 0.71259 0.0
H365 H 0.49496 0.88604 0.7327 0.0
H366 H 0.52465 0.89365 0.71184 0.0
H367 H 0.58341 0.86921 0.76211 0.0
C368 C 0.55883 0.91412 0.75734 0.0
C369 C 0.6134 0.52095 0.13286 0.0
C370 C 0.65741 0.54058 0.12625 0.0
C371 C 0.66479 0.54554 0.10759 0.0
C372 C 0.58492 0.50893 0.10248 0.0
C373 C 0.57783 0.50553 0.12078 0.0
C374 C 0.52898 0.48332 0.12556 0.0
H375 H 0.31946 0.41534 0.09851 0.0
C376 C 0.54084 0.48786 0.09365 0.0
C377 C 0.50789 0.47286 0.10708 0.0
H378 H 0.3671 0.42268 0.15272 0.0
H379 H 0.43888 0.43897 0.1413 0.0
H380 H 0.40461 0.49687 0.08065 0.0
H381 H 0.36193 0.35605 0.08485 0.0
H382 H 0.39537 0.37497 0.06545 0.0
H383 H 0.34425 0.37724 0.06662 0.0
H384 H 0.35535 0.45198 0.07031 0.0
H385 H 0.40888 0.47613 0.05945 0.0
C386 C 0.52165 0.51857 0.13567 0.0
C387 C 0.51584 0.43984 0.1364 0.0
C388 C 0.53151 0.47912 0.02578 0.0
C389 C 0.49523 0.46012 0.01385 0.0
C390 C 0.45121 0.43929 0.0207 0.0
C391 C 0.44344 0.43794 0.03918 0.0
C392 C 0.48005 0.45739 0.05094 0.0
C393 C 0.52315 0.47696 0.0442 0.0
C394 C 0.55781 0.49407 0.05876 0.0
C395 C 0.52833 0.48119 0.07534 0.0
C396 C 0.48293 0.46037 0.07065 0.0
C397 C 0.58744 0.54592 0.05666 0.0
C398 C 0.58367 0.46807 0.05755 0.0
C399 C 0.34481 0.41956 0.10802 0.0
C400 C 0.33773 0.41953 0.12664 0.0
C401 C 0.37199 0.4246 0.13835 0.0
C402 C 0.41376 0.434 0.1317 0.0
C403 C 0.4214 0.43802 0.11315 0.0
C404 C 0.38656 0.42834 0.10162 0.0
C405 C 0.40005 0.43066 0.08227 0.0
C406 C 0.4497 0.44719 0.08418 0.0
C407 C 0.46205 0.45217 0.10229 0.0
C408 C 0.39171 0.46558 0.07253 0.0
C409 C 0.37403 0.38245 0.07425 0.0
H410 H 0.63659 0.53377 0.08165 0.0
H411 H 0.60674 0.51693 0.14713 0.0
H412 H 0.53727 0.42535 0.13271 0.0
H413 H 0.48126 0.41252 0.1336 0.0
H414 H 0.51958 0.44669 0.15103 0.0
H415 H 0.54005 0.55198 0.12892 0.0
H416 H 0.53419 0.52292 0.14964 0.0
H417 H 0.48643 0.5102 0.13609 0.0
H418 H 0.56566 0.49482 0.02087 0.0
H419 H 0.42281 0.42473 0.0117 0.0
H420 H 0.40928 0.42221 0.0436 0.0
H421 H 0.56774 0.56081 0.05125 0.0
H422 H 0.6158 0.55487 0.04731 0.0
H423 H 0.60068 0.5634 0.06955 0.0
H424 H 0.56071 0.43215 0.05391 0.0
H425 H 0.59869 0.46678 0.0704 0.0
H426 H 0.61038 0.48294 0.04717 0.0
H427 H 0.69835 0.55995 0.10216 0.0
C428 C 0.62881 0.5298 0.09569 0.0
H429 H 0.15149 0.47722 0.18303 0.0
H430 H 0.25201 0.37755 0.11261 0.0
H431 H 0.12748 0.47504 0.12625 0.0
H432 H 0.33057 0.46201 0.1567 0.0
H433 H 0.19121 0.39067 0.12134 0.0
H434 H 0.20341 0.4494 0.17701 0.0
C435 C 0.15692 0.47055 0.16934 0.0
C436 C 0.13576 0.47889 0.15507 0.0
C437 C 0.22168 0.40561 0.12918 0.0
C438 C 0.19354 0.44609 0.14824 0.0
C439 C 0.25657 0.39846 0.12418 0.0
C440 C 0.29722 0.41941 0.13366 0.0
C441 C 0.22699 0.43289 0.14401 0.0
C442 C 0.30008 0.44474 0.14898 0.0
C443 C 0.18637 0.45473 0.16594 0.0
C444 C 0.14373 0.46964 0.13757 0.0
N445 N 0.26553 0.45094 0.15361 0.0
N446 N 0.17193 0.45352 0.13463 0.0
H447 H 0.67609 0.14288 0.50738 0.0
H448 H 0.80659 0.27999 0.42222 0.0
H449 H 0.66093 0.08008 0.4557 0.0
H450 H 0.86916 0.3179 0.47431 0.0
H451 H 0.74905 0.20899 0.43474 0.0
H452 H 0.74388 0.20982 0.49627 0.0
C453 C 0.68728 0.1429 0.49381 0.0
C454 C 0.66256 0.10595 0.4824 0.0
C455 C 0.77564 0.23271 0.44339 0.0
C456 C 0.73925 0.18238 0.46964 0.0
C457 C 0.80886 0.27333 0.43623 0.0
C458 C 0.84341 0.30527 0.44713 0.0
C459 C 0.77605 0.22406 0.4617 0.0
C460 C 0.84303 0.29483 0.46539 0.0
C461 C 0.72593 0.18101 0.48752 0.0
C462 C 0.67874 0.10775 0.46496 0.0
N463 N 0.8096 0.25525 0.47215 0.0
N464 N 0.71562 0.1456 0.45903 0.0
H465 H 0.60979 0.67058 0.80559 0.0
H466 H 0.51621 0.83693 0.81566 0.0
H467 H 0.52174 0.6604 0.84882 0.0
H468 H 0.63308 0.86885 0.78378 0.0
H469 H 0.52167 0.77572 0.82975 0.0
H470 H 0.62265 0.74584 0.79876 0.0
C471 C 0.59367 0.68439 0.81382 0.0
C472 C 0.56421 0.65884 0.82766 0.0
C473 C 0.54657 0.79658 0.81987 0.0
C474 C 0.57832 0.74478 0.81976 0.0
C475 C 0.54366 0.83182 0.81189 0.0
C476 C 0.57373 0.85767 0.79824 0.0
C477 C 0.57944 0.78674 0.81402 0.0
C478 C 0.60834 0.84901 0.79386 0.0
C479 C 0.60109 0.72744 0.80993 0.0
C480 C 0.5445 0.67868 0.83794 0.0
N481 N 0.60977 0.81382 0.80148 0.0
N482 N 0.55131 0.72012 0.83359 0.0
H483 H 0.83984 0.48335 0.17429 0.0
H484 H 0.74158 0.61535 0.12615 0.0
H485 H 0.9208 0.62579 0.16358 0.0
H486 H 0.65911 0.48971 0.15391 0.0
H487 H 0.8069 0.62434 0.14249 0.0
H488 H 0.77255 0.48837 0.1701 0.0
C489 C 0.84329 0.51588 0.17135 0.0
C490 C 0.88565 0.5541 0.16902 0.0
C491 C 0.77432 0.59537 0.14532 0.0
C492 C 0.80901 0.56003 0.16377 0.0
C493 C 0.73714 0.59011 0.13592 0.0
C494 C 0.69511 0.55136 0.13846 0.0
C495 C 0.7694 0.56121 0.15706 0.0
C496 C 0.69092 0.52004 0.15149 0.0
C497 C 0.80492 0.51882 0.16902 0.0
C498 C 0.88855 0.59556 0.1654 0.0
N499 N 0.72779 0.52521 0.16005 0.0
N500 N 0.8506 0.59727 0.16244 0.0
H501 H 0.33073 0.8255 0.51643 0.0
H502 H 0.10245 0.75503 0.46586 0.0
H503 H 0.31026 0.91353 0.48135 0.0
H504 H 0.12651 0.66334 0.49688 0.0
H505 H 0.17209 0.81804 0.47734 0.0
H506 H 0.25078 0.77061 0.51486 0.0
C507 C 0.30941 0.83352 0.50853 0.0
C508 C 0.32744 0.87387 0.49872 0.0
C509 C 0.16171 0.78423 0.48192 0.0
C510 C 0.23581 0.81111 0.49691 0.0
C511 C 0.12192 0.74831 0.47542 0.0
C512 C 0.10916 0.70388 0.48018 0.0
C513 C 0.18906 0.77557 0.49316 0.0
C514 C 0.13515 0.69705 0.49281 0.0
C515 C 0.26371 0.80217 0.50768 0.0
C516 C 0.29802 0.8826 0.48891 0.0
N517 N 0.17436 0.73246 0.4986 0.0
N518 N 0.25376 0.85124 0.48809 0.0
H519 H 0.39426 0.31347 0.79887 0.0
H520 H 0.40726 0.09462 0.82488 0.0
H521 H 0.44253 0.29908 0.85026 0.0
H522 H 0.4366 0.15454 0.77201 0.0
H523 H 0.39593 0.15588 0.83534 0.0
H524 H 0.38264 0.23935 0.79018 0.0
C525 C 0.40114 0.29416 0.80851 0.0
C526 C 0.41985 0.31255 0.82523 0.0
C527 C 0.40414 0.15484 0.8214 0.0
C528 C 0.40661 0.22815 0.8154 0.0
C529 C 0.41108 0.12016 0.8154 0.0
C530 C 0.42328 0.11903 0.79747 0.0
C531 C 0.4084 0.18807 0.80933 0.0
C532 C 0.42641 0.15282 0.78583 0.0
C533 C 0.39485 0.25212 0.80349 0.0
C534 C 0.42851 0.28624 0.83716 0.0
N535 N 0.41908 0.18582 0.79197 0.0
N536 N 0.42213 0.24543 0.83197 0.0
H537 H 0.60325 0.89423 0.49683 0.0
H538 H 0.48493 0.62804 0.50918 0.0
H539 H 0.4622 0.80039 0.49011 0.0
H540 H 0.60029 0.72146 0.54002 0.0
H541 H 0.49111 0.6909 0.49179 0.0
H542 H 0.61507 0.83034 0.50286 0.0
C543 C 0.5751 0.8601 0.49615 0.0
C544 C 0.53165 0.85213 0.49321 0.0
C545 C 0.51566 0.69749 0.50211 0.0
C546 C 0.54488 0.77991 0.49971 0.0
C547 C 0.51241 0.66163 0.51197 0.0
C548 C 0.54178 0.66965 0.52627 0.0
C549 C 0.54839 0.74163 0.50657 0.0
C550 C 0.57641 0.71402 0.52935 0.0
C551 C 0.58181 0.82392 0.49963 0.0
C552 C 0.49609 0.80765 0.49255 0.0
N553 N 0.57841 0.74861 0.51974 0.0
N554 N 0.50345 0.77313 0.49587 0.0
H555 H 0.62423 0.42708 0.83269 0.0
H556 H 0.88601 0.60418 0.83249 0.0
H557 H 0.68117 0.56207 0.81156 0.0
H558 H 0.82125 0.47966 0.86228 0.0
H559 H 0.81435 0.58214 0.81764 0.0
H560 H 0.69929 0.43833 0.83579 0.0
C561 C 0.65258 0.45893 0.82848 0.0
C562 C 0.64665 0.49413 0.8223 0.0
C563 C 0.81611 0.55939 0.82721 0.0
C564 C 0.73265 0.50747 0.82606 0.0
C565 C 0.85681 0.57192 0.83562 0.0
C566 C 0.85885 0.54391 0.84877 0.0
C567 C 0.77778 0.51852 0.83197 0.0
C568 C 0.82053 0.50241 0.85242 0.0
C569 C 0.69543 0.46534 0.83025 0.0
C570 C 0.68442 0.5343 0.81663 0.0
N571 N 0.78145 0.49112 0.84417 0.0
N572 N 0.72607 0.54028 0.81899 0.0
H573 H 0.18615 0.68582 0.14014 0.0
H574 H 0.36637 0.89535 0.15829 0.0
H575 H 0.10881 0.72492 0.17339 0.0
H576 H 0.2775 0.90977 0.19496 0.0
H577 H 0.30241 0.83122 0.14473 0.0
H578 H 0.24893 0.76204 0.14176 0.0
C579 C 0.18217 0.71072 0.14759 0.0
C580 C 0.14237 0.69863 0.15693 0.0
C581 C 0.29642 0.84802 0.15572 0.0
C582 C 0.21457 0.78707 0.15881 0.0
C583 C 0.33321 0.88548 0.16329 0.0
C584 C 0.32745 0.90733 0.1781 0.0
C585 C 0.25357 0.83184 0.16323 0.0
C586 C 0.28365 0.89305 0.18393 0.0
C587 C 0.21827 0.75474 0.14847 0.0
C588 C 0.13907 0.73245 0.1662 0.0
N589 N 0.24855 0.85577 0.17669 0.0
N590 N 0.17486 0.77488 0.16708 0.0
H591 H 0.50978 0.13332 0.53042 0.0
H592 H 0.37756 0.262 0.50879 0.0
H593 H 0.41956 0.09621 0.48544 0.0
H594 H 0.44 0.26795 0.55953 0.0
H595 H 0.39334 0.20299 0.49901 0.0
H596 H 0.4872 0.18659 0.53995 0.0
C597 C 0.48537 0.13652 0.52246 0.0
C598 C 0.4665 0.11016 0.5071 0.0
C599 C 0.40292 0.21687 0.51236 0.0
C600 C 0.44017 0.17114 0.51809 0.0
C601 C 0.39396 0.25045 0.51794 0.0
C602 C 0.40743 0.26985 0.535 0.0
C603 C 0.426 0.20326 0.52387 0.0
C604 C 0.42839 0.25358 0.54637 0.0
C605 C 0.47222 0.16678 0.528 0.0
C606 C 0.43492 0.11584 0.49738 0.0
N607 N 0.43738 0.2216 0.54053 0.0
N608 N 0.42274 0.14587 0.50303 0.0
H609 H 0.31371 0.45946 0.8293 0.0
H610 H 0.26245 0.60299 0.89895 0.0
H611 H 0.38568 0.51351 0.87876 0.0
H612 H 0.15851 0.50623 0.8643 0.0
H613 H 0.31212 0.57683 0.88829 0.0
H614 H 0.25792 0.47951 0.83938 0.0
C615 C 0.31733 0.47473 0.84235 0.0
C616 C 0.35467 0.48549 0.85309 0.0
C617 C 0.27841 0.56126 0.88302 0.0
C618 C 0.29221 0.50913 0.86439 0.0
C619 C 0.25007 0.57621 0.8891 0.0
C620 C 0.20613 0.55641 0.88268 0.0
C621 C 0.26293 0.52646 0.8703 0.0
C622 C 0.19228 0.52262 0.86953 0.0
C623 C 0.28578 0.48639 0.84802 0.0
C624 C 0.3579 0.50535 0.86987 0.0
N625 N 0.22062 0.50854 0.86377 0.0
N626 N 0.32743 0.51699 0.87489 0.0
H627 H 0.8713 0.34762 0.15243 0.0
H628 H 0.75027 0.19972 0.23653 0.0
H629 H 0.9388 0.36565 0.20298 0.0
H630 H 0.71193 0.14411 0.18322 0.0
H631 H 0.81827 0.26214 0.22427 0.0
H632 H 0.81116 0.27414 0.1629 0.0
C633 C 0.87379 0.33593 0.16562 0.0
C634 C 0.90988 0.36308 0.17693 0.0
C635 C 0.79522 0.23597 0.21528 0.0
C636 C 0.84116 0.27965 0.18897 0.0
C637 C 0.75631 0.19994 0.22229 0.0
C638 C 0.72491 0.16614 0.21096 0.0
C639 C 0.80259 0.23908 0.19674 0.0
C640 C 0.73452 0.16966 0.19249 0.0
C641 C 0.83956 0.29399 0.17154 0.0
C642 C 0.91152 0.34608 0.19383 0.0
N643 N 0.77226 0.20582 0.18592 0.0
N644 N 0.87728 0.30579 0.19944 0.0
H645 H 0.92541 0.48456 0.09507 0.0
H646 H 0.04989 0.63094 0.00808 0.0
H647 H 0.06637 0.58366 0.09178 0.0
H648 H 0.91765 0.51364 0.00568 0.0
H649 H 0.05119 0.62004 0.04024 0.0
H650 H 0.9175 0.49904 0.06344 0.0
C651 C 0.95465 0.50917 0.08773 0.0
C652 C -0.00335 0.53279 0.0961 0.0
C653 C 0.0217 0.59673 0.03275 0.0
C654 C 0.98765 0.54989 0.06018 0.0
C655 C 0.02094 0.60305 0.01441 0.0
C656 C 0.98386 0.5728 0.00423 0.0
C657 C 0.98516 0.55977 0.04106 0.0
C658 C 0.94687 0.53769 0.01311 0.0
C659 C 0.95006 0.51748 0.06972 0.0
C660 C 0.03335 0.56443 0.08595 0.0
N661 N 0.9486 0.53179 0.03106 0.0
N662 N 0.02792 0.57206 0.0686 0.0
H663 H 0.42596 0.98884 0.42552 0.0
H664 H 0.51765 0.94666 0.33321 0.0
H665 H 0.53046 0.95495 0.42176 0.0
H666 H 0.41183 0.97858 0.33612 0.0
H667 H 0.51975 0.94571 0.36586 0.0
H668 H 0.41754 0.98196 0.39296 0.0
C669 C 0.4471 0.97991 0.41788 0.0
C670 C 0.47914 0.9727 0.42641 0.0
C671 C 0.49586 0.95269 0.35939 0.0
C672 C 0.46956 0.96467 0.38917 0.0
C673 C 0.49476 0.95335 0.34075 0.0
C674 C 0.46476 0.96306 0.33197 0.0
C675 C 0.46691 0.96203 0.36937 0.0
C676 C 0.43531 0.97071 0.34238 0.0
C677 C 0.44219 0.9759 0.39929 0.0
C678 C 0.50544 0.96102 0.4158 0.0
N679 N 0.43735 0.97039 0.36055 0.0
N680 N 0.50014 0.95751 0.39777 0.0
H681 H 0.39333 0.43673 0.76614 0.0
H682 H 0.50527 0.52821 0.66997 0.0
H683 H 0.53289 0.53568 0.75786 0.0
H684 H 0.36786 0.42259 0.67726 0.0
H685 H 0.51366 0.53628 0.70237 0.0
H686 H 0.38134 0.43539 0.73384 0.0
C687 C 0.42142 0.45831 0.75756 0.0
C688 C 0.46427 0.48615 0.76474 0.0
C689 C 0.48157 0.51148 0.69691 0.0
C690 C 0.45072 0.48477 0.72778 0.0
C691 C 0.47664 0.50711 0.67838 0.0
C692 C 0.43581 0.47458 0.67088 0.0
C693 C 0.44545 0.48309 0.70807 0.0
C694 C 0.40012 0.44766 0.68248 0.0
C695 C 0.41453 0.4575 0.73912 0.0
C696 C 0.49934 0.51345 0.75296 0.0
N697 N 0.40582 0.45239 0.70051 0.0
N698 N 0.49179 0.51196 0.73508 0.0
H699 H 0.57665 0.03575 0.56693 0.0
H700 H 0.42354 0.94846 0.65349 0.0
H701 H 0.44515 0.91677 0.56637 0.0
H702 H 0.56752 0.01628 0.65729 0.0
H703 H 0.42965 0.94371 0.62092 0.0
H704 H 0.57345 0.0359 0.59977 0.0
C705 C 0.5473 0.00951 0.57371 0.0
C706 C 0.51109 0.97623 0.56392 0.0
C707 C 0.45988 0.95944 0.6289 0.0
C708 C 0.50697 0.97677 0.60128 0.0
C709 C 0.4564 0.9624 0.6474 0.0
C710 C 0.4951 0.98281 0.65795 0.0
C711 C 0.50238 0.97786 0.62092 0.0
C712 C 0.53695 0.00012 0.64953 0.0
C713 C 0.54557 0.00958 0.5924 0.0
C714 C 0.4739 0.94297 0.57337 0.0
N715 N 0.53956 -0.00234 0.63143 0.0
N716 N 0.47256 0.94441 0.59152 0.0
H717 H 0.54846 0.55354 0.90504 0.0
H718 H 0.45637 0.39206 0.98929 0.0
H719 H 0.49955 0.41067 0.90108 0.0
H720 H 0.55215 0.53406 0.99412 0.0
H721 H 0.46806 0.39797 0.95676 0.0
H722 H 0.54738 0.54738 0.93768 0.0
C723 C 0.53791 0.52095 0.91104 0.0
C724 C 0.52389 0.48251 0.90035 0.0
C725 C 0.48679 0.42772 0.96497 0.0
C726 C 0.52191 0.47515 0.93763 0.0
C727 C 0.4799 0.42442 0.98347 0.0
C728 C 0.50323 0.46268 0.99431 0.0
C729 C 0.51661 0.46974 0.95729 0.0
C730 C 0.53368 0.50376 0.98619 0.0
C731 C 0.53739 0.51749 0.92966 0.0
C732 C 0.51072 0.44117 0.90883 0.0
N733 N 0.53915 0.50633 0.96812 0.0
N734 N 0.50944 0.43845 0.927 0.0
H735 H 0.03567 0.61649 0.23285 0.0
H736 H 0.06158 0.5146 0.32534 0.0
H737 H 0.0607 0.50543 0.23667 0.0
H738 H 0.03647 0.62557 0.32216 0.0
H739 H 0.06686 0.51464 0.29274 0.0
H740 H 0.04154 0.6244 0.26542 0.0
C741 C 0.04267 0.59394 0.2405 0.0
C742 C 0.04732 0.55998 0.23199 0.0
C743 C 0.06045 0.53918 0.29915 0.0
C744 C 0.05398 0.56883 0.26927 0.0
C745 C 0.05723 0.53903 0.31776 0.0
C746 C 0.04817 0.56986 0.32645 0.0
C747 C 0.05434 0.57026 0.28911 0.0
C748 C 0.04371 0.60135 0.31599 0.0
C749 C 0.04601 0.59849 0.2591 0.0
C750 C 0.05655 0.5319 0.24261 0.0
N751 N 0.04648 0.60051 0.29785 0.0
N752 N 0.05931 0.5368 0.26069 0.0
loop_
_geom_bond_atom_site_label_1
_geom_bond_atom_site_label_2
_geom_bond_distance
_geom_bond_site_symmetry_2
_ccdc_geom_bond_type
O0 Zn1 1.953 . S
O0 C16 1.225 1_655 S
Zn1 O0 1.953 . S
Zn1 O2 1.949 1_655 S
Zn1 O8 1.919 . S
Zn1 O13 1.924 1_655 S
O2 Zn1 1.949 1_455 S
O2 Zn3 1.923 1_455 S
O2 Zn4 1.950 . S
O2 Zn5 1.945 . S
Zn3 O2 1.923 1_655 S
Zn3 O6 1.933 . S
Zn3 O9 1.941 . S
Zn3 O10 1.965 . S
Zn4 O2 1.950 . S
Zn4 O11 1.938 1_455 S
Zn4 O12 1.906 . S
Zn4 O22 1.953 . S
Zn5 O2 1.945 . S
Zn5 O7 1.932 . S
Zn5 O14 1.977 . S
Zn5 O15 1.910 . S
O6 Zn3 1.933 . S
O6 C17 1.226 1_655 S
O7 Zn5 1.932 . S
O7 C17 1.307 . S
O8 Zn1 1.919 . S
O8 C19 1.253 . S
O9 Zn3 1.941 . S
O9 C19 1.283 . S
O10 Zn3 1.965 . S
O10 C18 1.303 . S
O11 Zn4 1.938 1_655 S
O11 C18 1.247 . S
O12 Zn4 1.906 . S
O12 C20 1.304 . S
O13 Zn1 1.924 1_455 S
O13 C21 1.311 . S
O14 Zn5 1.977 . S
O14 C20 1.272 . S
O15 Zn5 1.910 . S
O15 C21 1.231 . S
C16 O0 1.225 1_455 S
C16 O22 1.298 . S
C17 O6 1.226 1_455 S
C17 O7 1.307 . S
C18 O10 1.303 . S
C18 O11 1.247 . S
C19 O8 1.253 . S
C19 O9 1.283 . S
C20 O12 1.304 . S
C20 O14 1.272 . S
C21 O13 1.311 . S
C21 O15 1.231 . S
O22 Zn4 1.953 . S
O22 C16 1.298 . S
O23 Zn24 1.953 . S
O23 C39 1.225 . S
Zn24 O23 1.953 . S
Zn24 O25 1.949 . S
Zn24 O31 1.919 . S
Zn24 O36 1.924 1_545 S
O25 Zn24 1.949 . S
O25 Zn26 1.923 . S
O25 Zn27 1.950 1_545 S
O25 Zn28 1.945 1_545 S
Zn26 O25 1.923 . S
Zn26 O29 1.933 . S
Zn26 O32 1.941 . S
Zn26 O33 1.965 . S
Zn27 O25 1.950 1_565 S
Zn27 O34 1.938 1_565 S
Zn27 O35 1.906 . S
Zn27 O45 1.953 . S
Zn28 O25 1.945 1_565 S
Zn28 O30 1.932 . S
Zn28 O37 1.977 . S
Zn28 O38 1.910 . S
O29 Zn26 1.933 . S
O29 C40 1.226 . S
O30 Zn28 1.932 . S
O30 C40 1.307 1_565 S
O31 Zn24 1.919 . S
O31 C42 1.253 . S
O32 Zn26 1.941 . S
O32 C42 1.283 . S
O33 Zn26 1.965 . S
O33 C41 1.303 . S
O34 Zn27 1.938 1_545 S
O34 C41 1.247 . S
O35 Zn27 1.906 . S
O35 C43 1.304 . S
O36 Zn24 1.924 1_565 S
O36 C44 1.311 . S
O37 Zn28 1.977 . S
O37 C43 1.272 . S
O38 Zn28 1.910 . S
O38 C44 1.231 . S
C39 O23 1.225 . S
C39 O45 1.298 1_545 S
C40 O29 1.226 . S
C40 O30 1.307 1_545 S
C41 O33 1.303 . S
C41 O34 1.247 . S
C42 O31 1.253 . S
C42 O32 1.283 . S
C43 O35 1.304 . S
C43 O37 1.272 . S
C44 O36 1.311 . S
C44 O38 1.231 . S
O45 Zn27 1.953 . S
O45 C39 1.298 1_565 S
O46 Zn47 1.953 . S
O46 C62 1.225 . S
Zn47 O46 1.953 . S
Zn47 O48 1.949 . S
Zn47 O54 1.919 . S
Zn47 O59 1.924 . S
O48 Zn47 1.949 . S
O48 Zn49 1.923 . S
O48 Zn50 1.950 . S
O48 Zn51 1.945 . S
Zn49 O48 1.923 . S
Zn49 O52 1.933 . S
Zn49 O55 1.941 . S
Zn49 O56 1.965 . S
Zn50 O48 1.950 . S
Zn50 O57 1.938 . S
Zn50 O58 1.906 . S
Zn50 O68 1.953 . S
Zn51 O48 1.945 . S
Zn51 O53 1.932 . S
Zn51 O60 1.977 . S
Zn51 O61 1.910 . S
O52 Zn49 1.933 . S
O52 C63 1.226 . S
O53 Zn51 1.932 . S
O53 C63 1.307 . S
O54 Zn47 1.919 . S
O54 C65 1.253 . S
O55 Zn49 1.941 . S
O55 C65 1.283 . S
O56 Zn49 1.965 . S
O56 C64 1.303 . S
O57 Zn50 1.938 . S
O57 C64 1.247 . S
O58 Zn50 1.906 . S
O58 C66 1.304 . S
O59 Zn47 1.924 . S
O59 C67 1.311 . S
O60 Zn51 1.977 . S
O60 C66 1.272 . S
O61 Zn51 1.910 . S
O61 C67 1.231 . S
C62 O46 1.225 . S
C62 O68 1.298 . S
C63 O52 1.226 . S
C63 O53 1.307 . S
C64 O56 1.303 . S
C64 O57 1.247 . S
C65 O54 1.253 . S
C65 O55 1.283 . S
C66 O58 1.304 . S
C66 O60 1.272 . S
C67 O59 1.311 . S
C67 O61 1.231 . S
O68 Zn50 1.953 . S
O68 C62 1.298 . S
C69 C70 1.391 . S
C69 C73 1.391 . S
C69 H111 0.948 . S
C70 C69 1.391 . S
C70 C71 1.391 . S
C71 C70 1.391 . S
C71 H127 0.947 . S
C71 C128 1.392 . S
C72 C73 1.391 . S
C72 C76 1.397 . S
C72 C128 1.419 . S
C73 C69 1.391 . S
C73 C72 1.391 . S
C73 C74 1.399 . S
C74 C73 1.399 . S
C74 C77 1.396 . S
C74 C86 1.453 . S
C74 C87 1.684 . S
H75 C99 0.948 . S
C76 C72 1.397 . S
C76 C77 1.394 . S
C76 C95 1.723 . S
C77 C74 1.396 . S
C77 C76 1.394 . S
C77 C107 1.723 1_545 S
H78 C101 0.947 . S
H79 C102 0.948 . S
H80 C108 0.982 . S
H81 C109 0.979 . S
H82 C109 0.980 . S
H83 C109 0.983 . S
H84 C108 0.979 . S
H85 C108 0.977 . S
C86 C74 1.453 . S
C86 H115 0.982 . S
C86 H116 0.979 . S
C86 H117 0.977 1_545 S
C87 C74 1.684 . S
C87 H112 0.979 . S
C87 H113 0.980 . S
C87 H114 0.983 . S
C88 C89 1.391 . S
C88 C93 1.391 . S
C88 H118 0.948 . S
C89 C88 1.391 . S
C89 C90 1.391 1_545 S
C90 C89 1.391 1_565 S
C90 C91 1.392 . S
C90 H119 0.947 . S
C91 C90 1.392 . S
C91 C92 1.419 . S
C91 H120 0.948 . S
C92 C91 1.419 . S
C92 C93 1.391 1_565 S
C92 C96 1.397 1_565 S
C93 C88 1.391 . S
C93 C92 1.391 1_545 S
C93 C94 1.399 . S
C94 C93 1.399 . S
C94 C95 1.396 . S
C94 C97 1.453 . S
C94 C98 1.684 . S
C95 C76 1.723 . S
C95 C94 1.396 . S
C95 C96 1.394 . S
C96 C92 1.397 1_545 S
C96 C95 1.394 . S
C96 C106 1.723 1_545 S
C97 C94 1.453 . S
C97 H121 0.982 . S
C97 H122 0.979 . S
C97 H123 0.977 . S
C98 C94 1.684 . S
C98 H124 0.979 . S
C98 H125 0.980 . S
C98 H126 0.983 . S
C99 H75 0.948 . S
C99 C100 1.391 . S
C99 C104 1.391 . S
C100 C99 1.391 . S
C100 C101 1.391 . S
C101 H78 0.947 . S
C101 C100 1.391 . S
C101 C102 1.392 . S
C102 H79 0.948 . S
C102 C101 1.392 . S
C102 C103 1.419 . S
C103 C102 1.419 . S
C103 C104 1.391 . S
C103 C107 1.397 . S
C104 C99 1.391 . S
C104 C103 1.391 . S
C104 C105 1.399 . S
C105 C104 1.399 . S
C105 C106 1.396 . S
C105 C108 1.453 . S
C105 C109 1.684 . S
C106 C96 1.723 1_565 S
C106 C105 1.396 . S
C106 C107 1.394 . S
C107 C77 1.723 1_565 S
C107 C103 1.397 . S
C107 C106 1.394 . S
C108 H80 0.982 . S
C108 H84 0.979 . S
C108 H85 0.977 . S
C108 C105 1.453 . S
C109 H81 0.979 . S
C109 H82 0.980 . S
C109 H83 0.983 . S
C109 C105 1.684 . S
H110 C128 0.948 . S
H111 C69 0.948 . S
H112 C87 0.979 . S
H113 C87 0.980 . S
H114 C87 0.983 . S
H115 C86 0.982 . S
H116 C86 0.979 . S
H117 C86 0.977 1_565 S
H118 C88 0.948 . S
H119 C90 0.947 . S
H120 C91 0.948 . S
H121 C97 0.982 . S
H122 C97 0.979 . S
H123 C97 0.977 . S
H124 C98 0.979 . S
H125 C98 0.980 . S
H126 C98 0.983 . S
H127 C71 0.947 . S
C128 C71 1.392 . S
C128 C72 1.419 . S
C128 H110 0.948 . S
C129 C130 1.391 . S
C129 C133 1.391 . S
C129 H171 0.948 . S
C130 C129 1.391 . S
C130 C131 1.391 . S
C131 C130 1.391 . S
C131 H187 0.947 . S
C131 C188 1.392 . S
C132 C133 1.391 . S
C132 C136 1.397 . S
C132 C188 1.419 . S
C133 C129 1.391 . S
C133 C132 1.391 . S
C133 C134 1.399 . S
C134 C133 1.399 . S
C134 C137 1.396 . S
C134 C146 1.453 . S
C134 C147 1.684 . S
H135 C159 0.948 . S
C136 C132 1.397 . S
C136 C137 1.394 . S
C136 C155 1.723 . S
C137 C134 1.396 . S
C137 C136 1.394 . S
C137 C167 1.723 . S
H138 C161 0.947 . S
H139 C162 0.948 . S
H140 C168 0.982 . S
H141 C169 0.979 . S
H142 C169 0.980 . S
H143 C169 0.983 . S
H144 C168 0.979 . S
H145 C168 0.977 . S
C146 C134 1.453 . S
C146 H175 0.982 . S
C146 H176 0.979 . S
C146 H177 0.977 . S
C147 C134 1.684 . S
C147 H172 0.979 . S
C147 H173 0.980 . S
C147 H174 0.983 . S
C148 C149 1.391 . S
C148 C153 1.391 . S
C148 H178 0.948 . S
C149 C148 1.391 . S
C149 C150 1.391 . S
C150 C149 1.391 . S
C150 C151 1.392 . S
C150 H179 0.947 . S
C151 C150 1.392 . S
C151 C152 1.419 . S
C151 H180 0.948 . S
C152 C151 1.419 . S
C152 C153 1.391 . S
C152 C156 1.397 . S
C153 C148 1.391 . S
C153 C152 1.391 . S
C153 C154 1.399 . S
C154 C153 1.399 . S
C154 C155 1.396 . S
C154 C157 1.453 . S
C154 C158 1.684 . S
C155 C136 1.723 . S
C155 C154 1.396 . S
C155 C156 1.394 . S
C156 C152 1.397 . S
C156 C155 1.394 . S
C156 C166 1.723 . S
C157 C154 1.453 . S
C157 H181 0.982 . S
C157 H182 0.979 . S
C157 H183 0.977 . S
C158 C154 1.684 . S
C158 H184 0.979 . S
C158 H185 0.980 . S
C158 H186 0.983 . S
C159 H135 0.948 . S
C159 C160 1.391 . S
C159 C164 1.391 . S
C160 C159 1.391 . S
C160 C161 1.391 . S
C161 H138 0.947 . S
C161 C160 1.391 . S
C161 C162 1.392 . S
C162 H139 0.948 . S
C162 C161 1.392 . S
C162 C163 1.419 . S
C163 C162 1.419 . S
C163 C164 1.391 . S
C163 C167 1.397 . S
C164 C159 1.391 . S
C164 C163 1.391 . S
C164 C165 1.399 . S
C165 C164 1.399 . S
C165 C166 1.396 . S
C165 C168 1.453 . S
C165 C169 1.684 . S
C166 C156 1.723 . S
C166 C165 1.396 . S
C166 C167 1.394 . S
C167 C137 1.723 . S
C167 C163 1.397 . S
C167 C166 1.394 . S
C168 H140 0.982 . S
C168 H144 0.979 . S
C168 H145 0.977 . S
C168 C165 1.453 . S
C169 H141 0.979 . S
C169 H142 0.980 . S
C169 H143 0.983 . S
C169 C165 1.684 . S
H170 C188 0.948 . S
H171 C129 0.948 . S
H172 C147 0.979 . S
H173 C147 0.980 . S
H174 C147 0.983 . S
H175 C146 0.982 . S
H176 C146 0.979 . S
H177 C146 0.977 . S
H178 C148 0.948 . S
H179 C150 0.947 . S
H180 C151 0.948 . S
H181 C157 0.982 . S
H182 C157 0.979 . S
H183 C157 0.977 . S
H184 C158 0.979 . S
H185 C158 0.980 . S
H186 C158 0.983 . S
H187 C131 0.947 . S
C188 C131 1.392 . S
C188 C132 1.419 . S
C188 H170 0.948 . S
C189 C190 1.391 . S
C189 C193 1.391 . S
C189 H231 0.948 . S
C190 C189 1.391 . S
C190 C191 1.391 . S
C191 C190 1.391 . S
C191 H247 0.947 . S
C191 C248 1.392 . S
C192 C193 1.391 . S
C192 C196 1.397 . S
C192 C248 1.419 . S
C193 C189 1.391 . S
C193 C192 1.391 . S
C193 C194 1.399 . S
C194 C193 1.399 . S
C194 C197 1.396 . S
C194 C206 1.453 . S
C194 C207 1.684 . S
H195 C219 0.948 . S
C196 C192 1.397 . S
C196 C197 1.394 . S
C196 C215 1.723 . S
C197 C194 1.396 . S
C197 C196 1.394 . S
C197 C227 1.723 1_455 S
H198 C221 0.947 . S
H199 C222 0.948 . S
H200 C228 0.982 . S
H201 C229 0.979 . S
H202 C229 0.980 . S
H203 C229 0.983 . S
H204 C228 0.979 . S
H205 C228 0.977 . S
C206 C194 1.453 . S
C206 H235 0.982 . S
C206 H236 0.979 . S
C206 H237 0.977 1_455 S
C207 C194 1.684 . S
C207 H232 0.979 . S
C207 H233 0.980 . S
C207 H234 0.983 . S
C208 C209 1.391 . S
C208 C213 1.391 . S
C208 H238 0.948 . S
C209 C208 1.391 . S
C209 C210 1.391 1_455 S
C210 C209 1.391 1_655 S
C210 C211 1.392 . S
C210 H239 0.947 . S
C211 C210 1.392 . S
C211 C212 1.419 1_655 S
C211 H240 0.948 . S
C212 C211 1.419 1_455 S
C212 C213 1.391 . S
C212 C216 1.397 . S
C213 C208 1.391 . S
C213 C212 1.391 . S
C213 C214 1.399 . S
C214 C213 1.399 . S
C214 C215 1.396 . S
C214 C217 1.453 . S
C214 C218 1.684 . S
C215 C196 1.723 . S
C215 C214 1.396 . S
C215 C216 1.394 . S
C216 C212 1.397 . S
C216 C215 1.394 . S
C216 C226 1.723 1_455 S
C217 C214 1.453 . S
C217 H241 0.982 . S
C217 H242 0.979 . S
C217 H243 0.977 . S
C218 C214 1.684 . S
C218 H244 0.979 . S
C218 H245 0.980 . S
C218 H246 0.983 . S
C219 H195 0.948 . S
C219 C220 1.391 . S
C219 C224 1.391 . S
C220 C219 1.391 . S
C220 C221 1.391 . S
C221 H198 0.947 . S
C221 C220 1.391 . S
C221 C222 1.392 . S
C222 H199 0.948 . S
C222 C221 1.392 . S
C222 C223 1.419 . S
C223 C222 1.419 . S
C223 C224 1.391 . S
C223 C227 1.397 . S
C224 C219 1.391 . S
C224 C223 1.391 . S
C224 C225 1.399 . S
C225 C224 1.399 . S
C225 C226 1.396 . S
C225 C228 1.453 . S
C225 C229 1.684 . S
C226 C216 1.723 1_655 S
C226 C225 1.396 . S
C226 C227 1.394 . S
C227 C197 1.723 1_655 S
C227 C223 1.397 . S
C227 C226 1.394 . S
C228 H200 0.982 . S
C228 H204 0.979 . S
C228 H205 0.977 . S
C228 C225 1.453 . S
C229 H201 0.979 . S
C229 H202 0.980 . S
C229 H203 0.983 . S
C229 C225 1.684 . S
H230 C248 0.948 . S
H231 C189 0.948 . S
H232 C207 0.979 . S
H233 C207 0.980 . S
H234 C207 0.983 . S
H235 C206 0.982 . S
H236 C206 0.979 . S
H237 C206 0.977 1_655 S
H238 C208 0.948 . S
H239 C210 0.947 . S
H240 C211 0.948 . S
H241 C217 0.982 . S
H242 C217 0.979 . S
H243 C217 0.977 . S
H244 C218 0.979 . S
H245 C218 0.980 . S
H246 C218 0.983 . S
H247 C191 0.947 . S
C248 C191 1.392 . S
C248 C192 1.419 . S
C248 H230 0.948 . S
C249 C250 1.391 . S
C249 C253 1.391 . S
C249 H291 0.948 . S
C250 C249 1.391 . S
C250 C251 1.391 . S
C251 C250 1.391 . S
C251 H307 0.947 . S
C251 C308 1.392 . S
C252 C253 1.391 . S
C252 C256 1.397 . S
C252 C308 1.419 . S
C253 C249 1.391 . S
C253 C252 1.391 . S
C253 C254 1.399 . S
C254 C253 1.399 . S
C254 C257 1.396 . S
C254 C266 1.453 . S
C254 C267 1.684 . S
H255 C279 0.948 . S
C256 C252 1.397 . S
C256 C257 1.394 . S
C256 C275 1.723 . S
C257 C254 1.396 . S
C257 C256 1.394 . S
C257 C287 1.723 1_655 S
H258 C281 0.947 . S
H259 C282 0.948 . S
H260 C288 0.982 . S
H261 C289 0.979 . S
H262 C289 0.980 . S
H263 C289 0.983 . S
H264 C288 0.979 . S
H265 C288 0.977 . S
C266 C254 1.453 . S
C266 H295 0.982 1_655 S
C266 H296 0.979 . S
C266 H297 0.977 1_655 S
C267 C254 1.684 . S
C267 H292 0.979 . S
C267 H293 0.980 . S
C267 H294 0.983 . S
C268 C269 1.391 1_655 S
C268 C273 1.391 . S
C268 H298 0.948 . S
C269 C268 1.391 1_455 S
C269 C270 1.391 . S
C270 C269 1.391 . S
C270 C271 1.392 . S
C270 H299 0.947 . S
C271 C270 1.392 . S
C271 C272 1.419 . S
C271 H300 0.948 . S
C272 C271 1.419 . S
C272 C273 1.391 1_455 S
C272 C276 1.397 . S
C273 C268 1.391 . S
C273 C272 1.391 1_655 S
C273 C274 1.399 . S
C274 C273 1.399 . S
C274 C275 1.396 . S
C274 C277 1.453 . S
C274 C278 1.684 . S
C275 C256 1.723 . S
C275 C274 1.396 . S
C275 C276 1.394 1_655 S
C276 C272 1.397 . S
C276 C275 1.394 1_455 S
C276 C286 1.723 . S
C277 C274 1.453 . S
C277 H301 0.982 . S
C277 H302 0.979 . S
C277 H303 0.977 . S
C278 C274 1.684 . S
C278 H304 0.979 . S
C278 H305 0.980 . S
C278 H306 0.983 . S
C279 H255 0.948 . S
C279 C280 1.391 . S
C279 C284 1.391 . S
C280 C279 1.391 . S
C280 C281 1.391 . S
C281 H258 0.947 . S
C281 C280 1.391 . S
C281 C282 1.392 . S
C282 H259 0.948 . S
C282 C281 1.392 . S
C282 C283 1.419 . S
C283 C282 1.419 . S
C283 C284 1.391 . S
C283 C287 1.397 . S
C284 C279 1.391 . S
C284 C283 1.391 . S
C284 C285 1.399 . S
C285 C284 1.399 . S
C285 C286 1.396 . S
C285 C288 1.453 . S
C285 C289 1.684 . S
C286 C276 1.723 . S
C286 C285 1.396 . S
C286 C287 1.394 . S
C287 C257 1.723 1_455 S
C287 C283 1.397 . S
C287 C286 1.394 . S
C288 H260 0.982 . S
C288 H264 0.979 . S
C288 H265 0.977 . S
C288 C285 1.453 . S
C289 H261 0.979 . S
C289 H262 0.980 . S
C289 H263 0.983 . S
C289 C285 1.684 . S
H290 C308 0.948 . S
H291 C249 0.948 . S
H292 C267 0.979 . S
H293 C267 0.980 . S
H294 C267 0.983 . S
H295 C266 0.982 1_455 S
H296 C266 0.979 . S
H297 C266 0.977 1_455 S
H298 C268 0.948 . S
H299 C270 0.947 . S
H300 C271 0.948 . S
H301 C277 0.982 . S
H302 C277 0.979 . S
H303 C277 0.977 . S
H304 C278 0.979 . S
H305 C278 0.980 . S
H306 C278 0.983 . S
H307 C251 0.947 . S
C308 C251 1.392 . S
C308 C252 1.419 . S
C308 H290 0.948 . S
C309 C310 1.391 . S
C309 C313 1.391 . S
C309 H351 0.948 . S
C310 C309 1.391 . S
C310 C311 1.391 . S
C311 C310 1.391 . S
C311 H367 0.947 . S
C311 C368 1.392 . S
C312 C313 1.391 . S
C312 C316 1.397 . S
C312 C368 1.419 . S
C313 C309 1.391 . S
C313 C312 1.391 . S
C313 C314 1.399 . S
C314 C313 1.399 . S
C314 C317 1.396 . S
C314 C326 1.453 . S
C314 C327 1.684 . S
H315 C339 0.948 . S
C316 C312 1.397 . S
C316 C317 1.394 . S
C316 C335 1.723 . S
C317 C314 1.396 . S
C317 C316 1.394 . S
C317 C347 1.723 1_565 S
H318 C341 0.947 . S
H319 C342 0.948 . S
H320 C348 0.982 . S
H321 C349 0.979 . S
H322 C349 0.980 . S
H323 C349 0.983 . S
H324 C348 0.979 . S
H325 C348 0.977 . S
C326 C314 1.453 . S
C326 H355 0.982 1_565 S
C326 H356 0.979 . S
C326 H357 0.977 1_565 S
C327 C314 1.684 . S
C327 H352 0.979 . S
C327 H353 0.980 . S
C327 H354 0.983 . S
C328 C329 1.391 1_565 S
C328 C333 1.391 . S
C328 H358 0.948 . S
C329 C328 1.391 1_545 S
C329 C330 1.391 . S
C330 C329 1.391 . S
C330 C331 1.392 . S
C330 H359 0.947 . S
C331 C330 1.392 . S
C331 C332 1.419 . S
C331 H360 0.948 . S
C332 C331 1.419 . S
C332 C333 1.391 1_545 S
C332 C336 1.397 . S
C333 C328 1.391 . S
C333 C332 1.391 1_565 S
C333 C334 1.399 . S
C334 C333 1.399 . S
C334 C335 1.396 . S
C334 C337 1.453 . S
C334 C338 1.684 . S
C335 C316 1.723 . S
C335 C334 1.396 . S
C335 C336 1.394 1_565 S
C336 C332 1.397 . S
C336 C335 1.394 1_545 S
C336 C346 1.723 . S
C337 C334 1.453 . S
C337 H361 0.982 . S
C337 H362 0.979 . S
C337 H363 0.977 . S
C338 C334 1.684 . S
C338 H364 0.979 . S
C338 H365 0.980 . S
C338 H366 0.983 . S
C339 H315 0.948 . S
C339 C340 1.391 . S
C339 C344 1.391 . S
C340 C339 1.391 . S
C340 C341 1.391 . S
C341 H318 0.947 . S
C341 C340 1.391 . S
C341 C342 1.392 . S
C342 H319 0.948 . S
C342 C341 1.392 . S
C342 C343 1.419 . S
C343 C342 1.419 . S
C343 C344 1.391 . S
C343 C347 1.397 . S
C344 C339 1.391 . S
C344 C343 1.391 . S
C344 C345 1.399 . S
C345 C344 1.399 . S
C345 C346 1.396 . S
C345 C348 1.453 . S
C345 C349 1.684 . S
C346 C336 1.723 . S
C346 C345 1.396 . S
C346 C347 1.394 . S
C347 C317 1.723 1_545 S
C347 C343 1.397 . S
C347 C346 1.394 . S
C348 H320 0.982 . S
C348 H324 0.979 . S
C348 H325 0.977 . S
C348 C345 1.453 . S
C349 H321 0.979 . S
C349 H322 0.980 . S
C349 H323 0.983 . S
C349 C345 1.684 . S
H350 C368 0.948 . S
H351 C309 0.948 . S
H352 C327 0.979 . S
H353 C327 0.980 . S
H354 C327 0.983 . S
H355 C326 0.982 1_545 S
H356 C326 0.979 . S
H357 C326 0.977 1_545 S
H358 C328 0.948 . S
H359 C330 0.947 . S
H360 C331 0.948 . S
H361 C337 0.982 . S
H362 C337 0.979 . S
H363 C337 0.977 . S
H364 C338 0.979 . S
H365 C338 0.980 . S
H366 C338 0.983 . S
H367 C311 0.947 . S
C368 C311 1.392 . S
C368 C312 1.419 . S
C368 H350 0.948 . S
C369 C370 1.391 . S
C369 C373 1.391 . S
C369 H411 0.948 . S
C370 C369 1.391 . S
C370 C371 1.391 . S
C371 C370 1.391 . S
C371 H427 0.947 . S
C371 C428 1.392 . S
C372 C373 1.391 . S
C372 C376 1.397 . S
C372 C428 1.419 . S
C373 C369 1.391 . S
C373 C372 1.391 . S
C373 C374 1.399 . S
C374 C373 1.399 . S
C374 C377 1.396 . S
C374 C386 1.453 . S
C374 C387 1.684 . S
H375 C399 0.948 . S
C376 C372 1.397 . S
C376 C377 1.394 . S
C376 C395 1.723 . S
C377 C374 1.396 . S
C377 C376 1.394 . S
C377 C407 1.723 . S
H378 C401 0.947 . S
H379 C402 0.948 . S
H380 C408 0.982 . S
H381 C409 0.979 . S
H382 C409 0.980 . S
H383 C409 0.983 . S
H384 C408 0.979 . S
H385 C408 0.977 . S
C386 C374 1.453 . S
C386 H415 0.982 . S
C386 H416 0.979 . S
C386 H417 0.977 . S
C387 C374 1.684 . S
C387 H412 0.979 . S
C387 H413 0.980 . S
C387 H414 0.983 . S
C388 C389 1.391 . S
C388 C393 1.391 . S
C388 H418 0.948 . S
C389 C388 1.391 . S
C389 C390 1.391 . S
C390 C389 1.391 . S
C390 C391 1.392 . S
C390 H419 0.947 . S
C391 C390 1.392 . S
C391 C392 1.419 . S
C391 H420 0.948 . S
C392 C391 1.419 . S
C392 C393 1.391 . S
C392 C396 1.397 . S
C393 C388 1.391 . S
C393 C392 1.391 . S
C393 C394 1.399 . S
C394 C393 1.399 . S
C394 C395 1.396 . S
C394 C397 1.453 . S
C394 C398 1.684 . S
C395 C376 1.723 . S
C395 C394 1.396 . S
C395 C396 1.394 . S
C396 C392 1.397 . S
C396 C395 1.394 . S
C396 C406 1.723 . S
C397 C394 1.453 . S
C397 H421 0.982 . S
C397 H422 0.979 . S
C397 H423 0.977 . S
C398 C394 1.684 . S
C398 H424 0.979 . S
C398 H425 0.980 . S
C398 H426 0.983 . S
C399 H375 0.948 . S
C399 C400 1.391 . S
C399 C404 1.391 . S
C400 C399 1.391 . S
C400 C401 1.391 . S
C401 H378 0.947 . S
C401 C400 1.391 . S
C401 C402 1.392 . S
C402 H379 0.948 . S
C402 C401 1.392 . S
C402 C403 1.419 . S
C403 C402 1.419 . S
C403 C404 1.391 . S
C403 C407 1.397 . S
C404 C399 1.391 . S
C404 C403 1.391 . S
C404 C405 1.399 . S
C405 C404 1.399 . S
C405 C406 1.396 . S
C405 C408 1.453 . S
C405 C409 1.684 . S
C406 C396 1.723 . S
C406 C405 1.396 . S
C406 C407 1.394 . S
C407 C377 1.723 . S
C407 C403 1.397 . S
C407 C406 1.394 . S
C408 H380 0.982 . S
C408 H384 0.979 . S
C408 H385 0.977 . S
C408 C405 1.453 . S
C409 H381 0.979 . S
C409 H382 0.980 . S
C409 H383 0.983 . S
C409 C405 1.684 . S
H410 C428 0.948 . S
H411 C369 0.948 . S
H412 C387 0.979 . S
H413 C387 0.980 . S
H414 C387 0.983 . S
H415 C386 0.982 . S
H416 C386 0.979 . S
H417 C386 0.977 . S
H418 C388 0.948 . S
H419 C390 0.947 . S
H420 C391 0.948 . S
H421 C397 0.982 . S
H422 C397 0.979 . S
H423 C397 0.977 . S
H424 C398 0.979 . S
H425 C398 0.980 . S
H426 C398 0.983 . S
H427 C371 0.947 . S
C428 C371 1.392 . S
C428 C372 1.419 . S
C428 H410 0.948 . S
H429 C435 0.930 . S
H430 C439 0.930 . S
H431 C444 0.929 . S
H432 C442 0.929 . S
H433 C437 0.929 . S
H434 C443 0.929 . S
C435 H429 0.930 . S
C435 C436 1.367 . S
C435 C443 1.378 . S
C436 C435 1.367 . S
C436 C444 1.433 . S
C437 H433 0.929 . S
C437 C439 1.378 . S
C437 C441 1.350 . S
C438 C441 1.463 . S
C438 C443 1.350 . S
C438 N446 1.427 . S
C439 H430 0.930 . S
C439 C437 1.378 . S
C439 C440 1.367 . S
C440 C439 1.367 . S
C440 C442 1.433 . S
C441 C437 1.350 . S
C441 C438 1.463 . S
C441 N445 1.427 . S
C442 H432 0.929 . S
C442 C440 1.433 . S
C442 N445 1.384 . S
C443 H434 0.929 . S
C443 C435 1.378 . S
C443 C438 1.350 . S
C444 H431 0.929 . S
C444 C436 1.433 . S
C444 N446 1.384 . S
N445 C441 1.427 . S
N445 C442 1.384 . S
N446 C438 1.427 . S
N446 C444 1.384 . S
H447 C453 0.930 . S
H448 C457 0.930 . S
H449 C462 0.929 . S
H450 C460 0.929 . S
H451 C455 0.929 . S
H452 C461 0.929 . S
C453 H447 0.930 . S
C453 C454 1.367 . S
C453 C461 1.378 . S
C454 C453 1.367 . S
C454 C462 1.433 . S
C455 H451 0.929 . S
C455 C457 1.378 . S
C455 C459 1.350 . S
C456 C459 1.463 . S
C456 C461 1.350 . S
C456 N464 1.427 . S
C457 H448 0.930 . S
C457 C455 1.378 . S
C457 C458 1.367 . S
C458 C457 1.367 . S
C458 C460 1.433 . S
C459 C455 1.350 . S
C459 C456 1.463 . S
C459 N463 1.427 . S
C460 H450 0.929 . S
C460 C458 1.433 . S
C460 N463 1.384 . S
C461 H452 0.929 . S
C461 C453 1.378 . S
C461 C456 1.350 . S
C462 H449 0.929 . S
C462 C454 1.433 . S
C462 N464 1.384 . S
N463 C459 1.427 . S
N463 C460 1.384 . S
N464 C456 1.427 . S
N464 C462 1.384 . S
H465 C471 0.930 . S
H466 C475 0.930 . S
H467 C480 0.929 . S
H468 C478 0.929 . S
H469 C473 0.929 . S
H470 C479 0.929 . S
C471 H465 0.930 . S
C471 C472 1.367 . S
C471 C479 1.378 . S
C472 C471 1.367 . S
C472 C480 1.433 . S
C473 H469 0.929 . S
C473 C475 1.378 . S
C473 C477 1.350 . S
C474 C477 1.463 . S
C474 C479 1.350 . S
C474 N482 1.427 . S
C475 H466 0.930 . S
C475 C473 1.378 . S
C475 C476 1.367 . S
C476 C475 1.367 . S
C476 C478 1.433 . S
C477 C473 1.350 . S
C477 C474 1.463 . S
C477 N481 1.427 . S
C478 H468 0.929 . S
C478 C476 1.433 . S
C478 N481 1.384 . S
C479 H470 0.929 . S
C479 C471 1.378 . S
C479 C474 1.350 . S
C480 H467 0.929 . S
C480 C472 1.433 . S
C480 N482 1.384 . S
N481 C477 1.427 . S
N481 C478 1.384 . S
N482 C474 1.427 . S
N482 C480 1.384 . S
H483 C489 0.930 . S
H484 C493 0.930 . S
H485 C498 0.929 . S
H486 C496 0.929 . S
H487 C491 0.929 . S
H488 C497 0.929 . S
C489 H483 0.930 . S
C489 C490 1.367 . S
C489 C497 1.378 . S
C490 C489 1.367 . S
C490 C498 1.433 . S
C491 H487 0.929 . S
C491 C493 1.378 . S
C491 C495 1.350 . S
C492 C495 1.463 . S
C492 C497 1.350 . S
C492 N500 1.427 . S
C493 H484 0.930 . S
C493 C491 1.378 . S
C493 C494 1.367 . S
C494 C493 1.367 . S
C494 C496 1.433 . S
C495 C491 1.350 . S
C495 C492 1.463 . S
C495 N499 1.427 . S
C496 H486 0.929 . S
C496 C494 1.433 . S
C496 N499 1.384 . S
C497 H488 0.929 . S
C497 C489 1.378 . S
C497 C492 1.350 . S
C498 H485 0.929 . S
C498 C490 1.433 . S
C498 N500 1.384 . S
N499 C495 1.427 . S
N499 C496 1.384 . S
N500 C492 1.427 . S
N500 C498 1.384 . S
H501 C507 0.930 . S
H502 C511 0.930 . S
H503 C516 0.929 . S
H504 C514 0.929 . S
H505 C509 0.929 . S
H506 C515 0.929 . S
C507 H501 0.930 . S
C507 C508 1.367 . S
C507 C515 1.378 . S
C508 C507 1.367 . S
C508 C516 1.433 . S
C509 H505 0.929 . S
C509 C511 1.378 . S
C509 C513 1.350 . S
C510 C513 1.463 . S
C510 C515 1.350 . S
C510 N518 1.427 . S
C511 H502 0.930 . S
C511 C509 1.378 . S
C511 C512 1.367 . S
C512 C511 1.367 . S
C512 C514 1.433 . S
C513 C509 1.350 . S
C513 C510 1.463 . S
C513 N517 1.427 . S
C514 H504 0.929 . S
C514 C512 1.433 . S
C514 N517 1.384 . S
C515 H506 0.929 . S
C515 C507 1.378 . S
C515 C510 1.350 . S
C516 H503 0.929 . S
C516 C508 1.433 . S
C516 N518 1.384 . S
N517 C513 1.427 . S
N517 C514 1.384 . S
N518 C510 1.427 . S
N518 C516 1.384 . S
H519 C525 0.930 . S
H520 C529 0.930 . S
H521 C534 0.929 . S
H522 C532 0.929 . S
H523 C527 0.929 . S
H524 C533 0.929 . S
C525 H519 0.930 . S
C525 C526 1.367 . S
C525 C533 1.378 . S
C526 C525 1.367 . S
C526 C534 1.433 . S
C527 H523 0.929 . S
C527 C529 1.378 . S
C527 C531 1.350 . S
C528 C531 1.463 . S
C528 C533 1.350 . S
C528 N536 1.427 . S
C529 H520 0.930 . S
C529 C527 1.378 . S
C529 C530 1.367 . S
C530 C529 1.367 . S
C530 C532 1.433 . S
C531 C527 1.350 . S
C531 C528 1.463 . S
C531 N535 1.427 . S
C532 H522 0.929 . S
C532 C530 1.433 . S
C532 N535 1.384 . S
C533 H524 0.929 . S
C533 C525 1.378 . S
C533 C528 1.350 . S
C534 H521 0.929 . S
C534 C526 1.433 . S
C534 N536 1.384 . S
N535 C531 1.427 . S
N535 C532 1.384 . S
N536 C528 1.427 . S
N536 C534 1.384 . S
H537 C543 0.930 . S
H538 C547 0.930 . S
H539 C552 0.929 . S
H540 C550 0.929 . S
H541 C545 0.929 . S
H542 C551 0.929 . S
C543 H537 0.930 . S
C543 C544 1.367 . S
C543 C551 1.378 . S
C544 C543 1.367 . S
C544 C552 1.433 . S
C545 H541 0.929 . S
C545 C547 1.378 . S
C545 C549 1.350 . S
C546 C549 1.463 . S
C546 C551 1.350 . S
C546 N554 1.427 . S
C547 H538 0.930 . S
C547 C545 1.378 . S
C547 C548 1.367 . S
C548 C547 1.367 . S
C548 C550 1.433 . S
C549 C545 1.350 . S
C549 C546 1.463 . S
C549 N553 1.427 . S
C550 H540 0.929 . S
C550 C548 1.433 . S
C550 N553 1.384 . S
C551 H542 0.929 . S
C551 C543 1.378 . S
C551 C546 1.350 . S
C552 H539 0.929 . S
C552 C544 1.433 . S
C552 N554 1.384 . S
N553 C549 1.427 . S
N553 C550 1.384 . S
N554 C546 1.427 . S
N554 C552 1.384 . S
H555 C561 0.930 . S
H556 C565 0.930 . S
H557 C570 0.929 . S
H558 C568 0.929 . S
H559 C563 0.929 . S
H560 C569 0.929 . S
C561 H555 0.930 . S
C561 C562 1.367 . S
C561 C569 1.378 . S
C562 C561 1.367 . S
C562 C570 1.433 . S
C563 H559 0.929 . S
C563 C565 1.378 . S
C563 C567 1.350 . S
C564 C567 1.463 . S
C564 C569 1.350 . S
C564 N572 1.427 . S
C565 H556 0.930 . S
C565 C563 1.378 . S
C565 C566 1.367 . S
C566 C565 1.367 . S
C566 C568 1.433 . S
C567 C563 1.350 . S
C567 C564 1.463 . S
C567 N571 1.427 . S
C568 H558 0.929 . S
C568 C566 1.433 . S
C568 N571 1.384 . S
C569 H560 0.929 . S
C569 C561 1.378 . S
C569 C564 1.350 . S
C570 H557 0.929 . S
C570 C562 1.433 . S
C570 N572 1.384 . S
N571 C567 1.427 . S
N571 C568 1.384 . S
N572 C564 1.427 . S
N572 C570 1.384 . S
H573 C579 0.930 . S
H574 C583 0.930 . S
H575 C588 0.929 . S
H576 C586 0.929 . S
H577 C581 0.929 . S
H578 C587 0.929 . S
C579 H573 0.930 . S
C579 C580 1.367 . S
C579 C587 1.378 . S
C580 C579 1.367 . S
C580 C588 1.433 . S
C581 H577 0.929 . S
C581 C583 1.378 . S
C581 C585 1.350 . S
C582 C585 1.463 . S
C582 C587 1.350 . S
C582 N590 1.427 . S
C583 H574 0.930 . S
C583 C581 1.378 . S
C583 C584 1.367 . S
C584 C583 1.367 . S
C584 C586 1.433 . S
C585 C581 1.350 . S
C585 C582 1.463 . S
C585 N589 1.427 . S
C586 H576 0.929 . S
C586 C584 1.433 . S
C586 N589 1.384 . S
C587 H578 0.929 . S
C587 C579 1.378 . S
C587 C582 1.350 . S
C588 H575 0.929 . S
C588 C580 1.433 . S
C588 N590 1.384 . S
N589 C585 1.427 . S
N589 C586 1.384 . S
N590 C582 1.427 . S
N590 C588 1.384 . S
H591 C597 0.930 . S
H592 C601 0.930 . S
H593 C606 0.929 . S
H594 C604 0.929 . S
H595 C599 0.929 . S
H596 C605 0.929 . S
C597 H591 0.930 . S
C597 C598 1.367 . S
C597 C605 1.378 . S
C598 C597 1.367 . S
C598 C606 1.433 . S
C599 H595 0.929 . S
C599 C601 1.378 . S
C599 C603 1.350 . S
C600 C603 1.463 . S
C600 C605 1.350 . S
C600 N608 1.427 . S
C601 H592 0.930 . S
C601 C599 1.378 . S
C601 C602 1.367 . S
C602 C601 1.367 . S
C602 C604 1.433 . S
C603 C599 1.350 . S
C603 C600 1.463 . S
C603 N607 1.427 . S
C604 H594 0.929 . S
C604 C602 1.433 . S
C604 N607 1.384 . S
C605 H596 0.929 . S
C605 C597 1.378 . S
C605 C600 1.350 . S
C606 H593 0.929 . S
C606 C598 1.433 . S
C606 N608 1.384 . S
N607 C603 1.427 . S
N607 C604 1.384 . S
N608 C600 1.427 . S
N608 C606 1.384 . S
H609 C615 0.930 . S
H610 C619 0.930 . S
H611 C624 0.929 . S
H612 C622 0.929 . S
H613 C617 0.929 . S
H614 C623 0.929 . S
C615 H609 0.930 . S
C615 C616 1.367 . S
C615 C623 1.378 . S
C616 C615 1.367 . S
C616 C624 1.433 . S
C617 H613 0.929 . S
C617 C619 1.378 . S
C617 C621 1.350 . S
C618 C621 1.463 . S
C618 C623 1.350 . S
C618 N626 1.427 . S
C619 H610 0.930 . S
C619 C617 1.378 . S
C619 C620 1.367 . S
C620 C619 1.367 . S
C620 C622 1.433 . S
C621 C617 1.350 . S
C621 C618 1.463 . S
C621 N625 1.427 . S
C622 H612 0.929 . S
C622 C620 1.433 . S
C622 N625 1.384 . S
C623 H614 0.929 . S
C623 C615 1.378 . S
C623 C618 1.350 . S
C624 H611 0.929 . S
C624 C616 1.433 . S
C624 N626 1.384 . S
N625 C621 1.427 . S
N625 C622 1.384 . S
N626 C618 1.427 . S
N626 C624 1.384 . S
H627 C633 0.930 . S
H628 C637 0.930 . S
H629 C642 0.929 . S
H630 C640 0.929 . S
H631 C635 0.929 . S
H632 C641 0.929 . S
C633 H627 0.930 . S
C633 C634 1.367 . S
C633 C641 1.378 . S
C634 C633 1.367 . S
C634 C642 1.433 . S
C635 H631 0.929 . S
C635 C637 1.378 . S
C635 C639 1.350 . S
C636 C639 1.463 . S
C636 C641 1.350 . S
C636 N644 1.427 . S
C637 H628 0.930 . S
C637 C635 1.378 . S
C637 C638 1.367 . S
C638 C637 1.367 . S
C638 C640 1.433 . S
C639 C635 1.350 . S
C639 C636 1.463 . S
C639 N643 1.427 . S
C640 H630 0.929 . S
C640 C638 1.433 . S
C640 N643 1.384 . S
C641 H632 0.929 . S
C641 C633 1.378 . S
C641 C636 1.350 . S
C642 H629 0.929 . S
C642 C634 1.433 . S
C642 N644 1.384 . S
N643 C639 1.427 . S
N643 C640 1.384 . S
N644 C636 1.427 . S
N644 C642 1.384 . S
H645 C651 0.930 . S
H646 C655 0.930 . S
H647 C660 0.929 . S
H648 C658 0.929 . S
H649 C653 0.929 . S
H650 C659 0.929 . S
C651 H645 0.930 . S
C651 C652 1.367 1_655 S
C651 C659 1.378 . S
C652 C651 1.367 1_455 S
C652 C660 1.433 . S
C653 H649 0.929 . S
C653 C655 1.378 . S
C653 C657 1.350 . S
C654 C657 1.463 . S
C654 C659 1.350 1_455 S
C654 N662 1.427 . S
C655 H646 0.930 . S
C655 C653 1.378 . S
C655 C656 1.367 . S
C656 C655 1.367 . S
C656 C658 1.433 1_455 S
C657 C653 1.350 . S
C657 C654 1.463 . S
C657 N661 1.427 1_455 S
C658 H648 0.929 . S
C658 C656 1.433 1_655 S
C658 N661 1.384 . S
C659 H650 0.929 . S
C659 C651 1.378 . S
C659 C654 1.350 1_655 S
C660 H647 0.929 . S
C660 C652 1.433 . S
C660 N662 1.384 . S
N661 C657 1.427 1_655 S
N661 C658 1.384 . S
N662 C654 1.427 . S
N662 C660 1.384 . S
H663 C669 0.930 . S
H664 C673 0.930 . S
H665 C678 0.929 . S
H666 C676 0.929 . S
H667 C671 0.929 . S
H668 C677 0.929 . S
C669 H663 0.930 . S
C669 C670 1.367 . S
C669 C677 1.378 . S
C670 C669 1.367 . S
C670 C678 1.433 1_545 S
C671 H667 0.929 . S
C671 C673 1.378 . S
C671 C675 1.350 1_565 S
C672 C675 1.463 . S
C672 C677 1.350 . S
C672 N680 1.427 1_545 S
C673 H664 0.930 . S
C673 C671 1.378 . S
C673 C674 1.367 1_565 S
C674 C673 1.367 1_545 S
C674 C676 1.433 . S
C675 C671 1.350 1_545 S
C675 C672 1.463 . S
C675 N679 1.427 . S
C676 H666 0.929 . S
C676 C674 1.433 . S
C676 N679 1.384 . S
C677 H668 0.929 . S
C677 C669 1.378 . S
C677 C672 1.350 . S
C678 H665 0.929 . S
C678 C670 1.433 1_565 S
C678 N680 1.384 . S
N679 C675 1.427 . S
N679 C676 1.384 . S
N680 C672 1.427 1_565 S
N680 C678 1.384 . S
H681 C687 0.930 . S
H682 C691 0.930 . S
H683 C696 0.929 . S
H684 C694 0.929 . S
H685 C689 0.929 . S
H686 C695 0.929 . S
C687 H681 0.930 . S
C687 C688 1.367 . S
C687 C695 1.378 . S
C688 C687 1.367 . S
C688 C696 1.433 . S
C689 H685 0.929 . S
C689 C691 1.378 . S
C689 C693 1.350 . S
C690 C693 1.463 . S
C690 C695 1.350 . S
C690 N698 1.427 . S
C691 H682 0.930 . S
C691 C689 1.378 . S
C691 C692 1.367 . S
C692 C691 1.367 . S
C692 C694 1.433 . S
C693 C689 1.350 . S
C693 C690 1.463 . S
C693 N697 1.427 . S
C694 H684 0.929 . S
C694 C692 1.433 . S
C694 N697 1.384 . S
C695 H686 0.929 . S
C695 C687 1.378 . S
C695 C690 1.350 . S
C696 H683 0.929 . S
C696 C688 1.433 . S
C696 N698 1.384 . S
N697 C693 1.427 . S
N697 C694 1.384 . S
N698 C690 1.427 . S
N698 C696 1.384 . S
H699 C705 0.930 . S
H700 C709 0.930 . S
H701 C714 0.929 . S
H702 C712 0.929 . S
H703 C707 0.929 . S
H704 C713 0.929 . S
C705 H699 0.930 . S
C705 C706 1.367 1_565 S
C705 C713 1.378 . S
C706 C705 1.367 1_545 S
C706 C714 1.433 . S
C707 H703 0.929 . S
C707 C709 1.378 . S
C707 C711 1.350 . S
C708 C711 1.463 . S
C708 C713 1.350 1_545 S
C708 N716 1.427 . S
C709 H700 0.930 . S
C709 C707 1.378 . S
C709 C710 1.367 . S
C710 C709 1.367 . S
C710 C712 1.433 1_545 S
C711 C707 1.350 . S
C711 C708 1.463 . S
C711 N715 1.427 1_545 S
C712 H702 0.929 . S
C712 C710 1.433 1_565 S
C712 N715 1.384 . S
C713 H704 0.929 . S
C713 C705 1.378 . S
C713 C708 1.350 1_565 S
C714 H701 0.929 . S
C714 C706 1.433 . S
C714 N716 1.384 . S
N715 C711 1.427 1_565 S
N715 C712 1.384 . S
N716 C708 1.427 . S
N716 C714 1.384 . S
H717 C723 0.930 . S
H718 C727 0.930 . S
H719 C732 0.929 . S
H720 C730 0.929 . S
H721 C725 0.929 . S
H722 C731 0.929 . S
C723 H717 0.930 . S
C723 C724 1.367 . S
C723 C731 1.378 . S
C724 C723 1.367 . S
C724 C732 1.433 . S
C725 H721 0.929 . S
C725 C727 1.378 . S
C725 C729 1.350 . S
C726 C729 1.463 . S
C726 C731 1.350 . S
C726 N734 1.427 . S
C727 H718 0.930 . S
C727 C725 1.378 . S
C727 C728 1.367 . S
C728 C727 1.367 . S
C728 C730 1.433 . S
C729 C725 1.350 . S
C729 C726 1.463 . S
C729 N733 1.427 . S
C730 H720 0.929 . S
C730 C728 1.433 . S
C730 N733 1.384 . S
C731 H722 0.929 . S
C731 C723 1.378 . S
C731 C726 1.350 . S
C732 H719 0.929 . S
C732 C724 1.433 . S
C732 N734 1.384 . S
N733 C729 1.427 . S
N733 C730 1.384 . S
N734 C726 1.427 . S
N734 C732 1.384 . S
H735 C741 0.925 1_655 S
H736 C745 0.930 . S
H737 C750 0.929 . S
H738 C748 0.929 . S
H739 C743 0.929 . S
H740 C749 0.928 . S
C741 H735 0.925 1_455 S
C741 C742 1.372 . S
C741 C749 1.378 1_455 S
C742 C741 1.372 . S
C742 C750 1.433 . S
C743 H739 0.929 . S
C743 C745 1.378 . S
C743 C747 1.350 . S
C744 C747 1.463 . S
C744 C749 1.350 1_455 S
C744 N752 1.427 . S
C745 H736 0.930 . S
C745 C743 1.378 . S
C745 C746 1.367 . S
C746 C745 1.367 . S
C746 C748 1.433 1_455 S
C747 C743 1.350 . S
C747 C744 1.463 . S
C747 N751 1.427 1_455 S
C748 H738 0.929 . S
C748 C746 1.433 1_655 S
C748 N751 1.384 . S
C749 H740 0.928 . S
C749 C741 1.378 1_655 S
C749 C744 1.350 1_655 S
C750 H737 0.929 . S
C750 C742 1.433 . S
C750 N752 1.384 . S
N751 C747 1.427 1_655 S
N751 C748 1.384 . S
N752 C744 1.427 . S
N752 C750 1.384 . S
C436 C20 1.164 . S
C440 C400 1.197 . S
C454 C41 1.237 . S
C458 C250 1.184 . S
C472 C64 1.266 . S
C476 C310 1.221 . S
C490 C19 1.212 . S
C494 C370 1.216 . S
C512 C280 1.223 . S
C508 C44 1.224 . S
C530 C340 1.213 . S
C526 C67 1.215 . S
C544 C43 1.175 . S
C548 C130 1.169 . S
C562 C66 1.164 . S
C566 C220 1.195 . S
C580 C21 1.225 . S
C584 C100 1.227 . S
C602 C160 1.240 . S
C598 C42 1.211 . S
C620 C190 1.221 . S
C616 C65 1.227 . S
C634 C18 1.239 . S
C638 C70 1.185 . S
C656 C209 1.443 1_554 S
C652 C17 1.461 . S
C670 C39 1.456 . S
C674 C89 1.430 . S
C688 C62 1.474 . S
C692 C149 1.453 . S
C710 C329 1.415 . S
C706 C40 1.441 . S
C728 C389 1.436 1_556 S
C724 C63 1.461 . S
C742 C16 1.455 . S
C746 C269 1.437 . S
