# Generated by pormake.
# Topology pyr, (3,6)-cn, num edge types: 1
# Building blocks:
#     Node 0, Type 0, BuildingBlock: BETDIP_clean_linker_0, # of connection points: 3
#     Node 1, Type 0, BuildingBlock: BETDIP_clean_linker_0, # of connection points: 3
#     Node 2, Type 0, BuildingBlock: BETDIP_clean_linker_0, # of connection points: 3
#     Node 3, Type 0, BuildingBlock: BETDIP_clean_linker_0, # of connection points: 3
#     Node 4, Type 0, BuildingBlock: BETDIP_clean_linker_0, # of connection points: 3
#     Node 5, Type 0, BuildingBlock: BETDIP_clean_linker_0, # of connection points: 3
#     Node 6, Type 0, BuildingBlock: BETDIP_clean_linker_0, # of connection points: 3
#     Node 7, Type 0, BuildingBlock: BETDIP_clean_linker_0, # of connection points: 3
#     Node 8, Type 1, BuildingBlock: INOVEN_clean_sbu_0, # of connection points: 6
#     Node 9, Type 1, BuildingBlock: INOVEN_clean_sbu_0, # of connection points: 6
#     Node 10, Type 1, BuildingBlock: INOVEN_clean_sbu_0, # of connection points: 6
#     Node 11, Type 1, BuildingBlock: INOVEN_clean_sbu_0, # of connection points: 6
#     Edge 12, Type (0, 1), BuildingBlock: XUDNAN_clean_linker_2, # of connection points: 2
#     Edge 13, Type (0, 1), BuildingBlock: XUDNAN_clean_linker_2, # of connection points: 2
#     Edge 14, Type (0, 1), BuildingBlock: XUDNAN_clean_linker_2, # of connection points: 2
#     Edge 15, Type (0, 1), BuildingBlock: XUDNAN_clean_linker_2, # of connection points: 2
#     Edge 16, Type (0, 1), BuildingBlock: XUDNAN_clean_linker_2, # of connection points: 2
#     Edge 17, Type (0, 1), BuildingBlock: XUDNAN_clean_linker_2, # of connection points: 2
#     Edge 18, Type (0, 1), BuildingBlock: XUDNAN_clean_linker_2, # of connection points: 2
#     Edge 19, Type (0, 1), BuildingBlock: XUDNAN_clean_linker_2, # of connection points: 2
#     Edge 20, Type (0, 1), BuildingBlock: XUDNAN_clean_linker_2, # of connection points: 2
#     Edge 21, Type (0, 1), BuildingBlock: XUDNAN_clean_linker_2, # of connection points: 2
#     Edge 22, Type (0, 1), BuildingBlock: XUDNAN_clean_linker_2, # of connection points: 2
#     Edge 23, Type (0, 1), BuildingBlock: XUDNAN_clean_linker_2, # of connection points: 2
#     Edge 24, Type (0, 1), BuildingBlock: XUDNAN_clean_linker_2, # of connection points: 2
#     Edge 25, Type (0, 1), BuildingBlock: XUDNAN_clean_linker_2, # of connection points: 2
#     Edge 26, Type (0, 1), BuildingBlock: XUDNAN_clean_linker_2, # of connection points: 2
#     Edge 27, Type (0, 1), BuildingBlock: XUDNAN_clean_linker_2, # of connection points: 2
#     Edge 28, Type (0, 1), BuildingBlock: XUDNAN_clean_linker_2, # of connection points: 2
#     Edge 29, Type (0, 1), BuildingBlock: XUDNAN_clean_linker_2, # of connection points: 2
#     Edge 30, Type (0, 1), BuildingBlock: XUDNAN_clean_linker_2, # of connection points: 2
#     Edge 31, Type (0, 1), BuildingBlock: XUDNAN_clean_linker_2, # of connection points: 2
#     Edge 32, Type (0, 1), BuildingBlock: XUDNAN_clean_linker_2, # of connection points: 2
#     Edge 33, Type (0, 1), BuildingBlock: XUDNAN_clean_linker_2, # of connection points: 2
#     Edge 34, Type (0, 1), BuildingBlock: XUDNAN_clean_linker_2, # of connection points: 2
#     Edge 35, Type (0, 1), BuildingBlock: XUDNAN_clean_linker_2, # of connection points: 2
# Relax obj value: 0.126
# Max RMSD: 0.169
# Mean RMSD: 0.138
data_MOF--net-pyr--node1-INOVEN_clean_sbu_0--node2-BETDIP_clean_linker_0--edge1-XUDNAN_clean_linker_2
_symmetry_space_group_name_H-M    P1
_symmetry_Int_Tables_number       1
_symmetry_cell_setting            triclinic
loop_
_symmetry_equiv_pos_as_xyz
'x, y, z'
_cell_length_a     37.727858
_cell_length_b     40.020485
_cell_length_c     38.090196
_cell_angle_alpha  93.759858
_cell_angle_beta   85.953682
_cell_angle_gamma 106.45689
loop_
_atom_site_label
_atom_site_type_symbol
_atom_site_fract_x
_atom_site_fract_y
_atom_site_fract_z
_atom_type_partial_charge
H0 H 0.34601 0.33384 0.2242 0.0
H1 H 0.39304 0.299 0.12738 0.0
H2 H 0.38586 0.24335 0.22152 0.0
H3 H 0.37338 0.38907 0.19618 0.0
C4 C 0.35774 0.37861 0.17308 0.0
C5 C 0.36061 0.31689 0.21011 0.0
C6 C 0.36561 0.28877 0.22732 0.0
C7 C 0.3713 0.32132 0.17419 0.0
C8 C 0.38697 0.29709 0.15553 0.0
C9 C 0.39345 0.26963 0.17294 0.0
C10 C 0.38339 0.26606 0.2089 0.0
N11 N 0.36226 0.34738 0.15581 0.0
H12 H 0.17349 0.84037 0.69774 0.0
H13 H 0.22634 0.80244 0.60626 0.0
H14 H 0.28273 0.82782 0.70217 0.0
H15 H 0.18375 0.81313 0.57596 0.0
C16 C 0.17077 0.82961 0.59297 0.0
C17 C 0.19688 0.83253 0.68552 0.0
C18 C 0.22774 0.83441 0.705 0.0
C19 C 0.19666 0.82229 0.64964 0.0
C20 C 0.2267 0.81175 0.63353 0.0
C21 C 0.25742 0.81286 0.65266 0.0
C22 C 0.25796 0.82481 0.6881 0.0
N23 N 0.16748 0.82592 0.62996 0.0
H24 H 0.7045 0.41011 0.83907 0.0
H25 H 0.61326 0.31698 0.84221 0.0
H26 H 0.7013 0.33096 0.91287 0.0
H27 H 0.68035 0.40162 0.7721 0.0
C28 C 0.65179 0.39922 0.78097 0.0
C29 C 0.69123 0.38513 0.85013 0.0
C30 C 0.70797 0.37357 0.87814 0.0
C31 C 0.65679 0.36522 0.83685 0.0
C32 C 0.63957 0.33234 0.85182 0.0
C33 C 0.65538 0.31897 0.87896 0.0
C34 C 0.68935 0.34035 0.89187 0.0
N35 N 0.63701 0.37858 0.81162 0.0
H36 H 0.81865 0.64017 0.35041 0.0
H37 H 0.91421 0.72751 0.33626 0.0
H38 H 0.82827 0.73399 0.41556 0.0
H39 H 0.92841 0.69657 0.28746 0.0
C40 C 0.9091 0.6707 0.28606 0.0
C41 C 0.8339 0.66661 0.35814 0.0
C42 C 0.81905 0.68511 0.38521 0.0
C43 C 0.8676 0.68156 0.33994 0.0
C44 C 0.88787 0.71585 0.34981 0.0
C45 C 0.87424 0.73515 0.37755 0.0
C46 C 0.8398 0.71925 0.39526 0.0
N47 N 0.8789 0.66089 0.3116 0.0
H48 H 0.6486 0.77251 0.90868 0.0
H49 H 0.73226 0.78243 0.82465 0.0
H50 H 0.65817 0.84737 0.83037 0.0
H51 H 0.70237 0.71631 0.82866 0.0
C52 C 0.7113 0.71965 0.85552 0.0
C53 C 0.66179 0.78448 0.88463 0.0
C54 C 0.65038 0.81137 0.8713 0.0
C55 C 0.68983 0.77261 0.86638 0.0
C56 C 0.70851 0.78982 0.83653 0.0
C57 C 0.69813 0.81762 0.82359 0.0
C58 C 0.66769 0.82687 0.84036 0.0
N59 N 0.70046 0.74448 0.87904 0.0
H60 H 0.81934 0.21653 0.36772 0.0
H61 H 0.82409 0.26876 0.47053 0.0
H62 H 0.73236 0.26106 0.40712 0.0
H63 H 0.86885 0.24635 0.47863 0.0
C64 C 0.8768 0.23326 0.45483 0.0
C65 C 0.80721 0.23044 0.3884 0.0
C66 C 0.77356 0.23747 0.38367 0.0
C67 C 0.82554 0.24115 0.41964 0.0
C68 C 0.81023 0.25962 0.44642 0.0
C69 C 0.77645 0.26656 0.44209 0.0
C70 C 0.75831 0.25541 0.41069 0.0
N71 N 0.85866 0.23184 0.42313 0.0
H72 H 0.31884 0.65348 0.21971 0.0
H73 H 0.41729 0.74133 0.2255 0.0
H74 H 0.33428 0.73888 0.15206 0.0
H75 H 0.41559 0.71524 0.28842 0.0
C76 C 0.40523 0.68739 0.28256 0.0
C77 C 0.33525 0.67866 0.2109 0.0
C78 C 0.32153 0.69435 0.18439 0.0
C79 C 0.36927 0.69528 0.22717 0.0
C80 C 0.39066 0.72877 0.21485 0.0
C81 C 0.37831 0.74483 0.18701 0.0
C82 C 0.34377 0.72707 0.17303 0.0
N83 N 0.38121 0.67574 0.25319 0.0
H84 H 0.1275 0.32554 0.72322 0.0
H85 H 0.21768 0.4187 0.71969 0.0
H86 H 0.20705 0.3412 0.63426 0.0
H87 H 0.20904 0.41398 0.77887 0.0
C88 C 0.17926 0.40962 0.78227 0.0
C89 C 0.15206 0.34119 0.70943 0.0
C90 C 0.16517 0.32861 0.67684 0.0
C91 C 0.17088 0.37352 0.7252 0.0
C92 C 0.2032 0.3938 0.70771 0.0
C93 C 0.21679 0.38267 0.67481 0.0
C94 C 0.19759 0.34978 0.65984 0.0
N95 N 0.1564 0.38574 0.75795 0.0
Gd96 Gd 0.0586 0.05052 0.48263 0.0
Gd97 Gd 0.02224 1.01629 0.55136 0.0
C98 C 0.06998 0.09604 0.55499 0.0
C99 C 0.07899 0.07965 0.4235 0.0
C100 C 0.11274 0.10581 0.41057 0.0
C101 C 0.14689 0.09801 0.40602 0.0
C102 C 0.1112 0.13938 0.40363 0.0
C103 C 0.17736 0.15693 0.38796 0.0
C104 C 0.14318 0.16473 0.39257 0.0
C105 C 0.17878 0.12324 0.39477 0.0
C106 C 0.10448 0.0298 0.52275 0.0
C107 C 1.00315 0.97076 0.4777 0.0
C108 C 1.00062 0.97749 0.60484 0.0
C109 C 0.96407 0.96029 0.62069 0.0
C110 C 0.93295 0.96986 0.61183 0.0
C111 C 0.96018 0.93486 0.64533 0.0
C112 C 0.89463 0.93067 0.65435 0.0
C113 C 0.92559 0.92002 0.66202 0.0
C114 C 0.89849 0.95527 0.62867 0.0
C115 C 0.98457 0.05463 0.52246 0.0
O116 O 0.06373 0.09658 0.52136 0.0
O117 O 0.06351 0.06615 0.57074 0.0
O118 O 0.08244 0.04885 0.42956 0.0
O119 O 0.05819 0.09102 0.44777 0.0
O120 O 0.11561 0.05571 0.50221 0.0
O121 O 0.07118 1.01476 0.51802 0.0
O122 O 0.99681 0.97218 0.51238 0.0
O123 O 0.02501 0.9977 0.46082 0.0
O124 O 1.01021 1.01154 0.60745 0.0
O125 O 1.00829 0.96532 0.5735 0.0
O126 O 0.98296 0.05035 0.55601 0.0
O127 O 1.00228 0.03566 0.50647 0.0
H128 H 0.14913 0.07239 0.4111 0.0
H129 H 0.08525 0.1461 0.40701 0.0
H130 H 0.14116 0.19049 0.38781 0.0
H131 H 0.20442 0.11607 0.39076 0.0
H132 H 0.9355 0.98919 0.59247 0.0
H133 H 0.98399 0.92711 0.65222 0.0
H134 H 0.92337 0.90131 0.68195 0.0
H135 H 0.87497 0.96364 0.62208 0.0
Gd136 Gd 0.5428 0.03676 0.0537 0.0
Gd137 Gd 0.48397 0.02847 1.01343 0.0
C138 C 0.48035 0.06956 0.08341 0.0
C139 C 0.60647 0.05505 0.08211 0.0
C140 C 0.62272 0.07699 0.11292 0.0
C141 C 0.61703 0.06405 0.14692 0.0
C142 C 0.64435 0.11148 0.10833 0.0
C143 C 0.65291 0.1202 0.17121 0.0
C144 C 0.6591 0.13291 0.13717 0.0
C145 C 0.63203 0.08547 0.1758 0.0
C146 C 0.48668 0.97972 0.07712 0.0
C147 C 0.53904 0.98405 0.98628 0.0
C148 C 0.42556 1.01481 0.97729 0.0
C149 C 0.39697 0.98794 0.95881 0.0
C150 C 0.35971 0.98585 0.96768 0.0
C151 C 0.4059 0.96739 0.93011 0.0
C152 C 0.34078 0.94603 0.91717 0.0
C153 C 0.37798 0.94654 0.90948 0.0
C154 C 0.33186 0.96505 0.94713 0.0
C155 C 0.53532 0.09376 1.00304 0.0
O156 O 0.51657 0.07736 0.07924 0.0
O157 O 0.46105 0.04198 0.06603 0.0
O158 O 0.58134 1.02575 0.08803 0.0
O159 O 0.59817 0.07145 0.05683 0.0
O160 O 0.50597 1.00481 0.09724 0.0
O161 O 0.49606 0.98763 0.04518 0.0
O162 O 0.50662 0.98902 0.98229 0.0
O163 O 0.55987 1.00126 1.01159 0.0
O164 O 0.45928 1.02359 0.96308 0.0
O165 O 0.42426 1.01468 1.01164 0.0
O166 O 0.50013 0.0879 1.00946 0.0
O167 O 0.54161 0.06417 1.00402 0.0
H168 H 0.60078 0.0375 0.15132 0.0
H169 H 0.64973 0.12204 0.08239 0.0
H170 H 0.67565 0.15937 0.13278 0.0
H171 H 0.62675 0.07506 0.2018 0.0
H172 H 0.35223 1.00154 0.98969 0.0
H173 H 0.43446 0.96855 0.9227 0.0
H174 H 0.38576 0.93239 0.88639 0.0
H175 H 0.30343 0.96481 0.95397 0.0
Gd176 Gd 0.5198 0.50782 0.51302 0.0
Gd177 Gd 0.51855 0.56976 0.55685 0.0
C178 C 0.54664 0.5123 0.59512 0.0
C179 C 0.54406 0.46024 0.47884 0.0
C180 C 0.56952 0.44113 0.48868 0.0
C181 C 0.5679 0.40817 0.47307 0.0
C182 C 0.59548 0.45568 0.51409 0.0
C183 C 0.61857 0.4047 0.50782 0.0
C184 C 0.61931 0.43744 0.52399 0.0
C185 C 0.59244 0.39022 0.48228 0.0
C186 C 0.45328 0.50087 0.54735 0.0
C187 C 0.4881 0.56378 0.47531 0.0
C188 C 0.5018 0.62051 0.59319 0.0
C189 C 0.49038 0.65176 0.58784 0.0
C190 C 0.49593 0.67827 0.6144 0.0
C191 C 0.47039 0.65374 0.55868 0.0
C192 C 0.45658 0.70561 0.58571 0.0
C193 C 0.4536 0.68058 0.5576 0.0
C194 C 0.47924 0.70509 0.61332 0.0
C195 C 0.58377 0.57585 0.51912 0.0
O196 O 0.54886 0.49898 0.56238 0.0
O197 O 0.53178 0.53872 0.60049 0.0
O198 O 0.51202 0.45338 0.49646 0.0
O199 O 0.5589 0.49362 0.47498 0.0
O200 O 0.45776 0.48793 0.5157 0.0
O201 O 0.48442 0.5151 0.56027 0.0
O202 O 0.49197 0.58105 0.50672 0.0
O203 O 0.4981 0.53434 0.47082 0.0
O204 O 0.53583 0.62111 0.58334 0.0
O205 O 0.47779 0.59075 0.58538 0.0
O206 O 0.5815 0.58685 0.55178 0.0
O207 O 0.55164 0.56261 0.5086 0.0
H208 H 0.54814 0.39662 0.45331 0.0
H209 H 0.59786 0.48144 0.52595 0.0
H210 H 0.63867 0.44931 0.54397 0.0
H211 H 0.59157 0.36548 0.46851 0.0
H212 H 0.51149 0.67721 0.63695 0.0
H213 H 0.46595 0.63351 0.53782 0.0
H214 H 0.43617 0.68025 0.53609 0.0
H215 H 0.48239 0.72439 0.63506 0.0
Gd216 Gd 0.02063 0.50061 0.03658 0.0
Gd217 Gd 0.01922 0.56697 1.01141 0.0
C218 C 0.08671 0.57297 0.05987 0.0
C219 C 0.0419 0.44699 0.05094 0.0
C220 C 0.07313 0.44207 0.06912 0.0
C221 C 0.09561 0.46968 0.08899 0.0
C222 C 0.08172 0.41014 0.06532 0.0
C223 C 0.13586 0.4339 0.10033 0.0
C224 C 0.11262 0.40596 0.08099 0.0
C225 C 0.12681 0.46582 0.10404 0.0
C226 C 0.98043 0.53371 0.0806 0.0
C227 C 0.94941 0.49775 0.99271 0.0
C228 C 1.00035 0.62082 0.99426 0.0
C229 C 0.96885 0.62677 0.97693 0.0
C230 C 0.97105 0.6312 0.94047 0.0
C231 C 0.93637 0.62837 0.9967 0.0
C232 C 0.90865 0.63774 0.94375 0.0
C233 C 0.9066 0.63374 0.98027 0.0
C234 C 0.94123 0.63649 0.92405 0.0
C235 C 0.06107 0.53406 0.96925 0.0
O236 O 0.07647 0.5382 0.05599 0.0
O237 O 0.06607 0.59049 0.04699 0.0
O238 O 0.01739 0.45824 0.07052 0.0
O239 O 0.05078 0.46273 0.02126 0.0
O240 O 0.97077 0.50036 0.07296 0.0
O241 O 1.01127 0.54787 0.0651 0.0
O242 O 0.96232 0.53218 0.99654 0.0
O243 O 0.96912 0.47806 1.0038 0.0
O244 O 0.02297 0.60711 0.9746 0.0
O245 O 0.9932 0.60803 0.02554 0.0
O246 O 0.07106 0.56709 0.97824 0.0
O247 O 0.02929 0.51974 0.98294 0.0
H248 H 0.08931 0.49441 0.09272 0.0
H249 H 0.06463 0.38846 0.05012 0.0
H250 H 0.11808 0.38077 0.07804 0.0
H251 H 0.14411 0.48819 0.11808 0.0
H252 H 0.99584 0.6306 0.92456 0.0
H253 H 0.93382 0.62534 0.02489 0.0
H254 H 0.88179 0.63434 0.99613 0.0
H255 H 0.9439 0.64008 0.89595 0.0
H256 H 0.29329 0.28276 0.24439 0.0
H257 H 0.39212 0.26914 0.28571 0.0
H258 H 0.35478 0.24132 0.33761 0.0
H259 H 0.24295 0.29517 0.3314 0.0
H260 H 0.19931 0.27031 0.31456 0.0
H261 H 0.2349 0.29604 0.28542 0.0
H262 H 0.23169 0.24109 0.2444 0.0
H263 H 0.19655 0.21517 0.27345 0.0
H264 H 0.23849 0.20285 0.26222 0.0
H265 H 0.30551 0.20744 0.37976 0.0
H266 H 0.2488 0.16935 0.40792 0.0
H267 H 0.1824 0.20299 0.33652 0.0
C268 C 0.30735 0.27544 0.26519 0.0
C269 C 0.34565 0.27874 0.26157 0.0
C270 C 0.36286 0.26725 0.2884 0.0
C271 C 0.34189 0.25155 0.31793 0.0
C272 C 0.30384 0.24757 0.32008 0.0
C273 C 0.28679 0.2594 0.29445 0.0
C274 C 0.24509 0.24772 0.30008 0.0
C275 C 0.22966 0.27919 0.30837 0.0
C276 C 0.22693 0.22538 0.26816 0.0
C277 C 0.24119 0.22619 0.332 0.0
C278 C 0.27533 0.22702 0.34366 0.0
C279 C 0.27864 0.207 0.37117 0.0
C280 C 0.24628 0.18518 0.38675 0.0
C281 C 0.21109 0.18312 0.37441 0.0
C282 C 0.20871 0.20451 0.34714 0.0
H283 H 0.26052 0.81464 0.75923 0.0
H284 H 0.20269 0.88889 0.73393 0.0
H285 H 0.21653 0.91948 0.79165 0.0
H286 H 0.24099 0.8169 0.85732 0.0
H287 H 0.28705 0.81522 0.86494 0.0
H288 H 0.26472 0.79394 0.82589 0.0
H289 H 0.32048 0.82885 0.78719 0.0
H290 H 0.3428 0.85038 0.82594 0.0
H291 H 0.33443 0.87583 0.79173 0.0
H292 H 0.24525 0.94773 0.84677 0.0
H293 H 0.28766 0.97223 0.89415 0.0
H294 H 0.33034 0.88196 0.88218 0.0
C295 C 0.25008 0.83693 0.76604 0.0
C296 C 0.23035 0.84919 0.74192 0.0
C297 C 0.21713 0.8784 0.75207 0.0
C298 C 0.22501 0.8961 0.78484 0.0
C299 C 0.2461 0.88429 0.80719 0.0
C300 C 0.25835 0.85526 0.79827 0.0
C301 C 0.2849 0.85081 0.82444 0.0
C302 C 0.26841 0.81722 0.84433 0.0
C303 C 0.32288 0.85153 0.80623 0.0
C304 C 0.28709 0.88284 0.84852 0.0
C305 C 0.26375 0.90128 0.83866 0.0
C306 C 0.263 0.93313 0.85525 0.0
C307 C 0.28715 0.94679 0.88223 0.0
C308 C 0.31208 0.92883 0.89206 0.0
C309 C 0.31146 0.89615 0.87535 0.0
H310 H 0.66348 0.41378 0.70901 0.0
H311 H 0.58823 0.42087 0.79859 0.0
H312 H 0.55499 0.4501 0.76204 0.0
H313 H 0.66825 0.49527 0.67074 0.0
H314 H 0.66797 0.47857 0.62561 0.0
H315 H 0.68613 0.45861 0.65858 0.0
H316 H 0.64091 0.39886 0.64205 0.0
H317 H 0.6228 0.41871 0.60894 0.0
H318 H 0.592 0.39454 0.64263 0.0
H319 H 0.532 0.48368 0.71521 0.0
H320 H 0.51718 0.51018 0.66334 0.0
H321 H 0.60228 0.47676 0.60038 0.0
C322 C 0.63977 0.42118 0.72099 0.0
C323 C 0.6289 0.41459 0.75745 0.0
C324 C 0.59748 0.42499 0.77125 0.0
C325 C 0.5784 0.44195 0.75043 0.0
C326 C 0.59 0.4482 0.71492 0.0
C327 C 0.61962 0.43738 0.70008 0.0
C328 C 0.62562 0.44609 0.66084 0.0
C329 C 0.6643 0.47112 0.65352 0.0
C330 C 0.62 0.41255 0.63721 0.0
C331 C 0.5953 0.46401 0.65589 0.0
C332 C 0.57542 0.46534 0.68768 0.0
C333 C 0.5473 0.48212 0.69032 0.0
C334 C 0.53906 0.49743 0.66036 0.0
C335 C 0.55793 0.49588 0.62684 0.0
C336 C 0.5866 0.47848 0.62502 0.0
H337 H 0.96449 0.67939 0.23313 0.0
H338 H 0.86381 0.60483 0.27156 0.0
H339 H 0.87057 0.56336 0.22262 0.0
H340 H 0.95011 0.65972 0.13974 0.0
H341 H 0.99822 0.66419 0.12759 0.0
H342 H 0.9856 0.6887 0.16543 0.0
H343 H 0.02361 0.66283 0.20464 0.0
H344 H 0.03642 0.63836 0.16689 0.0
H345 H 1.01422 0.61614 0.20566 0.0
H346 H 0.88801 0.52932 0.16989 0.0
H347 H 0.916 0.50449 0.11772 0.0
H348 H 1.00587 0.60004 0.11214 0.0
C349 C 0.94388 0.65433 0.23116 0.0
C350 C 0.91359 0.64553 0.25636 0.0
C351 C 0.88728 0.6124 0.25283 0.0
C352 C 0.89084 0.58857 0.22497 0.0
C353 C 0.92089 0.59802 0.20062 0.0
C354 C 0.94708 0.63005 0.2034 0.0
C355 C 0.97701 0.63326 0.17378 0.0
C356 C 0.97777 0.66325 0.15024 0.0
C357 C 1.01507 0.63792 0.18864 0.0
C358 C 0.9636 0.59803 0.1541 0.0
C359 C 0.93108 0.57822 0.17007 0.0
C360 C 0.91345 0.54463 0.15717 0.0
C361 C 0.92957 0.53072 0.12746 0.0
C362 C 0.9631 0.55021 0.11075 0.0
C363 C 0.98012 0.58451 0.12419 0.0
H364 H 0.45884 0.25165 0.17107 0.0
H365 H 0.34846 0.22071 0.13214 0.0
H366 H 0.35843 0.16516 0.10766 0.0
H367 H 0.50202 0.21307 0.09382 0.0
H368 H 0.53328 0.20022 0.12026 0.0
H369 H 0.51791 0.23808 0.13364 0.0
H370 H 0.49454 0.21164 0.19416 0.0
H371 H 0.50909 0.17336 0.18064 0.0
H372 H 0.46171 0.16904 0.19573 0.0
H373 H 0.37711 0.11139 0.09365 0.0
H374 H 0.40779 0.06559 0.07879 0.0
H375 H 0.50932 0.13203 0.12131 0.0
C376 C 0.4373 0.23343 0.15655 0.0
C377 C 0.40303 0.24031 0.15295 0.0
C378 C 0.37504 0.2159 0.13448 0.0
C379 C 0.38034 0.18425 0.12087 0.0
C380 C 0.41402 0.17774 0.12554 0.0
C381 C 0.4425 0.20192 0.14197 0.0
C382 C 0.4762 0.1883 0.14253 0.0
C383 C 0.50931 0.21129 0.12129 0.0
C384 C 0.48595 0.18542 0.18053 0.0
C385 C 0.46186 0.1525 0.12439 0.0
C386 C 0.42569 0.14694 0.11549 0.0
C387 C 0.40563 0.11559 0.0999 0.0
C388 C 0.42337 0.08958 0.09182 0.0
C389 C 0.46117 0.09519 0.09863 0.0
C390 C 0.48047 0.12695 0.11573 0.0
H391 H 0.12562 0.86934 0.6179 0.0
H392 H 0.21143 0.86374 0.53774 0.0
H393 H 0.21115 0.92115 0.51718 0.0
H394 H 0.07395 0.90361 0.56328 0.0
H395 H 0.05946 0.93025 0.59823 0.0
H396 H 0.07005 0.89103 0.6083 0.0
H397 H 0.11747 0.92736 0.6523 0.0
H398 H 0.10754 0.96679 0.64128 0.0
H399 H 0.15442 0.96373 0.63694 0.0
H400 H 0.19991 0.9781 0.50435 0.0
H401 H 0.17062 1.02414 0.49288 0.0
H402 H 0.08995 0.99028 0.57927 0.0
C403 C 0.14454 0.88043 0.59622 0.0
C404 C 0.1688 0.86258 0.57947 0.0
C405 C 0.19266 0.87728 0.55076 0.0
C406 C 0.19299 0.90995 0.53925 0.0
C407 C 0.169 0.92722 0.55661 0.0
C408 C 0.14469 0.91261 0.58402 0.0
C409 C 0.11884 0.93448 0.59564 0.0
C410 C 0.07819 0.9136 0.59105 0.0
C411 C 0.12496 0.94894 0.63381 0.0
C412 C 0.13177 0.96322 0.56991 0.0
C413 C 0.16146 0.95922 0.5483 0.0
C414 C 0.1769 0.98172 0.52131 0.0
C415 C 0.16037 1.00795 0.51517 0.0
C416 C 0.12842 1.01068 0.53551 0.0
C417 C 0.1148 0.98889 0.56385 0.0
H418 H 0.7669 0.35571 0.90896 0.0
H419 H 0.73151 0.44569 0.88538 0.0
H420 H 0.78749 0.48437 0.91066 0.0
H421 H 0.80605 0.39182 0.99317 0.0
H422 H 0.84471 0.37353 0.98747 0.0
H423 H 0.80209 0.35193 0.96686 0.0
H424 H 0.83769 0.35393 0.90623 0.0
H425 H 0.88042 0.37553 0.92665 0.0
H426 H 0.8661 0.39519 0.89091 0.0
H427 H 0.84744 0.51483 0.93933 0.0
H428 H 0.90618 0.53459 0.96828 0.0
H429 H 0.90686 0.42695 0.9761 0.0
C430 C 0.77065 0.38353 0.90912 0.0
C431 C 0.74378 0.39695 0.89413 0.0
C432 C 0.75106 0.43389 0.89531 0.0
C433 C 0.78304 0.45642 0.91013 0.0
C434 C 0.80861 0.44241 0.9243 0.0
C435 C 0.80293 0.40678 0.92398 0.0
C436 C 0.83529 0.39897 0.94125 0.0
C437 C 0.82119 0.37779 0.97414 0.0
C438 C 0.85611 0.37975 0.91468 0.0
C439 C 0.85986 0.43569 0.95134 0.0
C440 C 0.84356 0.46016 0.94116 0.0
C441 C 0.86026 0.49573 0.94732 0.0
C442 C 0.89413 0.50677 0.96405 0.0
C443 C 0.91231 0.48282 0.97507 0.0
C444 C 0.89439 0.44641 0.96838 0.0
H445 H 0.79203 0.68268 0.45566 0.0
H446 H 0.75868 0.65071 0.34901 0.0
H447 H 0.69672 0.61875 0.37207 0.0
H448 H 0.74181 0.60288 0.49568 0.0
H449 H 0.72775 0.62344 0.53569 0.0
H450 H 0.76992 0.64485 0.51136 0.0
H451 H 0.74673 0.69941 0.50742 0.0
H452 H 0.70465 0.67829 0.53204 0.0
H453 H 0.7025 0.69472 0.48952 0.0
H454 H 0.6393 0.58807 0.40562 0.0
H455 H 0.58733 0.56433 0.4481 0.0
H456 H 0.65471 0.61636 0.53424 0.0
C457 C 0.77151 0.66929 0.43722 0.0
C458 C 0.78066 0.66887 0.4004 0.0
C459 C 0.75285 0.65091 0.37726 0.0
C460 C 0.7174 0.6327 0.39011 0.0
C461 C 0.7096 0.63274 0.42635 0.0
C462 C 0.73555 0.65085 0.44969 0.0
C463 C 0.71931 0.64645 0.48747 0.0
C464 C 0.741 0.62833 0.5088 0.0
C465 C 0.71823 0.68183 0.50515 0.0
C466 C 0.68041 0.623 0.48152 0.0
C467 C 0.67569 0.61538 0.44597 0.0
C468 C 0.64257 0.59401 0.43354 0.0
C469 C 0.61319 0.58051 0.45794 0.0
C470 C 0.61677 0.58842 0.49454 0.0
C471 C 0.65108 0.60978 0.50645 0.0
H472 H 0.3113 0.36109 0.11746 0.0
H473 H 0.33441 0.4276 0.21252 0.0
H474 H 0.28044 0.44908 0.20429 0.0
H475 H 0.2816 0.42279 0.06803 0.0
H476 H 0.24616 0.3892 0.04665 0.0
H477 H 0.2871 0.37963 0.05963 0.0
H478 H 0.24613 0.32864 0.09563 0.0
H479 H 0.20508 0.33826 0.08303 0.0
H480 H 0.21297 0.33705 0.12899 0.0
H481 H 0.22204 0.46043 0.18806 0.0
H482 H 0.16555 0.46466 0.16252 0.0
H483 H 0.18235 0.39395 0.07537 0.0
C484 C 0.30514 0.38038 0.13634 0.0
C485 C 0.32692 0.39272 0.16571 0.0
C486 C 0.31805 0.41795 0.18983 0.0
C487 C 0.28743 0.43021 0.18543 0.0
C488 C 0.26616 0.41723 0.15653 0.0
C489 C 0.27481 0.39322 0.13212 0.0
C490 C 0.24736 0.38371 0.10335 0.0
C491 C 0.26672 0.39449 0.06728 0.0
C492 C 0.22666 0.34459 0.10273 0.0
C493 C 0.22175 0.4058 0.11567 0.0
C494 C 0.23304 0.42476 0.14649 0.0
C495 C 0.21324 0.44615 0.1636 0.0
C496 C 0.18122 0.44856 0.14864 0.0
C497 C 0.16938 0.43005 0.11651 0.0
C498 C 0.19013 0.4083 0.10003 0.0
H499 H 0.64024 0.2953 0.94905 0.0
H500 H 0.62837 0.25763 0.84002 0.0
H501 H 0.60024 0.19766 0.85939 0.0
H502 H 0.65991 0.21921 0.98276 0.0
H503 H 0.6328 0.21969 0.0236 0.0
H504 H 0.65344 0.25972 1.00162 0.0
H505 H 0.58928 0.27078 1.00088 0.0
H506 H 0.56851 0.23089 0.02302 0.0
H507 H 0.55165 0.23775 0.98174 0.0
H508 H 0.57442 0.13938 0.89101 0.0
H509 H 0.5475 0.0912 0.93114 0.0
H510 H 0.56976 0.16485 0.02082 0.0
C511 C 0.63184 0.27446 0.92916 0.0
C512 C 0.63711 0.28208 0.89251 0.0
C513 C 0.62491 0.25339 0.86799 0.0
C514 C 0.60891 0.21884 0.87888 0.0
C515 C 0.60417 0.2123 0.91486 0.0
C516 C 0.61476 0.23949 0.93974 0.0
C517 C 0.60477 0.22532 0.97685 0.0
C518 C 0.63982 0.23136 0.99743 0.0
C519 C 0.5769 0.24219 0.9968 0.0
C520 C 0.5871 0.18612 0.96902 0.0
C521 C 0.58767 0.17917 0.93298 0.0
C522 C 0.57385 0.14488 0.91921 0.0
C523 C 0.5587 0.11735 0.94237 0.0
C524 C 0.55656 0.12344 0.97949 0.0
C525 C 0.57111 0.15874 0.99273 0.0
H526 H 0.8846 0.77003 0.44352 0.0
H527 H 0.91081 0.78548 0.33186 0.0
H528 H 0.94564 0.84645 0.34545 0.0
H529 H 0.8721 0.85587 0.46597 0.0
H530 H 0.89284 0.86041 0.50786 0.0
H531 H 0.86979 0.81769 0.48966 0.0
H532 H 0.92922 0.79844 0.49419 0.0
H533 H 0.95243 0.8411 0.5124 0.0
H534 H 0.97221 0.82343 0.47358 0.0
H535 H 0.97813 0.90599 0.37071 0.0
H536 H 1.00621 0.95968 0.40587 0.0
H537 H 0.95905 0.90727 0.50172 0.0
C538 C 0.89745 0.78627 0.42188 0.0
C539 C 0.89505 0.77246 0.3865 0.0
C540 C 0.91267 0.79485 0.35917 0.0
C541 C 0.93237 0.82976 0.36662 0.0
C542 C 0.93437 0.84238 0.40162 0.0
C543 C 0.9174 0.82139 0.42887 0.0
C544 C 0.92422 0.84163 0.46421 0.0
C545 C 0.88755 0.84404 0.48303 0.0
C546 C 0.9458 0.82516 0.48746 0.0
C547 C 0.94765 0.87718 0.45251 0.0
C548 C 0.95308 0.87694 0.41625 0.0
C549 C 0.97399 0.90646 0.39912 0.0
C550 C 0.98989 0.93697 0.41944 0.0
C551 C 0.98498 0.93809 0.45673 0.0
C552 C 0.96335 0.90758 0.47333 0.0
H553 H 0.29711 0.77532 0.68159 0.0
H554 H 0.28949 0.82518 0.58566 0.0
H555 H 0.342 0.80557 0.55814 0.0
H556 H 0.39724 0.7976 0.67893 0.0
H557 H 0.39733 0.75682 0.69634 0.0
H558 H 0.35956 0.7753 0.70822 0.0
H559 H 0.31289 0.71807 0.68604 0.0
H560 H 0.35045 0.6994 0.67424 0.0
H561 H 0.3188 0.70125 0.6416 0.0
H562 H 0.394 0.77774 0.54055 0.0
H563 H 0.44083 0.74461 0.53499 0.0
H564 H 0.41467 0.71626 0.6437 0.0
C565 C 0.30677 0.78266 0.65498 0.0
C566 C 0.2892 0.8018 0.63582 0.0
C567 C 0.30224 0.81013 0.60073 0.0
C568 C 0.33223 0.79938 0.58498 0.0
C569 C 0.34896 0.78062 0.60479 0.0
C570 C 0.3367 0.77249 0.63908 0.0
C571 C 0.35869 0.75152 0.65468 0.0
C572 C 0.37944 0.77152 0.68642 0.0
C573 C 0.33372 0.71543 0.66471 0.0
C574 C 0.38508 0.74873 0.6237 0.0
C575 C 0.37919 0.76561 0.59509 0.0
C576 C 0.39917 0.76481 0.56294 0.0
C577 C 0.42559 0.74596 0.55998 0.0
C578 C 0.43178 0.72849 0.58911 0.0
C579 C 0.41139 0.73026 0.62131 0.0
H580 H 0.73978 0.79684 0.76773 0.0
H581 H 0.71021 0.88789 0.81529 0.0
H582 H 0.75039 0.92412 0.77101 0.0
H583 H 0.83386 0.84027 0.75788 0.0
H584 H 0.84222 0.81754 0.71709 0.0
H585 H 0.80535 0.79672 0.74776 0.0
H586 H 0.75842 0.78671 0.69895 0.0
H587 H 0.79523 0.80753 0.66805 0.0
H588 H 0.75494 0.82331 0.6756 0.0
H589 H 0.79766 0.95215 0.72593 0.0
H590 H 0.85307 0.97076 0.6858 0.0
H591 H 0.85745 0.86354 0.67101 0.0
C592 C 0.74137 0.8243 0.76886 0.0
C593 C 0.72077 0.83896 0.79491 0.0
C594 C 0.72413 0.87525 0.79502 0.0
C595 C 0.74728 0.89636 0.77002 0.0
C596 C 0.76753 0.88113 0.7453 0.0
C597 C 0.76518 0.84604 0.74467 0.0
C598 C 0.79346 0.83718 0.71819 0.0
C599 C 0.82031 0.82205 0.73632 0.0
C600 C 0.77436 0.8122 0.68843 0.0
C601 C 0.81272 0.87302 0.70491 0.0
C602 C 0.79664 0.89779 0.72029 0.0
C603 C 0.81029 0.93298 0.71336 0.0
C604 C 0.84165 0.94328 0.69048 0.0
C605 C 0.8593 0.91854 0.67526 0.0
C606 C 0.84436 0.88292 0.68228 0.0
H607 H 0.76012 0.17348 0.34869 0.0
H608 H 0.74321 0.27593 0.34435 0.0
H609 H 0.70967 0.25679 0.28987 0.0
H610 H 0.77533 0.15874 0.2553 0.0
H611 H 0.7511 0.11292 0.25552 0.0
H612 H 0.77375 0.13479 0.29413 0.0
H613 H 0.71201 0.11441 0.33144 0.0
H614 H 0.68911 0.09262 0.29291 0.0
H615 H 0.67146 0.12465 0.31825 0.0
H616 H 0.6787 0.22681 0.23579 0.0
H617 H 0.65174 0.18768 0.18573 0.0
H618 H 0.68881 0.10477 0.22543 0.0
C619 C 0.74962 0.19194 0.33607 0.0
C620 C 0.75423 0.22617 0.35062 0.0
C621 C 0.73966 0.24948 0.33372 0.0
C622 C 0.72071 0.2389 0.30276 0.0
C623 C 0.71649 0.20492 0.28919 0.0
C624 C 0.73047 0.18176 0.30529 0.0
C625 C 0.72187 0.14663 0.28544 0.0
C626 C 0.75764 0.13776 0.27178 0.0
C627 C 0.69714 0.11789 0.30838 0.0
C628 C 0.70108 0.15373 0.25553 0.0
C629 C 0.69831 0.18751 0.25818 0.0
C630 C 0.6807 0.2003 0.2334 0.0
C631 C 0.66564 0.17797 0.20502 0.0
C632 C 0.66825 0.14327 0.20174 0.0
C633 C 0.68605 0.13105 0.22749 0.0
H634 H 0.43631 0.70251 0.34909 0.0
H635 H 0.39495 0.61529 0.27533 0.0
H636 H 0.41098 0.57599 0.3154 0.0
H637 H 0.51302 0.67509 0.37847 0.0
H638 H 0.50754 0.68926 0.42392 0.0
H639 H 0.49318 0.71069 0.3896 0.0
H640 H 0.4276 0.69817 0.4198 0.0
H641 H 0.4418 0.67671 0.45421 0.0
H642 H 0.4024 0.65397 0.42941 0.0
H643 H 0.43457 0.54534 0.36406 0.0
H644 H 0.45868 0.52659 0.41567 0.0
H645 H 0.48229 0.63194 0.46189 0.0
C646 C 0.43046 0.67508 0.34128 0.0
C647 C 0.41409 0.66254 0.30819 0.0
C648 C 0.40715 0.6262 0.2999 0.0
C649 C 0.41638 0.60348 0.32279 0.0
C650 C 0.43244 0.61669 0.35489 0.0
C651 C 0.43906 0.65175 0.36433 0.0
C652 C 0.45596 0.65914 0.40076 0.0
C653 C 0.49473 0.6851 0.39802 0.0
C654 C 0.43042 0.67282 0.42764 0.0
C655 C 0.45816 0.623 0.41034 0.0
C656 C 0.44464 0.59897 0.38323 0.0
C657 C 0.44482 0.56418 0.38529 0.0
C658 C 0.45882 0.55364 0.41513 0.0
C659 C 0.47257 0.57716 0.44396 0.0
C660 C 0.47185 0.61264 0.44108 0.0
H661 H 0.10653 0.4032 0.81145 0.0
H662 H 0.22141 0.46306 0.81985 0.0
H663 H 0.20343 0.49944 0.86847 0.0
H664 H 0.06665 0.47543 0.83116 0.0
H665 H 0.02744 0.45093 0.85744 0.0
H666 H 0.04863 0.42902 0.82279 0.0
H667 H 0.05823 0.38687 0.86756 0.0
H668 H 0.03714 0.40873 0.90236 0.0
H669 H 0.08291 0.4044 0.90653 0.0
H670 H 0.17432 0.53111 0.91424 0.0
H671 H 0.13511 0.55544 0.95706 0.0
H672 H 0.03802 0.47486 0.92403 0.0
C673 C 0.12776 0.424 0.82357 0.0
C674 C 0.16554 0.43034 0.8116 0.0
C675 C 0.19242 0.45767 0.82841 0.0
C676 C 0.18248 0.47856 0.85613 0.0
C677 C 0.14536 0.4718 0.86741 0.0
C678 C 0.11827 0.44514 0.85199 0.0
C679 C 0.08045 0.44376 0.87008 0.0
C680 C 0.05424 0.45017 0.8438 0.0
C681 C 0.06369 0.40886 0.88767 0.0
C682 C 0.0907 0.47395 0.8976 0.0
C683 C 0.12838 0.4897 0.89523 0.0
C684 C 0.14481 0.51884 0.91656 0.0
C685 C 0.12226 0.53253 0.94083 0.0
C686 C 0.08357 0.51703 0.94418 0.0
C687 C 0.0676 0.48702 0.92243 0.0
H688 H 0.66072 0.85349 0.93044 0.0
H689 H 0.58082 0.80624 0.85268 0.0
H690 H 0.54155 0.84378 0.87588 0.0
H691 H 0.5934 0.86921 1.00282 0.0
H692 H 0.62476 0.91048 1.01604 0.0
H693 H 0.6427 0.87559 0.99743 0.0
H694 H 0.68101 0.91678 0.95022 0.0
H695 H 0.66249 0.95149 0.96802 0.0
H696 H 0.65767 0.93739 0.92224 0.0
H697 H 0.51546 0.89122 0.90235 0.0
H698 H 0.50136 0.94235 0.93337 0.0
H699 H 0.59963 0.96016 0.99291 0.0
C700 C 0.63409 0.85003 0.91954 0.0
C701 C 0.62296 0.82644 0.89062 0.0
C702 C 0.589 0.8236 0.87555 0.0
C703 C 0.56678 0.84495 0.88838 0.0
C704 C 0.5792 0.86905 0.91609 0.0
C705 C 0.61182 0.87142 0.93183 0.0
C706 C 0.62057 0.90161 0.95896 0.0
C707 C 0.62033 0.88843 0.99601 0.0
C708 C 0.65763 0.92839 0.94926 0.0
C709 C 0.58824 0.91631 0.95547 0.0
C710 C 0.56461 0.89703 0.93076 0.0
C711 C 0.53351 0.90625 0.92208 0.0
C712 C 0.5259 0.93552 0.93969 0.0
C713 C 0.5494 0.95534 0.96557 0.0
C714 C 0.58114 0.94564 0.97324 0.0
H715 H 0.89907 0.21415 0.51491 0.0
H716 H 0.90709 0.19963 0.401 0.0
H717 H 0.93906 0.15455 0.40633 0.0
H718 H 0.98941 0.19778 0.53095 0.0
H719 H 0.97073 0.17512 0.57041 0.0
H720 H 0.95308 0.20969 0.55765 0.0
H721 H 0.88671 0.16752 0.55937 0.0
H722 H 0.90414 0.13274 0.57165 0.0
H723 H 0.87749 0.12712 0.53315 0.0
H724 H 0.96331 0.10693 0.42368 0.0
H725 H 0.98208 0.06152 0.45235 0.0
H726 H 0.95859 0.10655 0.55503 0.0
C727 C 0.90851 0.20209 0.49115 0.0
C728 C 0.90067 0.21024 0.45762 0.0
C729 C 0.91277 0.19366 0.42699 0.0
C730 C 0.93103 0.16809 0.42972 0.0
C731 C 0.93715 0.15969 0.46322 0.0
C732 C 0.92673 0.17644 0.49343 0.0
C733 C 0.93436 0.16075 0.52623 0.0
C734 C 0.96364 0.18743 0.54756 0.0
C735 C 0.89854 0.14617 0.54892 0.0
C736 C 0.94943 0.13182 0.50966 0.0
C737 C 0.95117 0.13195 0.4733 0.0
C738 C 0.96267 0.10687 0.45212 0.0
C739 C 0.97313 0.08118 0.46859 0.0
C740 C 0.97195 0.08087 0.50576 0.0
C741 C 0.95982 0.10639 0.52653 0.0
H742 H 0.28521 0.62468 0.15885 0.0
H743 H 0.27 0.72825 0.17451 0.0
H744 H 0.21076 0.70778 0.14612 0.0
H745 H 0.24534 0.60466 0.07308 0.0
H746 H 0.22181 0.55954 0.08043 0.0
H747 H 0.26313 0.58112 0.10309 0.0
H748 H 0.22781 0.56474 0.16294 0.0
H749 H 0.18658 0.54293 0.14032 0.0
H750 H 0.18556 0.57666 0.17379 0.0
H751 H 0.15409 0.67825 0.11422 0.0
H752 H 0.10219 0.64119 0.08225 0.0
H753 H 0.14818 0.55343 0.08513 0.0
C754 C 0.2692 0.64294 0.15668 0.0
C755 C 0.28333 0.67865 0.16909 0.0
C756 C 0.26093 0.70121 0.16513 0.0
C757 C 0.22681 0.68969 0.14899 0.0
C758 C 0.21421 0.65503 0.13651 0.0
C759 C 0.23441 0.63171 0.14022 0.0
C760 C 0.2137 0.59584 0.12372 0.0
C761 C 0.23742 0.58463 0.09327 0.0
C762 C 0.20277 0.56841 0.15187 0.0
C763 C 0.17915 0.60295 0.11001 0.0
C764 C 0.18049 0.63746 0.11796 0.0
C765 C 0.15282 0.65117 0.10799 0.0
C766 C 0.12313 0.62957 0.08948 0.0
C767 C 0.12013 0.59384 0.08048 0.0
C768 C 0.14893 0.58039 0.09134 0.0
H769 H 0.27189 0.36464 0.63083 0.0
H770 H 0.23836 0.45463 0.6752 0.0
H771 H 0.29533 0.4935 0.64948 0.0
H772 H 0.36917 0.39891 0.63992 0.0
H773 H 0.38239 0.38111 0.59797 0.0
H774 H 0.33926 0.35954 0.62069 0.0
H775 H 0.3037 0.36302 0.56597 0.0
H776 H 0.34676 0.38435 0.54297 0.0
H777 H 0.30964 0.40472 0.54747 0.0
H778 H 0.35796 0.52335 0.62182 0.0
H779 H 0.4179 0.54173 0.58768 0.0
H780 H 0.40872 0.43397 0.55529 0.0
C781 C 0.27614 0.39248 0.6349 0.0
C782 C 0.25051 0.40611 0.65625 0.0
C783 C 0.25777 0.44297 0.66046 0.0
C784 C 0.29009 0.46553 0.64557 0.0
C785 C 0.31496 0.45122 0.62556 0.0
C786 C 0.30807 0.41559 0.61951 0.0
C787 C 0.33891 0.40724 0.59574 0.0
C788 C 0.35859 0.3854 0.61472 0.0
C789 C 0.32385 0.38874 0.56097 0.0
C790 C 0.36423 0.4437 0.58973 0.0
C791 C 0.35007 0.46863 0.60762 0.0
C792 C 0.36913 0.50405 0.60743 0.0
C793 C 0.40334 0.5143 0.58818 0.0
C794 C 0.41795 0.48941 0.56886 0.0
C795 C 0.39801 0.45362 0.56962 0.0
H796 H 0.74911 0.72757 0.91647 0.0
H797 H 0.73226 0.66929 0.81601 0.0
H798 H 0.77876 0.63959 0.82888 0.0
H799 H 0.84596 0.7425 0.91408 0.0
H800 H 0.84829 0.738 0.96058 0.0
H801 H 0.81149 0.75252 0.94494 0.0
H802 H 0.76293 0.70222 0.97592 0.0
H803 H 0.79963 0.68762 0.99179 0.0
H804 H 0.76437 0.65788 0.96648 0.0
H805 H 0.82942 0.61888 0.85094 0.0
H806 H 0.88063 0.60799 0.8811 0.0
H807 H 0.86542 0.68057 0.96674 0.0
C808 C 0.75476 0.70812 0.89748 0.0
C809 C 0.73696 0.7004 0.86533 0.0
C810 C 0.74551 0.67529 0.84088 0.0
C811 C 0.77183 0.65832 0.84795 0.0
C812 C 0.78932 0.66682 0.87964 0.0
C813 C 0.7811 0.69102 0.90408 0.0
C814 C 0.80521 0.69657 0.93532 0.0
C815 C 0.82915 0.73465 0.93892 0.0
C816 C 0.78162 0.6854 0.96939 0.0
C817 C 0.82858 0.67209 0.92435 0.0
C818 C 0.81882 0.65506 0.89224 0.0
C819 C 0.8372 0.63193 0.87619 0.0
C820 C 0.86641 0.62611 0.89339 0.0
C821 C 0.87703 0.64342 0.92625 0.0
C822 C 0.85761 0.66655 0.94191 0.0
H823 H 0.403 0.81718 0.21073 0.0
H824 H 0.40352 0.74797 0.11844 0.0
H825 H 0.42971 0.79872 0.08193 0.0
H826 H 0.37825 0.88415 0.16763 0.0
H827 H 0.40803 0.92073 0.1912 0.0
H828 H 0.39096 0.87927 0.21135 0.0
H829 H 0.4579 0.87889 0.22107 0.0
H830 H 0.47514 0.92053 0.20127 0.0
H831 H 0.49129 0.88407 0.18413 0.0
H832 H 0.45165 0.85766 0.05304 0.0
H833 H 0.4735 0.91888 0.03594 0.0
H834 H 0.46362 0.95368 0.14549 0.0
C835 C 0.4096 0.81264 0.18304 0.0
C836 C 0.40134 0.77759 0.16799 0.0
C837 C 0.40972 0.77382 0.13119 0.0
C838 C 0.42451 0.8028 0.10996 0.0
C839 C 0.43151 0.83662 0.12522 0.0
C840 C 0.42496 0.84183 0.16109 0.0
C841 C 0.43514 0.88139 0.17031 0.0
C842 C 0.40107 0.89201 0.18607 0.0
C843 C 0.46674 0.89184 0.19572 0.0
C844 C 0.44797 0.89734 0.1342 0.0
C845 C 0.44525 0.87078 0.10859 0.0
C846 C 0.45415 0.87849 0.07312 0.0
C847 C 0.46652 0.91374 0.06351 0.0
C848 C 0.47071 0.94202 0.08891 0.0
C849 C 0.46106 0.9332 0.12501 0.0
H850 H 0.19314 0.2793 0.63765 0.0
H851 H 0.08971 0.29857 0.67784 0.0
H852 H 0.05534 0.24128 0.65277 0.0
H853 H 0.15817 0.23613 0.5549 0.0
H854 H 0.18501 0.20526 0.55381 0.0
H855 H 0.20187 0.24766 0.5755 0.0
H856 H 0.20736 0.21856 0.63282 0.0
H857 H 0.1903 0.17606 0.61137 0.0
H858 H 0.16734 0.18732 0.65163 0.0
H859 H 0.03144 0.18141 0.6235 0.0
H860 H 0.02018 0.12432 0.59047 0.0
H861 H 0.13802 0.14355 0.56672 0.0
C862 C 0.16325 0.27172 0.64099 0.0
C863 C 0.14444 0.29381 0.66037 0.0
C864 C 0.10519 0.28224 0.66407 0.0
C865 C 0.08524 0.24966 0.64962 0.0
C866 C 0.10463 0.22857 0.6311 0.0
C867 C 0.14275 0.23919 0.6265 0.0
C868 C 0.1567 0.21155 0.60497 0.0
C869 C 0.17661 0.22602 0.57023 0.0
C870 C 0.18192 0.19755 0.62649 0.0
C871 C 0.12049 0.18374 0.59833 0.0
C872 C 0.09081 0.19415 0.61378 0.0
C873 C 0.05452 0.17303 0.61141 0.0
C874 C 0.04835 0.14059 0.59272 0.0
C875 C 0.07818 0.12941 0.57647 0.0
C876 C 0.11475 0.15134 0.57925 0.0
H877 H 0.70525 0.25154 0.46877 0.0
H878 H 0.81176 0.32882 0.47428 0.0
H879 H 0.7821 0.36964 0.50743 0.0
H880 H 0.65914 0.30295 0.44599 0.0
H881 H 0.61603 0.28544 0.47075 0.0
H882 H 0.64593 0.25835 0.45892 0.0
H883 H 0.648 0.24571 0.52445 0.0
H884 H 0.61744 0.2725 0.53663 0.0
H885 H 0.66127 0.28146 0.55662 0.0
H886 H 0.74062 0.4064 0.52274 0.0
H887 H 0.69153 0.43528 0.5214 0.0
H888 H 0.6104 0.33435 0.50913 0.0
C889 C 0.72239 0.27656 0.47838 0.0
C890 C 0.76064 0.28718 0.46915 0.0
C891 C 0.78244 0.32011 0.48158 0.0
C892 C 0.76579 0.34342 0.50045 0.0
C893 C 0.7275 0.33304 0.50717 0.0
C894 C 0.70611 0.30002 0.49719 0.0
C895 C 0.66521 0.29718 0.50205 0.0
C896 C 0.64548 0.28532 0.46737 0.0
C897 C 0.64691 0.27277 0.53172 0.0
C898 C 0.66699 0.33463 0.51285 0.0
C899 C 0.70309 0.35465 0.51676 0.0
C900 C 0.71214 0.39084 0.52116 0.0
C901 C 0.68387 0.40707 0.52041 0.0
C902 C 0.64688 0.38712 0.51521 0.0
C903 C 0.63834 0.35037 0.513 0.0
loop_
_geom_bond_atom_site_label_1
_geom_bond_atom_site_label_2
_geom_bond_distance
_geom_bond_site_symmetry_2
_ccdc_geom_bond_type
H0 C5 0.930 . S
H1 C8 0.930 . S
H2 C10 0.930 . S
H3 C4 1.016 . S
C4 H3 1.016 . S
C4 N11 1.286 . S
C5 H0 0.930 . S
C5 C6 1.397 . S
C5 C7 1.361 . S
C6 C5 1.397 . S
C6 C10 1.390 . S
C7 C5 1.361 . S
C7 C8 1.393 . S
C7 N11 1.413 . S
C8 H1 0.930 . S
C8 C7 1.393 . S
C8 C9 1.399 . S
C9 C8 1.399 . S
C9 C10 1.381 . S
C10 H2 0.930 . S
C10 C6 1.390 . S
C10 C9 1.381 . S
N11 C4 1.286 . S
N11 C7 1.413 . S
H12 C17 0.930 . S
H13 C20 0.930 . S
H14 C22 0.930 . S
H15 C16 1.016 . S
C16 H15 1.016 . S
C16 N23 1.286 . S
C17 H12 0.930 . S
C17 C18 1.397 . S
C17 C19 1.361 . S
C18 C17 1.397 . S
C18 C22 1.390 . S
C19 C17 1.361 . S
C19 C20 1.393 . S
C19 N23 1.413 . S
C20 H13 0.930 . S
C20 C19 1.393 . S
C20 C21 1.399 . S
C21 C20 1.399 . S
C21 C22 1.381 . S
C22 H14 0.930 . S
C22 C18 1.390 . S
C22 C21 1.381 . S
N23 C16 1.286 . S
N23 C19 1.413 . S
H24 C29 0.930 . S
H25 C32 0.930 . S
H26 C34 0.930 . S
H27 C28 1.016 . S
C28 H27 1.016 . S
C28 N35 1.286 . S
C29 H24 0.930 . S
C29 C30 1.397 . S
C29 C31 1.361 . S
C30 C29 1.397 . S
C30 C34 1.390 . S
C31 C29 1.361 . S
C31 C32 1.393 . S
C31 N35 1.413 . S
C32 H25 0.930 . S
C32 C31 1.393 . S
C32 C33 1.399 . S
C33 C32 1.399 . S
C33 C34 1.381 . S
C34 H26 0.930 . S
C34 C30 1.390 . S
C34 C33 1.381 . S
N35 C28 1.286 . S
N35 C31 1.413 . S
H36 C41 0.930 . S
H37 C44 0.930 . S
H38 C46 0.930 . S
H39 C40 1.016 . S
C40 H39 1.016 . S
C40 N47 1.286 . S
C41 H36 0.930 . S
C41 C42 1.397 . S
C41 C43 1.361 . S
C42 C41 1.397 . S
C42 C46 1.390 . S
C43 C41 1.361 . S
C43 C44 1.393 . S
C43 N47 1.413 . S
C44 H37 0.930 . S
C44 C43 1.393 . S
C44 C45 1.399 . S
C45 C44 1.399 . S
C45 C46 1.381 . S
C46 H38 0.930 . S
C46 C42 1.390 . S
C46 C45 1.381 . S
N47 C40 1.286 . S
N47 C43 1.413 . S
H48 C53 0.930 . S
H49 C56 0.930 . S
H50 C58 0.930 . S
H51 C52 1.016 . S
C52 H51 1.016 . S
C52 N59 1.286 . S
C53 H48 0.930 . S
C53 C54 1.397 . S
C53 C55 1.361 . S
C54 C53 1.397 . S
C54 C58 1.390 . S
C55 C53 1.361 . S
C55 C56 1.393 . S
C55 N59 1.413 . S
C56 H49 0.930 . S
C56 C55 1.393 . S
C56 C57 1.399 . S
C57 C56 1.399 . S
C57 C58 1.381 . S
C58 H50 0.930 . S
C58 C54 1.390 . S
C58 C57 1.381 . S
N59 C52 1.286 . S
N59 C55 1.413 . S
H60 C65 0.930 . S
H61 C68 0.930 . S
H62 C70 0.930 . S
H63 C64 1.016 . S
C64 H63 1.016 . S
C64 N71 1.286 . S
C65 H60 0.930 . S
C65 C66 1.397 . S
C65 C67 1.361 . S
C66 C65 1.397 . S
C66 C70 1.390 . S
C67 C65 1.361 . S
C67 C68 1.393 . S
C67 N71 1.413 . S
C68 H61 0.930 . S
C68 C67 1.393 . S
C68 C69 1.399 . S
C69 C68 1.399 . S
C69 C70 1.381 . S
C70 H62 0.930 . S
C70 C66 1.390 . S
C70 C69 1.381 . S
N71 C64 1.286 . S
N71 C67 1.413 . S
H72 C77 0.930 . S
H73 C80 0.930 . S
H74 C82 0.930 . S
H75 C76 1.016 . S
C76 H75 1.016 . S
C76 N83 1.286 . S
C77 H72 0.930 . S
C77 C78 1.397 . S
C77 C79 1.361 . S
C78 C77 1.397 . S
C78 C82 1.390 . S
C79 C77 1.361 . S
C79 C80 1.393 . S
C79 N83 1.413 . S
C80 H73 0.930 . S
C80 C79 1.393 . S
C80 C81 1.399 . S
C81 C80 1.399 . S
C81 C82 1.381 . S
C82 H74 0.930 . S
C82 C78 1.390 . S
C82 C81 1.381 . S
N83 C76 1.286 . S
N83 C79 1.413 . S
H84 C89 0.930 . S
H85 C92 0.930 . S
H86 C94 0.930 . S
H87 C88 1.016 . S
C88 H87 1.016 . S
C88 N95 1.286 . S
C89 H84 0.930 . S
C89 C90 1.397 . S
C89 C91 1.361 . S
C90 C89 1.397 . S
C90 C94 1.390 . S
C91 C89 1.361 . S
C91 C92 1.393 . S
C91 N95 1.413 . S
C92 H85 0.930 . S
C92 C91 1.393 . S
C92 C93 1.399 . S
C93 C92 1.399 . S
C93 C94 1.381 . S
C94 H86 0.930 . S
C94 C90 1.390 . S
C94 C93 1.381 . S
N95 C88 1.286 . S
N95 C91 1.413 . S
Gd96 C99 2.818 . S
Gd96 O116 2.377 . S
Gd96 O118 2.448 . S
Gd96 O119 2.506 . S
Gd96 O120 2.435 1_545 S
Gd96 O121 2.717 1_545 S
Gd96 O123 2.395 1_445 S
Gd96 O127 2.327 1_455 S
Gd97 C108 2.817 . S
Gd97 O117 2.397 1_665 S
Gd97 O121 2.326 1_655 S
Gd97 O122 2.376 . S
Gd97 O124 2.448 . S
Gd97 O125 2.504 . S
Gd97 O126 2.437 1_565 S
Gd97 O127 2.718 1_565 S
C98 O116 1.240 . S
C98 O117 1.240 . S
C99 Gd96 2.818 . S
C99 C100 1.510 . S
C99 O118 1.249 . S
C99 O119 1.252 . S
C100 C99 1.510 . S
C100 C101 1.404 . S
C100 C102 1.352 . S
C101 C100 1.404 . S
C101 C105 1.389 . S
C101 H128 0.930 . S
C102 C100 1.352 . S
C102 C104 1.374 . S
C102 H129 0.931 . S
C103 C104 1.359 . S
C103 C105 1.364 . S
C104 C102 1.374 . S
C104 C103 1.359 . S
C104 H130 0.931 . S
C105 C101 1.389 . S
C105 C103 1.364 . S
C105 H131 0.931 . S
C106 O120 1.256 . S
C106 O121 1.257 . S
C107 O122 1.240 . S
C107 O123 1.240 . S
C108 Gd97 2.817 . S
C108 C109 1.510 . S
C108 O124 1.249 . S
C108 O125 1.252 . S
C109 C108 1.510 . S
C109 C110 1.404 . S
C109 C111 1.352 . S
C110 C109 1.404 . S
C110 C114 1.389 . S
C110 H132 0.930 . S
C111 C109 1.352 . S
C111 C113 1.374 . S
C111 H133 0.931 . S
C112 C113 1.359 . S
C112 C114 1.364 . S
C113 C111 1.374 . S
C113 C112 1.359 . S
C113 H134 0.931 . S
C114 C110 1.389 . S
C114 C112 1.364 . S
C114 H135 0.931 . S
C115 O126 1.256 . S
C115 O127 1.257 . S
O116 Gd96 2.377 . S
O116 C98 1.240 . S
O117 Gd97 2.397 1_445 S
O117 C98 1.240 . S
O118 Gd96 2.448 . S
O118 C99 1.249 . S
O119 Gd96 2.506 . S
O119 C99 1.252 . S
O120 Gd96 2.435 1_565 S
O120 C106 1.256 . S
O121 Gd96 2.717 1_565 S
O121 Gd97 2.326 1_455 S
O121 C106 1.257 . S
O122 Gd97 2.376 . S
O122 C107 1.240 . S
O123 Gd96 2.395 1_665 S
O123 C107 1.240 . S
O124 Gd97 2.448 . S
O124 C108 1.249 . S
O125 Gd97 2.504 . S
O125 C108 1.252 . S
O126 Gd97 2.437 1_545 S
O126 C115 1.256 . S
O127 Gd96 2.327 1_655 S
O127 Gd97 2.718 1_545 S
O127 C115 1.257 . S
H128 C101 0.930 . S
H129 C102 0.931 . S
H130 C104 0.931 . S
H131 C105 0.931 . S
H132 C110 0.930 . S
H133 C111 0.931 . S
H134 C113 0.931 . S
H135 C114 0.931 . S
Gd136 C139 2.818 . S
Gd136 O156 2.377 . S
Gd136 O158 2.448 . S
Gd136 O159 2.506 . S
Gd136 O160 2.435 1_545 S
Gd136 O161 2.717 1_545 S
Gd136 O163 2.395 1_544 S
Gd136 O167 2.327 . S
Gd137 C148 2.818 1_545 S
Gd137 O157 2.395 1_556 S
Gd137 O161 2.327 1_546 S
Gd137 O162 2.377 1_545 S
Gd137 O164 2.448 1_545 S
Gd137 O165 2.506 1_545 S
Gd137 O166 2.435 . S
Gd137 O167 2.717 1_556 S
C138 O156 1.240 . S
C138 O157 1.240 . S
C139 Gd136 2.818 . S
C139 C140 1.510 . S
C139 O158 1.249 . S
C139 O159 1.252 . S
C140 C139 1.510 . S
C140 C141 1.404 . S
C140 C142 1.352 . S
C141 C140 1.404 . S
C141 C145 1.389 . S
C141 H168 0.930 . S
C142 C140 1.352 . S
C142 C144 1.374 . S
C142 H169 0.931 . S
C143 C144 1.359 . S
C143 C145 1.364 . S
C144 C142 1.374 . S
C144 C143 1.359 . S
C144 H170 0.931 . S
C145 C141 1.389 . S
C145 C143 1.364 . S
C145 H171 0.931 . S
C146 O160 1.256 . S
C146 O161 1.257 . S
C147 O162 1.240 . S
C147 O163 1.240 . S
C148 Gd137 2.818 1_565 S
C148 C149 1.510 . S
C148 O164 1.249 . S
C148 O165 1.252 . S
C149 C148 1.510 . S
C149 C150 1.404 . S
C149 C151 1.352 . S
C150 C149 1.404 . S
C150 C154 1.389 . S
C150 H172 0.930 . S
C151 C149 1.352 . S
C151 C153 1.374 . S
C151 H173 0.931 . S
C152 C153 1.359 . S
C152 C154 1.364 . S
C153 C151 1.374 . S
C153 C152 1.359 . S
C153 H174 0.931 . S
C154 C150 1.389 . S
C154 C152 1.364 . S
C154 H175 0.931 . S
C155 O166 1.256 . S
C155 O167 1.257 1_556 S
O156 Gd136 2.377 . S
O156 C138 1.240 . S
O157 Gd137 2.395 1_554 S
O157 C138 1.240 . S
O158 Gd136 2.448 . S
O158 C139 1.249 . S
O159 Gd136 2.506 . S
O159 C139 1.252 . S
O160 Gd136 2.435 1_565 S
O160 C146 1.256 . S
O161 Gd136 2.717 1_565 S
O161 Gd137 2.327 1_564 S
O161 C146 1.257 . S
O162 Gd137 2.377 1_565 S
O162 C147 1.240 . S
O163 Gd136 2.395 1_566 S
O163 C147 1.240 . S
O164 Gd137 2.448 1_565 S
O164 C148 1.249 . S
O165 Gd137 2.506 1_565 S
O165 C148 1.252 . S
O166 Gd137 2.435 . S
O166 C155 1.256 . S
O167 Gd136 2.327 . S
O167 Gd137 2.717 1_554 S
O167 C155 1.257 1_554 S
H168 C141 0.930 . S
H169 C142 0.931 . S
H170 C144 0.931 . S
H171 C145 0.931 . S
H172 C150 0.930 . S
H173 C151 0.931 . S
H174 C153 0.931 . S
H175 C154 0.931 . S
Gd176 C179 2.818 . S
Gd176 O196 2.377 . S
Gd176 O198 2.448 . S
Gd176 O199 2.506 . S
Gd176 O200 2.435 . S
Gd176 O201 2.717 . S
Gd176 O203 2.395 . S
Gd176 O207 2.327 . S
Gd177 C188 2.818 . S
Gd177 O197 2.395 . S
Gd177 O201 2.327 . S
Gd177 O202 2.377 . S
Gd177 O204 2.448 . S
Gd177 O205 2.506 . S
Gd177 O206 2.435 . S
Gd177 O207 2.717 . S
C178 O196 1.240 . S
C178 O197 1.240 . S
C179 Gd176 2.818 . S
C179 C180 1.510 . S
C179 O198 1.249 . S
C179 O199 1.252 . S
C180 C179 1.510 . S
C180 C181 1.404 . S
C180 C182 1.352 . S
C181 C180 1.404 . S
C181 C185 1.389 . S
C181 H208 0.930 . S
C182 C180 1.352 . S
C182 C184 1.374 . S
C182 H209 0.931 . S
C183 C184 1.359 . S
C183 C185 1.364 . S
C184 C182 1.374 . S
C184 C183 1.359 . S
C184 H210 0.931 . S
C185 C181 1.389 . S
C185 C183 1.364 . S
C185 H211 0.931 . S
C186 O200 1.256 . S
C186 O201 1.257 . S
C187 O202 1.240 . S
C187 O203 1.240 . S
C188 Gd177 2.818 . S
C188 C189 1.510 . S
C188 O204 1.249 . S
C188 O205 1.252 . S
C189 C188 1.510 . S
C189 C190 1.404 . S
C189 C191 1.352 . S
C190 C189 1.404 . S
C190 C194 1.389 . S
C190 H212 0.930 . S
C191 C189 1.352 . S
C191 C193 1.374 . S
C191 H213 0.931 . S
C192 C193 1.359 . S
C192 C194 1.364 . S
C193 C191 1.374 . S
C193 C192 1.359 . S
C193 H214 0.931 . S
C194 C190 1.389 . S
C194 C192 1.364 . S
C194 H215 0.931 . S
C195 O206 1.256 . S
C195 O207 1.257 . S
O196 Gd176 2.377 . S
O196 C178 1.240 . S
O197 Gd177 2.395 . S
O197 C178 1.240 . S
O198 Gd176 2.448 . S
O198 C179 1.249 . S
O199 Gd176 2.506 . S
O199 C179 1.252 . S
O200 Gd176 2.435 . S
O200 C186 1.256 . S
O201 Gd176 2.717 . S
O201 Gd177 2.327 . S
O201 C186 1.257 . S
O202 Gd177 2.377 . S
O202 C187 1.240 . S
O203 Gd176 2.395 . S
O203 C187 1.240 . S
O204 Gd177 2.448 . S
O204 C188 1.249 . S
O205 Gd177 2.506 . S
O205 C188 1.252 . S
O206 Gd177 2.435 . S
O206 C195 1.256 . S
O207 Gd176 2.327 . S
O207 Gd177 2.717 . S
O207 C195 1.257 . S
H208 C181 0.930 . S
H209 C182 0.931 . S
H210 C184 0.931 . S
H211 C185 0.931 . S
H212 C190 0.930 . S
H213 C191 0.931 . S
H214 C193 0.931 . S
H215 C194 0.931 . S
Gd216 C219 2.818 . S
Gd216 O236 2.377 . S
Gd216 O238 2.448 . S
Gd216 O239 2.506 . S
Gd216 O240 2.435 1_455 S
Gd216 O241 2.717 1_455 S
Gd216 O243 2.395 1_455 S
Gd216 O247 2.327 1_554 S
Gd217 C228 2.818 1_455 S
Gd217 O237 2.395 1_556 S
Gd217 O241 2.327 1_456 S
Gd217 O242 2.377 1_455 S
Gd217 O244 2.448 1_455 S
Gd217 O245 2.506 1_455 S
Gd217 O246 2.435 . S
Gd217 O247 2.717 . S
C218 O236 1.240 . S
C218 O237 1.240 . S
C219 Gd216 2.818 . S
C219 C220 1.510 . S
C219 O238 1.249 . S
C219 O239 1.252 . S
C220 C219 1.510 . S
C220 C221 1.404 . S
C220 C222 1.352 . S
C221 C220 1.404 . S
C221 C225 1.389 . S
C221 H248 0.930 . S
C222 C220 1.352 . S
C222 C224 1.374 . S
C222 H249 0.931 . S
C223 C224 1.359 . S
C223 C225 1.364 . S
C224 C222 1.374 . S
C224 C223 1.359 . S
C224 H250 0.931 . S
C225 C221 1.389 . S
C225 C223 1.364 . S
C225 H251 0.931 . S
C226 O240 1.256 . S
C226 O241 1.257 . S
C227 O242 1.240 . S
C227 O243 1.240 1_556 S
C228 Gd217 2.818 1_655 S
C228 C229 1.510 . S
C228 O244 1.249 . S
C228 O245 1.252 . S
C229 C228 1.510 . S
C229 C230 1.404 . S
C229 C231 1.352 . S
C230 C229 1.404 . S
C230 C234 1.389 . S
C230 H252 0.930 . S
C231 C229 1.352 . S
C231 C233 1.374 . S
C231 H253 0.931 . S
C232 C233 1.359 . S
C232 C234 1.364 . S
C233 C231 1.374 . S
C233 C232 1.359 . S
C233 H254 0.931 . S
C234 C230 1.389 . S
C234 C232 1.364 . S
C234 H255 0.931 . S
C235 O246 1.256 . S
C235 O247 1.257 . S
O236 Gd216 2.377 . S
O236 C218 1.240 . S
O237 Gd217 2.395 1_554 S
O237 C218 1.240 . S
O238 Gd216 2.448 . S
O238 C219 1.249 . S
O239 Gd216 2.506 . S
O239 C219 1.252 . S
O240 Gd216 2.435 1_655 S
O240 C226 1.256 . S
O241 Gd216 2.717 1_655 S
O241 Gd217 2.327 1_654 S
O241 C226 1.257 . S
O242 Gd217 2.377 1_655 S
O242 C227 1.240 . S
O243 Gd216 2.395 1_655 S
O243 C227 1.240 1_554 S
O244 Gd217 2.448 1_655 S
O244 C228 1.249 . S
O245 Gd217 2.506 1_655 S
O245 C228 1.252 . S
O246 Gd217 2.435 . S
O246 C235 1.256 . S
O247 Gd216 2.327 1_556 S
O247 Gd217 2.717 . S
O247 C235 1.257 . S
H248 C221 0.930 . S
H249 C222 0.931 . S
H250 C224 0.931 . S
H251 C225 0.931 . S
H252 C230 0.930 . S
H253 C231 0.931 . S
H254 C233 0.931 . S
H255 C234 0.931 . S
H256 C268 0.930 . S
H257 C270 0.930 . S
H258 C271 0.930 . S
H259 C275 0.959 . S
H260 C275 0.959 . S
H261 C275 0.961 . S
H262 C276 0.960 . S
H263 C276 0.961 . S
H264 C276 0.959 . S
H265 C279 0.929 . S
H266 C280 0.931 . S
H267 C282 0.930 . S
C268 H256 0.930 . S
C268 C269 1.399 . S
C268 C273 1.399 . S
C269 C268 1.399 . S
C269 C270 1.376 . S
C270 H257 0.930 . S
C270 C269 1.376 . S
C270 C271 1.388 . S
C271 H258 0.930 . S
C271 C270 1.388 . S
C271 C272 1.390 . S
C272 C271 1.390 . S
C272 C273 1.394 . S
C272 C278 1.465 . S
C273 C268 1.399 . S
C273 C272 1.394 . S
C273 C274 1.516 . S
C274 C273 1.516 . S
C274 C275 1.502 . S
C274 C276 1.561 . S
C274 C277 1.526 . S
C275 H259 0.959 . S
C275 H260 0.959 . S
C275 H261 0.961 . S
C275 C274 1.502 . S
C276 H262 0.960 . S
C276 H263 0.961 . S
C276 H264 0.959 . S
C276 C274 1.561 . S
C277 C274 1.526 . S
C277 C278 1.396 . S
C277 C282 1.390 . S
C278 C272 1.465 . S
C278 C277 1.396 . S
C278 C279 1.399 . S
C279 H265 0.929 . S
C279 C278 1.399 . S
C279 C280 1.385 . S
C280 H266 0.931 . S
C280 C279 1.385 . S
C280 C281 1.389 . S
C281 C280 1.389 . S
C281 C282 1.387 . S
C282 H267 0.930 . S
C282 C277 1.390 . S
C282 C281 1.387 . S
H283 C295 0.930 . S
H284 C297 0.930 . S
H285 C298 0.930 . S
H286 C302 0.959 . S
H287 C302 0.959 . S
H288 C302 0.961 . S
H289 C303 0.960 . S
H290 C303 0.961 . S
H291 C303 0.959 . S
H292 C306 0.929 . S
H293 C307 0.931 . S
H294 C309 0.930 . S
C295 H283 0.930 . S
C295 C296 1.399 . S
C295 C300 1.399 . S
C296 C295 1.399 . S
C296 C297 1.376 . S
C297 H284 0.930 . S
C297 C296 1.376 . S
C297 C298 1.388 . S
C298 H285 0.930 . S
C298 C297 1.388 . S
C298 C299 1.390 . S
C299 C298 1.390 . S
C299 C300 1.394 . S
C299 C305 1.465 . S
C300 C295 1.399 . S
C300 C299 1.394 . S
C300 C301 1.516 . S
C301 C300 1.516 . S
C301 C302 1.502 . S
C301 C303 1.561 . S
C301 C304 1.526 . S
C302 H286 0.959 . S
C302 H287 0.959 . S
C302 H288 0.961 . S
C302 C301 1.502 . S
C303 H289 0.960 . S
C303 H290 0.961 . S
C303 H291 0.959 . S
C303 C301 1.561 . S
C304 C301 1.526 . S
C304 C305 1.396 . S
C304 C309 1.390 . S
C305 C299 1.465 . S
C305 C304 1.396 . S
C305 C306 1.399 . S
C306 H292 0.929 . S
C306 C305 1.399 . S
C306 C307 1.385 . S
C307 H293 0.931 . S
C307 C306 1.385 . S
C307 C308 1.389 . S
C308 C307 1.389 . S
C308 C309 1.387 . S
C309 H294 0.930 . S
C309 C304 1.390 . S
C309 C308 1.387 . S
H310 C322 0.930 . S
H311 C324 0.930 . S
H312 C325 0.930 . S
H313 C329 0.959 . S
H314 C329 0.959 . S
H315 C329 0.961 . S
H316 C330 0.960 . S
H317 C330 0.961 . S
H318 C330 0.959 . S
H319 C333 0.929 . S
H320 C334 0.931 . S
H321 C336 0.930 . S
C322 H310 0.930 . S
C322 C323 1.399 . S
C322 C327 1.399 . S
C323 C322 1.399 . S
C323 C324 1.376 . S
C324 H311 0.930 . S
C324 C323 1.376 . S
C324 C325 1.388 . S
C325 H312 0.930 . S
C325 C324 1.388 . S
C325 C326 1.390 . S
C326 C325 1.390 . S
C326 C327 1.394 . S
C326 C332 1.465 . S
C327 C322 1.399 . S
C327 C326 1.394 . S
C327 C328 1.516 . S
C328 C327 1.516 . S
C328 C329 1.502 . S
C328 C330 1.561 . S
C328 C331 1.526 . S
C329 H313 0.959 . S
C329 H314 0.959 . S
C329 H315 0.961 . S
C329 C328 1.502 . S
C330 H316 0.960 . S
C330 H317 0.961 . S
C330 H318 0.959 . S
C330 C328 1.561 . S
C331 C328 1.526 . S
C331 C332 1.396 . S
C331 C336 1.390 . S
C332 C326 1.465 . S
C332 C331 1.396 . S
C332 C333 1.399 . S
C333 H319 0.929 . S
C333 C332 1.399 . S
C333 C334 1.385 . S
C334 H320 0.931 . S
C334 C333 1.385 . S
C334 C335 1.389 . S
C335 C334 1.389 . S
C335 C336 1.387 . S
C336 H321 0.930 . S
C336 C331 1.390 . S
C336 C335 1.387 . S
H337 C349 0.930 . S
H338 C351 0.930 . S
H339 C352 0.930 . S
H340 C356 0.959 . S
H341 C356 0.959 . S
H342 C356 0.961 . S
H343 C357 0.960 . S
H344 C357 0.961 1_455 S
H345 C357 0.959 . S
H346 C360 0.929 . S
H347 C361 0.931 . S
H348 C363 0.930 . S
C349 H337 0.930 . S
C349 C350 1.399 . S
C349 C354 1.399 . S
C350 C349 1.399 . S
C350 C351 1.376 . S
C351 H338 0.930 . S
C351 C350 1.376 . S
C351 C352 1.388 . S
C352 H339 0.930 . S
C352 C351 1.388 . S
C352 C353 1.390 . S
C353 C352 1.390 . S
C353 C354 1.394 . S
C353 C359 1.465 . S
C354 C349 1.399 . S
C354 C353 1.394 . S
C354 C355 1.516 . S
C355 C354 1.516 . S
C355 C356 1.502 . S
C355 C357 1.561 . S
C355 C358 1.526 . S
C356 H340 0.959 . S
C356 H341 0.959 . S
C356 H342 0.961 . S
C356 C355 1.502 . S
C357 H343 0.960 . S
C357 H344 0.961 1_655 S
C357 H345 0.959 . S
C357 C355 1.561 . S
C358 C355 1.526 . S
C358 C359 1.396 . S
C358 C363 1.390 . S
C359 C353 1.465 . S
C359 C358 1.396 . S
C359 C360 1.399 . S
C360 H346 0.929 . S
C360 C359 1.399 . S
C360 C361 1.385 . S
C361 H347 0.931 . S
C361 C360 1.385 . S
C361 C362 1.389 . S
C362 C361 1.389 . S
C362 C363 1.387 . S
C363 H348 0.930 . S
C363 C358 1.390 . S
C363 C362 1.387 . S
H364 C376 0.930 . S
H365 C378 0.930 . S
H366 C379 0.930 . S
H367 C383 0.959 . S
H368 C383 0.959 . S
H369 C383 0.961 . S
H370 C384 0.960 . S
H371 C384 0.961 . S
H372 C384 0.959 . S
H373 C387 0.929 . S
H374 C388 0.931 . S
H375 C390 0.930 . S
C376 H364 0.930 . S
C376 C377 1.399 . S
C376 C381 1.399 . S
C377 C376 1.399 . S
C377 C378 1.376 . S
C378 H365 0.930 . S
C378 C377 1.376 . S
C378 C379 1.388 . S
C379 H366 0.930 . S
C379 C378 1.388 . S
C379 C380 1.390 . S
C380 C379 1.390 . S
C380 C381 1.394 . S
C380 C386 1.465 . S
C381 C376 1.399 . S
C381 C380 1.394 . S
C381 C382 1.516 . S
C382 C381 1.516 . S
C382 C383 1.502 . S
C382 C384 1.561 . S
C382 C385 1.526 . S
C383 H367 0.959 . S
C383 H368 0.959 . S
C383 H369 0.961 . S
C383 C382 1.502 . S
C384 H370 0.960 . S
C384 H371 0.961 . S
C384 H372 0.959 . S
C384 C382 1.561 . S
C385 C382 1.526 . S
C385 C386 1.396 . S
C385 C390 1.390 . S
C386 C380 1.465 . S
C386 C385 1.396 . S
C386 C387 1.399 . S
C387 H373 0.929 . S
C387 C386 1.399 . S
C387 C388 1.385 . S
C388 H374 0.931 . S
C388 C387 1.385 . S
C388 C389 1.389 . S
C389 C388 1.389 . S
C389 C390 1.387 . S
C390 H375 0.930 . S
C390 C385 1.390 . S
C390 C389 1.387 . S
H391 C403 0.930 . S
H392 C405 0.930 . S
H393 C406 0.930 . S
H394 C410 0.959 . S
H395 C410 0.959 . S
H396 C410 0.961 . S
H397 C411 0.960 . S
H398 C411 0.961 . S
H399 C411 0.959 . S
H400 C414 0.929 . S
H401 C415 0.931 . S
H402 C417 0.930 . S
C403 H391 0.930 . S
C403 C404 1.399 . S
C403 C408 1.399 . S
C404 C403 1.399 . S
C404 C405 1.376 . S
C405 H392 0.930 . S
C405 C404 1.376 . S
C405 C406 1.388 . S
C406 H393 0.930 . S
C406 C405 1.388 . S
C406 C407 1.390 . S
C407 C406 1.390 . S
C407 C408 1.394 . S
C407 C413 1.465 . S
C408 C403 1.399 . S
C408 C407 1.394 . S
C408 C409 1.516 . S
C409 C408 1.516 . S
C409 C410 1.502 . S
C409 C411 1.561 . S
C409 C412 1.526 . S
C410 H394 0.959 . S
C410 H395 0.959 . S
C410 H396 0.961 . S
C410 C409 1.502 . S
C411 H397 0.960 . S
C411 H398 0.961 . S
C411 H399 0.959 . S
C411 C409 1.561 . S
C412 C409 1.526 . S
C412 C413 1.396 . S
C412 C417 1.390 . S
C413 C407 1.465 . S
C413 C412 1.396 . S
C413 C414 1.399 . S
C414 H400 0.929 . S
C414 C413 1.399 . S
C414 C415 1.385 . S
C415 H401 0.931 . S
C415 C414 1.385 . S
C415 C416 1.389 . S
C416 C415 1.389 . S
C416 C417 1.387 . S
C417 H402 0.930 . S
C417 C412 1.390 . S
C417 C416 1.387 . S
H418 C430 0.930 . S
H419 C432 0.930 . S
H420 C433 0.930 . S
H421 C437 0.959 . S
H422 C437 0.976 . S
H423 C437 0.961 . S
H424 C438 0.960 . S
H425 C438 0.961 . S
H426 C438 0.959 . S
H427 C441 0.929 . S
H428 C442 0.931 . S
H429 C444 0.930 . S
C430 H418 0.930 . S
C430 C431 1.399 . S
C430 C435 1.399 . S
C431 C430 1.399 . S
C431 C432 1.376 . S
C432 H419 0.930 . S
C432 C431 1.376 . S
C432 C433 1.388 . S
C433 H420 0.930 . S
C433 C432 1.388 . S
C433 C434 1.390 . S
C434 C433 1.390 . S
C434 C435 1.394 . S
C434 C440 1.465 . S
C435 C430 1.399 . S
C435 C434 1.394 . S
C435 C436 1.516 . S
C436 C435 1.516 . S
C436 C437 1.502 . S
C436 C438 1.561 . S
C436 C439 1.526 . S
C437 H421 0.959 . S
C437 H422 0.976 . S
C437 H423 0.961 . S
C437 C436 1.502 . S
C438 H424 0.960 . S
C438 H425 0.961 . S
C438 H426 0.959 . S
C438 C436 1.561 . S
C439 C436 1.526 . S
C439 C440 1.396 . S
C439 C444 1.390 . S
C440 C434 1.465 . S
C440 C439 1.396 . S
C440 C441 1.399 . S
C441 H427 0.929 . S
C441 C440 1.399 . S
C441 C442 1.385 . S
C442 H428 0.931 . S
C442 C441 1.385 . S
C442 C443 1.389 . S
C443 C442 1.389 . S
C443 C444 1.387 . S
C444 H429 0.930 . S
C444 C439 1.390 . S
C444 C443 1.387 . S
H445 C457 0.930 . S
H446 C459 0.930 . S
H447 C460 0.930 . S
H448 C464 0.959 . S
H449 C464 0.959 . S
H450 C464 0.961 . S
H451 C465 0.960 . S
H452 C465 0.961 . S
H453 C465 0.959 . S
H454 C468 0.929 . S
H455 C469 0.931 . S
H456 C471 0.930 . S
C457 H445 0.930 . S
C457 C458 1.399 . S
C457 C462 1.399 . S
C458 C457 1.399 . S
C458 C459 1.376 . S
C459 H446 0.930 . S
C459 C458 1.376 . S
C459 C460 1.388 . S
C460 H447 0.930 . S
C460 C459 1.388 . S
C460 C461 1.390 . S
C461 C460 1.390 . S
C461 C462 1.394 . S
C461 C467 1.465 . S
C462 C457 1.399 . S
C462 C461 1.394 . S
C462 C463 1.516 . S
C463 C462 1.516 . S
C463 C464 1.502 . S
C463 C465 1.561 . S
C463 C466 1.526 . S
C464 H448 0.959 . S
C464 H449 0.959 . S
C464 H450 0.961 . S
C464 C463 1.502 . S
C465 H451 0.960 . S
C465 H452 0.961 . S
C465 H453 0.959 . S
C465 C463 1.561 . S
C466 C463 1.526 . S
C466 C467 1.396 . S
C466 C471 1.390 . S
C467 C461 1.465 . S
C467 C466 1.396 . S
C467 C468 1.399 . S
C468 H454 0.929 . S
C468 C467 1.399 . S
C468 C469 1.385 . S
C469 H455 0.931 . S
C469 C468 1.385 . S
C469 C470 1.389 . S
C470 C469 1.389 . S
C470 C471 1.387 . S
C471 H456 0.930 . S
C471 C466 1.390 . S
C471 C470 1.387 . S
H472 C484 0.930 . S
H473 C486 0.930 . S
H474 C487 0.930 . S
H475 C491 0.959 . S
H476 C491 0.959 . S
H477 C491 0.961 . S
H478 C492 0.960 . S
H479 C492 0.961 . S
H480 C492 0.959 . S
H481 C495 0.929 . S
H482 C496 0.931 . S
H483 C498 0.930 . S
C484 H472 0.930 . S
C484 C485 1.399 . S
C484 C489 1.399 . S
C485 C484 1.399 . S
C485 C486 1.376 . S
C486 H473 0.930 . S
C486 C485 1.376 . S
C486 C487 1.388 . S
C487 H474 0.930 . S
C487 C486 1.388 . S
C487 C488 1.390 . S
C488 C487 1.390 . S
C488 C489 1.394 . S
C488 C494 1.465 . S
C489 C484 1.399 . S
C489 C488 1.394 . S
C489 C490 1.516 . S
C490 C489 1.516 . S
C490 C491 1.502 . S
C490 C492 1.561 . S
C490 C493 1.526 . S
C491 H475 0.959 . S
C491 H476 0.959 . S
C491 H477 0.961 . S
C491 C490 1.502 . S
C492 H478 0.960 . S
C492 H479 0.961 . S
C492 H480 0.959 . S
C492 C490 1.561 . S
C493 C490 1.526 . S
C493 C494 1.396 . S
C493 C498 1.390 . S
C494 C488 1.465 . S
C494 C493 1.396 . S
C494 C495 1.399 . S
C495 H481 0.929 . S
C495 C494 1.399 . S
C495 C496 1.385 . S
C496 H482 0.931 . S
C496 C495 1.385 . S
C496 C497 1.389 . S
C497 C496 1.389 . S
C497 C498 1.387 . S
C498 H483 0.930 . S
C498 C493 1.390 . S
C498 C497 1.387 . S
H499 C511 0.930 . S
H500 C513 0.930 . S
H501 C514 0.930 . S
H502 C518 0.959 . S
H503 C518 0.959 . S
H504 C518 0.961 . S
H505 C519 0.960 . S
H506 C519 0.961 . S
H507 C519 0.959 . S
H508 C522 0.929 . S
H509 C523 0.931 . S
H510 C525 0.930 . S
C511 H499 0.930 . S
C511 C512 1.399 . S
C511 C516 1.399 . S
C512 C511 1.399 . S
C512 C513 1.376 . S
C513 H500 0.930 . S
C513 C512 1.376 . S
C513 C514 1.388 . S
C514 H501 0.930 . S
C514 C513 1.388 . S
C514 C515 1.390 . S
C515 C514 1.390 . S
C515 C516 1.394 . S
C515 C521 1.465 . S
C516 C511 1.399 . S
C516 C515 1.394 . S
C516 C517 1.516 . S
C517 C516 1.516 . S
C517 C518 1.502 . S
C517 C519 1.561 . S
C517 C520 1.526 . S
C518 H502 0.959 . S
C518 H503 0.959 . S
C518 H504 0.961 . S
C518 C517 1.502 . S
C519 H505 0.960 . S
C519 H506 0.961 . S
C519 H507 0.959 . S
C519 C517 1.561 . S
C520 C517 1.526 . S
C520 C521 1.396 . S
C520 C525 1.390 . S
C521 C515 1.465 . S
C521 C520 1.396 . S
C521 C522 1.399 . S
C522 H508 0.929 . S
C522 C521 1.399 . S
C522 C523 1.385 . S
C523 H509 0.931 . S
C523 C522 1.385 . S
C523 C524 1.389 . S
C524 C523 1.389 . S
C524 C525 1.387 . S
C525 H510 0.930 . S
C525 C520 1.390 . S
C525 C524 1.387 . S
H526 C538 0.930 . S
H527 C540 0.930 . S
H528 C541 0.930 . S
H529 C545 0.959 . S
H530 C545 0.959 . S
H531 C545 0.961 . S
H532 C546 0.960 . S
H533 C546 0.961 . S
H534 C546 0.959 . S
H535 C549 0.929 . S
H536 C550 0.931 . S
H537 C552 0.930 . S
C538 H526 0.930 . S
C538 C539 1.399 . S
C538 C543 1.399 . S
C539 C538 1.399 . S
C539 C540 1.376 . S
C540 H527 0.930 . S
C540 C539 1.376 . S
C540 C541 1.388 . S
C541 H528 0.930 . S
C541 C540 1.388 . S
C541 C542 1.390 . S
C542 C541 1.390 . S
C542 C543 1.394 . S
C542 C548 1.465 . S
C543 C538 1.399 . S
C543 C542 1.394 . S
C543 C544 1.516 . S
C544 C543 1.516 . S
C544 C545 1.502 . S
C544 C546 1.561 . S
C544 C547 1.526 . S
C545 H529 0.959 . S
C545 H530 0.959 . S
C545 H531 0.961 . S
C545 C544 1.502 . S
C546 H532 0.960 . S
C546 H533 0.961 . S
C546 H534 0.959 . S
C546 C544 1.561 . S
C547 C544 1.526 . S
C547 C548 1.396 . S
C547 C552 1.390 . S
C548 C542 1.465 . S
C548 C547 1.396 . S
C548 C549 1.399 . S
C549 H535 0.929 . S
C549 C548 1.399 . S
C549 C550 1.385 . S
C550 H536 0.931 . S
C550 C549 1.385 . S
C550 C551 1.389 . S
C551 C550 1.389 . S
C551 C552 1.387 . S
C552 H537 0.930 . S
C552 C547 1.390 . S
C552 C551 1.387 . S
H553 C565 0.930 . S
H554 C567 0.930 . S
H555 C568 0.930 . S
H556 C572 0.959 . S
H557 C572 0.959 . S
H558 C572 0.961 . S
H559 C573 0.960 . S
H560 C573 0.961 . S
H561 C573 0.959 . S
H562 C576 0.929 . S
H563 C577 0.931 . S
H564 C579 0.930 . S
C565 H553 0.930 . S
C565 C566 1.399 . S
C565 C570 1.399 . S
C566 C565 1.399 . S
C566 C567 1.376 . S
C567 H554 0.930 . S
C567 C566 1.376 . S
C567 C568 1.388 . S
C568 H555 0.930 . S
C568 C567 1.388 . S
C568 C569 1.390 . S
C569 C568 1.390 . S
C569 C570 1.394 . S
C569 C575 1.465 . S
C570 C565 1.399 . S
C570 C569 1.394 . S
C570 C571 1.516 . S
C571 C570 1.516 . S
C571 C572 1.502 . S
C571 C573 1.561 . S
C571 C574 1.526 . S
C572 H556 0.959 . S
C572 H557 0.959 . S
C572 H558 0.961 . S
C572 C571 1.502 . S
C573 H559 0.960 . S
C573 H560 0.961 . S
C573 H561 0.959 . S
C573 C571 1.561 . S
C574 C571 1.526 . S
C574 C575 1.396 . S
C574 C579 1.390 . S
C575 C569 1.465 . S
C575 C574 1.396 . S
C575 C576 1.399 . S
C576 H562 0.929 . S
C576 C575 1.399 . S
C576 C577 1.385 . S
C577 H563 0.931 . S
C577 C576 1.385 . S
C577 C578 1.389 . S
C578 C577 1.389 . S
C578 C579 1.387 . S
C579 H564 0.930 . S
C579 C574 1.390 . S
C579 C578 1.387 . S
H580 C592 0.930 . S
H581 C594 0.930 . S
H582 C595 0.930 . S
H583 C599 0.959 . S
H584 C599 0.959 . S
H585 C599 0.961 . S
H586 C600 0.960 . S
H587 C600 0.961 . S
H588 C600 0.959 . S
H589 C603 0.929 . S
H590 C604 0.931 . S
H591 C606 0.930 . S
C592 H580 0.930 . S
C592 C593 1.399 . S
C592 C597 1.399 . S
C593 C592 1.399 . S
C593 C594 1.376 . S
C594 H581 0.930 . S
C594 C593 1.376 . S
C594 C595 1.388 . S
C595 H582 0.930 . S
C595 C594 1.388 . S
C595 C596 1.390 . S
C596 C595 1.390 . S
C596 C597 1.394 . S
C596 C602 1.465 . S
C597 C592 1.399 . S
C597 C596 1.394 . S
C597 C598 1.516 . S
C598 C597 1.516 . S
C598 C599 1.502 . S
C598 C600 1.561 . S
C598 C601 1.526 . S
C599 H583 0.959 . S
C599 H584 0.959 . S
C599 H585 0.961 . S
C599 C598 1.502 . S
C600 H586 0.960 . S
C600 H587 0.961 . S
C600 H588 0.959 . S
C600 C598 1.561 . S
C601 C598 1.526 . S
C601 C602 1.396 . S
C601 C606 1.390 . S
C602 C596 1.465 . S
C602 C601 1.396 . S
C602 C603 1.399 . S
C603 H589 0.929 . S
C603 C602 1.399 . S
C603 C604 1.385 . S
C604 H590 0.931 . S
C604 C603 1.385 . S
C604 C605 1.389 . S
C605 C604 1.389 . S
C605 C606 1.387 . S
C606 H591 0.930 . S
C606 C601 1.390 . S
C606 C605 1.387 . S
H607 C619 0.930 . S
H608 C621 0.930 . S
H609 C622 0.930 . S
H610 C626 0.959 . S
H611 C626 0.959 . S
H612 C626 0.961 . S
H613 C627 0.960 . S
H614 C627 0.961 . S
H615 C627 0.959 . S
H616 C630 0.929 . S
H617 C631 0.931 . S
H618 C633 0.930 . S
C619 H607 0.930 . S
C619 C620 1.399 . S
C619 C624 1.399 . S
C620 C619 1.399 . S
C620 C621 1.376 . S
C621 H608 0.930 . S
C621 C620 1.376 . S
C621 C622 1.388 . S
C622 H609 0.930 . S
C622 C621 1.388 . S
C622 C623 1.390 . S
C623 C622 1.390 . S
C623 C624 1.394 . S
C623 C629 1.465 . S
C624 C619 1.399 . S
C624 C623 1.394 . S
C624 C625 1.516 . S
C625 C624 1.516 . S
C625 C626 1.502 . S
C625 C627 1.561 . S
C625 C628 1.526 . S
C626 H610 0.959 . S
C626 H611 0.959 . S
C626 H612 0.961 . S
C626 C625 1.502 . S
C627 H613 0.960 . S
C627 H614 0.961 . S
C627 H615 0.959 . S
C627 C625 1.561 . S
C628 C625 1.526 . S
C628 C629 1.396 . S
C628 C633 1.390 . S
C629 C623 1.465 . S
C629 C628 1.396 . S
C629 C630 1.399 . S
C630 H616 0.929 . S
C630 C629 1.399 . S
C630 C631 1.385 . S
C631 H617 0.931 . S
C631 C630 1.385 . S
C631 C632 1.389 . S
C632 C631 1.389 . S
C632 C633 1.387 . S
C633 H618 0.930 . S
C633 C628 1.390 . S
C633 C632 1.387 . S
H634 C646 0.930 . S
H635 C648 0.930 . S
H636 C649 0.930 . S
H637 C653 0.959 . S
H638 C653 0.959 . S
H639 C653 0.961 . S
H640 C654 0.960 . S
H641 C654 0.961 . S
H642 C654 0.959 . S
H643 C657 0.929 . S
H644 C658 0.931 . S
H645 C660 0.930 . S
C646 H634 0.930 . S
C646 C647 1.399 . S
C646 C651 1.399 . S
C647 C646 1.399 . S
C647 C648 1.376 . S
C648 H635 0.930 . S
C648 C647 1.376 . S
C648 C649 1.388 . S
C649 H636 0.930 . S
C649 C648 1.388 . S
C649 C650 1.390 . S
C650 C649 1.390 . S
C650 C651 1.394 . S
C650 C656 1.465 . S
C651 C646 1.399 . S
C651 C650 1.394 . S
C651 C652 1.516 . S
C652 C651 1.516 . S
C652 C653 1.502 . S
C652 C654 1.561 . S
C652 C655 1.526 . S
C653 H637 0.959 . S
C653 H638 0.959 . S
C653 H639 0.961 . S
C653 C652 1.502 . S
C654 H640 0.960 . S
C654 H641 0.961 . S
C654 H642 0.959 . S
C654 C652 1.561 . S
C655 C652 1.526 . S
C655 C656 1.396 . S
C655 C660 1.390 . S
C656 C650 1.465 . S
C656 C655 1.396 . S
C656 C657 1.399 . S
C657 H643 0.929 . S
C657 C656 1.399 . S
C657 C658 1.385 . S
C658 H644 0.931 . S
C658 C657 1.385 . S
C658 C659 1.389 . S
C659 C658 1.389 . S
C659 C660 1.387 . S
C660 H645 0.930 . S
C660 C655 1.390 . S
C660 C659 1.387 . S
H661 C673 0.930 . S
H662 C675 0.930 . S
H663 C676 0.930 . S
H664 C680 0.959 . S
H665 C680 0.959 . S
H666 C680 0.961 . S
H667 C681 0.960 . S
H668 C681 0.961 . S
H669 C681 0.959 . S
H670 C684 0.929 . S
H671 C685 0.931 . S
H672 C687 0.930 . S
C673 H661 0.930 . S
C673 C674 1.399 . S
C673 C678 1.399 . S
C674 C673 1.399 . S
C674 C675 1.376 . S
C675 H662 0.930 . S
C675 C674 1.376 . S
C675 C676 1.388 . S
C676 H663 0.930 . S
C676 C675 1.388 . S
C676 C677 1.390 . S
C677 C676 1.390 . S
C677 C678 1.394 . S
C677 C683 1.465 . S
C678 C673 1.399 . S
C678 C677 1.394 . S
C678 C679 1.516 . S
C679 C678 1.516 . S
C679 C680 1.502 . S
C679 C681 1.561 . S
C679 C682 1.526 . S
C680 H664 0.959 . S
C680 H665 0.959 . S
C680 H666 0.961 . S
C680 C679 1.502 . S
C681 H667 0.960 . S
C681 H668 0.961 . S
C681 H669 0.959 . S
C681 C679 1.561 . S
C682 C679 1.526 . S
C682 C683 1.396 . S
C682 C687 1.390 . S
C683 C677 1.465 . S
C683 C682 1.396 . S
C683 C684 1.399 . S
C684 H670 0.929 . S
C684 C683 1.399 . S
C684 C685 1.385 . S
C685 H671 0.931 . S
C685 C684 1.385 . S
C685 C686 1.389 . S
C686 C685 1.389 . S
C686 C687 1.387 . S
C687 H672 0.930 . S
C687 C682 1.390 . S
C687 C686 1.387 . S
H688 C700 0.930 . S
H689 C702 0.930 . S
H690 C703 0.930 . S
H691 C707 0.959 . S
H692 C707 0.959 . S
H693 C707 0.961 . S
H694 C708 0.960 . S
H695 C708 0.961 . S
H696 C708 0.959 . S
H697 C711 0.929 . S
H698 C712 0.931 . S
H699 C714 0.930 . S
C700 H688 0.930 . S
C700 C701 1.399 . S
C700 C705 1.399 . S
C701 C700 1.399 . S
C701 C702 1.376 . S
C702 H689 0.930 . S
C702 C701 1.376 . S
C702 C703 1.388 . S
C703 H690 0.930 . S
C703 C702 1.388 . S
C703 C704 1.390 . S
C704 C703 1.390 . S
C704 C705 1.394 . S
C704 C710 1.465 . S
C705 C700 1.399 . S
C705 C704 1.394 . S
C705 C706 1.516 . S
C706 C705 1.516 . S
C706 C707 1.502 . S
C706 C708 1.561 . S
C706 C709 1.526 . S
C707 H691 0.959 . S
C707 H692 0.959 . S
C707 H693 0.961 . S
C707 C706 1.502 . S
C708 H694 0.960 . S
C708 H695 0.961 . S
C708 H696 0.959 . S
C708 C706 1.561 . S
C709 C706 1.526 . S
C709 C710 1.396 . S
C709 C714 1.390 . S
C710 C704 1.465 . S
C710 C709 1.396 . S
C710 C711 1.399 . S
C711 H697 0.929 . S
C711 C710 1.399 . S
C711 C712 1.385 . S
C712 H698 0.931 . S
C712 C711 1.385 . S
C712 C713 1.389 . S
C713 C712 1.389 . S
C713 C714 1.387 . S
C714 H699 0.930 . S
C714 C709 1.390 . S
C714 C713 1.387 . S
H715 C727 0.930 . S
H716 C729 0.930 . S
H717 C730 0.930 . S
H718 C734 0.959 . S
H719 C734 0.959 . S
H720 C734 0.961 . S
H721 C735 0.960 . S
H722 C735 0.961 . S
H723 C735 0.959 . S
H724 C738 0.929 . S
H725 C739 0.931 . S
H726 C741 0.930 . S
C727 H715 0.930 . S
C727 C728 1.399 . S
C727 C732 1.399 . S
C728 C727 1.399 . S
C728 C729 1.376 . S
C729 H716 0.930 . S
C729 C728 1.376 . S
C729 C730 1.388 . S
C730 H717 0.930 . S
C730 C729 1.388 . S
C730 C731 1.390 . S
C731 C730 1.390 . S
C731 C732 1.394 . S
C731 C737 1.465 . S
C732 C727 1.399 . S
C732 C731 1.394 . S
C732 C733 1.516 . S
C733 C732 1.516 . S
C733 C734 1.502 . S
C733 C735 1.561 . S
C733 C736 1.526 . S
C734 H718 0.959 . S
C734 H719 0.959 . S
C734 H720 0.961 . S
C734 C733 1.502 . S
C735 H721 0.960 . S
C735 H722 0.961 . S
C735 H723 0.959 . S
C735 C733 1.561 . S
C736 C733 1.526 . S
C736 C737 1.396 . S
C736 C741 1.390 . S
C737 C731 1.465 . S
C737 C736 1.396 . S
C737 C738 1.399 . S
C738 H724 0.929 . S
C738 C737 1.399 . S
C738 C739 1.385 . S
C739 H725 0.931 . S
C739 C738 1.385 . S
C739 C740 1.389 . S
C740 C739 1.389 . S
C740 C741 1.387 . S
C741 H726 0.930 . S
C741 C736 1.390 . S
C741 C740 1.387 . S
H742 C754 0.930 . S
H743 C756 0.930 . S
H744 C757 0.930 . S
H745 C761 0.959 . S
H746 C761 0.959 . S
H747 C761 0.961 . S
H748 C762 0.960 . S
H749 C762 0.961 . S
H750 C762 0.959 . S
H751 C765 0.929 . S
H752 C766 0.931 . S
H753 C768 0.930 . S
C754 H742 0.930 . S
C754 C755 1.399 . S
C754 C759 1.399 . S
C755 C754 1.399 . S
C755 C756 1.376 . S
C756 H743 0.930 . S
C756 C755 1.376 . S
C756 C757 1.388 . S
C757 H744 0.930 . S
C757 C756 1.388 . S
C757 C758 1.390 . S
C758 C757 1.390 . S
C758 C759 1.394 . S
C758 C764 1.465 . S
C759 C754 1.399 . S
C759 C758 1.394 . S
C759 C760 1.516 . S
C760 C759 1.516 . S
C760 C761 1.502 . S
C760 C762 1.561 . S
C760 C763 1.526 . S
C761 H745 0.959 . S
C761 H746 0.959 . S
C761 H747 0.961 . S
C761 C760 1.502 . S
C762 H748 0.960 . S
C762 H749 0.961 . S
C762 H750 0.959 . S
C762 C760 1.561 . S
C763 C760 1.526 . S
C763 C764 1.396 . S
C763 C768 1.390 . S
C764 C758 1.465 . S
C764 C763 1.396 . S
C764 C765 1.399 . S
C765 H751 0.929 . S
C765 C764 1.399 . S
C765 C766 1.385 . S
C766 H752 0.931 . S
C766 C765 1.385 . S
C766 C767 1.389 . S
C767 C766 1.389 . S
C767 C768 1.387 . S
C768 H753 0.930 . S
C768 C763 1.390 . S
C768 C767 1.387 . S
H769 C781 0.930 . S
H770 C783 0.930 . S
H771 C784 0.930 . S
H772 C788 0.959 . S
H773 C788 0.959 . S
H774 C788 0.961 . S
H775 C789 0.960 . S
H776 C789 0.961 . S
H777 C789 0.959 . S
H778 C792 0.929 . S
H779 C793 0.931 . S
H780 C795 0.930 . S
C781 H769 0.930 . S
C781 C782 1.399 . S
C781 C786 1.399 . S
C782 C781 1.399 . S
C782 C783 1.376 . S
C783 H770 0.930 . S
C783 C782 1.376 . S
C783 C784 1.388 . S
C784 H771 0.930 . S
C784 C783 1.388 . S
C784 C785 1.390 . S
C785 C784 1.390 . S
C785 C786 1.394 . S
C785 C791 1.465 . S
C786 C781 1.399 . S
C786 C785 1.394 . S
C786 C787 1.516 . S
C787 C786 1.516 . S
C787 C788 1.502 . S
C787 C789 1.561 . S
C787 C790 1.526 . S
C788 H772 0.959 . S
C788 H773 0.959 . S
C788 H774 0.961 . S
C788 C787 1.502 . S
C789 H775 0.960 . S
C789 H776 0.961 . S
C789 H777 0.959 . S
C789 C787 1.561 . S
C790 C787 1.526 . S
C790 C791 1.396 . S
C790 C795 1.390 . S
C791 C785 1.465 . S
C791 C790 1.396 . S
C791 C792 1.399 . S
C792 H778 0.929 . S
C792 C791 1.399 . S
C792 C793 1.385 . S
C793 H779 0.931 . S
C793 C792 1.385 . S
C793 C794 1.389 . S
C794 C793 1.389 . S
C794 C795 1.387 . S
C795 H780 0.930 . S
C795 C790 1.390 . S
C795 C794 1.387 . S
H796 C808 0.930 . S
H797 C810 0.930 . S
H798 C811 0.930 . S
H799 C815 0.959 . S
H800 C815 0.959 . S
H801 C815 0.961 . S
H802 C816 0.960 . S
H803 C816 0.961 . S
H804 C816 0.959 . S
H805 C819 0.929 . S
H806 C820 0.931 . S
H807 C822 0.930 . S
C808 H796 0.930 . S
C808 C809 1.399 . S
C808 C813 1.399 . S
C809 C808 1.399 . S
C809 C810 1.376 . S
C810 H797 0.930 . S
C810 C809 1.376 . S
C810 C811 1.388 . S
C811 H798 0.930 . S
C811 C810 1.388 . S
C811 C812 1.390 . S
C812 C811 1.390 . S
C812 C813 1.394 . S
C812 C818 1.465 . S
C813 C808 1.399 . S
C813 C812 1.394 . S
C813 C814 1.516 . S
C814 C813 1.516 . S
C814 C815 1.502 . S
C814 C816 1.561 . S
C814 C817 1.526 . S
C815 H799 0.959 . S
C815 H800 0.959 . S
C815 H801 0.961 . S
C815 C814 1.502 . S
C816 H802 0.960 . S
C816 H803 0.961 . S
C816 H804 0.959 . S
C816 C814 1.561 . S
C817 C814 1.526 . S
C817 C818 1.396 . S
C817 C822 1.390 . S
C818 C812 1.465 . S
C818 C817 1.396 . S
C818 C819 1.399 . S
C819 H805 0.929 . S
C819 C818 1.399 . S
C819 C820 1.385 . S
C820 H806 0.931 . S
C820 C819 1.385 . S
C820 C821 1.389 . S
C821 C820 1.389 . S
C821 C822 1.387 . S
C822 H807 0.930 . S
C822 C817 1.390 . S
C822 C821 1.387 . S
H823 C835 0.930 . S
H824 C837 0.930 . S
H825 C838 0.930 . S
H826 C842 0.959 . S
H827 C842 0.959 . S
H828 C842 0.961 . S
H829 C843 0.960 . S
H830 C843 0.961 . S
H831 C843 0.959 . S
H832 C846 0.929 . S
H833 C847 0.931 . S
H834 C849 0.930 . S
C835 H823 0.930 . S
C835 C836 1.399 . S
C835 C840 1.399 . S
C836 C835 1.399 . S
C836 C837 1.376 . S
C837 H824 0.930 . S
C837 C836 1.376 . S
C837 C838 1.388 . S
C838 H825 0.930 . S
C838 C837 1.388 . S
C838 C839 1.390 . S
C839 C838 1.390 . S
C839 C840 1.394 . S
C839 C845 1.465 . S
C840 C835 1.399 . S
C840 C839 1.394 . S
C840 C841 1.516 . S
C841 C840 1.516 . S
C841 C842 1.502 . S
C841 C843 1.561 . S
C841 C844 1.526 . S
C842 H826 0.959 . S
C842 H827 0.959 . S
C842 H828 0.961 . S
C842 C841 1.502 . S
C843 H829 0.960 . S
C843 H830 0.961 . S
C843 H831 0.959 . S
C843 C841 1.561 . S
C844 C841 1.526 . S
C844 C845 1.396 . S
C844 C849 1.390 . S
C845 C839 1.465 . S
C845 C844 1.396 . S
C845 C846 1.399 . S
C846 H832 0.929 . S
C846 C845 1.399 . S
C846 C847 1.385 . S
C847 H833 0.931 . S
C847 C846 1.385 . S
C847 C848 1.389 . S
C848 C847 1.389 . S
C848 C849 1.387 . S
C849 H834 0.930 . S
C849 C844 1.390 . S
C849 C848 1.387 . S
H850 C862 0.930 . S
H851 C864 0.930 . S
H852 C865 0.930 . S
H853 C869 0.959 . S
H854 C869 0.959 . S
H855 C869 0.961 . S
H856 C870 0.960 . S
H857 C870 0.961 . S
H858 C870 0.959 . S
H859 C873 0.929 . S
H860 C874 0.931 . S
H861 C876 0.930 . S
C862 H850 0.930 . S
C862 C863 1.399 . S
C862 C867 1.399 . S
C863 C862 1.399 . S
C863 C864 1.376 . S
C864 H851 0.930 . S
C864 C863 1.376 . S
C864 C865 1.388 . S
C865 H852 0.930 . S
C865 C864 1.388 . S
C865 C866 1.390 . S
C866 C865 1.390 . S
C866 C867 1.394 . S
C866 C872 1.465 . S
C867 C862 1.399 . S
C867 C866 1.394 . S
C867 C868 1.516 . S
C868 C867 1.516 . S
C868 C869 1.502 . S
C868 C870 1.561 . S
C868 C871 1.526 . S
C869 H853 0.959 . S
C869 H854 0.959 . S
C869 H855 0.961 . S
C869 C868 1.502 . S
C870 H856 0.960 . S
C870 H857 0.961 . S
C870 H858 0.959 . S
C870 C868 1.561 . S
C871 C868 1.526 . S
C871 C872 1.396 . S
C871 C876 1.390 . S
C872 C866 1.465 . S
C872 C871 1.396 . S
C872 C873 1.399 . S
C873 H859 0.929 . S
C873 C872 1.399 . S
C873 C874 1.385 . S
C874 H860 0.931 . S
C874 C873 1.385 . S
C874 C875 1.389 . S
C875 C874 1.389 . S
C875 C876 1.387 . S
C876 H861 0.930 . S
C876 C871 1.390 . S
C876 C875 1.387 . S
H877 C889 0.930 . S
H878 C891 0.930 . S
H879 C892 0.930 . S
H880 C896 0.959 . S
H881 C896 0.959 . S
H882 C896 0.961 . S
H883 C897 0.960 . S
H884 C897 0.961 . S
H885 C897 0.959 . S
H886 C900 0.929 . S
H887 C901 0.931 . S
H888 C903 0.930 . S
C889 H877 0.930 . S
C889 C890 1.399 . S
C889 C894 1.399 . S
C890 C889 1.399 . S
C890 C891 1.376 . S
C891 H878 0.930 . S
C891 C890 1.376 . S
C891 C892 1.388 . S
C892 H879 0.930 . S
C892 C891 1.388 . S
C892 C893 1.390 . S
C893 C892 1.390 . S
C893 C894 1.394 . S
C893 C899 1.465 . S
C894 C889 1.399 . S
C894 C893 1.394 . S
C894 C895 1.516 . S
C895 C894 1.516 . S
C895 C896 1.502 . S
C895 C897 1.561 . S
C895 C898 1.526 . S
C896 H880 0.959 . S
C896 H881 0.959 . S
C896 H882 0.961 . S
C896 C895 1.502 . S
C897 H883 0.960 . S
C897 H884 0.961 . S
C897 H885 0.959 . S
C897 C895 1.561 . S
C898 C895 1.526 . S
C898 C899 1.396 . S
C898 C903 1.390 . S
C899 C893 1.465 . S
C899 C898 1.396 . S
C899 C900 1.399 . S
C900 H886 0.929 . S
C900 C899 1.399 . S
C900 C901 1.385 . S
C901 H887 0.931 . S
C901 C900 1.385 . S
C901 C902 1.389 . S
C902 C901 1.389 . S
C902 C903 1.387 . S
C903 H888 0.930 . S
C903 C898 1.390 . S
C903 C902 1.387 . S
C269 C6 1.084 . S
C281 C103 1.080 . S
C296 C18 1.270 . S
C308 C152 1.249 . S
C335 C178 2.541 . S
C323 C28 2.582 . S
C350 C40 1.794 . S
C362 C226 1.735 . S
C389 C138 2.321 . S
C377 C9 2.193 . S
C416 C106 0.845 . S
C404 C16 0.895 . S
C443 C227 1.867 . S
C431 C30 1.902 . S
C470 C195 1.282 . S
C458 C42 1.296 . S
C485 C4 1.462 . S
C497 C223 1.529 . S
C524 C155 2.477 . S
C512 C33 2.574 . S
C539 C45 2.067 . S
C551 C107 2.045 . S
C566 C21 1.114 . S
C578 C192 1.077 . S
C605 C112 1.079 . S
C593 C57 1.082 . S
C620 C66 1.263 . S
C632 C143 1.309 . S
C647 C76 2.632 . S
C659 C187 2.603 . S
C674 C88 1.711 . S
C686 C235 1.709 . S
C701 C54 2.238 . S
C713 C147 2.314 . S
C740 C115 1.053 . S
C728 C64 1.014 . S
C767 C218 1.770 . S
C755 C78 1.815 . S
C794 C186 1.337 . S
C782 C93 1.330 . S
C809 C52 1.431 . S
C821 C232 1.532 . S
C848 C146 2.477 . S
C836 C81 2.559 . S
C875 C98 2.031 . S
C863 C90 2.033 . S
C890 C69 1.070 . S
C902 C183 1.062 . S
