# Generated by pormake.
# Topology hwx, (6,3)-cn, num edge types: 1
# Building blocks:
#     Node 0, Type 0, BuildingBlock: OJICUG_clean_sbu_0, # of connection points: 6
#     Node 1, Type 0, BuildingBlock: OJICUG_clean_sbu_0, # of connection points: 6
#     Node 2, Type 0, BuildingBlock: OJICUG_clean_sbu_0, # of connection points: 6
#     Node 3, Type 0, BuildingBlock: OJICUG_clean_sbu_0, # of connection points: 6
#     Node 4, Type 1, BuildingBlock: CUQRIR_clean_linker_1, # of connection points: 3
#     Node 5, Type 1, BuildingBlock: CUQRIR_clean_linker_1, # of connection points: 3
#     Node 6, Type 1, BuildingBlock: CUQRIR_clean_linker_1, # of connection points: 3
#     Node 7, Type 1, BuildingBlock: CUQRIR_clean_linker_1, # of connection points: 3
#     Node 8, Type 1, BuildingBlock: CUQRIR_clean_linker_1, # of connection points: 3
#     Node 9, Type 1, BuildingBlock: CUQRIR_clean_linker_1, # of connection points: 3
#     Node 10, Type 1, BuildingBlock: CUQRIR_clean_linker_1, # of connection points: 3
#     Node 11, Type 1, BuildingBlock: CUQRIR_clean_linker_1, # of connection points: 3
#     Edge 12, Type (0, 1), BuildingBlock: TEMPAE_clean_linker_10, # of connection points: 2
#     Edge 13, Type (0, 1), BuildingBlock: TEMPAE_clean_linker_10, # of connection points: 2
#     Edge 14, Type (0, 1), BuildingBlock: TEMPAE_clean_linker_10, # of connection points: 2
#     Edge 15, Type (0, 1), BuildingBlock: TEMPAE_clean_linker_10, # of connection points: 2
#     Edge 16, Type (0, 1), BuildingBlock: TEMPAE_clean_linker_10, # of connection points: 2
#     Edge 17, Type (0, 1), BuildingBlock: TEMPAE_clean_linker_10, # of connection points: 2
#     Edge 18, Type (0, 1), BuildingBlock: TEMPAE_clean_linker_10, # of connection points: 2
#     Edge 19, Type (0, 1), BuildingBlock: TEMPAE_clean_linker_10, # of connection points: 2
#     Edge 20, Type (0, 1), BuildingBlock: TEMPAE_clean_linker_10, # of connection points: 2
#     Edge 21, Type (0, 1), BuildingBlock: TEMPAE_clean_linker_10, # of connection points: 2
#     Edge 22, Type (0, 1), BuildingBlock: TEMPAE_clean_linker_10, # of connection points: 2
#     Edge 23, Type (0, 1), BuildingBlock: TEMPAE_clean_linker_10, # of connection points: 2
#     Edge 24, Type (0, 1), BuildingBlock: TEMPAE_clean_linker_10, # of connection points: 2
#     Edge 25, Type (0, 1), BuildingBlock: TEMPAE_clean_linker_10, # of connection points: 2
#     Edge 26, Type (0, 1), BuildingBlock: TEMPAE_clean_linker_10, # of connection points: 2
#     Edge 27, Type (0, 1), BuildingBlock: TEMPAE_clean_linker_10, # of connection points: 2
#     Edge 28, Type (0, 1), BuildingBlock: TEMPAE_clean_linker_10, # of connection points: 2
#     Edge 29, Type (0, 1), BuildingBlock: TEMPAE_clean_linker_10, # of connection points: 2
#     Edge 30, Type (0, 1), BuildingBlock: TEMPAE_clean_linker_10, # of connection points: 2
#     Edge 31, Type (0, 1), BuildingBlock: TEMPAE_clean_linker_10, # of connection points: 2
#     Edge 32, Type (0, 1), BuildingBlock: TEMPAE_clean_linker_10, # of connection points: 2
#     Edge 33, Type (0, 1), BuildingBlock: TEMPAE_clean_linker_10, # of connection points: 2
#     Edge 34, Type (0, 1), BuildingBlock: TEMPAE_clean_linker_10, # of connection points: 2
#     Edge 35, Type (0, 1), BuildingBlock: TEMPAE_clean_linker_10, # of connection points: 2
# Relax obj value: 0.003
# Max RMSD: 0.055
# Mean RMSD: 0.044
data_MOF--net-hwx--node1-OJICUG_clean_sbu_0--node2-CUQRIR_clean_linker_1--edge1-TEMPAE_clean_linker_10
_symmetry_space_group_name_H-M    P1
_symmetry_Int_Tables_number       1
_symmetry_cell_setting            triclinic
loop_
_symmetry_equiv_pos_as_xyz
'x, y, z'
_cell_length_a     50.157992
_cell_length_b     50.153319
_cell_length_c     18.805346
_cell_angle_alpha  90.015256
_cell_angle_beta   90.02033
_cell_angle_gamma 90.009719
loop_
_atom_site_label
_atom_site_type_symbol
_atom_site_fract_x
_atom_site_fract_y
_atom_site_fract_z
_atom_type_partial_charge
Sc0 Sc 0.21322 0.21102 0.09871 0.0
Sc1 Sc 0.16858 0.16941 0.00582 0.0
Sc2 Sc 0.21219 0.21159 0.91191 0.0
O3 O 0.19795 0.19728 0.00551 0.0
C4 C 0.21036 0.26407 0.00441 0.0
C5 C 0.1516 0.2079 0.13484 0.0
C6 C 0.15017 0.20596 0.8772 0.0
C7 C 0.20454 0.14939 0.13405 0.0
C8 C 0.26536 0.2068 0.00534 0.0
C9 C 0.20593 0.15024 0.87664 0.0
O10 O 0.21417 0.25174 0.06257 0.0
O11 O 0.14671 0.18953 0.0898 0.0
O12 O 0.17361 0.21385 0.86311 0.0
O13 O 0.21377 0.17239 0.14771 0.0
O14 O 0.25293 0.21089 0.94748 0.0
O15 O 0.18735 0.14638 0.92178 0.0
O16 O 0.25362 0.20453 0.06489 0.0
O17 O 0.18921 0.14458 0.08176 0.0
O18 O 0.21779 0.17246 0.86955 0.0
O19 O 0.17445 0.21852 0.14181 0.0
O20 O 0.20752 0.2522 0.94523 0.0
O21 O 0.14463 0.19113 0.92997 0.0
Sc22 Sc 0.28239 0.71274 0.40252 0.0
Sc23 Sc 0.32659 0.66874 0.48886 0.0
Sc24 Sc 0.28386 0.70999 0.58959 0.0
O25 O 0.29765 0.69711 0.49371 0.0
C26 C 0.28647 0.76413 0.50047 0.0
C27 C 0.34387 0.70719 0.36177 0.0
C28 C 0.34599 0.70468 0.6198 0.0
C29 C 0.28757 0.65141 0.36192 0.0
C30 C 0.23032 0.70785 0.49959 0.0
C31 C 0.29144 0.64797 0.61894 0.0
O32 O 0.28668 0.75295 0.43987 0.0
O33 O 0.3494 0.69029 0.41 0.0
O34 O 0.32317 0.71459 0.63225 0.0
O35 O 0.27688 0.67424 0.35526 0.0
O36 O 0.24284 0.70629 0.55815 0.0
O37 O 0.30723 0.64376 0.56721 0.0
O38 O 0.24197 0.71084 0.44016 0.0
O39 O 0.30578 0.64645 0.40728 0.0
O40 O 0.28172 0.67069 0.63327 0.0
O41 O 0.32063 0.7166 0.35288 0.0
O42 O 0.28475 0.75121 0.55839 0.0
O43 O 0.35047 0.68808 0.56996 0.0
Sc44 Sc 0.7836 0.7812 0.9239 0.0
Sc45 Sc 0.8241 0.82438 0.02557 0.0
Sc46 Sc 0.78099 0.77903 0.11107 0.0
O47 O 0.79629 0.79489 0.02014 0.0
C48 C 0.72943 0.78293 0.01305 0.0
C49 C 0.78805 0.84359 0.89489 0.0
C50 C 0.78534 0.84046 0.15336 0.0
C51 C 0.84547 0.7897 0.89477 0.0
C52 C 0.78644 0.72733 0.01301 0.0
C53 C 0.8423 0.7854 0.15164 0.0
O54 O 0.74236 0.78215 0.95499 0.0
O55 O 0.80415 0.84834 0.94573 0.0
O56 O 0.77616 0.81707 0.16125 0.0
O57 O 0.82303 0.77924 0.88087 0.0
O58 O 0.78389 0.73877 0.07288 0.0
O59 O 0.84695 0.80362 0.10609 0.0
O60 O 0.78728 0.74006 0.95465 0.0
O61 O 0.84924 0.80585 0.94601 0.0
O62 O 0.81962 0.77441 0.15862 0.0
O63 O 0.77894 0.82054 0.88122 0.0
O64 O 0.74067 0.78236 0.07359 0.0
O65 O 0.80233 0.8464 0.10567 0.0
Sc66 Sc 0.71302 0.27971 0.58891 0.0
Sc67 Sc 0.66949 0.32151 0.49326 0.0
Sc68 Sc 0.71335 0.27861 0.40183 0.0
O69 O 0.69857 0.29333 0.49464 0.0
C70 C 0.76586 0.28366 0.49763 0.0
C71 C 0.70489 0.34153 0.62293 0.0
C72 C 0.70757 0.34009 0.36509 0.0
C73 C 0.65116 0.28359 0.62203 0.0
C74 C 0.71063 0.2263 0.49577 0.0
C75 C 0.65156 0.28444 0.36467 0.0
O76 O 0.75367 0.28548 0.55663 0.0
O77 O 0.68969 0.34628 0.57031 0.0
O78 O 0.71897 0.31763 0.35795 0.0
O79 O 0.67391 0.27295 0.6307 0.0
O80 O 0.70888 0.23795 0.43597 0.0
O81 O 0.64601 0.29995 0.41606 0.0
O82 O 0.71346 0.23888 0.55394 0.0
O83 O 0.6467 0.30171 0.576 0.0
O84 O 0.67492 0.27592 0.35221 0.0
O85 O 0.71398 0.31852 0.63695 0.0
O86 O 0.75391 0.27986 0.43888 0.0
O87 O 0.68912 0.34431 0.41033 0.0
C88 C 0.23673 0.47707 0.93697 0.0
N89 N 0.24185 0.50236 0.95699 0.0
N90 N 0.22961 0.46224 0.99386 0.0
C91 C 0.23852 0.46694 0.86187 0.0
C92 C 0.23062 0.47943 0.0493 0.0
N93 N 0.23792 0.504 0.02669 0.0
C94 C 0.22712 0.47154 0.12595 0.0
H95 H 0.23284 0.48278 0.82355 0.0
H96 H 0.22551 0.44928 0.85401 0.0
H97 H 0.25944 0.4611 0.85073 0.0
H98 H 0.23142 0.45006 0.13394 0.0
H99 H 0.20615 0.47534 0.14181 0.0
H100 H 0.24034 0.48346 0.16099 0.0
C101 C 0.0179 0.73895 0.5772 0.0
N102 N 0.99264 0.74416 0.55694 0.0
N103 N 0.0327 0.73146 0.52056 0.0
C104 C 0.02798 0.7408 0.65234 0.0
C105 C 0.01552 0.73231 0.46507 0.0
N106 N 0.99099 0.73987 0.48737 0.0
C107 C 0.02337 0.72815 0.38864 0.0
H108 H 0.03413 0.76167 0.66308 0.0
H109 H 0.04544 0.72757 0.66056 0.0
H110 H 0.01204 0.73547 0.6907 0.0
H111 H 0.01964 0.70703 0.37409 0.0
H112 H 0.04484 0.73244 0.38039 0.0
H113 H 0.0114 0.74103 0.35284 0.0
C114 C 0.76251 0.51297 0.05005 0.0
N115 N 0.75482 0.4883 0.02917 0.0
N116 N 0.76403 0.52953 0.99335 0.0
C117 C 0.76622 0.52157 0.12608 0.0
C118 C 0.75682 0.5142 0.93743 0.0
N119 N 0.75115 0.48922 0.95925 0.0
C120 C 0.75554 0.52353 0.86154 0.0
H121 H 0.76207 0.54316 0.13257 0.0
H122 H 0.7872 0.51782 0.1419 0.0
H123 H 0.753 0.51007 0.16208 0.0
H124 H 0.76885 0.54089 0.85281 0.0
H125 H 0.73476 0.52957 0.84928 0.0
H126 H 0.76112 0.5072 0.8246 0.0
C127 C 0.98101 0.26928 0.44967 0.0
N128 N 0.00578 0.26194 0.47053 0.0
N129 N 0.96457 0.2711 0.50657 0.0
C130 C 0.97216 0.272 0.37353 0.0
C131 C 0.98009 0.26442 0.56256 0.0
N132 N 0.00505 0.25883 0.54064 0.0
C133 C 0.97084 0.26313 0.63852 0.0
H134 H 0.97605 0.29271 0.35558 0.0
H135 H 0.95053 0.26793 0.36781 0.0
H136 H 0.98344 0.25821 0.33857 0.0
H137 H 0.96533 0.24225 0.65129 0.0
H138 H 0.95318 0.27606 0.64708 0.0
H139 H 0.98709 0.26924 0.67516 0.0
C140 C 0.72558 0.01299 0.57584 0.0
N141 N 0.73122 0.98752 0.55829 0.0
N142 N 0.7192 0.02715 0.51717 0.0
C143 C 0.72808 0.02444 0.64936 0.0
C144 C 0.72139 0.00948 0.46317 0.0
N145 N 0.72845 0.98521 0.48831 0.0
C146 C 0.71871 0.01638 0.38563 0.0
H147 H 0.71535 0.04239 0.65554 0.0
H148 H 0.74914 0.03027 0.65847 0.0
H149 H 0.72256 0.00935 0.68993 0.0
H150 H 0.73526 0.00727 0.35488 0.0
H151 H 0.71856 0.03823 0.37677 0.0
H152 H 0.69973 0.00801 0.36515 0.0
C153 C 0.47948 0.22544 0.94022 0.0
N154 N 0.50447 0.23287 0.95894 0.0
N155 N 0.46381 0.22337 0.99857 0.0
C156 C 0.46974 0.22257 0.86493 0.0
C157 C 0.48001 0.22995 0.05326 0.0
N158 N 0.50464 0.23577 0.02914 0.0
C159 C 0.47181 0.23077 0.13011 0.0
H160 H 0.44809 0.22684 0.86103 0.0
H161 H 0.47318 0.20176 0.84716 0.0
H162 H 0.48075 0.23613 0.82874 0.0
H163 H 0.45438 0.21765 0.13992 0.0
H164 H 0.46631 0.25154 0.14418 0.0
H165 H 0.48857 0.22463 0.16498 0.0
C166 C 0.25679 0.97721 0.44789 0.0
N167 N 0.25092 0.00205 0.47032 0.0
N168 N 0.26388 0.96171 0.50353 0.0
C169 C 0.25577 0.96817 0.37171 0.0
C170 C 0.26207 0.97801 0.56069 0.0
N171 N 0.25434 0.00271 0.54034 0.0
C172 C 0.26548 0.9691 0.63656 0.0
H173 H 0.23506 0.96209 0.35881 0.0
H174 H 0.26918 0.95089 0.36278 0.0
H175 H 0.26141 0.98466 0.33538 0.0
H176 H 0.28633 0.97301 0.65331 0.0
H177 H 0.26153 0.94743 0.64219 0.0
H178 H 0.25194 0.98027 0.67244 0.0
C179 C 0.51356 0.76956 0.04943 0.0
N180 N 0.48918 0.76205 0.02609 0.0
N181 N 0.5306 0.77205 0.99414 0.0
C182 C 0.52122 0.77244 0.1264 0.0
C183 C 0.51595 0.7654 0.93654 0.0
N184 N 0.4908 0.7593 0.95597 0.0
C185 C 0.52662 0.76323 0.86214 0.0
H186 H 0.54316 0.77233 0.1337 0.0
H187 H 0.5122 0.75614 0.15826 0.0
H188 H 0.5133 0.79162 0.14683 0.0
H189 H 0.53192 0.74213 0.85151 0.0
H190 H 0.54471 0.7757 0.85524 0.0
H191 H 0.51121 0.7693 0.82299 0.0
C192 C 0.10327 0.21217 0.16712 0.0
C193 C 0.13015 0.21685 0.18339 0.0
C194 C 0.08296 0.22033 0.2137 0.0
C195 C 0.08976 0.23305 0.27849 0.0
C196 C 0.11683 0.2378 0.29521 0.0
C197 C 0.13667 0.22984 0.24725 0.0
C198 C 0.05424 0.21524 0.19378 0.0
C199 C 0.12487 0.25091 0.36433 0.0
C200 C 0.03709 0.27366 0.3749 0.0
C201 C 0.02785 0.25528 0.4251 0.0
C202 C 0.05724 0.26672 0.32661 0.0
C203 C 0.0686 0.24089 0.32961 0.0
C204 C 0.05966 0.22245 0.38139 0.0
C205 C 0.03912 0.22979 0.42792 0.0
C206 C 0.06611 0.28684 0.27181 0.0
C207 C 0.07152 0.19486 0.38703 0.0
H208 H 0.09808 0.20229 0.11773 0.0
H209 H 0.1574 0.23334 0.26058 0.0
H210 H 0.04488 0.20183 0.23348 0.0
H211 H 0.0429 0.23424 0.19437 0.0
H212 H 0.05226 0.20602 0.14032 0.0
H213 H 0.14681 0.25335 0.36906 0.0
H214 H 0.1154 0.27083 0.36884 0.0
H215 H 0.11772 0.23879 0.40988 0.0
H216 H 0.02821 0.29334 0.37306 0.0
H217 H 0.03134 0.21538 0.46533 0.0
H218 H 0.06291 0.27871 0.21759 0.0
H219 H 0.08776 0.29081 0.27753 0.0
H220 H 0.05518 0.30603 0.27651 0.0
H221 H 0.06762 0.18358 0.33735 0.0
H222 H 0.06321 0.18343 0.43252 0.0
H223 H 0.09347 0.19619 0.3935 0.0
C224 C 0.2856 0.63061 0.74122 0.0
C225 C 0.2851 0.62599 0.66775 0.0
C226 C 0.27935 0.61027 0.78939 0.0
C227 C 0.27152 0.58502 0.76318 0.0
C228 C 0.27084 0.58029 0.68887 0.0
C229 C 0.27814 0.60079 0.64186 0.0
C230 C 0.28118 0.61579 0.86826 0.0
C231 C 0.26187 0.5538 0.65911 0.0
C232 C 0.27557 0.52491 0.8848 0.0
C233 C 0.24956 0.52375 0.91103 0.0
C234 C 0.28316 0.54505 0.83734 0.0
C235 C 0.26387 0.56367 0.81378 0.0
C236 C 0.23737 0.56221 0.83962 0.0
C237 C 0.23063 0.54237 0.88897 0.0
C238 C 0.31179 0.54651 0.81289 0.0
C239 C 0.21611 0.58131 0.81442 0.0
H240 H 0.2913 0.65011 0.76103 0.0
H241 H 0.27763 0.59739 0.58493 0.0
H242 H 0.26121 0.61389 0.89302 0.0
H243 H 0.29436 0.60089 0.89412 0.0
H244 H 0.28903 0.63606 0.87975 0.0
H245 H 0.26199 0.55353 0.60004 0.0
H246 H 0.27504 0.53763 0.67866 0.0
H247 H 0.24139 0.54927 0.67787 0.0
H248 H 0.28991 0.51013 0.90222 0.0
H249 H 0.21045 0.54088 0.90915 0.0
H250 H 0.32022 0.56641 0.82568 0.0
H251 H 0.31284 0.54405 0.75436 0.0
H252 H 0.32444 0.53099 0.83814 0.0
H253 H 0.22157 0.60201 0.82912 0.0
H254 H 0.19625 0.57671 0.83749 0.0
H255 H 0.21459 0.58056 0.75558 0.0
C256 C 0.85761 0.76477 0.26559 0.0
C257 C 0.86388 0.77724 0.20086 0.0
C258 C 0.8776 0.7579 0.3144 0.0
C259 C 0.90456 0.76322 0.29762 0.0
C260 C 0.91111 0.77534 0.23187 0.0
C261 C 0.89066 0.78242 0.18449 0.0
C262 C 0.86984 0.74541 0.3845 0.0
C263 C 0.9397 0.78098 0.21178 0.0
C264 C 0.95573 0.77 0.44511 0.0
C265 C 0.96805 0.74499 0.44353 0.0
C266 C 0.93452 0.77596 0.39926 0.0
C267 C 0.92593 0.7566 0.34946 0.0
C268 C 0.93815 0.73115 0.34823 0.0
C269 C 0.95896 0.72559 0.39586 0.0
C270 C 0.92171 0.80317 0.40308 0.0
C271 C 0.92969 0.71005 0.29557 0.0
H272 H 0.83695 0.76089 0.27897 0.0
H273 H 0.89566 0.7919 0.13444 0.0
H274 H 0.87991 0.72587 0.39089 0.0
H275 H 0.87651 0.7583 0.42905 0.0
H276 H 0.84797 0.74235 0.38912 0.0
H277 H 0.94151 0.78955 0.15752 0.0
H278 H 0.94861 0.79518 0.2503 0.0
H279 H 0.95159 0.76235 0.21425 0.0
H280 H 0.96327 0.78518 0.48074 0.0
H281 H 0.96853 0.70622 0.39519 0.0
H282 H 0.8998 0.80117 0.40923 0.0
H283 H 0.92537 0.81414 0.35281 0.0
H284 H 0.92954 0.81525 0.44801 0.0
H285 H 0.90812 0.70575 0.30157 0.0
H286 H 0.94099 0.69117 0.30228 0.0
H287 H 0.93278 0.71745 0.24058 0.0
C288 C 0.71234 0.35838 0.7456 0.0
C289 C 0.71149 0.36337 0.6723 0.0
C290 C 0.71825 0.37879 0.79398 0.0
C291 C 0.72433 0.40457 0.76811 0.0
C292 C 0.72384 0.40964 0.69397 0.0
C293 C 0.71694 0.38902 0.64689 0.0
C294 C 0.71774 0.37285 0.87274 0.0
C295 C 0.73095 0.43671 0.66442 0.0
C296 C 0.71797 0.46437 0.89045 0.0
C297 C 0.74416 0.46721 0.91445 0.0
C298 C 0.71107 0.44365 0.84392 0.0
C299 C 0.73119 0.42622 0.81879 0.0
C300 C 0.75784 0.4294 0.84235 0.0
C301 C 0.76393 0.44975 0.89087 0.0
C302 C 0.68232 0.44039 0.82182 0.0
C303 C 0.77995 0.41167 0.81534 0.0
H304 H 0.70782 0.33855 0.76521 0.0
H305 H 0.71642 0.39277 0.59012 0.0
H306 H 0.73778 0.37616 0.89608 0.0
H307 H 0.70378 0.38663 0.90004 0.0
H308 H 0.71154 0.35202 0.88414 0.0
H309 H 0.73047 0.43711 0.60536 0.0
H310 H 0.71688 0.45195 0.68479 0.0
H311 H 0.75121 0.44251 0.68246 0.0
H312 H 0.70297 0.47833 0.9087 0.0
H313 H 0.78423 0.45258 0.90919 0.0
H314 H 0.67539 0.4199 0.83431 0.0
H315 H 0.68039 0.44313 0.76354 0.0
H316 H 0.66898 0.45488 0.84886 0.0
H317 H 0.77584 0.39062 0.82961 0.0
H318 H 0.79971 0.41733 0.8374 0.0
H319 H 0.78092 0.41275 0.75645 0.0
C320 C 0.60457 0.27107 0.33934 0.0
C321 C 0.63025 0.27687 0.31473 0.0
C322 C 0.58434 0.26364 0.2917 0.0
C323 C 0.5898 0.26297 0.21779 0.0
C324 C 0.61564 0.26924 0.19272 0.0
C325 C 0.6357 0.27568 0.2417 0.0
C326 C 0.55719 0.25633 0.32043 0.0
C327 C 0.62198 0.26959 0.11418 0.0
C328 C 0.54468 0.2232 0.09532 0.0
C329 C 0.52712 0.24293 0.07197 0.0
C330 C 0.56519 0.22939 0.14327 0.0
C331 C 0.56839 0.25607 0.16653 0.0
C332 C 0.55094 0.27616 0.14132 0.0
C333 C 0.53008 0.26917 0.09543 0.0
C334 C 0.58293 0.20732 0.17048 0.0
C335 C 0.5542 0.30495 0.16314 0.0
H336 H 0.60048 0.27185 0.39592 0.0
H337 H 0.65554 0.28048 0.22272 0.0
H338 H 0.54199 0.27046 0.30008 0.0
H339 H 0.55148 0.23613 0.30173 0.0
H340 H 0.55659 0.25661 0.37948 0.0
H341 H 0.64292 0.27558 0.10344 0.0
H342 H 0.61857 0.24957 0.09085 0.0
H343 H 0.60846 0.28366 0.08634 0.0
H344 H 0.54173 0.20285 0.07758 0.0
H345 H 0.51597 0.28411 0.07766 0.0
H346 H 0.58146 0.20613 0.22928 0.0
H347 H 0.60404 0.21163 0.15733 0.0
H348 H 0.57756 0.18759 0.14768 0.0
H349 H 0.55097 0.307 0.22123 0.0
H350 H 0.54 0.31831 0.13509 0.0
H351 H 0.57482 0.31176 0.15178 0.0
C352 C 0.20803 0.10174 0.84464 0.0
C353 C 0.21358 0.12839 0.82786 0.0
C354 C 0.21517 0.08108 0.79793 0.0
C355 C 0.2277 0.08735 0.73252 0.0
C356 C 0.23319 0.11421 0.71513 0.0
C357 C 0.22626 0.13437 0.76323 0.0
C358 C 0.20934 0.05258 0.81851 0.0
C359 C 0.24609 0.12168 0.64531 0.0
C360 C 0.26689 0.03377 0.63579 0.0
C361 C 0.24817 0.02484 0.58605 0.0
C362 C 0.26047 0.05403 0.68424 0.0
C363 C 0.23484 0.06585 0.68173 0.0
C364 C 0.21607 0.05723 0.6304 0.0
C365 C 0.22289 0.03655 0.58372 0.0
C366 C 0.28094 0.06257 0.73853 0.0
C367 C 0.18871 0.06963 0.62526 0.0
H368 H 0.19836 0.09699 0.8946 0.0
H369 H 0.23038 0.15496 0.74948 0.0
H370 H 0.19563 0.04344 0.77914 0.0
H371 H 0.22802 0.04073 0.81799 0.0
H372 H 0.20016 0.05102 0.8721 0.0
H373 H 0.2489 0.14356 0.63978 0.0
H374 H 0.26581 0.11185 0.64049 0.0
H375 H 0.23364 0.11454 0.60038 0.0
H376 H 0.28645 0.0246 0.63709 0.0
H377 H 0.20825 0.02906 0.54648 0.0
H378 H 0.27284 0.05984 0.79295 0.0
H379 H 0.28549 0.08408 0.73208 0.0
H380 H 0.29981 0.0511 0.73391 0.0
H381 H 0.17757 0.06619 0.67537 0.0
H382 H 0.17691 0.06138 0.58034 0.0
H383 H 0.19048 0.09152 0.61813 0.0
C384 C 0.39205 0.71285 0.32949 0.0
C385 C 0.36504 0.71587 0.31204 0.0
C386 C 0.4121 0.72096 0.28212 0.0
C387 C 0.40493 0.73194 0.21539 0.0
C388 C 0.37774 0.7349 0.19733 0.0
C389 C 0.35813 0.72703 0.24606 0.0
C390 C 0.44096 0.71781 0.30343 0.0
C391 C 0.36934 0.74612 0.1262 0.0
C392 C 0.45601 0.77376 0.11683 0.0
C393 C 0.4667 0.75508 0.06958 0.0
C394 C 0.43577 0.76656 0.16455 0.0
C395 C 0.4259 0.7401 0.16408 0.0
C396 C 0.43626 0.72134 0.11509 0.0
C397 C 0.45682 0.72901 0.06899 0.0
C398 C 0.42534 0.78707 0.2163 0.0
C399 C 0.42603 0.69304 0.11232 0.0
H400 H 0.39752 0.70438 0.38048 0.0
H401 H 0.3373 0.72922 0.23184 0.0
H402 H 0.45127 0.70436 0.26553 0.0
H403 H 0.45122 0.73739 0.30111 0.0
H404 H 0.44318 0.70955 0.35792 0.0
H405 H 0.34732 0.74702 0.12028 0.0
H406 H 0.37753 0.76651 0.11941 0.0
H407 H 0.37757 0.73367 0.08262 0.0
H408 H 0.46389 0.79388 0.11699 0.0
H409 H 0.46579 0.71443 0.03403 0.0
H410 H 0.42878 0.78019 0.27162 0.0
H411 H 0.40351 0.78951 0.20945 0.0
H412 H 0.43504 0.80681 0.20935 0.0
H413 H 0.43042 0.68281 0.16329 0.0
H414 H 0.43516 0.68141 0.06831 0.0
H415 H 0.40407 0.69297 0.10532 0.0
C416 C 0.77959 0.86085 0.77328 0.0
C417 C 0.7804 0.86545 0.84675 0.0
C418 C 0.7722 0.88111 0.72593 0.0
C419 C 0.76453 0.90629 0.75303 0.0
C420 C 0.7651 0.91098 0.82736 0.0
C421 C 0.77352 0.89058 0.87341 0.0
C422 C 0.7727 0.8756 0.64692 0.0
C423 C 0.75634 0.93735 0.85824 0.0
C424 C 0.76602 0.96618 0.62982 0.0
C425 C 0.73966 0.96689 0.60595 0.0
C426 C 0.77451 0.94636 0.67724 0.0
C427 C 0.75581 0.92759 0.70331 0.0
C428 C 0.72891 0.92876 0.68035 0.0
C429 C 0.72125 0.94827 0.63094 0.0
C430 C 0.80351 0.94527 0.69857 0.0
C431 C 0.70825 0.90954 0.70827 0.0
H432 H 0.7852 0.84143 0.75274 0.0
H433 H 0.774 0.89401 0.93033 0.0
H434 H 0.7523 0.87731 0.62463 0.0
H435 H 0.78527 0.89062 0.61948 0.0
H436 H 0.78052 0.85541 0.63446 0.0
H437 H 0.75744 0.9376 0.91724 0.0
H438 H 0.76899 0.95368 0.83723 0.0
H439 H 0.73552 0.94166 0.8419 0.0
H440 H 0.77997 0.98096 0.61028 0.0
H441 H 0.70079 0.94938 0.61258 0.0
H442 H 0.812 0.92553 0.68442 0.0
H443 H 0.80544 0.94756 0.757 0.0
H444 H 0.81554 0.96104 0.67231 0.0
H445 H 0.7135 0.88888 0.6926 0.0
H446 H 0.68795 0.91408 0.68798 0.0
H447 H 0.70787 0.91019 0.76726 0.0
C448 C 0.86286 0.78344 0.77253 0.0
C449 C 0.86762 0.78386 0.84595 0.0
C450 C 0.88341 0.77782 0.72442 0.0
C451 C 0.9091 0.77158 0.75066 0.0
C452 C 0.91398 0.77181 0.82492 0.0
C453 C 0.89321 0.77845 0.87181 0.0
C454 C 0.87765 0.77864 0.64555 0.0
C455 C 0.94095 0.76453 0.8548 0.0
C456 C 0.95348 0.73166 0.62682 0.0
C457 C 0.97105 0.75128 0.60296 0.0
C458 C 0.93346 0.73788 0.67612 0.0
C459 C 0.93071 0.76452 0.70018 0.0
C460 C 0.9483 0.78449 0.67491 0.0
C461 C 0.96868 0.77744 0.62751 0.0
C462 C 0.91552 0.71594 0.70315 0.0
C463 C 0.94547 0.81324 0.69745 0.0
H464 H 0.84307 0.78795 0.75266 0.0
H465 H 0.89676 0.77867 0.92869 0.0
H466 H 0.8918 0.79233 0.61862 0.0
H467 H 0.88054 0.75856 0.62203 0.0
H468 H 0.85699 0.78531 0.63391 0.0
H469 H 0.94133 0.76522 0.91385 0.0
H470 H 0.94652 0.74415 0.83728 0.0
H471 H 0.95637 0.77835 0.83414 0.0
H472 H 0.95592 0.71138 0.60798 0.0
H473 H 0.98269 0.79233 0.60886 0.0
H474 H 0.89453 0.72018 0.68842 0.0
H475 H 0.91645 0.71506 0.76207 0.0
H476 H 0.92107 0.69611 0.68141 0.0
H477 H 0.92515 0.82053 0.68447 0.0
H478 H 0.96028 0.8264 0.67107 0.0
H479 H 0.94799 0.81498 0.75585 0.0
C480 C 0.71028 0.38858 0.33318 0.0
C481 C 0.71558 0.36187 0.31635 0.0
C482 C 0.71747 0.40919 0.28637 0.0
C483 C 0.72979 0.40286 0.22073 0.0
C484 C 0.73514 0.37595 0.20341 0.0
C485 C 0.72818 0.35581 0.25165 0.0
C486 C 0.71179 0.43772 0.30701 0.0
C487 C 0.74782 0.36839 0.13337 0.0
C488 C 0.72394 0.45391 0.0727 0.0
C489 C 0.74913 0.46587 0.07437 0.0
C490 C 0.71755 0.43298 0.11905 0.0
C491 C 0.73665 0.42434 0.1695 0.0
C492 C 0.7622 0.43636 0.17123 0.0
C493 C 0.7682 0.45687 0.12308 0.0
C494 C 0.69025 0.4204 0.11471 0.0
C495 C 0.78302 0.42785 0.22459 0.0
H496 H 0.70069 0.39341 0.38321 0.0
H497 H 0.73213 0.3352 0.23787 0.0
H498 H 0.73046 0.44958 0.30544 0.0
H499 H 0.69779 0.44679 0.26827 0.0
H500 H 0.70299 0.43936 0.36105 0.0
H501 H 0.75076 0.34652 0.12815 0.0
H502 H 0.73513 0.37532 0.0887 0.0
H503 H 0.76745 0.37836 0.12779 0.0
H504 H 0.70901 0.46144 0.03638 0.0
H505 H 0.78767 0.46621 0.12393 0.0
H506 H 0.67926 0.42392 0.16503 0.0
H507 H 0.6921 0.39851 0.10788 0.0
H508 H 0.67826 0.42849 0.06995 0.0
H509 H 0.77528 0.43068 0.27935 0.0
H510 H 0.80187 0.43928 0.21899 0.0
H511 H 0.78748 0.40632 0.21815 0.0
C512 C 0.10363 0.22108 0.85307 0.0
C513 C 0.12876 0.21358 0.82773 0.0
C514 C 0.0835 0.22908 0.80577 0.0
C515 C 0.08846 0.22857 0.73159 0.0
C516 C 0.11368 0.22044 0.70584 0.0
C517 C 0.13369 0.21348 0.75438 0.0
C518 C 0.05706 0.23836 0.83512 0.0
C519 C 0.11942 0.21879 0.62708 0.0
C520 C 0.02805 0.22485 0.61091 0.0
C521 C 0.02682 0.25092 0.5851 0.0
C522 C 0.04844 0.2171 0.65745 0.0
C523 C 0.06722 0.2363 0.68072 0.0
C524 C 0.06573 0.26285 0.65519 0.0
C525 C 0.04564 0.26975 0.60667 0.0
C526 C 0.04987 0.18843 0.68162 0.0
C527 C 0.08496 0.28402 0.68023 0.0
H528 H 0.09997 0.22131 0.90989 0.0
H529 H 0.15311 0.20739 0.7349 0.0
H530 H 0.05262 0.25876 0.81558 0.0
H531 H 0.04084 0.22514 0.81605 0.0
H532 H 0.05679 0.23855 0.89419 0.0
H533 H 0.13977 0.21114 0.61588 0.0
H534 H 0.10469 0.2055 0.60086 0.0
H535 H 0.11738 0.23877 0.60243 0.0
H536 H 0.01308 0.2106 0.59408 0.0
H537 H 0.04407 0.28999 0.58693 0.0
H538 H 0.04712 0.1873 0.74004 0.0
H539 H 0.06984 0.18007 0.66947 0.0
H540 H 0.0345 0.17578 0.6557 0.0
H541 H 0.08405 0.28575 0.73902 0.0
H542 H 0.0806 0.30385 0.6566 0.0
H543 H 0.10566 0.27834 0.66617 0.0
C544 C 0.28383 0.60316 0.32868 0.0
C545 C 0.27896 0.63002 0.31272 0.0
C546 C 0.27617 0.58288 0.28142 0.0
C547 C 0.26376 0.5897 0.21624 0.0
C548 C 0.25877 0.61675 0.19985 0.0
C549 C 0.26623 0.63657 0.24852 0.0
C550 C 0.28149 0.55417 0.30103 0.0
C551 C 0.24596 0.62478 0.13035 0.0
C552 C 0.26884 0.53872 0.06797 0.0
C553 C 0.24365 0.5268 0.07048 0.0
C554 C 0.27541 0.55975 0.11382 0.0
C555 C 0.2565 0.56852 0.16455 0.0
C556 C 0.23087 0.55668 0.16676 0.0
C557 C 0.22469 0.53606 0.11913 0.0
C558 C 0.30279 0.57214 0.10901 0.0
C559 C 0.21025 0.56537 0.22042 0.0
H560 H 0.29349 0.59795 0.37834 0.0
H561 H 0.26258 0.6573 0.23546 0.0
H562 H 0.26266 0.54258 0.29935 0.0
H563 H 0.29528 0.54509 0.26179 0.0
H564 H 0.29039 0.55217 0.35487 0.0
H565 H 0.24324 0.6467 0.126 0.0
H566 H 0.25846 0.61795 0.0852 0.0
H567 H 0.22622 0.61503 0.12476 0.0
H568 H 0.28367 0.53102 0.03159 0.0
H569 H 0.20521 0.52674 0.12057 0.0
H570 H 0.314 0.56825 0.15879 0.0
H571 H 0.3011 0.59409 0.10312 0.0
H572 H 0.31448 0.56419 0.06352 0.0
H573 H 0.21794 0.56207 0.27505 0.0
H574 H 0.19115 0.55437 0.21438 0.0
H575 H 0.20625 0.58702 0.21488 0.0
C576 C 0.3935 0.7171 0.6424 0.0
C577 C 0.36785 0.71199 0.66831 0.0
C578 C 0.41399 0.72509 0.6887 0.0
C579 C 0.40879 0.72703 0.76261 0.0
C580 C 0.38305 0.72115 0.78905 0.0
C581 C 0.36277 0.71413 0.74137 0.0
C582 C 0.44102 0.73191 0.65849 0.0
C583 C 0.37696 0.72217 0.86771 0.0
C584 C 0.46773 0.7244 0.8888 0.0
C585 C 0.46973 0.75106 0.90954 0.0
C586 C 0.44771 0.71617 0.84166 0.0
C587 C 0.43015 0.7354 0.81252 0.0
C588 C 0.43263 0.76256 0.83229 0.0
C589 C 0.45229 0.77 0.8815 0.0
C590 C 0.44519 0.68694 0.82363 0.0
C591 C 0.41474 0.78372 0.80099 0.0
H592 H 0.3973 0.71558 0.58579 0.0
H593 H 0.34295 0.70985 0.76139 0.0
H594 H 0.44636 0.75271 0.67282 0.0
H595 H 0.45647 0.71873 0.68181 0.0
H596 H 0.44165 0.72989 0.59968 0.0
H597 H 0.35627 0.71567 0.87982 0.0
H598 H 0.39104 0.70921 0.89733 0.0
H599 H 0.37966 0.74277 0.8879 0.0
H600 H 0.48177 0.71006 0.91016 0.0
H601 H 0.45448 0.79068 0.89724 0.0
H602 H 0.44801 0.68392 0.7657 0.0
H603 H 0.42486 0.67979 0.83705 0.0
H604 H 0.45997 0.67452 0.85258 0.0
H605 H 0.41591 0.78319 0.74207 0.0
H606 H 0.42014 0.80406 0.81946 0.0
H607 H 0.39371 0.77975 0.81577 0.0
C608 C 0.7647 0.854 0.26877 0.0
C609 C 0.77629 0.86132 0.20363 0.0
C610 C 0.75648 0.87331 0.318 0.0
C611 C 0.75955 0.90062 0.30131 0.0
C612 C 0.77097 0.9082 0.23545 0.0
C613 C 0.7794 0.88843 0.18757 0.0
C614 C 0.74476 0.86449 0.38816 0.0
C615 C 0.77426 0.93718 0.21559 0.0
C616 C 0.71709 0.95158 0.39835 0.0
C617 C 0.73549 0.96233 0.44632 0.0
C618 C 0.72455 0.93125 0.35118 0.0
C619 C 0.75096 0.9213 0.353 0.0
C620 C 0.76936 0.93156 0.40317 0.0
C621 C 0.76145 0.95222 0.44869 0.0
C622 C 0.70441 0.92091 0.29824 0.0
C623 C 0.79758 0.92122 0.4075 0.0
H624 H 0.76242 0.83309 0.28196 0.0
H625 H 0.78821 0.89423 0.13725 0.0
H626 H 0.75688 0.87249 0.43272 0.0
H627 H 0.72432 0.8726 0.39424 0.0
H628 H 0.74386 0.84243 0.39309 0.0
H629 H 0.78294 0.93974 0.16167 0.0
H630 H 0.75465 0.94741 0.21727 0.0
H631 H 0.7874 0.94728 0.25468 0.0
H632 H 0.69702 0.95956 0.39698 0.0
H633 H 0.77581 0.96115 0.48442 0.0
H634 H 0.70211 0.89902 0.30405 0.0
H635 H 0.71156 0.92474 0.24335 0.0
H636 H 0.68455 0.93041 0.3048 0.0
H637 H 0.79754 0.8992 0.41336 0.0
H638 H 0.80877 0.93001 0.45279 0.0
H639 H 0.80834 0.92594 0.35753 0.0
C640 C 0.63532 0.26217 0.73424 0.0
C641 C 0.62931 0.27502 0.66985 0.0
C642 C 0.61513 0.25467 0.78171 0.0
C643 C 0.58822 0.25978 0.76398 0.0
C644 C 0.58192 0.27231 0.69859 0.0
C645 C 0.60257 0.27999 0.65249 0.0
C646 C 0.62265 0.24174 0.85147 0.0
C647 C 0.55338 0.27775 0.67759 0.0
C648 C 0.53491 0.22048 0.8619 0.0
C649 C 0.52613 0.23921 0.91181 0.0
C650 C 0.555 0.22694 0.81291 0.0
C651 C 0.56673 0.25262 0.81488 0.0
C652 C 0.55809 0.27146 0.86599 0.0
C653 C 0.53762 0.2646 0.91325 0.0
C654 C 0.56353 0.2064 0.75883 0.0
C655 C 0.57033 0.29893 0.87047 0.0
H656 H 0.65593 0.25842 0.74843 0.0
H657 H 0.59777 0.28976 0.6027 0.0
H658 H 0.61561 0.25424 0.89641 0.0
H659 H 0.61275 0.22206 0.85643 0.0
H660 H 0.64452 0.23887 0.85683 0.0
H661 H 0.55178 0.28664 0.62365 0.0
H662 H 0.54169 0.25897 0.67875 0.0
H663 H 0.5441 0.2916 0.71637 0.0
H664 H 0.52583 0.20088 0.86107 0.0
H665 H 0.53015 0.27928 0.95037 0.0
H666 H 0.58504 0.20188 0.76533 0.0
H667 H 0.56078 0.2144 0.70432 0.0
H668 H 0.55208 0.18752 0.76369 0.0
H669 H 0.59222 0.29731 0.8779 0.0
H670 H 0.56196 0.31086 0.91495 0.0
H671 H 0.56689 0.30984 0.82 0.0
C672 C 0.21082 0.13254 0.25696 0.0
C673 C 0.21107 0.12767 0.1836 0.0
C674 C 0.21667 0.1122 0.30555 0.0
C675 C 0.22385 0.08668 0.27985 0.0
C676 C 0.22447 0.08175 0.20565 0.0
C677 C 0.21756 0.10225 0.15828 0.0
C678 C 0.21492 0.11793 0.38431 0.0
C679 C 0.23278 0.05498 0.17636 0.0
C680 C 0.26326 0.04234 0.40496 0.0
C681 C 0.24377 0.02414 0.42607 0.0
C682 C 0.25713 0.06272 0.35662 0.0
C683 C 0.23071 0.06515 0.33075 0.0
C684 C 0.21083 0.047 0.35357 0.0
C685 C 0.2178 0.0263 0.40002 0.0
C686 C 0.279 0.08125 0.33211 0.0
C687 C 0.18228 0.04945 0.32898 0.0
H688 H 0.20548 0.15219 0.27638 0.0
H689 H 0.21788 0.09863 0.10143 0.0
H690 H 0.20105 0.10364 0.41005 0.0
H691 H 0.23473 0.11521 0.40949 0.0
H692 H 0.20791 0.13852 0.39543 0.0
H693 H 0.23307 0.0547 0.11729 0.0
H694 H 0.25297 0.04977 0.19618 0.0
H695 H 0.21894 0.03926 0.1952 0.0
H696 H 0.2834 0.04005 0.42492 0.0
H697 H 0.20302 0.0118 0.41651 0.0
H698 H 0.27399 0.10212 0.34627 0.0
H699 H 0.28082 0.08033 0.27334 0.0
H700 H 0.29862 0.0762 0.35603 0.0
H701 H 0.1746 0.0697 0.34105 0.0
H702 H 0.16905 0.03452 0.35464 0.0
H703 H 0.18117 0.04674 0.27052 0.0
C704 C 0.20196 0.30791 0.9452 0.0
C705 C 0.21013 0.29354 0.00538 0.0
C706 C 0.20316 0.33581 0.94404 0.0
C707 C 0.21297 0.34959 0.00424 0.0
C708 C 0.22055 0.3353 0.06584 0.0
C709 C 0.21893 0.30743 0.06579 0.0
C710 C 0.19467 0.35051 0.87769 0.0
C711 C 0.23126 0.34939 0.13087 0.0
C712 C 0.24527 0.41671 0.97351 0.0
C713 C 0.22521 0.43406 0.9961 0.0
C714 C 0.2415 0.38909 0.97583 0.0
C715 C 0.21699 0.3788 1.00116 0.0
C716 C 0.19661 0.39636 0.02394 0.0
C717 C 0.20106 0.42394 0.0214 0.0
C718 C 0.26377 0.37096 0.9517 0.0
C719 C 0.17021 0.38603 0.05082 0.0
H720 H 0.19488 0.29736 0.89855 0.0
H721 H 0.22528 0.2965 0.11255 0.0
H722 H 0.17997 0.36625 0.89118 0.0
H723 H 0.21217 0.36053 0.85351 0.0
H724 H 0.18569 0.337 0.83744 0.0
H725 H 0.23481 0.33548 0.17585 0.0
H726 H 0.25034 0.35941 0.11757 0.0
H727 H 0.21715 0.36507 0.14851 0.0
H728 H 0.264 0.42488 0.9548 0.0
H729 H 0.18571 0.43769 0.03865 0.0
H730 H 0.25679 0.35811 0.90743 0.0
H731 H 0.26981 0.35761 0.99589 0.0
H732 H 0.28157 0.38226 0.93354 0.0
H733 H 0.16056 0.37357 0.0094 0.0
H734 H 0.15637 0.4024 0.06572 0.0
H735 H 0.17341 0.37313 0.09797 0.0
C736 C 0.18632 0.7162 0.4414 0.0
C737 C 0.20083 0.7076 0.50094 0.0
C738 C 0.15849 0.71838 0.44382 0.0
C739 C 0.14485 0.71152 0.50703 0.0
C740 C 0.15921 0.70177 0.56632 0.0
C741 C 0.18708 0.70006 0.56272 0.0
C742 C 0.14381 0.72904 0.37969 0.0
C743 C 0.14522 0.69393 0.63427 0.0
C744 C 0.07877 0.74571 0.54042 0.0
C745 C 0.06073 0.72611 0.51873 0.0
C746 C 0.10627 0.74111 0.53738 0.0
C747 C 0.11575 0.7162 0.51248 0.0
C748 C 0.09748 0.6962 0.49126 0.0
C749 C 0.07006 0.7015 0.49429 0.0
C750 C 0.12516 0.76302 0.55975 0.0
C751 C 0.1069 0.66935 0.46506 0.0
H752 H 0.19674 0.7221 0.39344 0.0
H753 H 0.19811 0.69315 0.60874 0.0
H754 H 0.12762 0.71517 0.36397 0.0
H755 H 0.13436 0.7484 0.39316 0.0
H756 H 0.1572 0.73208 0.33335 0.0
H757 H 0.15903 0.68473 0.6734 0.0
H758 H 0.13603 0.71181 0.65894 0.0
H759 H 0.12889 0.67964 0.62273 0.0
H760 H 0.07124 0.76477 0.55861 0.0
H761 H 0.05579 0.68648 0.47786 0.0
H762 H 0.13813 0.76865 0.51439 0.0
H763 H 0.13834 0.75587 0.60309 0.0
H764 H 0.11447 0.78111 0.57848 0.0
H765 H 0.1191 0.67189 0.41635 0.0
H766 H 0.09005 0.65571 0.45282 0.0
H767 H 0.11981 0.65983 0.5057 0.0
C768 C 0.77838 0.68312 0.0702 0.0
C769 C 0.78695 0.69785 0.01103 0.0
C770 C 0.77642 0.65529 0.06728 0.0
C771 C 0.78355 0.64182 0.00397 0.0
C772 C 0.79328 0.65641 0.94504 0.0
C773 C 0.7947 0.6843 0.94909 0.0
C774 C 0.76572 0.64039 0.13099 0.0
C775 C 0.80144 0.64262 0.87707 0.0
C776 C 0.79395 0.5671 0.01803 0.0
C777 C 0.76942 0.55758 0.99354 0.0
C778 C 0.79917 0.59456 0.02014 0.0
C779 C 0.77915 0.61268 0.99813 0.0
C780 C 0.75437 0.60298 0.9729 0.0
C781 C 0.74987 0.57544 0.97064 0.0
C782 C 0.82591 0.6042 0.04658 0.0
C783 C 0.73241 0.62167 0.94979 0.0
H784 H 0.77229 0.6934 0.11824 0.0
H785 H 0.80159 0.69551 0.90337 0.0
H786 H 0.74654 0.63068 0.1169 0.0
H787 H 0.77975 0.62438 0.14694 0.0
H788 H 0.76233 0.65369 0.17736 0.0
H789 H 0.81064 0.65659 0.83836 0.0
H790 H 0.81583 0.62639 0.88868 0.0
H791 H 0.78372 0.63333 0.85186 0.0
H792 H 0.80894 0.55297 0.03541 0.0
H793 H 0.73087 0.56774 0.95239 0.0
H794 H 0.82323 0.61617 0.09567 0.0
H795 H 0.83528 0.61739 0.00636 0.0
H796 H 0.83974 0.58747 0.05835 0.0
H797 H 0.72644 0.63456 0.99503 0.0
H798 H 0.71451 0.61083 0.93036 0.0
H799 H 0.73966 0.63495 0.9068 0.0
C800 C 0.8097 0.27681 0.43738 0.0
C801 C 0.7953 0.2851 0.49741 0.0
C802 C 0.83762 0.2763 0.43791 0.0
C803 C 0.85144 0.28455 0.49968 0.0
C804 C 0.83712 0.29389 0.55949 0.0
C805 C 0.80918 0.29392 0.55781 0.0
C806 C 0.85227 0.26601 0.37333 0.0
C807 C 0.85129 0.30312 0.62595 0.0
C808 C 0.91962 0.25449 0.53019 0.0
C809 C 0.93629 0.27491 0.50634 0.0
C810 C 0.8919 0.25749 0.52885 0.0
C811 C 0.88078 0.28161 0.50333 0.0
C812 C 0.89767 0.30244 0.47977 0.0
C813 C 0.92538 0.29874 0.48119 0.0
C814 C 0.87453 0.23472 0.55367 0.0
C815 C 0.88647 0.32848 0.45277 0.0
H816 H 0.79917 0.26994 0.39048 0.0
H817 H 0.79821 0.30062 0.60415 0.0
H818 H 0.8674 0.28071 0.35565 0.0
H819 H 0.86304 0.24739 0.38716 0.0
H820 H 0.83863 0.26176 0.32817 0.0
H821 H 0.83734 0.31174 0.66565 0.0
H822 H 0.86184 0.28606 0.65081 0.0
H823 H 0.86655 0.31832 0.61246 0.0
H824 H 0.9284 0.23602 0.54878 0.0
H825 H 0.93861 0.31438 0.46291 0.0
H826 H 0.86148 0.22797 0.50953 0.0
H827 H 0.86136 0.24146 0.5975 0.0
H828 H 0.88641 0.21743 0.57265 0.0
H829 H 0.87399 0.32483 0.40504 0.0
H830 H 0.90238 0.34296 0.43867 0.0
H831 H 0.87341 0.33757 0.49373 0.0
C832 C 0.70478 0.18194 0.43619 0.0
C833 C 0.70983 0.19678 0.49806 0.0
C834 C 0.70489 0.15398 0.43755 0.0
C835 C 0.71029 0.14059 0.50217 0.0
C836 C 0.71495 0.15538 0.56498 0.0
C837 C 0.7146 0.18328 0.56222 0.0
C838 C 0.69969 0.13876 0.36963 0.0
C839 C 0.72087 0.14173 0.63485 0.0
C840 C 0.69204 0.06763 0.52354 0.0
C841 C 0.71668 0.05546 0.51194 0.0
C842 C 0.68949 0.09543 0.5195 0.0
C843 C 0.71224 0.1111 0.50373 0.0
C844 C 0.73717 0.09865 0.49149 0.0
C845 C 0.73905 0.07085 0.4958 0.0
C846 C 0.66263 0.10804 0.53276 0.0
C847 C 0.76186 0.11469 0.47478 0.0
H848 H 0.70091 0.19215 0.38646 0.0
H849 H 0.71851 0.1945 0.61037 0.0
H850 H 0.71761 0.127 0.35504 0.0
H851 H 0.6831 0.12443 0.37749 0.0
H852 H 0.69459 0.15214 0.32456 0.0
H853 H 0.72311 0.15613 0.67936 0.0
H854 H 0.70466 0.12755 0.64825 0.0
H855 H 0.73955 0.13001 0.63024 0.0
H856 H 0.67493 0.0553 0.53603 0.0
H857 H 0.75799 0.06098 0.48705 0.0
H858 H 0.65679 0.12053 0.48662 0.0
H859 H 0.66375 0.12137 0.57976 0.0
H860 H 0.6468 0.09295 0.54218 0.0
H861 H 0.75844 0.12718 0.42696 0.0
H862 H 0.77954 0.10184 0.46521 0.0
H863 H 0.76639 0.12838 0.51955 0.0
C864 C 0.30854 0.21449 0.94257 0.0
C865 C 0.29482 0.20575 0.00329 0.0
C866 C 0.33643 0.21552 0.94132 0.0
C867 C 0.35096 0.20734 1.00196 0.0
C868 C 0.33735 0.19753 0.06242 0.0
C869 C 0.30939 0.19699 0.06255 0.0
C870 C 0.35029 0.22632 0.87608 0.0
C871 C 0.3523 0.18832 0.12766 0.0
C872 C 0.42492 0.19488 0.97647 0.0
C873 C 0.43563 0.21889 1.00107 0.0
C874 C 0.39731 0.19049 0.97786 0.0
C875 C 0.38028 0.21084 0.00364 0.0
C876 C 0.39119 0.23512 0.02876 0.0
C877 C 0.41884 0.23879 0.02734 0.0
C878 C 0.38635 0.16429 0.95127 0.0
C879 C 0.37366 0.2574 0.05583 0.0
H880 H 0.29748 0.22132 0.89652 0.0
H881 H 0.29896 0.18997 0.10942 0.0
H882 H 0.36087 0.24507 0.88975 0.0
H883 H 0.36548 0.21195 0.85693 0.0
H884 H 0.33615 0.23052 0.83199 0.0
H885 H 0.33888 0.17924 0.16793 0.0
H886 H 0.36775 0.17352 0.11273 0.0
H887 H 0.36271 0.2055 0.1524 0.0
H888 H 0.43824 0.17962 0.9564 0.0
H889 H 0.42744 0.2574 0.04558 0.0
H890 H 0.37338 0.16777 0.9044 0.0
H891 H 0.37383 0.15488 0.99293 0.0
H892 H 0.40239 0.15014 0.93592 0.0
H893 H 0.36002 0.26411 0.01295 0.0
H894 H 0.3854 0.27482 0.07459 0.0
H895 H 0.36109 0.25016 0.10035 0.0
C896 C 0.27854 0.80686 0.56517 0.0
C897 C 0.28699 0.79355 0.50356 0.0
C898 C 0.27664 0.83471 0.56679 0.0
C899 C 0.28367 0.84954 0.50565 0.0
C900 C 0.29336 0.83634 0.44443 0.0
C901 C 0.29475 0.80844 0.44394 0.0
C902 C 0.26598 0.84816 0.63282 0.0
C903 C 0.30141 0.85162 0.37866 0.0
C904 C 0.24958 0.91602 0.47922 0.0
C905 C 0.26917 0.93369 0.50301 0.0
C906 C 0.25412 0.88851 0.47965 0.0
C907 C 0.27896 0.87866 0.50397 0.0
C908 C 0.29892 0.89656 0.52752 0.0
C909 C 0.29367 0.92401 0.52717 0.0
C910 C 0.23224 0.87 0.45491 0.0
C911 C 0.3257 0.88673 0.55308 0.0
H912 H 0.27248 0.79549 0.61143 0.0
H913 H 0.3016 0.79829 0.39643 0.0
H914 H 0.2798 0.86409 0.65058 0.0
H915 H 0.24658 0.85777 0.62067 0.0
H916 H 0.26303 0.83391 0.67735 0.0
H917 H 0.31074 0.83857 0.33792 0.0
H918 H 0.28361 0.86124 0.35484 0.0
H919 H 0.31565 0.86772 0.39269 0.0
H920 H 0.2306 0.92386 0.46132 0.0
H921 H 0.30865 0.93803 0.54534 0.0
H922 H 0.22668 0.85616 0.49848 0.0
H923 H 0.23941 0.85767 0.40981 0.0
H924 H 0.21411 0.88096 0.43769 0.0
H925 H 0.32305 0.87359 0.59998 0.0
H926 H 0.33925 0.90335 0.56793 0.0
H927 H 0.33539 0.87465 0.51096 0.0
C928 C 0.68666 0.78136 0.94464 0.0
C929 C 0.69996 0.78391 0.00999 0.0
C930 C 0.65877 0.78088 0.94132 0.0
C931 C 0.64383 0.78312 0.00481 0.0
C932 C 0.65702 0.78645 0.07068 0.0
C933 C 0.68495 0.78677 0.07253 0.0
C934 C 0.64529 0.77726 0.87011 0.0
C935 C 0.64165 0.78902 0.1394 0.0
C936 C 0.57037 0.80026 0.99114 0.0
C937 C 0.55888 0.77503 0.9973 0.0
C938 C 0.59815 0.80331 0.99368 0.0
C939 C 0.61443 0.78048 0.00269 0.0
C940 C 0.60266 0.75492 0.00915 0.0
C941 C 0.57489 0.75254 0.00625 0.0
C942 C 0.61006 0.83082 0.98651 0.0
C943 C 0.61937 0.73014 0.01888 0.0
H944 H 0.69804 0.7792 0.89598 0.0
H945 H 0.695 0.78896 0.12323 0.0
H946 H 0.6342 0.75812 0.8695 0.0
H947 H 0.63057 0.79342 0.8611 0.0
H948 H 0.65974 0.77722 0.82535 0.0
H949 H 0.65487 0.79298 0.18562 0.0
H950 H 0.62688 0.80541 0.13533 0.0
H951 H 0.63039 0.77037 0.14967 0.0
H952 H 0.55755 0.81745 0.98415 0.0
H953 H 0.5655 0.73315 0.0109 0.0
H954 H 0.62347 0.83152 0.93966 0.0
H955 H 0.62232 0.83552 0.03399 0.0
H956 H 0.59456 0.84648 0.98042 0.0
H957 H 0.63314 0.72776 0.97316 0.0
H958 H 0.60701 0.71184 0.0235 0.0
H959 H 0.63179 0.73203 0.06744 0.0
loop_
_geom_bond_atom_site_label_1
_geom_bond_atom_site_label_2
_geom_bond_distance
_geom_bond_site_symmetry_2
_ccdc_geom_bond_type
Sc0 O3 2.026 . S
Sc0 O10 2.105 . S
Sc0 O13 2.105 . S
Sc0 O16 2.105 . S
Sc0 O19 2.105 . S
Sc1 O3 2.025 . S
Sc1 O11 2.105 . S
Sc1 O15 2.105 1_554 S
Sc1 O17 2.105 . S
Sc1 O21 2.105 1_554 S
Sc2 O3 2.024 1_556 S
Sc2 O12 2.105 . S
Sc2 O14 2.105 . S
Sc2 O18 2.105 . S
Sc2 O20 2.105 . S
O3 Sc0 2.026 . S
O3 Sc1 2.025 . S
O3 Sc2 2.024 1_554 S
C4 O10 1.270 . S
C4 O20 1.266 1_554 S
C5 O11 1.268 . S
C5 O19 1.268 . S
C6 O12 1.268 . S
C6 O21 1.268 . S
C7 O13 1.268 . S
C7 O17 1.268 . S
C8 O14 1.266 1_554 S
C8 O16 1.270 . S
C9 O15 1.268 . S
C9 O18 1.268 . S
O10 Sc0 2.105 . S
O10 C4 1.270 . S
O11 Sc1 2.105 . S
O11 C5 1.268 . S
O12 Sc2 2.105 . S
O12 C6 1.268 . S
O13 Sc0 2.105 . S
O13 C7 1.268 . S
O14 Sc2 2.105 . S
O14 C8 1.266 1_556 S
O15 Sc1 2.105 1_556 S
O15 C9 1.268 . S
O16 Sc0 2.105 . S
O16 C8 1.270 . S
O17 Sc1 2.105 . S
O17 C7 1.268 . S
O18 Sc2 2.105 . S
O18 C9 1.268 . S
O19 Sc0 2.105 . S
O19 C5 1.268 . S
O20 Sc2 2.105 . S
O20 C4 1.266 1_556 S
O21 Sc1 2.105 1_556 S
O21 C6 1.268 . S
Sc22 O25 2.025 . S
Sc22 O32 2.105 . S
Sc22 O35 2.105 . S
Sc22 O38 2.105 . S
Sc22 O41 2.105 . S
Sc23 O25 2.025 . S
Sc23 O33 2.105 . S
Sc23 O37 2.105 . S
Sc23 O39 2.105 . S
Sc23 O43 2.105 . S
Sc24 O25 2.025 . S
Sc24 O34 2.105 . S
Sc24 O36 2.105 . S
Sc24 O40 2.105 . S
Sc24 O42 2.105 . S
O25 Sc22 2.025 . S
O25 Sc23 2.025 . S
O25 Sc24 2.025 . S
C26 O32 1.268 . S
C26 O42 1.268 . S
C27 O33 1.268 . S
C27 O41 1.268 . S
C28 O34 1.268 . S
C28 O43 1.268 . S
C29 O35 1.268 . S
C29 O39 1.268 . S
C30 O36 1.268 . S
C30 O38 1.268 . S
C31 O37 1.268 . S
C31 O40 1.268 . S
O32 Sc22 2.105 . S
O32 C26 1.268 . S
O33 Sc23 2.105 . S
O33 C27 1.268 . S
O34 Sc24 2.105 . S
O34 C28 1.268 . S
O35 Sc22 2.105 . S
O35 C29 1.268 . S
O36 Sc24 2.105 . S
O36 C30 1.268 . S
O37 Sc23 2.105 . S
O37 C31 1.268 . S
O38 Sc22 2.105 . S
O38 C30 1.268 . S
O39 Sc23 2.105 . S
O39 C29 1.268 . S
O40 Sc24 2.105 . S
O40 C31 1.268 . S
O41 Sc22 2.105 . S
O41 C27 1.268 . S
O42 Sc24 2.105 . S
O42 C26 1.268 . S
O43 Sc23 2.105 . S
O43 C28 1.268 . S
Sc44 O47 2.020 1_556 S
Sc44 O54 2.105 . S
Sc44 O57 2.105 . S
Sc44 O60 2.105 . S
Sc44 O63 2.105 . S
Sc45 O47 2.025 . S
Sc45 O55 2.100 1_554 S
Sc45 O59 2.110 . S
Sc45 O61 2.100 1_554 S
Sc45 O65 2.110 . S
Sc46 O47 2.031 . S
Sc46 O56 2.105 . S
Sc46 O58 2.105 . S
Sc46 O62 2.105 . S
Sc46 O64 2.105 . S
O47 Sc44 2.020 1_554 S
O47 Sc45 2.025 . S
O47 Sc46 2.031 . S
C48 O54 1.264 1_554 S
C48 O64 1.272 . S
C49 O55 1.268 . S
C49 O63 1.268 . S
C50 O56 1.268 . S
C50 O65 1.268 . S
C51 O57 1.268 . S
C51 O61 1.268 . S
C52 O58 1.272 . S
C52 O60 1.264 1_554 S
C53 O59 1.268 . S
C53 O62 1.268 . S
O54 Sc44 2.105 . S
O54 C48 1.264 1_556 S
O55 Sc45 2.100 1_556 S
O55 C49 1.268 . S
O56 Sc46 2.105 . S
O56 C50 1.268 . S
O57 Sc44 2.105 . S
O57 C51 1.268 . S
O58 Sc46 2.105 . S
O58 C52 1.272 . S
O59 Sc45 2.110 . S
O59 C53 1.268 . S
O60 Sc44 2.105 . S
O60 C52 1.264 1_556 S
O61 Sc45 2.100 1_556 S
O61 C51 1.268 . S
O62 Sc46 2.105 . S
O62 C53 1.268 . S
O63 Sc44 2.105 . S
O63 C49 1.268 . S
O64 Sc46 2.105 . S
O64 C48 1.272 . S
O65 Sc45 2.110 . S
O65 C50 1.268 . S
Sc66 O69 2.025 . S
Sc66 O76 2.105 . S
Sc66 O79 2.105 . S
Sc66 O82 2.105 . S
Sc66 O85 2.105 . S
Sc67 O69 2.025 . S
Sc67 O77 2.105 . S
Sc67 O81 2.105 . S
Sc67 O83 2.105 . S
Sc67 O87 2.105 . S
Sc68 O69 2.025 . S
Sc68 O78 2.105 . S
Sc68 O80 2.105 . S
Sc68 O84 2.105 . S
Sc68 O86 2.105 . S
O69 Sc66 2.025 . S
O69 Sc67 2.025 . S
O69 Sc68 2.025 . S
C70 O76 1.268 . S
C70 O86 1.268 . S
C71 O77 1.268 . S
C71 O85 1.268 . S
C72 O78 1.268 . S
C72 O87 1.268 . S
C73 O79 1.268 . S
C73 O83 1.268 . S
C74 O80 1.268 . S
C74 O82 1.268 . S
C75 O81 1.268 . S
C75 O84 1.268 . S
O76 Sc66 2.105 . S
O76 C70 1.268 . S
O77 Sc67 2.105 . S
O77 C71 1.268 . S
O78 Sc68 2.105 . S
O78 C72 1.268 . S
O79 Sc66 2.105 . S
O79 C73 1.268 . S
O80 Sc68 2.105 . S
O80 C74 1.268 . S
O81 Sc67 2.105 . S
O81 C75 1.268 . S
O82 Sc66 2.105 . S
O82 C74 1.268 . S
O83 Sc67 2.105 . S
O83 C73 1.268 . S
O84 Sc68 2.105 . S
O84 C75 1.268 . S
O85 Sc66 2.105 . S
O85 C71 1.268 . S
O86 Sc68 2.105 . S
O86 C70 1.268 . S
O87 Sc67 2.105 . S
O87 C72 1.268 . S
C88 N89 1.317 . S
C88 N90 1.361 . S
C88 C91 1.485 . S
N89 C88 1.317 . S
N89 N93 1.370 1_556 S
N90 C88 1.361 . S
N90 C92 1.334 1_556 S
C91 C88 1.485 . S
C91 H95 0.960 . S
C91 H96 0.961 . S
C91 H97 0.960 . S
C92 N90 1.334 1_554 S
C92 N93 1.307 . S
C92 C94 1.486 . S
N93 N89 1.370 1_554 S
N93 C92 1.307 . S
C94 C92 1.486 . S
C94 H98 0.960 . S
C94 H99 0.960 . S
C94 H100 0.959 . S
H95 C91 0.960 . S
H96 C91 0.961 . S
H97 C91 0.960 . S
H98 C94 0.960 . S
H99 C94 0.960 . S
H100 C94 0.959 . S
C101 N102 1.317 1_455 S
C101 N103 1.348 . S
C101 C104 1.485 . S
N102 C101 1.317 1_655 S
N102 N106 1.370 . S
N103 C101 1.348 . S
N103 C105 1.346 . S
C104 C101 1.485 . S
C104 H108 0.960 . S
C104 H109 0.961 . S
C104 H110 0.960 1_455 S
C105 N103 1.346 . S
C105 N106 1.307 1_455 S
C105 C107 1.486 . S
N106 N102 1.370 . S
N106 C105 1.307 1_655 S
C107 C105 1.486 . S
C107 H111 0.960 . S
C107 H112 0.960 . S
C107 H113 0.959 1_455 S
H108 C104 0.960 . S
H109 C104 0.961 . S
H110 C104 0.960 1_655 S
H111 C107 0.960 . S
H112 C107 0.960 . S
H113 C107 0.959 1_655 S
C114 N115 1.317 . S
C114 N116 1.348 . S
C114 C117 1.485 . S
N115 C114 1.317 . S
N115 N119 1.370 1_554 S
N116 C114 1.348 . S
N116 C118 1.346 1_554 S
C117 C114 1.485 . S
C117 H121 0.960 . S
C117 H122 0.961 . S
C117 H123 0.960 . S
C118 N116 1.346 1_556 S
C118 N119 1.307 . S
C118 C120 1.486 . S
N119 N115 1.370 1_556 S
N119 C118 1.307 . S
C120 C118 1.486 . S
C120 H124 0.960 . S
C120 H125 0.960 . S
C120 H126 0.959 . S
H121 C117 0.960 . S
H122 C117 0.961 . S
H123 C117 0.960 . S
H124 C120 0.960 . S
H125 C120 0.960 . S
H126 C120 0.959 . S
C127 N128 1.317 1_655 S
C127 N129 1.348 . S
C127 C130 1.485 . S
N128 C127 1.317 1_455 S
N128 N132 1.370 . S
N129 C127 1.348 . S
N129 C131 1.346 . S
C130 C127 1.485 . S
C130 H134 0.960 . S
C130 H135 0.961 . S
C130 H136 0.945 1_655 S
C131 N129 1.346 . S
C131 N132 1.307 1_655 S
C131 C133 1.486 . S
N132 N128 1.370 . S
N132 C131 1.307 1_455 S
C133 C131 1.486 . S
C133 H137 0.960 . S
C133 H138 0.960 . S
C133 H139 0.959 1_655 S
H134 C130 0.960 . S
H135 C130 0.961 . S
H136 C130 0.945 1_455 S
H137 C133 0.960 . S
H138 C133 0.960 . S
H139 C133 0.959 1_455 S
C140 N141 1.317 1_545 S
C140 N142 1.348 . S
C140 C143 1.485 . S
N141 C140 1.317 1_565 S
N141 N145 1.370 . S
N142 C140 1.348 . S
N142 C144 1.346 . S
C143 C140 1.485 . S
C143 H147 0.960 . S
C143 H148 0.961 . S
C143 H149 0.945 1_545 S
C144 N142 1.346 . S
C144 N145 1.307 1_545 S
C144 C146 1.486 . S
N145 N141 1.370 . S
N145 C144 1.307 1_565 S
C146 C144 1.486 . S
C146 H150 0.960 . S
C146 H151 0.960 . S
C146 H152 0.959 1_545 S
H147 C143 0.960 . S
H148 C143 0.961 . S
H149 C143 0.945 1_565 S
H150 C146 0.960 . S
H151 C146 0.960 . S
H152 C146 0.959 1_565 S
C153 N154 1.317 . S
C153 N155 1.361 . S
C153 C156 1.485 . S
N154 C153 1.317 . S
N154 N158 1.370 1_556 S
N155 C153 1.361 . S
N155 C157 1.334 1_556 S
C156 C153 1.485 . S
C156 H160 0.960 . S
C156 H161 0.961 . S
C156 H162 0.960 . S
C157 N155 1.334 1_554 S
C157 N158 1.307 . S
C157 C159 1.486 . S
N158 N154 1.370 1_554 S
N158 C157 1.307 . S
C159 C157 1.486 . S
C159 H163 0.960 . S
C159 H164 0.960 . S
C159 H165 0.959 . S
H160 C156 0.960 . S
H161 C156 0.961 . S
H162 C156 0.960 . S
H163 C159 0.960 . S
H164 C159 0.960 . S
H165 C159 0.959 . S
C166 N167 1.317 1_565 S
C166 N168 1.348 . S
C166 C169 1.485 . S
N167 C166 1.317 1_545 S
N167 N171 1.370 . S
N168 C166 1.348 . S
N168 C170 1.346 . S
C169 C166 1.485 . S
C169 H173 0.960 . S
C169 H174 0.961 . S
C169 H175 0.960 1_565 S
C170 N168 1.346 . S
C170 N171 1.307 1_565 S
C170 C172 1.486 . S
N171 N167 1.370 . S
N171 C170 1.307 1_545 S
C172 C170 1.486 . S
C172 H176 0.960 . S
C172 H177 0.960 . S
C172 H178 0.959 1_565 S
H173 C169 0.960 . S
H174 C169 0.961 . S
H175 C169 0.960 1_545 S
H176 C172 0.960 . S
H177 C172 0.960 . S
H178 C172 0.959 1_545 S
C179 N180 1.317 . S
C179 N181 1.348 . S
C179 C182 1.485 . S
N180 C179 1.317 . S
N180 N184 1.370 1_554 S
N181 C179 1.348 . S
N181 C183 1.346 1_554 S
C182 C179 1.485 . S
C182 H186 0.960 . S
C182 H187 0.961 . S
C182 H188 0.960 . S
C183 N181 1.346 1_556 S
C183 N184 1.307 . S
C183 C185 1.486 . S
N184 N180 1.370 1_556 S
N184 C183 1.307 . S
C185 C183 1.486 . S
C185 H189 0.960 . S
C185 H190 0.960 . S
C185 H191 0.959 . S
H186 C182 0.960 . S
H187 C182 0.961 . S
H188 C182 0.960 . S
H189 C185 0.960 . S
H190 C185 0.960 . S
H191 C185 0.959 . S
C192 C193 1.391 . S
C192 C194 1.394 . S
C192 H208 0.931 . S
C193 C192 1.391 . S
C193 C197 1.376 . S
C194 C192 1.394 . S
C194 C195 1.369 . S
C194 C198 1.531 . S
C195 C194 1.369 . S
C195 C196 1.410 . S
C195 C203 1.503 . S
C196 C195 1.410 . S
C196 C197 1.392 . S
C196 C199 1.511 . S
C197 C193 1.376 . S
C197 C196 1.392 . S
C197 H209 0.929 . S
C198 C194 1.531 . S
C198 H210 0.960 . S
C198 H211 0.962 . S
C198 H212 0.960 . S
C199 C196 1.511 . S
C199 H213 0.961 . S
C199 H214 0.961 . S
C199 H215 0.961 . S
C200 C201 1.370 . S
C200 C202 1.363 . S
C200 H216 0.931 . S
C201 C200 1.370 . S
C201 C205 1.408 . S
C202 C200 1.363 . S
C202 C203 1.370 . S
C202 C206 1.524 . S
C203 C195 1.503 . S
C203 C202 1.370 . S
C203 C204 1.403 . S
C204 C203 1.403 . S
C204 C205 1.404 . S
C204 C207 1.539 . S
C205 C201 1.408 . S
C205 C204 1.404 . S
C205 H217 0.930 . S
C206 C202 1.524 . S
C206 H218 0.956 . S
C206 H219 0.961 . S
C206 H220 0.961 . S
C207 C204 1.539 . S
C207 H221 0.958 . S
C207 H222 0.961 . S
C207 H223 0.960 . S
H208 C192 0.931 . S
H209 C197 0.929 . S
H210 C198 0.960 . S
H211 C198 0.962 . S
H212 C198 0.960 . S
H213 C199 0.961 . S
H214 C199 0.961 . S
H215 C199 0.961 . S
H216 C200 0.931 . S
H217 C205 0.930 . S
H218 C206 0.956 . S
H219 C206 0.961 . S
H220 C206 0.961 . S
H221 C207 0.958 . S
H222 C207 0.961 . S
H223 C207 0.960 . S
C224 C225 1.391 . S
C224 C226 1.394 . S
C224 H240 0.931 . S
C225 C224 1.391 . S
C225 C229 1.376 . S
C226 C224 1.394 . S
C226 C227 1.369 . S
C226 C230 1.531 . S
C227 C226 1.369 . S
C227 C228 1.410 . S
C227 C235 1.503 . S
C228 C227 1.410 . S
C228 C229 1.392 . S
C228 C231 1.511 . S
C229 C225 1.376 . S
C229 C228 1.392 . S
C229 H241 0.929 . S
C230 C226 1.531 . S
C230 H242 0.960 . S
C230 H243 0.962 . S
C230 H244 0.960 . S
C231 C228 1.511 . S
C231 H245 0.961 . S
C231 H246 0.961 . S
C231 H247 0.961 . S
C232 C233 1.370 . S
C232 C234 1.363 . S
C232 H248 0.931 . S
C233 C232 1.370 . S
C233 C237 1.408 . S
C234 C232 1.363 . S
C234 C235 1.370 . S
C234 C238 1.524 . S
C235 C227 1.503 . S
C235 C234 1.370 . S
C235 C236 1.403 . S
C236 C235 1.403 . S
C236 C237 1.404 . S
C236 C239 1.539 . S
C237 C233 1.408 . S
C237 C236 1.404 . S
C237 H249 0.930 . S
C238 C234 1.524 . S
C238 H250 0.956 . S
C238 H251 0.961 . S
C238 H252 0.961 . S
C239 C236 1.539 . S
C239 H253 0.958 . S
C239 H254 0.961 . S
C239 H255 0.960 . S
H240 C224 0.931 . S
H241 C229 0.929 . S
H242 C230 0.960 . S
H243 C230 0.962 . S
H244 C230 0.960 . S
H245 C231 0.961 . S
H246 C231 0.961 . S
H247 C231 0.961 . S
H248 C232 0.931 . S
H249 C237 0.930 . S
H250 C238 0.956 . S
H251 C238 0.961 . S
H252 C238 0.961 . S
H253 C239 0.958 . S
H254 C239 0.961 . S
H255 C239 0.960 . S
C256 C257 1.391 . S
C256 C258 1.394 . S
C256 H272 0.931 . S
C257 C256 1.391 . S
C257 C261 1.376 . S
C258 C256 1.394 . S
C258 C259 1.369 . S
C258 C262 1.531 . S
C259 C258 1.369 . S
C259 C260 1.410 . S
C259 C267 1.503 . S
C260 C259 1.410 . S
C260 C261 1.392 . S
C260 C263 1.511 . S
C261 C257 1.376 . S
C261 C260 1.392 . S
C261 H273 0.929 . S
C262 C258 1.531 . S
C262 H274 0.960 . S
C262 H275 0.962 . S
C262 H276 0.960 . S
C263 C260 1.511 . S
C263 H277 0.961 . S
C263 H278 0.961 . S
C263 H279 0.961 . S
C264 C265 1.370 . S
C264 C266 1.363 . S
C264 H280 0.931 . S
C265 C264 1.370 . S
C265 C269 1.408 . S
C266 C264 1.363 . S
C266 C267 1.370 . S
C266 C270 1.524 . S
C267 C259 1.503 . S
C267 C266 1.370 . S
C267 C268 1.403 . S
C268 C267 1.403 . S
C268 C269 1.404 . S
C268 C271 1.539 . S
C269 C265 1.408 . S
C269 C268 1.404 . S
C269 H281 0.930 . S
C270 C266 1.524 . S
C270 H282 0.956 . S
C270 H283 0.961 . S
C270 H284 0.961 . S
C271 C268 1.539 . S
C271 H285 0.958 . S
C271 H286 0.961 . S
C271 H287 0.960 . S
H272 C256 0.931 . S
H273 C261 0.929 . S
H274 C262 0.960 . S
H275 C262 0.962 . S
H276 C262 0.960 . S
H277 C263 0.961 . S
H278 C263 0.961 . S
H279 C263 0.961 . S
H280 C264 0.931 . S
H281 C269 0.930 . S
H282 C270 0.956 . S
H283 C270 0.961 . S
H284 C270 0.961 . S
H285 C271 0.958 . S
H286 C271 0.961 . S
H287 C271 0.960 . S
C288 C289 1.391 . S
C288 C290 1.394 . S
C288 H304 0.931 . S
C289 C288 1.391 . S
C289 C293 1.376 . S
C290 C288 1.394 . S
C290 C291 1.369 . S
C290 C294 1.531 . S
C291 C290 1.369 . S
C291 C292 1.410 . S
C291 C299 1.503 . S
C292 C291 1.410 . S
C292 C293 1.392 . S
C292 C295 1.511 . S
C293 C289 1.376 . S
C293 C292 1.392 . S
C293 H305 0.929 . S
C294 C290 1.531 . S
C294 H306 0.960 . S
C294 H307 0.962 . S
C294 H308 0.960 . S
C295 C292 1.511 . S
C295 H309 0.961 . S
C295 H310 0.961 . S
C295 H311 0.961 . S
C296 C297 1.370 . S
C296 C298 1.363 . S
C296 H312 0.931 . S
C297 C296 1.370 . S
C297 C301 1.408 . S
C298 C296 1.363 . S
C298 C299 1.370 . S
C298 C302 1.524 . S
C299 C291 1.503 . S
C299 C298 1.370 . S
C299 C300 1.403 . S
C300 C299 1.403 . S
C300 C301 1.404 . S
C300 C303 1.539 . S
C301 C297 1.408 . S
C301 C300 1.404 . S
C301 H313 0.930 . S
C302 C298 1.524 . S
C302 H314 0.956 . S
C302 H315 0.961 . S
C302 H316 0.961 . S
C303 C300 1.539 . S
C303 H317 0.958 . S
C303 H318 0.961 . S
C303 H319 0.960 . S
H304 C288 0.931 . S
H305 C293 0.929 . S
H306 C294 0.960 . S
H307 C294 0.962 . S
H308 C294 0.960 . S
H309 C295 0.961 . S
H310 C295 0.961 . S
H311 C295 0.961 . S
H312 C296 0.931 . S
H313 C301 0.930 . S
H314 C302 0.956 . S
H315 C302 0.961 . S
H316 C302 0.961 . S
H317 C303 0.958 . S
H318 C303 0.961 . S
H319 C303 0.960 . S
C320 C321 1.391 . S
C320 C322 1.394 . S
C320 H336 0.931 . S
C321 C320 1.391 . S
C321 C325 1.376 . S
C322 C320 1.394 . S
C322 C323 1.369 . S
C322 C326 1.531 . S
C323 C322 1.369 . S
C323 C324 1.410 . S
C323 C331 1.503 . S
C324 C323 1.410 . S
C324 C325 1.392 . S
C324 C327 1.511 . S
C325 C321 1.376 . S
C325 C324 1.392 . S
C325 H337 0.929 . S
C326 C322 1.531 . S
C326 H338 0.960 . S
C326 H339 0.962 . S
C326 H340 0.960 . S
C327 C324 1.511 . S
C327 H341 0.961 . S
C327 H342 0.961 . S
C327 H343 0.961 . S
C328 C329 1.370 . S
C328 C330 1.363 . S
C328 H344 0.931 . S
C329 C328 1.370 . S
C329 C333 1.408 . S
C330 C328 1.363 . S
C330 C331 1.370 . S
C330 C334 1.524 . S
C331 C323 1.503 . S
C331 C330 1.370 . S
C331 C332 1.403 . S
C332 C331 1.403 . S
C332 C333 1.404 . S
C332 C335 1.539 . S
C333 C329 1.408 . S
C333 C332 1.404 . S
C333 H345 0.930 . S
C334 C330 1.524 . S
C334 H346 0.956 . S
C334 H347 0.961 . S
C334 H348 0.961 . S
C335 C332 1.539 . S
C335 H349 0.958 . S
C335 H350 0.961 . S
C335 H351 0.960 . S
H336 C320 0.931 . S
H337 C325 0.929 . S
H338 C326 0.960 . S
H339 C326 0.962 . S
H340 C326 0.960 . S
H341 C327 0.961 . S
H342 C327 0.961 . S
H343 C327 0.961 . S
H344 C328 0.931 . S
H345 C333 0.930 . S
H346 C334 0.956 . S
H347 C334 0.961 . S
H348 C334 0.961 . S
H349 C335 0.958 . S
H350 C335 0.961 . S
H351 C335 0.960 . S
C352 C353 1.391 . S
C352 C354 1.394 . S
C352 H368 0.931 . S
C353 C352 1.391 . S
C353 C357 1.376 . S
C354 C352 1.394 . S
C354 C355 1.369 . S
C354 C358 1.531 . S
C355 C354 1.369 . S
C355 C356 1.410 . S
C355 C363 1.503 . S
C356 C355 1.410 . S
C356 C357 1.392 . S
C356 C359 1.511 . S
C357 C353 1.376 . S
C357 C356 1.392 . S
C357 H369 0.929 . S
C358 C354 1.531 . S
C358 H370 0.960 . S
C358 H371 0.962 . S
C358 H372 0.960 . S
C359 C356 1.511 . S
C359 H373 0.961 . S
C359 H374 0.961 . S
C359 H375 0.961 . S
C360 C361 1.370 . S
C360 C362 1.363 . S
C360 H376 0.931 . S
C361 C360 1.370 . S
C361 C365 1.408 . S
C362 C360 1.363 . S
C362 C363 1.370 . S
C362 C366 1.524 . S
C363 C355 1.503 . S
C363 C362 1.370 . S
C363 C364 1.403 . S
C364 C363 1.403 . S
C364 C365 1.404 . S
C364 C367 1.539 . S
C365 C361 1.408 . S
C365 C364 1.404 . S
C365 H377 0.930 . S
C366 C362 1.524 . S
C366 H378 0.956 . S
C366 H379 0.961 . S
C366 H380 0.961 . S
C367 C364 1.539 . S
C367 H381 0.958 . S
C367 H382 0.961 . S
C367 H383 0.960 . S
H368 C352 0.931 . S
H369 C357 0.929 . S
H370 C358 0.960 . S
H371 C358 0.962 . S
H372 C358 0.960 . S
H373 C359 0.961 . S
H374 C359 0.961 . S
H375 C359 0.961 . S
H376 C360 0.931 . S
H377 C365 0.930 . S
H378 C366 0.956 . S
H379 C366 0.961 . S
H380 C366 0.961 . S
H381 C367 0.958 . S
H382 C367 0.961 . S
H383 C367 0.960 . S
C384 C385 1.391 . S
C384 C386 1.394 . S
C384 H400 0.931 . S
C385 C384 1.391 . S
C385 C389 1.376 . S
C386 C384 1.394 . S
C386 C387 1.369 . S
C386 C390 1.531 . S
C387 C386 1.369 . S
C387 C388 1.410 . S
C387 C395 1.503 . S
C388 C387 1.410 . S
C388 C389 1.392 . S
C388 C391 1.511 . S
C389 C385 1.376 . S
C389 C388 1.392 . S
C389 H401 0.929 . S
C390 C386 1.531 . S
C390 H402 0.960 . S
C390 H403 0.962 . S
C390 H404 0.960 . S
C391 C388 1.511 . S
C391 H405 0.961 . S
C391 H406 0.961 . S
C391 H407 0.961 . S
C392 C393 1.370 . S
C392 C394 1.363 . S
C392 H408 0.931 . S
C393 C392 1.370 . S
C393 C397 1.408 . S
C394 C392 1.363 . S
C394 C395 1.370 . S
C394 C398 1.524 . S
C395 C387 1.503 . S
C395 C394 1.370 . S
C395 C396 1.403 . S
C396 C395 1.403 . S
C396 C397 1.404 . S
C396 C399 1.539 . S
C397 C393 1.408 . S
C397 C396 1.404 . S
C397 H409 0.930 . S
C398 C394 1.524 . S
C398 H410 0.956 . S
C398 H411 0.961 . S
C398 H412 0.961 . S
C399 C396 1.539 . S
C399 H413 0.958 . S
C399 H414 0.961 . S
C399 H415 0.960 . S
H400 C384 0.931 . S
H401 C389 0.929 . S
H402 C390 0.960 . S
H403 C390 0.962 . S
H404 C390 0.960 . S
H405 C391 0.961 . S
H406 C391 0.961 . S
H407 C391 0.961 . S
H408 C392 0.931 . S
H409 C397 0.930 . S
H410 C398 0.956 . S
H411 C398 0.961 . S
H412 C398 0.961 . S
H413 C399 0.958 . S
H414 C399 0.961 . S
H415 C399 0.960 . S
C416 C417 1.391 . S
C416 C418 1.394 . S
C416 H432 0.931 . S
C417 C416 1.391 . S
C417 C421 1.376 . S
C418 C416 1.394 . S
C418 C419 1.369 . S
C418 C422 1.531 . S
C419 C418 1.369 . S
C419 C420 1.410 . S
C419 C427 1.503 . S
C420 C419 1.410 . S
C420 C421 1.392 . S
C420 C423 1.511 . S
C421 C417 1.376 . S
C421 C420 1.392 . S
C421 H433 0.929 . S
C422 C418 1.531 . S
C422 H434 0.960 . S
C422 H435 0.962 . S
C422 H436 0.960 . S
C423 C420 1.511 . S
C423 H437 0.961 . S
C423 H438 0.961 . S
C423 H439 0.961 . S
C424 C425 1.370 . S
C424 C426 1.363 . S
C424 H440 0.931 . S
C425 C424 1.370 . S
C425 C429 1.408 . S
C426 C424 1.363 . S
C426 C427 1.370 . S
C426 C430 1.524 . S
C427 C419 1.503 . S
C427 C426 1.370 . S
C427 C428 1.403 . S
C428 C427 1.403 . S
C428 C429 1.404 . S
C428 C431 1.539 . S
C429 C425 1.408 . S
C429 C428 1.404 . S
C429 H441 0.930 . S
C430 C426 1.524 . S
C430 H442 0.956 . S
C430 H443 0.961 . S
C430 H444 0.961 . S
C431 C428 1.539 . S
C431 H445 0.958 . S
C431 H446 0.961 . S
C431 H447 0.960 . S
H432 C416 0.931 . S
H433 C421 0.929 . S
H434 C422 0.960 . S
H435 C422 0.962 . S
H436 C422 0.960 . S
H437 C423 0.961 . S
H438 C423 0.961 . S
H439 C423 0.961 . S
H440 C424 0.931 . S
H441 C429 0.930 . S
H442 C430 0.956 . S
H443 C430 0.961 . S
H444 C430 0.961 . S
H445 C431 0.958 . S
H446 C431 0.961 . S
H447 C431 0.960 . S
C448 C449 1.391 . S
C448 C450 1.394 . S
C448 H464 0.931 . S
C449 C448 1.391 . S
C449 C453 1.376 . S
C450 C448 1.394 . S
C450 C451 1.369 . S
C450 C454 1.531 . S
C451 C450 1.369 . S
C451 C452 1.410 . S
C451 C459 1.503 . S
C452 C451 1.410 . S
C452 C453 1.392 . S
C452 C455 1.511 . S
C453 C449 1.376 . S
C453 C452 1.392 . S
C453 H465 0.929 . S
C454 C450 1.531 . S
C454 H466 0.960 . S
C454 H467 0.962 . S
C454 H468 0.960 . S
C455 C452 1.511 . S
C455 H469 0.961 . S
C455 H470 0.961 . S
C455 H471 0.961 . S
C456 C457 1.370 . S
C456 C458 1.363 . S
C456 H472 0.931 . S
C457 C456 1.370 . S
C457 C461 1.408 . S
C458 C456 1.363 . S
C458 C459 1.370 . S
C458 C462 1.524 . S
C459 C451 1.503 . S
C459 C458 1.370 . S
C459 C460 1.403 . S
C460 C459 1.403 . S
C460 C461 1.404 . S
C460 C463 1.539 . S
C461 C457 1.408 . S
C461 C460 1.404 . S
C461 H473 0.930 . S
C462 C458 1.524 . S
C462 H474 0.956 . S
C462 H475 0.961 . S
C462 H476 0.961 . S
C463 C460 1.539 . S
C463 H477 0.958 . S
C463 H478 0.961 . S
C463 H479 0.960 . S
H464 C448 0.931 . S
H465 C453 0.929 . S
H466 C454 0.960 . S
H467 C454 0.962 . S
H468 C454 0.960 . S
H469 C455 0.961 . S
H470 C455 0.961 . S
H471 C455 0.961 . S
H472 C456 0.931 . S
H473 C461 0.930 . S
H474 C462 0.956 . S
H475 C462 0.961 . S
H476 C462 0.961 . S
H477 C463 0.958 . S
H478 C463 0.961 . S
H479 C463 0.960 . S
C480 C481 1.391 . S
C480 C482 1.394 . S
C480 H496 0.931 . S
C481 C480 1.391 . S
C481 C485 1.376 . S
C482 C480 1.394 . S
C482 C483 1.369 . S
C482 C486 1.531 . S
C483 C482 1.369 . S
C483 C484 1.410 . S
C483 C491 1.503 . S
C484 C483 1.410 . S
C484 C485 1.392 . S
C484 C487 1.511 . S
C485 C481 1.376 . S
C485 C484 1.392 . S
C485 H497 0.929 . S
C486 C482 1.531 . S
C486 H498 0.960 . S
C486 H499 0.962 . S
C486 H500 0.960 . S
C487 C484 1.511 . S
C487 H501 0.961 . S
C487 H502 0.961 . S
C487 H503 0.961 . S
C488 C489 1.370 . S
C488 C490 1.363 . S
C488 H504 0.931 . S
C489 C488 1.370 . S
C489 C493 1.408 . S
C490 C488 1.363 . S
C490 C491 1.370 . S
C490 C494 1.524 . S
C491 C483 1.503 . S
C491 C490 1.370 . S
C491 C492 1.403 . S
C492 C491 1.403 . S
C492 C493 1.404 . S
C492 C495 1.539 . S
C493 C489 1.408 . S
C493 C492 1.404 . S
C493 H505 0.930 . S
C494 C490 1.524 . S
C494 H506 0.956 . S
C494 H507 0.961 . S
C494 H508 0.961 . S
C495 C492 1.539 . S
C495 H509 0.958 . S
C495 H510 0.961 . S
C495 H511 0.960 . S
H496 C480 0.931 . S
H497 C485 0.929 . S
H498 C486 0.960 . S
H499 C486 0.962 . S
H500 C486 0.960 . S
H501 C487 0.961 . S
H502 C487 0.961 . S
H503 C487 0.961 . S
H504 C488 0.931 . S
H505 C493 0.930 . S
H506 C494 0.956 . S
H507 C494 0.961 . S
H508 C494 0.961 . S
H509 C495 0.958 . S
H510 C495 0.961 . S
H511 C495 0.960 . S
C512 C513 1.391 . S
C512 C514 1.394 . S
C512 H528 0.931 . S
C513 C512 1.391 . S
C513 C517 1.376 . S
C514 C512 1.394 . S
C514 C515 1.369 . S
C514 C518 1.531 . S
C515 C514 1.369 . S
C515 C516 1.410 . S
C515 C523 1.503 . S
C516 C515 1.410 . S
C516 C517 1.392 . S
C516 C519 1.511 . S
C517 C513 1.376 . S
C517 C516 1.392 . S
C517 H529 0.929 . S
C518 C514 1.531 . S
C518 H530 0.960 . S
C518 H531 0.962 . S
C518 H532 0.960 . S
C519 C516 1.511 . S
C519 H533 0.961 . S
C519 H534 0.961 . S
C519 H535 0.961 . S
C520 C521 1.370 . S
C520 C522 1.363 . S
C520 H536 0.931 . S
C521 C520 1.370 . S
C521 C525 1.408 . S
C522 C520 1.363 . S
C522 C523 1.370 . S
C522 C526 1.524 . S
C523 C515 1.503 . S
C523 C522 1.370 . S
C523 C524 1.403 . S
C524 C523 1.403 . S
C524 C525 1.404 . S
C524 C527 1.539 . S
C525 C521 1.408 . S
C525 C524 1.404 . S
C525 H537 0.930 . S
C526 C522 1.524 . S
C526 H538 0.956 . S
C526 H539 0.961 . S
C526 H540 0.961 . S
C527 C524 1.539 . S
C527 H541 0.958 . S
C527 H542 0.961 . S
C527 H543 0.960 . S
H528 C512 0.931 . S
H529 C517 0.929 . S
H530 C518 0.960 . S
H531 C518 0.962 . S
H532 C518 0.960 . S
H533 C519 0.961 . S
H534 C519 0.961 . S
H535 C519 0.961 . S
H536 C520 0.931 . S
H537 C525 0.930 . S
H538 C526 0.956 . S
H539 C526 0.961 . S
H540 C526 0.961 . S
H541 C527 0.958 . S
H542 C527 0.961 . S
H543 C527 0.960 . S
C544 C545 1.391 . S
C544 C546 1.394 . S
C544 H560 0.931 . S
C545 C544 1.391 . S
C545 C549 1.376 . S
C546 C544 1.394 . S
C546 C547 1.369 . S
C546 C550 1.531 . S
C547 C546 1.369 . S
C547 C548 1.410 . S
C547 C555 1.503 . S
C548 C547 1.410 . S
C548 C549 1.392 . S
C548 C551 1.511 . S
C549 C545 1.376 . S
C549 C548 1.392 . S
C549 H561 0.929 . S
C550 C546 1.531 . S
C550 H562 0.960 . S
C550 H563 0.962 . S
C550 H564 0.960 . S
C551 C548 1.511 . S
C551 H565 0.961 . S
C551 H566 0.961 . S
C551 H567 0.961 . S
C552 C553 1.370 . S
C552 C554 1.363 . S
C552 H568 0.931 . S
C553 C552 1.370 . S
C553 C557 1.408 . S
C554 C552 1.363 . S
C554 C555 1.370 . S
C554 C558 1.524 . S
C555 C547 1.503 . S
C555 C554 1.370 . S
C555 C556 1.403 . S
C556 C555 1.403 . S
C556 C557 1.404 . S
C556 C559 1.539 . S
C557 C553 1.408 . S
C557 C556 1.404 . S
C557 H569 0.930 . S
C558 C554 1.524 . S
C558 H570 0.956 . S
C558 H571 0.961 . S
C558 H572 0.961 . S
C559 C556 1.539 . S
C559 H573 0.958 . S
C559 H574 0.961 . S
C559 H575 0.960 . S
H560 C544 0.931 . S
H561 C549 0.929 . S
H562 C550 0.960 . S
H563 C550 0.962 . S
H564 C550 0.960 . S
H565 C551 0.961 . S
H566 C551 0.961 . S
H567 C551 0.961 . S
H568 C552 0.931 . S
H569 C557 0.930 . S
H570 C558 0.956 . S
H571 C558 0.961 . S
H572 C558 0.961 . S
H573 C559 0.958 . S
H574 C559 0.961 . S
H575 C559 0.960 . S
C576 C577 1.391 . S
C576 C578 1.394 . S
C576 H592 0.931 . S
C577 C576 1.391 . S
C577 C581 1.376 . S
C578 C576 1.394 . S
C578 C579 1.369 . S
C578 C582 1.531 . S
C579 C578 1.369 . S
C579 C580 1.410 . S
C579 C587 1.503 . S
C580 C579 1.410 . S
C580 C581 1.392 . S
C580 C583 1.511 . S
C581 C577 1.376 . S
C581 C580 1.392 . S
C581 H593 0.929 . S
C582 C578 1.531 . S
C582 H594 0.960 . S
C582 H595 0.962 . S
C582 H596 0.960 . S
C583 C580 1.511 . S
C583 H597 0.961 . S
C583 H598 0.961 . S
C583 H599 0.961 . S
C584 C585 1.370 . S
C584 C586 1.363 . S
C584 H600 0.931 . S
C585 C584 1.370 . S
C585 C589 1.408 . S
C586 C584 1.363 . S
C586 C587 1.370 . S
C586 C590 1.524 . S
C587 C579 1.503 . S
C587 C586 1.370 . S
C587 C588 1.403 . S
C588 C587 1.403 . S
C588 C589 1.404 . S
C588 C591 1.539 . S
C589 C585 1.408 . S
C589 C588 1.404 . S
C589 H601 0.930 . S
C590 C586 1.524 . S
C590 H602 0.956 . S
C590 H603 0.961 . S
C590 H604 0.961 . S
C591 C588 1.539 . S
C591 H605 0.958 . S
C591 H606 0.961 . S
C591 H607 0.960 . S
H592 C576 0.931 . S
H593 C581 0.929 . S
H594 C582 0.960 . S
H595 C582 0.962 . S
H596 C582 0.960 . S
H597 C583 0.961 . S
H598 C583 0.961 . S
H599 C583 0.961 . S
H600 C584 0.931 . S
H601 C589 0.930 . S
H602 C590 0.956 . S
H603 C590 0.961 . S
H604 C590 0.961 . S
H605 C591 0.958 . S
H606 C591 0.961 . S
H607 C591 0.960 . S
C608 C609 1.391 . S
C608 C610 1.394 . S
C608 H624 0.931 . S
C609 C608 1.391 . S
C609 C613 1.376 . S
C610 C608 1.394 . S
C610 C611 1.369 . S
C610 C614 1.531 . S
C611 C610 1.369 . S
C611 C612 1.410 . S
C611 C619 1.503 . S
C612 C611 1.410 . S
C612 C613 1.392 . S
C612 C615 1.511 . S
C613 C609 1.376 . S
C613 C612 1.392 . S
C613 H625 0.929 . S
C614 C610 1.531 . S
C614 H626 0.960 . S
C614 H627 0.962 . S
C614 H628 0.960 . S
C615 C612 1.511 . S
C615 H629 0.961 . S
C615 H630 0.961 . S
C615 H631 0.961 . S
C616 C617 1.370 . S
C616 C618 1.363 . S
C616 H632 0.931 . S
C617 C616 1.370 . S
C617 C621 1.408 . S
C618 C616 1.363 . S
C618 C619 1.370 . S
C618 C622 1.524 . S
C619 C611 1.503 . S
C619 C618 1.370 . S
C619 C620 1.403 . S
C620 C619 1.403 . S
C620 C621 1.404 . S
C620 C623 1.539 . S
C621 C617 1.408 . S
C621 C620 1.404 . S
C621 H633 0.930 . S
C622 C618 1.524 . S
C622 H634 0.956 . S
C622 H635 0.961 . S
C622 H636 0.961 . S
C623 C620 1.539 . S
C623 H637 0.958 . S
C623 H638 0.961 . S
C623 H639 0.960 . S
H624 C608 0.931 . S
H625 C613 0.929 . S
H626 C614 0.960 . S
H627 C614 0.962 . S
H628 C614 0.960 . S
H629 C615 0.961 . S
H630 C615 0.961 . S
H631 C615 0.961 . S
H632 C616 0.931 . S
H633 C621 0.930 . S
H634 C622 0.956 . S
H635 C622 0.961 . S
H636 C622 0.961 . S
H637 C623 0.958 . S
H638 C623 0.961 . S
H639 C623 0.960 . S
C640 C641 1.391 . S
C640 C642 1.394 . S
C640 H656 0.931 . S
C641 C640 1.391 . S
C641 C645 1.376 . S
C642 C640 1.394 . S
C642 C643 1.369 . S
C642 C646 1.531 . S
C643 C642 1.369 . S
C643 C644 1.410 . S
C643 C651 1.503 . S
C644 C643 1.410 . S
C644 C645 1.392 . S
C644 C647 1.511 . S
C645 C641 1.376 . S
C645 C644 1.392 . S
C645 H657 0.929 . S
C646 C642 1.531 . S
C646 H658 0.960 . S
C646 H659 0.962 . S
C646 H660 0.960 . S
C647 C644 1.511 . S
C647 H661 0.961 . S
C647 H662 0.961 . S
C647 H663 0.961 . S
C648 C649 1.370 . S
C648 C650 1.363 . S
C648 H664 0.931 . S
C649 C648 1.370 . S
C649 C653 1.408 . S
C650 C648 1.363 . S
C650 C651 1.370 . S
C650 C654 1.524 . S
C651 C643 1.503 . S
C651 C650 1.370 . S
C651 C652 1.403 . S
C652 C651 1.403 . S
C652 C653 1.404 . S
C652 C655 1.539 . S
C653 C649 1.408 . S
C653 C652 1.404 . S
C653 H665 0.930 . S
C654 C650 1.524 . S
C654 H666 0.956 . S
C654 H667 0.961 . S
C654 H668 0.961 . S
C655 C652 1.539 . S
C655 H669 0.958 . S
C655 H670 0.961 . S
C655 H671 0.960 . S
H656 C640 0.931 . S
H657 C645 0.929 . S
H658 C646 0.960 . S
H659 C646 0.962 . S
H660 C646 0.960 . S
H661 C647 0.961 . S
H662 C647 0.961 . S
H663 C647 0.961 . S
H664 C648 0.931 . S
H665 C653 0.930 . S
H666 C654 0.956 . S
H667 C654 0.961 . S
H668 C654 0.961 . S
H669 C655 0.958 . S
H670 C655 0.961 . S
H671 C655 0.960 . S
C672 C673 1.391 . S
C672 C674 1.394 . S
C672 H688 0.931 . S
C673 C672 1.391 . S
C673 C677 1.376 . S
C674 C672 1.394 . S
C674 C675 1.369 . S
C674 C678 1.531 . S
C675 C674 1.369 . S
C675 C676 1.410 . S
C675 C683 1.503 . S
C676 C675 1.410 . S
C676 C677 1.392 . S
C676 C679 1.511 . S
C677 C673 1.376 . S
C677 C676 1.392 . S
C677 H689 0.929 . S
C678 C674 1.531 . S
C678 H690 0.960 . S
C678 H691 0.962 . S
C678 H692 0.960 . S
C679 C676 1.511 . S
C679 H693 0.961 . S
C679 H694 0.961 . S
C679 H695 0.961 . S
C680 C681 1.370 . S
C680 C682 1.363 . S
C680 H696 0.931 . S
C681 C680 1.370 . S
C681 C685 1.408 . S
C682 C680 1.363 . S
C682 C683 1.370 . S
C682 C686 1.524 . S
C683 C675 1.503 . S
C683 C682 1.370 . S
C683 C684 1.403 . S
C684 C683 1.403 . S
C684 C685 1.404 . S
C684 C687 1.539 . S
C685 C681 1.408 . S
C685 C684 1.404 . S
C685 H697 0.930 . S
C686 C682 1.524 . S
C686 H698 0.956 . S
C686 H699 0.961 . S
C686 H700 0.961 . S
C687 C684 1.539 . S
C687 H701 0.958 . S
C687 H702 0.961 . S
C687 H703 0.960 . S
H688 C672 0.931 . S
H689 C677 0.929 . S
H690 C678 0.960 . S
H691 C678 0.962 . S
H692 C678 0.960 . S
H693 C679 0.961 . S
H694 C679 0.961 . S
H695 C679 0.961 . S
H696 C680 0.931 . S
H697 C685 0.930 . S
H698 C686 0.956 . S
H699 C686 0.961 . S
H700 C686 0.961 . S
H701 C687 0.958 . S
H702 C687 0.961 . S
H703 C687 0.960 . S
C704 C705 1.391 . S
C704 C706 1.394 . S
C704 H720 0.931 . S
C705 C704 1.391 . S
C705 C709 1.376 1_556 S
C706 C704 1.394 . S
C706 C707 1.369 . S
C706 C710 1.531 . S
C707 C706 1.369 . S
C707 C708 1.410 1_556 S
C707 C715 1.503 . S
C708 C707 1.410 1_554 S
C708 C709 1.392 . S
C708 C711 1.511 . S
C709 C705 1.376 1_554 S
C709 C708 1.392 . S
C709 H721 0.929 . S
C710 C706 1.531 . S
C710 H722 0.960 . S
C710 H723 0.962 . S
C710 H724 0.960 . S
C711 C708 1.511 . S
C711 H725 0.961 . S
C711 H726 0.961 . S
C711 H727 0.961 . S
C712 C713 1.367 1_554 S
C712 C714 1.363 . S
C712 H728 0.931 . S
C713 C712 1.367 1_556 S
C713 C717 1.412 . S
C714 C712 1.363 . S
C714 C715 1.370 1_554 S
C714 C718 1.524 . S
C715 C707 1.503 . S
C715 C714 1.370 1_556 S
C715 C716 1.403 . S
C716 C715 1.403 . S
C716 C717 1.404 . S
C716 C719 1.539 . S
C717 C713 1.412 . S
C717 C716 1.404 . S
C717 H729 0.930 . S
C718 C714 1.524 . S
C718 H730 0.956 . S
C718 H731 0.961 . S
C718 H732 0.961 . S
C719 C716 1.539 . S
C719 H733 0.958 . S
C719 H734 0.961 . S
C719 H735 0.960 . S
H720 C704 0.931 . S
H721 C709 0.929 . S
H722 C710 0.960 . S
H723 C710 0.962 . S
H724 C710 0.960 . S
H725 C711 0.961 . S
H726 C711 0.961 . S
H727 C711 0.961 . S
H728 C712 0.931 . S
H729 C717 0.930 . S
H730 C718 0.956 . S
H731 C718 0.961 . S
H732 C718 0.961 . S
H733 C719 0.958 . S
H734 C719 0.961 . S
H735 C719 0.960 . S
C736 C737 1.391 . S
C736 C738 1.394 . S
C736 H752 0.931 . S
C737 C736 1.391 . S
C737 C741 1.376 . S
C738 C736 1.394 . S
C738 C739 1.369 . S
C738 C742 1.531 . S
C739 C738 1.369 . S
C739 C740 1.410 . S
C739 C747 1.503 . S
C740 C739 1.410 . S
C740 C741 1.392 . S
C740 C743 1.511 . S
C741 C737 1.376 . S
C741 C740 1.392 . S
C741 H753 0.929 . S
C742 C738 1.531 . S
C742 H754 0.960 . S
C742 H755 0.962 . S
C742 H756 0.960 . S
C743 C740 1.511 . S
C743 H757 0.961 . S
C743 H758 0.961 . S
C743 H759 0.961 . S
C744 C745 1.370 . S
C744 C746 1.363 . S
C744 H760 0.931 . S
C745 C744 1.370 . S
C745 C749 1.408 . S
C746 C744 1.363 . S
C746 C747 1.370 . S
C746 C750 1.524 . S
C747 C739 1.503 . S
C747 C746 1.370 . S
C747 C748 1.403 . S
C748 C747 1.403 . S
C748 C749 1.404 . S
C748 C751 1.539 . S
C749 C745 1.408 . S
C749 C748 1.404 . S
C749 H761 0.930 . S
C750 C746 1.524 . S
C750 H762 0.956 . S
C750 H763 0.961 . S
C750 H764 0.961 . S
C751 C748 1.539 . S
C751 H765 0.958 . S
C751 H766 0.961 . S
C751 H767 0.960 . S
H752 C736 0.931 . S
H753 C741 0.929 . S
H754 C742 0.960 . S
H755 C742 0.962 . S
H756 C742 0.960 . S
H757 C743 0.961 . S
H758 C743 0.961 . S
H759 C743 0.961 . S
H760 C744 0.931 . S
H761 C749 0.930 . S
H762 C750 0.956 . S
H763 C750 0.961 . S
H764 C750 0.961 . S
H765 C751 0.958 . S
H766 C751 0.961 . S
H767 C751 0.960 . S
C768 C769 1.391 1_554 S
C768 C770 1.394 . S
C768 H784 0.931 . S
C769 C768 1.391 1_556 S
C769 C773 1.376 . S
C770 C768 1.394 . S
C770 C771 1.369 1_554 S
C770 C774 1.531 . S
C771 C770 1.369 1_556 S
C771 C772 1.410 . S
C771 C779 1.503 . S
C772 C771 1.410 . S
C772 C773 1.392 . S
C772 C775 1.511 . S
C773 C769 1.376 . S
C773 C772 1.392 . S
C773 H785 0.929 . S
C774 C770 1.531 . S
C774 H786 0.960 1_554 S
C774 H787 0.962 . S
C774 H788 0.960 1_554 S
C775 C772 1.511 . S
C775 H789 0.961 . S
C775 H790 0.961 . S
C775 H791 0.961 . S
C776 C777 1.370 1_554 S
C776 C778 1.363 . S
C776 H792 0.931 . S
C777 C776 1.370 1_556 S
C777 C781 1.408 . S
C778 C776 1.363 . S
C778 C779 1.370 1_554 S
C778 C782 1.524 . S
C779 C771 1.503 . S
C779 C778 1.370 1_556 S
C779 C780 1.403 . S
C780 C779 1.403 . S
C780 C781 1.404 . S
C780 C783 1.539 . S
C781 C777 1.408 . S
C781 C780 1.404 . S
C781 H793 0.930 . S
C782 C778 1.524 . S
C782 H794 0.956 . S
C782 H795 0.961 . S
C782 H796 0.961 . S
C783 C780 1.539 . S
C783 H797 0.958 . S
C783 H798 0.961 . S
C783 H799 0.960 . S
H784 C768 0.931 . S
H785 C773 0.929 . S
H786 C774 0.960 1_556 S
H787 C774 0.962 . S
H788 C774 0.960 1_556 S
H789 C775 0.961 . S
H790 C775 0.961 . S
H791 C775 0.961 . S
H792 C776 0.931 . S
H793 C781 0.930 . S
H794 C782 0.956 . S
H795 C782 0.961 . S
H796 C782 0.961 . S
H797 C783 0.958 . S
H798 C783 0.961 . S
H799 C783 0.960 . S
C800 C801 1.391 . S
C800 C802 1.394 . S
C800 H816 0.931 . S
C801 C800 1.391 . S
C801 C805 1.376 . S
C802 C800 1.394 . S
C802 C803 1.369 . S
C802 C806 1.531 . S
C803 C802 1.369 . S
C803 C804 1.410 . S
C803 C811 1.503 . S
C804 C803 1.410 . S
C804 C805 1.392 . S
C804 C807 1.511 . S
C805 C801 1.376 . S
C805 C804 1.392 . S
C805 H817 0.929 . S
C806 C802 1.531 . S
C806 H818 0.960 . S
C806 H819 0.962 . S
C806 H820 0.960 . S
C807 C804 1.511 . S
C807 H821 0.961 . S
C807 H822 0.961 . S
C807 H823 0.961 . S
C808 C809 1.370 . S
C808 C810 1.363 . S
C808 H824 0.931 . S
C809 C808 1.370 . S
C809 C813 1.408 . S
C810 C808 1.363 . S
C810 C811 1.370 . S
C810 C814 1.524 . S
C811 C803 1.503 . S
C811 C810 1.370 . S
C811 C812 1.403 . S
C812 C811 1.403 . S
C812 C813 1.404 . S
C812 C815 1.539 . S
C813 C809 1.408 . S
C813 C812 1.404 . S
C813 H825 0.930 . S
C814 C810 1.524 . S
C814 H826 0.956 . S
C814 H827 0.961 . S
C814 H828 0.961 . S
C815 C812 1.539 . S
C815 H829 0.958 . S
C815 H830 0.961 . S
C815 H831 0.960 . S
H816 C800 0.931 . S
H817 C805 0.929 . S
H818 C806 0.960 . S
H819 C806 0.962 . S
H820 C806 0.960 . S
H821 C807 0.961 . S
H822 C807 0.961 . S
H823 C807 0.961 . S
H824 C808 0.931 . S
H825 C813 0.930 . S
H826 C814 0.956 . S
H827 C814 0.961 . S
H828 C814 0.961 . S
H829 C815 0.958 . S
H830 C815 0.961 . S
H831 C815 0.960 . S
C832 C833 1.391 . S
C832 C834 1.394 . S
C832 H848 0.931 . S
C833 C832 1.391 . S
C833 C837 1.376 . S
C834 C832 1.394 . S
C834 C835 1.369 . S
C834 C838 1.531 . S
C835 C834 1.369 . S
C835 C836 1.410 . S
C835 C843 1.503 . S
C836 C835 1.410 . S
C836 C837 1.392 . S
C836 C839 1.511 . S
C837 C833 1.376 . S
C837 C836 1.392 . S
C837 H849 0.929 . S
C838 C834 1.531 . S
C838 H850 0.960 . S
C838 H851 0.962 . S
C838 H852 0.960 . S
C839 C836 1.511 . S
C839 H853 0.961 . S
C839 H854 0.961 . S
C839 H855 0.961 . S
C840 C841 1.370 . S
C840 C842 1.363 . S
C840 H856 0.931 . S
C841 C840 1.370 . S
C841 C845 1.408 . S
C842 C840 1.363 . S
C842 C843 1.370 . S
C842 C846 1.524 . S
C843 C835 1.503 . S
C843 C842 1.370 . S
C843 C844 1.403 . S
C844 C843 1.403 . S
C844 C845 1.404 . S
C844 C847 1.539 . S
C845 C841 1.408 . S
C845 C844 1.404 . S
C845 H857 0.930 . S
C846 C842 1.524 . S
C846 H858 0.956 . S
C846 H859 0.961 . S
C846 H860 0.961 . S
C847 C844 1.539 . S
C847 H861 0.958 . S
C847 H862 0.961 . S
C847 H863 0.960 . S
H848 C832 0.931 . S
H849 C837 0.929 . S
H850 C838 0.960 . S
H851 C838 0.962 . S
H852 C838 0.960 . S
H853 C839 0.961 . S
H854 C839 0.961 . S
H855 C839 0.961 . S
H856 C840 0.931 . S
H857 C845 0.930 . S
H858 C846 0.956 . S
H859 C846 0.961 . S
H860 C846 0.961 . S
H861 C847 0.958 . S
H862 C847 0.961 . S
H863 C847 0.960 . S
C864 C865 1.391 1_556 S
C864 C866 1.394 . S
C864 H880 0.931 . S
C865 C864 1.391 1_554 S
C865 C869 1.376 . S
C866 C864 1.394 . S
C866 C867 1.369 1_556 S
C866 C870 1.531 . S
C867 C866 1.369 1_554 S
C867 C868 1.410 . S
C867 C875 1.503 . S
C868 C867 1.410 . S
C868 C869 1.392 . S
C868 C871 1.511 . S
C869 C865 1.376 . S
C869 C868 1.392 . S
C869 H881 0.929 . S
C870 C866 1.531 . S
C870 H882 0.960 . S
C870 H883 0.962 . S
C870 H884 0.960 . S
C871 C868 1.511 . S
C871 H885 0.961 . S
C871 H886 0.961 . S
C871 H887 0.961 . S
C872 C873 1.370 1_556 S
C872 C874 1.363 . S
C872 H888 0.931 . S
C873 C872 1.370 1_554 S
C873 C877 1.408 . S
C874 C872 1.363 . S
C874 C875 1.370 1_556 S
C874 C878 1.524 . S
C875 C867 1.503 . S
C875 C874 1.370 1_554 S
C875 C876 1.403 . S
C876 C875 1.403 . S
C876 C877 1.404 . S
C876 C879 1.539 . S
C877 C873 1.408 . S
C877 C876 1.404 . S
C877 H889 0.930 . S
C878 C874 1.524 . S
C878 H890 0.956 . S
C878 H891 0.961 . S
C878 H892 0.961 . S
C879 C876 1.539 . S
C879 H893 0.958 . S
C879 H894 0.961 . S
C879 H895 0.960 . S
H880 C864 0.931 . S
H881 C869 0.929 . S
H882 C870 0.960 . S
H883 C870 0.962 . S
H884 C870 0.960 . S
H885 C871 0.961 . S
H886 C871 0.961 . S
H887 C871 0.961 . S
H888 C872 0.931 . S
H889 C877 0.930 . S
H890 C878 0.956 . S
H891 C878 0.961 . S
H892 C878 0.961 . S
H893 C879 0.958 . S
H894 C879 0.961 . S
H895 C879 0.960 . S
C896 C897 1.391 . S
C896 C898 1.394 . S
C896 H912 0.931 . S
C897 C896 1.391 . S
C897 C901 1.376 . S
C898 C896 1.394 . S
C898 C899 1.369 . S
C898 C902 1.531 . S
C899 C898 1.369 . S
C899 C900 1.410 . S
C899 C907 1.503 . S
C900 C899 1.410 . S
C900 C901 1.392 . S
C900 C903 1.511 . S
C901 C897 1.376 . S
C901 C900 1.392 . S
C901 H913 0.929 . S
C902 C898 1.531 . S
C902 H914 0.960 . S
C902 H915 0.962 . S
C902 H916 0.960 . S
C903 C900 1.511 . S
C903 H917 0.961 . S
C903 H918 0.961 . S
C903 H919 0.961 . S
C904 C905 1.370 . S
C904 C906 1.363 . S
C904 H920 0.931 . S
C905 C904 1.370 . S
C905 C909 1.408 . S
C906 C904 1.363 . S
C906 C907 1.370 . S
C906 C910 1.524 . S
C907 C899 1.503 . S
C907 C906 1.370 . S
C907 C908 1.403 . S
C908 C907 1.403 . S
C908 C909 1.404 . S
C908 C911 1.539 . S
C909 C905 1.408 . S
C909 C908 1.404 . S
C909 H921 0.930 . S
C910 C906 1.524 . S
C910 H922 0.956 . S
C910 H923 0.961 . S
C910 H924 0.961 . S
C911 C908 1.539 . S
C911 H925 0.958 . S
C911 H926 0.961 . S
C911 H927 0.960 . S
H912 C896 0.931 . S
H913 C901 0.929 . S
H914 C902 0.960 . S
H915 C902 0.962 . S
H916 C902 0.960 . S
H917 C903 0.961 . S
H918 C903 0.961 . S
H919 C903 0.961 . S
H920 C904 0.931 . S
H921 C909 0.930 . S
H922 C910 0.956 . S
H923 C910 0.961 . S
H924 C910 0.961 . S
H925 C911 0.958 . S
H926 C911 0.961 . S
H927 C911 0.960 . S
C928 C929 1.391 1_556 S
C928 C930 1.394 . S
C928 H944 0.931 . S
C929 C928 1.391 1_554 S
C929 C933 1.376 . S
C930 C928 1.394 . S
C930 C931 1.369 1_556 S
C930 C934 1.531 . S
C931 C930 1.369 1_554 S
C931 C932 1.410 . S
C931 C939 1.503 . S
C932 C931 1.410 . S
C932 C933 1.392 . S
C932 C935 1.511 . S
C933 C929 1.376 . S
C933 C932 1.392 . S
C933 H945 0.929 . S
C934 C930 1.531 . S
C934 H946 0.960 1_556 S
C934 H947 0.962 . S
C934 H948 0.960 . S
C935 C932 1.511 . S
C935 H949 0.961 . S
C935 H950 0.961 . S
C935 H951 0.961 . S
C936 C937 1.370 1_556 S
C936 C938 1.363 . S
C936 H952 0.931 . S
C937 C936 1.370 1_554 S
C937 C941 1.408 . S
C938 C936 1.363 . S
C938 C939 1.370 1_556 S
C938 C942 1.524 . S
C939 C931 1.503 . S
C939 C938 1.370 1_554 S
C939 C940 1.403 . S
C940 C939 1.403 . S
C940 C941 1.404 . S
C940 C943 1.539 . S
C941 C937 1.408 . S
C941 C940 1.404 . S
C941 H953 0.930 . S
C942 C938 1.524 . S
C942 H954 0.956 . S
C942 H955 0.961 . S
C942 H956 0.961 . S
C943 C940 1.539 . S
C943 H957 0.958 . S
C943 H958 0.961 . S
C943 H959 0.960 . S
H944 C928 0.931 . S
H945 C933 0.929 . S
H946 C934 0.960 1_554 S
H947 C934 0.962 . S
H948 C934 0.960 . S
H949 C935 0.961 . S
H950 C935 0.961 . S
H951 C935 0.961 . S
H952 C936 0.931 . S
H953 C941 0.930 . S
H954 C942 0.956 . S
H955 C942 0.961 . S
H956 C942 0.961 . S
H957 C943 0.958 . S
H958 C943 0.961 . S
H959 C943 0.960 . S
C193 C5 1.447 . S
C201 N128 1.482 . S
C225 C31 1.452 . S
C233 N89 1.484 . S
C265 N106 1.488 . S
C257 C53 1.483 . S
C289 C71 1.481 . S
C297 N119 1.488 . S
C329 N158 1.485 . S
C321 C75 1.450 . S
C361 N171 1.483 . S
C353 C9 1.478 . S
C393 N180 1.475 . S
C385 C27 1.478 . S
C425 N141 1.484 . S
C417 C49 1.454 . S
C449 C51 1.480 . S
C457 N102 1.485 . S
C481 C72 1.484 . S
C489 N115 1.488 . S
C513 C6 1.480 . S
C521 N132 1.489 . S
C553 N93 1.485 . S
C545 C29 1.485 . S
C577 C28 1.453 . S
C585 N184 1.488 . S
C617 N145 1.481 . S
C609 C50 1.471 . S
C649 N154 1.488 . S
C641 C73 1.449 . S
C673 C7 1.482 . S
C681 N167 1.485 . S
C713 N90 1.511 . S
C705 C4 1.508 1_556 S
C745 N103 1.514 . S
C737 C30 1.510 . S
C769 C52 1.489 1_556 S
C777 N116 1.513 1_556 S
C801 C70 1.491 . S
C809 N129 1.507 . S
C841 N142 1.507 . S
C833 C74 1.488 . S
C865 C8 1.482 . S
C873 N155 1.512 1_554 S
C897 C26 1.497 . S
C905 N168 1.514 . S
C929 C48 1.488 . S
C937 N181 1.507 . S
