# Generated by pormake.
# Topology pyr, (3,6)-cn, num edge types: 1
# Building blocks:
#     Node 0, Type 0, BuildingBlock: PAMTOO_clean_linker_0, # of connection points: 3
#     Node 1, Type 0, BuildingBlock: PAMTOO_clean_linker_0, # of connection points: 3
#     Node 2, Type 0, BuildingBlock: PAMTOO_clean_linker_0, # of connection points: 3
#     Node 3, Type 0, BuildingBlock: PAMTOO_clean_linker_0, # of connection points: 3
#     Node 4, Type 0, BuildingBlock: PAMTOO_clean_linker_0, # of connection points: 3
#     Node 5, Type 0, BuildingBlock: PAMTOO_clean_linker_0, # of connection points: 3
#     Node 6, Type 0, BuildingBlock: PAMTOO_clean_linker_0, # of connection points: 3
#     Node 7, Type 0, BuildingBlock: PAMTOO_clean_linker_0, # of connection points: 3
#     Node 8, Type 1, BuildingBlock: VOLQOD_clean_sbu_1, # of connection points: 6
#     Node 9, Type 1, BuildingBlock: VOLQOD_clean_sbu_1, # of connection points: 6
#     Node 10, Type 1, BuildingBlock: VOLQOD_clean_sbu_1, # of connection points: 6
#     Node 11, Type 1, BuildingBlock: VOLQOD_clean_sbu_1, # of connection points: 6
#     Edge 12, Type (0, 1), BuildingBlock: AJUNOK_clean_linker_0, # of connection points: 2
#     Edge 13, Type (0, 1), BuildingBlock: AJUNOK_clean_linker_0, # of connection points: 2
#     Edge 14, Type (0, 1), BuildingBlock: AJUNOK_clean_linker_0, # of connection points: 2
#     Edge 15, Type (0, 1), BuildingBlock: AJUNOK_clean_linker_0, # of connection points: 2
#     Edge 16, Type (0, 1), BuildingBlock: AJUNOK_clean_linker_0, # of connection points: 2
#     Edge 17, Type (0, 1), BuildingBlock: AJUNOK_clean_linker_0, # of connection points: 2
#     Edge 18, Type (0, 1), BuildingBlock: AJUNOK_clean_linker_0, # of connection points: 2
#     Edge 19, Type (0, 1), BuildingBlock: AJUNOK_clean_linker_0, # of connection points: 2
#     Edge 20, Type (0, 1), BuildingBlock: AJUNOK_clean_linker_0, # of connection points: 2
#     Edge 21, Type (0, 1), BuildingBlock: AJUNOK_clean_linker_0, # of connection points: 2
#     Edge 22, Type (0, 1), BuildingBlock: AJUNOK_clean_linker_0, # of connection points: 2
#     Edge 23, Type (0, 1), BuildingBlock: AJUNOK_clean_linker_0, # of connection points: 2
#     Edge 24, Type (0, 1), BuildingBlock: AJUNOK_clean_linker_0, # of connection points: 2
#     Edge 25, Type (0, 1), BuildingBlock: AJUNOK_clean_linker_0, # of connection points: 2
#     Edge 26, Type (0, 1), BuildingBlock: AJUNOK_clean_linker_0, # of connection points: 2
#     Edge 27, Type (0, 1), BuildingBlock: AJUNOK_clean_linker_0, # of connection points: 2
#     Edge 28, Type (0, 1), BuildingBlock: AJUNOK_clean_linker_0, # of connection points: 2
#     Edge 29, Type (0, 1), BuildingBlock: AJUNOK_clean_linker_0, # of connection points: 2
#     Edge 30, Type (0, 1), BuildingBlock: AJUNOK_clean_linker_0, # of connection points: 2
#     Edge 31, Type (0, 1), BuildingBlock: AJUNOK_clean_linker_0, # of connection points: 2
#     Edge 32, Type (0, 1), BuildingBlock: AJUNOK_clean_linker_0, # of connection points: 2
#     Edge 33, Type (0, 1), BuildingBlock: AJUNOK_clean_linker_0, # of connection points: 2
#     Edge 34, Type (0, 1), BuildingBlock: AJUNOK_clean_linker_0, # of connection points: 2
#     Edge 35, Type (0, 1), BuildingBlock: AJUNOK_clean_linker_0, # of connection points: 2
# Relax obj value: 0.126
# Max RMSD: 0.195
# Mean RMSD: 0.160
data_MOF--net-pry--node1-VOLQOD_clean_sbu_1--node2-PAMTOO_clean_linker_0--edge1-AJUNOK_clean_linker_0
_symmetry_space_group_name_H-M    P1
_symmetry_Int_Tables_number       1
_symmetry_cell_setting            triclinic
loop_
_symmetry_equiv_pos_as_xyz
'x, y, z'
_cell_length_a     27.034102
_cell_length_b     28.032281
_cell_length_c     27.791155
_cell_angle_alpha  89.81372
_cell_angle_beta   91.296595
_cell_angle_gamma 95.381151
loop_
_atom_site_label
_atom_site_type_symbol
_atom_site_fract_x
_atom_site_fract_y
_atom_site_fract_z
_atom_type_partial_charge
H0 H 0.10295 0.20299 0.22219 0.0
H1 H 0.20147 0.09142 0.21173 0.0
H2 H 0.19657 0.19538 0.09911 0.0
H3 H 0.20393 0.09454 0.06733 0.0
C4 C 0.2273 0.08302 0.09791 0.0
O5 O 0.2382 0.12044 0.12958 0.0
H6 H 0.20579 0.05272 0.11633 0.0
C7 C 0.13035 0.1856 0.20245 0.0
C8 C 0.148 0.20528 0.15862 0.0
C9 C 0.14949 0.14442 0.22182 0.0
C10 C 0.18615 0.12292 0.19708 0.0
C11 C 0.20262 0.14122 0.15288 0.0
C12 C 0.18344 0.18193 0.13359 0.0
H13 H 0.35048 0.95898 0.69786 0.0
H14 H 0.34494 0.87129 0.57058 0.0
H15 H 0.4591 0.85786 0.67783 0.0
H16 H 0.48868 0.85215 0.57761 0.0
C17 C 0.45671 0.82744 0.56425 0.0
O18 O 0.41947 0.82338 0.59749 0.0
H19 H 0.44246 0.8427 0.53022 0.0
C20 C 0.3662 0.93234 0.67617 0.0
C21 C 0.40787 0.91051 0.69357 0.0
C22 C 0.34345 0.91869 0.63168 0.0
C23 C 0.36304 0.88328 0.60418 0.0
C24 C 0.40431 0.86116 0.62127 0.0
C25 C 0.42699 0.8752 0.66539 0.0
H26 H 0.69818 0.3179 0.99172 0.0
H27 H 0.59484 0.32636 0.87268 0.0
H28 H 0.70716 0.44163 0.89881 0.0
H29 H 0.61125 0.47656 0.86762 0.0
C30 C 0.59548 0.44388 0.84797 0.0
O31 O 0.63078 0.41169 0.84549 0.0
H32 H 0.5626 0.42807 0.86788 0.0
C33 C 0.68402 0.3377 0.96163 0.0
C34 C 0.70763 0.38267 0.94956 0.0
C35 C 0.64461 0.31633 0.93314 0.0
C36 C 0.62506 0.34243 0.89528 0.0
C37 C 0.64685 0.38829 0.88434 0.0
C38 C 0.68853 0.40789 0.91062 0.0
H39 H 0.8655 0.69716 0.49106 0.0
H40 H 0.87622 0.56884 0.4082 0.0
H41 H 0.98446 0.68859 0.3919 0.0
H42 H 0.92737 0.65247 0.30598 0.0
C43 C 0.92709 0.61332 0.31313 0.0
O44 O 0.94948 0.60563 0.35723 0.0
H45 H 0.88742 0.59844 0.3135 0.0
C46 C 0.8855 0.67629 0.46662 0.0
C47 C 0.92857 0.69769 0.4448 0.0
C48 C 0.86601 0.62966 0.45361 0.0
C49 C 0.89114 0.6043 0.41975 0.0
C50 C 0.93279 0.62607 0.39685 0.0
C51 C 0.95229 0.67204 0.41027 0.0
H52 H 0.85739 0.96908 0.84084 0.0
H53 H 0.86612 0.85375 0.94255 0.0
H54 H 0.97012 0.87068 0.82887 0.0
H55 H 0.92415 0.77576 0.84472 0.0
C56 C 0.92266 0.77472 0.88469 0.0
O57 O 0.94134 0.8188 0.90262 0.0
H58 H 0.8831 0.7672 0.8948 0.0
C59 C 0.8759 0.93892 0.85436 0.0
C60 C 0.91758 0.92465 0.83062 0.0
C61 C 0.85659 0.91308 0.89429 0.0
C62 C 0.88052 0.87401 0.9118 0.0
C63 C 0.92157 0.85922 0.88832 0.0
C64 C 0.93985 0.88426 0.84787 0.0
H65 H 0.72232 0.04918 0.32767 0.0
H66 H 0.60345 0.14123 0.3252 0.0
H67 H 0.71653 0.15861 0.4357 0.0
H68 H 0.62208 0.16843 0.4709 0.0
C69 C 0.60418 0.18657 0.44035 0.0
O70 O 0.63515 0.19009 0.40142 0.0
H71 H 0.56897 0.16495 0.42991 0.0
C72 C 0.70443 0.07836 0.34315 0.0
C73 C 0.72515 0.10189 0.3847 0.0
C74 C 0.66065 0.09232 0.32116 0.0
C75 C 0.63652 0.12909 0.34216 0.0
C76 C 0.65647 0.15237 0.38366 0.0
C77 C 0.70075 0.13909 0.40453 0.0
H78 H 0.38059 0.67725 0.04253 0.0
H79 H 0.37187 0.55399 0.13586 0.0
H80 H 0.49751 0.65864 0.14677 0.0
H81 H 0.51575 0.54902 0.16267 0.0
C82 C 0.48013 0.54032 0.1815 0.0
O83 O 0.45413 0.58016 0.18289 0.0
H84 H 0.45798 0.51073 0.16192 0.0
C85 C 0.39702 0.65583 0.07009 0.0
C86 C 0.44229 0.67282 0.09241 0.0
C87 C 0.3713 0.61291 0.08548 0.0
C88 C 0.39215 0.5862 0.12215 0.0
C89 C 0.43784 0.60245 0.14354 0.0
C90 C 0.46309 0.64544 0.12854 0.0
H91 H 0.07689 0.31867 0.70826 0.0
H92 H 0.12758 0.4676 0.69149 0.0
H93 H 0.15147 0.36831 0.57923 0.0
H94 H 0.21888 0.47311 0.66306 0.0
C95 C 0.21095 0.48207 0.62469 0.0
O96 O 0.16718 0.45776 0.60776 0.0
H97 H 0.20636 0.52104 0.62456 0.0
C98 C 0.09495 0.34744 0.68693 0.0
C99 C 0.11213 0.3378 0.64095 0.0
C100 C 0.10108 0.394 0.70565 0.0
C101 C 0.12297 0.43136 0.67749 0.0
C102 C 0.1428 0.42177 0.63282 0.0
C103 C 0.13749 0.37504 0.61455 0.0
O104 O 0.02168 0.1253 0.57065 0.0
Zn105 Zn 0.98702 0.05964 0.55621 0.0
O106 O 0.03371 0.02194 0.52258 0.0
Zn107 Zn 0.00488 0.0012 0.46027 0.0
Zn108 Zn 0.09807 0.05879 0.51227 0.0
Zn109 Zn 0.04529 0.96626 0.56148 0.0
O110 O 0.99436 0.92902 0.45613 0.0
O111 O 0.01691 0.90558 0.52909 0.0
O112 O 0.92454 0.0674 0.51529 0.0
O113 O 0.93847 0.026 0.44983 0.0
O114 O 0.04537 0.02951 0.40535 0.0
O115 O 0.10838 0.0727 0.44156 0.0
O116 O 0.15642 0.02508 0.53917 0.0
O117 O 0.96692 0.02976 0.62089 0.0
O118 O 0.11763 0.9617 0.5748 0.0
O119 O 0.01439 0.96929 0.6257 0.0
C120 C 0.06583 0.1448 0.56538 0.0
C121 C -0.00087 0.89598 0.48705 0.0
C122 C 0.08437 0.05862 0.40343 0.0
C123 C 0.91135 0.05185 0.47339 0.0
C124 C 0.15742 0.98699 0.56424 0.0
C125 C 0.98351 0.99506 0.64405 0.0
O126 O 0.09864 0.12268 0.54494 0.0
O127 O 0.5384 0.09843 0.95686 0.0
Zn128 Zn 0.50303 0.0329 0.96667 0.0
O129 O 0.54408 0.99307 0.00638 0.0
Zn130 Zn 0.55578 0.9365 0.96942 0.0
Zn131 Zn 0.60826 0.02767 0.02346 0.0
Zn132 Zn 0.5096 0.97437 0.06567 0.0
O133 O 0.53233 0.87683 0.00458 0.0
O134 O 0.50022 0.90251 0.07149 0.0
O135 O 0.48509 0.00311 0.9013 0.0
O136 O 0.51927 0.93433 0.90568 0.0
O137 O 0.62822 0.93401 0.9568 0.0
O138 O 0.66599 0.99651 0.9958 0.0
O139 O 0.61831 0.03481 0.09577 0.0
O140 O 0.43884 0.04179 0.99922 0.0
O141 O 0.54798 0.00041 0.12468 0.0
O142 O 0.44211 -0.00036 0.06666 0.0
C143 C 0.58122 0.11691 0.97047 0.0
C144 C 0.51116 0.86855 0.04453 0.0
C145 C 0.66771 0.9595 0.96963 0.0
C146 C 0.49332 0.96304 0.88305 0.0
C147 C 0.59063 0.02312 0.13128 0.0
C148 C 0.41939 0.02642 0.03827 0.0
O149 O 0.61062 0.09359 0.9957 0.0
O150 O 0.57219 0.52327 0.62797 0.0
Zn151 Zn 0.57239 0.55038 0.56065 0.0
O152 O 0.53456 0.50512 0.51669 0.0
Zn153 Zn 0.57876 0.48431 0.46864 0.0
Zn154 Zn 0.5056 0.44839 0.55073 0.0
Zn155 Zn 0.48138 0.53672 0.48526 0.0
O156 O 0.55234 0.49495 0.40199 0.0
O157 O 0.48238 0.52868 0.41352 0.0
O158 O 0.64398 0.5649 0.53998 0.0
O159 O 0.64549 0.52069 0.47407 0.0
O160 O 0.58688 0.41414 0.47424 0.0
O161 O 0.5267 0.38655 0.52295 0.0
O162 O 0.43068 0.44613 0.5519 0.0
O163 O 0.54251 0.61401 0.56122 0.0
O164 O 0.41487 0.50931 0.50812 0.0
O165 O 0.48603 0.6071 0.50192 0.0
C166 C 0.55352 0.48384 0.64586 0.0
C167 C 0.51324 0.51183 0.38572 0.0
C168 C 0.56202 0.37948 0.49496 0.0
C169 C 0.66678 0.55078 0.50379 0.0
C170 C 0.4 0.47349 0.53394 0.0
C171 C 0.51011 0.63204 0.53451 0.0
O172 O 0.52859 0.45244 0.61987 0.0
O173 O 0.99548 0.4906 0.13109 0.0
Zn174 Zn 0.00182 0.45241 0.07063 0.0
O175 O 0.03861 0.49267 0.02283 0.0
Zn176 Zn 0.99692 0.50074 0.96633 0.0
Zn177 Zn 0.05857 0.55683 0.04834 0.0
Zn178 Zn 0.09639 0.46095 0.00426 0.0
O179 O 0.02131 0.46844 0.90867 0.0
O180 O 0.09189 0.44155 0.93434 0.0
O181 O 0.93178 0.43258 0.04656 0.0
O182 O 0.9277 0.47399 0.97828 0.0
O183 O 0.99317 0.56921 0.94859 0.0
O184 O 0.03119 0.61026 0.00884 0.0
O185 O 0.13286 0.56881 0.04961 0.0
O186 O 0.03625 0.39315 0.08878 0.0
O187 O 0.15887 0.50431 0.01573 0.0
O188 O 0.10347 0.40182 0.04411 0.0
C189 C 0.01027 0.53326 0.14395 0.0
C190 C 0.05963 0.44675 0.90107 0.0
C191 C 0.00709 0.60887 0.96887 0.0
C192 C 0.90745 0.44691 0.01039 0.0
C193 C 0.16779 0.54557 0.03477 0.0
C194 C 0.07732 0.37895 0.07569 0.0
O195 O 0.03471 0.56205 0.11575 0.0
C196 C 0.16559 0.1189 0.30659 0.0
C197 C 0.13181 0.12351 0.26803 0.0
C198 C 0.15003 0.09761 0.35013 0.0
C199 C 0.1003 0.07918 0.35632 0.0
H200 H 0.20431 0.13214 0.30311 0.0
H201 H 0.17727 0.0953 0.37903 0.0
S202 S 0.9977 0.0819 0.26534 0.0
N203 N 0.04685 0.10797 0.23826 0.0
N204 N 0.01734 0.06719 0.31962 0.0
C205 C 0.06627 0.08325 0.31763 0.0
C206 C 0.08207 0.10568 0.27365 0.0
C207 C 0.43897 0.97148 0.75603 0.0
C208 C 0.42991 0.92316 0.74201 0.0
C209 C 0.45928 0.98414 0.80169 0.0
C210 C 0.47168 0.94898 0.83498 0.0
H211 H 0.43072 -0.0002 0.73135 0.0
H212 H 0.46584 0.0218 0.81072 0.0
S213 S 0.45122 0.81721 0.81756 0.0
N214 N 0.43168 0.83995 0.76649 0.0
N215 N 0.47097 0.86361 0.85154 0.0
C216 C 0.46228 0.9005 0.82159 0.0
C217 C 0.44116 0.88764 0.77535 0.0
C218 C 0.60329 0.49682 0.77463 0.0
C219 C 0.5803 0.4561 0.79746 0.0
C220 C 0.5937 0.50592 0.72588 0.0
C221 C 0.5613 0.47422 0.69795 0.0
H222 H 0.62959 0.52136 0.7944 0.0
H223 H 0.61271 0.5376 0.70985 0.0
S224 S 0.49212 0.36205 0.74171 0.0
N225 N 0.52414 0.38377 0.78931 0.0
N226 N 0.50566 0.40043 0.6977 0.0
C227 C 0.53778 0.43342 0.72077 0.0
C228 C 0.54751 0.42441 0.77045 0.0
C229 C 0.93456 0.54544 0.25555 0.0
C230 C 0.95344 0.59036 0.27364 0.0
C231 C 0.95483 0.52611 0.21487 0.0
C232 C 0.99473 0.55107 0.19089 0.0
H233 H 0.90268 0.52596 0.27184 0.0
H234 H 0.93759 0.49234 0.20102 0.0
S235 S 0.0624 0.66658 0.22952 0.0
N236 N 0.01763 0.65664 0.26876 0.0
N237 N 0.05606 0.62063 0.19212 0.0
C238 C 0.01606 0.59459 0.21085 0.0
C239 C 0.99542 0.61409 0.25238 0.0
C240 C 0.299 0.032 0.10542 0.0
C241 C 0.27522 0.06709 0.08001 0.0
C242 C 0.34524 0.01876 0.09132 0.0
C243 C 0.36972 0.0404 0.05144 0.0
H244 H 0.28187 0.01495 0.13672 0.0
H245 H 0.36197 0.99151 0.11214 0.0
S246 S 0.32345 0.13626 0.97448 0.0
N247 N 0.27968 0.12452 0.01443 0.0
N248 N 0.36648 0.09985 0.98742 0.0
C249 C 0.3462 0.0759 0.0259 0.0
C250 C 0.29912 0.08933 0.04044 0.0
C251 C 0.29326 0.96159 0.57116 0.0
C252 C 0.29666 0.93825 0.61585 0.0
C253 C 0.24846 0.97867 0.5551 0.0
C254 C 0.20535 0.97182 0.5827 0.0
H255 H 0.32543 0.96661 0.54851 0.0
H256 H 0.24722 0.99615 0.52032 0.0
S257 S 0.19534 0.9135 0.7027 0.0
N258 N 0.25367 0.91002 0.68778 0.0
N259 N 0.16947 0.94123 0.65752 0.0
C260 C 0.20857 0.94884 0.62763 0.0
C261 C 0.25423 0.93227 0.64423 0.0
C262 C 0.79183 0.36657 0.98124 0.0
C263 C 0.75612 0.3995 0.97281 0.0
C264 C 0.84022 0.3819 0.9969 0.0
C265 C 0.85476 0.43069 0.00368 0.0
H266 H 0.7833 0.32886 0.97332 0.0
H267 H 0.86716 0.35579 0.00083 0.0
S268 S 0.77498 0.53077 0.99319 0.0
N269 N 0.73773 0.48267 0.97852 0.0
N270 N 0.82987 0.51159 0.00521 0.0
C271 C 0.81933 0.4638 0.9977 0.0
C272 C 0.76969 0.44818 0.98289 0.0
C273 C 0.78188 0.58969 0.43375 0.0
C274 C 0.81578 0.60997 0.46882 0.0
C275 C 0.73428 0.57058 0.44583 0.0
C276 C 0.71794 0.57144 0.49347 0.0
H277 H 0.79193 0.58902 0.39625 0.0
H278 H 0.70982 0.55562 0.41716 0.0
S279 S 0.79216 0.62023 0.59918 0.0
N280 N 0.83002 0.62933 0.55353 0.0
N281 N 0.73948 0.5943 0.57625 0.0
C282 C 0.75107 0.59213 0.52905 0.0
C283 C 0.80015 0.61125 0.51672 0.0
C284 C 0.07951 0.25724 0.13713 0.0
C285 C 0.13051 0.25059 0.13922 0.0
C286 C 0.06249 0.29903 0.11709 0.0
C287 C 0.09581 0.33557 0.09808 0.0
H288 H 0.05245 0.22955 0.15019 0.0
H289 H 0.02287 0.30228 0.11562 0.0
S290 S 0.23347 0.33817 0.10016 0.0
N291 N 0.21438 0.28617 0.12467 0.0
N292 N 0.18254 0.36379 0.08608 0.0
C293 C 0.14698 0.32985 0.10117 0.0
C294 C 0.16427 0.28766 0.12195 0.0
C295 C 0.57758 0.24935 0.94417 0.0
C296 C 0.62821 0.26503 0.93988 0.0
C297 C 0.5623 0.20093 0.95281 0.0
C298 C 0.59725 0.16691 0.95761 0.0
H299 H 0.54984 0.27481 0.942 0.0
H300 H 0.52307 0.19035 0.95718 0.0
S301 S 0.73343 0.18892 0.9422 0.0
N302 N 0.71258 0.24208 0.93556 0.0
N303 N 0.68405 0.15149 0.95286 0.0
C304 C 0.64773 0.18195 0.95141 0.0
C305 C 0.66316 0.23092 0.94222 0.0
C306 C 0.95754 0.76351 0.50209 0.0
C307 C 0.94633 0.74833 0.45471 0.0
C308 C 0.97528 0.81113 0.51201 0.0
C309 C 0.98184 0.84551 0.47494 0.0
H310 H 0.95306 0.73826 0.53163 0.0
H311 H 0.98336 0.82107 0.54919 0.0
S312 S 0.95591 0.82352 0.34464 0.0
N313 N 0.94166 0.77104 0.37039 0.0
N314 N 0.97501 0.86053 0.38876 0.0
C315 C 0.97028 0.83063 0.42733 0.0
C316 C 0.95254 0.78206 0.41729 0.0
C317 C 0.45345 0.75048 0.51675 0.0
C318 C 0.4735 0.77843 0.5556 0.0
C319 C 0.46612 0.70362 0.50992 0.0
C320 C 0.49907 0.6826 0.54193 0.0
H321 H 0.42736 0.7648 0.49168 0.0
H322 H 0.44946 0.68364 0.47943 0.0
S323 S 0.56014 0.74098 0.65065 0.0
N324 N 0.52668 0.78196 0.62719 0.0
N325 N 0.5509 0.69404 0.6147 0.0
C326 C 0.5193 0.71044 0.58111 0.0
C327 C 0.50627 0.75817 0.58795 0.0
C328 C 0.90084 0.96077 0.74941 0.0
C329 C 0.93526 0.94889 0.78544 0.0
C330 C 0.91665 0.9783 0.70432 0.0
C331 C 0.96734 0.98375 0.69348 0.0
H332 H 0.86128 0.95453 0.75522 0.0
H333 H 0.88898 0.98527 0.67703 0.0
S334 S 0.07272 0.96478 0.7768 0.0
N335 N 0.02275 0.95003 0.80866 0.0
N336 N 0.05206 0.98052 0.72326 0.0
C337 C 0.00216 0.97423 0.72966 0.0
C338 C 0.98624 0.95741 0.77578 0.0
C339 C 0.67494 0.07082 0.23549 0.0
C340 C 0.64239 0.07124 0.27424 0.0
C341 C 0.65803 0.05464 0.18975 0.0
C342 C 0.6079 0.03768 0.18091 0.0
H343 H 0.71361 0.08439 0.24023 0.0
H344 H 0.68451 0.05588 0.161 0.0
S345 S 0.50831 0.02873 0.27154 0.0
N346 N 0.55833 0.05149 0.30163 0.0
N347 N 0.52625 0.0208 0.21596 0.0
C348 C 0.57524 0.0367 0.21989 0.0
C349 C 0.5925 0.05361 0.26638 0.0
C350 C 0.53718 0.52905 0.25295 0.0
C351 C 0.48891 0.5253 0.23262 0.0
C352 C 0.54486 0.52265 0.30248 0.0
C353 C 0.50446 0.51346 0.33328 0.0
H354 H 0.56903 0.53854 0.23074 0.0
H355 H 0.58255 0.52708 0.317 0.0
S356 S 0.37122 0.49629 0.29687 0.0
N357 N 0.40057 0.50813 0.24611 0.0
N358 N 0.41487 0.49747 0.33952 0.0
C359 C 0.4562 0.50785 0.31309 0.0
C360 C 0.44849 0.51336 0.26263 0.0
C361 C 0.05569 0.43921 0.76492 0.0
C362 C 0.0874 0.40362 0.75559 0.0
C363 C 0.04575 0.4518 0.81218 0.0
C364 C 0.06792 0.42984 0.8518 0.0
H365 H 0.03897 0.45786 0.73542 0.0
H366 H 0.02171 0.48005 0.8176 0.0
S367 S 0.15276 0.33341 0.84609 0.0
N368 N 0.13992 0.34558 0.78925 0.0
N369 N 0.12168 0.36945 0.87831 0.0
C370 C 0.09901 0.39349 0.84283 0.0
C371 C 0.10859 0.38028 0.79466 0.0
C372 C 0.80256 0.97058 0.93114 0.0
C373 C 0.80894 0.92412 0.91505 0.0
C374 C 0.75715 0.9815 0.94989 0.0
C375 C 0.71627 0.94653 0.95241 0.0
H376 H 0.8329 0.99861 0.92928 0.0
H377 H 0.75378 0.01788 0.96151 0.0
S378 S 0.71429 0.81939 0.91441 0.0
N379 N 0.77096 0.84296 0.90259 0.0
N380 N 0.68578 0.86321 0.93763 0.0
C381 C 0.72246 0.89984 0.93651 0.0
C382 C 0.76873 0.88872 0.9179 0.0
C383 C 0.77849 0.0848 0.45707 0.0
C384 C 0.77294 0.08891 0.40668 0.0
C385 C 0.82343 0.07333 0.47857 0.0
C386 C 0.86435 0.06494 0.45047 0.0
H387 H 0.74769 0.09007 0.48012 0.0
H388 H 0.82584 0.07024 0.5174 0.0
S389 S 0.87077 0.07548 0.31745 0.0
N390 N 0.81374 0.08723 0.32971 0.0
N391 N 0.89733 0.06413 0.36977 0.0
C392 C 0.8595 0.06948 0.40013 0.0
C393 C 0.81407 0.08178 0.37834 0.0
C394 C 0.30777 0.55118 0.0514 0.0
C395 C 0.32035 0.5983 0.06739 0.0
C396 C 0.25859 0.53504 0.03904 0.0
C397 C 0.22008 0.56532 0.0428 0.0
H398 H 0.33605 0.52635 0.04935 0.0
H399 H 0.2506 0.49803 0.02806 0.0
S400 S 0.23448 0.6928 0.0812 0.0
N401 N 0.29116 0.67559 0.08517 0.0
N402 N 0.19867 0.64563 0.06155 0.0
C403 C 0.2326 0.61311 0.05733 0.0
C404 C 0.28275 0.62951 0.0697 0.0
C405 C 0.28796 0.44035 0.61077 0.0
C406 C 0.25433 0.47241 0.59439 0.0
C407 C 0.33374 0.43815 0.58858 0.0
C408 C 0.3474 0.46793 0.54916 0.0
H409 H 0.2801 0.41891 0.64268 0.0
H410 H 0.3597 0.41509 0.60442 0.0
S411 S 0.26706 0.55045 0.48681 0.0
N412 N 0.2338 0.52883 0.53242 0.0
N413 N 0.31959 0.52481 0.49016 0.0
C414 C 0.31171 0.4966 0.52964 0.0
C415 C 0.26516 0.49874 0.55235 0.0
C416 C 0.96179 0.73259 0.95467 0.0
C417 C 0.95116 0.73505 0.90492 0.0
C418 C 0.98247 0.69276 0.97496 0.0
C419 C 0.99213 0.6535 0.94634 0.0
H420 H 0.95271 0.76105 0.97826 0.0
H421 H 0.98869 0.69177 0.01358 0.0
S422 S 0.97333 0.64338 0.81386 0.0
N423 N 0.9538 0.69564 0.82738 0.0
N424 N 0.99215 0.62087 0.86532 0.0
C425 C 0.98295 0.65619 0.89639 0.0
C426 C 0.96241 0.69682 0.87577 0.0
C427 C 0.47561 0.73496 0.0343 0.0
C428 C 0.46427 0.72171 0.08178 0.0
C429 C 0.49215 0.78235 0.0229 0.0
C430 C 0.49705 0.81828 0.0585 0.0
H431 H 0.471 0.70861 0.00572 0.0
H432 H 0.49972 0.79106 0.98562 0.0
S433 S 0.47258 0.80116 0.18861 0.0
N434 N 0.45964 0.74742 0.16484 0.0
N435 N 0.49058 0.83673 0.14356 0.0
C436 C 0.48655 0.80515 0.10635 0.0
C437 C 0.47022 0.75677 0.11796 0.0
C438 C 0.05317 0.26639 0.62127 0.0
C439 C 0.10177 0.28907 0.62046 0.0
C440 C 0.04203 0.22002 0.6032 0.0
C441 C 0.07908 0.19428 0.58359 0.0
H442 H 0.02334 0.28478 0.63584 0.0
H443 H 0.00393 0.20434 0.60472 0.0
S444 S 0.21286 0.23772 0.57434 0.0
N445 N 0.18753 0.28256 0.59946 0.0
N446 N 0.16698 0.19536 0.56502 0.0
C447 C 0.12803 0.21677 0.58249 0.0
C448 C 0.13926 0.26415 0.60095 0.0
C449 C 0.54545 0.24642 0.46649 0.0
C450 C 0.59414 0.23611 0.45644 0.0
C451 C 0.53542 0.29257 0.48055 0.0
C452 C 0.57369 0.33006 0.48459 0.0
H453 H 0.51481 0.21878 0.46287 0.0
H454 H 0.49728 0.29926 0.48684 0.0
S455 S 0.70815 0.32019 0.468 0.0
N456 N 0.68149 0.26592 0.45631 0.0
N457 N 0.66256 0.35288 0.48115 0.0
C458 C 0.6227 0.31976 0.47633 0.0
C459 C 0.63297 0.27269 0.46285 0.0
loop_
_geom_bond_atom_site_label_1
_geom_bond_atom_site_label_2
_geom_bond_distance
_geom_bond_site_symmetry_2
_ccdc_geom_bond_type
H0 C7 0.929 . S
H1 C10 0.930 . S
H2 C12 0.929 . S
H3 C4 0.969 . S
C4 H3 0.969 . S
C4 O5 1.550 . S
C4 H6 0.973 . S
O5 C4 1.550 . S
O5 C11 1.412 . S
H6 C4 0.973 . S
C7 H0 0.929 . S
C7 C8 1.400 . S
C7 C9 1.364 . S
C8 C7 1.400 . S
C8 C12 1.377 . S
C9 C7 1.364 . S
C9 C10 1.374 . S
C10 H1 0.930 . S
C10 C9 1.374 . S
C10 C11 1.383 . S
C11 O5 1.412 . S
C11 C10 1.383 . S
C11 C12 1.394 . S
C12 H2 0.929 . S
C12 C8 1.377 . S
C12 C11 1.394 . S
H13 C20 0.929 . S
H14 C23 0.930 . S
H15 C25 0.929 . S
H16 C17 0.969 . S
C17 H16 0.969 . S
C17 O18 1.550 . S
C17 H19 0.973 . S
O18 C17 1.550 . S
O18 C24 1.412 . S
H19 C17 0.973 . S
C20 H13 0.929 . S
C20 C21 1.400 . S
C20 C22 1.364 . S
C21 C20 1.400 . S
C21 C25 1.377 . S
C22 C20 1.364 . S
C22 C23 1.374 . S
C23 H14 0.930 . S
C23 C22 1.374 . S
C23 C24 1.383 . S
C24 O18 1.412 . S
C24 C23 1.383 . S
C24 C25 1.394 . S
C25 H15 0.929 . S
C25 C21 1.377 . S
C25 C24 1.394 . S
H26 C33 0.929 . S
H27 C36 0.930 . S
H28 C38 0.929 . S
H29 C30 0.969 . S
C30 H29 0.969 . S
C30 O31 1.550 . S
C30 H32 0.973 . S
O31 C30 1.550 . S
O31 C37 1.412 . S
H32 C30 0.973 . S
C33 H26 0.929 . S
C33 C34 1.400 . S
C33 C35 1.364 . S
C34 C33 1.400 . S
C34 C38 1.377 . S
C35 C33 1.364 . S
C35 C36 1.374 . S
C36 H27 0.930 . S
C36 C35 1.374 . S
C36 C37 1.383 . S
C37 O31 1.412 . S
C37 C36 1.383 . S
C37 C38 1.394 . S
C38 H28 0.929 . S
C38 C34 1.377 . S
C38 C37 1.394 . S
H39 C46 0.929 . S
H40 C49 0.930 . S
H41 C51 0.929 . S
H42 C43 0.969 . S
C43 H42 0.969 . S
C43 O44 1.550 . S
C43 H45 0.973 . S
O44 C43 1.550 . S
O44 C50 1.412 . S
H45 C43 0.973 . S
C46 H39 0.929 . S
C46 C47 1.400 . S
C46 C48 1.364 . S
C47 C46 1.400 . S
C47 C51 1.377 . S
C48 C46 1.364 . S
C48 C49 1.374 . S
C49 H40 0.930 . S
C49 C48 1.374 . S
C49 C50 1.383 . S
C50 O44 1.412 . S
C50 C49 1.383 . S
C50 C51 1.394 . S
C51 H41 0.929 . S
C51 C47 1.377 . S
C51 C50 1.394 . S
H52 C59 0.929 . S
H53 C62 0.930 . S
H54 C64 0.944 . S
H55 C56 0.969 . S
C56 H55 0.969 . S
C56 O57 1.550 . S
C56 H58 0.973 1_556 S
O57 C56 1.550 . S
O57 C63 1.412 . S
H58 C56 0.973 1_554 S
C59 H52 0.929 . S
C59 C60 1.400 . S
C59 C61 1.364 . S
C60 C59 1.400 . S
C60 C64 1.377 . S
C61 C59 1.364 . S
C61 C62 1.374 . S
C62 H53 0.930 . S
C62 C61 1.374 . S
C62 C63 1.383 . S
C63 O57 1.412 . S
C63 C62 1.383 . S
C63 C64 1.394 . S
C64 H54 0.944 . S
C64 C60 1.377 . S
C64 C63 1.394 . S
H65 C72 0.929 . S
H66 C75 0.930 . S
H67 C77 0.929 . S
H68 C69 0.969 . S
C69 H68 0.969 . S
C69 O70 1.550 . S
C69 H71 0.973 . S
O70 C69 1.550 . S
O70 C76 1.412 . S
H71 C69 0.973 . S
C72 H65 0.929 . S
C72 C73 1.400 . S
C72 C74 1.364 . S
C73 C72 1.400 . S
C73 C77 1.377 . S
C74 C72 1.364 . S
C74 C75 1.374 . S
C75 H66 0.930 . S
C75 C74 1.374 . S
C75 C76 1.383 . S
C76 O70 1.412 . S
C76 C75 1.383 . S
C76 C77 1.394 . S
C77 H67 0.929 . S
C77 C73 1.377 . S
C77 C76 1.394 . S
H78 C85 0.929 . S
H79 C88 0.930 . S
H80 C90 0.929 . S
H81 C82 0.969 . S
C82 H81 0.969 . S
C82 O83 1.550 . S
C82 H84 0.973 . S
O83 C82 1.550 . S
O83 C89 1.412 . S
H84 C82 0.973 . S
C85 H78 0.929 . S
C85 C86 1.400 . S
C85 C87 1.364 . S
C86 C85 1.400 . S
C86 C90 1.377 . S
C87 C85 1.364 . S
C87 C88 1.374 . S
C88 H79 0.930 . S
C88 C87 1.374 . S
C88 C89 1.383 . S
C89 O83 1.412 . S
C89 C88 1.383 . S
C89 C90 1.394 . S
C90 H80 0.929 . S
C90 C86 1.377 . S
C90 C89 1.394 . S
H91 C98 0.929 . S
H92 C101 0.930 . S
H93 C103 0.929 . S
H94 C95 0.969 . S
C95 H94 0.969 . S
C95 O96 1.550 . S
C95 H97 0.973 . S
O96 C95 1.550 . S
O96 C102 1.412 . S
H97 C95 0.973 . S
C98 H91 0.929 . S
C98 C99 1.400 . S
C98 C100 1.364 . S
C99 C98 1.400 . S
C99 C103 1.377 . S
C100 C98 1.364 . S
C100 C101 1.374 . S
C101 H92 0.930 . S
C101 C100 1.374 . S
C101 C102 1.383 . S
C102 O96 1.412 . S
C102 C101 1.383 . S
C102 C103 1.394 . S
C103 H93 0.929 . S
C103 C99 1.377 . S
C103 C102 1.394 . S
O104 Zn105 1.953 1_455 S
O104 C120 1.225 . S
Zn105 O104 1.953 1_655 S
Zn105 O106 1.949 1_655 S
Zn105 O112 1.919 . S
Zn105 O117 1.924 . S
O106 Zn105 1.949 1_455 S
O106 Zn107 1.923 1_445 S
O106 Zn108 1.950 . S
O106 Zn109 1.945 1_545 S
Zn107 O106 1.923 1_665 S
Zn107 O110 1.933 . S
Zn107 O113 1.941 1_565 S
Zn107 O114 1.965 1_665 S
Zn108 O106 1.950 . S
Zn108 O115 1.938 . S
Zn108 O116 1.906 . S
Zn108 O126 1.953 . S
Zn109 O106 1.945 1_565 S
Zn109 O111 1.932 1_455 S
Zn109 O118 1.977 . S
Zn109 O119 1.910 1_455 S
O110 Zn107 1.933 . S
O110 C121 1.226 . S
O111 Zn109 1.932 1_655 S
O111 C121 1.307 . S
O112 Zn105 1.919 . S
O112 C123 1.253 . S
O113 Zn107 1.941 1_545 S
O113 C123 1.283 . S
O114 Zn107 1.965 1_445 S
O114 C122 1.303 . S
O115 Zn108 1.938 . S
O115 C122 1.247 . S
O116 Zn108 1.906 . S
O116 C124 1.304 1_545 S
O117 Zn105 1.924 . S
O117 C125 1.297 1_545 S
O118 Zn109 1.977 . S
O118 C124 1.272 . S
O119 Zn109 1.910 1_655 S
O119 C125 1.247 . S
C120 O104 1.225 . S
C120 O126 1.298 . S
C121 O110 1.226 . S
C121 O111 1.307 . S
C122 O114 1.303 . S
C122 O115 1.247 . S
C123 O112 1.253 . S
C123 O113 1.283 . S
C124 O116 1.304 1_565 S
C124 O118 1.272 . S
C125 O117 1.297 1_565 S
C125 O119 1.247 . S
O126 Zn108 1.953 . S
O126 C120 1.298 . S
O127 Zn128 1.953 . S
O127 C143 1.225 . S
Zn128 O127 1.953 . S
Zn128 O129 1.949 1_556 S
Zn128 O135 1.919 . S
Zn128 O140 1.924 . S
O129 Zn128 1.949 1_554 S
O129 Zn130 1.923 1_544 S
O129 Zn131 1.950 . S
O129 Zn132 1.945 1_545 S
Zn130 O129 1.923 1_566 S
Zn130 O133 1.933 1_556 S
Zn130 O136 1.941 . S
Zn130 O137 1.965 . S
Zn131 O129 1.950 . S
Zn131 O138 1.938 . S
Zn131 O139 1.906 . S
Zn131 O149 1.953 . S
Zn132 O129 1.945 1_565 S
Zn132 O134 1.932 . S
Zn132 O141 1.977 1_565 S
Zn132 O142 1.910 1_565 S
O133 Zn130 1.933 1_554 S
O133 C144 1.226 . S
O134 Zn132 1.932 . S
O134 C144 1.307 . S
O135 Zn128 1.919 . S
O135 C146 1.253 1_545 S
O136 Zn130 1.941 . S
O136 C146 1.283 . S
O137 Zn130 1.965 . S
O137 C145 1.303 . S
O138 Zn131 1.938 . S
O138 C145 1.247 1_544 S
O139 Zn131 1.906 . S
O139 C147 1.304 . S
O140 Zn128 1.924 . S
O140 C148 1.311 1_556 S
O141 Zn132 1.977 1_545 S
O141 C147 1.272 . S
O142 Zn132 1.910 1_545 S
O142 C148 1.231 . S
C143 O127 1.225 . S
C143 O149 1.298 1_556 S
C144 O133 1.226 . S
C144 O134 1.307 . S
C145 O137 1.303 . S
C145 O138 1.247 1_566 S
C146 O135 1.253 1_565 S
C146 O136 1.283 . S
C147 O139 1.304 . S
C147 O141 1.272 . S
C148 O140 1.311 1_554 S
C148 O142 1.231 . S
O149 Zn131 1.953 . S
O149 C143 1.298 1_554 S
O150 Zn151 1.953 . S
O150 C166 1.225 . S
Zn151 O150 1.953 . S
Zn151 O152 1.949 . S
Zn151 O158 1.919 . S
Zn151 O163 1.924 . S
O152 Zn151 1.949 . S
O152 Zn153 1.923 . S
O152 Zn154 1.950 . S
O152 Zn155 1.945 . S
Zn153 O152 1.923 . S
Zn153 O156 1.933 . S
Zn153 O159 1.941 . S
Zn153 O160 1.965 . S
Zn154 O152 1.950 . S
Zn154 O161 1.938 . S
Zn154 O162 1.906 . S
Zn154 O172 1.953 . S
Zn155 O152 1.945 . S
Zn155 O157 1.932 . S
Zn155 O164 1.977 . S
Zn155 O165 1.910 . S
O156 Zn153 1.933 . S
O156 C167 1.226 . S
O157 Zn155 1.932 . S
O157 C167 1.307 . S
O158 Zn151 1.919 . S
O158 C169 1.253 . S
O159 Zn153 1.941 . S
O159 C169 1.283 . S
O160 Zn153 1.965 . S
O160 C168 1.303 . S
O161 Zn154 1.938 . S
O161 C168 1.247 . S
O162 Zn154 1.906 . S
O162 C170 1.304 . S
O163 Zn151 1.924 . S
O163 C171 1.311 . S
O164 Zn155 1.977 . S
O164 C170 1.272 . S
O165 Zn155 1.910 . S
O165 C171 1.231 . S
C166 O150 1.225 . S
C166 O172 1.298 . S
C167 O156 1.226 . S
C167 O157 1.307 . S
C168 O160 1.303 . S
C168 O161 1.247 . S
C169 O158 1.253 . S
C169 O159 1.283 . S
C170 O162 1.304 . S
C170 O164 1.272 . S
C171 O163 1.311 . S
C171 O165 1.231 . S
O172 Zn154 1.953 . S
O172 C166 1.298 . S
O173 Zn174 1.953 . S
O173 C189 1.223 1_655 S
Zn174 O173 1.953 . S
Zn174 O175 1.949 1_655 S
Zn174 O181 1.919 . S
Zn174 O186 1.924 1_655 S
O175 Zn174 1.949 1_455 S
O175 Zn176 1.923 1_554 S
O175 Zn177 1.950 . S
O175 Zn178 1.941 1_554 S
Zn176 O175 1.923 1_556 S
Zn176 O179 1.933 . S
Zn176 O182 1.941 1_455 S
Zn176 O183 1.965 . S
Zn177 O175 1.950 . S
Zn177 O184 1.938 . S
Zn177 O185 1.906 . S
Zn177 O195 1.953 . S
Zn178 O175 1.941 1_556 S
Zn178 O180 1.946 . S
Zn178 O187 1.973 1_556 S
Zn178 O188 1.903 1_556 S
O179 Zn176 1.933 . S
O179 C190 1.226 . S
O180 Zn178 1.946 . S
O180 C190 1.307 . S
O181 Zn174 1.919 . S
O181 C192 1.253 1_554 S
O182 Zn176 1.941 1_655 S
O182 C192 1.283 . S
O183 Zn176 1.965 . S
O183 C191 1.303 . S
O184 Zn177 1.938 . S
O184 C191 1.247 1_554 S
O185 Zn177 1.906 . S
O185 C193 1.304 . S
O186 Zn174 1.924 1_455 S
O186 C194 1.311 . S
O187 Zn178 1.973 1_554 S
O187 C193 1.272 . S
O188 Zn178 1.903 1_554 S
O188 C194 1.231 . S
C189 O173 1.223 1_455 S
C189 O195 1.302 . S
C190 O179 1.226 . S
C190 O180 1.307 . S
C191 O183 1.303 . S
C191 O184 1.247 1_556 S
C192 O181 1.253 1_556 S
C192 O182 1.283 . S
C193 O185 1.304 . S
C193 O187 1.272 . S
C194 O186 1.311 . S
C194 O188 1.231 . S
O195 Zn177 1.953 . S
O195 C189 1.302 . S
C196 C197 1.369 . S
C196 C198 1.419 . S
C196 H200 0.930 . S
C197 C196 1.369 . S
C197 C206 1.429 . S
C198 C196 1.419 . S
C198 C199 1.363 . S
C198 H201 0.929 . S
C199 C198 1.363 . S
C199 C205 1.428 . S
H200 C196 0.930 . S
H201 C198 0.929 . S
S202 N203 1.613 1_655 S
S202 N204 1.610 1_655 S
N203 S202 1.613 1_455 S
N203 C206 1.350 . S
N204 S202 1.610 1_455 S
N204 C205 1.351 . S
C205 C199 1.428 . S
C205 N204 1.351 . S
C205 C206 1.434 . S
C206 C197 1.429 . S
C206 N203 1.350 . S
C206 C205 1.434 . S
C207 C208 1.369 . S
C207 C209 1.419 . S
C207 H211 0.930 . S
C208 C207 1.369 . S
C208 C217 1.429 . S
C209 C207 1.419 . S
C209 C210 1.363 . S
C209 H212 0.929 . S
C210 C209 1.363 . S
C210 C216 1.428 . S
H211 C207 0.930 . S
H212 C209 0.929 . S
S213 N214 1.613 . S
S213 N215 1.610 . S
N214 S213 1.613 . S
N214 C217 1.350 . S
N215 S213 1.610 . S
N215 C216 1.351 . S
C216 C210 1.428 . S
C216 N215 1.351 . S
C216 C217 1.434 . S
C217 C208 1.429 . S
C217 N214 1.350 . S
C217 C216 1.434 . S
C218 C219 1.369 . S
C218 C220 1.419 . S
C218 H222 0.930 . S
C219 C218 1.369 . S
C219 C228 1.429 . S
C220 C218 1.419 . S
C220 C221 1.363 . S
C220 H223 0.929 . S
C221 C220 1.363 . S
C221 C227 1.428 . S
H222 C218 0.930 . S
H223 C220 0.929 . S
S224 N225 1.613 . S
S224 N226 1.610 . S
N225 S224 1.613 . S
N225 C228 1.350 . S
N226 S224 1.610 . S
N226 C227 1.351 . S
C227 C221 1.428 . S
C227 N226 1.351 . S
C227 C228 1.434 . S
C228 C219 1.429 . S
C228 N225 1.350 . S
C228 C227 1.434 . S
C229 C230 1.369 . S
C229 C231 1.419 . S
C229 H233 0.930 . S
C230 C229 1.369 . S
C230 C239 1.429 . S
C231 C229 1.419 . S
C231 C232 1.363 . S
C231 H234 0.929 . S
C232 C231 1.363 . S
C232 C238 1.430 . S
H233 C229 0.930 . S
H234 C231 0.929 . S
S235 N236 1.613 1_455 S
S235 N237 1.610 . S
N236 S235 1.613 1_655 S
N236 C239 1.350 . S
N237 S235 1.610 . S
N237 C238 1.345 1_455 S
C238 C232 1.430 . S
C238 N237 1.345 1_655 S
C238 C239 1.439 . S
C239 C230 1.429 . S
C239 N236 1.350 . S
C239 C238 1.439 . S
C240 C241 1.369 . S
C240 C242 1.419 . S
C240 H244 0.930 . S
C241 C240 1.369 . S
C241 C250 1.429 . S
C242 C240 1.419 . S
C242 C243 1.363 . S
C242 H245 0.929 . S
C243 C242 1.363 . S
C243 C249 1.428 . S
H244 C240 0.930 . S
H245 C242 0.929 . S
S246 N247 1.613 1_556 S
S246 N248 1.610 . S
N247 S246 1.613 1_554 S
N247 C250 1.350 . S
N248 S246 1.610 . S
N248 C249 1.351 1_556 S
C249 C243 1.428 . S
C249 N248 1.351 1_554 S
C249 C250 1.434 . S
C250 C241 1.429 . S
C250 N247 1.350 . S
C250 C249 1.434 . S
C251 C252 1.369 . S
C251 C253 1.419 . S
C251 H255 0.930 . S
C252 C251 1.369 . S
C252 C261 1.429 . S
C253 C251 1.419 . S
C253 C254 1.363 . S
C253 H256 0.929 . S
C254 C253 1.363 . S
C254 C260 1.428 . S
H255 C251 0.930 . S
H256 C253 0.929 . S
S257 N258 1.613 . S
S257 N259 1.610 . S
N258 S257 1.613 . S
N258 C261 1.350 . S
N259 S257 1.610 . S
N259 C260 1.351 . S
C260 C254 1.428 . S
C260 N259 1.351 . S
C260 C261 1.434 . S
C261 C252 1.429 . S
C261 N258 1.350 . S
C261 C260 1.434 . S
C262 C263 1.369 . S
C262 C264 1.419 . S
C262 H266 0.930 . S
C263 C262 1.369 . S
C263 C272 1.429 . S
C264 C262 1.419 . S
C264 C265 1.363 . S
C264 H267 0.929 . S
C265 C264 1.363 . S
C265 C271 1.428 . S
H266 C262 0.930 . S
H267 C264 0.929 . S
S268 N269 1.613 1_554 S
S268 N270 1.610 . S
N269 S268 1.613 1_556 S
N269 C272 1.350 . S
N270 S268 1.610 . S
N270 C271 1.351 1_554 S
C271 C265 1.428 . S
C271 N270 1.351 1_556 S
C271 C272 1.434 . S
C272 C263 1.429 . S
C272 N269 1.350 . S
C272 C271 1.434 . S
C273 C274 1.369 . S
C273 C275 1.419 . S
C273 H277 0.930 . S
C274 C273 1.369 . S
C274 C283 1.429 . S
C275 C273 1.419 . S
C275 C276 1.363 . S
C275 H278 0.929 . S
C276 C275 1.363 . S
C276 C282 1.428 . S
H277 C273 0.930 . S
H278 C275 0.929 . S
S279 N280 1.613 . S
S279 N281 1.610 . S
N280 S279 1.613 . S
N280 C283 1.350 . S
N281 S279 1.610 . S
N281 C282 1.351 . S
C282 C276 1.428 . S
C282 N281 1.351 . S
C282 C283 1.434 . S
C283 C274 1.429 . S
C283 N280 1.350 . S
C283 C282 1.434 . S
C284 C285 1.369 . S
C284 C286 1.419 . S
C284 H288 0.930 . S
C285 C284 1.369 . S
C285 C294 1.429 . S
C286 C284 1.419 . S
C286 C287 1.363 . S
C286 H289 0.929 . S
C287 C286 1.363 . S
C287 C293 1.428 . S
H288 C284 0.930 . S
H289 C286 0.929 . S
S290 N291 1.613 . S
S290 N292 1.610 . S
N291 S290 1.613 . S
N291 C294 1.350 . S
N292 S290 1.610 . S
N292 C293 1.351 . S
C293 C287 1.428 . S
C293 N292 1.351 . S
C293 C294 1.434 . S
C294 C285 1.429 . S
C294 N291 1.350 . S
C294 C293 1.434 . S
C295 C296 1.369 . S
C295 C297 1.419 . S
C295 H299 0.930 . S
C296 C295 1.369 . S
C296 C305 1.429 . S
C297 C295 1.419 . S
C297 C298 1.363 . S
C297 H300 0.929 . S
C298 C297 1.363 . S
C298 C304 1.428 . S
H299 C295 0.930 . S
H300 C297 0.929 . S
S301 N302 1.613 . S
S301 N303 1.610 . S
N302 S301 1.613 . S
N302 C305 1.350 . S
N303 S301 1.610 . S
N303 C304 1.351 . S
C304 C298 1.428 . S
C304 N303 1.351 . S
C304 C305 1.434 . S
C305 C296 1.429 . S
C305 N302 1.350 . S
C305 C304 1.434 . S
C306 C307 1.369 . S
C306 C308 1.419 . S
C306 H310 0.930 . S
C307 C306 1.369 . S
C307 C316 1.429 . S
C308 C306 1.419 . S
C308 C309 1.363 . S
C308 H311 0.929 . S
C309 C308 1.363 . S
C309 C315 1.428 . S
H310 C306 0.930 . S
H311 C308 0.929 . S
S312 N313 1.613 1_455 S
S312 N314 1.610 . S
N313 S312 1.613 1_655 S
N313 C316 1.350 . S
N314 S312 1.610 . S
N314 C315 1.351 1_455 S
C315 C309 1.428 . S
C315 N314 1.351 1_655 S
C315 C316 1.434 . S
C316 C307 1.429 . S
C316 N313 1.350 . S
C316 C315 1.434 . S
C317 C318 1.369 . S
C317 C319 1.419 . S
C317 H321 0.930 . S
C318 C317 1.369 . S
C318 C327 1.429 . S
C319 C317 1.419 . S
C319 C320 1.363 . S
C319 H322 0.929 . S
C320 C319 1.363 . S
C320 C326 1.428 . S
H321 C317 0.930 . S
H322 C319 0.929 . S
S323 N324 1.613 . S
S323 N325 1.610 . S
N324 S323 1.613 . S
N324 C327 1.350 . S
N325 S323 1.610 . S
N325 C326 1.351 . S
C326 C320 1.428 . S
C326 N325 1.351 . S
C326 C327 1.434 . S
C327 C318 1.429 . S
C327 N324 1.350 . S
C327 C326 1.434 . S
C328 C329 1.369 1_545 S
C328 C330 1.419 . S
C328 H332 0.930 . S
C329 C328 1.369 1_565 S
C329 C338 1.427 . S
C330 C328 1.419 . S
C330 C331 1.363 1_545 S
C330 H333 0.929 . S
C331 C330 1.363 1_565 S
C331 C337 1.428 1_655 S
H332 C328 0.930 . S
H333 C330 0.929 . S
S334 N335 1.613 . S
S334 N336 1.610 . S
N335 S334 1.613 . S
N335 C338 1.352 1_455 S
N336 S334 1.610 . S
N336 C337 1.351 . S
C337 C331 1.428 1_455 S
C337 N336 1.351 . S
C337 C338 1.434 1_455 S
C338 C329 1.427 . S
C338 N335 1.352 1_655 S
C338 C337 1.434 1_655 S
C339 C340 1.369 . S
C339 C341 1.419 . S
C339 H343 0.930 1_545 S
C340 C339 1.369 . S
C340 C349 1.429 . S
C341 C339 1.419 . S
C341 C342 1.363 . S
C341 H344 0.929 1_545 S
C342 C341 1.363 . S
C342 C348 1.428 . S
H343 C339 0.930 1_565 S
H344 C341 0.929 1_565 S
S345 N346 1.613 . S
S345 N347 1.610 . S
N346 S345 1.613 . S
N346 C349 1.350 . S
N347 S345 1.610 . S
N347 C348 1.351 . S
C348 C342 1.428 . S
C348 N347 1.351 . S
C348 C349 1.434 . S
C349 C340 1.429 . S
C349 N346 1.350 . S
C349 C348 1.434 . S
C350 C351 1.369 . S
C350 C352 1.419 . S
C350 H354 0.930 . S
C351 C350 1.369 . S
C351 C360 1.429 . S
C352 C350 1.419 . S
C352 C353 1.363 . S
C352 H355 0.929 . S
C353 C352 1.363 . S
C353 C359 1.428 . S
H354 C350 0.930 . S
H355 C352 0.929 . S
S356 N357 1.613 . S
S356 N358 1.610 . S
N357 S356 1.613 . S
N357 C360 1.350 . S
N358 S356 1.610 . S
N358 C359 1.351 . S
C359 C353 1.428 . S
C359 N358 1.351 . S
C359 C360 1.434 . S
C360 C351 1.429 . S
C360 N357 1.350 . S
C360 C359 1.434 . S
C361 C362 1.369 . S
C361 C363 1.419 . S
C361 H365 0.930 . S
C362 C361 1.369 . S
C362 C371 1.429 . S
C363 C361 1.419 . S
C363 C364 1.363 . S
C363 H366 0.929 . S
C364 C363 1.363 . S
C364 C370 1.428 . S
H365 C361 0.930 . S
H366 C363 0.929 . S
S367 N368 1.613 . S
S367 N369 1.610 . S
N368 S367 1.613 . S
N368 C371 1.350 . S
N369 S367 1.610 . S
N369 C370 1.351 . S
C370 C364 1.428 . S
C370 N369 1.351 . S
C370 C371 1.434 . S
C371 C362 1.429 . S
C371 N368 1.350 . S
C371 C370 1.434 . S
C372 C373 1.369 1_545 S
C372 C374 1.419 . S
C372 H376 0.930 . S
C373 C372 1.369 1_565 S
C373 C382 1.429 . S
C374 C372 1.419 . S
C374 C375 1.363 1_545 S
C374 H377 0.929 . S
C375 C374 1.363 1_565 S
C375 C381 1.428 . S
H376 C372 0.930 . S
H377 C374 0.929 . S
S378 N379 1.613 . S
S378 N380 1.610 . S
N379 S378 1.613 . S
N379 C382 1.350 . S
N380 S378 1.610 . S
N380 C381 1.351 . S
C381 C375 1.428 . S
C381 N380 1.351 . S
C381 C382 1.434 . S
C382 C373 1.429 . S
C382 N379 1.350 . S
C382 C381 1.434 . S
C383 C384 1.369 . S
C383 C385 1.419 . S
C383 H387 0.930 . S
C384 C383 1.369 . S
C384 C393 1.429 . S
C385 C383 1.419 . S
C385 C386 1.363 . S
C385 H388 0.929 . S
C386 C385 1.363 . S
C386 C392 1.428 . S
H387 C383 0.930 . S
H388 C385 0.929 . S
S389 N390 1.613 . S
S389 N391 1.610 . S
N390 S389 1.613 . S
N390 C393 1.350 . S
N391 S389 1.610 . S
N391 C392 1.351 . S
C392 C386 1.428 . S
C392 N391 1.351 . S
C392 C393 1.434 . S
C393 C384 1.429 . S
C393 N390 1.350 . S
C393 C392 1.434 . S
C394 C395 1.369 . S
C394 C396 1.419 . S
C394 H398 0.930 . S
C395 C394 1.369 . S
C395 C404 1.429 . S
C396 C394 1.419 . S
C396 C397 1.363 . S
C396 H399 0.929 . S
C397 C396 1.363 . S
C397 C403 1.428 . S
H398 C394 0.930 . S
H399 C396 0.929 . S
S400 N401 1.613 1_556 S
S400 N402 1.610 . S
N401 S400 1.613 1_554 S
N401 C404 1.350 . S
N402 S400 1.610 . S
N402 C403 1.351 1_556 S
C403 C397 1.428 . S
C403 N402 1.351 1_554 S
C403 C404 1.434 . S
C404 C395 1.429 . S
C404 N401 1.350 . S
C404 C403 1.434 . S
C405 C406 1.369 . S
C405 C407 1.419 . S
C405 H409 0.930 . S
C406 C405 1.369 . S
C406 C415 1.429 . S
C407 C405 1.419 . S
C407 C408 1.363 . S
C407 H410 0.929 . S
C408 C407 1.363 . S
C408 C414 1.428 . S
H409 C405 0.930 . S
H410 C407 0.929 . S
S411 N412 1.613 . S
S411 N413 1.610 . S
N412 S411 1.613 . S
N412 C415 1.350 . S
N413 S411 1.610 . S
N413 C414 1.351 . S
C414 C408 1.428 . S
C414 N413 1.351 . S
C414 C415 1.434 . S
C415 C406 1.429 . S
C415 N412 1.350 . S
C415 C414 1.434 . S
C416 C417 1.369 1_554 S
C416 C418 1.423 . S
C416 H420 0.930 . S
C417 C416 1.369 1_556 S
C417 C426 1.429 . S
C418 C416 1.423 . S
C418 C419 1.363 1_554 S
C418 H421 0.926 1_655 S
C419 C418 1.363 1_556 S
C419 C425 1.428 . S
H420 C416 0.930 . S
H421 C418 0.926 1_455 S
S422 N423 1.613 . S
S422 N424 1.610 . S
N423 S422 1.613 . S
N423 C426 1.350 . S
N424 S422 1.610 . S
N424 C425 1.351 . S
C425 C419 1.428 . S
C425 N424 1.351 . S
C425 C426 1.434 . S
C426 C417 1.429 . S
C426 N423 1.350 . S
C426 C425 1.434 . S
C427 C428 1.369 . S
C427 C429 1.419 . S
C427 H431 0.930 1_554 S
C428 C427 1.369 . S
C428 C437 1.429 . S
C429 C427 1.419 . S
C429 C430 1.363 . S
C429 H432 0.929 1_554 S
C430 C429 1.363 . S
C430 C436 1.428 . S
H431 C427 0.930 1_556 S
H432 C429 0.929 1_556 S
S433 N434 1.613 . S
S433 N435 1.610 . S
N434 S433 1.613 . S
N434 C437 1.350 . S
N435 S433 1.610 . S
N435 C436 1.351 . S
C436 C430 1.428 . S
C436 N435 1.351 . S
C436 C437 1.434 . S
C437 C428 1.429 . S
C437 N434 1.350 . S
C437 C436 1.434 . S
C438 C439 1.369 . S
C438 C440 1.419 . S
C438 H442 0.930 1_455 S
C439 C438 1.369 . S
C439 C448 1.429 . S
C440 C438 1.419 . S
C440 C441 1.363 . S
C440 H443 0.929 1_455 S
C441 C440 1.363 . S
C441 C447 1.428 . S
H442 C438 0.930 1_655 S
H443 C440 0.929 1_655 S
S444 N445 1.613 . S
S444 N446 1.610 . S
N445 S444 1.613 . S
N445 C448 1.350 . S
N446 S444 1.610 . S
N446 C447 1.351 . S
C447 C441 1.428 . S
C447 N446 1.351 . S
C447 C448 1.434 . S
C448 C439 1.429 . S
C448 N445 1.350 . S
C448 C447 1.434 . S
C449 C450 1.369 . S
C449 C451 1.419 . S
C449 H453 0.930 . S
C450 C449 1.369 . S
C450 C459 1.429 . S
C451 C449 1.419 . S
C451 C452 1.363 . S
C451 H454 0.929 . S
C452 C451 1.363 . S
C452 C458 1.428 . S
H453 C449 0.930 . S
H454 C451 0.929 . S
S455 N456 1.613 . S
S455 N457 1.610 . S
N456 S455 1.613 . S
N456 C459 1.350 . S
N457 S455 1.610 . S
N457 C458 1.351 . S
C458 C452 1.428 . S
C458 N457 1.351 . S
C458 C459 1.434 . S
C459 C450 1.429 . S
C459 N456 1.350 . S
C459 C458 1.434 . S
C197 C9 1.911 . S
C199 C122 1.874 . S
C208 C21 1.600 . S
C210 C146 1.571 . S
C221 C166 1.270 . S
C219 C30 1.263 . S
C230 C43 1.199 . S
C232 C189 1.281 1_655 S
C243 C148 1.545 . S
C241 C4 1.612 . S
C254 C124 2.004 . S
C252 C22 2.059 . S
C265 C192 1.319 . S
C263 C34 1.371 . S
C276 C169 1.431 . S
C274 C48 1.485 . S
C285 C8 1.563 . S
C287 C194 1.531 . S
C298 C143 1.625 . S
C296 C35 1.606 . S
C307 C47 1.630 . S
C309 C121 1.645 . S
C318 C17 1.454 . S
C320 C171 1.372 . S
C331 C125 1.650 . S
C329 C60 1.633 . S
C340 C74 1.805 . S
C342 C147 1.788 . S
C351 C82 1.328 . S
C353 C167 1.349 . S
C362 C100 1.877 . S
C364 C190 1.911 . S
C373 C61 1.771 . S
C375 C145 1.747 . S
C386 C123 1.584 . S
C384 C73 1.568 . S
C397 C193 1.550 . S
C395 C87 1.561 . S
C408 C170 1.212 . S
C406 C95 1.233 . S
C417 C56 1.670 . S
C419 C191 1.760 1_655 S
C430 C144 1.663 . S
C428 C86 1.623 . S
C441 C120 1.517 . S
C439 C99 1.475 . S
C450 C69 1.673 . S
C452 C168 1.627 . S
