# Generated by pormake.
# Topology ptr, (4,4)-cn, num edge types: 1
# Building blocks:
#     Node 0, Type 0, BuildingBlock: GALJAG_clean_sbu_0, # of connection points: 4
#     Node 1, Type 0, BuildingBlock: GALJAG_clean_sbu_0, # of connection points: 4
#     Node 2, Type 0, BuildingBlock: GALJAG_clean_sbu_0, # of connection points: 4
#     Node 3, Type 0, BuildingBlock: GALJAG_clean_sbu_0, # of connection points: 4
#     Node 4, Type 0, BuildingBlock: GALJAG_clean_sbu_0, # of connection points: 4
#     Node 5, Type 0, BuildingBlock: GALJAG_clean_sbu_0, # of connection points: 4
#     Node 6, Type 0, BuildingBlock: GALJAG_clean_sbu_0, # of connection points: 4
#     Node 7, Type 0, BuildingBlock: GALJAG_clean_sbu_0, # of connection points: 4
#     Node 8, Type 0, BuildingBlock: GALJAG_clean_sbu_0, # of connection points: 4
#     Node 9, Type 0, BuildingBlock: GALJAG_clean_sbu_0, # of connection points: 4
#     Node 10, Type 0, BuildingBlock: GALJAG_clean_sbu_0, # of connection points: 4
#     Node 11, Type 0, BuildingBlock: GALJAG_clean_sbu_0, # of connection points: 4
#     Node 12, Type 0, BuildingBlock: GALJAG_clean_sbu_0, # of connection points: 4
#     Node 13, Type 0, BuildingBlock: GALJAG_clean_sbu_0, # of connection points: 4
#     Node 14, Type 0, BuildingBlock: GALJAG_clean_sbu_0, # of connection points: 4
#     Node 15, Type 0, BuildingBlock: GALJAG_clean_sbu_0, # of connection points: 4
#     Node 16, Type 0, BuildingBlock: GALJAG_clean_sbu_0, # of connection points: 4
#     Node 17, Type 0, BuildingBlock: GALJAG_clean_sbu_0, # of connection points: 4
#     Node 18, Type 1, BuildingBlock: NAWXER_clean_linker_0, # of connection points: 4
#     Node 19, Type 1, BuildingBlock: NAWXER_clean_linker_0, # of connection points: 4
#     Node 20, Type 1, BuildingBlock: NAWXER_clean_linker_0, # of connection points: 4
#     Node 21, Type 1, BuildingBlock: NAWXER_clean_linker_0, # of connection points: 4
#     Node 22, Type 1, BuildingBlock: NAWXER_clean_linker_0, # of connection points: 4
#     Node 23, Type 1, BuildingBlock: NAWXER_clean_linker_0, # of connection points: 4
#     Node 24, Type 1, BuildingBlock: NAWXER_clean_linker_0, # of connection points: 4
#     Node 25, Type 1, BuildingBlock: NAWXER_clean_linker_0, # of connection points: 4
#     Node 26, Type 1, BuildingBlock: NAWXER_clean_linker_0, # of connection points: 4
#     Node 27, Type 1, BuildingBlock: NAWXER_clean_linker_0, # of connection points: 4
#     Node 28, Type 1, BuildingBlock: NAWXER_clean_linker_0, # of connection points: 4
#     Node 29, Type 1, BuildingBlock: NAWXER_clean_linker_0, # of connection points: 4
#     Node 30, Type 1, BuildingBlock: NAWXER_clean_linker_0, # of connection points: 4
#     Node 31, Type 1, BuildingBlock: NAWXER_clean_linker_0, # of connection points: 4
#     Node 32, Type 1, BuildingBlock: NAWXER_clean_linker_0, # of connection points: 4
#     Node 33, Type 1, BuildingBlock: NAWXER_clean_linker_0, # of connection points: 4
#     Node 34, Type 1, BuildingBlock: NAWXER_clean_linker_0, # of connection points: 4
#     Node 35, Type 1, BuildingBlock: NAWXER_clean_linker_0, # of connection points: 4
#     Edge 36, Type (0, 1), BuildingBlock: CIFDUS_clean_linker_0, # of connection points: 2
#     Edge 37, Type (0, 1), BuildingBlock: CIFDUS_clean_linker_0, # of connection points: 2
#     Edge 38, Type (0, 1), BuildingBlock: CIFDUS_clean_linker_0, # of connection points: 2
#     Edge 39, Type (0, 1), BuildingBlock: CIFDUS_clean_linker_0, # of connection points: 2
#     Edge 40, Type (0, 1), BuildingBlock: CIFDUS_clean_linker_0, # of connection points: 2
#     Edge 41, Type (0, 1), BuildingBlock: CIFDUS_clean_linker_0, # of connection points: 2
#     Edge 42, Type (0, 1), BuildingBlock: CIFDUS_clean_linker_0, # of connection points: 2
#     Edge 43, Type (0, 1), BuildingBlock: CIFDUS_clean_linker_0, # of connection points: 2
#     Edge 44, Type (0, 1), BuildingBlock: CIFDUS_clean_linker_0, # of connection points: 2
#     Edge 45, Type (0, 1), BuildingBlock: CIFDUS_clean_linker_0, # of connection points: 2
#     Edge 46, Type (0, 1), BuildingBlock: CIFDUS_clean_linker_0, # of connection points: 2
#     Edge 47, Type (0, 1), BuildingBlock: CIFDUS_clean_linker_0, # of connection points: 2
#     Edge 48, Type (0, 1), BuildingBlock: CIFDUS_clean_linker_0, # of connection points: 2
#     Edge 49, Type (0, 1), BuildingBlock: CIFDUS_clean_linker_0, # of connection points: 2
#     Edge 50, Type (0, 1), BuildingBlock: CIFDUS_clean_linker_0, # of connection points: 2
#     Edge 51, Type (0, 1), BuildingBlock: CIFDUS_clean_linker_0, # of connection points: 2
#     Edge 52, Type (0, 1), BuildingBlock: CIFDUS_clean_linker_0, # of connection points: 2
#     Edge 53, Type (0, 1), BuildingBlock: CIFDUS_clean_linker_0, # of connection points: 2
#     Edge 54, Type (0, 1), BuildingBlock: CIFDUS_clean_linker_0, # of connection points: 2
#     Edge 55, Type (0, 1), BuildingBlock: CIFDUS_clean_linker_0, # of connection points: 2
#     Edge 56, Type (0, 1), BuildingBlock: CIFDUS_clean_linker_0, # of connection points: 2
#     Edge 57, Type (0, 1), BuildingBlock: CIFDUS_clean_linker_0, # of connection points: 2
#     Edge 58, Type (0, 1), BuildingBlock: CIFDUS_clean_linker_0, # of connection points: 2
#     Edge 59, Type (0, 1), BuildingBlock: CIFDUS_clean_linker_0, # of connection points: 2
#     Edge 60, Type (0, 1), BuildingBlock: CIFDUS_clean_linker_0, # of connection points: 2
#     Edge 61, Type (0, 1), BuildingBlock: CIFDUS_clean_linker_0, # of connection points: 2
#     Edge 62, Type (0, 1), BuildingBlock: CIFDUS_clean_linker_0, # of connection points: 2
#     Edge 63, Type (0, 1), BuildingBlock: CIFDUS_clean_linker_0, # of connection points: 2
#     Edge 64, Type (0, 1), BuildingBlock: CIFDUS_clean_linker_0, # of connection points: 2
#     Edge 65, Type (0, 1), BuildingBlock: CIFDUS_clean_linker_0, # of connection points: 2
#     Edge 66, Type (0, 1), BuildingBlock: CIFDUS_clean_linker_0, # of connection points: 2
#     Edge 67, Type (0, 1), BuildingBlock: CIFDUS_clean_linker_0, # of connection points: 2
#     Edge 68, Type (0, 1), BuildingBlock: CIFDUS_clean_linker_0, # of connection points: 2
#     Edge 69, Type (0, 1), BuildingBlock: CIFDUS_clean_linker_0, # of connection points: 2
#     Edge 70, Type (0, 1), BuildingBlock: CIFDUS_clean_linker_0, # of connection points: 2
#     Edge 71, Type (0, 1), BuildingBlock: CIFDUS_clean_linker_0, # of connection points: 2
#     Edge 72, Type (0, 1), BuildingBlock: CIFDUS_clean_linker_0, # of connection points: 2
#     Edge 73, Type (0, 1), BuildingBlock: CIFDUS_clean_linker_0, # of connection points: 2
#     Edge 74, Type (0, 1), BuildingBlock: CIFDUS_clean_linker_0, # of connection points: 2
#     Edge 75, Type (0, 1), BuildingBlock: CIFDUS_clean_linker_0, # of connection points: 2
#     Edge 76, Type (0, 1), BuildingBlock: CIFDUS_clean_linker_0, # of connection points: 2
#     Edge 77, Type (0, 1), BuildingBlock: CIFDUS_clean_linker_0, # of connection points: 2
#     Edge 78, Type (0, 1), BuildingBlock: CIFDUS_clean_linker_0, # of connection points: 2
#     Edge 79, Type (0, 1), BuildingBlock: CIFDUS_clean_linker_0, # of connection points: 2
#     Edge 80, Type (0, 1), BuildingBlock: CIFDUS_clean_linker_0, # of connection points: 2
#     Edge 81, Type (0, 1), BuildingBlock: CIFDUS_clean_linker_0, # of connection points: 2
#     Edge 82, Type (0, 1), BuildingBlock: CIFDUS_clean_linker_0, # of connection points: 2
#     Edge 83, Type (0, 1), BuildingBlock: CIFDUS_clean_linker_0, # of connection points: 2
#     Edge 84, Type (0, 1), BuildingBlock: CIFDUS_clean_linker_0, # of connection points: 2
#     Edge 85, Type (0, 1), BuildingBlock: CIFDUS_clean_linker_0, # of connection points: 2
#     Edge 86, Type (0, 1), BuildingBlock: CIFDUS_clean_linker_0, # of connection points: 2
#     Edge 87, Type (0, 1), BuildingBlock: CIFDUS_clean_linker_0, # of connection points: 2
#     Edge 88, Type (0, 1), BuildingBlock: CIFDUS_clean_linker_0, # of connection points: 2
#     Edge 89, Type (0, 1), BuildingBlock: CIFDUS_clean_linker_0, # of connection points: 2
#     Edge 90, Type (0, 1), BuildingBlock: CIFDUS_clean_linker_0, # of connection points: 2
#     Edge 91, Type (0, 1), BuildingBlock: CIFDUS_clean_linker_0, # of connection points: 2
#     Edge 92, Type (0, 1), BuildingBlock: CIFDUS_clean_linker_0, # of connection points: 2
#     Edge 93, Type (0, 1), BuildingBlock: CIFDUS_clean_linker_0, # of connection points: 2
#     Edge 94, Type (0, 1), BuildingBlock: CIFDUS_clean_linker_0, # of connection points: 2
#     Edge 95, Type (0, 1), BuildingBlock: CIFDUS_clean_linker_0, # of connection points: 2
#     Edge 96, Type (0, 1), BuildingBlock: CIFDUS_clean_linker_0, # of connection points: 2
#     Edge 97, Type (0, 1), BuildingBlock: CIFDUS_clean_linker_0, # of connection points: 2
#     Edge 98, Type (0, 1), BuildingBlock: CIFDUS_clean_linker_0, # of connection points: 2
#     Edge 99, Type (0, 1), BuildingBlock: CIFDUS_clean_linker_0, # of connection points: 2
#     Edge 100, Type (0, 1), BuildingBlock: CIFDUS_clean_linker_0, # of connection points: 2
#     Edge 101, Type (0, 1), BuildingBlock: CIFDUS_clean_linker_0, # of connection points: 2
#     Edge 102, Type (0, 1), BuildingBlock: CIFDUS_clean_linker_0, # of connection points: 2
#     Edge 103, Type (0, 1), BuildingBlock: CIFDUS_clean_linker_0, # of connection points: 2
#     Edge 104, Type (0, 1), BuildingBlock: CIFDUS_clean_linker_0, # of connection points: 2
#     Edge 105, Type (0, 1), BuildingBlock: CIFDUS_clean_linker_0, # of connection points: 2
#     Edge 106, Type (0, 1), BuildingBlock: CIFDUS_clean_linker_0, # of connection points: 2
#     Edge 107, Type (0, 1), BuildingBlock: CIFDUS_clean_linker_0, # of connection points: 2
# Relax obj value: 0.045
# Max RMSD: 0.081
# Mean RMSD: 0.066
data_MOF--net-ptr--node1-GALJAG_clean_sbu_0--node2-NAWXER_clean_linker_0--edge1-CIFDUS_clean_linker_0
_symmetry_space_group_name_H-M    P1
_symmetry_Int_Tables_number       1
_symmetry_cell_setting            triclinic
loop_
_symmetry_equiv_pos_as_xyz
'x, y, z'
_cell_length_a     77.200572
_cell_length_b     77.340386
_cell_length_c     60.44291
_cell_angle_alpha  89.983288
_cell_angle_beta   90.00134
_cell_angle_gamma 120.05183
loop_
_atom_site_label
_atom_site_type_symbol
_atom_site_fract_x
_atom_site_fract_y
_atom_site_fract_z
_atom_type_partial_charge
In0 In 0.99963 0.34629 0.01228 0.0
O1 O 0.98495 0.34797 0.04455 0.0
O2 O 0.00916 0.37481 0.03169 0.0
C3 C 0.97167 0.31081 0.99573 0.0
C4 C 0.02829 0.33979 0.02886 0.0
C5 C 0.00069 0.36844 0.97727 0.0
O6 O 0.96744 0.32093 0.00875 0.0
O7 O 0.99009 0.31818 0.9918 0.0
O8 O 0.0162 0.36826 0.98373 0.0
O9 O 0.9852 0.35782 0.98859 0.0
C10 C 0.9964 0.36656 0.04689 0.0
O11 O 0.031 0.34986 0.01139 0.0
O12 O 0.01115 0.3328 0.03738 0.0
In13 In 0.64778 0.64826 0.00693 0.0
O14 O 0.64555 0.63063 0.03872 0.0
O15 O 0.61878 0.62486 0.02248 0.0
C16 C 0.68411 0.65906 0.99013 0.0
C17 C 0.65166 0.68118 0.02682 0.0
C18 C 0.6276 0.63111 0.96943 0.0
O19 O 0.67395 0.64296 1.00075 0.0
O20 O 0.67625 0.66991 0.98865 0.0
O21 O 0.62839 0.64666 0.97729 0.0
O22 O 0.63699 0.62456 0.98042 0.0
C23 C 0.62664 0.62082 0.03841 0.0
O24 O 0.6389 0.67214 0.01175 0.0
O25 O 0.66243 0.67368 0.0316 0.0
In26 In 0.34645 0.99722 0.01233 0.0
O27 O 0.35015 0.02837 0.00702 0.0
O28 O 0.32771 0.00394 0.98878 0.0
C29 C 0.37489 0.00495 0.04308 0.0
C30 C 0.36455 0.99167 0.97725 0.0
C31 C 0.31263 0.96953 0.0327 0.0
O32 O 0.36513 0.01407 0.04297 0.0
O33 O 0.37029 0.99219 0.02795 0.0
O34 O 0.31818 0.96629 0.01427 0.0
O35 O 0.32407 0.98659 0.04069 0.0
C36 C 0.33662 0.02246 0.99243 0.0
O37 O 0.3505 0.97713 0.98753 0.0
O38 O 0.36928 0.00871 0.98477 0.0
In39 In 0.00455 0.65173 0.00893 0.0
O40 O 0.02313 0.64701 0.9826 0.0
O41 O 0.9924 0.62498 0.986 0.0
C42 C 0.03188 0.68646 0.02744 0.0
C43 C 0.98125 0.66275 0.98707 0.0
C44 C 0.99764 0.62731 0.04389 0.0
O45 O 0.03657 0.67699 0.01397 0.0
O46 O 0.01335 0.67866 0.03109 0.0
O47 O 0.98378 0.62921 0.03519 0.0
O48 O 0.0145 0.63748 0.03484 0.0
C49 C 0.00862 0.63073 0.97578 0.0
O50 O 0.97523 0.65198 0.00428 0.0
O51 O 0.99903 0.66829 0.98152 0.0
In52 In 0.352 0.35994 0.00754 0.0
O53 O 0.3539 0.38292 0.98244 0.0
O54 O 0.37508 0.37298 0.98011 0.0
C55 C 0.31914 0.35381 0.03 0.0
C56 C 0.34166 0.32471 0.98785 0.0
C57 C 0.38077 0.38088 0.03772 0.0
O58 O 0.32362 0.36213 0.01126 0.0
O59 O 0.33109 0.34851 0.03722 0.0
O60 O 0.37203 0.36203 0.03686 0.0
O61 O 0.37507 0.38887 0.02348 0.0
C62 C 0.36879 0.38401 0.97238 0.0
O63 O 0.35578 0.33264 1.0017 0.0
O64 O 0.33255 0.33419 0.98465 0.0
In65 In 0.64928 0.99893 0.01184 0.0
O66 O 0.64648 0.02025 0.03615 0.0
O67 O 0.62247 0.99023 0.03386 0.0
C68 C 0.68405 0.02104 0.99008 0.0
C69 C 0.65796 0.97518 0.03634 0.0
C70 C 0.62469 0.99235 0.97733 0.0
O71 O 0.67817 0.02847 0.00493 0.0
O72 O 0.67274 0.00256 0.98692 0.0
O73 O 0.6249 0.97811 0.98742 0.0
O74 O 0.63651 0.0095 0.98494 0.0
C75 C 0.62941 0.00707 0.04303 0.0
O76 O 0.64769 0.96903 0.0188 0.0
O77 O 0.66406 0.99322 0.04105 0.0
In78 In 0.66716 0.6855 0.34814 0.0
O79 O 0.65006 0.68927 0.37723 0.0
O80 O 0.68096 0.71053 0.37301 0.0
C81 C 0.63918 0.65089 0.32984 0.0
C82 C 0.69605 0.67841 0.36262 0.0
C83 C 0.66923 0.71076 0.31619 0.0
O84 O 0.63683 0.65635 0.34879 0.0
O85 O 0.65559 0.66267 0.3206 0.0
O86 O 0.68073 0.70353 0.31639 0.0
O87 O 0.65693 0.70528 0.33198 0.0
C88 C 0.66524 0.70505 0.38412 0.0
O89 O 0.69971 0.69305 0.3503 0.0
O90 O 0.67776 0.66696 0.36692 0.0
In91 In 0.31414 0.98227 0.34878 0.0
O92 O 0.31603 0.96203 0.37538 0.0
O93 O 0.29329 0.96984 0.37811 0.0
C94 C 0.3466 0.99103 0.32394 0.0
C95 C 0.32083 0.01736 0.36561 0.0
C96 C 0.28517 0.95839 0.32016 0.0
O97 O 0.34323 0.98184 0.34216 0.0
O98 O 0.33388 0.99598 0.31871 0.0
O99 O 0.29246 0.97709 0.32029 0.0
O100 O 0.29236 0.95187 0.33443 0.0
C101 C 0.30119 0.96037 0.38614 0.0
O102 O 0.30532 0.00593 0.35464 0.0
O103 O 0.33321 0.01132 0.36759 0.0
In104 In 0.01977 0.33512 0.34566 0.0
O105 O 0.02579 0.36692 0.33976 0.0
O106 O 0.99872 0.34276 0.3273 0.0
C107 C 0.04904 0.34361 0.37586 0.0
C108 C 0.0334 0.32854 0.30735 0.0
C109 C 0.98742 0.30523 0.36593 0.0
O110 O 0.03639 0.34921 0.37849 0.0
O111 O 0.04696 0.33413 0.35824 0.0
O112 O 0.9977 0.30207 0.35199 0.0
O113 O 0.99337 0.32343 0.36952 0.0
C114 C 0.00986 0.36143 0.32894 0.0
O115 O 0.01887 0.31464 0.31774 0.0
O116 O 0.04074 0.34555 0.31621 0.0
In117 In 0.66383 0.97895 0.34364 0.0
O118 O 0.6855 0.97559 0.32015 0.0
O119 O 0.65473 0.95333 0.31977 0.0
C120 C 0.68856 0.01435 0.36288 0.0
C121 C 0.64059 0.98891 0.31977 0.0
C122 C 0.65435 0.95355 0.37835 0.0
O123 O 0.69491 0.00532 0.35084 0.0
O124 O 0.66976 0.00568 0.36483 0.0
O125 O 0.64126 0.95264 0.36512 0.0
O126 O 0.67193 0.96718 0.37415 0.0
C127 C 0.67188 0.95959 0.31165 0.0
O128 O 0.63455 0.97906 0.3376 0.0
O129 O 0.65837 0.99413 0.31456 0.0
In130 In 0.02099 0.68072 0.35124 0.0
O131 O 0.02298 0.70058 0.32177 0.0
O132 O 0.04985 0.70322 0.33466 0.0
C133 C 0.98561 0.66963 0.37107 0.0
C134 C 0.01536 0.64768 0.32984 0.0
C135 C 0.04455 0.69896 0.38633 0.0
O136 O 0.99278 0.68315 0.35645 0.0
O137 O 0.99588 0.66144 0.37486 0.0
O138 O 0.04448 0.68438 0.37672 0.0
O139 O 0.03284 0.70422 0.37814 0.0
C140 C 0.04184 0.709 0.32053 0.0
O141 O 0.02404 0.65283 0.34836 0.0
O142 O 0.00943 0.65904 0.32235 0.0
In143 In 0.31971 0.33627 0.35035 0.0
O144 O 0.31364 0.30459 0.35717 0.0
O145 O 0.34098 0.32889 0.36875 0.0
C146 C 0.29312 0.32872 0.31745 0.0
C147 C 0.30212 0.34219 0.38595 0.0
C148 C 0.35319 0.36475 0.33029 0.0
O149 O 0.30232 0.31914 0.31946 0.0
O150 O 0.29709 0.34173 0.33217 0.0
O151 O 0.34801 0.36724 0.34932 0.0
O152 O 0.34164 0.34798 0.32168 0.0
C153 C 0.32978 0.31021 0.36756 0.0
O154 O 0.31679 0.35644 0.37614 0.0
O155 O 0.29643 0.32518 0.37774 0.0
In156 In 0.32986 0.01741 0.68442 0.0
O157 O 0.36133 0.02129 0.68412 0.0
O158 O 0.34223 0.00626 0.71139 0.0
C159 C 0.33082 0.03964 0.64953 0.0
C160 C 0.32285 0.03674 0.71729 0.0
C161 C 0.30568 0.98046 0.66819 0.0
O162 O 0.34656 0.04083 0.65738 0.0
O163 O 0.31494 0.02761 0.65951 0.0
O164 O 0.30112 0.98695 0.68509 0.0
O165 O 0.32251 0.99243 0.65992 0.0
C166 C 0.35911 0.01258 0.70247 0.0
O167 O 0.30977 0.01952 0.71088 0.0
O168 O 0.33924 0.04419 0.70694 0.0
In169 In 0.97889 0.31332 0.67721 0.0
O170 O 0.97943 0.34325 0.67745 0.0
O171 O 0.99295 0.33668 0.70429 0.0
C172 C 0.95488 0.2946 0.64242 0.0
C173 C 0.95686 0.28743 0.70953 0.0
C174 C 0.01425 0.3209 0.65997 0.0
O175 O 0.95582 0.30991 0.65112 0.0
O176 O 0.96575 0.28873 0.65146 0.0
O177 O 0.00718 0.3107 0.67739 0.0
O178 O 0.00378 0.32762 0.65176 0.0
C179 C 0.98849 0.3488 0.69573 0.0
O180 O 0.97369 0.28994 0.7037 0.0
O181 O 0.95121 0.29777 0.69892 0.0
In182 In 0.69055 0.67003 0.67862 0.0
O183 O 0.70341 0.70279 0.66835 0.0
O184 O 0.6734 0.68201 0.65951 0.0
C185 C 0.71427 0.68369 0.715 0.0
C186 C 0.70464 0.65522 0.64716 0.0
C187 C 0.65528 0.6405 0.69432 0.0
O188 O 0.69551 0.67569 0.71587 0.0
O189 O 0.72119 0.68572 0.69568 0.0
O190 O 0.66844 0.63713 0.68637 0.0
O191 O 0.65976 0.65856 0.69382 0.0
C192 C 0.68761 0.6998 0.65876 0.0
O193 O 0.7071 0.6539 0.66757 0.0
O194 O 0.6944 0.66331 0.64259 0.0
In195 In 0.33654 0.31622 0.67936 0.0
O196 O 0.35506 0.31321 0.65178 0.0
O197 O 0.32471 0.29014 0.65543 0.0
C198 C 0.36379 0.35121 0.69755 0.0
C199 C 0.31163 0.32568 0.65826 0.0
C200 C 0.3325 0.29171 0.71342 0.0
O201 O 0.36843 0.34178 0.684 0.0
O202 O 0.34531 0.34324 0.70157 0.0
O203 O 0.31862 0.2952 0.70837 0.0
O204 O 0.34772 0.30025 0.70121 0.0
C205 C 0.34087 0.29683 0.64475 0.0
O206 O 0.30587 0.3139 0.67468 0.0
O207 O 0.32985 0.33297 0.65327 0.0
In208 In 0.68446 0.02011 0.67856 0.0
O209 O 0.68577 0.04098 0.65081 0.0
O210 O 0.71099 0.03721 0.656 0.0
C211 C 0.65099 0.01005 0.70181 0.0
C212 C 0.67521 0.98638 0.65633 0.0
C213 C 0.71021 0.04084 0.71126 0.0
O214 O 0.65615 0.0218 0.68542 0.0
O215 O 0.66235 0.00308 0.70585 0.0
O216 O 0.70744 0.024 0.70501 0.0
O217 O 0.70028 0.04709 0.70077 0.0
C218 C 0.70316 0.04526 0.64473 0.0
O219 O 0.68794 0.99277 0.67185 0.0
O220 O 0.66689 0.99659 0.65281 0.0
In221 In 0.98217 0.66436 0.67858 0.0
O222 O 0.97534 0.63291 0.68798 0.0
O223 O 0.00154 0.6576 0.70137 0.0
C224 C 0.95659 0.65608 0.64433 0.0
C225 C 0.96577 0.6737 0.71281 0.0
C226 C 0.01633 0.68903 0.65686 0.0
O227 O 0.96085 0.6434 0.65177 0.0
O228 O 0.96504 0.67262 0.65427 0.0
O229 O 0.00755 0.69542 0.6692 0.0
O230 O 0.00806 0.67025 0.65578 0.0
C231 C 0.9905 0.63887 0.70031 0.0
O232 O 0.98295 0.68582 0.70537 0.0
O233 O 0.95699 0.65715 0.7029 0.0
C234 C 0.23568 0.3469 0.13469 0.0
C235 C 0.23284 0.3356 0.11547 0.0
C236 C 0.21924 0.34489 0.14658 0.0
C237 C 0.19963 0.33107 0.13985 0.0
C238 C 0.2133 0.32205 0.1085 0.0
C239 C 0.19687 0.31977 0.12061 0.0
C240 C 0.18187 0.32931 0.15147 0.0
C241 C 0.21166 0.31505 0.20997 0.0
C242 C 0.22028 0.33119 0.22495 0.0
C243 C 0.19931 0.31472 0.19275 0.0
C244 C 0.19529 0.33041 0.19038 0.0
C245 C 0.21691 0.34729 0.22165 0.0
C246 C 0.20431 0.34673 0.2048 0.0
C247 C 0.18 0.32907 0.17475 0.0
C248 C 0.10816 0.31502 0.21388 0.0
C249 C 0.10255 0.32936 0.20926 0.0
C250 C 0.12243 0.31377 0.20086 0.0
C251 C 0.13126 0.32667 0.18282 0.0
C252 C 0.11099 0.3419 0.19077 0.0
C253 C 0.12528 0.34064 0.17774 0.0
C254 C 0.14818 0.32684 0.17112 0.0
C255 C 0.1235 0.34011 0.10417 0.0
C256 C 0.10352 0.32462 0.10647 0.0
C257 C 0.13865 0.3404 0.11714 0.0
C258 C 0.13407 0.32543 0.13292 0.0
C259 C 0.09923 0.30912 0.12161 0.0
C260 C 0.11434 0.30958 0.13476 0.0
C261 C 0.14984 0.3268 0.14788 0.0
H262 H 0.25063 0.35773 0.14014 0.0
H263 H 0.22197 0.35462 0.16059 0.0
H264 H 0.21074 0.31314 0.09373 0.0
H265 H 0.18194 0.30919 0.11486 0.0
H266 H 0.21375 0.30232 0.21204 0.0
H267 H 0.19224 0.30186 0.1819 0.0
H268 H 0.22373 0.36026 0.23234 0.0
H269 H 0.20138 0.35899 0.20319 0.0
H270 H 0.10222 0.30536 0.22819 0.0
H271 H 0.12697 0.30303 0.20524 0.0
H272 H 0.10692 0.35305 0.18671 0.0
H273 H 0.13223 0.35114 0.16428 0.0
H274 H 0.12738 0.35242 0.09291 0.0
H275 H 0.15382 0.35275 0.11545 0.0
H276 H 0.08415 0.29668 0.12347 0.0
H277 H 0.11057 0.29767 0.14657 0.0
N278 N 0.16663 0.3281 0.13894 0.0
N279 N 0.1633 0.32792 0.18359 0.0
C280 C 0.65917 0.88577 0.12077 0.0
C281 C 0.67163 0.89342 0.10217 0.0
C282 C 0.66069 0.87224 0.13483 0.0
C283 C 0.67523 0.86668 0.131 0.0
C284 C 0.68594 0.8877 0.09809 0.0
C285 C 0.68778 0.87453 0.11243 0.0
C286 C 0.67606 0.8511 0.14457 0.0
C287 C 0.68342 0.8974 0.19634 0.0
C288 C 0.66797 0.8899 0.21217 0.0
C289 C 0.68508 0.88445 0.18135 0.0
C290 C 0.6713 0.86383 0.18201 0.0
C291 C 0.65425 0.86927 0.21265 0.0
C292 C 0.65595 0.85643 0.19783 0.0
C293 C 0.67345 0.84942 0.16783 0.0
C294 C 0.68998 0.78518 0.19502 0.0
C295 C 0.67425 0.77492 0.21023 0.0
C296 C 0.68963 0.79887 0.18013 0.0
C297 C 0.67362 0.80261 0.18031 0.0
C298 C 0.65779 0.77804 0.20946 0.0
C299 C 0.65762 0.79193 0.19488 0.0
C300 C 0.67435 0.81904 0.16717 0.0
C301 C 0.65953 0.77028 0.11781 0.0
C302 C 0.67535 0.77447 0.10328 0.0
C303 C 0.66029 0.78524 0.13139 0.0
C304 C 0.67681 0.80469 0.13054 0.0
C305 C 0.69194 0.79392 0.10253 0.0
C306 C 0.69253 0.809 0.11587 0.0
C307 C 0.67705 0.82068 0.14409 0.0
H308 H 0.64779 0.88973 0.12399 0.0
H309 H 0.65003 0.86569 0.14821 0.0
H310 H 0.69568 0.89343 0.08381 0.0
H311 H 0.69889 0.87027 0.10884 0.0
H312 H 0.6942 0.91322 0.19556 0.0
H313 H 0.69731 0.89046 0.16958 0.0
H314 H 0.64241 0.86294 0.22488 0.0
H315 H 0.64529 0.84056 0.19884 0.0
H316 H 0.70298 0.78332 0.19525 0.0
H317 H 0.70228 0.8072 0.16921 0.0
H318 H 0.64514 0.77003 0.22045 0.0
H319 H 0.6451 0.79457 0.19521 0.0
H320 H 0.64663 0.75537 0.11876 0.0
H321 H 0.64781 0.78169 0.14231 0.0
H322 H 0.70426 0.79752 0.09135 0.0
H323 H 0.7053 0.82398 0.11483 0.0
N324 N 0.67787 0.83666 0.13367 0.0
N325 N 0.67262 0.8334 0.17809 0.0
C326 C 0.10898 0.77346 0.12236 0.0
C327 C 0.09776 0.778 0.10761 0.0
C328 C 0.12296 0.78814 0.13642 0.0
C329 C 0.12608 0.80763 0.1358 0.0
C330 C 0.10071 0.79745 0.10719 0.0
C331 C 0.11497 0.81224 0.121 0.0
C332 C 0.14172 0.82343 0.14963 0.0
C333 C 0.09258 0.78655 0.20014 0.0
C334 C 0.09846 0.77693 0.21572 0.0
C335 C 0.10651 0.80045 0.18523 0.0
C336 C 0.12655 0.805 0.18574 0.0
C337 C 0.11834 0.78084 0.21526 0.0
C338 C 0.13224 0.79488 0.20064 0.0
C339 C 0.14219 0.8218 0.17282 0.0
C340 C 0.20576 0.90221 0.20257 0.0
C341 C 0.21537 0.8968 0.21868 0.0
C342 C 0.19241 0.88806 0.18752 0.0
C343 C 0.18833 0.86824 0.18844 0.0
C344 C 0.21163 0.877 0.21897 0.0
C345 C 0.19804 0.86284 0.20424 0.0
C346 C 0.17297 0.85269 0.17409 0.0
C347 C 0.22614 0.8899 0.13183 0.0
C348 C 0.22286 0.89863 0.11316 0.0
C349 C 0.21002 0.87529 0.14388 0.0
C350 C 0.19024 0.86963 0.13802 0.0
C351 C 0.20314 0.89244 0.10664 0.0
C352 C 0.18696 0.87809 0.11902 0.0
C353 C 0.17301 0.85401 0.15076 0.0
H354 H 0.1069 0.75853 0.12303 0.0
H355 H 0.13163 0.78437 0.14747 0.0
H356 H 0.09231 0.80131 0.09584 0.0
H357 H 0.11733 0.82726 0.12017 0.0
H358 H 0.07745 0.78401 0.20009 0.0
H359 H 0.10187 0.80832 0.17406 0.0
H360 H 0.12332 0.77333 0.22654 0.0
H361 H 0.14762 0.79814 0.20126 0.0
H362 H 0.20806 0.91721 0.20198 0.0
H363 H 0.18482 0.89243 0.17562 0.0
H364 H 0.21912 0.87236 0.23067 0.0
H365 H 0.19511 0.84761 0.20515 0.0
H366 H 0.24122 0.89413 0.13688 0.0
H367 H 0.21313 0.86825 0.15759 0.0
H368 H 0.20028 0.89893 0.09219 0.0
H369 H 0.17187 0.87372 0.11384 0.0
N370 N 0.15718 0.83942 0.13943 0.0
N371 N 0.15774 0.83654 0.18414 0.0
C372 C 0.33853 0.11618 0.83171 0.0
C373 C 0.32392 0.10686 0.81516 0.0
C374 C 0.33707 0.12881 0.84716 0.0
C375 C 0.32082 0.13223 0.84662 0.0
C376 C 0.30731 0.10973 0.81509 0.0
C377 C 0.30586 0.12238 0.83058 0.0
C378 C 0.3209 0.14813 0.86041 0.0
C379 C 0.3157 0.10359 0.91236 0.0
C380 C 0.33318 0.10995 0.92508 0.0
C381 C 0.31385 0.11678 0.89804 0.0
C382 C 0.32929 0.13671 0.89634 0.0
C383 C 0.34876 0.1299 0.92291 0.0
C384 C 0.3467 0.14317 0.90894 0.0
C385 C 0.3267 0.15124 0.88288 0.0
C386 C 0.31574 0.21886 0.91222 0.0
C387 C 0.33396 0.23072 0.92345 0.0
C388 C 0.31326 0.2033 0.89836 0.0
C389 C 0.32884 0.19914 0.89565 0.0
C390 C 0.34963 0.22664 0.92028 0.0
C391 C 0.34699 0.21087 0.90676 0.0
C392 C 0.32594 0.18171 0.88268 0.0
C393 C 0.33088 0.22605 0.83064 0.0
C394 C 0.31445 0.21919 0.81618 0.0
C395 C 0.33216 0.21305 0.84576 0.0
C396 C 0.31698 0.19293 0.84687 0.0
C397 C 0.29894 0.19922 0.81782 0.0
C398 C 0.30029 0.18619 0.83288 0.0
C399 C 0.31955 0.17836 0.86041 0.0
H400 H 0.35143 0.11416 0.83232 0.0
H401 H 0.34921 0.13668 0.85878 0.0
H402 H 0.29592 0.10295 0.80242 0.0
H403 H 0.29333 0.12498 0.82959 0.0
H404 H 0.30316 0.08854 0.91383 0.0
H405 H 0.30009 0.11159 0.88881 0.0
H406 H 0.36263 0.13535 0.93195 0.0
H407 H 0.35878 0.15853 0.90791 0.0
H408 H 0.30319 0.22125 0.91451 0.0
H409 H 0.29898 0.19414 0.89027 0.0
H410 H 0.36401 0.23564 0.92818 0.0
H411 H 0.35919 0.20785 0.9049 0.0
H412 H 0.34302 0.24137 0.82985 0.0
H413 H 0.34548 0.21856 0.85585 0.0
H414 H 0.28621 0.19342 0.80675 0.0
H415 H 0.28851 0.17068 0.83323 0.0
N416 N 0.31736 0.16173 0.85016 0.0
N417 N 0.32917 0.16799 0.89305 0.0
C418 C 0.90949 0.21014 0.89995 0.0
C419 C 0.90337 0.21734 0.91801 0.0
C420 C 0.89542 0.19472 0.88659 0.0
C421 C 0.8748 0.18668 0.89029 0.0
C422 C 0.88272 0.2088 0.92202 0.0
C423 C 0.86869 0.19388 0.90825 0.0
C424 C 0.85938 0.16967 0.8771 0.0
C425 C 0.89356 0.21542 0.82388 0.0
C426 C 0.90316 0.20962 0.80823 0.0
C427 C 0.88035 0.20172 0.83936 0.0
C428 C 0.87658 0.18197 0.83959 0.0
C429 C 0.8996 0.18993 0.80873 0.0
C430 C 0.88632 0.17621 0.82415 0.0
C431 C 0.86101 0.16678 0.85422 0.0
C432 C 0.78044 0.10176 0.82746 0.0
C433 C 0.78602 0.09164 0.81227 0.0
C434 C 0.7944 0.11548 0.84236 0.0
C435 C 0.81419 0.11925 0.84248 0.0
C436 C 0.80564 0.09491 0.81295 0.0
C437 C 0.81961 0.1087 0.8278 0.0
C438 C 0.82988 0.13597 0.85551 0.0
C439 C 0.78906 0.09327 0.90872 0.0
C440 C 0.77909 0.10114 0.92107 0.0
C441 C 0.80453 0.10541 0.89414 0.0
C442 C 0.81043 0.12567 0.89178 0.0
C443 C 0.78487 0.12138 0.9182 0.0
C444 C 0.8005 0.13353 0.90393 0.0
C445 C 0.82787 0.13924 0.87808 0.0
H446 H 0.92518 0.21633 0.89604 0.0
H447 H 0.9008 0.18894 0.87366 0.0
H448 H 0.87723 0.21331 0.93607 0.0
H449 H 0.85295 0.18778 0.91188 0.0
H450 H 0.89607 0.23051 0.82398 0.0
H451 H 0.87267 0.20641 0.85074 0.0
H452 H 0.90655 0.18492 0.79672 0.0
H453 H 0.88341 0.16097 0.82381 0.0
H454 H 0.7654 0.09946 0.8274 0.0
H455 H 0.78993 0.12381 0.85303 0.0
H456 H 0.81047 0.08754 0.8013 0.0
H457 H 0.83486 0.11157 0.82738 0.0
H458 H 0.7853 0.07787 0.9107 0.0
H459 H 0.81227 0.09914 0.88521 0.0
H460 H 0.7773 0.12792 0.92695 0.0
H461 H 0.80485 0.14915 0.90235 0.0
N462 N 0.84273 0.15582 0.88793 0.0
N463 N 0.84634 0.14992 0.8445 0.0
C464 C 0.7819 0.68396 0.90113 0.0
C465 C 0.77305 0.66711 0.91511 0.0
C466 C 0.79884 0.68833 0.88851 0.0
C467 C 0.80698 0.67565 0.88921 0.0
C468 C 0.78152 0.65471 0.91599 0.0
C469 C 0.79816 0.65889 0.90316 0.0
C470 C 0.82545 0.68008 0.87702 0.0
C471 C 0.78418 0.67749 0.82131 0.0
C472 C 0.79241 0.69463 0.80782 0.0
C473 C 0.79591 0.67513 0.83737 0.0
C474 C 0.81597 0.69002 0.84046 0.0
C475 C 0.8123 0.70974 0.81144 0.0
C476 C 0.82396 0.70741 0.82751 0.0
C477 C 0.82957 0.68668 0.85479 0.0
C478 C 0.89069 0.66554 0.82897 0.0
C479 C 0.90022 0.6795 0.81188 0.0
C480 C 0.87838 0.66792 0.84412 0.0
C481 C 0.87556 0.68449 0.84276 0.0
C482 C 0.89804 0.69648 0.81105 0.0
C483 C 0.88573 0.69887 0.82626 0.0
C484 C 0.85977 0.68518 0.85608 0.0
C485 C 0.90362 0.68937 0.90789 0.0
C486 C 0.89647 0.67257 0.92185 0.0
C487 C 0.89069 0.69151 0.89343 0.0
C488 C 0.87031 0.67698 0.89271 0.0
C489 C 0.87604 0.658 0.92093 0.0
C490 C 0.86308 0.66029 0.90668 0.0
C491 C 0.85621 0.67969 0.87859 0.0
H492 H 0.77576 0.69381 0.89989 0.0
H493 H 0.8057 0.70176 0.87855 0.0
H494 H 0.77554 0.64191 0.92691 0.0
H495 H 0.80426 0.64898 0.9043 0.0
H496 H 0.76899 0.66546 0.8187 0.0
H497 H 0.78956 0.66132 0.84668 0.0
H498 H 0.819 0.72319 0.80148 0.0
H499 H 0.83944 0.71902 0.82946 0.0
H500 H 0.89218 0.65237 0.83017 0.0
H501 H 0.87025 0.65619 0.85611 0.0
H502 H 0.905 0.70739 0.79795 0.0
H503 H 0.88358 0.71163 0.82465 0.0
H504 H 0.91915 0.7011 0.90843 0.0
H505 H 0.89652 0.70476 0.8832 0.0
H506 H 0.87002 0.6447 0.93109 0.0
H507 H 0.84739 0.64893 0.90645 0.0
N508 N 0.83911 0.6771 0.888 0.0
N509 N 0.84648 0.6888 0.84525 0.0
C510 C 0.76032 0.63954 0.45434 0.0
C511 C 0.76628 0.65286 0.43629 0.0
C512 C 0.77452 0.63853 0.4678 0.0
C513 C 0.79509 0.65143 0.46419 0.0
C514 C 0.7869 0.66516 0.43223 0.0
C515 C 0.80105 0.66457 0.44609 0.0
C516 C 0.81065 0.65059 0.47792 0.0
C517 C 0.77419 0.66179 0.52849 0.0
C518 C 0.76434 0.64637 0.5441 0.0
C519 C 0.78843 0.66187 0.51413 0.0
C520 C 0.793 0.64645 0.51495 0.0
C521 C 0.76887 0.63087 0.54473 0.0
C522 C 0.78317 0.63101 0.53042 0.0
C523 C 0.80913 0.64716 0.50104 0.0
C524 C 0.89134 0.6677 0.52833 0.0
C525 C 0.88656 0.65374 0.5455 0.0
C526 C 0.87676 0.66563 0.51316 0.0
C527 C 0.85713 0.64941 0.51464 0.0
C528 C 0.86709 0.63717 0.54652 0.0
C529 C 0.85251 0.63511 0.53133 0.0
C530 C 0.84086 0.6487 0.50094 0.0
C531 C 0.8807 0.64315 0.44932 0.0
C532 C 0.89101 0.66041 0.4361 0.0
C533 C 0.86534 0.64076 0.46352 0.0
C534 C 0.85977 0.65544 0.46455 0.0
C535 C 0.88552 0.67521 0.43759 0.0
C536 C 0.86991 0.67261 0.45142 0.0
C537 C 0.84251 0.65245 0.47797 0.0
H538 H 0.74466 0.62989 0.45825 0.0
H539 H 0.7693 0.62748 0.48085 0.0
H540 H 0.79225 0.67516 0.41817 0.0
H541 H 0.81678 0.67442 0.44253 0.0
H542 H 0.7714 0.67418 0.52783 0.0
H543 H 0.79622 0.67424 0.50275 0.0
H544 H 0.76143 0.61865 0.55635 0.0
H545 H 0.78659 0.61905 0.53146 0.0
H546 H 0.90624 0.68057 0.527 0.0
H547 H 0.88066 0.67726 0.50096 0.0
H548 H 0.86285 0.62628 0.55969 0.0
H549 H 0.83741 0.62262 0.53301 0.0
H550 H 0.88414 0.63121 0.44839 0.0
H551 H 0.85743 0.62722 0.47323 0.0
H552 H 0.89332 0.68892 0.42816 0.0
H553 H 0.86579 0.6841 0.45198 0.0
N554 N 0.82737 0.6532 0.46744 0.0
N555 N 0.8242 0.64617 0.51153 0.0
C556 C 0.32031 0.21391 0.45373 0.0
C557 C 0.33456 0.22524 0.43748 0.0
C558 C 0.32345 0.20152 0.46797 0.0
C559 C 0.34095 0.20029 0.46634 0.0
C560 C 0.35206 0.22398 0.43586 0.0
C561 C 0.35513 0.21146 0.45004 0.0
C562 C 0.34372 0.18626 0.48048 0.0
C563 C 0.34715 0.23297 0.52873 0.0
C564 C 0.33253 0.22523 0.5455 0.0
C565 C 0.34962 0.2201 0.51446 0.0
C566 C 0.33745 0.19931 0.51668 0.0
C567 C 0.32015 0.20442 0.54731 0.0
C568 C 0.32263 0.19164 0.53312 0.0
C569 C 0.34109 0.18525 0.50365 0.0
C570 C 0.35971 0.12154 0.53245 0.0
C571 C 0.34577 0.11371 0.54989 0.0
C572 C 0.35921 0.13502 0.51732 0.0
C573 C 0.34463 0.14076 0.51926 0.0
C574 C 0.33119 0.11945 0.55163 0.0
C575 C 0.33063 0.13277 0.53652 0.0
C576 C 0.34469 0.15635 0.50493 0.0
C577 C 0.33158 0.1067 0.45715 0.0
C578 C 0.34689 0.11137 0.4417 0.0
C579 C 0.33203 0.12156 0.47065 0.0
C580 C 0.34778 0.14136 0.46887 0.0
C581 C 0.36281 0.13114 0.44015 0.0
C582 C 0.3631 0.14608 0.45346 0.0
C583 C 0.34729 0.15731 0.48175 0.0
H584 H 0.30674 0.21466 0.45547 0.0
H585 H 0.31202 0.19264 0.48001 0.0
H586 H 0.3632 0.23238 0.42334 0.0
H587 H 0.36858 0.21049 0.44828 0.0
H588 H 0.35686 0.24894 0.52687 0.0
H589 H 0.36144 0.22639 0.50221 0.0
H590 H 0.309 0.19793 0.56026 0.0
H591 H 0.31318 0.17565 0.53528 0.0
H592 H 0.3711 0.11738 0.53058 0.0
H593 H 0.37055 0.14136 0.50456 0.0
H594 H 0.32049 0.11412 0.56509 0.0
H595 H 0.31936 0.13709 0.53856 0.0
H596 H 0.3192 0.09155 0.45872 0.0
H597 H 0.31983 0.11766 0.4821 0.0
H598 H 0.3747 0.13511 0.42824 0.0
H599 H 0.37523 0.16133 0.45167 0.0
N600 N 0.34682 0.17229 0.47043 0.0
N601 N 0.34169 0.17037 0.51486 0.0
C602 C 0.78586 0.10249 0.44696 0.0
C603 C 0.77318 0.10513 0.43239 0.0
C604 C 0.79865 0.11787 0.46111 0.0
C605 C 0.79901 0.13618 0.46108 0.0
C606 C 0.77339 0.12342 0.43251 0.0
C607 C 0.78639 0.13892 0.44659 0.0
C608 C 0.81388 0.15284 0.47474 0.0
C609 C 0.77074 0.12381 0.53627 0.0
C610 C 0.77405 0.10858 0.5442 0.0
C611 C 0.78302 0.13692 0.51977 0.0
C612 C 0.79881 0.13507 0.51098 0.0
C613 C 0.78919 0.10612 0.53426 0.0
C614 C 0.80166 0.11946 0.51812 0.0
C615 C 0.81447 0.15152 0.49792 0.0
C616 C 0.88364 0.23072 0.52655 0.0
C617 C 0.89161 0.22349 0.54263 0.0
C618 C 0.86889 0.21755 0.51183 0.0
C619 C 0.86194 0.19694 0.51295 0.0
C620 C 0.88466 0.20287 0.54352 0.0
C621 C 0.86997 0.18978 0.52892 0.0
C622 C 0.84528 0.18237 0.49893 0.0
C623 C 0.896 0.21811 0.4519 0.0
C624 C 0.89234 0.23056 0.43809 0.0
C625 C 0.88049 0.20306 0.46427 0.0
C626 C 0.86104 0.20012 0.46295 0.0
C627 C 0.87284 0.22755 0.43675 0.0
C628 C 0.85726 0.21228 0.4489 0.0
C629 C 0.84456 0.18397 0.47571 0.0
H630 H 0.78595 0.08853 0.44734 0.0
H631 H 0.80872 0.11564 0.47163 0.0
H632 H 0.7639 0.12591 0.42131 0.0
H633 H 0.78671 0.15308 0.44608 0.0
H634 H 0.75945 0.12638 0.54365 0.0
H635 H 0.78092 0.14921 0.51479 0.0
H636 H 0.79193 0.09432 0.53954 0.0
H637 H 0.81407 0.11808 0.51188 0.0
H638 H 0.88872 0.24653 0.52543 0.0
H639 H 0.86261 0.22341 0.49999 0.0
H640 H 0.89018 0.19674 0.55595 0.0
H641 H 0.86471 0.17394 0.53025 0.0
H642 H 0.91091 0.22018 0.45331 0.0
H643 H 0.88365 0.19361 0.47475 0.0
H644 H 0.8696 0.23683 0.42608 0.0
H645 H 0.84231 0.21011 0.44753 0.0
N646 N 0.82887 0.16913 0.46444 0.0
N647 N 0.83012 0.16625 0.5091 0.0
C648 C 0.98912 0.55155 0.15606 0.0
C649 C 0.00403 0.55982 0.13965 0.0
C650 C 0.98825 0.53699 0.1706 0.0
C651 C 0.00233 0.53057 0.16899 0.0
C652 C 0.0178 0.55303 0.13789 0.0
C653 C 0.01691 0.53856 0.15233 0.0
C654 C 0.00173 0.51495 0.18371 0.0
C655 C 0.01527 0.56719 0.22703 0.0
C656 C 0.00242 0.56304 0.24515 0.0
C657 C 0.01469 0.55165 0.2147 0.0
C658 C 0.00069 0.53164 0.21973 0.0
C659 C 0.98892 0.54309 0.25074 0.0
C660 C 0.98803 0.52752 0.23808 0.0
C661 C 1.00018 0.51498 0.20705 0.0
C662 C 0.02172 0.45457 0.23626 0.0
C663 C 0.00771 0.44478 0.25324 0.0
C664 C 0.0193 0.46701 0.22136 0.0
C665 C 0.00278 0.46989 0.22307 0.0
C666 C 0.99104 0.44748 0.25478 0.0
C667 C 0.98872 0.46009 0.23996 0.0
C668 C 0.00128 0.48463 0.2088 0.0
C669 C 0.98879 0.43806 0.15313 0.0
C670 C 0.00642 0.44387 0.14092 0.0
C671 C 0.9881 0.45083 0.16909 0.0
C672 C 0.00495 0.46962 0.17293 0.0
C673 C 0.02362 0.46219 0.14606 0.0
C674 C 0.02277 0.47505 0.16162 0.0
C675 C 0.00319 0.4849 0.18561 0.0
H676 H 0.9783 0.55646 0.1578 0.0
H677 H 0.97656 0.53071 0.183 0.0
H678 H 0.02919 0.55875 0.12514 0.0
H679 H 0.02778 0.53369 0.15055 0.0
H680 H 0.02608 0.58247 0.22271 0.0
H681 H 0.0254 0.55534 0.20144 0.0
H682 H 0.97893 0.53957 0.26472 0.0
H683 H 0.97739 0.51223 0.24259 0.0
H684 H 0.03466 0.4527 0.23458 0.0
H685 H 0.03073 0.47489 0.20897 0.0
H686 H 0.9801 0.44028 0.26782 0.0
H687 H 0.97603 0.46235 0.24181 0.0
H688 H 0.9752 0.42418 0.14955 0.0
H689 H 0.97411 0.44656 0.17745 0.0
H690 H 0.03762 0.46695 0.13751 0.0
H691 H 0.03589 0.48957 0.16433 0.0
N692 N 0.0033 0.49997 0.17402 0.0
N693 N 0.99979 0.49967 0.21863 0.0
C694 C 0.45642 0.43341 0.15924 0.0
C695 C 0.44776 0.43903 0.14222 0.0
C696 C 0.46955 0.44759 0.17449 0.0
C697 C 0.47423 0.46759 0.1729 0.0
C698 C 0.45194 0.45895 0.14139 0.0
C699 C 0.46521 0.47308 0.15635 0.0
C700 C 0.4898 0.48336 0.18692 0.0
C701 C 0.43663 0.44692 0.22973 0.0
C702 C 0.44027 0.43875 0.2487 0.0
C703 C 0.45252 0.46157 0.21744 0.0
C704 C 0.47242 0.46789 0.22343 0.0
C705 C 0.46011 0.44567 0.25532 0.0
C706 C 0.47606 0.4601 0.24275 0.0
C707 C 0.48944 0.48328 0.2103 0.0
C708 C 0.55667 0.56676 0.23059 0.0
C709 C 0.56481 0.56302 0.24952 0.0
C710 C 0.54207 0.55098 0.21817 0.0
C711 C 0.53574 0.53109 0.22401 0.0
C712 C 0.55783 0.54317 0.25604 0.0
C713 C 0.54343 0.52733 0.24335 0.0
C714 C 0.52053 0.51423 0.2106 0.0
C715 C 0.57154 0.54772 0.16098 0.0
C716 C 0.56625 0.5561 0.14338 0.0
C717 C 0.55696 0.5346 0.17593 0.0
C718 C 0.53692 0.5297 0.17349 0.0
C719 C 0.54627 0.55171 0.14166 0.0
C720 C 0.53177 0.5385 0.15637 0.0
C721 C 0.52079 0.51413 0.18721 0.0
H722 H 0.45364 0.41825 0.16031 0.0
H723 H 0.47657 0.44311 0.18699 0.0
H724 H 0.44514 0.46375 0.12896 0.0
H725 H 0.46859 0.48843 0.15489 0.0
H726 H 0.42145 0.44214 0.22457 0.0
H727 H 0.44916 0.46805 0.20337 0.0
H728 H 0.46328 0.43963 0.26994 0.0
H729 H 0.49124 0.46498 0.24798 0.0
H730 H 0.5615 0.58195 0.2255 0.0
H731 H 0.53567 0.55441 0.20407 0.0
H732 H 0.56385 0.53993 0.27063 0.0
H733 H 0.53852 0.51214 0.24845 0.0
H734 H 0.58675 0.55069 0.16273 0.0
H735 H 0.5612 0.52774 0.18887 0.0
H736 H 0.54173 0.55828 0.1287 0.0
H737 H 0.5164 0.53498 0.15423 0.0
N738 N 0.50537 0.49879 0.1764 0.0
N739 N 0.50492 0.49869 0.22123 0.0
C740 C 0.44836 0.01564 0.2405 0.0
C741 C 0.43817 0.99868 0.25413 0.0
C742 C 0.46305 0.01731 0.22566 0.0
C743 C 0.46773 0.002 0.22412 0.0
C744 C 0.44284 0.98334 0.25233 0.0
C745 C 0.45754 0.98506 0.23762 0.0
C746 C 0.48427 0.00401 0.20997 0.0
C747 C 0.43743 0.00031 0.16218 0.0
C748 C 0.44437 0.01483 0.14542 0.0
C749 C 0.45096 0.99863 0.17618 0.0
C750 C 0.47169 0.01192 0.17418 0.0
C751 C 0.46501 0.02809 0.14338 0.0
C752 C 0.4785 0.0267 0.15766 0.0
C753 C 0.48654 0.00932 0.18731 0.0
C754 C 0.54904 0.99075 0.15675 0.0
C755 C 0.558 0.00531 0.14008 0.0
C756 C 0.53629 0.99192 0.17232 0.0
C757 C 0.53243 0.00785 0.17181 0.0
C758 C 0.55459 0.02154 0.13997 0.0
C759 C 0.54184 0.02272 0.15559 0.0
C760 C 0.51677 0.00775 0.18616 0.0
C761 C 0.56273 0.01232 0.23631 0.0
C762 C 0.55579 0.99577 0.25061 0.0
C763 C 0.54952 0.01428 0.22203 0.0
C764 C 0.52912 0.99975 0.22182 0.0
C765 C 0.53541 0.98104 0.24988 0.0
C766 C 0.52222 0.98312 0.23582 0.0
C767 C 0.51451 0.00264 0.20883 0.0
H768 H 0.44534 0.02786 0.24167 0.0
H769 H 0.47106 0.03074 0.21579 0.0
H770 H 0.43508 0.96992 0.26226 0.0
H771 H 0.46099 0.97311 0.23678 0.0
H772 H 0.42159 0.98966 0.16376 0.0
H773 H 0.44518 0.98644 0.18792 0.0
H774 H 0.47071 0.03936 0.13051 0.0
H775 H 0.49437 0.03698 0.1555 0.0
H776 H 0.55147 0.97813 0.15742 0.0
H777 H 0.52878 0.97987 0.18412 0.0
H778 H 0.56105 0.03287 0.12722 0.0
H779 H 0.5389 0.03501 0.15465 0.0
H780 H 0.57823 0.02412 0.23661 0.0
H781 H 0.55512 0.02748 0.21175 0.0
H782 H 0.52956 0.96788 0.26025 0.0
H783 H 0.50652 0.97176 0.23598 0.0
N784 N 0.49832 0.00088 0.21971 0.0
N785 N 0.50276 0.01099 0.17641 0.0
C786 C 0.56331 0.01147 0.78866 0.0
C787 C 0.55765 0.9998 0.76939 0.0
C788 C 0.5488 0.01029 0.80338 0.0
C789 C 0.52838 0.99682 0.79953 0.0
C790 C 0.5373 0.9867 0.76519 0.0
C791 C 0.5228 0.98516 0.78018 0.0
C792 C 0.51259 0.99608 0.81421 0.0
C793 C 0.55142 0.98455 0.86261 0.0
C794 C 0.56071 0.99987 0.87842 0.0
C795 C 0.5365 0.98377 0.84869 0.0
C796 C 0.53065 0.99823 0.85054 0.0
C797 C 0.55485 0.01433 0.88001 0.0
C798 C 0.53992 0.01344 0.86633 0.0
C799 C 0.51387 0.99707 0.83757 0.0
C800 C 0.43368 0.98488 0.86636 0.0
C801 C 0.44028 0.99959 0.88294 0.0
C802 C 0.44745 0.98396 0.85203 0.0
C803 C 0.468 0.99776 0.85405 0.0
C804 C 0.46088 0.01315 0.88507 0.0
C805 C 0.47458 0.01217 0.87086 0.0
C806 C 0.483 0.99708 0.8394 0.0
C807 C 0.4457 0.01344 0.79768 0.0
C808 C 0.43623 0.00073 0.77966 0.0
C809 C 0.46076 0.01235 0.80926 0.0
C810 C 0.4661 0.998 0.80357 0.0
C811 C 0.4422 0.98707 0.77321 0.0
C812 C 0.457 0.98568 0.78512 0.0
C813 C 0.48178 0.99644 0.81607 0.0
H814 H 0.57895 0.02194 0.79197 0.0
H815 H 0.55363 0.02035 0.81737 0.0
H816 H 0.53264 0.97761 0.75036 0.0
H817 H 0.50717 0.97492 0.77657 0.0
H818 H 0.55566 0.97321 0.86106 0.0
H819 H 0.52928 0.9717 0.83685 0.0
H820 H 0.56146 0.0261 0.89227 0.0
H821 H 0.53548 0.02462 0.8682 0.0
H822 H 0.4179 0.97424 0.86435 0.0
H823 H 0.44208 0.97245 0.83945 0.0
H824 H 0.46646 0.02441 0.89794 0.0
H825 H 0.49037 0.02283 0.87289 0.0
H826 H 0.44158 0.02436 0.80265 0.0
H827 H 0.46823 0.02279 0.82263 0.0
H828 H 0.43512 0.97719 0.75928 0.0
H829 H 0.46115 0.97479 0.78012 0.0
N830 N 0.4965 0.99572 0.80445 0.0
N831 N 0.49906 0.99756 0.84912 0.0
C832 C 0.9804 0.54256 0.78826 0.0
C833 C 0.99429 0.55387 0.77171 0.0
C834 C 0.98373 0.52998 0.80201 0.0
C835 C 0.00099 0.52844 0.79944 0.0
C836 C 0.01156 0.55231 0.76917 0.0
C837 C 0.01476 0.53954 0.78277 0.0
C838 C 0.00418 0.51453 0.81332 0.0
C839 C 0.01126 0.56321 0.86119 0.0
C840 C 0.99737 0.556 0.87869 0.0
C841 C 0.01294 0.5499 0.84683 0.0
C842 C 0.00074 0.52919 0.8498 0.0
C843 C 0.98498 0.53526 0.88128 0.0
C844 C 0.98672 0.52204 0.86706 0.0
C845 C 0.00358 0.51469 0.83664 0.0
C846 C 0.02581 0.453 0.86352 0.0
C847 C 0.01298 0.44515 0.88189 0.0
C848 C 0.02412 0.46619 0.84895 0.0
C849 C 0.00944 0.4716 0.85241 0.0
C850 C 0.99858 0.45092 0.88543 0.0
C851 C 0.99686 0.46396 0.8709 0.0
C852 C 0.0076 0.48605 0.83788 0.0
C853 C 0.9934 0.43319 0.79573 0.0
C854 C 0.00523 0.43716 0.7767 0.0
C855 C 0.994 0.44881 0.80789 0.0
C856 C 0.00697 0.46877 0.80172 0.0
C857 C 0.0176 0.45704 0.76996 0.0
C858 C 0.01849 0.47273 0.78241 0.0
C859 C 0.00755 0.48543 0.81447 0.0
H860 H 0.96701 0.54353 0.79065 0.0
H861 H 0.97268 0.52124 0.81446 0.0
H862 H 0.0224 0.5607 0.7564 0.0
H863 H 0.02806 0.53838 0.78036 0.0
H864 H 0.02096 0.57912 0.85876 0.0
H865 H 0.02416 0.55578 0.83391 0.0
H866 H 0.97437 0.5292 0.89479 0.0
H867 H 0.97728 0.50613 0.86979 0.0
H868 H 0.03707 0.44886 0.86033 0.0
H869 H 0.03439 0.47228 0.83513 0.0
H870 H 0.98877 0.44559 0.89969 0.0
H871 H 0.98559 0.46809 0.87414 0.0
H872 H 0.9834 0.41795 0.80097 0.0
H873 H 0.98415 0.4452 0.822 0.0
H874 H 0.02678 0.46044 0.75527 0.0
H875 H 0.02829 0.48797 0.77704 0.0
N876 N 0.00614 0.49991 0.80312 0.0
N877 N 0.0054 0.50052 0.8479 0.0
C878 C 0.54723 0.57989 0.77968 0.0
C879 C 0.55512 0.57304 0.76304 0.0
C880 C 0.53145 0.56637 0.79308 0.0
C881 C 0.52361 0.54571 0.7906 0.0
C882 C 0.54665 0.55232 0.76007 0.0
C883 C 0.53115 0.53886 0.77371 0.0
C884 C 0.50717 0.53093 0.80483 0.0
C885 C 0.55664 0.56865 0.85369 0.0
C886 C 0.55109 0.57803 0.8699 0.0
C887 C 0.54228 0.55433 0.83955 0.0
C888 C 0.52215 0.54933 0.84115 0.0
C889 C 0.53097 0.57321 0.87118 0.0
C890 C 0.51665 0.55893 0.85703 0.0
C891 C 0.50641 0.53277 0.82803 0.0
C892 C 0.44649 0.45045 0.85704 0.0
C893 C 0.43771 0.45491 0.87492 0.0
C894 C 0.45865 0.46528 0.84193 0.0
C895 C 0.46201 0.4848 0.84414 0.0
C896 C 0.44102 0.47445 0.877 0.0
C897 C 0.45311 0.48924 0.86183 0.0
C898 C 0.4763 0.50108 0.8295 0.0
C899 C 0.42627 0.45738 0.78621 0.0
C900 C 0.43194 0.45022 0.76776 0.0
C901 C 0.44057 0.47356 0.7985 0.0
C902 C 0.46101 0.48249 0.79323 0.0
C903 C 0.45233 0.45986 0.76193 0.0
C904 C 0.46665 0.47566 0.77458 0.0
C905 C 0.47662 0.49951 0.8062 0.0
H906 H 0.55337 0.59571 0.78259 0.0
H907 H 0.52545 0.57213 0.80536 0.0
H908 H 0.5519 0.54643 0.7471 0.0
H909 H 0.52515 0.523 0.77115 0.0
H910 H 0.57203 0.5721 0.85221 0.0
H911 H 0.54683 0.54679 0.82781 0.0
H912 H 0.52611 0.57987 0.8837 0.0
H913 H 0.50116 0.55508 0.85876 0.0
H914 H 0.44415 0.43553 0.85487 0.0
H915 H 0.4658 0.46158 0.82881 0.0
H916 H 0.4348 0.4785 0.89078 0.0
H917 H 0.45576 0.50428 0.86408 0.0
H918 H 0.41079 0.4504 0.79139 0.0
H919 H 0.43556 0.47904 0.81212 0.0
H920 H 0.45734 0.45533 0.74747 0.0
H921 H 0.48224 0.4825 0.76978 0.0
N922 N 0.49218 0.51442 0.79492 0.0
N923 N 0.49102 0.51777 0.83936 0.0
C924 C 0.66273 0.77442 0.49563 0.0
C925 C 0.64696 0.765 0.48032 0.0
C926 C 0.66379 0.78914 0.50986 0.0
C927 C 0.64887 0.79446 0.50949 0.0
C928 C 0.63197 0.77027 0.48007 0.0
C929 C 0.63298 0.78491 0.49444 0.0
C930 C 0.65062 0.81107 0.52333 0.0
C931 C 0.64538 0.76375 0.57069 0.0
C932 C 0.66079 0.76997 0.58649 0.0
C933 C 0.64359 0.77771 0.55763 0.0
C934 C 0.65757 0.79819 0.55948 0.0
C935 C 0.67441 0.79054 0.58871 0.0
C936 C 0.67285 0.80444 0.57533 0.0
C937 C 0.65588 0.81339 0.54605 0.0
C938 C 0.6499 0.88395 0.57518 0.0
C939 C 0.66765 0.89436 0.58763 0.0
C940 C 0.64699 0.86845 0.56098 0.0
C941 C 0.66164 0.86289 0.55911 0.0
C942 C 0.68246 0.88894 0.58526 0.0
C943 C 0.67936 0.87322 0.57136 0.0
C944 C 0.65784 0.84521 0.54602 0.0
C945 C 0.67077 0.89109 0.49232 0.0
C946 C 0.65337 0.88809 0.48131 0.0
C947 C 0.67014 0.87668 0.50677 0.0
C948 C 0.65221 0.85874 0.51027 0.0
C949 C 0.63527 0.87023 0.48545 0.0
C950 C 0.63478 0.85559 0.49951 0.0
C951 C 0.65218 0.84271 0.52358 0.0
H952 H 0.67445 0.77062 0.4964 0.0
H953 H 0.67654 0.79665 0.52083 0.0
H954 H 0.6198 0.76357 0.46826 0.0
H955 H 0.62145 0.78898 0.49361 0.0
H956 H 0.63467 0.74807 0.56828 0.0
H957 H 0.63115 0.77242 0.54621 0.0
H958 H 0.68617 0.79604 0.60102 0.0
H959 H 0.68365 0.82016 0.57743 0.0
H960 H 0.63795 0.88734 0.57684 0.0
H961 H 0.63298 0.86035 0.55206 0.0
H962 H 0.69648 0.89682 0.59416 0.0
H963 H 0.69083 0.86908 0.5702 0.0
H964 H 0.68514 0.90428 0.4893 0.0
H965 H 0.68385 0.87923 0.51459 0.0
H966 H 0.62143 0.86741 0.47776 0.0
H967 H 0.6208 0.84177 0.50196 0.0
N968 N 0.64883 0.82577 0.51307 0.0
N969 N 0.65942 0.83047 0.55638 0.0
C970 C 0.11932 0.76562 0.49886 0.0
C971 C 0.11282 0.77312 0.48152 0.0
C972 C 0.13441 0.77869 0.51329 0.0
C973 C 0.14323 0.79946 0.51055 0.0
C974 C 0.12172 0.7939 0.47888 0.0
C975 C 0.13682 0.8069 0.49316 0.0
C976 C 0.15974 0.81368 0.52493 0.0
C977 C 0.10566 0.78449 0.56977 0.0
C978 C 0.10733 0.77284 0.58657 0.0
C979 C 0.12228 0.79724 0.55693 0.0
C980 C 0.14087 0.79861 0.56071 0.0
C981 C 0.12592 0.77412 0.59021 0.0
C982 C 0.1426 0.78707 0.57753 0.0
C983 C 0.15882 0.81306 0.54826 0.0
C984 C 0.21703 0.8822 0.59314 0.0
C985 C 0.23727 0.88782 0.59023 0.0
C986 C 0.20215 0.86698 0.58037 0.0
C987 C 0.20718 0.85731 0.56414 0.0
C988 C 0.24217 0.87757 0.57444 0.0
C989 C 0.22726 0.86247 0.56148 0.0
C990 C 0.19126 0.84212 0.54994 0.0
C991 C 0.22983 0.8704 0.48137 0.0
C992 C 0.23528 0.89039 0.48552 0.0
C993 C 0.2164 0.85513 0.49533 0.0
C994 C 0.2083 0.8595 0.51384 0.0
C995 C 0.2276 0.89479 0.50446 0.0
C996 C 0.21414 0.87951 0.51837 0.0
C997 C 0.19204 0.84297 0.52659 0.0
H998 H 0.11271 0.74967 0.50129 0.0
H999 H 0.13939 0.77259 0.52632 0.0
H1000 H 0.11727 0.80013 0.46546 0.0
H1001 H 0.14352 0.82286 0.49063 0.0
H1002 H 0.09149 0.78373 0.56657 0.0
H1003 H 0.1207 0.80633 0.54433 0.0
H1004 H 0.12767 0.76547 0.6032 0.0
H1005 H 0.15687 0.7881 0.58088 0.0
H1006 H 0.21267 0.88993 0.60483 0.0
H1007 H 0.18673 0.86322 0.58267 0.0
H1008 H 0.25754 0.88123 0.57203 0.0
H1009 H 0.23141 0.85491 0.54932 0.0
H1010 H 0.2352 0.86644 0.46676 0.0
H1011 H 0.21191 0.83979 0.49131 0.0
H1012 H 0.23158 0.91003 0.5082 0.0
H1013 H 0.20769 0.8833 0.53214 0.0
N1014 N 0.17628 0.82864 0.51504 0.0
N1015 N 0.17465 0.82725 0.55987 0.0
C1016 C 0.22686 0.35432 0.48201 0.0
C1017 C 0.23133 0.3389 0.48439 0.0
C1018 C 0.21321 0.35555 0.49617 0.0
C1019 C 0.20378 0.34148 0.51314 0.0
C1020 C 0.22238 0.32519 0.50187 0.0
C1021 C 0.20864 0.32637 0.51599 0.0
C1022 C 0.18715 0.34133 0.52559 0.0
C1023 C 0.2047 0.31788 0.59187 0.0
C1024 C 0.22506 0.33272 0.59287 0.0
C1025 C 0.19161 0.31983 0.57749 0.0
C1026 C 0.19861 0.3364 0.56339 0.0
C1027 C 0.23193 0.34948 0.57886 0.0
C1028 C 0.21886 0.35124 0.5642 0.0
C1029 C 0.1844 0.3384 0.54869 0.0
C1030 C 0.10043 0.32413 0.56146 0.0
C1031 C 0.10329 0.3344 0.5815 0.0
C1032 C 0.11675 0.3254 0.55001 0.0
C1033 C 0.13632 0.33749 0.55803 0.0
C1034 C 0.12274 0.34587 0.58997 0.0
C1035 C 0.1391 0.34742 0.57831 0.0
C1036 C 0.15392 0.33926 0.54608 0.0
C1037 C 0.12386 0.36054 0.49689 0.0
C1038 C 0.11697 0.34845 0.47785 0.0
C1039 C 0.1367 0.35863 0.51183 0.0
C1040 C 0.14274 0.34448 0.50806 0.0
C1041 C 0.123 0.33425 0.47433 0.0
C1042 C 0.13584 0.33242 0.48914 0.0
C1043 C 0.15684 0.3425 0.52302 0.0
H1044 H 0.23317 0.36495 0.46856 0.0
H1045 H 0.20956 0.36721 0.49343 0.0
H1046 H 0.2256 0.31321 0.50431 0.0
H1047 H 0.20119 0.31493 0.52845 0.0
H1048 H 0.19885 0.30458 0.60201 0.0
H1049 H 0.176 0.30822 0.57715 0.0
H1050 H 0.24735 0.36144 0.57941 0.0
H1051 H 0.22449 0.36435 0.55377 0.0
H1052 H 0.08552 0.31487 0.55481 0.0
H1053 H 0.11402 0.31681 0.53497 0.0
H1054 H 0.12533 0.35393 0.60539 0.0
H1055 H 0.154 0.3566 0.58504 0.0
H1056 H 0.11968 0.37176 0.5 0.0
H1057 H 0.14213 0.36835 0.52613 0.0
H1058 H 0.11768 0.32438 0.46014 0.0
H1059 H 0.14028 0.32141 0.4859 0.0
N1060 N 0.17325 0.34328 0.51376 0.0
N1061 N 0.16789 0.33744 0.55798 0.0
H1062 H 0.01563 0.40664 0.05172 0.0
H1063 H 0.97524 0.35175 0.08529 0.0
H1064 H 0.97504 0.37071 0.11767 0.0
H1065 H 0.98692 0.40299 0.13659 0.0
H1066 H 0.02583 0.45768 0.10149 0.0
H1067 H 0.02632 0.43863 0.06984 0.0
C1068 C 0.00675 0.39881 0.06611 0.0
C1069 C 0.99551 0.37785 0.06615 0.0
C1070 C 0.00661 0.40976 0.08452 0.0
C1071 C 0.98399 0.36791 0.08485 0.0
C1072 C 0.98392 0.37874 0.10338 0.0
C1073 C 0.99538 0.41077 0.12197 0.0
C1074 C 0.00657 0.43182 0.12173 0.0
C1075 C 0.99523 0.3997 0.10343 0.0
C1076 C 0.01754 0.44154 0.10258 0.0
C1077 C 0.01767 0.43065 0.08428 0.0
H1078 H 0.63619 0.61845 0.0815 0.0
H1079 H 0.58908 0.59001 0.03308 0.0
H1080 H 0.56685 0.56673 0.06098 0.0
H1081 H 0.56015 0.55543 0.09917 0.0
H1082 H 0.60585 0.58492 0.14886 0.0
H1083 H 0.62939 0.6065 0.12042 0.0
C1084 C 0.62113 0.60699 0.0771 0.0
C1085 C 0.61425 0.60594 0.0553 0.0
C1086 C 0.60816 0.5939 0.09344 0.0
C1087 C 0.59467 0.59117 0.04979 0.0
C1088 C 0.58194 0.57785 0.06572 0.0
C1089 C 0.57519 0.56671 0.1039 0.0
C1090 C 0.58109 0.56871 0.12621 0.0
C1091 C 0.5884 0.57931 0.08763 0.0
C1092 C 0.60088 0.58299 0.13182 0.0
C1093 C 0.61432 0.59542 0.11557 0.0
H1094 H 0.37571 0.01364 0.08692 0.0
H1095 H 0.40872 0.0037 0.03584 0.0
H1096 H 0.43389 0.00728 0.0628 0.0
H1097 H 0.44567 0.01156 0.10115 0.0
H1098 H 0.41133 0.01826 0.15313 0.0
H1099 H 0.38747 0.01758 0.12577 0.0
C1100 C 0.38856 0.01252 0.08176 0.0
C1101 C 0.39051 0.00857 0.05947 0.0
C1102 C 0.40261 0.01385 0.09755 0.0
C1103 C 0.40698 0.00675 0.05294 0.0
C1104 C 0.42134 0.00877 0.06833 0.0
C1105 C 0.43306 0.01307 0.1064 0.0
C1106 C 0.43028 0.01513 0.129 0.0
C1107 C 0.41919 0.01207 0.09071 0.0
C1108 C 0.41371 0.01669 0.13576 0.0
C1109 C 0.40012 0.01632 0.12014 0.0
H1110 H 0.39239 0.02084 0.95147 0.0
H1111 H 0.36106 0.95699 0.96101 0.0
H1112 H 0.38095 0.95357 0.93155 0.0
H1113 H 0.40875 0.96914 0.90466 0.0
H1114 H 0.43979 0.03308 0.89562 0.0
H1115 H 0.41849 0.03606 0.92335 0.0
C1116 C 0.38981 0.00615 0.94704 0.0
C1117 C 0.37539 0.98921 0.95849 0.0
C1118 C 0.40133 0.00434 0.93025 0.0
C1119 C 0.37212 0.97026 0.95245 0.0
C1120 C 0.38351 0.96832 0.93565 0.0
C1121 C 0.41062 0.98367 0.90854 0.0
C1122 C 0.42596 0.00089 0.89827 0.0
C1123 C 0.39835 0.9853 0.92463 0.0
C1124 C 0.42831 0.01964 0.90357 0.0
C1125 C 0.4161 0.02136 0.91937 0.0
H1126 H 0.03234 0.39798 0.95435 0.0
H1127 H 0.96778 0.36489 0.95718 0.0
H1128 H 0.96601 0.38466 0.92689 0.0
H1129 H 0.98249 0.41211 0.90072 0.0
H1130 H 0.04695 0.44684 0.89854 0.0
H1131 H 0.04905 0.42539 0.92695 0.0
C1132 C 0.01792 0.39506 0.9482 0.0
C1133 C 0.00023 0.38008 0.9581 0.0
C1134 C 0.01696 0.40673 0.93084 0.0
C1135 C 0.98164 0.37644 0.94999 0.0
C1136 C 0.98058 0.38771 0.93262 0.0
C1137 C 0.99703 0.41509 0.90652 0.0
C1138 C 0.01451 0.43121 0.89768 0.0
C1139 C 0.99812 0.40305 0.92316 0.0
C1140 C 0.03323 0.43447 0.90497 0.0
C1141 C 0.03444 0.4223 0.92135 0.0
H1142 H 0.60294 0.63942 0.94485 0.0
H1143 H 0.6261 0.59902 0.94941 0.0
H1144 H 0.60541 0.57983 0.91825 0.0
H1145 H 0.57928 0.5732 0.89126 0.0
H1146 H 0.55569 0.61319 0.88627 0.0
H1147 H 0.57789 0.63376 0.91608 0.0
C1148 C 0.60356 0.62652 0.93888 0.0
C1149 C 0.61596 0.62061 0.94952 0.0
C1150 C 0.59144 0.61538 0.92097 0.0
C1151 C 0.61661 0.60385 0.9416 0.0
C1152 C 0.60477 0.59284 0.92377 0.0
C1153 C 0.57925 0.58663 0.89636 0.0
C1154 C 0.56582 0.59162 0.88654 0.0
C1155 C 0.59195 0.59831 0.91353 0.0
C1156 C 0.56573 0.60888 0.89371 0.0
C1157 C 0.57846 0.62068 0.91072 0.0
H1158 H 0.97814 0.60058 0.95354 0.0
H1159 H 0.04257 0.6358 0.95558 0.0
H1160 H 0.04482 0.61649 0.92472 0.0
H1161 H 0.02835 0.58857 0.89827 0.0
H1162 H 0.96384 0.55412 0.89598 0.0
H1163 H 0.96175 0.57422 0.92583 0.0
C1164 C 0.99269 0.60403 0.94724 0.0
C1165 C 0.01017 0.61943 0.95694 0.0
C1166 C 0.99384 0.59303 0.92945 0.0
C1167 C 0.0289 0.62393 0.94842 0.0
C1168 C 0.03019 0.61291 0.93079 0.0
C1169 C 0.01385 0.58571 0.90404 0.0
C1170 C 0.99628 0.56977 0.89502 0.0
C1171 C 0.01274 0.59733 0.92126 0.0
C1172 C 0.97759 0.5661 0.90286 0.0
C1173 C 0.97638 0.57761 0.9199 0.0
H1174 H 0.40102 0.38885 0.94938 0.0
H1175 H 0.35863 0.40963 0.953 0.0
H1176 H 0.37576 0.43292 0.92257 0.0
H1177 H 0.40328 0.44788 0.89553 0.0
H1178 H 0.44614 0.42757 0.89296 0.0
H1179 H 0.4281 0.40335 0.92211 0.0
C1180 C 0.39548 0.39842 0.94347 0.0
C1181 C 0.37863 0.39757 0.95347 0.0
C1182 C 0.40544 0.4118 0.92609 0.0
C1183 C 0.3716 0.41004 0.94559 0.0
C1184 C 0.38139 0.42335 0.92821 0.0
C1185 C 0.40872 0.43821 0.90141 0.0
C1186 C 0.42605 0.43957 0.892 0.0
C1187 C 0.39843 0.42447 0.91845 0.0
C1188 C 0.4327 0.42668 0.89962 0.0
C1189 C 0.42248 0.41292 0.91644 0.0
H1190 H 0.62828 0.02072 0.94883 0.0
H1191 H 0.5923 0.9577 0.96249 0.0
H1192 H 0.56999 0.95401 0.9317 0.0
H1193 H 0.55957 0.9694 0.90249 0.0
H1194 H 0.59624 0.03248 0.88921 0.0
H1195 H 0.61953 0.03543 0.9182 0.0
C1196 C 0.61559 0.00615 0.94504 0.0
C1197 C 0.61177 0.98955 0.95805 0.0
C1198 C 0.60296 0.00418 0.92739 0.0
C1199 C 0.59547 0.97072 0.95275 0.0
C1200 C 0.58272 0.96862 0.93517 0.0
C1201 C 0.57286 0.98369 0.90569 0.0
C1202 C 0.57607 0.00075 0.89389 0.0
C1203 C 0.58617 0.98532 0.92256 0.0
C1204 C 0.59329 0.0192 0.8983 0.0
C1205 C 0.60661 0.02091 0.91486 0.0
H1206 H 0.59483 0.97967 0.06219 0.0
H1207 H 0.63959 0.04218 0.06447 0.0
H1208 H 0.62156 0.04727 0.09484 0.0
H1209 H 0.59305 0.03368 0.12099 0.0
H1210 H 0.54864 0.971 0.1181 0.0
H1211 H 0.56672 0.96623 0.08794 0.0
C1212 C 0.60064 0.99444 0.06926 0.0
C1213 C 0.61849 0.01054 0.06103 0.0
C1214 C 0.59033 0.99719 0.08675 0.0
C1215 C 0.62586 0.02955 0.07048 0.0
C1216 C 0.61556 0.03245 0.08785 0.0
C1217 C 0.58731 0.01901 0.11369 0.0
C1218 C 0.56957 0.0027 0.12197 0.0
C1219 C 0.59778 0.01635 0.09616 0.0
C1220 C 0.56243 0.98374 0.1124 0.0
C1221 C 0.57268 0.98102 0.095 0.0
H1222 H 0.0264 0.6282 0.06981 0.0
H1223 H 0.96241 0.59701 0.06076 0.0
H1224 H 0.95846 0.57387 0.09072 0.0
H1225 H 0.97367 0.56131 0.11784 0.0
H1226 H 0.03778 0.59356 0.12676 0.0
H1227 H 0.04119 0.61749 0.09847 0.0
C1228 C 0.01156 0.61639 0.07444 0.0
C1229 C 0.99474 0.61416 0.06296 0.0
C1230 C 0.00945 0.60329 0.09159 0.0
C1231 C 0.97559 0.59897 0.06934 0.0
C1232 C 0.97335 0.58574 0.08642 0.0
C1233 C 0.98834 0.57376 0.11382 0.0
C1234 C 0.00548 0.57544 0.12417 0.0
C1235 C 0.99023 0.58758 0.09746 0.0
C1236 C 0.02439 0.59165 0.11872 0.0
C1237 C 0.02636 0.6054 0.1026 0.0
H1238 H 0.38485 0.37029 0.07967 0.0
H1239 H 0.41083 0.41886 0.03281 0.0
H1240 H 0.43475 0.44058 0.06059 0.0
H1241 H 0.4472 0.44633 0.09838 0.0
H1242 H 0.41971 0.39911 0.14677 0.0
H1243 H 0.39781 0.37618 0.11815 0.0
C1244 C 0.39594 0.38555 0.07556 0.0
C1245 C 0.39614 0.39301 0.05427 0.0
C1246 C 0.40931 0.3982 0.09188 0.0
C1247 C 0.41038 0.41285 0.04913 0.0
C1248 C 0.42404 0.42528 0.065 0.0
C1249 C 0.43628 0.43109 0.10283 0.0
C1250 C 0.43496 0.42459 0.12483 0.0
C1251 C 0.4234 0.41822 0.0865 0.0
C1252 C 0.42114 0.40456 0.12999 0.0
C1253 C 0.40852 0.39145 0.11364 0.0
H1254 H 0.63296 0.69939 0.40862 0.0
H1255 H 0.69687 0.73772 0.40195 0.0
H1256 H 0.69685 0.75912 0.43142 0.0
H1257 H 0.67873 0.76799 0.45779 0.0
H1258 H 0.61491 0.73 0.46536 0.0
H1259 H 0.61483 0.70762 0.43669 0.0
C1260 C 0.64687 0.71234 0.41377 0.0
C1261 C 0.66486 0.71697 0.40304 0.0
C1262 C 0.64677 0.72476 0.43075 0.0
C1263 C 0.68278 0.73383 0.40986 0.0
C1264 C 0.68281 0.74611 0.42672 0.0
C1265 C 0.66482 0.75463 0.45351 0.0
C1266 C 0.64687 0.7507 0.46378 0.0
C1267 C 0.66489 0.74184 0.43712 0.0
C1268 C 0.62894 0.73352 0.45757 0.0
C1269 C 0.62889 0.72066 0.44124 0.0
H1270 H 0.27208 0.95794 0.41294 0.0
H1271 H 0.31127 0.93383 0.40352 0.0
H1272 H 0.29502 0.91063 0.43435 0.0
H1273 H 0.2684 0.89607 0.46272 0.0
H1274 H 0.22903 0.92018 0.47105 0.0
H1275 H 0.24685 0.94469 0.44215 0.0
C1276 C 0.27718 0.9477 0.4177 0.0
C1277 C 0.29276 0.9475 0.40588 0.0
C1278 C 0.26774 0.93441 0.43528 0.0
C1279 C 0.29928 0.93425 0.41236 0.0
C1280 C 0.28996 0.92095 0.42994 0.0
C1281 C 0.26377 0.90672 0.45822 0.0
C1282 C 0.24739 0.90625 0.4691 0.0
C1283 C 0.27396 0.9207 0.44131 0.0
C1284 C 0.24174 0.92034 0.46324 0.0
C1285 C 0.25182 0.93429 0.44656 0.0
H1286 H 0.05024 0.35201 0.42002 0.0
H1287 H 0.08279 0.34218 0.36818 0.0
H1288 H 0.10738 0.3443 0.39493 0.0
H1289 H 0.1187 0.34707 0.43307 0.0
H1290 H 0.08542 0.35469 0.48577 0.0
H1291 H 0.06239 0.35577 0.4587 0.0
C1292 C 0.06287 0.3506 0.41462 0.0
C1293 C 0.06467 0.3469 0.39217 0.0
C1294 C 0.0768 0.35137 0.43024 0.0
C1295 C 0.08101 0.34493 0.38538 0.0
C1296 C 0.09508 0.34613 0.40066 0.0
C1297 C 0.10633 0.34883 0.43871 0.0
C1298 C 0.1037 0.35055 0.46147 0.0
C1299 C 0.09292 0.34896 0.42316 0.0
C1300 C 0.0879 0.35342 0.46836 0.0
C1301 C 0.07463 0.35391 0.45289 0.0
H1302 H 0.06245 0.35663 0.28151 0.0
H1303 H 0.02416 0.29289 0.28819 0.0
H1304 H 0.04124 0.28747 0.25713 0.0
H1305 H 0.06864 0.30091 0.22979 0.0
H1306 H 0.10732 0.36474 0.22418 0.0
H1307 H 0.08824 0.37005 0.2528 0.0
C1308 C 0.05772 0.34155 0.27606 0.0
C1309 C 0.0422 0.32518 0.28724 0.0
C1310 C 0.06768 0.33856 0.25836 0.0
C1311 C 0.03612 0.30573 0.27988 0.0
C1312 C 0.04591 0.30263 0.26216 0.0
C1313 C 0.07283 0.31597 0.23479 0.0
C1314 C 0.08944 0.33239 0.22488 0.0
C1315 C 0.06197 0.31894 0.25156 0.0
C1316 C 0.09448 0.35183 0.2313 0.0
C1317 C 0.08368 0.35489 0.24783 0.0
H1318 H 0.68448 0.71575 0.27448 0.0
H1319 H 0.65487 0.73621 0.31908 0.0
H1320 H 0.6544 0.7582 0.29046 0.0
H1321 H 0.66206 0.77138 0.25296 0.0
H1322 H 0.68939 0.74945 0.20697 0.0
H1323 H 0.69145 0.72857 0.23606 0.0
C1324 C 0.67804 0.72513 0.2779 0.0
C1325 C 0.66976 0.72443 0.29883 0.0
C1326 C 0.67742 0.73746 0.26116 0.0
C1327 C 0.66128 0.73647 0.30305 0.0
C1328 C 0.66101 0.74905 0.28671 0.0
C1329 C 0.66816 0.7618 0.24909 0.0
C1330 C 0.6754 0.76193 0.22768 0.0
C1331 C 0.66889 0.74954 0.26569 0.0
C1332 C 0.68384 0.74983 0.22332 0.0
C1333 C 0.68493 0.73778 0.23992 0.0
H1334 H 0.27842 0.96757 0.27883 0.0
H1335 H 0.25808 0.91921 0.32574 0.0
H1336 H 0.2339 0.89621 0.29886 0.0
H1337 H 0.21927 0.88966 0.26197 0.0
H1338 H 0.2417 0.93704 0.21347 0.0
H1339 H 0.264 0.9607 0.24119 0.0
C1340 C 0.26853 0.95203 0.28316 0.0
C1341 C 0.26991 0.94505 0.30419 0.0
C1342 C 0.25508 0.93874 0.26738 0.0
C1343 C 0.25727 0.92486 0.30959 0.0
C1344 C 0.24347 0.91172 0.29426 0.0
C1345 C 0.22921 0.90508 0.25725 0.0
C1346 C 0.22883 0.91143 0.23553 0.0
C1347 C 0.24243 0.91845 0.27303 0.0
C1348 C 0.24146 0.93168 0.23009 0.0
C1349 C 0.25434 0.94523 0.2459 0.0
H1350 H 0.64371 0.9321 0.2849 0.0
H1351 H 0.70742 0.96425 0.29616 0.0
H1352 H 0.71212 0.94627 0.2654 0.0
H1353 H 0.69767 0.92021 0.23631 0.0
H1354 H 0.63389 0.88929 0.22495 0.0
H1355 H 0.62968 0.90808 0.25472 0.0
C1356 C 0.65865 0.93518 0.28066 0.0
C1357 C 0.67517 0.94928 0.29293 0.0
C1358 C 0.6612 0.92502 0.26292 0.0
C1359 C 0.69445 0.95336 0.28701 0.0
C1360 C 0.69713 0.9431 0.26943 0.0
C1361 C 0.68291 0.91784 0.24013 0.0
C1362 C 0.66608 0.90317 0.22859 0.0
C1363 C 0.68057 0.92877 0.25735 0.0
C1364 C 0.64704 0.9002 0.23384 0.0
C1365 C 0.64461 0.91097 0.25083 0.0
H1366 H 0.03049 0.71403 0.27925 0.0
H1367 H 0.08058 0.73773 0.32425 0.0
H1368 H 0.10208 0.76144 0.29621 0.0
H1369 H 0.10708 0.77462 0.25877 0.0
H1370 H 0.05814 0.74967 0.2122 0.0
H1371 H 0.0357 0.72759 0.24105 0.0
C1372 C 0.04606 0.72456 0.28291 0.0
C1373 C 0.05397 0.72417 0.30377 0.0
C1374 C 0.05855 0.73787 0.26643 0.0
C1375 C 0.07419 0.73771 0.30828 0.0
C1376 C 0.0865 0.75126 0.29226 0.0
C1377 C 0.09158 0.76418 0.25475 0.0
C1378 C 0.08444 0.76368 0.2332 0.0
C1379 C 0.07893 0.75126 0.2712 0.0
C1380 C 0.06409 0.75048 0.22863 0.0
C1381 C 0.05125 0.73776 0.24511 0.0
H1382 H 0.26598 0.34094 0.31498 0.0
H1383 H 0.29012 0.31019 0.27794 0.0
H1384 H 0.26961 0.30799 0.24594 0.0
H1385 H 0.24599 0.31636 0.22802 0.0
H1386 H 0.2205 0.34524 0.26652 0.0
H1387 H 0.2406 0.34687 0.2982 0.0
C1388 C 0.26667 0.33366 0.29993 0.0
C1389 C 0.27961 0.32586 0.29874 0.0
C1390 C 0.25477 0.33233 0.28175 0.0
C1391 C 0.28022 0.31629 0.27925 0.0
C1392 C 0.26856 0.3151 0.26093 0.0
C1393 C 0.24461 0.32278 0.24339 0.0
C1394 C 0.23198 0.33105 0.24455 0.0
C1395 C 0.25592 0.32327 0.26191 0.0
C1396 C 0.23053 0.33935 0.26473 0.0
C1397 C 0.24189 0.34012 0.28303 0.0
H1398 H 0.2711 0.31349 0.40935 0.0
H1399 H 0.31039 0.37731 0.4058 0.0
H1400 H 0.29268 0.3819 0.43679 0.0
H1401 H 0.26532 0.36777 0.46413 0.0
H1402 H 0.22551 0.30393 0.46652 0.0
H1403 H 0.24443 0.29938 0.43713 0.0
C1404 C 0.27585 0.32841 0.4154 0.0
C1405 C 0.29197 0.34504 0.40522 0.0
C1406 C 0.26557 0.33094 0.43312 0.0
C1407 C 0.29798 0.36426 0.41331 0.0
C1408 C 0.28786 0.3669 0.43103 0.0
C1409 C 0.26075 0.35286 0.4582 0.0
C1410 C 0.24397 0.33624 0.46763 0.0
C1411 C 0.2715 0.35034 0.44093 0.0
C1412 C 0.23851 0.317 0.45992 0.0
C1413 C 0.24922 0.31437 0.44292 0.0
H1414 H 0.67398 0.96076 0.41727 0.0
H1415 H 0.62475 0.91454 0.38046 0.0
H1416 H 0.61971 0.89014 0.40929 0.0
H1417 H 0.63096 0.88169 0.44357 0.0
H1418 H 0.67801 0.92894 0.48219 0.0
H1419 H 0.68239 0.95308 0.45383 0.0
C1420 C 0.66204 0.94536 0.4157 0.0
C1421 C 0.64987 0.93935 0.39674 0.0
C1422 C 0.65901 0.93157 0.4325 0.0
C1423 C 0.63428 0.91947 0.39496 0.0
C1424 C 0.63147 0.90553 0.41138 0.0
C1425 C 0.64188 0.89729 0.44618 0.0
C1426 C 0.65441 0.9032 0.46501 0.0
C1427 C 0.64394 0.91136 0.43009 0.0
C1428 C 0.66858 0.92362 0.46765 0.0
C1429 C 0.671 0.93758 0.4515 0.0
H1430 H 0.04509 0.72871 0.41032 0.0
H1431 H 0.0736 0.6931 0.40473 0.0
H1432 H 0.09657 0.71216 0.43476 0.0
H1433 H 0.10968 0.74022 0.46118 0.0
H1434 H 0.08096 0.77568 0.46635 0.0
H1435 H 0.05692 0.75538 0.43788 0.0
C1436 C 0.05627 0.72504 0.41574 0.0
C1437 C 0.05774 0.70961 0.40524 0.0
C1438 C 0.06942 0.73608 0.43287 0.0
C1439 C 0.07221 0.70496 0.41253 0.0
C1440 C 0.08535 0.71586 0.42967 0.0
C1441 C 0.09796 0.74328 0.45631 0.0
C1442 C 0.09718 0.75952 0.46574 0.0
C1443 C 0.08424 0.73161 0.43979 0.0
C1444 C 0.08204 0.76344 0.4591 0.0
C1445 C 0.06826 0.75182 0.44287 0.0
H1446 H 0.35021 0.07147 0.73636 0.0
H1447 H 0.28809 0.02551 0.73987 0.0
H1448 H 0.28288 0.04296 0.77067 0.0
H1449 H 0.2961 0.07141 0.79664 0.0
H1450 H 0.35835 0.11713 0.79273 0.0
H1451 H 0.36342 0.0995 0.76229 0.0
C1452 C 0.33551 0.06528 0.74382 0.0
C1453 C 0.31955 0.04727 0.73579 0.0
C1454 C 0.33268 0.07529 0.76158 0.0
C1455 C 0.30062 0.03938 0.74574 0.0
C1456 C 0.29764 0.04934 0.76336 0.0
C1457 C 0.31075 0.07752 0.78907 0.0
C1458 C 0.32683 0.09552 0.79708 0.0
C1459 C 0.31357 0.06733 0.77141 0.0
C1460 C 0.34577 0.10314 0.78719 0.0
C1461 C 0.34867 0.09315 0.76964 0.0
H1462 H 0.96538 0.2633 0.73464 0.0
H1463 H 0.92107 0.28105 0.72499 0.0
H1464 H 0.9009 0.25899 0.75492 0.0
H1465 H 0.89553 0.23435 0.78352 0.0
H1466 H 0.9395 0.21625 0.79337 0.0
H1467 H 0.96004 0.23862 0.76364 0.0
C1468 C 0.95131 0.26231 0.7391 0.0
C1469 C 0.94474 0.27379 0.72758 0.0
C1470 C 0.93971 0.24953 0.75636 0.0
C1471 C 0.92647 0.27236 0.73355 0.0
C1472 C 0.91492 0.25976 0.75069 0.0
C1473 C 0.90973 0.23548 0.77935 0.0
C1474 C 0.91601 0.22372 0.79071 0.0
C1475 C 0.92138 0.24829 0.76221 0.0
C1476 C 0.93426 0.22506 0.78479 0.0
C1477 C 0.94603 0.23789 0.76783 0.0
H1478 H 0.75444 0.6988 0.71693 0.0
H1479 H 0.70197 0.67747 0.75805 0.0
H1480 H 0.7217 0.67985 0.79072 0.0
H1481 H 0.75341 0.68572 0.80721 0.0
H1482 H 0.80561 0.7065 0.76573 0.0
H1483 H 0.78652 0.70678 0.73374 0.0
C1484 C 0.74739 0.69495 0.73308 0.0
C1485 C 0.72677 0.68788 0.73503 0.0
C1486 C 0.75876 0.69612 0.75176 0.0
C1487 C 0.71784 0.68295 0.75609 0.0
C1488 C 0.72908 0.68421 0.77478 0.0
C1489 C 0.76059 0.69036 0.79117 0.0
C1490 C 0.78089 0.69604 0.78889 0.0
C1491 C 0.74947 0.69037 0.77274 0.0
C1492 C 0.79006 0.70226 0.76803 0.0
C1493 C 0.77912 0.70231 0.74967 0.0
H1494 H 0.70406 0.65971 0.60257 0.0
H1495 H 0.72823 0.63871 0.65349 0.0
H1496 H 0.74807 0.63319 0.62592 0.0
H1497 H 0.76046 0.63673 0.5879 0.0
H1498 H 0.73625 0.65755 0.5368 0.0
H1499 H 0.71473 0.66097 0.56395 0.0
C1500 C 0.71348 0.65368 0.60758 0.0
C1501 C 0.71472 0.6497 0.63006 0.0
C1502 C 0.72505 0.65077 0.59166 0.0
C1503 C 0.72701 0.64192 0.6363 0.0
C1504 C 0.73842 0.63883 0.62055 0.0
C1505 C 0.75021 0.64165 0.58257 0.0
C1506 C 0.75011 0.64698 0.56031 0.0
C1507 C 0.73783 0.64353 0.59825 0.0
C1508 C 0.73693 0.65366 0.55387 0.0
C1509 C 0.72452 0.65552 0.56937 0.0
H1510 H 0.36286 0.06901 0.62723 0.0
H1511 H 0.29827 0.03582 0.628 0.0
H1512 H 0.2973 0.05473 0.59626 0.0
H1513 H 0.31458 0.08122 0.56902 0.0
H1514 H 0.3791 0.11596 0.56908 0.0
H1515 H 0.38031 0.09554 0.59926 0.0
C1516 C 0.3486 0.06592 0.62039 0.0
C1517 C 0.33067 0.05112 0.63004 0.0
C1518 C 0.34812 0.07701 0.60217 0.0
C1519 C 0.31229 0.04723 0.62098 0.0
C1520 C 0.31171 0.058 0.60279 0.0
C1521 C 0.32893 0.08444 0.57568 0.0
C1522 C 0.34669 0.10023 0.56685 0.0
C1523 C 0.32951 0.07304 0.59339 0.0
C1524 C 0.36517 0.1038 0.57537 0.0
C1525 C 0.36588 0.09224 0.59279 0.0
H1526 H 0.95684 0.26719 0.61654 0.0
H1527 H 0.92462 0.29897 0.62482 0.0
H1528 H 0.90281 0.28058 0.59368 0.0
H1529 H 0.89185 0.2541 0.56541 0.0
H1530 H 0.92495 0.22317 0.55693 0.0
H1531 H 0.94749 0.24264 0.58685 0.0
C1532 C 0.94506 0.27013 0.61151 0.0
C1533 C 0.94218 0.28425 0.62308 0.0
C1534 C 0.93273 0.25963 0.59359 0.0
C1535 C 0.92706 0.2881 0.6162 0.0
C1536 C 0.91459 0.27758 0.59842 0.0
C1537 C 0.90421 0.25188 0.56985 0.0
C1538 C 0.90656 0.23703 0.55909 0.0
C1539 C 0.91717 0.26316 0.58712 0.0
C1540 C 0.92257 0.23423 0.5652 0.0
C1541 C 0.93551 0.24539 0.58227 0.0
H1542 H 0.31092 0.26716 0.62132 0.0
H1543 H 0.37524 0.30321 0.62462 0.0
H1544 H 0.37838 0.28501 0.59319 0.0
H1545 H 0.36277 0.25766 0.5661 0.0
H1546 H 0.29835 0.22245 0.56223 0.0
H1547 H 0.29533 0.24156 0.59257 0.0
C1548 C 0.32563 0.27104 0.61514 0.0
C1549 C 0.34283 0.28633 0.62538 0.0
C1550 C 0.32729 0.26067 0.59699 0.0
C1551 C 0.36178 0.29141 0.61704 0.0
C1552 C 0.36357 0.28102 0.59908 0.0
C1553 C 0.34807 0.25443 0.57159 0.0
C1554 C 0.33082 0.23852 0.56202 0.0
C1555 C 0.34642 0.2655 0.58905 0.0
C1556 C 0.31188 0.23439 0.56954 0.0
C1557 C 0.31013 0.24533 0.58686 0.0
H1558 H 0.74167 0.05968 0.63298 0.0
H1559 H 0.68774 0.05901 0.61288 0.0
H1560 H 0.7047 0.0782 0.57961 0.0
H1561 H 0.73476 0.09438 0.55585 0.0
H1562 H 0.78892 0.09611 0.57771 0.0
H1563 H 0.77176 0.07686 0.61036 0.0
C1564 C 0.73362 0.06378 0.62137 0.0
C1565 C 0.71348 0.05791 0.62534 0.0
C1566 C 0.74343 0.07477 0.60241 0.0
C1567 C 0.70329 0.06343 0.6102 0.0
C1568 C 0.71296 0.07431 0.59115 0.0
C1569 C 0.74287 0.09069 0.56781 0.0
C1570 C 0.76309 0.0965 0.56397 0.0
C1571 C 0.73302 0.07997 0.58701 0.0
C1572 C 0.77324 0.0914 0.57972 0.0
C1573 C 0.7635 0.08057 0.59861 0.0
H1574 H 0.94943 0.68274 0.62336 0.0
H1575 H 0.9333 0.62068 0.62274 0.0
H1576 H 0.91046 0.61445 0.59172 0.0
H1577 H 0.89477 0.6267 0.56506 0.0
H1578 H 0.91128 0.68891 0.56622 0.0
H1579 H 0.93447 0.69505 0.5965 0.0
C1580 C 0.94092 0.66784 0.61645 0.0
C1581 C 0.94297 0.65217 0.6254 0.0
C1582 C 0.92797 0.66442 0.59861 0.0
C1583 C 0.93195 0.63298 0.61616 0.0
C1584 C 0.9189 0.62942 0.59843 0.0
C1585 C 0.90344 0.64158 0.57198 0.0
C1586 C 0.90133 0.65733 0.56328 0.0
C1587 C 0.91672 0.64502 0.58958 0.0
C1588 C 0.91282 0.67658 0.5723 0.0
C1589 C 0.92599 0.68009 0.58977 0.0
H1590 H 0.93135 0.64818 0.73371 0.0
H1591 H 0.97953 0.70937 0.73439 0.0
H1592 H 0.96374 0.71664 0.7654 0.0
H1593 H 0.93588 0.70551 0.79214 0.0
H1594 H 0.88797 0.64413 0.7909 0.0
H1595 H 0.90415 0.63701 0.76051 0.0
C1596 C 0.93842 0.66313 0.74063 0.0
C1597 C 0.95653 0.67824 0.73171 0.0
C1598 C 0.92934 0.66714 0.75846 0.0
C1599 C 0.96556 0.69748 0.74095 0.0
C1600 C 0.95653 0.70164 0.75868 0.0
C1601 C 0.92901 0.6906 0.78518 0.0
C1602 C 0.9108 0.67536 0.79391 0.0
C1603 C 0.93837 0.68658 0.76753 0.0
C1604 C 0.90214 0.65606 0.7848 0.0
C1605 C 0.9113 0.65199 0.76728 0.0
H1606 H 0.30094 0.26882 0.74122 0.0
H1607 H 0.36257 0.28634 0.72805 0.0
H1608 H 0.36249 0.2661 0.75882 0.0
H1609 H 0.34509 0.24301 0.78909 0.0
H1610 H 0.28338 0.22444 0.80268 0.0
H1611 H 0.28327 0.24531 0.77217 0.0
C1612 C 0.31432 0.26818 0.74514 0.0
C1613 C 0.33172 0.2791 0.7323 0.0
C1614 C 0.31418 0.2563 0.76294 0.0
C1615 C 0.34893 0.27808 0.73757 0.0
C1616 C 0.34895 0.26651 0.75522 0.0
C1617 C 0.33168 0.24373 0.7856 0.0
C1618 C 0.31434 0.23234 0.79827 0.0
C1619 C 0.33169 0.25556 0.76799 0.0
C1620 C 0.29693 0.23306 0.79313 0.0
C1621 C 0.29688 0.24501 0.77572 0.0
H1622 H 0.733 0.03095 0.73718 0.0
H1623 H 0.71737 0.0767 0.7269 0.0
H1624 H 0.73883 0.09596 0.75756 0.0
H1625 H 0.7624 0.10022 0.78691 0.0
H1626 H 0.77856 0.05497 0.79759 0.0
H1627 H 0.75664 0.03517 0.76714 0.0
C1628 C 0.73433 0.04514 0.74166 0.0
C1629 C 0.72362 0.05237 0.72973 0.0
C1630 C 0.74677 0.05623 0.7594 0.0
C1631 C 0.72547 0.07078 0.73576 0.0
C1632 C 0.73772 0.08182 0.75333 0.0
C1633 C 0.7609 0.08588 0.78281 0.0
C1634 C 0.77198 0.07901 0.7946 0.0
C1635 C 0.74843 0.0747 0.76526 0.0
C1636 C 0.77023 0.06062 0.7887 0.0
C1637 C 0.75769 0.04929 0.77133 0.0
H1638 H 0.02684 0.32404 0.06913 0.0
H1639 H 0.0653 0.34994 0.01245 0.0
H1640 H 0.09178 0.34676 0.03107 0.0
H1641 H 0.10411 0.33723 0.06387 0.0
H1642 H 0.06588 0.31342 0.12124 0.0
H1643 H 0.03909 0.31482 0.1017 0.0
C1644 C 0.04097 0.32888 0.06076 0.0
C1645 C 0.0441 0.33717 0.03942 0.0
C1646 C 0.05615 0.32732 0.07166 0.0
C1647 C 0.06253 0.3435 0.02888 0.0
C1648 C 0.07766 0.3417 0.03953 0.0
C1649 C 0.08998 0.33247 0.07218 0.0
C1650 C 0.08709 0.32509 0.09402 0.0
C1651 C 0.07469 0.33378 0.06102 0.0
C1652 C 0.0685 0.31875 0.10432 0.0
C1653 C 0.05318 0.31972 0.09323 0.0
H1654 H 0.68272 0.7074 0.05209 0.0
H1655 H 0.62487 0.69439 0.02784 0.0
H1656 H 0.62718 0.72233 0.04925 0.0
H1657 H 0.64525 0.7498 0.07585 0.0
H1658 H 0.70361 0.7635 0.09891 0.0
H1659 H 0.7016 0.736 0.07687 0.0
C1660 C 0.67065 0.71074 0.05144 0.0
C1661 C 0.65358 0.69879 0.03856 0.0
C1662 C 0.67219 0.72691 0.06359 0.0
C1663 C 0.63816 0.70339 0.03765 0.0
C1664 C 0.63945 0.71932 0.04993 0.0
C1665 C 0.6575 0.74672 0.07599 0.0
C1666 C 0.67449 0.75849 0.08905 0.0
C1667 C 0.65631 0.73105 0.06311 0.0
C1668 C 0.69042 0.75463 0.0889 0.0
C1669 C 0.68924 0.73889 0.07639 0.0
H1670 H 0.3026 0.97046 0.07537 0.0
H1671 H 0.28168 0.93502 0.01593 0.0
H1672 H 0.25139 0.91036 0.03525 0.0
H1673 H 0.23115 0.89857 0.06947 0.0
H1674 H 0.25332 0.93326 0.12922 0.0
H1675 H 0.28279 0.9586 0.10939 0.0
C1676 C 0.29138 0.95737 0.06662 0.0
C1677 C 0.29432 0.95457 0.04425 0.0
C1678 C 0.27423 0.94315 0.07792 0.0
C1679 C 0.27975 0.93746 0.03318 0.0
C1680 C 0.26243 0.92339 0.0442 0.0
C1681 C 0.24241 0.91179 0.078 0.0
C1682 C 0.24013 0.91419 0.10068 0.0
C1683 C 0.25953 0.92605 0.0666 0.0
C1684 C 0.25486 0.93117 0.11175 0.0
C1685 C 0.27167 0.94562 0.10044 0.0
H1686 H 0.35076 0.0623 0.99891 0.0
H1687 H 0.31411 0.0133 0.95517 0.0
H1688 H 0.30998 0.03591 0.93052 0.0
H1689 H 0.31802 0.06969 0.92038 0.0
H1690 H 0.35253 0.11855 0.9653 0.0
H1691 H 0.35662 0.096 0.99006 0.0
C1692 C 0.34173 0.05658 0.98408 0.0
C1693 C 0.33281 0.03616 0.97888 0.0
C1694 C 0.33926 0.06967 0.96996 0.0
C1695 C 0.3211 0.02894 0.95963 0.0
C1696 C 0.3188 0.04188 0.94543 0.0
C1697 C 0.32614 0.07546 0.93574 0.0
C1698 C 0.33509 0.09597 0.94067 0.0
C1699 C 0.32796 0.0623 0.95032 0.0
C1700 C 0.34587 0.103 0.96061 0.0
C1701 C 0.34806 0.09005 0.97498 0.0
H1702 H 0.97594 0.28191 0.97521 0.0
H1703 H 0.93278 0.30028 0.98946 0.0
H1704 H 0.90805 0.27333 0.96632 0.0
H1705 H 0.89945 0.24599 0.94046 0.0
H1706 H 0.94131 0.22519 0.92918 0.0
H1707 H 0.96597 0.2521 0.95214 0.0
C1708 C 0.96104 0.27984 0.97341 0.0
C1709 C 0.95619 0.29307 0.98393 0.0
C1710 C 0.94679 0.26415 0.96029 0.0
C1711 C 0.93682 0.29021 0.98161 0.0
C1712 C 0.92272 0.27489 0.96826 0.0
C1713 C 0.91373 0.24691 0.94331 0.0
C1714 C 0.91835 0.23346 0.93272 0.0
C1715 C 0.92763 0.26192 0.95732 0.0
C1716 C 0.93731 0.2355 0.93644 0.0
C1717 C 0.95144 0.2508 0.94985 0.0
H1718 H 0.69426 0.63316 0.97287 0.0
H1719 H 0.71516 0.696 0.98031 0.0
H1720 H 0.74485 0.70417 0.95813 0.0
H1721 H 0.76443 0.69332 0.93605 0.0
H1722 H 0.74137 0.63025 0.9255 0.0
H1723 H 0.71313 0.62234 0.94961 0.0
C1724 C 0.70547 0.64863 0.96984 0.0
C1725 C 0.70274 0.66398 0.97838 0.0
C1726 C 0.72207 0.65317 0.95643 0.0
C1727 C 0.71708 0.68397 0.97397 0.0
C1728 C 0.73399 0.68862 0.96124 0.0
C1729 C 0.75312 0.67784 0.93873 0.0
C1730 C 0.75527 0.66246 0.92903 0.0
C1731 C 0.73653 0.67333 0.95217 0.0
C1732 C 0.74049 0.64247 0.93307 0.0
C1733 C 0.72419 0.63788 0.94678 0.0
H1734 H 0.94317 0.65434 0.99599 0.0
H1735 H 0.99013 0.68137 0.94716 0.0
H1736 H 0.96819 0.68692 0.92286 0.0
H1737 H 0.93531 0.68271 0.91465 0.0
H1738 H 0.88862 0.65718 0.96399 0.0
H1739 H 0.91069 0.6521 0.98864 0.0
C1740 C 0.94862 0.66157 0.9801 0.0
C1741 C 0.96822 0.66736 0.97338 0.0
C1742 C 0.93591 0.66478 0.96615 0.0
C1743 C 0.9751 0.67677 0.95276 0.0
C1744 C 0.96255 0.6799 0.93879 0.0
C1745 C 0.93 0.67634 0.93093 0.0
C1746 C 0.91022 0.67022 0.93728 0.0
C1747 C 0.94287 0.67379 0.94522 0.0
C1748 C 0.90361 0.66166 0.95837 0.0
C1749 C 0.91628 0.65889 0.9726 0.0
H1750 H 0.35577 0.29905 0.99431 0.0
H1751 H 0.3174 0.31019 0.95196 0.0
H1752 H 0.31163 0.28222 0.9284 0.0
H1753 H 0.31866 0.25566 0.91879 0.0
H1754 H 0.35521 0.24287 0.96235 0.0
H1755 H 0.36079 0.27064 0.9861 0.0
C1756 C 0.34604 0.29524 0.98001 0.0
C1757 C 0.3371 0.30672 0.97486 0.0
C1758 C 0.34264 0.279 0.96655 0.0
C1759 C 0.32445 0.30157 0.95633 0.0
C1760 C 0.32118 0.28562 0.94278 0.0
C1761 C 0.32757 0.25864 0.93366 0.0
C1762 C 0.33663 0.24718 0.93851 0.0
C1763 C 0.33035 0.27434 0.94761 0.0
C1764 C 0.3484 0.25166 0.95777 0.0
C1765 C 0.35148 0.26746 0.97154 0.0
H1766 H 0.71316 0.05992 0.99578 0.0
H1767 H 0.69467 0.00916 0.9527 0.0
H1768 H 0.72236 0.02929 0.92771 0.0
H1769 H 0.75085 0.0616 0.91713 0.0
H1770 H 0.77078 0.11199 0.96123 0.0
H1771 H 0.74334 0.09182 0.98644 0.0
C1772 C 0.7153 0.05326 0.981 0.0
C1773 C 0.70183 0.03311 0.97609 0.0
C1774 C 0.73138 0.0649 0.9667 0.0
C1775 C 0.70484 0.02465 0.95692 0.0
C1776 C 0.72064 0.03616 0.94254 0.0
C1777 C 0.74947 0.06815 0.93241 0.0
C1778 C 0.76285 0.08844 0.937 0.0
C1779 C 0.7339 0.05635 0.94715 0.0
C1780 C 0.76048 0.0966 0.95684 0.0
C1781 C 0.74487 0.08501 0.97144 0.0
H1782 H 0.65631 0.94011 0.02599 0.0
H1783 H 0.66816 0.98129 0.0797 0.0
H1784 H 0.67328 0.95959 0.10488 0.0
H1785 H 0.67386 0.92858 0.11188 0.0
H1786 H 0.66413 0.88828 0.05798 0.0
H1787 H 0.6588 0.9099 0.03258 0.0
C1788 C 0.66005 0.94429 0.0432 0.0
C1789 C 0.66176 0.96219 0.05102 0.0
C1790 C 0.66336 0.9319 0.05753 0.0
C1791 C 0.66681 0.96759 0.07329 0.0
C1792 C 0.66969 0.95518 0.08772 0.0
C1793 C 0.67059 0.92462 0.09455 0.0
C1794 C 0.66926 0.90691 0.08674 0.0
C1795 C 0.66792 0.93726 0.08006 0.0
C1796 C 0.66526 0.90193 0.06425 0.0
C1797 C 0.66216 0.91423 0.04979 0.0
H1798 H 0.02552 0.71191 0.05248 0.0
H1799 H 0.07206 0.70097 0.02937 0.0
H1800 H 0.09665 0.72859 0.05192 0.0
H1801 H 0.10463 0.75487 0.07956 0.0
H1802 H 0.05847 0.76658 0.10187 0.0
H1803 H 0.03398 0.7397 0.07822 0.0
C1804 C 0.04108 0.71569 0.05226 0.0
C1805 C 0.04696 0.70436 0.0394 0.0
C1806 C 0.05515 0.73164 0.0652 0.0
C1807 C 0.06717 0.70949 0.03913 0.0
C1808 C 0.08123 0.72522 0.05209 0.0
C1809 C 0.08919 0.75149 0.07917 0.0
C1810 C 0.08323 0.76246 0.09251 0.0
C1811 C 0.07533 0.73621 0.06541 0.0
C1812 C 0.06332 0.75827 0.09168 0.0
C1813 C 0.04935 0.7429 0.07824 0.0
H1814 H 0.31205 0.34517 0.0736 0.0
H1815 H 0.28682 0.35573 0.01497 0.0
H1816 H 0.25754 0.35045 0.03617 0.0
H1817 H 0.23927 0.34308 0.07152 0.0
H1818 H 0.2654 0.33427 0.13042 0.0
H1819 H 0.29426 0.33868 0.10901 0.0
C1820 C 0.3001 0.34626 0.06546 0.0
C1821 C 0.3015 0.35072 0.04275 0.0
C1822 C 0.28354 0.34356 0.07781 0.0
C1823 C 0.28605 0.35231 0.03245 0.0
C1824 C 0.26932 0.34928 0.04454 0.0
C1825 C 0.25126 0.34203 0.07958 0.0
C1826 C 0.25024 0.33826 0.10243 0.0
C1827 C 0.26792 0.34491 0.06723 0.0
C1828 C 0.26596 0.33723 0.11283 0.0
C1829 C 0.2824 0.33969 0.10061 0.0
H1830 H 0.69268 0.64497 0.3814 0.0
H1831 H 0.73502 0.70695 0.36816 0.0
H1832 H 0.76042 0.70455 0.38987 0.0
H1833 H 0.76974 0.68555 0.41455 0.0
H1834 H 0.72852 0.62262 0.42499 0.0
H1835 H 0.70337 0.62492 0.40297 0.0
C1836 C 0.70755 0.65787 0.38309 0.0
C1837 C 0.71197 0.67612 0.37331 0.0
C1838 C 0.72215 0.65634 0.39542 0.0
C1839 C 0.7313 0.6927 0.37546 0.0
C1840 C 0.74579 0.69138 0.388 0.0
C1841 C 0.75548 0.67214 0.4117 0.0
C1842 C 0.75116 0.65398 0.42182 0.0
C1843 C 0.74127 0.67335 0.3983 0.0
C1844 C 0.73227 0.63699 0.41808 0.0
C1845 C 0.71787 0.6382 0.40523 0.0
H1846 H 0.35383 0.04548 0.38727 0.0
H1847 H 0.29354 0.02968 0.3694 0.0
H1848 H 0.2965 0.0577 0.391 0.0
H1849 H 0.31562 0.0857 0.41642 0.0
H1850 H 0.37607 0.10205 0.43385 0.0
H1851 H 0.37375 0.07488 0.41086 0.0
C1852 C 0.34142 0.04829 0.38796 0.0
C1853 C 0.32346 0.03547 0.37687 0.0
C1854 C 0.34322 0.06444 0.40041 0.0
C1855 C 0.30753 0.03933 0.37779 0.0
C1856 C 0.30917 0.05531 0.39021 0.0
C1857 C 0.32826 0.08327 0.41515 0.0
C1858 C 0.3459 0.09565 0.42693 0.0
C1859 C 0.32683 0.06776 0.40184 0.0
C1860 C 0.36234 0.09266 0.42488 0.0
C1861 C 0.36099 0.07712 0.41182 0.0
H1862 H 0.95975 0.3081 0.39094 0.0
H1863 H 0.97616 0.26575 0.36686 0.0
H1864 H 0.94819 0.23889 0.38706 0.0
H1865 H 0.91933 0.22753 0.41205 0.0
H1866 H 0.90229 0.26963 0.43521 0.0
H1867 H 0.93014 0.2965 0.41479 0.0
C1868 C 0.95717 0.29298 0.3901 0.0
C1869 C 0.97006 0.28892 0.37753 0.0
C1870 C 0.94095 0.27759 0.40158 0.0
C1871 C 0.96645 0.26925 0.37643 0.0
C1872 C 0.95048 0.25389 0.388 0.0
C1873 C 0.92179 0.24262 0.41264 0.0
C1874 C 0.90888 0.24666 0.42518 0.0
C1875 C 0.93771 0.25791 0.40072 0.0
C1876 C 0.91199 0.26618 0.42557 0.0
C1877 C 0.92794 0.28153 0.41397 0.0
H1878 H 0.03575 0.40038 0.31943 0.0
H1879 H 0.97432 0.35384 0.31117 0.0
H1880 H 0.96788 0.3759 0.28795 0.0
H1881 H 0.98031 0.4077 0.26797 0.0
H1882 H 0.04212 0.45367 0.27499 0.0
H1883 H 0.04786 0.43255 0.30054 0.0
C1884 C 0.02089 0.39518 0.31281 0.0
C1885 C 0.00552 0.37554 0.31705 0.0
C1886 C 0.01743 0.40777 0.299 0.0
C1887 C 0.98639 0.36891 0.30814 0.0
C1888 C 0.98272 0.3815 0.29481 0.0
C1889 C 0.99496 0.41315 0.27531 0.0
C1890 C 0.01079 0.43216 0.2695 0.0
C1891 C 0.99821 0.40084 0.28981 0.0
C1892 C 0.02976 0.43897 0.27896 0.0
C1893 C 0.03303 0.42695 0.29365 0.0
H1894 H 0.63871 0.6411 0.28694 0.0
H1895 H 0.60502 0.61986 0.34755 0.0
H1896 H 0.57933 0.59011 0.32828 0.0
H1897 H 0.56607 0.57063 0.29369 0.0
H1898 H 0.59938 0.59326 0.23307 0.0
H1899 H 0.62566 0.622 0.25283 0.0
C1900 C 0.6258 0.62992 0.29599 0.0
C1901 C 0.62378 0.63262 0.31864 0.0
C1902 C 0.61102 0.61314 0.28475 0.0
C1903 C 0.60689 0.61809 0.33009 0.0
C1904 C 0.59222 0.6011 0.31908 0.0
C1905 C 0.57918 0.58182 0.28494 0.0
C1906 C 0.58086 0.57991 0.262 0.0
C1907 C 0.59408 0.59852 0.29636 0.0
C1908 C 0.59777 0.59455 0.25071 0.0
C1909 C 0.61278 0.61093 0.26199 0.0
H1910 H 0.37624 0.98228 0.33119 0.0
H1911 H 0.35473 0.0086 0.28342 0.0
H1912 H 0.38131 0.01369 0.25786 0.0
H1913 H 0.40985 0.00948 0.24839 0.0
H1914 H 0.43201 0.98392 0.29637 0.0
H1915 H 0.40591 0.97953 0.32233 0.0
C1916 C 0.37746 0.98923 0.31524 0.0
C1917 C 0.36349 0.99499 0.30921 0.0
C1918 C 0.39281 0.99211 0.30055 0.0
C1919 C 0.36528 0.00401 0.28848 0.0
C1920 C 0.38046 0.0069 0.27382 0.0
C1921 C 0.40917 0.00321 0.26464 0.0
C1922 C 0.42281 0.99692 0.27029 0.0
C1923 C 0.39422 0.00087 0.27959 0.0
C1924 C 0.42149 0.98856 0.29136 0.0
C1925 C 0.40663 0.98615 0.30631 0.0
H1926 H 0.6023 0.98038 0.32747 0.0
H1927 H 0.64971 0.0062 0.27906 0.0
H1928 H 0.62785 0.01075 0.25352 0.0
H1929 H 0.59488 0.00611 0.24425 0.0
H1930 H 0.54778 0.98156 0.29316 0.0
H1931 H 0.56977 0.97751 0.31891 0.0
C1932 C 0.60787 0.98713 0.31139 0.0
C1933 C 0.62758 0.99289 0.30517 0.0
C1934 C 0.5952 0.98973 0.29672 0.0
C1935 C 0.6346 0.00165 0.28429 0.0
C1936 C 0.62209 0.0042 0.26962 0.0
C1937 C 0.58946 0.00014 0.26064 0.0
C1938 C 0.56956 0.99398 0.26656 0.0
C1939 C 0.6023 0.99814 0.27557 0.0
C1940 C 0.56284 0.98602 0.28785 0.0
C1941 C 0.57547 0.98384 0.30272 0.0
H1942 H 0.00665 0.63985 0.28642 0.0
H1943 H 0.01851 0.61624 0.34551 0.0
H1944 H 0.01456 0.58732 0.32469 0.0
H1945 H 0.00842 0.56913 0.28934 0.0
H1946 H 0.99872 0.59405 0.23001 0.0
H1947 H 0.00108 0.62211 0.25122 0.0
C1948 C 0.00827 0.62832 0.29476 0.0
C1949 C 0.01277 0.63009 0.31746 0.0
C1950 C 0.00639 0.61202 0.28261 0.0
C1951 C 0.01506 0.61518 0.32802 0.0
C1952 C 0.01278 0.59865 0.31614 0.0
C1953 C 0.00669 0.58067 0.28118 0.0
C1954 C 0.00331 0.57959 0.25825 0.0
C1955 C 0.00852 0.59696 0.2934 0.0
C1956 C 0.00137 0.59469 0.24767 0.0
C1957 C 0.0027 0.61068 0.25977 0.0
H1958 H 0.3622 0.36516 0.28703 0.0
H1959 H 0.38419 0.39915 0.34731 0.0
H1960 H 0.41364 0.42478 0.32759 0.0
H1961 H 0.43283 0.43777 0.29284 0.0
H1962 H 0.40963 0.40427 0.23248 0.0
H1963 H 0.38094 0.37816 0.25256 0.0
C1964 C 0.37347 0.37815 0.29589 0.0
C1965 C 0.37108 0.38025 0.3186 0.0
C1966 C 0.39012 0.3929 0.28439 0.0
C1967 C 0.38571 0.39722 0.32981 0.0
C1968 C 0.40254 0.41185 0.31854 0.0
C1969 C 0.42152 0.42466 0.2842 0.0
C1970 C 0.42328 0.42286 0.26127 0.0
C1971 C 0.40488 0.40988 0.29581 0.0
C1972 C 0.40847 0.40598 0.25012 0.0
C1973 C 0.39212 0.39105 0.26159 0.0
H1974 H 0.30488 0.27064 0.37499 0.0
H1975 H 0.36524 0.31854 0.38621 0.0
H1976 H 0.37238 0.29619 0.40797 0.0
H1977 H 0.36088 0.26355 0.42557 0.0
H1978 H 0.3002 0.21599 0.4153 0.0
H1979 H 0.29372 0.2377 0.39156 0.0
C1980 C 0.31966 0.27612 0.38199 0.0
C1981 C 0.33451 0.29619 0.379 0.0
C1982 C 0.32354 0.2633 0.39485 0.0
C1983 C 0.35355 0.30313 0.38831 0.0
C1984 C 0.35763 0.29038 0.40079 0.0
C1985 C 0.34633 0.25789 0.41791 0.0
C1986 C 0.33103 0.23823 0.42226 0.0
C1987 C 0.34266 0.27051 0.40443 0.0
C1988 C 0.31215 0.23116 0.41244 0.0
C1989 C 0.30846 0.24353 0.39878 0.0
H1990 H 0.72886 0.03183 0.36739 0.0
H1991 H 0.67847 0.03841 0.38579 0.0
H1992 H 0.70037 0.06779 0.40799 0.0
H1993 H 0.73363 0.0906 0.42379 0.0
H1994 H 0.78367 0.08318 0.40625 0.0
H1995 H 0.76216 0.05516 0.3822 0.0
C1996 C 0.72271 0.03981 0.37609 0.0
C1997 C 0.70209 0.03295 0.37495 0.0
C1998 C 0.73532 0.05647 0.38914 0.0
C1999 C 0.69431 0.04337 0.38643 0.0
C2000 C 0.70681 0.06016 0.39916 0.0
C2001 C 0.73983 0.08297 0.41449 0.0
C2002 C 0.76017 0.08887 0.41688 0.0
C2003 C 0.72731 0.0667 0.40086 0.0
C2004 C 0.76799 0.07874 0.4049 0.0
C2005 C 0.75573 0.06277 0.39109 0.0
H2006 H 0.95783 0.68093 0.36334 0.0
H2007 H 0.97341 0.64793 0.40892 0.0
H2008 H 0.94571 0.64221 0.43298 0.0
H2009 H 0.91815 0.64791 0.44203 0.0
H2010 H 0.90067 0.67866 0.39528 0.0
H2011 H 0.92824 0.68426 0.37109 0.0
C2012 C 0.95503 0.67236 0.37846 0.0
C2013 C 0.9677 0.66494 0.38436 0.0
C2014 C 0.9389 0.66894 0.3922 0.0
C2015 C 0.96386 0.65378 0.40395 0.0
C2016 C 0.94806 0.65056 0.41779 0.0
C2017 C 0.92004 0.65552 0.42639 0.0
C2018 C 0.90733 0.663 0.42078 0.0
C2019 C 0.9356 0.65823 0.41219 0.0
C2020 C 0.91044 0.67314 0.40048 0.0
C2021 C 0.92613 0.67621 0.38645 0.0
H2022 H 0.36088 0.00388 0.74532 0.0
H2023 H 0.39322 0.01668 0.68372 0.0
H2024 H 0.41969 0.01324 0.70198 0.0
H2025 H 0.43386 0.00712 0.73584 0.0
H2026 H 0.40219 0.99645 0.79762 0.0
H2027 H 0.37515 0.99847 0.77895 0.0
C2028 C 0.37368 0.00582 0.73586 0.0
C2029 C 0.37509 0.01042 0.71321 0.0
C2030 C 0.38894 0.00422 0.74653 0.0
C2031 C 0.39185 0.01314 0.7012 0.0
C2032 C 0.40695 0.01116 0.71162 0.0
C2033 C 0.42094 0.00514 0.74509 0.0
C2034 C 0.41986 0.00158 0.76798 0.0
C2035 C 0.40568 0.00676 0.73431 0.0
C2036 C 0.40326 0.99926 0.77997 0.0
C2037 C 0.38783 0.00039 0.76932 0.0
H2038 H 0.99994 0.359 0.7382 0.0
H2039 H 0.98585 0.38015 0.67863 0.0
H2040 H 0.99104 0.41015 0.69812 0.0
H2041 H 0.99817 0.42962 0.73271 0.0
H2042 H 0.01028 0.40716 0.79253 0.0
H2043 H 0.00732 0.3784 0.77237 0.0
C2044 C 0.99816 0.37025 0.72943 0.0
C2045 C 0.99257 0.36741 0.70701 0.0
C2046 C 0.00074 0.38717 0.74084 0.0
C2047 C 0.99014 0.38202 0.69591 0.0
C2048 C 0.9931 0.39915 0.70704 0.0
C2049 C 0.00035 0.4185 0.74119 0.0
C2050 C 0.00445 0.42043 0.76401 0.0
C2051 C 0.99821 0.40179 0.72958 0.0
C2052 C 0.00701 0.40586 0.77497 0.0
C2053 C 0.00535 0.38946 0.76347 0.0
H2054 H 0.62333 0.64354 0.70732 0.0
H2055 H 0.646 0.60265 0.70566 0.0
H2056 H 0.61691 0.57811 0.72662 0.0
H2057 H 0.58614 0.56913 0.74713 0.0
H2058 H 0.56258 0.60939 0.74708 0.0
H2059 H 0.59122 0.6335 0.72548 0.0
C2060 C 0.62182 0.62919 0.7114 0.0
C2061 C 0.63682 0.62494 0.70505 0.0
C2062 C 0.60507 0.61516 0.7234 0.0
C2063 C 0.63462 0.60626 0.71033 0.0
C2064 C 0.61805 0.59226 0.7224 0.0
C2065 C 0.587 0.58299 0.7421 0.0
C2066 C 0.57218 0.5874 0.74898 0.0
C2067 C 0.6033 0.59666 0.72925 0.0
C2068 C 0.5739 0.60569 0.74253 0.0
C2069 C 0.59021 0.61945 0.72998 0.0
H2070 H 0.65374 0.69861 0.64467 0.0
H2071 H 0.71797 0.73615 0.64535 0.0
H2072 H 0.71539 0.76109 0.62288 0.0
H2073 H 0.69493 0.77149 0.60187 0.0
H2074 H 0.63047 0.73487 0.60357 0.0
H2075 H 0.63318 0.71011 0.62583 0.0
C2076 C 0.66717 0.7123 0.63998 0.0
C2077 C 0.68602 0.71551 0.64655 0.0
C2078 C 0.66555 0.72662 0.62726 0.0
C2079 C 0.70328 0.73337 0.64053 0.0
C2080 C 0.70181 0.74759 0.62761 0.0
C2081 C 0.68141 0.75829 0.60737 0.0
C2082 C 0.66251 0.75511 0.60073 0.0
C2083 C 0.68302 0.74429 0.62074 0.0
C2084 C 0.64525 0.73763 0.60783 0.0
C2085 C 0.64676 0.72349 0.6208 0.0
H2086 H 0.30963 0.96731 0.62809 0.0
H2087 H 0.27065 0.95026 0.68491 0.0
H2088 H 0.24665 0.91926 0.66637 0.0
H2089 H 0.23613 0.89788 0.63335 0.0
H2090 H 0.27421 0.91646 0.57559 0.0
H2091 H 0.29939 0.94572 0.5954 0.0
C2092 C 0.29597 0.95672 0.63651 0.0
C2093 C 0.29189 0.96105 0.65782 0.0
C2094 C 0.2821 0.93918 0.62559 0.0
C2095 C 0.27409 0.94726 0.66847 0.0
C2096 C 0.26037 0.92956 0.65787 0.0
C2097 C 0.24988 0.90837 0.62502 0.0
C2098 C 0.25316 0.90491 0.60293 0.0
C2099 C 0.26409 0.92553 0.63629 0.0
C2100 C 0.27132 0.9185 0.59264 0.0
C2101 C 0.28569 0.93538 0.6039 0.0
H2102 H 0.02567 0.33231 0.61774 0.0
H2103 H 0.04365 0.31525 0.67762 0.0
H2104 H 0.07329 0.3186 0.6588 0.0
H2105 H 0.09359 0.32555 0.62489 0.0
H2106 H 0.0743 0.34072 0.56467 0.0
H2107 H 0.04557 0.33885 0.58398 0.0
C2108 C 0.03616 0.32948 0.62672 0.0
C2109 C 0.03259 0.32368 0.64905 0.0
C2110 C 0.05283 0.33097 0.61567 0.0
C2111 C 0.04613 0.31977 0.66041 0.0
C2112 C 0.06305 0.32167 0.64966 0.0
C2113 C 0.08312 0.32855 0.6161 0.0
C2114 C 0.086 0.33328 0.59343 0.0
C2115 C 0.06648 0.32713 0.62724 0.0
C2116 C 0.07226 0.33691 0.58209 0.0
C2117 C 0.0559 0.33591 0.59313 0.0
H2118 H 0.27268 0.315 0.66667 0.0
H2119 H 0.32015 0.34514 0.61893 0.0
H2120 H 0.29774 0.34996 0.59468 0.0
H2121 H 0.26444 0.34444 0.58617 0.0
H2122 H 0.21722 0.31625 0.63463 0.0
H2123 H 0.23961 0.31152 0.6591 0.0
C2124 C 0.27812 0.32273 0.65103 0.0
C2125 C 0.29804 0.32963 0.64463 0.0
C2126 C 0.26514 0.32562 0.63711 0.0
C2127 C 0.3049 0.33969 0.62432 0.0
C2128 C 0.29207 0.34242 0.61037 0.0
C2129 C 0.25905 0.33759 0.60223 0.0
C2130 C 0.23902 0.33062 0.60831 0.0
C2131 C 0.27213 0.33531 0.6165 0.0
C2132 C 0.23238 0.32141 0.62913 0.0
C2133 C 0.24525 0.31883 0.6433 0.0
H2134 H 0.68763 0.95927 0.66239 0.0
H2135 H 0.65412 0.97528 0.61802 0.0
H2136 H 0.64913 0.9486 0.59282 0.0
H2137 H 0.65516 0.92153 0.58269 0.0
H2138 H 0.68665 0.90371 0.628 0.0
H2139 H 0.69193 0.93055 0.65315 0.0
C2140 C 0.67915 0.95681 0.64727 0.0
C2141 C 0.6713 0.96926 0.64209 0.0
C2142 C 0.67617 0.94128 0.63284 0.0
C2143 C 0.66028 0.96588 0.62246 0.0
C2144 C 0.65747 0.95066 0.60797 0.0
C2145 C 0.6629 0.92322 0.5982 0.0
C2146 C 0.67058 0.91057 0.60323 0.0
C2147 C 0.66544 0.93835 0.61292 0.0
C2148 C 0.68093 0.91342 0.62332 0.0
C2149 C 0.6838 0.92868 0.63789 0.0
H2150 H 0.03104 0.72832 0.64783 0.0
H2151 H 0.04206 0.67956 0.63675 0.0
H2152 H 0.07146 0.70129 0.61441 0.0
H2153 H 0.09368 0.73402 0.59738 0.0
H2154 H 0.08181 0.78235 0.60718 0.0
H2155 H 0.05303 0.76093 0.6305 0.0
C2156 C 0.03996 0.72251 0.64063 0.0
C2157 C 0.03446 0.70242 0.644 0.0
C2158 C 0.05661 0.73498 0.62745 0.0
C2159 C 0.04601 0.695 0.63438 0.0
C2160 C 0.06281 0.7074 0.6216 0.0
C2161 C 0.08483 0.73985 0.60475 0.0
C2162 C 0.08984 0.75971 0.6006 0.0
C2163 C 0.0682 0.72739 0.61794 0.0
C2164 C 0.07812 0.76704 0.60999 0.0
C2165 C 0.06174 0.75484 0.62339 0.0
H2166 H 0.9651 0.59956 0.70882 0.0
H2167 H 0.02524 0.64751 0.721 0.0
H2168 H 0.03196 0.62529 0.74358 0.0
H2169 H 0.02043 0.59246 0.76076 0.0
H2170 H 0.95989 0.5449 0.74984 0.0
H2171 H 0.95357 0.56673 0.72603 0.0
C2172 C 0.97971 0.60508 0.7163 0.0
C2173 C 0.99467 0.62511 0.71319 0.0
C2174 C 0.98334 0.59233 0.72962 0.0
C2175 C 0.01347 0.63214 0.72316 0.0
C2176 C 0.01732 0.61946 0.73608 0.0
C2177 C 0.00592 0.58686 0.75301 0.0
C2178 C 0.99065 0.56712 0.75703 0.0
C2179 C 0.00233 0.59956 0.73954 0.0
C2180 C 0.97182 0.56011 0.74714 0.0
C2181 C 0.96823 0.57255 0.73346 0.0
H2182 H 0.35829 0.37943 0.71786 0.0
H2183 H 0.40327 0.36371 0.70268 0.0
H2184 H 0.42816 0.39266 0.72339 0.0
H2185 H 0.43675 0.42154 0.74684 0.0
H2186 H 0.39271 0.43932 0.75913 0.0
H2187 H 0.36774 0.41015 0.73903 0.0
C2188 C 0.37357 0.38244 0.71903 0.0
C2189 C 0.37895 0.36946 0.70887 0.0
C2190 C 0.3879 0.39931 0.73066 0.0
C2191 C 0.39881 0.37356 0.71031 0.0
C2192 C 0.41302 0.39005 0.72222 0.0
C2193 C 0.42185 0.4194 0.74482 0.0
C2194 C 0.41676 0.43274 0.75475 0.0
C2195 C 0.4077 0.40296 0.73255 0.0
C2196 C 0.3971 0.42918 0.75222 0.0
C2197 C 0.38279 0.41256 0.74049 0.0
H2198 H 0.6194 0.01542 0.69275 0.0
H2199 H 0.64455 0.9954 0.74359 0.0
H2200 H 0.61791 0.99045 0.769 0.0
H2201 H 0.58799 0.99281 0.77727 0.0
H2202 H 0.56147 0.01083 0.72614 0.0
H2203 H 0.58799 0.01553 0.70029 0.0
C2204 C 0.61894 0.00988 0.70936 0.0
C2205 C 0.63395 0.00589 0.71633 0.0
C2206 C 0.60337 0.00677 0.72383 0.0
C2207 C 0.63313 0.99855 0.73781 0.0
C2208 C 0.61794 0.99577 0.75239 0.0
C2209 C 0.58807 0.9977 0.76043 0.0
C2210 C 0.57303 0.00162 0.75354 0.0
C2211 C 0.6031 0.0 0.74565 0.0
C2212 C 0.57299 0.00773 0.73167 0.0
C2213 C 0.58814 0.01046 0.71697 0.0
loop_
_geom_bond_atom_site_label_1
_geom_bond_atom_site_label_2
_geom_bond_distance
_geom_bond_site_symmetry_2
_ccdc_geom_bond_type
In0 O1 2.294 1_455 S
In0 O2 2.326 . S
In0 O6 2.266 1_455 S
In0 O7 2.326 1_454 S
In0 O8 2.266 1_554 S
In0 O9 2.326 1_454 S
In0 O11 2.294 . S
In0 O12 2.326 . S
O1 In0 2.294 1_655 S
O1 C10 1.237 . S
O2 In0 2.326 . S
O2 C10 1.257 1_455 S
C3 O6 1.252 1_556 S
C3 O7 1.260 . S
C4 O11 1.240 . S
C4 O12 1.252 . S
C5 O8 1.252 . S
C5 O9 1.260 1_455 S
O6 In0 2.266 1_655 S
O6 C3 1.252 1_554 S
O7 In0 2.326 1_656 S
O7 C3 1.260 . S
O8 In0 2.266 1_556 S
O8 C5 1.252 . S
O9 In0 2.326 1_656 S
O9 C5 1.260 1_655 S
C10 O1 1.237 . S
C10 O2 1.257 1_655 S
O11 In0 2.294 . S
O11 C4 1.240 . S
O12 In0 2.326 . S
O12 C4 1.252 . S
In13 O14 2.294 . S
In13 O15 2.326 . S
In13 O19 2.266 . S
In13 O20 2.326 1_554 S
In13 O21 2.266 1_554 S
In13 O22 2.326 1_554 S
In13 O24 2.294 . S
In13 O25 2.326 . S
O14 In13 2.294 . S
O14 C23 1.240 . S
O15 In13 2.326 . S
O15 C23 1.252 . S
C16 O19 1.252 1_556 S
C16 O20 1.260 . S
C17 O24 1.240 . S
C17 O25 1.252 . S
C18 O21 1.252 . S
C18 O22 1.260 . S
O19 In13 2.266 . S
O19 C16 1.252 1_554 S
O20 In13 2.326 1_556 S
O20 C16 1.260 . S
O21 In13 2.266 1_556 S
O21 C18 1.252 . S
O22 In13 2.326 1_556 S
O22 C18 1.260 . S
C23 O14 1.240 . S
C23 O15 1.252 . S
O24 In13 2.294 . S
O24 C17 1.240 . S
O25 In13 2.326 . S
O25 C17 1.252 . S
In26 O27 2.294 . S
In26 O28 2.326 1_554 S
In26 O32 2.266 . S
In26 O33 2.326 1_545 S
In26 O34 2.266 1_545 S
In26 O35 2.326 1_545 S
In26 O37 2.294 1_544 S
In26 O38 2.326 1_554 S
O27 In26 2.294 . S
O27 C36 1.240 1_554 S
O28 In26 2.326 1_556 S
O28 C36 1.252 . S
C29 O32 1.252 . S
C29 O33 1.260 1_545 S
C30 O37 1.237 1_545 S
C30 O38 1.258 . S
C31 O34 1.252 . S
C31 O35 1.260 . S
O32 In26 2.266 . S
O32 C29 1.252 . S
O33 In26 2.326 1_565 S
O33 C29 1.260 1_565 S
O34 In26 2.266 1_565 S
O34 C31 1.252 . S
O35 In26 2.326 1_565 S
O35 C31 1.260 . S
C36 O27 1.240 1_556 S
C36 O28 1.252 . S
O37 In26 2.294 1_566 S
O37 C30 1.237 1_565 S
O38 In26 2.326 1_556 S
O38 C30 1.258 . S
In39 O40 2.293 1_554 S
In39 O41 2.326 1_454 S
In39 O45 2.265 . S
In39 O46 2.326 . S
In39 O47 2.267 1_455 S
In39 O48 2.324 . S
In39 O50 2.296 1_455 S
In39 O51 2.327 1_454 S
O40 In39 2.293 1_556 S
O40 C49 1.240 . S
O41 In39 2.326 1_656 S
O41 C49 1.252 1_655 S
C42 O45 1.252 . S
C42 O46 1.260 . S
C43 O50 1.240 1_556 S
C43 O51 1.252 . S
C44 O47 1.288 . S
C44 O48 1.234 1_655 S
O45 In39 2.265 . S
O45 C42 1.252 . S
O46 In39 2.326 . S
O46 C42 1.260 . S
O47 In39 2.267 1_655 S
O47 C44 1.288 . S
O48 In39 2.324 . S
O48 C44 1.234 1_455 S
C49 O40 1.240 . S
C49 O41 1.252 1_455 S
O50 In39 2.296 1_655 S
O50 C43 1.240 1_554 S
O51 In39 2.327 1_656 S
O51 C43 1.252 . S
In52 O53 2.294 1_554 S
In52 O54 2.326 1_554 S
In52 O58 2.266 . S
In52 O59 2.326 . S
In52 O60 2.266 . S
In52 O61 2.326 . S
In52 O63 2.294 . S
In52 O64 2.326 1_554 S
O53 In52 2.294 1_556 S
O53 C62 1.240 . S
O54 In52 2.326 1_556 S
O54 C62 1.252 . S
C55 O58 1.252 . S
C55 O59 1.260 . S
C56 O63 1.240 1_556 S
C56 O64 1.252 . S
C57 O60 1.252 . S
C57 O61 1.260 . S
O58 In52 2.266 . S
O58 C55 1.252 . S
O59 In52 2.326 . S
O59 C55 1.260 . S
O60 In52 2.266 . S
O60 C57 1.252 . S
O61 In52 2.326 . S
O61 C57 1.260 . S
C62 O53 1.240 . S
C62 O54 1.252 . S
O63 In52 2.294 . S
O63 C56 1.240 1_554 S
O64 In52 2.326 1_556 S
O64 C56 1.252 . S
In65 O66 2.293 . S
In65 O67 2.326 1_545 S
In65 O71 2.265 . S
In65 O72 2.326 1_554 S
In65 O73 2.267 1_544 S
In65 O74 2.324 1_554 S
In65 O76 2.296 1_545 S
In65 O77 2.327 1_545 S
O66 In65 2.293 . S
O66 C75 1.240 . S
O67 In65 2.326 1_565 S
O67 C75 1.252 1_565 S
C68 O71 1.252 1_556 S
C68 O72 1.260 . S
C69 O76 1.240 . S
C69 O77 1.252 . S
C70 O73 1.291 . S
C70 O74 1.232 1_565 S
O71 In65 2.265 . S
O71 C68 1.252 1_554 S
O72 In65 2.326 1_556 S
O72 C68 1.260 . S
O73 In65 2.267 1_566 S
O73 C70 1.291 . S
O74 In65 2.324 1_556 S
O74 C70 1.232 1_545 S
C75 O66 1.240 . S
C75 O67 1.252 1_545 S
O76 In65 2.296 1_565 S
O76 C69 1.240 . S
O77 In65 2.327 1_565 S
O77 C69 1.252 . S
In78 O79 2.294 . S
In78 O80 2.326 . S
In78 O84 2.266 . S
In78 O85 2.326 . S
In78 O86 2.266 . S
In78 O87 2.326 . S
In78 O89 2.294 . S
In78 O90 2.326 . S
O79 In78 2.294 . S
O79 C88 1.240 . S
O80 In78 2.326 . S
O80 C88 1.252 . S
C81 O84 1.252 . S
C81 O85 1.260 . S
C82 O89 1.240 . S
C82 O90 1.252 . S
C83 O86 1.252 . S
C83 O87 1.260 . S
O84 In78 2.266 . S
O84 C81 1.252 . S
O85 In78 2.326 . S
O85 C81 1.260 . S
O86 In78 2.266 . S
O86 C83 1.252 . S
O87 In78 2.326 . S
O87 C83 1.260 . S
C88 O79 1.240 . S
C88 O80 1.252 . S
O89 In78 2.294 . S
O89 C82 1.240 . S
O90 In78 2.326 . S
O90 C82 1.252 . S
In91 O92 2.294 . S
In91 O93 2.326 . S
In91 O97 2.266 . S
In91 O98 2.326 . S
In91 O99 2.266 . S
In91 O100 2.326 . S
In91 O102 2.294 1_565 S
In91 O103 2.326 1_565 S
O92 In91 2.294 . S
O92 C101 1.240 . S
O93 In91 2.326 . S
O93 C101 1.252 . S
C94 O97 1.252 . S
C94 O98 1.260 . S
C95 O102 1.240 . S
C95 O103 1.252 . S
C96 O99 1.252 . S
C96 O100 1.260 . S
O97 In91 2.266 . S
O97 C94 1.252 . S
O98 In91 2.326 . S
O98 C94 1.260 . S
O99 In91 2.266 . S
O99 C96 1.252 . S
O100 In91 2.326 . S
O100 C96 1.260 . S
C101 O92 1.240 . S
C101 O93 1.252 . S
O102 In91 2.294 1_545 S
O102 C95 1.240 . S
O103 In91 2.326 1_545 S
O103 C95 1.252 . S
In104 O105 2.294 . S
In104 O106 2.326 . S
In104 O110 2.266 . S
In104 O111 2.326 . S
In104 O112 2.266 1_455 S
In104 O113 2.326 1_455 S
In104 O115 2.294 . S
In104 O116 2.326 . S
O105 In104 2.294 . S
O105 C114 1.240 . S
O106 In104 2.326 . S
O106 C114 1.252 . S
C107 O110 1.252 . S
C107 O111 1.260 . S
C108 O115 1.240 . S
C108 O116 1.252 . S
C109 O112 1.252 . S
C109 O113 1.260 . S
O110 In104 2.266 . S
O110 C107 1.252 . S
O111 In104 2.326 . S
O111 C107 1.260 . S
O112 In104 2.266 1_655 S
O112 C109 1.252 . S
O113 In104 2.326 1_655 S
O113 C109 1.260 . S
C114 O105 1.240 . S
C114 O106 1.252 . S
O115 In104 2.294 . S
O115 C108 1.240 . S
O116 In104 2.326 . S
O116 C108 1.252 . S
In117 O118 2.294 . S
In117 O119 2.326 . S
In117 O123 2.266 1_565 S
In117 O124 2.326 1_565 S
In117 O125 2.266 . S
In117 O126 2.326 . S
In117 O128 2.294 . S
In117 O129 2.326 . S
O118 In117 2.294 . S
O118 C127 1.240 . S
O119 In117 2.326 . S
O119 C127 1.252 . S
C120 O123 1.252 . S
C120 O124 1.260 . S
C121 O128 1.240 . S
C121 O129 1.252 . S
C122 O125 1.252 . S
C122 O126 1.260 . S
O123 In117 2.266 1_545 S
O123 C120 1.252 . S
O124 In117 2.326 1_545 S
O124 C120 1.260 . S
O125 In117 2.266 . S
O125 C122 1.252 . S
O126 In117 2.326 . S
O126 C122 1.260 . S
C127 O118 1.240 . S
C127 O119 1.252 . S
O128 In117 2.294 . S
O128 C121 1.240 . S
O129 In117 2.326 . S
O129 C121 1.252 . S
In130 O131 2.294 . S
In130 O132 2.326 . S
In130 O136 2.266 1_455 S
In130 O137 2.326 1_455 S
In130 O138 2.266 . S
In130 O139 2.326 . S
In130 O141 2.294 . S
In130 O142 2.326 . S
O131 In130 2.294 . S
O131 C140 1.240 . S
O132 In130 2.326 . S
O132 C140 1.252 . S
C133 O136 1.252 . S
C133 O137 1.260 . S
C134 O141 1.240 . S
C134 O142 1.252 . S
C135 O138 1.252 . S
C135 O139 1.260 . S
O136 In130 2.266 1_655 S
O136 C133 1.252 . S
O137 In130 2.326 1_655 S
O137 C133 1.260 . S
O138 In130 2.266 . S
O138 C135 1.252 . S
O139 In130 2.326 . S
O139 C135 1.260 . S
C140 O131 1.240 . S
C140 O132 1.252 . S
O141 In130 2.294 . S
O141 C134 1.240 . S
O142 In130 2.326 . S
O142 C134 1.252 . S
In143 O144 2.294 . S
In143 O145 2.326 . S
In143 O149 2.266 . S
In143 O150 2.326 . S
In143 O151 2.266 . S
In143 O152 2.326 . S
In143 O154 2.294 . S
In143 O155 2.326 . S
O144 In143 2.294 . S
O144 C153 1.240 . S
O145 In143 2.326 . S
O145 C153 1.252 . S
C146 O149 1.252 . S
C146 O150 1.260 . S
C147 O154 1.240 . S
C147 O155 1.252 . S
C148 O151 1.252 . S
C148 O152 1.260 . S
O149 In143 2.266 . S
O149 C146 1.252 . S
O150 In143 2.326 . S
O150 C146 1.260 . S
O151 In143 2.266 . S
O151 C148 1.252 . S
O152 In143 2.326 . S
O152 C148 1.260 . S
C153 O144 1.240 . S
C153 O145 1.252 . S
O154 In143 2.294 . S
O154 C147 1.240 . S
O155 In143 2.326 . S
O155 C147 1.252 . S
In156 O157 2.294 . S
In156 O158 2.326 . S
In156 O162 2.266 . S
In156 O163 2.326 . S
In156 O164 2.266 1_545 S
In156 O165 2.326 1_545 S
In156 O167 2.294 . S
In156 O168 2.326 . S
O157 In156 2.294 . S
O157 C166 1.240 . S
O158 In156 2.326 . S
O158 C166 1.252 . S
C159 O162 1.252 . S
C159 O163 1.260 . S
C160 O167 1.240 . S
C160 O168 1.252 . S
C161 O164 1.252 . S
C161 O165 1.260 . S
O162 In156 2.266 . S
O162 C159 1.252 . S
O163 In156 2.326 . S
O163 C159 1.260 . S
O164 In156 2.266 1_565 S
O164 C161 1.252 . S
O165 In156 2.326 1_565 S
O165 C161 1.260 . S
C166 O157 1.240 . S
C166 O158 1.252 . S
O167 In156 2.294 . S
O167 C160 1.240 . S
O168 In156 2.326 . S
O168 C160 1.252 . S
In169 O170 2.294 . S
In169 O171 2.326 . S
In169 O175 2.266 . S
In169 O176 2.326 . S
In169 O177 2.266 1_655 S
In169 O178 2.326 1_655 S
In169 O180 2.294 . S
In169 O181 2.326 . S
O170 In169 2.294 . S
O170 C179 1.240 . S
O171 In169 2.326 . S
O171 C179 1.252 . S
C172 O175 1.252 . S
C172 O176 1.260 . S
C173 O180 1.240 . S
C173 O181 1.252 . S
C174 O177 1.252 . S
C174 O178 1.260 . S
O175 In169 2.266 . S
O175 C172 1.252 . S
O176 In169 2.326 . S
O176 C172 1.260 . S
O177 In169 2.266 1_455 S
O177 C174 1.252 . S
O178 In169 2.326 1_455 S
O178 C174 1.260 . S
C179 O170 1.240 . S
C179 O171 1.252 . S
O180 In169 2.294 . S
O180 C173 1.240 . S
O181 In169 2.326 . S
O181 C173 1.252 . S
In182 O183 2.294 . S
In182 O184 2.326 . S
In182 O188 2.266 . S
In182 O189 2.326 . S
In182 O190 2.266 . S
In182 O191 2.326 . S
In182 O193 2.294 . S
In182 O194 2.326 . S
O183 In182 2.294 . S
O183 C192 1.240 . S
O184 In182 2.326 . S
O184 C192 1.252 . S
C185 O188 1.252 . S
C185 O189 1.260 . S
C186 O193 1.240 . S
C186 O194 1.252 . S
C187 O190 1.252 . S
C187 O191 1.260 . S
O188 In182 2.266 . S
O188 C185 1.252 . S
O189 In182 2.326 . S
O189 C185 1.260 . S
O190 In182 2.266 . S
O190 C187 1.252 . S
O191 In182 2.326 . S
O191 C187 1.260 . S
C192 O183 1.240 . S
C192 O184 1.252 . S
O193 In182 2.294 . S
O193 C186 1.240 . S
O194 In182 2.326 . S
O194 C186 1.252 . S
In195 O196 2.294 . S
In195 O197 2.326 . S
In195 O201 2.266 . S
In195 O202 2.326 . S
In195 O203 2.266 . S
In195 O204 2.326 . S
In195 O206 2.294 . S
In195 O207 2.326 . S
O196 In195 2.294 . S
O196 C205 1.240 . S
O197 In195 2.326 . S
O197 C205 1.252 . S
C198 O201 1.252 . S
C198 O202 1.260 . S
C199 O206 1.240 . S
C199 O207 1.252 . S
C200 O203 1.252 . S
C200 O204 1.260 . S
O201 In195 2.266 . S
O201 C198 1.252 . S
O202 In195 2.326 . S
O202 C198 1.260 . S
O203 In195 2.266 . S
O203 C200 1.252 . S
O204 In195 2.326 . S
O204 C200 1.260 . S
C205 O196 1.240 . S
C205 O197 1.252 . S
O206 In195 2.294 . S
O206 C199 1.240 . S
O207 In195 2.326 . S
O207 C199 1.252 . S
In208 O209 2.294 . S
In208 O210 2.326 . S
In208 O214 2.266 . S
In208 O215 2.326 . S
In208 O216 2.266 . S
In208 O217 2.326 . S
In208 O219 2.294 1_545 S
In208 O220 2.326 1_545 S
O209 In208 2.294 . S
O209 C218 1.240 . S
O210 In208 2.326 . S
O210 C218 1.252 . S
C211 O214 1.252 . S
C211 O215 1.260 . S
C212 O219 1.240 . S
C212 O220 1.252 . S
C213 O216 1.252 . S
C213 O217 1.260 . S
O214 In208 2.266 . S
O214 C211 1.252 . S
O215 In208 2.326 . S
O215 C211 1.260 . S
O216 In208 2.266 . S
O216 C213 1.252 . S
O217 In208 2.326 . S
O217 C213 1.260 . S
C218 O209 1.240 . S
C218 O210 1.252 . S
O219 In208 2.294 1_565 S
O219 C212 1.240 . S
O220 In208 2.326 1_565 S
O220 C212 1.252 . S
In221 O222 2.294 . S
In221 O223 2.326 . S
In221 O227 2.266 . S
In221 O228 2.326 . S
In221 O229 2.266 1_655 S
In221 O230 2.326 1_655 S
In221 O232 2.294 . S
In221 O233 2.326 . S
O222 In221 2.294 . S
O222 C231 1.240 . S
O223 In221 2.326 . S
O223 C231 1.252 . S
C224 O227 1.252 . S
C224 O228 1.260 . S
C225 O232 1.240 . S
C225 O233 1.252 . S
C226 O229 1.252 . S
C226 O230 1.260 . S
O227 In221 2.266 . S
O227 C224 1.252 . S
O228 In221 2.326 . S
O228 C224 1.260 . S
O229 In221 2.266 1_455 S
O229 C226 1.252 . S
O230 In221 2.326 1_455 S
O230 C226 1.260 . S
C231 O222 1.240 . S
C231 O223 1.252 . S
O232 In221 2.294 . S
O232 C225 1.240 . S
O233 In221 2.326 . S
O233 C225 1.252 . S
C234 C235 1.384 . S
C234 C236 1.384 . S
C234 H262 0.931 . S
C235 C234 1.384 . S
C235 C238 1.382 . S
C236 C234 1.384 . S
C236 C237 1.381 . S
C236 H263 0.930 . S
C237 C236 1.381 . S
C237 C239 1.381 . S
C237 C240 1.487 . S
C238 C235 1.382 . S
C238 C239 1.387 . S
C238 H264 0.930 . S
C239 C237 1.381 . S
C239 C238 1.387 . S
C239 H265 0.931 . S
C240 C237 1.487 . S
C240 C247 1.399 . S
C240 N278 1.343 . S
C241 C242 1.384 . S
C241 C243 1.384 . S
C241 H266 0.931 . S
C242 C241 1.384 . S
C242 C245 1.382 . S
C243 C241 1.384 . S
C243 C244 1.381 . S
C243 H267 0.930 . S
C244 C243 1.381 . S
C244 C246 1.381 . S
C244 C247 1.487 . S
C245 C242 1.382 . S
C245 C246 1.387 . S
C245 H268 0.930 . S
C246 C244 1.381 . S
C246 C245 1.387 . S
C246 H269 0.931 . S
C247 C240 1.399 . S
C247 C244 1.487 . S
C247 N279 1.343 . S
C248 C249 1.384 . S
C248 C250 1.384 . S
C248 H270 0.931 . S
C249 C248 1.384 . S
C249 C252 1.382 . S
C250 C248 1.384 . S
C250 C251 1.381 . S
C250 H271 0.930 . S
C251 C250 1.381 . S
C251 C253 1.381 . S
C251 C254 1.487 . S
C252 C249 1.382 . S
C252 C253 1.387 . S
C252 H272 0.930 . S
C253 C251 1.381 . S
C253 C252 1.387 . S
C253 H273 0.931 . S
C254 C251 1.487 . S
C254 C261 1.399 . S
C254 N279 1.343 . S
C255 C256 1.384 . S
C255 C257 1.384 . S
C255 H274 0.931 . S
C256 C255 1.384 . S
C256 C259 1.382 . S
C257 C255 1.384 . S
C257 C258 1.381 . S
C257 H275 0.930 . S
C258 C257 1.381 . S
C258 C260 1.381 . S
C258 C261 1.487 . S
C259 C256 1.382 . S
C259 C260 1.387 . S
C259 H276 0.930 . S
C260 C258 1.381 . S
C260 C259 1.387 . S
C260 H277 0.931 . S
C261 C254 1.399 . S
C261 C258 1.487 . S
C261 N278 1.343 . S
H262 C234 0.931 . S
H263 C236 0.930 . S
H264 C238 0.930 . S
H265 C239 0.931 . S
H266 C241 0.931 . S
H267 C243 0.930 . S
H268 C245 0.930 . S
H269 C246 0.931 . S
H270 C248 0.931 . S
H271 C250 0.930 . S
H272 C252 0.930 . S
H273 C253 0.931 . S
H274 C255 0.931 . S
H275 C257 0.930 . S
H276 C259 0.930 . S
H277 C260 0.931 . S
N278 C240 1.343 . S
N278 C261 1.343 . S
N279 C247 1.343 . S
N279 C254 1.343 . S
C280 C281 1.384 . S
C280 C282 1.384 . S
C280 H308 0.931 . S
C281 C280 1.384 . S
C281 C284 1.382 . S
C282 C280 1.384 . S
C282 C283 1.381 . S
C282 H309 0.930 . S
C283 C282 1.381 . S
C283 C285 1.381 . S
C283 C286 1.487 . S
C284 C281 1.382 . S
C284 C285 1.387 . S
C284 H310 0.930 . S
C285 C283 1.381 . S
C285 C284 1.387 . S
C285 H311 0.931 . S
C286 C283 1.487 . S
C286 C293 1.399 . S
C286 N324 1.343 . S
C287 C288 1.384 . S
C287 C289 1.384 . S
C287 H312 0.931 . S
C288 C287 1.384 . S
C288 C291 1.382 . S
C289 C287 1.384 . S
C289 C290 1.381 . S
C289 H313 0.930 . S
C290 C289 1.381 . S
C290 C292 1.381 . S
C290 C293 1.487 . S
C291 C288 1.382 . S
C291 C292 1.387 . S
C291 H314 0.930 . S
C292 C290 1.381 . S
C292 C291 1.387 . S
C292 H315 0.931 . S
C293 C286 1.399 . S
C293 C290 1.487 . S
C293 N325 1.343 . S
C294 C295 1.384 . S
C294 C296 1.384 . S
C294 H316 0.931 . S
C295 C294 1.384 . S
C295 C298 1.382 . S
C296 C294 1.384 . S
C296 C297 1.381 . S
C296 H317 0.930 . S
C297 C296 1.381 . S
C297 C299 1.381 . S
C297 C300 1.487 . S
C298 C295 1.382 . S
C298 C299 1.387 . S
C298 H318 0.930 . S
C299 C297 1.381 . S
C299 C298 1.387 . S
C299 H319 0.931 . S
C300 C297 1.487 . S
C300 C307 1.399 . S
C300 N325 1.343 . S
C301 C302 1.384 . S
C301 C303 1.384 . S
C301 H320 0.931 . S
C302 C301 1.384 . S
C302 C305 1.382 . S
C303 C301 1.384 . S
C303 C304 1.381 . S
C303 H321 0.930 . S
C304 C303 1.381 . S
C304 C306 1.381 . S
C304 C307 1.487 . S
C305 C302 1.382 . S
C305 C306 1.387 . S
C305 H322 0.930 . S
C306 C304 1.381 . S
C306 C305 1.387 . S
C306 H323 0.931 . S
C307 C300 1.399 . S
C307 C304 1.487 . S
C307 N324 1.343 . S
H308 C280 0.931 . S
H309 C282 0.930 . S
H310 C284 0.930 . S
H311 C285 0.931 . S
H312 C287 0.931 . S
H313 C289 0.930 . S
H314 C291 0.930 . S
H315 C292 0.931 . S
H316 C294 0.931 . S
H317 C296 0.930 . S
H318 C298 0.930 . S
H319 C299 0.931 . S
H320 C301 0.931 . S
H321 C303 0.930 . S
H322 C305 0.930 . S
H323 C306 0.931 . S
N324 C286 1.343 . S
N324 C307 1.343 . S
N325 C293 1.343 . S
N325 C300 1.343 . S
C326 C327 1.384 . S
C326 C328 1.384 . S
C326 H354 0.931 . S
C327 C326 1.384 . S
C327 C330 1.382 . S
C328 C326 1.384 . S
C328 C329 1.381 . S
C328 H355 0.930 . S
C329 C328 1.381 . S
C329 C331 1.381 . S
C329 C332 1.487 . S
C330 C327 1.382 . S
C330 C331 1.387 . S
C330 H356 0.930 . S
C331 C329 1.381 . S
C331 C330 1.387 . S
C331 H357 0.931 . S
C332 C329 1.487 . S
C332 C339 1.399 . S
C332 N370 1.343 . S
C333 C334 1.384 . S
C333 C335 1.384 . S
C333 H358 0.931 . S
C334 C333 1.384 . S
C334 C337 1.382 . S
C335 C333 1.384 . S
C335 C336 1.381 . S
C335 H359 0.930 . S
C336 C335 1.381 . S
C336 C338 1.381 . S
C336 C339 1.487 . S
C337 C334 1.382 . S
C337 C338 1.387 . S
C337 H360 0.930 . S
C338 C336 1.381 . S
C338 C337 1.387 . S
C338 H361 0.931 . S
C339 C332 1.399 . S
C339 C336 1.487 . S
C339 N371 1.343 . S
C340 C341 1.384 . S
C340 C342 1.384 . S
C340 H362 0.931 . S
C341 C340 1.384 . S
C341 C344 1.382 . S
C342 C340 1.384 . S
C342 C343 1.381 . S
C342 H363 0.930 . S
C343 C342 1.381 . S
C343 C345 1.381 . S
C343 C346 1.487 . S
C344 C341 1.382 . S
C344 C345 1.387 . S
C344 H364 0.930 . S
C345 C343 1.381 . S
C345 C344 1.387 . S
C345 H365 0.931 . S
C346 C343 1.487 . S
C346 C353 1.399 . S
C346 N371 1.343 . S
C347 C348 1.384 . S
C347 C349 1.384 . S
C347 H366 0.931 . S
C348 C347 1.384 . S
C348 C351 1.382 . S
C349 C347 1.384 . S
C349 C350 1.381 . S
C349 H367 0.930 . S
C350 C349 1.381 . S
C350 C352 1.381 . S
C350 C353 1.487 . S
C351 C348 1.382 . S
C351 C352 1.387 . S
C351 H368 0.930 . S
C352 C350 1.381 . S
C352 C351 1.387 . S
C352 H369 0.931 . S
C353 C346 1.399 . S
C353 C350 1.487 . S
C353 N370 1.343 . S
H354 C326 0.931 . S
H355 C328 0.930 . S
H356 C330 0.930 . S
H357 C331 0.931 . S
H358 C333 0.931 . S
H359 C335 0.930 . S
H360 C337 0.930 . S
H361 C338 0.931 . S
H362 C340 0.931 . S
H363 C342 0.930 . S
H364 C344 0.930 . S
H365 C345 0.931 . S
H366 C347 0.931 . S
H367 C349 0.930 . S
H368 C351 0.930 . S
H369 C352 0.931 . S
N370 C332 1.343 . S
N370 C353 1.343 . S
N371 C339 1.343 . S
N371 C346 1.343 . S
C372 C373 1.384 . S
C372 C374 1.384 . S
C372 H400 0.931 . S
C373 C372 1.384 . S
C373 C376 1.382 . S
C374 C372 1.384 . S
C374 C375 1.381 . S
C374 H401 0.930 . S
C375 C374 1.381 . S
C375 C377 1.381 . S
C375 C378 1.487 . S
C376 C373 1.382 . S
C376 C377 1.387 . S
C376 H402 0.930 . S
C377 C375 1.381 . S
C377 C376 1.387 . S
C377 H403 0.931 . S
C378 C375 1.487 . S
C378 C385 1.399 . S
C378 N416 1.343 . S
C379 C380 1.384 . S
C379 C381 1.384 . S
C379 H404 0.931 . S
C380 C379 1.384 . S
C380 C383 1.382 . S
C381 C379 1.384 . S
C381 C382 1.381 . S
C381 H405 0.930 . S
C382 C381 1.381 . S
C382 C384 1.381 . S
C382 C385 1.487 . S
C383 C380 1.382 . S
C383 C384 1.387 . S
C383 H406 0.930 . S
C384 C382 1.381 . S
C384 C383 1.387 . S
C384 H407 0.931 . S
C385 C378 1.399 . S
C385 C382 1.487 . S
C385 N417 1.343 . S
C386 C387 1.384 . S
C386 C388 1.384 . S
C386 H408 0.931 . S
C387 C386 1.384 . S
C387 C390 1.382 . S
C388 C386 1.384 . S
C388 C389 1.381 . S
C388 H409 0.930 . S
C389 C388 1.381 . S
C389 C391 1.381 . S
C389 C392 1.487 . S
C390 C387 1.382 . S
C390 C391 1.387 . S
C390 H410 0.930 . S
C391 C389 1.381 . S
C391 C390 1.387 . S
C391 H411 0.931 . S
C392 C389 1.487 . S
C392 C399 1.399 . S
C392 N417 1.343 . S
C393 C394 1.384 . S
C393 C395 1.384 . S
C393 H412 0.931 . S
C394 C393 1.384 . S
C394 C397 1.382 . S
C395 C393 1.384 . S
C395 C396 1.381 . S
C395 H413 0.930 . S
C396 C395 1.381 . S
C396 C398 1.381 . S
C396 C399 1.487 . S
C397 C394 1.382 . S
C397 C398 1.387 . S
C397 H414 0.930 . S
C398 C396 1.381 . S
C398 C397 1.387 . S
C398 H415 0.931 . S
C399 C392 1.399 . S
C399 C396 1.487 . S
C399 N416 1.343 . S
H400 C372 0.931 . S
H401 C374 0.930 . S
H402 C376 0.930 . S
H403 C377 0.931 . S
H404 C379 0.931 . S
H405 C381 0.930 . S
H406 C383 0.930 . S
H407 C384 0.931 . S
H408 C386 0.931 . S
H409 C388 0.930 . S
H410 C390 0.930 . S
H411 C391 0.931 . S
H412 C393 0.931 . S
H413 C395 0.930 . S
H414 C397 0.930 . S
H415 C398 0.931 . S
N416 C378 1.343 . S
N416 C399 1.343 . S
N417 C385 1.343 . S
N417 C392 1.343 . S
C418 C419 1.384 . S
C418 C420 1.384 . S
C418 H446 0.931 . S
C419 C418 1.384 . S
C419 C422 1.382 . S
C420 C418 1.384 . S
C420 C421 1.381 . S
C420 H447 0.930 . S
C421 C420 1.381 . S
C421 C423 1.381 . S
C421 C424 1.487 . S
C422 C419 1.382 . S
C422 C423 1.387 . S
C422 H448 0.930 . S
C423 C421 1.381 . S
C423 C422 1.387 . S
C423 H449 0.931 . S
C424 C421 1.487 . S
C424 C431 1.399 . S
C424 N462 1.343 . S
C425 C426 1.384 . S
C425 C427 1.384 . S
C425 H450 0.931 . S
C426 C425 1.384 . S
C426 C429 1.382 . S
C427 C425 1.384 . S
C427 C428 1.381 . S
C427 H451 0.930 . S
C428 C427 1.381 . S
C428 C430 1.381 . S
C428 C431 1.487 . S
C429 C426 1.382 . S
C429 C430 1.387 . S
C429 H452 0.930 . S
C430 C428 1.381 . S
C430 C429 1.387 . S
C430 H453 0.931 . S
C431 C424 1.399 . S
C431 C428 1.487 . S
C431 N463 1.343 . S
C432 C433 1.384 . S
C432 C434 1.384 . S
C432 H454 0.931 . S
C433 C432 1.384 . S
C433 C436 1.382 . S
C434 C432 1.384 . S
C434 C435 1.381 . S
C434 H455 0.930 . S
C435 C434 1.381 . S
C435 C437 1.381 . S
C435 C438 1.487 . S
C436 C433 1.382 . S
C436 C437 1.387 . S
C436 H456 0.930 . S
C437 C435 1.381 . S
C437 C436 1.387 . S
C437 H457 0.931 . S
C438 C435 1.487 . S
C438 C445 1.399 . S
C438 N463 1.343 . S
C439 C440 1.384 . S
C439 C441 1.384 . S
C439 H458 0.931 . S
C440 C439 1.384 . S
C440 C443 1.382 . S
C441 C439 1.384 . S
C441 C442 1.381 . S
C441 H459 0.930 . S
C442 C441 1.381 . S
C442 C444 1.381 . S
C442 C445 1.487 . S
C443 C440 1.382 . S
C443 C444 1.387 . S
C443 H460 0.930 . S
C444 C442 1.381 . S
C444 C443 1.387 . S
C444 H461 0.931 . S
C445 C438 1.399 . S
C445 C442 1.487 . S
C445 N462 1.343 . S
H446 C418 0.931 . S
H447 C420 0.930 . S
H448 C422 0.930 . S
H449 C423 0.931 . S
H450 C425 0.931 . S
H451 C427 0.930 . S
H452 C429 0.930 . S
H453 C430 0.931 . S
H454 C432 0.931 . S
H455 C434 0.930 . S
H456 C436 0.930 . S
H457 C437 0.931 . S
H458 C439 0.931 . S
H459 C441 0.930 . S
H460 C443 0.930 . S
H461 C444 0.931 . S
N462 C424 1.343 . S
N462 C445 1.343 . S
N463 C431 1.343 . S
N463 C438 1.343 . S
C464 C465 1.384 . S
C464 C466 1.384 . S
C464 H492 0.931 . S
C465 C464 1.384 . S
C465 C468 1.382 . S
C466 C464 1.384 . S
C466 C467 1.381 . S
C466 H493 0.930 . S
C467 C466 1.381 . S
C467 C469 1.381 . S
C467 C470 1.487 . S
C468 C465 1.382 . S
C468 C469 1.387 . S
C468 H494 0.930 . S
C469 C467 1.381 . S
C469 C468 1.387 . S
C469 H495 0.931 . S
C470 C467 1.487 . S
C470 C477 1.399 . S
C470 N508 1.343 . S
C471 C472 1.384 . S
C471 C473 1.384 . S
C471 H496 0.931 . S
C472 C471 1.384 . S
C472 C475 1.382 . S
C473 C471 1.384 . S
C473 C474 1.381 . S
C473 H497 0.930 . S
C474 C473 1.381 . S
C474 C476 1.381 . S
C474 C477 1.487 . S
C475 C472 1.382 . S
C475 C476 1.387 . S
C475 H498 0.930 . S
C476 C474 1.381 . S
C476 C475 1.387 . S
C476 H499 0.931 . S
C477 C470 1.399 . S
C477 C474 1.487 . S
C477 N509 1.343 . S
C478 C479 1.384 . S
C478 C480 1.384 . S
C478 H500 0.931 . S
C479 C478 1.384 . S
C479 C482 1.382 . S
C480 C478 1.384 . S
C480 C481 1.381 . S
C480 H501 0.930 . S
C481 C480 1.381 . S
C481 C483 1.381 . S
C481 C484 1.487 . S
C482 C479 1.382 . S
C482 C483 1.387 . S
C482 H502 0.930 . S
C483 C481 1.381 . S
C483 C482 1.387 . S
C483 H503 0.931 . S
C484 C481 1.487 . S
C484 C491 1.399 . S
C484 N509 1.343 . S
C485 C486 1.384 . S
C485 C487 1.384 . S
C485 H504 0.931 . S
C486 C485 1.384 . S
C486 C489 1.382 . S
C487 C485 1.384 . S
C487 C488 1.381 . S
C487 H505 0.930 . S
C488 C487 1.381 . S
C488 C490 1.381 . S
C488 C491 1.487 . S
C489 C486 1.382 . S
C489 C490 1.387 . S
C489 H506 0.930 . S
C490 C488 1.381 . S
C490 C489 1.387 . S
C490 H507 0.931 . S
C491 C484 1.399 . S
C491 C488 1.487 . S
C491 N508 1.343 . S
H492 C464 0.931 . S
H493 C466 0.930 . S
H494 C468 0.930 . S
H495 C469 0.931 . S
H496 C471 0.931 . S
H497 C473 0.930 . S
H498 C475 0.930 . S
H499 C476 0.931 . S
H500 C478 0.931 . S
H501 C480 0.930 . S
H502 C482 0.930 . S
H503 C483 0.931 . S
H504 C485 0.931 . S
H505 C487 0.930 . S
H506 C489 0.930 . S
H507 C490 0.931 . S
N508 C470 1.343 . S
N508 C491 1.343 . S
N509 C477 1.343 . S
N509 C484 1.343 . S
C510 C511 1.384 . S
C510 C512 1.384 . S
C510 H538 0.931 . S
C511 C510 1.384 . S
C511 C514 1.382 . S
C512 C510 1.384 . S
C512 C513 1.381 . S
C512 H539 0.930 . S
C513 C512 1.381 . S
C513 C515 1.381 . S
C513 C516 1.487 . S
C514 C511 1.382 . S
C514 C515 1.387 . S
C514 H540 0.930 . S
C515 C513 1.381 . S
C515 C514 1.387 . S
C515 H541 0.931 . S
C516 C513 1.487 . S
C516 C523 1.399 . S
C516 N554 1.343 . S
C517 C518 1.384 . S
C517 C519 1.384 . S
C517 H542 0.931 . S
C518 C517 1.384 . S
C518 C521 1.382 . S
C519 C517 1.384 . S
C519 C520 1.381 . S
C519 H543 0.930 . S
C520 C519 1.381 . S
C520 C522 1.381 . S
C520 C523 1.487 . S
C521 C518 1.382 . S
C521 C522 1.387 . S
C521 H544 0.930 . S
C522 C520 1.381 . S
C522 C521 1.387 . S
C522 H545 0.931 . S
C523 C516 1.399 . S
C523 C520 1.487 . S
C523 N555 1.343 . S
C524 C525 1.384 . S
C524 C526 1.384 . S
C524 H546 0.931 . S
C525 C524 1.384 . S
C525 C528 1.382 . S
C526 C524 1.384 . S
C526 C527 1.381 . S
C526 H547 0.930 . S
C527 C526 1.381 . S
C527 C529 1.381 . S
C527 C530 1.487 . S
C528 C525 1.382 . S
C528 C529 1.387 . S
C528 H548 0.930 . S
C529 C527 1.381 . S
C529 C528 1.387 . S
C529 H549 0.931 . S
C530 C527 1.487 . S
C530 C537 1.399 . S
C530 N555 1.343 . S
C531 C532 1.384 . S
C531 C533 1.384 . S
C531 H550 0.931 . S
C532 C531 1.384 . S
C532 C535 1.382 . S
C533 C531 1.384 . S
C533 C534 1.381 . S
C533 H551 0.930 . S
C534 C533 1.381 . S
C534 C536 1.381 . S
C534 C537 1.487 . S
C535 C532 1.382 . S
C535 C536 1.387 . S
C535 H552 0.930 . S
C536 C534 1.381 . S
C536 C535 1.387 . S
C536 H553 0.931 . S
C537 C530 1.399 . S
C537 C534 1.487 . S
C537 N554 1.343 . S
H538 C510 0.931 . S
H539 C512 0.930 . S
H540 C514 0.930 . S
H541 C515 0.931 . S
H542 C517 0.931 . S
H543 C519 0.930 . S
H544 C521 0.930 . S
H545 C522 0.931 . S
H546 C524 0.931 . S
H547 C526 0.930 . S
H548 C528 0.930 . S
H549 C529 0.931 . S
H550 C531 0.931 . S
H551 C533 0.930 . S
H552 C535 0.930 . S
H553 C536 0.931 . S
N554 C516 1.343 . S
N554 C537 1.343 . S
N555 C523 1.343 . S
N555 C530 1.343 . S
C556 C557 1.384 . S
C556 C558 1.384 . S
C556 H584 0.931 . S
C557 C556 1.384 . S
C557 C560 1.382 . S
C558 C556 1.384 . S
C558 C559 1.381 . S
C558 H585 0.930 . S
C559 C558 1.381 . S
C559 C561 1.381 . S
C559 C562 1.487 . S
C560 C557 1.382 . S
C560 C561 1.387 . S
C560 H586 0.930 . S
C561 C559 1.381 . S
C561 C560 1.387 . S
C561 H587 0.931 . S
C562 C559 1.487 . S
C562 C569 1.399 . S
C562 N600 1.343 . S
C563 C564 1.384 . S
C563 C565 1.384 . S
C563 H588 0.931 . S
C564 C563 1.384 . S
C564 C567 1.382 . S
C565 C563 1.384 . S
C565 C566 1.381 . S
C565 H589 0.930 . S
C566 C565 1.381 . S
C566 C568 1.381 . S
C566 C569 1.487 . S
C567 C564 1.382 . S
C567 C568 1.387 . S
C567 H590 0.930 . S
C568 C566 1.381 . S
C568 C567 1.387 . S
C568 H591 0.931 . S
C569 C562 1.399 . S
C569 C566 1.487 . S
C569 N601 1.343 . S
C570 C571 1.384 . S
C570 C572 1.384 . S
C570 H592 0.931 . S
C571 C570 1.384 . S
C571 C574 1.382 . S
C572 C570 1.384 . S
C572 C573 1.381 . S
C572 H593 0.930 . S
C573 C572 1.381 . S
C573 C575 1.381 . S
C573 C576 1.487 . S
C574 C571 1.382 . S
C574 C575 1.387 . S
C574 H594 0.930 . S
C575 C573 1.381 . S
C575 C574 1.387 . S
C575 H595 0.931 . S
C576 C573 1.487 . S
C576 C583 1.399 . S
C576 N601 1.343 . S
C577 C578 1.384 . S
C577 C579 1.384 . S
C577 H596 0.931 . S
C578 C577 1.384 . S
C578 C581 1.382 . S
C579 C577 1.384 . S
C579 C580 1.381 . S
C579 H597 0.930 . S
C580 C579 1.381 . S
C580 C582 1.381 . S
C580 C583 1.487 . S
C581 C578 1.382 . S
C581 C582 1.387 . S
C581 H598 0.930 . S
C582 C580 1.381 . S
C582 C581 1.387 . S
C582 H599 0.931 . S
C583 C576 1.399 . S
C583 C580 1.487 . S
C583 N600 1.343 . S
H584 C556 0.931 . S
H585 C558 0.930 . S
H586 C560 0.930 . S
H587 C561 0.931 . S
H588 C563 0.931 . S
H589 C565 0.930 . S
H590 C567 0.930 . S
H591 C568 0.931 . S
H592 C570 0.931 . S
H593 C572 0.930 . S
H594 C574 0.930 . S
H595 C575 0.931 . S
H596 C577 0.931 . S
H597 C579 0.930 . S
H598 C581 0.930 . S
H599 C582 0.931 . S
N600 C562 1.343 . S
N600 C583 1.343 . S
N601 C569 1.343 . S
N601 C576 1.343 . S
C602 C603 1.384 . S
C602 C604 1.384 . S
C602 H630 0.931 . S
C603 C602 1.384 . S
C603 C606 1.382 . S
C604 C602 1.384 . S
C604 C605 1.381 . S
C604 H631 0.930 . S
C605 C604 1.381 . S
C605 C607 1.381 . S
C605 C608 1.487 . S
C606 C603 1.382 . S
C606 C607 1.387 . S
C606 H632 0.930 . S
C607 C605 1.381 . S
C607 C606 1.387 . S
C607 H633 0.931 . S
C608 C605 1.487 . S
C608 C615 1.399 . S
C608 N646 1.343 . S
C609 C610 1.384 . S
C609 C611 1.384 . S
C609 H634 0.931 . S
C610 C609 1.384 . S
C610 C613 1.382 . S
C611 C609 1.384 . S
C611 C612 1.381 . S
C611 H635 0.930 . S
C612 C611 1.381 . S
C612 C614 1.381 . S
C612 C615 1.487 . S
C613 C610 1.382 . S
C613 C614 1.387 . S
C613 H636 0.930 . S
C614 C612 1.381 . S
C614 C613 1.387 . S
C614 H637 0.931 . S
C615 C608 1.399 . S
C615 C612 1.487 . S
C615 N647 1.343 . S
C616 C617 1.384 . S
C616 C618 1.384 . S
C616 H638 0.931 . S
C617 C616 1.384 . S
C617 C620 1.382 . S
C618 C616 1.384 . S
C618 C619 1.381 . S
C618 H639 0.930 . S
C619 C618 1.381 . S
C619 C621 1.381 . S
C619 C622 1.487 . S
C620 C617 1.382 . S
C620 C621 1.387 . S
C620 H640 0.930 . S
C621 C619 1.381 . S
C621 C620 1.387 . S
C621 H641 0.931 . S
C622 C619 1.487 . S
C622 C629 1.399 . S
C622 N647 1.343 . S
C623 C624 1.384 . S
C623 C625 1.384 . S
C623 H642 0.931 . S
C624 C623 1.384 . S
C624 C627 1.382 . S
C625 C623 1.384 . S
C625 C626 1.381 . S
C625 H643 0.930 . S
C626 C625 1.381 . S
C626 C628 1.381 . S
C626 C629 1.487 . S
C627 C624 1.382 . S
C627 C628 1.387 . S
C627 H644 0.930 . S
C628 C626 1.381 . S
C628 C627 1.387 . S
C628 H645 0.931 . S
C629 C622 1.399 . S
C629 C626 1.487 . S
C629 N646 1.343 . S
H630 C602 0.931 . S
H631 C604 0.930 . S
H632 C606 0.930 . S
H633 C607 0.931 . S
H634 C609 0.931 . S
H635 C611 0.930 . S
H636 C613 0.930 . S
H637 C614 0.931 . S
H638 C616 0.931 . S
H639 C618 0.930 . S
H640 C620 0.930 . S
H641 C621 0.931 . S
H642 C623 0.931 . S
H643 C625 0.930 . S
H644 C627 0.930 . S
H645 C628 0.931 . S
N646 C608 1.343 . S
N646 C629 1.343 . S
N647 C615 1.343 . S
N647 C622 1.343 . S
C648 C649 1.384 . S
C648 C650 1.384 . S
C648 H676 0.931 . S
C649 C648 1.384 . S
C649 C652 1.382 1_655 S
C650 C648 1.384 . S
C650 C651 1.389 . S
C650 H677 0.930 . S
C651 C650 1.389 . S
C651 C653 1.377 1_655 S
C651 C654 1.477 1_655 S
C652 C649 1.382 1_455 S
C652 C653 1.387 . S
C652 H678 0.930 . S
C653 C651 1.377 1_455 S
C653 C652 1.387 . S
C653 H679 0.931 . S
C654 C651 1.477 1_455 S
C654 C661 1.399 1_455 S
C654 N692 1.351 . S
C655 C656 1.384 . S
C655 C657 1.384 . S
C655 H680 0.931 . S
C656 C655 1.384 . S
C656 C659 1.382 1_455 S
C657 C655 1.384 . S
C657 C658 1.384 . S
C657 H681 0.930 . S
C658 C657 1.384 . S
C658 C660 1.373 1_455 S
C658 C661 1.495 1_455 S
C659 C656 1.382 1_655 S
C659 C660 1.387 . S
C659 H682 0.930 . S
C660 C658 1.373 1_655 S
C660 C659 1.387 . S
C660 H683 0.931 . S
C661 C654 1.399 1_655 S
C661 C658 1.495 1_655 S
C661 N693 1.364 . S
C662 C663 1.384 . S
C662 C664 1.384 . S
C662 H684 0.931 . S
C663 C662 1.384 . S
C663 C666 1.382 1_455 S
C664 C662 1.384 . S
C664 C665 1.403 . S
C664 H685 0.930 . S
C665 C664 1.403 . S
C665 C667 1.370 1_455 S
C665 C668 1.477 1_455 S
C666 C663 1.382 1_655 S
C666 C667 1.387 . S
C666 H686 0.930 . S
C667 C665 1.370 1_655 S
C667 C666 1.387 . S
C667 H687 0.931 . S
C668 C665 1.477 1_655 S
C668 C675 1.399 1_655 S
C668 N693 1.319 . S
C669 C670 1.384 . S
C669 C671 1.384 . S
C669 H688 0.931 . S
C670 C669 1.384 . S
C670 C673 1.382 1_655 S
C671 C669 1.384 . S
C671 C672 1.381 . S
C671 H689 0.930 . S
C672 C671 1.381 . S
C672 C674 1.381 1_655 S
C672 C675 1.495 1_655 S
C673 C670 1.382 1_455 S
C673 C674 1.387 . S
C673 H690 0.930 . S
C674 C672 1.381 1_455 S
C674 C673 1.387 . S
C674 H691 0.931 . S
C675 C668 1.399 1_455 S
C675 C672 1.495 1_455 S
C675 N692 1.335 . S
H676 C648 0.931 . S
H677 C650 0.930 . S
H678 C652 0.930 . S
H679 C653 0.931 . S
H680 C655 0.931 . S
H681 C657 0.930 . S
H682 C659 0.930 . S
H683 C660 0.931 . S
H684 C662 0.931 . S
H685 C664 0.930 . S
H686 C666 0.930 . S
H687 C667 0.931 . S
H688 C669 0.931 . S
H689 C671 0.930 . S
H690 C673 0.930 . S
H691 C674 0.931 . S
N692 C654 1.351 . S
N692 C675 1.335 . S
N693 C661 1.364 . S
N693 C668 1.319 . S
C694 C695 1.384 . S
C694 C696 1.384 . S
C694 H722 0.931 . S
C695 C694 1.384 . S
C695 C698 1.382 . S
C696 C694 1.384 . S
C696 C697 1.381 . S
C696 H723 0.930 . S
C697 C696 1.381 . S
C697 C699 1.381 . S
C697 C700 1.487 . S
C698 C695 1.382 . S
C698 C699 1.387 . S
C698 H724 0.930 . S
C699 C697 1.381 . S
C699 C698 1.387 . S
C699 H725 0.931 . S
C700 C697 1.487 . S
C700 C707 1.399 . S
C700 N738 1.343 . S
C701 C702 1.384 . S
C701 C703 1.384 . S
C701 H726 0.931 . S
C702 C701 1.384 . S
C702 C705 1.382 . S
C703 C701 1.384 . S
C703 C704 1.381 . S
C703 H727 0.930 . S
C704 C703 1.381 . S
C704 C706 1.381 . S
C704 C707 1.487 . S
C705 C702 1.382 . S
C705 C706 1.387 . S
C705 H728 0.930 . S
C706 C704 1.381 . S
C706 C705 1.387 . S
C706 H729 0.931 . S
C707 C700 1.399 . S
C707 C704 1.487 . S
C707 N739 1.343 . S
C708 C709 1.384 . S
C708 C710 1.384 . S
C708 H730 0.931 . S
C709 C708 1.384 . S
C709 C712 1.382 . S
C710 C708 1.384 . S
C710 C711 1.381 . S
C710 H731 0.930 . S
C711 C710 1.381 . S
C711 C713 1.381 . S
C711 C714 1.487 . S
C712 C709 1.382 . S
C712 C713 1.387 . S
C712 H732 0.930 . S
C713 C711 1.381 . S
C713 C712 1.387 . S
C713 H733 0.931 . S
C714 C711 1.487 . S
C714 C721 1.399 . S
C714 N739 1.343 . S
C715 C716 1.384 . S
C715 C717 1.384 . S
C715 H734 0.931 . S
C716 C715 1.384 . S
C716 C719 1.382 . S
C717 C715 1.384 . S
C717 C718 1.381 . S
C717 H735 0.930 . S
C718 C717 1.381 . S
C718 C720 1.381 . S
C718 C721 1.487 . S
C719 C716 1.382 . S
C719 C720 1.387 . S
C719 H736 0.930 . S
C720 C718 1.381 . S
C720 C719 1.387 . S
C720 H737 0.931 . S
C721 C714 1.399 . S
C721 C718 1.487 . S
C721 N738 1.343 . S
H722 C694 0.931 . S
H723 C696 0.930 . S
H724 C698 0.930 . S
H725 C699 0.931 . S
H726 C701 0.931 . S
H727 C703 0.930 . S
H728 C705 0.930 . S
H729 C706 0.931 . S
H730 C708 0.931 . S
H731 C710 0.930 . S
H732 C712 0.930 . S
H733 C713 0.931 . S
H734 C715 0.931 . S
H735 C717 0.930 . S
H736 C719 0.930 . S
H737 C720 0.931 . S
N738 C700 1.343 . S
N738 C721 1.343 . S
N739 C707 1.343 . S
N739 C714 1.343 . S
C740 C741 1.384 1_545 S
C740 C742 1.384 . S
C740 H768 0.931 . S
C741 C740 1.384 1_565 S
C741 C744 1.382 . S
C742 C740 1.384 . S
C742 C743 1.381 1_545 S
C742 H769 0.930 . S
C743 C742 1.381 1_565 S
C743 C745 1.381 . S
C743 C746 1.487 . S
C744 C741 1.382 . S
C744 C745 1.387 . S
C744 H770 0.930 . S
C745 C743 1.381 . S
C745 C744 1.387 . S
C745 H771 0.931 . S
C746 C743 1.487 . S
C746 C753 1.399 1_565 S
C746 N784 1.343 . S
C747 C748 1.384 1_565 S
C747 C749 1.384 . S
C747 H772 0.931 . S
C748 C747 1.384 1_545 S
C748 C751 1.382 . S
C749 C747 1.384 . S
C749 C750 1.381 1_565 S
C749 H773 0.930 . S
C750 C749 1.381 1_545 S
C750 C752 1.381 . S
C750 C753 1.487 . S
C751 C748 1.382 . S
C751 C752 1.387 . S
C751 H774 0.930 . S
C752 C750 1.381 . S
C752 C751 1.387 . S
C752 H775 0.931 . S
C753 C746 1.399 1_545 S
C753 C750 1.487 . S
C753 N785 1.343 . S
C754 C755 1.384 1_565 S
C754 C756 1.384 . S
C754 H776 0.931 . S
C755 C754 1.384 1_545 S
C755 C758 1.382 . S
C756 C754 1.384 . S
C756 C757 1.381 1_565 S
C756 H777 0.930 . S
C757 C756 1.381 1_545 S
C757 C759 1.381 . S
C757 C760 1.487 . S
C758 C755 1.382 . S
C758 C759 1.387 . S
C758 H778 0.930 . S
C759 C757 1.381 . S
C759 C758 1.387 . S
C759 H779 0.931 . S
C760 C757 1.487 . S
C760 C767 1.399 1_545 S
C760 N785 1.343 . S
C761 C762 1.384 1_545 S
C761 C763 1.384 . S
C761 H780 0.931 . S
C762 C761 1.384 1_565 S
C762 C765 1.382 . S
C763 C761 1.384 . S
C763 C764 1.381 1_545 S
C763 H781 0.930 . S
C764 C763 1.381 1_565 S
C764 C766 1.381 . S
C764 C767 1.487 . S
C765 C762 1.382 . S
C765 C766 1.387 . S
C765 H782 0.930 . S
C766 C764 1.381 . S
C766 C765 1.387 . S
C766 H783 0.931 . S
C767 C760 1.399 1_565 S
C767 C764 1.487 . S
C767 N784 1.343 . S
H768 C740 0.931 . S
H769 C742 0.930 . S
H770 C744 0.930 . S
H771 C745 0.931 . S
H772 C747 0.931 . S
H773 C749 0.930 . S
H774 C751 0.930 . S
H775 C752 0.931 . S
H776 C754 0.931 . S
H777 C756 0.930 . S
H778 C758 0.930 . S
H779 C759 0.931 . S
H780 C761 0.931 . S
H781 C763 0.930 . S
H782 C765 0.930 . S
H783 C766 0.931 . S
N784 C746 1.343 . S
N784 C767 1.343 . S
N785 C753 1.343 . S
N785 C760 1.343 . S
C786 C787 1.384 . S
C786 C788 1.384 . S
C786 H814 0.931 . S
C787 C786 1.384 . S
C787 C790 1.382 1_545 S
C788 C786 1.384 . S
C788 C789 1.384 . S
C788 H815 0.930 . S
C789 C788 1.384 . S
C789 C791 1.374 1_545 S
C789 C792 1.495 1_545 S
C790 C787 1.382 1_565 S
C790 C791 1.387 . S
C790 H816 0.930 . S
C791 C789 1.374 1_565 S
C791 C790 1.387 . S
C791 H817 0.931 . S
C792 C789 1.495 1_565 S
C792 C799 1.399 1_565 S
C792 N830 1.364 . S
C793 C794 1.384 . S
C793 C795 1.384 . S
C793 H818 0.931 . S
C794 C793 1.384 . S
C794 C797 1.382 1_565 S
C795 C793 1.384 . S
C795 C796 1.390 . S
C795 H819 0.930 . S
C796 C795 1.390 . S
C796 C798 1.377 1_565 S
C796 C799 1.476 1_565 S
C797 C794 1.382 1_545 S
C797 C798 1.387 . S
C797 H820 0.930 . S
C798 C796 1.377 1_545 S
C798 C797 1.387 . S
C798 H821 0.931 . S
C799 C792 1.399 1_545 S
C799 C796 1.476 1_545 S
C799 N831 1.351 . S
C800 C801 1.384 . S
C800 C802 1.384 . S
C800 H822 0.931 . S
C801 C800 1.384 . S
C801 C804 1.382 1_565 S
C802 C800 1.384 . S
C802 C803 1.381 . S
C802 H823 0.930 . S
C803 C802 1.381 . S
C803 C805 1.382 1_565 S
C803 C806 1.495 1_565 S
C804 C801 1.382 1_545 S
C804 C805 1.387 . S
C804 H824 0.930 . S
C805 C803 1.382 1_545 S
C805 C804 1.387 . S
C805 H825 0.931 . S
C806 C803 1.495 1_545 S
C806 C813 1.399 1_545 S
C806 N831 1.335 . S
C807 C808 1.384 . S
C807 C809 1.384 . S
C807 H826 0.931 . S
C808 C807 1.384 . S
C808 C811 1.382 1_545 S
C809 C807 1.384 . S
C809 C810 1.404 . S
C809 H827 0.930 . S
C810 C809 1.404 . S
C810 C812 1.369 1_545 S
C810 C813 1.476 1_545 S
C811 C808 1.382 1_565 S
C811 C812 1.387 . S
C811 H828 0.930 . S
C812 C810 1.369 1_565 S
C812 C811 1.387 . S
C812 H829 0.931 . S
C813 C806 1.399 1_565 S
C813 C810 1.476 1_565 S
C813 N830 1.318 . S
H814 C786 0.931 . S
H815 C788 0.930 . S
H816 C790 0.930 . S
H817 C791 0.931 . S
H818 C793 0.931 . S
H819 C795 0.930 . S
H820 C797 0.930 . S
H821 C798 0.931 . S
H822 C800 0.931 . S
H823 C802 0.930 . S
H824 C804 0.930 . S
H825 C805 0.931 . S
H826 C807 0.931 . S
H827 C809 0.930 . S
H828 C811 0.930 . S
H829 C812 0.931 . S
N830 C792 1.364 . S
N830 C813 1.318 . S
N831 C799 1.351 . S
N831 C806 1.335 . S
C832 C833 1.384 . S
C832 C834 1.384 . S
C832 H860 0.931 . S
C833 C832 1.384 . S
C833 C836 1.382 1_655 S
C834 C832 1.384 . S
C834 C835 1.406 . S
C834 H861 0.930 . S
C835 C834 1.406 . S
C835 C837 1.369 1_655 S
C835 C838 1.476 1_655 S
C836 C833 1.382 1_455 S
C836 C837 1.387 . S
C836 H862 0.930 . S
C837 C835 1.369 1_455 S
C837 C836 1.387 . S
C837 H863 0.931 . S
C838 C835 1.476 1_455 S
C838 C845 1.399 1_455 S
C838 N876 1.319 . S
C839 C840 1.384 . S
C839 C841 1.384 . S
C839 H864 0.931 . S
C840 C839 1.384 . S
C840 C843 1.382 1_455 S
C841 C839 1.384 . S
C841 C842 1.382 . S
C841 H865 0.930 . S
C842 C841 1.382 . S
C842 C844 1.380 1_455 S
C842 C845 1.496 1_455 S
C843 C840 1.382 1_655 S
C843 C844 1.387 . S
C843 H866 0.930 . S
C844 C842 1.380 1_655 S
C844 C843 1.387 . S
C844 H867 0.931 . S
C845 C838 1.399 1_655 S
C845 C842 1.496 1_655 S
C845 N877 1.364 . S
C846 C847 1.384 . S
C846 C848 1.384 . S
C846 H868 0.931 . S
C847 C846 1.384 . S
C847 C850 1.382 1_455 S
C848 C846 1.384 . S
C848 C849 1.391 . S
C848 H869 0.930 . S
C849 C848 1.391 . S
C849 C851 1.376 1_455 S
C849 C852 1.476 1_455 S
C850 C847 1.382 1_655 S
C850 C851 1.387 . S
C850 H870 0.930 . S
C851 C849 1.376 1_655 S
C851 C850 1.387 . S
C851 H871 0.931 . S
C852 C849 1.476 1_655 S
C852 C859 1.399 1_655 S
C852 N877 1.319 . S
C853 C854 1.384 . S
C853 C855 1.384 . S
C853 H872 0.931 . S
C854 C853 1.384 . S
C854 C857 1.382 1_655 S
C855 C853 1.384 . S
C855 C856 1.385 . S
C855 H873 0.930 . S
C856 C855 1.385 . S
C856 C858 1.371 1_655 S
C856 C859 1.496 1_655 S
C857 C854 1.382 1_455 S
C857 C858 1.387 . S
C857 H874 0.930 . S
C858 C856 1.371 1_455 S
C858 C857 1.387 . S
C858 H875 0.931 . S
C859 C852 1.399 1_455 S
C859 C856 1.496 1_455 S
C859 N876 1.364 . S
H860 C832 0.931 . S
H861 C834 0.930 . S
H862 C836 0.930 . S
H863 C837 0.931 . S
H864 C839 0.931 . S
H865 C841 0.930 . S
H866 C843 0.930 . S
H867 C844 0.931 . S
H868 C846 0.931 . S
H869 C848 0.930 . S
H870 C850 0.930 . S
H871 C851 0.931 . S
H872 C853 0.931 . S
H873 C855 0.930 . S
H874 C857 0.930 . S
H875 C858 0.931 . S
N876 C838 1.319 . S
N876 C859 1.364 . S
N877 C845 1.364 . S
N877 C852 1.319 . S
C878 C879 1.384 . S
C878 C880 1.384 . S
C878 H906 0.931 . S
C879 C878 1.384 . S
C879 C882 1.382 . S
C880 C878 1.384 . S
C880 C881 1.381 . S
C880 H907 0.930 . S
C881 C880 1.381 . S
C881 C883 1.381 . S
C881 C884 1.487 . S
C882 C879 1.382 . S
C882 C883 1.387 . S
C882 H908 0.930 . S
C883 C881 1.381 . S
C883 C882 1.387 . S
C883 H909 0.931 . S
C884 C881 1.487 . S
C884 C891 1.399 . S
C884 N922 1.343 . S
C885 C886 1.384 . S
C885 C887 1.384 . S
C885 H910 0.931 . S
C886 C885 1.384 . S
C886 C889 1.382 . S
C887 C885 1.384 . S
C887 C888 1.381 . S
C887 H911 0.930 . S
C888 C887 1.381 . S
C888 C890 1.381 . S
C888 C891 1.487 . S
C889 C886 1.382 . S
C889 C890 1.387 . S
C889 H912 0.930 . S
C890 C888 1.381 . S
C890 C889 1.387 . S
C890 H913 0.931 . S
C891 C884 1.399 . S
C891 C888 1.487 . S
C891 N923 1.343 . S
C892 C893 1.384 . S
C892 C894 1.384 . S
C892 H914 0.931 . S
C893 C892 1.384 . S
C893 C896 1.382 . S
C894 C892 1.384 . S
C894 C895 1.381 . S
C894 H915 0.930 . S
C895 C894 1.381 . S
C895 C897 1.381 . S
C895 C898 1.487 . S
C896 C893 1.382 . S
C896 C897 1.387 . S
C896 H916 0.930 . S
C897 C895 1.381 . S
C897 C896 1.387 . S
C897 H917 0.931 . S
C898 C895 1.487 . S
C898 C905 1.399 . S
C898 N923 1.343 . S
C899 C900 1.384 . S
C899 C901 1.384 . S
C899 H918 0.931 . S
C900 C899 1.384 . S
C900 C903 1.382 . S
C901 C899 1.384 . S
C901 C902 1.381 . S
C901 H919 0.930 . S
C902 C901 1.381 . S
C902 C904 1.381 . S
C902 C905 1.487 . S
C903 C900 1.382 . S
C903 C904 1.387 . S
C903 H920 0.930 . S
C904 C902 1.381 . S
C904 C903 1.387 . S
C904 H921 0.931 . S
C905 C898 1.399 . S
C905 C902 1.487 . S
C905 N922 1.343 . S
H906 C878 0.931 . S
H907 C880 0.930 . S
H908 C882 0.930 . S
H909 C883 0.931 . S
H910 C885 0.931 . S
H911 C887 0.930 . S
H912 C889 0.930 . S
H913 C890 0.931 . S
H914 C892 0.931 . S
H915 C894 0.930 . S
H916 C896 0.930 . S
H917 C897 0.931 . S
H918 C899 0.931 . S
H919 C901 0.930 . S
H920 C903 0.930 . S
H921 C904 0.931 . S
N922 C884 1.343 . S
N922 C905 1.343 . S
N923 C891 1.343 . S
N923 C898 1.343 . S
C924 C925 1.384 . S
C924 C926 1.384 . S
C924 H952 0.931 . S
C925 C924 1.384 . S
C925 C928 1.382 . S
C926 C924 1.384 . S
C926 C927 1.381 . S
C926 H953 0.930 . S
C927 C926 1.381 . S
C927 C929 1.381 . S
C927 C930 1.487 . S
C928 C925 1.382 . S
C928 C929 1.387 . S
C928 H954 0.930 . S
C929 C927 1.381 . S
C929 C928 1.387 . S
C929 H955 0.931 . S
C930 C927 1.487 . S
C930 C937 1.399 . S
C930 N968 1.343 . S
C931 C932 1.384 . S
C931 C933 1.384 . S
C931 H956 0.931 . S
C932 C931 1.384 . S
C932 C935 1.382 . S
C933 C931 1.384 . S
C933 C934 1.381 . S
C933 H957 0.930 . S
C934 C933 1.381 . S
C934 C936 1.381 . S
C934 C937 1.487 . S
C935 C932 1.382 . S
C935 C936 1.387 . S
C935 H958 0.930 . S
C936 C934 1.381 . S
C936 C935 1.387 . S
C936 H959 0.931 . S
C937 C930 1.399 . S
C937 C934 1.487 . S
C937 N969 1.343 . S
C938 C939 1.384 . S
C938 C940 1.384 . S
C938 H960 0.931 . S
C939 C938 1.384 . S
C939 C942 1.382 . S
C940 C938 1.384 . S
C940 C941 1.381 . S
C940 H961 0.930 . S
C941 C940 1.381 . S
C941 C943 1.381 . S
C941 C944 1.487 . S
C942 C939 1.382 . S
C942 C943 1.387 . S
C942 H962 0.930 . S
C943 C941 1.381 . S
C943 C942 1.387 . S
C943 H963 0.931 . S
C944 C941 1.487 . S
C944 C951 1.399 . S
C944 N969 1.343 . S
C945 C946 1.384 . S
C945 C947 1.384 . S
C945 H964 0.931 . S
C946 C945 1.384 . S
C946 C949 1.382 . S
C947 C945 1.384 . S
C947 C948 1.381 . S
C947 H965 0.930 . S
C948 C947 1.381 . S
C948 C950 1.381 . S
C948 C951 1.487 . S
C949 C946 1.382 . S
C949 C950 1.387 . S
C949 H966 0.930 . S
C950 C948 1.381 . S
C950 C949 1.387 . S
C950 H967 0.931 . S
C951 C944 1.399 . S
C951 C948 1.487 . S
C951 N968 1.343 . S
H952 C924 0.931 . S
H953 C926 0.930 . S
H954 C928 0.930 . S
H955 C929 0.931 . S
H956 C931 0.931 . S
H957 C933 0.930 . S
H958 C935 0.930 . S
H959 C936 0.931 . S
H960 C938 0.931 . S
H961 C940 0.930 . S
H962 C942 0.930 . S
H963 C943 0.931 . S
H964 C945 0.931 . S
H965 C947 0.930 . S
H966 C949 0.930 . S
H967 C950 0.931 . S
N968 C930 1.343 . S
N968 C951 1.343 . S
N969 C937 1.343 . S
N969 C944 1.343 . S
C970 C971 1.384 . S
C970 C972 1.384 . S
C970 H998 0.931 . S
C971 C970 1.384 . S
C971 C974 1.382 . S
C972 C970 1.384 . S
C972 C973 1.381 . S
C972 H999 0.930 . S
C973 C972 1.381 . S
C973 C975 1.381 . S
C973 C976 1.487 . S
C974 C971 1.382 . S
C974 C975 1.387 . S
C974 H1000 0.930 . S
C975 C973 1.381 . S
C975 C974 1.387 . S
C975 H1001 0.931 . S
C976 C973 1.487 . S
C976 C983 1.399 . S
C976 N1014 1.343 . S
C977 C978 1.384 . S
C977 C979 1.384 . S
C977 H1002 0.931 . S
C978 C977 1.384 . S
C978 C981 1.382 . S
C979 C977 1.384 . S
C979 C980 1.381 . S
C979 H1003 0.930 . S
C980 C979 1.381 . S
C980 C982 1.381 . S
C980 C983 1.487 . S
C981 C978 1.382 . S
C981 C982 1.387 . S
C981 H1004 0.930 . S
C982 C980 1.381 . S
C982 C981 1.387 . S
C982 H1005 0.931 . S
C983 C976 1.399 . S
C983 C980 1.487 . S
C983 N1015 1.343 . S
C984 C985 1.384 . S
C984 C986 1.384 . S
C984 H1006 0.931 . S
C985 C984 1.384 . S
C985 C988 1.382 . S
C986 C984 1.384 . S
C986 C987 1.381 . S
C986 H1007 0.930 . S
C987 C986 1.381 . S
C987 C989 1.381 . S
C987 C990 1.487 . S
C988 C985 1.382 . S
C988 C989 1.387 . S
C988 H1008 0.930 . S
C989 C987 1.381 . S
C989 C988 1.387 . S
C989 H1009 0.931 . S
C990 C987 1.487 . S
C990 C997 1.399 . S
C990 N1015 1.343 . S
C991 C992 1.384 . S
C991 C993 1.384 . S
C991 H1010 0.931 . S
C992 C991 1.384 . S
C992 C995 1.382 . S
C993 C991 1.384 . S
C993 C994 1.381 . S
C993 H1011 0.930 . S
C994 C993 1.381 . S
C994 C996 1.381 . S
C994 C997 1.487 . S
C995 C992 1.382 . S
C995 C996 1.387 . S
C995 H1012 0.930 . S
C996 C994 1.381 . S
C996 C995 1.387 . S
C996 H1013 0.931 . S
C997 C990 1.399 . S
C997 C994 1.487 . S
C997 N1014 1.343 . S
H998 C970 0.931 . S
H999 C972 0.930 . S
H1000 C974 0.930 . S
H1001 C975 0.931 . S
H1002 C977 0.931 . S
H1003 C979 0.930 . S
H1004 C981 0.930 . S
H1005 C982 0.931 . S
H1006 C984 0.931 . S
H1007 C986 0.930 . S
H1008 C988 0.930 . S
H1009 C989 0.931 . S
H1010 C991 0.931 . S
H1011 C993 0.930 . S
H1012 C995 0.930 . S
H1013 C996 0.931 . S
N1014 C976 1.343 . S
N1014 C997 1.343 . S
N1015 C983 1.343 . S
N1015 C990 1.343 . S
C1016 C1017 1.384 . S
C1016 C1018 1.384 . S
C1016 H1044 0.931 . S
C1017 C1016 1.384 . S
C1017 C1020 1.382 . S
C1018 C1016 1.384 . S
C1018 C1019 1.381 . S
C1018 H1045 0.930 . S
C1019 C1018 1.381 . S
C1019 C1021 1.381 . S
C1019 C1022 1.487 . S
C1020 C1017 1.382 . S
C1020 C1021 1.387 . S
C1020 H1046 0.930 . S
C1021 C1019 1.381 . S
C1021 C1020 1.387 . S
C1021 H1047 0.931 . S
C1022 C1019 1.487 . S
C1022 C1029 1.399 . S
C1022 N1060 1.343 . S
C1023 C1024 1.384 . S
C1023 C1025 1.384 . S
C1023 H1048 0.931 . S
C1024 C1023 1.384 . S
C1024 C1027 1.382 . S
C1025 C1023 1.384 . S
C1025 C1026 1.381 . S
C1025 H1049 0.930 . S
C1026 C1025 1.381 . S
C1026 C1028 1.381 . S
C1026 C1029 1.487 . S
C1027 C1024 1.382 . S
C1027 C1028 1.387 . S
C1027 H1050 0.930 . S
C1028 C1026 1.381 . S
C1028 C1027 1.387 . S
C1028 H1051 0.931 . S
C1029 C1022 1.399 . S
C1029 C1026 1.487 . S
C1029 N1061 1.343 . S
C1030 C1031 1.384 . S
C1030 C1032 1.384 . S
C1030 H1052 0.931 . S
C1031 C1030 1.384 . S
C1031 C1034 1.382 . S
C1032 C1030 1.384 . S
C1032 C1033 1.381 . S
C1032 H1053 0.930 . S
C1033 C1032 1.381 . S
C1033 C1035 1.381 . S
C1033 C1036 1.487 . S
C1034 C1031 1.382 . S
C1034 C1035 1.387 . S
C1034 H1054 0.930 . S
C1035 C1033 1.381 . S
C1035 C1034 1.387 . S
C1035 H1055 0.931 . S
C1036 C1033 1.487 . S
C1036 C1043 1.399 . S
C1036 N1061 1.343 . S
C1037 C1038 1.384 . S
C1037 C1039 1.384 . S
C1037 H1056 0.931 . S
C1038 C1037 1.384 . S
C1038 C1041 1.382 . S
C1039 C1037 1.384 . S
C1039 C1040 1.381 . S
C1039 H1057 0.930 . S
C1040 C1039 1.381 . S
C1040 C1042 1.381 . S
C1040 C1043 1.487 . S
C1041 C1038 1.382 . S
C1041 C1042 1.387 . S
C1041 H1058 0.930 . S
C1042 C1040 1.381 . S
C1042 C1041 1.387 . S
C1042 H1059 0.931 . S
C1043 C1036 1.399 . S
C1043 C1040 1.487 . S
C1043 N1060 1.343 . S
H1044 C1016 0.931 . S
H1045 C1018 0.930 . S
H1046 C1020 0.930 . S
H1047 C1021 0.931 . S
H1048 C1023 0.931 . S
H1049 C1025 0.930 . S
H1050 C1027 0.930 . S
H1051 C1028 0.931 . S
H1052 C1030 0.931 . S
H1053 C1032 0.930 . S
H1054 C1034 0.930 . S
H1055 C1035 0.931 . S
H1056 C1037 0.931 . S
H1057 C1039 0.930 . S
H1058 C1041 0.930 . S
H1059 C1042 0.931 . S
N1060 C1022 1.343 . S
N1060 C1043 1.343 . S
N1061 C1029 1.343 . S
N1061 C1036 1.343 . S
H1062 C1068 0.930 . S
H1063 C1071 0.930 . S
H1064 C1072 0.930 . S
H1065 C1073 0.930 . S
H1066 C1076 0.930 . S
H1067 C1077 0.930 . S
C1068 H1062 0.930 . S
C1068 C1069 1.345 1_655 S
C1068 C1070 1.415 . S
C1069 C1068 1.345 1_455 S
C1069 C1071 1.426 . S
C1070 C1068 1.415 . S
C1070 C1075 1.425 1_655 S
C1070 C1077 1.409 . S
C1071 H1063 0.930 . S
C1071 C1069 1.426 . S
C1071 C1072 1.362 . S
C1072 H1064 0.930 . S
C1072 C1071 1.362 . S
C1072 C1075 1.409 . S
C1073 H1065 0.930 . S
C1073 C1074 1.355 1_455 S
C1073 C1075 1.415 . S
C1074 C1073 1.355 1_655 S
C1074 C1076 1.419 . S
C1075 C1070 1.425 1_455 S
C1075 C1072 1.409 . S
C1075 C1073 1.415 . S
C1076 H1066 0.930 . S
C1076 C1074 1.419 . S
C1076 C1077 1.362 . S
C1077 H1067 0.930 . S
C1077 C1070 1.409 . S
C1077 C1076 1.362 . S
H1078 C1084 0.930 . S
H1079 C1087 0.930 . S
H1080 C1088 0.930 . S
H1081 C1089 0.930 . S
H1082 C1092 0.930 . S
H1083 C1093 0.930 . S
C1084 H1078 0.930 . S
C1084 C1085 1.355 . S
C1084 C1086 1.415 . S
C1085 C1084 1.355 . S
C1085 C1087 1.419 . S
C1086 C1084 1.415 . S
C1086 C1091 1.425 . S
C1086 C1093 1.409 . S
C1087 H1079 0.930 . S
C1087 C1085 1.419 . S
C1087 C1088 1.362 . S
C1088 H1080 0.930 . S
C1088 C1087 1.362 . S
C1088 C1091 1.409 . S
C1089 H1081 0.930 . S
C1089 C1090 1.355 . S
C1089 C1091 1.415 . S
C1090 C1089 1.355 . S
C1090 C1092 1.419 . S
C1091 C1086 1.425 . S
C1091 C1088 1.409 . S
C1091 C1089 1.415 . S
C1092 H1082 0.930 . S
C1092 C1090 1.419 . S
C1092 C1093 1.362 . S
C1093 H1083 0.930 . S
C1093 C1086 1.409 . S
C1093 C1092 1.362 . S
H1094 C1100 0.930 . S
H1095 C1103 0.930 . S
H1096 C1104 0.930 . S
H1097 C1105 0.930 . S
H1098 C1108 0.930 . S
H1099 C1109 0.930 . S
C1100 H1094 0.930 . S
C1100 C1101 1.355 . S
C1100 C1102 1.415 . S
C1101 C1100 1.355 . S
C1101 C1103 1.419 . S
C1102 C1100 1.415 . S
C1102 C1107 1.425 . S
C1102 C1109 1.409 . S
C1103 H1095 0.930 . S
C1103 C1101 1.419 . S
C1103 C1104 1.362 . S
C1104 H1096 0.930 . S
C1104 C1103 1.362 . S
C1104 C1107 1.409 . S
C1105 H1097 0.930 . S
C1105 C1106 1.355 . S
C1105 C1107 1.415 . S
C1106 C1105 1.355 . S
C1106 C1108 1.419 . S
C1107 C1102 1.425 . S
C1107 C1104 1.409 . S
C1107 C1105 1.415 . S
C1108 H1098 0.930 . S
C1108 C1106 1.419 . S
C1108 C1109 1.362 . S
C1109 H1099 0.930 . S
C1109 C1102 1.409 . S
C1109 C1108 1.362 . S
H1110 C1116 0.930 . S
H1111 C1119 0.930 . S
H1112 C1120 0.930 . S
H1113 C1121 0.930 . S
H1114 C1124 0.930 . S
H1115 C1125 0.930 . S
C1116 H1110 0.930 . S
C1116 C1117 1.355 1_545 S
C1116 C1118 1.415 . S
C1117 C1116 1.355 1_565 S
C1117 C1119 1.419 . S
C1118 C1116 1.415 . S
C1118 C1123 1.425 1_545 S
C1118 C1125 1.409 . S
C1119 H1111 0.930 . S
C1119 C1117 1.419 . S
C1119 C1120 1.362 . S
C1120 H1112 0.930 . S
C1120 C1119 1.362 . S
C1120 C1123 1.409 . S
C1121 H1113 0.930 . S
C1121 C1122 1.355 . S
C1121 C1123 1.415 . S
C1122 C1121 1.355 . S
C1122 C1124 1.419 1_565 S
C1123 C1118 1.425 1_565 S
C1123 C1120 1.409 . S
C1123 C1121 1.415 . S
C1124 H1114 0.930 . S
C1124 C1122 1.419 1_545 S
C1124 C1125 1.362 . S
C1125 H1115 0.930 . S
C1125 C1118 1.409 . S
C1125 C1124 1.362 . S
H1126 C1132 0.930 . S
H1127 C1135 0.930 . S
H1128 C1136 0.930 . S
H1129 C1137 0.930 . S
H1130 C1140 0.930 . S
H1131 C1141 0.930 . S
C1132 H1126 0.930 . S
C1132 C1133 1.359 . S
C1132 C1134 1.415 . S
C1133 C1132 1.359 . S
C1133 C1135 1.396 1_455 S
C1134 C1132 1.415 . S
C1134 C1139 1.425 1_455 S
C1134 C1141 1.409 . S
C1135 H1127 0.930 . S
C1135 C1133 1.396 1_655 S
C1135 C1136 1.362 . S
C1136 H1128 0.930 . S
C1136 C1135 1.362 . S
C1136 C1139 1.409 . S
C1137 H1129 0.930 . S
C1137 C1138 1.355 1_655 S
C1137 C1139 1.415 . S
C1138 C1137 1.355 1_455 S
C1138 C1140 1.419 . S
C1139 C1134 1.425 1_655 S
C1139 C1136 1.409 . S
C1139 C1137 1.415 . S
C1140 H1130 0.930 . S
C1140 C1138 1.419 . S
C1140 C1141 1.362 . S
C1141 H1131 0.930 . S
C1141 C1134 1.409 . S
C1141 C1140 1.362 . S
H1142 C1148 0.930 . S
H1143 C1151 0.930 . S
H1144 C1152 0.930 . S
H1145 C1153 0.930 . S
H1146 C1156 0.930 . S
H1147 C1157 0.930 . S
C1148 H1142 0.930 . S
C1148 C1149 1.355 . S
C1148 C1150 1.415 . S
C1149 C1148 1.355 . S
C1149 C1151 1.419 . S
C1150 C1148 1.415 . S
C1150 C1155 1.425 . S
C1150 C1157 1.409 . S
C1151 H1143 0.930 . S
C1151 C1149 1.419 . S
C1151 C1152 1.362 . S
C1152 H1144 0.930 . S
C1152 C1151 1.362 . S
C1152 C1155 1.409 . S
C1153 H1145 0.930 . S
C1153 C1154 1.355 . S
C1153 C1155 1.415 . S
C1154 C1153 1.355 . S
C1154 C1156 1.419 . S
C1155 C1150 1.425 . S
C1155 C1152 1.409 . S
C1155 C1153 1.415 . S
C1156 H1146 0.930 . S
C1156 C1154 1.419 . S
C1156 C1157 1.362 . S
C1157 H1147 0.930 . S
C1157 C1150 1.409 . S
C1157 C1156 1.362 . S
H1158 C1164 0.930 . S
H1159 C1167 0.930 . S
H1160 C1168 0.930 . S
H1161 C1169 0.930 . S
H1162 C1172 0.930 . S
H1163 C1173 0.930 . S
C1164 H1158 0.930 . S
C1164 C1165 1.355 1_655 S
C1164 C1166 1.415 . S
C1165 C1164 1.355 1_455 S
C1165 C1167 1.419 . S
C1166 C1164 1.415 . S
C1166 C1171 1.425 1_655 S
C1166 C1173 1.409 . S
C1167 H1159 0.930 . S
C1167 C1165 1.419 . S
C1167 C1168 1.362 . S
C1168 H1160 0.930 . S
C1168 C1167 1.362 . S
C1168 C1171 1.409 . S
C1169 H1161 0.930 . S
C1169 C1170 1.355 . S
C1169 C1171 1.415 . S
C1170 C1169 1.355 . S
C1170 C1172 1.419 1_455 S
C1171 C1166 1.425 1_455 S
C1171 C1168 1.409 . S
C1171 C1169 1.415 . S
C1172 H1162 0.930 . S
C1172 C1170 1.419 1_655 S
C1172 C1173 1.362 . S
C1173 H1163 0.930 . S
C1173 C1166 1.409 . S
C1173 C1172 1.362 . S
H1174 C1180 0.930 . S
H1175 C1183 0.930 . S
H1176 C1184 0.930 . S
H1177 C1185 0.930 . S
H1178 C1188 0.930 . S
H1179 C1189 0.930 . S
C1180 H1174 0.930 . S
C1180 C1181 1.355 . S
C1180 C1182 1.415 . S
C1181 C1180 1.355 . S
C1181 C1183 1.419 . S
C1182 C1180 1.415 . S
C1182 C1187 1.425 . S
C1182 C1189 1.409 . S
C1183 H1175 0.930 . S
C1183 C1181 1.419 . S
C1183 C1184 1.362 . S
C1184 H1176 0.930 . S
C1184 C1183 1.362 . S
C1184 C1187 1.409 . S
C1185 H1177 0.930 . S
C1185 C1186 1.355 . S
C1185 C1187 1.415 . S
C1186 C1185 1.355 . S
C1186 C1188 1.419 . S
C1187 C1182 1.425 . S
C1187 C1184 1.409 . S
C1187 C1185 1.415 . S
C1188 H1178 0.930 . S
C1188 C1186 1.419 . S
C1188 C1189 1.362 . S
C1189 H1179 0.930 . S
C1189 C1182 1.409 . S
C1189 C1188 1.362 . S
H1190 C1196 0.930 . S
H1191 C1199 0.930 . S
H1192 C1200 0.930 . S
H1193 C1201 0.930 . S
H1194 C1204 0.930 . S
H1195 C1205 0.930 . S
C1196 H1190 0.930 . S
C1196 C1197 1.355 1_545 S
C1196 C1198 1.415 . S
C1197 C1196 1.355 1_565 S
C1197 C1199 1.419 . S
C1198 C1196 1.415 . S
C1198 C1203 1.425 1_545 S
C1198 C1205 1.409 . S
C1199 H1191 0.930 . S
C1199 C1197 1.419 . S
C1199 C1200 1.362 . S
C1200 H1192 0.930 . S
C1200 C1199 1.362 . S
C1200 C1203 1.409 . S
C1201 H1193 0.930 . S
C1201 C1202 1.355 . S
C1201 C1203 1.415 . S
C1202 C1201 1.355 . S
C1202 C1204 1.419 1_565 S
C1203 C1198 1.425 1_565 S
C1203 C1200 1.409 . S
C1203 C1201 1.415 . S
C1204 H1194 0.930 . S
C1204 C1202 1.419 1_545 S
C1204 C1205 1.362 . S
C1205 H1195 0.930 . S
C1205 C1198 1.409 . S
C1205 C1204 1.362 . S
H1206 C1212 0.930 . S
H1207 C1215 0.930 . S
H1208 C1216 0.930 . S
H1209 C1217 0.938 . S
H1210 C1220 0.930 . S
H1211 C1221 0.930 . S
C1212 H1206 0.930 . S
C1212 C1213 1.355 . S
C1212 C1214 1.415 . S
C1213 C1212 1.355 . S
C1213 C1215 1.419 1_545 S
C1214 C1212 1.415 . S
C1214 C1219 1.442 . S
C1214 C1221 1.409 . S
C1215 H1207 0.930 . S
C1215 C1213 1.419 1_565 S
C1215 C1216 1.362 . S
C1216 H1208 0.930 . S
C1216 C1215 1.362 . S
C1216 C1219 1.384 1_565 S
C1217 H1209 0.938 . S
C1217 C1218 1.341 1_565 S
C1217 C1219 1.431 1_565 S
C1218 C1217 1.341 1_545 S
C1218 C1220 1.419 . S
C1219 C1214 1.442 . S
C1219 C1216 1.384 1_545 S
C1219 C1217 1.431 1_545 S
C1220 H1210 0.930 . S
C1220 C1218 1.419 . S
C1220 C1221 1.362 . S
C1221 H1211 0.930 . S
C1221 C1214 1.409 . S
C1221 C1220 1.362 . S
H1222 C1228 0.930 . S
H1223 C1231 0.930 . S
H1224 C1232 0.930 . S
H1225 C1233 0.930 . S
H1226 C1236 0.930 . S
H1227 C1237 0.930 . S
C1228 H1222 0.930 . S
C1228 C1229 1.355 1_455 S
C1228 C1230 1.415 . S
C1229 C1228 1.355 1_655 S
C1229 C1231 1.419 . S
C1230 C1228 1.415 . S
C1230 C1235 1.425 1_455 S
C1230 C1237 1.409 . S
C1231 H1223 0.930 . S
C1231 C1229 1.419 . S
C1231 C1232 1.362 . S
C1232 H1224 0.930 . S
C1232 C1231 1.362 . S
C1232 C1235 1.409 . S
C1233 H1225 0.930 . S
C1233 C1234 1.355 . S
C1233 C1235 1.415 . S
C1234 C1233 1.355 . S
C1234 C1236 1.419 1_655 S
C1235 C1230 1.425 1_655 S
C1235 C1232 1.409 . S
C1235 C1233 1.415 . S
C1236 H1226 0.930 . S
C1236 C1234 1.419 1_455 S
C1236 C1237 1.362 . S
C1237 H1227 0.930 . S
C1237 C1230 1.409 . S
C1237 C1236 1.362 . S
H1238 C1244 0.930 . S
H1239 C1247 0.930 . S
H1240 C1248 0.930 . S
H1241 C1249 0.930 . S
H1242 C1252 0.930 . S
H1243 C1253 0.930 . S
C1244 H1238 0.930 . S
C1244 C1245 1.355 . S
C1244 C1246 1.415 . S
C1245 C1244 1.355 . S
C1245 C1247 1.419 . S
C1246 C1244 1.415 . S
C1246 C1251 1.425 . S
C1246 C1253 1.409 . S
C1247 H1239 0.930 . S
C1247 C1245 1.419 . S
C1247 C1248 1.362 . S
C1248 H1240 0.930 . S
C1248 C1247 1.362 . S
C1248 C1251 1.409 . S
C1249 H1241 0.930 . S
C1249 C1250 1.355 . S
C1249 C1251 1.415 . S
C1250 C1249 1.355 . S
C1250 C1252 1.419 . S
C1251 C1246 1.425 . S
C1251 C1248 1.409 . S
C1251 C1249 1.415 . S
C1252 H1242 0.930 . S
C1252 C1250 1.419 . S
C1252 C1253 1.362 . S
C1253 H1243 0.930 . S
C1253 C1246 1.409 . S
C1253 C1252 1.362 . S
H1254 C1260 0.930 . S
H1255 C1263 0.930 . S
H1256 C1264 0.930 . S
H1257 C1265 0.930 . S
H1258 C1268 0.930 . S
H1259 C1269 0.930 . S
C1260 H1254 0.930 . S
C1260 C1261 1.355 . S
C1260 C1262 1.415 . S
C1261 C1260 1.355 . S
C1261 C1263 1.419 . S
C1262 C1260 1.415 . S
C1262 C1267 1.425 . S
C1262 C1269 1.409 . S
C1263 H1255 0.930 . S
C1263 C1261 1.419 . S
C1263 C1264 1.362 . S
C1264 H1256 0.930 . S
C1264 C1263 1.362 . S
C1264 C1267 1.409 . S
C1265 H1257 0.930 . S
C1265 C1266 1.355 . S
C1265 C1267 1.415 . S
C1266 C1265 1.355 . S
C1266 C1268 1.419 . S
C1267 C1262 1.425 . S
C1267 C1264 1.409 . S
C1267 C1265 1.415 . S
C1268 H1258 0.930 . S
C1268 C1266 1.419 . S
C1268 C1269 1.362 . S
C1269 H1259 0.930 . S
C1269 C1262 1.409 . S
C1269 C1268 1.362 . S
H1270 C1276 0.930 . S
H1271 C1279 0.930 . S
H1272 C1280 0.930 . S
H1273 C1281 0.930 . S
H1274 C1284 0.930 . S
H1275 C1285 0.930 . S
C1276 H1270 0.930 . S
C1276 C1277 1.355 . S
C1276 C1278 1.415 . S
C1277 C1276 1.355 . S
C1277 C1279 1.419 . S
C1278 C1276 1.415 . S
C1278 C1283 1.425 . S
C1278 C1285 1.409 . S
C1279 H1271 0.930 . S
C1279 C1277 1.419 . S
C1279 C1280 1.362 . S
C1280 H1272 0.930 . S
C1280 C1279 1.362 . S
C1280 C1283 1.409 . S
C1281 H1273 0.930 . S
C1281 C1282 1.355 . S
C1281 C1283 1.415 . S
C1282 C1281 1.355 . S
C1282 C1284 1.419 . S
C1283 C1278 1.425 . S
C1283 C1280 1.409 . S
C1283 C1281 1.415 . S
C1284 H1274 0.930 . S
C1284 C1282 1.419 . S
C1284 C1285 1.362 . S
C1285 H1275 0.930 . S
C1285 C1278 1.409 . S
C1285 C1284 1.362 . S
H1286 C1292 0.930 . S
H1287 C1295 0.930 . S
H1288 C1296 0.930 . S
H1289 C1297 0.930 . S
H1290 C1300 0.930 . S
H1291 C1301 0.930 . S
C1292 H1286 0.930 . S
C1292 C1293 1.355 . S
C1292 C1294 1.415 . S
C1293 C1292 1.355 . S
C1293 C1295 1.419 . S
C1294 C1292 1.415 . S
C1294 C1299 1.425 . S
C1294 C1301 1.409 . S
C1295 H1287 0.930 . S
C1295 C1293 1.419 . S
C1295 C1296 1.362 . S
C1296 H1288 0.930 . S
C1296 C1295 1.362 . S
C1296 C1299 1.409 . S
C1297 H1289 0.930 . S
C1297 C1298 1.355 . S
C1297 C1299 1.415 . S
C1298 C1297 1.355 . S
C1298 C1300 1.419 . S
C1299 C1294 1.425 . S
C1299 C1296 1.409 . S
C1299 C1297 1.415 . S
C1300 H1290 0.930 . S
C1300 C1298 1.419 . S
C1300 C1301 1.362 . S
C1301 H1291 0.930 . S
C1301 C1294 1.409 . S
C1301 C1300 1.362 . S
H1302 C1308 0.930 . S
H1303 C1311 0.930 . S
H1304 C1312 0.930 . S
H1305 C1313 0.930 . S
H1306 C1316 0.930 . S
H1307 C1317 0.930 . S
C1308 H1302 0.930 . S
C1308 C1309 1.355 . S
C1308 C1310 1.415 . S
C1309 C1308 1.355 . S
C1309 C1311 1.419 . S
C1310 C1308 1.415 . S
C1310 C1315 1.425 . S
C1310 C1317 1.409 . S
C1311 H1303 0.930 . S
C1311 C1309 1.419 . S
C1311 C1312 1.362 . S
C1312 H1304 0.930 . S
C1312 C1311 1.362 . S
C1312 C1315 1.409 . S
C1313 H1305 0.930 . S
C1313 C1314 1.355 . S
C1313 C1315 1.415 . S
C1314 C1313 1.355 . S
C1314 C1316 1.419 . S
C1315 C1310 1.425 . S
C1315 C1312 1.409 . S
C1315 C1313 1.415 . S
C1316 H1306 0.930 . S
C1316 C1314 1.419 . S
C1316 C1317 1.362 . S
C1317 H1307 0.930 . S
C1317 C1310 1.409 . S
C1317 C1316 1.362 . S
H1318 C1324 0.930 . S
H1319 C1327 0.930 . S
H1320 C1328 0.930 . S
H1321 C1329 0.930 . S
H1322 C1332 0.930 . S
H1323 C1333 0.930 . S
C1324 H1318 0.930 . S
C1324 C1325 1.355 . S
C1324 C1326 1.415 . S
C1325 C1324 1.355 . S
C1325 C1327 1.419 . S
C1326 C1324 1.415 . S
C1326 C1331 1.425 . S
C1326 C1333 1.409 . S
C1327 H1319 0.930 . S
C1327 C1325 1.419 . S
C1327 C1328 1.362 . S
C1328 H1320 0.930 . S
C1328 C1327 1.362 . S
C1328 C1331 1.409 . S
C1329 H1321 0.930 . S
C1329 C1330 1.355 . S
C1329 C1331 1.415 . S
C1330 C1329 1.355 . S
C1330 C1332 1.419 . S
C1331 C1326 1.425 . S
C1331 C1328 1.409 . S
C1331 C1329 1.415 . S
C1332 H1322 0.930 . S
C1332 C1330 1.419 . S
C1332 C1333 1.362 . S
C1333 H1323 0.930 . S
C1333 C1326 1.409 . S
C1333 C1332 1.362 . S
H1334 C1340 0.930 . S
H1335 C1343 0.930 . S
H1336 C1344 0.930 . S
H1337 C1345 0.930 . S
H1338 C1348 0.930 . S
H1339 C1349 0.930 . S
C1340 H1334 0.930 . S
C1340 C1341 1.355 . S
C1340 C1342 1.415 . S
C1341 C1340 1.355 . S
C1341 C1343 1.419 . S
C1342 C1340 1.415 . S
C1342 C1347 1.425 . S
C1342 C1349 1.409 . S
C1343 H1335 0.930 . S
C1343 C1341 1.419 . S
C1343 C1344 1.362 . S
C1344 H1336 0.930 . S
C1344 C1343 1.362 . S
C1344 C1347 1.409 . S
C1345 H1337 0.930 . S
C1345 C1346 1.355 . S
C1345 C1347 1.415 . S
C1346 C1345 1.355 . S
C1346 C1348 1.419 . S
C1347 C1342 1.425 . S
C1347 C1344 1.409 . S
C1347 C1345 1.415 . S
C1348 H1338 0.930 . S
C1348 C1346 1.419 . S
C1348 C1349 1.362 . S
C1349 H1339 0.930 . S
C1349 C1342 1.409 . S
C1349 C1348 1.362 . S
H1350 C1356 0.930 . S
H1351 C1359 0.930 . S
H1352 C1360 0.930 . S
H1353 C1361 0.930 . S
H1354 C1364 0.930 . S
H1355 C1365 0.930 . S
C1356 H1350 0.930 . S
C1356 C1357 1.355 . S
C1356 C1358 1.415 . S
C1357 C1356 1.355 . S
C1357 C1359 1.419 . S
C1358 C1356 1.415 . S
C1358 C1363 1.425 . S
C1358 C1365 1.409 . S
C1359 H1351 0.930 . S
C1359 C1357 1.419 . S
C1359 C1360 1.362 . S
C1360 H1352 0.930 . S
C1360 C1359 1.362 . S
C1360 C1363 1.409 . S
C1361 H1353 0.930 . S
C1361 C1362 1.355 . S
C1361 C1363 1.415 . S
C1362 C1361 1.355 . S
C1362 C1364 1.419 . S
C1363 C1358 1.425 . S
C1363 C1360 1.409 . S
C1363 C1361 1.415 . S
C1364 H1354 0.930 . S
C1364 C1362 1.419 . S
C1364 C1365 1.362 . S
C1365 H1355 0.930 . S
C1365 C1358 1.409 . S
C1365 C1364 1.362 . S
H1366 C1372 0.930 . S
H1367 C1375 0.930 . S
H1368 C1376 0.930 . S
H1369 C1377 0.930 . S
H1370 C1380 0.930 . S
H1371 C1381 0.930 . S
C1372 H1366 0.930 . S
C1372 C1373 1.355 . S
C1372 C1374 1.415 . S
C1373 C1372 1.355 . S
C1373 C1375 1.419 . S
C1374 C1372 1.415 . S
C1374 C1379 1.425 . S
C1374 C1381 1.409 . S
C1375 H1367 0.930 . S
C1375 C1373 1.419 . S
C1375 C1376 1.362 . S
C1376 H1368 0.930 . S
C1376 C1375 1.362 . S
C1376 C1379 1.409 . S
C1377 H1369 0.930 . S
C1377 C1378 1.355 . S
C1377 C1379 1.415 . S
C1378 C1377 1.355 . S
C1378 C1380 1.419 . S
C1379 C1374 1.425 . S
C1379 C1376 1.409 . S
C1379 C1377 1.415 . S
C1380 H1370 0.930 . S
C1380 C1378 1.419 . S
C1380 C1381 1.362 . S
C1381 H1371 0.930 . S
C1381 C1374 1.409 . S
C1381 C1380 1.362 . S
H1382 C1388 0.930 . S
H1383 C1391 0.930 . S
H1384 C1392 0.930 . S
H1385 C1393 0.930 . S
H1386 C1396 0.930 . S
H1387 C1397 0.930 . S
C1388 H1382 0.930 . S
C1388 C1389 1.355 . S
C1388 C1390 1.415 . S
C1389 C1388 1.355 . S
C1389 C1391 1.419 . S
C1390 C1388 1.415 . S
C1390 C1395 1.425 . S
C1390 C1397 1.409 . S
C1391 H1383 0.930 . S
C1391 C1389 1.419 . S
C1391 C1392 1.362 . S
C1392 H1384 0.930 . S
C1392 C1391 1.362 . S
C1392 C1395 1.409 . S
C1393 H1385 0.930 . S
C1393 C1394 1.355 . S
C1393 C1395 1.415 . S
C1394 C1393 1.355 . S
C1394 C1396 1.419 . S
C1395 C1390 1.425 . S
C1395 C1392 1.409 . S
C1395 C1393 1.415 . S
C1396 H1386 0.930 . S
C1396 C1394 1.419 . S
C1396 C1397 1.362 . S
C1397 H1387 0.930 . S
C1397 C1390 1.409 . S
C1397 C1396 1.362 . S
H1398 C1404 0.930 . S
H1399 C1407 0.930 . S
H1400 C1408 0.930 . S
H1401 C1409 0.930 . S
H1402 C1412 0.930 . S
H1403 C1413 0.930 . S
C1404 H1398 0.930 . S
C1404 C1405 1.355 . S
C1404 C1406 1.415 . S
C1405 C1404 1.355 . S
C1405 C1407 1.419 . S
C1406 C1404 1.415 . S
C1406 C1411 1.425 . S
C1406 C1413 1.409 . S
C1407 H1399 0.930 . S
C1407 C1405 1.419 . S
C1407 C1408 1.362 . S
C1408 H1400 0.930 . S
C1408 C1407 1.362 . S
C1408 C1411 1.409 . S
C1409 H1401 0.930 . S
C1409 C1410 1.355 . S
C1409 C1411 1.415 . S
C1410 C1409 1.355 . S
C1410 C1412 1.419 . S
C1411 C1406 1.425 . S
C1411 C1408 1.409 . S
C1411 C1409 1.415 . S
C1412 H1402 0.930 . S
C1412 C1410 1.419 . S
C1412 C1413 1.362 . S
C1413 H1403 0.930 . S
C1413 C1406 1.409 . S
C1413 C1412 1.362 . S
H1414 C1420 0.930 . S
H1415 C1423 0.930 . S
H1416 C1424 0.930 . S
H1417 C1425 0.930 . S
H1418 C1428 0.930 . S
H1419 C1429 0.930 . S
C1420 H1414 0.930 . S
C1420 C1421 1.355 . S
C1420 C1422 1.415 . S
C1421 C1420 1.355 . S
C1421 C1423 1.419 . S
C1422 C1420 1.415 . S
C1422 C1427 1.425 . S
C1422 C1429 1.409 . S
C1423 H1415 0.930 . S
C1423 C1421 1.419 . S
C1423 C1424 1.362 . S
C1424 H1416 0.930 . S
C1424 C1423 1.362 . S
C1424 C1427 1.409 . S
C1425 H1417 0.930 . S
C1425 C1426 1.355 . S
C1425 C1427 1.415 . S
C1426 C1425 1.355 . S
C1426 C1428 1.419 . S
C1427 C1422 1.425 . S
C1427 C1424 1.409 . S
C1427 C1425 1.415 . S
C1428 H1418 0.930 . S
C1428 C1426 1.419 . S
C1428 C1429 1.362 . S
C1429 H1419 0.930 . S
C1429 C1422 1.409 . S
C1429 C1428 1.362 . S
H1430 C1436 0.930 . S
H1431 C1439 0.930 . S
H1432 C1440 0.930 . S
H1433 C1441 0.930 . S
H1434 C1444 0.930 . S
H1435 C1445 0.930 . S
C1436 H1430 0.930 . S
C1436 C1437 1.355 . S
C1436 C1438 1.415 . S
C1437 C1436 1.355 . S
C1437 C1439 1.419 . S
C1438 C1436 1.415 . S
C1438 C1443 1.425 . S
C1438 C1445 1.409 . S
C1439 H1431 0.930 . S
C1439 C1437 1.419 . S
C1439 C1440 1.362 . S
C1440 H1432 0.930 . S
C1440 C1439 1.362 . S
C1440 C1443 1.409 . S
C1441 H1433 0.930 . S
C1441 C1442 1.355 . S
C1441 C1443 1.415 . S
C1442 C1441 1.355 . S
C1442 C1444 1.419 . S
C1443 C1438 1.425 . S
C1443 C1440 1.409 . S
C1443 C1441 1.415 . S
C1444 H1434 0.930 . S
C1444 C1442 1.419 . S
C1444 C1445 1.362 . S
C1445 H1435 0.930 . S
C1445 C1438 1.409 . S
C1445 C1444 1.362 . S
H1446 C1452 0.930 . S
H1447 C1455 0.930 . S
H1448 C1456 0.930 . S
H1449 C1457 0.930 . S
H1450 C1460 0.930 . S
H1451 C1461 0.930 . S
C1452 H1446 0.930 . S
C1452 C1453 1.355 . S
C1452 C1454 1.415 . S
C1453 C1452 1.355 . S
C1453 C1455 1.419 . S
C1454 C1452 1.415 . S
C1454 C1459 1.425 . S
C1454 C1461 1.409 . S
C1455 H1447 0.930 . S
C1455 C1453 1.419 . S
C1455 C1456 1.362 . S
C1456 H1448 0.930 . S
C1456 C1455 1.362 . S
C1456 C1459 1.409 . S
C1457 H1449 0.930 . S
C1457 C1458 1.355 . S
C1457 C1459 1.415 . S
C1458 C1457 1.355 . S
C1458 C1460 1.419 . S
C1459 C1454 1.425 . S
C1459 C1456 1.409 . S
C1459 C1457 1.415 . S
C1460 H1450 0.930 . S
C1460 C1458 1.419 . S
C1460 C1461 1.362 . S
C1461 H1451 0.930 . S
C1461 C1454 1.409 . S
C1461 C1460 1.362 . S
H1462 C1468 0.930 . S
H1463 C1471 0.930 . S
H1464 C1472 0.930 . S
H1465 C1473 0.930 . S
H1466 C1476 0.930 . S
H1467 C1477 0.930 . S
C1468 H1462 0.930 . S
C1468 C1469 1.355 . S
C1468 C1470 1.415 . S
C1469 C1468 1.355 . S
C1469 C1471 1.419 . S
C1470 C1468 1.415 . S
C1470 C1475 1.425 . S
C1470 C1477 1.409 . S
C1471 H1463 0.930 . S
C1471 C1469 1.419 . S
C1471 C1472 1.362 . S
C1472 H1464 0.930 . S
C1472 C1471 1.362 . S
C1472 C1475 1.409 . S
C1473 H1465 0.930 . S
C1473 C1474 1.355 . S
C1473 C1475 1.415 . S
C1474 C1473 1.355 . S
C1474 C1476 1.419 . S
C1475 C1470 1.425 . S
C1475 C1472 1.409 . S
C1475 C1473 1.415 . S
C1476 H1466 0.930 . S
C1476 C1474 1.419 . S
C1476 C1477 1.362 . S
C1477 H1467 0.930 . S
C1477 C1470 1.409 . S
C1477 C1476 1.362 . S
H1478 C1484 0.930 . S
H1479 C1487 0.930 . S
H1480 C1488 0.930 . S
H1481 C1489 0.930 . S
H1482 C1492 0.930 . S
H1483 C1493 0.930 . S
C1484 H1478 0.930 . S
C1484 C1485 1.355 . S
C1484 C1486 1.415 . S
C1485 C1484 1.355 . S
C1485 C1487 1.419 . S
C1486 C1484 1.415 . S
C1486 C1491 1.425 . S
C1486 C1493 1.409 . S
C1487 H1479 0.930 . S
C1487 C1485 1.419 . S
C1487 C1488 1.362 . S
C1488 H1480 0.930 . S
C1488 C1487 1.362 . S
C1488 C1491 1.409 . S
C1489 H1481 0.930 . S
C1489 C1490 1.355 . S
C1489 C1491 1.415 . S
C1490 C1489 1.355 . S
C1490 C1492 1.419 . S
C1491 C1486 1.425 . S
C1491 C1488 1.409 . S
C1491 C1489 1.415 . S
C1492 H1482 0.930 . S
C1492 C1490 1.419 . S
C1492 C1493 1.362 . S
C1493 H1483 0.930 . S
C1493 C1486 1.409 . S
C1493 C1492 1.362 . S
H1494 C1500 0.930 . S
H1495 C1503 0.930 . S
H1496 C1504 0.930 . S
H1497 C1505 0.930 . S
H1498 C1508 0.930 . S
H1499 C1509 0.930 . S
C1500 H1494 0.930 . S
C1500 C1501 1.355 . S
C1500 C1502 1.415 . S
C1501 C1500 1.355 . S
C1501 C1503 1.419 . S
C1502 C1500 1.415 . S
C1502 C1507 1.425 . S
C1502 C1509 1.409 . S
C1503 H1495 0.930 . S
C1503 C1501 1.419 . S
C1503 C1504 1.362 . S
C1504 H1496 0.930 . S
C1504 C1503 1.362 . S
C1504 C1507 1.409 . S
C1505 H1497 0.930 . S
C1505 C1506 1.355 . S
C1505 C1507 1.415 . S
C1506 C1505 1.355 . S
C1506 C1508 1.419 . S
C1507 C1502 1.425 . S
C1507 C1504 1.409 . S
C1507 C1505 1.415 . S
C1508 H1498 0.930 . S
C1508 C1506 1.419 . S
C1508 C1509 1.362 . S
C1509 H1499 0.930 . S
C1509 C1502 1.409 . S
C1509 C1508 1.362 . S
H1510 C1516 0.930 . S
H1511 C1519 0.930 . S
H1512 C1520 0.930 . S
H1513 C1521 0.930 . S
H1514 C1524 0.930 . S
H1515 C1525 0.930 . S
C1516 H1510 0.930 . S
C1516 C1517 1.355 . S
C1516 C1518 1.415 . S
C1517 C1516 1.355 . S
C1517 C1519 1.419 . S
C1518 C1516 1.415 . S
C1518 C1523 1.425 . S
C1518 C1525 1.409 . S
C1519 H1511 0.930 . S
C1519 C1517 1.419 . S
C1519 C1520 1.362 . S
C1520 H1512 0.930 . S
C1520 C1519 1.362 . S
C1520 C1523 1.409 . S
C1521 H1513 0.930 . S
C1521 C1522 1.355 . S
C1521 C1523 1.415 . S
C1522 C1521 1.355 . S
C1522 C1524 1.419 . S
C1523 C1518 1.425 . S
C1523 C1520 1.409 . S
C1523 C1521 1.415 . S
C1524 H1514 0.930 . S
C1524 C1522 1.419 . S
C1524 C1525 1.362 . S
C1525 H1515 0.930 . S
C1525 C1518 1.409 . S
C1525 C1524 1.362 . S
H1526 C1532 0.930 . S
H1527 C1535 0.930 . S
H1528 C1536 0.930 . S
H1529 C1537 0.930 . S
H1530 C1540 0.930 . S
H1531 C1541 0.930 . S
C1532 H1526 0.930 . S
C1532 C1533 1.355 . S
C1532 C1534 1.415 . S
C1533 C1532 1.355 . S
C1533 C1535 1.419 . S
C1534 C1532 1.415 . S
C1534 C1539 1.425 . S
C1534 C1541 1.409 . S
C1535 H1527 0.930 . S
C1535 C1533 1.419 . S
C1535 C1536 1.362 . S
C1536 H1528 0.930 . S
C1536 C1535 1.362 . S
C1536 C1539 1.409 . S
C1537 H1529 0.930 . S
C1537 C1538 1.355 . S
C1537 C1539 1.415 . S
C1538 C1537 1.355 . S
C1538 C1540 1.419 . S
C1539 C1534 1.425 . S
C1539 C1536 1.409 . S
C1539 C1537 1.415 . S
C1540 H1530 0.930 . S
C1540 C1538 1.419 . S
C1540 C1541 1.362 . S
C1541 H1531 0.930 . S
C1541 C1534 1.409 . S
C1541 C1540 1.362 . S
H1542 C1548 0.930 . S
H1543 C1551 0.930 . S
H1544 C1552 0.930 . S
H1545 C1553 0.930 . S
H1546 C1556 0.930 . S
H1547 C1557 0.930 . S
C1548 H1542 0.930 . S
C1548 C1549 1.355 . S
C1548 C1550 1.415 . S
C1549 C1548 1.355 . S
C1549 C1551 1.419 . S
C1550 C1548 1.415 . S
C1550 C1555 1.425 . S
C1550 C1557 1.409 . S
C1551 H1543 0.930 . S
C1551 C1549 1.419 . S
C1551 C1552 1.362 . S
C1552 H1544 0.930 . S
C1552 C1551 1.362 . S
C1552 C1555 1.409 . S
C1553 H1545 0.930 . S
C1553 C1554 1.355 . S
C1553 C1555 1.415 . S
C1554 C1553 1.355 . S
C1554 C1556 1.419 . S
C1555 C1550 1.425 . S
C1555 C1552 1.409 . S
C1555 C1553 1.415 . S
C1556 H1546 0.930 . S
C1556 C1554 1.419 . S
C1556 C1557 1.362 . S
C1557 H1547 0.930 . S
C1557 C1550 1.409 . S
C1557 C1556 1.362 . S
H1558 C1564 0.930 . S
H1559 C1567 0.930 . S
H1560 C1568 0.930 . S
H1561 C1569 0.930 . S
H1562 C1572 0.930 . S
H1563 C1573 0.930 . S
C1564 H1558 0.930 . S
C1564 C1565 1.355 . S
C1564 C1566 1.415 . S
C1565 C1564 1.355 . S
C1565 C1567 1.419 . S
C1566 C1564 1.415 . S
C1566 C1571 1.425 . S
C1566 C1573 1.409 . S
C1567 H1559 0.930 . S
C1567 C1565 1.419 . S
C1567 C1568 1.362 . S
C1568 H1560 0.930 . S
C1568 C1567 1.362 . S
C1568 C1571 1.409 . S
C1569 H1561 0.930 . S
C1569 C1570 1.355 . S
C1569 C1571 1.415 . S
C1570 C1569 1.355 . S
C1570 C1572 1.419 . S
C1571 C1566 1.425 . S
C1571 C1568 1.409 . S
C1571 C1569 1.415 . S
C1572 H1562 0.930 . S
C1572 C1570 1.419 . S
C1572 C1573 1.362 . S
C1573 H1563 0.930 . S
C1573 C1566 1.409 . S
C1573 C1572 1.362 . S
H1574 C1580 0.930 . S
H1575 C1583 0.930 . S
H1576 C1584 0.930 . S
H1577 C1585 0.930 . S
H1578 C1588 0.930 . S
H1579 C1589 0.930 . S
C1580 H1574 0.930 . S
C1580 C1581 1.355 . S
C1580 C1582 1.415 . S
C1581 C1580 1.355 . S
C1581 C1583 1.419 . S
C1582 C1580 1.415 . S
C1582 C1587 1.425 . S
C1582 C1589 1.409 . S
C1583 H1575 0.930 . S
C1583 C1581 1.419 . S
C1583 C1584 1.362 . S
C1584 H1576 0.930 . S
C1584 C1583 1.362 . S
C1584 C1587 1.409 . S
C1585 H1577 0.930 . S
C1585 C1586 1.355 . S
C1585 C1587 1.415 . S
C1586 C1585 1.355 . S
C1586 C1588 1.419 . S
C1587 C1582 1.425 . S
C1587 C1584 1.409 . S
C1587 C1585 1.415 . S
C1588 H1578 0.930 . S
C1588 C1586 1.419 . S
C1588 C1589 1.362 . S
C1589 H1579 0.930 . S
C1589 C1582 1.409 . S
C1589 C1588 1.362 . S
H1590 C1596 0.930 . S
H1591 C1599 0.930 . S
H1592 C1600 0.930 . S
H1593 C1601 0.930 . S
H1594 C1604 0.930 . S
H1595 C1605 0.930 . S
C1596 H1590 0.930 . S
C1596 C1597 1.355 . S
C1596 C1598 1.415 . S
C1597 C1596 1.355 . S
C1597 C1599 1.419 . S
C1598 C1596 1.415 . S
C1598 C1603 1.425 . S
C1598 C1605 1.409 . S
C1599 H1591 0.930 . S
C1599 C1597 1.419 . S
C1599 C1600 1.362 . S
C1600 H1592 0.930 . S
C1600 C1599 1.362 . S
C1600 C1603 1.409 . S
C1601 H1593 0.930 . S
C1601 C1602 1.355 . S
C1601 C1603 1.415 . S
C1602 C1601 1.355 . S
C1602 C1604 1.419 . S
C1603 C1598 1.425 . S
C1603 C1600 1.409 . S
C1603 C1601 1.415 . S
C1604 H1594 0.930 . S
C1604 C1602 1.419 . S
C1604 C1605 1.362 . S
C1605 H1595 0.930 . S
C1605 C1598 1.409 . S
C1605 C1604 1.362 . S
H1606 C1612 0.930 . S
H1607 C1615 0.930 . S
H1608 C1616 0.930 . S
H1609 C1617 0.930 . S
H1610 C1620 0.930 . S
H1611 C1621 0.930 . S
C1612 H1606 0.930 . S
C1612 C1613 1.355 . S
C1612 C1614 1.415 . S
C1613 C1612 1.355 . S
C1613 C1615 1.419 . S
C1614 C1612 1.415 . S
C1614 C1619 1.425 . S
C1614 C1621 1.409 . S
C1615 H1607 0.930 . S
C1615 C1613 1.419 . S
C1615 C1616 1.362 . S
C1616 H1608 0.930 . S
C1616 C1615 1.362 . S
C1616 C1619 1.409 . S
C1617 H1609 0.930 . S
C1617 C1618 1.355 . S
C1617 C1619 1.415 . S
C1618 C1617 1.355 . S
C1618 C1620 1.419 . S
C1619 C1614 1.425 . S
C1619 C1616 1.409 . S
C1619 C1617 1.415 . S
C1620 H1610 0.930 . S
C1620 C1618 1.419 . S
C1620 C1621 1.362 . S
C1621 H1611 0.930 . S
C1621 C1614 1.409 . S
C1621 C1620 1.362 . S
H1622 C1628 0.930 . S
H1623 C1631 0.930 . S
H1624 C1632 0.930 . S
H1625 C1633 0.930 . S
H1626 C1636 0.930 . S
H1627 C1637 0.930 . S
C1628 H1622 0.930 . S
C1628 C1629 1.355 . S
C1628 C1630 1.415 . S
C1629 C1628 1.355 . S
C1629 C1631 1.419 . S
C1630 C1628 1.415 . S
C1630 C1635 1.425 . S
C1630 C1637 1.409 . S
C1631 H1623 0.930 . S
C1631 C1629 1.419 . S
C1631 C1632 1.362 . S
C1632 H1624 0.930 . S
C1632 C1631 1.362 . S
C1632 C1635 1.409 . S
C1633 H1625 0.930 . S
C1633 C1634 1.355 . S
C1633 C1635 1.415 . S
C1634 C1633 1.355 . S
C1634 C1636 1.419 . S
C1635 C1630 1.425 . S
C1635 C1632 1.409 . S
C1635 C1633 1.415 . S
C1636 H1626 0.930 . S
C1636 C1634 1.419 . S
C1636 C1637 1.362 . S
C1637 H1627 0.930 . S
C1637 C1630 1.409 . S
C1637 C1636 1.362 . S
H1638 C1644 0.930 . S
H1639 C1647 0.930 . S
H1640 C1648 0.930 . S
H1641 C1649 0.930 . S
H1642 C1652 0.930 . S
H1643 C1653 0.930 . S
C1644 H1638 0.930 . S
C1644 C1645 1.355 . S
C1644 C1646 1.415 . S
C1645 C1644 1.355 . S
C1645 C1647 1.419 . S
C1646 C1644 1.415 . S
C1646 C1651 1.425 . S
C1646 C1653 1.409 . S
C1647 H1639 0.930 . S
C1647 C1645 1.419 . S
C1647 C1648 1.362 . S
C1648 H1640 0.930 . S
C1648 C1647 1.362 . S
C1648 C1651 1.409 . S
C1649 H1641 0.930 . S
C1649 C1650 1.355 . S
C1649 C1651 1.415 . S
C1650 C1649 1.355 . S
C1650 C1652 1.419 . S
C1651 C1646 1.425 . S
C1651 C1648 1.409 . S
C1651 C1649 1.415 . S
C1652 H1642 0.930 . S
C1652 C1650 1.419 . S
C1652 C1653 1.362 . S
C1653 H1643 0.930 . S
C1653 C1646 1.409 . S
C1653 C1652 1.362 . S
H1654 C1660 0.930 . S
H1655 C1663 0.930 . S
H1656 C1664 0.930 . S
H1657 C1665 0.930 . S
H1658 C1668 0.930 . S
H1659 C1669 0.930 . S
C1660 H1654 0.930 . S
C1660 C1661 1.355 . S
C1660 C1662 1.415 . S
C1661 C1660 1.355 . S
C1661 C1663 1.419 . S
C1662 C1660 1.415 . S
C1662 C1667 1.425 . S
C1662 C1669 1.409 . S
C1663 H1655 0.930 . S
C1663 C1661 1.419 . S
C1663 C1664 1.362 . S
C1664 H1656 0.930 . S
C1664 C1663 1.362 . S
C1664 C1667 1.409 . S
C1665 H1657 0.930 . S
C1665 C1666 1.355 . S
C1665 C1667 1.415 . S
C1666 C1665 1.355 . S
C1666 C1668 1.419 . S
C1667 C1662 1.425 . S
C1667 C1664 1.409 . S
C1667 C1665 1.415 . S
C1668 H1658 0.930 . S
C1668 C1666 1.419 . S
C1668 C1669 1.362 . S
C1669 H1659 0.930 . S
C1669 C1662 1.409 . S
C1669 C1668 1.362 . S
H1670 C1676 0.930 . S
H1671 C1679 0.930 . S
H1672 C1680 0.930 . S
H1673 C1681 0.930 . S
H1674 C1684 0.930 . S
H1675 C1685 0.930 . S
C1676 H1670 0.930 . S
C1676 C1677 1.355 . S
C1676 C1678 1.415 . S
C1677 C1676 1.355 . S
C1677 C1679 1.419 . S
C1678 C1676 1.415 . S
C1678 C1683 1.425 . S
C1678 C1685 1.409 . S
C1679 H1671 0.930 . S
C1679 C1677 1.419 . S
C1679 C1680 1.362 . S
C1680 H1672 0.930 . S
C1680 C1679 1.362 . S
C1680 C1683 1.409 . S
C1681 H1673 0.930 . S
C1681 C1682 1.355 . S
C1681 C1683 1.415 . S
C1682 C1681 1.355 . S
C1682 C1684 1.419 . S
C1683 C1678 1.425 . S
C1683 C1680 1.409 . S
C1683 C1681 1.415 . S
C1684 H1674 0.930 . S
C1684 C1682 1.419 . S
C1684 C1685 1.362 . S
C1685 H1675 0.930 . S
C1685 C1678 1.409 . S
C1685 C1684 1.362 . S
H1686 C1692 0.930 . S
H1687 C1695 0.930 . S
H1688 C1696 0.930 . S
H1689 C1697 0.930 . S
H1690 C1700 0.930 . S
H1691 C1701 0.930 . S
C1692 H1686 0.930 . S
C1692 C1693 1.355 . S
C1692 C1694 1.415 . S
C1693 C1692 1.355 . S
C1693 C1695 1.419 . S
C1694 C1692 1.415 . S
C1694 C1699 1.425 . S
C1694 C1701 1.409 . S
C1695 H1687 0.930 . S
C1695 C1693 1.419 . S
C1695 C1696 1.362 . S
C1696 H1688 0.930 . S
C1696 C1695 1.362 . S
C1696 C1699 1.409 . S
C1697 H1689 0.930 . S
C1697 C1698 1.355 . S
C1697 C1699 1.415 . S
C1698 C1697 1.355 . S
C1698 C1700 1.419 . S
C1699 C1694 1.425 . S
C1699 C1696 1.409 . S
C1699 C1697 1.415 . S
C1700 H1690 0.930 . S
C1700 C1698 1.419 . S
C1700 C1701 1.362 . S
C1701 H1691 0.930 . S
C1701 C1694 1.409 . S
C1701 C1700 1.362 . S
H1702 C1708 0.930 . S
H1703 C1711 0.930 . S
H1704 C1712 0.930 . S
H1705 C1713 0.930 . S
H1706 C1716 0.930 . S
H1707 C1717 0.930 . S
C1708 H1702 0.930 . S
C1708 C1709 1.355 . S
C1708 C1710 1.415 . S
C1709 C1708 1.355 . S
C1709 C1711 1.419 . S
C1710 C1708 1.415 . S
C1710 C1715 1.425 . S
C1710 C1717 1.409 . S
C1711 H1703 0.930 . S
C1711 C1709 1.419 . S
C1711 C1712 1.362 . S
C1712 H1704 0.930 . S
C1712 C1711 1.362 . S
C1712 C1715 1.409 . S
C1713 H1705 0.930 . S
C1713 C1714 1.355 . S
C1713 C1715 1.415 . S
C1714 C1713 1.355 . S
C1714 C1716 1.419 . S
C1715 C1710 1.425 . S
C1715 C1712 1.409 . S
C1715 C1713 1.415 . S
C1716 H1706 0.930 . S
C1716 C1714 1.419 . S
C1716 C1717 1.362 . S
C1717 H1707 0.930 . S
C1717 C1710 1.409 . S
C1717 C1716 1.362 . S
H1718 C1724 0.930 . S
H1719 C1727 0.930 . S
H1720 C1728 0.930 . S
H1721 C1729 0.930 . S
H1722 C1732 0.930 . S
H1723 C1733 0.930 . S
C1724 H1718 0.930 . S
C1724 C1725 1.355 . S
C1724 C1726 1.415 . S
C1725 C1724 1.355 . S
C1725 C1727 1.419 . S
C1726 C1724 1.415 . S
C1726 C1731 1.425 . S
C1726 C1733 1.409 . S
C1727 H1719 0.930 . S
C1727 C1725 1.419 . S
C1727 C1728 1.362 . S
C1728 H1720 0.930 . S
C1728 C1727 1.362 . S
C1728 C1731 1.409 . S
C1729 H1721 0.930 . S
C1729 C1730 1.355 . S
C1729 C1731 1.415 . S
C1730 C1729 1.355 . S
C1730 C1732 1.419 . S
C1731 C1726 1.425 . S
C1731 C1728 1.409 . S
C1731 C1729 1.415 . S
C1732 H1722 0.930 . S
C1732 C1730 1.419 . S
C1732 C1733 1.362 . S
C1733 H1723 0.930 . S
C1733 C1726 1.409 . S
C1733 C1732 1.362 . S
H1734 C1740 0.930 . S
H1735 C1743 0.930 . S
H1736 C1744 0.930 . S
H1737 C1745 0.930 . S
H1738 C1748 0.930 . S
H1739 C1749 0.930 . S
C1740 H1734 0.930 . S
C1740 C1741 1.355 . S
C1740 C1742 1.415 . S
C1741 C1740 1.355 . S
C1741 C1743 1.419 . S
C1742 C1740 1.415 . S
C1742 C1747 1.425 . S
C1742 C1749 1.409 . S
C1743 H1735 0.930 . S
C1743 C1741 1.419 . S
C1743 C1744 1.362 . S
C1744 H1736 0.930 . S
C1744 C1743 1.362 . S
C1744 C1747 1.409 . S
C1745 H1737 0.930 . S
C1745 C1746 1.355 . S
C1745 C1747 1.415 . S
C1746 C1745 1.355 . S
C1746 C1748 1.419 . S
C1747 C1742 1.425 . S
C1747 C1744 1.409 . S
C1747 C1745 1.415 . S
C1748 H1738 0.930 . S
C1748 C1746 1.419 . S
C1748 C1749 1.362 . S
C1749 H1739 0.930 . S
C1749 C1742 1.409 . S
C1749 C1748 1.362 . S
H1750 C1756 0.930 . S
H1751 C1759 0.930 . S
H1752 C1760 0.930 . S
H1753 C1761 0.930 . S
H1754 C1764 0.930 . S
H1755 C1765 0.930 . S
C1756 H1750 0.930 . S
C1756 C1757 1.355 . S
C1756 C1758 1.415 . S
C1757 C1756 1.355 . S
C1757 C1759 1.419 . S
C1758 C1756 1.415 . S
C1758 C1763 1.425 . S
C1758 C1765 1.409 . S
C1759 H1751 0.930 . S
C1759 C1757 1.419 . S
C1759 C1760 1.362 . S
C1760 H1752 0.930 . S
C1760 C1759 1.362 . S
C1760 C1763 1.409 . S
C1761 H1753 0.930 . S
C1761 C1762 1.355 . S
C1761 C1763 1.415 . S
C1762 C1761 1.355 . S
C1762 C1764 1.419 . S
C1763 C1758 1.425 . S
C1763 C1760 1.409 . S
C1763 C1761 1.415 . S
C1764 H1754 0.930 . S
C1764 C1762 1.419 . S
C1764 C1765 1.362 . S
C1765 H1755 0.930 . S
C1765 C1758 1.409 . S
C1765 C1764 1.362 . S
H1766 C1772 0.930 . S
H1767 C1775 0.930 . S
H1768 C1776 0.930 . S
H1769 C1777 0.930 . S
H1770 C1780 0.930 . S
H1771 C1781 0.930 . S
C1772 H1766 0.930 . S
C1772 C1773 1.355 . S
C1772 C1774 1.415 . S
C1773 C1772 1.355 . S
C1773 C1775 1.419 . S
C1774 C1772 1.415 . S
C1774 C1779 1.425 . S
C1774 C1781 1.409 . S
C1775 H1767 0.930 . S
C1775 C1773 1.419 . S
C1775 C1776 1.362 . S
C1776 H1768 0.930 . S
C1776 C1775 1.362 . S
C1776 C1779 1.409 . S
C1777 H1769 0.930 . S
C1777 C1778 1.355 . S
C1777 C1779 1.415 . S
C1778 C1777 1.355 . S
C1778 C1780 1.419 . S
C1779 C1774 1.425 . S
C1779 C1776 1.409 . S
C1779 C1777 1.415 . S
C1780 H1770 0.930 . S
C1780 C1778 1.419 . S
C1780 C1781 1.362 . S
C1781 H1771 0.930 . S
C1781 C1774 1.409 . S
C1781 C1780 1.362 . S
H1782 C1788 0.930 . S
H1783 C1791 0.930 . S
H1784 C1792 0.930 . S
H1785 C1793 0.930 . S
H1786 C1796 0.930 . S
H1787 C1797 0.930 . S
C1788 H1782 0.930 . S
C1788 C1789 1.355 . S
C1788 C1790 1.415 . S
C1789 C1788 1.355 . S
C1789 C1791 1.419 . S
C1790 C1788 1.415 . S
C1790 C1795 1.425 . S
C1790 C1797 1.409 . S
C1791 H1783 0.930 . S
C1791 C1789 1.419 . S
C1791 C1792 1.362 . S
C1792 H1784 0.930 . S
C1792 C1791 1.362 . S
C1792 C1795 1.409 . S
C1793 H1785 0.930 . S
C1793 C1794 1.355 . S
C1793 C1795 1.415 . S
C1794 C1793 1.355 . S
C1794 C1796 1.419 . S
C1795 C1790 1.425 . S
C1795 C1792 1.409 . S
C1795 C1793 1.415 . S
C1796 H1786 0.930 . S
C1796 C1794 1.419 . S
C1796 C1797 1.362 . S
C1797 H1787 0.930 . S
C1797 C1790 1.409 . S
C1797 C1796 1.362 . S
H1798 C1804 0.930 . S
H1799 C1807 0.930 . S
H1800 C1808 0.930 . S
H1801 C1809 0.930 . S
H1802 C1812 0.930 . S
H1803 C1813 0.930 . S
C1804 H1798 0.930 . S
C1804 C1805 1.355 . S
C1804 C1806 1.415 . S
C1805 C1804 1.355 . S
C1805 C1807 1.419 . S
C1806 C1804 1.415 . S
C1806 C1811 1.425 . S
C1806 C1813 1.409 . S
C1807 H1799 0.930 . S
C1807 C1805 1.419 . S
C1807 C1808 1.362 . S
C1808 H1800 0.930 . S
C1808 C1807 1.362 . S
C1808 C1811 1.409 . S
C1809 H1801 0.930 . S
C1809 C1810 1.355 . S
C1809 C1811 1.415 . S
C1810 C1809 1.355 . S
C1810 C1812 1.419 . S
C1811 C1806 1.425 . S
C1811 C1808 1.409 . S
C1811 C1809 1.415 . S
C1812 H1802 0.930 . S
C1812 C1810 1.419 . S
C1812 C1813 1.362 . S
C1813 H1803 0.930 . S
C1813 C1806 1.409 . S
C1813 C1812 1.362 . S
H1814 C1820 0.930 . S
H1815 C1823 0.930 . S
H1816 C1824 0.930 . S
H1817 C1825 0.930 . S
H1818 C1828 0.930 . S
H1819 C1829 0.930 . S
C1820 H1814 0.930 . S
C1820 C1821 1.355 . S
C1820 C1822 1.415 . S
C1821 C1820 1.355 . S
C1821 C1823 1.419 . S
C1822 C1820 1.415 . S
C1822 C1827 1.425 . S
C1822 C1829 1.409 . S
C1823 H1815 0.930 . S
C1823 C1821 1.419 . S
C1823 C1824 1.362 . S
C1824 H1816 0.930 . S
C1824 C1823 1.362 . S
C1824 C1827 1.409 . S
C1825 H1817 0.930 . S
C1825 C1826 1.355 . S
C1825 C1827 1.415 . S
C1826 C1825 1.355 . S
C1826 C1828 1.419 . S
C1827 C1822 1.425 . S
C1827 C1824 1.409 . S
C1827 C1825 1.415 . S
C1828 H1818 0.930 . S
C1828 C1826 1.419 . S
C1828 C1829 1.362 . S
C1829 H1819 0.930 . S
C1829 C1822 1.409 . S
C1829 C1828 1.362 . S
H1830 C1836 0.930 . S
H1831 C1839 0.930 . S
H1832 C1840 0.930 . S
H1833 C1841 0.930 . S
H1834 C1844 0.930 . S
H1835 C1845 0.930 . S
C1836 H1830 0.930 . S
C1836 C1837 1.355 . S
C1836 C1838 1.415 . S
C1837 C1836 1.355 . S
C1837 C1839 1.419 . S
C1838 C1836 1.415 . S
C1838 C1843 1.425 . S
C1838 C1845 1.409 . S
C1839 H1831 0.930 . S
C1839 C1837 1.419 . S
C1839 C1840 1.362 . S
C1840 H1832 0.930 . S
C1840 C1839 1.362 . S
C1840 C1843 1.409 . S
C1841 H1833 0.930 . S
C1841 C1842 1.355 . S
C1841 C1843 1.415 . S
C1842 C1841 1.355 . S
C1842 C1844 1.419 . S
C1843 C1838 1.425 . S
C1843 C1840 1.409 . S
C1843 C1841 1.415 . S
C1844 H1834 0.930 . S
C1844 C1842 1.419 . S
C1844 C1845 1.362 . S
C1845 H1835 0.930 . S
C1845 C1838 1.409 . S
C1845 C1844 1.362 . S
H1846 C1852 0.930 . S
H1847 C1855 0.930 . S
H1848 C1856 0.930 . S
H1849 C1857 0.930 . S
H1850 C1860 0.930 . S
H1851 C1861 0.930 . S
C1852 H1846 0.930 . S
C1852 C1853 1.355 . S
C1852 C1854 1.415 . S
C1853 C1852 1.355 . S
C1853 C1855 1.419 . S
C1854 C1852 1.415 . S
C1854 C1859 1.425 . S
C1854 C1861 1.409 . S
C1855 H1847 0.930 . S
C1855 C1853 1.419 . S
C1855 C1856 1.362 . S
C1856 H1848 0.930 . S
C1856 C1855 1.362 . S
C1856 C1859 1.409 . S
C1857 H1849 0.930 . S
C1857 C1858 1.355 . S
C1857 C1859 1.415 . S
C1858 C1857 1.355 . S
C1858 C1860 1.419 . S
C1859 C1854 1.425 . S
C1859 C1856 1.409 . S
C1859 C1857 1.415 . S
C1860 H1850 0.930 . S
C1860 C1858 1.419 . S
C1860 C1861 1.362 . S
C1861 H1851 0.930 . S
C1861 C1854 1.409 . S
C1861 C1860 1.362 . S
H1862 C1868 0.930 . S
H1863 C1871 0.930 . S
H1864 C1872 0.930 . S
H1865 C1873 0.930 . S
H1866 C1876 0.930 . S
H1867 C1877 0.930 . S
C1868 H1862 0.930 . S
C1868 C1869 1.355 . S
C1868 C1870 1.415 . S
C1869 C1868 1.355 . S
C1869 C1871 1.419 . S
C1870 C1868 1.415 . S
C1870 C1875 1.425 . S
C1870 C1877 1.409 . S
C1871 H1863 0.930 . S
C1871 C1869 1.419 . S
C1871 C1872 1.362 . S
C1872 H1864 0.930 . S
C1872 C1871 1.362 . S
C1872 C1875 1.409 . S
C1873 H1865 0.930 . S
C1873 C1874 1.355 . S
C1873 C1875 1.415 . S
C1874 C1873 1.355 . S
C1874 C1876 1.419 . S
C1875 C1870 1.425 . S
C1875 C1872 1.409 . S
C1875 C1873 1.415 . S
C1876 H1866 0.930 . S
C1876 C1874 1.419 . S
C1876 C1877 1.362 . S
C1877 H1867 0.930 . S
C1877 C1870 1.409 . S
C1877 C1876 1.362 . S
H1878 C1884 0.930 . S
H1879 C1887 0.930 . S
H1880 C1888 0.930 . S
H1881 C1889 0.930 . S
H1882 C1892 0.930 . S
H1883 C1893 0.930 . S
C1884 H1878 0.930 . S
C1884 C1885 1.355 . S
C1884 C1886 1.415 . S
C1885 C1884 1.355 . S
C1885 C1887 1.419 1_455 S
C1886 C1884 1.415 . S
C1886 C1891 1.413 1_455 S
C1886 C1893 1.409 . S
C1887 H1879 0.930 . S
C1887 C1885 1.419 1_655 S
C1887 C1888 1.362 . S
C1888 H1880 0.930 . S
C1888 C1887 1.362 . S
C1888 C1891 1.409 . S
C1889 H1881 0.930 . S
C1889 C1890 1.355 1_655 S
C1889 C1891 1.427 . S
C1890 C1889 1.355 1_455 S
C1890 C1892 1.419 . S
C1891 C1886 1.413 1_655 S
C1891 C1888 1.409 . S
C1891 C1889 1.427 . S
C1892 H1882 0.930 . S
C1892 C1890 1.419 . S
C1892 C1893 1.362 . S
C1893 H1883 0.930 . S
C1893 C1886 1.409 . S
C1893 C1892 1.362 . S
H1894 C1900 0.930 . S
H1895 C1903 0.930 . S
H1896 C1904 0.930 . S
H1897 C1905 0.930 . S
H1898 C1908 0.930 . S
H1899 C1909 0.930 . S
C1900 H1894 0.930 . S
C1900 C1901 1.355 . S
C1900 C1902 1.415 . S
C1901 C1900 1.355 . S
C1901 C1903 1.419 . S
C1902 C1900 1.415 . S
C1902 C1907 1.425 . S
C1902 C1909 1.409 . S
C1903 H1895 0.930 . S
C1903 C1901 1.419 . S
C1903 C1904 1.362 . S
C1904 H1896 0.930 . S
C1904 C1903 1.362 . S
C1904 C1907 1.409 . S
C1905 H1897 0.930 . S
C1905 C1906 1.355 . S
C1905 C1907 1.415 . S
C1906 C1905 1.355 . S
C1906 C1908 1.419 . S
C1907 C1902 1.425 . S
C1907 C1904 1.409 . S
C1907 C1905 1.415 . S
C1908 H1898 0.930 . S
C1908 C1906 1.419 . S
C1908 C1909 1.362 . S
C1909 H1899 0.930 . S
C1909 C1902 1.409 . S
C1909 C1908 1.362 . S
H1910 C1916 0.930 . S
H1911 C1919 0.930 . S
H1912 C1920 0.939 . S
H1913 C1921 0.930 . S
H1914 C1924 0.930 . S
H1915 C1925 0.930 . S
C1916 H1910 0.930 . S
C1916 C1917 1.355 . S
C1916 C1918 1.415 . S
C1917 C1916 1.355 . S
C1917 C1919 1.419 . S
C1918 C1916 1.415 . S
C1918 C1923 1.425 . S
C1918 C1925 1.409 . S
C1919 H1911 0.930 . S
C1919 C1917 1.419 . S
C1919 C1920 1.362 . S
C1920 H1912 0.939 . S
C1920 C1919 1.362 . S
C1920 C1923 1.409 . S
C1921 H1913 0.930 . S
C1921 C1922 1.355 . S
C1921 C1923 1.415 . S
C1922 C1921 1.355 . S
C1922 C1924 1.419 . S
C1923 C1918 1.425 . S
C1923 C1920 1.409 . S
C1923 C1921 1.415 . S
C1924 H1914 0.930 . S
C1924 C1922 1.419 . S
C1924 C1925 1.362 . S
C1925 H1915 0.930 . S
C1925 C1918 1.409 . S
C1925 C1924 1.362 . S
H1926 C1932 0.930 . S
H1927 C1935 0.930 . S
H1928 C1936 0.930 . S
H1929 C1937 0.930 . S
H1930 C1940 0.930 . S
H1931 C1941 0.930 . S
C1932 H1926 0.930 . S
C1932 C1933 1.355 . S
C1932 C1934 1.415 . S
C1933 C1932 1.355 . S
C1933 C1935 1.419 1_565 S
C1934 C1932 1.415 . S
C1934 C1939 1.426 . S
C1934 C1941 1.409 . S
C1935 H1927 0.930 . S
C1935 C1933 1.419 1_545 S
C1935 C1936 1.362 . S
C1936 H1928 0.930 . S
C1936 C1935 1.362 . S
C1936 C1939 1.409 1_545 S
C1937 H1929 0.930 . S
C1937 C1938 1.355 1_545 S
C1937 C1939 1.414 1_545 S
C1938 C1937 1.355 1_565 S
C1938 C1940 1.419 . S
C1939 C1934 1.426 . S
C1939 C1936 1.409 1_565 S
C1939 C1937 1.414 1_565 S
C1940 H1930 0.930 . S
C1940 C1938 1.419 . S
C1940 C1941 1.362 . S
C1941 H1931 0.930 . S
C1941 C1934 1.409 . S
C1941 C1940 1.362 . S
H1942 C1948 0.930 1_655 S
H1943 C1951 0.930 . S
H1944 C1952 0.930 . S
H1945 C1953 0.930 . S
H1946 C1956 0.930 . S
H1947 C1957 0.930 . S
C1948 H1942 0.930 1_455 S
C1948 C1949 1.355 . S
C1948 C1950 1.415 . S
C1949 C1948 1.355 . S
C1949 C1951 1.419 . S
C1950 C1948 1.415 . S
C1950 C1955 1.425 . S
C1950 C1957 1.409 1_455 S
C1951 H1943 0.930 . S
C1951 C1949 1.419 . S
C1951 C1952 1.362 . S
C1952 H1944 0.930 . S
C1952 C1951 1.362 . S
C1952 C1955 1.409 . S
C1953 H1945 0.930 . S
C1953 C1954 1.355 . S
C1953 C1955 1.415 . S
C1954 C1953 1.355 . S
C1954 C1956 1.419 1_455 S
C1955 C1950 1.425 . S
C1955 C1952 1.409 . S
C1955 C1953 1.415 . S
C1956 H1946 0.930 . S
C1956 C1954 1.419 1_655 S
C1956 C1957 1.362 . S
C1957 H1947 0.930 . S
C1957 C1950 1.409 1_655 S
C1957 C1956 1.362 . S
H1958 C1964 0.930 . S
H1959 C1967 0.930 . S
H1960 C1968 0.930 . S
H1961 C1969 0.930 . S
H1962 C1972 0.930 . S
H1963 C1973 0.930 . S
C1964 H1958 0.930 . S
C1964 C1965 1.355 . S
C1964 C1966 1.415 . S
C1965 C1964 1.355 . S
C1965 C1967 1.419 . S
C1966 C1964 1.415 . S
C1966 C1971 1.425 . S
C1966 C1973 1.409 . S
C1967 H1959 0.930 . S
C1967 C1965 1.419 . S
C1967 C1968 1.362 . S
C1968 H1960 0.930 . S
C1968 C1967 1.362 . S
C1968 C1971 1.409 . S
C1969 H1961 0.930 . S
C1969 C1970 1.355 . S
C1969 C1971 1.415 . S
C1970 C1969 1.355 . S
C1970 C1972 1.419 . S
C1971 C1966 1.425 . S
C1971 C1968 1.409 . S
C1971 C1969 1.415 . S
C1972 H1962 0.930 . S
C1972 C1970 1.419 . S
C1972 C1973 1.362 . S
C1973 H1963 0.930 . S
C1973 C1966 1.409 . S
C1973 C1972 1.362 . S
H1974 C1980 0.930 . S
H1975 C1983 0.930 . S
H1976 C1984 0.930 . S
H1977 C1985 0.930 . S
H1978 C1988 0.930 . S
H1979 C1989 0.930 . S
C1980 H1974 0.930 . S
C1980 C1981 1.355 . S
C1980 C1982 1.415 . S
C1981 C1980 1.355 . S
C1981 C1983 1.419 . S
C1982 C1980 1.415 . S
C1982 C1987 1.425 . S
C1982 C1989 1.409 . S
C1983 H1975 0.930 . S
C1983 C1981 1.419 . S
C1983 C1984 1.362 . S
C1984 H1976 0.930 . S
C1984 C1983 1.362 . S
C1984 C1987 1.409 . S
C1985 H1977 0.930 . S
C1985 C1986 1.355 . S
C1985 C1987 1.415 . S
C1986 C1985 1.355 . S
C1986 C1988 1.419 . S
C1987 C1982 1.425 . S
C1987 C1984 1.409 . S
C1987 C1985 1.415 . S
C1988 H1978 0.930 . S
C1988 C1986 1.419 . S
C1988 C1989 1.362 . S
C1989 H1979 0.930 . S
C1989 C1982 1.409 . S
C1989 C1988 1.362 . S
H1990 C1996 0.930 . S
H1991 C1999 0.930 . S
H1992 C2000 0.930 . S
H1993 C2001 0.930 . S
H1994 C2004 0.930 . S
H1995 C2005 0.930 . S
C1996 H1990 0.930 . S
C1996 C1997 1.355 . S
C1996 C1998 1.415 . S
C1997 C1996 1.355 . S
C1997 C1999 1.419 . S
C1998 C1996 1.415 . S
C1998 C2003 1.425 . S
C1998 C2005 1.409 . S
C1999 H1991 0.930 . S
C1999 C1997 1.419 . S
C1999 C2000 1.362 . S
C2000 H1992 0.930 . S
C2000 C1999 1.362 . S
C2000 C2003 1.409 . S
C2001 H1993 0.930 . S
C2001 C2002 1.355 . S
C2001 C2003 1.415 . S
C2002 C2001 1.355 . S
C2002 C2004 1.419 . S
C2003 C1998 1.425 . S
C2003 C2000 1.409 . S
C2003 C2001 1.415 . S
C2004 H1994 0.930 . S
C2004 C2002 1.419 . S
C2004 C2005 1.362 . S
C2005 H1995 0.930 . S
C2005 C1998 1.409 . S
C2005 C2004 1.362 . S
H2006 C2012 0.930 . S
H2007 C2015 0.930 . S
H2008 C2016 0.930 . S
H2009 C2017 0.930 . S
H2010 C2020 0.930 . S
H2011 C2021 0.930 . S
C2012 H2006 0.930 . S
C2012 C2013 1.355 . S
C2012 C2014 1.415 . S
C2013 C2012 1.355 . S
C2013 C2015 1.419 . S
C2014 C2012 1.415 . S
C2014 C2019 1.425 . S
C2014 C2021 1.409 . S
C2015 H2007 0.930 . S
C2015 C2013 1.419 . S
C2015 C2016 1.362 . S
C2016 H2008 0.930 . S
C2016 C2015 1.362 . S
C2016 C2019 1.409 . S
C2017 H2009 0.930 . S
C2017 C2018 1.355 . S
C2017 C2019 1.415 . S
C2018 C2017 1.355 . S
C2018 C2020 1.419 . S
C2019 C2014 1.425 . S
C2019 C2016 1.409 . S
C2019 C2017 1.415 . S
C2020 H2010 0.930 . S
C2020 C2018 1.419 . S
C2020 C2021 1.362 . S
C2021 H2011 0.930 . S
C2021 C2014 1.409 . S
C2021 C2020 1.362 . S
H2022 C2028 0.930 . S
H2023 C2031 0.930 . S
H2024 C2032 0.930 . S
H2025 C2033 0.930 . S
H2026 C2036 0.930 . S
H2027 C2037 0.930 . S
C2028 H2022 0.930 . S
C2028 C2029 1.355 . S
C2028 C2030 1.415 . S
C2029 C2028 1.355 . S
C2029 C2031 1.419 1_545 S
C2030 C2028 1.415 . S
C2030 C2035 1.425 . S
C2030 C2037 1.409 . S
C2031 H2023 0.930 . S
C2031 C2029 1.419 1_565 S
C2031 C2032 1.362 . S
C2032 H2024 0.930 . S
C2032 C2031 1.362 . S
C2032 C2035 1.409 1_565 S
C2033 H2025 0.930 . S
C2033 C2034 1.355 1_565 S
C2033 C2035 1.415 1_565 S
C2034 C2033 1.355 1_545 S
C2034 C2036 1.419 . S
C2035 C2030 1.425 . S
C2035 C2032 1.409 1_545 S
C2035 C2033 1.415 1_545 S
C2036 H2026 0.930 . S
C2036 C2034 1.419 . S
C2036 C2037 1.362 . S
C2037 H2027 0.930 . S
C2037 C2030 1.409 . S
C2037 C2036 1.362 . S
H2038 C2044 0.930 . S
H2039 C2047 0.930 . S
H2040 C2048 0.930 . S
H2041 C2049 0.930 . S
H2042 C2052 0.930 . S
H2043 C2053 0.930 . S
C2044 H2038 0.930 . S
C2044 C2045 1.355 . S
C2044 C2046 1.415 . S
C2045 C2044 1.355 . S
C2045 C2047 1.419 . S
C2046 C2044 1.415 . S
C2046 C2051 1.425 . S
C2046 C2053 1.409 . S
C2047 H2039 0.930 . S
C2047 C2045 1.419 . S
C2047 C2048 1.362 . S
C2048 H2040 0.930 . S
C2048 C2047 1.362 . S
C2048 C2051 1.409 . S
C2049 H2041 0.930 . S
C2049 C2050 1.355 . S
C2049 C2051 1.415 . S
C2050 C2049 1.355 . S
C2050 C2052 1.419 . S
C2051 C2046 1.425 . S
C2051 C2048 1.409 . S
C2051 C2049 1.415 . S
C2052 H2042 0.930 . S
C2052 C2050 1.419 . S
C2052 C2053 1.362 . S
C2053 H2043 0.930 . S
C2053 C2046 1.409 . S
C2053 C2052 1.362 . S
H2054 C2060 0.930 . S
H2055 C2063 0.930 . S
H2056 C2064 0.930 . S
H2057 C2065 0.930 . S
H2058 C2068 0.930 . S
H2059 C2069 0.930 . S
C2060 H2054 0.930 . S
C2060 C2061 1.355 . S
C2060 C2062 1.415 . S
C2061 C2060 1.355 . S
C2061 C2063 1.419 . S
C2062 C2060 1.415 . S
C2062 C2067 1.425 . S
C2062 C2069 1.409 . S
C2063 H2055 0.930 . S
C2063 C2061 1.419 . S
C2063 C2064 1.362 . S
C2064 H2056 0.930 . S
C2064 C2063 1.362 . S
C2064 C2067 1.409 . S
C2065 H2057 0.930 . S
C2065 C2066 1.355 . S
C2065 C2067 1.415 . S
C2066 C2065 1.355 . S
C2066 C2068 1.419 . S
C2067 C2062 1.425 . S
C2067 C2064 1.409 . S
C2067 C2065 1.415 . S
C2068 H2058 0.930 . S
C2068 C2066 1.419 . S
C2068 C2069 1.362 . S
C2069 H2059 0.930 . S
C2069 C2062 1.409 . S
C2069 C2068 1.362 . S
H2070 C2076 0.930 . S
H2071 C2079 0.930 . S
H2072 C2080 0.930 . S
H2073 C2081 0.930 . S
H2074 C2084 0.930 . S
H2075 C2085 0.930 . S
C2076 H2070 0.930 . S
C2076 C2077 1.355 . S
C2076 C2078 1.415 . S
C2077 C2076 1.355 . S
C2077 C2079 1.419 . S
C2078 C2076 1.415 . S
C2078 C2083 1.425 . S
C2078 C2085 1.409 . S
C2079 H2071 0.930 . S
C2079 C2077 1.419 . S
C2079 C2080 1.362 . S
C2080 H2072 0.930 . S
C2080 C2079 1.362 . S
C2080 C2083 1.409 . S
C2081 H2073 0.930 . S
C2081 C2082 1.355 . S
C2081 C2083 1.415 . S
C2082 C2081 1.355 . S
C2082 C2084 1.419 . S
C2083 C2078 1.425 . S
C2083 C2080 1.409 . S
C2083 C2081 1.415 . S
C2084 H2074 0.930 . S
C2084 C2082 1.419 . S
C2084 C2085 1.362 . S
C2085 H2075 0.930 . S
C2085 C2078 1.409 . S
C2085 C2084 1.362 . S
H2086 C2092 0.930 . S
H2087 C2095 0.930 . S
H2088 C2096 0.930 . S
H2089 C2097 0.930 . S
H2090 C2100 0.930 . S
H2091 C2101 0.930 . S
C2092 H2086 0.930 . S
C2092 C2093 1.355 . S
C2092 C2094 1.415 . S
C2093 C2092 1.355 . S
C2093 C2095 1.419 . S
C2094 C2092 1.415 . S
C2094 C2099 1.425 . S
C2094 C2101 1.409 . S
C2095 H2087 0.930 . S
C2095 C2093 1.419 . S
C2095 C2096 1.362 . S
C2096 H2088 0.930 . S
C2096 C2095 1.362 . S
C2096 C2099 1.409 . S
C2097 H2089 0.930 . S
C2097 C2098 1.355 . S
C2097 C2099 1.415 . S
C2098 C2097 1.355 . S
C2098 C2100 1.419 . S
C2099 C2094 1.425 . S
C2099 C2096 1.409 . S
C2099 C2097 1.415 . S
C2100 H2090 0.930 . S
C2100 C2098 1.419 . S
C2100 C2101 1.362 . S
C2101 H2091 0.930 . S
C2101 C2094 1.409 . S
C2101 C2100 1.362 . S
H2102 C2108 0.930 . S
H2103 C2111 0.930 . S
H2104 C2112 0.930 . S
H2105 C2113 0.930 . S
H2106 C2116 0.930 . S
H2107 C2117 0.930 . S
C2108 H2102 0.930 . S
C2108 C2109 1.355 . S
C2108 C2110 1.415 . S
C2109 C2108 1.355 . S
C2109 C2111 1.419 . S
C2110 C2108 1.415 . S
C2110 C2115 1.425 . S
C2110 C2117 1.409 . S
C2111 H2103 0.930 . S
C2111 C2109 1.419 . S
C2111 C2112 1.362 . S
C2112 H2104 0.930 . S
C2112 C2111 1.362 . S
C2112 C2115 1.409 . S
C2113 H2105 0.930 . S
C2113 C2114 1.355 . S
C2113 C2115 1.415 . S
C2114 C2113 1.355 . S
C2114 C2116 1.419 . S
C2115 C2110 1.425 . S
C2115 C2112 1.409 . S
C2115 C2113 1.415 . S
C2116 H2106 0.930 . S
C2116 C2114 1.419 . S
C2116 C2117 1.362 . S
C2117 H2107 0.930 . S
C2117 C2110 1.409 . S
C2117 C2116 1.362 . S
H2118 C2124 0.930 . S
H2119 C2127 0.930 . S
H2120 C2128 0.930 . S
H2121 C2129 0.930 . S
H2122 C2132 0.930 . S
H2123 C2133 0.930 . S
C2124 H2118 0.930 . S
C2124 C2125 1.355 . S
C2124 C2126 1.415 . S
C2125 C2124 1.355 . S
C2125 C2127 1.419 . S
C2126 C2124 1.415 . S
C2126 C2131 1.425 . S
C2126 C2133 1.409 . S
C2127 H2119 0.930 . S
C2127 C2125 1.419 . S
C2127 C2128 1.362 . S
C2128 H2120 0.930 . S
C2128 C2127 1.362 . S
C2128 C2131 1.409 . S
C2129 H2121 0.930 . S
C2129 C2130 1.355 . S
C2129 C2131 1.415 . S
C2130 C2129 1.355 . S
C2130 C2132 1.419 . S
C2131 C2126 1.425 . S
C2131 C2128 1.409 . S
C2131 C2129 1.415 . S
C2132 H2122 0.930 . S
C2132 C2130 1.419 . S
C2132 C2133 1.362 . S
C2133 H2123 0.930 . S
C2133 C2126 1.409 . S
C2133 C2132 1.362 . S
H2134 C2140 0.930 . S
H2135 C2143 0.930 . S
H2136 C2144 0.930 . S
H2137 C2145 0.930 . S
H2138 C2148 0.930 . S
H2139 C2149 0.930 . S
C2140 H2134 0.930 . S
C2140 C2141 1.355 . S
C2140 C2142 1.415 . S
C2141 C2140 1.355 . S
C2141 C2143 1.419 . S
C2142 C2140 1.415 . S
C2142 C2147 1.425 . S
C2142 C2149 1.409 . S
C2143 H2135 0.930 . S
C2143 C2141 1.419 . S
C2143 C2144 1.362 . S
C2144 H2136 0.930 . S
C2144 C2143 1.362 . S
C2144 C2147 1.409 . S
C2145 H2137 0.930 . S
C2145 C2146 1.355 . S
C2145 C2147 1.415 . S
C2146 C2145 1.355 . S
C2146 C2148 1.419 . S
C2147 C2142 1.425 . S
C2147 C2144 1.409 . S
C2147 C2145 1.415 . S
C2148 H2138 0.930 . S
C2148 C2146 1.419 . S
C2148 C2149 1.362 . S
C2149 H2139 0.930 . S
C2149 C2142 1.409 . S
C2149 C2148 1.362 . S
H2150 C2156 0.930 . S
H2151 C2159 0.930 . S
H2152 C2160 0.930 . S
H2153 C2161 0.930 . S
H2154 C2164 0.930 . S
H2155 C2165 0.930 . S
C2156 H2150 0.930 . S
C2156 C2157 1.355 . S
C2156 C2158 1.415 . S
C2157 C2156 1.355 . S
C2157 C2159 1.419 . S
C2158 C2156 1.415 . S
C2158 C2163 1.425 . S
C2158 C2165 1.409 . S
C2159 H2151 0.930 . S
C2159 C2157 1.419 . S
C2159 C2160 1.362 . S
C2160 H2152 0.930 . S
C2160 C2159 1.362 . S
C2160 C2163 1.409 . S
C2161 H2153 0.930 . S
C2161 C2162 1.355 . S
C2161 C2163 1.415 . S
C2162 C2161 1.355 . S
C2162 C2164 1.419 . S
C2163 C2158 1.425 . S
C2163 C2160 1.409 . S
C2163 C2161 1.415 . S
C2164 H2154 0.930 . S
C2164 C2162 1.419 . S
C2164 C2165 1.362 . S
C2165 H2155 0.930 . S
C2165 C2158 1.409 . S
C2165 C2164 1.362 . S
H2166 C2172 0.930 . S
H2167 C2175 0.930 . S
H2168 C2176 0.930 . S
H2169 C2177 0.930 . S
H2170 C2180 0.930 . S
H2171 C2181 0.930 . S
C2172 H2166 0.930 . S
C2172 C2173 1.355 . S
C2172 C2174 1.415 . S
C2173 C2172 1.355 . S
C2173 C2175 1.419 1_655 S
C2174 C2172 1.415 . S
C2174 C2179 1.425 1_655 S
C2174 C2181 1.409 . S
C2175 H2167 0.930 . S
C2175 C2173 1.419 1_455 S
C2175 C2176 1.362 . S
C2176 H2168 0.930 . S
C2176 C2175 1.362 . S
C2176 C2179 1.409 . S
C2177 H2169 0.930 . S
C2177 C2178 1.355 1_455 S
C2177 C2179 1.415 . S
C2178 C2177 1.355 1_655 S
C2178 C2180 1.419 . S
C2179 C2174 1.425 1_455 S
C2179 C2176 1.409 . S
C2179 C2177 1.415 . S
C2180 H2170 0.930 . S
C2180 C2178 1.419 . S
C2180 C2181 1.362 . S
C2181 H2171 0.930 . S
C2181 C2174 1.409 . S
C2181 C2180 1.362 . S
H2182 C2188 0.930 . S
H2183 C2191 0.930 . S
H2184 C2192 0.930 . S
H2185 C2193 0.930 . S
H2186 C2196 0.930 . S
H2187 C2197 0.930 . S
C2188 H2182 0.930 . S
C2188 C2189 1.355 . S
C2188 C2190 1.415 . S
C2189 C2188 1.355 . S
C2189 C2191 1.419 . S
C2190 C2188 1.415 . S
C2190 C2195 1.425 . S
C2190 C2197 1.409 . S
C2191 H2183 0.930 . S
C2191 C2189 1.419 . S
C2191 C2192 1.362 . S
C2192 H2184 0.930 . S
C2192 C2191 1.362 . S
C2192 C2195 1.409 . S
C2193 H2185 0.930 . S
C2193 C2194 1.355 . S
C2193 C2195 1.415 . S
C2194 C2193 1.355 . S
C2194 C2196 1.419 . S
C2195 C2190 1.425 . S
C2195 C2192 1.409 . S
C2195 C2193 1.415 . S
C2196 H2186 0.930 . S
C2196 C2194 1.419 . S
C2196 C2197 1.362 . S
C2197 H2187 0.930 . S
C2197 C2190 1.409 . S
C2197 C2196 1.362 . S
H2198 C2204 0.930 . S
H2199 C2207 0.930 . S
H2200 C2208 0.930 . S
H2201 C2209 0.930 . S
H2202 C2212 0.951 1_565 S
H2203 C2213 0.930 1_565 S
C2204 H2198 0.930 . S
C2204 C2205 1.355 . S
C2204 C2206 1.415 . S
C2205 C2204 1.355 . S
C2205 C2207 1.419 . S
C2206 C2204 1.415 . S
C2206 C2211 1.425 . S
C2206 C2213 1.409 . S
C2207 H2199 0.930 . S
C2207 C2205 1.419 . S
C2207 C2208 1.362 . S
C2208 H2200 0.930 . S
C2208 C2207 1.362 . S
C2208 C2211 1.409 . S
C2209 H2201 0.930 . S
C2209 C2210 1.355 . S
C2209 C2211 1.415 . S
C2210 C2209 1.355 . S
C2210 C2212 1.420 . S
C2211 C2206 1.425 . S
C2211 C2208 1.409 . S
C2211 C2209 1.415 . S
C2212 H2202 0.951 1_545 S
C2212 C2210 1.420 . S
C2212 C2213 1.344 . S
C2213 H2203 0.930 1_545 S
C2213 C2206 1.409 . S
C2213 C2212 1.344 . S
C1069 C10 1.559 1_455 S
C1074 C670 1.547 . S
C1085 C23 1.607 . S
C1090 C716 1.608 . S
C1106 C748 1.565 . S
C1101 C29 1.554 . S
C1117 C30 1.550 1_565 S
C1122 C801 1.548 . S
C1133 C5 1.581 . S
C1138 C847 1.566 . S
C1149 C18 1.616 . S
C1154 C886 1.614 . S
C1165 C49 1.549 . S
C1170 C840 1.547 . S
C1186 C893 1.597 . S
C1181 C62 1.603 . S
C1202 C794 1.557 . S
C1197 C70 1.553 . S
C1213 C75 1.555 . S
C1218 C755 1.535 . S
C1234 C649 1.569 . S
C1229 C44 1.553 . S
C1245 C57 1.609 . S
C1250 C695 1.614 . S
C1261 C88 1.648 . S
C1266 C925 1.653 . S
C1277 C101 1.649 . S
C1282 C992 1.614 . S
C1298 C1038 1.619 . S
C1293 C107 1.625 . S
C1309 C108 1.612 . S
C1314 C249 1.586 . S
C1325 C83 1.627 . S
C1330 C295 1.615 . S
C1341 C96 1.628 . S
C1346 C341 1.616 . S
C1357 C127 1.607 . S
C1362 C288 1.574 . S
C1373 C140 1.631 . S
C1378 C334 1.629 . S
C1394 C242 1.600 . S
C1389 C146 1.632 . S
C1410 C1017 1.612 . S
C1405 C147 1.645 . S
C1426 C946 1.639 . S
C1421 C122 1.631 . S
C1442 C971 1.642 . S
C1437 C135 1.648 . S
C1453 C160 1.613 . S
C1458 C373 1.592 . S
C1469 C173 1.631 . S
C1474 C426 1.626 . S
C1485 C185 1.632 . S
C1490 C472 1.610 . S
C1501 C186 1.641 . S
C1506 C518 1.633 . S
C1522 C571 1.637 . S
C1517 C159 1.645 . S
C1538 C617 1.618 . S
C1533 C172 1.651 . S
C1554 C564 1.637 . S
C1549 C205 1.645 . S
C1570 C610 1.613 . S
C1565 C218 1.648 . S
C1581 C224 1.633 . S
C1586 C525 1.610 . S
C1602 C479 1.585 . S
C1597 C225 1.607 . S
C1613 C200 1.639 . S
C1618 C394 1.624 . S
C1634 C433 1.633 . S
C1629 C213 1.638 . S
C1650 C256 1.539 . S
C1645 C4 1.536 . S
C1661 C17 1.501 . S
C1666 C302 1.508 . S
C1682 C348 1.516 . S
C1677 C31 1.539 . S
C1698 C380 1.526 . S
C1693 C36 1.531 . S
C1714 C419 1.540 . S
C1709 C3 1.546 . S
C1730 C465 1.472 . S
C1725 C16 1.504 . S
C1741 C43 1.538 . S
C1746 C486 1.549 . S
C1757 C56 1.500 . S
C1762 C387 1.502 . S
C1773 C68 1.534 . S
C1778 C440 1.534 . S
C1789 C69 1.537 . S
C1794 C281 1.552 . S
C1810 C327 1.543 . S
C1805 C42 1.539 . S
C1821 C55 1.507 . S
C1826 C235 1.488 . S
C1842 C511 1.531 . S
C1837 C82 1.529 . S
C1853 C95 1.553 . S
C1858 C578 1.560 . S
C1869 C109 1.568 . S
C1874 C624 1.572 . S
C1890 C663 1.478 . S
C1885 C114 1.476 . S
C1901 C81 1.538 . S
C1906 C709 1.518 . S
C1917 C94 1.478 . S
C1922 C741 1.482 . S
C1933 C121 1.474 . S
C1938 C762 1.476 . S
C1949 C134 1.469 . S
C1954 C656 1.460 . S
C1970 C702 1.515 . S
C1965 C148 1.535 . S
C1981 C153 1.533 . S
C1986 C557 1.514 . S
C1997 C120 1.570 . S
C2002 C603 1.566 . S
C2018 C532 1.554 . S
C2013 C133 1.560 . S
C2034 C808 1.463 . S
C2029 C166 1.474 . S
C2045 C179 1.467 . S
C2050 C854 1.458 . S
C2061 C187 1.535 . S
C2066 C879 1.537 . S
C2082 C932 1.532 . S
C2077 C192 1.529 . S
C2098 C985 1.574 . S
C2093 C161 1.572 . S
C2109 C174 1.562 . S
C2114 C1031 1.552 . S
C2125 C199 1.533 . S
C2130 C1024 1.530 . S
C2141 C212 1.552 . S
C2146 C939 1.556 . S
C2162 C978 1.549 . S
C2157 C226 1.565 . S
C2178 C833 1.479 . S
C2173 C231 1.471 . S
C2194 C900 1.527 . S
C2189 C198 1.541 . S
C2205 C211 1.474 . S
C2210 C787 1.486 . S
