# Generated by pormake.
# Topology ctn, (3,4)-cn, num edge types: 1
# Building blocks:
#     Node 0, Type 0, BuildingBlock: KAKCAD_clean_linker_0, # of connection points: 3
#     Node 1, Type 0, BuildingBlock: KAKCAD_clean_linker_0, # of connection points: 3
#     Node 2, Type 0, BuildingBlock: KAKCAD_clean_linker_0, # of connection points: 3
#     Node 3, Type 0, BuildingBlock: KAKCAD_clean_linker_0, # of connection points: 3
#     Node 4, Type 0, BuildingBlock: KAKCAD_clean_linker_0, # of connection points: 3
#     Node 5, Type 0, BuildingBlock: KAKCAD_clean_linker_0, # of connection points: 3
#     Node 6, Type 0, BuildingBlock: KAKCAD_clean_linker_0, # of connection points: 3
#     Node 7, Type 0, BuildingBlock: KAKCAD_clean_linker_0, # of connection points: 3
#     Node 8, Type 0, BuildingBlock: KAKCAD_clean_linker_0, # of connection points: 3
#     Node 9, Type 0, BuildingBlock: KAKCAD_clean_linker_0, # of connection points: 3
#     Node 10, Type 0, BuildingBlock: KAKCAD_clean_linker_0, # of connection points: 3
#     Node 11, Type 0, BuildingBlock: KAKCAD_clean_linker_0, # of connection points: 3
#     Node 12, Type 0, BuildingBlock: KAKCAD_clean_linker_0, # of connection points: 3
#     Node 13, Type 0, BuildingBlock: KAKCAD_clean_linker_0, # of connection points: 3
#     Node 14, Type 0, BuildingBlock: KAKCAD_clean_linker_0, # of connection points: 3
#     Node 15, Type 0, BuildingBlock: KAKCAD_clean_linker_0, # of connection points: 3
#     Node 16, Type 1, BuildingBlock: UXUYUI_clean_sbu_0, # of connection points: 4
#     Node 17, Type 1, BuildingBlock: UXUYUI_clean_sbu_0, # of connection points: 4
#     Node 18, Type 1, BuildingBlock: UXUYUI_clean_sbu_0, # of connection points: 4
#     Node 19, Type 1, BuildingBlock: UXUYUI_clean_sbu_0, # of connection points: 4
#     Node 20, Type 1, BuildingBlock: UXUYUI_clean_sbu_0, # of connection points: 4
#     Node 21, Type 1, BuildingBlock: UXUYUI_clean_sbu_0, # of connection points: 4
#     Node 22, Type 1, BuildingBlock: UXUYUI_clean_sbu_0, # of connection points: 4
#     Node 23, Type 1, BuildingBlock: UXUYUI_clean_sbu_0, # of connection points: 4
#     Node 24, Type 1, BuildingBlock: UXUYUI_clean_sbu_0, # of connection points: 4
#     Node 25, Type 1, BuildingBlock: UXUYUI_clean_sbu_0, # of connection points: 4
#     Node 26, Type 1, BuildingBlock: UXUYUI_clean_sbu_0, # of connection points: 4
#     Node 27, Type 1, BuildingBlock: UXUYUI_clean_sbu_0, # of connection points: 4
#     Edge 28, Type (0, 1), BuildingBlock: OJICUG_clean_linker_0, # of connection points: 2
#     Edge 29, Type (0, 1), BuildingBlock: OJICUG_clean_linker_0, # of connection points: 2
#     Edge 30, Type (0, 1), BuildingBlock: OJICUG_clean_linker_0, # of connection points: 2
#     Edge 31, Type (0, 1), BuildingBlock: OJICUG_clean_linker_0, # of connection points: 2
#     Edge 32, Type (0, 1), BuildingBlock: OJICUG_clean_linker_0, # of connection points: 2
#     Edge 33, Type (0, 1), BuildingBlock: OJICUG_clean_linker_0, # of connection points: 2
#     Edge 34, Type (0, 1), BuildingBlock: OJICUG_clean_linker_0, # of connection points: 2
#     Edge 35, Type (0, 1), BuildingBlock: OJICUG_clean_linker_0, # of connection points: 2
#     Edge 36, Type (0, 1), BuildingBlock: OJICUG_clean_linker_0, # of connection points: 2
#     Edge 37, Type (0, 1), BuildingBlock: OJICUG_clean_linker_0, # of connection points: 2
#     Edge 38, Type (0, 1), BuildingBlock: OJICUG_clean_linker_0, # of connection points: 2
#     Edge 39, Type (0, 1), BuildingBlock: OJICUG_clean_linker_0, # of connection points: 2
#     Edge 40, Type (0, 1), BuildingBlock: OJICUG_clean_linker_0, # of connection points: 2
#     Edge 41, Type (0, 1), BuildingBlock: OJICUG_clean_linker_0, # of connection points: 2
#     Edge 42, Type (0, 1), BuildingBlock: OJICUG_clean_linker_0, # of connection points: 2
#     Edge 43, Type (0, 1), BuildingBlock: OJICUG_clean_linker_0, # of connection points: 2
#     Edge 44, Type (0, 1), BuildingBlock: OJICUG_clean_linker_0, # of connection points: 2
#     Edge 45, Type (0, 1), BuildingBlock: OJICUG_clean_linker_0, # of connection points: 2
#     Edge 46, Type (0, 1), BuildingBlock: OJICUG_clean_linker_0, # of connection points: 2
#     Edge 47, Type (0, 1), BuildingBlock: OJICUG_clean_linker_0, # of connection points: 2
#     Edge 48, Type (0, 1), BuildingBlock: OJICUG_clean_linker_0, # of connection points: 2
#     Edge 49, Type (0, 1), BuildingBlock: OJICUG_clean_linker_0, # of connection points: 2
#     Edge 50, Type (0, 1), BuildingBlock: OJICUG_clean_linker_0, # of connection points: 2
#     Edge 51, Type (0, 1), BuildingBlock: OJICUG_clean_linker_0, # of connection points: 2
#     Edge 52, Type (0, 1), BuildingBlock: OJICUG_clean_linker_0, # of connection points: 2
#     Edge 53, Type (0, 1), BuildingBlock: OJICUG_clean_linker_0, # of connection points: 2
#     Edge 54, Type (0, 1), BuildingBlock: OJICUG_clean_linker_0, # of connection points: 2
#     Edge 55, Type (0, 1), BuildingBlock: OJICUG_clean_linker_0, # of connection points: 2
#     Edge 56, Type (0, 1), BuildingBlock: OJICUG_clean_linker_0, # of connection points: 2
#     Edge 57, Type (0, 1), BuildingBlock: OJICUG_clean_linker_0, # of connection points: 2
#     Edge 58, Type (0, 1), BuildingBlock: OJICUG_clean_linker_0, # of connection points: 2
#     Edge 59, Type (0, 1), BuildingBlock: OJICUG_clean_linker_0, # of connection points: 2
#     Edge 60, Type (0, 1), BuildingBlock: OJICUG_clean_linker_0, # of connection points: 2
#     Edge 61, Type (0, 1), BuildingBlock: OJICUG_clean_linker_0, # of connection points: 2
#     Edge 62, Type (0, 1), BuildingBlock: OJICUG_clean_linker_0, # of connection points: 2
#     Edge 63, Type (0, 1), BuildingBlock: OJICUG_clean_linker_0, # of connection points: 2
#     Edge 64, Type (0, 1), BuildingBlock: OJICUG_clean_linker_0, # of connection points: 2
#     Edge 65, Type (0, 1), BuildingBlock: OJICUG_clean_linker_0, # of connection points: 2
#     Edge 66, Type (0, 1), BuildingBlock: OJICUG_clean_linker_0, # of connection points: 2
#     Edge 67, Type (0, 1), BuildingBlock: OJICUG_clean_linker_0, # of connection points: 2
#     Edge 68, Type (0, 1), BuildingBlock: OJICUG_clean_linker_0, # of connection points: 2
#     Edge 69, Type (0, 1), BuildingBlock: OJICUG_clean_linker_0, # of connection points: 2
#     Edge 70, Type (0, 1), BuildingBlock: OJICUG_clean_linker_0, # of connection points: 2
#     Edge 71, Type (0, 1), BuildingBlock: OJICUG_clean_linker_0, # of connection points: 2
#     Edge 72, Type (0, 1), BuildingBlock: OJICUG_clean_linker_0, # of connection points: 2
#     Edge 73, Type (0, 1), BuildingBlock: OJICUG_clean_linker_0, # of connection points: 2
#     Edge 74, Type (0, 1), BuildingBlock: OJICUG_clean_linker_0, # of connection points: 2
#     Edge 75, Type (0, 1), BuildingBlock: OJICUG_clean_linker_0, # of connection points: 2
# Relax obj value: 0.000
# Max RMSD: 0.005
# Mean RMSD: 0.004
data_MOF--net-ctn--node1-UXUYUI_clean_sbu_0--node2-KAKCAD_clean_linker_0--edge1-OJICUG_clean_linker_0
_symmetry_space_group_name_H-M    P1
_symmetry_Int_Tables_number       1
_symmetry_cell_setting            triclinic
loop_
_symmetry_equiv_pos_as_xyz
'x, y, z'
_cell_length_a     65.569672
_cell_length_b     65.524471
_cell_length_c     65.4859
_cell_angle_alpha  90.106348
_cell_angle_beta   90.311168
_cell_angle_gamma 90.276126
loop_
_atom_site_label
_atom_site_type_symbol
_atom_site_fract_x
_atom_site_fract_y
_atom_site_fract_z
_atom_type_partial_charge
C0 C 0.04249 0.09664 0.98446 0.0
C1 C 0.03601 0.11571 0.99181 0.0
C2 C 0.04547 0.08029 0.99781 0.0
C3 C 0.04223 0.08261 0.0189 0.0
C4 C 0.03579 0.10169 0.02627 0.0
C5 C 0.03264 0.11799 0.01289 0.0
C6 C 0.04563 0.06522 0.03314 0.0
C7 C 0.0619 0.05167 0.03003 0.0
C8 C 0.06519 0.03518 0.04329 0.0
C9 C 0.05202 0.03222 0.05985 0.0
C10 C 0.03568 0.04555 0.06323 0.0
C11 C 0.03262 0.06203 0.04987 0.0
C12 C 0.02164 0.04211 0.08057 0.0
C13 C 0.01315 0.02269 0.08398 0.0
C14 C 0.01661 0.0582 0.0938 0.0
C15 C 1.00347 0.05489 0.11022 0.0
C16 C 0.99485 0.03551 0.11353 0.0
C17 C 0.08242 0.02106 0.0398 0.0
C18 C 0.08566 0.01261 0.02037 0.0
C19 C 0.09575 0.01599 0.05586 0.0
C20 C 0.11212 1.00283 0.05249 0.0
C21 C 0.11526 0.99425 0.03308 0.0
C22 C 0.10183 0.99921 0.01707 0.0
C23 C 0.99977 0.01946 0.10021 0.0
H24 H 0.04549 0.09434 0.96838 0.0
H25 H 0.05016 0.06577 0.99152 0.0
H26 H 0.03337 0.10414 0.04243 0.0
H27 H 0.02738 0.13235 0.0191 0.0
H28 H 0.07239 0.05418 0.01754 0.0
H29 H 0.0197 0.072 0.05222 0.0
H30 H 0.05446 0.01948 0.07011 0.0
H31 H 0.01668 0.01005 0.07392 0.0
H32 H 0.02304 0.07329 0.09156 0.0
H33 H 0.99982 0.06756 0.12019 0.0
H34 H 0.07552 0.01619 0.00776 0.0
H35 H 0.09365 0.0224 0.07096 0.0
H36 H 0.99343 1.00434 0.10249 0.0
H37 H 0.104 0.9929 1.00194 0.0
H38 H 0.12218 0.99915 0.06512 0.0
C39 C 0.35139 0.74672 0.26154 0.0
C40 C 0.36285 0.73032 0.26921 0.0
C41 C 0.33487 0.74324 0.2484 0.0
C42 C 0.32942 0.72327 0.24257 0.0
C43 C 0.34088 0.70687 0.25023 0.0
C44 C 0.35738 0.71035 0.26341 0.0
C45 C 0.31184 0.71958 0.22855 0.0
C46 C 0.30852 0.7324 0.21169 0.0
C47 C 0.29183 0.72925 0.19847 0.0
C48 C 0.2785 0.7128 0.20218 0.0
C49 C 0.28167 0.69966 0.21883 0.0
C50 C 0.29832 0.70326 0.23199 0.0
C51 C 0.26763 0.68214 0.2225 0.0
C52 C 0.24645 0.68426 0.21983 0.0
C53 C 0.27535 0.66311 0.22862 0.0
C54 C 0.26222 0.64662 0.23204 0.0
C55 C 0.24106 0.64874 0.22933 0.0
C56 C 0.28835 0.74316 0.18084 0.0
C57 C 0.29185 0.76427 0.18281 0.0
C58 C 0.2815 0.73548 0.16191 0.0
C59 C 0.27819 0.74859 0.14542 0.0
C60 C 0.28183 0.76965 0.14741 0.0
C61 C 0.28872 0.77734 0.16627 0.0
C62 C 0.23332 0.66773 0.22316 0.0
H63 H 0.35531 0.76231 0.26551 0.0
H64 H 0.32623 0.75621 0.24296 0.0
H65 H 0.33723 0.69131 0.24589 0.0
H66 H 0.36573 0.69735 0.2692 0.0
H67 H 0.31926 0.74461 0.20858 0.0
H68 H 0.30047 0.69362 0.24524 0.0
H69 H 0.26562 0.7102 0.19206 0.0
H70 H 0.23995 0.69878 0.21544 0.0
H71 H 0.29161 0.66085 0.23049 0.0
H72 H 0.26869 0.6321 0.23648 0.0
H73 H 0.29677 0.77078 0.19724 0.0
H74 H 0.27897 0.71928 0.15971 0.0
H75 H 0.21706 0.66992 0.22122 0.0
H76 H 0.29139 0.79355 0.16833 0.0
H77 H 0.27311 0.74221 0.13098 0.0
C78 C 1.00166 0.48483 0.11531 0.0
C79 C 0.02278 0.48215 0.11296 0.0
C80 C 0.98831 0.48148 0.09891 0.0
C81 C 0.99578 0.4754 0.07976 0.0
C82 C 0.01692 0.47281 0.0774 0.0
C83 C 0.03025 0.47612 0.09381 0.0
C84 C 0.98163 0.47183 0.06227 0.0
C85 C 0.96515 0.48502 0.05874 0.0
C86 C 0.95199 0.48198 0.04202 0.0
C87 C 0.95542 0.46555 0.0287 0.0
C88 C 0.97164 0.45199 0.0321 0.0
C89 C 0.98463 0.45527 0.04896 0.0
C90 C 0.97492 0.43432 0.01816 0.0
C91 C 0.95825 0.42326 0.01016 0.0
C92 C 0.99477 0.42832 0.01281 0.0
C93 C 0.99786 0.41162 0.9999 0.0
C94 C 0.98118 0.40065 0.99189 0.0
C95 C 0.93461 0.49598 0.03848 0.0
C96 C 0.92171 0.50142 0.05465 0.0
C97 C 0.93074 0.5039 0.01892 0.0
C98 C 0.91434 0.51706 0.01562 0.0
C99 C 0.90135 0.52239 0.03175 0.0
C100 C 0.90517 0.5144 0.0513 0.0
C101 C 0.96134 0.40667 0.9971 0.0
H102 H 0.99539 0.48917 0.12995 0.0
H103 H 0.9721 0.48332 0.10133 0.0
H104 H 0.02322 0.46848 0.06277 0.0
H105 H 0.04646 0.47421 0.09142 0.0
H106 H 0.96286 0.49803 0.06871 0.0
H107 H 0.99684 0.44461 0.05204 0.0
H108 H 0.94537 0.46332 0.01569 0.0
H109 H 0.94277 0.42719 0.01423 0.0
H110 H 0.00796 0.43668 0.01839 0.0
H111 H 0.01331 0.40748 0.99593 0.0
H112 H 0.92426 0.49542 0.06985 0.0
H113 H 0.94052 0.50007 0.00622 0.0
H114 H 0.9482 0.39833 0.99137 0.0
H115 H 0.89551 0.51838 0.06405 0.0
H116 H 0.91166 0.52288 1.00037 0.0
C117 C 0.71059 0.75072 0.15365 0.0
C118 C 0.73036 0.74381 0.14927 0.0
C119 C 0.70721 0.76377 0.17019 0.0
C120 C 0.72354 0.77034 0.18258 0.0
C121 C 0.74331 0.76347 0.17817 0.0
C122 C 0.74667 0.75028 0.16174 0.0
C123 C 0.72001 0.78445 0.19996 0.0
C124 C 0.70379 0.78105 0.21346 0.0
C125 C 0.70022 0.79441 0.22989 0.0
C126 C 0.7133 0.8113 0.23268 0.0
C127 C 0.72974 0.81487 0.21942 0.0
C128 C 0.73288 0.80137 0.20305 0.0
C129 C 0.74366 0.83263 0.22266 0.0
C130 C 0.73603 0.85163 0.22903 0.0
C131 C 0.76476 0.8307 0.21941 0.0
C132 C 0.77786 0.84735 0.22231 0.0
C133 C 0.77021 0.86628 0.22872 0.0
C134 C 0.68292 0.79067 0.24414 0.0
C135 C 0.66425 0.78273 0.23686 0.0
C136 C 0.68488 0.79502 0.26513 0.0
C137 C 0.66857 0.79172 0.27841 0.0
C138 C 0.65005 0.78367 0.27108 0.0
C139 C 0.64807 0.77912 0.25021 0.0
C140 C 0.74918 0.86824 0.23212 0.0
H141 H 0.6977 0.74586 0.1444 0.0
H142 H 0.69183 0.76894 0.17314 0.0
H143 H 0.75617 0.76816 0.18754 0.0
H144 H 0.76209 0.74533 0.15864 0.0
H145 H 0.69426 0.76764 0.21141 0.0
H146 H 0.7451 0.80428 0.19235 0.0
H147 H 0.71071 0.82172 0.24525 0.0
H148 H 0.71985 0.8538 0.23134 0.0
H149 H 0.77124 0.81622 0.21487 0.0
H150 H 0.79405 0.84531 0.21985 0.0
H151 H 0.66197 0.77955 0.22077 0.0
H152 H 0.6991 0.80074 0.27142 0.0
H153 H 0.74283 0.88272 0.23683 0.0
H154 H 0.63385 0.77311 0.24414 0.0
H155 H 0.67054 0.79515 0.29449 0.0
C156 C 0.98639 0.97413 0.41525 0.0
C157 C 0.99406 0.98098 0.39643 0.0
C158 C 0.9995 0.97052 0.43174 0.0
C159 C 0.02066 0.97351 0.42981 0.0
C160 C 0.02834 0.98029 0.41098 0.0
C161 C 0.01521 0.98406 0.39454 0.0
C162 C 0.03466 0.96958 0.44736 0.0
C163 C 0.03115 0.95304 0.46058 0.0
C164 C 0.04434 0.9492 0.47708 0.0
C165 C 0.06121 0.96208 0.48039 0.0
C166 C 0.06494 0.97872 0.46743 0.0
C167 C 0.05161 0.98235 0.45098 0.0
C168 C 0.08264 0.99244 0.47119 0.0
C169 C 0.08694 0.99971 0.49095 0.0
C170 C 0.0953 0.99843 0.45502 0.0
C171 C 0.11194 0.01141 0.45853 0.0
C172 C 0.1162 0.01885 0.47828 0.0
C173 C 0.04049 0.93173 0.49089 0.0
C174 C 0.02104 0.92858 0.49925 0.0
C175 C 0.05626 0.91816 0.49591 0.0
C176 C 0.05264 0.90171 0.50898 0.0
C177 C 0.03324 0.8987 0.51752 0.0
C178 C 0.01749 0.91231 0.51256 0.0
C179 C 0.10347 0.01283 0.49444 0.0
H180 H 0.97024 0.97132 0.41723 0.0
H181 H 0.99299 0.96557 0.44607 0.0
H182 H 0.04456 0.98251 0.40882 0.0
H183 H 0.02167 0.98957 0.38039 0.0
H184 H 0.01843 0.94277 0.45777 0.0
H185 H 0.05419 0.9955 0.4413 0.0
H186 H 0.07143 0.95916 0.4931 0.0
H187 H 0.07728 0.99555 0.50366 0.0
H188 H 0.0925 0.99285 0.43967 0.0
H189 H 0.1216 0.0154 0.44578 0.0
H190 H 0.00865 0.93889 0.49571 0.0
H191 H 0.07136 0.92018 0.48957 0.0
H192 H 0.10604 0.01852 0.50978 0.0
H193 H 1.00237 0.91024 0.51884 0.0
H194 H 0.06508 0.89151 0.51266 0.0
C195 C 0.15278 0.71032 0.74886 0.0
C196 C 0.14862 0.73006 0.74153 0.0
C197 C 0.16935 0.70687 0.76189 0.0
C198 C 0.18205 0.7231 0.76806 0.0
C199 C 0.17793 0.74282 0.76081 0.0
C200 C 0.16146 0.74625 0.74763 0.0
C201 C 0.19949 0.7195 0.78212 0.0
C202 C 0.21273 0.70304 0.77887 0.0
C203 C 0.22928 0.69949 0.79213 0.0
C204 C 0.23243 0.71274 0.80881 0.0
C205 C 0.21936 0.72933 0.81229 0.0
C206 C 0.2029 0.73253 0.79884 0.0
C207 C 0.22282 0.7433 0.82995 0.0
C208 C 0.22922 0.73566 0.84899 0.0
C209 C 0.21969 0.76444 0.82791 0.0
C210 C 0.22272 0.77755 0.84451 0.0
C211 C 0.22915 0.76989 0.86349 0.0
C212 C 0.2433 0.68203 0.78851 0.0
C213 C 0.2357 0.66314 0.78151 0.0
C214 C 0.26441 0.68409 0.79205 0.0
C215 C 0.27752 0.66765 0.78881 0.0
C216 C 0.26988 0.64885 0.78175 0.0
C217 C 0.24885 0.64678 0.77806 0.0
C218 C 0.23243 0.74882 0.86554 0.0
H219 H 0.14304 0.69754 0.74479 0.0
H220 H 0.17203 0.69155 0.76745 0.0
H221 H 0.18762 0.75558 0.7651 0.0
H222 H 0.15899 0.76158 0.74202 0.0
H223 H 0.2104 0.6933 0.76566 0.0
H224 H 0.19237 0.74491 0.80165 0.0
H225 H 0.24512 0.71015 0.81911 0.0
H226 H 0.23144 0.71945 0.85124 0.0
H227 H 0.21512 0.77092 0.8134 0.0
H228 H 0.22034 0.79376 0.84241 0.0
H229 H 0.21951 0.66086 0.77896 0.0
H230 H 0.27088 0.69849 0.79706 0.0
H231 H 0.23715 0.74246 0.88007 0.0
H232 H 0.24251 0.63237 0.77285 0.0
H233 H 0.2937 0.66976 0.79152 0.0
C234 C 0.9801 0.61841 0.49789 0.0
C235 C 0.97694 0.61649 0.51903 0.0
C236 C 0.97645 0.60194 0.48476 0.0
C237 C 0.96972 0.58305 0.49244 0.0
C238 C 0.96658 0.58112 0.51358 0.0
C239 C 0.97006 0.59764 0.52668 0.0
C240 C 0.96612 0.56541 0.47848 0.0
C241 C 0.97918 0.56189 0.46189 0.0
C242 C 0.97599 0.54522 0.44873 0.0
C243 C 0.95954 0.53192 0.45225 0.0
C244 C 0.94629 0.53519 0.46871 0.0
C245 C 0.94968 0.55195 0.48173 0.0
C246 C 0.92886 0.52114 0.47226 0.0
C247 C 0.91621 0.51498 0.45598 0.0
C248 C 0.92476 0.51378 0.49195 0.0
C249 C 0.90843 0.50043 0.49529 0.0
C250 C 0.89569 0.49427 0.47902 0.0
C251 C 0.98998 0.54164 0.4314 0.0
C252 C 0.99533 0.55771 0.41827 0.0
C253 C 0.99817 0.52217 0.42795 0.0
C254 C 0.0116 0.51888 0.41179 0.0
C255 C 0.01689 0.53494 0.39861 0.0
C256 C 0.00855 0.55436 0.40195 0.0
C257 C 0.89977 0.50178 0.45933 0.0
H258 H 0.98562 0.63259 0.49146 0.0
H259 H 0.97879 0.60409 0.46855 0.0
H260 H 0.96164 0.56676 0.52008 0.0
H261 H 0.96718 0.59565 0.54283 0.0
H262 H 0.99221 0.57181 0.45947 0.0
H263 H 0.93917 0.55476 0.49412 0.0
H264 H 0.95706 0.519 0.44217 0.0
H265 H 0.91885 0.52064 0.44068 0.0
H266 H 0.93442 0.51808 0.50475 0.0
H267 H 0.906 0.4947 0.51058 0.0
H268 H 0.98913 0.57284 0.42053 0.0
H269 H 0.9944 0.50955 0.43793 0.0
H270 H 0.89009 0.49769 0.4465 0.0
H271 H 0.01248 0.56703 0.3921 0.0
H272 H 0.01771 0.50373 0.40947 0.0
C273 C 0.80563 0.75386 0.86128 0.0
C274 C 0.78602 0.74621 0.86559 0.0
C275 C 0.80881 0.76678 0.84463 0.0
C276 C 0.79243 0.77253 0.83202 0.0
C277 C 0.77283 0.76502 0.83633 0.0
C278 C 0.76967 0.75194 0.85285 0.0
C279 C 0.79575 0.78629 0.81437 0.0
C280 C 0.81185 0.78277 0.80079 0.0
C281 C 0.81495 0.79556 0.78386 0.0
C282 C 0.80156 0.81197 0.78061 0.0
C283 C 0.78537 0.81583 0.7941 0.0
C284 C 0.78271 0.80288 0.811 0.0
C285 C 0.77131 0.83335 0.79064 0.0
C286 C 0.77853 0.85186 0.78239 0.0
C287 C 0.7505 0.83177 0.79569 0.0
C288 C 0.7374 0.84829 0.79288 0.0
C289 C 0.74467 0.86662 0.78457 0.0
C290 C 0.83217 0.79176 0.76961 0.0
C291 C 0.85127 0.7854 0.77709 0.0
C292 C 0.8297 0.79456 0.74844 0.0
C293 C 0.84596 0.79128 0.73513 0.0
C294 C 0.865 0.78491 0.74265 0.0
C295 C 0.86746 0.78192 0.76375 0.0
C296 C 0.76529 0.86823 0.77919 0.0
H297 H 0.81853 0.7501 0.87093 0.0
H298 H 0.82405 0.77254 0.84178 0.0
H299 H 0.75997 0.76901 0.8267 0.0
H300 H 0.75444 0.74607 0.85542 0.0
H301 H 0.82165 0.76971 0.80316 0.0
H302 H 0.77073 0.80591 0.82191 0.0
H303 H 0.80378 0.82178 0.76752 0.0
H304 H 0.79447 0.85388 0.77868 0.0
H305 H 0.74421 0.81769 0.80163 0.0
H306 H 0.72148 0.84665 0.79694 0.0
H307 H 0.85384 0.78342 0.79331 0.0
H308 H 0.81513 0.79906 0.74207 0.0
H309 H 0.77126 0.88231 0.7729 0.0
H310 H 0.88203 0.77725 0.76999 0.0
H311 H 0.84356 0.79345 0.7189 0.0
C312 C 0.30462 0.251 0.36137 0.0
C313 C 0.28489 0.24374 0.36575 0.0
C314 C 0.30793 0.26419 0.34496 0.0
C315 C 0.29156 0.27058 0.33266 0.0
C316 C 0.27183 0.26345 0.33703 0.0
C317 C 0.26854 0.25011 0.35333 0.0
C318 C 0.29506 0.28468 0.31531 0.0
C319 C 0.31105 0.28118 0.30161 0.0
C320 C 0.31465 0.29451 0.28519 0.0
C321 C 0.30168 0.31139 0.28253 0.0
C322 C 0.28543 0.31507 0.29599 0.0
C323 C 0.2824 0.30165 0.31245 0.0
C324 C 0.27158 0.33282 0.29284 0.0
C325 C 0.27903 0.35144 0.28505 0.0
C326 C 0.25068 0.33125 0.2975 0.0
C327 C 0.23768 0.34785 0.29466 0.0
C328 C 0.24517 0.36625 0.28669 0.0
C329 C 0.33192 0.29084 0.27089 0.0
C330 C 0.3504 0.28249 0.27802 0.0
C331 C 0.33018 0.29579 0.25002 0.0
C332 C 0.34656 0.29284 0.23679 0.0
C333 C 0.36484 0.28444 0.244 0.0
C334 C 0.3666 0.27912 0.26465 0.0
C335 C 0.26591 0.36789 0.2818 0.0
H336 H 0.31753 0.24674 0.3708 0.0
H337 H 0.32326 0.26965 0.34208 0.0
H338 H 0.25897 0.26794 0.32764 0.0
H339 H 0.25321 0.24456 0.35598 0.0
H340 H 0.3204 0.26773 0.30354 0.0
H341 H 0.27043 0.3046 0.32339 0.0
H342 H 0.30423 0.3217 0.26991 0.0
H343 H 0.29505 0.35346 0.28167 0.0
H344 H 0.24421 0.31711 0.30308 0.0
H345 H 0.22167 0.3462 0.29834 0.0
H346 H 0.35256 0.27885 0.294 0.0
H347 H 0.31612 0.30177 0.24378 0.0
H348 H 0.27202 0.38204 0.2758 0.0
H349 H 0.38067 0.27275 0.27053 0.0
H350 H 0.34486 0.29687 0.22084 0.0
C351 C 0.50041 0.98329 0.61585 0.0
C352 C 0.52157 0.98113 0.61331 0.0
C353 C 0.48701 0.97972 0.59954 0.0
C354 C 0.49446 0.97395 0.58029 0.0
C355 C 0.51563 0.97186 0.57774 0.0
C356 C 0.52902 0.97539 0.59406 0.0
C357 C 0.48024 0.97019 0.56289 0.0
C358 C 0.46346 0.98306 0.55959 0.0
C359 C 0.45023 0.97986 0.54295 0.0
C360 C 0.45381 0.96353 0.52955 0.0
C361 C 0.47031 0.95028 0.53275 0.0
C362 C 0.48346 0.95377 0.54945 0.0
C363 C 0.47372 0.9327 0.51879 0.0
C364 C 0.45719 0.92085 0.51172 0.0
C365 C 0.49352 0.92757 0.51252 0.0
C366 C 0.49672 0.91098 0.49948 0.0
C367 C 0.48018 0.89915 0.4924 0.0
C368 C 0.43272 0.99367 0.5395 0.0
C369 C 0.4194 0.99837 0.55556 0.0
C370 C 0.42922 1.00225 0.52016 0.0
C371 C 0.41281 0.01543 0.51698 0.0
C372 C 0.39942 0.02003 0.533 0.0
C373 C 0.40281 0.01131 0.55229 0.0
C374 C 0.46038 0.90428 0.49867 0.0
H375 H 0.49416 0.98739 0.63056 0.0
H376 H 0.47077 0.98118 0.6021 0.0
H377 H 0.5219 0.96777 0.56303 0.0
H378 H 0.54525 0.97388 0.59152 0.0
H379 H 0.46098 0.99597 0.56963 0.0
H380 H 0.49595 0.94338 0.55228 0.0
H381 H 0.44366 0.96113 0.51664 0.0
H382 H 0.44178 0.92417 0.51653 0.0
H383 H 0.50655 0.93656 0.51744 0.0
H384 H 0.51213 0.90762 0.4947 0.0
H385 H 0.42171 0.99186 0.57058 0.0
H386 H 0.43934 0.99896 0.50757 0.0
H387 H 0.44735 0.8953 0.49374 0.0
H388 H 0.39279 0.01471 0.56493 0.0
H389 H 0.41046 0.02187 0.50193 0.0
C390 C 0.2108 0.25055 0.65288 0.0
C391 C 0.23044 0.24285 0.6492 0.0
C392 C 0.20733 0.26384 0.66919 0.0
C393 C 0.22342 0.26989 0.68213 0.0
C394 C 0.24306 0.26226 0.67848 0.0
C395 C 0.24652 0.24884 0.66225 0.0
C396 C 0.21974 0.2843 0.69923 0.0
C397 C 0.20275 0.28173 0.71196 0.0
C398 C 0.19884 0.29554 0.72793 0.0
C399 C 0.21218 0.31218 0.7309 0.0
C400 C 0.22939 0.31481 0.71847 0.0
C401 C 0.23309 0.30077 0.70273 0.0
C402 C 0.24352 0.33225 0.72191 0.0
C403 C 0.23594 0.3521 0.72458 0.0
C404 C 0.2647 0.32914 0.72253 0.0
C405 C 0.27804 0.34552 0.72586 0.0
C406 C 0.27048 0.36539 0.7284 0.0
C407 C 0.18104 0.2924 0.74166 0.0
C408 C 0.16233 0.28509 0.73388 0.0
C409 C 0.18269 0.29645 0.76272 0.0
C410 C 0.16608 0.2933 0.77564 0.0
C411 C 0.14749 0.28582 0.76785 0.0
C412 C 0.14579 0.28174 0.74685 0.0
C413 C 0.2493 0.36853 0.72767 0.0
H414 H 0.19813 0.24658 0.64295 0.0
H415 H 0.19208 0.26971 0.67146 0.0
H416 H 0.25572 0.26646 0.68835 0.0
H417 H 0.26177 0.24295 0.66011 0.0
H418 H 0.19285 0.26862 0.70971 0.0
H419 H 0.24609 0.30301 0.6928 0.0
H420 H 0.20927 0.3231 0.74298 0.0
H421 H 0.21969 0.35495 0.72403 0.0
H422 H 0.27094 0.31398 0.72065 0.0
H423 H 0.2943 0.34269 0.7262 0.0
H424 H 0.16037 0.28213 0.71771 0.0
H425 H 0.19695 0.30172 0.76934 0.0
H426 H 0.24305 0.38366 0.72972 0.0
H427 H 0.13155 0.27621 0.74039 0.0
H428 H 0.16791 0.29633 0.79181 0.0
C429 C 0.85405 0.24573 0.76056 0.0
C430 C 0.86426 0.22913 0.76942 0.0
C431 C 0.8375 0.2425 0.74738 0.0
C432 C 0.83091 0.22257 0.74257 0.0
C433 C 0.84131 0.20598 0.75134 0.0
C434 C 0.85771 0.20923 0.76469 0.0
C435 C 0.81323 0.21911 0.72855 0.0
C436 C 0.81021 0.23173 0.71147 0.0
C437 C 0.79342 0.22879 0.69831 0.0
C438 C 0.77978 0.21266 0.7022 0.0
C439 C 0.78263 0.19969 0.71904 0.0
C440 C 0.79927 0.2032 0.73223 0.0
C441 C 0.76833 0.1824 0.72282 0.0
C442 C 0.74721 0.18467 0.71973 0.0
C443 C 0.77574 0.16339 0.72938 0.0
C444 C 0.7624 0.14707 0.73277 0.0
C445 C 0.74132 0.14932 0.72958 0.0
C446 C 0.7901 0.24265 0.68061 0.0
C447 C 0.79381 0.26374 0.68249 0.0
C448 C 0.78302 0.23498 0.66176 0.0
C449 C 0.77959 0.24809 0.64529 0.0
C450 C 0.78333 0.26914 0.64722 0.0
C451 C 0.79054 0.27681 0.66597 0.0
C452 C 0.73387 0.1683 0.72301 0.0
H453 H 0.85863 0.26124 0.76413 0.0
H454 H 0.82966 0.25566 0.74123 0.0
H455 H 0.83694 0.19043 0.74771 0.0
H456 H 0.86547 0.19615 0.77111 0.0
H457 H 0.82121 0.24364 0.70812 0.0
H458 H 0.80109 0.19376 0.74567 0.0
H459 H 0.76689 0.21017 0.69208 0.0
H460 H 0.74093 0.19918 0.71501 0.0
H461 H 0.79194 0.16098 0.73157 0.0
H462 H 0.76863 0.13255 0.73755 0.0
H463 H 0.79892 0.27024 0.69686 0.0
H464 H 0.78034 0.21879 0.65963 0.0
H465 H 0.71768 0.17058 0.72068 0.0
H466 H 0.7933 0.293 0.668 0.0
H467 H 0.77429 0.24171 0.63093 0.0
C468 C 0.54051 0.59638 0.48449 0.0
C469 C 0.53626 0.61597 0.4921 0.0
C470 C 0.54355 0.58002 0.49782 0.0
C471 C 0.54232 0.58287 0.51906 0.0
C472 C 0.53805 0.60245 0.52667 0.0
C473 C 0.5351 0.61883 0.51334 0.0
C474 C 0.54551 0.56546 0.53321 0.0
C475 C 0.56138 0.55153 0.52985 0.0
C476 C 0.56458 0.53511 0.54322 0.0
C477 C 0.55156 0.53252 0.55998 0.0
C478 C 0.53546 0.54614 0.56346 0.0
C479 C 0.53265 0.56266 0.5501 0.0
C480 C 0.52135 0.5429 0.58083 0.0
C481 C 0.51339 0.52338 0.58485 0.0
C482 C 0.5156 0.55928 0.59337 0.0
C483 C 0.50224 0.55619 0.60967 0.0
C484 C 0.4942 0.53667 0.6137 0.0
C485 C 0.58162 0.52075 0.53974 0.0
C486 C 0.58468 0.51212 0.52035 0.0
C487 C 0.595 0.51569 0.55575 0.0
C488 C 0.61124 0.50238 0.55239 0.0
C489 C 0.61424 0.49365 0.53303 0.0
C490 C 0.60075 0.49857 0.51706 0.0
C491 C 0.49992 0.52032 0.60103 0.0
H492 H 0.5417 0.59371 0.46821 0.0
H493 H 0.54665 0.56509 0.49147 0.0
H494 H 0.53718 0.60517 0.54296 0.0
H495 H 0.53166 0.63369 0.51967 0.0
H496 H 0.57162 0.55375 0.5171 0.0
H497 H 0.52003 0.573 0.5525 0.0
H498 H 0.55394 0.51981 0.57029 0.0
H499 H 0.5173 0.51052 0.57524 0.0
H500 H 0.52167 0.57446 0.59076 0.0
H501 H 0.49846 0.56908 0.61929 0.0
H502 H 0.57451 0.5157 0.50777 0.0
H503 H 0.59304 0.52224 0.57081 0.0
H504 H 0.49376 0.50515 0.60341 0.0
H505 H 0.60279 0.49215 0.50196 0.0
H506 H 0.62135 0.49873 0.565 0.0
C507 C 0.48753 0.47779 0.91731 0.0
C508 C 0.49527 0.48146 0.89765 0.0
C509 C 0.50071 0.47442 0.93379 0.0
C510 C 0.52194 0.47479 0.93105 0.0
C511 C 0.52972 0.47854 0.91146 0.0
C512 C 0.51655 0.48176 0.89494 0.0
C513 C 0.53594 0.47122 0.94856 0.0
C514 C 0.53219 0.4552 0.96228 0.0
C515 C 0.54546 0.45158 0.97877 0.0
C516 C 0.56246 0.46441 0.98166 0.0
C517 C 0.56634 0.48063 0.96821 0.0
C518 C 0.55309 0.48383 0.9516 0.0
C519 C 0.58407 0.49441 0.97168 0.0
C520 C 0.58846 0.50192 0.99134 0.0
C521 C 0.59664 0.50025 0.95538 0.0
C522 C 0.61327 0.5133 0.95866 0.0
C523 C 0.61763 0.52093 0.97832 0.0
C524 C 0.54169 0.43427 0.99286 0.0
C525 C 0.52206 0.43053 1.00052 0.0
C526 C 0.55771 0.42131 0.99865 0.0
C527 C 0.55414 0.40487 0.01174 0.0
C528 C 0.53451 0.4011 0.01947 0.0
C529 C 0.51852 0.41419 0.01373 0.0
C530 C 0.605 0.51507 0.99461 0.0
H531 H 0.47126 0.4778 0.92006 0.0
H532 H 0.49429 0.47182 0.94877 0.0
H533 H 0.54602 0.47866 0.90883 0.0
H534 H 0.52307 0.48418 0.87997 0.0
H535 H 0.51924 0.44514 0.95977 0.0
H536 H 0.5558 0.49651 0.94135 0.0
H537 H 0.57269 0.46177 0.99443 0.0
H538 H 0.57887 0.49792 1.00415 0.0
H539 H 0.59378 0.49449 0.94011 0.0
H540 H 0.62285 0.51721 0.94582 0.0
H541 H 0.50948 0.44043 0.9965 0.0
H542 H 0.57294 0.42366 0.99276 0.0
H543 H 0.60767 0.52092 0.00987 0.0
H544 H 0.50329 0.41198 0.01966 0.0
H545 H 0.56674 0.39492 0.01552 0.0
C546 C 0.6535 0.2093 0.24701 0.0
C547 C 0.64816 0.2292 0.24109 0.0
C548 C 0.66997 0.20601 0.26023 0.0
C549 C 0.68148 0.22254 0.26785 0.0
C550 C 0.67615 0.24243 0.26191 0.0
C551 C 0.65969 0.24572 0.24869 0.0
C552 C 0.69896 0.21906 0.28197 0.0
C553 C 0.71261 0.20298 0.27848 0.0
C554 C 0.72916 0.19953 0.29176 0.0
C555 C 0.73205 0.2126 0.30861 0.0
C556 C 0.71863 0.22885 0.31232 0.0
C557 C 0.70206 0.23185 0.29896 0.0
C558 C 0.72192 0.24275 0.33009 0.0
C559 C 0.72864 0.2351 0.34902 0.0
C560 C 0.7184 0.26383 0.32822 0.0
C561 C 0.72141 0.2769 0.34486 0.0
C562 C 0.72819 0.26924 0.36372 0.0
C563 C 0.74342 0.18231 0.28799 0.0
C564 C 0.73603 0.16333 0.28101 0.0
C565 C 0.76451 0.18467 0.2914 0.0
C566 C 0.77783 0.16843 0.28805 0.0
C567 C 0.77042 0.1495 0.28105 0.0
C568 C 0.74939 0.14715 0.2775 0.0
C569 C 0.73183 0.24821 0.36561 0.0
H570 H 0.64507 0.19622 0.24128 0.0
H571 H 0.67356 0.19051 0.26465 0.0
H572 H 0.68482 0.25548 0.26734 0.0
H573 H 0.65586 0.26125 0.24461 0.0
H574 H 0.71062 0.19343 0.26509 0.0
H575 H 0.69125 0.24391 0.30204 0.0
H576 H 0.74481 0.21012 0.31886 0.0
H577 H 0.73117 0.21892 0.35113 0.0
H578 H 0.71358 0.27033 0.3138 0.0
H579 H 0.71875 0.29308 0.34288 0.0
H580 H 0.71987 0.16084 0.27855 0.0
H581 H 0.7708 0.19916 0.29641 0.0
H582 H 0.73682 0.24184 0.38004 0.0
H583 H 0.7432 0.13266 0.27234 0.0
H584 H 0.794 0.17077 0.29066 0.0
C585 C 0.48262 0.11584 1.00147 0.0
C586 C 0.4798 0.11323 0.02255 0.0
C587 C 0.47897 0.09971 0.98792 0.0
C588 C 0.47255 0.08054 0.99517 0.0
C589 C 0.46989 0.07792 0.01631 0.0
C590 C 0.47339 0.0941 0.02983 0.0
C591 C 0.4686 0.06337 0.98073 0.0
C592 C 0.48127 0.06035 0.96374 0.0
C593 C 0.47766 0.04418 0.95007 0.0
C594 C 0.4611 0.03096 0.95341 0.0
C595 C 0.44825 0.03375 0.97025 0.0
C596 C 0.45211 0.04994 0.98384 0.0
C597 C 0.43073 0.01981 0.97362 0.0
C598 C 0.41717 0.01515 0.95757 0.0
C599 C 0.42745 0.01111 0.99292 0.0
C600 C 0.411 0.99786 0.99607 0.0
C601 C 0.39735 0.9933 0.98007 0.0
C602 C 0.49138 0.04094 0.93246 0.0
C603 C 0.49668 0.0573 0.91967 0.0
C604 C 0.49941 0.02151 0.92846 0.0
C605 C 0.51268 0.01854 0.91211 0.0
C606 C 0.51793 0.03488 0.89927 0.0
C607 C 0.50972 0.05426 0.90313 0.0
C608 C 0.40055 1.00214 0.96081 0.0
H609 H 0.48727 0.13049 0.99539 0.0
H610 H 0.48085 0.10239 0.97173 0.0
H611 H 0.46531 0.06328 0.02247 0.0
H612 H 0.47132 0.09158 0.04603 0.0
H613 H 0.49435 0.07024 0.96141 0.0
H614 H 0.44191 0.05234 0.99657 0.0
H615 H 0.45823 0.01846 0.94289 0.0
H616 H 0.41929 0.02177 0.94258 0.0
H617 H 0.43775 0.01437 0.00551 0.0
H618 H 0.40881 0.99134 0.0111 0.0
H619 H 0.4906 0.0724 0.92237 0.0
H620 H 0.49567 0.00869 0.93818 0.0
H621 H 0.39033 0.99877 0.94818 0.0
H622 H 0.51363 0.06713 0.89353 0.0
H623 H 0.5187 1.00342 0.90938 0.0
Li624 Li 0.27366 0.8946 1.00308 0.0
Li625 Li 0.25812 0.86885 0.02416 0.0
Li626 Li 0.25227 0.86892 0.98755 0.0
Li627 Li 0.23714 0.89468 0.00883 0.0
C628 C 0.29669 0.85942 0.01077 0.0
N629 N 0.33344 0.84856 0.02836 0.0
C630 C 0.3047 0.87078 0.02706 0.0
C631 C 0.30735 0.84254 1.00345 0.0
C632 C 0.3233 0.86504 0.03574 0.0
C633 C 0.32592 0.8373 0.01254 0.0
C634 C 0.25083 0.90372 0.04765 0.0
C635 C 0.22591 0.89786 0.07397 0.0
N636 N 0.23361 0.91399 0.08466 0.0
C637 C 0.25849 0.92024 0.05887 0.0
C638 C 0.2344 0.89243 0.05523 0.0
C639 C 0.24959 0.92518 0.07756 0.0
C640 C 0.29473 0.93191 1.00428 0.0
N641 N 0.2967 0.91194 0.99902 0.0
C642 C 0.33081 0.91778 0.98766 0.0
C643 C 0.3142 0.90475 0.99064 0.0
C644 C 0.32923 0.93847 0.99297 0.0
C645 C 0.31087 0.94555 1.00128 0.0
H646 H 0.28055 0.93721 0.01073 0.0
H647 H 0.31526 0.88892 0.98614 0.0
C648 C 0.25597 0.8317 0.04523 0.0
N649 N 0.26214 0.85143 0.04707 0.0
C650 C 0.259 0.81801 0.06129 0.0
C651 C 0.27461 0.84529 0.08085 0.0
C652 C 0.27141 0.85839 0.06437 0.0
C653 C 0.26844 0.82475 0.07944 0.0
H654 H 0.24886 0.82655 0.03118 0.0
H655 H 0.27642 0.8741 0.06538 0.0
C656 C 0.26012 0.90384 0.96432 0.0
N657 N 0.27751 0.91413 0.92738 0.0
C658 C 0.2527 0.92042 0.9532 0.0
C659 C 0.2764 0.8925 0.95667 0.0
C660 C 0.26169 0.92538 0.93454 0.0
C661 C 0.28498 0.89794 0.93797 0.0
C662 C 0.21352 0.85982 1.0008 0.0
C663 C 0.20589 0.8713 0.9845 0.0
C664 C 0.20234 0.84316 0.00805 0.0
C665 C 0.18716 0.8659 0.97574 0.0
C666 C 0.18366 0.83826 0.99888 0.0
N667 N 0.17652 0.84963 0.98305 0.0
C668 C 0.25398 0.83181 0.96634 0.0
C669 C 0.23915 0.85857 0.94713 0.0
C670 C 0.251 0.81815 0.95018 0.0
N671 N 0.2481 0.85157 0.96451 0.0
C672 C 0.23603 0.8455 0.93054 0.0
C673 C 0.24194 0.82494 0.93191 0.0
H674 H 0.26084 0.82663 0.98046 0.0
H675 H 0.23437 0.8743 0.94612 0.0
C676 C 0.21673 0.93216 0.00804 0.0
N677 N 0.21439 0.91218 0.01306 0.0
C678 C 0.20084 0.94593 0.01122 0.0
C679 C 0.18039 0.91821 0.0245 0.0
C680 C 0.19676 0.90506 0.02135 0.0
C681 C 0.18235 0.93894 0.01945 0.0
H682 H 0.231 0.93741 1.00166 0.0
H683 H 0.19542 0.88921 0.02567 0.0
O684 O 0.27839 0.86454 1.00209 0.0
O685 O 0.25936 0.89887 0.02926 0.0
O686 O 0.25151 0.89898 0.98267 0.0
O687 O 0.23191 0.86463 0.00958 0.0
H688 H 0.29668 0.8839 0.03293 0.0
H689 H 0.30131 0.83357 0.99087 0.0
H690 H 0.32968 0.8737 0.04835 0.0
H691 H 0.33434 0.82427 0.00703 0.0
H692 H 0.21319 0.88926 0.08002 0.0
H693 H 0.27119 0.92915 0.05317 0.0
H694 H 0.22826 0.87959 0.04678 0.0
H695 H 0.25536 0.93793 0.08642 0.0
H696 H 0.34463 0.91183 0.98094 0.0
H697 H 0.30911 0.9614 0.00563 0.0
H698 H 0.25431 0.80226 0.05933 0.0
H699 H 0.2817 0.85128 0.09459 0.0
H700 H 0.24013 0.92937 0.95894 0.0
H701 H 0.28235 0.87961 0.96504 0.0
H702 H 0.25609 0.93817 0.92577 0.0
H703 H 0.29758 0.8893 0.93187 0.0
H704 H 0.21428 0.88426 0.97869 0.0
H705 H 0.20807 0.83412 0.02064 0.0
H706 H 0.18107 0.87465 0.96313 0.0
H707 H 0.17484 0.82541 1.00435 0.0
H708 H 0.25548 0.80239 0.95212 0.0
H709 H 0.22922 0.85153 0.91672 0.0
H710 H 0.20289 0.9618 0.00707 0.0
H711 H 0.16647 0.91233 0.03115 0.0
Li712 Li 0.11704 0.50814 0.27781 0.0
Li713 Li 0.14294 0.48698 0.26269 0.0
Li714 Li 0.14402 0.52378 0.25556 0.0
Li715 Li 0.11815 0.5014 0.24059 0.0
C716 C 0.15724 0.50061 0.29823 0.0
N717 N 0.17847 0.48065 0.32877 0.0
C718 C 0.14689 0.48829 0.3122 0.0
C719 C 0.17841 0.50275 0.2998 0.0
C720 C 0.15788 0.47836 0.32755 0.0
C721 C 0.18887 0.49252 0.31533 0.0
C722 C 0.10996 0.46218 0.26835 0.0
C723 C 0.11268 0.42625 0.26075 0.0
N724 N 0.10398 0.42181 0.27903 0.0
C725 C 0.101 0.45726 0.28704 0.0
C726 C 0.11581 0.44656 0.25506 0.0
C727 C 0.09813 0.43676 0.29217 0.0
C728 C 0.07904 0.50985 0.2972 0.0
N729 N 0.09927 0.51352 0.3 0.0
C730 C 0.09347 0.52505 0.3341 0.0
C731 C 0.10664 0.5213 0.31785 0.0
C732 C 0.07252 0.52114 0.33175 0.0
C733 C 0.06529 0.51361 0.31295 0.0
H734 H 0.07363 0.50389 0.28272 0.0
H735 H 0.12274 0.52458 0.31947 0.0
C736 C 0.17846 0.46404 0.25643 0.0
N737 N 0.16096 0.46435 0.26744 0.0
C738 C 0.19278 0.44858 0.25943 0.0
C739 C 0.17073 0.4339 0.28496 0.0
C740 C 0.15708 0.44983 0.28174 0.0
C741 C 0.18898 0.4331 0.2738 0.0
H742 H 0.18145 0.476 0.24548 0.0
H743 H 0.14342 0.45057 0.29081 0.0
C744 C 0.1076 0.54621 0.26224 0.0
N745 N 0.09442 0.58285 0.27825 0.0
C746 C 0.09035 0.55571 0.25413 0.0
C747 C 0.11812 0.55528 0.27856 0.0
C748 C 0.08394 0.57426 0.26242 0.0
C749 C 0.11122 0.57382 0.28642 0.0
C750 C 0.14853 0.49858 0.21596 0.0
C751 C 0.14862 0.51575 0.20335 0.0
C752 C 0.14805 0.47908 0.20729 0.0
C753 C 0.14803 0.51312 0.18218 0.0
C754 C 0.14746 0.47709 0.18605 0.0
N755 N 0.14743 0.49401 0.17404 0.0
C756 C 0.18139 0.54492 0.25402 0.0
C757 C 0.15322 0.56451 0.24283 0.0
C758 C 0.19465 0.56128 0.25058 0.0
N759 N 0.16106 0.54691 0.25047 0.0
C760 C 0.1659 0.5813 0.23924 0.0
C761 C 0.18694 0.57987 0.24323 0.0
H762 H 0.18733 0.53051 0.25927 0.0
H763 H 0.13712 0.56557 0.23943 0.0
C764 C 0.09456 0.47913 0.21156 0.0
N765 N 0.10145 0.498 0.21687 0.0
C766 C 0.08225 0.47651 0.1943 0.0
C767 C 0.08416 0.51286 0.18835 0.0
C768 C 0.09652 0.51476 0.20571 0.0
C769 C 0.07685 0.49351 0.18246 0.0
H770 H 0.09849 0.4661 0.22076 0.0
H771 H 0.10224 0.5296 0.21029 0.0
O772 O 0.14674 0.51014 0.28286 0.0
O773 O 0.11269 0.48218 0.26303 0.0
O774 O 0.11384 0.52789 0.2545 0.0
O775 O 0.14843 0.50084 0.2367 0.0
H776 H 0.13059 0.48604 0.31097 0.0
H777 H 0.18674 0.51212 0.28913 0.0
H778 H 0.15005 0.46869 0.33838 0.0
H779 H 0.20526 0.49402 0.31668 0.0
H780 H 0.11727 0.41402 0.25069 0.0
H781 H 0.09639 0.46912 0.29752 0.0
H782 H 0.12309 0.45005 0.24071 0.0
H783 H 0.09126 0.43273 0.3066 0.0
H784 H 0.09957 0.53116 0.34826 0.0
H785 H 0.04924 0.51035 0.31059 0.0
H786 H 0.20678 0.44901 0.25077 0.0
H787 H 0.16685 0.42227 0.29601 0.0
H788 H 0.08198 0.5488 0.24159 0.0
H789 H 0.13145 0.5481 0.28509 0.0
H790 H 0.07062 0.58181 0.25628 0.0
H791 H 0.11921 0.58102 0.29902 0.0
H792 H 0.14889 0.53095 0.20985 0.0
H793 H 0.148 0.46564 0.21688 0.0
H794 H 0.14795 0.52627 0.17222 0.0
H795 H 0.14696 0.4621 0.17912 0.0
H796 H 0.21081 0.55927 0.25335 0.0
H797 H 0.15924 0.5953 0.2336 0.0
H798 H 0.07671 0.46137 0.19051 0.0
H799 H 0.08051 0.52634 0.17954 0.0
Li800 Li 0.74093 0.62076 1.00301 0.0
Li801 Li 0.75653 0.64673 0.02476 0.0
Li802 Li 0.76199 0.64656 0.98867 0.0
Li803 Li 0.77795 0.62035 0.00827 0.0
C804 C 0.71757 0.65487 0.01189 0.0
N805 N 0.68066 0.6634 0.03012 0.0
C806 C 0.71102 0.64345 0.02867 0.0
C807 C 0.70537 0.67062 1.00442 0.0
C808 C 0.69231 0.648 0.03766 0.0
C809 C 0.68675 0.6747 0.01383 0.0
C810 C 0.7644 0.60929 0.04651 0.0
C811 C 0.79015 0.61135 0.07289 0.0
N812 N 0.78212 0.59441 0.0818 0.0
C813 C 0.75644 0.59187 0.05588 0.0
C814 C 0.78143 0.6191 0.05503 0.0
C815 C 0.7656 0.58461 0.07375 0.0
C816 C 0.71994 0.58343 1.00442 0.0
N817 N 0.71798 0.60329 0.99889 0.0
C818 C 0.68407 0.59715 0.98672 0.0
C819 C 0.70055 0.61031 0.99008 0.0
C820 C 0.68559 0.5765 0.99228 0.0
C821 C 0.70387 0.56969 1.00125 0.0
H822 H 0.73411 0.57822 0.01108 0.0
H823 H 0.69945 0.62612 0.98552 0.0
C824 C 0.75256 0.68414 0.04514 0.0
N825 N 0.75209 0.66363 0.04817 0.0
C826 C 0.74895 0.69753 0.06133 0.0
C827 C 0.744 0.66845 0.08341 0.0
C828 C 0.74752 0.65563 0.06676 0.0
C829 C 0.74476 0.6897 0.08082 0.0
H830 H 0.7555 0.69009 0.03005 0.0
H831 H 0.74624 0.63933 0.06868 0.0
C832 C 0.75377 0.6123 0.96404 0.0
N833 N 0.73542 0.60253 0.92719 0.0
C834 C 0.76067 0.59567 0.95267 0.0
C835 C 0.73751 0.62395 0.95668 0.0
C836 C 0.75121 0.59098 0.93407 0.0
C837 C 0.72845 0.61877 0.93802 0.0
C838 C 0.79691 0.66176 1.00061 0.0
C839 C 0.80951 0.65293 0.98591 0.0
C840 C 0.79819 0.68272 1.00438 0.0
C841 C 0.82309 0.66528 0.9751 0.0
C842 C 0.81195 0.69456 0.99323 0.0
N843 N 0.824 0.68568 0.97893 0.0
C844 C 0.75933 0.68382 0.96744 0.0
C845 C 0.77552 0.65747 0.94883 0.0
C846 C 0.76251 0.69755 0.95146 0.0
N847 N 0.76586 0.66424 0.96585 0.0
C848 C 0.77883 0.6706 0.93242 0.0
C849 C 0.77238 0.691 0.9336 0.0
H850 H 0.75192 0.68883 0.98128 0.0
H851 H 0.78083 0.64189 0.94807 0.0
C852 C 0.79791 0.58257 0.00902 0.0
N853 N 0.80068 0.60293 0.01198 0.0
C854 C 0.81406 0.56909 0.01215 0.0
C855 C 0.83559 0.59783 0.02117 0.0
C856 C 0.81898 0.61072 0.01808 0.0
C857 C 0.83322 0.57671 0.01823 0.0
H858 H 0.78311 0.57684 1.00434 0.0
H859 H 0.82062 0.62694 0.02074 0.0
O860 O 0.73589 0.65091 1.00283 0.0
O861 O 0.75589 0.61629 0.02877 0.0
O862 O 0.76281 0.61687 0.98237 0.0
O863 O 0.78312 0.64997 0.01092 0.0
H864 H 0.7202 0.63119 0.03471 0.0
H865 H 0.71026 0.67962 0.99147 0.0
H866 H 0.68705 0.63929 0.05064 0.0
H867 H 0.67715 0.68685 0.00819 0.0
H868 H 0.80332 0.61879 0.07965 0.0
H869 H 0.74333 0.58405 0.04942 0.0
H870 H 0.78784 0.63256 0.04793 0.0
H871 H 0.75958 0.57115 0.08118 0.0
H872 H 0.67024 0.60316 0.97998 0.0
H873 H 0.70589 0.55386 0.00546 0.0
H874 H 0.74961 0.71383 0.05867 0.0
H875 H 0.74033 0.66179 0.09807 0.0
H876 H 0.7732 0.58646 0.95821 0.0
H877 H 0.73192 0.63686 0.96525 0.0
H878 H 0.7564 0.57815 0.92511 0.0
H879 H 0.71585 0.62765 0.93215 0.0
H880 H 0.80853 0.63676 0.98261 0.0
H881 H 0.78862 0.68981 0.01572 0.0
H882 H 0.83281 0.65868 0.96357 0.0
H883 H 0.81304 0.71083 0.99592 0.0
H884 H 0.75758 0.71319 0.95326 0.0
H885 H 0.78626 0.66474 0.91892 0.0
H886 H 0.81165 0.55291 0.00963 0.0
H887 H 0.85004 0.60426 0.02614 0.0
Li888 Li 0.86974 0.02688 0.25695 0.0
Li889 Li 0.89547 0.00582 0.27245 0.0
Li890 Li 0.89541 0.01155 0.23584 0.0
Li891 Li 0.86963 0.99028 0.25123 0.0
C892 C 0.90451 0.05037 0.24929 0.0
N893 N 0.91454 0.08736 0.23173 0.0
C894 C 0.92098 0.06175 0.25684 0.0
C895 C 0.89314 0.05779 0.2328 0.0
C896 C 0.92581 0.08042 0.24776 0.0
C897 C 0.89845 0.07653 0.22414 0.0
C898 C 0.86063 0.01352 0.29571 0.0
C899 C 0.83897 0.01527 0.32529 0.0
N900 N 0.85038 0.03109 0.33262 0.0
C901 C 0.87214 0.0298 0.30352 0.0
C902 C 0.8439 0.00619 0.30665 0.0
C903 C 0.86671 0.03847 0.32221 0.0
C904 C 0.83264 0.04792 0.25492 0.0
N905 N 0.85241 0.04979 0.26098 0.0
C906 C 0.8464 0.08356 0.27333 0.0
C907 C 0.85944 0.0671 0.27013 0.0
C908 C 0.82582 0.08212 0.26728 0.0
C909 C 0.81901 0.06395 0.25796 0.0
H910 H 0.82743 0.03386 0.2479 0.0
H911 H 0.87517 0.06814 0.27505 0.0
C912 C 0.93265 0.00767 0.29386 0.0
N913 N 0.91283 1.00176 0.29552 0.0
C914 C 0.94624 1.00461 0.31006 0.0
C915 C 0.91871 0.98956 0.32941 0.0
C916 C 0.90572 0.99272 0.31277 0.0
C917 C 0.93927 0.9955 0.32815 0.0
H918 H 0.93789 0.01469 0.27989 0.0
H919 H 0.89 0.98779 0.31359 0.0
C920 C 0.86036 1.00352 0.21243 0.0
N921 N 0.84978 0.98571 0.17557 0.0
C922 C 0.87173 0.98724 0.20476 0.0
C923 C 0.8436 0.01072 0.20137 0.0
C924 C 0.86613 0.97845 0.1861 0.0
C925 C 0.8385 1.00152 0.18276 0.0
C926 C 0.90463 0.9671 0.25898 0.0
C927 C 0.9214 0.95626 0.25172 0.0
C928 C 0.89323 0.95923 0.27516 0.0
C929 C 0.92648 0.93766 0.26076 0.0
C930 C 0.8988 0.94059 0.2838 0.0
N931 N 0.91518 0.93027 0.27649 0.0
C932 C 0.93282 0.01083 0.21534 0.0
C933 C 0.90569 0.02386 0.19522 0.0
C934 C 0.94655 0.01397 0.1994 0.0
N935 N 0.91283 0.01572 0.21296 0.0
C936 C 0.91882 0.02697 0.1788 0.0
C937 C 0.93954 0.02205 0.18081 0.0
H938 H 0.93809 1.00456 0.22969 0.0
H939 H 0.88984 0.02809 0.19384 0.0
C940 C 0.83248 0.96907 0.25321 0.0
N941 N 0.85218 0.96727 0.24721 0.0
C942 C 0.81877 0.95293 0.25032 0.0
C943 C 0.84594 0.93334 0.23518 0.0
C944 C 0.85907 0.94991 0.23822 0.0
C945 C 0.82543 0.9347 0.24121 0.0
H946 H 0.82739 0.98316 0.2601 0.0
H947 H 0.87476 0.94892 0.23335 0.0
O948 O 0.89977 0.032 0.258 0.0
O949 O 0.86548 1.00482 0.27737 0.0
O950 O 0.86534 0.0123 0.23078 0.0
O951 O 0.89965 0.98541 0.25034 0.0
H952 H 0.92995 0.05618 0.26957 0.0
H953 H 0.88032 0.04924 0.22675 0.0
H954 H 0.93852 0.0894 0.25344 0.0
H955 H 0.88979 0.08245 0.21138 0.0
H956 H 0.82606 0.00975 0.33393 0.0
H957 H 0.88515 0.03567 0.2953 0.0
H958 H 0.83483 0.99362 0.30078 0.0
H959 H 0.87549 0.05106 0.32843 0.0
H960 H 0.85244 0.0973 0.28034 0.0
H961 H 0.80324 0.06197 0.25336 0.0
H962 H 0.96196 0.00949 0.30854 0.0
H963 H 0.91283 0.98221 0.34297 0.0
H964 H 0.88476 0.98146 0.21307 0.0
H965 H 0.83463 0.02328 0.20714 0.0
H966 H 0.8748 0.96586 0.17998 0.0
H967 H 0.82557 0.00694 0.17403 0.0
H968 H 0.9304 0.96219 0.23923 0.0
H969 H 0.8802 0.96738 0.281 0.0
H970 H 0.93943 0.9291 0.2553 0.0
H971 H 0.89012 0.93432 0.29633 0.0
H972 H 0.96242 0.00993 0.20149 0.0
H973 H 0.91291 0.0335 0.16479 0.0
H974 H 0.80305 0.95486 0.25489 0.0
H975 H 0.85188 0.91955 0.22835 0.0
Li976 Li 0.25504 0.14413 0.52541 0.0
Li977 Li 0.23969 0.11833 0.50406 0.0
Li978 Li 0.27623 0.11852 0.51007 0.0
Li979 Li 0.26081 0.14423 0.48884 0.0
C980 C 0.26283 0.10938 0.54876 0.0
N981 N 0.28038 0.09942 0.58585 0.0
C982 C 0.25538 0.09285 0.55997 0.0
C983 C 0.27923 0.12084 0.5564 0.0
C984 C 0.26445 0.08807 0.5787 0.0
C985 C 0.28789 0.11556 0.57518 0.0
C986 C 0.21631 0.15313 0.51175 0.0
C987 C 0.18673 0.17478 0.51346 0.0
N988 N 0.17939 0.16329 0.52908 0.0
C989 C 0.20848 0.14153 0.52783 0.0
C990 C 0.20537 0.16989 0.5045 0.0
C991 C 0.18979 0.14691 0.53638 0.0
C992 C 0.25718 0.18113 0.54703 0.0
N993 N 0.25094 0.16139 0.54847 0.0
C994 C 0.23837 0.16718 0.58216 0.0
C995 C 0.24161 0.15426 0.56554 0.0
C996 C 0.24459 0.18772 0.58116 0.0
C997 C 0.25413 0.19463 0.56325 0.0
H998 H 0.26435 0.18641 0.53316 0.0
H999 H 0.23658 0.13855 0.56625 0.0
C1000 C 0.21839 0.08112 0.50575 0.0
N1001 N 0.21675 0.10087 0.49971 0.0
C1002 C 0.20229 0.06744 0.50246 0.0
C1003 C 0.18308 0.09474 0.48688 0.0
C1004 C 0.1996 0.10784 0.49034 0.0
C1005 C 0.18429 0.07419 0.4929 0.0
H1006 H 0.23233 0.07597 0.51295 0.0
H1007 H 0.19873 0.12356 0.48546 0.0
C1008 C 0.29949 0.15368 0.50249 0.0
N1009 N 0.33629 0.16442 0.48507 0.0
C1010 C 0.30724 0.14232 0.48621 0.0
C1011 C 0.31044 0.1705 0.50988 0.0
C1012 C 0.32587 0.14799 0.47761 0.0
C1013 C 0.32902 0.17568 0.50088 0.0
C1014 C 0.25319 0.10914 0.46539 0.0
C1015 C 0.26046 0.09231 0.45456 0.0
C1016 C 0.23704 0.12053 0.4574 0.0
C1017 C 0.25145 0.08715 0.43586 0.0
C1018 C 0.22844 0.11487 0.43866 0.0
N1019 N 0.23576 0.09844 0.42836 0.0
C1020 C 0.29699 0.08127 0.5089 0.0
C1021 C 0.3168 0.10842 0.52265 0.0
C1022 C 0.31306 0.06764 0.51187 0.0
N1023 N 0.29917 0.10122 0.51423 0.0
C1024 C 0.33335 0.09541 0.5256 0.0
C1025 C 0.33156 0.07473 0.5202 0.0
H1026 H 0.28271 0.07595 0.50241 0.0
H1027 H 0.31803 0.12424 0.5272 0.0
C1028 C 0.25898 0.18137 0.46771 0.0
N1029 N 0.26489 0.16161 0.46591 0.0
C1030 C 0.26203 0.19502 0.45165 0.0
C1031 C 0.27711 0.16768 0.43214 0.0
C1032 C 0.27392 0.15461 0.44864 0.0
C1033 C 0.27121 0.18824 0.43351 0.0
H1034 H 0.25206 0.18655 0.48175 0.0
H1035 H 0.27873 0.13889 0.44766 0.0
O1036 O 0.25412 0.11408 0.53033 0.0
O1037 O 0.23465 0.14833 0.50317 0.0
O1038 O 0.28118 0.14862 0.51107 0.0
O1039 O 0.2618 0.1142 0.4838 0.0
H1040 H 0.24271 0.08382 0.55423 0.0
H1041 H 0.28521 0.13369 0.54798 0.0
H1042 H 0.25883 0.07532 0.58754 0.0
H1043 H 0.30057 0.1243 0.58127 0.0
H1044 H 0.1781 0.18772 0.508 0.0
H1045 H 0.21669 0.12849 0.53364 0.0
H1046 H 0.21126 0.17904 0.49208 0.0
H1047 H 0.18355 0.13807 0.54883 0.0
H1048 H 0.2312 0.16107 0.59571 0.0
H1049 H 0.25887 0.21039 0.56161 0.0
H1050 H 0.20409 0.05169 0.50705 0.0
H1051 H 0.16946 0.10074 0.47971 0.0
H1052 H 0.29902 0.12924 0.48027 0.0
H1053 H 0.30461 0.17947 0.52245 0.0
H1054 H 0.33205 0.13934 0.46502 0.0
H1055 H 0.33766 0.18867 0.50646 0.0
H1056 H 0.27293 0.08333 0.46058 0.0
H1057 H 0.2312 0.13361 0.46554 0.0
H1058 H 0.25693 0.07416 0.42731 0.0
H1059 H 0.21593 0.12355 0.4323 0.0
H1060 H 0.31113 0.05181 0.50746 0.0
H1061 H 0.34728 0.10136 0.53234 0.0
H1062 H 0.25756 0.21078 0.45359 0.0
H1063 H 0.28399 0.16165 0.41842 0.0
Li1064 Li 0.39699 0.50406 0.77327 0.0
Li1065 Li 0.36801 0.52547 0.75771 0.0
Li1066 Li 0.37074 0.489 0.75159 0.0
Li1067 Li 0.39496 0.51134 0.73644 0.0
C1068 C 0.35267 0.49079 0.78725 0.0
N1069 N 0.32352 0.46515 0.80372 0.0
C1070 C 0.33213 0.49638 0.78701 0.0
C1071 C 0.35842 0.47228 0.7961 0.0
C1072 C 0.31761 0.48319 0.79536 0.0
C1073 C 0.34345 0.45949 0.80427 0.0
C1074 C 0.40966 0.54582 0.75018 0.0
C1075 C 0.41315 0.57382 0.7266 0.0
N1076 N 0.43365 0.57391 0.72992 0.0
C1077 C 0.43073 0.54623 0.75344 0.0
C1078 C 0.40075 0.55975 0.73672 0.0
C1079 C 0.44261 0.56054 0.74302 0.0
C1080 C 0.435 0.49913 0.79266 0.0
N1081 N 0.41463 0.50071 0.79598 0.0
C1082 C 0.41954 0.49638 0.83188 0.0
C1083 C 0.40671 0.49945 0.81508 0.0
C1084 C 0.44068 0.49476 0.82896 0.0
C1085 C 0.4484 0.49623 0.80904 0.0
H1086 H 0.44079 0.49991 0.77725 0.0
H1087 H 0.39043 0.50075 0.81723 0.0
C1088 C 0.33084 0.54664 0.75513 0.0
N1089 N 0.35038 0.54785 0.76201 0.0
C1090 C 0.31746 0.56287 0.7582 0.0
C1091 C 0.34477 0.58145 0.77497 0.0
C1092 C 0.35754 0.56476 0.77177 0.0
C1093 C 0.32436 0.58064 0.76823 0.0
H1094 H 0.32561 0.53296 0.7474 0.0
H1095 H 0.37322 0.56531 0.77696 0.0
C1096 C 0.40991 0.46696 0.75015 0.0
N1097 N 0.42901 0.42945 0.75008 0.0
C1098 C 0.41736 0.45879 0.73193 0.0
C1099 C 0.41241 0.45614 0.76837 0.0
C1100 C 0.4269 0.43978 0.7322 0.0
C1101 C 0.42204 0.43718 0.768 0.0
C1102 C 0.36007 0.50357 0.71263 0.0
C1103 C 0.36977 0.48621 0.70509 0.0
C1104 C 0.34518 0.51323 0.70082 0.0
C1105 C 0.36445 0.47881 0.68576 0.0
C1106 C 0.34029 0.50537 0.68155 0.0
N1107 N 0.34995 0.48846 0.67448 0.0
C1108 C 0.3336 0.46941 0.74336 0.0
C1109 C 0.36059 0.44598 0.74806 0.0
C1110 C 0.31972 0.45344 0.74038 0.0
N1111 N 0.35359 0.46546 0.74726 0.0
C1112 C 0.34729 0.42955 0.74497 0.0
C1113 C 0.32649 0.43313 0.74115 0.0
H1114 H 0.32841 0.48504 0.74278 0.0
H1115 H 0.37644 0.44305 0.75109 0.0
C1116 C 0.43182 0.51039 0.71523 0.0
N1117 N 0.41209 0.5164 0.71356 0.0
C1118 C 0.44541 0.51377 0.69925 0.0
C1119 C 0.41812 0.52952 0.68009 0.0
C1120 C 0.40508 0.52596 0.69652 0.0
C1121 C 0.43862 0.52336 0.68129 0.0
H1122 H 0.43703 0.5031 0.7291 0.0
H1123 H 0.38938 0.53088 0.6957 0.0
O1124 O 0.36703 0.50325 0.77864 0.0
O1125 O 0.39783 0.5315 0.75967 0.0
O1126 O 0.40076 0.48569 0.75018 0.0
O1127 O 0.36495 0.51111 0.73153 0.0
H1128 H 0.32742 0.51067 0.78029 0.0
H1129 H 0.37424 0.46776 0.79648 0.0
H1130 H 0.30165 0.48726 0.79516 0.0
H1131 H 0.34767 0.44505 0.81101 0.0
H1132 H 0.40649 0.5846 0.71603 0.0
H1133 H 0.43785 0.53552 0.76376 0.0
H1134 H 0.38447 0.55947 0.73389 0.0
H1135 H 0.45896 0.56098 0.7453 0.0
H1136 H 0.41301 0.49551 0.84701 0.0
H1137 H 0.46457 0.49479 0.80611 0.0
H1138 H 0.30183 0.56137 0.75299 0.0
H1139 H 0.35092 0.5949 0.78244 0.0
H1140 H 0.41586 0.46706 0.71772 0.0
H1141 H 0.40691 0.46224 0.78264 0.0
H1142 H 0.43267 0.43325 0.7182 0.0
H1143 H 0.42399 0.42861 0.78198 0.0
H1144 H 0.38119 0.47849 0.71409 0.0
H1145 H 0.33751 0.52668 0.70649 0.0
H1146 H 0.37184 0.46537 0.67974 0.0
H1147 H 0.32882 0.5127 0.67222 0.0
H1148 H 0.30382 0.45702 0.7378 0.0
H1149 H 0.35333 0.41421 0.74535 0.0
H1150 H 0.46114 0.50912 0.70109 0.0
H1151 H 0.41212 0.5368 0.66651 0.0
Li1152 Li 0.77268 0.39423 0.50326 0.0
Li1153 Li 0.75746 0.36835 0.52435 0.0
Li1154 Li 0.7515 0.36833 0.48776 0.0
Li1155 Li 0.73617 0.39401 0.50907 0.0
C1156 C 0.79614 0.35948 0.51088 0.0
N1157 N 0.83316 0.34939 0.5284 0.0
C1158 C 0.80399 0.37104 0.52711 0.0
C1159 C 0.80711 0.34279 0.50358 0.0
C1160 C 0.82273 0.36569 0.53576 0.0
C1161 C 0.82581 0.33793 0.51263 0.0
C1162 C 0.74979 0.40305 0.54789 0.0
C1163 C 0.72486 0.39683 0.57413 0.0
N1164 N 0.73243 0.41294 0.58494 0.0
C1165 C 0.75731 0.41954 0.55924 0.0
C1166 C 0.73342 0.39159 0.55537 0.0
C1167 C 0.74834 0.4243 0.57794 0.0
C1168 C 0.79391 0.43146 0.50534 0.0
N1169 N 0.79557 0.41174 0.49918 0.0
C1170 C 0.8292 0.41798 0.48667 0.0
C1171 C 0.81272 0.40484 0.4899 0.0
C1172 C 0.82796 0.43851 0.49283 0.0
C1173 C 0.80997 0.44519 0.50228 0.0
H1174 H 0.77998 0.43656 0.51247 0.0
H1175 H 0.8136 0.38914 0.48491 0.0
C1176 C 0.75577 0.33117 0.54545 0.0
N1177 N 0.76175 0.35097 0.54726 0.0
C1178 C 0.75908 0.3175 0.56147 0.0
C1179 C 0.77455 0.34492 0.58093 0.0
C1180 C 0.77106 0.358 0.5645 0.0
C1181 C 0.76861 0.32431 0.57955 0.0
H1182 H 0.74862 0.32596 0.53144 0.0
H1183 H 0.77591 0.37376 0.56549 0.0
C1184 C 0.75897 0.40345 0.46455 0.0
N1185 N 0.77621 0.41421 0.42768 0.0
C1186 C 0.75162 0.42028 0.45375 0.0
C1187 C 0.7751 0.3921 0.45661 0.0
C1188 C 0.76053 0.42547 0.43513 0.0
C1189 C 0.78361 0.39779 0.43794 0.0
C1190 C 0.71286 0.35891 0.50113 0.0
C1191 C 0.70507 0.37033 0.48487 0.0
C1192 C 0.70189 0.34212 0.50838 0.0
C1193 C 0.68637 0.36474 0.47614 0.0
C1194 C 0.68323 0.33703 0.49924 0.0
N1195 N 0.67593 0.34835 0.48345 0.0
C1196 C 0.75351 0.33124 0.46646 0.0
C1197 C 0.73822 0.35787 0.44743 0.0
C1198 C 0.75053 0.31758 0.4503 0.0
N1199 N 0.74739 0.35094 0.46473 0.0
C1200 C 0.73507 0.3448 0.43085 0.0
C1201 C 0.7412 0.32429 0.43213 0.0
H1202 H 0.76055 0.32611 0.48051 0.0
H1203 H 0.73327 0.37355 0.44649 0.0
C1204 C 0.71564 0.43137 0.50822 0.0
N1205 N 0.71331 0.41138 0.51324 0.0
C1206 C 0.69973 0.44512 0.51132 0.0
C1207 C 0.67925 0.4174 0.52453 0.0
C1208 C 0.69564 0.40426 0.52145 0.0
C1209 C 0.68122 0.43813 0.51948 0.0
H1210 H 0.72994 0.43662 0.5019 0.0
H1211 H 0.69429 0.3884 0.52577 0.0
O1212 O 0.77774 0.36425 0.50222 0.0
O1213 O 0.75838 0.39838 0.52948 0.0
O1214 O 0.75047 0.39838 0.48289 0.0
O1215 O 0.73123 0.3639 0.50985 0.0
H1216 H 0.79575 0.38402 0.53297 0.0
H1217 H 0.80121 0.33368 0.49104 0.0
H1218 H 0.82898 0.3745 0.54832 0.0
H1219 H 0.83446 0.32505 0.50713 0.0
H1220 H 0.71219 0.3881 0.5801 0.0
H1221 H 0.76996 0.42858 0.55363 0.0
H1222 H 0.72738 0.37876 0.54683 0.0
H1223 H 0.75401 0.43702 0.5869 0.0
H1224 H 0.84281 0.41204 0.47957 0.0
H1225 H 0.80814 0.46092 0.50697 0.0
H1226 H 0.75454 0.3017 0.55953 0.0
H1227 H 0.7817 0.35096 0.59462 0.0
H1228 H 0.73917 0.42924 0.45974 0.0
H1229 H 0.781 0.37903 0.46472 0.0
H1230 H 0.75499 0.43846 0.42661 0.0
H1231 H 0.7961 0.38914 0.43162 0.0
H1232 H 0.7133 0.38339 0.47905 0.0
H1233 H 0.70775 0.33311 0.52093 0.0
H1234 H 0.68016 0.37344 0.46356 0.0
H1235 H 0.67457 0.32407 0.5047 0.0
H1236 H 0.75519 0.30187 0.45217 0.0
H1237 H 0.72807 0.35077 0.41711 0.0
H1238 H 0.7018 0.46099 0.50718 0.0
H1239 H 0.6653 0.41151 0.53113 0.0
Li1240 Li 0.64277 0.9879 0.76212 0.0
Li1241 Li 0.61688 0.00936 0.7772 0.0
Li1242 Li 0.61768 1.00227 0.74016 0.0
Li1243 Li 0.64341 0.02486 0.75464 0.0
C1244 C 0.60973 0.96311 0.76781 0.0
N1245 N 0.6037 0.92259 0.77791 0.0
C1246 C 0.60029 0.95793 0.78619 0.0
C1247 C 0.61603 0.94766 0.75454 0.0
C1248 C 0.5974 0.93737 0.79103 0.0
C1249 C 0.61287 0.92727 0.75993 0.0
C1250 C 0.65616 1.0031 0.79853 0.0
C1251 C 0.68594 0.99935 0.81996 0.0
N1252 N 0.67541 0.98626 0.83212 0.0
C1253 C 0.64564 0.98962 0.81126 0.0
C1254 C 0.67648 0.00803 0.80291 0.0
C1255 C 0.65563 0.98127 0.82815 0.0
C1256 C 0.67827 0.96503 0.7558 0.0
N1257 N 0.66088 0.96542 0.76699 0.0
C1258 C 0.67063 0.93485 0.78432 0.0
C1259 C 0.65705 0.95091 0.78131 0.0
C1260 C 0.68872 0.93392 0.77292 0.0
C1261 C 0.69249 0.94945 0.75858 0.0
H1262 H 0.68119 0.97697 0.7448 0.0
H1263 H 0.64343 0.95166 0.79043 0.0
C1264 C 0.57917 0.0109 0.79708 0.0
N1265 N 0.59941 0.0147 0.79966 0.0
C1266 C 0.56556 0.01454 0.813 0.0
C1267 C 0.5939 0.02612 0.83385 0.0
C1268 C 0.60691 0.0225 0.81745 0.0
C1269 C 0.57295 0.02206 0.83173 0.0
H1270 H 0.57364 1.00492 0.78266 0.0
H1271 H 0.62299 0.02595 0.81891 0.0
C1272 C 0.6478 0.99926 0.71524 0.0
N1273 N 0.64628 0.99425 0.67338 0.0
C1274 C 0.64716 0.01631 0.70247 0.0
C1275 C 0.64785 0.97968 0.70676 0.0
C1276 C 0.64635 0.01345 0.68133 0.0
C1277 C 0.64703 0.97746 0.68555 0.0
C1278 C 0.60788 0.04757 0.76163 0.0
C1279 C 0.59123 0.05801 0.75341 0.0
C1280 C 0.61878 0.05608 0.77799 0.0
C1281 C 0.58579 0.07689 0.76166 0.0
C1282 C 0.61286 0.07498 0.78581 0.0
N1283 N 0.59663 0.08491 0.77755 0.0
C1284 C 0.59446 0.97946 0.71117 0.0
C1285 C 0.59523 0.01517 0.70562 0.0
C1286 C 0.58204 0.9766 0.69402 0.0
N1287 N 0.6008 0.99849 0.71659 0.0
C1288 C 0.58274 0.01304 0.68837 0.0
C1289 C 0.57598 0.99353 0.68238 0.0
H1290 H 0.59891 0.96648 0.72018 0.0
H1291 H 0.60054 0.03014 0.71026 0.0
C1292 C 0.68068 0.04603 0.75407 0.0
N1293 N 0.66053 0.04788 0.74956 0.0
C1294 C 0.69404 0.06235 0.75083 0.0
C1295 C 0.66576 0.08204 0.73783 0.0
C1296 C 0.65296 0.06529 0.74124 0.0
C1297 C 0.68662 0.08075 0.74274 0.0
H1298 H 0.6864 0.03178 0.76 0.0
H1299 H 0.63699 0.06623 0.73722 0.0
O1300 O 0.61253 0.98318 0.76279 0.0
O1301 O 0.64668 0.01125 0.78177 0.0
O1302 O 0.64791 1.00173 0.73596 0.0
O1303 O 0.61321 0.02898 0.75381 0.0
H1304 H 0.59529 0.96965 0.79665 0.0
H1305 H 0.62372 0.95134 0.74044 0.0
H1306 H 0.59016 0.93315 0.80522 0.0
H1307 H 0.61782 0.91518 0.74988 0.0
H1308 H 0.70166 1.00304 0.82353 0.0
H1309 H 0.62999 0.98546 0.80799 0.0
H1310 H 0.68487 0.01846 0.79331 0.0
H1311 H 0.64767 0.97076 0.83807 0.0
H1312 H 0.66677 0.92319 0.79535 0.0
H1313 H 0.70638 0.94979 0.74975 0.0
H1314 H 0.54951 0.01117 0.81081 0.0
H1315 H 0.6001 0.03224 0.84796 0.0
H1316 H 0.64701 0.03156 0.70883 0.0
H1317 H 0.64839 0.96635 0.71647 0.0
H1318 H 0.6457 0.02649 0.67125 0.0
H1319 H 0.64694 0.9624 0.67877 0.0
H1320 H 0.58259 0.05158 0.7408 0.0
H1321 H 0.6317 0.04824 0.78458 0.0
H1322 H 0.57295 0.08515 0.75544 0.0
H1323 H 0.62116 0.08175 0.79845 0.0
H1324 H 0.57694 0.96133 0.69015 0.0
H1325 H 0.57859 0.02647 0.67972 0.0
H1326 H 0.71007 0.06044 0.75436 0.0
H1327 H 0.6593 0.0959 0.73165 0.0
Li1328 Li 0.0243 0.26021 0.86598 0.0
Li1329 Li 1.00303 0.27561 0.89504 0.0
Li1330 Li 0.01038 0.23884 0.89309 0.0
Li1331 Li 0.98785 0.25389 0.86893 0.0
C1332 C 0.04491 0.25273 0.90755 0.0
N1333 N 0.07317 0.23253 0.93141 0.0
C1334 C 0.04548 0.25594 0.92864 0.0
C1335 C 0.05876 0.23934 0.89855 0.0
C1336 C 0.05987 0.24556 0.94045 0.0
C1337 C 0.07292 0.22925 0.91089 0.0
C1338 C 0.98965 0.28951 0.8505 0.0
C1339 C 0.95831 0.30614 0.8409 0.0
N1340 N 0.96425 0.30584 0.82103 0.0
C1341 C 0.99553 0.28953 0.83002 0.0
C1342 C 0.97098 0.29804 0.85603 0.0
C1343 C 0.98245 0.29781 0.81534 0.0
C1344 C 0.04549 0.25771 0.82873 0.0
N1345 N 0.04659 0.26471 0.84825 0.0
C1346 C 0.07995 0.27826 0.84253 0.0
C1347 C 0.06333 0.27481 0.85534 0.0
C1348 C 0.07926 0.27142 0.82216 0.0
C1349 C 0.06167 0.26101 0.81533 0.0
H1350 H 0.03193 0.24973 0.82355 0.0
H1351 H 0.0638 0.28009 0.871 0.0
C1352 C 0.99852 0.29524 0.93301 0.0
N1353 N 0.99972 0.29837 0.91255 0.0
C1354 C 0.9957 0.31172 0.94625 0.0
C1355 C 0.99512 0.33424 0.91703 0.0
C1356 C 0.99814 0.31735 0.90438 0.0
C1357 C 0.9939 0.33152 0.93826 0.0
H1358 H 0.99954 0.27991 0.93901 0.0
H1359 H 0.99914 0.31935 0.88802 0.0
C1360 C 1.00228 0.21514 0.85817 0.0
N1361 N 0.98683 0.17713 0.84805 0.0
C1362 C 0.98522 0.20742 0.8683 0.0
C1363 C 0.01146 0.20358 0.84285 0.0
C1364 C 0.97764 0.18817 0.86298 0.0
C1365 C 1.00344 0.18438 0.83796 0.0
C1366 C 0.96613 0.25247 0.90835 0.0
C1367 C 0.95808 0.23434 0.91623 0.0
C1368 C 0.95531 0.27066 0.91057 0.0
C1369 C 0.93916 0.23468 0.92593 0.0
C1370 C 0.93644 0.27036 0.92038 0.0
N1371 N 0.92882 0.25252 0.92777 0.0
C1372 C 0.01 0.21752 0.93009 0.0
C1373 C 0.02487 0.19888 0.90295 0.0
C1374 C 0.01355 0.20146 0.9436 0.0
N1375 N 0.01562 0.21593 0.9102 0.0
C1376 C 0.02851 0.18235 0.91588 0.0
C1377 C 0.02282 0.18354 0.9365 0.0
H1378 H 1.00282 0.23134 0.93545 0.0
H1379 H 0.02956 0.19816 0.88717 0.0
C1380 C 0.96805 0.24604 0.83181 0.0
N1381 N 0.96424 0.24934 0.85194 0.0
C1382 C 0.95203 0.24285 0.81803 0.0
C1383 C 0.92836 0.24585 0.846 0.0
C1384 C 0.94483 0.24926 0.8592 0.0
C1385 C 0.93187 0.24269 0.82511 0.0
H1386 H 0.98363 0.24597 0.82644 0.0
H1387 H 0.94199 0.25186 0.87515 0.0
O1388 O 0.03048 0.26217 0.8958 0.0
O1389 O 1.00202 0.28098 0.86503 0.0
O1390 O 0.00996 0.23399 0.86304 0.0
O1391 O 0.98476 0.25243 0.89902 0.0
H1392 H 0.03482 0.2662 0.93584 0.0
H1393 H 0.05836 0.23654 0.88226 0.0
H1394 H 0.06043 0.2478 0.95682 0.0
H1395 H 0.08365 0.21875 0.90416 0.0
H1396 H 0.94375 0.31264 0.84494 0.0
H1397 H 0.00995 0.28307 0.82549 0.0
H1398 H 0.96624 0.29823 0.8718 0.0
H1399 H 0.98674 0.29779 0.79941 0.0
H1400 H 0.09328 0.28601 0.84864 0.0
H1401 H 0.06025 0.25571 0.79971 0.0
H1402 H 0.99458 0.30896 0.96251 0.0
H1403 H 0.99398 0.34927 0.9103 0.0
H1404 H 0.97786 0.21622 0.88008 0.0
H1405 H 0.02466 0.20939 0.83484 0.0
H1406 H 0.96444 0.18201 0.8707 0.0
H1407 H 0.0104 0.17525 0.82615 0.0
H1408 H 0.96635 0.22016 0.91492 0.0
H1409 H 0.96133 0.28486 0.90475 0.0
H1410 H 0.93271 0.22075 0.93203 0.0
H1411 H 0.92787 0.28432 0.92212 0.0
H1412 H 0.00883 0.20293 0.95935 0.0
H1413 H 0.03594 0.16889 0.9099 0.0
H1414 H 0.95538 0.24025 0.80206 0.0
H1415 H 0.91301 0.24598 0.85203 0.0
Li1416 Li 0.52421 0.76076 0.36664 0.0
Li1417 Li 0.50236 0.77532 0.39358 0.0
Li1418 Li 0.50916 0.73888 0.39307 0.0
Li1419 Li 0.48757 0.75552 0.36727 0.0
C1420 C 0.54773 0.7535 0.40165 0.0
N1421 N 0.58535 0.73742 0.41158 0.0
C1422 C 0.55915 0.76184 0.41771 0.0
C1423 C 0.5554 0.73693 0.39067 0.0
C1424 C 0.57815 0.75351 0.42249 0.0
C1425 C 0.57446 0.72903 0.39592 0.0
C1426 C 0.49279 0.78988 0.3475 0.0
C1427 C 0.46375 0.80684 0.33252 0.0
N1428 N 0.47232 0.80496 0.31375 0.0
C1429 C 0.50139 0.78834 0.32808 0.0
C1430 C 0.4739 0.79942 0.34976 0.0
C1431 C 0.49079 0.79598 0.31121 0.0
C1432 C 0.54821 0.75519 0.33154 0.0
N1433 N 0.54764 0.76459 0.35003 0.0
C1434 C 0.58051 0.77944 0.34451 0.0
C1435 C 0.56331 0.77655 0.35669 0.0
C1436 C 0.58146 0.77019 0.32511 0.0
C1437 C 0.56493 0.75793 0.31872 0.0
H1438 H 0.53543 0.74591 0.32658 0.0
H1439 H 0.56246 0.78382 0.37151 0.0
C1440 C 0.50193 0.79524 0.43184 0.0
N1441 N 0.49927 0.79801 0.41144 0.0
C1442 C 0.49905 0.81147 0.44538 0.0
C1443 C 0.49108 0.83312 0.41659 0.0
C1444 C 0.49413 0.81649 0.40363 0.0
C1445 C 0.49344 0.83071 0.43779 0.0
H1446 H 0.50603 0.78034 0.43759 0.0
H1447 H 0.49234 0.81831 0.38732 0.0
C1448 C 0.50095 0.71659 0.35679 0.0
N1449 N 0.48367 0.67996 0.34463 0.0
C1450 C 0.48336 0.70926 0.36637 0.0
C1451 C 0.5097 0.7053 0.34101 0.0
C1452 C 0.47487 0.69071 0.36 0.0
C1453 C 0.50075 0.68681 0.33509 0.0
C1454 C 0.46969 0.75948 0.4117 0.0
C1455 C 0.46852 0.74953 0.43052 0.0
C1456 C 0.45767 0.77669 0.40817 0.0
C1457 C 0.45583 0.75733 0.4457 0.0
C1458 C 0.4452 0.78406 0.42374 0.0
N1459 N 0.44457 0.77432 0.44204 0.0
C1460 C 0.51574 0.71942 0.43057 0.0
C1461 C 0.51877 0.69697 0.4024 0.0
C1462 C 0.51957 0.7035 0.4442 0.0
N1463 N 0.51485 0.71582 0.41014 0.0
C1464 C 0.52272 0.68062 0.41545 0.0
C1465 C 0.52291 0.6837 0.43669 0.0
H1466 H 0.51338 0.73472 0.4363 0.0
H1467 H 0.51909 0.69454 0.38612 0.0
C1468 C 0.46798 0.74766 0.32968 0.0
N1469 N 0.46452 0.75151 0.34977 0.0
C1470 C 0.45167 0.74436 0.31628 0.0
C1471 C 0.42853 0.74872 0.34454 0.0
C1472 C 0.4453 0.75199 0.35739 0.0
C1473 C 0.43159 0.74484 0.32366 0.0
H1474 H 0.48346 0.74714 0.32409 0.0
H1475 H 0.44298 0.75469 0.37348 0.0
O1476 O 0.52901 0.76139 0.39698 0.0
O1477 O 0.50278 0.78206 0.36415 0.0
O1478 O 0.50939 0.73489 0.36249 0.0
O1479 O 0.48228 0.75223 0.39673 0.0
H1480 H 0.55335 0.77461 0.42641 0.0
H1481 H 0.54673 0.73019 0.37826 0.0
H1482 H 0.58717 0.75982 0.43488 0.0
H1483 H 0.58059 0.71622 0.38756 0.0
H1484 H 0.44905 0.8141 0.33406 0.0
H1485 H 0.51603 0.78122 0.32599 0.0
H1486 H 0.46706 0.801 0.36462 0.0
H1487 H 0.49723 0.79474 0.29609 0.0
H1488 H 0.59295 0.78871 0.35033 0.0
H1489 H 0.56467 0.75079 0.3038 0.0
H1490 H 0.50084 0.80887 0.46162 0.0
H1491 H 0.48709 0.84775 0.41006 0.0
H1492 H 0.47633 0.71774 0.37859 0.0
H1493 H 0.52329 0.71075 0.33342 0.0
H1494 H 0.46128 0.68486 0.36727 0.0
H1495 H 0.50738 0.6779 0.32291 0.0
H1496 H 0.47711 0.73581 0.43335 0.0
H1497 H 0.45814 0.78442 0.39366 0.0
H1498 H 0.45488 0.74982 0.46036 0.0
H1499 H 0.43603 0.79752 0.42126 0.0
H1500 H 0.5196 0.70665 0.46044 0.0
H1501 H 0.52583 0.66576 0.40893 0.0
H1502 H 0.45478 0.74164 0.30029 0.0
H1503 H 0.41335 0.74888 0.35097 0.0
Li1504 Li 0.00888 0.77676 0.61761 0.0
Li1505 Li 0.98777 0.76143 0.64344 0.0
Li1506 Li 0.02428 0.75555 0.64332 0.0
Li1507 Li 1.0028 0.74021 0.61762 0.0
C1508 C 1.00154 0.80014 0.65266 0.0
N1509 N 0.98427 0.83706 0.66316 0.0
C1510 C 0.98523 0.80788 0.64127 0.0
C1511 C 0.00904 0.81115 0.66939 0.0
C1512 C 0.97672 0.82657 0.64682 0.0
C1513 C 1.00012 0.8298 0.67445 0.0
C1514 C 0.96417 0.7538 0.60839 0.0
C1515 C 0.93748 0.72907 0.61422 0.0
N1516 N 0.92712 0.73643 0.59779 0.0
C1517 C 0.95328 0.76111 0.59156 0.0
C1518 C 0.95624 0.73764 0.61983 0.0
C1519 C 0.93456 0.75213 0.58645 0.0
C1520 C 0.00781 0.79721 0.58013 0.0
N1521 N 0.01304 0.7996 0.60011 0.0
C1522 C 0.02455 0.83368 0.59389 0.0
C1523 C 0.02146 0.8173 0.60714 0.0
C1524 C 0.0193 0.83165 0.57318 0.0
C1525 C 0.01092 0.8131 0.56629 0.0
H1526 H 1.00133 0.78288 0.57496 0.0
H1527 H 0.02594 0.81868 0.62298 0.0
C1528 C 0.96678 0.75959 0.68061 0.0
N1529 N 0.96494 0.76556 0.66083 0.0
C1530 C 0.95074 0.76257 0.69423 0.0
C1531 C 0.93118 0.77769 0.66682 0.0
C1532 C 0.94766 0.77458 0.65379 0.0
C1533 C 0.93257 0.77172 0.68739 0.0
H1534 H 0.98081 0.75267 0.68582 0.0
H1535 H 0.94664 0.77943 0.63806 0.0
C1536 C 0.04742 0.76323 0.60843 0.0
N1537 N 0.08441 0.78069 0.59822 0.0
C1538 C 0.05847 0.75571 0.59188 0.0
C1539 C 0.05516 0.77964 0.61978 0.0
C1540 C 0.07715 0.76474 0.58696 0.0
C1541 C 0.07389 0.78825 0.61437 0.0
C1542 C 0.01062 0.71686 0.65253 0.0
C1543 C 0.02663 0.70898 0.64095 0.0
C1544 C 1.00343 0.70595 0.66934 0.0
C1545 C 0.03517 0.69027 0.64641 0.0
C1546 C 0.01237 0.68728 0.6743 0.0
N1547 N 0.02792 0.67989 0.66283 0.0
C1548 C 0.04601 0.75731 0.68035 0.0
C1549 C 0.06441 0.74204 0.65333 0.0
C1550 C 0.06224 0.75405 0.69385 0.0
N1551 N 0.0474 0.75132 0.66054 0.0
C1552 C 0.08105 0.73862 0.66624 0.0
C1553 C 0.08011 0.74458 0.68685 0.0
H1554 H 0.03217 0.76443 0.6857 0.0
H1555 H 0.06507 0.73718 0.63758 0.0
C1556 C 1.00418 0.71894 0.58045 0.0
N1557 N 0.99836 0.71725 0.60027 0.0
C1558 C 1.00093 0.70278 0.56686 0.0
C1559 C 0.98586 0.68342 0.59437 0.0
C1560 C 0.98921 0.70001 0.60737 0.0
C1561 C 0.99172 0.6847 0.57382 0.0
H1562 H 0.01129 0.7329 0.57522 0.0
H1563 H 0.98438 0.69917 0.6231 0.0
O1564 O 0.01006 0.78178 0.64772 0.0
O1565 O 0.9826 0.76237 0.6134 0.0
O1566 O 0.02903 0.75458 0.61325 0.0
O1567 O 1.00206 0.73523 0.64765 0.0
H1568 H 0.97922 0.79961 0.62826 0.0
H1569 H 0.02163 0.80533 0.67838 0.0
H1570 H 0.9641 0.83274 0.63814 0.0
H1571 H 0.00578 0.83849 0.68737 0.0
H1572 H 0.93116 0.71656 0.62294 0.0
H1573 H 0.95925 0.77358 0.58253 0.0
H1574 H 0.96443 0.73177 0.63291 0.0
H1575 H 0.92596 0.75763 0.57345 0.0
H1576 H 0.03132 0.84765 0.5997 0.0
H1577 H 0.00662 0.811 0.55043 0.0
H1578 H 0.9527 0.75805 0.71001 0.0
H1579 H 0.91745 0.78455 0.66074 0.0
H1580 H 0.05264 0.74303 0.58293 0.0
H1581 H 0.04686 0.78567 0.63264 0.0
H1582 H 0.08587 0.75907 0.5742 0.0
H1583 H 0.08007 0.80096 0.62302 0.0
H1584 H 0.0324 0.71718 0.62787 0.0
H1585 H 0.99106 0.71187 0.67847 0.0
H1586 H 0.04756 0.684 0.63759 0.0
H1587 H 0.00695 0.67866 0.68728 0.0
H1588 H 0.06064 0.75859 0.70966 0.0
H1589 H 0.09456 0.73152 0.66005 0.0
H1590 H 0.00576 0.70431 0.55115 0.0
H1591 H 0.97845 0.66985 0.60025 0.0
Li1592 Li 0.50723 0.27727 0.11707 0.0
Li1593 Li 0.48652 0.2624 0.1427 0.0
Li1594 Li 0.52331 0.25563 0.14424 0.0
Li1595 Li 0.5004 0.24042 0.11758 0.0
C1596 C 0.50088 0.29616 0.15955 0.0
N1597 N 0.48228 0.3231 0.18599 0.0
C1598 C 0.49008 0.31285 0.1519 0.0
C1599 C 0.50231 0.29322 0.18064 0.0
C1600 C 0.48079 0.3263 0.16553 0.0
C1601 C 0.49275 0.30698 0.19376 0.0
C1602 C 0.46114 0.26795 0.11078 0.0
C1603 C 0.42548 0.25967 0.11464 0.0
N1604 N 0.42048 0.27827 0.10696 0.0
C1605 C 0.45564 0.28698 0.1029 0.0
C1606 C 0.44594 0.25416 0.11666 0.0
C1607 C 0.43501 0.29191 0.10109 0.0
C1608 C 0.50612 0.29864 0.07975 0.0
N1609 N 0.51213 0.29991 0.0996 0.0
C1610 C 0.5258 0.33332 0.09423 0.0
C1611 C 0.52195 0.3167 0.10698 0.0
C1612 C 0.51968 0.33254 0.07362 0.0
C1613 C 0.50979 0.31482 0.06642 0.0
H1614 H 0.49854 0.28497 0.07428 0.0
H1615 H 0.52676 0.31718 0.1228 0.0
C1616 C 0.46239 0.25453 0.17729 0.0
N1617 N 0.46386 0.26686 0.1607 0.0
C1618 C 0.44667 0.25721 0.19136 0.0
C1619 C 0.43412 0.28514 0.17092 0.0
C1620 C 0.4503 0.28219 0.15753 0.0
C1621 C 0.4321 0.27262 0.18822 0.0
H1622 H 0.47362 0.24275 0.17978 0.0
H1623 H 0.45202 0.29224 0.14462 0.0
C1624 C 0.53813 0.26058 0.09778 0.0
N1625 N 0.55894 0.27542 0.06433 0.0
C1626 C 0.53316 0.25367 0.07817 0.0
C1627 C 0.55367 0.27504 0.10039 0.0
C1628 C 0.54389 0.26133 0.06145 0.0
C1629 C 0.564 0.28237 0.08328 0.0
C1630 C 0.49897 0.21564 0.14867 0.0
C1631 C 0.51669 0.20396 0.15003 0.0
C1632 C 0.47996 0.20597 0.14742 0.0
C1633 C 0.5151 0.18268 0.14994 0.0
C1634 C 0.47902 0.18466 0.14735 0.0
N1635 N 0.49646 0.17356 0.14859 0.0
C1636 C 0.54298 0.24751 0.18149 0.0
C1637 C 0.56536 0.2505 0.15335 0.0
C1638 C 0.55936 0.2438 0.19467 0.0
N1639 N 0.54628 0.25094 0.16132 0.0
C1640 C 0.5822 0.24686 0.16597 0.0
C1641 C 0.57932 0.2435 0.18696 0.0
H1642 H 0.52758 0.24757 0.18732 0.0
H1643 H 0.56751 0.25277 0.13718 0.0
C1644 C 0.47816 0.21248 0.09279 0.0
N1645 N 0.49674 0.21664 0.10112 0.0
C1646 C 0.4753 0.1952 0.08061 0.0
C1647 C 0.51089 0.18693 0.08549 0.0
C1648 C 0.513 0.20431 0.09773 0.0
C1649 C 0.49181 0.1822 0.07677 0.0
H1650 H 0.46557 0.22266 0.09541 0.0
H1651 H 0.52765 0.20806 0.10449 0.0
O1652 O 0.50977 0.28262 0.14645 0.0
O1653 O 0.48128 0.26281 0.11247 0.0
O1654 O 0.52741 0.2537 0.11428 0.0
O1655 O 0.50023 0.23646 0.14812 0.0
H1656 H 0.48856 0.31519 0.13562 0.0
H1657 H 0.51054 0.28036 0.18681 0.0
H1658 H 0.47228 0.33921 0.15982 0.0
H1659 H 0.49363 0.30483 0.21011 0.0
H1660 H 0.41357 0.2492 0.11926 0.0
H1661 H 0.46716 0.29791 0.09839 0.0
H1662 H 0.44989 0.2395 0.12307 0.0
H1663 H 0.43054 0.3066 0.09508 0.0
H1664 H 0.53327 0.3467 0.10053 0.0
H1665 H 0.50515 0.31334 0.0506 0.0
H1666 H 0.4462 0.24747 0.20467 0.0
H1667 H 0.42324 0.29705 0.16755 0.0
H1668 H 0.52099 0.24269 0.07583 0.0
H1669 H 0.55743 0.28087 0.11543 0.0
H1670 H 0.54016 0.25617 0.04617 0.0
H1671 H 0.57596 0.29368 0.08506 0.0
H1672 H 0.53153 0.21122 0.15088 0.0
H1673 H 0.46612 0.21483 0.14639 0.0
H1674 H 0.52869 0.17343 0.15086 0.0
H1675 H 0.46443 0.17696 0.14628 0.0
H1676 H 0.55642 0.24143 0.21075 0.0
H1677 H 0.59726 0.24638 0.1593 0.0
H1678 H 0.46043 0.19227 0.07392 0.0
H1679 H 0.52397 0.17723 0.083 0.0
C1680 C 0.24987 0.7822 0.89343 0.0
C1681 C 0.23236 0.78385 0.88109 0.0
H1682 H 0.2669 0.79413 0.91874 0.0
C1683 C 0.21797 0.79897 0.88563 0.0
H1684 H 0.26134 0.77084 0.89014 0.0
C1685 C 0.22099 0.81218 0.90216 0.0
C1686 C 0.2386 0.81069 0.91445 0.0
H1687 H 0.20419 0.80041 0.87655 0.0
H1688 H 0.20937 0.82338 0.90545 0.0
C1689 C 0.253 0.79553 0.90986 0.0
C1690 C 0.0495 0.52093 0.38471 0.0
C1691 C 0.03114 0.53145 0.38147 0.0
H1692 H 0.07703 0.50954 0.37149 0.0
C1693 C 0.0265 0.53862 0.36179 0.0
H1694 H 0.05351 0.51537 0.39976 0.0
C1695 C 0.03988 0.53519 0.34561 0.0
C1696 C 0.05829 0.52478 0.34887 0.0
H1697 H 0.01239 0.54667 0.35886 0.0
H1698 H 0.03594 0.54088 0.33058 0.0
C1699 C 0.063 0.51775 0.36859 0.0
C1700 C 0.76472 0.73347 0.89485 0.0
C1701 C 0.78264 0.73224 0.88319 0.0
H1702 H 0.74725 0.72131 0.9195 0.0
C1703 C 0.79723 0.71745 0.88841 0.0
H1704 H 0.75326 0.74484 0.89149 0.0
C1705 C 0.79399 0.70424 0.90482 0.0
C1706 C 0.77598 0.70533 0.91634 0.0
H1707 H 0.81109 0.71585 0.87966 0.0
H1708 H 0.80571 0.69325 0.90853 0.0
C1709 C 0.7614 0.72014 0.91114 0.0
C1710 C 0.98596 0.9801 0.35879 0.0
C1711 C 0.98007 0.98488 0.37887 0.0
H1712 H 0.9777 0.97965 0.32709 0.0
C1713 C 0.96065 0.99336 0.38203 0.0
H1714 H 1.00063 0.97322 0.35578 0.0
C1715 C 0.94744 0.99678 0.36559 0.0
C1716 C 0.95339 0.99202 0.34557 0.0
H1717 H 0.95571 0.9976 0.3972 0.0
H1718 H 0.93264 1.00344 0.3685 0.0
C1719 C 0.97282 0.98372 0.34233 0.0
C1720 C 0.25212 0.23009 0.62029 0.0
C1721 C 0.23413 0.22868 0.63181 0.0
H1722 H 0.2697 0.21818 0.5956 0.0
C1723 C 0.21963 0.21367 0.62652 0.0
H1724 H 0.26352 0.24162 0.62374 0.0
C1725 C 0.22299 0.20047 0.6101 0.0
C1726 C 0.24101 0.20184 0.59861 0.0
H1727 H 0.2057 0.21195 0.63517 0.0
H1728 H 0.21132 0.18933 0.6063 0.0
C1729 C 0.25554 0.21681 0.60394 0.0
C1730 C 0.46514 0.54796 0.63598 0.0
C1731 C 0.47996 0.53332 0.63104 0.0
H1732 H 0.44077 0.55651 0.65578 0.0
C1733 C 0.48103 0.51541 0.64278 0.0
H1734 H 0.46369 0.56183 0.62713 0.0
C1735 C 0.4676 0.51217 0.65896 0.0
C1736 C 0.45282 0.52682 0.66395 0.0
H1737 H 0.49239 0.50391 0.63962 0.0
H1738 H 0.4687 0.49804 0.66744 0.0
C1739 C 0.45178 0.54477 0.65225 0.0
C1740 C 0.76175 0.28139 0.61798 0.0
C1741 C 0.77965 0.28309 0.62976 0.0
H1742 H 0.74398 0.2933 0.59328 0.0
C1743 C 0.79396 0.29831 0.62485 0.0
H1744 H 0.75033 0.26997 0.62157 0.0
C1745 C 0.79044 0.31156 0.60852 0.0
C1746 C 0.77245 0.31002 0.5968 0.0
H1747 H 0.80803 0.29981 0.63348 0.0
H1748 H 0.80199 0.32285 0.60494 0.0
C1749 C 0.75815 0.29474 0.60174 0.0
C1750 C 0.55227 0.9714 0.63414 0.0
C1751 C 0.53579 0.98464 0.63073 0.0
H1752 H 0.57796 0.96395 0.65294 0.0
C1753 C 0.53291 1.0011 0.64419 0.0
H1754 H 0.55482 0.95847 0.62416 0.0
C1755 C 0.5461 1.00416 0.66077 0.0
C1756 C 0.56242 0.99077 0.66432 0.0
H1757 H 0.52048 0.0117 0.64186 0.0
H1758 H 0.54327 0.0168 0.67104 0.0
C1759 C 0.56541 0.97442 0.65075 0.0
C1760 C 0.89721 0.24649 0.77874 0.0
C1761 C 0.88163 0.23257 0.78364 0.0
H1762 H 0.92539 0.26053 0.78801 0.0
C1763 C 0.8827 0.22198 0.80225 0.0
H1764 H 0.89683 0.25477 0.76444 0.0
C1765 C 0.89895 0.22535 0.81576 0.0
C1766 C 0.91459 0.23918 0.81081 0.0
H1767 H 0.87082 0.21127 0.80648 0.0
H1768 H 0.89941 0.21696 0.82999 0.0
C1769 C 0.91361 0.24967 0.79213 0.0
C1770 C 0.49993 0.86815 0.48174 0.0
C1771 C 0.48356 0.88156 0.47847 0.0
H1772 H 0.51596 0.84169 0.47145 0.0
C1773 C 0.47043 0.87805 0.46177 0.0
H1774 H 0.5102 0.8703 0.49458 0.0
C1775 C 0.47363 0.86157 0.44862 0.0
C1776 C 0.49001 0.84817 0.45187 0.0
H1777 H 0.45779 0.88819 0.45871 0.0
H1778 H 0.46314 0.85921 0.436 0.0
C1779 C 0.5031 0.85162 0.46862 0.0
C1780 C 0.12454 0.29684 0.79631 0.0
C1781 C 0.12996 0.28219 0.78164 0.0
H1782 H 0.10407 0.30523 0.82014 0.0
C1783 C 0.11859 0.26401 0.78031 0.0
H1784 H 0.13288 0.31111 0.7975 0.0
C1785 C 0.10223 0.26047 0.79347 0.0
C1786 C 0.09672 0.27514 0.80815 0.0
H1787 H 0.12259 0.25233 0.76933 0.0
H1788 H 0.09413 0.24608 0.79233 0.0
C1789 C 0.10806 0.29341 0.80933 0.0
C1790 C 0.52111 0.63073 0.46011 0.0
C1791 C 0.53293 0.63333 0.4779 0.0
H1792 H 0.50838 0.64459 0.43342 0.0
C1793 C 0.5415 0.65261 0.48204 0.0
H1794 H 0.51404 0.61614 0.45665 0.0
C1795 C 0.53834 0.66892 0.46866 0.0
C1796 C 0.52648 0.66634 0.45088 0.0
H1797 H 0.55092 0.65503 0.49547 0.0
H1798 H 0.54544 0.68348 0.47214 0.0
C1799 C 0.51789 0.64704 0.44678 0.0
C1800 C 0.8868 0.79583 0.71326 0.0
C1801 C 0.88227 0.78151 0.72853 0.0
H1802 H 0.90646 0.80431 0.68875 0.0
C1803 C 0.89439 0.76397 0.73025 0.0
H1804 H 0.87789 0.80963 0.71176 0.0
C1805 C 0.91062 0.76074 0.71689 0.0
C1806 C 0.91525 0.7751 0.70162 0.0
H1807 H 0.89109 0.75256 0.74174 0.0
H1808 H 0.91934 0.74683 0.71837 0.0
C1809 C 0.90315 0.79272 0.70003 0.0
C1810 C 0.03587 0.86166 0.52664 0.0
C1811 C 0.0295 0.88148 0.53167 0.0
H1812 H 0.03747 0.83031 0.53581 0.0
C1813 C 0.01965 0.88478 0.55038 0.0
H1814 H 0.0434 0.85869 0.51226 0.0
C1815 C 0.01641 0.86861 0.56389 0.0
C1816 C 0.02269 0.84878 0.55882 0.0
H1817 H 0.0147 0.89993 0.55468 0.0
H1818 H 0.00881 0.87157 0.57824 0.0
C1819 C 0.03236 0.84543 0.54002 0.0
C1820 C 0.1257 0.71943 0.71241 0.0
C1821 C 0.131 0.73375 0.72759 0.0
H1822 H 0.1054 0.71136 0.68803 0.0
C1823 C 0.11934 0.75163 0.7293 0.0
H1824 H 0.13446 0.7056 0.71045 0.0
C1825 C 0.1029 0.75515 0.71611 0.0
C1826 C 0.09759 0.74083 0.70095 0.0
H1827 H 0.12278 0.76288 0.74097 0.0
H1828 H 0.09449 0.76925 0.71769 0.0
C1829 C 0.10918 0.72289 0.69932 0.0
C1830 C 0.98934 0.63088 0.55256 0.0
C1831 C 0.98084 0.63403 0.53304 0.0
H1832 H 0.99952 0.64441 0.58065 0.0
C1833 C 0.97609 0.65408 0.52705 0.0
H1834 H 0.99356 0.61574 0.55757 0.0
C1835 C 0.97978 0.67053 0.5402 0.0
C1836 C 0.98811 0.6673 0.55973 0.0
H1837 H 0.96921 0.65708 0.5123 0.0
H1838 H 0.97575 0.68575 0.53524 0.0
C1839 C 0.99284 0.64731 0.56577 0.0
C1840 C 0.78264 0.8962 0.24936 0.0
C1841 C 0.78418 0.88391 0.23184 0.0
H1842 H 0.79471 0.92147 0.26633 0.0
C1843 C 0.79923 0.8885 0.21735 0.0
H1844 H 0.77134 0.89287 0.2609 0.0
C1845 C 0.81247 0.90503 0.22031 0.0
C1846 C 0.81112 0.91726 0.23794 0.0
H1847 H 0.80058 0.87946 0.20356 0.0
H1848 H 0.82362 0.90835 0.20862 0.0
C1849 C 0.79601 0.91262 0.25242 0.0
C1850 C 0.7998 0.12762 0.29191 0.0
C1851 C 0.78457 0.13226 0.27751 0.0
H1852 H 0.82435 0.10793 0.30029 0.0
C1853 C 0.78293 0.1203 0.25974 0.0
H1854 H 0.80124 0.13639 0.30589 0.0
C1855 C 0.79633 0.10412 0.25639 0.0
C1856 C 0.81157 0.0994 0.27081 0.0
H1857 H 0.77149 0.12368 0.24826 0.0
H1858 H 0.7949 0.0955 0.24232 0.0
C1859 C 0.81309 0.11133 0.28865 0.0
C1860 C 0.38279 0.96046 0.9932 0.0
C1861 C 0.37987 0.97931 0.98344 0.0
H1862 H 0.36902 0.93271 1.00374 0.0
C1863 C 0.36018 0.98469 0.97691 0.0
H1864 H 0.39784 0.9559 0.99826 0.0
C1865 C 0.34368 0.97152 0.98018 0.0
C1866 C 0.34664 0.95259 0.98978 0.0
H1867 H 0.3575 0.99919 0.96945 0.0
H1868 H 0.32866 0.97601 0.97496 0.0
C1869 C 0.36635 0.94716 0.9962 0.0
C1870 C 0.21959 0.39114 0.29969 0.0
C1871 C 0.23129 0.38368 0.28349 0.0
H1872 H 0.19782 0.41305 0.30966 0.0
C1873 C 0.22944 0.39271 0.26417 0.0
H1874 H 0.22095 0.38451 0.31478 0.0
C1875 C 0.21574 0.4087 0.261 0.0
C1876 C 0.20388 0.41627 0.2772 0.0
H1877 H 0.23824 0.38707 0.25142 0.0
H1878 H 0.21419 0.4148 0.24573 0.0
C1879 C 0.20621 0.40739 0.29666 0.0
C1880 C 0.14554 0.03144 0.49992 0.0
C1881 C 0.13375 0.03292 0.48198 0.0
H1882 H 0.17038 0.0434 0.51761 0.0
C1883 C 0.13881 0.04804 0.46763 0.0
H1884 H 0.14228 0.01983 0.51121 0.0
C1885 C 0.15523 0.06129 0.47111 0.0
C1886 C 0.16693 0.0599 0.48911 0.0
H1887 H 0.12994 0.04982 0.45375 0.0
H1888 H 0.15882 0.07253 0.45956 0.0
C1889 C 0.16187 0.04479 0.50347 0.0
C1890 C 0.71146 0.12753 0.71899 0.0
C1891 C 0.72719 0.13189 0.73302 0.0
H1892 H 0.68666 0.10779 0.71077 0.0
C1893 C 0.72942 0.11941 0.7503 0.0
H1894 H 0.70953 0.13671 0.70539 0.0
C1895 C 0.71623 0.10291 0.75348 0.0
C1896 C 0.70055 0.09843 0.7394 0.0
H1897 H 0.74121 0.12255 0.76154 0.0
H1898 H 0.71817 0.09383 0.76715 0.0
C1899 C 0.69833 0.11096 0.72211 0.0
C1900 C 0.36234 0.02855 0.53616 0.0
C1901 C 0.382 0.03397 0.52961 0.0
H1902 H 0.33091 0.03717 0.53815 0.0
C1903 C 0.38494 0.05283 0.51987 0.0
H1904 H 0.35964 0.01404 0.54361 0.0
C1905 C 0.36857 0.06611 0.5169 0.0
C1906 C 0.34889 0.06064 0.52335 0.0
H1907 H 0.39997 0.05743 0.51478 0.0
H1908 H 0.37126 0.08058 0.50938 0.0
C1909 C 0.3459 0.04169 0.53292 0.0
C1910 C 0.6281 0.46073 0.51951 0.0
C1911 C 0.63141 0.47946 0.5295 0.0
H1912 H 0.64129 0.43291 0.50864 0.0
C1913 C 0.65121 0.48454 0.53612 0.0
H1914 H 0.61296 0.45639 0.51437 0.0
C1915 C 0.66743 0.47121 0.53269 0.0
C1916 C 0.66409 0.4524 0.52286 0.0
H1917 H 0.6542 0.49894 0.54375 0.0
H1918 H 0.68254 0.47548 0.53798 0.0
C1919 C 0.64426 0.44726 0.51636 0.0
C1920 C 0.71695 0.29813 0.3861 0.0
C1921 C 0.73145 0.28317 0.38135 0.0
H1922 H 0.70834 0.32242 0.40606 0.0
C1923 C 0.74912 0.28169 0.39348 0.0
H1924 H 0.70305 0.29945 0.37719 0.0
C1925 C 0.7523 0.29501 0.4099 0.0
C1926 C 0.73781 0.31003 0.41469 0.0
H1927 H 0.76068 0.27046 0.39003 0.0
H1928 H 0.76632 0.29375 0.41862 0.0
C1929 C 0.72004 0.31134 0.40262 0.0
C1930 C 0.55046 0.02121 0.88489 0.0
C1931 C 0.53205 0.03171 0.88196 0.0
H1932 H 0.57789 0.01005 0.87128 0.0
C1933 C 0.52721 0.03914 0.86242 0.0
H1934 H 0.55462 0.01545 0.89984 0.0
C1935 C 0.54044 0.03593 0.84607 0.0
C1936 C 0.5589 0.02551 0.84903 0.0
H1937 H 0.51306 0.04719 0.85974 0.0
H1938 H 0.53635 0.04178 0.83115 0.0
C1939 C 0.56382 0.01826 0.86861 0.0
C1940 C 0.26374 0.23111 0.39516 0.0
C1941 C 0.28139 0.22955 0.38315 0.0
H1942 H 0.24648 0.21918 0.42008 0.0
C1943 C 0.29567 0.21431 0.3879 0.0
H1944 H 0.25252 0.24282 0.39215 0.0
C1945 C 0.29242 0.20103 0.40424 0.0
C1946 C 0.27472 0.20251 0.41618 0.0
H1947 H 0.30932 0.21245 0.37885 0.0
H1948 H 0.30393 0.18971 0.40761 0.0
C1949 C 0.26041 0.21772 0.41141 0.0
C1950 C 0.46286 0.47385 0.87825 0.0
C1951 C 0.48123 0.48492 0.88005 0.0
H1952 H 0.43577 0.46818 0.86068 0.0
C1953 C 0.48608 0.4993 0.86488 0.0
H1954 H 0.45879 0.4624 0.88942 0.0
C1955 C 0.47296 0.50245 0.8483 0.0
C1956 C 0.45461 0.49142 0.84657 0.0
H1957 H 0.4999 0.50837 0.86593 0.0
H1958 H 0.47704 0.51377 0.83697 0.0
C1959 C 0.44968 0.47712 0.86175 0.0
C1960 C 0.72482 0.73369 0.11266 0.0
C1961 C 0.73397 0.72993 0.13173 0.0
H1962 H 0.72107 0.72394 0.0816 0.0
C1963 C 0.74667 0.71284 0.13394 0.0
H1964 H 0.71509 0.74682 0.11046 0.0
C1965 C 0.75009 0.69976 0.11744 0.0
C1966 C 0.74104 0.70358 0.09833 0.0
H1967 H 0.7538 0.70947 0.14849 0.0
H1968 H 0.76002 0.68677 0.11958 0.0
C1969 C 0.7284 0.72071 0.0961 0.0
C1970 C 0.98581 0.03882 0.15054 0.0
C1971 C 0.98072 0.03204 0.13078 0.0
H1972 H 0.97681 0.04079 0.18191 0.0
C1973 C 0.96203 0.02191 0.1276 0.0
H1974 H 1.00018 0.04656 0.15343 0.0
C1975 C 0.94861 0.01877 0.14382 0.0
C1976 C 0.95377 0.02542 0.16361 0.0
H1977 H 0.95768 0.01665 0.11249 0.0
H1978 H 0.93429 0.01094 0.14095 0.0
C1979 C 0.97253 0.0354 0.16683 0.0
C1980 C 0.26073 0.78198 0.11787 0.0
C1981 C 0.27848 0.78358 0.12988 0.0
H1982 H 0.24337 0.79397 0.09293 0.0
C1983 C 0.29298 0.79866 0.12512 0.0
H1984 H 0.24917 0.77066 0.12134 0.0
C1985 C 0.2898 0.81187 0.1087 0.0
C1986 C 0.27194 0.81046 0.09676 0.0
H1987 H 0.30695 0.80005 0.13394 0.0
H1988 H 0.3015 0.82305 0.10524 0.0
C1989 C 0.25745 0.79532 0.10155 0.0
C1990 C 0.03438 0.50203 0.1438 0.0
C1991 C 0.03694 0.4854 0.13048 0.0
H1992 H 0.04494 0.51763 0.17064 0.0
C1993 C 0.053 0.47173 0.13413 0.0
H1994 H 0.02228 0.51295 0.14128 0.0
C1995 C 0.06606 0.47449 0.15085 0.0
C1996 C 0.0634 0.49102 0.16428 0.0
H1997 H 0.05528 0.45867 0.12426 0.0
H1998 H 0.07829 0.46369 0.15324 0.0
C1999 C 0.0475 0.50484 0.16048 0.0
C2000 C 0.37942 0.74903 0.29853 0.0
C2001 C 0.38046 0.73404 0.28318 0.0
H2002 H 0.39473 0.76436 0.32313 0.0
C2003 C 0.39846 0.72264 0.28126 0.0
H2004 H 0.36571 0.75793 0.30059 0.0
C2005 C 0.41501 0.72614 0.29437 0.0
C2006 C 0.41398 0.74114 0.30971 0.0
H2007 H 0.39988 0.71114 0.26947 0.0
H2008 H 0.42854 0.7169 0.29261 0.0
C2009 C 0.39598 0.75255 0.31163 0.0
C2010 C 0.97286 0.3807 0.96016 0.0
C2011 C 0.98445 0.38295 0.97814 0.0
H2012 H 0.96679 0.3627 0.93345 0.0
C2013 C 0.99918 0.36816 0.98292 0.0
H2014 H 0.96151 0.39194 0.95601 0.0
C2015 C 1.00217 0.35142 0.97004 0.0
C2016 C 0.99065 0.34923 0.952 0.0
H2017 H 0.00822 0.36942 0.99676 0.0
H2018 H 0.01367 0.3403 0.97408 0.0
C2019 C 0.976 0.36407 0.94717 0.0
C2020 C 0.62639 0.79556 0.29849 0.0
C2021 C 0.63278 0.7801 0.28515 0.0
H2022 H 0.6049 0.80487 0.32102 0.0
C2023 C 0.62247 0.76128 0.28518 0.0
H2024 H 0.63397 0.81028 0.2986 0.0
C2025 C 0.60608 0.75796 0.29834 0.0
C2026 C 0.59938 0.77351 0.31154 0.0
H2027 H 0.62727 0.74903 0.27519 0.0
H2028 H 0.5988 0.74309 0.29824 0.0
C2029 C 0.60979 0.79237 0.31142 0.0
C2030 C 0.0245 0.12984 0.95792 0.0
C2031 C 0.03277 0.13311 0.97755 0.0
H2032 H 0.01486 0.14317 0.92964 0.0
C2033 C 0.03789 0.15317 0.98343 0.0
H2034 H 0.02003 0.11468 0.95296 0.0
C2035 C 0.03466 0.16951 0.97012 0.0
C2036 C 0.02644 0.16617 0.95054 0.0
H2037 H 0.04464 0.15627 0.99824 0.0
H2038 H 0.03887 0.18476 0.97505 0.0
C2039 C 0.02148 0.14616 0.94455 0.0
C2040 C 0.39025 0.26189 0.22695 0.0
C2041 C 0.38214 0.28141 0.23 0.0
H2042 H 0.41175 0.24362 0.21087 0.0
C2043 C 0.39056 0.29806 0.21956 0.0
H2044 H 0.38385 0.24882 0.23479 0.0
C2045 C 0.40696 0.29528 0.20633 0.0
C2046 C 0.41499 0.27566 0.20285 0.0
H2047 H 0.38463 0.31329 0.22189 0.0
H2048 H 0.41342 0.3086 0.19901 0.0
C2049 C 0.40636 0.259 0.21336 0.0
C2050 C 0.54519 0.37807 0.04828 0.0
C2051 C 0.53071 0.38355 0.03338 0.0
H2052 H 0.55331 0.35758 0.07234 0.0
C2053 C 0.51257 0.37209 0.03183 0.0
H2054 H 0.55922 0.38668 0.05009 0.0
C2055 C 0.50899 0.35562 0.04488 0.0
C2056 C 0.52351 0.3501 0.05974 0.0
H2057 H 0.50118 0.37568 0.02038 0.0
H2058 H 0.49472 0.34735 0.04343 0.0
C2059 C 0.54167 0.36152 0.06125 0.0
C2060 C 0.61238 0.22154 0.2293 0.0
C2061 C 0.63058 0.23273 0.2271 0.0
H2062 H 0.58206 0.21599 0.21829 0.0
C2063 C 0.63183 0.24739 0.21151 0.0
H2064 H 0.61083 0.21027 0.24128 0.0
C2065 C 0.61526 0.25083 0.19847 0.0
C2066 C 0.59702 0.2397 0.20072 0.0
H2067 H 0.6457 0.25613 0.20925 0.0
H2068 H 0.61665 0.26241 0.18678 0.0
C2069 C 0.59579 0.22499 0.21628 0.0
C2070 C 0.46909 0.13469 0.05234 0.0
C2071 C 0.48324 0.13051 0.03686 0.0
H2072 H 0.46076 0.15428 0.07712 0.0
C2073 C 0.50051 0.14314 0.03495 0.0
H2074 H 0.45557 0.12532 0.05409 0.0
C2075 C 0.50349 0.1597 0.04814 0.0
C2076 C 0.48916 0.16408 0.06339 0.0
H2077 H 0.51176 0.14017 0.02327 0.0
H2078 H 0.5168 0.16933 0.04612 0.0
C2079 C 0.47197 0.15136 0.0654 0.0
C2080 C 0.30078 0.38121 0.74592 0.0
C2081 C 0.28467 0.38279 0.73179 0.0
H2082 H 0.32618 0.39594 0.76039 0.0
C2083 C 0.28229 0.40104 0.72084 0.0
H2084 H 0.30281 0.36741 0.75477 0.0
C2085 C 0.29585 0.41732 0.72382 0.0
C2086 C 0.31199 0.41581 0.73799 0.0
H2087 H 0.27015 0.40259 0.70967 0.0
H2088 H 0.29384 0.43097 0.71475 0.0
C2089 C 0.31421 0.39756 0.74906 0.0
C2090 C 0.28235 0.61976 0.76031 0.0
C2091 C 0.28382 0.63143 0.77827 0.0
H2092 H 0.29428 0.59504 0.74276 0.0
C2093 C 0.29867 0.62634 0.79291 0.0
H2094 H 0.27121 0.62349 0.74865 0.0
C2095 C 0.31172 0.60985 0.78971 0.0
C2096 C 0.31038 0.59818 0.77168 0.0
H2097 H 0.29997 0.63492 0.80702 0.0
H2098 H 0.32266 0.60609 0.80154 0.0
C2099 C 0.29555 0.6034 0.75699 0.0
C2100 C 0.87327 0.4649 0.46808 0.0
C2101 C 0.87829 0.48003 0.48255 0.0
H2102 H 0.85336 0.44032 0.45973 0.0
C2103 C 0.86656 0.48141 0.50042 0.0
H2104 H 0.8821 0.4632 0.45426 0.0
C2105 C 0.85031 0.46796 0.50377 0.0
C2106 C 0.84527 0.45286 0.48928 0.0
H2107 H 0.86979 0.49302 0.51179 0.0
H2108 H 0.84184 0.46929 0.51785 0.0
C2109 C 0.85694 0.45155 0.47137 0.0
C2110 C 0.72865 0.89323 0.76241 0.0
C2111 C 0.73074 0.88406 0.78164 0.0
H2112 H 0.71329 0.91555 0.74434 0.0
C2113 C 0.7193 0.89149 0.79806 0.0
H2114 H 0.73723 0.88761 0.74948 0.0
C2115 C 0.706 0.90786 0.79532 0.0
C2116 C 0.70347 0.9169 0.77597 0.0
H2117 H 0.72086 0.88478 0.81309 0.0
H2118 H 0.69784 0.91349 0.80849 0.0
C2119 C 0.71502 0.90933 0.75954 0.0
C2120 C 0.64722 0.5335 0.99958 0.0
C2121 C 0.63518 0.53503 0.98181 0.0
H2122 H 0.67227 0.54547 0.01697 0.0
C2123 C 0.63995 0.55024 0.96746 0.0
H2124 H 0.64415 0.52182 0.01084 0.0
C2125 C 0.65632 0.56359 0.97081 0.0
C2126 C 0.66828 0.56214 0.98864 0.0
H2127 H 0.63088 0.55203 0.95372 0.0
H2128 H 0.65969 0.57495 0.95931 0.0
C2129 C 0.66353 0.54691 1.00297 0.0
C2130 C 0.22997 0.61839 0.2499 0.0
C2131 C 0.22713 0.63117 0.23291 0.0
H2132 H 0.21934 0.59251 0.26669 0.0
C2133 C 0.21094 0.627 0.21936 0.0
H2134 H 0.24212 0.62138 0.26079 0.0
C2135 C 0.19794 0.61037 0.22267 0.0
C2136 C 0.20076 0.59757 0.23966 0.0
H2137 H 0.20853 0.63639 0.20597 0.0
H2138 H 0.18587 0.60737 0.2117 0.0
C2139 C 0.21692 0.60183 0.25326 0.0
C2140 C 0.88641 0.5543 0.01693 0.0
C2141 C 0.88387 0.53625 0.02822 0.0
H2142 H 0.87239 0.58125 0.00497 0.0
C2143 C 0.86452 0.53156 0.03613 0.0
H2144 H 0.90118 0.55837 0.01078 0.0
C2145 C 0.84804 0.5446 0.03275 0.0
C2146 C 0.85063 0.56272 0.02159 0.0
H2147 H 0.86209 0.51768 0.04476 0.0
H2148 H 0.83333 0.54065 0.0391 0.0
C2149 C 0.86999 0.56745 0.01375 0.0
C2150 C 0.12922 0.96143 0.01949 0.0
C2151 C 0.13248 0.98012 0.02955 0.0
H2152 H 0.14248 0.93368 0.00853 0.0
C2153 C 0.15226 0.98524 0.03621 0.0
H2154 H 0.11409 0.95707 0.01431 0.0
C2155 C 0.16851 0.97196 0.03274 0.0
C2156 C 0.16521 0.95318 0.02284 0.0
H2157 H 0.15519 0.99962 0.0439 0.0
H2158 H 0.18361 0.97624 0.03806 0.0
C2159 C 0.1454 0.94801 0.0163 0.0
loop_
_geom_bond_atom_site_label_1
_geom_bond_atom_site_label_2
_geom_bond_distance
_geom_bond_site_symmetry_2
_ccdc_geom_bond_type
C0 C1 1.386 . S
C0 C2 1.397 . S
C0 H24 0.931 . S
C1 C0 1.386 . S
C1 C5 1.342 1_556 S
C2 C0 1.397 . S
C2 C3 1.384 1_556 S
C2 H25 0.930 . S
C3 C2 1.384 1_554 S
C3 C4 1.377 . S
C3 C6 1.481 . S
C4 C3 1.377 . S
C4 C5 1.423 . S
C4 H26 0.929 . S
C5 C1 1.342 1_554 S
C5 C4 1.423 . S
C5 H27 0.954 . S
C6 C3 1.481 . S
C6 C7 1.387 . S
C6 C11 1.390 . S
C7 C6 1.387 . S
C7 C8 1.401 . S
C7 H28 0.930 . S
C8 C7 1.401 . S
C8 C9 1.376 . S
C8 C17 1.511 . S
C9 C8 1.376 . S
C9 C10 1.392 . S
C9 H30 0.931 . S
C10 C9 1.392 . S
C10 C11 1.361 . S
C10 C12 1.500 . S
C11 C6 1.390 . S
C11 C10 1.361 . S
C11 H29 0.931 . S
C12 C10 1.500 . S
C12 C13 1.371 . S
C12 C14 1.365 1_455 S
C13 C12 1.371 . S
C13 C23 1.386 1_455 S
C13 H31 0.931 1_545 S
C14 C12 1.365 1_655 S
C14 C15 1.409 . S
C14 H32 0.921 1_655 S
C15 C14 1.409 . S
C15 C16 1.380 . S
C15 H33 0.930 . S
C16 C15 1.380 . S
C16 C23 1.357 . S
C17 C8 1.511 . S
C17 C18 1.341 . S
C17 C19 1.371 1_545 S
C18 C17 1.341 . S
C18 C22 1.394 1_545 S
C18 H34 0.930 1_554 S
C19 C17 1.371 1_565 S
C19 C20 1.392 . S
C19 H35 0.931 . S
C20 C19 1.392 . S
C20 C21 1.331 . S
C20 H38 0.932 . S
C21 C20 1.331 . S
C21 C22 1.336 . S
C22 C18 1.394 1_565 S
C22 C21 1.336 . S
C22 H37 0.929 1_554 S
C23 C13 1.386 1_655 S
C23 C16 1.357 . S
C23 H36 0.928 1_545 S
H24 C0 0.931 . S
H25 C2 0.930 . S
H26 C4 0.929 . S
H27 C5 0.954 . S
H28 C7 0.930 . S
H29 C11 0.931 . S
H30 C9 0.931 . S
H31 C13 0.931 1_565 S
H32 C14 0.921 1_455 S
H33 C15 0.930 . S
H34 C18 0.930 1_556 S
H35 C19 0.931 . S
H36 C23 0.928 1_565 S
H37 C22 0.929 1_556 S
H38 C20 0.932 . S
C39 C40 1.386 . S
C39 C41 1.397 . S
C39 H63 0.931 . S
C40 C39 1.386 . S
C40 C44 1.397 . S
C41 C39 1.397 . S
C41 C42 1.384 . S
C41 H64 0.930 . S
C42 C41 1.384 . S
C42 C43 1.377 . S
C42 C45 1.481 . S
C43 C42 1.377 . S
C43 C44 1.389 . S
C43 H65 0.929 . S
C44 C40 1.397 . S
C44 C43 1.389 . S
C44 H66 0.931 . S
C45 C42 1.481 . S
C45 C46 1.387 . S
C45 C50 1.390 . S
C46 C45 1.387 . S
C46 C47 1.401 . S
C46 H67 0.930 . S
C47 C46 1.401 . S
C47 C48 1.376 . S
C47 C56 1.511 . S
C48 C47 1.376 . S
C48 C49 1.392 . S
C48 H69 0.931 . S
C49 C48 1.392 . S
C49 C50 1.361 . S
C49 C51 1.500 . S
C50 C45 1.390 . S
C50 C49 1.361 . S
C50 H68 0.931 . S
C51 C49 1.500 . S
C51 C52 1.371 . S
C51 C53 1.365 . S
C52 C51 1.371 . S
C52 C62 1.386 . S
C52 H70 0.931 . S
C53 C51 1.365 . S
C53 C54 1.409 . S
C53 H71 0.929 . S
C54 C53 1.409 . S
C54 C55 1.380 . S
C54 H72 0.930 . S
C55 C54 1.380 . S
C55 C62 1.357 . S
C56 C47 1.511 . S
C56 C57 1.341 . S
C56 C58 1.371 . S
C57 C56 1.341 . S
C57 C61 1.394 . S
C57 H73 0.930 . S
C58 C56 1.371 . S
C58 C59 1.392 . S
C58 H74 0.931 . S
C59 C58 1.392 . S
C59 C60 1.331 . S
C59 H77 0.932 . S
C60 C59 1.331 . S
C60 C61 1.336 . S
C61 C57 1.394 . S
C61 C60 1.336 . S
C61 H76 0.929 . S
C62 C52 1.386 . S
C62 C55 1.357 . S
C62 H75 0.928 . S
H63 C39 0.931 . S
H64 C41 0.930 . S
H65 C43 0.929 . S
H66 C44 0.931 . S
H67 C46 0.930 . S
H68 C50 0.931 . S
H69 C48 0.931 . S
H70 C52 0.931 . S
H71 C53 0.929 . S
H72 C54 0.930 . S
H73 C57 0.930 . S
H74 C58 0.931 . S
H75 C62 0.928 . S
H76 C61 0.929 . S
H77 C59 0.932 . S
C78 C79 1.436 . S
C78 C80 1.366 1_455 S
C78 H102 0.913 1_455 S
C79 C78 1.436 . S
C79 C83 1.397 . S
C80 C78 1.366 1_655 S
C80 C81 1.384 . S
C80 H103 0.930 . S
C81 C80 1.384 . S
C81 C82 1.377 1_655 S
C81 C84 1.481 . S
C82 C81 1.377 1_455 S
C82 C83 1.389 . S
C82 H104 0.929 . S
C83 C79 1.397 . S
C83 C82 1.389 . S
C83 H105 0.931 . S
C84 C81 1.481 . S
C84 C85 1.387 . S
C84 C89 1.390 . S
C85 C84 1.387 . S
C85 C86 1.401 . S
C85 H106 0.930 . S
C86 C85 1.401 . S
C86 C87 1.376 . S
C86 C95 1.511 . S
C87 C86 1.376 . S
C87 C88 1.392 . S
C87 H108 0.931 . S
C88 C87 1.392 . S
C88 C89 1.361 . S
C88 C90 1.500 . S
C89 C84 1.390 . S
C89 C88 1.361 . S
C89 H107 0.931 . S
C90 C88 1.500 . S
C90 C91 1.371 1_554 S
C90 C92 1.365 . S
C91 C90 1.371 1_556 S
C91 C101 1.386 . S
C91 H109 0.931 . S
C92 C90 1.365 . S
C92 C93 1.409 1_554 S
C92 H110 0.929 1_655 S
C93 C92 1.409 1_556 S
C93 C94 1.380 . S
C93 H111 0.930 1_655 S
C94 C93 1.380 . S
C94 C101 1.357 . S
C95 C86 1.511 . S
C95 C96 1.341 . S
C95 C97 1.371 . S
C96 C95 1.341 . S
C96 C100 1.394 . S
C96 H112 0.930 . S
C97 C95 1.371 . S
C97 C98 1.392 . S
C97 H113 0.931 1_554 S
C98 C97 1.392 . S
C98 C99 1.331 . S
C98 H116 0.932 1_554 S
C99 C98 1.331 . S
C99 C100 1.336 . S
C100 C96 1.394 . S
C100 C99 1.336 . S
C100 H115 0.929 . S
C101 C91 1.386 . S
C101 C94 1.357 . S
C101 H114 0.928 . S
H102 C78 0.913 1_655 S
H103 C80 0.930 . S
H104 C82 0.929 . S
H105 C83 0.931 . S
H106 C85 0.930 . S
H107 C89 0.931 . S
H108 C87 0.931 . S
H109 C91 0.931 . S
H110 C92 0.929 1_455 S
H111 C93 0.930 1_455 S
H112 C96 0.930 . S
H113 C97 0.931 1_556 S
H114 C101 0.928 . S
H115 C100 0.929 . S
H116 C98 0.932 1_556 S
C117 C118 1.386 . S
C117 C119 1.397 . S
C117 H141 0.931 . S
C118 C117 1.386 . S
C118 C122 1.397 . S
C119 C117 1.397 . S
C119 C120 1.384 . S
C119 H142 0.930 . S
C120 C119 1.384 . S
C120 C121 1.377 . S
C120 C123 1.481 . S
C121 C120 1.377 . S
C121 C122 1.389 . S
C121 H143 0.929 . S
C122 C118 1.397 . S
C122 C121 1.389 . S
C122 H144 0.931 . S
C123 C120 1.481 . S
C123 C124 1.387 . S
C123 C128 1.390 . S
C124 C123 1.387 . S
C124 C125 1.401 . S
C124 H145 0.930 . S
C125 C124 1.401 . S
C125 C126 1.376 . S
C125 C134 1.511 . S
C126 C125 1.376 . S
C126 C127 1.392 . S
C126 H147 0.931 . S
C127 C126 1.392 . S
C127 C128 1.361 . S
C127 C129 1.500 . S
C128 C123 1.390 . S
C128 C127 1.361 . S
C128 H146 0.931 . S
C129 C127 1.500 . S
C129 C130 1.371 . S
C129 C131 1.365 . S
C130 C129 1.371 . S
C130 C140 1.386 . S
C130 H148 0.931 . S
C131 C129 1.365 . S
C131 C132 1.409 . S
C131 H149 0.929 . S
C132 C131 1.409 . S
C132 C133 1.380 . S
C132 H150 0.930 . S
C133 C132 1.380 . S
C133 C140 1.357 . S
C134 C125 1.511 . S
C134 C135 1.341 . S
C134 C136 1.371 . S
C135 C134 1.341 . S
C135 C139 1.394 . S
C135 H151 0.930 . S
C136 C134 1.371 . S
C136 C137 1.392 . S
C136 H152 0.931 . S
C137 C136 1.392 . S
C137 C138 1.331 . S
C137 H155 0.932 . S
C138 C137 1.331 . S
C138 C139 1.336 . S
C139 C135 1.394 . S
C139 C138 1.336 . S
C139 H154 0.929 . S
C140 C130 1.386 . S
C140 C133 1.357 . S
C140 H153 0.928 . S
H141 C117 0.931 . S
H142 C119 0.930 . S
H143 C121 0.929 . S
H144 C122 0.931 . S
H145 C124 0.930 . S
H146 C128 0.931 . S
H147 C126 0.931 . S
H148 C130 0.931 . S
H149 C131 0.929 . S
H150 C132 0.930 . S
H151 C135 0.930 . S
H152 C136 0.931 . S
H153 C140 0.928 . S
H154 C139 0.929 . S
H155 C137 0.932 . S
C156 C157 1.386 . S
C156 C158 1.397 . S
C156 H180 0.931 . S
C157 C156 1.386 . S
C157 C161 1.354 1_655 S
C158 C156 1.397 . S
C158 C159 1.384 1_655 S
C158 H181 0.930 . S
C159 C158 1.384 1_455 S
C159 C160 1.377 . S
C159 C162 1.481 . S
C160 C159 1.377 . S
C160 C161 1.416 . S
C160 H182 0.929 . S
C161 C157 1.354 1_455 S
C161 C160 1.416 . S
C161 H183 0.949 . S
C162 C159 1.481 . S
C162 C163 1.387 . S
C162 C167 1.390 . S
C163 C162 1.387 . S
C163 C164 1.401 . S
C163 H184 0.930 . S
C164 C163 1.401 . S
C164 C165 1.376 . S
C164 C173 1.511 . S
C165 C164 1.376 . S
C165 C166 1.392 . S
C165 H186 0.931 . S
C166 C165 1.392 . S
C166 C167 1.361 . S
C166 C168 1.500 . S
C167 C162 1.390 . S
C167 C166 1.361 . S
C167 H185 0.931 . S
C168 C166 1.500 . S
C168 C169 1.371 1_565 S
C168 C170 1.365 1_565 S
C169 C168 1.371 1_545 S
C169 C179 1.386 . S
C169 H187 0.931 1_545 S
C170 C168 1.365 1_545 S
C170 C171 1.409 . S
C170 H188 0.929 . S
C171 C170 1.409 . S
C171 C172 1.380 . S
C171 H189 0.930 . S
C172 C171 1.380 . S
C172 C179 1.357 . S
C173 C164 1.511 . S
C173 C174 1.341 . S
C173 C175 1.371 . S
C174 C173 1.341 . S
C174 C178 1.394 . S
C174 H190 0.930 1_455 S
C175 C173 1.371 . S
C175 C176 1.392 . S
C175 H191 0.931 . S
C176 C175 1.392 . S
C176 C177 1.331 . S
C176 H194 0.932 . S
C177 C176 1.331 . S
C177 C178 1.336 . S
C178 C174 1.394 . S
C178 C177 1.336 . S
C178 H193 0.929 1_455 S
C179 C169 1.386 . S
C179 C172 1.357 . S
C179 H192 0.928 . S
H180 C156 0.931 . S
H181 C158 0.930 . S
H182 C160 0.929 . S
H183 C161 0.949 . S
H184 C163 0.930 . S
H185 C167 0.931 . S
H186 C165 0.931 . S
H187 C169 0.931 1_565 S
H188 C170 0.929 . S
H189 C171 0.930 . S
H190 C174 0.930 1_655 S
H191 C175 0.931 . S
H192 C179 0.928 . S
H193 C178 0.929 1_655 S
H194 C176 0.932 . S
C195 C196 1.386 . S
C195 C197 1.397 . S
C195 H219 0.931 . S
C196 C195 1.386 . S
C196 C200 1.397 . S
C197 C195 1.397 . S
C197 C198 1.384 . S
C197 H220 0.930 . S
C198 C197 1.384 . S
C198 C199 1.377 . S
C198 C201 1.481 . S
C199 C198 1.377 . S
C199 C200 1.389 . S
C199 H221 0.929 . S
C200 C196 1.397 . S
C200 C199 1.389 . S
C200 H222 0.931 . S
C201 C198 1.481 . S
C201 C202 1.387 . S
C201 C206 1.390 . S
C202 C201 1.387 . S
C202 C203 1.401 . S
C202 H223 0.930 . S
C203 C202 1.401 . S
C203 C204 1.376 . S
C203 C212 1.511 . S
C204 C203 1.376 . S
C204 C205 1.392 . S
C204 H225 0.931 . S
C205 C204 1.392 . S
C205 C206 1.361 . S
C205 C207 1.500 . S
C206 C201 1.390 . S
C206 C205 1.361 . S
C206 H224 0.931 . S
C207 C205 1.500 . S
C207 C208 1.371 . S
C207 C209 1.365 . S
C208 C207 1.371 . S
C208 C218 1.386 . S
C208 H226 0.931 . S
C209 C207 1.365 . S
C209 C210 1.409 . S
C209 H227 0.929 . S
C210 C209 1.409 . S
C210 C211 1.380 . S
C210 H228 0.930 . S
C211 C210 1.380 . S
C211 C218 1.357 . S
C212 C203 1.511 . S
C212 C213 1.341 . S
C212 C214 1.371 . S
C213 C212 1.341 . S
C213 C217 1.394 . S
C213 H229 0.930 . S
C214 C212 1.371 . S
C214 C215 1.392 . S
C214 H230 0.931 . S
C215 C214 1.392 . S
C215 C216 1.331 . S
C215 H233 0.932 . S
C216 C215 1.331 . S
C216 C217 1.336 . S
C217 C213 1.394 . S
C217 C216 1.336 . S
C217 H232 0.929 . S
C218 C208 1.386 . S
C218 C211 1.357 . S
C218 H231 0.928 . S
H219 C195 0.931 . S
H220 C197 0.930 . S
H221 C199 0.929 . S
H222 C200 0.931 . S
H223 C202 0.930 . S
H224 C206 0.931 . S
H225 C204 0.931 . S
H226 C208 0.931 . S
H227 C209 0.929 . S
H228 C210 0.930 . S
H229 C213 0.930 . S
H230 C214 0.931 . S
H231 C218 0.928 . S
H232 C217 0.929 . S
H233 C215 0.932 . S
C234 C235 1.386 . S
C234 C236 1.397 . S
C234 H258 0.931 . S
C235 C234 1.386 . S
C235 C239 1.397 . S
C236 C234 1.397 . S
C236 C237 1.384 . S
C236 H259 0.930 . S
C237 C236 1.384 . S
C237 C238 1.377 . S
C237 C240 1.481 . S
C238 C237 1.377 . S
C238 C239 1.389 . S
C238 H260 0.929 . S
C239 C235 1.397 . S
C239 C238 1.389 . S
C239 H261 0.931 . S
C240 C237 1.481 . S
C240 C241 1.387 . S
C240 C245 1.390 . S
C241 C240 1.387 . S
C241 C242 1.401 . S
C241 H262 0.930 . S
C242 C241 1.401 . S
C242 C243 1.376 . S
C242 C251 1.511 . S
C243 C242 1.376 . S
C243 C244 1.392 . S
C243 H264 0.931 . S
C244 C243 1.392 . S
C244 C245 1.361 . S
C244 C246 1.500 . S
C245 C240 1.390 . S
C245 C244 1.361 . S
C245 H263 0.931 . S
C246 C244 1.500 . S
C246 C247 1.371 . S
C246 C248 1.365 . S
C247 C246 1.371 . S
C247 C257 1.386 . S
C247 H265 0.931 . S
C248 C246 1.365 . S
C248 C249 1.409 . S
C248 H266 0.929 . S
C249 C248 1.409 . S
C249 C250 1.380 . S
C249 H267 0.930 . S
C250 C249 1.380 . S
C250 C257 1.357 . S
C251 C242 1.511 . S
C251 C252 1.341 1_655 S
C251 C253 1.371 . S
C252 C251 1.341 1_455 S
C252 C256 1.394 . S
C252 H268 0.930 . S
C253 C251 1.371 . S
C253 C254 1.392 1_655 S
C253 H269 0.931 . S
C254 C253 1.392 1_455 S
C254 C255 1.331 . S
C254 H272 0.932 . S
C255 C254 1.331 . S
C255 C256 1.336 . S
C256 C252 1.394 . S
C256 C255 1.336 . S
C256 H271 0.929 . S
C257 C247 1.386 . S
C257 C250 1.357 . S
C257 H270 0.928 . S
H258 C234 0.931 . S
H259 C236 0.930 . S
H260 C238 0.929 . S
H261 C239 0.931 . S
H262 C241 0.930 . S
H263 C245 0.931 . S
H264 C243 0.931 . S
H265 C247 0.931 . S
H266 C248 0.929 . S
H267 C249 0.930 . S
H268 C252 0.930 . S
H269 C253 0.931 . S
H270 C257 0.928 . S
H271 C256 0.929 . S
H272 C254 0.932 . S
C273 C274 1.386 . S
C273 C275 1.397 . S
C273 H297 0.931 . S
C274 C273 1.386 . S
C274 C278 1.397 . S
C275 C273 1.397 . S
C275 C276 1.384 . S
C275 H298 0.930 . S
C276 C275 1.384 . S
C276 C277 1.377 . S
C276 C279 1.481 . S
C277 C276 1.377 . S
C277 C278 1.389 . S
C277 H299 0.929 . S
C278 C274 1.397 . S
C278 C277 1.389 . S
C278 H300 0.931 . S
C279 C276 1.481 . S
C279 C280 1.387 . S
C279 C284 1.390 . S
C280 C279 1.387 . S
C280 C281 1.401 . S
C280 H301 0.930 . S
C281 C280 1.401 . S
C281 C282 1.376 . S
C281 C290 1.511 . S
C282 C281 1.376 . S
C282 C283 1.392 . S
C282 H303 0.931 . S
C283 C282 1.392 . S
C283 C284 1.361 . S
C283 C285 1.500 . S
C284 C279 1.390 . S
C284 C283 1.361 . S
C284 H302 0.931 . S
C285 C283 1.500 . S
C285 C286 1.371 . S
C285 C287 1.365 . S
C286 C285 1.371 . S
C286 C296 1.386 . S
C286 H304 0.931 . S
C287 C285 1.365 . S
C287 C288 1.409 . S
C287 H305 0.929 . S
C288 C287 1.409 . S
C288 C289 1.380 . S
C288 H306 0.930 . S
C289 C288 1.380 . S
C289 C296 1.357 . S
C290 C281 1.511 . S
C290 C291 1.341 . S
C290 C292 1.371 . S
C291 C290 1.341 . S
C291 C295 1.394 . S
C291 H307 0.930 . S
C292 C290 1.371 . S
C292 C293 1.392 . S
C292 H308 0.931 . S
C293 C292 1.392 . S
C293 C294 1.331 . S
C293 H311 0.932 . S
C294 C293 1.331 . S
C294 C295 1.336 . S
C295 C291 1.394 . S
C295 C294 1.336 . S
C295 H310 0.929 . S
C296 C286 1.386 . S
C296 C289 1.357 . S
C296 H309 0.928 . S
H297 C273 0.931 . S
H298 C275 0.930 . S
H299 C277 0.929 . S
H300 C278 0.931 . S
H301 C280 0.930 . S
H302 C284 0.931 . S
H303 C282 0.931 . S
H304 C286 0.931 . S
H305 C287 0.929 . S
H306 C288 0.930 . S
H307 C291 0.930 . S
H308 C292 0.931 . S
H309 C296 0.928 . S
H310 C295 0.929 . S
H311 C293 0.932 . S
C312 C313 1.386 . S
C312 C314 1.397 . S
C312 H336 0.931 . S
C313 C312 1.386 . S
C313 C317 1.397 . S
C314 C312 1.397 . S
C314 C315 1.384 . S
C314 H337 0.930 . S
C315 C314 1.384 . S
C315 C316 1.377 . S
C315 C318 1.481 . S
C316 C315 1.377 . S
C316 C317 1.389 . S
C316 H338 0.929 . S
C317 C313 1.397 . S
C317 C316 1.389 . S
C317 H339 0.931 . S
C318 C315 1.481 . S
C318 C319 1.387 . S
C318 C323 1.390 . S
C319 C318 1.387 . S
C319 C320 1.401 . S
C319 H340 0.930 . S
C320 C319 1.401 . S
C320 C321 1.376 . S
C320 C329 1.511 . S
C321 C320 1.376 . S
C321 C322 1.392 . S
C321 H342 0.931 . S
C322 C321 1.392 . S
C322 C323 1.361 . S
C322 C324 1.500 . S
C323 C318 1.390 . S
C323 C322 1.361 . S
C323 H341 0.931 . S
C324 C322 1.500 . S
C324 C325 1.371 . S
C324 C326 1.365 . S
C325 C324 1.371 . S
C325 C335 1.386 . S
C325 H343 0.931 . S
C326 C324 1.365 . S
C326 C327 1.409 . S
C326 H344 0.929 . S
C327 C326 1.409 . S
C327 C328 1.380 . S
C327 H345 0.930 . S
C328 C327 1.380 . S
C328 C335 1.357 . S
C329 C320 1.511 . S
C329 C330 1.341 . S
C329 C331 1.371 . S
C330 C329 1.341 . S
C330 C334 1.394 . S
C330 H346 0.930 . S
C331 C329 1.371 . S
C331 C332 1.392 . S
C331 H347 0.931 . S
C332 C331 1.392 . S
C332 C333 1.331 . S
C332 H350 0.932 . S
C333 C332 1.331 . S
C333 C334 1.336 . S
C334 C330 1.394 . S
C334 C333 1.336 . S
C334 H349 0.929 . S
C335 C325 1.386 . S
C335 C328 1.357 . S
C335 H348 0.928 . S
H336 C312 0.931 . S
H337 C314 0.930 . S
H338 C316 0.929 . S
H339 C317 0.931 . S
H340 C319 0.930 . S
H341 C323 0.931 . S
H342 C321 0.931 . S
H343 C325 0.931 . S
H344 C326 0.929 . S
H345 C327 0.930 . S
H346 C330 0.930 . S
H347 C331 0.931 . S
H348 C335 0.928 . S
H349 C334 0.929 . S
H350 C332 0.932 . S
C351 C352 1.386 . S
C351 C353 1.397 . S
C351 H375 0.931 . S
C352 C351 1.386 . S
C352 C356 1.397 . S
C353 C351 1.397 . S
C353 C354 1.384 . S
C353 H376 0.930 . S
C354 C353 1.384 . S
C354 C355 1.377 . S
C354 C357 1.481 . S
C355 C354 1.377 . S
C355 C356 1.389 . S
C355 H377 0.929 . S
C356 C352 1.397 . S
C356 C355 1.389 . S
C356 H378 0.931 . S
C357 C354 1.481 . S
C357 C358 1.387 . S
C357 C362 1.390 . S
C358 C357 1.387 . S
C358 C359 1.401 . S
C358 H379 0.930 . S
C359 C358 1.401 . S
C359 C360 1.376 . S
C359 C368 1.511 . S
C360 C359 1.376 . S
C360 C361 1.392 . S
C360 H381 0.931 . S
C361 C360 1.392 . S
C361 C362 1.361 . S
C361 C363 1.500 . S
C362 C357 1.390 . S
C362 C361 1.361 . S
C362 H380 0.931 . S
C363 C361 1.500 . S
C363 C364 1.371 . S
C363 C365 1.365 . S
C364 C363 1.371 . S
C364 C374 1.386 . S
C364 H382 0.931 . S
C365 C363 1.365 . S
C365 C366 1.409 . S
C365 H383 0.929 . S
C366 C365 1.409 . S
C366 C367 1.380 . S
C366 H384 0.930 . S
C367 C366 1.380 . S
C367 C374 1.357 . S
C368 C359 1.511 . S
C368 C369 1.341 1_565 S
C368 C370 1.371 . S
C369 C368 1.341 1_545 S
C369 C373 1.394 . S
C369 H385 0.930 . S
C370 C368 1.371 . S
C370 C371 1.392 1_565 S
C370 H386 0.931 . S
C371 C370 1.392 1_545 S
C371 C372 1.331 . S
C371 H389 0.932 . S
C372 C371 1.331 . S
C372 C373 1.336 . S
C373 C369 1.394 . S
C373 C372 1.336 . S
C373 H388 0.929 . S
C374 C364 1.386 . S
C374 C367 1.357 . S
C374 H387 0.928 . S
H375 C351 0.931 . S
H376 C353 0.930 . S
H377 C355 0.929 . S
H378 C356 0.931 . S
H379 C358 0.930 . S
H380 C362 0.931 . S
H381 C360 0.931 . S
H382 C364 0.931 . S
H383 C365 0.929 . S
H384 C366 0.930 . S
H385 C369 0.930 . S
H386 C370 0.931 . S
H387 C374 0.928 . S
H388 C373 0.929 . S
H389 C371 0.932 . S
C390 C391 1.386 . S
C390 C392 1.397 . S
C390 H414 0.931 . S
C391 C390 1.386 . S
C391 C395 1.397 . S
C392 C390 1.397 . S
C392 C393 1.384 . S
C392 H415 0.930 . S
C393 C392 1.384 . S
C393 C394 1.377 . S
C393 C396 1.481 . S
C394 C393 1.377 . S
C394 C395 1.389 . S
C394 H416 0.929 . S
C395 C391 1.397 . S
C395 C394 1.389 . S
C395 H417 0.931 . S
C396 C393 1.481 . S
C396 C397 1.387 . S
C396 C401 1.390 . S
C397 C396 1.387 . S
C397 C398 1.401 . S
C397 H418 0.930 . S
C398 C397 1.401 . S
C398 C399 1.376 . S
C398 C407 1.511 . S
C399 C398 1.376 . S
C399 C400 1.392 . S
C399 H420 0.931 . S
C400 C399 1.392 . S
C400 C401 1.361 . S
C400 C402 1.500 . S
C401 C396 1.390 . S
C401 C400 1.361 . S
C401 H419 0.931 . S
C402 C400 1.500 . S
C402 C403 1.371 . S
C402 C404 1.365 . S
C403 C402 1.371 . S
C403 C413 1.386 . S
C403 H421 0.931 . S
C404 C402 1.365 . S
C404 C405 1.409 . S
C404 H422 0.929 . S
C405 C404 1.409 . S
C405 C406 1.380 . S
C405 H423 0.930 . S
C406 C405 1.380 . S
C406 C413 1.357 . S
C407 C398 1.511 . S
C407 C408 1.341 . S
C407 C409 1.371 . S
C408 C407 1.341 . S
C408 C412 1.394 . S
C408 H424 0.930 . S
C409 C407 1.371 . S
C409 C410 1.392 . S
C409 H425 0.931 . S
C410 C409 1.392 . S
C410 C411 1.331 . S
C410 H428 0.932 . S
C411 C410 1.331 . S
C411 C412 1.336 . S
C412 C408 1.394 . S
C412 C411 1.336 . S
C412 H427 0.929 . S
C413 C403 1.386 . S
C413 C406 1.357 . S
C413 H426 0.928 . S
H414 C390 0.931 . S
H415 C392 0.930 . S
H416 C394 0.929 . S
H417 C395 0.931 . S
H418 C397 0.930 . S
H419 C401 0.931 . S
H420 C399 0.931 . S
H421 C403 0.931 . S
H422 C404 0.929 . S
H423 C405 0.930 . S
H424 C408 0.930 . S
H425 C409 0.931 . S
H426 C413 0.928 . S
H427 C412 0.929 . S
H428 C410 0.932 . S
C429 C430 1.386 . S
C429 C431 1.397 . S
C429 H453 0.931 . S
C430 C429 1.386 . S
C430 C434 1.397 . S
C431 C429 1.397 . S
C431 C432 1.384 . S
C431 H454 0.930 . S
C432 C431 1.384 . S
C432 C433 1.377 . S
C432 C435 1.481 . S
C433 C432 1.377 . S
C433 C434 1.389 . S
C433 H455 0.929 . S
C434 C430 1.397 . S
C434 C433 1.389 . S
C434 H456 0.931 . S
C435 C432 1.481 . S
C435 C436 1.387 . S
C435 C440 1.390 . S
C436 C435 1.387 . S
C436 C437 1.401 . S
C436 H457 0.930 . S
C437 C436 1.401 . S
C437 C438 1.376 . S
C437 C446 1.511 . S
C438 C437 1.376 . S
C438 C439 1.392 . S
C438 H459 0.931 . S
C439 C438 1.392 . S
C439 C440 1.361 . S
C439 C441 1.500 . S
C440 C435 1.390 . S
C440 C439 1.361 . S
C440 H458 0.931 . S
C441 C439 1.500 . S
C441 C442 1.371 . S
C441 C443 1.365 . S
C442 C441 1.371 . S
C442 C452 1.386 . S
C442 H460 0.931 . S
C443 C441 1.365 . S
C443 C444 1.409 . S
C443 H461 0.929 . S
C444 C443 1.409 . S
C444 C445 1.380 . S
C444 H462 0.930 . S
C445 C444 1.380 . S
C445 C452 1.357 . S
C446 C437 1.511 . S
C446 C447 1.341 . S
C446 C448 1.371 . S
C447 C446 1.341 . S
C447 C451 1.394 . S
C447 H463 0.930 . S
C448 C446 1.371 . S
C448 C449 1.392 . S
C448 H464 0.931 . S
C449 C448 1.392 . S
C449 C450 1.331 . S
C449 H467 0.932 . S
C450 C449 1.331 . S
C450 C451 1.336 . S
C451 C447 1.394 . S
C451 C450 1.336 . S
C451 H466 0.929 . S
C452 C442 1.386 . S
C452 C445 1.357 . S
C452 H465 0.928 . S
H453 C429 0.931 . S
H454 C431 0.930 . S
H455 C433 0.929 . S
H456 C434 0.931 . S
H457 C436 0.930 . S
H458 C440 0.931 . S
H459 C438 0.931 . S
H460 C442 0.931 . S
H461 C443 0.929 . S
H462 C444 0.930 . S
H463 C447 0.930 . S
H464 C448 0.931 . S
H465 C452 0.928 . S
H466 C451 0.929 . S
H467 C449 0.932 . S
C468 C469 1.386 . S
C468 C470 1.397 . S
C468 H492 0.931 . S
C469 C468 1.386 . S
C469 C473 1.397 . S
C470 C468 1.397 . S
C470 C471 1.384 . S
C470 H493 0.930 . S
C471 C470 1.384 . S
C471 C472 1.377 . S
C471 C474 1.481 . S
C472 C471 1.377 . S
C472 C473 1.389 . S
C472 H494 0.929 . S
C473 C469 1.397 . S
C473 C472 1.389 . S
C473 H495 0.931 . S
C474 C471 1.481 . S
C474 C475 1.387 . S
C474 C479 1.390 . S
C475 C474 1.387 . S
C475 C476 1.401 . S
C475 H496 0.930 . S
C476 C475 1.401 . S
C476 C477 1.376 . S
C476 C485 1.511 . S
C477 C476 1.376 . S
C477 C478 1.392 . S
C477 H498 0.931 . S
C478 C477 1.392 . S
C478 C479 1.361 . S
C478 C480 1.500 . S
C479 C474 1.390 . S
C479 C478 1.361 . S
C479 H497 0.931 . S
C480 C478 1.500 . S
C480 C481 1.371 . S
C480 C482 1.365 . S
C481 C480 1.371 . S
C481 C491 1.386 . S
C481 H499 0.931 . S
C482 C480 1.365 . S
C482 C483 1.409 . S
C482 H500 0.929 . S
C483 C482 1.409 . S
C483 C484 1.380 . S
C483 H501 0.930 . S
C484 C483 1.380 . S
C484 C491 1.357 . S
C485 C476 1.511 . S
C485 C486 1.341 . S
C485 C487 1.371 . S
C486 C485 1.341 . S
C486 C490 1.394 . S
C486 H502 0.930 . S
C487 C485 1.371 . S
C487 C488 1.392 . S
C487 H503 0.931 . S
C488 C487 1.392 . S
C488 C489 1.331 . S
C488 H506 0.932 . S
C489 C488 1.331 . S
C489 C490 1.336 . S
C490 C486 1.394 . S
C490 C489 1.336 . S
C490 H505 0.929 . S
C491 C481 1.386 . S
C491 C484 1.357 . S
C491 H504 0.928 . S
H492 C468 0.931 . S
H493 C470 0.930 . S
H494 C472 0.929 . S
H495 C473 0.931 . S
H496 C475 0.930 . S
H497 C479 0.931 . S
H498 C477 0.931 . S
H499 C481 0.931 . S
H500 C482 0.929 . S
H501 C483 0.930 . S
H502 C486 0.930 . S
H503 C487 0.931 . S
H504 C491 0.928 . S
H505 C490 0.929 . S
H506 C488 0.932 . S
C507 C508 1.386 . S
C507 C509 1.397 . S
C507 H531 0.931 . S
C508 C507 1.386 . S
C508 C512 1.397 . S
C509 C507 1.397 . S
C509 C510 1.384 . S
C509 H532 0.930 . S
C510 C509 1.384 . S
C510 C511 1.377 . S
C510 C513 1.481 . S
C511 C510 1.377 . S
C511 C512 1.389 . S
C511 H533 0.929 . S
C512 C508 1.397 . S
C512 C511 1.389 . S
C512 H534 0.931 . S
C513 C510 1.481 . S
C513 C514 1.387 . S
C513 C518 1.390 . S
C514 C513 1.387 . S
C514 C515 1.401 . S
C514 H535 0.930 . S
C515 C514 1.401 . S
C515 C516 1.376 . S
C515 C524 1.511 . S
C516 C515 1.376 . S
C516 C517 1.392 . S
C516 H537 0.931 . S
C517 C516 1.392 . S
C517 C518 1.361 . S
C517 C519 1.500 . S
C518 C513 1.390 . S
C518 C517 1.361 . S
C518 H536 0.931 . S
C519 C517 1.500 . S
C519 C520 1.371 . S
C519 C521 1.365 . S
C520 C519 1.371 . S
C520 C530 1.386 . S
C520 H538 0.931 1_556 S
C521 C519 1.365 . S
C521 C522 1.409 . S
C521 H539 0.929 . S
C522 C521 1.409 . S
C522 C523 1.380 . S
C522 H540 0.930 . S
C523 C522 1.380 . S
C523 C530 1.357 . S
C524 C515 1.511 . S
C524 C525 1.341 . S
C524 C526 1.371 1_556 S
C525 C524 1.341 . S
C525 C529 1.394 1_556 S
C525 H541 0.930 . S
C526 C524 1.371 1_554 S
C526 C527 1.392 . S
C526 H542 0.931 . S
C527 C526 1.392 . S
C527 C528 1.331 . S
C527 H545 0.932 . S
C528 C527 1.331 . S
C528 C529 1.336 . S
C529 C525 1.394 1_554 S
C529 C528 1.336 . S
C529 H544 0.929 . S
C530 C520 1.386 . S
C530 C523 1.357 . S
C530 H543 0.928 1_556 S
H531 C507 0.931 . S
H532 C509 0.930 . S
H533 C511 0.929 . S
H534 C512 0.931 . S
H535 C514 0.930 . S
H536 C518 0.931 . S
H537 C516 0.931 . S
H538 C520 0.931 1_554 S
H539 C521 0.929 . S
H540 C522 0.930 . S
H541 C525 0.930 . S
H542 C526 0.931 . S
H543 C530 0.928 1_554 S
H544 C529 0.929 . S
H545 C527 0.932 . S
C546 C547 1.386 . S
C546 C548 1.397 . S
C546 H570 0.931 . S
C547 C546 1.386 . S
C547 C551 1.397 . S
C548 C546 1.397 . S
C548 C549 1.384 . S
C548 H571 0.930 . S
C549 C548 1.384 . S
C549 C550 1.377 . S
C549 C552 1.481 . S
C550 C549 1.377 . S
C550 C551 1.389 . S
C550 H572 0.929 . S
C551 C547 1.397 . S
C551 C550 1.389 . S
C551 H573 0.931 . S
C552 C549 1.481 . S
C552 C553 1.387 . S
C552 C557 1.390 . S
C553 C552 1.387 . S
C553 C554 1.401 . S
C553 H574 0.930 . S
C554 C553 1.401 . S
C554 C555 1.376 . S
C554 C563 1.511 . S
C555 C554 1.376 . S
C555 C556 1.392 . S
C555 H576 0.931 . S
C556 C555 1.392 . S
C556 C557 1.361 . S
C556 C558 1.500 . S
C557 C552 1.390 . S
C557 C556 1.361 . S
C557 H575 0.931 . S
C558 C556 1.500 . S
C558 C559 1.371 . S
C558 C560 1.365 . S
C559 C558 1.371 . S
C559 C569 1.386 . S
C559 H577 0.931 . S
C560 C558 1.365 . S
C560 C561 1.409 . S
C560 H578 0.929 . S
C561 C560 1.409 . S
C561 C562 1.380 . S
C561 H579 0.930 . S
C562 C561 1.380 . S
C562 C569 1.357 . S
C563 C554 1.511 . S
C563 C564 1.341 . S
C563 C565 1.371 . S
C564 C563 1.341 . S
C564 C568 1.394 . S
C564 H580 0.930 . S
C565 C563 1.371 . S
C565 C566 1.392 . S
C565 H581 0.931 . S
C566 C565 1.392 . S
C566 C567 1.331 . S
C566 H584 0.932 . S
C567 C566 1.331 . S
C567 C568 1.336 . S
C568 C564 1.394 . S
C568 C567 1.336 . S
C568 H583 0.929 . S
C569 C559 1.386 . S
C569 C562 1.357 . S
C569 H582 0.928 . S
H570 C546 0.931 . S
H571 C548 0.930 . S
H572 C550 0.929 . S
H573 C551 0.931 . S
H574 C553 0.930 . S
H575 C557 0.931 . S
H576 C555 0.931 . S
H577 C559 0.931 . S
H578 C560 0.929 . S
H579 C561 0.930 . S
H580 C564 0.930 . S
H581 C565 0.931 . S
H582 C569 0.928 . S
H583 C568 0.929 . S
H584 C566 0.932 . S
C585 C586 1.386 . S
C585 C587 1.397 1_554 S
C585 H609 0.931 1_554 S
C586 C585 1.386 . S
C586 C590 1.397 . S
C587 C585 1.397 1_556 S
C587 C588 1.384 . S
C587 H610 0.930 . S
C588 C587 1.384 . S
C588 C589 1.377 1_556 S
C588 C591 1.481 . S
C589 C588 1.377 1_554 S
C589 C590 1.389 . S
C589 H611 0.929 . S
C590 C586 1.397 . S
C590 C589 1.389 . S
C590 H612 0.931 . S
C591 C588 1.481 . S
C591 C592 1.387 . S
C591 C596 1.390 . S
C592 C591 1.387 . S
C592 C593 1.401 . S
C592 H613 0.930 . S
C593 C592 1.401 . S
C593 C594 1.376 . S
C593 C602 1.511 . S
C594 C593 1.376 . S
C594 C595 1.392 . S
C594 H615 0.931 . S
C595 C594 1.392 . S
C595 C596 1.361 . S
C595 C597 1.500 . S
C596 C591 1.390 . S
C596 C595 1.361 . S
C596 H614 0.931 . S
C597 C595 1.500 . S
C597 C598 1.371 1_545 S
C597 C599 1.365 . S
C598 C597 1.371 1_565 S
C598 C608 1.386 . S
C598 H616 0.931 . S
C599 C597 1.365 . S
C599 C600 1.414 1_545 S
C599 H617 0.929 1_556 S
C600 C599 1.414 1_565 S
C600 C601 1.398 . S
C600 H618 0.909 1_556 S
C601 C600 1.398 . S
C601 C608 1.357 . S
C602 C593 1.511 . S
C602 C603 1.341 . S
C602 C604 1.371 . S
C603 C602 1.341 . S
C603 C607 1.394 . S
C603 H619 0.930 . S
C604 C602 1.371 . S
C604 C605 1.392 . S
C604 H620 0.931 1_545 S
C605 C604 1.392 . S
C605 C606 1.331 . S
C605 H623 0.932 1_545 S
C606 C605 1.331 . S
C606 C607 1.336 . S
C607 C603 1.394 . S
C607 C606 1.336 . S
C607 H622 0.929 . S
C608 C598 1.386 . S
C608 C601 1.357 . S
C608 H621 0.928 . S
H609 C585 0.931 1_556 S
H610 C587 0.930 . S
H611 C589 0.929 . S
H612 C590 0.931 . S
H613 C592 0.930 . S
H614 C596 0.931 . S
H615 C594 0.931 . S
H616 C598 0.931 . S
H617 C599 0.929 1_554 S
H618 C600 0.909 1_554 S
H619 C603 0.930 . S
H620 C604 0.931 1_565 S
H621 C608 0.928 . S
H622 C607 0.929 . S
H623 C605 0.932 1_565 S
Li624 N641 1.990 . S
Li624 O684 1.956 . S
Li624 O685 1.970 1_556 S
Li624 O686 1.961 . S
Li625 N649 1.990 . S
Li625 O684 1.970 1_554 S
Li625 O685 1.956 . S
Li625 O687 1.961 . S
Li626 N671 1.990 . S
Li626 O684 1.961 . S
Li626 O686 1.956 . S
Li626 O687 1.970 1_556 S
Li627 N677 1.990 . S
Li627 O685 1.961 . S
Li627 O686 1.970 1_554 S
Li627 O687 1.956 . S
C628 C630 1.348 1_556 S
C628 C631 1.356 . S
C628 O684 1.325 . S
N629 C632 1.314 1_556 S
N629 C633 1.279 . S
C630 C628 1.348 1_554 S
C630 C632 1.353 . S
C630 H688 0.929 . S
C631 C628 1.356 . S
C631 C633 1.358 . S
C631 H689 0.930 . S
C632 N629 1.314 1_554 S
C632 C630 1.353 . S
C632 H690 0.930 . S
C633 N629 1.279 . S
C633 C631 1.358 . S
C633 H691 0.930 . S
C634 C637 1.348 . S
C634 C638 1.356 . S
C634 O685 1.325 . S
C635 N636 1.279 . S
C635 C638 1.358 . S
C635 H692 0.930 . S
N636 C635 1.279 . S
N636 C639 1.314 . S
C637 C634 1.348 . S
C637 C639 1.353 . S
C637 H693 0.929 . S
C638 C634 1.356 . S
C638 C635 1.358 . S
C638 H694 0.930 . S
C639 N636 1.314 . S
C639 C637 1.353 . S
C639 H695 0.930 . S
C640 N641 1.314 . S
C640 C645 1.353 . S
C640 H646 0.930 . S
N641 Li624 1.990 . S
N641 C640 1.314 . S
N641 C643 1.279 . S
C642 C643 1.358 . S
C642 C644 1.356 . S
C642 H696 0.930 . S
C643 N641 1.279 . S
C643 C642 1.358 . S
C643 H647 0.930 . S
C644 C642 1.356 . S
C644 C645 1.348 . S
C645 C640 1.353 . S
C645 C644 1.348 . S
C645 H697 0.929 . S
H646 C640 0.930 . S
H647 C643 0.930 . S
C648 N649 1.314 . S
C648 C650 1.353 . S
C648 H654 0.930 . S
N649 Li625 1.990 . S
N649 C648 1.314 . S
N649 C652 1.279 . S
C650 C648 1.353 . S
C650 C653 1.348 . S
C650 H698 0.929 . S
C651 C652 1.358 . S
C651 C653 1.356 . S
C651 H699 0.930 . S
C652 N649 1.279 . S
C652 C651 1.358 . S
C652 H655 0.930 . S
C653 C650 1.348 . S
C653 C651 1.356 . S
H654 C648 0.930 . S
H655 C652 0.930 . S
C656 C658 1.348 . S
C656 C659 1.356 . S
C656 O686 1.325 . S
N657 C660 1.314 . S
N657 C661 1.279 . S
C658 C656 1.348 . S
C658 C660 1.353 . S
C658 H700 0.929 . S
C659 C656 1.356 . S
C659 C661 1.358 . S
C659 H701 0.930 . S
C660 N657 1.314 . S
C660 C658 1.353 . S
C660 H702 0.930 . S
C661 N657 1.279 . S
C661 C659 1.358 . S
C661 H703 0.930 . S
C662 C663 1.348 1_554 S
C662 C664 1.356 . S
C662 O687 1.325 . S
C663 C662 1.348 1_556 S
C663 C665 1.353 . S
C663 H704 0.929 . S
C664 C662 1.356 . S
C664 C666 1.358 . S
C664 H705 0.930 . S
C665 C663 1.353 . S
C665 N667 1.314 1_556 S
C665 H706 0.930 . S
C666 C664 1.358 . S
C666 N667 1.279 . S
C666 H707 0.930 . S
N667 C665 1.314 1_554 S
N667 C666 1.279 . S
C668 C670 1.353 . S
C668 N671 1.314 . S
C668 H674 0.930 . S
C669 N671 1.279 . S
C669 C672 1.358 . S
C669 H675 0.930 . S
C670 C668 1.353 . S
C670 C673 1.348 . S
C670 H708 0.929 . S
N671 Li626 1.990 . S
N671 C668 1.314 . S
N671 C669 1.279 . S
C672 C669 1.358 . S
C672 C673 1.356 . S
C672 H709 0.930 . S
C673 C670 1.348 . S
C673 C672 1.356 . S
H674 C668 0.930 . S
H675 C669 0.930 . S
C676 N677 1.314 . S
C676 C678 1.353 . S
C676 H682 0.930 . S
N677 Li627 1.990 . S
N677 C676 1.314 . S
N677 C680 1.279 . S
C678 C676 1.353 . S
C678 C681 1.348 . S
C678 H710 0.929 . S
C679 C680 1.358 . S
C679 C681 1.356 . S
C679 H711 0.930 . S
C680 N677 1.279 . S
C680 C679 1.358 . S
C680 H683 0.930 . S
C681 C678 1.348 . S
C681 C679 1.356 . S
H682 C676 0.930 . S
H683 C680 0.930 . S
O684 Li624 1.956 . S
O684 Li625 1.970 1_556 S
O684 Li626 1.961 . S
O684 C628 1.325 . S
O685 Li624 1.970 1_554 S
O685 Li625 1.956 . S
O685 Li627 1.961 . S
O685 C634 1.325 . S
O686 Li624 1.961 . S
O686 Li626 1.956 . S
O686 Li627 1.970 1_556 S
O686 C656 1.325 . S
O687 Li625 1.961 . S
O687 Li626 1.970 1_554 S
O687 Li627 1.956 . S
O687 C662 1.325 . S
H688 C630 0.929 . S
H689 C631 0.930 . S
H690 C632 0.930 . S
H691 C633 0.930 . S
H692 C635 0.930 . S
H693 C637 0.929 . S
H694 C638 0.930 . S
H695 C639 0.930 . S
H696 C642 0.930 . S
H697 C645 0.929 . S
H698 C650 0.929 . S
H699 C651 0.930 . S
H700 C658 0.929 . S
H701 C659 0.930 . S
H702 C660 0.930 . S
H703 C661 0.930 . S
H704 C663 0.929 . S
H705 C664 0.930 . S
H706 C665 0.930 . S
H707 C666 0.930 . S
H708 C670 0.929 . S
H709 C672 0.930 . S
H710 C678 0.929 . S
H711 C679 0.930 . S
Li712 N729 1.990 . S
Li712 O772 1.956 . S
Li712 O773 1.970 . S
Li712 O774 1.961 . S
Li713 N737 1.990 . S
Li713 O772 1.970 . S
Li713 O773 1.956 . S
Li713 O775 1.961 . S
Li714 N759 1.990 . S
Li714 O772 1.961 . S
Li714 O774 1.956 . S
Li714 O775 1.970 . S
Li715 N765 1.990 . S
Li715 O773 1.961 . S
Li715 O774 1.970 . S
Li715 O775 1.956 . S
C716 C718 1.348 . S
C716 C719 1.356 . S
C716 O772 1.325 . S
N717 C720 1.314 . S
N717 C721 1.279 . S
C718 C716 1.348 . S
C718 C720 1.353 . S
C718 H776 0.929 . S
C719 C716 1.356 . S
C719 C721 1.358 . S
C719 H777 0.930 . S
C720 N717 1.314 . S
C720 C718 1.353 . S
C720 H778 0.930 . S
C721 N717 1.279 . S
C721 C719 1.358 . S
C721 H779 0.930 . S
C722 C725 1.348 . S
C722 C726 1.356 . S
C722 O773 1.325 . S
C723 N724 1.279 . S
C723 C726 1.358 . S
C723 H780 0.930 . S
N724 C723 1.279 . S
N724 C727 1.314 . S
C725 C722 1.348 . S
C725 C727 1.353 . S
C725 H781 0.929 . S
C726 C722 1.356 . S
C726 C723 1.358 . S
C726 H782 0.930 . S
C727 N724 1.314 . S
C727 C725 1.353 . S
C727 H783 0.930 . S
C728 N729 1.314 . S
C728 C733 1.353 . S
C728 H734 0.930 . S
N729 Li712 1.990 . S
N729 C728 1.314 . S
N729 C731 1.279 . S
C730 C731 1.358 . S
C730 C732 1.356 . S
C730 H784 0.930 . S
C731 N729 1.279 . S
C731 C730 1.358 . S
C731 H735 0.930 . S
C732 C730 1.356 . S
C732 C733 1.348 . S
C733 C728 1.353 . S
C733 C732 1.348 . S
C733 H785 0.929 . S
H734 C728 0.930 . S
H735 C731 0.930 . S
C736 N737 1.314 . S
C736 C738 1.353 . S
C736 H742 0.930 . S
N737 Li713 1.990 . S
N737 C736 1.314 . S
N737 C740 1.279 . S
C738 C736 1.353 . S
C738 C741 1.348 . S
C738 H786 0.929 . S
C739 C740 1.358 . S
C739 C741 1.356 . S
C739 H787 0.930 . S
C740 N737 1.279 . S
C740 C739 1.358 . S
C740 H743 0.930 . S
C741 C738 1.348 . S
C741 C739 1.356 . S
H742 C736 0.930 . S
H743 C740 0.930 . S
C744 C746 1.348 . S
C744 C747 1.356 . S
C744 O774 1.325 . S
N745 C748 1.314 . S
N745 C749 1.279 . S
C746 C744 1.348 . S
C746 C748 1.353 . S
C746 H788 0.929 . S
C747 C744 1.356 . S
C747 C749 1.358 . S
C747 H789 0.930 . S
C748 N745 1.314 . S
C748 C746 1.353 . S
C748 H790 0.930 . S
C749 N745 1.279 . S
C749 C747 1.358 . S
C749 H791 0.930 . S
C750 C751 1.348 . S
C750 C752 1.356 . S
C750 O775 1.325 . S
C751 C750 1.348 . S
C751 C753 1.353 . S
C751 H792 0.929 . S
C752 C750 1.356 . S
C752 C754 1.358 . S
C752 H793 0.930 . S
C753 C751 1.353 . S
C753 N755 1.314 . S
C753 H794 0.930 . S
C754 C752 1.358 . S
C754 N755 1.279 . S
C754 H795 0.930 . S
N755 C753 1.314 . S
N755 C754 1.279 . S
C756 C758 1.353 . S
C756 N759 1.314 . S
C756 H762 0.930 . S
C757 N759 1.279 . S
C757 C760 1.358 . S
C757 H763 0.930 . S
C758 C756 1.353 . S
C758 C761 1.348 . S
C758 H796 0.929 . S
N759 Li714 1.990 . S
N759 C756 1.314 . S
N759 C757 1.279 . S
C760 C757 1.358 . S
C760 C761 1.356 . S
C760 H797 0.930 . S
C761 C758 1.348 . S
C761 C760 1.356 . S
H762 C756 0.930 . S
H763 C757 0.930 . S
C764 N765 1.314 . S
C764 C766 1.353 . S
C764 H770 0.930 . S
N765 Li715 1.990 . S
N765 C764 1.314 . S
N765 C768 1.279 . S
C766 C764 1.353 . S
C766 C769 1.348 . S
C766 H798 0.929 . S
C767 C768 1.358 . S
C767 C769 1.356 . S
C767 H799 0.930 . S
C768 N765 1.279 . S
C768 C767 1.358 . S
C768 H771 0.930 . S
C769 C766 1.348 . S
C769 C767 1.356 . S
H770 C764 0.930 . S
H771 C768 0.930 . S
O772 Li712 1.956 . S
O772 Li713 1.970 . S
O772 Li714 1.961 . S
O772 C716 1.325 . S
O773 Li712 1.970 . S
O773 Li713 1.956 . S
O773 Li715 1.961 . S
O773 C722 1.325 . S
O774 Li712 1.961 . S
O774 Li714 1.956 . S
O774 Li715 1.970 . S
O774 C744 1.325 . S
O775 Li713 1.961 . S
O775 Li714 1.970 . S
O775 Li715 1.956 . S
O775 C750 1.325 . S
H776 C718 0.929 . S
H777 C719 0.930 . S
H778 C720 0.930 . S
H779 C721 0.930 . S
H780 C723 0.930 . S
H781 C725 0.929 . S
H782 C726 0.930 . S
H783 C727 0.930 . S
H784 C730 0.930 . S
H785 C733 0.929 . S
H786 C738 0.929 . S
H787 C739 0.930 . S
H788 C746 0.929 . S
H789 C747 0.930 . S
H790 C748 0.930 . S
H791 C749 0.930 . S
H792 C751 0.929 . S
H793 C752 0.930 . S
H794 C753 0.930 . S
H795 C754 0.930 . S
H796 C758 0.929 . S
H797 C760 0.930 . S
H798 C766 0.929 . S
H799 C767 0.930 . S
Li800 N817 1.990 . S
Li800 O860 1.956 . S
Li800 O861 1.970 1_556 S
Li800 O862 1.961 . S
Li801 N825 1.990 . S
Li801 O860 1.970 1_554 S
Li801 O861 1.956 . S
Li801 O863 1.961 . S
Li802 N847 1.990 . S
Li802 O860 1.961 . S
Li802 O862 1.956 . S
Li802 O863 1.970 1_556 S
Li803 N853 1.990 . S
Li803 O861 1.961 . S
Li803 O862 1.970 1_554 S
Li803 O863 1.956 . S
C804 C806 1.348 1_556 S
C804 C807 1.356 . S
C804 O860 1.325 . S
N805 C808 1.314 1_556 S
N805 C809 1.279 . S
C806 C804 1.348 1_554 S
C806 C808 1.353 . S
C806 H864 0.929 . S
C807 C804 1.356 . S
C807 C809 1.358 . S
C807 H865 0.930 . S
C808 N805 1.314 1_554 S
C808 C806 1.353 . S
C808 H866 0.930 . S
C809 N805 1.279 . S
C809 C807 1.358 . S
C809 H867 0.930 . S
C810 C813 1.348 . S
C810 C814 1.356 . S
C810 O861 1.325 . S
C811 N812 1.279 . S
C811 C814 1.358 . S
C811 H868 0.930 . S
N812 C811 1.279 . S
N812 C815 1.314 . S
C813 C810 1.348 . S
C813 C815 1.353 . S
C813 H869 0.929 . S
C814 C810 1.356 . S
C814 C811 1.358 . S
C814 H870 0.930 . S
C815 N812 1.314 . S
C815 C813 1.353 . S
C815 H871 0.930 . S
C816 N817 1.314 . S
C816 C821 1.353 . S
C816 H822 0.930 . S
N817 Li800 1.990 . S
N817 C816 1.314 . S
N817 C819 1.279 . S
C818 C819 1.358 . S
C818 C820 1.356 . S
C818 H872 0.930 . S
C819 N817 1.279 . S
C819 C818 1.358 . S
C819 H823 0.930 . S
C820 C818 1.356 . S
C820 C821 1.348 . S
C821 C816 1.353 . S
C821 C820 1.348 . S
C821 H873 0.929 . S
H822 C816 0.930 . S
H823 C819 0.930 . S
C824 N825 1.314 . S
C824 C826 1.353 . S
C824 H830 0.930 . S
N825 Li801 1.990 . S
N825 C824 1.314 . S
N825 C828 1.279 . S
C826 C824 1.353 . S
C826 C829 1.348 . S
C826 H874 0.929 . S
C827 C828 1.358 . S
C827 C829 1.356 . S
C827 H875 0.930 . S
C828 N825 1.279 . S
C828 C827 1.358 . S
C828 H831 0.930 . S
C829 C826 1.348 . S
C829 C827 1.356 . S
H830 C824 0.930 . S
H831 C828 0.930 . S
C832 C834 1.348 . S
C832 C835 1.356 . S
C832 O862 1.325 . S
N833 C836 1.314 . S
N833 C837 1.279 . S
C834 C832 1.348 . S
C834 C836 1.353 . S
C834 H876 0.929 . S
C835 C832 1.356 . S
C835 C837 1.358 . S
C835 H877 0.930 . S
C836 N833 1.314 . S
C836 C834 1.353 . S
C836 H878 0.930 . S
C837 N833 1.279 . S
C837 C835 1.358 . S
C837 H879 0.930 . S
C838 C839 1.348 1_554 S
C838 C840 1.356 . S
C838 O863 1.325 . S
C839 C838 1.348 1_556 S
C839 C841 1.353 . S
C839 H880 0.929 . S
C840 C838 1.356 . S
C840 C842 1.358 . S
C840 H881 0.930 . S
C841 C839 1.353 . S
C841 N843 1.314 1_556 S
C841 H882 0.930 . S
C842 C840 1.358 . S
C842 N843 1.279 . S
C842 H883 0.930 . S
N843 C841 1.314 1_554 S
N843 C842 1.279 . S
C844 C846 1.353 . S
C844 N847 1.314 . S
C844 H850 0.930 . S
C845 N847 1.279 . S
C845 C848 1.358 . S
C845 H851 0.930 . S
C846 C844 1.353 . S
C846 C849 1.348 . S
C846 H884 0.929 . S
N847 Li802 1.990 . S
N847 C844 1.314 . S
N847 C845 1.279 . S
C848 C845 1.358 . S
C848 C849 1.356 . S
C848 H885 0.930 . S
C849 C846 1.348 . S
C849 C848 1.356 . S
H850 C844 0.930 . S
H851 C845 0.930 . S
C852 N853 1.314 . S
C852 C854 1.353 . S
C852 H858 0.930 . S
N853 Li803 1.990 . S
N853 C852 1.314 . S
N853 C856 1.279 . S
C854 C852 1.353 . S
C854 C857 1.348 . S
C854 H886 0.929 . S
C855 C856 1.358 . S
C855 C857 1.356 . S
C855 H887 0.930 . S
C856 N853 1.279 . S
C856 C855 1.358 . S
C856 H859 0.930 . S
C857 C854 1.348 . S
C857 C855 1.356 . S
H858 C852 0.930 . S
H859 C856 0.930 . S
O860 Li800 1.956 . S
O860 Li801 1.970 1_556 S
O860 Li802 1.961 . S
O860 C804 1.325 . S
O861 Li800 1.970 1_554 S
O861 Li801 1.956 . S
O861 Li803 1.961 . S
O861 C810 1.325 . S
O862 Li800 1.961 . S
O862 Li802 1.956 . S
O862 Li803 1.970 1_556 S
O862 C832 1.325 . S
O863 Li801 1.961 . S
O863 Li802 1.970 1_554 S
O863 Li803 1.956 . S
O863 C838 1.325 . S
H864 C806 0.929 . S
H865 C807 0.930 . S
H866 C808 0.930 . S
H867 C809 0.930 . S
H868 C811 0.930 . S
H869 C813 0.929 . S
H870 C814 0.930 . S
H871 C815 0.930 . S
H872 C818 0.930 . S
H873 C821 0.929 . S
H874 C826 0.929 . S
H875 C827 0.930 . S
H876 C834 0.929 . S
H877 C835 0.930 . S
H878 C836 0.930 . S
H879 C837 0.930 . S
H880 C839 0.929 . S
H881 C840 0.930 . S
H882 C841 0.930 . S
H883 C842 0.930 . S
H884 C846 0.929 . S
H885 C848 0.930 . S
H886 C854 0.929 . S
H887 C855 0.930 . S
Li888 N905 1.990 . S
Li888 O948 1.956 . S
Li888 O949 1.927 1_545 S
Li888 O950 1.961 . S
Li889 N913 1.990 . S
Li889 O948 1.970 1_565 S
Li889 O949 1.958 . S
Li889 O951 1.961 . S
Li890 N935 1.990 . S
Li890 O948 1.961 . S
Li890 O950 1.956 . S
Li890 O951 1.970 1_545 S
Li891 N941 1.990 . S
Li891 O949 1.994 . S
Li891 O950 1.970 1_565 S
Li891 O951 1.956 . S
C892 C894 1.348 . S
C892 C895 1.356 . S
C892 O948 1.325 . S
N893 C896 1.314 . S
N893 C897 1.279 . S
C894 C892 1.348 . S
C894 C896 1.353 . S
C894 H952 0.929 . S
C895 C892 1.356 . S
C895 C897 1.358 . S
C895 H953 0.930 . S
C896 N893 1.314 . S
C896 C894 1.353 . S
C896 H954 0.930 . S
C897 N893 1.279 . S
C897 C895 1.358 . S
C897 H955 0.930 . S
C898 C901 1.348 1_565 S
C898 C902 1.356 . S
C898 O949 1.333 . S
C899 N900 1.279 . S
C899 C902 1.358 . S
C899 H956 0.930 . S
N900 C899 1.279 . S
N900 C903 1.314 1_565 S
C901 C898 1.348 1_545 S
C901 C903 1.353 . S
C901 H957 0.929 . S
C902 C898 1.356 . S
C902 C899 1.358 . S
C902 H958 0.930 . S
C903 N900 1.314 1_545 S
C903 C901 1.353 . S
C903 H959 0.930 . S
C904 N905 1.314 . S
C904 C909 1.353 . S
C904 H910 0.930 . S
N905 Li888 1.990 . S
N905 C904 1.314 . S
N905 C907 1.279 . S
C906 C907 1.358 . S
C906 C908 1.356 . S
C906 H960 0.930 . S
C907 N905 1.279 . S
C907 C906 1.358 . S
C907 H911 0.930 . S
C908 C906 1.356 . S
C908 C909 1.348 . S
C909 C904 1.353 . S
C909 C908 1.348 . S
C909 H961 0.929 . S
H910 C904 0.930 . S
H911 C907 0.930 . S
C912 N913 1.314 . S
C912 C914 1.353 . S
C912 H918 0.930 . S
N913 Li889 1.990 . S
N913 C912 1.314 . S
N913 C916 1.279 . S
C914 C912 1.353 . S
C914 C917 1.348 . S
C914 H962 0.929 . S
C915 C916 1.358 . S
C915 C917 1.356 . S
C915 H963 0.930 . S
C916 N913 1.279 . S
C916 C915 1.358 . S
C916 H919 0.930 . S
C917 C914 1.348 . S
C917 C915 1.356 . S
H918 C912 0.930 . S
H919 C916 0.930 . S
C920 C922 1.348 1_545 S
C920 C923 1.356 . S
C920 O950 1.325 . S
N921 C924 1.314 1_545 S
N921 C925 1.279 . S
C922 C920 1.348 1_565 S
C922 C924 1.353 . S
C922 H964 0.929 . S
C923 C920 1.356 . S
C923 C925 1.358 . S
C923 H965 0.930 . S
C924 N921 1.314 1_565 S
C924 C922 1.353 . S
C924 H966 0.930 . S
C925 N921 1.279 . S
C925 C923 1.358 . S
C925 H967 0.930 . S
C926 C927 1.348 . S
C926 C928 1.356 . S
C926 O951 1.325 . S
C927 C926 1.348 . S
C927 C929 1.353 . S
C927 H968 0.929 . S
C928 C926 1.356 . S
C928 C930 1.358 . S
C928 H969 0.930 . S
C929 C927 1.353 . S
C929 N931 1.314 . S
C929 H970 0.930 . S
C930 C928 1.358 . S
C930 N931 1.279 . S
C930 H971 0.930 . S
N931 C929 1.314 . S
N931 C930 1.279 . S
C932 C934 1.353 . S
C932 N935 1.314 . S
C932 H938 0.930 . S
C933 N935 1.279 . S
C933 C936 1.358 . S
C933 H939 0.930 . S
C934 C932 1.353 . S
C934 C937 1.348 . S
C934 H972 0.929 . S
N935 Li890 1.990 . S
N935 C932 1.314 . S
N935 C933 1.279 . S
C936 C933 1.358 . S
C936 C937 1.356 . S
C936 H973 0.930 . S
C937 C934 1.348 . S
C937 C936 1.356 . S
H938 C932 0.930 . S
H939 C933 0.930 . S
C940 N941 1.314 . S
C940 C942 1.353 . S
C940 H946 0.930 . S
N941 Li891 1.990 . S
N941 C940 1.314 . S
N941 C944 1.279 . S
C942 C940 1.353 . S
C942 C945 1.348 . S
C942 H974 0.929 . S
C943 C944 1.358 . S
C943 C945 1.356 . S
C943 H975 0.930 . S
C944 N941 1.279 . S
C944 C943 1.358 . S
C944 H947 0.930 . S
C945 C942 1.348 . S
C945 C943 1.356 . S
H946 C940 0.930 . S
H947 C944 0.930 . S
O948 Li888 1.956 . S
O948 Li889 1.970 1_545 S
O948 Li890 1.961 . S
O948 C892 1.325 . S
O949 Li888 1.927 1_565 S
O949 Li889 1.958 . S
O949 Li891 1.994 . S
O949 C898 1.333 . S
O950 Li888 1.961 . S
O950 Li890 1.956 . S
O950 Li891 1.970 1_545 S
O950 C920 1.325 . S
O951 Li889 1.961 . S
O951 Li890 1.970 1_565 S
O951 Li891 1.956 . S
O951 C926 1.325 . S
H952 C894 0.929 . S
H953 C895 0.930 . S
H954 C896 0.930 . S
H955 C897 0.930 . S
H956 C899 0.930 . S
H957 C901 0.929 . S
H958 C902 0.930 . S
H959 C903 0.930 . S
H960 C906 0.930 . S
H961 C909 0.929 . S
H962 C914 0.929 . S
H963 C915 0.930 . S
H964 C922 0.929 . S
H965 C923 0.930 . S
H966 C924 0.930 . S
H967 C925 0.930 . S
H968 C927 0.929 . S
H969 C928 0.930 . S
H970 C929 0.930 . S
H971 C930 0.930 . S
H972 C934 0.929 . S
H973 C936 0.930 . S
H974 C942 0.929 . S
H975 C943 0.930 . S
Li976 N993 1.990 . S
Li976 O1036 1.956 . S
Li976 O1037 1.970 . S
Li976 O1038 1.961 . S
Li977 N1001 1.990 . S
Li977 O1036 1.970 . S
Li977 O1037 1.956 . S
Li977 O1039 1.961 . S
Li978 N1023 1.990 . S
Li978 O1036 1.961 . S
Li978 O1038 1.956 . S
Li978 O1039 1.970 . S
Li979 N1029 1.990 . S
Li979 O1037 1.961 . S
Li979 O1038 1.970 . S
Li979 O1039 1.956 . S
C980 C982 1.348 . S
C980 C983 1.356 . S
C980 O1036 1.325 . S
N981 C984 1.314 . S
N981 C985 1.279 . S
C982 C980 1.348 . S
C982 C984 1.353 . S
C982 H1040 0.929 . S
C983 C980 1.356 . S
C983 C985 1.358 . S
C983 H1041 0.930 . S
C984 N981 1.314 . S
C984 C982 1.353 . S
C984 H1042 0.930 . S
C985 N981 1.279 . S
C985 C983 1.358 . S
C985 H1043 0.930 . S
C986 C989 1.348 . S
C986 C990 1.356 . S
C986 O1037 1.325 . S
C987 N988 1.279 . S
C987 C990 1.358 . S
C987 H1044 0.930 . S
N988 C987 1.279 . S
N988 C991 1.314 . S
C989 C986 1.348 . S
C989 C991 1.353 . S
C989 H1045 0.929 . S
C990 C986 1.356 . S
C990 C987 1.358 . S
C990 H1046 0.930 . S
C991 N988 1.314 . S
C991 C989 1.353 . S
C991 H1047 0.930 . S
C992 N993 1.314 . S
C992 C997 1.353 . S
C992 H998 0.930 . S
N993 Li976 1.990 . S
N993 C992 1.314 . S
N993 C995 1.279 . S
C994 C995 1.358 . S
C994 C996 1.356 . S
C994 H1048 0.930 . S
C995 N993 1.279 . S
C995 C994 1.358 . S
C995 H999 0.930 . S
C996 C994 1.356 . S
C996 C997 1.348 . S
C997 C992 1.353 . S
C997 C996 1.348 . S
C997 H1049 0.929 . S
H998 C992 0.930 . S
H999 C995 0.930 . S
C1000 N1001 1.314 . S
C1000 C1002 1.353 . S
C1000 H1006 0.930 . S
N1001 Li977 1.990 . S
N1001 C1000 1.314 . S
N1001 C1004 1.279 . S
C1002 C1000 1.353 . S
C1002 C1005 1.348 . S
C1002 H1050 0.929 . S
C1003 C1004 1.358 . S
C1003 C1005 1.356 . S
C1003 H1051 0.930 . S
C1004 N1001 1.279 . S
C1004 C1003 1.358 . S
C1004 H1007 0.930 . S
C1005 C1002 1.348 . S
C1005 C1003 1.356 . S
H1006 C1000 0.930 . S
H1007 C1004 0.930 . S
C1008 C1010 1.348 . S
C1008 C1011 1.356 . S
C1008 O1038 1.325 . S
N1009 C1012 1.314 . S
N1009 C1013 1.279 . S
C1010 C1008 1.348 . S
C1010 C1012 1.353 . S
C1010 H1052 0.929 . S
C1011 C1008 1.356 . S
C1011 C1013 1.358 . S
C1011 H1053 0.930 . S
C1012 N1009 1.314 . S
C1012 C1010 1.353 . S
C1012 H1054 0.930 . S
C1013 N1009 1.279 . S
C1013 C1011 1.358 . S
C1013 H1055 0.930 . S
C1014 C1015 1.348 . S
C1014 C1016 1.356 . S
C1014 O1039 1.325 . S
C1015 C1014 1.348 . S
C1015 C1017 1.353 . S
C1015 H1056 0.929 . S
C1016 C1014 1.356 . S
C1016 C1018 1.358 . S
C1016 H1057 0.930 . S
C1017 C1015 1.353 . S
C1017 N1019 1.314 . S
C1017 H1058 0.930 . S
C1018 C1016 1.358 . S
C1018 N1019 1.279 . S
C1018 H1059 0.930 . S
N1019 C1017 1.314 . S
N1019 C1018 1.279 . S
C1020 C1022 1.353 . S
C1020 N1023 1.314 . S
C1020 H1026 0.930 . S
C1021 N1023 1.279 . S
C1021 C1024 1.358 . S
C1021 H1027 0.930 . S
C1022 C1020 1.353 . S
C1022 C1025 1.348 . S
C1022 H1060 0.929 . S
N1023 Li978 1.990 . S
N1023 C1020 1.314 . S
N1023 C1021 1.279 . S
C1024 C1021 1.358 . S
C1024 C1025 1.356 . S
C1024 H1061 0.930 . S
C1025 C1022 1.348 . S
C1025 C1024 1.356 . S
H1026 C1020 0.930 . S
H1027 C1021 0.930 . S
C1028 N1029 1.314 . S
C1028 C1030 1.353 . S
C1028 H1034 0.930 . S
N1029 Li979 1.990 . S
N1029 C1028 1.314 . S
N1029 C1032 1.279 . S
C1030 C1028 1.353 . S
C1030 C1033 1.348 . S
C1030 H1062 0.929 . S
C1031 C1032 1.358 . S
C1031 C1033 1.356 . S
C1031 H1063 0.930 . S
C1032 N1029 1.279 . S
C1032 C1031 1.358 . S
C1032 H1035 0.930 . S
C1033 C1030 1.348 . S
C1033 C1031 1.356 . S
H1034 C1028 0.930 . S
H1035 C1032 0.930 . S
O1036 Li976 1.956 . S
O1036 Li977 1.970 . S
O1036 Li978 1.961 . S
O1036 C980 1.325 . S
O1037 Li976 1.970 . S
O1037 Li977 1.956 . S
O1037 Li979 1.961 . S
O1037 C986 1.325 . S
O1038 Li976 1.961 . S
O1038 Li978 1.956 . S
O1038 Li979 1.970 . S
O1038 C1008 1.325 . S
O1039 Li977 1.961 . S
O1039 Li978 1.970 . S
O1039 Li979 1.956 . S
O1039 C1014 1.325 . S
H1040 C982 0.929 . S
H1041 C983 0.930 . S
H1042 C984 0.930 . S
H1043 C985 0.930 . S
H1044 C987 0.930 . S
H1045 C989 0.929 . S
H1046 C990 0.930 . S
H1047 C991 0.930 . S
H1048 C994 0.930 . S
H1049 C997 0.929 . S
H1050 C1002 0.929 . S
H1051 C1003 0.930 . S
H1052 C1010 0.929 . S
H1053 C1011 0.930 . S
H1054 C1012 0.930 . S
H1055 C1013 0.930 . S
H1056 C1015 0.929 . S
H1057 C1016 0.930 . S
H1058 C1017 0.930 . S
H1059 C1018 0.930 . S
H1060 C1022 0.929 . S
H1061 C1024 0.930 . S
H1062 C1030 0.929 . S
H1063 C1031 0.930 . S
Li1064 N1081 1.990 . S
Li1064 O1124 1.956 . S
Li1064 O1125 1.970 . S
Li1064 O1126 1.961 . S
Li1065 N1089 1.990 . S
Li1065 O1124 1.970 . S
Li1065 O1125 1.956 . S
Li1065 O1127 1.961 . S
Li1066 N1111 1.990 . S
Li1066 O1124 1.961 . S
Li1066 O1126 1.956 . S
Li1066 O1127 1.970 . S
Li1067 N1117 1.990 . S
Li1067 O1125 1.961 . S
Li1067 O1126 1.970 . S
Li1067 O1127 1.956 . S
C1068 C1070 1.348 . S
C1068 C1071 1.356 . S
C1068 O1124 1.325 . S
N1069 C1072 1.314 . S
N1069 C1073 1.279 . S
C1070 C1068 1.348 . S
C1070 C1072 1.353 . S
C1070 H1128 0.929 . S
C1071 C1068 1.356 . S
C1071 C1073 1.358 . S
C1071 H1129 0.930 . S
C1072 N1069 1.314 . S
C1072 C1070 1.353 . S
C1072 H1130 0.930 . S
C1073 N1069 1.279 . S
C1073 C1071 1.358 . S
C1073 H1131 0.930 . S
C1074 C1077 1.348 . S
C1074 C1078 1.356 . S
C1074 O1125 1.325 . S
C1075 N1076 1.279 . S
C1075 C1078 1.358 . S
C1075 H1132 0.930 . S
N1076 C1075 1.279 . S
N1076 C1079 1.314 . S
C1077 C1074 1.348 . S
C1077 C1079 1.353 . S
C1077 H1133 0.929 . S
C1078 C1074 1.356 . S
C1078 C1075 1.358 . S
C1078 H1134 0.930 . S
C1079 N1076 1.314 . S
C1079 C1077 1.353 . S
C1079 H1135 0.930 . S
C1080 N1081 1.314 . S
C1080 C1085 1.353 . S
C1080 H1086 0.930 . S
N1081 Li1064 1.990 . S
N1081 C1080 1.314 . S
N1081 C1083 1.279 . S
C1082 C1083 1.358 . S
C1082 C1084 1.356 . S
C1082 H1136 0.930 . S
C1083 N1081 1.279 . S
C1083 C1082 1.358 . S
C1083 H1087 0.930 . S
C1084 C1082 1.356 . S
C1084 C1085 1.348 . S
C1085 C1080 1.353 . S
C1085 C1084 1.348 . S
C1085 H1137 0.929 . S
H1086 C1080 0.930 . S
H1087 C1083 0.930 . S
C1088 N1089 1.314 . S
C1088 C1090 1.353 . S
C1088 H1094 0.930 . S
N1089 Li1065 1.990 . S
N1089 C1088 1.314 . S
N1089 C1092 1.279 . S
C1090 C1088 1.353 . S
C1090 C1093 1.348 . S
C1090 H1138 0.929 . S
C1091 C1092 1.358 . S
C1091 C1093 1.356 . S
C1091 H1139 0.930 . S
C1092 N1089 1.279 . S
C1092 C1091 1.358 . S
C1092 H1095 0.930 . S
C1093 C1090 1.348 . S
C1093 C1091 1.356 . S
H1094 C1088 0.930 . S
H1095 C1092 0.930 . S
C1096 C1098 1.348 . S
C1096 C1099 1.356 . S
C1096 O1126 1.325 . S
N1097 C1100 1.314 . S
N1097 C1101 1.279 . S
C1098 C1096 1.348 . S
C1098 C1100 1.353 . S
C1098 H1140 0.929 . S
C1099 C1096 1.356 . S
C1099 C1101 1.358 . S
C1099 H1141 0.930 . S
C1100 N1097 1.314 . S
C1100 C1098 1.353 . S
C1100 H1142 0.930 . S
C1101 N1097 1.279 . S
C1101 C1099 1.358 . S
C1101 H1143 0.930 . S
C1102 C1103 1.348 . S
C1102 C1104 1.356 . S
C1102 O1127 1.325 . S
C1103 C1102 1.348 . S
C1103 C1105 1.353 . S
C1103 H1144 0.929 . S
C1104 C1102 1.356 . S
C1104 C1106 1.358 . S
C1104 H1145 0.930 . S
C1105 C1103 1.353 . S
C1105 N1107 1.314 . S
C1105 H1146 0.930 . S
C1106 C1104 1.358 . S
C1106 N1107 1.279 . S
C1106 H1147 0.930 . S
N1107 C1105 1.314 . S
N1107 C1106 1.279 . S
C1108 C1110 1.353 . S
C1108 N1111 1.314 . S
C1108 H1114 0.930 . S
C1109 N1111 1.279 . S
C1109 C1112 1.358 . S
C1109 H1115 0.930 . S
C1110 C1108 1.353 . S
C1110 C1113 1.348 . S
C1110 H1148 0.929 . S
N1111 Li1066 1.990 . S
N1111 C1108 1.314 . S
N1111 C1109 1.279 . S
C1112 C1109 1.358 . S
C1112 C1113 1.356 . S
C1112 H1149 0.930 . S
C1113 C1110 1.348 . S
C1113 C1112 1.356 . S
H1114 C1108 0.930 . S
H1115 C1109 0.930 . S
C1116 N1117 1.314 . S
C1116 C1118 1.353 . S
C1116 H1122 0.930 . S
N1117 Li1067 1.990 . S
N1117 C1116 1.314 . S
N1117 C1120 1.279 . S
C1118 C1116 1.353 . S
C1118 C1121 1.348 . S
C1118 H1150 0.929 . S
C1119 C1120 1.358 . S
C1119 C1121 1.356 . S
C1119 H1151 0.930 . S
C1120 N1117 1.279 . S
C1120 C1119 1.358 . S
C1120 H1123 0.930 . S
C1121 C1118 1.348 . S
C1121 C1119 1.356 . S
H1122 C1116 0.930 . S
H1123 C1120 0.930 . S
O1124 Li1064 1.956 . S
O1124 Li1065 1.970 . S
O1124 Li1066 1.961 . S
O1124 C1068 1.325 . S
O1125 Li1064 1.970 . S
O1125 Li1065 1.956 . S
O1125 Li1067 1.961 . S
O1125 C1074 1.325 . S
O1126 Li1064 1.961 . S
O1126 Li1066 1.956 . S
O1126 Li1067 1.970 . S
O1126 C1096 1.325 . S
O1127 Li1065 1.961 . S
O1127 Li1066 1.970 . S
O1127 Li1067 1.956 . S
O1127 C1102 1.325 . S
H1128 C1070 0.929 . S
H1129 C1071 0.930 . S
H1130 C1072 0.930 . S
H1131 C1073 0.930 . S
H1132 C1075 0.930 . S
H1133 C1077 0.929 . S
H1134 C1078 0.930 . S
H1135 C1079 0.930 . S
H1136 C1082 0.930 . S
H1137 C1085 0.929 . S
H1138 C1090 0.929 . S
H1139 C1091 0.930 . S
H1140 C1098 0.929 . S
H1141 C1099 0.930 . S
H1142 C1100 0.930 . S
H1143 C1101 0.930 . S
H1144 C1103 0.929 . S
H1145 C1104 0.930 . S
H1146 C1105 0.930 . S
H1147 C1106 0.930 . S
H1148 C1110 0.929 . S
H1149 C1112 0.930 . S
H1150 C1118 0.929 . S
H1151 C1119 0.930 . S
Li1152 N1169 1.990 . S
Li1152 O1212 1.956 . S
Li1152 O1213 1.970 . S
Li1152 O1214 1.961 . S
Li1153 N1177 1.990 . S
Li1153 O1212 1.970 . S
Li1153 O1213 1.956 . S
Li1153 O1215 1.961 . S
Li1154 N1199 1.990 . S
Li1154 O1212 1.961 . S
Li1154 O1214 1.956 . S
Li1154 O1215 1.970 . S
Li1155 N1205 1.990 . S
Li1155 O1213 1.961 . S
Li1155 O1214 1.970 . S
Li1155 O1215 1.956 . S
C1156 C1158 1.348 . S
C1156 C1159 1.356 . S
C1156 O1212 1.325 . S
N1157 C1160 1.314 . S
N1157 C1161 1.279 . S
C1158 C1156 1.348 . S
C1158 C1160 1.353 . S
C1158 H1216 0.929 . S
C1159 C1156 1.356 . S
C1159 C1161 1.358 . S
C1159 H1217 0.930 . S
C1160 N1157 1.314 . S
C1160 C1158 1.353 . S
C1160 H1218 0.930 . S
C1161 N1157 1.279 . S
C1161 C1159 1.358 . S
C1161 H1219 0.930 . S
C1162 C1165 1.348 . S
C1162 C1166 1.356 . S
C1162 O1213 1.325 . S
C1163 N1164 1.279 . S
C1163 C1166 1.358 . S
C1163 H1220 0.930 . S
N1164 C1163 1.279 . S
N1164 C1167 1.314 . S
C1165 C1162 1.348 . S
C1165 C1167 1.353 . S
C1165 H1221 0.929 . S
C1166 C1162 1.356 . S
C1166 C1163 1.358 . S
C1166 H1222 0.930 . S
C1167 N1164 1.314 . S
C1167 C1165 1.353 . S
C1167 H1223 0.930 . S
C1168 N1169 1.314 . S
C1168 C1173 1.353 . S
C1168 H1174 0.930 . S
N1169 Li1152 1.990 . S
N1169 C1168 1.314 . S
N1169 C1171 1.279 . S
C1170 C1171 1.358 . S
C1170 C1172 1.356 . S
C1170 H1224 0.930 . S
C1171 N1169 1.279 . S
C1171 C1170 1.358 . S
C1171 H1175 0.930 . S
C1172 C1170 1.356 . S
C1172 C1173 1.348 . S
C1173 C1168 1.353 . S
C1173 C1172 1.348 . S
C1173 H1225 0.929 . S
H1174 C1168 0.930 . S
H1175 C1171 0.930 . S
C1176 N1177 1.314 . S
C1176 C1178 1.353 . S
C1176 H1182 0.930 . S
N1177 Li1153 1.990 . S
N1177 C1176 1.314 . S
N1177 C1180 1.279 . S
C1178 C1176 1.353 . S
C1178 C1181 1.348 . S
C1178 H1226 0.929 . S
C1179 C1180 1.358 . S
C1179 C1181 1.356 . S
C1179 H1227 0.930 . S
C1180 N1177 1.279 . S
C1180 C1179 1.358 . S
C1180 H1183 0.930 . S
C1181 C1178 1.348 . S
C1181 C1179 1.356 . S
H1182 C1176 0.930 . S
H1183 C1180 0.930 . S
C1184 C1186 1.348 . S
C1184 C1187 1.356 . S
C1184 O1214 1.325 . S
N1185 C1188 1.314 . S
N1185 C1189 1.279 . S
C1186 C1184 1.348 . S
C1186 C1188 1.353 . S
C1186 H1228 0.929 . S
C1187 C1184 1.356 . S
C1187 C1189 1.358 . S
C1187 H1229 0.930 . S
C1188 N1185 1.314 . S
C1188 C1186 1.353 . S
C1188 H1230 0.930 . S
C1189 N1185 1.279 . S
C1189 C1187 1.358 . S
C1189 H1231 0.930 . S
C1190 C1191 1.348 . S
C1190 C1192 1.356 . S
C1190 O1215 1.325 . S
C1191 C1190 1.348 . S
C1191 C1193 1.353 . S
C1191 H1232 0.929 . S
C1192 C1190 1.356 . S
C1192 C1194 1.358 . S
C1192 H1233 0.930 . S
C1193 C1191 1.353 . S
C1193 N1195 1.314 . S
C1193 H1234 0.930 . S
C1194 C1192 1.358 . S
C1194 N1195 1.279 . S
C1194 H1235 0.930 . S
N1195 C1193 1.314 . S
N1195 C1194 1.279 . S
C1196 C1198 1.353 . S
C1196 N1199 1.314 . S
C1196 H1202 0.930 . S
C1197 N1199 1.279 . S
C1197 C1200 1.358 . S
C1197 H1203 0.930 . S
C1198 C1196 1.353 . S
C1198 C1201 1.348 . S
C1198 H1236 0.929 . S
N1199 Li1154 1.990 . S
N1199 C1196 1.314 . S
N1199 C1197 1.279 . S
C1200 C1197 1.358 . S
C1200 C1201 1.356 . S
C1200 H1237 0.930 . S
C1201 C1198 1.348 . S
C1201 C1200 1.356 . S
H1202 C1196 0.930 . S
H1203 C1197 0.930 . S
C1204 N1205 1.314 . S
C1204 C1206 1.353 . S
C1204 H1210 0.930 . S
N1205 Li1155 1.990 . S
N1205 C1204 1.314 . S
N1205 C1208 1.279 . S
C1206 C1204 1.353 . S
C1206 C1209 1.348 . S
C1206 H1238 0.929 . S
C1207 C1208 1.358 . S
C1207 C1209 1.356 . S
C1207 H1239 0.930 . S
C1208 N1205 1.279 . S
C1208 C1207 1.358 . S
C1208 H1211 0.930 . S
C1209 C1206 1.348 . S
C1209 C1207 1.356 . S
H1210 C1204 0.930 . S
H1211 C1208 0.930 . S
O1212 Li1152 1.956 . S
O1212 Li1153 1.970 . S
O1212 Li1154 1.961 . S
O1212 C1156 1.325 . S
O1213 Li1152 1.970 . S
O1213 Li1153 1.956 . S
O1213 Li1155 1.961 . S
O1213 C1162 1.325 . S
O1214 Li1152 1.961 . S
O1214 Li1154 1.956 . S
O1214 Li1155 1.970 . S
O1214 C1184 1.325 . S
O1215 Li1153 1.961 . S
O1215 Li1154 1.970 . S
O1215 Li1155 1.956 . S
O1215 C1190 1.325 . S
H1216 C1158 0.929 . S
H1217 C1159 0.930 . S
H1218 C1160 0.930 . S
H1219 C1161 0.930 . S
H1220 C1163 0.930 . S
H1221 C1165 0.929 . S
H1222 C1166 0.930 . S
H1223 C1167 0.930 . S
H1224 C1170 0.930 . S
H1225 C1173 0.929 . S
H1226 C1178 0.929 . S
H1227 C1179 0.930 . S
H1228 C1186 0.929 . S
H1229 C1187 0.930 . S
H1230 C1188 0.930 . S
H1231 C1189 0.930 . S
H1232 C1191 0.929 . S
H1233 C1192 0.930 . S
H1234 C1193 0.930 . S
H1235 C1194 0.930 . S
H1236 C1198 0.929 . S
H1237 C1200 0.930 . S
H1238 C1206 0.929 . S
H1239 C1207 0.930 . S
Li1240 N1257 1.990 . S
Li1240 O1300 1.956 . S
Li1240 O1301 1.970 1_565 S
Li1240 O1302 1.961 . S
Li1241 N1265 1.990 . S
Li1241 O1300 1.970 1_545 S
Li1241 O1301 1.956 . S
Li1241 O1303 1.961 . S
Li1242 N1287 1.990 . S
Li1242 O1300 1.961 . S
Li1242 O1302 1.956 . S
Li1242 O1303 1.970 1_565 S
Li1243 N1293 1.990 . S
Li1243 O1301 1.961 . S
Li1243 O1302 1.970 1_545 S
Li1243 O1303 1.956 . S
C1244 C1246 1.348 . S
C1244 C1247 1.356 . S
C1244 O1300 1.325 . S
N1245 C1248 1.314 . S
N1245 C1249 1.279 . S
C1246 C1244 1.348 . S
C1246 C1248 1.353 . S
C1246 H1304 0.929 . S
C1247 C1244 1.356 . S
C1247 C1249 1.358 . S
C1247 H1305 0.930 . S
C1248 N1245 1.314 . S
C1248 C1246 1.353 . S
C1248 H1306 0.930 . S
C1249 N1245 1.279 . S
C1249 C1247 1.358 . S
C1249 H1307 0.930 . S
C1250 C1253 1.348 1_545 S
C1250 C1254 1.356 . S
C1250 O1301 1.325 . S
C1251 N1252 1.279 . S
C1251 C1254 1.358 . S
C1251 H1308 0.930 . S
N1252 C1251 1.279 . S
N1252 C1255 1.314 1_545 S
C1253 C1250 1.348 1_565 S
C1253 C1255 1.353 . S
C1253 H1309 0.929 . S
C1254 C1250 1.356 . S
C1254 C1251 1.358 . S
C1254 H1310 0.930 . S
C1255 N1252 1.314 1_565 S
C1255 C1253 1.353 . S
C1255 H1311 0.930 . S
C1256 N1257 1.314 . S
C1256 C1261 1.353 . S
C1256 H1262 0.930 . S
N1257 Li1240 1.990 . S
N1257 C1256 1.314 . S
N1257 C1259 1.279 . S
C1258 C1259 1.358 . S
C1258 C1260 1.356 . S
C1258 H1312 0.930 . S
C1259 N1257 1.279 . S
C1259 C1258 1.358 . S
C1259 H1263 0.930 . S
C1260 C1258 1.356 . S
C1260 C1261 1.348 . S
C1261 C1256 1.353 . S
C1261 C1260 1.348 . S
C1261 H1313 0.929 . S
H1262 C1256 0.930 . S
H1263 C1259 0.930 . S
C1264 N1265 1.314 . S
C1264 C1266 1.353 . S
C1264 H1270 0.930 . S
N1265 Li1241 1.990 . S
N1265 C1264 1.314 . S
N1265 C1268 1.279 . S
C1266 C1264 1.353 . S
C1266 C1269 1.348 . S
C1266 H1314 0.929 . S
C1267 C1268 1.358 . S
C1267 C1269 1.356 . S
C1267 H1315 0.930 . S
C1268 N1265 1.279 . S
C1268 C1267 1.358 . S
C1268 H1271 0.930 . S
C1269 C1266 1.348 . S
C1269 C1267 1.356 . S
H1270 C1264 0.930 . S
H1271 C1268 0.930 . S
C1272 C1274 1.348 1_565 S
C1272 C1275 1.356 . S
C1272 O1302 1.325 . S
N1273 C1276 1.314 1_565 S
N1273 C1277 1.279 . S
C1274 C1272 1.348 1_545 S
C1274 C1276 1.353 . S
C1274 H1316 0.929 . S
C1275 C1272 1.356 . S
C1275 C1277 1.358 . S
C1275 H1317 0.930 . S
C1276 N1273 1.314 1_545 S
C1276 C1274 1.353 . S
C1276 H1318 0.930 . S
C1277 N1273 1.279 . S
C1277 C1275 1.358 . S
C1277 H1319 0.930 . S
C1278 C1279 1.348 . S
C1278 C1280 1.356 . S
C1278 O1303 1.325 . S
C1279 C1278 1.348 . S
C1279 C1281 1.353 . S
C1279 H1320 0.929 . S
C1280 C1278 1.356 . S
C1280 C1282 1.358 . S
C1280 H1321 0.930 . S
C1281 C1279 1.353 . S
C1281 N1283 1.314 . S
C1281 H1322 0.930 . S
C1282 C1280 1.358 . S
C1282 N1283 1.279 . S
C1282 H1323 0.930 . S
N1283 C1281 1.314 . S
N1283 C1282 1.279 . S
C1284 C1286 1.353 . S
C1284 N1287 1.314 . S
C1284 H1290 0.930 . S
C1285 N1287 1.279 . S
C1285 C1288 1.358 . S
C1285 H1291 0.930 . S
C1286 C1284 1.353 . S
C1286 C1289 1.348 . S
C1286 H1324 0.929 . S
N1287 Li1242 1.990 . S
N1287 C1284 1.314 . S
N1287 C1285 1.279 . S
C1288 C1285 1.358 . S
C1288 C1289 1.356 . S
C1288 H1325 0.930 . S
C1289 C1286 1.348 . S
C1289 C1288 1.356 . S
H1290 C1284 0.930 . S
H1291 C1285 0.930 . S
C1292 N1293 1.314 . S
C1292 C1294 1.353 . S
C1292 H1298 0.930 . S
N1293 Li1243 1.990 . S
N1293 C1292 1.314 . S
N1293 C1296 1.279 . S
C1294 C1292 1.353 . S
C1294 C1297 1.348 . S
C1294 H1326 0.929 . S
C1295 C1296 1.358 . S
C1295 C1297 1.356 . S
C1295 H1327 0.930 . S
C1296 N1293 1.279 . S
C1296 C1295 1.358 . S
C1296 H1299 0.930 . S
C1297 C1294 1.348 . S
C1297 C1295 1.356 . S
H1298 C1292 0.930 . S
H1299 C1296 0.930 . S
O1300 Li1240 1.956 . S
O1300 Li1241 1.970 1_565 S
O1300 Li1242 1.961 . S
O1300 C1244 1.325 . S
O1301 Li1240 1.970 1_545 S
O1301 Li1241 1.956 . S
O1301 Li1243 1.961 . S
O1301 C1250 1.325 . S
O1302 Li1240 1.961 . S
O1302 Li1242 1.956 . S
O1302 Li1243 1.970 1_565 S
O1302 C1272 1.325 . S
O1303 Li1241 1.961 . S
O1303 Li1242 1.970 1_545 S
O1303 Li1243 1.956 . S
O1303 C1278 1.325 . S
H1304 C1246 0.929 . S
H1305 C1247 0.930 . S
H1306 C1248 0.930 . S
H1307 C1249 0.930 . S
H1308 C1251 0.930 . S
H1309 C1253 0.929 . S
H1310 C1254 0.930 . S
H1311 C1255 0.930 . S
H1312 C1258 0.930 . S
H1313 C1261 0.929 . S
H1314 C1266 0.929 . S
H1315 C1267 0.930 . S
H1316 C1274 0.929 . S
H1317 C1275 0.930 . S
H1318 C1276 0.930 . S
H1319 C1277 0.930 . S
H1320 C1279 0.929 . S
H1321 C1280 0.930 . S
H1322 C1281 0.930 . S
H1323 C1282 0.930 . S
H1324 C1286 0.929 . S
H1325 C1288 0.930 . S
H1326 C1294 0.929 . S
H1327 C1295 0.930 . S
Li1328 N1345 1.990 . S
Li1328 O1388 1.956 . S
Li1328 O1389 1.970 1_455 S
Li1328 O1390 1.961 . S
Li1329 N1353 1.990 . S
Li1329 O1388 1.970 1_655 S
Li1329 O1389 1.956 . S
Li1329 O1391 1.961 . S
Li1330 N1375 1.990 . S
Li1330 O1388 1.961 . S
Li1330 O1390 1.956 . S
Li1330 O1391 1.970 1_455 S
Li1331 N1381 1.990 . S
Li1331 O1389 1.961 . S
Li1331 O1390 1.970 1_655 S
Li1331 O1391 1.956 . S
C1332 C1334 1.348 . S
C1332 C1335 1.356 . S
C1332 O1388 1.325 . S
N1333 C1336 1.314 . S
N1333 C1337 1.279 . S
C1334 C1332 1.348 . S
C1334 C1336 1.353 . S
C1334 H1392 0.929 . S
C1335 C1332 1.356 . S
C1335 C1337 1.358 . S
C1335 H1393 0.930 . S
C1336 N1333 1.314 . S
C1336 C1334 1.353 . S
C1336 H1394 0.930 . S
C1337 N1333 1.279 . S
C1337 C1335 1.358 . S
C1337 H1395 0.930 . S
C1338 C1341 1.348 1_655 S
C1338 C1342 1.356 . S
C1338 O1389 1.325 . S
C1339 N1340 1.279 . S
C1339 C1342 1.358 . S
C1339 H1396 0.930 . S
N1340 C1339 1.279 . S
N1340 C1343 1.314 1_655 S
C1341 C1338 1.348 1_455 S
C1341 C1343 1.353 . S
C1341 H1397 0.929 . S
C1342 C1338 1.356 . S
C1342 C1339 1.358 . S
C1342 H1398 0.930 . S
C1343 N1340 1.314 1_455 S
C1343 C1341 1.353 . S
C1343 H1399 0.930 . S
C1344 N1345 1.314 . S
C1344 C1349 1.353 . S
C1344 H1350 0.930 . S
N1345 Li1328 1.990 . S
N1345 C1344 1.314 . S
N1345 C1347 1.279 . S
C1346 C1347 1.358 . S
C1346 C1348 1.356 . S
C1346 H1400 0.930 . S
C1347 N1345 1.279 . S
C1347 C1346 1.358 . S
C1347 H1351 0.930 . S
C1348 C1346 1.356 . S
C1348 C1349 1.348 . S
C1349 C1344 1.353 . S
C1349 C1348 1.348 . S
C1349 H1401 0.929 . S
H1350 C1344 0.930 . S
H1351 C1347 0.930 . S
C1352 N1353 1.314 . S
C1352 C1354 1.353 . S
C1352 H1358 0.930 . S
N1353 Li1329 1.990 . S
N1353 C1352 1.314 . S
N1353 C1356 1.279 . S
C1354 C1352 1.353 . S
C1354 C1357 1.348 . S
C1354 H1402 0.929 . S
C1355 C1356 1.358 . S
C1355 C1357 1.356 . S
C1355 H1403 0.930 . S
C1356 N1353 1.279 . S
C1356 C1355 1.358 . S
C1356 H1359 0.930 . S
C1357 C1354 1.348 . S
C1357 C1355 1.356 . S
H1358 C1352 0.930 . S
H1359 C1356 0.930 . S
C1360 C1362 1.348 1_455 S
C1360 C1363 1.356 . S
C1360 O1390 1.325 . S
N1361 C1364 1.314 1_455 S
N1361 C1365 1.279 . S
C1362 C1360 1.348 1_655 S
C1362 C1364 1.353 . S
C1362 H1404 0.929 . S
C1363 C1360 1.356 . S
C1363 C1365 1.358 . S
C1363 H1405 0.930 . S
C1364 N1361 1.314 1_655 S
C1364 C1362 1.353 . S
C1364 H1406 0.930 . S
C1365 N1361 1.279 . S
C1365 C1363 1.358 . S
C1365 H1407 0.930 . S
C1366 C1367 1.348 . S
C1366 C1368 1.356 . S
C1366 O1391 1.325 . S
C1367 C1366 1.348 . S
C1367 C1369 1.353 . S
C1367 H1408 0.929 . S
C1368 C1366 1.356 . S
C1368 C1370 1.358 . S
C1368 H1409 0.930 . S
C1369 C1367 1.353 . S
C1369 N1371 1.314 . S
C1369 H1410 0.930 . S
C1370 C1368 1.358 . S
C1370 N1371 1.279 . S
C1370 H1411 0.930 . S
N1371 C1369 1.314 . S
N1371 C1370 1.279 . S
C1372 C1374 1.353 . S
C1372 N1375 1.314 . S
C1372 H1378 0.930 . S
C1373 N1375 1.279 . S
C1373 C1376 1.358 . S
C1373 H1379 0.930 . S
C1374 C1372 1.353 . S
C1374 C1377 1.348 . S
C1374 H1412 0.929 . S
N1375 Li1330 1.990 . S
N1375 C1372 1.314 . S
N1375 C1373 1.279 . S
C1376 C1373 1.358 . S
C1376 C1377 1.356 . S
C1376 H1413 0.930 . S
C1377 C1374 1.348 . S
C1377 C1376 1.356 . S
H1378 C1372 0.930 . S
H1379 C1373 0.930 . S
C1380 N1381 1.314 . S
C1380 C1382 1.353 . S
C1380 H1386 0.930 . S
N1381 Li1331 1.990 . S
N1381 C1380 1.314 . S
N1381 C1384 1.279 . S
C1382 C1380 1.353 . S
C1382 C1385 1.348 . S
C1382 H1414 0.929 . S
C1383 C1384 1.358 . S
C1383 C1385 1.356 . S
C1383 H1415 0.930 . S
C1384 N1381 1.279 . S
C1384 C1383 1.358 . S
C1384 H1387 0.930 . S
C1385 C1382 1.348 . S
C1385 C1383 1.356 . S
H1386 C1380 0.930 . S
H1387 C1384 0.930 . S
O1388 Li1328 1.956 . S
O1388 Li1329 1.970 1_455 S
O1388 Li1330 1.961 . S
O1388 C1332 1.325 . S
O1389 Li1328 1.970 1_655 S
O1389 Li1329 1.956 . S
O1389 Li1331 1.961 . S
O1389 C1338 1.325 . S
O1390 Li1328 1.961 . S
O1390 Li1330 1.956 . S
O1390 Li1331 1.970 1_455 S
O1390 C1360 1.325 . S
O1391 Li1329 1.961 . S
O1391 Li1330 1.970 1_655 S
O1391 Li1331 1.956 . S
O1391 C1366 1.325 . S
H1392 C1334 0.929 . S
H1393 C1335 0.930 . S
H1394 C1336 0.930 . S
H1395 C1337 0.930 . S
H1396 C1339 0.930 . S
H1397 C1341 0.929 . S
H1398 C1342 0.930 . S
H1399 C1343 0.930 . S
H1400 C1346 0.930 . S
H1401 C1349 0.929 . S
H1402 C1354 0.929 . S
H1403 C1355 0.930 . S
H1404 C1362 0.929 . S
H1405 C1363 0.930 . S
H1406 C1364 0.930 . S
H1407 C1365 0.930 . S
H1408 C1367 0.929 . S
H1409 C1368 0.930 . S
H1410 C1369 0.930 . S
H1411 C1370 0.930 . S
H1412 C1374 0.929 . S
H1413 C1376 0.930 . S
H1414 C1382 0.929 . S
H1415 C1383 0.930 . S
Li1416 N1433 1.990 . S
Li1416 O1476 1.956 . S
Li1416 O1477 1.970 . S
Li1416 O1478 1.961 . S
Li1417 N1441 1.990 . S
Li1417 O1476 1.970 . S
Li1417 O1477 1.956 . S
Li1417 O1479 1.961 . S
Li1418 N1463 1.990 . S
Li1418 O1476 1.961 . S
Li1418 O1478 1.956 . S
Li1418 O1479 1.970 . S
Li1419 N1469 1.990 . S
Li1419 O1477 1.961 . S
Li1419 O1478 1.970 . S
Li1419 O1479 1.956 . S
C1420 C1422 1.348 . S
C1420 C1423 1.356 . S
C1420 O1476 1.325 . S
N1421 C1424 1.314 . S
N1421 C1425 1.279 . S
C1422 C1420 1.348 . S
C1422 C1424 1.353 . S
C1422 H1480 0.929 . S
C1423 C1420 1.356 . S
C1423 C1425 1.358 . S
C1423 H1481 0.930 . S
C1424 N1421 1.314 . S
C1424 C1422 1.353 . S
C1424 H1482 0.930 . S
C1425 N1421 1.279 . S
C1425 C1423 1.358 . S
C1425 H1483 0.930 . S
C1426 C1429 1.348 . S
C1426 C1430 1.356 . S
C1426 O1477 1.325 . S
C1427 N1428 1.279 . S
C1427 C1430 1.358 . S
C1427 H1484 0.930 . S
N1428 C1427 1.279 . S
N1428 C1431 1.314 . S
C1429 C1426 1.348 . S
C1429 C1431 1.353 . S
C1429 H1485 0.929 . S
C1430 C1426 1.356 . S
C1430 C1427 1.358 . S
C1430 H1486 0.930 . S
C1431 N1428 1.314 . S
C1431 C1429 1.353 . S
C1431 H1487 0.930 . S
C1432 N1433 1.314 . S
C1432 C1437 1.353 . S
C1432 H1438 0.930 . S
N1433 Li1416 1.990 . S
N1433 C1432 1.314 . S
N1433 C1435 1.279 . S
C1434 C1435 1.358 . S
C1434 C1436 1.356 . S
C1434 H1488 0.930 . S
C1435 N1433 1.279 . S
C1435 C1434 1.358 . S
C1435 H1439 0.930 . S
C1436 C1434 1.356 . S
C1436 C1437 1.348 . S
C1437 C1432 1.353 . S
C1437 C1436 1.348 . S
C1437 H1489 0.929 . S
H1438 C1432 0.930 . S
H1439 C1435 0.930 . S
C1440 N1441 1.314 . S
C1440 C1442 1.353 . S
C1440 H1446 0.930 . S
N1441 Li1417 1.990 . S
N1441 C1440 1.314 . S
N1441 C1444 1.279 . S
C1442 C1440 1.353 . S
C1442 C1445 1.348 . S
C1442 H1490 0.929 . S
C1443 C1444 1.358 . S
C1443 C1445 1.356 . S
C1443 H1491 0.930 . S
C1444 N1441 1.279 . S
C1444 C1443 1.358 . S
C1444 H1447 0.930 . S
C1445 C1442 1.348 . S
C1445 C1443 1.356 . S
H1446 C1440 0.930 . S
H1447 C1444 0.930 . S
C1448 C1450 1.348 . S
C1448 C1451 1.356 . S
C1448 O1478 1.325 . S
N1449 C1452 1.314 . S
N1449 C1453 1.279 . S
C1450 C1448 1.348 . S
C1450 C1452 1.353 . S
C1450 H1492 0.929 . S
C1451 C1448 1.356 . S
C1451 C1453 1.358 . S
C1451 H1493 0.930 . S
C1452 N1449 1.314 . S
C1452 C1450 1.353 . S
C1452 H1494 0.930 . S
C1453 N1449 1.279 . S
C1453 C1451 1.358 . S
C1453 H1495 0.930 . S
C1454 C1455 1.348 . S
C1454 C1456 1.356 . S
C1454 O1479 1.325 . S
C1455 C1454 1.348 . S
C1455 C1457 1.353 . S
C1455 H1496 0.929 . S
C1456 C1454 1.356 . S
C1456 C1458 1.358 . S
C1456 H1497 0.930 . S
C1457 C1455 1.353 . S
C1457 N1459 1.314 . S
C1457 H1498 0.930 . S
C1458 C1456 1.358 . S
C1458 N1459 1.279 . S
C1458 H1499 0.930 . S
N1459 C1457 1.314 . S
N1459 C1458 1.279 . S
C1460 C1462 1.353 . S
C1460 N1463 1.314 . S
C1460 H1466 0.930 . S
C1461 N1463 1.279 . S
C1461 C1464 1.358 . S
C1461 H1467 0.930 . S
C1462 C1460 1.353 . S
C1462 C1465 1.348 . S
C1462 H1500 0.929 . S
N1463 Li1418 1.990 . S
N1463 C1460 1.314 . S
N1463 C1461 1.279 . S
C1464 C1461 1.358 . S
C1464 C1465 1.356 . S
C1464 H1501 0.930 . S
C1465 C1462 1.348 . S
C1465 C1464 1.356 . S
H1466 C1460 0.930 . S
H1467 C1461 0.930 . S
C1468 N1469 1.314 . S
C1468 C1470 1.353 . S
C1468 H1474 0.930 . S
N1469 Li1419 1.990 . S
N1469 C1468 1.314 . S
N1469 C1472 1.279 . S
C1470 C1468 1.353 . S
C1470 C1473 1.348 . S
C1470 H1502 0.929 . S
C1471 C1472 1.358 . S
C1471 C1473 1.356 . S
C1471 H1503 0.930 . S
C1472 N1469 1.279 . S
C1472 C1471 1.358 . S
C1472 H1475 0.930 . S
C1473 C1470 1.348 . S
C1473 C1471 1.356 . S
H1474 C1468 0.930 . S
H1475 C1472 0.930 . S
O1476 Li1416 1.956 . S
O1476 Li1417 1.970 . S
O1476 Li1418 1.961 . S
O1476 C1420 1.325 . S
O1477 Li1416 1.970 . S
O1477 Li1417 1.956 . S
O1477 Li1419 1.961 . S
O1477 C1426 1.325 . S
O1478 Li1416 1.961 . S
O1478 Li1418 1.956 . S
O1478 Li1419 1.970 . S
O1478 C1448 1.325 . S
O1479 Li1417 1.961 . S
O1479 Li1418 1.970 . S
O1479 Li1419 1.956 . S
O1479 C1454 1.325 . S
H1480 C1422 0.929 . S
H1481 C1423 0.930 . S
H1482 C1424 0.930 . S
H1483 C1425 0.930 . S
H1484 C1427 0.930 . S
H1485 C1429 0.929 . S
H1486 C1430 0.930 . S
H1487 C1431 0.930 . S
H1488 C1434 0.930 . S
H1489 C1437 0.929 . S
H1490 C1442 0.929 . S
H1491 C1443 0.930 . S
H1492 C1450 0.929 . S
H1493 C1451 0.930 . S
H1494 C1452 0.930 . S
H1495 C1453 0.930 . S
H1496 C1455 0.929 . S
H1497 C1456 0.930 . S
H1498 C1457 0.930 . S
H1499 C1458 0.930 . S
H1500 C1462 0.929 . S
H1501 C1464 0.930 . S
H1502 C1470 0.929 . S
H1503 C1471 0.930 . S
Li1504 N1521 1.990 . S
Li1504 O1564 1.956 . S
Li1504 O1565 1.970 1_455 S
Li1504 O1566 1.961 . S
Li1505 N1529 1.990 . S
Li1505 O1564 1.970 1_655 S
Li1505 O1565 1.956 . S
Li1505 O1567 1.961 . S
Li1506 N1551 1.990 . S
Li1506 O1564 1.961 . S
Li1506 O1566 1.956 . S
Li1506 O1567 1.970 1_455 S
Li1507 N1557 1.990 . S
Li1507 O1565 1.961 . S
Li1507 O1566 1.970 1_655 S
Li1507 O1567 1.956 . S
C1508 C1510 1.348 1_455 S
C1508 C1511 1.356 . S
C1508 O1564 1.325 . S
N1509 C1512 1.314 1_455 S
N1509 C1513 1.279 . S
C1510 C1508 1.348 1_655 S
C1510 C1512 1.353 . S
C1510 H1568 0.929 . S
C1511 C1508 1.356 . S
C1511 C1513 1.358 . S
C1511 H1569 0.930 . S
C1512 N1509 1.314 1_655 S
C1512 C1510 1.353 . S
C1512 H1570 0.930 . S
C1513 N1509 1.279 . S
C1513 C1511 1.358 . S
C1513 H1571 0.930 . S
C1514 C1517 1.348 . S
C1514 C1518 1.356 . S
C1514 O1565 1.325 . S
C1515 N1516 1.279 . S
C1515 C1518 1.358 . S
C1515 H1572 0.930 . S
N1516 C1515 1.279 . S
N1516 C1519 1.314 . S
C1517 C1514 1.348 . S
C1517 C1519 1.353 . S
C1517 H1573 0.929 . S
C1518 C1514 1.356 . S
C1518 C1515 1.358 . S
C1518 H1574 0.930 . S
C1519 N1516 1.314 . S
C1519 C1517 1.353 . S
C1519 H1575 0.930 . S
C1520 N1521 1.314 . S
C1520 C1525 1.353 . S
C1520 H1526 0.930 . S
N1521 Li1504 1.990 . S
N1521 C1520 1.314 . S
N1521 C1523 1.279 . S
C1522 C1523 1.358 . S
C1522 C1524 1.356 . S
C1522 H1576 0.930 . S
C1523 N1521 1.279 . S
C1523 C1522 1.358 . S
C1523 H1527 0.930 . S
C1524 C1522 1.356 . S
C1524 C1525 1.348 . S
C1525 C1520 1.353 . S
C1525 C1524 1.348 . S
C1525 H1577 0.929 . S
H1526 C1520 0.930 . S
H1527 C1523 0.930 . S
C1528 N1529 1.314 . S
C1528 C1530 1.353 . S
C1528 H1534 0.930 . S
N1529 Li1505 1.990 . S
N1529 C1528 1.314 . S
N1529 C1532 1.279 . S
C1530 C1528 1.353 . S
C1530 C1533 1.348 . S
C1530 H1578 0.929 . S
C1531 C1532 1.358 . S
C1531 C1533 1.356 . S
C1531 H1579 0.930 . S
C1532 N1529 1.279 . S
C1532 C1531 1.358 . S
C1532 H1535 0.930 . S
C1533 C1530 1.348 . S
C1533 C1531 1.356 . S
H1534 C1528 0.930 . S
H1535 C1532 0.930 . S
C1536 C1538 1.348 . S
C1536 C1539 1.356 . S
C1536 O1566 1.325 . S
N1537 C1540 1.314 . S
N1537 C1541 1.279 . S
C1538 C1536 1.348 . S
C1538 C1540 1.353 . S
C1538 H1580 0.929 . S
C1539 C1536 1.356 . S
C1539 C1541 1.358 . S
C1539 H1581 0.930 . S
C1540 N1537 1.314 . S
C1540 C1538 1.353 . S
C1540 H1582 0.930 . S
C1541 N1537 1.279 . S
C1541 C1539 1.358 . S
C1541 H1583 0.930 . S
C1542 C1543 1.348 1_655 S
C1542 C1544 1.356 . S
C1542 O1567 1.325 . S
C1543 C1542 1.348 1_455 S
C1543 C1545 1.353 . S
C1543 H1584 0.929 . S
C1544 C1542 1.356 . S
C1544 C1546 1.358 . S
C1544 H1585 0.930 . S
C1545 C1543 1.353 . S
C1545 N1547 1.314 1_455 S
C1545 H1586 0.930 . S
C1546 C1544 1.358 . S
C1546 N1547 1.279 . S
C1546 H1587 0.930 . S
N1547 C1545 1.314 1_655 S
N1547 C1546 1.279 . S
C1548 C1550 1.353 . S
C1548 N1551 1.314 . S
C1548 H1554 0.930 . S
C1549 N1551 1.279 . S
C1549 C1552 1.358 . S
C1549 H1555 0.930 . S
C1550 C1548 1.353 . S
C1550 C1553 1.348 . S
C1550 H1588 0.929 . S
N1551 Li1506 1.990 . S
N1551 C1548 1.314 . S
N1551 C1549 1.279 . S
C1552 C1549 1.358 . S
C1552 C1553 1.356 . S
C1552 H1589 0.930 . S
C1553 C1550 1.348 . S
C1553 C1552 1.356 . S
H1554 C1548 0.930 . S
H1555 C1549 0.930 . S
C1556 N1557 1.314 . S
C1556 C1558 1.353 . S
C1556 H1562 0.930 . S
N1557 Li1507 1.990 . S
N1557 C1556 1.314 . S
N1557 C1560 1.279 . S
C1558 C1556 1.353 . S
C1558 C1561 1.348 . S
C1558 H1590 0.929 . S
C1559 C1560 1.358 . S
C1559 C1561 1.356 . S
C1559 H1591 0.930 . S
C1560 N1557 1.279 . S
C1560 C1559 1.358 . S
C1560 H1563 0.930 . S
C1561 C1558 1.348 . S
C1561 C1559 1.356 . S
H1562 C1556 0.930 . S
H1563 C1560 0.930 . S
O1564 Li1504 1.956 . S
O1564 Li1505 1.970 1_455 S
O1564 Li1506 1.961 . S
O1564 C1508 1.325 . S
O1565 Li1504 1.970 1_655 S
O1565 Li1505 1.956 . S
O1565 Li1507 1.961 . S
O1565 C1514 1.325 . S
O1566 Li1504 1.961 . S
O1566 Li1506 1.956 . S
O1566 Li1507 1.970 1_455 S
O1566 C1536 1.325 . S
O1567 Li1505 1.961 . S
O1567 Li1506 1.970 1_655 S
O1567 Li1507 1.956 . S
O1567 C1542 1.325 . S
H1568 C1510 0.929 . S
H1569 C1511 0.930 . S
H1570 C1512 0.930 . S
H1571 C1513 0.930 . S
H1572 C1515 0.930 . S
H1573 C1517 0.929 . S
H1574 C1518 0.930 . S
H1575 C1519 0.930 . S
H1576 C1522 0.930 . S
H1577 C1525 0.929 . S
H1578 C1530 0.929 . S
H1579 C1531 0.930 . S
H1580 C1538 0.929 . S
H1581 C1539 0.930 . S
H1582 C1540 0.930 . S
H1583 C1541 0.930 . S
H1584 C1543 0.929 . S
H1585 C1544 0.930 . S
H1586 C1545 0.930 . S
H1587 C1546 0.930 . S
H1588 C1550 0.929 . S
H1589 C1552 0.930 . S
H1590 C1558 0.929 . S
H1591 C1559 0.930 . S
Li1592 N1609 1.990 . S
Li1592 O1652 1.956 . S
Li1592 O1653 1.970 . S
Li1592 O1654 1.961 . S
Li1593 N1617 1.990 . S
Li1593 O1652 1.970 . S
Li1593 O1653 1.956 . S
Li1593 O1655 1.961 . S
Li1594 N1639 1.990 . S
Li1594 O1652 1.961 . S
Li1594 O1654 1.956 . S
Li1594 O1655 1.970 . S
Li1595 N1645 1.990 . S
Li1595 O1653 1.961 . S
Li1595 O1654 1.970 . S
Li1595 O1655 1.956 . S
C1596 C1598 1.348 . S
C1596 C1599 1.356 . S
C1596 O1652 1.325 . S
N1597 C1600 1.314 . S
N1597 C1601 1.279 . S
C1598 C1596 1.348 . S
C1598 C1600 1.353 . S
C1598 H1656 0.929 . S
C1599 C1596 1.356 . S
C1599 C1601 1.358 . S
C1599 H1657 0.930 . S
C1600 N1597 1.314 . S
C1600 C1598 1.353 . S
C1600 H1658 0.930 . S
C1601 N1597 1.279 . S
C1601 C1599 1.358 . S
C1601 H1659 0.930 . S
C1602 C1605 1.348 . S
C1602 C1606 1.356 . S
C1602 O1653 1.325 . S
C1603 N1604 1.279 . S
C1603 C1606 1.358 . S
C1603 H1660 0.930 . S
N1604 C1603 1.279 . S
N1604 C1607 1.314 . S
C1605 C1602 1.348 . S
C1605 C1607 1.353 . S
C1605 H1661 0.929 . S
C1606 C1602 1.356 . S
C1606 C1603 1.358 . S
C1606 H1662 0.930 . S
C1607 N1604 1.314 . S
C1607 C1605 1.353 . S
C1607 H1663 0.930 . S
C1608 N1609 1.314 . S
C1608 C1613 1.353 . S
C1608 H1614 0.930 . S
N1609 Li1592 1.990 . S
N1609 C1608 1.314 . S
N1609 C1611 1.279 . S
C1610 C1611 1.358 . S
C1610 C1612 1.356 . S
C1610 H1664 0.930 . S
C1611 N1609 1.279 . S
C1611 C1610 1.358 . S
C1611 H1615 0.930 . S
C1612 C1610 1.356 . S
C1612 C1613 1.348 . S
C1613 C1608 1.353 . S
C1613 C1612 1.348 . S
C1613 H1665 0.929 . S
H1614 C1608 0.930 . S
H1615 C1611 0.930 . S
C1616 N1617 1.314 . S
C1616 C1618 1.353 . S
C1616 H1622 0.930 . S
N1617 Li1593 1.990 . S
N1617 C1616 1.314 . S
N1617 C1620 1.279 . S
C1618 C1616 1.353 . S
C1618 C1621 1.348 . S
C1618 H1666 0.929 . S
C1619 C1620 1.358 . S
C1619 C1621 1.356 . S
C1619 H1667 0.930 . S
C1620 N1617 1.279 . S
C1620 C1619 1.358 . S
C1620 H1623 0.930 . S
C1621 C1618 1.348 . S
C1621 C1619 1.356 . S
H1622 C1616 0.930 . S
H1623 C1620 0.930 . S
C1624 C1626 1.348 . S
C1624 C1627 1.356 . S
C1624 O1654 1.325 . S
N1625 C1628 1.314 . S
N1625 C1629 1.279 . S
C1626 C1624 1.348 . S
C1626 C1628 1.353 . S
C1626 H1668 0.929 . S
C1627 C1624 1.356 . S
C1627 C1629 1.358 . S
C1627 H1669 0.930 . S
C1628 N1625 1.314 . S
C1628 C1626 1.353 . S
C1628 H1670 0.930 . S
C1629 N1625 1.279 . S
C1629 C1627 1.358 . S
C1629 H1671 0.930 . S
C1630 C1631 1.348 . S
C1630 C1632 1.356 . S
C1630 O1655 1.325 . S
C1631 C1630 1.348 . S
C1631 C1633 1.353 . S
C1631 H1672 0.929 . S
C1632 C1630 1.356 . S
C1632 C1634 1.358 . S
C1632 H1673 0.930 . S
C1633 C1631 1.353 . S
C1633 N1635 1.314 . S
C1633 H1674 0.930 . S
C1634 C1632 1.358 . S
C1634 N1635 1.279 . S
C1634 H1675 0.930 . S
N1635 C1633 1.314 . S
N1635 C1634 1.279 . S
C1636 C1638 1.353 . S
C1636 N1639 1.314 . S
C1636 H1642 0.930 . S
C1637 N1639 1.279 . S
C1637 C1640 1.358 . S
C1637 H1643 0.930 . S
C1638 C1636 1.353 . S
C1638 C1641 1.348 . S
C1638 H1676 0.929 . S
N1639 Li1594 1.990 . S
N1639 C1636 1.314 . S
N1639 C1637 1.279 . S
C1640 C1637 1.358 . S
C1640 C1641 1.356 . S
C1640 H1677 0.930 . S
C1641 C1638 1.348 . S
C1641 C1640 1.356 . S
H1642 C1636 0.930 . S
H1643 C1637 0.930 . S
C1644 N1645 1.314 . S
C1644 C1646 1.353 . S
C1644 H1650 0.930 . S
N1645 Li1595 1.990 . S
N1645 C1644 1.314 . S
N1645 C1648 1.279 . S
C1646 C1644 1.353 . S
C1646 C1649 1.348 . S
C1646 H1678 0.929 . S
C1647 C1648 1.358 . S
C1647 C1649 1.356 . S
C1647 H1679 0.930 . S
C1648 N1645 1.279 . S
C1648 C1647 1.358 . S
C1648 H1651 0.930 . S
C1649 C1646 1.348 . S
C1649 C1647 1.356 . S
H1650 C1644 0.930 . S
H1651 C1648 0.930 . S
O1652 Li1592 1.956 . S
O1652 Li1593 1.970 . S
O1652 Li1594 1.961 . S
O1652 C1596 1.325 . S
O1653 Li1592 1.970 . S
O1653 Li1593 1.956 . S
O1653 Li1595 1.961 . S
O1653 C1602 1.325 . S
O1654 Li1592 1.961 . S
O1654 Li1594 1.956 . S
O1654 Li1595 1.970 . S
O1654 C1624 1.325 . S
O1655 Li1593 1.961 . S
O1655 Li1594 1.970 . S
O1655 Li1595 1.956 . S
O1655 C1630 1.325 . S
H1656 C1598 0.929 . S
H1657 C1599 0.930 . S
H1658 C1600 0.930 . S
H1659 C1601 0.930 . S
H1660 C1603 0.930 . S
H1661 C1605 0.929 . S
H1662 C1606 0.930 . S
H1663 C1607 0.930 . S
H1664 C1610 0.930 . S
H1665 C1613 0.929 . S
H1666 C1618 0.929 . S
H1667 C1619 0.930 . S
H1668 C1626 0.929 . S
H1669 C1627 0.930 . S
H1670 C1628 0.930 . S
H1671 C1629 0.930 . S
H1672 C1631 0.929 . S
H1673 C1632 0.930 . S
H1674 C1633 0.930 . S
H1675 C1634 0.930 . S
H1676 C1638 0.929 . S
H1677 C1640 0.930 . S
H1678 C1646 0.929 . S
H1679 C1647 0.930 . S
C1680 C1681 1.387 . S
C1680 H1684 0.950 . S
C1680 C1689 1.390 . S
C1681 C1680 1.387 . S
C1681 C1683 1.387 . S
H1682 C1689 0.950 . S
C1683 C1681 1.387 . S
C1683 C1685 1.390 . S
C1683 H1687 0.950 . S
H1684 C1680 0.950 . S
C1685 C1683 1.390 . S
C1685 C1686 1.387 . S
C1685 H1688 0.950 . S
C1686 C1685 1.387 . S
C1686 C1689 1.387 . S
H1687 C1683 0.950 . S
H1688 C1685 0.950 . S
C1689 C1680 1.390 . S
C1689 H1682 0.950 . S
C1689 C1686 1.387 . S
C1690 C1691 1.387 . S
C1690 H1694 0.950 . S
C1690 C1699 1.390 . S
C1691 C1690 1.387 . S
C1691 C1693 1.387 . S
H1692 C1699 0.950 . S
C1693 C1691 1.387 . S
C1693 C1695 1.390 . S
C1693 H1697 0.950 . S
H1694 C1690 0.950 . S
C1695 C1693 1.390 . S
C1695 C1696 1.387 . S
C1695 H1698 0.950 . S
C1696 C1695 1.387 . S
C1696 C1699 1.387 . S
H1697 C1693 0.950 . S
H1698 C1695 0.950 . S
C1699 C1690 1.390 . S
C1699 H1692 0.950 . S
C1699 C1696 1.387 . S
C1700 C1701 1.387 . S
C1700 H1704 0.950 . S
C1700 C1709 1.390 . S
C1701 C1700 1.387 . S
C1701 C1703 1.387 . S
H1702 C1709 0.950 . S
C1703 C1701 1.387 . S
C1703 C1705 1.390 . S
C1703 H1707 0.950 . S
H1704 C1700 0.950 . S
C1705 C1703 1.390 . S
C1705 C1706 1.387 . S
C1705 H1708 0.950 . S
C1706 C1705 1.387 . S
C1706 C1709 1.387 . S
H1707 C1703 0.950 . S
H1708 C1705 0.950 . S
C1709 C1700 1.390 . S
C1709 H1702 0.950 . S
C1709 C1706 1.387 . S
C1710 C1711 1.387 . S
C1710 H1714 0.950 . S
C1710 C1719 1.390 . S
C1711 C1710 1.387 . S
C1711 C1713 1.387 1_565 S
H1712 C1719 0.950 . S
C1713 C1711 1.387 1_545 S
C1713 C1715 1.390 . S
C1713 H1717 0.950 . S
H1714 C1710 0.950 . S
C1715 C1713 1.390 . S
C1715 C1716 1.387 1_545 S
C1715 H1718 0.950 . S
C1716 C1715 1.387 1_565 S
C1716 C1719 1.387 . S
H1717 C1713 0.950 . S
H1718 C1715 0.950 . S
C1719 C1710 1.390 . S
C1719 H1712 0.950 . S
C1719 C1716 1.387 . S
C1720 C1721 1.387 . S
C1720 H1724 0.950 . S
C1720 C1729 1.390 . S
C1721 C1720 1.387 . S
C1721 C1723 1.387 . S
H1722 C1729 0.950 . S
C1723 C1721 1.387 . S
C1723 C1725 1.390 . S
C1723 H1727 0.950 . S
H1724 C1720 0.950 . S
C1725 C1723 1.390 . S
C1725 C1726 1.387 . S
C1725 H1728 0.950 . S
C1726 C1725 1.387 . S
C1726 C1729 1.387 . S
H1727 C1723 0.950 . S
H1728 C1725 0.950 . S
C1729 C1720 1.390 . S
C1729 H1722 0.950 . S
C1729 C1726 1.387 . S
C1730 C1731 1.387 . S
C1730 H1734 0.950 . S
C1730 C1739 1.390 . S
C1731 C1730 1.387 . S
C1731 C1733 1.387 . S
H1732 C1739 0.950 . S
C1733 C1731 1.387 . S
C1733 C1735 1.390 . S
C1733 H1737 0.950 . S
H1734 C1730 0.950 . S
C1735 C1733 1.390 . S
C1735 C1736 1.387 . S
C1735 H1738 0.950 . S
C1736 C1735 1.387 . S
C1736 C1739 1.387 . S
H1737 C1733 0.950 . S
H1738 C1735 0.950 . S
C1739 C1730 1.390 . S
C1739 H1732 0.950 . S
C1739 C1736 1.387 . S
C1740 C1741 1.387 . S
C1740 H1744 0.950 . S
C1740 C1749 1.390 . S
C1741 C1740 1.387 . S
C1741 C1743 1.387 . S
H1742 C1749 0.950 . S
C1743 C1741 1.387 . S
C1743 C1745 1.390 . S
C1743 H1747 0.950 . S
H1744 C1740 0.950 . S
C1745 C1743 1.390 . S
C1745 C1746 1.387 . S
C1745 H1748 0.950 . S
C1746 C1745 1.387 . S
C1746 C1749 1.387 . S
H1747 C1743 0.950 . S
H1748 C1745 0.950 . S
C1749 C1740 1.390 . S
C1749 H1742 0.950 . S
C1749 C1746 1.387 . S
C1750 C1751 1.387 . S
C1750 H1754 0.950 . S
C1750 C1759 1.390 . S
C1751 C1750 1.387 . S
C1751 C1753 1.387 1_565 S
H1752 C1759 0.950 . S
C1753 C1751 1.387 1_545 S
C1753 C1755 1.390 . S
C1753 H1757 0.950 . S
H1754 C1750 0.950 . S
C1755 C1753 1.390 . S
C1755 C1756 1.387 1_545 S
C1755 H1758 0.950 . S
C1756 C1755 1.387 1_565 S
C1756 C1759 1.387 . S
H1757 C1753 0.950 . S
H1758 C1755 0.950 . S
C1759 C1750 1.390 . S
C1759 H1752 0.950 . S
C1759 C1756 1.387 . S
C1760 C1761 1.387 . S
C1760 H1764 0.950 . S
C1760 C1769 1.390 . S
C1761 C1760 1.387 . S
C1761 C1763 1.387 . S
H1762 C1769 0.950 . S
C1763 C1761 1.387 . S
C1763 C1765 1.390 . S
C1763 H1767 0.950 . S
H1764 C1760 0.950 . S
C1765 C1763 1.390 . S
C1765 C1766 1.387 . S
C1765 H1768 0.950 . S
C1766 C1765 1.387 . S
C1766 C1769 1.387 . S
H1767 C1763 0.950 . S
H1768 C1765 0.950 . S
C1769 C1760 1.390 . S
C1769 H1762 0.950 . S
C1769 C1766 1.387 . S
C1770 C1771 1.387 . S
C1770 H1774 0.950 . S
C1770 C1779 1.390 . S
C1771 C1770 1.387 . S
C1771 C1773 1.387 . S
H1772 C1779 0.950 . S
C1773 C1771 1.387 . S
C1773 C1775 1.390 . S
C1773 H1777 0.950 . S
H1774 C1770 0.950 . S
C1775 C1773 1.390 . S
C1775 C1776 1.387 . S
C1775 H1778 0.950 . S
C1776 C1775 1.387 . S
C1776 C1779 1.387 . S
H1777 C1773 0.950 . S
H1778 C1775 0.950 . S
C1779 C1770 1.390 . S
C1779 H1772 0.950 . S
C1779 C1776 1.387 . S
C1780 C1781 1.387 . S
C1780 H1784 0.950 . S
C1780 C1789 1.390 . S
C1781 C1780 1.387 . S
C1781 C1783 1.387 . S
H1782 C1789 0.950 . S
C1783 C1781 1.387 . S
C1783 C1785 1.390 . S
C1783 H1787 0.950 . S
H1784 C1780 0.950 . S
C1785 C1783 1.390 . S
C1785 C1786 1.387 . S
C1785 H1788 0.950 . S
C1786 C1785 1.387 . S
C1786 C1789 1.387 . S
H1787 C1783 0.950 . S
H1788 C1785 0.950 . S
C1789 C1780 1.390 . S
C1789 H1782 0.950 . S
C1789 C1786 1.387 . S
C1790 C1791 1.387 . S
C1790 H1794 0.950 . S
C1790 C1799 1.390 . S
C1791 C1790 1.387 . S
C1791 C1793 1.387 . S
H1792 C1799 0.950 . S
C1793 C1791 1.387 . S
C1793 C1795 1.390 . S
C1793 H1797 0.950 . S
H1794 C1790 0.950 . S
C1795 C1793 1.390 . S
C1795 C1796 1.387 . S
C1795 H1798 0.950 . S
C1796 C1795 1.387 . S
C1796 C1799 1.387 . S
H1797 C1793 0.950 . S
H1798 C1795 0.950 . S
C1799 C1790 1.390 . S
C1799 H1792 0.950 . S
C1799 C1796 1.387 . S
C1800 C1801 1.387 . S
C1800 H1804 0.950 . S
C1800 C1809 1.390 . S
C1801 C1800 1.387 . S
C1801 C1803 1.387 . S
H1802 C1809 0.950 . S
C1803 C1801 1.387 . S
C1803 C1805 1.390 . S
C1803 H1807 0.950 . S
H1804 C1800 0.950 . S
C1805 C1803 1.390 . S
C1805 C1806 1.387 . S
C1805 H1808 0.950 . S
C1806 C1805 1.387 . S
C1806 C1809 1.387 . S
H1807 C1803 0.950 . S
H1808 C1805 0.950 . S
C1809 C1800 1.390 . S
C1809 H1802 0.950 . S
C1809 C1806 1.387 . S
C1810 C1811 1.387 . S
C1810 H1814 0.950 . S
C1810 C1819 1.390 . S
C1811 C1810 1.387 . S
C1811 C1813 1.387 1_455 S
H1812 C1819 0.950 . S
C1813 C1811 1.387 1_655 S
C1813 C1815 1.390 . S
C1813 H1817 0.950 . S
H1814 C1810 0.950 . S
C1815 C1813 1.390 . S
C1815 C1816 1.387 1_655 S
C1815 H1818 0.950 . S
C1816 C1815 1.387 1_455 S
C1816 C1819 1.387 . S
H1817 C1813 0.950 . S
H1818 C1815 0.950 . S
C1819 C1810 1.390 . S
C1819 H1812 0.950 . S
C1819 C1816 1.387 . S
C1820 C1821 1.387 . S
C1820 H1824 0.950 . S
C1820 C1829 1.390 . S
C1821 C1820 1.387 . S
C1821 C1823 1.387 . S
H1822 C1829 0.950 . S
C1823 C1821 1.387 . S
C1823 C1825 1.390 . S
C1823 H1827 0.950 . S
H1824 C1820 0.950 . S
C1825 C1823 1.390 . S
C1825 C1826 1.387 . S
C1825 H1828 0.950 . S
C1826 C1825 1.387 . S
C1826 C1829 1.387 . S
H1827 C1823 0.950 . S
H1828 C1825 0.950 . S
C1829 C1820 1.390 . S
C1829 H1822 0.950 . S
C1829 C1826 1.387 . S
C1830 C1831 1.387 1_455 S
C1830 H1834 0.950 . S
C1830 C1839 1.390 . S
C1831 C1830 1.387 1_655 S
C1831 C1833 1.387 . S
H1832 C1839 0.950 . S
C1833 C1831 1.387 . S
C1833 C1835 1.390 . S
C1833 H1837 0.950 . S
H1834 C1830 0.950 . S
C1835 C1833 1.390 . S
C1835 C1836 1.387 . S
C1835 H1838 0.950 . S
C1836 C1835 1.387 . S
C1836 C1839 1.387 1_655 S
H1837 C1833 0.950 . S
H1838 C1835 0.950 . S
C1839 C1830 1.390 . S
C1839 H1832 0.950 . S
C1839 C1836 1.387 1_455 S
C1840 C1841 1.387 . S
C1840 H1844 0.950 . S
C1840 C1849 1.390 . S
C1841 C1840 1.387 . S
C1841 C1843 1.387 . S
H1842 C1849 0.950 . S
C1843 C1841 1.387 . S
C1843 C1845 1.390 . S
C1843 H1847 0.950 . S
H1844 C1840 0.950 . S
C1845 C1843 1.390 . S
C1845 C1846 1.387 . S
C1845 H1848 0.950 . S
C1846 C1845 1.387 . S
C1846 C1849 1.387 . S
H1847 C1843 0.950 . S
H1848 C1845 0.950 . S
C1849 C1840 1.390 . S
C1849 H1842 0.950 . S
C1849 C1846 1.387 . S
C1850 C1851 1.387 . S
C1850 H1854 0.950 . S
C1850 C1859 1.390 . S
C1851 C1850 1.387 . S
C1851 C1853 1.387 . S
H1852 C1859 0.950 . S
C1853 C1851 1.387 . S
C1853 C1855 1.390 . S
C1853 H1857 0.950 . S
H1854 C1850 0.950 . S
C1855 C1853 1.390 . S
C1855 C1856 1.387 . S
C1855 H1858 0.950 . S
C1856 C1855 1.387 . S
C1856 C1859 1.387 . S
H1857 C1853 0.950 . S
H1858 C1855 0.950 . S
C1859 C1850 1.390 . S
C1859 H1852 0.950 . S
C1859 C1856 1.387 . S
C1860 C1861 1.387 1_554 S
C1860 H1864 0.950 . S
C1860 C1869 1.390 . S
C1861 C1860 1.387 1_556 S
C1861 C1863 1.387 . S
H1862 C1869 0.950 . S
C1863 C1861 1.387 . S
C1863 C1865 1.390 . S
C1863 H1867 0.950 . S
H1864 C1860 0.950 . S
C1865 C1863 1.390 . S
C1865 C1866 1.387 . S
C1865 H1868 0.950 . S
C1866 C1865 1.387 . S
C1866 C1869 1.387 1_556 S
H1867 C1863 0.950 . S
H1868 C1865 0.950 . S
C1869 C1860 1.390 . S
C1869 H1862 0.950 . S
C1869 C1866 1.387 1_554 S
C1870 C1871 1.387 . S
C1870 H1874 0.950 . S
C1870 C1879 1.390 . S
C1871 C1870 1.387 . S
C1871 C1873 1.387 . S
H1872 C1879 0.950 . S
C1873 C1871 1.387 . S
C1873 C1875 1.390 . S
C1873 H1877 0.950 . S
H1874 C1870 0.950 . S
C1875 C1873 1.390 . S
C1875 C1876 1.387 . S
C1875 H1878 0.950 . S
C1876 C1875 1.387 . S
C1876 C1879 1.387 . S
H1877 C1873 0.950 . S
H1878 C1875 0.950 . S
C1879 C1870 1.390 . S
C1879 H1872 0.950 . S
C1879 C1876 1.387 . S
C1880 C1881 1.387 . S
C1880 H1884 0.950 . S
C1880 C1889 1.390 . S
C1881 C1880 1.387 . S
C1881 C1883 1.387 . S
H1882 C1889 0.950 . S
C1883 C1881 1.387 . S
C1883 C1885 1.390 . S
C1883 H1887 0.950 . S
H1884 C1880 0.950 . S
C1885 C1883 1.390 . S
C1885 C1886 1.387 . S
C1885 H1888 0.950 . S
C1886 C1885 1.387 . S
C1886 C1889 1.387 . S
H1887 C1883 0.950 . S
H1888 C1885 0.950 . S
C1889 C1880 1.390 . S
C1889 H1882 0.950 . S
C1889 C1886 1.387 . S
C1890 C1891 1.387 . S
C1890 H1894 0.950 . S
C1890 C1899 1.390 . S
C1891 C1890 1.387 . S
C1891 C1893 1.387 . S
H1892 C1899 0.950 . S
C1893 C1891 1.387 . S
C1893 C1895 1.390 . S
C1893 H1897 0.950 . S
H1894 C1890 0.950 . S
C1895 C1893 1.390 . S
C1895 C1896 1.387 . S
C1895 H1898 0.950 . S
C1896 C1895 1.387 . S
C1896 C1899 1.387 . S
H1897 C1893 0.950 . S
H1898 C1895 0.950 . S
C1899 C1890 1.390 . S
C1899 H1892 0.950 . S
C1899 C1896 1.387 . S
C1900 C1901 1.387 . S
C1900 H1904 0.950 . S
C1900 C1909 1.390 . S
C1901 C1900 1.387 . S
C1901 C1903 1.387 . S
H1902 C1909 0.950 . S
C1903 C1901 1.387 . S
C1903 C1905 1.390 . S
C1903 H1907 0.950 . S
H1904 C1900 0.950 . S
C1905 C1903 1.390 . S
C1905 C1906 1.387 . S
C1905 H1908 0.950 . S
C1906 C1905 1.387 . S
C1906 C1909 1.387 . S
H1907 C1903 0.950 . S
H1908 C1905 0.950 . S
C1909 C1900 1.390 . S
C1909 H1902 0.950 . S
C1909 C1906 1.387 . S
C1910 C1911 1.387 . S
C1910 H1914 0.950 . S
C1910 C1919 1.390 . S
C1911 C1910 1.387 . S
C1911 C1913 1.387 . S
H1912 C1919 0.950 . S
C1913 C1911 1.387 . S
C1913 C1915 1.390 . S
C1913 H1917 0.950 . S
H1914 C1910 0.950 . S
C1915 C1913 1.390 . S
C1915 C1916 1.387 . S
C1915 H1918 0.950 . S
C1916 C1915 1.387 . S
C1916 C1919 1.387 . S
H1917 C1913 0.950 . S
H1918 C1915 0.950 . S
C1919 C1910 1.390 . S
C1919 H1912 0.950 . S
C1919 C1916 1.387 . S
C1920 C1921 1.387 . S
C1920 H1924 0.950 . S
C1920 C1929 1.390 . S
C1921 C1920 1.387 . S
C1921 C1923 1.387 . S
H1922 C1929 0.950 . S
C1923 C1921 1.387 . S
C1923 C1925 1.390 . S
C1923 H1927 0.950 . S
H1924 C1920 0.950 . S
C1925 C1923 1.390 . S
C1925 C1926 1.387 . S
C1925 H1928 0.950 . S
C1926 C1925 1.387 . S
C1926 C1929 1.387 . S
H1927 C1923 0.950 . S
H1928 C1925 0.950 . S
C1929 C1920 1.390 . S
C1929 H1922 0.950 . S
C1929 C1926 1.387 . S
C1930 C1931 1.387 1_565 S
C1930 H1934 0.950 . S
C1930 C1939 1.390 . S
C1931 C1930 1.387 1_545 S
C1931 C1933 1.387 . S
H1932 C1939 0.950 . S
C1933 C1931 1.387 . S
C1933 C1935 1.390 . S
C1933 H1937 0.950 . S
H1934 C1930 0.950 . S
C1935 C1933 1.390 . S
C1935 C1936 1.387 . S
C1935 H1938 0.950 . S
C1936 C1935 1.387 . S
C1936 C1939 1.387 1_545 S
H1937 C1933 0.950 . S
H1938 C1935 0.950 . S
C1939 C1930 1.390 . S
C1939 H1932 0.950 . S
C1939 C1936 1.387 1_565 S
C1940 C1941 1.387 . S
C1940 H1944 0.950 . S
C1940 C1949 1.390 . S
C1941 C1940 1.387 . S
C1941 C1943 1.387 . S
H1942 C1949 0.950 . S
C1943 C1941 1.387 . S
C1943 C1945 1.390 . S
C1943 H1947 0.950 . S
H1944 C1940 0.950 . S
C1945 C1943 1.390 . S
C1945 C1946 1.387 . S
C1945 H1948 0.950 . S
C1946 C1945 1.387 . S
C1946 C1949 1.387 . S
H1947 C1943 0.950 . S
H1948 C1945 0.950 . S
C1949 C1940 1.390 . S
C1949 H1942 0.950 . S
C1949 C1946 1.387 . S
C1950 C1951 1.387 . S
C1950 H1954 0.950 . S
C1950 C1959 1.390 . S
C1951 C1950 1.387 . S
C1951 C1953 1.387 . S
H1952 C1959 0.950 . S
C1953 C1951 1.387 . S
C1953 C1955 1.390 . S
C1953 H1957 0.950 . S
H1954 C1950 0.950 . S
C1955 C1953 1.390 . S
C1955 C1956 1.387 . S
C1955 H1958 0.950 . S
C1956 C1955 1.387 . S
C1956 C1959 1.387 . S
H1957 C1953 0.950 . S
H1958 C1955 0.950 . S
C1959 C1950 1.390 . S
C1959 H1952 0.950 . S
C1959 C1956 1.387 . S
C1960 C1961 1.387 . S
C1960 H1964 0.950 . S
C1960 C1969 1.390 . S
C1961 C1960 1.387 . S
C1961 C1963 1.387 . S
H1962 C1969 0.950 . S
C1963 C1961 1.387 . S
C1963 C1965 1.390 . S
C1963 H1967 0.950 . S
H1964 C1960 0.950 . S
C1965 C1963 1.390 . S
C1965 C1966 1.387 . S
C1965 H1968 0.950 . S
C1966 C1965 1.387 . S
C1966 C1969 1.387 . S
H1967 C1963 0.950 . S
H1968 C1965 0.950 . S
C1969 C1960 1.390 . S
C1969 H1962 0.950 . S
C1969 C1966 1.387 . S
C1970 C1971 1.387 . S
C1970 H1974 0.950 . S
C1970 C1979 1.390 . S
C1971 C1970 1.387 . S
C1971 C1973 1.338 1_545 S
H1972 C1979 0.950 . S
C1973 C1971 1.338 1_565 S
C1973 C1975 1.395 . S
C1973 H1977 0.996 . S
H1974 C1970 0.950 . S
C1975 C1973 1.395 . S
C1975 C1976 1.387 1_565 S
C1975 H1978 0.950 . S
C1976 C1975 1.387 1_545 S
C1976 C1979 1.387 . S
H1977 C1973 0.996 . S
H1978 C1975 0.950 . S
C1979 C1970 1.390 . S
C1979 H1972 0.950 . S
C1979 C1976 1.387 . S
C1980 C1981 1.387 . S
C1980 H1984 0.950 . S
C1980 C1989 1.390 . S
C1981 C1980 1.387 . S
C1981 C1983 1.387 . S
H1982 C1989 0.950 . S
C1983 C1981 1.387 . S
C1983 C1985 1.390 . S
C1983 H1987 0.950 . S
H1984 C1980 0.950 . S
C1985 C1983 1.390 . S
C1985 C1986 1.387 . S
C1985 H1988 0.950 . S
C1986 C1985 1.387 . S
C1986 C1989 1.387 . S
H1987 C1983 0.950 . S
H1988 C1985 0.950 . S
C1989 C1980 1.390 . S
C1989 H1982 0.950 . S
C1989 C1986 1.387 . S
C1990 C1991 1.387 . S
C1990 H1994 0.950 . S
C1990 C1999 1.390 . S
C1991 C1990 1.387 . S
C1991 C1993 1.387 . S
H1992 C1999 0.950 . S
C1993 C1991 1.387 . S
C1993 C1995 1.390 . S
C1993 H1997 0.950 . S
H1994 C1990 0.950 . S
C1995 C1993 1.390 . S
C1995 C1996 1.387 . S
C1995 H1998 0.950 . S
C1996 C1995 1.387 . S
C1996 C1999 1.387 . S
H1997 C1993 0.950 . S
H1998 C1995 0.950 . S
C1999 C1990 1.390 . S
C1999 H1992 0.950 . S
C1999 C1996 1.387 . S
C2000 C2001 1.387 . S
C2000 H2004 0.950 . S
C2000 C2009 1.390 . S
C2001 C2000 1.387 . S
C2001 C2003 1.387 . S
H2002 C2009 0.950 . S
C2003 C2001 1.387 . S
C2003 C2005 1.390 . S
C2003 H2007 0.950 . S
H2004 C2000 0.950 . S
C2005 C2003 1.390 . S
C2005 C2006 1.387 . S
C2005 H2008 0.950 . S
C2006 C2005 1.387 . S
C2006 C2009 1.387 . S
H2007 C2003 0.950 . S
H2008 C2005 0.950 . S
C2009 C2000 1.390 . S
C2009 H2002 0.950 . S
C2009 C2006 1.387 . S
C2010 C2011 1.387 . S
C2010 H2014 0.950 . S
C2010 C2019 1.390 . S
C2011 C2010 1.387 . S
C2011 C2013 1.387 1_655 S
H2012 C2019 0.950 . S
C2013 C2011 1.387 1_455 S
C2013 C2015 1.390 . S
C2013 H2017 0.950 . S
H2014 C2010 0.950 . S
C2015 C2013 1.390 . S
C2015 C2016 1.387 1_455 S
C2015 H2018 0.950 . S
C2016 C2015 1.387 1_655 S
C2016 C2019 1.387 . S
H2017 C2013 0.950 . S
H2018 C2015 0.950 . S
C2019 C2010 1.390 . S
C2019 H2012 0.950 . S
C2019 C2016 1.387 . S
C2020 C2021 1.387 . S
C2020 H2024 0.950 . S
C2020 C2029 1.390 . S
C2021 C2020 1.387 . S
C2021 C2023 1.387 . S
H2022 C2029 0.950 . S
C2023 C2021 1.387 . S
C2023 C2025 1.390 . S
C2023 H2027 0.950 . S
H2024 C2020 0.950 . S
C2025 C2023 1.390 . S
C2025 C2026 1.387 . S
C2025 H2028 0.950 . S
C2026 C2025 1.387 . S
C2026 C2029 1.387 . S
H2027 C2023 0.950 . S
H2028 C2025 0.950 . S
C2029 C2020 1.390 . S
C2029 H2022 0.950 . S
C2029 C2026 1.387 . S
C2030 C2031 1.387 1_655 S
C2030 H2034 0.950 . S
C2030 C2039 1.390 . S
C2031 C2030 1.387 1_455 S
C2031 C2033 1.387 . S
H2032 C2039 0.950 . S
C2033 C2031 1.387 . S
C2033 C2035 1.390 . S
C2033 H2037 0.950 . S
H2034 C2030 0.950 . S
C2035 C2033 1.390 . S
C2035 C2036 1.387 . S
C2035 H2038 0.950 . S
C2036 C2035 1.387 . S
C2036 C2039 1.387 1_455 S
H2037 C2033 0.950 . S
H2038 C2035 0.950 . S
C2039 C2030 1.390 . S
C2039 H2032 0.950 . S
C2039 C2036 1.387 1_655 S
C2040 C2041 1.387 . S
C2040 H2044 0.950 . S
C2040 C2049 1.390 . S
C2041 C2040 1.387 . S
C2041 C2043 1.387 . S
H2042 C2049 0.950 . S
C2043 C2041 1.387 . S
C2043 C2045 1.390 . S
C2043 H2047 0.950 . S
H2044 C2040 0.950 . S
C2045 C2043 1.390 . S
C2045 C2046 1.387 . S
C2045 H2048 0.950 . S
C2046 C2045 1.387 . S
C2046 C2049 1.387 . S
H2047 C2043 0.950 . S
H2048 C2045 0.950 . S
C2049 C2040 1.390 . S
C2049 H2042 0.950 . S
C2049 C2046 1.387 . S
C2050 C2051 1.387 . S
C2050 H2054 0.950 . S
C2050 C2059 1.390 . S
C2051 C2050 1.387 . S
C2051 C2053 1.387 . S
H2052 C2059 0.950 . S
C2053 C2051 1.387 . S
C2053 C2055 1.390 . S
C2053 H2057 0.950 . S
H2054 C2050 0.950 . S
C2055 C2053 1.390 . S
C2055 C2056 1.387 . S
C2055 H2058 0.950 . S
C2056 C2055 1.387 . S
C2056 C2059 1.387 . S
H2057 C2053 0.950 . S
H2058 C2055 0.950 . S
C2059 C2050 1.390 . S
C2059 H2052 0.950 . S
C2059 C2056 1.387 . S
C2060 C2061 1.387 . S
C2060 H2064 0.950 . S
C2060 C2069 1.390 . S
C2061 C2060 1.387 . S
C2061 C2063 1.387 . S
H2062 C2069 0.950 . S
C2063 C2061 1.387 . S
C2063 C2065 1.390 . S
C2063 H2067 0.950 . S
H2064 C2060 0.950 . S
C2065 C2063 1.390 . S
C2065 C2066 1.387 . S
C2065 H2068 0.950 . S
C2066 C2065 1.387 . S
C2066 C2069 1.387 . S
H2067 C2063 0.950 . S
H2068 C2065 0.950 . S
C2069 C2060 1.390 . S
C2069 H2062 0.950 . S
C2069 C2066 1.387 . S
C2070 C2071 1.387 . S
C2070 H2074 0.950 . S
C2070 C2079 1.390 . S
C2071 C2070 1.387 . S
C2071 C2073 1.387 . S
H2072 C2079 0.950 . S
C2073 C2071 1.387 . S
C2073 C2075 1.390 . S
C2073 H2077 0.950 . S
H2074 C2070 0.950 . S
C2075 C2073 1.390 . S
C2075 C2076 1.387 . S
C2075 H2078 0.950 . S
C2076 C2075 1.387 . S
C2076 C2079 1.387 . S
H2077 C2073 0.950 . S
H2078 C2075 0.950 . S
C2079 C2070 1.390 . S
C2079 H2072 0.950 . S
C2079 C2076 1.387 . S
C2080 C2081 1.387 . S
C2080 H2084 0.950 . S
C2080 C2089 1.390 . S
C2081 C2080 1.387 . S
C2081 C2083 1.387 . S
H2082 C2089 0.950 . S
C2083 C2081 1.387 . S
C2083 C2085 1.390 . S
C2083 H2087 0.950 . S
H2084 C2080 0.950 . S
C2085 C2083 1.390 . S
C2085 C2086 1.387 . S
C2085 H2088 0.950 . S
C2086 C2085 1.387 . S
C2086 C2089 1.387 . S
H2087 C2083 0.950 . S
H2088 C2085 0.950 . S
C2089 C2080 1.390 . S
C2089 H2082 0.950 . S
C2089 C2086 1.387 . S
C2090 C2091 1.387 . S
C2090 H2094 0.950 . S
C2090 C2099 1.390 . S
C2091 C2090 1.387 . S
C2091 C2093 1.387 . S
H2092 C2099 0.950 . S
C2093 C2091 1.387 . S
C2093 C2095 1.390 . S
C2093 H2097 0.950 . S
H2094 C2090 0.950 . S
C2095 C2093 1.390 . S
C2095 C2096 1.387 . S
C2095 H2098 0.950 . S
C2096 C2095 1.387 . S
C2096 C2099 1.387 . S
H2097 C2093 0.950 . S
H2098 C2095 0.950 . S
C2099 C2090 1.390 . S
C2099 H2092 0.950 . S
C2099 C2096 1.387 . S
C2100 C2101 1.387 . S
C2100 H2104 0.950 . S
C2100 C2109 1.390 . S
C2101 C2100 1.387 . S
C2101 C2103 1.387 . S
H2102 C2109 0.950 . S
C2103 C2101 1.387 . S
C2103 C2105 1.390 . S
C2103 H2107 0.950 . S
H2104 C2100 0.950 . S
C2105 C2103 1.390 . S
C2105 C2106 1.387 . S
C2105 H2108 0.950 . S
C2106 C2105 1.387 . S
C2106 C2109 1.387 . S
H2107 C2103 0.950 . S
H2108 C2105 0.950 . S
C2109 C2100 1.390 . S
C2109 H2102 0.950 . S
C2109 C2106 1.387 . S
C2110 C2111 1.387 . S
C2110 H2114 0.950 . S
C2110 C2119 1.390 . S
C2111 C2110 1.387 . S
C2111 C2113 1.387 . S
H2112 C2119 0.950 . S
C2113 C2111 1.387 . S
C2113 C2115 1.390 . S
C2113 H2117 0.950 . S
H2114 C2110 0.950 . S
C2115 C2113 1.390 . S
C2115 C2116 1.387 . S
C2115 H2118 0.950 . S
C2116 C2115 1.387 . S
C2116 C2119 1.387 . S
H2117 C2113 0.950 . S
H2118 C2115 0.950 . S
C2119 C2110 1.390 . S
C2119 H2112 0.950 . S
C2119 C2116 1.387 . S
C2120 C2121 1.387 1_554 S
C2120 H2124 0.950 . S
C2120 C2129 1.390 . S
C2121 C2120 1.387 1_556 S
C2121 C2123 1.387 . S
H2122 C2129 0.950 . S
C2123 C2121 1.387 . S
C2123 C2125 1.390 . S
C2123 H2127 0.950 . S
H2124 C2120 0.950 . S
C2125 C2123 1.390 . S
C2125 C2126 1.387 . S
C2125 H2128 0.950 . S
C2126 C2125 1.387 . S
C2126 C2129 1.387 1_556 S
H2127 C2123 0.950 . S
H2128 C2125 0.950 . S
C2129 C2120 1.390 . S
C2129 H2122 0.950 . S
C2129 C2126 1.387 1_554 S
C2130 C2131 1.387 . S
C2130 H2134 0.950 . S
C2130 C2139 1.390 . S
C2131 C2130 1.387 . S
C2131 C2133 1.387 . S
H2132 C2139 0.950 . S
C2133 C2131 1.387 . S
C2133 C2135 1.390 . S
C2133 H2137 0.950 . S
H2134 C2130 0.950 . S
C2135 C2133 1.390 . S
C2135 C2136 1.387 . S
C2135 H2138 0.950 . S
C2136 C2135 1.387 . S
C2136 C2139 1.387 . S
H2137 C2133 0.950 . S
H2138 C2135 0.950 . S
C2139 C2130 1.390 . S
C2139 H2132 0.950 . S
C2139 C2136 1.387 . S
C2140 C2141 1.387 1_556 S
C2140 H2144 0.950 . S
C2140 C2149 1.390 . S
C2141 C2140 1.387 1_554 S
C2141 C2143 1.387 . S
H2142 C2149 0.950 . S
C2143 C2141 1.387 . S
C2143 C2145 1.390 . S
C2143 H2147 0.950 . S
H2144 C2140 0.950 . S
C2145 C2143 1.390 . S
C2145 C2146 1.387 . S
C2145 H2148 0.950 . S
C2146 C2145 1.387 . S
C2146 C2149 1.387 1_554 S
H2147 C2143 0.950 . S
H2148 C2145 0.950 . S
C2149 C2140 1.390 . S
C2149 H2142 0.950 . S
C2149 C2146 1.387 1_556 S
C2150 C2151 1.387 1_556 S
C2150 H2154 0.950 . S
C2150 C2159 1.390 . S
C2151 C2150 1.387 1_554 S
C2151 C2153 1.387 . S
H2152 C2159 0.950 . S
C2153 C2151 1.387 . S
C2153 C2155 1.390 . S
C2153 H2157 0.950 . S
H2154 C2150 0.950 . S
C2155 C2153 1.390 . S
C2155 C2156 1.387 . S
C2155 H2158 0.950 . S
C2156 C2155 1.387 . S
C2156 C2159 1.387 1_554 S
H2157 C2153 0.950 . S
H2158 C2155 0.950 . S
C2159 C2150 1.390 . S
C2159 H2152 0.950 . S
C2159 C2156 1.387 1_556 S
C1686 C673 1.507 . S
C1681 C211 1.506 . S
C1696 C732 1.518 . S
C1691 C255 1.513 . S
C1701 C274 1.510 . S
C1706 C849 1.513 . S
C1716 C917 1.525 . S
C1711 C157 1.523 . S
C1726 C996 1.519 . S
C1721 C391 1.517 . S
C1736 C1121 1.523 . S
C1731 C484 1.519 . S
C1741 C450 1.508 . S
C1746 C1181 1.507 . S
C1756 C1289 1.525 . S
C1751 C352 1.521 . S
C1761 C430 1.508 . S
C1766 C1385 1.508 . S
C1776 C1445 1.532 . S
C1771 C367 1.530 . S
C1781 C411 1.525 . S
C1786 C1348 1.529 . S
C1796 C1465 1.521 . S
C1791 C469 1.520 . S
C1801 C294 1.506 . S
C1806 C1533 1.509 . S
C1811 C177 1.524 . S
C1816 C1524 1.525 . S
C1821 C196 1.511 . S
C1826 C1553 1.513 . S
C1831 C235 1.517 . S
C1836 C1561 1.521 . S
C1841 C133 1.513 . S
C1846 C945 1.513 . S
C1851 C567 1.504 . S
C1856 C908 1.508 . S
C1866 C644 1.520 . S
C1861 C601 1.518 . S
C1876 C741 1.514 . S
C1871 C328 1.513 . S
C1881 C172 1.518 . S
C1886 C1005 1.521 . S
C1896 C1297 1.512 . S
C1891 C445 1.511 . S
C1906 C1025 1.537 . S
C1901 C372 1.532 . S
C1916 C1209 1.513 . S
C1911 C489 1.513 . S
C1926 C1201 1.508 . S
C1921 C562 1.507 . S
C1931 C606 1.513 . S
C1936 C1269 1.518 . S
C1941 C313 1.510 . S
C1946 C1033 1.513 . S
C1956 C1084 1.525 . S
C1951 C508 1.523 . S
C1961 C118 1.517 . S
C1966 C829 1.519 . S
C1976 C937 1.523 . S
C1971 C16 1.519 . S
C1986 C653 1.508 . S
C1981 C60 1.508 . S
C1996 C769 1.526 . S
C1991 C79 1.522 . S
C2001 C40 1.508 . S
C2006 C1473 1.508 . S
C2011 C94 1.529 . S
C2016 C1357 1.531 . S
C2021 C138 1.525 . S
C2026 C1436 1.529 . S
C2031 C1 1.520 . S
C2036 C1377 1.521 . S
C2046 C1621 1.509 . S
C2041 C333 1.505 . S
C2056 C1612 1.524 . S
C2051 C528 1.524 . S
C2066 C1641 1.513 . S
C2061 C547 1.510 . S
C2071 C586 1.516 . S
C2076 C1649 1.520 . S
C2081 C406 1.513 . S
C2086 C1113 1.514 . S
C2096 C1093 1.508 . S
C2091 C216 1.504 . S
C2106 C1172 1.520 . S
C2101 C250 1.518 . S
C2116 C1260 1.513 . S
C2111 C289 1.513 . S
C2121 C523 1.518 . S
C2126 C820 1.521 . S
C2136 C761 1.512 . S
C2131 C55 1.510 . S
C2141 C99 1.533 . S
C2146 C857 1.538 . S
C2156 C681 1.513 . S
C2151 C21 1.513 . S
