# Generated by pormake.
# Topology zzz, (3,6)-cn, num edge types: 1
# Building blocks:
#     Node 0, Type 0, BuildingBlock: QEWDON_clean_linker_0, # of connection points: 3
#     Node 1, Type 0, BuildingBlock: QEWDON_clean_linker_0, # of connection points: 3
#     Node 2, Type 0, BuildingBlock: QEWDON_clean_linker_0, # of connection points: 3
#     Node 3, Type 0, BuildingBlock: QEWDON_clean_linker_0, # of connection points: 3
#     Node 4, Type 0, BuildingBlock: QEWDON_clean_linker_0, # of connection points: 3
#     Node 5, Type 0, BuildingBlock: QEWDON_clean_linker_0, # of connection points: 3
#     Node 6, Type 0, BuildingBlock: QEWDON_clean_linker_0, # of connection points: 3
#     Node 7, Type 0, BuildingBlock: QEWDON_clean_linker_0, # of connection points: 3
#     Node 8, Type 1, BuildingBlock: MIFKUJ_clean_sbu_0, # of connection points: 6
#     Node 9, Type 1, BuildingBlock: MIFKUJ_clean_sbu_0, # of connection points: 6
#     Node 10, Type 1, BuildingBlock: MIFKUJ_clean_sbu_0, # of connection points: 6
#     Node 11, Type 1, BuildingBlock: MIFKUJ_clean_sbu_0, # of connection points: 6
#     Edge 12, Type (0, 1), BuildingBlock: XUDNAN_clean_linker_2, # of connection points: 2
#     Edge 13, Type (0, 1), BuildingBlock: XUDNAN_clean_linker_2, # of connection points: 2
#     Edge 14, Type (0, 1), BuildingBlock: XUDNAN_clean_linker_2, # of connection points: 2
#     Edge 15, Type (0, 1), BuildingBlock: XUDNAN_clean_linker_2, # of connection points: 2
#     Edge 16, Type (0, 1), BuildingBlock: XUDNAN_clean_linker_2, # of connection points: 2
#     Edge 17, Type (0, 1), BuildingBlock: XUDNAN_clean_linker_2, # of connection points: 2
#     Edge 18, Type (0, 1), BuildingBlock: XUDNAN_clean_linker_2, # of connection points: 2
#     Edge 19, Type (0, 1), BuildingBlock: XUDNAN_clean_linker_2, # of connection points: 2
#     Edge 20, Type (0, 1), BuildingBlock: XUDNAN_clean_linker_2, # of connection points: 2
#     Edge 21, Type (0, 1), BuildingBlock: XUDNAN_clean_linker_2, # of connection points: 2
#     Edge 22, Type (0, 1), BuildingBlock: XUDNAN_clean_linker_2, # of connection points: 2
#     Edge 23, Type (0, 1), BuildingBlock: XUDNAN_clean_linker_2, # of connection points: 2
#     Edge 24, Type (0, 1), BuildingBlock: XUDNAN_clean_linker_2, # of connection points: 2
#     Edge 25, Type (0, 1), BuildingBlock: XUDNAN_clean_linker_2, # of connection points: 2
#     Edge 26, Type (0, 1), BuildingBlock: XUDNAN_clean_linker_2, # of connection points: 2
#     Edge 27, Type (0, 1), BuildingBlock: XUDNAN_clean_linker_2, # of connection points: 2
#     Edge 28, Type (0, 1), BuildingBlock: XUDNAN_clean_linker_2, # of connection points: 2
#     Edge 29, Type (0, 1), BuildingBlock: XUDNAN_clean_linker_2, # of connection points: 2
#     Edge 30, Type (0, 1), BuildingBlock: XUDNAN_clean_linker_2, # of connection points: 2
#     Edge 31, Type (0, 1), BuildingBlock: XUDNAN_clean_linker_2, # of connection points: 2
#     Edge 32, Type (0, 1), BuildingBlock: XUDNAN_clean_linker_2, # of connection points: 2
#     Edge 33, Type (0, 1), BuildingBlock: XUDNAN_clean_linker_2, # of connection points: 2
#     Edge 34, Type (0, 1), BuildingBlock: XUDNAN_clean_linker_2, # of connection points: 2
#     Edge 35, Type (0, 1), BuildingBlock: XUDNAN_clean_linker_2, # of connection points: 2
# Relax obj value: 0.053
# Max RMSD: 0.101
# Mean RMSD: 0.040
data_MOF--net-zzz--node1-MIFKUJ_clean_sbu_0--node2-QEWDON_clean_linker_0--edge1-XUDNAN_clean_linker_2
_symmetry_space_group_name_H-M    P1
_symmetry_Int_Tables_number       1
_symmetry_cell_setting            triclinic
loop_
_symmetry_equiv_pos_as_xyz
'x, y, z'
_cell_length_a     54.62921
_cell_length_b     54.937715
_cell_length_c     15.658022
_cell_angle_alpha  89.93786
_cell_angle_beta   90.052935
_cell_angle_gamma 90.023664
loop_
_atom_site_label
_atom_site_type_symbol
_atom_site_fract_x
_atom_site_fract_y
_atom_site_fract_z
_atom_type_partial_charge
H0 H 0.75901 0.51916 0.95127 0.0
C1 C 0.76633 0.51768 0.01537 0.0
C2 C 0.78768 0.50401 0.028 0.0
C3 C 0.75564 0.53076 0.08336 0.0
H4 H 0.81598 0.49419 0.11648 0.0
C5 C 0.79853 0.50338 0.10875 0.0
C6 C 0.78922 0.51716 0.17627 0.0
C7 C 0.76748 0.53042 0.16406 0.0
C8 C 0.73385 0.54668 0.06709 0.0
H9 H 0.76028 0.54081 0.21709 0.0
C10 C 0.71631 0.54072 0.00366 0.0
C11 C 0.69746 0.55714 0.98232 0.0
C12 C 0.73132 0.56894 0.11091 0.0
H13 H 0.74459 0.5747 0.15806 0.0
C14 C 0.71208 0.58473 0.09215 0.0
H15 H 0.71765 0.52374 0.96893 0.0
C16 C 0.69539 0.57902 0.02793 0.0
H17 H 0.68092 0.59185 0.0133 0.0
H18 H 0.71044 0.60179 0.12622 0.0
H19 H 0.98888 0.74375 0.94086 0.0
C20 C 0.98911 0.75048 0.00589 0.0
C21 C 1.00291 0.77131 0.02451 0.0
C22 C 0.97438 0.7394 0.06892 0.0
H23 H 0.01165 0.79796 0.1199 0.0
C24 C 1.00224 0.78096 0.107 0.0
C25 C 0.98705 0.77096 0.16986 0.0
C26 C 0.97329 0.75004 0.15102 0.0
C27 C 0.95887 0.718 0.04606 0.0
H28 H 0.96154 0.74242 0.1999 0.0
C29 C 0.96731 0.70059 0.98687 0.0
C30 C 0.9522 0.68132 0.95974 0.0
C31 C 0.93514 0.71539 0.07973 0.0
H32 H 0.92774 0.72863 0.12383 0.0
C33 C 0.92028 0.69597 0.05467 0.0
H34 H 0.98578 0.7019 0.96217 0.0
C35 C 0.92865 0.6791 0.99487 0.0
H36 H 0.91649 0.6646 0.9749 0.0
H37 H 0.902 0.69425 0.0806 0.0
H38 H 0.75773 0.9833 0.96854 0.0
C39 C 0.74701 0.9855 0.02616 0.0
C40 C 0.7229 0.99401 0.01924 0.0
C41 C 0.75687 0.97888 0.10627 0.0
H42 H 0.68948 0.00113 0.08735 0.0
C43 C 0.70855 0.99583 0.09285 0.0
C44 C 0.71757 0.98898 0.17276 0.0
C45 C 0.74176 0.98047 0.17966 0.0
C46 C 0.78241 0.96919 0.11159 0.0
H47 H 0.74869 0.97525 0.24186 0.0
C48 C 0.80102 0.97814 0.05722 0.0
C49 C 0.82473 0.96798 0.05816 0.0
C50 C 0.78814 0.95016 0.16838 0.0
H51 H 0.77433 0.94243 0.20986 0.0
C52 C 0.81169 0.94033 0.17069 0.0
H53 H 0.797 0.99282 0.01323 0.0
C54 C 0.82983 0.94905 0.11595 0.0
H55 H 0.84795 0.9411 0.11947 0.0
H56 H 0.81584 0.92568 0.21466 0.0
H57 H 0.51944 0.76891 0.97286 0.0
C58 C 0.51516 0.759 0.03082 0.0
C59 C 0.51 0.73407 0.02556 0.0
C60 C 0.51556 0.77094 0.1106 0.0
H61 H 0.50269 0.70144 0.0975 0.0
C62 C 0.50578 0.72094 0.10059 0.0
C63 C 0.50629 0.73225 0.18027 0.0
C64 C 0.51074 0.75736 0.18552 0.0
C65 C 0.52266 0.79709 0.11496 0.0
H66 H 0.51091 0.76608 0.24755 0.0
C67 C 0.51525 0.81351 0.05066 0.0
C68 C 0.5243 0.83754 0.04823 0.0
C69 C 0.53838 0.80538 0.17978 0.0
H70 H 0.54477 0.7932 0.22943 0.0
C71 C 0.54694 0.8293 0.17923 0.0
H72 H 0.50244 0.80748 0.00231 0.0
C73 C 0.54025 0.84518 0.11364 0.0
H74 H 0.54812 0.86326 0.11341 0.0
H75 H 0.55935 0.83539 0.22873 0.0
H76 H 0.27055 0.49729 0.21719 0.0
C77 C 0.2601 0.50154 0.16037 0.0
C78 C 0.23473 0.50474 0.16798 0.0
C79 C 0.27169 0.50369 0.07991 0.0
H80 H 0.20091 0.51015 0.10021 0.0
C81 C 0.22066 0.50854 0.09474 0.0
C82 C 0.23143 0.51029 0.01443 0.0
C83 C 0.25699 0.50864 0.00709 0.0
C84 C 0.29883 0.50024 0.07173 0.0
H85 H 0.26518 0.51101 0.94471 0.0
C86 C 0.31498 0.50616 0.13941 0.0
C87 C 0.34046 0.50222 0.13231 0.0
C88 C 0.3088 0.49038 0.99643 0.0
H89 H 0.29721 0.4848 0.94392 0.0
C90 C 0.33398 0.48707 0.98808 0.0
H91 H 0.30776 0.51365 0.19802 0.0
C92 C 0.3497 0.49298 0.05504 0.0
H93 H 0.36916 0.49036 0.04586 0.0
H94 H 0.34136 0.47967 0.92944 0.0
H95 H 1.00175 0.25509 0.25774 0.0
C96 C 0.00974 0.24479 0.20576 0.0
C97 C 0.01749 0.22089 0.22054 0.0
C98 C 0.01161 0.2551 0.12352 0.0
H99 H 0.03226 0.1884 0.16402 0.0
C100 C 0.02723 0.20729 0.1533 0.0
C101 C 0.02827 0.21678 0.07064 0.0
C102 C 0.02038 0.2407 0.05548 0.0
C103 C 0.00365 0.28059 0.10911 0.0
H104 H 0.02108 0.24798 0.99117 0.0
C105 C 0.01002 0.29884 0.16807 0.0
C106 C 1.00176 0.32286 0.15738 0.0
C107 C 0.98917 0.28676 0.03809 0.0
H108 H 0.98378 0.27306 0.99209 0.0
C109 C 0.98095 0.31064 0.02705 0.0
H110 H 0.02127 0.29429 0.22289 0.0
C111 C 0.98707 0.32859 0.08646 0.0
H112 H 0.98057 0.347 0.07649 0.0
H113 H 0.96968 0.31522 0.97246 0.0
H114 H 0.2507 0.97559 0.21428 0.0
C115 C 0.26031 0.97762 0.1542 0.0
C116 C 0.28534 0.98312 0.15548 0.0
C117 C 0.24817 0.97349 0.07582 0.0
H118 H 0.31767 0.98909 0.081 0.0
C119 C 0.29821 0.98514 0.0789 0.0
C120 C 0.28677 0.98136 0.00031 0.0
C121 C 0.2617 0.97546 -0.00116 0.0
C122 C 0.22189 0.96583 0.07477 0.0
H123 H 0.25286 0.97251 0.9378 0.0
C124 C 0.20498 0.97488 0.1353 0.0
C125 C 0.18045 0.96672 0.13618 0.0
C126 C 0.21371 0.94862 0.01462 0.0
H127 H 0.22616 0.94075 0.96855 0.0
C128 C 0.18942 0.94082 0.01427 0.0
H129 H 0.21091 0.98808 0.18223 0.0
C130 C 0.17291 0.94974 0.07437 0.0
H131 H 0.15413 0.94346 0.07192 0.0
H132 H 0.18339 0.92763 0.96743 0.0
H133 H 0.51587 0.25876 0.24469 0.0
C134 C 0.50972 0.27035 0.19304 0.0
C135 C 0.51168 0.2956 0.20332 0.0
C136 C 0.5004 0.26026 0.1165 0.0
H137 H 0.50592 0.33053 0.14384 0.0
C138 C 0.50479 0.31092 0.13625 0.0
C139 C 0.49601 0.3015 0.05955 0.0
C140 C 0.49351 0.27625 0.04958 0.0
C141 C 0.49838 0.2332 0.10675 0.0
H142 H 0.48612 0.26934 0.99022 0.0
C143 C 0.49495 0.21807 0.17877 0.0
C144 C 0.49513 0.19255 0.17137 0.0
C145 C 0.50086 0.22212 0.02611 0.0
H146 H 0.50413 0.23281 0.96921 0.0
C147 C 0.49992 0.19683 0.01792 0.0
H148 H 0.49219 0.22598 0.24129 0.0
C149 C 0.49725 0.18209 0.08994 0.0
H150 H 0.49767 0.16251 0.08211 0.0
H151 H 0.50197 0.18857 0.95559 0.0
Zn152 Zn 0.00976 0.0323 0.63422 0.0
Zn153 Zn 0.00459 0.95764 0.60428 0.0
C154 C 0.00992 0.06692 0.76016 0.0
O155 O 0.9869 0.06573 0.73607 0.0
C156 C 0.00566 0.91703 0.49709 0.0
O157 O 0.02872 0.91911 0.5199 0.0
O158 O 0.99856 0.06019 0.56085 0.0
O159 O 0.03588 0.01513 0.56607 0.0
O160 O 0.03261 0.97526 0.54668 0.0
C161 C 0.01576 0.07518 0.54597 0.0
O162 O 0.03818 0.06934 0.56864 0.0
O163 O 0.02478 0.05102 0.7319 0.0
C164 C 0.00327 0.91859 0.71233 0.0
O165 O 0.98041 0.92121 0.68778 0.0
O166 O 0.01877 0.93476 0.69128 0.0
O167 O 0.97623 0.97492 0.6616 0.0
O168 O 0.97983 0.01487 0.6776 0.0
O169 O 0.99072 0.93366 0.51896 0.0
C170 C 0.0437 0.99531 0.53444 0.0
C171 C 0.96791 0.99522 0.6875 0.0
Zn172 Zn 0.47135 0.00581 0.56543 0.0
Zn173 Zn 0.53496 0.01589 0.62293 0.0
C174 C 0.43528 0.98319 0.65769 0.0
O175 O 0.44292 0.96684 0.60262 0.0
C176 C 0.56573 0.01621 0.4828 0.0
O177 O 0.56618 0.03895 0.50871 0.0
O178 O 0.44672 0.00219 0.47038 0.0
O179 O 0.48493 0.03998 0.55077 0.0
O180 O 0.52172 0.04915 0.60072 0.0
C181 C 0.43061 0.01884 0.478 0.0
O182 O 0.43477 0.03673 0.5317 0.0
O183 O 0.44723 0.00307 0.66399 0.0
C184 C 0.57818 0.99908 0.68947 0.0
O185 O 0.56803 0.97954 0.65648 0.0
O186 O 0.56591 0.01876 0.69175 0.0
O187 O 0.51365 0.99225 0.68681 0.0
O188 O 0.49428 0.97671 0.57629 0.0
O189 O 0.54967 0.002 0.51441 0.0
C190 C 0.50185 0.05536 0.5648 0.0
C191 C 0.50392 0.97414 0.64971 0.0
Zn192 Zn 0.51637 0.47977 0.61175 0.0
Zn193 Zn 0.50706 0.54939 0.603 0.0
C194 C 0.51833 0.45306 0.7595 0.0
O195 O 0.54117 0.45334 0.73318 0.0
C196 C 0.48422 0.58279 0.50075 0.0
O197 O 0.46843 0.57838 0.56205 0.0
O198 O 0.52424 0.44785 0.55428 0.0
O199 O 0.48948 0.49472 0.53872 0.0
O200 O 0.47827 0.52643 0.61549 0.0
C201 C 0.50846 0.43108 0.56494 0.0
O202 O 0.48766 0.43622 0.60288 0.0
O203 O 0.50331 0.46774 0.72479 0.0
C204 C 0.52244 0.59242 0.66858 0.0
O205 O 0.53837 0.58697 0.60876 0.0
O206 O 0.50581 0.577 0.68704 0.0
O207 O 0.54121 0.5365 0.61911 0.0
O208 O 0.54871 0.49701 0.62966 0.0
O209 O 0.503 0.56914 0.49486 0.0
C210 C 0.47409 0.51141 0.55554 0.0
C211 C 0.55601 0.51895 0.62967 0.0
Zn212 Zn 0.04791 0.50931 0.58122 0.0
Zn213 Zn 0.97753 0.49936 0.61545 0.0
C214 C 0.07983 0.52959 0.69395 0.0
O215 O 0.07405 0.54709 0.64035 0.0
C216 C 0.93855 0.50026 0.50337 0.0
O217 O 0.94039 0.47737 0.52701 0.0
O218 O 0.07662 0.51143 0.501 0.0
O219 O 0.03228 0.47692 0.54964 0.0
O220 O 0.99248 0.46965 0.56417 0.0
C221 C 0.0912 0.49385 0.5165 0.0
O222 O 0.08434 0.47691 0.57077 0.0
O223 O 0.06731 0.50999 0.69187 0.0
C224 C 0.93718 0.50481 0.72016 0.0
O225 O 0.94022 0.5269 0.68969 0.0
O226 O 0.9533 0.48877 0.70424 0.0
O227 O 1.00195 0.52206 0.66869 0.0
O228 O 0.02633 0.53939 0.5764 0.0
O229 O 0.95515 0.51509 0.52722 0.0
C230 C 0.01381 0.46294 0.5422 0.0
C231 C 0.00833 0.54088 0.62745 0.0
H232 H 0.14521 0.94044 0.22148 0.0
H233 H 0.17503 0.01338 0.1974 0.0
H234 H 0.14433 0.02837 0.30058 0.0
H235 H 0.08248 0.95807 0.23012 0.0
H236 H 0.07402 0.93493 0.30632 0.0
H237 H 0.09917 0.92978 0.23434 0.0
H238 H 0.12775 0.92111 0.36299 0.0
H239 H 0.10266 0.92623 0.43533 0.0
H240 H 0.13058 0.94342 0.44675 0.0
H241 H 0.10909 0.03566 0.4022 0.0
H242 H 0.07262 0.03468 0.49494 0.0
H243 H 0.06548 0.95697 0.45024 0.0
C244 C 0.1453 0.9596 0.23758 0.0
C245 C 0.16262 0.97572 0.20105 0.0
C246 C 0.16222 0.00058 0.22516 0.0
C247 C 0.14474 0.0093 0.2834 0.0
C248 C 0.12779 0.99293 0.31726 0.0
C249 C 0.12798 0.96859 0.29536 0.0
C250 C 0.10747 0.95485 0.33931 0.0
C251 C 0.08974 0.94376 0.27359 0.0
C252 C 0.11774 0.93525 0.39969 0.0
C253 C 0.09551 0.97532 0.38874 0.0
C254 C 0.10754 0.99712 0.37544 0.0
C255 C 0.0996 0.01866 0.41332 0.0
C256 C 0.07881 0.0179 0.46594 0.0
C257 C 0.06608 0.99575 0.4803 0.0
C258 C 0.07474 0.97421 0.4411 0.0
H259 H 0.46995 0.14974 0.19812 0.0
H260 H 0.52097 0.19959 0.31879 0.0
H261 H 0.52438 0.17188 0.44223 0.0
H262 H 0.4398 0.12856 0.39791 0.0
H263 H 0.43708 0.09779 0.35926 0.0
H264 H 0.43622 0.12292 0.28519 0.0
H265 H 0.47204 0.10384 0.19995 0.0
H266 H 0.47295 0.0787 0.27352 0.0
H267 H 0.50016 0.09648 0.25457 0.0
H268 H 0.52672 0.13644 0.54262 0.0
H269 H 0.52655 0.09639 0.61475 0.0
H270 H 0.47297 0.07012 0.43198 0.0
C271 C 0.48154 0.15499 0.25115 0.0
C272 C 0.49506 0.17692 0.249 0.0
C273 C 0.51009 0.18311 0.3196 0.0
C274 C 0.51221 0.16744 0.38995 0.0
C275 C 0.49898 0.14577 0.38936 0.0
C276 C 0.48372 0.13964 0.32223 0.0
C277 C 0.47275 0.11456 0.33488 0.0
C278 C 0.4448 0.11606 0.34492 0.0
C279 C 0.47992 0.09739 0.26139 0.0
C280 C 0.48492 0.10721 0.41795 0.0
C281 C 0.49986 0.12552 0.44867 0.0
C282 C 0.51468 0.12215 0.52028 0.0
C283 C 0.5145 0.09934 0.56075 0.0
C284 C 0.4995 0.08027 0.52979 0.0
C285 C 0.48416 0.08453 0.45854 0.0
H286 H 0.38187 0.47674 0.17903 0.0
H287 H 0.3379 0.53928 0.25147 0.0
H288 H 0.36609 0.54728 0.37143 0.0
H289 H 0.399 0.45734 0.3895 0.0
H290 H 0.42973 0.4492 0.35902 0.0
H291 H 0.40531 0.44756 0.28188 0.0
H292 H 0.42947 0.47603 0.18025 0.0
H293 H 0.45401 0.47766 0.25688 0.0
H294 H 0.43982 0.50521 0.2186 0.0
H295 H 0.39942 0.54835 0.4846 0.0
H296 H 0.43612 0.54385 0.57538 0.0
H297 H 0.45984 0.48278 0.42043 0.0
C298 C 0.37817 0.49231 0.21928 0.0
C299 C 0.35743 0.50729 0.20529 0.0
C300 C 0.35327 0.52717 0.26124 0.0
C301 C 0.36931 0.53199 0.32943 0.0
C302 C 0.38958 0.5169 0.34073 0.0
C303 C 0.39412 0.49758 0.28673 0.0
C304 C 0.41765 0.48463 0.31052 0.0
C305 C 0.41261 0.45812 0.3368 0.0
C306 C 0.43634 0.48598 0.23721 0.0
C307 C 0.42574 0.49976 0.38622 0.0
C308 C 0.40919 0.51813 0.40328 0.0
C309 C 0.41262 0.53418 0.47115 0.0
C310 C 0.43364 0.53157 0.52212 0.0
C311 C 0.45124 0.51332 0.5042 0.0
C312 C 0.44695 0.4971 0.43565 0.0
H313 H 0.97139 0.35614 0.23275 0.0
H314 H 0.04703 0.33228 0.22453 0.0
H315 H 0.05814 0.36405 0.32952 0.0
H316 H 0.98342 0.41967 0.24697 0.0
H317 H 0.95846 0.42573 0.3191 0.0
H318 H 0.95654 0.40062 0.24566 0.0
H319 H 0.94855 0.37119 0.37216 0.0
H320 H 0.95062 0.39623 0.44602 0.0
H321 H 0.97004 0.36999 0.45953 0.0
H322 H 0.06131 0.40005 0.42868 0.0
H323 H 0.05614 0.43708 0.51634 0.0
H324 H 0.97813 0.43623 0.46325 0.0
C325 C 0.99029 0.35766 0.253 0.0
C326 C 0.00838 0.34183 0.22058 0.0
C327 C 0.03288 0.34415 0.24922 0.0
C328 C 0.03935 0.36213 0.30863 0.0
C329 C 0.02106 0.37745 0.33938 0.0
C330 C 0.99701 0.37532 0.31286 0.0
C331 C 0.9809 0.39424 0.3548 0.0
C332 C 0.96915 0.41106 0.28763 0.0
C333 C 0.96138 0.38218 0.4115 0.0
C334 C 0.99972 0.40764 0.40792 0.0
C335 C 0.02278 0.3977 0.39825 0.0
C336 C 0.04329 0.40782 0.43755 0.0
C337 C 0.04019 0.42886 0.48715 0.0
C338 C 0.01672 0.43942 0.49739 0.0
C339 C 0.99625 0.42836 0.4581 0.0
H340 H 0.8586 0.94094 0.96898 0.0
H341 H 0.83497 0.01529 0.01335 0.0
H342 H 0.86757 0.03013 0.9173 0.0
H343 H 0.92272 0.9533 0.96867 0.0
H344 H 0.92965 0.93157 0.88599 0.0
H345 H 0.90369 0.92677 0.95477 0.0
H346 H 0.87535 0.92387 0.82237 0.0
H347 H 0.90124 0.92875 0.75321 0.0
H348 H 0.87493 0.94844 0.74593 0.0
H349 H 0.90402 0.03702 0.82171 0.0
H350 H 0.94143 0.03549 0.73376 0.0
H351 H 0.94143 0.95659 0.75181 0.0
C352 C 0.86029 0.96036 0.95877 0.0
C353 C 0.84412 0.97694 -0.00118 0.0
C354 C 0.84685 0.00219 0.98266 0.0
C355 C 0.86541 0.01081 0.92845 0.0
C356 C 0.88107 0.99397 0.89047 0.0
C357 C 0.87868 0.96927 0.90478 0.0
C358 C 0.89824 0.95504 0.85767 0.0
C359 C 0.91454 0.94084 0.92054 0.0
C360 C 0.88675 0.93802 0.79083 0.0
C361 C 0.91223 0.97562 0.81549 0.0
C362 C 0.90197 0.99793 0.835 0.0
C363 C 0.91211 0.01964 0.8056 0.0
C364 C 0.93341 0.01857 0.75567 0.0
C365 C 0.94442 0.99592 0.73537 0.0
C366 C 0.93341 0.97419 0.76524 0.0
H367 H 0.5185 0.88744 0.05277 0.0
H368 H 0.5163 0.82586 0.87889 0.0
H369 H 0.5074 0.85373 0.75953 0.0
H370 H 0.47217 0.92453 0.95073 0.0
H371 H 0.48872 0.95246 0.96842 0.0
H372 H 0.49221 0.92741 0.04174 0.0
H373 H 0.53921 0.92823 0.01871 0.0
H374 H 0.53586 0.9533 0.9456 0.0
H375 H 0.55127 0.92595 0.91187 0.0
H376 H 0.50014 0.88897 0.65692 0.0
H377 H 0.49805 0.92848 0.58047 0.0
H378 H 0.50858 0.96635 0.82072 0.0
C379 C 0.51623 0.87966 0.9898 0.0
C380 C 0.51792 0.85426 0.97619 0.0
C381 C 0.5145 0.8451 0.89219 0.0
C382 C 0.50959 0.86083 0.82352 0.0
C383 C 0.50837 0.88574 0.83937 0.0
C384 C 0.51178 0.89508 0.92044 0.0
C385 C 0.5113 0.9226 0.91992 0.0
C386 C 0.48982 0.93231 0.97337 0.0
C387 C 0.53587 0.93313 0.95083 0.0
C388 C 0.50736 0.92733 0.82575 0.0
C389 C 0.50532 0.9059 0.78027 0.0
C390 C 0.50171 0.90586 0.69197 0.0
C391 C 0.5005 0.92835 0.64911 0.0
C392 C 0.50331 0.95044 0.69454 0.0
C393 C 0.50654 0.94977 0.78404 0.0
H394 H 0.6684 0.51688 0.95271 0.0
H395 H 0.68818 0.5874 0.84912 0.0
H396 H 0.65759 0.58237 0.73451 0.0
H397 H 0.65432 0.48679 0.74347 0.0
H398 H 0.62866 0.47034 0.78715 0.0
H399 H 0.65446 0.47775 0.85419 0.0
H400 H 0.6255 0.49931 0.96096 0.0
H401 H 0.59969 0.49193 0.89446 0.0
H402 H 0.60556 0.52316 0.92314 0.0
H403 H 0.62193 0.57244 0.64305 0.0
H404 H 0.58286 0.55836 0.58125 0.0
H405 H 0.58573 0.49377 0.74046 0.0
C406 C 0.66666 0.5309 0.90443 0.0
C407 C 0.68068 0.5525 0.9094 0.0
C408 C 0.67756 0.57076 0.84645 0.0
C409 C 0.66035 0.56799 0.78084 0.0
C410 C 0.64639 0.54679 0.77863 0.0
C411 C 0.64935 0.52848 0.83846 0.0
C412 C 0.63039 0.50857 0.82574 0.0
C413 C 0.6427 0.48443 0.80116 0.0
C414 C 0.61434 0.50558 0.90582 0.0
C415 C 0.61587 0.51898 0.75142 0.0
C416 C 0.62567 0.5409 0.72466 0.0
C417 C 0.61436 0.55507 0.66218 0.0
C418 C 0.59215 0.54695 0.62748 0.0
C419 C 0.58146 0.52482 0.65503 0.0
C420 C 0.59384 0.51039 0.71632 0.0
H421 H 0.94595 0.63169 0.95672 0.0
H422 H 0.9783 0.69137 0.8142 0.0
H423 H 0.99393 0.66221 0.70741 0.0
H424 H 0.99374 0.58995 0.92678 0.0
H425 H 0.97414 0.56373 0.91604 0.0
H426 H 0.96416 0.58947 0.97774 0.0
H427 H 0.92496 0.59264 0.88465 0.0
H428 H 0.93491 0.56685 0.82278 0.0
H429 H 0.92779 0.59518 0.77029 0.0
H430 H 0.00785 0.62612 0.61984 0.0
H431 H 0.01969 0.58597 0.56138 0.0
H432 H 0.97785 0.55047 0.76156 0.0
C433 C 0.95595 0.6387 0.90229 0.0
C434 C 0.96093 0.66383 0.89401 0.0
C435 C 0.97452 0.67216 0.82259 0.0
C436 C 0.98328 0.65577 0.76114 0.0
C437 C 0.97818 0.6311 0.77161 0.0
C438 C 0.96477 0.62261 0.84034 0.0
C439 C 0.9628 0.59514 0.83915 0.0
C440 C 0.97441 0.58392 0.91969 0.0
C441 C 0.93603 0.58698 0.82857 0.0
C442 C 0.97765 0.58948 0.7601 0.0
C443 C 0.98616 0.61042 0.72137 0.0
C444 C 1.0011 0.60959 0.64919 0.0
C445 C 0.00774 0.58672 0.61647 0.0
C446 C 0.99955 0.56503 0.65631 0.0
C447 C 0.98408 0.56662 0.72845 0.0
H448 H 0.05076 0.19838 0.32111 0.0
H449 H 0.9733 0.2129 0.295 0.0
H450 H 0.96415 0.17959 0.39636 0.0
H451 H 0.04747 0.13947 0.3054 0.0
H452 H 0.07064 0.13094 0.38182 0.0
H453 H 0.07201 0.16019 0.33104 0.0
H454 H 0.07208 0.18198 0.47768 0.0
H455 H 0.07164 0.15268 0.52969 0.0
H456 H 0.04858 0.175 0.5547 0.0
H457 H 0.96326 0.13879 0.46848 0.0
H458 H 0.97098 0.09698 0.52108 0.0
H459 H 0.04917 0.10923 0.4982 0.0
C460 C 0.03201 0.1954 0.34105 0.0
C461 C 0.01273 0.20824 0.30184 0.0
C462 C 0.98829 0.20353 0.32628 0.0
C463 C 0.98295 0.18453 0.38327 0.0
C464 C 1.00234 0.17086 0.41592 0.0
C465 C 0.02647 0.17654 0.3976 0.0
C466 C 0.04377 0.1572 0.43042 0.0
C467 C 0.05936 0.14632 0.35783 0.0
C468 C 0.05997 0.16732 0.50243 0.0
C469 C 0.02558 0.13893 0.46444 0.0
C470 C 1.00179 0.14723 0.45711 0.0
C471 C 0.98184 0.13238 0.47671 0.0
C472 C 0.98638 0.10858 0.50547 0.0
C473 C 0.01067 0.09989 0.51356 0.0
C474 C 0.0304 0.11541 0.49335 0.0
H475 H 0.32417 0.95694 0.20967 0.0
H476 H 0.27895 0.01897 0.27334 0.0
H477 H 0.31049 0.03305 0.37573 0.0
H478 H 0.35478 0.9494 0.42814 0.0
H479 H 0.3833 0.94145 0.37756 0.0
H480 H 0.35466 0.93322 0.32802 0.0
H481 H 0.36854 0.95531 0.19002 0.0
H482 H 0.39673 0.96447 0.2397 0.0
H483 H 0.3766 0.98711 0.19473 0.0
H484 H 0.3499 0.04458 0.44551 0.0
H485 H 0.39236 0.05034 0.49399 0.0
H486 H 0.41252 0.9809 0.38199 0.0
C487 C 0.32044 0.97275 0.24882 0.0
C488 C 0.29913 0.98675 0.23528 0.0
C489 C 0.29496 0.00781 0.28477 0.0
C490 C 0.31287 0.01599 0.34231 0.0
C491 C 0.33454 0.00268 0.34968 0.0
C492 C 0.33815 0.98116 0.30582 0.0
C493 C 0.36405 0.97182 0.31672 0.0
C494 C 0.3642 0.94753 0.36554 0.0
C495 C 0.37724 0.96956 0.23015 0.0
C496 C 0.37486 0.99206 0.37006 0.0
C497 C 0.35748 0.00952 0.38917 0.0
C498 C 0.36351 0.03075 0.43266 0.0
C499 C 0.38777 0.03394 0.45914 0.0
C500 C 0.4058 0.01604 0.44183 0.0
C501 C 0.39919 0.99489 0.39629 0.0
H502 H 0.54375 0.33285 0.22746 0.0
H503 H 0.49445 0.2845 0.36219 0.0
H504 H 0.49619 0.31134 0.4882 0.0
H505 H 0.57809 0.35805 0.42599 0.0
H506 H 0.57882 0.38783 0.3776 0.0
H507 H 0.5809 0.361 0.31173 0.0
H508 H 0.54403 0.37635 0.22276 0.0
H509 H 0.54136 0.4028 0.289 0.0
H510 H 0.51547 0.38279 0.27578 0.0
H511 H 0.49341 0.34789 0.57899 0.0
H512 H 0.48878 0.38984 0.63229 0.0
H513 H 0.53901 0.41564 0.43803 0.0
C514 C 0.5343 0.32739 0.28518 0.0
C515 C 0.51899 0.30669 0.28553 0.0
C516 C 0.50657 0.3001 0.36125 0.0
C517 C 0.50742 0.31532 0.43301 0.0
C518 C 0.52102 0.33679 0.42806 0.0
C519 C 0.53473 0.34257 0.35658 0.0
C520 C 0.54415 0.36849 0.36053 0.0
C521 C 0.57216 0.36886 0.36954 0.0
C522 C 0.53573 0.38346 0.28245 0.0
C523 C 0.53192 0.37704 0.44168 0.0
C524 C 0.51922 0.35831 0.48093 0.0
C525 C 0.50384 0.3625 0.55029 0.0
C526 C 0.50109 0.38643 0.57943 0.0
C527 C 0.51353 0.40586 0.53886 0.0
C528 C 0.52967 0.40098 0.47091 0.0
H529 H 0.20224 0.53727 0.23046 0.0
H530 H 0.23678 0.46813 0.28652 0.0
H531 H 0.20599 0.46042 0.39928 0.0
H532 H 0.17794 0.55083 0.45397 0.0
H533 H 0.15019 0.5632 0.40923 0.0
H534 H 0.17872 0.56629 0.3524 0.0
H535 H 0.15869 0.54617 0.2201 0.0
H536 H 0.1304 0.54226 0.27681 0.0
H537 H 0.14538 0.51626 0.23008 0.0
H538 H 0.16717 0.45656 0.48217 0.0
H539 H 0.12496 0.45776 0.53687 0.0
H540 H 0.1144 0.52865 0.41972 0.0
C541 C 0.20392 0.52103 0.26932 0.0
C542 C 0.22185 0.50332 0.25069 0.0
C543 C 0.22339 0.48205 0.30115 0.0
C544 C 0.2059 0.47751 0.36483 0.0
C545 C 0.18727 0.49456 0.37716 0.0
C546 C 0.18644 0.51613 0.33175 0.0
C547 C 0.16278 0.52976 0.34735 0.0
C548 C 0.16771 0.55395 0.39352 0.0
C549 C 0.14849 0.53383 0.26362 0.0
C550 C 0.1498 0.51191 0.40507 0.0
C551 C 0.16442 0.49198 0.42295 0.0
C552 C 0.15577 0.47229 0.47003 0.0
C553 C 0.13167 0.47308 0.50016 0.0
C554 C 0.11635 0.4933 0.48224 0.0
C555 C 0.12566 0.51298 0.43445 0.0
H556 H 0.98046 0.78612 0.87973 0.0
H557 H 0.04834 0.79244 0.02081 0.0
H558 H 0.0595 0.82862 0.93556 0.0
H559 H 0.0044 0.81395 0.66696 0.0
H560 H 0.97537 0.82887 0.65125 0.0
H561 H 0.97659 0.7994 0.70201 0.0
H562 H 0.9529 0.81687 0.83125 0.0
H563 H 0.95211 0.84646 0.783 0.0
H564 H 0.96523 0.8427 0.88788 0.0
H565 H 0.0583 0.86909 0.86188 0.0
H566 H 0.04615 0.90855 0.79773 0.0
H567 H 0.97836 0.87594 0.70972 0.0
C568 C 0.99838 0.79417 0.88871 0.0
C569 C 0.01368 0.78642 0.9559 0.0
C570 C 0.03653 0.79803 0.96875 0.0
C571 C 0.04298 0.81859 0.92069 0.0
C572 C 0.02651 0.82704 0.8594 0.0
C573 C 0.00491 0.8148 0.84174 0.0
C574 C 0.98853 0.82953 0.7834 0.0
C575 C 0.98608 0.81721 0.6957 0.0
C576 C 0.96323 0.83416 0.82389 0.0
C577 C 0.0033 0.85268 0.77699 0.0
C578 C 0.02548 0.85073 0.81884 0.0
C579 C 0.04123 0.87062 0.82714 0.0
C580 C 0.03412 0.89299 0.79134 0.0
C581 C 0.01123 0.8953 0.74978 0.0
C582 C 0.9959 0.87478 0.74179 0.0
H583 H 0.69235 0.03108 0.97439 0.0
H584 H 0.72482 0.96449 0.87906 0.0
H585 H 0.69447 0.96346 0.76276 0.0
H586 H 0.63592 0.01176 0.96549 0.0
H587 H 0.62092 0.0396 0.93417 0.0
H588 H 0.6496 0.0408 0.98988 0.0
H589 H 0.66895 0.06621 0.86799 0.0
H590 H 0.64001 0.0658 0.81246 0.0
H591 H 0.66733 0.05532 0.75955 0.0
H592 H 0.65525 0.96311 0.68476 0.0
H593 H 0.612 0.96547 0.6415 0.0
H594 H 0.60317 0.0313 0.79119 0.0
C595 C 0.69374 0.01695 0.92642 0.0
C596 C 0.71091 0.9979 0.93544 0.0
C597 C 0.7121 0.9795 0.87251 0.0
C598 C 0.69479 0.9787 0.80646 0.0
C599 C 0.67665 0.99656 0.80406 0.0
C600 C 0.67629 0.01568 0.86141 0.0
C601 C 0.65265 0.03001 0.8551 0.0
C602 C 0.63899 0.03054 0.94123 0.0
C603 C 0.65753 0.05587 0.82175 0.0
C604 C 0.63907 0.01496 0.78961 0.0
C605 C 0.65345 0.9961 0.75956 0.0
C606 C 0.64405 0.97817 0.70602 0.0
C607 C 0.61936 0.9795 0.68274 0.0
C608 C 0.60427 0.99855 0.71334 0.0
C609 C 0.6144 0.01673 0.76613 0.0
H610 H 0.47825 0.69941 0.96939 0.0
H611 H 0.5451 0.73728 0.90131 0.0
H612 H 0.55258 0.70727 0.787 0.0
H613 H 0.50257 0.64366 0.96402 0.0
H614 H 0.4764 0.62765 0.92197 0.0
H615 H 0.47213 0.65536 0.98087 0.0
H616 H 0.44861 0.67461 0.85387 0.0
H617 H 0.45217 0.64665 0.79498 0.0
H618 H 0.4624 0.67501 0.74932 0.0
H619 H 0.55695 0.66938 0.7014 0.0
H620 H 0.55677 0.62772 0.64373 0.0
H621 H 0.48831 0.61304 0.77487 0.0
C622 C 0.494 0.70186 0.9283 0.0
C623 C 0.51109 0.72063 0.94384 0.0
C624 C 0.53158 0.72326 0.88947 0.0
C625 C 0.53603 0.7062 0.82476 0.0
C626 C 0.51971 0.68685 0.81531 0.0
C627 C 0.49888 0.6848 0.86477 0.0
C628 C 0.48612 0.66066 0.85069 0.0
C629 C 0.48422 0.64598 0.93434 0.0
C630 C 0.46083 0.66447 0.80975 0.0
C631 C 0.50369 0.64892 0.7888 0.0
C632 C 0.52265 0.66451 0.76784 0.0
C633 C 0.54196 0.65719 0.71606 0.0
C634 C 0.54177 0.6334 0.68426 0.0
C635 C 0.52255 0.61711 0.70521 0.0
C636 C 0.50325 0.62507 0.75788 0.0
H637 H 0.80475 0.53066 0.8965 0.0
H638 H 0.80582 0.45819 0.00482 0.0
H639 H 0.84236 0.44824 0.91887 0.0
H640 H 0.83346 0.51412 0.67756 0.0
H641 H 0.85029 0.54233 0.67839 0.0
H642 H 0.82023 0.54087 0.72558 0.0
H643 H 0.83835 0.55771 0.86661 0.0
H644 H 0.86854 0.55833 0.82166 0.0
H645 H 0.86291 0.54146 0.91845 0.0
H646 H 0.8836 0.44963 0.84997 0.0
H647 H 0.92408 0.46091 0.7912 0.0
H648 H 0.89658 0.53322 0.73381 0.0
C649 C 0.81174 0.51221 0.89748 0.0
C650 C 0.80232 0.495 0.95554 0.0
C651 C 0.81258 0.47137 0.95904 0.0
C652 C 0.83339 0.46565 0.91084 0.0
C653 C 0.84351 0.48372 0.85921 0.0
C654 C 0.83267 0.50639 0.85059 0.0
C655 C 0.84905 0.52382 0.80222 0.0
C656 C 0.83757 0.53068 0.7158 0.0
C657 C 0.85506 0.54665 0.85546 0.0
C658 C 0.87136 0.50799 0.79023 0.0
C659 C 0.86769 0.48477 0.82161 0.0
C660 C 0.88648 0.46758 0.82329 0.0
C661 C 0.90947 0.47422 0.79071 0.0
C662 C 0.91349 0.49795 0.75831 0.0
C663 C 0.89411 0.51492 0.75812 0.0
H664 H 0.99685 0.19971 0.9521 0.0
H665 H 0.07146 0.19345 0.04213 0.0
H666 H 0.0765 0.15539 0.95959 0.0
H667 H 0.98221 0.14138 0.98241 0.0
H668 H 0.96266 0.13735 0.89071 0.0
H669 H 0.96656 0.16711 0.93612 0.0
H670 H 0.98124 0.18424 0.79058 0.0
H671 H 0.97659 0.15465 0.74361 0.0
H672 H 0.00596 0.1694 0.73494 0.0
H673 H 0.07093 0.11463 0.88776 0.0
H674 H 0.056 0.07603 0.82453 0.0
H675 H 0.98422 0.10848 0.79011 0.0
C676 C 0.01465 0.19105 0.94999 0.0
C677 C 0.03403 0.19974 0.00087 0.0
C678 C 0.05671 0.18732 0.00115 0.0
C679 C 0.05963 0.16563 0.95505 0.0
C680 C 0.03966 0.15667 0.90938 0.0
C681 C 0.0177 0.16922 0.90537 0.0
C682 C 0.99807 0.15427 0.86176 0.0
C683 C 0.9761 0.14977 0.92133 0.0
C684 C 0.99 0.16636 0.77772 0.0
C685 C 0.01208 0.13104 0.84517 0.0
C686 C 0.03613 0.13283 0.87157 0.0
C687 C 0.05221 0.11316 0.86571 0.0
C688 C 0.04353 0.09125 0.83049 0.0
C689 C 0.01892 0.08916 0.80302 0.0
C690 C 0.00311 0.10937 0.81096 0.0
H691 H 0.32104 0.01526 0.95473 0.0
H692 H 0.28887 0.9468 0.87488 0.0
H693 H 0.32233 0.94137 0.77033 0.0
H694 H 0.34748 0.03337 0.74165 0.0
H695 H 0.3744 0.04588 0.79181 0.0
H696 H 0.34541 0.04663 0.84668 0.0
H697 H 0.36531 0.02448 0.97535 0.0
H698 H 0.39414 0.02301 0.92024 0.0
H699 H 0.38 0.99548 0.95899 0.0
H700 H 0.36249 0.94005 0.69364 0.0
H701 H 0.40414 0.94491 0.63682 0.0
H702 H 0.41106 0.01408 0.76874 0.0
C703 C 0.32059 0.99954 0.91303 0.0
C704 C 0.3023 0.98147 0.9225 0.0
C705 C 0.30243 0.96104 0.86762 0.0
C706 C 0.32151 0.95772 0.80868 0.0
C707 C 0.34011 0.97513 0.80502 0.0
C708 C 0.33955 0.99591 0.8545 0.0
C709 C 0.3628 0.01074 0.84406 0.0
C710 C 0.35718 0.03563 0.80362 0.0
C711 C 0.37635 0.01358 0.92975 0.0
C712 C 0.37695 0.99465 0.78316 0.0
C713 C 0.36343 0.9743 0.76108 0.0
C714 C 0.37305 0.95611 0.70933 0.0
C715 C 0.39688 0.95899 0.67796 0.0
C716 C 0.41098 0.97991 0.69827 0.0
C717 C 0.4008 0.99791 0.75193 0.0
H718 H 0.52833 0.31914 0.94596 0.0
H719 H 0.45325 0.32546 0.02997 0.0
H720 H 0.44943 0.36471 0.95283 0.0
H721 H 0.54407 0.37682 0.98422 0.0
H722 H 0.56409 0.38136 0.89414 0.0
H723 H 0.55938 0.35124 0.93589 0.0
H724 H 0.54514 0.33591 0.7878 0.0
H725 H 0.55028 0.36583 0.74387 0.0
H726 H 0.52077 0.35151 0.73279 0.0
H727 H 0.4563 0.40635 0.88583 0.0
H728 H 0.47216 0.4449 0.82471 0.0
H729 H 0.54351 0.41136 0.79356 0.0
C730 C 0.5107 0.32814 0.94349 0.0
C731 C 0.49079 0.31904 0.99079 0.0
C732 C 0.46834 0.33184 0.99108 0.0
C733 C 0.46615 0.35423 0.94827 0.0
C734 C 0.48662 0.36345 0.90591 0.0
C735 C 0.50835 0.35054 0.9019 0.0
C736 C 0.52848 0.36547 0.86125 0.0
C737 C 0.55027 0.36892 0.92256 0.0
C738 C 0.53665 0.354 0.77638 0.0
C739 C 0.51506 0.38914 0.84644 0.0
C740 C 0.49085 0.38761 0.87113 0.0
C741 C 0.47517 0.40762 0.86536 0.0
C742 C 0.48439 0.42951 0.83148 0.0
C743 C 0.50914 0.43128 0.8052 0.0
C744 C 0.52458 0.4108 0.81383 0.0
H745 H 0.19466 0.48088 0.96035 0.0
H746 H 0.22986 0.55005 0.91002 0.0
H747 H 0.19496 0.56207 0.81787 0.0
H748 H 0.16471 0.47395 0.74403 0.0
H749 H 0.13791 0.46034 0.79117 0.0
H750 H 0.1675 0.45591 0.83983 0.0
H751 H 0.15019 0.47252 0.98238 0.0
H752 H 0.12083 0.47779 0.93366 0.0
H753 H 0.1368 0.5025 0.98501 0.0
H754 H 0.15365 0.56882 0.75167 0.0
H755 H 0.11148 0.56795 0.69657 0.0
H756 H 0.10299 0.49384 0.78888 0.0
C757 C 0.19544 0.4981 0.92671 0.0
C758 C 0.21502 0.51446 0.94074 0.0
C759 C 0.21526 0.53714 0.89819 0.0
C760 C 0.1954 0.54415 0.84664 0.0
C761 C 0.17571 0.52811 0.83791 0.0
C762 C 0.17586 0.50529 0.87499 0.0
C763 C 0.15181 0.49211 0.86031 0.0
C764 C 0.15572 0.46922 0.80556 0.0
C765 C 0.13918 0.48588 0.94541 0.0
C766 C 0.13774 0.51139 0.81164 0.0
C767 C 0.1519 0.53198 0.79934 0.0
C768 C 0.14258 0.55264 0.75956 0.0
C769 C 0.11846 0.55199 0.72912 0.0
C770 C 0.10383 0.53079 0.73818 0.0
C771 C 0.11361 0.51033 0.78106 0.0
H772 H 0.02176 0.78839 0.27811 0.0
H773 H 0.94369 0.78823 0.23083 0.0
H774 H 0.93893 0.82386 0.32567 0.0
H775 H 0.01919 0.81377 0.5063 0.0
H776 H 0.04646 0.83141 0.48706 0.0
H777 H 0.04257 0.80227 0.43594 0.0
H778 H 0.04948 0.8228 0.28896 0.0
H779 H 0.05263 0.85208 0.33857 0.0
H780 H 0.02989 0.84756 0.25663 0.0
H781 H 0.94417 0.86458 0.39842 0.0
H782 H 0.95833 0.90399 0.45699 0.0
H783 H 0.03322 0.87771 0.45209 0.0
C784 C 0.00353 0.79509 0.29168 0.0
C785 C 0.98306 0.78546 0.2483 0.0
C786 C 0.95951 0.79503 0.26511 0.0
C787 C 0.9567 0.81542 0.31826 0.0
C788 C 0.97758 0.82571 0.35484 0.0
C789 C 1.0005 0.81545 0.344 0.0
C790 C 0.02039 0.83151 0.38077 0.0
C791 C 0.03289 0.81899 0.45707 0.0
C792 C 0.03918 0.83892 0.31212 0.0
C793 C 0.00531 0.85304 0.40944 0.0
C794 C 0.98062 0.84928 0.39541 0.0
C795 C 0.96341 0.86748 0.41139 0.0
C796 C 0.97164 0.8899 0.44376 0.0
C797 C 0.99689 0.89398 0.45889 0.0
C798 C 0.01379 0.8752 0.4415 0.0
H799 H 0.69142 0.0275 0.23072 0.0
H800 H 0.70265 0.9503 0.26993 0.0
H801 H 0.66465 0.94843 0.35646 0.0
H802 H 0.66285 0.04096 0.44262 0.0
H803 H 0.64217 0.06263 0.39486 0.0
H804 H 0.67213 0.05802 0.34968 0.0
H805 H 0.65191 0.04884 0.20333 0.0
H806 H 0.62188 0.05252 0.24852 0.0
H807 H 0.62984 0.02455 0.19526 0.0
H808 H 0.62203 0.95445 0.42149 0.0
H809 H 0.58206 0.9688 0.47645 0.0
H810 H 0.59922 0.04195 0.39074 0.0
C811 C 0.6864 0.01043 0.26076 0.0
C812 C 0.70009 0.98911 0.2451 0.0
C813 C 0.69269 0.96692 0.28308 0.0
C814 C 0.67098 0.96567 0.33129 0.0
C815 C 0.65708 0.98683 0.34118 0.0
C816 C 0.66486 0.00891 0.3085 0.0
C817 C 0.64607 0.0287 0.32277 0.0
C818 C 0.65642 0.04876 0.38097 0.0
C819 C 0.63689 0.03926 0.2374 0.0
C820 C 0.62621 0.01431 0.3672 0.0
C821 C 0.63278 0.99019 0.37733 0.0
C822 C 0.61687 0.97336 0.41458 0.0
C823 C 0.59406 0.98161 0.44466 0.0
C824 C 0.58745 0.00648 0.43755 0.0
C825 C 0.60369 0.02282 0.39705 0.0
H826 H 0.53524 0.69533 0.23343 0.0
H827 H 0.46737 0.7327 0.28902 0.0
H828 H 0.45477 0.69854 0.38285 0.0
H829 H 0.51112 0.63921 0.20885 0.0
H830 H 0.53555 0.62205 0.25749 0.0
H831 H 0.54185 0.65118 0.20986 0.0
H832 H 0.56021 0.66714 0.35189 0.0
H833 H 0.55487 0.6377 0.39932 0.0
H834 H 0.54265 0.66466 0.44897 0.0
H835 H 0.44697 0.65768 0.44986 0.0
H836 H 0.44669 0.61549 0.50341 0.0
H837 H 0.51981 0.60451 0.40202 0.0
C838 C 0.51828 0.69677 0.26891 0.0
C839 C 0.5024 0.71671 0.25589 0.0
C840 C 0.47995 0.71781 0.30033 0.0
C841 C 0.4726 0.69838 0.35281 0.0
C842 C 0.48806 0.67826 0.36023 0.0
C843 C 0.51073 0.67759 0.32118 0.0
C844 C 0.52305 0.65312 0.33349 0.0
C845 C 0.52818 0.64067 0.24729 0.0
C846 C 0.54659 0.65582 0.38659 0.0
C847 C 0.50343 0.63978 0.38294 0.0
C848 C 0.48347 0.65462 0.39808 0.0
C849 C 0.46268 0.64605 0.43966 0.0
C850 C 0.46263 0.62195 0.46914 0.0
C851 C 0.48323 0.60664 0.45689 0.0
C852 C 0.50373 0.61566 0.412 0.0
H853 H 0.81048 0.48177 0.27313 0.0
H854 H 0.80578 0.55999 0.24345 0.0
H855 H 0.84242 0.56494 0.33491 0.0
H856 H 0.83678 0.48153 0.49776 0.0
H857 H 0.8558 0.45575 0.47223 0.0
H858 H 0.82631 0.45916 0.42187 0.0
H859 H 0.84731 0.45617 0.27383 0.0
H860 H 0.87688 0.45359 0.32331 0.0
H861 H 0.87121 0.47745 0.24669 0.0
H862 H 0.88407 0.56056 0.40781 0.0
H863 H 0.92383 0.5474 0.46896 0.0
H864 H 0.90108 0.47202 0.44545 0.0
C865 C 0.8165 0.49998 0.28938 0.0
C866 C 0.80514 0.52051 0.25228 0.0
C867 C 0.81388 0.54405 0.27289 0.0
C868 C 0.83486 0.54701 0.32403 0.0
C869 C 0.84666 0.52623 0.3548 0.0
C870 C 0.83739 0.50318 0.33981 0.0
C871 C 0.85457 0.48366 0.37238 0.0
C872 C 0.84266 0.46917 0.44542 0.0
C873 C 0.86298 0.46674 0.29971 0.0
C874 C 0.87543 0.49921 0.40475 0.0
C875 C 0.87054 0.52373 0.39514 0.0
C876 C 0.88787 0.5414 0.41686 0.0
C877 C 0.9105 0.53376 0.4507 0.0
C878 C 0.91565 0.50868 0.46182 0.0
C879 C 0.89779 0.49134 0.43808 0.0
loop_
_geom_bond_atom_site_label_1
_geom_bond_atom_site_label_2
_geom_bond_distance
_geom_bond_site_symmetry_2
_ccdc_geom_bond_type
H0 C1 0.949 . S
C1 H0 0.949 . S
C1 C2 1.395 . S
C1 C3 1.391 1_556 S
C2 C1 1.395 . S
C2 C5 1.390 1_556 S
C3 C1 1.391 1_554 S
C3 C7 1.387 . S
C3 C8 1.491 . S
H4 C5 0.950 . S
C5 C2 1.390 1_554 S
C5 H4 0.950 . S
C5 C6 1.378 . S
C6 C5 1.378 . S
C6 C7 1.409 . S
C7 C3 1.387 . S
C7 C6 1.409 . S
C7 H9 0.951 . S
C8 C3 1.491 . S
C8 C10 1.382 1_554 S
C8 C12 1.404 . S
H9 C7 0.951 . S
C10 C8 1.382 1_556 S
C10 C11 1.390 . S
C10 H15 0.949 . S
C11 C10 1.390 . S
C11 C16 1.399 1_556 S
C12 C8 1.404 . S
C12 H13 0.950 . S
C12 C14 1.375 . S
H13 C12 0.950 . S
C14 C12 1.375 . S
C14 C16 1.382 . S
C14 H18 0.950 . S
H15 C10 0.949 . S
C16 C11 1.399 1_554 S
C16 C14 1.382 . S
C16 H17 0.952 . S
H17 C16 0.952 . S
H18 C14 0.950 . S
H19 C20 0.949 . S
C20 H19 0.949 . S
C20 C21 1.395 . S
C20 C22 1.391 1_556 S
C21 C20 1.395 . S
C21 C24 1.390 1_556 S
C22 C20 1.391 1_554 S
C22 C26 1.387 . S
C22 C27 1.491 . S
H23 C24 0.950 . S
C24 C21 1.390 1_554 S
C24 H23 0.950 . S
C24 C25 1.378 . S
C25 C24 1.378 . S
C25 C26 1.409 . S
C26 C22 1.387 . S
C26 C25 1.409 . S
C26 H28 0.951 . S
C27 C22 1.491 . S
C27 C29 1.382 1_554 S
C27 C31 1.404 . S
H28 C26 0.951 . S
C29 C27 1.382 1_556 S
C29 C30 1.390 . S
C29 H34 0.949 . S
C30 C29 1.390 . S
C30 C35 1.399 1_556 S
C31 C27 1.404 . S
C31 H32 0.950 . S
C31 C33 1.375 . S
H32 C31 0.950 . S
C33 C31 1.375 . S
C33 C35 1.382 . S
C33 H37 0.950 . S
H34 C29 0.949 . S
C35 C30 1.399 1_554 S
C35 C33 1.382 . S
C35 H36 0.952 . S
H36 C35 0.952 . S
H37 C33 0.950 . S
H38 C39 0.949 . S
C39 H38 0.949 . S
C39 C40 1.395 . S
C39 C41 1.391 1_556 S
C40 C39 1.395 . S
C40 C43 1.390 1_556 S
C41 C39 1.391 1_554 S
C41 C45 1.387 . S
C41 C46 1.491 . S
H42 C43 0.950 . S
C43 C40 1.390 1_554 S
C43 H42 0.950 . S
C43 C44 1.378 . S
C44 C43 1.378 . S
C44 C45 1.409 . S
C45 C41 1.387 . S
C45 C44 1.409 . S
C45 H47 0.951 . S
C46 C41 1.491 . S
C46 C48 1.382 1_554 S
C46 C50 1.404 . S
H47 C45 0.951 . S
C48 C46 1.382 1_556 S
C48 C49 1.390 . S
C48 H53 0.949 . S
C49 C48 1.390 . S
C49 C54 1.399 1_556 S
C50 C46 1.404 . S
C50 H51 0.950 . S
C50 C52 1.375 . S
H51 C50 0.950 . S
C52 C50 1.375 . S
C52 C54 1.382 . S
C52 H56 0.950 . S
H53 C48 0.949 . S
C54 C49 1.399 1_554 S
C54 C52 1.382 . S
C54 H55 0.952 . S
H55 C54 0.952 . S
H56 C52 0.950 . S
H57 C58 0.949 . S
C58 H57 0.949 . S
C58 C59 1.395 . S
C58 C60 1.391 1_556 S
C59 C58 1.395 . S
C59 C62 1.390 1_556 S
C60 C58 1.391 1_554 S
C60 C64 1.387 . S
C60 C65 1.491 . S
H61 C62 0.950 . S
C62 C59 1.390 1_554 S
C62 H61 0.950 . S
C62 C63 1.378 . S
C63 C62 1.378 . S
C63 C64 1.409 . S
C64 C60 1.387 . S
C64 C63 1.409 . S
C64 H66 0.951 . S
C65 C60 1.491 . S
C65 C67 1.382 1_554 S
C65 C69 1.404 . S
H66 C64 0.951 . S
C67 C65 1.382 1_556 S
C67 C68 1.390 . S
C67 H72 0.949 . S
C68 C67 1.390 . S
C68 C73 1.399 1_556 S
C69 C65 1.404 . S
C69 H70 0.950 . S
C69 C71 1.375 . S
H70 C69 0.950 . S
C71 C69 1.375 . S
C71 C73 1.382 . S
C71 H75 0.950 . S
H72 C67 0.949 . S
C73 C68 1.399 1_554 S
C73 C71 1.382 . S
C73 H74 0.952 . S
H74 C73 0.952 . S
H75 C71 0.950 . S
H76 C77 0.949 . S
C77 H76 0.949 . S
C77 C78 1.395 . S
C77 C79 1.391 . S
C78 C77 1.395 . S
C78 C81 1.390 . S
C79 C77 1.391 . S
C79 C83 1.387 . S
C79 C84 1.491 . S
H80 C81 0.950 . S
C81 C78 1.390 . S
C81 H80 0.950 . S
C81 C82 1.378 . S
C82 C81 1.378 . S
C82 C83 1.409 . S
C83 C79 1.387 . S
C83 C82 1.409 . S
C83 H85 0.951 . S
C84 C79 1.491 . S
C84 C86 1.382 . S
C84 C88 1.404 . S
H85 C83 0.951 . S
C86 C84 1.382 . S
C86 C87 1.390 . S
C86 H91 0.949 . S
C87 C86 1.390 . S
C87 C92 1.399 . S
C88 C84 1.404 . S
C88 H89 0.950 . S
C88 C90 1.375 . S
H89 C88 0.950 . S
C90 C88 1.375 . S
C90 C92 1.382 . S
C90 H94 0.950 . S
H91 C86 0.949 . S
C92 C87 1.399 . S
C92 C90 1.382 . S
C92 H93 0.952 . S
H93 C92 0.952 . S
H94 C90 0.950 . S
H95 C96 0.949 . S
C96 H95 0.949 . S
C96 C97 1.395 . S
C96 C98 1.391 . S
C97 C96 1.395 . S
C97 C100 1.390 . S
C98 C96 1.391 . S
C98 C102 1.387 . S
C98 C103 1.491 . S
H99 C100 0.950 . S
C100 C97 1.390 . S
C100 H99 0.950 . S
C100 C101 1.378 . S
C101 C100 1.378 . S
C101 C102 1.409 . S
C102 C98 1.387 . S
C102 C101 1.409 . S
C102 H104 0.951 . S
C103 C98 1.491 . S
C103 C105 1.382 . S
C103 C107 1.404 1_455 S
H104 C102 0.951 . S
C105 C103 1.382 . S
C105 C106 1.390 . S
C105 H110 0.949 . S
C106 C105 1.390 . S
C106 C111 1.416 . S
C107 C103 1.404 1_655 S
C107 H108 0.950 . S
C107 C109 1.375 . S
H108 C107 0.950 . S
C109 C107 1.375 . S
C109 C111 1.371 1_655 S
C109 H113 0.950 . S
H110 C105 0.949 . S
C111 C106 1.416 . S
C111 C109 1.371 1_455 S
C111 H112 0.946 1_455 S
H112 C111 0.946 1_655 S
H113 C109 0.950 . S
H114 C115 0.949 . S
C115 H114 0.949 . S
C115 C116 1.395 . S
C115 C117 1.391 . S
C116 C115 1.395 . S
C116 C119 1.390 . S
C117 C115 1.391 . S
C117 C121 1.387 . S
C117 C122 1.491 . S
H118 C119 0.950 . S
C119 C116 1.390 . S
C119 H118 0.950 . S
C119 C120 1.378 . S
C120 C119 1.378 . S
C120 C121 1.409 . S
C121 C117 1.387 . S
C121 C120 1.409 . S
C121 H123 0.951 . S
C122 C117 1.491 . S
C122 C124 1.382 . S
C122 C126 1.404 1_545 S
H123 C121 0.951 . S
C124 C122 1.382 . S
C124 C125 1.390 . S
C124 H129 0.949 . S
C125 C124 1.390 . S
C125 C130 1.396 . S
C126 C122 1.404 1_565 S
C126 H127 0.950 . S
C126 C128 1.375 . S
H127 C126 0.950 . S
C128 C126 1.375 . S
C128 C130 1.385 1_565 S
C128 H132 0.950 . S
H129 C124 0.949 . S
C130 C125 1.396 . S
C130 C128 1.385 1_545 S
C130 H131 0.953 1_545 S
H131 C130 0.953 1_565 S
H132 C128 0.950 . S
H133 C134 0.949 . S
C134 H133 0.949 . S
C134 C135 1.395 . S
C134 C136 1.391 . S
C135 C134 1.395 . S
C135 C138 1.390 . S
C136 C134 1.391 . S
C136 C140 1.387 . S
C136 C141 1.491 . S
H137 C138 0.950 . S
C138 C135 1.390 . S
C138 H137 0.950 . S
C138 C139 1.378 . S
C139 C138 1.378 . S
C139 C140 1.409 . S
C140 C136 1.387 . S
C140 C139 1.409 . S
C140 H142 0.951 . S
C141 C136 1.491 . S
C141 C143 1.382 . S
C141 C145 1.404 . S
H142 C140 0.951 . S
C143 C141 1.382 . S
C143 C144 1.390 . S
C143 H148 0.949 . S
C144 C143 1.390 . S
C144 C149 1.399 . S
C145 C141 1.404 . S
C145 H146 0.950 . S
C145 C147 1.375 . S
H146 C145 0.950 . S
C147 C145 1.375 . S
C147 C149 1.382 . S
C147 H151 0.950 . S
H148 C143 0.949 . S
C149 C144 1.399 . S
C149 C147 1.382 . S
C149 H150 0.952 . S
H150 C149 0.952 . S
H151 C147 0.950 . S
Zn152 O158 1.969 1_455 S
Zn152 O159 1.965 . S
Zn152 O163 2.024 . S
Zn152 O168 1.969 1_455 S
Zn153 O160 1.969 . S
Zn153 O166 1.969 . S
Zn153 O167 1.965 1_455 S
Zn153 O169 2.024 1_455 S
C154 O155 1.229 1_455 S
C154 O163 1.058 . S
O155 C154 1.229 1_655 S
C156 O157 1.229 1_655 S
C156 O169 1.058 . S
O157 C156 1.229 1_455 S
O158 Zn152 1.969 1_655 S
O158 C161 1.267 1_655 S
O159 Zn152 1.965 . S
O159 C170 1.260 . S
O160 Zn153 1.969 . S
O160 C170 1.258 1_565 S
C161 O158 1.267 1_455 S
C161 O162 1.228 . S
O162 C161 1.228 . S
O163 Zn152 2.024 . S
O163 C154 1.058 . S
C164 O165 1.228 1_455 S
C164 O166 1.267 . S
O165 C164 1.228 1_655 S
O166 Zn153 1.969 . S
O166 C164 1.267 . S
O167 Zn153 1.965 1_655 S
O167 C171 1.260 1_565 S
O168 Zn152 1.969 1_655 S
O168 C171 1.258 . S
O169 Zn153 2.024 1_655 S
O169 C156 1.058 . S
C170 O159 1.260 . S
C170 O160 1.258 1_545 S
C171 O167 1.260 1_545 S
C171 O168 1.258 . S
Zn172 O178 1.969 1_545 S
Zn172 O179 1.965 . S
Zn172 O183 2.024 . S
Zn172 O188 1.969 1_545 S
Zn173 O180 1.969 . S
Zn173 O186 1.969 . S
Zn173 O187 1.965 1_545 S
Zn173 O189 2.024 1_545 S
C174 O175 1.229 1_545 S
C174 O183 1.058 . S
O175 C174 1.229 1_565 S
C176 O177 1.229 1_565 S
C176 O189 1.058 . S
O177 C176 1.229 1_545 S
O178 Zn172 1.969 1_565 S
O178 C181 1.267 1_565 S
O179 Zn172 1.965 . S
O179 C190 1.260 . S
O180 Zn173 1.969 . S
O180 C190 1.258 . S
C181 O178 1.267 1_545 S
C181 O182 1.228 . S
O182 C181 1.228 . S
O183 Zn172 2.024 . S
O183 C174 1.058 . S
C184 O185 1.228 1_545 S
C184 O186 1.267 . S
O185 C184 1.228 1_565 S
O186 Zn173 1.969 . S
O186 C184 1.267 . S
O187 Zn173 1.965 1_565 S
O187 C191 1.260 . S
O188 Zn172 1.969 1_565 S
O188 C191 1.258 . S
O189 Zn173 2.024 1_565 S
O189 C176 1.058 . S
C190 O179 1.260 . S
C190 O180 1.258 . S
C191 O187 1.260 . S
C191 O188 1.258 . S
Zn192 O198 1.969 . S
Zn192 O199 1.965 . S
Zn192 O203 2.024 . S
Zn192 O208 1.969 . S
Zn193 O200 1.969 . S
Zn193 O206 1.969 . S
Zn193 O207 1.965 . S
Zn193 O209 2.024 . S
C194 O195 1.229 . S
C194 O203 1.058 . S
O195 C194 1.229 . S
C196 O197 1.229 . S
C196 O209 1.058 . S
O197 C196 1.229 . S
O198 Zn192 1.969 . S
O198 C201 1.267 . S
O199 Zn192 1.965 . S
O199 C210 1.260 . S
O200 Zn193 1.969 . S
O200 C210 1.258 . S
C201 O198 1.267 . S
C201 O202 1.228 . S
O202 C201 1.228 . S
O203 Zn192 2.024 . S
O203 C194 1.058 . S
C204 O205 1.228 . S
C204 O206 1.267 . S
O205 C204 1.228 . S
O206 Zn193 1.969 . S
O206 C204 1.267 . S
O207 Zn193 1.965 . S
O207 C211 1.260 . S
O208 Zn192 1.969 . S
O208 C211 1.258 . S
O209 Zn193 2.024 . S
O209 C196 1.058 . S
C210 O199 1.260 . S
C210 O200 1.258 . S
C211 O207 1.260 . S
C211 O208 1.258 . S
Zn212 O218 1.969 . S
Zn212 O219 1.965 . S
Zn212 O223 2.024 . S
Zn212 O228 1.969 . S
Zn213 O220 1.969 . S
Zn213 O226 1.969 . S
Zn213 O227 1.965 . S
Zn213 O229 2.024 . S
C214 O215 1.229 . S
C214 O223 1.058 . S
O215 C214 1.229 . S
C216 O217 1.229 . S
C216 O229 1.058 . S
O217 C216 1.229 . S
O218 Zn212 1.969 . S
O218 C221 1.267 . S
O219 Zn212 1.965 . S
O219 C230 1.260 . S
O220 Zn213 1.969 . S
O220 C230 1.258 1_655 S
C221 O218 1.267 . S
C221 O222 1.228 . S
O222 C221 1.228 . S
O223 Zn212 2.024 . S
O223 C214 1.058 . S
C224 O225 1.228 . S
C224 O226 1.267 . S
O225 C224 1.228 . S
O226 Zn213 1.969 . S
O226 C224 1.267 . S
O227 Zn213 1.965 . S
O227 C231 1.260 1_655 S
O228 Zn212 1.969 . S
O228 C231 1.258 . S
O229 Zn213 2.024 . S
O229 C216 1.058 . S
C230 O219 1.260 . S
C230 O220 1.258 1_455 S
C231 O227 1.260 1_455 S
C231 O228 1.258 . S
H232 C244 0.930 1_565 S
H233 C246 0.930 . S
H234 C247 0.930 . S
H235 C251 0.959 . S
H236 C251 0.959 . S
H237 C251 0.961 . S
H238 C252 0.960 . S
H239 C252 0.961 . S
H240 C252 0.959 1_545 S
H241 C255 0.929 . S
H242 C256 0.931 . S
H243 C258 0.930 . S
C244 H232 0.930 1_545 S
C244 C245 1.399 . S
C244 C249 1.399 . S
C245 C244 1.399 . S
C245 C246 1.376 . S
C246 H233 0.930 . S
C246 C245 1.376 . S
C246 C247 1.388 . S
C247 H234 0.930 . S
C247 C246 1.388 . S
C247 C248 1.390 . S
C248 C247 1.390 . S
C248 C249 1.394 . S
C248 C254 1.465 . S
C249 C244 1.399 . S
C249 C248 1.394 . S
C249 C250 1.516 1_545 S
C250 C249 1.516 1_565 S
C250 C251 1.502 . S
C250 C252 1.561 . S
C250 C253 1.526 1_565 S
C251 H235 0.959 . S
C251 H236 0.959 . S
C251 H237 0.961 . S
C251 C250 1.502 . S
C252 H238 0.960 . S
C252 H239 0.961 . S
C252 H240 0.959 1_565 S
C252 C250 1.561 . S
C253 C250 1.526 1_545 S
C253 C254 1.396 . S
C253 C258 1.390 1_545 S
C254 C248 1.465 . S
C254 C253 1.396 . S
C254 C255 1.399 . S
C255 H241 0.929 . S
C255 C254 1.399 . S
C255 C256 1.385 . S
C256 H242 0.931 . S
C256 C255 1.385 . S
C256 C257 1.389 . S
C257 C256 1.389 . S
C257 C258 1.387 1_545 S
C258 H243 0.930 . S
C258 C253 1.390 1_565 S
C258 C257 1.387 1_565 S
H259 C271 0.930 . S
H260 C273 0.930 . S
H261 C274 0.930 . S
H262 C278 0.959 . S
H263 C278 0.959 . S
H264 C278 0.961 . S
H265 C279 0.960 . S
H266 C279 0.961 . S
H267 C279 0.959 . S
H268 C282 0.929 . S
H269 C283 0.931 . S
H270 C285 0.930 . S
C271 H259 0.930 . S
C271 C272 1.399 . S
C271 C276 1.399 . S
C272 C271 1.399 . S
C272 C273 1.376 . S
C273 H260 0.930 . S
C273 C272 1.376 . S
C273 C274 1.388 . S
C274 H261 0.930 . S
C274 C273 1.388 . S
C274 C275 1.390 . S
C275 C274 1.390 . S
C275 C276 1.394 . S
C275 C281 1.465 . S
C276 C271 1.399 . S
C276 C275 1.394 . S
C276 C277 1.516 . S
C277 C276 1.516 . S
C277 C278 1.502 . S
C277 C279 1.561 . S
C277 C280 1.526 . S
C278 H262 0.959 . S
C278 H263 0.959 . S
C278 H264 0.961 . S
C278 C277 1.502 . S
C279 H265 0.960 . S
C279 H266 0.961 . S
C279 H267 0.959 . S
C279 C277 1.561 . S
C280 C277 1.526 . S
C280 C281 1.396 . S
C280 C285 1.390 . S
C281 C275 1.465 . S
C281 C280 1.396 . S
C281 C282 1.399 . S
C282 H268 0.929 . S
C282 C281 1.399 . S
C282 C283 1.385 . S
C283 H269 0.931 . S
C283 C282 1.385 . S
C283 C284 1.389 . S
C284 C283 1.389 . S
C284 C285 1.387 . S
C285 H270 0.930 . S
C285 C280 1.390 . S
C285 C284 1.387 . S
H286 C298 0.930 . S
H287 C300 0.930 . S
H288 C301 0.930 . S
H289 C305 0.959 . S
H290 C305 0.959 . S
H291 C305 0.961 . S
H292 C306 0.960 . S
H293 C306 0.961 . S
H294 C306 0.959 . S
H295 C309 0.929 . S
H296 C310 0.931 . S
H297 C312 0.930 . S
C298 H286 0.930 . S
C298 C299 1.399 . S
C298 C303 1.399 . S
C299 C298 1.399 . S
C299 C300 1.376 . S
C300 H287 0.930 . S
C300 C299 1.376 . S
C300 C301 1.388 . S
C301 H288 0.930 . S
C301 C300 1.388 . S
C301 C302 1.390 . S
C302 C301 1.390 . S
C302 C303 1.394 . S
C302 C308 1.465 . S
C303 C298 1.399 . S
C303 C302 1.394 . S
C303 C304 1.516 . S
C304 C303 1.516 . S
C304 C305 1.502 . S
C304 C306 1.561 . S
C304 C307 1.526 . S
C305 H289 0.959 . S
C305 H290 0.959 . S
C305 H291 0.961 . S
C305 C304 1.502 . S
C306 H292 0.960 . S
C306 H293 0.961 . S
C306 H294 0.959 . S
C306 C304 1.561 . S
C307 C304 1.526 . S
C307 C308 1.396 . S
C307 C312 1.390 . S
C308 C302 1.465 . S
C308 C307 1.396 . S
C308 C309 1.399 . S
C309 H295 0.929 . S
C309 C308 1.399 . S
C309 C310 1.385 . S
C310 H296 0.931 . S
C310 C309 1.385 . S
C310 C311 1.389 . S
C311 C310 1.389 . S
C311 C312 1.387 . S
C312 H297 0.930 . S
C312 C307 1.390 . S
C312 C311 1.387 . S
H313 C325 0.930 . S
H314 C327 0.930 . S
H315 C328 0.930 1_655 S
H316 C332 0.959 . S
H317 C332 0.959 . S
H318 C332 0.961 . S
H319 C333 0.960 . S
H320 C333 0.961 . S
H321 C333 0.959 . S
H322 C336 0.929 . S
H323 C337 0.931 . S
H324 C339 0.930 . S
C325 H313 0.930 . S
C325 C326 1.399 . S
C325 C330 1.399 . S
C326 C325 1.399 . S
C326 C327 1.376 . S
C327 H314 0.930 . S
C327 C326 1.376 . S
C327 C328 1.388 . S
C328 H315 0.930 1_455 S
C328 C327 1.388 . S
C328 C329 1.390 . S
C329 C328 1.390 . S
C329 C330 1.394 . S
C329 C335 1.465 . S
C330 C325 1.399 . S
C330 C329 1.394 . S
C330 C331 1.516 . S
C331 C330 1.516 . S
C331 C332 1.502 . S
C331 C333 1.561 . S
C331 C334 1.526 . S
C332 H316 0.959 . S
C332 H317 0.959 . S
C332 H318 0.961 . S
C332 C331 1.502 . S
C333 H319 0.960 . S
C333 H320 0.961 . S
C333 H321 0.959 . S
C333 C331 1.561 . S
C334 C331 1.526 . S
C334 C335 1.396 . S
C334 C339 1.390 . S
C335 C329 1.465 . S
C335 C334 1.396 . S
C335 C336 1.399 1_455 S
C336 H322 0.929 . S
C336 C335 1.399 1_655 S
C336 C337 1.385 . S
C337 H323 0.931 . S
C337 C336 1.385 . S
C337 C338 1.389 1_655 S
C338 C337 1.389 1_455 S
C338 C339 1.387 . S
C339 H324 0.930 . S
C339 C334 1.390 . S
C339 C338 1.387 . S
H340 C352 0.930 . S
H341 C354 0.930 . S
H342 C355 0.930 . S
H343 C359 0.959 . S
H344 C359 0.959 . S
H345 C359 0.961 . S
H346 C360 0.960 . S
H347 C360 0.961 . S
H348 C360 0.959 . S
H349 C363 0.929 . S
H350 C364 0.931 . S
H351 C366 0.930 . S
C352 H340 0.930 . S
C352 C353 1.399 . S
C352 C357 1.399 . S
C353 C352 1.399 . S
C353 C354 1.376 1_565 S
C354 H341 0.930 . S
C354 C353 1.376 1_545 S
C354 C355 1.388 . S
C355 H342 0.930 . S
C355 C354 1.388 . S
C355 C356 1.390 . S
C356 C355 1.390 . S
C356 C357 1.394 1_545 S
C356 C362 1.465 . S
C357 C352 1.399 . S
C357 C356 1.394 1_565 S
C357 C358 1.516 . S
C358 C357 1.516 . S
C358 C359 1.502 . S
C358 C360 1.561 . S
C358 C361 1.526 . S
C359 H343 0.959 . S
C359 H344 0.959 . S
C359 H345 0.961 . S
C359 C358 1.502 . S
C360 H346 0.960 . S
C360 H347 0.961 . S
C360 H348 0.959 . S
C360 C358 1.561 . S
C361 C358 1.526 . S
C361 C362 1.396 1_565 S
C361 C366 1.390 . S
C362 C356 1.465 . S
C362 C361 1.396 1_545 S
C362 C363 1.399 . S
C363 H349 0.929 . S
C363 C362 1.399 . S
C363 C364 1.385 . S
C364 H350 0.931 . S
C364 C363 1.385 . S
C364 C365 1.389 . S
C365 C364 1.389 . S
C365 C366 1.387 1_545 S
C366 H351 0.930 . S
C366 C361 1.390 . S
C366 C365 1.387 1_565 S
H367 C379 0.930 . S
H368 C381 0.930 . S
H369 C382 0.930 . S
H370 C386 0.959 . S
H371 C386 0.959 . S
H372 C386 0.961 . S
H373 C387 0.960 . S
H374 C387 0.961 . S
H375 C387 0.959 . S
H376 C390 0.929 . S
H377 C391 0.931 . S
H378 C393 0.930 . S
C379 H367 0.930 . S
C379 C380 1.399 . S
C379 C384 1.399 . S
C380 C379 1.399 . S
C380 C381 1.376 . S
C381 H368 0.930 . S
C381 C380 1.376 . S
C381 C382 1.388 . S
C382 H369 0.930 . S
C382 C381 1.388 . S
C382 C383 1.390 . S
C383 C382 1.390 . S
C383 C384 1.394 . S
C383 C389 1.465 . S
C384 C379 1.399 . S
C384 C383 1.394 . S
C384 C385 1.516 . S
C385 C384 1.516 . S
C385 C386 1.502 . S
C385 C387 1.561 . S
C385 C388 1.526 . S
C386 H370 0.959 . S
C386 H371 0.959 . S
C386 H372 0.961 . S
C386 C385 1.502 . S
C387 H373 0.960 . S
C387 H374 0.961 . S
C387 H375 0.959 . S
C387 C385 1.561 . S
C388 C385 1.526 . S
C388 C389 1.396 . S
C388 C393 1.390 . S
C389 C383 1.465 . S
C389 C388 1.396 . S
C389 C390 1.399 . S
C390 H376 0.929 . S
C390 C389 1.399 . S
C390 C391 1.385 . S
C391 H377 0.931 . S
C391 C390 1.385 . S
C391 C392 1.389 . S
C392 C391 1.389 . S
C392 C393 1.387 . S
C393 H378 0.930 . S
C393 C388 1.390 . S
C393 C392 1.387 . S
H394 C406 0.930 . S
H395 C408 0.930 . S
H396 C409 0.930 . S
H397 C413 0.959 . S
H398 C413 0.959 . S
H399 C413 0.961 . S
H400 C414 0.960 . S
H401 C414 0.961 . S
H402 C414 0.959 . S
H403 C417 0.929 . S
H404 C418 0.931 . S
H405 C420 0.930 . S
C406 H394 0.930 . S
C406 C407 1.399 . S
C406 C411 1.399 . S
C407 C406 1.399 . S
C407 C408 1.376 . S
C408 H395 0.930 . S
C408 C407 1.376 . S
C408 C409 1.388 . S
C409 H396 0.930 . S
C409 C408 1.388 . S
C409 C410 1.390 . S
C410 C409 1.390 . S
C410 C411 1.394 . S
C410 C416 1.465 . S
C411 C406 1.399 . S
C411 C410 1.394 . S
C411 C412 1.516 . S
C412 C411 1.516 . S
C412 C413 1.502 . S
C412 C414 1.561 . S
C412 C415 1.526 . S
C413 H397 0.959 . S
C413 H398 0.959 . S
C413 H399 0.961 . S
C413 C412 1.502 . S
C414 H400 0.960 . S
C414 H401 0.961 . S
C414 H402 0.959 . S
C414 C412 1.561 . S
C415 C412 1.526 . S
C415 C416 1.396 . S
C415 C420 1.390 . S
C416 C410 1.465 . S
C416 C415 1.396 . S
C416 C417 1.399 . S
C417 H403 0.929 . S
C417 C416 1.399 . S
C417 C418 1.385 . S
C418 H404 0.931 . S
C418 C417 1.385 . S
C418 C419 1.389 . S
C419 C418 1.389 . S
C419 C420 1.387 . S
C420 H405 0.930 . S
C420 C415 1.390 . S
C420 C419 1.387 . S
H421 C433 0.930 . S
H422 C435 0.930 . S
H423 C436 0.930 . S
H424 C440 0.959 . S
H425 C440 0.959 . S
H426 C440 0.968 . S
H427 C441 0.960 . S
H428 C441 0.961 . S
H429 C441 0.959 . S
H430 C444 0.929 . S
H431 C445 0.931 . S
H432 C447 0.930 . S
C433 H421 0.930 . S
C433 C434 1.399 . S
C433 C438 1.399 . S
C434 C433 1.399 . S
C434 C435 1.376 . S
C435 H422 0.930 . S
C435 C434 1.376 . S
C435 C436 1.388 . S
C436 H423 0.930 . S
C436 C435 1.388 . S
C436 C437 1.390 . S
C437 C436 1.390 . S
C437 C438 1.394 . S
C437 C443 1.465 . S
C438 C433 1.399 . S
C438 C437 1.394 . S
C438 C439 1.516 . S
C439 C438 1.516 . S
C439 C440 1.502 1_655 S
C439 C441 1.561 . S
C439 C442 1.526 . S
C440 H424 0.959 . S
C440 H425 0.959 . S
C440 H426 0.968 . S
C440 C439 1.502 1_455 S
C441 H427 0.960 . S
C441 H428 0.961 . S
C441 H429 0.959 . S
C441 C439 1.561 . S
C442 C439 1.526 . S
C442 C443 1.396 . S
C442 C447 1.390 . S
C443 C437 1.465 . S
C443 C442 1.396 . S
C443 C444 1.399 . S
C444 H430 0.929 . S
C444 C443 1.399 . S
C444 C445 1.385 . S
C445 H431 0.931 . S
C445 C444 1.385 . S
C445 C446 1.389 . S
C446 C445 1.389 . S
C446 C447 1.387 . S
C447 H432 0.930 . S
C447 C442 1.390 . S
C447 C446 1.387 . S
H448 C460 0.930 . S
H449 C462 0.930 1_655 S
H450 C463 0.930 . S
H451 C467 0.959 . S
H452 C467 0.959 . S
H453 C467 0.961 . S
H454 C468 0.960 . S
H455 C468 0.961 . S
H456 C468 0.959 . S
H457 C471 0.929 . S
H458 C472 0.931 . S
H459 C474 0.930 . S
C460 H448 0.930 . S
C460 C461 1.399 . S
C460 C465 1.399 . S
C461 C460 1.399 . S
C461 C462 1.376 . S
C462 H449 0.930 1_455 S
C462 C461 1.376 . S
C462 C463 1.388 1_455 S
C463 H450 0.930 . S
C463 C462 1.388 1_655 S
C463 C464 1.390 1_655 S
C464 C463 1.390 1_455 S
C464 C465 1.394 . S
C464 C470 1.460 1_455 S
C465 C460 1.399 . S
C465 C464 1.394 . S
C465 C466 1.516 . S
C466 C465 1.516 . S
C466 C467 1.502 . S
C466 C468 1.561 . S
C466 C469 1.526 . S
C467 H451 0.959 . S
C467 H452 0.959 . S
C467 H453 0.961 . S
C467 C466 1.502 . S
C468 H454 0.960 . S
C468 H455 0.961 . S
C468 H456 0.959 . S
C468 C466 1.561 . S
C469 C466 1.526 . S
C469 C470 1.375 1_455 S
C469 C474 1.390 . S
C470 C464 1.460 1_655 S
C470 C469 1.375 1_655 S
C470 C471 1.422 . S
C471 H457 0.929 . S
C471 C470 1.422 . S
C471 C472 1.385 . S
C472 H458 0.931 . S
C472 C471 1.385 . S
C472 C473 1.389 . S
C473 C472 1.389 . S
C473 C474 1.387 1_655 S
C474 H459 0.930 . S
C474 C469 1.390 . S
C474 C473 1.387 1_455 S
H475 C487 0.930 1_565 S
H476 C489 0.930 . S
H477 C490 0.930 . S
H478 C494 0.959 . S
H479 C494 0.959 . S
H480 C494 0.961 . S
H481 C495 0.960 . S
H482 C495 0.961 . S
H483 C495 0.959 . S
H484 C498 0.929 . S
H485 C499 0.931 . S
H486 C501 0.930 . S
C487 H475 0.930 1_545 S
C487 C488 1.399 . S
C487 C492 1.399 . S
C488 C487 1.399 . S
C488 C489 1.376 . S
C489 H476 0.930 . S
C489 C488 1.376 . S
C489 C490 1.388 . S
C490 H477 0.930 . S
C490 C489 1.388 . S
C490 C491 1.390 . S
C491 C490 1.390 . S
C491 C492 1.394 . S
C491 C497 1.465 . S
C492 C487 1.399 . S
C492 C491 1.394 . S
C492 C493 1.516 1_545 S
C493 C492 1.516 1_565 S
C493 C494 1.502 . S
C493 C495 1.561 . S
C493 C496 1.526 . S
C494 H478 0.959 . S
C494 H479 0.959 . S
C494 H480 0.961 . S
C494 C493 1.502 . S
C495 H481 0.960 . S
C495 H482 0.961 . S
C495 H483 0.959 . S
C495 C493 1.561 . S
C496 C493 1.526 . S
C496 C497 1.396 1_565 S
C496 C501 1.390 . S
C497 C491 1.465 . S
C497 C496 1.396 1_545 S
C497 C498 1.399 . S
C498 H484 0.929 . S
C498 C497 1.399 . S
C498 C499 1.385 . S
C499 H485 0.931 . S
C499 C498 1.385 . S
C499 C500 1.389 . S
C500 C499 1.389 . S
C500 C501 1.387 1_545 S
C501 H486 0.930 . S
C501 C496 1.390 . S
C501 C500 1.387 1_565 S
H502 C514 0.930 . S
H503 C516 0.930 . S
H504 C517 0.930 . S
H505 C521 0.959 . S
H506 C521 0.959 . S
H507 C521 0.961 . S
H508 C522 0.960 . S
H509 C522 0.961 . S
H510 C522 0.959 . S
H511 C525 0.929 . S
H512 C526 0.931 . S
H513 C528 0.930 . S
C514 H502 0.930 . S
C514 C515 1.399 . S
C514 C519 1.399 . S
C515 C514 1.399 . S
C515 C516 1.376 . S
C516 H503 0.930 . S
C516 C515 1.376 . S
C516 C517 1.388 . S
C517 H504 0.930 . S
C517 C516 1.388 . S
C517 C518 1.390 . S
C518 C517 1.390 . S
C518 C519 1.394 . S
C518 C524 1.465 . S
C519 C514 1.399 . S
C519 C518 1.394 . S
C519 C520 1.516 . S
C520 C519 1.516 . S
C520 C521 1.502 . S
C520 C522 1.561 . S
C520 C523 1.526 . S
C521 H505 0.959 . S
C521 H506 0.959 . S
C521 H507 0.961 . S
C521 C520 1.502 . S
C522 H508 0.960 . S
C522 H509 0.961 . S
C522 H510 0.959 . S
C522 C520 1.561 . S
C523 C520 1.526 . S
C523 C524 1.396 . S
C523 C528 1.390 . S
C524 C518 1.465 . S
C524 C523 1.396 . S
C524 C525 1.399 . S
C525 H511 0.929 . S
C525 C524 1.399 . S
C525 C526 1.385 . S
C526 H512 0.931 . S
C526 C525 1.385 . S
C526 C527 1.389 . S
C527 C526 1.389 . S
C527 C528 1.387 . S
C528 H513 0.930 . S
C528 C523 1.390 . S
C528 C527 1.387 . S
H529 C541 0.930 . S
H530 C543 0.930 . S
H531 C544 0.930 . S
H532 C548 0.959 . S
H533 C548 0.959 . S
H534 C548 0.961 . S
H535 C549 0.960 . S
H536 C549 0.961 . S
H537 C549 0.959 . S
H538 C552 0.929 . S
H539 C553 0.931 . S
H540 C555 0.930 . S
C541 H529 0.930 . S
C541 C542 1.399 . S
C541 C546 1.399 . S
C542 C541 1.399 . S
C542 C543 1.376 . S
C543 H530 0.930 . S
C543 C542 1.376 . S
C543 C544 1.388 . S
C544 H531 0.930 . S
C544 C543 1.388 . S
C544 C545 1.390 . S
C545 C544 1.390 . S
C545 C546 1.394 . S
C545 C551 1.465 . S
C546 C541 1.399 . S
C546 C545 1.394 . S
C546 C547 1.516 . S
C547 C546 1.516 . S
C547 C548 1.502 . S
C547 C549 1.561 . S
C547 C550 1.526 . S
C548 H532 0.959 . S
C548 H533 0.959 . S
C548 H534 0.961 . S
C548 C547 1.502 . S
C549 H535 0.960 . S
C549 H536 0.961 . S
C549 H537 0.959 . S
C549 C547 1.561 . S
C550 C547 1.526 . S
C550 C551 1.396 . S
C550 C555 1.390 . S
C551 C545 1.465 . S
C551 C550 1.396 . S
C551 C552 1.399 . S
C552 H538 0.929 . S
C552 C551 1.399 . S
C552 C553 1.385 . S
C553 H539 0.931 . S
C553 C552 1.385 . S
C553 C554 1.389 . S
C554 C553 1.389 . S
C554 C555 1.387 . S
C555 H540 0.930 . S
C555 C550 1.390 . S
C555 C554 1.387 . S
H556 C568 0.930 1_554 S
H557 C570 0.930 . S
H558 C571 0.930 1_455 S
H559 C575 0.959 . S
H560 C575 0.959 . S
H561 C575 0.961 1_554 S
H562 C576 0.960 . S
H563 C576 0.961 . S
H564 C576 0.959 1_556 S
H565 C579 0.929 . S
H566 C580 0.931 . S
H567 C582 0.932 . S
C568 H556 0.930 1_556 S
C568 C569 1.399 . S
C568 C573 1.399 . S
C569 C568 1.399 . S
C569 C570 1.376 . S
C570 H557 0.930 . S
C570 C569 1.376 . S
C570 C571 1.388 . S
C571 H558 0.930 1_655 S
C571 C570 1.388 . S
C571 C572 1.390 . S
C572 C571 1.390 . S
C572 C573 1.394 . S
C572 C578 1.460 1_655 S
C573 C568 1.399 . S
C573 C572 1.394 . S
C573 C574 1.516 . S
C574 C573 1.516 . S
C574 C575 1.502 . S
C574 C576 1.561 1_656 S
C574 C577 1.526 . S
C575 H559 0.959 . S
C575 H560 0.959 . S
C575 H561 0.961 1_556 S
C575 C574 1.502 . S
C576 H562 0.960 . S
C576 H563 0.961 . S
C576 H564 0.959 1_554 S
C576 C574 1.561 1_454 S
C577 C574 1.526 . S
C577 C578 1.392 1_655 S
C577 C582 1.391 . S
C578 C572 1.460 1_455 S
C578 C577 1.392 1_455 S
C578 C579 1.408 . S
C579 H565 0.929 . S
C579 C578 1.408 . S
C579 C580 1.385 . S
C580 H566 0.931 . S
C580 C579 1.385 . S
C580 C581 1.389 . S
C581 C580 1.389 . S
C581 C582 1.383 1_455 S
C582 H567 0.932 . S
C582 C577 1.391 . S
C582 C581 1.383 1_655 S
H583 C595 0.930 1_544 S
H584 C597 0.930 . S
H585 C598 0.930 . S
H586 C602 0.959 1_565 S
H587 C602 0.959 . S
H588 C602 0.961 . S
H589 C603 0.960 . S
H590 C603 0.961 . S
H591 C603 0.959 . S
H592 C606 0.929 . S
H593 C607 0.931 . S
H594 C609 0.930 . S
C595 H583 0.930 1_566 S
C595 C596 1.399 . S
C595 C600 1.400 . S
C596 C595 1.399 . S
C596 C597 1.376 . S
C597 H584 0.930 . S
C597 C596 1.376 . S
C597 C598 1.388 . S
C598 H585 0.930 . S
C598 C597 1.388 . S
C598 C599 1.390 . S
C599 C598 1.390 . S
C599 C600 1.399 . S
C599 C605 1.465 . S
C600 C595 1.400 . S
C600 C599 1.399 . S
C600 C601 1.510 1_565 S
C601 C600 1.510 1_545 S
C601 C602 1.502 1_556 S
C601 C603 1.561 . S
C601 C604 1.526 . S
C602 H586 0.959 1_545 S
C602 H587 0.959 . S
C602 H588 0.961 . S
C602 C601 1.502 1_554 S
C603 H589 0.960 . S
C603 H590 0.961 . S
C603 H591 0.959 . S
C603 C601 1.561 . S
C604 C601 1.526 . S
C604 C605 1.396 1_545 S
C604 C609 1.390 . S
C605 C599 1.465 . S
C605 C604 1.396 1_565 S
C605 C606 1.399 . S
C606 H592 0.929 . S
C606 C605 1.399 . S
C606 C607 1.385 . S
C607 H593 0.931 . S
C607 C606 1.385 . S
C607 C608 1.389 1_565 S
C608 C607 1.389 1_545 S
C608 C609 1.387 . S
C609 H594 0.930 . S
C609 C604 1.390 . S
C609 C608 1.387 . S
H610 C622 0.930 1_554 S
H611 C624 0.930 . S
H612 C625 0.930 . S
H613 C629 0.959 . S
H614 C629 0.959 . S
H615 C629 0.961 1_554 S
H616 C630 0.960 . S
H617 C630 0.961 . S
H618 C630 0.959 1_556 S
H619 C633 0.929 . S
H620 C634 0.931 . S
H621 C636 0.930 . S
C622 H610 0.930 1_556 S
C622 C623 1.399 . S
C622 C627 1.399 . S
C623 C622 1.399 . S
C623 C624 1.376 . S
C624 H611 0.930 . S
C624 C623 1.376 . S
C624 C625 1.388 . S
C625 H612 0.930 . S
C625 C624 1.388 . S
C625 C626 1.390 . S
C626 C625 1.390 . S
C626 C627 1.394 . S
C626 C632 1.465 . S
C627 C622 1.399 . S
C627 C626 1.394 . S
C627 C628 1.516 . S
C628 C627 1.516 . S
C628 C629 1.502 . S
C628 C630 1.561 1_556 S
C628 C631 1.526 . S
C629 H613 0.959 . S
C629 H614 0.959 . S
C629 H615 0.961 1_556 S
C629 C628 1.502 . S
C630 H616 0.960 . S
C630 H617 0.961 . S
C630 H618 0.959 1_554 S
C630 C628 1.561 1_554 S
C631 C628 1.526 . S
C631 C632 1.396 . S
C631 C636 1.390 . S
C632 C626 1.465 . S
C632 C631 1.396 . S
C632 C633 1.399 . S
C633 H619 0.929 . S
C633 C632 1.399 . S
C633 C634 1.385 . S
C634 H620 0.931 . S
C634 C633 1.385 . S
C634 C635 1.389 . S
C635 C634 1.389 . S
C635 C636 1.387 . S
C636 H621 0.930 . S
C636 C631 1.390 . S
C636 C635 1.387 . S
H637 C649 0.930 . S
H638 C651 0.930 1_554 S
H639 C652 0.930 . S
H640 C656 0.959 . S
H641 C656 0.959 . S
H642 C656 0.961 . S
H643 C657 0.960 . S
H644 C657 0.961 . S
H645 C657 0.959 . S
H646 C660 0.929 . S
H647 C661 0.931 . S
H648 C663 0.930 . S
C649 H637 0.930 . S
C649 C650 1.399 . S
C649 C654 1.399 . S
C650 C649 1.399 . S
C650 C651 1.376 . S
C651 H638 0.930 1_556 S
C651 C650 1.376 . S
C651 C652 1.388 . S
C652 H639 0.930 . S
C652 C651 1.388 . S
C652 C653 1.390 . S
C653 C652 1.390 . S
C653 C654 1.394 . S
C653 C659 1.465 . S
C654 C649 1.399 . S
C654 C653 1.394 . S
C654 C655 1.516 . S
C655 C654 1.516 . S
C655 C656 1.502 . S
C655 C657 1.561 . S
C655 C658 1.526 . S
C656 H640 0.959 . S
C656 H641 0.959 . S
C656 H642 0.961 . S
C656 C655 1.502 . S
C657 H643 0.960 . S
C657 H644 0.961 . S
C657 H645 0.959 . S
C657 C655 1.561 . S
C658 C655 1.526 . S
C658 C659 1.396 . S
C658 C663 1.390 . S
C659 C653 1.465 . S
C659 C658 1.396 . S
C659 C660 1.399 . S
C660 H646 0.929 . S
C660 C659 1.399 . S
C660 C661 1.385 . S
C661 H647 0.931 . S
C661 C660 1.385 . S
C661 C662 1.389 . S
C662 C661 1.389 . S
C662 C663 1.387 . S
C663 H648 0.930 . S
C663 C658 1.390 . S
C663 C662 1.387 . S
H664 C676 0.930 . S
H665 C678 0.930 . S
H666 C679 0.930 . S
H667 C683 0.959 . S
H668 C683 0.959 . S
H669 C683 0.961 . S
H670 C684 0.960 1_554 S
H671 C684 0.961 1_554 S
H672 C684 0.959 . S
H673 C687 0.929 . S
H674 C688 0.931 . S
H675 C690 0.930 . S
C676 H664 0.930 . S
C676 C677 1.399 1_554 S
C676 C681 1.399 1_554 S
C677 C676 1.399 1_556 S
C677 C678 1.376 . S
C678 H665 0.930 . S
C678 C677 1.376 . S
C678 C679 1.388 . S
C679 H666 0.930 . S
C679 C678 1.388 . S
C679 C680 1.390 . S
C680 C679 1.390 . S
C680 C681 1.394 . S
C680 C686 1.465 . S
C681 C676 1.399 1_556 S
C681 C680 1.394 . S
C681 C682 1.516 . S
C682 C681 1.516 . S
C682 C683 1.502 1_556 S
C682 C684 1.561 1_455 S
C682 C685 1.526 . S
C683 H667 0.959 . S
C683 H668 0.959 . S
C683 H669 0.961 . S
C683 C682 1.502 1_554 S
C684 H670 0.960 1_556 S
C684 H671 0.961 1_556 S
C684 H672 0.959 . S
C684 C682 1.561 1_655 S
C685 C682 1.526 . S
C685 C686 1.396 . S
C685 C690 1.390 . S
C686 C680 1.465 . S
C686 C685 1.396 . S
C686 C687 1.399 . S
C687 H673 0.929 . S
C687 C686 1.399 . S
C687 C688 1.385 . S
C688 H674 0.931 . S
C688 C687 1.385 . S
C688 C689 1.389 . S
C689 C688 1.389 . S
C689 C690 1.387 . S
C690 H675 0.930 . S
C690 C685 1.390 . S
C690 C689 1.387 . S
H691 C703 0.930 . S
H692 C705 0.930 . S
H693 C706 0.930 1_554 S
H694 C710 0.959 . S
H695 C710 0.959 . S
H696 C710 0.961 . S
H697 C711 0.960 . S
H698 C711 0.961 . S
H699 C711 0.959 . S
H700 C714 0.929 . S
H701 C715 0.931 . S
H702 C717 0.930 . S
C703 H691 0.930 . S
C703 C704 1.399 1_556 S
C703 C708 1.399 . S
C704 C703 1.399 1_554 S
C704 C705 1.376 1_545 S
C705 H692 0.930 . S
C705 C704 1.376 1_565 S
C705 C706 1.388 1_554 S
C706 H693 0.930 1_556 S
C706 C705 1.388 1_556 S
C706 C707 1.390 1_565 S
C707 C706 1.390 1_545 S
C707 C708 1.394 . S
C707 C713 1.465 . S
C708 C703 1.399 . S
C708 C707 1.394 . S
C708 C709 1.516 . S
C709 C708 1.516 . S
C709 C710 1.502 . S
C709 C711 1.561 . S
C709 C712 1.526 . S
C710 H694 0.959 . S
C710 H695 0.959 . S
C710 H696 0.961 . S
C710 C709 1.502 . S
C711 H697 0.960 . S
C711 H698 0.961 . S
C711 H699 0.959 . S
C711 C709 1.561 . S
C712 C709 1.526 . S
C712 C713 1.396 . S
C712 C717 1.390 . S
C713 C707 1.465 . S
C713 C712 1.396 . S
C713 C714 1.399 1_545 S
C714 H700 0.929 . S
C714 C713 1.399 1_565 S
C714 C715 1.385 . S
C715 H701 0.931 . S
C715 C714 1.385 . S
C715 C716 1.389 1_565 S
C716 C715 1.389 1_545 S
C716 C717 1.387 . S
C717 H702 0.930 . S
C717 C712 1.390 . S
C717 C716 1.387 . S
H718 C730 0.930 . S
H719 C732 0.930 . S
H720 C733 0.930 . S
H721 C737 0.959 . S
H722 C737 0.959 . S
H723 C737 0.961 . S
H724 C738 0.960 . S
H725 C738 0.961 . S
H726 C738 0.959 . S
H727 C741 0.929 . S
H728 C742 0.931 . S
H729 C744 0.930 . S
C730 H718 0.930 . S
C730 C731 1.399 1_554 S
C730 C735 1.399 1_554 S
C731 C730 1.399 1_556 S
C731 C732 1.376 . S
C732 H719 0.930 . S
C732 C731 1.376 . S
C732 C733 1.388 . S
C733 H720 0.930 . S
C733 C732 1.388 . S
C733 C734 1.390 . S
C734 C733 1.390 . S
C734 C735 1.394 . S
C734 C740 1.465 . S
C735 C730 1.399 1_556 S
C735 C734 1.394 . S
C735 C736 1.516 . S
C736 C735 1.516 . S
C736 C737 1.502 1_556 S
C736 C738 1.561 . S
C736 C739 1.526 . S
C737 H721 0.959 . S
C737 H722 0.959 . S
C737 H723 0.961 . S
C737 C736 1.502 1_554 S
C738 H724 0.960 . S
C738 H725 0.961 . S
C738 H726 0.959 . S
C738 C736 1.561 . S
C739 C736 1.526 . S
C739 C740 1.396 . S
C739 C744 1.390 . S
C740 C734 1.465 . S
C740 C739 1.396 . S
C740 C741 1.399 . S
C741 H727 0.929 . S
C741 C740 1.399 . S
C741 C742 1.385 . S
C742 H728 0.931 . S
C742 C741 1.385 . S
C742 C743 1.389 . S
C743 C742 1.389 . S
C743 C744 1.387 . S
C744 H729 0.930 . S
C744 C739 1.390 . S
C744 C743 1.387 . S
H745 C757 0.930 . S
H746 C759 0.930 1_554 S
H747 C760 0.930 . S
H748 C764 0.959 . S
H749 C764 0.959 . S
H750 C764 0.961 . S
H751 C765 0.960 1_554 S
H752 C765 0.961 . S
H753 C765 0.959 1_554 S
H754 C768 0.929 . S
H755 C769 0.931 . S
H756 C771 0.930 . S
C757 H745 0.930 . S
C757 C758 1.399 1_556 S
C757 C762 1.399 . S
C758 C757 1.399 1_554 S
C758 C759 1.376 1_554 S
C759 H746 0.930 1_556 S
C759 C758 1.376 1_556 S
C759 C760 1.388 . S
C760 H747 0.930 . S
C760 C759 1.388 . S
C760 C761 1.390 . S
C761 C760 1.390 . S
C761 C762 1.394 . S
C761 C767 1.465 . S
C762 C757 1.399 . S
C762 C761 1.394 . S
C762 C763 1.516 . S
C763 C762 1.516 . S
C763 C764 1.502 . S
C763 C765 1.561 . S
C763 C766 1.526 . S
C764 H748 0.959 . S
C764 H749 0.959 . S
C764 H750 0.961 . S
C764 C763 1.502 . S
C765 H751 0.960 1_556 S
C765 H752 0.961 . S
C765 H753 0.959 1_556 S
C765 C763 1.561 . S
C766 C763 1.526 . S
C766 C767 1.396 . S
C766 C771 1.390 . S
C767 C761 1.465 . S
C767 C766 1.396 . S
C767 C768 1.399 . S
C768 H754 0.929 . S
C768 C767 1.399 . S
C768 C769 1.385 . S
C769 H755 0.931 . S
C769 C768 1.385 . S
C769 C770 1.389 . S
C770 C769 1.389 . S
C770 C771 1.387 . S
C771 H756 0.930 . S
C771 C766 1.390 . S
C771 C770 1.387 . S
H772 C784 0.924 1_455 S
H773 C786 0.930 . S
H774 C787 0.930 . S
H775 C791 0.959 . S
H776 C791 0.959 . S
H777 C791 0.961 . S
H778 C792 0.960 . S
H779 C792 0.961 . S
H780 C792 0.959 . S
H781 C795 0.929 . S
H782 C796 0.931 . S
H783 C798 0.930 . S
C784 H772 0.924 1_655 S
C784 C785 1.404 . S
C784 C789 1.400 . S
C785 C784 1.404 . S
C785 C786 1.376 . S
C786 H773 0.930 . S
C786 C785 1.376 . S
C786 C787 1.388 . S
C787 H774 0.930 . S
C787 C786 1.388 . S
C787 C788 1.390 . S
C788 C787 1.390 . S
C788 C789 1.394 . S
C788 C794 1.465 . S
C789 C784 1.400 . S
C789 C788 1.394 . S
C789 C790 1.516 1_655 S
C790 C789 1.516 1_455 S
C790 C791 1.502 . S
C790 C792 1.561 . S
C790 C793 1.526 1_455 S
C791 H775 0.959 . S
C791 H776 0.959 . S
C791 H777 0.961 . S
C791 C790 1.502 . S
C792 H778 0.960 . S
C792 H779 0.961 . S
C792 H780 0.959 . S
C792 C790 1.561 . S
C793 C790 1.526 1_655 S
C793 C794 1.396 . S
C793 C798 1.390 1_655 S
C794 C788 1.465 . S
C794 C793 1.396 . S
C794 C795 1.399 . S
C795 H781 0.929 . S
C795 C794 1.399 . S
C795 C796 1.385 . S
C796 H782 0.931 . S
C796 C795 1.385 . S
C796 C797 1.389 . S
C797 C796 1.389 . S
C797 C798 1.387 1_655 S
C798 H783 0.930 . S
C798 C793 1.390 1_455 S
C798 C797 1.387 1_455 S
H799 C811 0.930 . S
H800 C813 0.930 . S
H801 C814 0.930 . S
H802 C818 0.959 . S
H803 C818 0.959 . S
H804 C818 0.961 . S
H805 C819 0.960 . S
H806 C819 0.961 . S
H807 C819 0.959 . S
H808 C822 0.929 . S
H809 C823 0.931 . S
H810 C825 0.930 . S
C811 H799 0.930 . S
C811 C812 1.399 1_545 S
C811 C816 1.399 1_545 S
C812 C811 1.399 1_565 S
C812 C813 1.376 . S
C813 H800 0.930 . S
C813 C812 1.376 . S
C813 C814 1.388 . S
C814 H801 0.930 . S
C814 C813 1.388 . S
C814 C815 1.390 . S
C815 C814 1.390 . S
C815 C816 1.394 . S
C815 C821 1.465 . S
C816 C811 1.399 1_565 S
C816 C815 1.394 . S
C816 C817 1.516 1_565 S
C817 C816 1.516 1_545 S
C817 C818 1.502 . S
C817 C819 1.561 . S
C817 C820 1.523 . S
C818 H802 0.959 . S
C818 H803 0.959 . S
C818 H804 0.961 . S
C818 C817 1.502 . S
C819 H805 0.960 . S
C819 H806 0.961 . S
C819 H807 0.959 . S
C819 C817 1.561 . S
C820 C817 1.523 . S
C820 C821 1.401 1_545 S
C820 C825 1.388 . S
C821 C815 1.465 . S
C821 C820 1.401 1_565 S
C821 C822 1.399 . S
C822 H808 0.929 . S
C822 C821 1.399 . S
C822 C823 1.385 . S
C823 H809 0.931 . S
C823 C822 1.385 . S
C823 C824 1.389 . S
C824 C823 1.389 . S
C824 C825 1.387 1_565 S
C825 H810 0.930 . S
C825 C820 1.388 . S
C825 C824 1.387 1_545 S
H826 C838 0.930 . S
H827 C840 0.930 . S
H828 C841 0.930 . S
H829 C845 0.959 . S
H830 C845 0.959 . S
H831 C845 0.961 . S
H832 C846 0.960 . S
H833 C846 0.961 . S
H834 C846 0.959 . S
H835 C849 0.929 . S
H836 C850 0.931 . S
H837 C852 0.930 . S
C838 H826 0.930 . S
C838 C839 1.399 . S
C838 C843 1.399 . S
C839 C838 1.399 . S
C839 C840 1.376 . S
C840 H827 0.930 . S
C840 C839 1.376 . S
C840 C841 1.388 . S
C841 H828 0.930 . S
C841 C840 1.388 . S
C841 C842 1.390 . S
C842 C841 1.390 . S
C842 C843 1.394 . S
C842 C848 1.465 . S
C843 C838 1.399 . S
C843 C842 1.394 . S
C843 C844 1.516 . S
C844 C843 1.516 . S
C844 C845 1.502 . S
C844 C846 1.561 . S
C844 C847 1.526 . S
C845 H829 0.959 . S
C845 H830 0.959 . S
C845 H831 0.961 . S
C845 C844 1.502 . S
C846 H832 0.960 . S
C846 H833 0.961 . S
C846 H834 0.959 . S
C846 C844 1.561 . S
C847 C844 1.526 . S
C847 C848 1.396 . S
C847 C852 1.390 . S
C848 C842 1.465 . S
C848 C847 1.396 . S
C848 C849 1.399 . S
C849 H835 0.929 . S
C849 C848 1.399 . S
C849 C850 1.385 . S
C850 H836 0.931 . S
C850 C849 1.385 . S
C850 C851 1.389 . S
C851 C850 1.389 . S
C851 C852 1.387 . S
C852 H837 0.930 . S
C852 C847 1.390 . S
C852 C851 1.387 . S
H853 C865 0.930 . S
H854 C867 0.930 . S
H855 C868 0.930 . S
H856 C872 0.959 . S
H857 C872 0.959 . S
H858 C872 0.961 . S
H859 C873 0.960 . S
H860 C873 0.961 . S
H861 C873 0.959 . S
H862 C876 0.929 . S
H863 C877 0.931 . S
H864 C879 0.930 . S
C865 H853 0.930 . S
C865 C866 1.399 . S
C865 C870 1.399 . S
C866 C865 1.399 . S
C866 C867 1.376 . S
C867 H854 0.930 . S
C867 C866 1.376 . S
C867 C868 1.388 . S
C868 H855 0.930 . S
C868 C867 1.388 . S
C868 C869 1.390 . S
C869 C868 1.390 . S
C869 C870 1.394 . S
C869 C875 1.465 . S
C870 C865 1.399 . S
C870 C869 1.394 . S
C870 C871 1.516 . S
C871 C870 1.516 . S
C871 C872 1.502 . S
C871 C873 1.561 . S
C871 C874 1.526 . S
C872 H856 0.959 . S
C872 H857 0.959 . S
C872 H858 0.961 . S
C872 C871 1.502 . S
C873 H859 0.960 . S
C873 H860 0.961 . S
C873 H861 0.959 . S
C873 C871 1.561 . S
C874 C871 1.526 . S
C874 C875 1.396 . S
C874 C879 1.390 . S
C875 C869 1.465 . S
C875 C874 1.396 . S
C875 C876 1.399 . S
C876 H862 0.929 . S
C876 C875 1.399 . S
C876 C877 1.385 . S
C877 H863 0.931 . S
C877 C876 1.385 . S
C877 C878 1.389 . S
C878 C877 1.389 . S
C878 C879 1.387 . S
C879 H864 0.930 . S
C879 C874 1.390 . S
C879 C878 1.387 . S
C245 C125 1.513 . S
C257 C170 1.521 . S
C284 C190 1.529 . S
C272 C144 1.445 . S
C311 C210 1.490 . S
C299 C87 1.430 . S
C338 C230 1.487 . S
C326 C106 1.446 . S
C365 C171 1.515 . S
C353 C49 1.547 . S
C380 C68 1.542 . S
C392 C191 1.538 . S
C407 C11 1.479 . S
C419 C211 1.518 . S
C434 C30 1.523 . S
C446 C231 1.549 1_655 S
C473 C161 0.987 1_655 S
C461 C97 0.882 . S
C500 C181 0.910 . S
C488 C116 0.875 . S
C527 C201 0.848 . S
C515 C135 0.983 . S
C542 C78 0.965 . S
C554 C221 0.842 . S
C569 C21 0.966 . S
C581 C164 0.884 . S
C608 C184 0.846 . S
C596 C40 0.988 . S
C635 C204 0.884 . S
C623 C59 0.966 . S
C650 C2 0.858 . S
C662 C224 0.986 . S
C677 C101 1.552 1_556 S
C689 C154 1.397 . S
C704 C120 1.475 . S
C716 C174 1.444 . S
C743 C194 1.411 . S
C731 C139 1.553 1_556 S
C770 C214 1.417 . S
C758 C82 1.492 . S
C785 C25 1.483 . S
C797 C156 1.487 . S
C824 C176 1.482 . S
C812 C44 1.485 . S
C851 C196 1.476 . S
C839 C63 1.481 . S
C866 C6 1.498 . S
C878 C216 1.467 . S
