# Generated by pormake.
# Topology ssc, (4,4)-cn, num edge types: 1
# Building blocks:
#     Node 0, Type 0, BuildingBlock: ESEHIV_clean_sbu_0, # of connection points: 4
#     Node 1, Type 0, BuildingBlock: ESEHIV_clean_sbu_0, # of connection points: 4
#     Node 2, Type 0, BuildingBlock: ESEHIV_clean_sbu_0, # of connection points: 4
#     Node 3, Type 0, BuildingBlock: ESEHIV_clean_sbu_0, # of connection points: 4
#     Node 4, Type 0, BuildingBlock: ESEHIV_clean_sbu_0, # of connection points: 4
#     Node 5, Type 0, BuildingBlock: ESEHIV_clean_sbu_0, # of connection points: 4
#     Node 6, Type 0, BuildingBlock: ESEHIV_clean_sbu_0, # of connection points: 4
#     Node 7, Type 0, BuildingBlock: ESEHIV_clean_sbu_0, # of connection points: 4
#     Node 8, Type 0, BuildingBlock: ESEHIV_clean_sbu_0, # of connection points: 4
#     Node 9, Type 0, BuildingBlock: ESEHIV_clean_sbu_0, # of connection points: 4
#     Node 10, Type 0, BuildingBlock: ESEHIV_clean_sbu_0, # of connection points: 4
#     Node 11, Type 0, BuildingBlock: ESEHIV_clean_sbu_0, # of connection points: 4
#     Node 12, Type 1, BuildingBlock: KUFVIS_clean_linker_0, # of connection points: 4
#     Node 13, Type 1, BuildingBlock: KUFVIS_clean_linker_0, # of connection points: 4
#     Node 14, Type 1, BuildingBlock: KUFVIS_clean_linker_0, # of connection points: 4
#     Node 15, Type 1, BuildingBlock: KUFVIS_clean_linker_0, # of connection points: 4
#     Node 16, Type 1, BuildingBlock: KUFVIS_clean_linker_0, # of connection points: 4
#     Node 17, Type 1, BuildingBlock: KUFVIS_clean_linker_0, # of connection points: 4
#     Node 18, Type 1, BuildingBlock: KUFVIS_clean_linker_0, # of connection points: 4
#     Node 19, Type 1, BuildingBlock: KUFVIS_clean_linker_0, # of connection points: 4
#     Node 20, Type 1, BuildingBlock: KUFVIS_clean_linker_0, # of connection points: 4
#     Node 21, Type 1, BuildingBlock: KUFVIS_clean_linker_0, # of connection points: 4
#     Node 22, Type 1, BuildingBlock: KUFVIS_clean_linker_0, # of connection points: 4
#     Node 23, Type 1, BuildingBlock: KUFVIS_clean_linker_0, # of connection points: 4
#     Edge 24, Type (0, 1), BuildingBlock: AJUNOK_clean_linker_0, # of connection points: 2
#     Edge 25, Type (0, 1), BuildingBlock: AJUNOK_clean_linker_0, # of connection points: 2
#     Edge 26, Type (0, 1), BuildingBlock: AJUNOK_clean_linker_0, # of connection points: 2
#     Edge 27, Type (0, 1), BuildingBlock: AJUNOK_clean_linker_0, # of connection points: 2
#     Edge 28, Type (0, 1), BuildingBlock: AJUNOK_clean_linker_0, # of connection points: 2
#     Edge 29, Type (0, 1), BuildingBlock: AJUNOK_clean_linker_0, # of connection points: 2
#     Edge 30, Type (0, 1), BuildingBlock: AJUNOK_clean_linker_0, # of connection points: 2
#     Edge 31, Type (0, 1), BuildingBlock: AJUNOK_clean_linker_0, # of connection points: 2
#     Edge 32, Type (0, 1), BuildingBlock: AJUNOK_clean_linker_0, # of connection points: 2
#     Edge 33, Type (0, 1), BuildingBlock: AJUNOK_clean_linker_0, # of connection points: 2
#     Edge 34, Type (0, 1), BuildingBlock: AJUNOK_clean_linker_0, # of connection points: 2
#     Edge 35, Type (0, 1), BuildingBlock: AJUNOK_clean_linker_0, # of connection points: 2
#     Edge 36, Type (0, 1), BuildingBlock: AJUNOK_clean_linker_0, # of connection points: 2
#     Edge 37, Type (0, 1), BuildingBlock: AJUNOK_clean_linker_0, # of connection points: 2
#     Edge 38, Type (0, 1), BuildingBlock: AJUNOK_clean_linker_0, # of connection points: 2
#     Edge 39, Type (0, 1), BuildingBlock: AJUNOK_clean_linker_0, # of connection points: 2
#     Edge 40, Type (0, 1), BuildingBlock: AJUNOK_clean_linker_0, # of connection points: 2
#     Edge 41, Type (0, 1), BuildingBlock: AJUNOK_clean_linker_0, # of connection points: 2
#     Edge 42, Type (0, 1), BuildingBlock: AJUNOK_clean_linker_0, # of connection points: 2
#     Edge 43, Type (0, 1), BuildingBlock: AJUNOK_clean_linker_0, # of connection points: 2
#     Edge 44, Type (0, 1), BuildingBlock: AJUNOK_clean_linker_0, # of connection points: 2
#     Edge 45, Type (0, 1), BuildingBlock: AJUNOK_clean_linker_0, # of connection points: 2
#     Edge 46, Type (0, 1), BuildingBlock: AJUNOK_clean_linker_0, # of connection points: 2
#     Edge 47, Type (0, 1), BuildingBlock: AJUNOK_clean_linker_0, # of connection points: 2
#     Edge 48, Type (0, 1), BuildingBlock: AJUNOK_clean_linker_0, # of connection points: 2
#     Edge 49, Type (0, 1), BuildingBlock: AJUNOK_clean_linker_0, # of connection points: 2
#     Edge 50, Type (0, 1), BuildingBlock: AJUNOK_clean_linker_0, # of connection points: 2
#     Edge 51, Type (0, 1), BuildingBlock: AJUNOK_clean_linker_0, # of connection points: 2
#     Edge 52, Type (0, 1), BuildingBlock: AJUNOK_clean_linker_0, # of connection points: 2
#     Edge 53, Type (0, 1), BuildingBlock: AJUNOK_clean_linker_0, # of connection points: 2
#     Edge 54, Type (0, 1), BuildingBlock: AJUNOK_clean_linker_0, # of connection points: 2
#     Edge 55, Type (0, 1), BuildingBlock: AJUNOK_clean_linker_0, # of connection points: 2
#     Edge 56, Type (0, 1), BuildingBlock: AJUNOK_clean_linker_0, # of connection points: 2
#     Edge 57, Type (0, 1), BuildingBlock: AJUNOK_clean_linker_0, # of connection points: 2
#     Edge 58, Type (0, 1), BuildingBlock: AJUNOK_clean_linker_0, # of connection points: 2
#     Edge 59, Type (0, 1), BuildingBlock: AJUNOK_clean_linker_0, # of connection points: 2
#     Edge 60, Type (0, 1), BuildingBlock: AJUNOK_clean_linker_0, # of connection points: 2
#     Edge 61, Type (0, 1), BuildingBlock: AJUNOK_clean_linker_0, # of connection points: 2
#     Edge 62, Type (0, 1), BuildingBlock: AJUNOK_clean_linker_0, # of connection points: 2
#     Edge 63, Type (0, 1), BuildingBlock: AJUNOK_clean_linker_0, # of connection points: 2
#     Edge 64, Type (0, 1), BuildingBlock: AJUNOK_clean_linker_0, # of connection points: 2
#     Edge 65, Type (0, 1), BuildingBlock: AJUNOK_clean_linker_0, # of connection points: 2
#     Edge 66, Type (0, 1), BuildingBlock: AJUNOK_clean_linker_0, # of connection points: 2
#     Edge 67, Type (0, 1), BuildingBlock: AJUNOK_clean_linker_0, # of connection points: 2
#     Edge 68, Type (0, 1), BuildingBlock: AJUNOK_clean_linker_0, # of connection points: 2
#     Edge 69, Type (0, 1), BuildingBlock: AJUNOK_clean_linker_0, # of connection points: 2
#     Edge 70, Type (0, 1), BuildingBlock: AJUNOK_clean_linker_0, # of connection points: 2
#     Edge 71, Type (0, 1), BuildingBlock: AJUNOK_clean_linker_0, # of connection points: 2
# Relax obj value: 0.051
# Max RMSD: 0.299
# Mean RMSD: 0.194
data_MOF--net-ssc--node1-ESEHIV_clean_sbu_0--node2-KUFVIS_clean_linker_0--edge1-AJUNOK_clean_linker_0
_symmetry_space_group_name_H-M    P1
_symmetry_Int_Tables_number       1
_symmetry_cell_setting            triclinic
loop_
_symmetry_equiv_pos_as_xyz
'x, y, z'
_cell_length_a     24.961003
_cell_length_b     24.90207
_cell_length_c     24.803787
_cell_angle_alpha  89.807659
_cell_angle_beta   93.65448
_cell_angle_gamma 97.285222
loop_
_atom_site_label
_atom_site_type_symbol
_atom_site_fract_x
_atom_site_fract_y
_atom_site_fract_z
_atom_type_partial_charge
Cu0 Cu 0.98195 0.25832 0.16759 0.0
N1 N 0.91932 0.24753 0.20588 0.0
N2 N 0.86619 0.2468 0.27564 0.0
C3 C 0.90724 0.27457 0.24976 0.0
C4 C 0.85252 0.20071 0.24675 0.0
C5 C 0.88516 0.20124 0.20415 0.0
O6 O 0.04127 0.26348 0.22214 0.0
C7 C 0.01933 0.17665 0.10172 0.0
O8 O 0.06911 0.19849 0.11498 0.0
H9 H 0.93052 0.3119 0.26424 0.0
H10 H 0.88662 0.16829 0.17622 0.0
N11 N 0.98462 0.32085 0.12461 0.0
N12 N 1.00181 0.37988 0.05717 0.0
C13 C 1.00484 0.32889 0.07542 0.0
C14 C 0.9686 0.36823 0.13806 0.0
C15 C 0.97896 0.40442 0.09676 0.0
C16 C 0.08633 0.29204 0.21648 0.0
O17 O 0.09576 0.3146 0.16953 0.0
H18 H 0.02349 0.29863 0.05472 0.0
H19 H 0.95073 0.37591 0.17542 0.0
O20 O 0.97994 0.19633 0.12079 0.0
H21 H 0.82374 0.16694 0.25804 0.0
H22 H 0.97026 0.44584 0.09602 0.0
Cu23 Cu 0.98064 0.76223 0.42512 0.0
N24 N 0.98376 0.82389 0.46744 0.0
N25 N 1.00358 0.88274 0.53558 0.0
C26 C 0.02016 0.84179 0.50811 0.0
C27 C 0.95424 0.88883 0.51268 0.0
C28 C 0.94254 0.85334 0.47019 0.0
O29 O 0.97563 0.70093 0.47528 0.0
C30 C 0.91855 0.74142 0.32347 0.0
O31 O 0.94479 0.69945 0.31801 0.0
H32 H 0.05587 0.82285 0.51961 0.0
H33 H 0.90489 0.84649 0.44563 0.0
N34 N 0.04627 0.76277 0.39342 0.0
N35 N 0.10925 0.75083 0.33582 0.0
C36 C 0.05857 0.76306 0.34103 0.0
C37 C 0.09088 0.75183 0.42194 0.0
C38 C 0.12907 0.74358 0.38687 0.0
C39 C 0.96055 0.7041 0.52336 0.0
O40 O 0.93147 0.74238 0.53509 0.0
H41 H 0.03032 0.76892 0.3073 0.0
H42 H 0.09435 0.74758 0.46532 0.0
O43 O 0.92371 0.76686 0.36835 0.0
H44 H 0.92675 0.91437 0.52835 0.0
H45 H 0.16764 0.73162 0.39882 0.0
Cu46 Cu 0.50986 0.80019 0.66502 0.0
N47 N 0.53538 0.85844 0.61927 0.0
N48 N 0.5493 0.91556 0.54901 0.0
C49 C 0.51631 0.87378 0.56964 0.0
C50 C 0.59117 0.92517 0.58611 0.0
C51 C 0.58231 0.89078 0.62907 0.0
O52 O 0.49534 0.73304 0.6226 0.0
C53 C 0.61189 0.79052 0.73066 0.0
O54 O 0.63955 0.79748 0.6875 0.0
H55 H 0.47974 0.85411 0.54866 0.0
H56 H 0.60904 0.889 0.66482 0.0
N57 N 0.44923 0.81403 0.70223 0.0
N58 N 0.4002 0.81687 0.77506 0.0
C59 C 0.44102 0.79582 0.75278 0.0
C60 C 0.41222 0.84836 0.69214 0.0
C61 C 0.38146 0.84967 0.7368 0.0
C62 C 0.53196 0.71598 0.59589 0.0
O63 O 0.58018 0.74423 0.59738 0.0
H64 H 0.46577 0.76861 0.77364 0.0
H65 H 0.4093 0.8725 0.656 0.0
O66 O 0.5609 0.79056 0.7266 0.0
H67 H 0.62682 0.95408 0.58172 0.0
H68 H 0.34957 0.87457 0.74157 0.0
Cu69 Cu 0.53231 0.32082 0.88925 0.0
N70 N 0.51928 0.37338 0.93838 0.0
N71 N 0.49715 0.40285 0.01859 0.0
C72 C 0.52896 0.37236 0.99254 0.0
C73 C 0.46622 0.423 0.9787 0.0
C74 C 0.47993 0.40501 0.92993 0.0
O75 O 0.50674 0.25509 0.93052 0.0
C76 C 0.49439 0.31305 0.77487 0.0
O77 O 0.50905 0.2643 0.78018 0.0
H78 H 0.55704 0.34767 0.01189 0.0
H79 H 0.45956 0.41127 0.8914 0.0
N80 N 0.60627 0.31716 0.88235 0.0
N81 N 0.67424 0.27862 0.85008 0.0
C82 C 0.62744 0.2992 0.83801 0.0
C83 C 0.64213 0.3093 0.92362 0.0
C84 C 0.68381 0.28531 0.90391 0.0
C85 C 0.53479 0.21564 0.93612 0.0
O86 O 0.56438 0.20538 0.89642 0.0
H87 H 0.60656 0.29617 0.79849 0.0
H88 H 0.63519 0.31437 0.96577 0.0
O89 O 0.49827 0.34161 0.81779 0.0
H90 H 0.43388 0.44714 0.98404 0.0
H91 H 0.71632 0.27035 0.92791 0.0
Cu92 Cu 0.13808 0.01429 0.28177 0.0
N93 N 0.08572 0.99501 0.33301 0.0
N94 N 0.00999 0.98858 0.37897 0.0
C95 C 0.03926 0.01609 0.34106 0.0
C96 C 0.03934 0.94893 0.3952 0.0
C97 C 0.08523 0.95253 0.36661 0.0
O98 O 0.09751 0.02304 0.2134 0.0
C99 C 0.22986 0.09227 0.27461 0.0
O100 O 0.23365 0.06631 0.22926 0.0
H101 H 0.02772 0.05174 0.32085 0.0
H102 H 0.11614 0.92583 0.36993 0.0
N103 N 0.17914 0.95698 0.2718 0.0
N104 N 0.24841 0.90755 0.26894 0.0
C105 C 0.22835 0.94834 0.29411 0.0
C106 C 0.16838 0.92115 0.23101 0.0
C107 C 0.21094 0.89144 0.22874 0.0
C108 C 0.0659 0.05868 0.20378 0.0
O109 O 0.06597 0.09853 0.23834 0.0
H110 H 0.25018 0.97325 0.32604 0.0
H111 H 0.13369 0.91954 0.20233 0.0
O112 O 0.18928 0.078 0.30266 0.0
H113 H 0.02901 0.91996 0.42633 0.0
H114 H 0.21616 0.86359 0.19676 0.0
Cu115 Cu 0.2652 0.92261 0.51672 0.0
N116 N 0.26269 0.87414 0.45799 0.0
N117 N 0.28486 0.8115 0.40142 0.0
C118 C 0.29932 0.84058 0.44718 0.0
C119 C 0.238 0.82798 0.38225 0.0
C120 C 0.22444 0.86646 0.41706 0.0
O121 O 0.25484 0.8805 0.58331 0.0
C122 C 0.36004 0.99907 0.55077 0.0
O123 O 0.33818 0.00719 0.59637 0.0
H124 H 0.33549 0.83692 0.47261 0.0
H125 H 0.18911 0.88737 0.41281 0.0
N126 N 0.21071 0.96941 0.5057 0.0
N127 N 0.16681 0.04356 0.49701 0.0
C128 C 0.21562 0.02427 0.50288 0.0
C129 C 0.1571 0.95354 0.50155 0.0
C130 C 0.1303 0.99861 0.49647 0.0
C131 C 0.28501 0.84576 0.60138 0.0
O132 O 0.32858 0.83935 0.57642 0.0
H133 H 0.25431 0.04947 0.50621 0.0
H134 H 0.13863 0.91192 0.5036 0.0
O135 O 0.33534 0.96518 0.51661 0.0
H136 H 0.2154 0.81342 0.34547 0.0
H137 H 0.08707 0.99805 0.49527 0.0
Cu138 Cu 0.39865 0.09908 0.78603 0.0
N139 N 0.44518 0.09964 0.84833 0.0
N140 N 0.5109 0.0704 0.90318 0.0
C141 C 0.49228 0.07826 0.85152 0.0
C142 C 0.47316 0.08799 0.93325 0.0
C143 C 0.43277 0.10501 0.89961 0.0
O144 O 0.44393 0.09033 0.72557 0.0
C145 C 0.29564 0.03701 0.77514 0.0
O146 O 0.28384 0.07128 0.73727 0.0
H147 H 0.5092 0.06445 0.81619 0.0
H148 H 0.3947 0.1153 0.91163 0.0
N149 N 0.3664 0.16355 0.77502 0.0
N150 N 0.30354 0.2199 0.75623 0.0
C151 C 0.31646 0.17613 0.78492 0.0
C152 C 0.38564 0.2011 0.74001 0.0
C153 C 0.34764 0.23556 0.72866 0.0
C154 C 0.46393 0.04723 0.71485 0.0
O155 O 0.44714 1.00248 0.74033 0.0
H156 H 0.28917 0.15192 0.81009 0.0
H157 H 0.42268 0.19994 0.72013 0.0
O158 O 0.34333 0.03927 0.79648 0.0
H159 H 0.47304 0.08684 0.97665 0.0
H160 H 0.35022 0.26667 0.69842 0.0
Cu161 Cu 0.29858 0.18346 0.0137 0.0
N162 N 0.3187 0.23239 0.9579 0.0
N163 N 0.32508 0.31262 0.91518 0.0
C164 C 0.30445 0.283 0.95641 0.0
C165 C 0.35289 0.27903 0.88873 0.0
C166 C 0.3495 0.22994 0.91555 0.0
O167 O 0.28161 0.23677 0.06717 0.0
C168 C 0.24296 0.09221 0.95234 0.0
O169 O 0.28597 0.09878 0.92407 0.0
H170 H 0.27772 0.29744 0.98418 0.0
H171 H 0.36781 0.19519 0.90438 0.0
N172 N 0.3558 0.14743 0.04382 0.0
N173 N 0.40734 0.08183 0.06739 0.0
C174 C 0.37164 0.09941 0.02984 0.0
C175 C 0.38189 0.16002 0.09204 0.0
C176 C 0.41307 0.11995 0.10668 0.0
C177 C 0.26923 0.23468 0.11623 0.0
O178 O 0.26054 0.18724 0.13962 0.0
H179 H 0.35661 0.07727 0.99361 0.0
H180 H 0.37671 0.19484 0.1162 0.0
O181 O 0.23933 0.12564 0.99083 0.0
H182 H 0.37351 0.28892 0.85221 0.0
H183 H 0.43705 0.11838 0.14446 0.0
Cu184 Cu 0.78974 0.43209 0.03682 0.0
N185 N 0.79866 0.39461 0.97296 0.0
N186 N 0.82546 0.33291 0.91757 0.0
C187 C 0.80545 0.3422 0.96593 0.0
C188 C 0.83056 0.38193 0.89372 0.0
C189 C 0.81338 0.41921 0.92709 0.0
O190 O 0.79612 0.38769 0.10008 0.0
C191 C 0.88524 0.49712 0.01863 0.0
O192 O 0.9028 0.4511 1.00762 0.0
H193 H 0.7976 0.31208 0.99669 0.0
H194 H 0.81479 0.46221 0.91978 0.0
N195 N 0.72139 0.45373 0.03775 0.0
N196 N 0.65566 0.50122 0.06051 0.0
C197 C 0.70752 0.50367 0.04662 0.0
C198 C 0.67746 0.4189 0.04657 0.0
C199 C 0.63757 0.44784 0.06107 0.0
C200 C 0.82646 0.3508 0.10735 0.0
O201 O 0.86355 0.34549 0.07328 0.0
H202 H 0.73601 0.54027 0.04743 0.0
H203 H 0.67622 0.37532 0.04706 0.0
O204 O 0.83994 0.49642 0.03902 0.0
H205 H 0.84519 0.39125 0.85478 0.0
H206 H 0.59901 0.43065 0.07347 0.0
Cu207 Cu 0.91707 0.51857 0.29346 0.0
N208 N 0.95886 0.54561 0.3551 0.0
N209 N 0.02818 0.54957 0.41759 0.0
C210 C 0.0109 0.5382 0.36571 0.0
C211 C 0.98516 0.56521 0.44073 0.0
C212 C 0.94254 0.56316 0.40187 0.0
O213 O 0.96508 0.51399 0.2339 0.0
C214 C 0.83294 0.43225 0.28158 0.0
O215 O 0.83237 0.44791 0.23104 0.0
H216 H 0.03471 0.52102 0.33691 0.0
H217 H 0.90171 0.57088 0.40803 0.0
N218 N 0.86838 0.56467 0.26499 0.0
N219 N 0.80004 0.61375 0.24628 0.0
C220 C 0.83423 0.59643 0.28561 0.0
C221 C 0.85479 0.56194 0.21173 0.0
C222 C 0.81233 0.59033 0.20041 0.0
C223 C 1.00493 0.48897 0.22374 0.0
O224 O 0.02 0.45213 0.25749 0.0
H225 H 0.83361 0.60564 0.32816 0.0
H226 H 0.87234 0.53755 0.18329 0.0
O227 O 0.87168 0.45267 0.31399 0.0
H228 H 0.98379 0.57551 0.48283 0.0
H229 H 0.79065 0.59113 0.16132 0.0
Cu230 Cu 0.7475 0.69842 0.50501 0.0
N231 N 0.76556 0.73523 0.44166 0.0
N232 N 0.77092 0.80128 0.37973 0.0
C233 C 0.76004 0.78745 0.43106 0.0
C234 C 0.7835 0.75549 0.35737 0.0
C235 C 0.7813 0.71529 0.39593 0.0
O236 O 0.74246 0.75673 0.55729 0.0
C237 C 0.6708 0.60566 0.52044 0.0
O238 O 0.69722 0.60432 0.56783 0.0
H239 H 0.746 0.81423 0.45985 0.0
H240 H 0.78903 0.67399 0.39069 0.0
N241 N 0.8021 0.65739 0.5299 0.0
N242 N 0.85105 0.58793 0.54339 0.0
C243 C 0.82279 0.61589 0.50667 0.0
C244 C 0.81753 0.6554 0.58244 0.0
C245 C 0.84582 0.61238 0.59109 0.0
C246 C 0.72893 0.75442 0.60601 0.0
O247 O 0.71069 0.70746 0.62653 0.0
H248 H 0.81509 0.60492 0.46446 0.0
H249 H 0.80545 0.681 0.6132 0.0
O250 O 0.68264 0.6461 0.48968 0.0
H251 H 0.79201 0.7504 0.31583 0.0
H252 H 0.85779 0.59857 0.63078 0.0
Cu253 Cu 0.65873 0.52926 0.80538 0.0
N254 N 0.61521 0.52625 0.86574 0.0
N255 N 0.54459 0.5328 0.91673 0.0
C256 C 0.56652 0.54463 0.86883 0.0
C257 C 0.58105 0.50642 0.94475 0.0
C258 C 0.62429 0.50248 0.91367 0.0
O259 O 0.61067 0.50181 0.745 0.0
C260 C 0.72854 0.61975 0.76165 0.0
O261 O 0.72271 0.59325 0.71551 0.0
H262 H 0.54787 0.56705 0.8371 0.0
H263 H 0.65967 0.48316 0.92523 0.0
N264 N 0.70883 0.47912 0.8084 0.0
N265 N 0.7679 0.42845 0.77632 0.0
C266 C 0.74875 0.47674 0.77423 0.0
C267 C 0.70238 0.43035 0.83213 0.0
C268 C 0.7384 0.39922 0.81213 0.0
C269 C 0.5711 0.52402 0.72535 0.0
O270 O 0.56597 0.57396 0.73876 0.0
H271 H 0.76032 0.50764 0.74506 0.0
H272 H 0.67078 0.4168 0.85864 0.0
O273 O 0.70074 0.60137 0.80072 0.0
H274 H 0.57572 0.49001 0.98449 0.0
H275 H 0.74211 0.35775 0.82192 0.0
H276 H 0.84597 0.37314 0.56927 0.0
H277 H 0.96301 0.30261 0.67129 0.0
H278 H 0.00801 0.37596 0.52143 0.0
H279 H 0.03674 0.26836 0.51896 0.0
H280 H 0.17605 0.24074 0.62207 0.0
H281 H 0.05951 0.33088 0.68232 0.0
C282 C 0.88515 0.3585 0.57487 0.0
C283 C 0.9253 0.38001 0.54159 0.0
C284 C 0.90071 0.33956 0.6258 0.0
C285 C 0.95179 0.32069 0.63325 0.0
C286 C 0.98889 0.32703 0.59188 0.0
C287 C 0.97656 0.36079 0.54772 0.0
C288 C 0.04254 0.30458 0.59849 0.0
C289 C 0.06111 0.27381 0.55638 0.0
C290 C 0.1096 0.24896 0.56406 0.0
C291 C 0.13983 0.25949 0.613 0.0
C292 C 0.12203 0.28722 0.65549 0.0
C293 C 0.07339 0.30991 0.64871 0.0
H294 H 0.90345 0.65036 0.85701 0.0
H295 H 0.03889 0.73097 0.95122 0.0
H296 H 0.96488 0.81424 0.81817 0.0
H297 H 0.07153 0.83011 0.80412 0.0
H298 H 0.20568 0.88392 0.9139 0.0
H299 H 0.04996 0.8394 0.9741 0.0
C300 C 0.93376 0.68562 0.86319 0.0
C301 C 0.92863 0.73198 0.83291 0.0
C302 C 0.97068 0.68658 0.90739 0.0
C303 C 0.00942 0.73154 0.91723 0.0
C304 C 0.01041 0.77677 0.88286 0.0
C305 C 0.96795 0.77799 0.84168 0.0
C306 C 0.05813 0.8194 0.88964 0.0
C307 C 0.08849 0.83662 0.84513 0.0
C308 C 0.14012 0.86596 0.85542 0.0
C309 C 0.16411 0.86464 0.90785 0.0
C310 C 0.12927 0.87175 0.94839 0.0
C311 C 0.07687 0.84187 0.94137 0.0
H312 H 0.42991 0.93158 0.1732 0.0
H313 H 0.48182 0.79164 0.25067 0.0
H314 H 0.54229 0.84381 0.09671 0.0
H315 H 0.51685 0.72523 0.10244 0.0
H316 H 0.59631 0.62705 0.21763 0.0
H317 H 0.60292 0.79613 0.24652 0.0
C318 C 0.45527 0.89911 0.17431 0.0
C319 C 0.4861 0.8925 0.13059 0.0
C320 C 0.45324 0.86376 0.21753 0.0
C321 C 0.48459 0.82048 0.21794 0.0
C322 C 0.51748 0.81252 0.17484 0.0
C323 C 0.51773 0.84893 0.13032 0.0
C324 C 0.54919 0.76487 0.17814 0.0
C325 C 0.53956 0.72105 0.14057 0.0
C326 C 0.55863 0.67105 0.15424 0.0
C327 C 0.58214 0.66528 0.2063 0.0
C328 C 0.60706 0.71089 0.23387 0.0
C329 C 0.58758 0.76076 0.22229 0.0
H330 H 0.39426 0.13662 0.40821 0.0
H331 H 0.54608 0.21745 0.4737 0.0
H332 H 0.45659 0.28953 0.34229 0.0
H333 H 0.60195 0.26651 0.35698 0.0
H334 H 0.66813 0.42512 0.41373 0.0
H335 H 0.50859 0.35899 0.45502 0.0
C336 C 0.42615 0.17071 0.40772 0.0
C337 C 0.42019 0.21209 0.37128 0.0
C338 C 0.47066 0.17156 0.44416 0.0
C339 C 0.51141 0.21622 0.44491 0.0
C340 C 0.50704 0.25922 0.40772 0.0
C341 C 0.46088 0.2569 0.37062 0.0
C342 C 0.55079 0.30606 0.40793 0.0
C343 C 0.59831 0.30235 0.38044 0.0
C344 C 0.64066 0.34565 0.38284 0.0
C345 C 0.63549 0.3917 0.41257 0.0
C346 C 0.58788 0.39792 0.437 0.0
C347 C 0.54543 0.35471 0.43553 0.0
H348 H 0.65234 0.94033 0.37379 0.0
H349 H 0.71664 0.03869 0.24544 0.0
H350 H 0.56422 0.06591 0.309 0.0
H351 H 0.56634 0.07446 0.18376 0.0
H352 H 0.64564 0.22988 0.13715 0.0
H353 H 0.71692 0.14193 0.2654 0.0
C354 C 0.64831 0.97282 0.34498 0.0
C355 C 0.60316 0.99999 0.34503 0.0
C356 C 0.68968 0.98722 0.31092 0.0
C357 C 0.68467 0.02839 0.27267 0.0
C358 C 0.63879 0.05699 0.27043 0.0
C359 C 0.59815 0.04289 0.3078 0.0
C360 C 0.63792 0.10523 0.23353 0.0
C361 C 0.59757 0.10824 0.19056 0.0
C362 C 0.60067 0.15358 0.15493 0.0
C363 C 0.64203 0.19596 0.165 0.0
C364 C 0.68501 0.19057 0.20235 0.0
C365 C 0.68275 0.14603 0.23716 0.0
H366 H 0.14124 0.41632 0.40945 0.0
H367 H 0.27034 0.46832 0.52609 0.0
H368 H 0.27673 0.3264 0.4266 0.0
H369 H 0.31586 0.30178 0.5264 0.0
H370 H 0.47975 0.37206 0.56051 0.0
H371 H 0.35858 0.47326 0.52327 0.0
C372 C 0.17944 0.4096 0.43042 0.0
C373 C 0.20536 0.36687 0.41453 0.0
C374 C 0.20448 0.44778 0.46755 0.0
C375 C 0.25323 0.43937 0.49528 0.0
C376 C 0.27952 0.39421 0.48224 0.0
C377 C 0.25544 0.35846 0.44058 0.0
C378 C 0.33406 0.38748 0.50821 0.0
C379 C 0.34733 0.33596 0.52571 0.0
C380 C 0.39908 0.33212 0.55171 0.0
C381 C 0.43889 0.37581 0.54426 0.0
C382 C 0.4211 0.42612 0.55035 0.0
C383 C 0.37094 0.43348 0.5245 0.0
H384 H 0.95486 0.16303 0.92191 0.0
H385 H 0.85218 0.09476 0.78774 0.0
H386 H 0.95924 0.99765 0.8767 0.0
H387 H 0.98185 0.02354 0.75909 0.0
H388 H 0.89576 0.88656 0.6742 0.0
H389 H 0.81415 0.97316 0.78705 0.0
C390 C 0.94227 0.12938 0.89415 0.0
C391 C 0.96107 0.07986 0.90462 0.0
C392 C 0.89922 0.13312 0.85674 0.0
C393 C 0.88257 0.09036 0.82 0.0
C394 C 0.90696 0.04224 0.82474 0.0
C395 C 0.94408 0.0361 0.86939 0.0
C396 C 0.89987 1.00117 0.7807 0.0
C397 C 0.9458 0.99472 0.75267 0.0
C398 C 0.94532 0.95138 0.71702 0.0
C399 C 0.89688 0.91839 0.70429 0.0
C400 C 0.84919 0.92677 0.72735 0.0
C401 C 0.85043 0.96774 0.76704 0.0
H402 H 0.40759 0.67846 0.93631 0.0
H403 H 0.31238 0.57953 0.04591 0.0
H404 H 0.27812 0.7427 0.0098 0.0
H405 H 0.26944 0.72835 0.11608 0.0
H406 H 0.10962 0.65631 0.14283 0.0
H407 H 0.20772 0.5733 0.04278 0.0
C408 C 0.37543 0.67415 0.96415 0.0
C409 C 0.34527 0.71677 0.97053 0.0
C410 C 0.36388 0.62476 0.98987 0.0
C411 C 0.32111 0.61769 0.02527 0.0
C412 C 0.28979 0.66065 0.03376 0.0
C413 C 0.30248 0.71009 1.00562 0.0
C414 C 0.24244 0.65466 0.06957 0.0
C415 C 0.23652 0.69632 0.10724 0.0
C416 C 0.18826 0.6953 0.13427 0.0
C417 C 0.14593 0.65566 0.12094 0.0
C418 C 0.15372 0.60892 0.0934 0.0
C419 C 0.20218 0.60835 0.06654 0.0
H420 H 0.62137 0.88459 0.91801 0.0
H421 H 0.72543 0.97304 0.04042 0.0
H422 H 0.76546 0.8217 0.97945 0.0
H423 H 0.76694 0.82433 0.10084 0.0
H424 H 0.91913 0.90552 0.16567 0.0
H425 H 0.83494 0.97309 0.03063 0.0
C426 C 0.65645 0.88701 0.94667 0.0
C427 C 0.69177 0.84847 0.94411 0.0
C428 C 0.67003 0.93357 0.97782 0.0
C429 C 0.71537 0.93722 0.01529 0.0
C430 C 0.74838 0.89471 0.01901 0.0
C431 C 0.73755 0.85144 0.98113 0.0
C432 C 0.79608 0.89738 0.05957 0.0
C433 C 0.79969 0.85655 0.09909 0.0
C434 C 0.84425 0.85974 0.13766 0.0
C435 C 0.88486 0.90303 0.13599 0.0
C436 C 0.8814 0.94476 0.09932 0.0
C437 C 0.83739 0.94184 0.06037 0.0
H438 H 0.4259 0.66618 0.42714 0.0
H439 H 0.35869 0.58334 0.28197 0.0
H440 H 0.46923 0.50952 0.39313 0.0
H441 H 0.49364 0.5126 0.27279 0.0
H442 H 0.41589 0.35787 0.21696 0.0
H443 H 0.32373 0.46843 0.291 0.0
C444 C 0.42329 0.63156 0.39999 0.0
C445 C 0.45104 0.58886 0.41534 0.0
C446 C 0.39146 0.63115 0.35216 0.0
C447 C 0.38467 0.58444 0.31875 0.0
C448 C 0.41324 0.53987 0.33262 0.0
C449 C 0.44702 0.54281 0.38147 0.0
C450 C 0.41107 0.49175 0.2954 0.0
C451 C 0.45861 0.48197 0.27091 0.0
C452 C 0.45895 0.43484 0.23959 0.0
C453 C 0.41471 0.39504 0.23953 0.0
C454 C 0.36437 0.40963 0.24953 0.0
C455 C 0.36215 0.45758 0.27999 0.0
H456 H 0.87908 0.14897 0.42468 0.0
H457 H 0.81636 0.04302 0.54911 0.0
H458 H 0.77243 0.20568 0.53412 0.0
H459 H 0.81024 0.18194 0.64493 0.0
H460 H 0.67659 0.10145 0.72697 0.0
H461 H 0.69486 0.06127 0.56216 0.0
C462 C 0.8542 0.1413 0.45892 0.0
C463 C 0.82598 0.1823 0.47591 0.0
C464 C 0.84921 0.09015 0.48225 0.0
C465 C 0.81895 0.08178 0.52894 0.0
C466 C 0.79215 0.12418 0.54944 0.0
C467 C 0.79481 0.17397 0.52122 0.0
C468 C 0.76064 0.11703 0.59945 0.0
C469 C 0.77613 0.15042 0.64575 0.0
C470 C 0.74621 0.14392 0.69253 0.0
C471 C 0.70158 0.10434 0.69248 0.0
C472 C 0.6804 0.07797 0.64529 0.0
C473 C 0.7109 0.08228 0.59896 0.0
H474 H 0.169 0.42972 0.91438 0.0
H475 H 0.23572 0.54205 0.79686 0.0
H476 H 0.07089 0.54348 0.84292 0.0
H477 H 0.06547 0.55654 0.74079 0.0
H478 H 0.11555 0.71375 0.67925 0.0
H479 H 0.22425 0.64024 0.78968 0.0
C480 C 0.1645 0.46294 0.88659 0.0
C481 C 0.11531 0.48351 0.88176 0.0
C482 C 0.20828 0.48412 0.85757 0.0
C483 C 0.20215 0.52672 0.82055 0.0
C484 C 0.15214 0.54878 0.81396 0.0
C485 C 0.10899 0.5268 0.84578 0.0
C486 C 0.14419 0.59414 0.77423 0.0
C487 C 0.09523 0.59221 0.74105 0.0
C488 C 0.08604 0.6357 0.70654 0.0
C489 C 0.12381 0.68136 0.70684 0.0
C490 C 0.17476 0.68275 0.73326 0.0
C491 C 0.18521 0.63895 0.76769 0.0
C492 C 0.04687 0.46052 0.01238 0.0
C493 C 0.02426 0.40595 0.00961 0.0
C494 C 0.0718 0.48726 0.96881 0.0
C495 C 0.07437 0.46053 0.91955 0.0
H496 H 0.04672 0.48196 0.04957 0.0
H497 H 0.09134 0.52843 0.9746 0.0
S498 S 0.02342 0.31629 0.89054 0.0
N499 N 1.00659 0.32559 0.95284 0.0
N500 N 0.0539 0.37521 0.87078 0.0
C501 C 0.05137 0.40578 0.91557 0.0
C502 C 0.02621 0.37858 0.9604 0.0
C503 C 0.87344 0.81689 0.28086 0.0
C504 C 0.89223 0.76628 0.27539 0.0
C505 C 0.8527 0.84394 0.23621 0.0
C506 C 0.85016 0.82228 0.1837 0.0
H507 H 0.87589 0.83672 0.31989 0.0
H508 H 0.84146 0.884 0.24236 0.0
S509 S 0.90323 0.69702 0.1454 0.0
N510 N 0.91129 0.69813 0.21189 0.0
N511 N 0.87506 0.75141 0.12772 0.0
C512 C 0.8704 0.77295 0.1771 0.0
C513 C 0.89063 0.74444 0.22287 0.0
C514 C 0.54985 0.66708 0.51196 0.0
C515 C 0.51858 0.66999 0.55693 0.0
C516 C 0.53164 0.63253 0.4681 0.0
C517 C 0.48258 0.59783 0.46799 0.0
H518 H 0.58599 0.69549 0.50795 0.0
H519 H 0.55227 0.6386 0.43115 0.0
S520 S 0.38806 0.58631 0.57791 0.0
N521 N 0.43845 0.63147 0.60084 0.0
N522 N 0.40432 0.56764 0.51796 0.0
C523 C 0.45347 0.59725 0.51477 0.0
C524 C 0.47145 0.63289 0.55926 0.0
C525 C 0.7085 0.26594 0.76023 0.0
C526 C 0.7028 0.24873 0.81377 0.0
C527 C 0.7318 0.23535 0.7226 0.0
C528 C 0.74862 0.18504 0.73648 0.0
H529 H 0.69183 0.30199 0.74678 0.0
H530 H 0.73072 0.24816 0.68082 0.0
S531 S 0.73269 0.11677 0.86872 0.0
N532 N 0.71074 0.1757 0.87716 0.0
N533 N 0.75407 0.11778 0.80709 0.0
C534 C 0.74393 0.16778 0.7905 0.0
C535 C 0.72046 0.19923 0.82872 0.0
C536 C 0.96772 0.6754 0.62102 0.0
C537 C 0.98645 0.67439 0.56848 0.0
C538 C 0.99662 0.65577 0.66607 0.0
C539 C 0.04504 0.63366 0.66032 0.0
H540 H 0.93193 0.69412 0.62801 0.0
H541 H 0.98303 0.66117 0.70606 0.0
S542 S 0.11951 0.63577 0.53588 0.0
N543 N 0.06179 0.65764 0.51629 0.0
N544 N 0.11423 0.6192 0.59984 0.0
C545 C 0.06401 0.63211 0.60814 0.0
C546 C 0.03543 0.65309 0.56267 0.0
C547 C 0.68732 0.82916 0.79561 0.0
C548 C 0.64006 0.79277 0.78536 0.0
C549 C 0.70996 0.83978 0.84834 0.0
C550 C 0.68451 0.81635 0.89336 0.0
H551 H 0.70358 0.85384 0.76321 0.0
H552 H 0.74371 0.87161 0.85424 0.0
S553 S 0.55942 0.71817 0.88862 0.0
N554 N 0.57018 0.73063 0.82448 0.0
N555 N 0.60933 0.75486 0.92389 0.0
C556 C 0.63815 0.77838 0.88356 0.0
C557 C 0.61641 0.76597 0.82963 0.0
C558 C 0.47166 0.45802 0.09328 0.0
C559 C 0.49454 0.41262 0.07608 0.0
C560 C 0.46756 0.46911 0.14785 0.0
C561 C 0.48655 0.43572 0.18853 0.0
H562 H 0.45535 0.48506 0.06456 0.0
H563 H 0.44554 0.50212 0.15808 0.0
S564 S 0.54743 0.3099 0.16749 0.0
N565 N 0.53493 0.33234 0.10583 0.0
N566 N 0.52778 0.3544 0.20871 0.0
C567 C 0.51069 0.39074 0.17263 0.0
C568 C 0.51416 0.37867 0.1166 0.0
C569 C 0.79669 0.23406 0.34262 0.0
C570 C 0.8495 0.25467 0.32959 0.0
C571 C 0.78444 0.22203 0.39612 0.0
C572 C 0.82511 0.22859 0.43827 0.0
H573 H 0.76603 0.22189 0.31084 0.0
H574 H 0.74549 0.19932 0.40297 0.0
S575 S 0.9658 0.29367 0.42771 0.0
N576 N 0.93934 0.29192 0.36507 0.0
N577 N 0.91662 0.26795 0.46528 0.0
C578 C 0.87513 0.25796 0.42706 0.0
C579 C 0.8876 0.27054 0.37257 0.0
C580 C 0.9601 1.0031 0.45987 0.0
C581 C 0.96234 1.00312 0.40336 0.0
C582 C 0.91956 0.02563 0.48606 0.0
C583 C 0.87892 0.04911 0.45622 0.0
H584 H 0.99301 0.98967 0.48379 0.0
H585 H 0.92302 0.02894 0.52972 0.0
S586 S 0.8604 0.05098 0.30592 0.0
N587 N 0.9161 0.02235 0.31801 0.0
N588 N 0.83933 0.06409 0.36572 0.0
C589 C 0.87774 0.04469 0.39904 0.0
C590 C 0.91957 0.02229 0.37288 0.0
C591 C 0.22307 0.81892 0.67502 0.0
C592 C 0.26693 0.80828 0.64584 0.0
C593 C 0.1982 0.78022 0.70958 0.0
C594 C 0.21528 0.72845 0.71634 0.0
H595 H 0.20574 0.85641 0.66909 0.0
H596 H 0.16209 0.78927 0.72795 0.0
S597 S 0.33543 0.68425 0.65814 0.0
N598 N 0.33235 0.74535 0.633 0.0
N599 N 0.28417 0.67212 0.6972 0.0
C600 C 0.26253 0.71933 0.69191 0.0
C601 C 0.28849 0.75919 0.65674 0.0
C602 C 0.55959 0.02384 0.97684 0.0
C603 C 0.55591 0.04182 0.92269 0.0
C604 C 0.60005 0.99317 0.99667 0.0
C605 C 0.63895 0.97902 0.96311 0.0
H606 H 0.53005 0.032 1.00412 0.0
H607 H 0.59913 0.97798 0.03761 0.0
S608 S 0.64784 0.01097 0.81742 0.0
N609 N 0.59696 0.04147 0.83583 0.0
N610 N 0.67131 0.98286 0.87283 0.0
C611 C 0.6371 0.99727 0.90927 0.0
C612 C 0.59606 0.02863 0.88903 0.0
C613 C 0.29913 0.33554 0.12701 0.0
C614 C 0.27644 0.28616 0.14916 0.0
C615 C 0.31902 0.38053 0.16018 0.0
C616 C 0.31871 0.37768 0.21713 0.0
H617 H 0.3054 0.33839 0.08427 0.0
H618 H 0.3409 0.41545 0.14164 0.0
S619 S 0.25023 0.26509 0.29252 0.0
N620 N 0.2418 0.24333 0.22967 0.0
N621 N 0.28674 0.32488 0.29247 0.0
C622 C 0.29142 0.33093 0.23873 0.0
C623 C 0.2685 0.28612 0.20474 0.0
C624 C 0.9671 0.05362 0.17828 0.0
C625 C 0.0191 0.04491 0.16429 0.0
C626 C 0.92059 0.02623 0.15108 0.0
C627 C 0.92436 0.99093 0.10761 0.0
H628 H 0.96217 0.07734 0.21374 0.0
H629 H 0.88162 0.02902 0.16708 0.0
S630 S 0.05036 0.96125 0.0501 0.0
N631 N 0.07144 1.0033 0.10058 0.0
N632 N 0.98365 0.9533 0.04853 0.0
C633 C 0.97582 0.98636 0.08994 0.0
C634 C 0.02326 0.01311 0.11838 0.0
C635 C 0.28201 0.7171 0.36916 0.0
C636 C 0.3111 0.7685 0.37985 0.0
C637 C 0.30727 0.67324 0.35278 0.0
C638 C 0.36252 0.67937 0.34449 0.0
H639 H 0.24044 0.70922 0.37758 0.0
H640 H 0.28484 0.63315 0.35224 0.0
S641 S 0.45758 0.80566 0.36575 0.0
N642 N 0.39869 0.82297 0.38122 0.0
N643 N 0.44589 0.74166 0.34646 0.0
C644 C 0.39172 0.73159 0.3518 0.0
C645 C 0.36634 0.77561 0.37096 0.0
C646 C 0.54779 0.00896 0.69033 0.0
C647 C 0.51442 0.05064 0.6848 0.0
C648 C 0.60066 0.01565 0.67258 0.0
C649 C 0.62101 0.06213 0.64463 0.0
H650 H 0.53496 0.97265 0.71267 0.0
H651 H 0.62734 0.98598 0.68419 0.0
S652 S 0.55341 0.18512 0.62335 0.0
N653 N 0.50838 0.1424 0.6529 0.0
N654 N 0.60557 0.15207 0.61576 0.0
C655 C 0.58755 0.10327 0.63715 0.0
C656 C 0.53481 0.098 0.65762 0.0
C657 C 0.29421 0.37336 0.84427 0.0
C658 C 0.31118 0.36507 0.89822 0.0
C659 C 0.26769 0.41802 0.82835 0.0
C660 C 0.25764 0.4565 0.8665 0.0
H661 H 0.29832 0.34259 0.8154 0.0
H662 H 0.25012 0.41927 0.78735 0.0
S663 S 0.30473 0.45978 0.01164 0.0
N664 N 0.32411 0.40372 0.9884 0.0
N665 N 0.27481 0.48798 0.95943 0.0
C666 C 0.28047 0.45211 0.91966 0.0
C667 C 0.30676 0.40621 0.93556 0.0
C668 C 0.48476 0.0337 0.09677 0.0
C669 C 0.43428 0.03318 0.06811 0.0
C670 C 0.50955 0.98667 0.10563 0.0
C671 C 0.48311 0.93562 0.0893 0.0
H672 H 0.50409 0.07071 0.11476 0.0
H673 H 0.54587 0.9893 0.13236 0.0
S674 S 0.35321 0.91088 1.00636 0.0
N675 N 0.36205 0.97707 0.01644 0.0
N676 N 0.40655 0.88781 0.0367 0.0
C677 C 0.43507 0.93472 0.05581 0.0
C678 C 0.4106 0.98336 0.04514 0.0
C679 C 0.95626 0.54768 0.96525 0.0
C680 C 0.91124 0.54819 0.99648 0.0
C681 C 0.98037 0.59483 0.9413 0.0
C682 C 0.95939 0.64386 0.94711 0.0
H683 H 0.97074 0.50994 0.95637 0.0
H684 H 0.01287 0.59211 0.91487 0.0
S685 S 0.8378 0.66644 0.01785 0.0
N686 N 0.84403 0.60196 0.02798 0.0
N687 N 0.8893 0.69036 0.98246 0.0
C688 C 0.91408 0.64518 0.97756 0.0
C689 C 0.88943 0.59727 1.00174 0.0
C690 C 0.72473 0.64606 0.29378 0.0
C691 C 0.75821 0.64883 0.24996 0.0
C692 C 0.67927 0.67479 0.29332 0.0
C693 C 0.66494 0.70606 0.24841 0.0
H694 H 0.73171 0.61904 0.32701 0.0
H695 H 0.65236 0.66852 0.32591 0.0
S696 S 0.73519 0.72018 0.1211 0.0
N697 N 0.77268 0.68485 0.16051 0.0
N698 N 0.68589 0.7339 0.15768 0.0
C699 C 0.69896 0.70971 0.20514 0.0
C700 C 0.74544 0.68195 0.20621 0.0
C701 C 0.62349 0.51185 0.53514 0.0
C702 C 0.6352 0.55605 0.50008 0.0
C703 C 0.59933 0.46088 0.51565 0.0
C704 C 0.58543 0.45227 0.46037 0.0
H705 H 0.63663 0.51536 0.57757 0.0
H706 H 0.59638 0.42692 0.54319 0.0
S707 S 0.60316 0.55396 0.3516 0.0
N708 N 0.62888 0.58693 0.40687 0.0
N709 N 0.57998 0.49263 0.37154 0.0
C710 C 0.59198 0.49714 0.42572 0.0
C711 C 0.61826 0.54843 0.44504 0.0
C712 C 0.34801 0.93017 0.28463 0.0
C713 C 0.30236 0.89142 0.27431 0.0
C714 C 0.40019 0.91844 0.27437 0.0
C715 C 0.40837 0.86764 0.25332 0.0
H716 H 0.34298 0.97117 0.29562 0.0
H717 H 0.43339 0.95107 0.27705 0.0
S718 S 0.30552 0.7489 0.23281 0.0
N719 N 0.27126 0.7969 0.25305 0.0
N720 N 0.36876 0.77643 0.23175 0.0
C721 C 0.3644 0.82707 0.24954 0.0
C722 C 0.31152 0.83863 0.26026 0.0
C723 C 0.19362 0.13941 0.52528 0.0
C724 C 0.15531 0.09957 0.50048 0.0
C725 C 0.18092 0.19156 0.5357 0.0
C726 C 0.12718 0.20492 0.52883 0.0
H727 H 0.23387 0.13048 0.5376 0.0
H728 H 0.21359 0.22047 0.55269 0.0
S729 S 0.01991 0.12538 0.44194 0.0
N730 N 0.06805 0.08558 0.44928 0.0
N731 N 0.04142 0.17995 0.47819 0.0
C732 C 0.09073 0.16833 0.49724 0.0
C733 C 0.10508 0.11634 0.48215 0.0
C734 C 0.78685 0.3715 0.35103 0.0
C735 C 0.78375 0.40082 0.30254 0.0
C736 C 0.73977 0.34691 0.37413 0.0
C737 C 0.68795 0.35001 0.34919 0.0
H738 H 0.82571 0.36943 0.37244 0.0
H739 H 0.74367 0.32869 0.41368 0.0
S740 S 0.65714 0.42336 0.22309 0.0
N741 N 0.72378 0.43252 0.23128 0.0
N742 N 0.63637 0.38501 0.274 0.0
C743 C 0.68449 0.37749 0.29988 0.0
C744 C 0.732 0.40341 0.2769 0.0
C745 C 0.81879 0.66887 0.73818 0.0
C746 C 0.77492 0.66375 0.77187 0.0
C747 C 0.86782 0.70172 0.75281 0.0
C748 C 0.87529 0.73037 0.80209 0.0
H749 H 0.81693 0.64394 0.70241 0.0
H750 H 0.90208 0.69935 0.7287 0.0
S751 S 0.77326 0.73285 0.90359 0.0
N752 N 0.74167 0.69345 0.85517 0.0
N753 N 0.83335 0.7547 0.88227 0.0
C754 C 0.82991 0.73006 0.83316 0.0
C755 C 0.78027 0.69622 0.8187 0.0
C756 C 0.5357 0.90899 0.44907 0.0
C757 C 0.54676 0.9408 0.49609 0.0
C758 C 0.54653 0.93081 0.39767 0.0
C759 C 0.56876 0.98546 0.3912 0.0
H760 H 0.52328 0.866 0.45267 0.0
H761 H 0.54257 0.9036 0.36328 0.0
S762 S 0.59748 0.08764 0.50017 0.0
N763 N 0.57419 0.03163 0.53151 0.0
N764 N 0.59672 0.07147 0.43574 0.0
C765 C 0.57597 0.0184 0.43735 0.0
C766 C 0.56447 0.99643 0.48945 0.0
C767 C 0.47464 0.29083 0.67768 0.0
C768 C 0.47056 0.32938 0.71931 0.0
C769 C 0.44541 0.28551 0.6266 0.0
C770 C 0.40363 0.31553 0.60941 0.0
H771 H 0.50324 0.26198 0.68435 0.0
H772 H 0.45804 0.25772 0.5979 0.0
S773 S 0.34893 0.47055 0.66693 0.0
N774 N 0.41064 0.46344 0.72669 0.0
N775 N 0.34986 0.39793 0.62796 0.0
C776 C 0.39112 0.35393 0.64525 0.0
C777 C 0.43708 0.37141 0.70306 0.0
C778 C 0.04856 0.12388 0.02499 0.0
C779 C 0.00786 0.13467 0.05869 0.0
C780 C 0.03533 0.09495 0.97641 0.0
C781 C 0.98163 0.07391 0.96118 0.0
H782 H 0.08993 0.14237 0.0332 0.0
H783 H 0.06599 0.09495 0.948 0.0
S784 S 0.86195 0.08301 0.03818 0.0
N785 N 0.91196 0.11793 0.07456 0.0
N786 N 0.88972 0.05764 0.98727 0.0
C787 C 0.94265 0.0766 0.99888 0.0
C788 C 0.95481 0.1095 0.046 0.0
C789 C 0.13145 0.7752 0.24169 0.0
C790 C 0.13444 0.74059 0.28654 0.0
C791 C 0.15465 0.7643 0.19299 0.0
C792 C 0.18322 0.71946 0.18814 0.0
H793 H 0.10973 0.81 0.24387 0.0
H794 H 0.14788 0.78946 0.15813 0.0
S795 S 0.1893 0.60915 0.28798 0.0
N796 N 0.15885 0.65447 0.31864 0.0
N797 N 0.20534 0.63608 0.22955 0.0
C798 C 0.18544 0.68431 0.23269 0.0
C799 C 0.16046 0.69435 0.28114 0.0
C800 C 0.51518 0.20169 0.03545 0.0
C801 C 0.545 0.19088 0.99101 0.0
C802 C 0.52977 0.18493 0.08849 0.0
C803 C 0.57324 0.15461 0.09929 0.0
H804 H 0.48201 0.22571 0.0298 0.0
H805 H 0.50856 0.19813 0.12175 0.0
S806 S 0.66777 0.11984 0.99952 0.0
N807 N 0.6234 0.15124 0.96366 0.0
N808 N 0.64717 0.11671 0.06144 0.0
C809 C 0.60208 0.14208 0.0551 0.0
C810 C 0.58888 0.16082 1.0017 0.0
C811 C 0.11827 0.27615 0.31272 0.0
C812 C 0.12308 0.30697 0.2649 0.0
C813 C 0.14826 0.29325 0.36096 0.0
C814 C 0.18392 0.34166 0.36269 0.0
H815 H 0.09023 0.23922 0.31326 0.0
H816 H 0.14202 0.26973 0.39738 0.0
S817 S 0.20884 0.43872 0.25064 0.0
N818 N 0.16637 0.38851 0.22336 0.0
N819 N 0.21994 0.42172 0.31432 0.0
C820 C 0.18852 0.37299 0.31557 0.0
C821 C 0.15918 0.35518 0.26648 0.0
C822 C 0.02314 0.96013 0.59718 0.0
C823 C 0.02297 0.90433 0.58781 0.0
C824 C 1.00737 0.97891 0.64604 0.0
C825 C 0.99229 0.94211 0.68675 0.0
H826 H 0.02781 0.98857 0.56467 0.0
H827 H 0.99893 0.02044 0.64843 0.0
S828 S 0.01031 0.797 0.69112 0.0
N829 N 0.0248 0.81617 0.62933 0.0
N830 N 0.9969 0.85181 0.72222 0.0
C831 C 1.00545 0.8891 0.68264 0.0
C832 C 0.02055 0.86988 0.63256 0.0
C833 C 0.42342 0.80443 0.87232 0.0
C834 C 0.38387 0.8077 0.82979 0.0
C835 C 0.40947 0.78341 0.92288 0.0
C836 C 0.35551 0.76293 0.93235 0.0
H837 H 0.46585 0.81506 0.86537 0.0
H838 H 0.44184 0.77726 0.9526 0.0
S839 S 0.23594 0.77339 0.83969 0.0
N840 N 0.28751 0.79862 0.8047 0.0
N841 N 0.26193 0.7567 0.89904 0.0
C842 C 0.31523 0.77245 0.89287 0.0
C843 C 0.32926 0.79493 0.84155 0.0
C844 C 0.49271 0.56229 0.99093 0.0
C845 C 0.49473 0.5474 0.93642 0.0
C846 C 0.44662 0.58064 0.01076 0.0
C847 C 0.39975 0.58365 0.97707 0.0
H848 H 0.52791 0.56172 0.01804 0.0
H849 H 0.44915 0.59623 0.0517 0.0
S850 S 0.38072 0.54308 0.83253 0.0
N851 N 0.44327 0.53193 0.85028 0.0
N852 N 0.3567 0.56636 0.88716 0.0
C853 C 0.39975 0.56513 0.92332 0.0
C854 C 0.44708 0.54725 0.903 0.0
C855 C 0.78149 0.3164 0.18907 0.0
C856 C 0.80674 0.30544 0.14217 0.0
C857 C 0.74643 0.27674 0.21379 0.0
C858 C 0.73608 0.22433 0.19231 0.0
H859 H 0.78505 0.35727 0.2032 0.0
H860 H 0.72373 0.28817 0.24671 0.0
S861 S 0.79007 0.17523 0.06923 0.0
N862 N 0.81899 0.23825 0.07541 0.0
N863 N 0.75356 0.16303 0.12195 0.0
C864 C 0.76366 0.21178 0.14734 0.0
C865 C 0.79908 0.25239 0.12221 0.0
C866 C 0.12585 0.54964 0.41094 0.0
C867 C 0.08038 0.54018 0.4418 0.0
C868 C 0.17407 0.52889 0.42626 0.0
C869 C 0.1778 0.49666 0.47264 0.0
H870 H 0.12217 0.56905 0.37227 0.0
H871 H 0.2053 0.53104 0.39761 0.0
S872 S 0.07879 0.47391 0.57591 0.0
N873 N 0.04752 0.50648 0.52756 0.0
N874 N 0.13913 0.46779 0.55574 0.0
C875 C 0.13646 0.49424 0.50798 0.0
C876 C 0.08692 0.5149 0.49233 0.0
C877 C 0.76713 0.79372 0.69519 0.0
C878 C 0.7463 0.80198 0.64223 0.0
C879 C 0.7952 0.83649 0.72648 0.0
C880 C 0.80072 0.88997 0.70731 0.0
H881 H 0.76499 0.75336 0.71115 0.0
H882 H 0.81558 0.82723 0.7646 0.0
S883 S 0.7469 0.93486 0.57418 0.0
N884 N 0.72904 0.86864 0.57367 0.0
N885 N 0.77903 0.94953 0.63366 0.0
C886 C 0.77563 0.89957 0.65635 0.0
C887 C 0.74895 0.85561 0.6236 0.0
C888 C 0.5298 0.51406 0.63245 0.0
C889 C 0.53235 0.4946 0.68569 0.0
C890 C 0.49091 0.4938 0.59145 0.0
C891 C 0.44398 0.45779 0.59952 0.0
H892 H 0.56098 0.54565 0.62115 0.0
H893 H 0.49879 0.50664 0.55063 0.0
S894 S 0.41025 0.39681 0.78932 0.0
N895 N 0.48319 0.43496 0.76357 0.0
N896 N 0.36453 0.39538 0.71509 0.0
C897 C 0.43536 0.44111 0.65501 0.0
C898 C 0.49203 0.45468 0.70147 0.0
C899 C 0.82562 0.23349 0.92529 0.0
C900 C 0.84016 0.28207 0.89748 0.0
C901 C 0.84205 0.18456 0.90951 0.0
C902 C 0.87045 0.18066 0.86293 0.0
H903 H 0.80228 0.23278 0.96043 0.0
H904 H 0.83344 0.14938 0.93481 0.0
S905 S 0.92739 0.29345 0.78032 0.0
N906 N 0.89293 0.32228 0.82422 0.0
N907 N 0.91796 0.22827 0.79266 0.0
C908 C 0.88533 0.22771 0.83443 0.0
C909 C 0.87128 0.27867 0.85182 0.0
C910 C 0.09102 0.49303 0.17361 0.0
C911 C 0.03874 0.50794 0.17763 0.0
C912 C 0.1277 0.51983 0.13807 0.0
C913 C 0.11266 0.56142 0.10381 0.0
H914 H 0.10519 0.46393 0.20154 0.0
H915 H 0.16951 0.5121 0.14181 0.0
S916 S 0.98038 0.61263 0.09503 0.0
N917 N 0.97385 0.56553 0.14157 0.0
N918 N 0.0399 0.61059 0.07102 0.0
C919 C 0.05808 0.5708 0.10206 0.0
C920 C 0.02217 0.5462 0.14036 0.0
C921 C 0.77677 0.90084 0.38645 0.0
C922 C 0.76614 0.85338 0.35484 0.0
C923 C 0.7611 0.94998 0.36747 0.0
C924 C 0.73456 0.95366 0.31593 0.0
H925 H 0.79354 0.89909 0.42767 0.0
H926 H 0.76288 0.98311 0.39598 0.0
S927 S 0.71055 0.84681 0.2121 0.0
N928 N 0.73579 0.81657 0.26561 0.0
N929 N 0.70944 0.91021 0.22988 0.0
C930 C 0.73155 0.90928 0.28126 0.0
C931 C 0.74587 0.85857 0.30087 0.0
C932 C 0.86153 0.50315 0.49249 0.0
C933 C 0.87759 0.53981 0.53573 0.0
C934 C 0.88259 0.45305 0.4894 0.0
C935 C 0.9205 0.43785 0.52939 0.0
H936 H 0.83045 0.51173 0.46244 0.0
H937 H 0.86605 0.42438 0.45806 0.0
S938 S 0.97298 0.51645 0.652 0.0
N939 N 0.93541 0.55613 0.61804 0.0
N940 N 0.96886 0.46135 0.61511 0.0
C941 C 0.93705 0.47444 0.57177 0.0
C942 C 0.91717 0.52533 0.57422 0.0
C943 C 0.42152 0.08723 0.55892 0.0
C944 C 0.40636 0.03703 0.53264 0.0
C945 C 0.45158 0.13036 0.53303 0.0
C946 C 0.46876 0.12434 0.48082 0.0
H947 H 0.4052 0.09529 0.59709 0.0
H948 H 0.45511 0.17029 0.55096 0.0
S949 S 0.44072 1.00113 0.39521 0.0
N950 N 0.41424 0.98304 0.45265 0.0
N951 N 0.47003 0.06379 0.40478 0.0
C952 C 0.459 0.07254 0.45684 0.0
C953 C 0.42784 0.02903 0.48253 0.0
C954 C 0.25141 0.2957 0.73098 0.0
C955 C 0.25203 0.24154 0.74762 0.0
C956 C 0.20367 0.31636 0.71302 0.0
C957 C 0.15425 0.28259 0.70733 0.0
H958 H 0.28892 0.32168 0.7282 0.0
H959 H 0.20712 0.35644 0.69538 0.0
S960 S 0.13232 0.13688 0.73734 0.0
N961 N 0.19734 0.1543 0.75381 0.0
N962 N 0.10764 0.19326 0.72076 0.0
C963 C 0.15278 0.22979 0.72818 0.0
C964 C 0.20175 0.20859 0.74634 0.0
C965 C 0.20932 1.0046 0.99445 0.0
C966 C 0.20672 0.03928 0.94886 0.0
C967 C 0.17934 0.95223 0.99938 0.0
C968 C 0.13594 0.9303 0.96355 0.0
H969 H 0.2395 0.01679 0.02696 0.0
H970 H 0.1923 0.92677 0.03192 0.0
S971 S 0.06793 0.97735 0.79973 0.0
N972 N 0.13319 0.03881 0.80961 0.0
N973 N 0.07456 0.94249 0.87454 0.0
C974 C 0.12109 0.96313 0.92164 0.0
C975 C 0.16784 0.02017 0.90558 0.0
C976 C 0.77945 0.3701 0.69915 0.0
C977 C 0.8022 0.40703 0.73939 0.0
C978 C 0.81199 0.34407 0.66622 0.0
C979 C 0.86889 0.35493 0.67118 0.0
H980 H 0.73597 0.36229 0.69233 0.0
H981 H 0.7924 0.31717 0.63462 0.0
S982 S 0.94825 0.44985 0.77084 0.0
N983 N 0.88453 0.45424 0.78247 0.0
N984 N 0.94636 0.40637 0.72028 0.0
C985 C 0.89209 0.39272 0.71113 0.0
C986 C 0.85866 0.41877 0.74501 0.0
C987 C 0.58781 0.53369 0.1164 0.0
C988 C 0.62628 0.54425 0.07754 0.0
C989 C 0.55788 0.57366 0.13348 0.0
C990 C 0.5673 0.6275 0.11541 0.0
H991 H 0.58245 0.49465 0.13583 0.0
H992 H 0.53198 0.56417 0.16648 0.0
S993 S 0.6574 0.67462 1.00674 0.0
N994 N 0.66633 0.61049 0.01501 0.0
N995 N 0.61338 0.68741 0.05062 0.0
C996 C 0.6033 0.63808 0.07392 0.0
C997 C 0.63271 0.59646 0.055 0.0
C998 C 0.24652 0.94445 0.77775 0.0
C999 C 0.25293 0.9984 0.79563 0.0
C1000 C 0.20438 0.90464 0.79168 0.0
C1001 C 0.16087 0.9133 0.82259 0.0
H1002 H 0.27651 0.93176 0.75248 0.0
H1003 H 0.20775 0.8639 0.77956 0.0
S1004 S 0.14343 0.10515 0.87357 0.0
N1005 N 0.21079 0.0784 0.84321 0.0
N1006 N 0.09332 0.03026 0.87408 0.0
C1007 C 0.15717 0.96885 0.83755 0.0
C1008 C 0.21468 0.01564 0.8274 0.0
C1009 C 0.322 0.14532 0.26534 0.0
C1010 C 0.27544 0.13337 0.29509 0.0
C1011 C 0.36794 0.17942 0.28641 0.0
C1012 C 0.36866 0.204 0.33743 0.0
H1013 H 0.32427 0.12593 0.22668 0.0
H1014 H 0.40463 0.18257 0.26487 0.0
S1015 S 0.25454 0.19592 0.42627 0.0
N1016 N 0.23163 0.15445 0.37588 0.0
N1017 N 0.31663 0.22085 0.41317 0.0
C1018 C 0.32083 0.19636 0.36504 0.0
C1019 C 0.27501 0.1599 0.34501 0.0
loop_
_geom_bond_atom_site_label_1
_geom_bond_atom_site_label_2
_geom_bond_distance
_geom_bond_site_symmetry_2
_ccdc_geom_bond_type
Cu0 N1 1.999 1_455 S
Cu0 O6 1.974 . S
Cu0 N11 1.985 . S
Cu0 O20 1.959 1_455 S
N1 Cu0 1.999 1_655 S
N1 C3 1.263 . S
N1 C5 1.389 . S
N2 C3 1.358 . S
N2 C4 1.400 . S
C3 N1 1.263 . S
C3 N2 1.358 . S
C3 H9 0.930 1_655 S
C4 N2 1.400 . S
C4 C5 1.351 . S
C4 H21 0.930 . S
C5 N1 1.389 . S
C5 C4 1.351 . S
C5 H10 0.930 . S
O6 Cu0 1.974 . S
O6 C16 1.282 . S
C7 O8 1.261 1_655 S
C7 O20 1.251 . S
O8 C7 1.261 1_455 S
H9 C3 0.930 1_455 S
H10 C5 0.930 . S
N11 Cu0 1.985 . S
N11 C13 1.335 . S
N11 C14 1.390 . S
N12 C13 1.345 . S
N12 C15 1.336 . S
C13 N11 1.335 . S
C13 N12 1.345 . S
C13 H18 0.930 . S
C14 N11 1.390 . S
C14 C15 1.346 . S
C14 H19 0.930 . S
C15 N12 1.336 . S
C15 C14 1.346 . S
C15 H22 0.929 . S
C16 O6 1.282 . S
C16 O17 1.216 . S
O17 C16 1.216 . S
H18 C13 0.930 . S
H19 C14 0.930 . S
O20 Cu0 1.959 1_655 S
O20 C7 1.251 . S
H21 C4 0.930 . S
H22 C15 0.929 . S
Cu23 N24 2.008 . S
Cu23 O29 1.974 . S
Cu23 N34 1.985 . S
Cu23 O43 1.959 . S
N24 Cu23 2.008 . S
N24 C26 1.257 1_455 S
N24 C28 1.384 1_455 S
N25 C26 1.358 . S
N25 C27 1.400 . S
C26 N24 1.257 1_655 S
C26 N25 1.358 . S
C26 H32 0.930 . S
C27 N25 1.400 . S
C27 C28 1.351 . S
C27 H44 0.930 . S
C28 N24 1.384 1_655 S
C28 C27 1.351 . S
C28 H33 0.930 . S
O29 Cu23 1.974 . S
O29 C39 1.282 . S
C30 O31 1.261 . S
C30 O43 1.251 1_655 S
O31 C30 1.261 . S
H32 C26 0.930 . S
H33 C28 0.930 . S
N34 Cu23 1.985 . S
N34 C36 1.335 . S
N34 C37 1.390 . S
N35 C36 1.345 . S
N35 C38 1.336 . S
C36 N34 1.335 . S
C36 N35 1.345 . S
C36 H41 0.930 . S
C37 N34 1.390 . S
C37 C38 1.346 . S
C37 H42 0.930 . S
C38 N35 1.336 . S
C38 C37 1.346 . S
C38 H45 0.929 . S
C39 O29 1.282 . S
C39 O40 1.216 . S
O40 C39 1.216 . S
H41 C36 0.930 . S
H42 C37 0.930 . S
O43 Cu23 1.959 . S
O43 C30 1.251 1_455 S
H44 C27 0.930 . S
H45 C38 0.929 . S
Cu46 N47 1.999 . S
Cu46 O52 1.974 . S
Cu46 N57 1.985 . S
Cu46 O66 1.959 . S
N47 Cu46 1.999 . S
N47 C49 1.263 . S
N47 C51 1.389 . S
N48 C49 1.358 . S
N48 C50 1.400 . S
C49 N47 1.263 . S
C49 N48 1.358 . S
C49 H55 0.930 . S
C50 N48 1.400 . S
C50 C51 1.351 . S
C50 H67 0.930 . S
C51 N47 1.389 . S
C51 C50 1.351 . S
C51 H56 0.930 . S
O52 Cu46 1.974 . S
O52 C62 1.282 . S
C53 O54 1.261 . S
C53 O66 1.251 . S
O54 C53 1.261 . S
H55 C49 0.930 . S
H56 C51 0.930 . S
N57 Cu46 1.985 . S
N57 C59 1.335 . S
N57 C60 1.390 . S
N58 C59 1.345 . S
N58 C61 1.336 . S
C59 N57 1.335 . S
C59 N58 1.345 . S
C59 H64 0.930 . S
C60 N57 1.390 . S
C60 C61 1.346 . S
C60 H65 0.930 . S
C61 N58 1.336 . S
C61 C60 1.346 . S
C61 H68 0.929 . S
C62 O52 1.282 . S
C62 O63 1.216 . S
O63 C62 1.216 . S
H64 C59 0.930 . S
H65 C60 0.930 . S
O66 Cu46 1.959 . S
O66 C53 1.251 . S
H67 C50 0.930 . S
H68 C61 0.929 . S
Cu69 N70 1.999 . S
Cu69 O75 1.974 . S
Cu69 N80 1.985 . S
Cu69 O89 1.959 . S
N70 Cu69 1.999 . S
N70 C72 1.263 . S
N70 C74 1.389 . S
N71 C72 1.358 1_554 S
N71 C73 1.400 1_554 S
C72 N70 1.263 . S
C72 N71 1.358 1_556 S
C72 H78 0.930 1_556 S
C73 N71 1.400 1_556 S
C73 C74 1.351 . S
C73 H90 0.930 . S
C74 N70 1.389 . S
C74 C73 1.351 . S
C74 H79 0.930 . S
O75 Cu69 1.974 . S
O75 C85 1.282 . S
C76 O77 1.261 . S
C76 O89 1.251 . S
O77 C76 1.261 . S
H78 C72 0.930 1_554 S
H79 C74 0.930 . S
N80 Cu69 1.985 . S
N80 C82 1.335 . S
N80 C83 1.390 . S
N81 C82 1.345 . S
N81 C84 1.336 . S
C82 N80 1.335 . S
C82 N81 1.345 . S
C82 H87 0.930 . S
C83 N80 1.390 . S
C83 C84 1.346 . S
C83 H88 0.930 . S
C84 N81 1.336 . S
C84 C83 1.346 . S
C84 H91 0.929 . S
C85 O75 1.282 . S
C85 O86 1.216 . S
O86 C85 1.216 . S
H87 C82 0.930 . S
H88 C83 0.930 . S
O89 Cu69 1.959 . S
O89 C76 1.251 . S
H90 C73 0.930 . S
H91 C84 0.929 . S
Cu92 N93 1.999 1_565 S
Cu92 O98 1.974 . S
Cu92 N103 1.985 . S
Cu92 O112 1.959 1_565 S
N93 Cu92 1.999 1_545 S
N93 C95 1.263 . S
N93 C97 1.389 . S
N94 C95 1.358 . S
N94 C96 1.400 . S
C95 N93 1.263 . S
C95 N94 1.358 . S
C95 H101 0.930 . S
C96 N94 1.400 . S
C96 C97 1.351 . S
C96 H113 0.930 . S
C97 N93 1.389 . S
C97 C96 1.351 . S
C97 H102 0.930 . S
O98 Cu92 1.974 . S
O98 C108 1.282 . S
C99 O100 1.261 . S
C99 O112 1.251 . S
O100 C99 1.261 . S
H101 C95 0.930 . S
H102 C97 0.930 . S
N103 Cu92 1.985 . S
N103 C105 1.335 . S
N103 C106 1.390 . S
N104 C105 1.345 . S
N104 C107 1.336 . S
C105 N103 1.335 . S
C105 N104 1.345 . S
C105 H110 0.930 . S
C106 N103 1.390 . S
C106 C107 1.346 . S
C106 H111 0.930 . S
C107 N104 1.336 . S
C107 C106 1.346 . S
C107 H114 0.929 . S
C108 O98 1.282 . S
C108 O109 1.216 . S
O109 C108 1.216 . S
H110 C105 0.930 . S
H111 C106 0.930 . S
O112 Cu92 1.959 1_545 S
O112 C99 1.251 . S
H113 C96 0.930 . S
H114 C107 0.929 . S
Cu115 N116 1.999 . S
Cu115 O121 1.974 . S
Cu115 N126 1.985 . S
Cu115 O135 1.959 . S
N116 Cu115 1.999 . S
N116 C118 1.263 . S
N116 C120 1.389 . S
N117 C118 1.358 . S
N117 C119 1.400 . S
C118 N116 1.263 . S
C118 N117 1.358 . S
C118 H124 0.930 . S
C119 N117 1.400 . S
C119 C120 1.351 . S
C119 H136 0.930 . S
C120 N116 1.389 . S
C120 C119 1.351 . S
C120 H125 0.930 . S
O121 Cu115 1.974 . S
O121 C131 1.282 . S
C122 O123 1.261 1_545 S
C122 O135 1.251 1_545 S
O123 C122 1.261 1_565 S
H124 C118 0.930 . S
H125 C120 0.930 . S
N126 Cu115 1.985 . S
N126 C128 1.335 1_565 S
N126 C129 1.390 . S
N127 C128 1.345 . S
N127 C130 1.336 . S
C128 N126 1.335 1_545 S
C128 N127 1.345 . S
C128 H133 0.930 . S
C129 N126 1.390 . S
C129 C130 1.346 1_565 S
C129 H134 0.930 . S
C130 N127 1.336 . S
C130 C129 1.346 1_545 S
C130 H137 0.929 . S
C131 O121 1.282 . S
C131 O132 1.216 . S
O132 C131 1.216 . S
H133 C128 0.930 . S
H134 C129 0.930 . S
O135 Cu115 1.959 . S
O135 C122 1.251 1_565 S
H136 C119 0.930 . S
H137 C130 0.929 . S
Cu138 N139 1.999 . S
Cu138 O144 1.974 . S
Cu138 N149 1.985 . S
Cu138 O158 1.959 . S
N139 Cu138 1.999 . S
N139 C141 1.263 1_545 S
N139 C143 1.389 1_545 S
N140 C141 1.358 . S
N140 C142 1.400 . S
C141 N139 1.263 1_565 S
C141 N140 1.358 . S
C141 H147 0.930 . S
C142 N140 1.400 . S
C142 C143 1.351 . S
C142 H159 0.930 . S
C143 N139 1.389 1_565 S
C143 C142 1.351 . S
C143 H148 0.930 . S
O144 Cu138 1.974 . S
O144 C154 1.282 . S
C145 O146 1.261 . S
C145 O158 1.251 1_565 S
O146 C145 1.261 . S
H147 C141 0.930 . S
H148 C143 0.930 . S
N149 Cu138 1.985 . S
N149 C151 1.335 . S
N149 C152 1.390 . S
N150 C151 1.345 . S
N150 C153 1.336 . S
C151 N149 1.335 . S
C151 N150 1.345 . S
C151 H156 0.930 . S
C152 N149 1.390 . S
C152 C153 1.346 . S
C152 H157 0.930 . S
C153 N150 1.336 . S
C153 C152 1.346 . S
C153 H160 0.929 . S
C154 O144 1.282 . S
C154 O155 1.216 . S
O155 C154 1.216 . S
H156 C151 0.930 . S
H157 C152 0.930 . S
O158 Cu138 1.959 . S
O158 C145 1.251 1_545 S
H159 C142 0.930 . S
H160 C153 0.929 . S
Cu161 N162 1.999 . S
Cu161 O167 1.974 1_556 S
Cu161 N172 1.985 1_556 S
Cu161 O181 1.959 . S
N162 Cu161 1.999 . S
N162 C164 1.263 . S
N162 C166 1.389 . S
N163 C164 1.358 . S
N163 C165 1.400 . S
C164 N162 1.263 . S
C164 N163 1.358 . S
C164 H170 0.930 . S
C165 N163 1.400 . S
C165 C166 1.351 . S
C165 H182 0.930 . S
C166 N162 1.389 . S
C166 C165 1.351 . S
C166 H171 0.930 . S
O167 Cu161 1.974 1_554 S
O167 C177 1.282 . S
C168 O169 1.261 1_556 S
C168 O181 1.251 . S
O169 C168 1.261 1_554 S
H170 C164 0.930 . S
H171 C166 0.930 . S
N172 Cu161 1.985 1_554 S
N172 C174 1.335 . S
N172 C175 1.390 . S
N173 C174 1.345 . S
N173 C176 1.336 . S
C174 N172 1.335 . S
C174 N173 1.345 . S
C174 H179 0.930 1_554 S
C175 N172 1.390 . S
C175 C176 1.346 . S
C175 H180 0.930 . S
C176 N173 1.336 . S
C176 C175 1.346 . S
C176 H183 0.929 . S
C177 O167 1.282 . S
C177 O178 1.216 . S
O178 C177 1.216 . S
H179 C174 0.930 1_556 S
H180 C175 0.930 . S
O181 Cu161 1.959 . S
O181 C168 1.251 . S
H182 C165 0.930 . S
H183 C176 0.929 . S
Cu184 N185 1.999 . S
Cu184 O190 1.974 1_556 S
Cu184 N195 1.985 1_556 S
Cu184 O204 1.959 . S
N185 Cu184 1.999 . S
N185 C187 1.263 . S
N185 C189 1.389 . S
N186 C187 1.358 . S
N186 C188 1.400 . S
C187 N185 1.263 . S
C187 N186 1.358 . S
C187 H193 0.930 . S
C188 N186 1.400 . S
C188 C189 1.351 . S
C188 H205 0.930 . S
C189 N185 1.389 . S
C189 C188 1.351 . S
C189 H194 0.930 . S
O190 Cu184 1.974 1_554 S
O190 C200 1.282 . S
C191 O192 1.261 1_556 S
C191 O204 1.251 . S
O192 C191 1.261 1_554 S
H193 C187 0.930 . S
H194 C189 0.930 . S
N195 Cu184 1.985 1_554 S
N195 C197 1.335 . S
N195 C198 1.390 . S
N196 C197 1.345 . S
N196 C199 1.336 . S
C197 N195 1.335 . S
C197 N196 1.345 . S
C197 H202 0.930 1_554 S
C198 N195 1.390 . S
C198 C199 1.346 . S
C198 H203 0.930 . S
C199 N196 1.336 . S
C199 C198 1.346 . S
C199 H206 0.929 . S
C200 O190 1.282 . S
C200 O201 1.216 . S
O201 C200 1.216 . S
H202 C197 0.930 1_556 S
H203 C198 0.930 . S
O204 Cu184 1.959 . S
O204 C191 1.251 . S
H205 C188 0.930 . S
H206 C199 0.929 . S
Cu207 N208 1.999 . S
Cu207 O213 1.974 . S
Cu207 N218 1.985 . S
Cu207 O227 1.959 . S
N208 Cu207 1.999 . S
N208 C210 1.263 . S
N208 C212 1.389 . S
N209 C210 1.358 1_455 S
N209 C211 1.400 1_455 S
C210 N208 1.263 . S
C210 N209 1.358 1_655 S
C210 H216 0.930 . S
C211 N209 1.400 1_655 S
C211 C212 1.351 . S
C211 H228 0.930 . S
C212 N208 1.389 . S
C212 C211 1.351 . S
C212 H217 0.930 . S
O213 Cu207 1.974 . S
O213 C223 1.282 . S
C214 O215 1.261 . S
C214 O227 1.251 . S
O215 C214 1.261 . S
H216 C210 0.930 . S
H217 C212 0.930 . S
N218 Cu207 1.985 . S
N218 C220 1.335 . S
N218 C221 1.390 . S
N219 C220 1.345 . S
N219 C222 1.336 . S
C220 N218 1.335 . S
C220 N219 1.345 . S
C220 H225 0.930 . S
C221 N218 1.390 . S
C221 C222 1.346 . S
C221 H226 0.930 . S
C222 N219 1.336 . S
C222 C221 1.346 . S
C222 H229 0.929 . S
C223 O213 1.282 . S
C223 O224 1.216 . S
O224 C223 1.216 . S
H225 C220 0.930 . S
H226 C221 0.930 . S
O227 Cu207 1.959 . S
O227 C214 1.251 . S
H228 C211 0.930 . S
H229 C222 0.929 . S
Cu230 N231 1.999 . S
Cu230 O236 1.974 . S
Cu230 N241 1.985 . S
Cu230 O250 1.959 . S
N231 Cu230 1.999 . S
N231 C233 1.263 . S
N231 C235 1.389 . S
N232 C233 1.358 . S
N232 C234 1.400 . S
C233 N231 1.263 . S
C233 N232 1.358 . S
C233 H239 0.930 . S
C234 N232 1.400 . S
C234 C235 1.351 . S
C234 H251 0.930 . S
C235 N231 1.389 . S
C235 C234 1.351 . S
C235 H240 0.930 . S
O236 Cu230 1.974 . S
O236 C246 1.282 . S
C237 O238 1.261 . S
C237 O250 1.251 . S
O238 C237 1.261 . S
H239 C233 0.930 . S
H240 C235 0.930 . S
N241 Cu230 1.985 . S
N241 C243 1.335 . S
N241 C244 1.390 . S
N242 C243 1.345 . S
N242 C245 1.336 . S
C243 N241 1.335 . S
C243 N242 1.345 . S
C243 H248 0.930 . S
C244 N241 1.390 . S
C244 C245 1.346 . S
C244 H249 0.930 . S
C245 N242 1.336 . S
C245 C244 1.346 . S
C245 H252 0.929 . S
C246 O236 1.282 . S
C246 O247 1.216 . S
O247 C246 1.216 . S
H248 C243 0.930 . S
H249 C244 0.930 . S
O250 Cu230 1.959 . S
O250 C237 1.251 . S
H251 C234 0.930 . S
H252 C245 0.929 . S
Cu253 N254 1.999 . S
Cu253 O259 1.974 . S
Cu253 N264 1.985 . S
Cu253 O273 1.959 . S
N254 Cu253 1.999 . S
N254 C256 1.263 . S
N254 C258 1.389 . S
N255 C256 1.358 . S
N255 C257 1.400 . S
C256 N254 1.263 . S
C256 N255 1.358 . S
C256 H262 0.930 . S
C257 N255 1.400 . S
C257 C258 1.351 . S
C257 H274 0.930 . S
C258 N254 1.389 . S
C258 C257 1.351 . S
C258 H263 0.930 . S
O259 Cu253 1.974 . S
O259 C269 1.282 . S
C260 O261 1.261 . S
C260 O273 1.251 . S
O261 C260 1.261 . S
H262 C256 0.930 . S
H263 C258 0.930 . S
N264 Cu253 1.985 . S
N264 C266 1.335 . S
N264 C267 1.390 . S
N265 C266 1.345 . S
N265 C268 1.336 . S
C266 N264 1.335 . S
C266 N265 1.345 . S
C266 H271 0.930 . S
C267 N264 1.390 . S
C267 C268 1.346 . S
C267 H272 0.930 . S
C268 N265 1.336 . S
C268 C267 1.346 . S
C268 H275 0.929 . S
C269 O259 1.282 . S
C269 O270 1.216 . S
O270 C269 1.216 . S
H271 C266 0.930 . S
H272 C267 0.930 . S
O273 Cu253 1.959 . S
O273 C260 1.251 . S
H274 C257 0.930 . S
H275 C268 0.929 . S
H276 C282 0.930 . S
H277 C285 0.932 . S
H278 C287 0.931 . S
H279 C289 0.930 . S
H280 C291 0.930 . S
H281 C293 0.931 . S
C282 H276 0.930 . S
C282 C283 1.380 . S
C282 C284 1.394 . S
C283 C282 1.380 . S
C283 C287 1.382 1_655 S
C284 C282 1.394 . S
C284 C285 1.400 . S
C285 H277 0.932 . S
C285 C284 1.400 . S
C285 C286 1.375 1_655 S
C286 C285 1.375 1_455 S
C286 C287 1.415 . S
C286 C288 1.501 . S
C287 H278 0.931 . S
C287 C283 1.382 1_455 S
C287 C286 1.415 . S
C288 C286 1.501 . S
C288 C289 1.384 . S
C288 C293 1.408 . S
C289 H279 0.930 . S
C289 C288 1.384 . S
C289 C290 1.389 . S
C290 C289 1.389 . S
C290 C291 1.405 . S
C291 H280 0.930 . S
C291 C290 1.405 . S
C291 C292 1.364 . S
C292 C291 1.364 . S
C292 C293 1.400 . S
C293 H281 0.931 . S
C293 C288 1.408 . S
C293 C292 1.400 . S
H294 C300 0.930 . S
H295 C303 0.931 . S
H296 C305 0.931 . S
H297 C307 0.930 . S
H298 C309 0.930 . S
H299 C311 0.931 . S
C300 H294 0.930 . S
C300 C301 1.380 . S
C300 C302 1.394 . S
C301 C300 1.380 . S
C301 C305 1.382 . S
C302 C300 1.394 . S
C302 C303 1.400 . S
C303 H295 0.931 . S
C303 C302 1.400 . S
C303 C304 1.375 . S
C304 C303 1.375 . S
C304 C305 1.415 . S
C304 C306 1.501 1_655 S
C305 H296 0.931 . S
C305 C301 1.382 . S
C305 C304 1.415 . S
C306 C304 1.501 1_455 S
C306 C307 1.384 . S
C306 C311 1.408 . S
C307 H297 0.930 . S
C307 C306 1.384 . S
C307 C308 1.389 . S
C308 C307 1.389 . S
C308 C309 1.405 . S
C309 H298 0.930 . S
C309 C308 1.405 . S
C309 C310 1.364 . S
C310 C309 1.364 . S
C310 C311 1.400 . S
C311 H299 0.931 . S
C311 C306 1.408 . S
C311 C310 1.400 . S
H312 C318 0.930 . S
H313 C321 0.931 . S
H314 C323 0.931 . S
H315 C325 0.930 . S
H316 C327 0.930 . S
H317 C329 0.931 . S
C318 H312 0.930 . S
C318 C319 1.380 . S
C318 C320 1.394 . S
C319 C318 1.380 . S
C319 C323 1.382 . S
C320 C318 1.394 . S
C320 C321 1.400 . S
C321 H313 0.931 . S
C321 C320 1.400 . S
C321 C322 1.375 . S
C322 C321 1.375 . S
C322 C323 1.415 . S
C322 C324 1.501 . S
C323 H314 0.931 . S
C323 C319 1.382 . S
C323 C322 1.415 . S
C324 C322 1.501 . S
C324 C325 1.384 . S
C324 C329 1.408 . S
C325 H315 0.930 . S
C325 C324 1.384 . S
C325 C326 1.389 . S
C326 C325 1.389 . S
C326 C327 1.405 . S
C327 H316 0.930 . S
C327 C326 1.405 . S
C327 C328 1.364 . S
C328 C327 1.364 . S
C328 C329 1.400 . S
C329 H317 0.931 . S
C329 C324 1.408 . S
C329 C328 1.400 . S
H330 C336 0.930 . S
H331 C339 0.931 . S
H332 C341 0.931 . S
H333 C343 0.930 . S
H334 C345 0.930 . S
H335 C347 0.931 . S
C336 H330 0.930 . S
C336 C337 1.380 . S
C336 C338 1.394 . S
C337 C336 1.380 . S
C337 C341 1.382 . S
C338 C336 1.394 . S
C338 C339 1.400 . S
C339 H331 0.931 . S
C339 C338 1.400 . S
C339 C340 1.375 . S
C340 C339 1.375 . S
C340 C341 1.415 . S
C340 C342 1.501 . S
C341 H332 0.931 . S
C341 C337 1.382 . S
C341 C340 1.415 . S
C342 C340 1.501 . S
C342 C343 1.384 . S
C342 C347 1.408 . S
C343 H333 0.930 . S
C343 C342 1.384 . S
C343 C344 1.389 . S
C344 C343 1.389 . S
C344 C345 1.405 . S
C345 H334 0.930 . S
C345 C344 1.405 . S
C345 C346 1.364 . S
C346 C345 1.364 . S
C346 C347 1.400 . S
C347 H335 0.931 . S
C347 C342 1.408 . S
C347 C346 1.400 . S
H348 C354 0.930 . S
H349 C357 0.931 . S
H350 C359 0.931 . S
H351 C361 0.930 . S
H352 C363 0.930 . S
H353 C365 0.931 . S
C354 H348 0.930 . S
C354 C355 1.380 1_565 S
C354 C356 1.394 1_565 S
C355 C354 1.380 1_545 S
C355 C359 1.382 . S
C356 C354 1.394 1_545 S
C356 C357 1.400 . S
C357 H349 0.931 . S
C357 C356 1.400 . S
C357 C358 1.375 . S
C358 C357 1.375 . S
C358 C359 1.415 . S
C358 C360 1.501 . S
C359 H350 0.931 . S
C359 C355 1.382 . S
C359 C358 1.415 . S
C360 C358 1.501 . S
C360 C361 1.384 . S
C360 C365 1.408 . S
C361 H351 0.930 . S
C361 C360 1.384 . S
C361 C362 1.389 . S
C362 C361 1.389 . S
C362 C363 1.405 . S
C363 H352 0.930 . S
C363 C362 1.405 . S
C363 C364 1.364 . S
C364 C363 1.364 . S
C364 C365 1.400 . S
C365 H353 0.931 . S
C365 C360 1.408 . S
C365 C364 1.400 . S
H366 C372 0.930 . S
H367 C375 0.931 . S
H368 C377 0.931 . S
H369 C379 0.930 . S
H370 C381 0.930 . S
H371 C383 0.931 . S
C372 H366 0.930 . S
C372 C373 1.380 . S
C372 C374 1.394 . S
C373 C372 1.380 . S
C373 C377 1.382 . S
C374 C372 1.394 . S
C374 C375 1.400 . S
C375 H367 0.931 . S
C375 C374 1.400 . S
C375 C376 1.375 . S
C376 C375 1.375 . S
C376 C377 1.415 . S
C376 C378 1.501 . S
C377 H368 0.931 . S
C377 C373 1.382 . S
C377 C376 1.415 . S
C378 C376 1.501 . S
C378 C379 1.384 . S
C378 C383 1.408 . S
C379 H369 0.930 . S
C379 C378 1.384 . S
C379 C380 1.389 . S
C380 C379 1.389 . S
C380 C381 1.405 . S
C381 H370 0.930 . S
C381 C380 1.405 . S
C381 C382 1.364 . S
C382 C381 1.364 . S
C382 C383 1.400 . S
C383 H371 0.931 . S
C383 C378 1.408 . S
C383 C382 1.400 . S
H384 C390 0.930 . S
H385 C393 0.931 . S
H386 C395 0.931 . S
H387 C397 0.930 . S
H388 C399 0.930 . S
H389 C401 0.931 1_545 S
C390 H384 0.930 . S
C390 C391 1.380 . S
C390 C392 1.394 . S
C391 C390 1.380 . S
C391 C395 1.382 . S
C392 C390 1.394 . S
C392 C393 1.400 . S
C393 H385 0.931 . S
C393 C392 1.400 . S
C393 C394 1.375 . S
C394 C393 1.375 . S
C394 C395 1.415 . S
C394 C396 1.501 . S
C395 H386 0.931 . S
C395 C391 1.382 . S
C395 C394 1.415 . S
C396 C394 1.501 . S
C396 C397 1.384 . S
C396 C401 1.408 1_545 S
C397 H387 0.930 . S
C397 C396 1.384 . S
C397 C398 1.389 1_545 S
C398 C397 1.389 1_565 S
C398 C399 1.405 . S
C399 H388 0.930 . S
C399 C398 1.405 . S
C399 C400 1.364 . S
C400 C399 1.364 . S
C400 C401 1.400 . S
C401 H389 0.931 1_565 S
C401 C396 1.408 1_565 S
C401 C400 1.400 . S
H402 C408 0.930 . S
H403 C411 0.931 1_554 S
H404 C413 0.931 . S
H405 C415 0.930 . S
H406 C417 0.930 . S
H407 C419 0.931 . S
C408 H402 0.930 . S
C408 C409 1.380 . S
C408 C410 1.394 . S
C409 C408 1.380 . S
C409 C413 1.382 . S
C410 C408 1.394 . S
C410 C411 1.400 . S
C411 H403 0.931 1_556 S
C411 C410 1.400 . S
C411 C412 1.375 1_556 S
C412 C411 1.375 1_554 S
C412 C413 1.415 1_554 S
C412 C414 1.501 . S
C413 H404 0.931 . S
C413 C409 1.382 . S
C413 C412 1.415 1_556 S
C414 C412 1.501 . S
C414 C415 1.384 . S
C414 C419 1.408 . S
C415 H405 0.930 . S
C415 C414 1.384 . S
C415 C416 1.389 . S
C416 C415 1.389 . S
C416 C417 1.405 . S
C417 H406 0.930 . S
C417 C416 1.405 . S
C417 C418 1.364 . S
C418 C417 1.364 . S
C418 C419 1.400 . S
C419 H407 0.931 . S
C419 C414 1.408 . S
C419 C418 1.400 . S
H420 C426 0.930 . S
H421 C429 0.931 1_554 S
H422 C431 0.931 . S
H423 C433 0.930 . S
H424 C435 0.930 . S
H425 C437 0.931 . S
C426 H420 0.930 . S
C426 C427 1.380 . S
C426 C428 1.394 . S
C427 C426 1.380 . S
C427 C431 1.382 . S
C428 C426 1.394 . S
C428 C429 1.400 . S
C429 H421 0.931 1_556 S
C429 C428 1.400 . S
C429 C430 1.375 1_556 S
C430 C429 1.375 1_554 S
C430 C431 1.415 1_554 S
C430 C432 1.501 . S
C431 H422 0.931 . S
C431 C427 1.382 . S
C431 C430 1.415 1_556 S
C432 C430 1.501 . S
C432 C433 1.384 . S
C432 C437 1.408 . S
C433 H423 0.930 . S
C433 C432 1.384 . S
C433 C434 1.389 . S
C434 C433 1.389 . S
C434 C435 1.405 . S
C435 H424 0.930 . S
C435 C434 1.405 . S
C435 C436 1.364 . S
C436 C435 1.364 . S
C436 C437 1.400 . S
C437 H425 0.931 . S
C437 C432 1.408 . S
C437 C436 1.400 . S
H438 C444 0.930 . S
H439 C447 0.931 . S
H440 C449 0.931 . S
H441 C451 0.930 . S
H442 C453 0.930 . S
H443 C455 0.931 . S
C444 H438 0.930 . S
C444 C445 1.380 . S
C444 C446 1.394 . S
C445 C444 1.380 . S
C445 C449 1.382 . S
C446 C444 1.394 . S
C446 C447 1.400 . S
C447 H439 0.931 . S
C447 C446 1.400 . S
C447 C448 1.375 . S
C448 C447 1.375 . S
C448 C449 1.415 . S
C448 C450 1.501 . S
C449 H440 0.931 . S
C449 C445 1.382 . S
C449 C448 1.415 . S
C450 C448 1.501 . S
C450 C451 1.384 . S
C450 C455 1.408 . S
C451 H441 0.930 . S
C451 C450 1.384 . S
C451 C452 1.389 . S
C452 C451 1.389 . S
C452 C453 1.405 . S
C453 H442 0.930 . S
C453 C452 1.405 . S
C453 C454 1.364 . S
C454 C453 1.364 . S
C454 C455 1.400 . S
C455 H443 0.931 . S
C455 C450 1.408 . S
C455 C454 1.400 . S
H456 C462 0.930 . S
H457 C465 0.931 . S
H458 C467 0.931 . S
H459 C469 0.930 . S
H460 C471 0.930 . S
H461 C473 0.931 . S
C462 H456 0.930 . S
C462 C463 1.380 . S
C462 C464 1.394 . S
C463 C462 1.380 . S
C463 C467 1.382 . S
C464 C462 1.394 . S
C464 C465 1.400 . S
C465 H457 0.931 . S
C465 C464 1.400 . S
C465 C466 1.375 . S
C466 C465 1.375 . S
C466 C467 1.415 . S
C466 C468 1.501 . S
C467 H458 0.931 . S
C467 C463 1.382 . S
C467 C466 1.415 . S
C468 C466 1.501 . S
C468 C469 1.384 . S
C468 C473 1.408 . S
C469 H459 0.930 . S
C469 C468 1.384 . S
C469 C470 1.389 . S
C470 C469 1.389 . S
C470 C471 1.405 . S
C471 H460 0.930 . S
C471 C470 1.405 . S
C471 C472 1.364 . S
C472 C471 1.364 . S
C472 C473 1.400 . S
C473 H461 0.931 . S
C473 C468 1.408 . S
C473 C472 1.400 . S
H474 C480 0.930 . S
H475 C483 0.931 . S
H476 C485 0.931 . S
H477 C487 0.930 . S
H478 C489 0.930 . S
H479 C491 0.931 . S
C480 H474 0.930 . S
C480 C481 1.380 . S
C480 C482 1.394 . S
C481 C480 1.380 . S
C481 C485 1.382 . S
C482 C480 1.394 . S
C482 C483 1.400 . S
C483 H475 0.931 . S
C483 C482 1.400 . S
C483 C484 1.375 . S
C484 C483 1.375 . S
C484 C485 1.415 . S
C484 C486 1.501 . S
C485 H476 0.931 . S
C485 C481 1.382 . S
C485 C484 1.415 . S
C486 C484 1.501 . S
C486 C487 1.384 . S
C486 C491 1.408 . S
C487 H477 0.930 . S
C487 C486 1.384 . S
C487 C488 1.389 . S
C488 C487 1.389 . S
C488 C489 1.405 . S
C489 H478 0.930 . S
C489 C488 1.405 . S
C489 C490 1.364 . S
C490 C489 1.364 . S
C490 C491 1.400 . S
C491 H479 0.931 . S
C491 C486 1.408 . S
C491 C490 1.400 . S
C492 C493 1.369 . S
C492 C494 1.419 . S
C492 H496 0.930 1_556 S
C493 C492 1.369 . S
C493 C502 1.429 . S
C494 C492 1.419 . S
C494 C495 1.363 . S
C494 H497 0.929 . S
C495 C494 1.363 . S
C495 C501 1.428 . S
H496 C492 0.930 1_554 S
H497 C494 0.929 . S
S498 N499 1.613 . S
S498 N500 1.610 . S
N499 S498 1.613 . S
N499 C502 1.350 . S
N500 S498 1.610 . S
N500 C501 1.351 . S
C501 C495 1.428 . S
C501 N500 1.351 . S
C501 C502 1.434 . S
C502 C493 1.429 . S
C502 N499 1.350 . S
C502 C501 1.434 . S
C503 C504 1.369 . S
C503 C505 1.419 . S
C503 H507 0.930 . S
C504 C503 1.369 . S
C504 C513 1.429 . S
C505 C503 1.419 . S
C505 C506 1.363 . S
C505 H508 0.929 . S
C506 C505 1.363 . S
C506 C512 1.428 . S
H507 C503 0.930 . S
H508 C505 0.929 . S
S509 N510 1.613 . S
S509 N511 1.610 . S
N510 S509 1.613 . S
N510 C513 1.350 . S
N511 S509 1.610 . S
N511 C512 1.351 . S
C512 C506 1.428 . S
C512 N511 1.351 . S
C512 C513 1.434 . S
C513 C504 1.429 . S
C513 N510 1.350 . S
C513 C512 1.434 . S
C514 C515 1.369 . S
C514 C516 1.419 . S
C514 H518 0.930 . S
C515 C514 1.369 . S
C515 C524 1.429 . S
C516 C514 1.419 . S
C516 C517 1.363 . S
C516 H519 0.929 . S
C517 C516 1.363 . S
C517 C523 1.428 . S
H518 C514 0.930 . S
H519 C516 0.929 . S
S520 N521 1.613 . S
S520 N522 1.610 . S
N521 S520 1.613 . S
N521 C524 1.350 . S
N522 S520 1.610 . S
N522 C523 1.351 . S
C523 C517 1.428 . S
C523 N522 1.351 . S
C523 C524 1.434 . S
C524 C515 1.429 . S
C524 N521 1.350 . S
C524 C523 1.434 . S
C525 C526 1.369 . S
C525 C527 1.419 . S
C525 H529 0.930 . S
C526 C525 1.369 . S
C526 C535 1.429 . S
C527 C525 1.419 . S
C527 C528 1.363 . S
C527 H530 0.929 . S
C528 C527 1.363 . S
C528 C534 1.428 . S
H529 C525 0.930 . S
H530 C527 0.929 . S
S531 N532 1.613 . S
S531 N533 1.610 . S
N532 S531 1.613 . S
N532 C535 1.350 . S
N533 S531 1.610 . S
N533 C534 1.351 . S
C534 C528 1.428 . S
C534 N533 1.351 . S
C534 C535 1.434 . S
C535 C526 1.429 . S
C535 N532 1.350 . S
C535 C534 1.434 . S
C536 C537 1.369 . S
C536 C538 1.419 . S
C536 H540 0.930 . S
C537 C536 1.369 . S
C537 C546 1.429 . S
C538 C536 1.419 . S
C538 C539 1.363 . S
C538 H541 0.929 . S
C539 C538 1.363 . S
C539 C545 1.428 . S
H540 C536 0.930 . S
H541 C538 0.929 . S
S542 N543 1.613 . S
S542 N544 1.610 . S
N543 S542 1.613 . S
N543 C546 1.350 . S
N544 S542 1.610 . S
N544 C545 1.351 . S
C545 C539 1.428 . S
C545 N544 1.351 . S
C545 C546 1.434 . S
C546 C537 1.429 . S
C546 N543 1.350 . S
C546 C545 1.434 . S
C547 C548 1.369 . S
C547 C549 1.419 . S
C547 H551 0.930 . S
C548 C547 1.369 . S
C548 C557 1.429 . S
C549 C547 1.419 . S
C549 C550 1.363 . S
C549 H552 0.929 . S
C550 C549 1.363 . S
C550 C556 1.428 . S
H551 C547 0.930 . S
H552 C549 0.929 . S
S553 N554 1.613 . S
S553 N555 1.610 . S
N554 S553 1.613 . S
N554 C557 1.350 . S
N555 S553 1.610 . S
N555 C556 1.351 . S
C556 C550 1.428 . S
C556 N555 1.351 . S
C556 C557 1.434 . S
C557 C548 1.429 . S
C557 N554 1.350 . S
C557 C556 1.434 . S
C558 C559 1.369 . S
C558 C560 1.419 . S
C558 H562 0.930 . S
C559 C558 1.369 . S
C559 C568 1.429 . S
C560 C558 1.419 . S
C560 C561 1.363 . S
C560 H563 0.929 . S
C561 C560 1.363 . S
C561 C567 1.428 . S
H562 C558 0.930 . S
H563 C560 0.929 . S
S564 N565 1.613 . S
S564 N566 1.610 . S
N565 S564 1.613 . S
N565 C568 1.350 . S
N566 S564 1.610 . S
N566 C567 1.351 . S
C567 C561 1.428 . S
C567 N566 1.351 . S
C567 C568 1.434 . S
C568 C559 1.429 . S
C568 N565 1.350 . S
C568 C567 1.434 . S
C569 C570 1.369 . S
C569 C571 1.419 . S
C569 H573 0.930 . S
C570 C569 1.369 . S
C570 C579 1.429 . S
C571 C569 1.419 . S
C571 C572 1.363 . S
C571 H574 0.929 . S
C572 C571 1.363 . S
C572 C578 1.428 . S
H573 C569 0.930 . S
H574 C571 0.929 . S
S575 N576 1.613 . S
S575 N577 1.610 . S
N576 S575 1.613 . S
N576 C579 1.350 . S
N577 S575 1.610 . S
N577 C578 1.351 . S
C578 C572 1.428 . S
C578 N577 1.351 . S
C578 C579 1.434 . S
C579 C570 1.429 . S
C579 N576 1.350 . S
C579 C578 1.434 . S
C580 C581 1.369 . S
C580 C582 1.419 . S
C580 H584 0.930 . S
C581 C580 1.369 . S
C581 C590 1.424 1_545 S
C582 C580 1.419 . S
C582 C583 1.363 . S
C582 H585 0.929 . S
C583 C582 1.363 . S
C583 C589 1.428 1_545 S
H584 C580 0.930 . S
H585 C582 0.929 . S
S586 N587 1.613 . S
S586 N588 1.610 . S
N587 S586 1.613 . S
N587 C590 1.355 . S
N588 S586 1.610 . S
N588 C589 1.351 . S
C589 C583 1.428 1_565 S
C589 N588 1.351 . S
C589 C590 1.434 . S
C590 C581 1.424 1_565 S
C590 N587 1.355 . S
C590 C589 1.434 . S
C591 C592 1.369 . S
C591 C593 1.419 . S
C591 H595 0.930 . S
C592 C591 1.369 . S
C592 C601 1.429 . S
C593 C591 1.419 . S
C593 C594 1.363 . S
C593 H596 0.929 . S
C594 C593 1.363 . S
C594 C600 1.428 . S
H595 C591 0.930 . S
H596 C593 0.929 . S
S597 N598 1.613 . S
S597 N599 1.610 . S
N598 S597 1.613 . S
N598 C601 1.350 . S
N599 S597 1.610 . S
N599 C600 1.351 . S
C600 C594 1.428 . S
C600 N599 1.351 . S
C600 C601 1.434 . S
C601 C592 1.429 . S
C601 N598 1.350 . S
C601 C600 1.434 . S
C602 C603 1.369 . S
C602 C604 1.419 . S
C602 H606 0.930 . S
C603 C602 1.369 . S
C603 C612 1.429 . S
C604 C602 1.419 . S
C604 C605 1.363 . S
C604 H607 0.929 . S
C605 C604 1.363 . S
C605 C611 1.428 . S
H606 C602 0.930 . S
H607 C604 0.929 . S
S608 N609 1.613 . S
S608 N610 1.610 . S
N609 S608 1.613 . S
N609 C612 1.350 1_545 S
N610 S608 1.610 . S
N610 C611 1.351 1_545 S
C611 C605 1.428 . S
C611 N610 1.351 1_565 S
C611 C612 1.434 . S
C612 C603 1.429 . S
C612 N609 1.350 1_565 S
C612 C611 1.434 . S
C613 C614 1.369 . S
C613 C615 1.419 . S
C613 H617 0.930 . S
C614 C613 1.369 . S
C614 C623 1.429 . S
C615 C613 1.419 . S
C615 C616 1.363 . S
C615 H618 0.929 . S
C616 C615 1.363 . S
C616 C622 1.428 . S
H617 C613 0.930 . S
H618 C615 0.929 . S
S619 N620 1.613 . S
S619 N621 1.610 . S
N620 S619 1.613 . S
N620 C623 1.350 . S
N621 S619 1.610 . S
N621 C622 1.351 . S
C622 C616 1.428 . S
C622 N621 1.351 . S
C622 C623 1.434 . S
C623 C614 1.429 . S
C623 N620 1.350 . S
C623 C622 1.434 . S
C624 C625 1.369 1_655 S
C624 C626 1.419 . S
C624 H628 0.930 . S
C625 C624 1.369 1_455 S
C625 C634 1.429 . S
C626 C624 1.419 . S
C626 C627 1.363 . S
C626 H629 0.929 . S
C627 C626 1.363 . S
C627 C633 1.428 . S
H628 C624 0.930 . S
H629 C626 0.929 . S
S630 N631 1.616 . S
S630 N632 1.610 1_445 S
N631 S630 1.616 . S
N631 C634 1.347 1_545 S
N632 S630 1.610 1_665 S
N632 C633 1.351 . S
C633 C627 1.428 . S
C633 N632 1.351 . S
C633 C634 1.434 1_655 S
C634 C625 1.429 . S
C634 N631 1.347 1_565 S
C634 C633 1.434 1_455 S
C635 C636 1.369 . S
C635 C637 1.419 . S
C635 H639 0.930 . S
C636 C635 1.369 . S
C636 C645 1.429 . S
C637 C635 1.419 . S
C637 C638 1.363 . S
C637 H640 0.929 . S
C638 C637 1.363 . S
C638 C644 1.428 . S
H639 C635 0.930 . S
H640 C637 0.929 . S
S641 N642 1.613 . S
S641 N643 1.610 . S
N642 S641 1.613 . S
N642 C645 1.350 . S
N643 S641 1.610 . S
N643 C644 1.351 . S
C644 C638 1.428 . S
C644 N643 1.351 . S
C644 C645 1.434 . S
C645 C636 1.429 . S
C645 N642 1.350 . S
C645 C644 1.434 . S
C646 C647 1.369 . S
C646 C648 1.419 . S
C646 H650 0.930 . S
C647 C646 1.369 . S
C647 C656 1.429 . S
C648 C646 1.419 . S
C648 C649 1.363 . S
C648 H651 0.924 1_545 S
C649 C648 1.363 . S
C649 C655 1.428 . S
H650 C646 0.930 . S
H651 C648 0.924 1_565 S
S652 N653 1.613 . S
S652 N654 1.610 . S
N653 S652 1.613 . S
N653 C656 1.350 . S
N654 S652 1.610 . S
N654 C655 1.351 . S
C655 C649 1.428 . S
C655 N654 1.351 . S
C655 C656 1.434 . S
C656 C647 1.429 . S
C656 N653 1.350 . S
C656 C655 1.434 . S
C657 C658 1.369 . S
C657 C659 1.419 . S
C657 H661 0.930 . S
C658 C657 1.369 . S
C658 C667 1.429 . S
C659 C657 1.419 . S
C659 C660 1.363 . S
C659 H662 0.929 . S
C660 C659 1.363 . S
C660 C666 1.428 . S
H661 C657 0.930 . S
H662 C659 0.929 . S
S663 N664 1.613 . S
S663 N665 1.610 . S
N664 S663 1.613 . S
N664 C667 1.350 . S
N665 S663 1.610 . S
N665 C666 1.351 . S
C666 C660 1.428 . S
C666 N665 1.351 . S
C666 C667 1.434 . S
C667 C658 1.429 . S
C667 N664 1.350 . S
C667 C666 1.434 . S
C668 C669 1.369 . S
C668 C670 1.419 1_545 S
C668 H672 0.930 . S
C669 C668 1.369 . S
C669 C678 1.429 1_545 S
C670 C668 1.419 1_565 S
C670 C671 1.363 . S
C670 H673 0.929 . S
C671 C670 1.363 . S
C671 C677 1.428 . S
H672 C668 0.930 . S
H673 C670 0.929 . S
S674 N675 1.613 . S
S674 N676 1.610 . S
N675 S674 1.613 . S
N675 C678 1.350 . S
N676 S674 1.610 . S
N676 C677 1.351 . S
C677 C671 1.428 . S
C677 N676 1.351 . S
C677 C678 1.434 . S
C678 C669 1.429 1_565 S
C678 N675 1.350 . S
C678 C677 1.434 . S
C679 C680 1.369 . S
C679 C681 1.419 . S
C679 H683 0.930 . S
C680 C679 1.369 . S
C680 C689 1.429 . S
C681 C679 1.419 . S
C681 C682 1.363 . S
C681 H684 0.929 . S
C682 C681 1.363 . S
C682 C688 1.428 . S
H683 C679 0.930 . S
H684 C681 0.929 . S
S685 N686 1.613 1_554 S
S685 N687 1.612 . S
N686 S685 1.613 1_556 S
N686 C689 1.350 . S
N687 S685 1.612 . S
N687 C688 1.349 1_554 S
C688 C682 1.428 . S
C688 N687 1.349 1_556 S
C688 C689 1.434 . S
C689 C680 1.429 . S
C689 N686 1.350 . S
C689 C688 1.434 . S
C690 C691 1.369 . S
C690 C692 1.419 . S
C690 H694 0.930 . S
C691 C690 1.369 . S
C691 C700 1.429 . S
C692 C690 1.419 . S
C692 C693 1.363 . S
C692 H695 0.929 . S
C693 C692 1.363 . S
C693 C699 1.428 . S
H694 C690 0.930 . S
H695 C692 0.929 . S
S696 N697 1.613 . S
S696 N698 1.610 . S
N697 S696 1.613 . S
N697 C700 1.350 . S
N698 S696 1.610 . S
N698 C699 1.351 . S
C699 C693 1.428 . S
C699 N698 1.351 . S
C699 C700 1.434 . S
C700 C691 1.429 . S
C700 N697 1.350 . S
C700 C699 1.434 . S
C701 C702 1.369 . S
C701 C703 1.419 . S
C701 H705 0.930 . S
C702 C701 1.369 . S
C702 C711 1.429 . S
C703 C701 1.419 . S
C703 C704 1.363 . S
C703 H706 0.929 . S
C704 C703 1.363 . S
C704 C710 1.428 . S
H705 C701 0.930 . S
H706 C703 0.929 . S
S707 N708 1.613 . S
S707 N709 1.610 . S
N708 S707 1.613 . S
N708 C711 1.350 . S
N709 S707 1.610 . S
N709 C710 1.351 . S
C710 C704 1.428 . S
C710 N709 1.351 . S
C710 C711 1.434 . S
C711 C702 1.429 . S
C711 N708 1.350 . S
C711 C710 1.434 . S
C712 C713 1.369 . S
C712 C714 1.419 . S
C712 H716 0.930 . S
C713 C712 1.369 . S
C713 C722 1.429 . S
C714 C712 1.419 . S
C714 C715 1.363 . S
C714 H717 0.929 . S
C715 C714 1.363 . S
C715 C721 1.428 . S
H716 C712 0.930 . S
H717 C714 0.929 . S
S718 N719 1.613 . S
S718 N720 1.610 . S
N719 S718 1.613 . S
N719 C722 1.350 . S
N720 S718 1.610 . S
N720 C721 1.351 . S
C721 C715 1.428 . S
C721 N720 1.351 . S
C721 C722 1.434 . S
C722 C713 1.429 . S
C722 N719 1.350 . S
C722 C721 1.434 . S
C723 C724 1.369 . S
C723 C725 1.419 . S
C723 H727 0.930 . S
C724 C723 1.369 . S
C724 C733 1.429 . S
C725 C723 1.419 . S
C725 C726 1.363 . S
C725 H728 0.929 . S
C726 C725 1.363 . S
C726 C732 1.428 . S
H727 C723 0.930 . S
H728 C725 0.929 . S
S729 N730 1.613 . S
S729 N731 1.610 . S
N730 S729 1.613 . S
N730 C733 1.350 . S
N731 S729 1.610 . S
N731 C732 1.351 . S
C732 C726 1.428 . S
C732 N731 1.351 . S
C732 C733 1.434 . S
C733 C724 1.429 . S
C733 N730 1.350 . S
C733 C732 1.434 . S
C734 C735 1.369 . S
C734 C736 1.419 . S
C734 H738 0.930 . S
C735 C734 1.369 . S
C735 C744 1.429 . S
C736 C734 1.419 . S
C736 C737 1.363 . S
C736 H739 0.929 . S
C737 C736 1.363 . S
C737 C743 1.428 . S
H738 C734 0.930 . S
H739 C736 0.929 . S
S740 N741 1.613 . S
S740 N742 1.610 . S
N741 S740 1.613 . S
N741 C744 1.350 . S
N742 S740 1.610 . S
N742 C743 1.351 . S
C743 C737 1.428 . S
C743 N742 1.351 . S
C743 C744 1.434 . S
C744 C735 1.429 . S
C744 N741 1.350 . S
C744 C743 1.434 . S
C745 C746 1.369 . S
C745 C747 1.419 . S
C745 H749 0.930 . S
C746 C745 1.369 . S
C746 C755 1.429 . S
C747 C745 1.419 . S
C747 C748 1.363 . S
C747 H750 0.929 . S
C748 C747 1.363 . S
C748 C754 1.428 . S
H749 C745 0.930 . S
H750 C747 0.929 . S
S751 N752 1.613 . S
S751 N753 1.610 . S
N752 S751 1.613 . S
N752 C755 1.350 . S
N753 S751 1.610 . S
N753 C754 1.351 . S
C754 C748 1.428 . S
C754 N753 1.351 . S
C754 C755 1.434 . S
C755 C746 1.429 . S
C755 N752 1.350 . S
C755 C754 1.434 . S
C756 C757 1.369 . S
C756 C758 1.419 . S
C756 H760 0.930 . S
C757 C756 1.369 . S
C757 C766 1.429 . S
C758 C756 1.419 . S
C758 C759 1.363 . S
C758 H761 0.929 . S
C759 C758 1.363 . S
C759 C765 1.428 . S
H760 C756 0.930 . S
H761 C758 0.929 . S
S762 N763 1.613 1_545 S
S762 N764 1.610 . S
N763 S762 1.613 1_565 S
N763 C766 1.350 . S
N764 S762 1.610 . S
N764 C765 1.351 1_545 S
C765 C759 1.428 . S
C765 N764 1.351 1_565 S
C765 C766 1.434 . S
C766 C757 1.429 . S
C766 N763 1.350 . S
C766 C765 1.434 . S
C767 C768 1.369 . S
C767 C769 1.419 . S
C767 H771 0.930 . S
C768 C767 1.369 . S
C768 C777 1.429 . S
C769 C767 1.419 . S
C769 C770 1.363 . S
C769 H772 0.929 . S
C770 C769 1.363 . S
C770 C776 1.428 . S
H771 C767 0.930 . S
H772 C769 0.929 . S
S773 N774 1.613 . S
S773 N775 1.610 . S
N774 S773 1.613 . S
N774 C777 1.350 . S
N775 S773 1.610 . S
N775 C776 1.351 . S
C776 C770 1.428 . S
C776 N775 1.351 . S
C776 C777 1.434 . S
C777 C768 1.429 . S
C777 N774 1.350 . S
C777 C776 1.434 . S
C778 C779 1.369 1_456 S
C778 C780 1.419 . S
C778 H782 0.930 . S
C779 C778 1.369 1_654 S
C779 C788 1.429 1_554 S
C780 C778 1.419 . S
C780 C781 1.363 1_455 S
C780 H783 0.929 . S
C781 C780 1.363 1_655 S
C781 C787 1.428 . S
H782 C778 0.930 . S
H783 C780 0.929 . S
S784 N785 1.613 1_556 S
S784 N786 1.610 . S
N785 S784 1.613 1_554 S
N785 C788 1.350 1_554 S
N786 S784 1.610 . S
N786 C787 1.351 . S
C787 C781 1.428 . S
C787 N786 1.351 . S
C787 C788 1.434 . S
C788 C779 1.429 1_556 S
C788 N785 1.350 1_556 S
C788 C787 1.434 . S
C789 C790 1.369 . S
C789 C791 1.419 . S
C789 H793 0.930 . S
C790 C789 1.369 . S
C790 C799 1.429 . S
C791 C789 1.419 . S
C791 C792 1.363 . S
C791 H794 0.929 . S
C792 C791 1.363 . S
C792 C798 1.428 . S
H793 C789 0.930 . S
H794 C791 0.929 . S
S795 N796 1.613 . S
S795 N797 1.610 . S
N796 S795 1.613 . S
N796 C799 1.350 . S
N797 S795 1.610 . S
N797 C798 1.351 . S
C798 C792 1.428 . S
C798 N797 1.351 . S
C798 C799 1.434 . S
C799 C790 1.429 . S
C799 N796 1.350 . S
C799 C798 1.434 . S
C800 C801 1.369 . S
C800 C802 1.419 . S
C800 H804 0.930 . S
C801 C800 1.369 . S
C801 C810 1.429 . S
C802 C800 1.419 . S
C802 C803 1.363 . S
C802 H805 0.929 . S
C803 C802 1.363 . S
C803 C809 1.428 . S
H804 C800 0.930 . S
H805 C802 0.929 . S
S806 N807 1.613 . S
S806 N808 1.610 . S
N807 S806 1.613 . S
N807 C810 1.350 . S
N808 S806 1.610 . S
N808 C809 1.351 . S
C809 C803 1.428 . S
C809 N808 1.351 . S
C809 C810 1.434 . S
C810 C801 1.429 . S
C810 N807 1.350 . S
C810 C809 1.434 . S
C811 C812 1.369 . S
C811 C813 1.419 . S
C811 H815 0.930 . S
C812 C811 1.369 . S
C812 C821 1.429 . S
C813 C811 1.419 . S
C813 C814 1.363 . S
C813 H816 0.929 . S
C814 C813 1.363 . S
C814 C820 1.428 . S
H815 C811 0.930 . S
H816 C813 0.929 . S
S817 N818 1.613 . S
S817 N819 1.610 . S
N818 S817 1.613 . S
N818 C821 1.350 . S
N819 S817 1.610 . S
N819 C820 1.351 . S
C820 C814 1.428 . S
C820 N819 1.351 . S
C820 C821 1.434 . S
C821 C812 1.429 . S
C821 N818 1.350 . S
C821 C820 1.434 . S
C822 C823 1.369 . S
C822 C824 1.419 . S
C822 H826 0.930 . S
C823 C822 1.369 . S
C823 C832 1.429 . S
C824 C822 1.419 . S
C824 C825 1.363 . S
C824 H827 0.929 1_565 S
C825 C824 1.363 . S
C825 C831 1.428 . S
H826 C822 0.930 . S
H827 C824 0.929 1_545 S
S828 N829 1.613 . S
S828 N830 1.610 . S
N829 S828 1.613 . S
N829 C832 1.350 . S
N830 S828 1.610 . S
N830 C831 1.351 . S
C831 C825 1.428 . S
C831 N830 1.351 . S
C831 C832 1.434 . S
C832 C823 1.429 . S
C832 N829 1.350 . S
C832 C831 1.434 . S
C833 C834 1.369 . S
C833 C835 1.419 . S
C833 H837 0.930 . S
C834 C833 1.369 . S
C834 C843 1.429 . S
C835 C833 1.419 . S
C835 C836 1.363 . S
C835 H838 0.929 . S
C836 C835 1.363 . S
C836 C842 1.428 . S
H837 C833 0.930 . S
H838 C835 0.929 . S
S839 N840 1.613 . S
S839 N841 1.610 . S
N840 S839 1.613 . S
N840 C843 1.350 . S
N841 S839 1.610 . S
N841 C842 1.351 . S
C842 C836 1.428 . S
C842 N841 1.351 . S
C842 C843 1.434 . S
C843 C834 1.429 . S
C843 N840 1.350 . S
C843 C842 1.434 . S
C844 C845 1.369 . S
C844 C846 1.419 . S
C844 H848 0.930 . S
C845 C844 1.369 . S
C845 C854 1.429 . S
C846 C844 1.419 . S
C846 C847 1.363 . S
C846 H849 0.929 . S
C847 C846 1.363 . S
C847 C853 1.428 . S
H848 C844 0.930 . S
H849 C846 0.929 . S
S850 N851 1.613 . S
S850 N852 1.610 . S
N851 S850 1.613 . S
N851 C854 1.350 . S
N852 S850 1.610 . S
N852 C853 1.351 . S
C853 C847 1.428 . S
C853 N852 1.351 . S
C853 C854 1.434 . S
C854 C845 1.429 . S
C854 N851 1.350 . S
C854 C853 1.434 . S
C855 C856 1.369 . S
C855 C857 1.419 . S
C855 H859 0.930 . S
C856 C855 1.369 . S
C856 C865 1.429 . S
C857 C855 1.419 . S
C857 C858 1.363 . S
C857 H860 0.929 . S
C858 C857 1.363 . S
C858 C864 1.428 . S
H859 C855 0.930 . S
H860 C857 0.929 . S
S861 N862 1.613 . S
S861 N863 1.610 . S
N862 S861 1.613 . S
N862 C865 1.350 . S
N863 S861 1.610 . S
N863 C864 1.351 . S
C864 C858 1.428 . S
C864 N863 1.351 . S
C864 C865 1.434 . S
C865 C856 1.429 . S
C865 N862 1.350 . S
C865 C864 1.434 . S
C866 C867 1.369 . S
C866 C868 1.419 . S
C866 H870 0.930 . S
C867 C866 1.369 . S
C867 C876 1.429 . S
C868 C866 1.419 . S
C868 C869 1.363 . S
C868 H871 0.929 . S
C869 C868 1.363 . S
C869 C875 1.428 . S
H870 C866 0.930 . S
H871 C868 0.929 . S
S872 N873 1.613 . S
S872 N874 1.610 . S
N873 S872 1.613 . S
N873 C876 1.350 . S
N874 S872 1.610 . S
N874 C875 1.351 . S
C875 C869 1.428 . S
C875 N874 1.351 . S
C875 C876 1.434 . S
C876 C867 1.429 . S
C876 N873 1.350 . S
C876 C875 1.434 . S
C877 C878 1.369 . S
C877 C879 1.419 . S
C877 H881 0.930 . S
C878 C877 1.369 . S
C878 C887 1.429 . S
C879 C877 1.419 . S
C879 C880 1.363 . S
C879 H882 0.929 . S
C880 C879 1.363 . S
C880 C886 1.428 . S
H881 C877 0.930 . S
H882 C879 0.929 . S
S883 N884 1.613 . S
S883 N885 1.610 . S
N884 S883 1.613 . S
N884 C887 1.350 . S
N885 S883 1.610 . S
N885 C886 1.351 . S
C886 C880 1.428 . S
C886 N885 1.351 . S
C886 C887 1.434 . S
C887 C878 1.429 . S
C887 N884 1.350 . S
C887 C886 1.434 . S
C888 C889 1.369 . S
C888 C890 1.419 . S
C888 H892 0.930 . S
C889 C888 1.369 . S
C889 C898 1.429 . S
C890 C888 1.419 . S
C890 C891 1.363 . S
C890 H893 0.929 . S
C891 C890 1.363 . S
C891 C897 1.428 . S
H892 C888 0.930 . S
H893 C890 0.929 . S
S894 N895 1.613 . S
S894 N896 1.610 . S
N895 S894 1.613 . S
N895 C898 1.350 . S
N896 S894 1.610 . S
N896 C897 1.351 . S
C897 C891 1.428 . S
C897 N896 1.351 . S
C897 C898 1.434 . S
C898 C889 1.429 . S
C898 N895 1.350 . S
C898 C897 1.434 . S
C899 C900 1.369 . S
C899 C901 1.419 . S
C899 H903 0.930 . S
C900 C899 1.369 . S
C900 C909 1.429 . S
C901 C899 1.419 . S
C901 C902 1.363 . S
C901 H904 0.929 . S
C902 C901 1.363 . S
C902 C908 1.428 . S
H903 C899 0.930 . S
H904 C901 0.929 . S
S905 N906 1.613 . S
S905 N907 1.610 . S
N906 S905 1.613 . S
N906 C909 1.350 . S
N907 S905 1.610 . S
N907 C908 1.351 . S
C908 C902 1.428 . S
C908 N907 1.351 . S
C908 C909 1.434 . S
C909 C900 1.429 . S
C909 N906 1.350 . S
C909 C908 1.434 . S
C910 C911 1.369 . S
C910 C912 1.419 . S
C910 H914 0.930 . S
C911 C910 1.369 . S
C911 C920 1.429 . S
C912 C910 1.419 . S
C912 C913 1.363 . S
C912 H915 0.929 . S
C913 C912 1.363 . S
C913 C919 1.428 . S
H914 C910 0.930 . S
H915 C912 0.929 . S
S916 N917 1.613 . S
S916 N918 1.610 . S
N917 S916 1.613 . S
N917 C920 1.350 . S
N918 S916 1.610 . S
N918 C919 1.351 . S
C919 C913 1.428 . S
C919 N918 1.351 . S
C919 C920 1.434 . S
C920 C911 1.429 . S
C920 N917 1.350 . S
C920 C919 1.434 . S
C921 C922 1.369 . S
C921 C923 1.419 . S
C921 H925 0.930 . S
C922 C921 1.369 . S
C922 C931 1.429 . S
C923 C921 1.419 . S
C923 C924 1.363 . S
C923 H926 0.929 . S
C924 C923 1.363 . S
C924 C930 1.428 . S
H925 C921 0.930 . S
H926 C923 0.929 . S
S927 N928 1.613 . S
S927 N929 1.610 . S
N928 S927 1.613 . S
N928 C931 1.350 . S
N929 S927 1.610 . S
N929 C930 1.351 . S
C930 C924 1.428 . S
C930 N929 1.351 . S
C930 C931 1.434 . S
C931 C922 1.429 . S
C931 N928 1.350 . S
C931 C930 1.434 . S
C932 C933 1.369 . S
C932 C934 1.419 . S
C932 H936 0.930 . S
C933 C932 1.369 . S
C933 C942 1.429 . S
C934 C932 1.419 . S
C934 C935 1.363 . S
C934 H937 0.929 . S
C935 C934 1.363 . S
C935 C941 1.428 . S
H936 C932 0.930 . S
H937 C934 0.929 . S
S938 N939 1.613 1_455 S
S938 N940 1.610 . S
N939 S938 1.613 1_655 S
N939 C942 1.350 . S
N940 S938 1.610 . S
N940 C941 1.351 1_455 S
C941 C935 1.428 . S
C941 N940 1.351 1_655 S
C941 C942 1.434 . S
C942 C933 1.429 . S
C942 N939 1.350 . S
C942 C941 1.434 . S
C943 C944 1.369 . S
C943 C945 1.419 . S
C943 H947 0.930 . S
C944 C943 1.369 . S
C944 C953 1.429 . S
C945 C943 1.419 . S
C945 C946 1.363 . S
C945 H948 0.929 . S
C946 C945 1.363 . S
C946 C952 1.428 . S
H947 C943 0.930 . S
H948 C945 0.929 . S
S949 N950 1.613 . S
S949 N951 1.610 . S
N950 S949 1.613 . S
N950 C953 1.350 . S
N951 S949 1.610 . S
N951 C952 1.351 . S
C952 C946 1.428 . S
C952 N951 1.351 . S
C952 C953 1.434 . S
C953 C944 1.429 . S
C953 N950 1.350 . S
C953 C952 1.434 . S
C954 C955 1.369 . S
C954 C956 1.419 . S
C954 H958 0.930 . S
C955 C954 1.369 . S
C955 C964 1.429 . S
C956 C954 1.419 . S
C956 C957 1.363 . S
C956 H959 0.929 . S
C957 C956 1.363 . S
C957 C963 1.428 . S
H958 C954 0.930 . S
H959 C956 0.929 . S
S960 N961 1.613 . S
S960 N962 1.610 . S
N961 S960 1.613 . S
N961 C964 1.350 . S
N962 S960 1.610 . S
N962 C963 1.351 . S
C963 C957 1.428 . S
C963 N962 1.351 . S
C963 C964 1.434 . S
C964 C955 1.429 . S
C964 N961 1.350 . S
C964 C963 1.434 . S
C965 C966 1.369 1_554 S
C965 C967 1.419 1_545 S
C965 H969 0.931 . S
C966 C965 1.369 1_556 S
C966 C975 1.429 . S
C967 C965 1.419 1_565 S
C967 C968 1.363 1_554 S
C967 H970 0.929 . S
C968 C967 1.363 1_556 S
C968 C974 1.428 . S
H969 C965 0.931 . S
H970 C967 0.929 . S
S971 N972 1.613 1_565 S
S971 N973 1.610 . S
N972 S971 1.613 1_545 S
N972 C975 1.350 . S
N973 S971 1.610 . S
N973 C974 1.351 . S
C974 C968 1.428 . S
C974 N973 1.351 . S
C974 C975 1.434 1_565 S
C975 C966 1.429 . S
C975 N972 1.350 . S
C975 C974 1.434 1_545 S
C976 C977 1.369 . S
C976 C978 1.419 . S
C976 H980 0.930 . S
C977 C976 1.369 . S
C977 C986 1.429 . S
C978 C976 1.419 . S
C978 C979 1.363 . S
C978 H981 0.929 . S
C979 C978 1.363 . S
C979 C985 1.428 . S
H980 C976 0.930 . S
H981 C978 0.929 . S
S982 N983 1.613 . S
S982 N984 1.610 . S
N983 S982 1.613 . S
N983 C986 1.350 . S
N984 S982 1.610 . S
N984 C985 1.351 . S
C985 C979 1.428 . S
C985 N984 1.351 . S
C985 C986 1.434 . S
C986 C977 1.429 . S
C986 N983 1.350 . S
C986 C985 1.434 . S
C987 C988 1.369 . S
C987 C989 1.419 . S
C987 H991 0.930 . S
C988 C987 1.369 . S
C988 C997 1.429 . S
C989 C987 1.419 . S
C989 C990 1.363 . S
C989 H992 0.929 . S
C990 C989 1.363 . S
C990 C996 1.428 . S
H991 C987 0.930 . S
H992 C989 0.929 . S
S993 N994 1.613 1_556 S
S993 N995 1.610 1_556 S
N994 S993 1.613 1_554 S
N994 C997 1.350 . S
N995 S993 1.610 1_554 S
N995 C996 1.351 . S
C996 C990 1.428 . S
C996 N995 1.351 . S
C996 C997 1.434 . S
C997 C988 1.429 . S
C997 N994 1.350 . S
C997 C996 1.434 . S
C998 C999 1.369 . S
C998 C1000 1.419 . S
C998 H1002 0.930 . S
C999 C998 1.369 . S
C999 C1008 1.429 . S
C1000 C998 1.419 . S
C1000 C1001 1.363 . S
C1000 H1003 0.929 . S
C1001 C1000 1.363 . S
C1001 C1007 1.428 . S
H1002 C998 0.930 . S
H1003 C1000 0.929 . S
S1004 N1005 1.613 . S
S1004 N1006 1.610 1_545 S
N1005 S1004 1.613 . S
N1005 C1008 1.350 1_545 S
N1006 S1004 1.610 1_565 S
N1006 C1007 1.351 . S
C1007 C1001 1.428 . S
C1007 N1006 1.351 . S
C1007 C1008 1.434 . S
C1008 C999 1.429 . S
C1008 N1005 1.350 1_565 S
C1008 C1007 1.434 . S
C1009 C1010 1.369 . S
C1009 C1011 1.419 . S
C1009 H1013 0.930 . S
C1010 C1009 1.369 . S
C1010 C1019 1.429 . S
C1011 C1009 1.419 . S
C1011 C1012 1.363 . S
C1011 H1014 0.929 . S
C1012 C1011 1.363 . S
C1012 C1018 1.428 . S
H1013 C1009 0.930 . S
H1014 C1011 0.929 . S
S1015 N1016 1.613 . S
S1015 N1017 1.610 . S
N1016 S1015 1.613 . S
N1016 C1019 1.350 . S
N1017 S1015 1.610 . S
N1017 C1018 1.351 . S
C1018 C1012 1.428 . S
C1018 N1017 1.351 . S
C1018 C1019 1.434 . S
C1019 C1010 1.429 . S
C1019 N1016 1.350 . S
C1019 C1018 1.434 . S
C495 C481 1.313 . S
C493 N12 1.525 1_556 S
C504 C30 1.570 . S
C506 C434 1.302 . S
C515 C62 1.401 . S
C517 C445 1.289 . S
C528 C470 1.268 . S
C526 N81 1.452 . S
C537 C39 1.439 . S
C539 C488 1.255 . S
C550 C427 1.340 . S
C548 C53 1.547 . S
C561 C452 1.250 . S
C559 N71 1.451 . S
C572 C463 1.296 . S
C570 N2 1.364 . S
C581 N94 1.511 1_655 S
C583 C464 1.330 . S
C594 C490 1.307 . S
C592 C131 1.453 . S
C605 C428 1.308 . S
C603 N140 1.386 . S
C616 C454 1.270 . S
C614 C177 1.438 . S
C625 C108 1.405 . S
C627 C436 1.310 . S
C636 N117 1.412 . S
C638 C446 1.309 . S
C647 C154 1.479 . S
C649 C472 1.277 . S
C660 C482 1.285 . S
C658 N163 1.453 . S
C671 C319 1.288 . S
C669 N173 1.444 . S
C682 C302 1.279 . S
C680 C191 1.521 . S
C693 C328 1.270 . S
C691 N219 1.480 . S
C704 C346 1.363 . S
C702 C237 1.505 . S
C713 N104 1.460 . S
C715 C320 1.297 . S
C724 N127 1.469 . S
C726 C290 1.245 . S
C735 C214 1.496 . S
C737 C344 1.321 . S
C746 C260 1.556 . S
C748 C301 1.340 . S
C759 C355 1.324 1_565 S
C757 N48 1.431 . S
C770 C380 1.267 . S
C768 C76 1.556 . S
C779 C7 1.451 . S
C781 C391 1.295 . S
C790 N35 1.426 . S
C792 C416 1.241 . S
C803 C362 1.287 . S
C801 C85 1.460 1_554 S
C814 C373 1.324 . S
C812 C16 1.499 . S
C823 N25 1.474 . S
C825 C398 1.277 . S
C836 C409 1.294 . S
C834 N58 1.428 . S
C845 N255 1.505 . S
C847 C410 1.324 . S
C856 C200 1.445 . S
C858 C364 1.300 . S
C869 C374 1.305 . S
C867 N209 1.378 . S
C878 C246 1.434 . S
C880 C400 1.264 . S
C891 C382 1.309 . S
C889 C269 1.427 . S
C900 N186 1.427 . S
C902 C392 1.304 . S
C913 C418 1.281 . S
C911 C223 1.484 1_455 S
C924 C356 1.290 1_565 S
C922 N232 1.455 . S
C935 C283 1.294 . S
C933 N242 1.442 . S
C946 C338 1.283 . S
C944 C122 1.525 . S
C955 N150 1.487 . S
C957 C292 1.262 . S
C968 C310 1.359 . S
C966 C168 1.516 . S
C979 C284 1.300 . S
C977 N265 1.458 . S
C988 N196 1.472 . S
C990 C326 1.244 . S
C999 C145 1.495 . S
C1001 C308 1.310 . S
C1010 C99 1.552 . S
C1012 C337 1.330 . S
