# Generated by pormake.
# Topology ptr, (4,4)-cn, num edge types: 1
# Building blocks:
#     Node 0, Type 0, BuildingBlock: UXUYUI_clean_sbu_0, # of connection points: 4
#     Node 1, Type 0, BuildingBlock: UXUYUI_clean_sbu_0, # of connection points: 4
#     Node 2, Type 0, BuildingBlock: UXUYUI_clean_sbu_0, # of connection points: 4
#     Node 3, Type 0, BuildingBlock: UXUYUI_clean_sbu_0, # of connection points: 4
#     Node 4, Type 0, BuildingBlock: UXUYUI_clean_sbu_0, # of connection points: 4
#     Node 5, Type 0, BuildingBlock: UXUYUI_clean_sbu_0, # of connection points: 4
#     Node 6, Type 0, BuildingBlock: UXUYUI_clean_sbu_0, # of connection points: 4
#     Node 7, Type 0, BuildingBlock: UXUYUI_clean_sbu_0, # of connection points: 4
#     Node 8, Type 0, BuildingBlock: UXUYUI_clean_sbu_0, # of connection points: 4
#     Node 9, Type 0, BuildingBlock: UXUYUI_clean_sbu_0, # of connection points: 4
#     Node 10, Type 0, BuildingBlock: UXUYUI_clean_sbu_0, # of connection points: 4
#     Node 11, Type 0, BuildingBlock: UXUYUI_clean_sbu_0, # of connection points: 4
#     Node 12, Type 0, BuildingBlock: UXUYUI_clean_sbu_0, # of connection points: 4
#     Node 13, Type 0, BuildingBlock: UXUYUI_clean_sbu_0, # of connection points: 4
#     Node 14, Type 0, BuildingBlock: UXUYUI_clean_sbu_0, # of connection points: 4
#     Node 15, Type 0, BuildingBlock: UXUYUI_clean_sbu_0, # of connection points: 4
#     Node 16, Type 0, BuildingBlock: UXUYUI_clean_sbu_0, # of connection points: 4
#     Node 17, Type 0, BuildingBlock: UXUYUI_clean_sbu_0, # of connection points: 4
#     Node 18, Type 1, BuildingBlock: MUDLON_clean_linker_0, # of connection points: 4
#     Node 19, Type 1, BuildingBlock: MUDLON_clean_linker_0, # of connection points: 4
#     Node 20, Type 1, BuildingBlock: MUDLON_clean_linker_0, # of connection points: 4
#     Node 21, Type 1, BuildingBlock: MUDLON_clean_linker_0, # of connection points: 4
#     Node 22, Type 1, BuildingBlock: MUDLON_clean_linker_0, # of connection points: 4
#     Node 23, Type 1, BuildingBlock: MUDLON_clean_linker_0, # of connection points: 4
#     Node 24, Type 1, BuildingBlock: MUDLON_clean_linker_0, # of connection points: 4
#     Node 25, Type 1, BuildingBlock: MUDLON_clean_linker_0, # of connection points: 4
#     Node 26, Type 1, BuildingBlock: MUDLON_clean_linker_0, # of connection points: 4
#     Node 27, Type 1, BuildingBlock: MUDLON_clean_linker_0, # of connection points: 4
#     Node 28, Type 1, BuildingBlock: MUDLON_clean_linker_0, # of connection points: 4
#     Node 29, Type 1, BuildingBlock: MUDLON_clean_linker_0, # of connection points: 4
#     Node 30, Type 1, BuildingBlock: MUDLON_clean_linker_0, # of connection points: 4
#     Node 31, Type 1, BuildingBlock: MUDLON_clean_linker_0, # of connection points: 4
#     Node 32, Type 1, BuildingBlock: MUDLON_clean_linker_0, # of connection points: 4
#     Node 33, Type 1, BuildingBlock: MUDLON_clean_linker_0, # of connection points: 4
#     Node 34, Type 1, BuildingBlock: MUDLON_clean_linker_0, # of connection points: 4
#     Node 35, Type 1, BuildingBlock: MUDLON_clean_linker_0, # of connection points: 4
#     Edge 36, Type (0, 1), BuildingBlock: TEMPAE_clean_linker_10, # of connection points: 2
#     Edge 37, Type (0, 1), BuildingBlock: TEMPAE_clean_linker_10, # of connection points: 2
#     Edge 38, Type (0, 1), BuildingBlock: TEMPAE_clean_linker_10, # of connection points: 2
#     Edge 39, Type (0, 1), BuildingBlock: TEMPAE_clean_linker_10, # of connection points: 2
#     Edge 40, Type (0, 1), BuildingBlock: TEMPAE_clean_linker_10, # of connection points: 2
#     Edge 41, Type (0, 1), BuildingBlock: TEMPAE_clean_linker_10, # of connection points: 2
#     Edge 42, Type (0, 1), BuildingBlock: TEMPAE_clean_linker_10, # of connection points: 2
#     Edge 43, Type (0, 1), BuildingBlock: TEMPAE_clean_linker_10, # of connection points: 2
#     Edge 44, Type (0, 1), BuildingBlock: TEMPAE_clean_linker_10, # of connection points: 2
#     Edge 45, Type (0, 1), BuildingBlock: TEMPAE_clean_linker_10, # of connection points: 2
#     Edge 46, Type (0, 1), BuildingBlock: TEMPAE_clean_linker_10, # of connection points: 2
#     Edge 47, Type (0, 1), BuildingBlock: TEMPAE_clean_linker_10, # of connection points: 2
#     Edge 48, Type (0, 1), BuildingBlock: TEMPAE_clean_linker_10, # of connection points: 2
#     Edge 49, Type (0, 1), BuildingBlock: TEMPAE_clean_linker_10, # of connection points: 2
#     Edge 50, Type (0, 1), BuildingBlock: TEMPAE_clean_linker_10, # of connection points: 2
#     Edge 51, Type (0, 1), BuildingBlock: TEMPAE_clean_linker_10, # of connection points: 2
#     Edge 52, Type (0, 1), BuildingBlock: TEMPAE_clean_linker_10, # of connection points: 2
#     Edge 53, Type (0, 1), BuildingBlock: TEMPAE_clean_linker_10, # of connection points: 2
#     Edge 54, Type (0, 1), BuildingBlock: TEMPAE_clean_linker_10, # of connection points: 2
#     Edge 55, Type (0, 1), BuildingBlock: TEMPAE_clean_linker_10, # of connection points: 2
#     Edge 56, Type (0, 1), BuildingBlock: TEMPAE_clean_linker_10, # of connection points: 2
#     Edge 57, Type (0, 1), BuildingBlock: TEMPAE_clean_linker_10, # of connection points: 2
#     Edge 58, Type (0, 1), BuildingBlock: TEMPAE_clean_linker_10, # of connection points: 2
#     Edge 59, Type (0, 1), BuildingBlock: TEMPAE_clean_linker_10, # of connection points: 2
#     Edge 60, Type (0, 1), BuildingBlock: TEMPAE_clean_linker_10, # of connection points: 2
#     Edge 61, Type (0, 1), BuildingBlock: TEMPAE_clean_linker_10, # of connection points: 2
#     Edge 62, Type (0, 1), BuildingBlock: TEMPAE_clean_linker_10, # of connection points: 2
#     Edge 63, Type (0, 1), BuildingBlock: TEMPAE_clean_linker_10, # of connection points: 2
#     Edge 64, Type (0, 1), BuildingBlock: TEMPAE_clean_linker_10, # of connection points: 2
#     Edge 65, Type (0, 1), BuildingBlock: TEMPAE_clean_linker_10, # of connection points: 2
#     Edge 66, Type (0, 1), BuildingBlock: TEMPAE_clean_linker_10, # of connection points: 2
#     Edge 67, Type (0, 1), BuildingBlock: TEMPAE_clean_linker_10, # of connection points: 2
#     Edge 68, Type (0, 1), BuildingBlock: TEMPAE_clean_linker_10, # of connection points: 2
#     Edge 69, Type (0, 1), BuildingBlock: TEMPAE_clean_linker_10, # of connection points: 2
#     Edge 70, Type (0, 1), BuildingBlock: TEMPAE_clean_linker_10, # of connection points: 2
#     Edge 71, Type (0, 1), BuildingBlock: TEMPAE_clean_linker_10, # of connection points: 2
#     Edge 72, Type (0, 1), BuildingBlock: TEMPAE_clean_linker_10, # of connection points: 2
#     Edge 73, Type (0, 1), BuildingBlock: TEMPAE_clean_linker_10, # of connection points: 2
#     Edge 74, Type (0, 1), BuildingBlock: TEMPAE_clean_linker_10, # of connection points: 2
#     Edge 75, Type (0, 1), BuildingBlock: TEMPAE_clean_linker_10, # of connection points: 2
#     Edge 76, Type (0, 1), BuildingBlock: TEMPAE_clean_linker_10, # of connection points: 2
#     Edge 77, Type (0, 1), BuildingBlock: TEMPAE_clean_linker_10, # of connection points: 2
#     Edge 78, Type (0, 1), BuildingBlock: TEMPAE_clean_linker_10, # of connection points: 2
#     Edge 79, Type (0, 1), BuildingBlock: TEMPAE_clean_linker_10, # of connection points: 2
#     Edge 80, Type (0, 1), BuildingBlock: TEMPAE_clean_linker_10, # of connection points: 2
#     Edge 81, Type (0, 1), BuildingBlock: TEMPAE_clean_linker_10, # of connection points: 2
#     Edge 82, Type (0, 1), BuildingBlock: TEMPAE_clean_linker_10, # of connection points: 2
#     Edge 83, Type (0, 1), BuildingBlock: TEMPAE_clean_linker_10, # of connection points: 2
#     Edge 84, Type (0, 1), BuildingBlock: TEMPAE_clean_linker_10, # of connection points: 2
#     Edge 85, Type (0, 1), BuildingBlock: TEMPAE_clean_linker_10, # of connection points: 2
#     Edge 86, Type (0, 1), BuildingBlock: TEMPAE_clean_linker_10, # of connection points: 2
#     Edge 87, Type (0, 1), BuildingBlock: TEMPAE_clean_linker_10, # of connection points: 2
#     Edge 88, Type (0, 1), BuildingBlock: TEMPAE_clean_linker_10, # of connection points: 2
#     Edge 89, Type (0, 1), BuildingBlock: TEMPAE_clean_linker_10, # of connection points: 2
#     Edge 90, Type (0, 1), BuildingBlock: TEMPAE_clean_linker_10, # of connection points: 2
#     Edge 91, Type (0, 1), BuildingBlock: TEMPAE_clean_linker_10, # of connection points: 2
#     Edge 92, Type (0, 1), BuildingBlock: TEMPAE_clean_linker_10, # of connection points: 2
#     Edge 93, Type (0, 1), BuildingBlock: TEMPAE_clean_linker_10, # of connection points: 2
#     Edge 94, Type (0, 1), BuildingBlock: TEMPAE_clean_linker_10, # of connection points: 2
#     Edge 95, Type (0, 1), BuildingBlock: TEMPAE_clean_linker_10, # of connection points: 2
#     Edge 96, Type (0, 1), BuildingBlock: TEMPAE_clean_linker_10, # of connection points: 2
#     Edge 97, Type (0, 1), BuildingBlock: TEMPAE_clean_linker_10, # of connection points: 2
#     Edge 98, Type (0, 1), BuildingBlock: TEMPAE_clean_linker_10, # of connection points: 2
#     Edge 99, Type (0, 1), BuildingBlock: TEMPAE_clean_linker_10, # of connection points: 2
#     Edge 100, Type (0, 1), BuildingBlock: TEMPAE_clean_linker_10, # of connection points: 2
#     Edge 101, Type (0, 1), BuildingBlock: TEMPAE_clean_linker_10, # of connection points: 2
#     Edge 102, Type (0, 1), BuildingBlock: TEMPAE_clean_linker_10, # of connection points: 2
#     Edge 103, Type (0, 1), BuildingBlock: TEMPAE_clean_linker_10, # of connection points: 2
#     Edge 104, Type (0, 1), BuildingBlock: TEMPAE_clean_linker_10, # of connection points: 2
#     Edge 105, Type (0, 1), BuildingBlock: TEMPAE_clean_linker_10, # of connection points: 2
#     Edge 106, Type (0, 1), BuildingBlock: TEMPAE_clean_linker_10, # of connection points: 2
#     Edge 107, Type (0, 1), BuildingBlock: TEMPAE_clean_linker_10, # of connection points: 2
# Relax obj value: 0.080
# Max RMSD: 0.221
# Mean RMSD: 0.104
data_MOF--net-ptr--node1-UXUYUI_clean_sbu_0--node2-MUDLON_clean_linker_0--edge1-TEMPAE_clean_linker_10
_symmetry_space_group_name_H-M    P1
_symmetry_Int_Tables_number       1
_symmetry_cell_setting            triclinic
loop_
_symmetry_equiv_pos_as_xyz
'x, y, z'
_cell_length_a     125.10803
_cell_length_b     125.11526
_cell_length_c     70.591115
_cell_angle_alpha  89.988622
_cell_angle_beta   90.02777
_cell_angle_gamma 120.02439
loop_
_atom_site_label
_atom_site_type_symbol
_atom_site_fract_x
_atom_site_fract_y
_atom_site_fract_z
_atom_type_partial_charge
Li0 Li 0.98731 0.35075 0.0075 0.0
Li1 Li 0.00923 0.36211 0.01017 0.0
Li2 Li 0.99606 0.36925 0.02642 0.0
Li3 Li 0.99827 0.37001 0.99161 0.0
C4 C 0.99355 0.34412 0.04171 0.0
N5 N 0.9858 0.32311 0.06332 0.0
C6 C 0.99471 0.33429 0.03475 0.0
C7 C 0.98851 0.3433 0.05968 0.0
C8 C 0.99071 0.32374 0.04588 0.0
C9 C 0.98464 0.33259 0.07038 0.0
C10 C 0.00736 0.35737 0.97189 0.0
C11 C 0.02672 0.37051 0.95613 0.0
N12 N 0.02336 0.36206 0.94197 0.0
C13 C 0.00412 0.34881 0.9572 0.0
C14 C 0.01877 0.36831 0.97138 0.0
C15 C 0.01233 0.35135 0.94219 0.0
C16 C 0.97103 0.33032 0.98636 0.0
N17 N 0.97356 0.33434 0.00457 0.0
C18 C 0.95719 0.31497 0.01578 0.0
C19 C 0.9667 0.32702 0.01919 0.0
C20 C 0.9546 0.31049 0.99712 0.0
C21 C 0.96157 0.3184 0.98229 0.0
H22 H 0.97647 0.33639 0.97498 0.0
H23 H 0.9686 0.33048 0.03353 0.0
C24 C 0.03365 0.3694 0.02206 0.0
N25 N 0.02357 0.36064 0.0127 0.0
C26 C 0.04383 0.36783 0.02501 0.0
C27 C 0.03307 0.34834 0.00843 0.0
C28 C 0.02318 0.35036 0.00563 0.0
C29 C 0.04355 0.35706 0.01845 0.0
H30 H 0.03369 0.3775 0.02752 0.0
H31 H 0.01505 0.34356 0.99817 0.0
C32 C 0.97064 0.35701 0.01124 0.0
N33 N 0.94589 0.34214 0.01979 0.0
C34 C 0.96173 0.35337 0.99698 0.0
C35 C 0.96694 0.35303 0.02984 0.0
C36 C 0.94927 0.34585 0.00159 0.0
C37 C 0.95439 0.34556 0.03388 0.0
C38 C 0.01496 0.39129 0.01236 0.0
C39 C 0.00622 0.39504 0.01008 0.0
C40 C 0.02724 0.40009 0.01617 0.0
C41 C 0.00992 0.40755 0.01166 0.0
C42 C 0.03058 0.41251 0.01764 0.0
N43 N 0.02193 0.41595 0.01538 0.0
C44 C 0.00328 0.3809 0.06209 0.0
C45 C 0.98652 0.38167 0.04786 0.0
C46 C 0.00322 0.38798 0.07736 0.0
N47 N 0.995 0.37792 0.04778 0.0
C48 C 0.98602 0.38862 0.06292 0.0
C49 C 0.99451 0.39197 0.07791 0.0
H50 H 0.01007 0.37797 0.06145 0.0
H51 H 0.98021 0.3794 0.03609 0.0
C52 C 0.98877 0.37511 0.95899 0.0
N53 N 0.99918 0.37929 0.96956 0.0
C54 C 0.98849 0.38194 0.94356 0.0
C55 C 0.00987 0.39699 0.94958 0.0
C56 C 0.00972 0.38986 0.96491 0.0
C57 C 0.99909 0.39315 0.93885 0.0
H58 H 0.98064 0.36654 0.9627 0.0
H59 H 0.01799 0.39287 0.97324 0.0
O60 O 0.99733 0.35452 0.03106 0.0
O61 O 0.99936 0.35493 0.98666 0.0
O62 O 0.98294 0.36412 0.00701 0.0
O63 O 0.01156 0.37908 0.01104 0.0
H64 H 0.99843 0.33472 0.02078 0.0
H65 H 0.98757 0.35085 0.06525 0.0
H66 H 0.99147 0.31602 0.04063 0.0
H67 H 0.98069 0.33181 0.0843 0.0
H68 H 0.03557 0.37893 0.95557 0.0
H69 H 0.99536 0.34027 0.95739 0.0
H70 H 0.02153 0.37503 0.98262 0.0
H71 H 0.00993 0.3448 0.93072 0.0
H72 H 0.95192 0.30922 0.02758 0.0
H73 H 0.95995 0.31529 0.96771 0.0
H74 H 0.05177 0.3749 0.03255 0.0
H75 H 0.03228 0.33981 0.00336 0.0
H76 H 0.96434 0.35623 0.98249 0.0
H77 H 0.97369 0.35547 0.041 0.0
H78 H 0.94229 0.34295 0.99068 0.0
H79 H 0.95143 0.34238 0.0482 0.0
H80 H 0.99668 0.38838 0.00706 0.0
H81 H 0.03412 0.39734 0.01797 0.0
H82 H 0.00325 0.41057 0.00993 0.0
H83 H 0.04006 0.41942 0.02059 0.0
H84 H 0.0101 0.39052 0.08836 0.0
H85 H 0.97903 0.39131 0.0628 0.0
H86 H 0.97996 0.37863 0.93576 0.0
H87 H 0.01832 0.40544 0.94621 0.0
Li88 Li 0.64931 0.637 0.007 0.0
Li89 Li 0.63843 0.64769 0.01604 0.0
Li90 Li 0.63187 0.62672 0.02713 0.0
Li91 Li 0.62839 0.63001 0.99475 0.0
C92 C 0.65851 0.64582 0.04129 0.0
N93 N 0.68132 0.65349 0.05758 0.0
C94 C 0.66561 0.6579 0.04801 0.0
C95 C 0.66293 0.63759 0.04316 0.0
C96 C 0.67713 0.66161 0.05613 0.0
C97 C 0.67451 0.64166 0.05132 0.0
C98 C 0.64158 0.65293 0.97754 0.0
C99 C 0.62894 0.66099 0.96569 0.0
N100 N 0.63723 0.66682 0.95154 0.0
C101 C 0.64999 0.65901 0.96291 0.0
C102 C 0.63097 0.65393 0.97899 0.0
C103 C 0.64762 0.66598 0.94989 0.0
C104 C 0.66755 0.63105 0.995 0.0
N105 N 0.66535 0.6402 0.00037 0.0
C106 C 0.68662 0.65534 0.99661 0.0
C107 C 0.67455 0.65216 0.00115 0.0
C108 C 0.68924 0.64614 0.99084 0.0
C109 C 0.6795 0.63383 0.99012 0.0
H110 H 0.66001 0.62162 0.99434 0.0
H111 H 0.67249 0.65924 0.00544 0.0
C112 C 0.63252 0.66665 0.02599 0.0
N113 N 0.64138 0.66395 0.02088 0.0
C114 C 0.63564 0.67886 0.02956 0.0
C115 C 0.65681 0.68531 0.02163 0.0
C116 C 0.65328 0.673 0.01824 0.0
C117 C 0.64797 0.68836 0.02765 0.0
H118 H 0.62303 0.65939 0.02737 0.0
H119 H 0.66006 0.6706 0.01363 0.0
C120 C 0.62985 0.60776 0.00883 0.0
N121 N 0.6181 0.58327 0.01974 0.0
C122 C 0.61737 0.59997 0.00458 0.0
C123 C 0.63638 0.60307 0.01849 0.0
C124 C 0.61159 0.58762 0.01024 0.0
C125 C 0.63026 0.59068 0.02394 0.0
C126 C 0.6148 0.63476 0.03194 0.0
C127 C 0.62046 0.63913 0.04955 0.0
C128 C 0.60253 0.63177 0.02937 0.0
C129 C 0.61377 0.6405 0.06423 0.0
C130 C 0.59615 0.63328 0.04441 0.0
N131 N 0.60186 0.63758 0.06138 0.0
C132 C 0.63154 0.61471 0.06179 0.0
C133 C 0.61203 0.60786 0.04744 0.0
C134 C 0.62602 0.60631 0.0766 0.0
N135 N 0.62451 0.61532 0.0476 0.0
C136 C 0.60613 0.59941 0.06205 0.0
C137 C 0.61315 0.59857 0.07688 0.0
H138 H 0.6414 0.62078 0.0617 0.0
H139 H 0.60667 0.60848 0.03592 0.0
C140 C 0.62105 0.61756 0.96012 0.0
N141 N 0.61788 0.62328 0.9735 0.0
C142 C 0.61333 0.61189 0.94463 0.0
C143 C 0.59936 0.61833 0.95679 0.0
C144 C 0.60733 0.62381 0.97213 0.0
C145 C 0.60228 0.61217 0.94289 0.0
H146 H 0.62951 0.61729 0.96165 0.0
H147 H 0.60504 0.62839 0.98304 0.0
O148 O 0.64727 0.64208 0.03305 0.0
O149 O 0.64383 0.64611 0.9904 0.0
O150 O 0.63558 0.61995 0.00385 0.0
O151 O 0.62105 0.63313 0.01733 0.0
H152 H 0.66224 0.66432 0.04709 0.0
H153 H 0.65758 0.62823 0.03802 0.0
H154 H 0.68274 0.67094 0.06132 0.0
H155 H 0.6781 0.63542 0.05264 0.0
H156 H 0.62077 0.66185 0.96664 0.0
H157 H 0.65826 0.65834 0.96165 0.0
H158 H 0.6244 0.64935 0.99027 0.0
H159 H 0.65404 0.67074 0.93849 0.0
H160 H 0.69383 0.66491 0.99769 0.0
H161 H 0.68104 0.62646 0.98548 0.0
H162 H 0.62853 0.68081 0.03418 0.0
H163 H 0.66636 0.69236 0.01958 0.0
H164 H 0.61215 0.60346 0.99727 0.0
H165 H 0.64604 0.60895 0.02187 0.0
H166 H 0.60192 0.58151 0.00716 0.0
H167 H 0.63517 0.58694 0.03153 0.0
H168 H 0.62991 0.64146 0.05193 0.0
H169 H 0.59797 0.62829 0.0159 0.0
H170 H 0.61804 0.64389 0.07791 0.0
H171 H 0.58666 0.63101 0.0426 0.0
H172 H 0.63174 0.60603 0.0879 0.0
H173 H 0.59618 0.59353 0.06169 0.0
H174 H 0.61599 0.60737 0.93409 0.0
H175 H 0.59089 0.61867 0.95603 0.0
Li176 Li 0.36775 0.99646 0.9936 0.0
Li177 Li 0.3702 0.00159 0.02724 0.0
Li178 Li 0.34922 0.98671 0.01378 0.0
Li179 Li 0.35889 0.00895 0.00815 0.0
C180 C 0.36555 0.97528 0.01032 0.0
N181 N 0.36834 0.95557 -0.0005 0.0
C182 C 0.37448 0.97333 0.01898 0.0
C183 C 0.35794 0.9671 0.99634 0.0
C184 C 0.37578 0.96334 0.01327 0.0
C185 C 0.35951 0.95722 0.99102 0.0
C186 C 0.388 0.02235 0.01024 0.0
C187 C 0.4015 0.04183 0.02542 0.0
N188 N 0.4114 0.0407 0.02053 0.0
C189 C 0.39833 0.02149 0.00511 0.0
C190 C 0.3896 0.03269 0.02026 0.0
C191 C 0.41007 0.03082 0.01055 0.0
C192 C 0.37279 0.99586 0.95452 0.0
N193 N 0.37592 0.99441 0.97239 0.0
C194 C 0.39138 0.9903 0.96049 0.0
C195 C 0.38506 0.99176 0.97561 0.0
C196 C 0.38832 0.99166 0.94185 0.0
C197 C 0.37887 0.99446 0.93894 0.0
H198 H 0.36565 0.99819 0.95239 0.0
H199 H 0.38755 0.99091 0.98995 0.0
C200 C 0.37897 0.00777 0.06531 0.0
N201 N 0.38135 0.00504 0.04773 0.0
C202 C 0.38717 0.00994 0.0802 0.0
C203 C 0.40004 0.00632 0.05865 0.0
C204 C 0.39164 0.0043 0.04419 0.0
C205 C 0.39782 0.00913 0.07696 0.0
H206 H 0.37061 0.00803 0.06791 0.0
H207 H 0.39324 0.00197 0.03013 0.0
C208 C 0.34133 0.98921 0.97779 0.0
N209 N 0.32079 0.97691 0.95479 0.0
C210 C 0.33215 0.99247 0.9779 0.0
C211 C 0.34018 0.97987 0.96563 0.0
C212 C 0.3218 0.98609 0.96629 0.0
C213 C 0.3297 0.97372 0.9542 0.0
C214 C 0.34971 0.00576 0.04475 0.0
C215 C 0.33748 0.99952 0.05104 0.0
C216 C 0.3576 0.01789 0.05065 0.0
C217 C 0.33328 0.0056 0.06287 0.0
C218 C 0.35306 0.02366 0.06249 0.0
N219 N 0.3411 0.01746 0.06828 0.0
C220 C 0.33284 0.96157 0.02393 0.0
C221 C 0.32335 0.97336 0.0166 0.0
C222 C 0.32137 0.95124 0.02784 0.0
N223 N 0.33361 0.97233 0.0183 0.0
C224 C 0.3117 0.96331 0.02048 0.0
C225 C 0.31059 0.95205 0.02627 0.0
H226 H 0.34113 0.96104 0.02574 0.0
H227 H 0.32423 0.98214 0.01284 0.0
C228 C 0.36361 0.03212 0.99434 0.0
N229 N 0.35534 0.02191 0.00403 0.0
C230 C 0.36098 0.0415 0.99034 0.0
C231 C 0.34146 0.02975 0.00655 0.0
C232 C 0.34442 0.02056 0.01009 0.0
C233 C 0.34975 0.04033 0.99641 0.0
H234 H 0.37216 0.03288 0.98948 0.0
H235 H 0.33783 0.01221 0.01726 0.0
O236 O 0.3643 0.98514 0.01549 0.0
O237 O 0.37641 0.01323 0.0052 0.0
O238 O 0.35157 0.99542 0.98905 0.0
O239 O 0.35391 1.00001 0.03289 0.0
H240 H 0.38036 0.97944 0.03 0.0
H241 H 0.35079 0.96829 0.98986 0.0
H242 H 0.38269 0.96176 0.0198 0.0
H243 H 0.35367 0.95085 0.98019 0.0
H244 H 0.40286 0.04985 0.03325 0.0
H245 H 0.39729 0.01364 0.99718 0.0
H246 H 0.38178 0.03372 0.02387 0.0
H247 H 0.41813 0.03019 0.00683 0.0
H248 H 0.39855 0.98807 0.96337 0.0
H249 H 0.37636 0.99578 0.92481 0.0
H250 H 0.38502 0.01187 0.0942 0.0
H251 H 0.40817 0.00566 0.05555 0.0
H252 H 0.33294 0.99977 0.98699 0.0
H253 H 0.34734 0.97748 0.96481 0.0
H254 H 0.31458 0.98845 0.9664 0.0
H255 H 0.32868 0.96644 0.94479 0.0
H256 H 0.33127 0.99008 0.04686 0.0
H257 H 0.36712 0.02279 0.04618 0.0
H258 H 0.32382 0.00089 0.06777 0.0
H259 H 0.35907 0.03307 0.06708 0.0
H260 H 0.32096 0.94275 0.0322 0.0
H261 H 0.30371 0.96448 0.01956 0.0
H262 H 0.36762 0.04955 0.9825 0.0
H263 H 0.33261 0.02838 0.01114 0.0
Li264 Li 0.00539 0.64926 0.01234 0.0
Li265 Li 0.99499 0.62902 0.02933 0.0
Li266 Li 0.99569 0.62915 0.99476 0.0
Li267 Li 0.98305 0.63517 0.0112 0.0
C268 C 0.01727 0.63225 0.00533 0.0
N269 N 0.03123 0.62359 0.98793 0.0
C270 C 0.0162 0.62107 0.01106 0.0
C271 C 0.02543 0.63904 0.99076 0.0
C272 C 0.02335 0.61685 0.00209 0.0
C273 C 0.0324 0.6345 0.98213 0.0
C274 C 0.99443 0.64498 0.05243 0.0
C275 C 0.98564 0.63933 0.08372 0.0
N276 N 0.99705 0.64652 0.09135 0.0
C277 C 0.00606 0.65235 0.06056 0.0
C278 C 0.98412 0.63845 0.06406 0.0
C279 C 0.00719 0.653 0.08027 0.0
C280 C 0.01453 0.67447 0.01671 0.0
N281 N 0.01809 0.66594 0.01415 0.0
C282 C 0.03929 0.68135 0.01803 0.0
C283 C 0.03019 0.66911 0.01464 0.0
C284 C 0.03587 0.69034 0.0211 0.0
C285 C 0.02331 0.68678 0.02011 0.0
H286 H 0.00482 0.6716 0.01672 0.0
H287 H 0.03273 0.66208 0.01309 0.0
C288 C 0.98699 0.61053 0.05807 0.0
N289 N 0.99665 0.62109 0.05116 0.0
C290 C 0.98874 0.60436 0.0732 0.0
C291 C 0.01031 0.62012 0.07382 0.0
C292 C 0.00813 0.62601 0.05879 0.0
C293 C 0.00058 0.60907 0.08106 0.0
H294 H 0.978 0.60672 0.05156 0.0
H295 H 0.01565 0.63439 0.0529 0.0
C296 C 0.98729 0.64595 0.9774 0.0
N297 N 0.97171 0.6495 0.95379 0.0
C298 C 0.9802 0.63705 0.96383 0.0
C299 C 0.98652 0.65668 0.97887 0.0
C300 C 0.97239 0.63903 0.95201 0.0
C301 C 0.97855 0.65828 0.96686 0.0
C302 C 0.96939 0.6106 0.01001 0.0
C303 C 0.96446 0.60383 0.99337 0.0
C304 C 0.96157 0.60908 0.02518 0.0
C305 C 0.95176 0.59567 0.99216 0.0
C306 C 0.94891 0.60086 0.02339 0.0
N307 N 0.94431 0.59438 0.00706 0.0
C308 C 0.99474 0.60894 0.9762 0.0
C309 C 0.00263 0.62696 0.95723 0.0
C310 C 0.99642 0.60248 0.9615 0.0
N311 N 0.9978 0.62091 0.97379 0.0
C312 C 0.00444 0.62084 0.9421 0.0
C313 C 0.00131 0.60843 0.94415 0.0
H314 H 0.99102 0.60442 0.98962 0.0
H315 H 0.00515 0.63655 0.95585 0.0
C316 C 0.96833 0.64546 0.0202 0.0
N317 N 0.96829 0.63627 0.00985 0.0
C318 C 0.95914 0.64854 0.01751 0.0
C319 C 0.94965 0.63223 0.99428 0.0
C320 C 0.9591 0.62956 0.99725 0.0
C321 C 0.9498 0.64204 0.00411 0.0
H322 H 0.97586 0.65083 0.02984 0.0
H323 H 0.95945 0.62263 0.98862 0.0
O324 O 0.01005 0.63633 0.01349 0.0
O325 O 0.99318 0.64395 0.03318 0.0
O326 O 0.99478 0.64405 0.98938 0.0
O327 O 0.98182 0.61854 0.01152 0.0
H328 H 0.00981 0.61561 0.02212 0.0
H329 H 0.0262 0.64761 0.98594 0.0
H330 H 0.02259 0.60818 0.00632 0.0
H331 H 0.03869 0.63961 0.97076 0.0
H332 H 0.97775 0.63429 0.09291 0.0
H333 H 0.01415 0.6574 0.05175 0.0
H334 H 0.97506 0.63274 0.05797 0.0
H335 H 0.01614 0.65861 0.08677 0.0
H336 H 0.04885 0.68364 0.01902 0.0
H337 H 0.02026 0.69342 0.02228 0.0
H338 H 0.98102 0.5958 0.07827 0.0
H339 H 0.01954 0.62411 0.07963 0.0
H340 H 0.98054 0.62861 0.96266 0.0
H341 H 0.9919 0.66363 0.98933 0.0
H342 H 0.96679 0.63219 0.94153 0.0
H343 H 0.97777 0.66649 0.96797 0.0
H344 H 0.97036 0.60493 0.98145 0.0
H345 H 0.96522 0.6143 0.0381 0.0
H346 H 0.94781 0.59041 0.97934 0.0
H347 H 0.94275 0.59964 0.03497 0.0
H348 H 0.99376 0.5929 0.96361 0.0
H349 H 0.00838 0.62581 0.92904 0.0
H350 H 0.95956 0.65618 0.02535 0.0
H351 H 0.94275 0.62717 0.98354 0.0
Li352 Li 0.35205 0.36185 0.01605 0.0
Li353 Li 0.37244 0.36922 0.02935 0.0
Li354 Li 0.36918 0.36973 0.99491 0.0
Li355 Li 0.36265 0.35009 0.01031 0.0
C356 C 0.36113 0.38567 0.0202 0.0
N357 N 0.34963 0.3988 0.03014 0.0
C358 C 0.36002 0.38796 0.03926 0.0
C359 C 0.35656 0.3902 0.00618 0.0
C360 C 0.35413 0.39458 0.044 0.0
C361 C 0.35073 0.39678 0.01149 0.0
C362 C 0.35908 0.34714 0.04918 0.0
C363 C 0.3722 0.34093 0.06499 0.0
N364 N 0.36297 0.33422 0.07751 0.0
C365 C 0.34972 0.34018 0.06219 0.0
C366 C 0.37042 0.34753 0.05057 0.0
C367 C 0.35187 0.33371 0.07642 0.0
C368 C 0.32788 0.3578 0.008 0.0
N369 N 0.33638 0.36014 0.02176 0.0
C370 C 0.32248 0.35943 0.04557 0.0
C371 C 0.33388 0.3609 0.04028 0.0
C372 C 0.31348 0.35698 0.03169 0.0
C373 C 0.31632 0.35621 0.01266 0.0
H374 H 0.32997 0.35697 0.99344 0.0
H375 H 0.34077 0.36264 0.05095 0.0
C376 C 0.39542 0.38545 0.04526 0.0
N377 N 0.38336 0.37777 0.04965 0.0
C378 C 0.40399 0.39189 0.05951 0.0
C379 C 0.38749 0.38269 0.08251 0.0
C380 C 0.37924 0.37633 0.06781 0.0
C381 C 0.40005 0.39052 0.07842 0.0
H382 H 0.39834 0.38661 0.03064 0.0
H383 H 0.36957 0.37025 0.07087 0.0
C384 C 0.34978 0.35344 0.97364 0.0
N385 N 0.34339 0.35223 0.93589 0.0
C386 C 0.3486 0.34376 0.96227 0.0
C387 C 0.3476 0.36244 0.96583 0.0
C388 C 0.34539 0.34333 0.94321 0.0
C389 C 0.34441 0.36169 0.94671 0.0
C390 C 0.3872 0.36287 0.99557 0.0
C391 C 0.38207 0.35486 0.98018 0.0
C392 C 0.40002 0.36952 0.99779 0.0
C393 C 0.38984 0.35366 0.96722 0.0
C394 C 0.40749 0.36808 0.98452 0.0
N395 N 0.40229 0.36025 0.96963 0.0
C396 C 0.38364 0.39203 0.97602 0.0
C397 C 0.37738 0.37467 0.95608 0.0
C398 C 0.39086 0.39997 0.96156 0.0
N399 N 0.37716 0.37963 0.97312 0.0
C400 C 0.38444 0.38226 0.94121 0.0
C401 C 0.39147 0.39509 0.94393 0.0
H402 H 0.38349 0.39573 0.9898 0.0
H403 H 0.37232 0.3648 0.95406 0.0
C404 C 0.34875 0.32465 0.00382 0.0
N405 N 0.3603 0.33391 0.00808 0.0
C406 C 0.34658 0.31273 0.00046 0.0
C407 C 0.36816 0.32002 0.00663 0.0
C408 C 0.36989 0.33177 0.01002 0.0
C409 C 0.35642 0.31037 0.00147 0.0
H410 H 0.3413 0.32663 0.00249 0.0
H411 H 0.37895 0.33926 0.01374 0.0
O412 O 0.36662 0.37896 0.0153 0.0
O413 O 0.35706 0.35348 0.03518 0.0
O414 O 0.35295 0.35403 0.99233 0.0
O415 O 0.37974 0.36424 0.00837 0.0
H416 H 0.3635 0.38452 0.05028 0.0
H417 H 0.35753 0.38869 0.99135 0.0
H418 H 0.3531 0.39633 0.05871 0.0
H419 H 0.3471 0.4003 0.00079 0.0
H420 H 0.38093 0.34116 0.06623 0.0
H421 H 0.3409 0.3398 0.06129 0.0
H422 H 0.37778 0.35288 0.04068 0.0
H423 H 0.34471 0.32829 0.08659 0.0
H424 H 0.32077 0.36027 0.06038 0.0
H425 H 0.30961 0.35414 0.00153 0.0
H426 H 0.41357 0.39799 0.05577 0.0
H427 H 0.38411 0.38136 0.09694 0.0
H428 H 0.3502 0.33667 0.96805 0.0
H429 H 0.34848 0.36999 0.9744 0.0
H430 H 0.3445 0.33591 0.93424 0.0
H431 H 0.34278 0.36864 0.94047 0.0
H432 H 0.37219 0.34964 0.97822 0.0
H433 H 0.40418 0.37571 0.00965 0.0
H434 H 0.38597 0.34751 0.95523 0.0
H435 H 0.41742 0.37319 0.98607 0.0
H436 H 0.39625 0.40979 0.96437 0.0
H437 H 0.38451 0.37811 0.92778 0.0
H438 H 0.33741 0.30557 0.99636 0.0
H439 H 0.37595 0.31852 0.00776 0.0
Li440 Li 0.63782 0.98839 0.01408 0.0
Li441 Li 0.63078 0.0012 0.02828 0.0
Li442 Li 0.6291 0.99794 0.99462 0.0
Li443 Li 0.64905 0.01036 0.00909 0.0
C444 C 0.61364 0.9762 0.02725 0.0
N445 N 0.59934 0.95776 0.05277 0.0
C446 C 0.619 0.97448 0.0435 0.0
C447 C 0.60102 0.96852 0.02397 0.0
C448 C 0.61162 0.96512 0.05624 0.0
C449 C 0.59394 0.95926 0.03704 0.0
C450 C 0.65286 0.00985 0.04745 0.0
C451 C 0.65919 0.0293 0.06301 0.0
N452 N 0.66569 0.02669 0.07583 0.0
C453 C 0.65957 0.00737 0.06081 0.0
C454 C 0.65263 0.0209 0.04858 0.0
C455 C 0.66601 0.016 0.07504 0.0
C456 C 0.65058 0.977 0.02688 0.0
N457 N 0.64007 0.97457 0.01766 0.0
C458 C 0.63385 0.95316 0.01538 0.0
C459 C 0.63172 0.96294 0.01187 0.0
C460 C 0.64452 0.95541 0.02525 0.0
C461 C 0.65296 0.96749 0.03098 0.0
H462 H 0.65708 0.98634 0.03116 0.0
H463 H 0.62337 0.96124 0.00474 0.0
C464 C 0.61448 0.00725 0.04589 0.0
N465 N 0.62243 0.00305 0.04937 0.0
C466 C 0.60726 0.00782 0.06049 0.0
C467 C 0.61666 0.99986 0.082 0.0
C468 C 0.62378 0.99955 0.06703 0.0
C469 C 0.60817 0.00389 0.07876 0.0
H470 H 0.61354 0.00986 0.03164 0.0
H471 H 0.63016 0.99624 0.06941 0.0
C472 C 0.64261 0.98896 0.97575 0.0
N473 N 0.63914 0.97229 0.94742 0.0
C474 C 0.65245 0.99093 0.96406 0.0
C475 C 0.63101 0.97852 0.97301 0.0
C476 C 0.65051 0.98239 0.94982 0.0
C477 C 0.62944 0.9702 0.95862 0.0
C478 C 0.63756 0.02299 0.99543 0.0
C479 C 0.64443 0.02428 0.97911 0.0
C480 C 0.63309 0.03107 0.9986 0.0
C481 C 0.6467 0.03365 0.9662 0.0
C482 C 0.63555 0.04032 0.98536 0.0
N483 N 0.64225 0.04141 0.96957 0.0
C484 C 0.60669 0.99185 0.97761 0.0
C485 C 0.62321 0.99913 0.95568 0.0
C486 C 0.59848 0.99051 0.9632 0.0
N487 N 0.61877 0.99609 0.97364 0.0
C488 C 0.61534 0.99803 0.94084 0.0
C489 C 0.60277 0.99369 0.9445 0.0
H490 H 0.60345 0.98956 0.99206 0.0
H491 H 0.63289 0.00252 0.95291 0.0
C492 C 0.67373 0.0202 0.00077 0.0
N493 N 0.66544 0.02367 0.00583 0.0
C494 C 0.68599 0.02905 0.99731 0.0
C495 C 0.68107 0.04497 0.00475 0.0
C496 C 0.66886 0.03576 0.00812 0.0
C497 C 0.68979 0.04165 0.99903 0.0
H498 H 0.67074 0.01049 0.99929 0.0
H499 H 0.66209 0.03827 0.01231 0.0
O500 O 0.62063 0.98532 0.01454 0.0
O501 O 0.64652 0.00143 0.03349 0.0
O502 O 0.64444 0.99728 0.98973 0.0
O503 O 0.63514 0.01387 0.00832 0.0
H504 H 0.62874 0.9803 0.04632 0.0
H505 H 0.59673 0.9697 0.01143 0.0
H506 H 0.61565 0.96371 0.06888 0.0
H507 H 0.58416 0.95325 0.03468 0.0
H508 H 0.6591 0.03788 0.06403 0.0
H509 H 0.65979 0.99883 0.06024 0.0
H510 H 0.64744 0.023 0.03851 0.0
H511 H 0.67124 0.01418 0.08546 0.0
H512 H 0.62713 0.94392 0.01086 0.0
H513 H 0.66134 0.96956 0.03847 0.0
H514 H 0.60074 0.01087 0.0574 0.0
H515 H 0.6177 0.99686 0.09594 0.0
H516 H 0.66148 0.99899 0.96598 0.0
H517 H 0.62327 0.97683 0.98188 0.0
H518 H 0.65804 0.9838 0.94068 0.0
H519 H 0.62051 0.96207 0.95636 0.0
H520 H 0.64801 0.01816 0.9764 0.0
H521 H 0.62776 0.03019 0.01118 0.0
H522 H 0.652 0.03475 0.95351 0.0
H523 H 0.63214 0.04664 0.98763 0.0
H524 H 0.58885 0.98695 0.96668 0.0
H525 H 0.61911 0.00075 0.92671 0.0
H526 H 0.69244 0.02606 0.9933 0.0
H527 H 0.68359 0.05457 0.00614 0.0
Li528 Li 0.65182 0.68519 0.34074 0.0
Li529 Li 0.67428 0.69452 0.34432 0.0
Li530 Li 0.66281 0.7028 0.36106 0.0
Li531 Li 0.66606 0.70548 0.3269 0.0
C532 C 0.66116 0.68544 0.38292 0.0
N533 N 0.66144 0.68508 0.42203 0.0
C534 C 0.67214 0.68878 0.39259 0.0
C535 C 0.65031 0.68186 0.39311 0.0
C536 C 0.67209 0.68854 0.41238 0.0
C537 C 0.65065 0.68176 0.41288 0.0
C538 C 0.66891 0.68321 0.31071 0.0
C539 C 0.68498 0.68319 0.29187 0.0
N540 N 0.67858 0.67064 0.29174 0.0
C541 C 0.66245 0.6703 0.31029 0.0
C542 C 0.68023 0.68971 0.30132 0.0
C543 C 0.66751 0.66412 0.30065 0.0
C544 C 0.63073 0.66795 0.32019 0.0
N545 N 0.63717 0.6698 0.33654 0.0
C546 C 0.6243 0.64867 0.34536 0.0
C547 C 0.63411 0.66049 0.34916 0.0
C548 C 0.61756 0.64648 0.32851 0.0
C549 C 0.62071 0.65633 0.316 0.0
H550 H 0.63361 0.6754 0.31012 0.0
H551 H 0.63957 0.66215 0.36185 0.0
C552 C 0.69901 0.69983 0.35 0.0
N553 N 0.68719 0.69074 0.34678 0.0
C554 C 0.70823 0.69688 0.35347 0.0
C555 C 0.69298 0.6753 0.34982 0.0
C556 C 0.68405 0.67866 0.34672 0.0
C557 C 0.70525 0.68444 0.3536 0.0
H558 H 0.7012 0.70935 0.3505 0.0
H559 H 0.67452 0.6716 0.34464 0.0
C560 C 0.63872 0.69632 0.33656 0.0
N561 N 0.61434 0.68709 0.32631 0.0
C562 C 0.63579 0.69889 0.31865 0.0
C563 C 0.62926 0.68913 0.3493 0.0
C564 C 0.6234 0.69413 0.31373 0.0
C565 C 0.61699 0.68452 0.34383 0.0
C566 C 0.68699 0.72349 0.34162 0.0
C567 C 0.68686 0.73362 0.34973 0.0
C568 C 0.69543 0.72538 0.32723 0.0
C569 C 0.69512 0.74548 0.34316 0.0
C570 C 0.70352 0.73739 0.32104 0.0
N571 N 0.7032 0.74711 0.32905 0.0
C572 C 0.67291 0.71697 0.39396 0.0
C573 C 0.65214 0.7115 0.38802 0.0
C574 C 0.67343 0.72409 0.40953 0.0
N575 N 0.66243 0.71099 0.38348 0.0
C576 C 0.65222 0.71845 0.40355 0.0
C577 C 0.66304 0.72504 0.41437 0.0
H578 H 0.681 0.71651 0.38985 0.0
H579 H 0.64396 0.70673 0.37936 0.0
C580 C 0.66973 0.71318 0.28848 0.0
N581 N 0.66863 0.71638 0.30645 0.0
C582 C 0.67142 0.72111 0.27342 0.0
C583 C 0.67089 0.73551 0.29569 0.0
C584 C 0.66897 0.72719 0.31024 0.0
C585 C 0.67211 0.73253 0.2769 0.0
H586 H 0.66915 0.70439 0.28582 0.0
H587 H 0.66774 0.72935 0.32462 0.0
O588 O 0.66109 0.68594 0.36358 0.0
O589 O 0.66419 0.68943 0.32025 0.0
O590 O 0.65078 0.70082 0.34159 0.0
O591 O 0.67887 0.71179 0.34768 0.0
H592 H 0.68064 0.69164 0.38492 0.0
H593 H 0.64175 0.67931 0.38581 0.0
H594 H 0.68053 0.69115 0.42007 0.0
H595 H 0.64234 0.67908 0.42096 0.0
H596 H 0.69376 0.68811 0.28463 0.0
H597 H 0.65368 0.6651 0.31747 0.0
H598 H 0.68531 0.69969 0.3014 0.0
H599 H 0.66264 0.65414 0.3003 0.0
H600 H 0.62216 0.64125 0.35527 0.0
H601 H 0.61585 0.65492 0.3027 0.0
H602 H 0.71748 0.70423 0.35669 0.0
H603 H 0.69024 0.66561 0.34953 0.0
H604 H 0.64298 0.70443 0.30861 0.0
H605 H 0.63137 0.68697 0.36317 0.0
H606 H 0.621 0.69601 0.2999 0.0
H607 H 0.60958 0.67886 0.35349 0.0
H608 H 0.68033 0.73233 0.36078 0.0
H609 H 0.69568 0.71766 0.32086 0.0
H610 H 0.69506 0.7534 0.34922 0.0
H611 H 0.71006 0.73898 0.30984 0.0
H612 H 0.68202 0.72914 0.41726 0.0
H613 H 0.64394 0.71877 0.4069 0.0
H614 H 0.67199 0.71822 0.25918 0.0
H615 H 0.6715 0.74422 0.29922 0.0
Li616 Li 0.29193 0.96658 0.32898 0.0
Li617 Li 0.29362 0.96371 0.36369 0.0
Li618 Li 0.30097 0.98452 0.34966 0.0
Li619 Li 0.31169 0.97352 0.34348 0.0
C620 C 0.27569 0.97378 0.3445 0.0
N621 N 0.25934 0.98112 0.33243 0.0
C622 C 0.26539 0.97119 0.3555 0.0
C623 C 0.27768 0.98009 0.32735 0.0
C624 C 0.25723 0.97498 0.34915 0.0
C625 C 0.26931 0.98373 0.3215 0.0
C626 C 0.30338 0.95013 0.33638 0.0
C627 C 0.31464 0.93968 0.34378 0.0
N628 N 0.31602 0.93841 0.32495 0.0
C629 C 0.30482 0.94865 0.31711 0.0
C630 C 0.30824 0.94554 0.34985 0.0
C631 C 0.31127 0.94272 0.31161 0.0
C632 C 0.28559 0.9626 0.28998 0.0
N633 N 0.28164 0.95872 0.30793 0.0
C634 C 0.26259 0.94208 0.2965 0.0
C635 C 0.27037 0.94876 0.31146 0.0
C636 C 0.26647 0.9457 0.27774 0.0
C637 C 0.2781 0.95619 0.27457 0.0
H638 H 0.29463 0.97053 0.28766 0.0
H639 H 0.26755 0.94588 0.32593 0.0
C640 C 0.28652 0.95709 0.40213 0.0
N641 N 0.28538 0.95287 0.3841 0.0
C642 C 0.28072 0.94881 0.41701 0.0
C643 C 0.27221 0.9321 0.39429 0.0
C644 C 0.27835 0.94068 0.37992 0.0
C645 C 0.27344 0.93609 0.41321 0.0
H646 H 0.29211 0.96687 0.405 0.0
H647 H 0.27753 0.93764 0.36538 0.0
C648 C 0.31724 0.99351 0.3196 0.0
N649 N 0.33752 0.01576 0.30941 0.0
C650 C 0.3265 0.00033 0.33284 0.0
C651 C 0.31829 0.99802 0.30118 0.0
C652 C 0.33668 0.01155 0.32741 0.0
C653 C 0.32862 0.00929 0.29629 0.0
C654 C 0.31723 0.98113 0.3828 0.0
C655 C 0.32597 0.99314 0.38822 0.0
C656 C 0.31662 0.9711 0.39251 0.0
C657 C 0.33405 0.99491 0.4031 0.0
C658 C 0.32485 0.97325 0.40734 0.0
N659 N 0.33333 0.98501 0.41228 0.0
C660 C 0.30404 0.00397 0.37293 0.0
C661 C 0.30326 0.00772 0.34018 0.0
C662 C 0.30644 0.01584 0.37736 0.0
N663 N 0.3027 0.00024 0.35459 0.0
C664 C 0.30567 0.01968 0.34396 0.0
C665 C 0.30747 0.02394 0.36274 0.0
H666 H 0.30355 0.99782 0.38409 0.0
H667 H 0.30209 0.0045 0.32571 0.0
C668 C 0.33068 0.97616 0.31944 0.0
N669 N 0.3276 0.97523 0.33809 0.0
C670 C 0.34211 0.97777 0.31394 0.0
C671 C 0.34698 0.97717 0.34688 0.0
C672 C 0.33544 0.97555 0.35173 0.0
C673 C 0.3505 0.97842 0.32776 0.0
H674 H 0.32424 0.97565 0.30879 0.0
H675 H 0.33288 0.97461 0.3664 0.0
O676 O 0.28377 0.97015 0.35058 0.0
O677 O 0.29741 0.95622 0.34203 0.0
O678 O 0.30712 0.98251 0.32456 0.0
O679 O 0.30906 0.97927 0.36853 0.0
H680 H 0.26373 0.96631 0.36882 0.0
H681 H 0.28561 0.98219 0.31866 0.0
H682 H 0.24922 0.97305 0.35753 0.0
H683 H 0.27074 0.98863 0.30827 0.0
H684 H 0.31852 0.93615 0.35404 0.0
H685 H 0.30114 0.95219 0.30651 0.0
H686 H 0.30715 0.94657 0.36482 0.0
H687 H 0.31254 0.94159 0.29674 0.0
H688 H 0.2538 0.93395 0.2996 0.0
H689 H 0.28141 0.95936 0.26035 0.0
H690 H 0.28211 0.95234 0.43134 0.0
H691 H 0.2665 0.92247 0.39055 0.0
H692 H 0.32587 0.99699 0.34711 0.0
H693 H 0.31119 0.99288 0.29077 0.0
H694 H 0.34391 0.0169 0.33753 0.0
H695 H 0.32954 0.01289 0.28209 0.0
H696 H 0.32648 0.00104 0.38105 0.0
H697 H 0.31 0.96175 0.38847 0.0
H698 H 0.34087 0.00415 0.4074 0.0
H699 H 0.32452 0.96556 0.41489 0.0
H700 H 0.30792 0.01879 0.39202 0.0
H701 H 0.30624 0.02557 0.33229 0.0
H702 H 0.34433 0.97845 0.299 0.0
H703 H 0.35317 0.97769 0.35802 0.0
Li704 Li 0.03549 0.32877 0.32321 0.0
Li705 Li 0.03802 0.33316 0.35701 0.0
Li706 Li 0.01751 0.32161 0.3428 0.0
Li707 Li 0.03066 0.3437 0.33733 0.0
C708 C 0.03427 0.30916 0.33827 0.0
N709 N 0.04325 0.29455 0.32426 0.0
C710 C 0.04548 0.31067 0.3449 0.0
C711 C 0.02762 0.3002 0.32454 0.0
C712 C 0.04985 0.30319 0.33765 0.0
C713 C 0.03233 0.29292 0.31761 0.0
C714 C 0.05407 0.35632 0.32982 0.0
C715 C 0.06446 0.37828 0.33534 0.0
N716 N 0.06758 0.38029 0.31669 0.0
C717 C 0.05739 0.35859 0.31071 0.0
C718 C 0.05766 0.36624 0.34226 0.0
C719 C 0.06422 0.37078 0.30436 0.0
C720 C 0.03631 0.32054 0.28582 0.0
N721 N 0.0427 0.32523 0.30217 0.0
C722 C 0.0602 0.32483 0.28955 0.0
C723 C 0.05444 0.32746 0.30426 0.0
C724 C 0.05383 0.31992 0.27249 0.0
C725 C 0.04172 0.31775 0.27073 0.0
H726 H 0.02705 0.319 0.28446 0.0
H727 H 0.0593 0.33125 0.31743 0.0
C728 C 0.04303 0.32389 0.38984 0.0
N729 N 0.04751 0.33404 0.37859 0.0
C730 C 0.04981 0.32376 0.40544 0.0
C731 C 0.06561 0.3446 0.39773 0.0
C732 C 0.05855 0.3443 0.38219 0.0
C733 C 0.06131 0.33419 0.40953 0.0
H734 H 0.03428 0.31581 0.38648 0.0
H735 H 0.06192 0.3522 0.37292 0.0
C736 C 0.00944 0.32569 0.3111 0.0
N737 N 0.98543 0.31514 0.29809 0.0
C738 C 0.00304 0.33216 0.31235 0.0
C739 C 0.00364 0.31386 0.30317 0.0
C740 C 0.99091 0.32667 0.30569 0.0
C741 C 0.99149 0.30868 0.29671 0.0
C742 C 0.02361 0.33563 0.38066 0.0
C743 C 0.01584 0.32499 0.39098 0.0
C744 C 0.03189 0.34643 0.39023 0.0
C745 C 0.01652 0.32532 0.41075 0.0
C746 C 0.03231 0.34638 0.41 0.0
N747 N 0.02467 0.33592 0.41977 0.0
C748 C 0.99718 0.297 0.34613 0.0
C749 C 0.99274 0.31312 0.35106 0.0
C750 C 0.98484 0.28813 0.34933 0.0
N751 N 0.00083 0.3092 0.34699 0.0
C752 C 0.98033 0.30459 0.35433 0.0
C753 C 0.97625 0.2919 0.35358 0.0
H754 H 0.00385 0.29414 0.34317 0.0
H755 H 0.99595 0.3229 0.35178 0.0
C756 C 0.03169 0.3626 0.31463 0.0
N757 N 0.0303 0.35851 0.33278 0.0
C758 C 0.03052 0.37283 0.31023 0.0
C759 C 0.02672 0.3746 0.34335 0.0
C760 C 0.02793 0.36428 0.34711 0.0
C761 C 0.02783 0.37887 0.32465 0.0
H762 H 0.03343 0.35772 0.3035 0.0
H763 H 0.02665 0.3607 0.36135 0.0
O764 O 0.02997 0.3166 0.34487 0.0
O765 O 0.04717 0.34446 0.33625 0.0
O766 O 0.02124 0.3308 0.31793 0.0
O767 O 0.02331 0.3354 0.36129 0.0
H768 H 0.05085 0.31766 0.35532 0.0
H769 H 0.01904 0.29903 0.31902 0.0
H770 H 0.05854 0.30429 0.34259 0.0
H771 H 0.02732 0.28602 0.30688 0.0
H772 H 0.06721 0.38604 0.34478 0.0
H773 H 0.05461 0.35105 0.30084 0.0
H774 H 0.05501 0.36465 0.35703 0.0
H775 H 0.06681 0.37267 0.2896 0.0
H776 H 0.06952 0.32655 0.29155 0.0
H777 H 0.03656 0.31418 0.2577 0.0
H778 H 0.04621 0.31545 0.4139 0.0
H779 H 0.07434 0.3529 0.40046 0.0
H780 H 0.0073 0.34126 0.31863 0.0
H781 H 0.00837 0.30863 0.30235 0.0
H782 H 0.98583 0.33155 0.30664 0.0
H783 H 0.98686 0.2995 0.29069 0.0
H784 H 0.00946 0.31651 0.38383 0.0
H785 H 0.0381 0.3547 0.38246 0.0
H786 H 0.0106 0.31714 0.41891 0.0
H787 H 0.03874 0.35465 0.41758 0.0
H788 H 0.98211 0.27844 0.34892 0.0
H789 H 0.97401 0.3079 0.3574 0.0
H790 H 0.03155 0.3759 0.29565 0.0
H791 H 0.0245 0.37889 0.35483 0.0
Li792 Li 0.67799 0.98019 0.34349 0.0
Li793 Li 0.66441 0.95965 0.35649 0.0
Li794 Li 0.66987 0.96193 0.32233 0.0
Li795 Li 0.65526 0.96786 0.33518 0.0
C796 C 0.69303 0.96933 0.3414 0.0
N797 N 0.71733 0.97607 0.33436 0.0
C798 C 0.69965 0.96656 0.35455 0.0
C799 C 0.69873 0.97542 0.32461 0.0
C800 C 0.71194 0.97008 0.35075 0.0
C801 C 0.71103 0.97878 0.32132 0.0
C802 C 0.66119 0.97433 0.379 0.0
C803 C 0.64736 0.9665 0.40569 0.0
N804 N 0.65714 0.97258 0.41761 0.0
C805 C 0.6711 0.98057 0.39148 0.0
C806 C 0.64922 0.9673 0.38611 0.0
C807 C 0.66886 0.97955 0.41097 0.0
C808 C 0.69043 0.00616 0.34221 0.0
N809 N 0.69131 0.99635 0.34844 0.0
C810 C 0.71101 0.00977 0.36227 0.0
C811 C 0.70127 0.99792 0.35847 0.0
C812 C 0.71039 0.02008 0.35597 0.0
C813 C 0.69991 0.0182 0.34586 0.0
H814 H 0.68231 0.00462 0.33446 0.0
H815 H 0.70159 0.99001 0.36384 0.0
C816 C 0.65108 0.93895 0.38076 0.0
N817 N 0.66187 0.94972 0.37832 0.0
C818 C 0.64933 0.93161 0.39666 0.0
C819 C 0.6699 0.94652 0.40715 0.0
C820 C 0.67122 0.95359 0.3911 0.0
C821 C 0.65884 0.93535 0.41005 0.0
H822 H 0.64386 0.93598 0.37029 0.0
H823 H 0.6797 0.96221 0.3888 0.0
C824 C 0.67273 0.98335 0.30127 0.0
N825 N 0.67863 0.99525 0.26661 0.0
C826 C 0.6635 0.98071 0.28788 0.0
C827 C 0.68494 0.99222 0.29713 0.0
C828 C 0.66667 0.98676 0.27041 0.0
C829 C 0.68775 0.99809 0.27951 0.0
C830 C 0.64183 0.943 0.32919 0.0
C831 C 0.63954 0.93681 0.31187 0.0
C832 C 0.63195 0.9408 0.34095 0.0
C833 C 0.62736 0.92861 0.30652 0.0
C834 C 0.61991 0.93254 0.33508 0.0
N835 N 0.61788 0.92666 0.31813 0.0
C836 C 0.67962 0.94838 0.30492 0.0
C837 C 0.66985 0.95542 0.28362 0.0
C838 C 0.68254 0.94289 0.29011 0.0
N839 N 0.67355 0.95464 0.30142 0.0
C840 C 0.67248 0.94999 0.2684 0.0
C841 C 0.67896 0.94366 0.27152 0.0
H842 H 0.68221 0.94763 0.31926 0.0
H843 H 0.66463 0.96002 0.28126 0.0
C844 C 0.63913 0.97722 0.34042 0.0
N845 N 0.64117 0.96943 0.32959 0.0
C846 C 0.62911 0.97891 0.33662 0.0
C847 C 0.62336 0.96436 0.31083 0.0
C848 C 0.63359 0.96313 0.3149 0.0
C849 C 0.62104 0.97243 0.32162 0.0
H850 H 0.6454 0.98224 0.35187 0.0
H851 H 0.6355 0.95717 0.30625 0.0
O852 O 0.68101 0.96603 0.345 0.0
O853 O 0.66324 0.97496 0.35991 0.0
O854 O 0.66974 0.97763 0.31859 0.0
O855 O 0.6537 0.9511 0.3346 0.0
H856 H 0.69536 0.96177 0.36757 0.0
H857 H 0.69366 0.97737 0.31413 0.0
H858 H 0.71719 0.96804 0.36084 0.0
H859 H 0.71554 0.98349 0.30836 0.0
H860 H 0.63815 0.96104 0.41141 0.0
H861 H 0.68042 0.98603 0.38618 0.0
H862 H 0.64146 0.96248 0.37662 0.0
H863 H 0.67644 0.98426 0.42081 0.0
H864 H 0.7188 0.01084 0.37049 0.0
H865 H 0.69909 0.02593 0.3408 0.0
H866 H 0.64073 0.92299 0.39825 0.0
H867 H 0.67741 0.9498 0.41725 0.0
H868 H 0.654 0.97395 0.29083 0.0
H869 H 0.6922 0.99467 0.30743 0.0
H870 H 0.65962 0.98471 0.25988 0.0
H871 H 0.69717 0.00494 0.27611 0.0
H872 H 0.64707 0.93833 0.30265 0.0
H873 H 0.63355 0.94556 0.35434 0.0
H874 H 0.62545 0.92378 0.29313 0.0
H875 H 0.61217 0.93082 0.34398 0.0
H876 H 0.6876 0.93816 0.2932 0.0
H877 H 0.66925 0.95055 0.2544 0.0
H878 H 0.62787 0.9854 0.34514 0.0
H879 H 0.61733 0.95899 0.29933 0.0
Li880 Li 0.03623 0.70605 0.36634 0.0
Li881 Li 0.01554 0.69812 0.3552 0.0
Li882 Li 0.02709 0.68821 0.34573 0.0
Li883 Li 0.03245 0.70819 0.3333 0.0
C884 C 0.02469 0.68279 0.38375 0.0
N885 N 0.03067 0.66912 0.40781 0.0
C886 C 0.01597 0.67453 0.39659 0.0
C887 C 0.03647 0.6841 0.38316 0.0
C888 C 0.01917 0.66771 0.40864 0.0
C889 C 0.0393 0.67711 0.39543 0.0
C890 C 0.02694 0.72182 0.36976 0.0
C891 C 0.0278 0.74025 0.38187 0.0
N892 N 0.023 0.73439 0.39859 0.0
C893 C 0.02202 0.71597 0.38706 0.0
C894 C 0.02986 0.73406 0.36712 0.0
C895 C 0.0201 0.72249 0.40145 0.0
C896 C 0.05779 0.72536 0.38192 0.0
N897 N 0.0475 0.71458 0.38652 0.0
C898 C 0.05394 0.71675 0.41883 0.0
C899 C 0.04531 0.71035 0.40464 0.0
C900 C 0.06476 0.72794 0.4146 0.0
C901 C 0.06651 0.73228 0.3958 0.0
H902 H 0.05917 0.72862 0.36744 0.0
H903 H 0.03689 0.70198 0.40817 0.0
C904 C 0.99178 0.68415 0.37019 0.0
N905 N 0.99948 0.69507 0.36158 0.0
C906 C 0.97981 0.68121 0.37507 0.0
C907 C 0.98381 0.70068 0.36175 0.0
C908 C 0.9958 0.70336 0.35746 0.0
C909 C 0.9757 0.6895 0.37071 0.0
H910 H 0.99494 0.67771 0.37316 0.0
H911 H 0.00215 0.71204 0.3508 0.0
C912 C 0.05052 0.70187 0.32958 0.0
N913 N 0.06414 0.69981 0.30048 0.0
C914 C 0.04465 0.69549 0.31303 0.0
C915 C 0.06331 0.70722 0.33132 0.0
C916 C 0.0517 0.69454 0.29849 0.0
C917 C 0.07003 0.70606 0.31645 0.0
C918 C 0.0088 0.69359 0.31757 0.0
C919 C 0.00025 0.68352 0.30689 0.0
C920 C 0.00911 0.70488 0.31613 0.0
C921 C 0.99212 0.68491 0.29493 0.0
C922 C 0.00083 0.70591 0.30402 0.0
N923 N 0.99258 0.69598 0.29376 0.0
C924 C 0.0145 0.66338 0.33453 0.0
C925 C 0.03559 0.67095 0.34178 0.0
C926 C 0.01291 0.65182 0.32993 0.0
N927 N 0.02572 0.67266 0.34018 0.0
C928 C 0.03441 0.65953 0.33744 0.0
C929 C 0.02297 0.6498 0.3313 0.0
H930 H 0.00679 0.66499 0.33355 0.0
H931 H 0.04443 0.67848 0.34629 0.0
C932 C 0.0488 0.73042 0.31542 0.0
N933 N 0.03938 0.7188 0.312 0.0
C934 C 0.05494 0.73843 0.3004 0.0
C935 C 0.04137 0.72246 0.27863 0.0
C936 C 0.03562 0.7147 0.29405 0.0
C937 C 0.05129 0.73448 0.28165 0.0
H938 H 0.05171 0.73334 0.32985 0.0
H939 H 0.02829 0.70534 0.29164 0.0
O940 O 0.0216 0.6894 0.37172 0.0
O941 O 0.02896 0.7157 0.3554 0.0
O942 O 0.04388 0.70306 0.34399 0.0
O943 O 0.01673 0.69229 0.32944 0.0
H944 H 0.00682 0.6734 0.39726 0.0
H945 H 0.04339 0.69051 0.37347 0.0
H946 H 0.0125 0.66128 0.41864 0.0
H947 H 0.04838 0.67805 0.39513 0.0
H948 H 0.03001 0.74973 0.38003 0.0
H949 H 0.01969 0.70651 0.38939 0.0
H950 H 0.03368 0.73871 0.35381 0.0
H951 H 0.01631 0.71807 0.41491 0.0
H952 H 0.05215 0.71282 0.43292 0.0
H953 H 0.07445 0.74098 0.39178 0.0
H954 H 0.97375 0.67246 0.38186 0.0
H955 H 0.98094 0.70731 0.35831 0.0
H956 H 0.03476 0.6913 0.3114 0.0
H957 H 0.06799 0.71222 0.34403 0.0
H958 H 0.04727 0.68963 0.2856 0.0
H959 H 0.07994 0.71015 0.31761 0.0
H960 H 0.99989 0.67471 0.30782 0.0
H961 H 0.01567 0.7128 0.32425 0.0
H962 H 0.98545 0.67718 0.28658 0.0
H963 H 0.00097 0.71459 0.30279 0.0
H964 H 0.00392 0.64453 0.32541 0.0
H965 H 0.04243 0.6584 0.33846 0.0
H966 H 0.06267 0.74751 0.30347 0.0
H967 H 0.03809 0.71902 0.2645 0.0
Li968 Li 0.30068 0.33927 0.35951 0.0
Li969 Li 0.30615 0.32489 0.34568 0.0
Li970 Li 0.31784 0.3472 0.33857 0.0
Li971 Li 0.29727 0.33479 0.32548 0.0
C972 C 0.31744 0.34025 0.38206 0.0
N973 N 0.31924 0.34324 0.42091 0.0
C974 C 0.31202 0.32994 0.39394 0.0
C975 C 0.32388 0.35208 0.38991 0.0
C976 C 0.31301 0.33165 0.41355 0.0
C977 C 0.32466 0.3534 0.40959 0.0
C978 C 0.28069 0.31183 0.34051 0.0
C979 C 0.27415 0.29515 0.3181 0.0
N980 N 0.26292 0.28915 0.32668 0.0
C981 C 0.26909 0.3055 0.3491 0.0
C982 C 0.28326 0.30663 0.32487 0.0
C983 C 0.26023 0.29404 0.3419 0.0
C984 C 0.29517 0.35358 0.3846 0.0
N985 N 0.29354 0.34216 0.38133 0.0
C986 C 0.28028 0.33405 0.40824 0.0
C987 C 0.28629 0.33245 0.39277 0.0
C988 C 0.28165 0.34573 0.41181 0.0
C989 C 0.28931 0.35559 0.39985 0.0
H990 H 0.30083 0.3611 0.37519 0.0
H991 H 0.28503 0.32342 0.38967 0.0
C992 C 0.31847 0.31152 0.34432 0.0
N993 N 0.30778 0.31079 0.35014 0.0
C994 C 0.32079 0.30192 0.34813 0.0
C995 C 0.30107 0.29102 0.36408 0.0
C996 C 0.2991 0.30081 0.35982 0.0
C997 C 0.31208 0.29155 0.3583 0.0
H998 H 0.32536 0.31974 0.3372 0.0
H999 H 0.29078 0.30057 0.36465 0.0
C1000 C 0.30919 0.3631 0.3341 0.0
N1001 N 0.31959 0.38784 0.32519 0.0
C1002 C 0.30591 0.36669 0.31733 0.0
C1003 C 0.31769 0.37211 0.3464 0.0
C1004 C 0.31129 0.37924 0.31306 0.0
C1005 C 0.32286 0.38456 0.34162 0.0
C1006 C 0.31829 0.33736 0.3038 0.0
C1007 C 0.31704 0.34606 0.29306 0.0
C1008 C 0.32624 0.33327 0.29761 0.0
C1009 C 0.32379 0.35055 0.27633 0.0
C1010 C 0.33284 0.33798 0.28079 0.0
N1011 N 0.3315 0.34646 0.27059 0.0
C1012 C 0.3434 0.35965 0.34374 0.0
C1013 C 0.33718 0.36897 0.32025 0.0
C1014 C 0.3558 0.36825 0.34047 0.0
N1015 N 0.33438 0.36014 0.33367 0.0
C1016 C 0.34945 0.37786 0.31672 0.0
C1017 C 0.35893 0.37749 0.3268 0.0
H1018 H 0.34095 0.35244 0.35413 0.0
H1019 H 0.32995 0.36906 0.31205 0.0
C1020 C 0.27742 0.3355 0.30937 0.0
N1021 N 0.28607 0.33228 0.30551 0.0
C1022 C 0.26911 0.33458 0.2954 0.0
C1023 C 0.2786 0.32676 0.27382 0.0
C1024 C 0.28663 0.32769 0.28832 0.0
C1025 C 0.26978 0.33035 0.27727 0.0
H1026 H 0.27715 0.33903 0.32325 0.0
H1027 H 0.29341 0.32491 0.28576 0.0
O1028 O 0.31629 0.33879 0.36284 0.0
O1029 O 0.28941 0.32308 0.34741 0.0
O1030 O 0.30398 0.35084 0.33851 0.0
O1031 O 0.31188 0.33298 0.32039 0.0
H1032 H 0.30696 0.32073 0.38807 0.0
H1033 H 0.32821 0.36015 0.38089 0.0
H1034 H 0.30878 0.32375 0.42293 0.0
H1035 H 0.32957 0.3625 0.41588 0.0
H1036 H 0.27601 0.29102 0.30601 0.0
H1037 H 0.26696 0.30942 0.3612 0.0
H1038 H 0.29218 0.31136 0.31803 0.0
H1039 H 0.25121 0.28904 0.34842 0.0
H1040 H 0.27433 0.32616 0.41698 0.0
H1041 H 0.29071 0.36476 0.40219 0.0
H1042 H 0.3295 0.30283 0.34378 0.0
H1043 H 0.29414 0.28318 0.37197 0.0
H1044 H 0.2993 0.35987 0.30768 0.0
H1045 H 0.3204 0.36951 0.35936 0.0
H1046 H 0.30886 0.38215 0.30011 0.0
H1047 H 0.32952 0.39162 0.35095 0.0
H1048 H 0.311 0.34938 0.29768 0.0
H1049 H 0.32731 0.32651 0.30565 0.0
H1050 H 0.32293 0.35731 0.26793 0.0
H1051 H 0.33904 0.3349 0.27585 0.0
H1052 H 0.36288 0.36767 0.34848 0.0
H1053 H 0.35153 0.38472 0.30582 0.0
H1054 H 0.26249 0.3375 0.29855 0.0
H1055 H 0.27929 0.32332 0.26007 0.0
Li1056 Li 0.32244 0.0194 0.67401 0.0
Li1057 Li 0.34409 0.03167 0.68201 0.0
Li1058 Li 0.32856 0.03674 0.69367 0.0
Li1059 Li 0.33488 0.04037 0.66076 0.0
C1060 C 0.32337 0.01073 0.70766 0.0
N1061 N 0.30941 0.98733 0.72281 0.0
C1062 C 0.32853 0.00317 0.71014 0.0
C1063 C 0.31119 0.00647 0.7133 0.0
C1064 C 0.32131 0.99135 0.71773 0.0
C1065 C 0.30426 0.99459 0.7208 0.0
C1066 C 0.34608 0.02847 0.64375 0.0
C1067 C 0.36613 0.04273 0.63089 0.0
N1068 N 0.36473 0.0341 0.61789 0.0
C1069 C 0.34486 0.01974 0.63029 0.0
C1070 C 0.35681 0.04006 0.6441 0.0
C1071 C 0.35439 0.02277 0.61732 0.0
C1072 C 0.29797 0.99991 0.66664 0.0
N1073 N 0.30997 0.00292 0.66856 0.0
C1074 C 0.30471 0.98199 0.66329 0.0
C1075 C 0.31348 0.99429 0.66687 0.0
C1076 C 0.29223 0.97857 0.66122 0.0
C1077 C 0.2889 0.98771 0.6629 0.0
H1078 H 0.29545 0.00697 0.66797 0.0
H1079 H 0.32312 0.997 0.66834 0.0
C1080 C 0.36958 0.03994 0.69243 0.0
N1081 N 0.35862 0.0305 0.6861 0.0
C1082 C 0.37959 0.03811 0.69543 0.0
C1083 C 0.36711 0.01714 0.68436 0.0
C1084 C 0.35736 0.01936 0.68161 0.0
C1085 C 0.37838 0.02653 0.69164 0.0
H1086 H 0.37064 0.04889 0.69515 0.0
H1087 H 0.34866 0.01213 0.67608 0.0
C1088 C 0.30976 0.03631 0.67487 0.0
N1089 N 0.29386 0.04493 0.68364 0.0
C1090 C 0.31105 0.0469 0.66603 0.0
C1091 C 0.3002 0.02998 0.68788 0.0
C1092 C 0.30297 0.05114 0.67071 0.0
C1093 C 0.29231 0.03452 0.69222 0.0
C1094 C 0.35314 0.05567 0.69702 0.0
C1095 C 0.35272 0.0509 0.71511 0.0
C1096 C 0.36149 0.06809 0.69329 0.0
C1097 C 0.36068 0.05867 0.72916 0.0
C1098 C 0.36932 0.07555 0.70772 0.0
N1099 N 0.36875 0.07073 0.7252 0.0
C1100 C 0.32193 0.0385 0.73165 0.0
C1101 C 0.32462 0.05466 0.71111 0.0
C1102 C 0.31949 0.04409 0.74685 0.0
N1103 N 0.32439 0.04383 0.71421 0.0
C1104 C 0.32195 0.06042 0.72579 0.0
C1105 C 0.31944 0.05516 0.74392 0.0
H1106 H 0.32212 0.03004 0.73383 0.0
H1107 H 0.32701 0.0589 0.69726 0.0
C1108 C 0.33619 0.04683 0.62177 0.0
N1109 N 0.33818 0.05111 0.63987 0.0
C1110 C 0.33863 0.05494 0.60664 0.0
C1111 C 0.34494 0.07162 0.62912 0.0
C1112 C 0.34254 0.06324 0.64377 0.0
C1113 C 0.34298 0.06749 0.61028 0.0
H1114 H 0.33266 0.03712 0.6191 0.0
H1115 H 0.34395 0.06634 0.65833 0.0
O1116 O 0.3302 0.02223 0.69982 0.0
O1117 O 0.33685 0.02557 0.65661 0.0
O1118 O 0.31769 0.0321 0.67059 0.0
O1119 O 0.34526 0.04833 0.68311 0.0
H1120 H 0.33801 0.00637 0.70631 0.0
H1121 H 0.30711 0.01224 0.7118 0.0
H1122 H 0.32518 0.98538 0.71959 0.0
H1123 H 0.29478 0.99115 0.72503 0.0
H1124 H 0.37447 0.05165 0.63099 0.0
H1125 H 0.33663 0.01072 0.62991 0.0
H1126 H 0.35796 0.04692 0.65446 0.0
H1127 H 0.35357 0.0161 0.60682 0.0
H1128 H 0.30771 0.97527 0.66179 0.0
H1129 H 0.27937 0.98544 0.66147 0.0
H1130 H 0.3882 0.04568 0.70068 0.0
H1131 H 0.36572 0.00804 0.68132 0.0
H1132 H 0.31822 0.05182 0.65568 0.0
H1133 H 0.29889 0.02167 0.69463 0.0
H1134 H 0.30393 0.05937 0.66407 0.0
H1135 H 0.28495 0.02976 0.70239 0.0
H1136 H 0.34637 0.04131 0.7183 0.0
H1137 H 0.36195 0.07193 0.67938 0.0
H1138 H 0.36046 0.0551 0.74321 0.0
H1139 H 0.37584 0.08518 0.70501 0.0
H1140 H 0.31766 0.03984 0.76073 0.0
H1141 H 0.32218 0.06907 0.72314 0.0
H1142 H 0.3369 0.0514 0.59229 0.0
H1143 H 0.34835 0.08125 0.63247 0.0
Li1144 Li 0.97877 0.30257 0.67273 0.0
Li1145 Li 0.96692 0.31274 0.67947 0.0
Li1146 Li 0.96092 0.29243 0.69278 0.0
Li1147 Li 0.9582 0.295 0.6592 0.0
C1148 C 0.98781 0.3142 0.70448 0.0
N1149 N 0.0121 0.32628 0.71644 0.0
C1150 C 0.99506 0.327 0.70252 0.0
C1151 C 0.9929 0.30755 0.71258 0.0
C1152 C 0.00733 0.33294 0.70866 0.0
C1153 C 0.0052 0.31382 0.71851 0.0
C1154 C 0.97312 0.31183 0.63567 0.0
C1155 C 0.96452 0.31498 0.60704 0.0
N1156 N 0.9717 0.31188 0.59661 0.0
C1157 C 0.98041 0.30867 0.62467 0.0
C1158 C 0.96512 0.31503 0.62681 0.0
C1159 C 0.97957 0.30877 0.60494 0.0
C1160 C 0.99788 0.29656 0.66978 0.0
N1161 N 0.99507 0.30569 0.66806 0.0
C1162 C 0.01585 0.32019 0.65937 0.0
C1163 C 0.00374 0.31734 0.66299 0.0
C1164 C 0.01905 0.31095 0.66102 0.0
C1165 C 0.0099 0.29902 0.6664 0.0
H1166 H 0.99079 0.28735 0.67361 0.0
H1167 H 0.00121 0.32441 0.66169 0.0
C1168 C 0.96703 0.33078 0.70314 0.0
N1169 N 0.96818 0.32823 0.6848 0.0
C1170 C 0.96779 0.34196 0.70791 0.0
C1171 C 0.97112 0.34778 0.67485 0.0
C1172 C 0.97028 0.33646 0.67072 0.0
C1173 C 0.96984 0.35063 0.69367 0.0
H1174 H 0.96554 0.32411 0.71407 0.0
H1175 H 0.97132 0.33426 0.6563 0.0
C1176 C 0.96056 0.27345 0.67626 0.0
N1177 N 0.95053 0.24937 0.68871 0.0
C1178 C 0.9495 0.26415 0.66852 0.0
C1179 C 0.96653 0.27048 0.6903 0.0
C1180 C 0.94458 0.25204 0.675 0.0
C1181 C 0.9613 0.25826 0.69643 0.0
C1182 C 0.94364 0.30306 0.68801 0.0
C1183 C 0.94059 0.3018 0.70725 0.0
C1184 C 0.94046 0.31008 0.67637 0.0
C1185 C 0.93445 0.30764 0.71453 0.0
C1186 C 0.93435 0.31581 0.6842 0.0
N1187 N 0.9315 0.31448 0.70296 0.0
C1188 C 0.95951 0.28373 0.73052 0.0
C1189 C 0.94185 0.27194 0.71138 0.0
C1190 C 0.95394 0.27567 0.74572 0.0
N1191 N 0.95344 0.28167 0.71376 0.0
C1192 C 0.93598 0.26359 0.72613 0.0
C1193 C 0.94202 0.2654 0.74362 0.0
H1194 H 0.96863 0.29167 0.73212 0.0
H1195 H 0.9372 0.27062 0.69794 0.0
C1196 C 0.95165 0.28184 0.62467 0.0
N1197 N 0.94795 0.28727 0.63779 0.0
C1198 C 0.94427 0.276 0.60891 0.0
C1199 C 0.92942 0.28143 0.62047 0.0
C1200 C 0.93706 0.28712 0.63605 0.0
C1201 C 0.93299 0.27575 0.60668 0.0
H1202 H 0.96033 0.28204 0.62652 0.0
H1203 H 0.93425 0.29133 0.64683 0.0
O1204 O 0.97589 0.30818 0.69809 0.0
O1205 O 0.9736 0.31153 0.65502 0.0
O1206 O 0.96542 0.2854 0.67033 0.0
O1207 O 0.94991 0.29765 0.6807 0.0
H1208 H 0.99133 0.33229 0.69611 0.0
H1209 H 0.98746 0.29762 0.714 0.0
H1210 H 0.01306 0.34284 0.70715 0.0
H1211 H 0.00928 0.30878 0.72467 0.0
H1212 H 0.9583 0.31735 0.6 0.0
H1213 H 0.98656 0.30604 0.63127 0.0
H1214 H 0.95925 0.3173 0.6351 0.0
H1215 H 0.98514 0.30631 0.59625 0.0
H1216 H 0.02265 0.32952 0.65535 0.0
H1217 H 0.01195 0.29159 0.66754 0.0
H1218 H 0.96698 0.34386 0.72264 0.0
H1219 H 0.97265 0.35417 0.66344 0.0
H1220 H 0.94468 0.26627 0.65778 0.0
H1221 H 0.97498 0.27757 0.69668 0.0
H1222 H 0.93601 0.24476 0.66918 0.0
H1223 H 0.96578 0.25586 0.70739 0.0
H1224 H 0.94305 0.29648 0.71652 0.0
H1225 H 0.94291 0.31132 0.66151 0.0
H1226 H 0.93208 0.30679 0.7294 0.0
H1227 H 0.93194 0.32136 0.67539 0.0
H1228 H 0.95885 0.27758 0.75905 0.0
H1229 H 0.92685 0.25576 0.72377 0.0
H1230 H 0.94741 0.27181 0.59851 0.0
H1231 H 0.92072 0.2813 0.6194 0.0
Li1232 Li 0.69817 0.67879 0.67287 0.0
Li1233 Li 0.68674 0.65677 0.67991 0.0
Li1234 Li 0.70761 0.67004 0.69241 0.0
Li1235 Li 0.70411 0.66463 0.65894 0.0
C1236 C 0.69282 0.67212 0.71684 0.0
N1237 N 0.69426 0.6744 0.75582 0.0
C1238 C 0.68514 0.66204 0.72828 0.0
C1239 C 0.70119 0.68337 0.72522 0.0
C1240 C 0.68601 0.66338 0.74796 0.0
C1241 C 0.7018 0.68433 0.74496 0.0
C1242 C 0.67688 0.65908 0.64857 0.0
C1243 C 0.65912 0.64083 0.63632 0.0
N1244 N 0.65243 0.64667 0.63735 0.0
C1245 C 0.66983 0.6649 0.64949 0.0
C1246 C 0.67149 0.64695 0.64188 0.0
C1247 C 0.65749 0.65847 0.64374 0.0
C1248 C 0.69722 0.69669 0.65001 0.0
N1249 N 0.69647 0.69284 0.66821 0.0
C1250 C 0.69235 0.7085 0.67913 0.0
C1251 C 0.69407 0.69848 0.6827 0.0
C1252 C 0.69307 0.71269 0.66045 0.0
C1253 C 0.69559 0.70667 0.6458 0.0
H1254 H 0.69888 0.69185 0.63873 0.0
H1255 H 0.69334 0.69512 0.697 0.0
C1256 C 0.66759 0.63164 0.68518 0.0
N1257 N 0.67058 0.64369 0.6855 0.0
C1258 C 0.65549 0.62234 0.68895 0.0
C1259 C 0.64988 0.63807 0.69345 0.0
C1260 C 0.66205 0.64703 0.68962 0.0
C1261 C 0.64646 0.62553 0.6932 0.0
H1262 H 0.67459 0.62926 0.68203 0.0
H1263 H 0.66473 0.6567 0.68982 0.0
C1264 C 0.72131 0.69285 0.66422 0.0
N1265 N 0.73313 0.71688 0.65113 0.0
C1266 C 0.72356 0.69526 0.64485 0.0
C1267 C 0.72511 0.70266 0.67693 0.0
C1268 C 0.72955 0.70748 0.63852 0.0
C1269 C 0.73105 0.71474 0.67003 0.0
C1270 C 0.70564 0.6467 0.67465 0.0
C1271 C 0.7177 0.65009 0.6799 0.0
C1272 C 0.69919 0.63688 0.6621 0.0
C1273 C 0.72314 0.6436 0.67241 0.0
C1274 C 0.70496 0.63064 0.6549 0.0
N1275 N 0.71671 0.63411 0.66016 0.0
C1276 C 0.7145 0.66481 0.72791 0.0
C1277 C 0.73032 0.68228 0.71202 0.0
C1278 C 0.72242 0.66657 0.74302 0.0
N1279 N 0.71851 0.67274 0.71298 0.0
C1280 C 0.73861 0.68427 0.72668 0.0
C1281 C 0.73465 0.67639 0.74246 0.0
H1282 H 0.70517 0.65709 0.72803 0.0
H1283 H 0.73335 0.68827 0.69979 0.0
C1284 C 0.70454 0.65452 0.62281 0.0
N1285 N 0.71145 0.66153 0.63758 0.0
C1286 C 0.71016 0.65214 0.60758 0.0
C1287 C 0.72993 0.66448 0.62288 0.0
C1288 C 0.7239 0.66649 0.6379 0.0
C1289 C 0.72305 0.65718 0.60744 0.0
H1290 H 0.69466 0.65068 0.62291 0.0
H1291 H 0.72916 0.67204 0.64986 0.0
O1292 O 0.69221 0.67095 0.69754 0.0
O1293 O 0.68891 0.66513 0.6545 0.0
O1294 O 0.7152 0.68094 0.67066 0.0
O1295 O 0.70029 0.65318 0.68136 0.0
H1296 H 0.67866 0.65323 0.72207 0.0
H1297 H 0.70727 0.69124 0.71659 0.0
H1298 H 0.68016 0.65564 0.75699 0.0
H1299 H 0.7083 0.69296 0.75163 0.0
H1300 H 0.6548 0.63141 0.63129 0.0
H1301 H 0.67378 0.67422 0.65479 0.0
H1302 H 0.67672 0.64221 0.64144 0.0
H1303 H 0.65192 0.66285 0.64445 0.0
H1304 H 0.69048 0.71291 0.69084 0.0
H1305 H 0.696 0.70945 0.63116 0.0
H1306 H 0.65328 0.6128 0.68887 0.0
H1307 H 0.64319 0.64094 0.69643 0.0
H1308 H 0.72056 0.68778 0.63479 0.0
H1309 H 0.72336 0.70095 0.69194 0.0
H1310 H 0.7313 0.70948 0.62357 0.0
H1311 H 0.73397 0.72242 0.6797 0.0
H1312 H 0.72287 0.65772 0.68947 0.0
H1313 H 0.68991 0.63425 0.65766 0.0
H1314 H 0.73248 0.64616 0.67628 0.0
H1315 H 0.70011 0.62309 0.64505 0.0
H1316 H 0.7191 0.66021 0.75485 0.0
H1317 H 0.74798 0.69194 0.72577 0.0
H1318 H 0.70444 0.6463 0.59616 0.0
H1319 H 0.73988 0.66875 0.6233 0.0
Li1320 Li 0.34465 0.31752 0.68065 0.0
Li1321 Li 0.33133 0.29762 0.6935 0.0
Li1322 Li 0.33667 0.29883 0.6598 0.0
Li1323 Li 0.32271 0.30602 0.67244 0.0
C1324 C 0.35287 0.29854 0.69313 0.0
N1325 N 0.36177 0.28736 0.71714 0.0
C1326 C 0.3598 0.30484 0.70907 0.0
C1327 C 0.35054 0.28661 0.68931 0.0
C1328 C 0.36421 0.29901 0.72105 0.0
C1329 C 0.35509 0.28109 0.70166 0.0
C1330 C 0.32851 0.31342 0.71607 0.0
C1331 C 0.31546 0.30583 0.74368 0.0
N1332 N 0.32478 0.31454 0.75443 0.0
C1333 C 0.33795 0.32232 0.72738 0.0
C1334 C 0.31715 0.30514 0.72426 0.0
C1335 C 0.33588 0.32273 0.74675 0.0
C1336 C 0.35628 0.34309 0.68768 0.0
N1337 N 0.35835 0.33354 0.68483 0.0
C1338 C 0.38007 0.34688 0.68855 0.0
C1339 C 0.36995 0.33521 0.68494 0.0
C1340 C 0.37824 0.35694 0.69184 0.0
C1341 C 0.36614 0.35494 0.69109 0.0
H1342 H 0.34694 0.34147 0.68743 0.0
H1343 H 0.37131 0.32745 0.68247 0.0
C1344 C 0.32212 0.27462 0.71136 0.0
N1345 N 0.32847 0.28697 0.7148 0.0
C1346 C 0.32092 0.26627 0.72547 0.0
C1347 C 0.33242 0.28345 0.74665 0.0
C1348 C 0.33362 0.29147 0.73203 0.0
C1349 C 0.32621 0.27064 0.74341 0.0
H1350 H 0.3184 0.27127 0.69739 0.0
H1351 H 0.33906 0.30129 0.73431 0.0
C1352 C 0.34269 0.32635 0.64765 0.0
N1353 N 0.35504 0.35049 0.63494 0.0
C1354 C 0.33699 0.33352 0.64835 0.0
C1355 C 0.3547 0.33149 0.64053 0.0
C1356 C 0.34337 0.34569 0.64182 0.0
C1357 C 0.36078 0.34371 0.63419 0.0
C1358 C 0.30827 0.28236 0.66695 0.0
C1359 C 0.3051 0.27986 0.64783 0.0
C1360 C 0.299 0.27831 0.68065 0.0
C1361 C 0.29264 0.27342 0.64271 0.0
C1362 C 0.28665 0.2719 0.67496 0.0
N1363 N 0.28375 0.26962 0.65626 0.0
C1364 C 0.3331 0.27821 0.63909 0.0
C1365 C 0.34856 0.29728 0.62644 0.0
C1366 C 0.33499 0.27174 0.62461 0.0
N1367 N 0.33981 0.29074 0.63966 0.0
C1368 C 0.35081 0.29119 0.61175 0.0
C1369 C 0.34394 0.27823 0.61065 0.0
H1370 H 0.32624 0.27324 0.64989 0.0
H1371 H 0.35384 0.30722 0.62731 0.0
C1372 C 0.3027 0.31002 0.67986 0.0
N1373 N 0.30878 0.30759 0.66611 0.0
C1374 C 0.293 0.31201 0.67516 0.0
C1375 C 0.29595 0.30887 0.64221 0.0
C1376 C 0.30557 0.3069 0.64757 0.0
C1377 C 0.28962 0.3116 0.65609 0.0
H1378 H 0.30559 0.31075 0.69444 0.0
H1379 H 0.31067 0.3051 0.63691 0.0
O1380 O 0.34817 0.30394 0.68153 0.0
O1381 O 0.33033 0.31299 0.69704 0.0
O1382 O 0.3367 0.31449 0.65436 0.0
O1383 O 0.32041 0.2889 0.67222 0.0
H1384 H 0.36156 0.31403 0.71234 0.0
H1385 H 0.34514 0.2816 0.67708 0.0
H1386 H 0.3695 0.30373 0.73352 0.0
H1387 H 0.35328 0.27182 0.69897 0.0
H1388 H 0.30674 0.29943 0.75022 0.0
H1389 H 0.34681 0.32878 0.72133 0.0
H1390 H 0.30976 0.29816 0.71575 0.0
H1391 H 0.34312 0.32953 0.75568 0.0
H1392 H 0.38918 0.3479 0.68924 0.0
H1393 H 0.36428 0.36242 0.69322 0.0
H1394 H 0.31627 0.25652 0.72209 0.0
H1395 H 0.33652 0.28732 0.76026 0.0
H1396 H 0.32781 0.32981 0.65409 0.0
H1397 H 0.35939 0.32622 0.64033 0.0
H1398 H 0.33908 0.35133 0.64232 0.0
H1399 H 0.3701 0.34782 0.62878 0.0
H1400 H 0.31218 0.28303 0.63704 0.0
H1401 H 0.30131 0.28012 0.69551 0.0
H1402 H 0.29004 0.27149 0.62795 0.0
H1403 H 0.27936 0.26875 0.6854 0.0
H1404 H 0.32938 0.26177 0.62423 0.0
H1405 H 0.35793 0.29657 0.60147 0.0
H1406 H 0.28847 0.31426 0.68625 0.0
H1407 H 0.29357 0.30838 0.62736 0.0
Li1408 Li 0.68668 0.03213 0.68514 0.0
Li1409 Li 0.70692 0.03838 0.69886 0.0
Li1410 Li 0.70485 0.04047 0.66401 0.0
Li1411 Li 0.69771 0.0204 0.67907 0.0
C1412 C 0.69922 0.05843 0.68326 0.0
N1413 N 0.69464 0.07775 0.67896 0.0
C1414 C 0.70072 0.06615 0.69857 0.0
C1415 C 0.69563 0.06072 0.66567 0.0
C1416 C 0.69829 0.07581 0.69615 0.0
C1417 C 0.69329 0.07048 0.6638 0.0
C1418 C 0.69104 0.02201 0.72255 0.0
C1419 C 0.69837 0.01764 0.7515 0.0
N1420 N 0.69141 0.02116 0.76164 0.0
C1421 C 0.6839 0.02551 0.73325 0.0
C1422 C 0.69827 0.01796 0.73172 0.0
C1423 C 0.68423 0.02504 0.75301 0.0
C1424 C 0.66112 0.01876 0.68391 0.0
N1425 N 0.67066 0.02991 0.68925 0.0
C1426 C 0.65664 0.03597 0.70132 0.0
C1427 C 0.66867 0.03851 0.69777 0.0
C1428 C 0.6466 0.02444 0.6962 0.0
C1429 C 0.64897 0.01583 0.6872 0.0
H1430 H 0.663 0.01208 0.67729 0.0
H1431 H 0.67637 0.04718 0.70231 0.0
C1432 C 0.72847 0.04681 0.72111 0.0
N1433 N 0.7173 0.04614 0.72017 0.0
C1434 C 0.73639 0.05274 0.73631 0.0
C1435 C 0.72123 0.0573 0.74922 0.0
C1436 C 0.71355 0.05117 0.73386 0.0
C1437 C 0.73287 0.0582 0.75058 0.0
H1438 H 0.73127 0.04281 0.70999 0.0
H1439 H 0.70461 0.05048 0.7328 0.0
C1440 C 0.68243 0.02421 0.64445 0.0
N1441 N 0.6696 0.02207 0.61141 0.0
C1442 C 0.68169 0.01614 0.63012 0.0
C1443 C 0.6764 0.03098 0.64208 0.0
C1444 C 0.67524 0.01525 0.61349 0.0
C1445 C 0.67002 0.02982 0.62526 0.0
C1446 C 0.72128 0.02879 0.67274 0.0
C1447 C 0.72598 0.03001 0.65442 0.0
C1448 C 0.723 0.02146 0.68595 0.0
C1449 C 0.7322 0.02373 0.64954 0.0
C1450 C 0.72925 0.01531 0.68052 0.0
N1451 N 0.73367 0.01656 0.66257 0.0
C1452 C 0.72082 0.0626 0.64536 0.0
C1453 C 0.71145 0.04519 0.62505 0.0
C1454 C 0.72759 0.07021 0.6303 0.0
N1455 N 0.71292 0.05036 0.64248 0.0
C1456 C 0.71811 0.05243 0.60961 0.0
C1457 C 0.72636 0.0651 0.61218 0.0
H1458 H 0.72202 0.06641 0.65946 0.0
H1459 H 0.7054 0.03539 0.62322 0.0
C1460 C 0.69029 0.99554 0.68858 0.0
N1461 N 0.69519 0.00427 0.67477 0.0
C1462 C 0.68769 0.98349 0.68496 0.0
C1463 C 0.69532 0.98971 0.65305 0.0
C1464 C 0.69788 0.00164 0.65734 0.0
C1465 C 0.69001 0.98043 0.66688 0.0
H1466 H 0.68815 0.99787 0.70226 0.0
H1467 H 0.70186 0.00878 0.64669 0.0
O1468 O 0.70161 0.04894 0.68542 0.0
O1469 O 0.69101 0.02262 0.7032 0.0
O1470 O 0.68864 0.02509 0.66091 0.0
O1471 O 0.71499 0.03471 0.6777 0.0
H1472 H 0.70367 0.06468 0.71222 0.0
H1473 H 0.69482 0.05515 0.65348 0.0
H1474 H 0.69933 0.08179 0.70792 0.0
H1475 H 0.69048 0.07231 0.65026 0.0
H1476 H 0.70399 0.0146 0.75878 0.0
H1477 H 0.67825 0.02867 0.72641 0.0
H1478 H 0.70383 0.01519 0.72366 0.0
H1479 H 0.67881 0.02778 0.76147 0.0
H1480 H 0.65522 0.04278 0.70859 0.0
H1481 H 0.6415 0.00688 0.68289 0.0
H1482 H 0.74517 0.05301 0.73688 0.0
H1483 H 0.71815 0.06148 0.7597 0.0
H1484 H 0.68609 0.01066 0.63174 0.0
H1485 H 0.67646 0.03694 0.65317 0.0
H1486 H 0.67469 0.00912 0.60225 0.0
H1487 H 0.66535 0.03505 0.62326 0.0
H1488 H 0.72482 0.0357 0.64406 0.0
H1489 H 0.71943 0.02042 0.70019 0.0
H1490 H 0.73584 0.02455 0.63538 0.0
H1491 H 0.73056 0.00953 0.69055 0.0
H1492 H 0.734 0.07989 0.63291 0.0
H1493 H 0.7169 0.04815 0.59584 0.0
H1494 H 0.68351 0.97655 0.69593 0.0
H1495 H 0.69737 0.98773 0.63901 0.0
Li1496 Li 0.96321 0.67319 0.69105 0.0
Li1497 Li 0.9695 0.65916 0.6775 0.0
Li1498 Li 0.98056 0.68145 0.66833 0.0
Li1499 Li 0.95967 0.66687 0.65664 0.0
C1500 C 0.98561 0.68033 0.7095 0.0
N1501 N 0.9983 0.69338 0.74135 0.0
C1502 C 0.98729 0.67421 0.7248 0.0
C1503 C 0.99057 0.6931 0.71031 0.0
C1504 C 0.99368 0.68096 0.7408 0.0
C1505 C 0.99691 0.69953 0.72655 0.0
C1506 C 0.94619 0.6446 0.68574 0.0
C1507 C 0.93701 0.62281 0.67944 0.0
N1508 N 0.93404 0.6204 0.69808 0.0
C1509 C 0.94296 0.64191 0.7048 0.0
C1510 C 0.94311 0.63498 0.6729 0.0
C1511 C 0.93685 0.62961 0.71078 0.0
C1512 C 0.94966 0.68254 0.70941 0.0
N1513 N 0.95639 0.6769 0.71246 0.0
C1514 C 0.95267 0.67612 0.74577 0.0
C1515 C 0.95792 0.67361 0.73018 0.0
C1516 C 0.9458 0.68209 0.74306 0.0
C1517 C 0.94435 0.68534 0.7246 0.0
H1518 H 0.94835 0.68479 0.69513 0.0
H1519 H 0.96304 0.66885 0.73219 0.0
C1520 C 0.97547 0.64062 0.66909 0.0
N1521 N 0.97183 0.64556 0.68308 0.0
C1522 C 0.9777 0.63097 0.67306 0.0
C1523 C 0.9724 0.63169 0.70577 0.0
C1524 C 0.97021 0.64127 0.70114 0.0
C1525 C 0.97629 0.62645 0.69166 0.0
H1526 H 0.9768 0.64426 0.65488 0.0
H1527 H 0.96734 0.64539 0.712 0.0
C1528 C 0.96832 0.69533 0.66508 0.0
N1529 N 0.97335 0.71925 0.65899 0.0
C1530 C 0.96663 0.69898 0.64713 0.0
C1531 C 0.97234 0.70381 0.68002 0.0
C1532 C 0.96929 0.71112 0.64431 0.0
C1533 C 0.97489 0.71586 0.67663 0.0
C1534 C 0.97524 0.66468 0.63305 0.0
C1535 C 0.98321 0.67431 0.62112 0.0
C1536 C 0.96721 0.65307 0.62537 0.0
C1537 C 0.9829 0.6722 0.60164 0.0
C1538 C 0.96716 0.65132 0.60582 0.0
N1539 N 0.97494 0.66085 0.59446 0.0
C1540 C 0.0062 0.69455 0.67064 0.0
C1541 C 0.99843 0.70446 0.65099 0.0
C1542 C 0.01831 0.70386 0.66716 0.0
N1543 N 0.99656 0.69504 0.66268 0.0
C1544 C 0.01041 0.71395 0.64702 0.0
C1545 C 0.02054 0.71371 0.65514 0.0
H1546 H 0.00448 0.68683 0.67958 0.0
H1547 H 0.99068 0.70452 0.64441 0.0
C1548 C 0.93628 0.65398 0.63952 0.0
N1549 N 0.94821 0.66276 0.63624 0.0
C1550 C 0.92743 0.65059 0.62525 0.0
C1551 C 0.94328 0.66537 0.60447 0.0
C1552 C 0.95182 0.66851 0.61916 0.0
C1553 C 0.93089 0.65631 0.60744 0.0
H1554 H 0.9336 0.64963 0.65326 0.0
H1555 H 0.96131 0.67556 0.61693 0.0
O1556 O 0.97933 0.67383 0.69374 0.0
O1557 O 0.95241 0.65659 0.67968 0.0
O1558 O 0.9657 0.68345 0.66809 0.0
O1559 O 0.97537 0.66661 0.65215 0.0
H1560 H 0.98367 0.66436 0.72437 0.0
H1561 H 0.98968 0.69804 0.69845 0.0
H1562 H 0.99497 0.67633 0.75278 0.0
H1563 H 0.00077 0.70943 0.72734 0.0
H1564 H 0.93464 0.61528 0.66968 0.0
H1565 H 0.94523 0.64922 0.71491 0.0
H1566 H 0.94547 0.6369 0.65809 0.0
H1567 H 0.93436 0.62739 0.72552 0.0
H1568 H 0.954 0.67347 0.75979 0.0
H1569 H 0.93895 0.68976 0.72189 0.0
H1570 H 0.98054 0.62714 0.66169 0.0
H1571 H 0.97137 0.62865 0.72036 0.0
H1572 H 0.9634 0.69254 0.63545 0.0
H1573 H 0.97333 0.7011 0.69414 0.0
H1574 H 0.96811 0.71407 0.63045 0.0
H1575 H 0.97805 0.72251 0.68806 0.0
H1576 H 0.98954 0.68334 0.62681 0.0
H1577 H 0.96101 0.6455 0.63438 0.0
H1578 H 0.98899 0.67958 0.59224 0.0
H1579 H 0.96094 0.64241 0.59968 0.0
H1580 H 0.02585 0.70318 0.67341 0.0
H1581 H 0.01173 0.72137 0.63765 0.0
H1582 H 0.91799 0.64349 0.62811 0.0
H1583 H 0.94631 0.67016 0.59105 0.0
H1584 H 0.2251 0.363 0.1428 0.0
N1585 N 0.20768 0.34656 0.12032 0.0
H1586 H 0.2334 0.35909 0.1716 0.0
H1587 H 0.19803 0.32429 0.13898 0.0
H1588 H 0.20583 0.32038 0.16815 0.0
H1589 H 0.21044 0.32725 0.10853 0.0
H1590 H 0.22657 0.32875 0.08738 0.0
H1591 H 0.22217 0.36551 0.09832 0.0
H1592 H 0.23826 0.36707 0.07681 0.0
H1593 H 0.19674 0.35993 0.12233 0.0
H1594 H 0.18978 0.3234 0.10907 0.0
H1595 H 0.17499 0.35322 0.11713 0.0
H1596 H 0.16789 0.31627 0.10533 0.0
H1597 H 0.11476 0.3343 0.12417 0.0
H1598 H 0.10303 0.33234 0.15248 0.0
H1599 H 0.09339 0.29416 0.15779 0.0
H1600 H 0.10537 0.2962 0.12901 0.0
H1601 H 0.09865 0.30205 0.08333 0.0
H1602 H 0.08845 0.309 0.06102 0.0
H1603 H 0.11555 0.34693 0.07368 0.0
H1604 H 0.1261 0.33985 0.09484 0.0
H1605 H 0.13426 0.33494 0.12917 0.0
H1606 H 0.15601 0.34198 0.13136 0.0
H1607 H 0.1523 0.31625 0.08739 0.0
N1608 N 0.11713 0.31596 0.10662 0.0
H1609 H 0.13009 0.30854 0.0863 0.0
C1610 C 0.21091 0.34404 0.13874 0.0
C1611 C 0.22073 0.35372 0.14849 0.0
C1612 C 0.22542 0.35145 0.16499 0.0
C1613 C 0.22031 0.33939 0.17223 0.0
C1614 C 0.21012 0.32974 0.16284 0.0
C1615 C 0.20553 0.33201 0.14619 0.0
C1616 C 0.21516 0.34633 0.10503 0.0
C1617 C 0.21622 0.33587 0.10124 0.0
C1618 C 0.22546 0.33674 0.08912 0.0
C1619 C 0.23379 0.34808 0.08062 0.0
C1620 C 0.2321 0.35827 0.0834 0.0
C1621 C 0.22288 0.35738 0.09551 0.0
C1622 C 0.19485 0.34217 0.11646 0.0
C1623 C 0.19045 0.35042 0.11846 0.0
C1624 C 0.17798 0.3465 0.11566 0.0
C1625 C 0.16953 0.33411 0.11112 0.0
C1626 C 0.17406 0.3259 0.10866 0.0
C1627 C 0.18661 0.32993 0.11108 0.0
C1628 C 0.1109 0.31531 0.12423 0.0
C1629 C 0.11016 0.32546 0.13122 0.0
C1630 C 0.10338 0.32433 0.14748 0.0
C1631 C 0.09714 0.31305 0.1572 0.0
C1632 C 0.09812 0.30298 0.15058 0.0
C1633 C 0.10493 0.30411 0.13418 0.0
C1634 C 0.11297 0.32038 0.09096 0.0
C1635 C 0.10257 0.31185 0.08079 0.0
C1636 C 0.09667 0.31586 0.06825 0.0
C1637 C 0.10095 0.32855 0.06589 0.0
C1638 C 0.11197 0.33709 0.07503 0.0
C1639 C 0.118 0.33305 0.08729 0.0
C1640 C 0.13034 0.32094 0.10774 0.0
C1641 C 0.13796 0.33065 0.12006 0.0
C1642 C 0.15059 0.33485 0.12113 0.0
C1643 C 0.15605 0.32973 0.10956 0.0
C1644 C 0.14846 0.32027 0.09684 0.0
C1645 C 0.13576 0.31591 0.09606 0.0
H1646 H 0.70642 0.8008 0.13041 0.0
N1647 N 0.69059 0.80513 0.11162 0.0
H1648 H 0.70327 0.7906 0.16128 0.0
H1649 H 0.67128 0.79908 0.13575 0.0
H1650 H 0.66784 0.78838 0.16624 0.0
H1651 H 0.66588 0.78869 0.10679 0.0
H1652 H 0.65701 0.77025 0.08717 0.0
H1653 H 0.70216 0.79935 0.08558 0.0
H1654 H 0.69337 0.78063 0.06617 0.0
H1655 H 0.70747 0.82715 0.12398 0.0
H1656 H 0.67264 0.80869 0.0943 0.0
H1657 H 0.70744 0.84655 0.12189 0.0
H1658 H 0.67291 0.8281 0.09117 0.0
H1659 H 0.70796 0.90804 0.11828 0.0
H1660 H 0.70735 0.91753 0.14838 0.0
H1661 H 0.67532 0.88329 0.16523 0.0
H1662 H 0.67591 0.87395 0.13535 0.0
H1663 H 0.66778 0.88068 0.1086 0.0
H1664 H 0.65799 0.88906 0.08861 0.0
H1665 H 0.6895 0.90415 0.05099 0.0
H1666 H 0.69963 0.8964 0.07205 0.0
H1667 H 0.71059 0.88188 0.10166 0.0
H1668 H 0.71022 0.86219 0.10129 0.0
H1669 H 0.67049 0.84301 0.10755 0.0
N1670 N 0.69174 0.88569 0.1056 0.0
H1671 H 0.67097 0.86272 0.10654 0.0
C1672 C 0.68905 0.80053 0.13072 0.0
C1673 C 0.69811 0.79834 0.13838 0.0
C1674 C 0.6963 0.79255 0.15593 0.0
C1675 C 0.68528 0.78866 0.16597 0.0
C1676 C 0.67636 0.79123 0.15864 0.0
C1677 C 0.6783 0.79727 0.14124 0.0
C1678 C 0.68476 0.79548 0.09763 0.0
C1679 C 0.67194 0.78722 0.09764 0.0
C1680 C 0.66687 0.77658 0.08649 0.0
C1681 C 0.6745 0.77387 0.07529 0.0
C1682 C 0.68721 0.78248 0.07449 0.0
C1683 C 0.69226 0.79318 0.08557 0.0
C1684 C 0.69014 0.81638 0.10938 0.0
C1685 C 0.69988 0.8273 0.11683 0.0
C1686 C 0.69989 0.83843 0.11544 0.0
C1687 C 0.69022 0.83899 0.1062 0.0
C1688 C 0.68045 0.82803 0.09862 0.0
C1689 C 0.68034 0.81683 0.10031 0.0
C1690 C 0.69204 0.89032 0.12444 0.0
C1691 C 0.70097 0.90254 0.12866 0.0
C1692 C 0.70061 0.90792 0.14583 0.0
C1693 C 0.69123 0.90116 0.15907 0.0
C1694 C 0.68257 0.88876 0.15518 0.0
C1695 C 0.68297 0.88338 0.13807 0.0
C1696 C 0.68464 0.8882 0.09206 0.0
C1697 C 0.67257 0.88567 0.09599 0.0
C1698 C 0.66689 0.8904 0.08433 0.0
C1699 C 0.67302 0.89751 0.06827 0.0
C1700 C 0.68463 0.89904 0.06351 0.0
C1701 C 0.6904 0.89451 0.07539 0.0
C1702 C 0.69089 0.8738 0.10437 0.0
C1703 C 0.70182 0.87339 0.10274 0.0
C1704 C 0.70157 0.86211 0.10275 0.0
C1705 C 0.69033 0.85094 0.10474 0.0
C1706 C 0.67931 0.85137 0.10586 0.0
C1707 C 0.67957 0.86268 0.10549 0.0
H1708 H 0.11444 0.78222 0.13351 0.0
N1709 N 0.11468 0.80182 0.11559 0.0
H1710 H 0.10468 0.77319 0.16371 0.0
H1711 H 0.10259 0.80909 0.13834 0.0
H1712 H 0.09237 0.79973 0.16853 0.0
H1713 H 0.09432 0.79604 0.09634 0.0
H1714 H 0.08327 0.77881 0.07437 0.0
H1715 H 0.12365 0.7875 0.10026 0.0
H1716 H 0.11287 0.77058 0.07813 0.0
H1717 H 0.13372 0.79822 0.12709 0.0
H1718 H 0.1253 0.82526 0.10483 0.0
H1719 H 0.15543 0.81343 0.12763 0.0
H1720 H 0.1472 0.84098 0.1065 0.0
H1721 H 0.22182 0.8659 0.14836 0.0
H1722 H 0.22983 0.87948 0.17598 0.0
H1723 H 0.20452 0.89277 0.16486 0.0
H1724 H 0.19655 0.87909 0.13719 0.0
H1725 H 0.20546 0.88386 0.10595 0.0
H1726 H 0.22059 0.89727 0.08256 0.0
H1727 H 0.2367 0.87371 0.08267 0.0
H1728 H 0.22118 0.86011 0.10555 0.0
H1729 H 0.19151 0.84545 0.14665 0.0
H1730 H 0.16956 0.83055 0.14473 0.0
H1731 H 0.16704 0.84818 0.09357 0.0
N1732 N 0.20504 0.86421 0.12375 0.0
H1733 H 0.18876 0.86343 0.09617 0.0
C1734 C 0.10944 0.79653 0.13377 0.0
C1735 C 0.10994 0.78634 0.14118 0.0
C1736 C 0.10431 0.78114 0.15844 0.0
C1737 C 0.09785 0.78582 0.16845 0.0
C1738 C 0.09731 0.79596 0.16106 0.0
C1739 C 0.10315 0.80132 0.14392 0.0
C1740 C 0.10979 0.79314 0.10009 0.0
C1741 C 0.09854 0.79069 0.09204 0.0
C1742 C 0.09226 0.78086 0.07946 0.0
C1743 C 0.09714 0.77325 0.07463 0.0
C1744 C 0.10877 0.77615 0.08181 0.0
C1745 C 0.11502 0.78596 0.09445 0.0
C1746 C 0.12777 0.81053 0.11565 0.0
C1747 C 0.13648 0.80742 0.12224 0.0
C1748 C 0.149 0.81626 0.12281 0.0
C1749 C 0.15315 0.82853 0.11729 0.0
C1750 C 0.14442 0.83161 0.11063 0.0
C1751 C 0.13188 0.82267 0.10976 0.0
C1752 C 0.20867 0.87153 0.14078 0.0
C1753 C 0.21791 0.87164 0.15208 0.0
C1754 C 0.22243 0.87936 0.16784 0.0
C1755 C 0.2178 0.88719 0.17258 0.0
C1756 C 0.20833 0.88691 0.16144 0.0
C1757 C 0.20376 0.8791 0.14569 0.0
C1758 C 0.21217 0.87092 0.10743 0.0
C1759 C 0.21202 0.8814 0.10055 0.0
C1760 C 0.22077 0.88912 0.08728 0.0
C1761 C 0.22998 0.88667 0.08089 0.0
C1762 C 0.22967 0.87582 0.08706 0.0
C1763 C 0.22083 0.86804 0.10017 0.0
C1764 C 0.19194 0.85567 0.12174 0.0
C1765 C 0.1862 0.84616 0.1351 0.0
C1766 C 0.17364 0.83755 0.13384 0.0
C1767 C 0.16648 0.83804 0.11887 0.0
C1768 C 0.1722 0.84759 0.10544 0.0
C1769 C 0.18477 0.85636 0.1069 0.0
H1770 H 0.35413 0.22028 0.87285 0.0
N1771 N 0.33824 0.20587 0.899 0.0
H1772 H 0.34955 0.22785 0.8436 0.0
H1773 H 0.31518 0.19839 0.88464 0.0
H1774 H 0.3106 0.20636 0.8559 0.0
H1775 H 0.31915 0.20817 0.91375 0.0
H1776 H 0.32102 0.22347 0.93677 0.0
H1777 H 0.35797 0.22068 0.91951 0.0
H1778 H 0.35992 0.23618 0.94266 0.0
H1779 H 0.35038 0.19436 0.89007 0.0
H1780 H 0.31631 0.18832 0.91482 0.0
H1781 H 0.34356 0.17246 0.89359 0.0
H1782 H 0.30959 0.16651 0.91911 0.0
H1783 H 0.32857 0.12492 0.88196 0.0
H1784 H 0.32838 0.11499 0.85229 0.0
H1785 H 0.29033 0.08704 0.86231 0.0
H1786 H 0.29101 0.09662 0.89281 0.0
H1787 H 0.29816 0.10255 0.93888 0.0
H1788 H 0.3046 0.09138 0.96048 0.0
H1789 H 0.33933 0.10638 0.93081 0.0
H1790 H 0.3329 0.11721 0.90937 0.0
H1791 H 0.33358 0.13545 0.91695 0.0
H1792 H 0.33988 0.15712 0.91644 0.0
H1793 H 0.30277 0.14794 0.90125 0.0
N1794 N 0.31025 0.11589 0.90872 0.0
H1795 H 0.29633 0.12599 0.90257 0.0
C1796 C 0.33506 0.20896 0.88103 0.0
C1797 C 0.34461 0.21703 0.869 0.0
C1798 C 0.34198 0.2213 0.85237 0.0
C1799 C 0.32974 0.21771 0.84766 0.0
C1800 C 0.32011 0.2093 0.85936 0.0
C1801 C 0.32274 0.20481 0.87581 0.0
C1802 C 0.33849 0.21331 0.91478 0.0
C1803 C 0.32804 0.21401 0.9202 0.0
C1804 C 0.32912 0.22283 0.93334 0.0
C1805 C 0.34064 0.23109 0.94137 0.0
C1806 C 0.35091 0.22988 0.93682 0.0
C1807 C 0.34983 0.22107 0.92359 0.0
C1808 C 0.33396 0.19301 0.90229 0.0
C1809 C 0.34149 0.1883 0.89651 0.0
C1810 C 0.3376 0.1758 0.89867 0.0
C1811 C 0.32605 0.1677 0.90678 0.0
C1812 C 0.31849 0.17245 0.91265 0.0
C1813 C 0.32238 0.18499 0.91035 0.0
C1814 C 0.30983 0.11135 0.88979 0.0
C1815 C 0.32019 0.11667 0.87779 0.0
C1816 C 0.32 0.11102 0.86063 0.0
C1817 C 0.30937 0.10009 0.85487 0.0
C1818 C 0.29879 0.09524 0.86645 0.0
C1819 C 0.29909 0.10077 0.88378 0.0
C1820 C 0.31501 0.11084 0.9226 0.0
C1821 C 0.30725 0.1036 0.93733 0.0
C1822 C 0.31091 0.0972 0.94956 0.0
C1823 C 0.32249 0.09809 0.94736 0.0
C1824 C 0.33044 0.1057 0.93305 0.0
C1825 C 0.32672 0.11191 0.9207 0.0
C1826 C 0.31434 0.12892 0.90988 0.0
C1827 C 0.32667 0.13792 0.91375 0.0
C1828 C 0.33034 0.15045 0.91329 0.0
C1829 C 0.32187 0.15433 0.90866 0.0
C1830 C 0.30952 0.14532 0.90511 0.0
C1831 C 0.30582 0.13277 0.90577 0.0
H1832 H 0.78841 0.1197 0.89968 0.0
N1833 N 0.80567 0.11516 0.9158 0.0
H1834 H 0.77769 0.11134 0.86987 0.0
H1835 H 0.81079 0.10296 0.88994 0.0
H1836 H 0.80054 0.09505 0.85942 0.0
H1837 H 0.79611 0.0933 0.9323 0.0
H1838 H 0.77825 0.08369 0.95334 0.0
H1839 H 0.79494 0.12715 0.93333 0.0
H1840 H 0.77727 0.11772 0.95463 0.0
H1841 H 0.80822 0.13787 0.90852 0.0
H1842 H 0.82779 0.11934 0.92581 0.0
H1843 H 0.82731 0.15769 0.90987 0.0
H1844 H 0.84714 0.13896 0.92587 0.0
H1845 H 0.88155 0.21037 0.89311 0.0
H1846 H 0.89025 0.2211 0.8634 0.0
H1847 H 0.90884 0.20018 0.85579 0.0
H1848 H 0.90008 0.18942 0.88586 0.0
H1849 H 0.90796 0.20235 0.92854 0.0
H1850 H 0.91787 0.22031 0.94945 0.0
H1851 H 0.88553 0.22427 0.94585 0.0
H1852 H 0.87549 0.20591 0.92571 0.0
H1853 H 0.86535 0.18808 0.89042 0.0
H1854 H 0.84554 0.16946 0.8934 0.0
H1855 H 0.85947 0.15777 0.94037 0.0
N1856 N 0.88662 0.19381 0.91054 0.0
H1857 H 0.8797 0.17614 0.93632 0.0
C1858 C 0.8003 0.11177 0.89717 0.0
C1859 C 0.79118 0.1144 0.89097 0.0
C1860 C 0.7851 0.10968 0.87376 0.0
C1861 C 0.78814 0.10239 0.86226 0.0
C1862 C 0.79775 0.10037 0.86809 0.0
C1863 C 0.80371 0.10497 0.88541 0.0
C1864 C 0.79689 0.11089 0.93115 0.0
C1865 C 0.79223 0.09877 0.93756 0.0
C1866 C 0.78204 0.09332 0.94962 0.0
C1867 C 0.77626 0.09991 0.95556 0.0
C1868 C 0.78141 0.11234 0.95009 0.0
C1869 C 0.79161 0.11779 0.93797 0.0
C1870 C 0.81657 0.12713 0.91743 0.0
C1871 C 0.81661 0.13808 0.91283 0.0
C1872 C 0.82763 0.14943 0.91332 0.0
C1873 C 0.83888 0.15004 0.91797 0.0
C1874 C 0.8387 0.139 0.92266 0.0
C1875 C 0.82766 0.12773 0.92251 0.0
C1876 C 0.89026 0.19911 0.89183 0.0
C1877 C 0.88742 0.208 0.88509 0.0
C1878 C 0.89243 0.21416 0.86808 0.0
C1879 C 0.90033 0.21157 0.85741 0.0
C1880 C 0.90273 0.20232 0.8637 0.0
C1881 C 0.89775 0.19618 0.88082 0.0
C1882 C 0.89112 0.20293 0.9254 0.0
C1883 C 0.90292 0.20693 0.93271 0.0
C1884 C 0.9086 0.21726 0.94447 0.0
C1885 C 0.90261 0.22391 0.94898 0.0
C1886 C 0.8904 0.21937 0.94269 0.0
C1887 C 0.88467 0.20892 0.93107 0.0
C1888 C 0.87425 0.1835 0.91299 0.0
C1889 C 0.86428 0.1816 0.90138 0.0
C1890 C 0.85277 0.17089 0.90325 0.0
C1891 C 0.85083 0.16195 0.91702 0.0
C1892 C 0.86064 0.16422 0.92924 0.0
C1893 C 0.87221 0.17479 0.92709 0.0
H1894 H 0.79831 0.70708 0.89437 0.0
N1895 N 0.8067 0.69297 0.90823 0.0
H1896 H 0.788 0.70487 0.86408 0.0
H1897 H 0.80438 0.67711 0.8797 0.0
H1898 H 0.79458 0.67515 0.84893 0.0
H1899 H 0.79045 0.66807 0.90841 0.0
H1900 H 0.77176 0.65738 0.92748 0.0
H1901 H 0.80042 0.70214 0.93727 0.0
H1902 H 0.78142 0.69169 0.95582 0.0
H1903 H 0.82879 0.7107 0.89743 0.0
H1904 H 0.81037 0.67424 0.9221 0.0
H1905 H 0.84824 0.71066 0.89779 0.0
H1906 H 0.82979 0.67443 0.92352 0.0
H1907 H 0.90919 0.71102 0.89707 0.0
H1908 H 0.91939 0.71182 0.86705 0.0
H1909 H 0.88679 0.67836 0.84905 0.0
H1910 H 0.87661 0.67794 0.87849 0.0
H1911 H 0.88046 0.66908 0.90584 0.0
H1912 H 0.8876 0.65811 0.92601 0.0
H1913 H 0.90662 0.69034 0.96166 0.0
H1914 H 0.89939 0.70134 0.9413 0.0
H1915 H 0.88356 0.71229 0.91572 0.0
H1916 H 0.86397 0.71212 0.91718 0.0
H1917 H 0.84451 0.67296 0.90513 0.0
N1918 N 0.88716 0.69354 0.90886 0.0
H1919 H 0.86403 0.67314 0.90503 0.0
C1920 C 0.80216 0.69235 0.88924 0.0
C1921 C 0.79767 0.70022 0.88435 0.0
C1922 C 0.79183 0.69897 0.86698 0.0
C1923 C 0.79044 0.68982 0.85399 0.0
C1924 C 0.79532 0.68217 0.85868 0.0
C1925 C 0.80105 0.68336 0.87619 0.0
C1926 C 0.79691 0.68593 0.92157 0.0
C1927 C 0.78875 0.6732 0.91916 0.0
C1928 C 0.77797 0.66713 0.92994 0.0
C1929 C 0.77497 0.67369 0.94304 0.0
C1930 C 0.78347 0.68628 0.94607 0.0
C1931 C 0.79434 0.6923 0.93546 0.0
C1932 C 0.81803 0.69256 0.90967 0.0
C1933 C 0.82896 0.70275 0.90314 0.0
C1934 C 0.84011 0.70274 0.90352 0.0
C1935 C 0.84067 0.69255 0.91077 0.0
C1936 C 0.82972 0.68236 0.91753 0.0
C1937 C 0.81851 0.6823 0.91685 0.0
C1938 C 0.89218 0.69446 0.89015 0.0
C1939 C 0.9042 0.70402 0.88643 0.0
C1940 C 0.91003 0.70438 0.86937 0.0
C1941 C 0.90395 0.69509 0.85568 0.0
C1942 C 0.89171 0.68575 0.85914 0.0
C1943 C 0.88587 0.68546 0.87615 0.0
C1944 C 0.88949 0.68613 0.922 0.0
C1945 C 0.88594 0.67376 0.91815 0.0
C1946 C 0.89008 0.66748 0.92967 0.0
C1947 C 0.89775 0.67341 0.94529 0.0
C1948 C 0.90065 0.68551 0.94978 0.0
C1949 C 0.89657 0.69181 0.93818 0.0
C1950 C 0.87532 0.69283 0.91004 0.0
C1951 C 0.87503 0.70368 0.91354 0.0
C1952 C 0.86381 0.70356 0.91418 0.0
C1953 C 0.85259 0.69255 0.91104 0.0
C1954 C 0.85291 0.6816 0.90782 0.0
C1955 C 0.86414 0.68171 0.9075 0.0
H1956 H 0.75416 0.62591 0.45358 0.0
N1957 N 0.77665 0.63979 0.4395 0.0
H1958 H 0.74619 0.62838 0.48382 0.0
H1959 H 0.79016 0.65634 0.46729 0.0
H1960 H 0.78247 0.65856 0.49804 0.0
H1961 H 0.78542 0.66467 0.43739 0.0
H1962 H 0.77736 0.67481 0.41716 0.0
H1963 H 0.76104 0.62978 0.41082 0.0
H1964 H 0.75238 0.63966 0.39119 0.0
H1965 H 0.78073 0.62221 0.45198 0.0
H1966 H 0.79917 0.65802 0.42522 0.0
H1967 H 0.80014 0.62216 0.45305 0.0
H1968 H 0.81838 0.65771 0.42517 0.0
H1969 H 0.86416 0.62378 0.45731 0.0
H1970 H 0.87442 0.62494 0.48736 0.0
H1971 H 0.86725 0.65359 0.50632 0.0
H1972 H 0.85738 0.65264 0.47626 0.0
H1973 H 0.87495 0.66242 0.45067 0.0
H1974 H 0.89388 0.67285 0.43244 0.0
H1975 H 0.87879 0.64279 0.39206 0.0
H1976 H 0.86015 0.63196 0.41141 0.0
H1977 H 0.8338 0.61979 0.43869 0.0
H1978 H 0.81453 0.62008 0.43531 0.0
H1979 H 0.83442 0.6596 0.44434 0.0
N1980 N 0.85617 0.63864 0.44524 0.0
H1981 H 0.85369 0.65923 0.44634 0.0
C1982 C 0.7727 0.64084 0.45825 0.0
C1983 C 0.76038 0.63296 0.46335 0.0
C1984 C 0.75589 0.63436 0.4807 0.0
C1985 C 0.76369 0.64366 0.49346 0.0
C1986 C 0.77616 0.65141 0.48848 0.0
C1987 C 0.78061 0.65008 0.47098 0.0
C1988 C 0.7739 0.64644 0.42544 0.0
C1989 C 0.77853 0.65923 0.42687 0.0
C1990 C 0.77377 0.66499 0.41545 0.0
C1991 C 0.76408 0.65805 0.40267 0.0
C1992 C 0.75994 0.64537 0.40063 0.0
C1993 C 0.76485 0.63967 0.41187 0.0
C1994 C 0.78832 0.64003 0.43857 0.0
C1995 C 0.78893 0.62998 0.44607 0.0
C1996 C 0.80005 0.62994 0.44652 0.0
C1997 C 0.81091 0.63991 0.4391 0.0
C1998 C 0.81029 0.64995 0.43131 0.0
C1999 C 0.79916 0.65008 0.43119 0.0
C2000 C 0.85996 0.63805 0.46438 0.0
C2001 C 0.86455 0.6301 0.46815 0.0
C2002 C 0.8704 0.63077 0.48534 0.0
C2003 C 0.87177 0.63945 0.49917 0.0
C2004 C 0.86653 0.64694 0.49582 0.0
C2005 C 0.86073 0.6463 0.47861 0.0
C2006 C 0.86623 0.64621 0.43264 0.0
C2007 C 0.87563 0.65811 0.43781 0.0
C2008 C 0.88648 0.66415 0.42718 0.0
C2009 C 0.88805 0.65859 0.41088 0.0
C2010 C 0.87811 0.6472 0.40483 0.0
C2011 C 0.86737 0.64105 0.41572 0.0
C2012 C 0.84511 0.6394 0.44302 0.0
C2013 C 0.83395 0.6285 0.43981 0.0
C2014 C 0.82294 0.6287 0.43805 0.0
C2015 C 0.82281 0.63985 0.43981 0.0
C2016 C 0.83411 0.65085 0.44271 0.0
C2017 C 0.84517 0.65064 0.44409 0.0
H2018 H 0.37599 0.14323 0.46872 0.0
N2019 N 0.35781 0.14143 0.44704 0.0
H2020 H 0.37411 0.13206 0.49814 0.0
H2021 H 0.33647 0.12741 0.46716 0.0
H2022 H 0.33456 0.11692 0.49688 0.0
H2023 H 0.33395 0.12886 0.4341 0.0
H2024 H 0.32512 0.11028 0.41446 0.0
H2025 H 0.37017 0.13336 0.42692 0.0
H2026 H 0.36153 0.1151 0.40656 0.0
H2027 H 0.37494 0.1623 0.43162 0.0
H2028 H 0.33888 0.14552 0.45731 0.0
H2029 H 0.37498 0.1818 0.42874 0.0
H2030 H 0.33909 0.16499 0.45547 0.0
H2031 H 0.37455 0.244 0.45982 0.0
H2032 H 0.37257 0.25206 0.49034 0.0
H2033 H 0.34043 0.21679 0.50308 0.0
H2034 H 0.34229 0.20897 0.47228 0.0
H2035 H 0.33496 0.21587 0.44412 0.0
H2036 H 0.32592 0.22512 0.42403 0.0
H2037 H 0.36058 0.24567 0.39432 0.0
H2038 H 0.36963 0.23641 0.41474 0.0
H2039 H 0.37783 0.21781 0.44898 0.0
H2040 H 0.37713 0.19797 0.44842 0.0
H2041 H 0.33811 0.17973 0.43564 0.0
N2042 N 0.35933 0.22213 0.44476 0.0
H2043 H 0.33882 0.19951 0.43711 0.0
C2044 C 0.35646 0.13635 0.4658 0.0
C2045 C 0.36696 0.13767 0.47504 0.0
C2046 C 0.36585 0.13129 0.49187 0.0
C2047 C 0.35416 0.12349 0.49985 0.0
C2048 C 0.34369 0.12265 0.49098 0.0
C2049 C 0.3448 0.12888 0.47405 0.0
C2050 C 0.35273 0.13236 0.43218 0.0
C2051 C 0.34005 0.12604 0.42789 0.0
C2052 C 0.33502 0.11544 0.41655 0.0
C2053 C 0.3426 0.11108 0.40924 0.0
C2054 C 0.35541 0.11805 0.41233 0.0
C2055 C 0.36039 0.12855 0.42376 0.0
C2056 C 0.35706 0.15249 0.4449 0.0
C2057 C 0.36705 0.16284 0.43669 0.0
C2058 C 0.36709 0.17399 0.43521 0.0
C2059 C 0.35711 0.17506 0.4421 0.0
C2060 C 0.3469 0.16453 0.44986 0.0
C2061 C 0.34683 0.15334 0.45113 0.0
C2062 C 0.35865 0.22593 0.46379 0.0
C2063 C 0.36721 0.23798 0.46936 0.0
C2064 C 0.36607 0.24254 0.48684 0.0
C2065 C 0.35632 0.23508 0.49917 0.0
C2066 C 0.34795 0.22283 0.49381 0.0
C2067 C 0.34907 0.2183 0.47626 0.0
C2068 C 0.35303 0.22547 0.43091 0.0
C2069 C 0.34054 0.22209 0.43297 0.0
C2070 C 0.33536 0.22739 0.42143 0.0
C2071 C 0.34257 0.23621 0.4077 0.0
C2072 C 0.35484 0.23901 0.40494 0.0
C2073 C 0.35999 0.23367 0.41645 0.0
C2074 C 0.35848 0.21024 0.44295 0.0
C2075 C 0.36916 0.20952 0.44592 0.0
C2076 C 0.36874 0.19816 0.44547 0.0
C2077 C 0.35757 0.1872 0.44188 0.0
C2078 C 0.34685 0.18794 0.43867 0.0
C2079 C 0.34727 0.19933 0.43932 0.0
H2080 H 0.80753 0.11894 0.48395 0.0
N2081 N 0.80143 0.12563 0.45191 0.0
H2082 H 0.79514 0.11126 0.51279 0.0
H2083 H 0.77992 0.12564 0.45925 0.0
H2084 H 0.76776 0.11855 0.48818 0.0
H2085 H 0.78617 0.12751 0.42588 0.0
H2086 H 0.77186 0.11095 0.40473 0.0
H2087 H 0.80127 0.10491 0.44411 0.0
H2088 H 0.78715 0.08839 0.42285 0.0
H2089 H 0.82509 0.13555 0.44337 0.0
H2090 H 0.79627 0.14456 0.45014 0.0
H2091 H 0.84011 0.15736 0.43823 0.0
H2092 H 0.81123 0.16637 0.44597 0.0
H2093 H 0.88393 0.21736 0.45375 0.0
H2094 H 0.89479 0.22752 0.48266 0.0
H2095 H 0.86625 0.23609 0.49625 0.0
H2096 H 0.85528 0.22578 0.46698 0.0
H2097 H 0.86978 0.23689 0.42248 0.0
H2098 H 0.88703 0.24728 0.40042 0.0
H2099 H 0.89123 0.21504 0.39978 0.0
H2100 H 0.87428 0.20489 0.42216 0.0
H2101 H 0.86539 0.19714 0.45618 0.0
H2102 H 0.85019 0.17537 0.4571 0.0
H2103 H 0.82491 0.18234 0.42488 0.0
N2104 N 0.86252 0.21568 0.44028 0.0
H2105 H 0.84015 0.20445 0.42478 0.0
C2106 C 0.79474 0.12292 0.46951 0.0
C2107 C 0.79896 0.11906 0.48498 0.0
C2108 C 0.79188 0.11473 0.50145 0.0
C2109 C 0.78041 0.11423 0.50278 0.0
C2110 C 0.77646 0.11863 0.48753 0.0
C2111 C 0.7835 0.12286 0.47102 0.0
C2112 C 0.79473 0.11735 0.43664 0.0
C2113 C 0.78662 0.11912 0.42498 0.0
C2114 C 0.77847 0.10966 0.41287 0.0
C2115 C 0.77829 0.09833 0.41238 0.0
C2116 C 0.78696 0.09696 0.42317 0.0
C2117 C 0.79509 0.10639 0.43517 0.0
C2118 C 0.80963 0.13842 0.44741 0.0
C2119 C 0.82202 0.14225 0.4437 0.0
C2120 C 0.83059 0.15472 0.44094 0.0
C2121 C 0.82694 0.16367 0.442 0.0
C2122 C 0.81438 0.15974 0.44496 0.0
C2123 C 0.80578 0.14723 0.44753 0.0
C2124 C 0.86875 0.22088 0.45804 0.0
C2125 C 0.87992 0.22137 0.46286 0.0
C2126 C 0.88618 0.22724 0.47941 0.0
C2127 C 0.88144 0.23272 0.4916 0.0
C2128 C 0.8701 0.23191 0.48713 0.0
C2129 C 0.86385 0.22606 0.47045 0.0
C2130 C 0.87071 0.22017 0.42413 0.0
C2131 C 0.8742 0.23195 0.41713 0.0
C2132 C 0.88405 0.23785 0.40449 0.0
C2133 C 0.8906 0.23203 0.39852 0.0
C2134 C 0.88649 0.21984 0.40437 0.0
C2135 C 0.87668 0.21397 0.41709 0.0
C2136 C 0.85386 0.20256 0.4406 0.0
C2137 C 0.85659 0.19411 0.44941 0.0
C2138 C 0.84789 0.18154 0.44971 0.0
C2139 C 0.8363 0.17705 0.44103 0.0
C2140 C 0.83366 0.18548 0.43194 0.0
C2141 C 0.84237 0.1981 0.43177 0.0
H2142 H 0.04005 0.56864 0.21682 0.0
N2143 N 0.02302 0.55052 0.23773 0.0
H2144 H 0.03683 0.57771 0.18812 0.0
H2145 H 0.0013 0.54138 0.21769 0.0
H2146 H 0.99804 0.55037 0.18927 0.0
H2147 H 0.00235 0.55117 0.24873 0.0
H2148 H 0.00188 0.5659 0.2708 0.0
H2149 H 0.04078 0.56512 0.2615 0.0
H2150 H 0.04036 0.57985 0.28393 0.0
H2151 H 0.0374 0.54067 0.23596 0.0
H2152 H 0.99976 0.53138 0.2459 0.0
H2153 H 0.03145 0.51895 0.23889 0.0
H2154 H 0.99348 0.50962 0.2473 0.0
H2155 H 0.01442 0.45824 0.22575 0.0
H2156 H 0.01374 0.44778 0.19653 0.0
H2157 H 0.97684 0.44104 0.18577 0.0
H2158 H 0.97737 0.45103 0.21592 0.0
H2159 H 0.98147 0.43912 0.25932 0.0
H2160 H 0.9883 0.42821 0.28031 0.0
H2161 H 0.02537 0.45954 0.27912 0.0
H2162 H 0.01851 0.47021 0.25765 0.0
H2163 H 0.01524 0.47889 0.22226 0.0
H2164 H 0.02165 0.50061 0.22249 0.0
H2165 H 0.9934 0.49363 0.26392 0.0
N2166 N 0.99547 0.46031 0.24154 0.0
H2167 H 0.98641 0.47158 0.26246 0.0
C2168 C 0.021 0.55431 0.21941 0.0
C2169 C 0.03091 0.56447 0.21061 0.0
C2170 C 0.02904 0.56969 0.19436 0.0
C2171 C 0.01717 0.56479 0.18655 0.0
C2172 C 0.00731 0.55428 0.19488 0.0
C2173 C 0.00919 0.54911 0.21121 0.0
C2174 C 0.02166 0.55707 0.25344 0.0
C2175 C 0.01059 0.5571 0.25675 0.0
C2176 C 0.01033 0.56556 0.26942 0.0
C2177 C 0.02113 0.57414 0.27894 0.0
C2178 C 0.03194 0.57347 0.27658 0.0
C2179 C 0.03218 0.56502 0.26394 0.0
C2180 C 0.01905 0.53765 0.24035 0.0
C2181 C 0.02782 0.53389 0.23862 0.0
C2182 C 0.02435 0.52144 0.24011 0.0
C2183 C 0.01191 0.51239 0.24304 0.0
C2184 C 0.00316 0.51625 0.24522 0.0
C2185 C 0.00671 0.52876 0.24413 0.0
C2186 C 0.99582 0.45527 0.22325 0.0
C2187 C 0.00615 0.45451 0.21722 0.0
C2188 C 0.0058 0.44863 0.20027 0.0
C2189 C 0.99522 0.4435 0.18874 0.0
C2190 C 0.98506 0.44468 0.19445 0.0
C2191 C 0.98537 0.45047 0.21156 0.0
C2192 C 0.99941 0.45543 0.25687 0.0
C2193 C 0.99099 0.44374 0.26402 0.0
C2194 C 0.99493 0.43755 0.27606 0.0
C2195 C 0.00742 0.44296 0.28129 0.0
C2196 C 0.01572 0.45504 0.27513 0.0
C2197 C 0.01177 0.46121 0.26299 0.0
C2198 C 1.00008 0.47346 0.24208 0.0
C2199 C 0.01029 0.48192 0.23127 0.0
C2200 C 0.0141 0.49449 0.23163 0.0
C2201 C 0.00805 0.499 0.24319 0.0
C2202 C 0.99813 0.49054 0.25449 0.0
C2203 C 0.99417 0.47793 0.25382 0.0
H2204 H 0.57731 0.53856 0.23521 0.0
N2205 N 0.55366 0.53013 0.24292 0.0
H2206 H 0.58824 0.54795 0.20559 0.0
H2207 H 0.54296 0.5307 0.20905 0.0
H2208 H 0.55376 0.53994 0.17965 0.0
H2209 H 0.54754 0.54776 0.23418 0.0
H2210 H 0.55405 0.56689 0.25172 0.0
H2211 H 0.56302 0.53536 0.27768 0.0
H2212 H 0.56935 0.55443 0.29552 0.0
H2213 H 0.5507 0.50827 0.25174 0.0
H2214 H 0.53038 0.52644 0.23666 0.0
H2215 H 0.53154 0.48844 0.25261 0.0
H2216 H 0.51125 0.50661 0.23614 0.0
H2217 H 0.47057 0.42659 0.22572 0.0
H2218 H 0.46009 0.41751 0.19579 0.0
H2219 H 0.45915 0.45086 0.18324 0.0
H2220 H 0.47022 0.46004 0.21269 0.0
H2221 H 0.45738 0.45435 0.24029 0.0
H2222 H 0.43874 0.44486 0.25955 0.0
H2223 H 0.45255 0.42449 0.29042 0.0
H2224 H 0.47129 0.43399 0.27084 0.0
H2225 H 0.49826 0.45357 0.23174 0.0
H2226 H 0.51706 0.47365 0.23251 0.0
H2227 H 0.49611 0.49011 0.2535 0.0
N2228 N 0.47553 0.44811 0.24041 0.0
H2229 H 0.47732 0.47021 0.2515 0.0
C2230 C 0.55933 0.53383 0.22446 0.0
C2231 C 0.5721 0.53861 0.22299 0.0
C2232 C 0.57832 0.54403 0.20615 0.0
C2233 C 0.57184 0.5447 0.19036 0.0
C2234 C 0.55896 0.53943 0.19153 0.0
C2235 C 0.55277 0.53412 0.20844 0.0
C2236 C 0.55496 0.54018 0.25456 0.0
C2237 C 0.55204 0.54898 0.24773 0.0
C2238 C 0.55578 0.55993 0.25774 0.0
C2239 C 0.56228 0.56216 0.27487 0.0
C2240 C 0.5643 0.55292 0.2824 0.0
C2241 C 0.56071 0.54205 0.27225 0.0
C2242 C 0.54202 0.51877 0.24392 0.0
C2243 C 0.54208 0.50793 0.24849 0.0
C2244 C 0.5311 0.49659 0.24877 0.0
C2245 C 0.51978 0.49581 0.24414 0.0
C2246 C 0.51973 0.5068 0.23995 0.0
C2247 C 0.53071 0.51818 0.24004 0.0
C2248 C 0.47106 0.44389 0.22149 0.0
C2249 C 0.46833 0.432 0.21625 0.0
C2250 C 0.46222 0.4268 0.19926 0.0
C2251 C 0.45855 0.43336 0.18724 0.0
C2252 C 0.46187 0.44556 0.19207 0.0
C2253 C 0.46814 0.45081 0.20899 0.0
C2254 C 0.46575 0.4448 0.25402 0.0
C2255 C 0.45659 0.44805 0.2514 0.0
C2256 C 0.4459 0.4426 0.2624 0.0
C2257 C 0.44417 0.43385 0.2763 0.0
C2258 C 0.45369 0.43126 0.27985 0.0
C2259 C 0.46438 0.43667 0.26872 0.0
C2260 C 0.48636 0.46023 0.24168 0.0
C2261 C 0.49776 0.46153 0.23649 0.0
C2262 C 0.50852 0.47303 0.23712 0.0
C2263 C 0.5082 0.48357 0.24329 0.0
C2264 C 0.49674 0.48227 0.24847 0.0
C2265 C 0.48592 0.47077 0.24749 0.0
H2266 H 0.52217 0.97165 0.19984 0.0
N2267 N 0.52686 0.98327 0.23286 0.0
H2268 H 0.53569 0.97755 0.17214 0.0
H2269 H 0.5484 0.00519 0.22807 0.0
H2270 H 0.56167 0.01147 0.20022 0.0
H2271 H 0.53928 0.99962 0.26163 0.0
H2272 H 0.55286 0.99785 0.28475 0.0
H2273 H 0.52951 0.9639 0.239 0.0
H2274 H 0.54344 0.96225 0.2613 0.0
H2275 H 0.50308 0.96884 0.24029 0.0
H2276 H 0.53117 0.00709 0.2346 0.0
H2277 H 0.48751 0.97494 0.2451 0.0
H2278 H 0.51568 0.01324 0.23852 0.0
H2279 H 0.44427 0.991 0.22518 0.0
H2280 H 0.43474 0.99201 0.19587 0.0
H2281 H 0.46191 0.03072 0.19055 0.0
H2282 H 0.47179 0.0295 0.2199 0.0
H2283 H 0.45779 0.02424 0.26256 0.0
H2284 H 0.43984 0.01736 0.28317 0.0
H2285 H 0.43214 0.97975 0.27797 0.0
H2286 H 0.44998 0.98668 0.25722 0.0
H2287 H 0.46172 0.98898 0.22696 0.0
H2288 H 0.47718 0.98276 0.22636 0.0
H2289 H 0.50161 0.01476 0.25977 0.0
N2290 N 0.46412 0.0102 0.24301 0.0
H2291 H 0.4861 0.02126 0.25964 0.0
C2292 C 0.53419 0.98796 0.21593 0.0
C2293 C 0.53069 0.98045 0.19981 0.0
C2294 C 0.53842 0.98388 0.18399 0.0
C2295 C 0.54982 0.99498 0.18396 0.0
C2296 C 0.55305 0.00278 0.19986 0.0
C2297 C 0.54537 0.99927 0.21574 0.0
C2298 C 0.53332 0.98181 0.24863 0.0
C2299 C 0.53987 0.99129 0.26186 0.0
C2300 C 0.54775 0.99032 0.27496 0.0
C2301 C 0.54935 0.97994 0.27488 0.0
C2302 C 0.54232 0.97028 0.26213 0.0
C2303 C 0.53438 0.97121 0.24926 0.0
C2304 C 0.51823 0.98742 0.23684 0.0
C2305 C 0.50587 0.97855 0.2401 0.0
C2306 C 0.49699 0.98206 0.24269 0.0
C2307 C 0.5003 0.99459 0.24196 0.0
C2308 C 0.5128 0.00352 0.23932 0.0
C2309 C 0.52169 0.99999 0.23688 0.0
C2310 C 0.45886 0.01022 0.22479 0.0
C2311 C 0.44837 0.99968 0.21766 0.0
C2312 C 0.44281 0.0003 0.20092 0.0
C2313 C 0.44746 0.01148 0.19098 0.0
C2314 C 0.45814 0.02194 0.1978 0.0
C2315 C 0.46378 0.02128 0.21456 0.0
C2316 C 0.45524 0.00605 0.25824 0.0
C2317 C 0.45243 0.01457 0.26634 0.0
C2318 C 0.44218 0.01061 0.27813 0.0
C2319 C 0.43449 0.99798 0.28204 0.0
C2320 C 0.43779 0.98952 0.27499 0.0
C2321 C 0.44808 0.9935 0.26321 0.0
C2322 C 0.47279 0.00576 0.24319 0.0
C2323 C 0.47035 0.99474 0.23414 0.0
C2324 C 0.47922 0.99108 0.23398 0.0
C2325 C 0.49068 0.99825 0.24301 0.0
C2326 C 0.49297 0.00911 0.25243 0.0
C2327 C 0.48411 0.0128 0.25248 0.0
H2328 H 0.43362 0.96465 0.79685 0.0
N2329 N 0.45107 0.98356 0.77757 0.0
H2330 H 0.4235 0.96544 0.82611 0.0
H2331 H 0.45791 0.00405 0.79964 0.0
H2332 H 0.44832 0.00486 0.82903 0.0
H2333 H 0.4606 0.00775 0.76717 0.0
H2334 H 0.45031 0.01564 0.74684 0.0
H2335 H 0.43258 0.97046 0.75404 0.0
H2336 H 0.42257 0.97821 0.73276 0.0
H2337 H 0.4552 0.96603 0.76509 0.0
H2338 H 0.47383 0.00321 0.78678 0.0
H2339 H 0.47479 0.96619 0.76425 0.0
H2340 H 0.49326 0.00322 0.78721 0.0
H2341 H 0.53543 0.96626 0.79709 0.0
H2342 H 0.54553 0.9678 0.82752 0.0
H2343 H 0.5459 0.00185 0.83933 0.0
H2344 H 0.53567 0.00015 0.80894 0.0
H2345 H 0.54834 0.00725 0.78104 0.0
H2346 H 0.56685 0.01658 0.76155 0.0
H2347 H 0.55417 0.98175 0.73294 0.0
H2348 H 0.53541 0.97251 0.75231 0.0
H2349 H 0.5078 0.9644 0.78687 0.0
H2350 H 0.48863 0.96499 0.78511 0.0
H2351 H 0.5094 0.00361 0.76976 0.0
N2352 N 0.5306 0.9827 0.78166 0.0
H2353 H 0.52847 0.00308 0.77265 0.0
C2354 C 0.44658 0.98421 0.79608 0.0
C2355 C 0.43697 0.9734 0.80404 0.0
C2356 C 0.43124 0.97389 0.82075 0.0
C2357 C 0.43505 0.98524 0.82985 0.0
C2358 C 0.44502 0.99599 0.82223 0.0
C2359 C 0.45067 0.99551 0.80546 0.0
C2360 C 0.44716 0.98848 0.76239 0.0
C2361 C 0.4524 0.00125 0.75954 0.0
C2362 C 0.44655 0.00575 0.74774 0.0
C2363 C 0.43545 0.99755 0.73847 0.0
C2364 C 0.43091 0.98479 0.74008 0.0
C2365 C 0.43668 0.98032 0.75203 0.0
C2366 C 0.46297 0.98447 0.77625 0.0
C2367 C 0.46353 0.97421 0.76973 0.0
C2368 C 0.47473 0.97429 0.76946 0.0
C2369 C 0.48564 0.98464 0.77598 0.0
C2370 C 0.4851 0.9951 0.78197 0.0
C2371 C 0.4739 0.99506 0.78195 0.0
C2372 C 0.53487 0.98308 0.80073 0.0
C2373 C 0.53746 0.9739 0.80646 0.0
C2374 C 0.5432 0.97479 0.82382 0.0
C2375 C 0.54656 0.98499 0.83573 0.0
C2376 C 0.54352 0.99397 0.83032 0.0
C2377 C 0.53765 0.99299 0.81301 0.0
C2378 C 0.54042 0.98911 0.76811 0.0
C2379 C 0.54931 0.00167 0.77024 0.0
C2380 C 0.55999 0.007 0.75918 0.0
C2381 C 0.56206 0.99987 0.74587 0.0
C2382 C 0.55281 0.98753 0.74295 0.0
C2383 C 0.5421 0.98222 0.754 0.0
C2384 C 0.51958 0.98358 0.77974 0.0
C2385 C 0.50817 0.97297 0.7831 0.0
C2386 C 0.49722 0.97333 0.78191 0.0
C2387 C 0.49739 0.98433 0.77709 0.0
C2388 C 0.50887 0.995 0.77371 0.0
C2389 C 0.51986 0.99467 0.77518 0.0
H2390 H 0.98816 0.54609 0.79525 0.0
N2391 N 0.00772 0.54479 0.78034 0.0
H2392 H 0.98784 0.55558 0.82511 0.0
H2393 H 0.02527 0.55397 0.80671 0.0
H2394 H 0.02497 0.56345 0.837 0.0
H2395 H 0.02417 0.566 0.76485 0.0
H2396 H 0.02011 0.57913 0.74383 0.0
H2397 H 0.98585 0.53764 0.76122 0.0
H2398 H 0.98176 0.5507 0.74058 0.0
H2399 H 0.98407 0.52616 0.78795 0.0
H2400 H 0.02023 0.53365 0.77081 0.0
H2401 H 0.97661 0.50418 0.78716 0.0
H2402 H 0.01307 0.51153 0.77124 0.0
H2403 H 0.96194 0.43552 0.80748 0.0
H2404 H 0.96705 0.42741 0.83542 0.0
H2405 H 0.00519 0.4563 0.83062 0.0
H2406 H 0.99998 0.4642 0.80243 0.0
H2407 H 0.99802 0.45421 0.77168 0.0
H2408 H 0.9983 0.43931 0.7497 0.0
H2409 H 0.95887 0.42267 0.74208 0.0
H2410 H 0.95875 0.43783 0.76386 0.0
H2411 H 0.97054 0.46704 0.80616 0.0
H2412 H 0.97777 0.48904 0.80446 0.0
H2413 H 0.00089 0.49229 0.75676 0.0
N2414 N 0.97735 0.4539 0.78523 0.0
H2415 H 0.9942 0.47054 0.75921 0.0
C2416 C 0.00679 0.54929 0.79873 0.0
C2417 C 0.99618 0.54964 0.80434 0.0
C2418 C 0.99599 0.55507 0.8215 0.0
C2419 C 0.00639 0.56028 0.83342 0.0
C2420 C 0.01686 0.55963 0.82803 0.0
C2421 C 0.01703 0.55416 0.81084 0.0
C2422 C 0.0054 0.55085 0.76479 0.0
C2423 C 0.01497 0.56247 0.75913 0.0
C2424 C 0.01261 0.56999 0.74728 0.0
C2425 C 0.00058 0.566 0.74078 0.0
C2426 C 0.99114 0.55401 0.74529 0.0
C2427 C 0.9935 0.5465 0.75722 0.0
C2428 C 0.00274 0.53163 0.77914 0.0
C2429 C 0.99043 0.52311 0.78387 0.0
C2430 C 0.9862 0.51045 0.7837 0.0
C2431 C 0.99423 0.50599 0.77929 0.0
C2432 C 0.00653 0.51455 0.77441 0.0
C2433 C 0.01068 0.52721 0.77426 0.0
C2434 C 0.98053 0.45042 0.80294 0.0
C2435 C 0.97135 0.4402 0.81269 0.0
C2436 C 0.9743 0.43562 0.82866 0.0
C2437 C 0.98654 0.4412 0.83524 0.0
C2438 C 0.9957 0.45171 0.82577 0.0
C2439 C 0.99273 0.45628 0.80975 0.0
C2440 C 0.97831 0.44712 0.76941 0.0
C2441 C 0.98949 0.44758 0.7649 0.0
C2442 C 0.98962 0.43899 0.75242 0.0
C2443 C 0.97858 0.4297 0.74434 0.0
C2444 C 0.96756 0.42977 0.74792 0.0
C2445 C 0.96745 0.4384 0.76036 0.0
C2446 C 0.98179 0.46697 0.78305 0.0
C2447 C 0.97721 0.47252 0.79539 0.0
C2448 C 0.98128 0.48511 0.79424 0.0
C2449 C 0.9899 0.49252 0.78039 0.0
C2450 C 0.9944 0.48695 0.76783 0.0
C2451 C 0.99048 0.47436 0.76919 0.0
H2452 H 0.47602 0.45194 0.82061 0.0
N2453 N 0.4707 0.46004 0.78923 0.0
H2454 H 0.46305 0.44338 0.84883 0.0
H2455 H 0.44924 0.46021 0.79677 0.0
H2456 H 0.43645 0.45195 0.82485 0.0
H2457 H 0.45431 0.46134 0.76493 0.0
H2458 H 0.44075 0.44521 0.74291 0.0
H2459 H 0.4731 0.44126 0.77749 0.0
H2460 H 0.46024 0.42547 0.75438 0.0
H2461 H 0.49468 0.47025 0.78315 0.0
H2462 H 0.46546 0.47889 0.78711 0.0
H2463 H 0.50972 0.49212 0.77871 0.0
H2464 H 0.48042 0.50077 0.78356 0.0
H2465 H 0.55306 0.55215 0.79271 0.0
H2466 H 0.56364 0.56305 0.82136 0.0
H2467 H 0.53511 0.57213 0.83192 0.0
H2468 H 0.52442 0.56108 0.80288 0.0
H2469 H 0.53955 0.57104 0.75858 0.0
H2470 H 0.55711 0.58082 0.73698 0.0
H2471 H 0.56097 0.54841 0.73965 0.0
H2472 H 0.54371 0.53888 0.7616 0.0
H2473 H 0.53443 0.53207 0.79576 0.0
H2474 H 0.51921 0.51031 0.79734 0.0
H2475 H 0.49448 0.51659 0.76243 0.0
N2476 N 0.53188 0.55024 0.77777 0.0
H2477 H 0.50972 0.53869 0.7616 0.0
C2478 C 0.46367 0.45671 0.80656 0.0
C2479 C 0.46749 0.45216 0.82165 0.0
C2480 C 0.46009 0.44731 0.83775 0.0
C2481 C 0.44868 0.44691 0.83899 0.0
C2482 C 0.44511 0.45198 0.82419 0.0
C2483 C 0.45251 0.45682 0.80812 0.0
C2484 C 0.46449 0.45229 0.77321 0.0
C2485 C 0.45569 0.45358 0.76264 0.0
C2486 C 0.44802 0.44438 0.74984 0.0
C2487 C 0.4492 0.43385 0.74713 0.0
C2488 C 0.45879 0.43323 0.75652 0.0
C2489 C 0.46626 0.4423 0.76956 0.0
C2490 C 0.47902 0.47293 0.78571 0.0
C2491 C 0.49154 0.47689 0.78308 0.0
C2492 C 0.5001 0.4894 0.78071 0.0
C2493 C 0.49632 0.49826 0.78105 0.0
C2494 C 0.48366 0.49421 0.7831 0.0
C2495 C 0.47507 0.48166 0.78531 0.0
C2496 C 0.53792 0.55586 0.79547 0.0
C2497 C 0.549 0.55642 0.80109 0.0
C2498 C 0.5551 0.56272 0.81749 0.0
C2499 C 0.55028 0.56857 0.82874 0.0
C2500 C 0.53902 0.56769 0.82351 0.0
C2501 C 0.53292 0.56141 0.80697 0.0
C2502 C 0.54029 0.55429 0.76186 0.0
C2503 C 0.54397 0.56592 0.75405 0.0
C2504 C 0.554 0.57147 0.74167 0.0
C2505 C 0.56054 0.56544 0.73676 0.0
C2506 C 0.55625 0.55337 0.74341 0.0
C2507 C 0.54626 0.54785 0.75588 0.0
C2508 C 0.52317 0.53714 0.77871 0.0
C2509 C 0.52574 0.52889 0.78855 0.0
C2510 C 0.51703 0.51633 0.78925 0.0
C2511 C 0.5056 0.51165 0.77997 0.0
C2512 C 0.50311 0.51989 0.76996 0.0
C2513 C 0.51182 0.53249 0.76937 0.0
H2514 H 0.67066 0.88802 0.56325 0.0
N2515 N 0.65106 0.86695 0.57769 0.0
H2516 H 0.67092 0.89863 0.53424 0.0
H2517 H 0.63319 0.85956 0.55179 0.0
H2518 H 0.63341 0.87024 0.52242 0.0
H2519 H 0.63766 0.8749 0.59538 0.0
H2520 H 0.64495 0.89214 0.61743 0.0
H2521 H 0.67377 0.87847 0.5952 0.0
H2522 H 0.68099 0.8953 0.61799 0.0
H2523 H 0.67066 0.86814 0.5578 0.0
H2524 H 0.64164 0.84611 0.59746 0.0
H2525 H 0.67683 0.8527 0.55709 0.0
H2526 H 0.64841 0.83086 0.59796 0.0
H2527 H 0.69537 0.80367 0.54927 0.0
H2528 H 0.69225 0.79122 0.52092 0.0
H2529 H 0.65315 0.77845 0.52311 0.0
H2530 H 0.65631 0.79053 0.55167 0.0
H2531 H 0.65786 0.78302 0.58344 0.0
H2532 H 0.65794 0.76823 0.60585 0.0
H2533 H 0.69699 0.79253 0.61521 0.0
H2534 H 0.69672 0.80743 0.5931 0.0
H2535 H 0.69257 0.82829 0.5697 0.0
H2536 H 0.68657 0.84398 0.57318 0.0
H2537 H 0.64856 0.81517 0.58067 0.0
N2538 N 0.67824 0.80404 0.57083 0.0
H2539 H 0.65488 0.79974 0.57875 0.0
C2540 C 0.6518 0.87299 0.55985 0.0
C2541 C 0.66246 0.88403 0.55451 0.0
C2542 C 0.6626 0.89013 0.53791 0.0
C2543 C 0.65214 0.88533 0.52618 0.0
C2544 C 0.64162 0.87412 0.53118 0.0
C2545 C 0.64146 0.86803 0.54791 0.0
C2546 C 0.65509 0.87536 0.59358 0.0
C2547 C 0.64705 0.87914 0.60064 0.0
C2548 C 0.65124 0.88898 0.61333 0.0
C2549 C 0.66362 0.89522 0.61942 0.0
C2550 C 0.67147 0.89087 0.61334 0.0
C2551 C 0.66729 0.88111 0.60044 0.0
C2552 C 0.65542 0.8582 0.57745 0.0
C2553 C 0.6656 0.86002 0.56648 0.0
C2554 C 0.66928 0.85117 0.5663 0.0
C2555 C 0.66315 0.84043 0.57746 0.0
C2556 C 0.65321 0.83883 0.58884 0.0
C2557 C 0.64937 0.84759 0.58871 0.0
C2558 C 0.67616 0.79815 0.55259 0.0
C2559 C 0.68617 0.79836 0.54338 0.0
C2560 C 0.68436 0.79125 0.52716 0.0
C2561 C 0.67242 0.78377 0.51977 0.0
C2562 C 0.66243 0.78395 0.52859 0.0
C2563 C 0.66426 0.79101 0.54489 0.0
C2564 C 0.67733 0.79637 0.58663 0.0
C2565 C 0.66634 0.78538 0.59078 0.0
C2566 C 0.66643 0.77685 0.60347 0.0
C2567 C 0.6775 0.77912 0.61215 0.0
C2568 C 0.68828 0.79052 0.60894 0.0
C2569 C 0.68816 0.79904 0.59629 0.0
C2570 C 0.6742 0.81287 0.57356 0.0
C2571 C 0.68297 0.82543 0.57224 0.0
C2572 C 0.67947 0.83437 0.57405 0.0
C2573 C 0.66701 0.83091 0.57689 0.0
C2574 C 0.65825 0.81826 0.57864 0.0
C2575 C 0.66183 0.80934 0.57723 0.0
H2576 H 0.23537 0.85836 0.55381 0.0
N2577 N 0.22029 0.86126 0.57699 0.0
H2578 H 0.24366 0.8688 0.52335 0.0
H2579 H 0.21345 0.87607 0.55806 0.0
H2580 H 0.22127 0.88602 0.52757 0.0
H2581 H 0.20996 0.87428 0.59174 0.0
H2582 H 0.22079 0.89295 0.61113 0.0
H2583 H 0.24151 0.86919 0.59486 0.0
H2584 H 0.25229 0.88762 0.61471 0.0
H2585 H 0.21598 0.84017 0.59235 0.0
H2586 H 0.19744 0.85806 0.56787 0.0
H2587 H 0.19623 0.82098 0.59517 0.0
H2588 H 0.17789 0.83889 0.56949 0.0
H2589 H 0.12858 0.75872 0.56573 0.0
H2590 H 0.11814 0.75096 0.53562 0.0
H2591 H 0.13137 0.78848 0.51689 0.0
H2592 H 0.14075 0.79601 0.54778 0.0
H2593 H 0.12206 0.78828 0.57602 0.0
H2594 H 0.10319 0.77949 0.59486 0.0
H2595 H 0.11653 0.75991 0.62899 0.0
H2596 H 0.13533 0.76861 0.60974 0.0
H2597 H 0.16259 0.78561 0.57422 0.0
H2598 H 0.182 0.80519 0.57542 0.0
H2599 H 0.16187 0.82408 0.58834 0.0
N2600 N 0.1399 0.78179 0.57819 0.0
H2601 H 0.14255 0.80459 0.58607 0.0
C2602 C 0.22362 0.86618 0.55808 0.0
C2603 C 0.2321 0.8642 0.54794 0.0
C2604 C 0.23685 0.87019 0.53067 0.0
C2605 C 0.23302 0.87812 0.52315 0.0
C2606 C 0.2242 0.87978 0.53296 0.0
C2607 C 0.21965 0.874 0.55038 0.0
C2608 C 0.22503 0.87044 0.59172 0.0
C2609 C 0.21908 0.87699 0.59702 0.0
C2610 C 0.22527 0.88764 0.60817 0.0
C2611 C 0.23747 0.89186 0.61417 0.0
C2612 C 0.24299 0.88473 0.61 0.0
C2613 C 0.23682 0.87415 0.59885 0.0
C2614 C 0.2083 0.85051 0.57966 0.0
C2615 C 0.20764 0.83995 0.58759 0.0
C2616 C 0.19635 0.82897 0.58899 0.0
C2617 C 0.18542 0.82827 0.58227 0.0
C2618 C 0.18605 0.83904 0.57495 0.0
C2619 C 0.19734 0.85007 0.5738 0.0
C2620 C 0.13553 0.7779 0.55908 0.0
C2621 C 0.12933 0.76525 0.555 0.0
C2622 C 0.12343 0.76085 0.53763 0.0
C2623 C 0.12385 0.76905 0.52357 0.0
C2624 C 0.13057 0.78182 0.5274 0.0
C2625 C 0.13616 0.78619 0.54505 0.0
C2626 C 0.13009 0.77903 0.59148 0.0
C2627 C 0.12109 0.78238 0.5879 0.0
C2628 C 0.11029 0.77736 0.59871 0.0
C2629 C 0.1083 0.76888 0.61328 0.0
C2630 C 0.11772 0.76626 0.61767 0.0
C2631 C 0.1285 0.77129 0.60684 0.0
C2632 C 0.15111 0.79353 0.58021 0.0
C2633 C 0.16241 0.79399 0.57742 0.0
C2634 C 0.1735 0.8052 0.57826 0.0
C2635 C 0.17357 0.81628 0.58212 0.0
C2636 C 0.16221 0.81579 0.58513 0.0
C2637 C 0.15109 0.80456 0.58403 0.0
H2638 H 0.21423 0.33187 0.55386 0.0
N2639 N 0.21425 0.35154 0.57113 0.0
H2640 H 0.22501 0.33237 0.52499 0.0
H2641 H 0.22665 0.37067 0.54784 0.0
H2642 H 0.23751 0.3712 0.51851 0.0
H2643 H 0.23526 0.36446 0.58995 0.0
H2644 H 0.24527 0.35644 0.61065 0.0
H2645 H 0.20327 0.32807 0.5859 0.0
H2646 H 0.21302 0.32005 0.60708 0.0
H2647 H 0.1957 0.33328 0.54909 0.0
H2648 H 0.2028 0.35957 0.5938 0.0
H2649 H 0.17402 0.32651 0.55038 0.0
H2650 H 0.18066 0.35219 0.59596 0.0
H2651 H 0.10561 0.30416 0.5495 0.0
H2652 H 0.0966 0.3071 0.52062 0.0
H2653 H 0.12338 0.34611 0.52194 0.0
H2654 H 0.13195 0.34315 0.5511 0.0
H2655 H 0.12111 0.34097 0.58214 0.0
H2656 H 0.10571 0.33996 0.60439 0.0
H2657 H 0.09477 0.30205 0.61705 0.0
H2658 H 0.11009 0.3031 0.59438 0.0
H2659 H 0.13433 0.30803 0.56679 0.0
H2660 H 0.15635 0.31504 0.56845 0.0
H2661 H 0.16388 0.35207 0.58058 0.0
N2662 N 0.12346 0.32136 0.57059 0.0
H2663 H 0.14177 0.34472 0.58017 0.0
C2664 C 0.21957 0.35128 0.55305 0.0
C2665 C 0.21915 0.34049 0.54622 0.0
C2666 C 0.22528 0.34076 0.52959 0.0
C2667 C 0.23207 0.35181 0.51946 0.0
C2668 C 0.23238 0.36256 0.5261 0.0
C2669 C 0.22613 0.36226 0.54273 0.0
C2670 C 0.21858 0.34694 0.58632 0.0
C2671 C 0.23025 0.35483 0.59406 0.0
C2672 C 0.23592 0.35022 0.60593 0.0
C2673 C 0.22998 0.33757 0.61039 0.0
C2674 C 0.21792 0.3298 0.60367 0.0
C2675 C 0.21228 0.33442 0.59169 0.0
C2676 C 0.20111 0.34716 0.57128 0.0
C2677 C 0.19271 0.33764 0.5593 0.0
C2678 C 0.18011 0.3336 0.56022 0.0
C2679 C 0.17549 0.3387 0.57338 0.0
C2680 C 0.18387 0.34814 0.58545 0.0
C2681 C 0.19653 0.35234 0.58432 0.0
C2682 C 0.11948 0.32335 0.55243 0.0
C2683 C 0.10962 0.3133 0.54336 0.0
C2684 C 0.10453 0.31501 0.52683 0.0
C2685 C 0.10926 0.32686 0.51894 0.0
C2686 C 0.1194 0.33689 0.52776 0.0
C2687 C 0.12442 0.33518 0.5444 0.0
C2688 C 0.11666 0.32203 0.58653 0.0
C2689 C 0.11568 0.33257 0.59009 0.0
C2690 C 0.10686 0.33198 0.60287 0.0
C2691 C 0.0989 0.32086 0.61227 0.0
C2692 C 0.10063 0.31068 0.60978 0.0
C2693 C 0.10942 0.31128 0.59699 0.0
C2694 C 0.13643 0.32584 0.57304 0.0
C2695 C 0.14077 0.31762 0.57002 0.0
C2696 C 0.15337 0.3217 0.57078 0.0
C2697 C 0.16198 0.33421 0.57427 0.0
C2698 C 0.15756 0.34238 0.57794 0.0
C2699 C 0.14489 0.33821 0.5775 0.0
C2700 C 0.99172 0.40922 0.09048 0.0
C2701 C 0.99438 0.39972 0.09384 0.0
C2702 C 0.99146 0.41653 0.10535 0.0
C2703 C 0.99416 0.41447 0.124 0.0
C2704 C 0.99695 0.40499 0.12751 0.0
C2705 C 0.99692 0.39767 0.11243 0.0
C2706 C 0.98832 0.42647 0.10109 0.0
C2707 C 1.0 0.4026 0.1472 0.0
C2708 C 0.00521 0.44042 0.16 0.0
C2709 C 0.99467 0.43654 0.17129 0.0
C2710 C 0.00515 0.43338 0.14448 0.0
C2711 C 0.99419 0.42231 0.13987 0.0
C2712 C 0.98339 0.41856 0.15074 0.0
C2713 C 0.98378 0.42566 0.1664 0.0
C2714 C 0.01688 0.43764 0.1333 0.0
C2715 C 0.97148 0.4069 0.14608 0.0
H2716 H 0.98997 0.41106 0.07616 0.0
H2717 H 0.99879 0.39025 0.11527 0.0
H2718 H 0.98032 0.42504 0.1098 0.0
H2719 H 0.9962 0.43564 0.1049 0.0
H2720 H 0.98604 0.42662 0.08591 0.0
H2721 H 0.00218 0.39502 0.1475 0.0
H2722 H 0.00804 0.4111 0.15288 0.0
H2723 H 0.99211 0.40017 0.15685 0.0
H2724 H 0.0136 0.44893 0.16338 0.0
H2725 H 0.97562 0.42248 0.17514 0.0
H2726 H 0.01528 0.43869 0.11813 0.0
H2727 H 0.01977 0.43059 0.13414 0.0
H2728 H 0.02457 0.44656 0.13854 0.0
H2729 H 0.96897 0.40702 0.13104 0.0
H2730 H 0.9637 0.40569 0.15517 0.0
H2731 H 0.9727 0.39877 0.14798 0.0
C2732 C 0.59671 0.58926 0.10163 0.0
C2733 C 0.60705 0.5899 0.09282 0.0
C2734 C 0.59107 0.58142 0.11715 0.0
C2735 C 0.59581 0.57396 0.12388 0.0
C2736 C 0.60612 0.57439 0.11481 0.0
C2737 C 0.61166 0.58243 0.09944 0.0
C2738 C 0.58018 0.58132 0.12657 0.0
C2739 C 0.61134 0.56646 0.12146 0.0
C2740 C 0.58883 0.56358 0.1751 0.0
C2741 C 0.57855 0.55171 0.17324 0.0
C2742 C 0.59469 0.57082 0.15913 0.0
C2743 C 0.59022 0.56603 0.14083 0.0
C2744 C 0.58008 0.5539 0.13883 0.0
C2745 C 0.5743 0.54691 0.15508 0.0
C2746 C 0.60539 0.58376 0.16186 0.0
C2747 C 0.57516 0.54843 0.11954 0.0
H2748 H 0.59321 0.59512 0.09666 0.0
H2749 H 0.61958 0.58282 0.0925 0.0
H2750 H 0.57212 0.57182 0.12665 0.0
H2751 H 0.58246 0.58429 0.14156 0.0
H2752 H 0.57748 0.58752 0.11938 0.0
H2753 H 0.61905 0.5675 0.11237 0.0
H2754 H 0.61476 0.56896 0.1362 0.0
H2755 H 0.60399 0.5566 0.12154 0.0
H2756 H 0.59202 0.56739 0.18912 0.0
H2757 H 0.56641 0.5377 0.15362 0.0
H2758 H 0.60292 0.59054 0.15626 0.0
H2759 H 0.61354 0.58501 0.15378 0.0
H2760 H 0.60803 0.58593 0.17699 0.0
H2761 H 0.57142 0.55375 0.11236 0.0
H2762 H 0.56774 0.53861 0.12038 0.0
H2763 H 0.58273 0.54906 0.11055 0.0
C2764 C 0.40986 0.02025 0.10591 0.0
C2765 C 0.40626 0.01063 0.0928 0.0
C2766 C 0.41734 0.02137 0.12148 0.0
C2767 C 0.42119 0.01257 0.12406 0.0
C2768 C 0.4178 0.003 0.11064 0.0
C2769 C 0.4104 0.00217 0.09514 0.0
C2770 C 0.42088 0.03177 0.1354 0.0
C2771 C 0.42161 0.99337 0.113 0.0
C2772 C 0.44738 0.01884 0.15784 0.0
C2773 C 0.44086 0.01223 0.17396 0.0
C2774 C 0.44112 0.01925 0.14157 0.0
C2775 C 0.42805 0.01286 0.14142 0.0
C2776 C 0.42144 0.00635 0.15775 0.0
C2777 C 0.42792 0.00618 0.17382 0.0
C2778 C 0.44847 0.02633 0.12444 0.0
C2779 C 0.40749 0.99942 0.15816 0.0
H2780 H 0.4068 0.0269 0.10401 0.0
H2781 H 0.40752 0.99463 0.08515 0.0
H2782 H 0.41663 0.02796 0.14938 0.0
H2783 H 0.43104 0.03695 0.13747 0.0
H2784 H 0.41787 0.03832 0.13066 0.0
H2785 H 0.41878 0.98693 0.10077 0.0
H2786 H 0.43177 0.99787 0.11468 0.0
H2787 H 0.41737 0.98793 0.12603 0.0
H2788 H 0.45738 0.02347 0.1578 0.0
H2789 H 0.42281 0.00129 0.18636 0.0
H2790 H 0.44571 0.03311 0.11999 0.0
H2791 H 0.44649 0.01989 0.11241 0.0
H2792 H 0.45858 0.03132 0.12716 0.0
H2793 H 0.40397 0.0058 0.15502 0.0
H2794 H 0.40375 0.99496 0.17208 0.0
H2795 H 0.40385 0.99218 0.14704 0.0
C2796 C 0.408 0.9957 0.92633 0.0
C2797 C 0.39512 0.99039 0.92558 0.0
C2798 C 0.41458 0.99466 0.91106 0.0
C2799 C 0.40813 0.98814 0.89462 0.0
C2800 C 0.39513 0.98268 0.8938 0.0
C2801 C 0.38878 0.98389 0.90929 0.0
C2802 C 0.42846 0.00067 0.9124 0.0
C2803 C 0.38794 0.97563 0.87653 0.0
C2804 C 0.42577 0.9957 0.84827 0.0
C2805 C 0.42828 0.98599 0.84665 0.0
C2806 C 0.41927 0.99652 0.86383 0.0
C2807 C 0.41505 0.98734 0.87807 0.0
C2808 C 0.41748 0.97748 0.87652 0.0
C2809 C 0.4241 0.97693 0.86085 0.0
C2810 C 0.41686 0.00719 0.86499 0.0
C2811 C 0.41311 0.96751 0.89144 0.0
H2812 H 0.41297 0.00088 0.93878 0.0
H2813 H 0.37881 0.97963 0.90873 0.0
H2814 H 0.43134 0.99371 0.91004 0.0
H2815 H 0.43284 0.00777 0.90116 0.0
H2816 H 0.43204 0.00513 0.92637 0.0
H2817 H 0.37783 0.97173 0.8783 0.0
H2818 H 0.39102 0.98179 0.86398 0.0
H2819 H 0.38974 0.96796 0.87351 0.0
H2820 H 0.42874 0.0026 0.83719 0.0
H2821 H 0.4261 0.96946 0.85979 0.0
H2822 H 0.4208 0.01243 0.8783 0.0
H2823 H 0.40677 0.00368 0.86533 0.0
H2824 H 0.4209 0.01364 0.85284 0.0
H2825 H 0.41718 0.97166 0.90537 0.0
H2826 H 0.41562 0.96038 0.88802 0.0
H2827 H 0.40293 0.96294 0.89294 0.0
C2828 C 0.99231 0.39551 0.90644 0.0
C2829 C 0.99872 0.40094 0.92325 0.0
C2830 C 0.99113 0.40265 0.89216 0.0
C2831 C 0.99655 0.41556 0.8947 0.0
C2832 C 0.00335 0.42116 0.91137 0.0
C2833 C 0.00432 0.41378 0.92547 0.0
C2834 C 0.98383 0.39633 0.87455 0.0
C2835 C 0.0093 0.43491 0.91453 0.0
C2836 C 0.00027 0.43439 0.85045 0.0
C2837 C 0.98974 0.43564 0.85131 0.0
C2838 C 0.00282 0.42819 0.86476 0.0
C2839 C 0.9946 0.42306 0.88024 0.0
C2840 C 0.98416 0.42461 0.88148 0.0
C2841 C 0.98188 0.43091 0.86704 0.0
C2842 C 0.01408 0.42678 0.86301 0.0
C2843 C 0.9752 0.41929 0.8978 0.0
H2844 H 0.98813 0.38562 0.90448 0.0
H2845 H 0.00917 0.41804 0.93851 0.0
H2846 H 0.97568 0.39761 0.8735 0.0
H2847 H 0.98955 0.40056 0.86175 0.0
H2848 H 0.98056 0.38628 0.87447 0.0
H2849 H 0.01494 0.43793 0.92768 0.0
H2850 H 0.01529 0.44 0.90234 0.0
H2851 H 0.00207 0.43754 0.91554 0.0
H2852 H 0.00632 0.4379 0.83824 0.0
H2853 H 0.97383 0.43201 0.86794 0.0
H2854 H 0.01118 0.4169 0.86108 0.0
H2855 H 0.01966 0.42995 0.87617 0.0
H2856 H 0.02002 0.43208 0.85085 0.0
H2857 H 0.97082 0.40908 0.8978 0.0
H2858 H 0.96781 0.42175 0.89706 0.0
H2859 H 0.98016 0.42266 0.91146 0.0
C2860 C 0.58847 0.61176 0.91679 0.0
C2861 C 0.59379 0.6059 0.92677 0.0
C2862 C 0.58076 0.60604 0.90112 0.0
C2863 C 0.57829 0.59417 0.89541 0.0
C2864 C 0.58343 0.58811 0.90571 0.0
C2865 C 0.59113 0.59406 0.92123 0.0
C2866 C 0.57551 0.61283 0.89041 0.0
C2867 C 0.58095 0.57541 0.90014 0.0
C2868 C 0.55122 0.57421 0.86305 0.0
C2869 C 0.55721 0.57573 0.84564 0.0
C2870 C 0.55792 0.58038 0.87935 0.0
C2871 C 0.57087 0.5883 0.87811 0.0
C2872 C 0.57687 0.59017 0.86042 0.0
C2873 C 0.56997 0.58384 0.84442 0.0
C2874 C 0.55122 0.57813 0.89799 0.0
C2875 C 0.59064 0.59863 0.85848 0.0
H2876 H 0.59057 0.62095 0.92094 0.0
H2877 H 0.59507 0.58941 0.9291 0.0
H2878 H 0.5792 0.61473 0.87575 0.0
H2879 H 0.56533 0.60702 0.88935 0.0
H2880 H 0.5778 0.62172 0.89724 0.0
H2881 H 0.58519 0.57174 0.91014 0.0
H2882 H 0.57086 0.56887 0.89958 0.0
H2883 H 0.58468 0.57574 0.88575 0.0
H2884 H 0.54137 0.56789 0.86404 0.0
H2885 H 0.57459 0.5852 0.8309 0.0
H2886 H 0.5533 0.58704 0.90451 0.0
H2887 H 0.55447 0.57351 0.90797 0.0
H2888 H 0.54106 0.57228 0.89636 0.0
H2889 H 0.59334 0.60794 0.86405 0.0
H2890 H 0.59378 0.59958 0.84354 0.0
H2891 H 0.59559 0.59501 0.86699 0.0
C2892 C 0.00767 0.59373 0.93148 0.0
C2893 C 0.00293 0.60163 0.92822 0.0
C2894 C 0.00882 0.5869 0.91666 0.0
C2895 C 0.00512 0.58799 0.89815 0.0
C2896 C 0.00048 0.59607 0.89472 0.0
C2897 C 0.99945 0.6028 0.90979 0.0
C2898 C 0.01387 0.57843 0.92083 0.0
C2899 C 0.99641 0.59746 0.87517 0.0
C2900 C 0.01671 0.57842 0.85534 0.0
C2901 C 0.00645 0.56692 0.8509 0.0
C2902 C 0.01653 0.58526 0.87096 0.0
C2903 C 0.00582 0.58049 0.88239 0.0
C2904 C 0.99556 0.56873 0.8783 0.0
C2905 C 0.996 0.56209 0.86261 0.0
C2906 C 0.02765 0.59776 0.87489 0.0
C2907 C 0.984 0.56331 0.89023 0.0
H2908 H 0.01054 0.59293 0.94565 0.0
H2909 H 0.99564 0.60878 0.90723 0.0
H2910 H 0.00684 0.56877 0.91737 0.0
H2911 H 0.02204 0.58091 0.91179 0.0
H2912 H 0.0166 0.57884 0.93591 0.0
H2913 H 0.99332 0.60438 0.87478 0.0
H2914 H 0.0041 0.60029 0.86495 0.0
H2915 H 0.9887 0.58845 0.87029 0.0
H2916 H 0.02476 0.58227 0.84622 0.0
H2917 H 0.98811 0.55313 0.8594 0.0
H2918 H 0.03071 0.59827 0.88978 0.0
H2919 H 0.02515 0.60504 0.87301 0.0
H2920 H 0.03552 0.59982 0.86536 0.0
H2921 H 0.9863 0.56296 0.90532 0.0
H2922 H 0.97703 0.55385 0.88562 0.0
H2923 H 0.9798 0.56928 0.88939 0.0
C2924 C 0.40084 0.41478 0.92513 0.0
C2925 C 0.39978 0.40325 0.92876 0.0
C2926 C 0.4088 0.42259 0.91097 0.0
C2927 C 0.41583 0.41876 0.90018 0.0
C2928 C 0.41482 0.40716 0.90381 0.0
C2929 C 0.40683 0.39957 0.91808 0.0
C2930 C 0.40964 0.43489 0.90748 0.0
C2931 C 0.42216 0.40276 0.8926 0.0
C2932 C 0.42759 0.43225 0.85142 0.0
C2933 C 0.44014 0.44044 0.85497 0.0
C2934 C 0.41951 0.42538 0.86609 0.0
C2935 C 0.42408 0.42673 0.8848 0.0
C2936 C 0.43667 0.43522 0.88859 0.0
C2937 C 0.44457 0.44196 0.87361 0.0
C2938 C 0.40616 0.41637 0.86147 0.0
C2939 C 0.44186 0.43697 0.90839 0.0
H2940 H 0.39534 0.41763 0.93322 0.0
H2941 H 0.40625 0.39079 0.92104 0.0
H2942 H 0.41935 0.44245 0.90895 0.0
H2943 H 0.4067 0.43526 0.89277 0.0
H2944 H 0.4038 0.43663 0.91742 0.0
H2945 H 0.42033 0.3935 0.89723 0.0
H2946 H 0.41987 0.4023 0.87732 0.0
H2947 H 0.43218 0.4094 0.89411 0.0
H2948 H 0.42415 0.43089 0.83701 0.0
H2949 H 0.45423 0.44838 0.87645 0.0
H2950 H 0.39999 0.41814 0.87058 0.0
H2951 H 0.40412 0.40682 0.86443 0.0
H2952 H 0.40392 0.41692 0.8464 0.0
H2953 H 0.43638 0.43923 0.91828 0.0
H2954 H 0.45167 0.44443 0.90913 0.0
H2955 H 0.44118 0.42826 0.91341 0.0
C2956 C 0.58499 0.99563 0.93211 0.0
C2957 C 0.5942 0.99254 0.92897 0.0
C2958 C 0.57678 0.9945 0.91765 0.0
C2959 C 0.57788 0.99032 0.89954 0.0
C2960 C 0.58719 0.98725 0.89622 0.0
C2961 C 0.59519 0.98834 0.91099 0.0
C2962 C 0.56694 0.99781 0.92175 0.0
C2963 C 0.5887 0.98281 0.87705 0.0
C2964 C 0.5508 0.97669 0.86534 0.0
C2965 C 0.55397 0.98662 0.85301 0.0
C2966 C 0.55833 0.97786 0.88086 0.0
C2967 C 0.56936 0.98919 0.88397 0.0
C2968 C 0.57247 0.99933 0.8718 0.0
C2969 C 0.56471 0.99794 0.85651 0.0
C2970 C 0.55462 0.96689 0.89368 0.0
C2971 C 0.58421 0.01153 0.87456 0.0
H2972 H 0.58427 0.99908 0.94585 0.0
H2973 H 0.60214 0.98575 0.90849 0.0
H2974 H 0.56819 0.00547 0.91237 0.0
H2975 H 0.55768 0.9898 0.91869 0.0
H2976 H 0.56714 0.00066 0.93671 0.0
H2977 H 0.59652 0.98098 0.87671 0.0
H2978 H 0.58011 0.9742 0.87315 0.0
H2979 H 0.59028 0.9898 0.86608 0.0
H2980 H 0.54245 0.96796 0.86274 0.0
H2981 H 0.56727 0.00559 0.84686 0.0
H2982 H 0.55435 0.9695 0.90862 0.0
H2983 H 0.56158 0.96389 0.89281 0.0
H2984 H 0.54545 0.95895 0.88991 0.0
H2985 H 0.58459 0.01502 0.88913 0.0
H2986 H 0.58503 0.01865 0.86432 0.0
H2987 H 0.59231 0.01025 0.87282 0.0
C2988 C 0.59361 0.99284 0.10534 0.0
C2989 C 0.59989 0.00345 0.09413 0.0
C2990 C 0.58549 0.99208 0.11965 0.0
C2991 C 0.5837 0.00224 0.12294 0.0
C2992 C 0.59007 0.01302 0.11174 0.0
C2993 C 0.59805 0.01347 0.09736 0.0
C2994 C 0.57877 0.98037 0.13116 0.0
C2995 C 0.58852 0.02409 0.11502 0.0
C2996 C 0.55441 0.99512 0.14925 0.0
C2997 C 0.55865 0.99794 0.168 0.0
C2998 C 0.56252 0.99679 0.13434 0.0
C2999 C 0.5752 0.00152 0.13824 0.0
C3000 C 0.57963 0.00485 0.15699 0.0
C3001 C 0.5713 0.00294 0.17165 0.0
C3002 C 0.55745 0.9931 0.11452 0.0
C3003 C 0.59311 0.01 0.16169 0.0
H3004 H 0.59488 0.98501 0.10268 0.0
H3005 H 0.60296 0.02172 0.08878 0.0
H3006 H 0.58112 0.98242 0.14637 0.0
H3007 H 0.56865 0.97645 0.1298 0.0
H3008 H 0.58109 0.97326 0.12665 0.0
H3009 H 0.59415 0.03177 0.1051 0.0
H3010 H 0.57868 0.02143 0.11331 0.0
H3011 H 0.59121 0.02747 0.12975 0.0
H3012 H 0.54469 0.99145 0.14625 0.0
H3013 H 0.57467 0.00498 0.18609 0.0
H3014 H 0.55868 0.98536 0.10961 0.0
H3015 H 0.56261 0.00091 0.10459 0.0
H3016 H 0.54748 0.99017 0.11369 0.0
H3017 H 0.5957 0.00283 0.15923 0.0
H3018 H 0.59524 0.01312 0.17665 0.0
H3019 H 0.59896 0.01791 0.15229 0.0
C3020 C 0.01311 0.60059 0.0953 0.0
C3021 C 0.00286 0.6023 0.09632 0.0
C3022 C 0.01544 0.59422 0.10957 0.0
C3023 C 0.00737 0.58952 0.12529 0.0
C3024 C 0.99698 0.59116 0.12636 0.0
C3025 C 0.99482 0.5975 0.11181 0.0
C3026 C 0.02655 0.59255 0.10784 0.0
C3027 C 0.98824 0.58637 0.14301 0.0
C3028 C 0.00741 0.56429 0.15525 0.0
C3029 C 0.01492 0.57109 0.17051 0.0
C3030 C 0.00493 0.57017 0.14035 0.0
C3031 C 0.00999 0.58313 0.14084 0.0
C3032 C 0.01758 0.59004 0.1562 0.0
C3033 C 0.01999 0.58394 0.17082 0.0
C3034 C 0.99688 0.56251 0.12411 0.0
C3035 C 0.02307 0.60387 0.1573 0.0
H3036 H 0.01924 0.60413 0.0832 0.0
H3037 H 0.98695 0.59888 0.11269 0.0
H3038 H 0.03289 0.59707 0.11996 0.0
H3039 H 0.02361 0.58259 0.10837 0.0
H3040 H 0.03173 0.59651 0.09448 0.0
H3041 H 0.9805 0.58826 0.14156 0.0
H3042 H 0.98436 0.57627 0.14447 0.0
H3043 H 0.99332 0.59072 0.15628 0.0
H3044 H 0.00355 0.55436 0.15491 0.0
H3045 H 0.02563 0.58921 0.18274 0.0
H3046 H 0.00201 0.56581 0.11056 0.0
H3047 H 0.98862 0.56359 0.12303 0.0
H3048 H 0.99377 0.55255 0.12576 0.0
H3049 H 0.02891 0.60832 0.14469 0.0
H3050 H 0.02878 0.60787 0.17022 0.0
H3051 H 0.01559 0.60618 0.15727 0.0
C3052 C 0.42025 0.39724 0.09454 0.0
C3053 C 0.40904 0.39721 0.09379 0.0
C3054 C 0.42875 0.40332 0.1092 0.0
C3055 C 0.426 0.40962 0.12332 0.0
C3056 C 0.41477 0.40978 0.12245 0.0
C3057 C 0.40639 0.4035 0.10775 0.0
C3058 C 0.44054 0.4028 0.10979 0.0
C3059 C 0.41158 0.41652 0.13713 0.0
C3060 C 0.44113 0.41483 0.1716 0.0
C3061 C 0.4506 0.42721 0.17045 0.0
C3062 C 0.43321 0.40896 0.15626 0.0
C3063 C 0.43466 0.41566 0.1394 0.0
C3064 C 0.4442 0.42813 0.13805 0.0
C3065 C 0.45211 0.43374 0.15356 0.0
C3066 C 0.42318 0.39562 0.15821 0.0
C3067 C 0.44597 0.43558 0.12031 0.0
H3068 H 0.42227 0.39228 0.08385 0.0
H3069 H 0.39778 0.40361 0.10707 0.0
H3070 H 0.44864 0.41227 0.11006 0.0
H3071 H 0.44084 0.39811 0.12296 0.0
H3072 H 0.44144 0.39779 0.09746 0.0
H3073 H 0.4027 0.41615 0.13402 0.0
H3074 H 0.41092 0.4124 0.15131 0.0
H3075 H 0.419 0.42633 0.1379 0.0
H3076 H 0.4397 0.40976 0.18469 0.0
H3077 H 0.45948 0.44325 0.15244 0.0
H3078 H 0.42393 0.39004 0.14662 0.0
H3079 H 0.41399 0.39487 0.15694 0.0
H3080 H 0.42363 0.39157 0.17199 0.0
H3081 H 0.44757 0.43104 0.108 0.0
H3082 H 0.45387 0.44515 0.12149 0.0
H3083 H 0.43748 0.43599 0.11731 0.0
C3084 C 0.65814 0.7406 0.42808 0.0
C3085 C 0.66367 0.73328 0.43006 0.0
C3086 C 0.65906 0.74878 0.44243 0.0
C3087 C 0.66576 0.74974 0.45911 0.0
C3088 C 0.67128 0.74232 0.4613 0.0
C3089 C 0.67012 0.73414 0.44678 0.0
C3090 C 0.653 0.7565 0.43964 0.0
C3091 C 0.67851 0.7431 0.47889 0.0
C3092 C 0.67872 0.77906 0.48849 0.0
C3093 C 0.67035 0.77529 0.50364 0.0
C3094 C 0.67727 0.77087 0.47382 0.0
C3095 C 0.66716 0.75865 0.47421 0.0
C3096 C 0.65853 0.75486 0.48922 0.0
C3097 C 0.66025 0.7632 0.50379 0.0
C3098 C 0.68668 0.77524 0.45804 0.0
C3099 C 0.64759 0.74191 0.49007 0.0
H3100 H 0.65331 0.74016 0.41509 0.0
H3101 H 0.67426 0.72839 0.44855 0.0
H3102 H 0.64658 0.75497 0.45152 0.0
H3103 H 0.66011 0.76644 0.43969 0.0
H3104 H 0.64777 0.75435 0.42613 0.0
H3105 H 0.68217 0.73664 0.47843 0.0
H3106 H 0.68637 0.75264 0.48061 0.0
H3107 H 0.67257 0.74097 0.4916 0.0
H3108 H 0.68644 0.78842 0.48813 0.0
H3109 H 0.65385 0.76013 0.51557 0.0
H3110 H 0.68205 0.77406 0.44416 0.0
H3111 H 0.69121 0.76956 0.45773 0.0
H3112 H 0.69391 0.78509 0.45967 0.0
H3113 H 0.64212 0.73977 0.47681 0.0
H3114 H 0.64143 0.74059 0.50226 0.0
H3115 H 0.65084 0.73516 0.49127 0.0
C3116 C 0.26615 0.9153 0.4281 0.0
C3117 C 0.26727 0.92704 0.42885 0.0
C3118 C 0.26035 0.90668 0.4427 0.0
C3119 C 0.2558 0.90996 0.45868 0.0
C3120 C 0.25694 0.92179 0.45964 0.0
C3121 C 0.26253 0.93012 0.44464 0.0
C3122 C 0.25914 0.89408 0.44107 0.0
C3123 C 0.25233 0.92568 0.47658 0.0
C3124 C 0.23159 0.88554 0.49089 0.0
C3125 C 0.23886 0.88543 0.5059 0.0
C3126 C 0.23702 0.89319 0.47509 0.0
C3127 C 0.24999 0.9011 0.47458 0.0
C3128 C 0.25737 0.90089 0.48962 0.0
C3129 C 0.25171 0.89296 0.50504 0.0
C3130 C 0.22887 0.89296 0.45913 0.0
C3131 C 0.2712 0.90936 0.48976 0.0
H3132 H 0.26996 0.91286 0.41619 0.0
H3133 H 0.2631 0.93904 0.44526 0.0
H3134 H 0.26435 0.89275 0.45267 0.0
H3135 H 0.24932 0.88679 0.44259 0.0
H3136 H 0.26265 0.89278 0.42732 0.0
H3137 H 0.25417 0.9353 0.47532 0.0
H3138 H 0.24225 0.91942 0.47829 0.0
H3139 H 0.25685 0.92494 0.48967 0.0
H3140 H 0.22164 0.87967 0.49158 0.0
H3141 H 0.25731 0.89297 0.51679 0.0
H3142 H 0.23218 0.89134 0.44543 0.0
H3143 H 0.22935 0.90203 0.45811 0.0
H3144 H 0.21907 0.88569 0.46112 0.0
H3145 H 0.27533 0.90799 0.47675 0.0
H3146 H 0.27564 0.90781 0.50229 0.0
H3147 H 0.27338 0.91911 0.48983 0.0
C3148 C 0.06322 0.32825 0.44278 0.0
C3149 C 0.06887 0.33405 0.42568 0.0
C3150 C 0.07015 0.32749 0.4578 0.0
C3151 C 0.08308 0.33278 0.45578 0.0
C3152 C 0.08889 0.33888 0.43875 0.0
C3153 C 0.08172 0.33938 0.42387 0.0
C3154 C 0.06361 0.32088 0.47574 0.0
C3155 C 0.10268 0.34472 0.43616 0.0
C3156 C 0.10155 0.33906 0.50119 0.0
C3157 C 0.10324 0.32878 0.50213 0.0
C3158 C 0.09528 0.34064 0.48594 0.0
C3159 C 0.09044 0.33167 0.47139 0.0
C3160 C 0.09228 0.32139 0.47207 0.0
C3161 C 0.09871 0.32011 0.48737 0.0
C3162 C 0.09358 0.35177 0.48562 0.0
C3163 C 0.08722 0.31161 0.45683 0.0
H3164 H 0.05334 0.3243 0.44444 0.0
H3165 H 0.08616 0.34373 0.41064 0.0
H3166 H 0.06511 0.31298 0.47833 0.0
H3167 H 0.06748 0.32719 0.48805 0.0
H3168 H 0.05351 0.31735 0.4751 0.0
H3169 H 0.10585 0.3496 0.42238 0.0
H3170 H 0.1076 0.3514 0.44774 0.0
H3171 H 0.10537 0.33752 0.43692 0.0
H3172 H 0.10484 0.34571 0.51265 0.0
H3173 H 0.10014 0.31226 0.48781 0.0
H3174 H 0.08363 0.34876 0.48669 0.0
H3175 H 0.09696 0.35679 0.472 0.0
H3176 H 0.09854 0.35827 0.49742 0.0
H3177 H 0.07701 0.30718 0.45632 0.0
H3178 H 0.08969 0.30433 0.45922 0.0
H3179 H 0.09079 0.31586 0.44276 0.0
C3180 C 0.07217 0.32608 0.25163 0.0
C3181 C 0.05994 0.31747 0.25639 0.0
C3182 C 0.07791 0.32424 0.23592 0.0
C3183 C 0.07127 0.31351 0.22469 0.0
C3184 C 0.05903 0.30461 0.2297 0.0
C3185 C 0.05349 0.30671 0.24548 0.0
C3186 C 0.09096 0.33399 0.23099 0.0
C3187 C 0.05169 0.29303 0.21812 0.0
C3188 C 0.08187 0.31711 0.17368 0.0
C3189 C 0.08958 0.31196 0.17406 0.0
C3190 C 0.07553 0.31728 0.18992 0.0
C3191 C 0.07688 0.31213 0.20697 0.0
C3192 C 0.08422 0.30644 0.20727 0.0
C3193 C 0.0905 0.30641 0.19077 0.0
C3194 C 0.06773 0.32337 0.18897 0.0
C3195 C 0.08584 0.30081 0.22519 0.0
H3196 H 0.07715 0.33448 0.25986 0.0
H3197 H 0.0441 0.29993 0.24927 0.0
H3198 H 0.09688 0.32976 0.22958 0.0
H3199 H 0.09104 0.3382 0.21711 0.0
H3200 H 0.09509 0.34143 0.24179 0.0
H3201 H 0.04261 0.28662 0.22466 0.0
H3202 H 0.05006 0.2955 0.20373 0.0
H3203 H 0.05695 0.28812 0.21641 0.0
H3204 H 0.08095 0.32119 0.16068 0.0
H3205 H 0.09648 0.30246 0.19114 0.0
H3206 H 0.07175 0.33162 0.19829 0.0
H3207 H 0.05827 0.31697 0.19419 0.0
H3208 H 0.06708 0.32631 0.17436 0.0
H3209 H 0.09104 0.30819 0.23576 0.0
H3210 H 0.09091 0.29576 0.22266 0.0
H3211 H 0.07672 0.29435 0.23151 0.0
C3212 C 0.68141 0.74221 0.24549 0.0
C3213 C 0.67398 0.7412 0.26107 0.0
C3214 C 0.68306 0.75015 0.23033 0.0
C3215 C 0.6774 0.75751 0.23093 0.0
C3216 C 0.67008 0.75673 0.24671 0.0
C3217 C 0.66833 0.74848 0.26146 0.0
C3218 C 0.69078 0.75059 0.2136 0.0
C3219 C 0.66406 0.76458 0.24799 0.0
C3220 C 0.6912 0.78543 0.19839 0.0
C3221 C 0.68279 0.78117 0.18331 0.0
C3222 C 0.68934 0.77798 0.21431 0.0
C3223 C 0.679 0.76587 0.21486 0.0
C3224 C 0.67042 0.76159 0.19972 0.0
C3225 C 0.67236 0.76936 0.1842 0.0
C3226 C 0.69852 0.78297 0.23039 0.0
C3227 C 0.65944 0.74866 0.1996 0.0
H3228 H 0.68604 0.73685 0.24515 0.0
H3229 H 0.66238 0.74764 0.27318 0.0
H3230 H 0.68524 0.74832 0.2004 0.0
H3231 H 0.69878 0.76004 0.21191 0.0
H3232 H 0.6943 0.74404 0.2151 0.0
H3233 H 0.65917 0.76333 0.26166 0.0
H3234 H 0.67112 0.77448 0.2464 0.0
H3235 H 0.65733 0.76221 0.23628 0.0
H3236 H 0.69925 0.7946 0.19765 0.0
H3237 H 0.66595 0.76603 0.17239 0.0
H3238 H 0.70331 0.77756 0.23165 0.0
H3239 H 0.69367 0.78199 0.24399 0.0
H3240 H 0.70557 0.79284 0.22834 0.0
H3241 H 0.66267 0.74186 0.19984 0.0
H3242 H 0.6535 0.74685 0.18693 0.0
H3243 H 0.65376 0.74707 0.21247 0.0
C3244 C 0.24584 0.93306 0.26204 0.0
C3245 C 0.2587 0.93815 0.26165 0.0
C3246 C 0.23833 0.92515 0.24758 0.0
C3247 C 0.24383 0.92227 0.23239 0.0
C3248 C 0.25683 0.92766 0.23162 0.0
C3249 C 0.2641 0.93552 0.24627 0.0
C3250 C 0.22451 0.91961 0.24883 0.0
C3251 C 0.26305 0.92482 0.21564 0.0
C3252 C 0.22595 0.89206 0.20572 0.0
C3253 C 0.22328 0.89595 0.18862 0.0
C3254 C 0.23227 0.90048 0.22033 0.0
C3255 C 0.23603 0.91311 0.21778 0.0
C3256 C 0.23295 0.91702 0.20084 0.0
C3257 C 0.2266 0.90838 0.18645 0.0
C3258 C 0.23528 0.89593 0.23825 0.0
C3259 C 0.23681 0.9304 0.19761 0.0
H3260 H 0.24162 0.93519 0.27375 0.0
H3261 H 0.27401 0.93927 0.24597 0.0
H3262 H 0.22092 0.92143 0.23558 0.0
H3263 H 0.22004 0.90945 0.25042 0.0
H3264 H 0.22174 0.92334 0.26097 0.0
H3265 H 0.27328 0.93031 0.21657 0.0
H3266 H 0.26018 0.91487 0.21589 0.0
H3267 H 0.26014 0.92672 0.20179 0.0
H3268 H 0.22324 0.88243 0.20755 0.0
H3269 H 0.22465 0.91145 0.1732 0.0
H3270 H 0.232 0.89879 0.25082 0.0
H3271 H 0.24544 0.90015 0.23963 0.0
H3272 H 0.23107 0.88573 0.23846 0.0
H3273 H 0.23393 0.93402 0.20972 0.0
H3274 H 0.23282 0.93176 0.18439 0.0
H3275 H 0.24703 0.93597 0.19668 0.0
C3276 C 0.68521 0.94349 0.23779 0.0
C3277 C 0.68172 0.93768 0.25552 0.0
C3278 C 0.68732 0.93773 0.22236 0.0
C3279 C 0.68603 0.92591 0.22474 0.0
C3280 C 0.68283 0.92011 0.2427 0.0
C3281 C 0.68065 0.92604 0.25785 0.0
C3282 C 0.6907 0.94419 0.2034 0.0
C3283 C 0.6814 0.90752 0.24581 0.0
C3284 C 0.67838 0.9056 0.18121 0.0
C3285 C 0.68995 0.90722 0.17629 0.0
C3286 C 0.67698 0.91159 0.19699 0.0
C3287 C 0.68741 0.91934 0.20821 0.0
C3288 C 0.69912 0.92092 0.20345 0.0
C3289 C 0.70026 0.91489 0.18745 0.0
C3290 C 0.66437 0.90976 0.20149 0.0
C3291 C 0.71042 0.92902 0.2152 0.0
H3292 H 0.68627 0.95258 0.23594 0.0
H3293 H 0.67781 0.92139 0.27141 0.0
H3294 H 0.69949 0.9451 0.19823 0.0
H3295 H 0.68347 0.9386 0.19282 0.0
H3296 H 0.69171 0.95352 0.20404 0.0
H3297 H 0.67966 0.90464 0.2609 0.0
H3298 H 0.6736 0.90056 0.23719 0.0
H3299 H 0.68984 0.90748 0.24107 0.0
H3300 H 0.67042 0.89984 0.17243 0.0
H3301 H 0.7092 0.91609 0.18374 0.0
H3302 H 0.66466 0.91877 0.20098 0.0
H3303 H 0.66161 0.90608 0.21606 0.0
H3304 H 0.65718 0.90333 0.19146 0.0
H3305 H 0.71218 0.93863 0.21523 0.0
H3306 H 0.71879 0.92907 0.20983 0.0
H3307 H 0.70885 0.92579 0.23011 0.0
C3308 C 0.06264 0.75545 0.26635 0.0
C3309 C 0.05801 0.74267 0.26533 0.0
C3310 C 0.06926 0.76326 0.25121 0.0
C3311 C 0.07113 0.75814 0.23452 0.0
C3312 C 0.06635 0.74525 0.23328 0.0
C3313 C 0.05998 0.7377 0.24874 0.0
C3314 C 0.07435 0.77699 0.25313 0.0
C3315 C 0.06805 0.73942 0.21564 0.0
C3316 C 0.07866 0.77572 0.18803 0.0
C3317 C 0.09126 0.77972 0.18612 0.0
C3318 C 0.07202 0.7689 0.20394 0.0
C3319 C 0.0782 0.76623 0.21838 0.0
C3320 C 0.09104 0.77069 0.21683 0.0
C3321 C 0.09739 0.77728 0.20061 0.0
C3322 C 0.05831 0.76413 0.20493 0.0
C3323 C 0.098 0.76823 0.23209 0.0
H3324 H 0.06103 0.75939 0.27896 0.0
H3325 H 0.0567 0.72789 0.24789 0.0
H3326 H 0.08452 0.78197 0.25121 0.0
H3327 H 0.07047 0.78026 0.24189 0.0
H3328 H 0.07222 0.77953 0.26714 0.0
H3329 H 0.06331 0.7292 0.21664 0.0
H3330 H 0.06439 0.74193 0.20312 0.0
H3331 H 0.07802 0.74299 0.21311 0.0
H3332 H 0.07391 0.77752 0.17672 0.0
H3333 H 0.10716 0.78047 0.19916 0.0
H3334 H 0.05593 0.76692 0.21847 0.0
H3335 H 0.05324 0.75389 0.20453 0.0
H3336 H 0.05502 0.76756 0.19303 0.0
H3337 H 0.0963 0.77112 0.2461 0.0
H3338 H 0.10811 0.77315 0.22943 0.0
H3339 H 0.09464 0.75818 0.2329 0.0
C3340 C 0.24901 0.32527 0.26485 0.0
C3341 C 0.26171 0.33028 0.26186 0.0
C3342 C 0.24141 0.32581 0.25068 0.0
C3343 C 0.24671 0.33169 0.23326 0.0
C3344 C 0.25951 0.33662 0.2301 0.0
C3345 C 0.26684 0.33577 0.2444 0.0
C3346 C 0.22777 0.32024 0.25442 0.0
C3347 C 0.26553 0.3431 0.21181 0.0
C3348 C 0.22729 0.32626 0.18912 0.0
C3349 C 0.22609 0.33684 0.18879 0.0
C3350 C 0.23358 0.32423 0.20388 0.0
C3351 C 0.239 0.33308 0.21852 0.0
C3352 C 0.23757 0.34362 0.21854 0.0
C3353 C 0.23106 0.34532 0.20378 0.0
C3354 C 0.23477 0.3128 0.2035 0.0
C3355 C 0.24327 0.3533 0.23386 0.0
H3356 H 0.24502 0.32092 0.27831 0.0
H3357 H 0.27668 0.33978 0.24215 0.0
H3358 H 0.22526 0.32758 0.25424 0.0
H3359 H 0.22237 0.31357 0.24307 0.0
H3360 H 0.225 0.31542 0.2683 0.0
H3361 H 0.27555 0.34623 0.21146 0.0
H3362 H 0.261 0.33686 0.1996 0.0
H3363 H 0.26436 0.35126 0.2099 0.0
H3364 H 0.22366 0.31973 0.17751 0.0
H3365 H 0.22999 0.35339 0.20386 0.0
H3366 H 0.2319 0.30793 0.2173 0.0
H3367 H 0.24457 0.31546 0.20122 0.0
H3368 H 0.22912 0.3063 0.1921 0.0
H3369 H 0.24005 0.34902 0.248 0.0
H3370 H 0.24099 0.36077 0.23215 0.0
H3371 H 0.25346 0.35749 0.23361 0.0
C3372 C 0.27399 0.34219 0.4453 0.0
C3373 C 0.27481 0.34752 0.4275 0.0
C3374 C 0.26724 0.34353 0.46006 0.0
C3375 C 0.26112 0.35032 0.45691 0.0
C3376 C 0.26203 0.35584 0.43904 0.0
C3377 C 0.26887 0.35438 0.42455 0.0
C3378 C 0.26654 0.33756 0.47897 0.0
C3379 C 0.25558 0.36308 0.43513 0.0
C3380 C 0.23391 0.3426 0.48904 0.0
C3381 C 0.23921 0.3521 0.5025 0.0
C3382 C 0.24087 0.34208 0.47387 0.0
C3383 C 0.25345 0.35127 0.47215 0.0
C3384 C 0.25877 0.3611 0.48537 0.0
C3385 C 0.25157 0.36141 0.50038 0.0
C3386 C 0.23483 0.33152 0.45996 0.0
C3387 C 0.27216 0.37105 0.48399 0.0
H3388 H 0.27869 0.33702 0.44771 0.0
H3389 H 0.26933 0.35838 0.41075 0.0
H3390 H 0.26984 0.3446 0.49038 0.0
H3391 H 0.25681 0.33063 0.48222 0.0
H3392 H 0.27213 0.33291 0.47928 0.0
H3393 H 0.25757 0.36717 0.42069 0.0
H3394 H 0.24545 0.35697 0.43659 0.0
H3395 H 0.25846 0.37062 0.44565 0.0
H3396 H 0.22431 0.33547 0.49051 0.0
H3397 H 0.25574 0.36869 0.51086 0.0
H3398 H 0.23938 0.32586 0.46069 0.0
H3399 H 0.236 0.33512 0.4453 0.0
H3400 H 0.22482 0.32545 0.4628 0.0
H3401 H 0.27814 0.36693 0.48592 0.0
H3402 H 0.27471 0.3784 0.4948 0.0
H3403 H 0.27414 0.37535 0.46973 0.0
C3404 C 0.64634 0.92226 0.43735 0.0
C3405 C 0.65731 0.92756 0.42683 0.0
C3406 C 0.64485 0.91499 0.45337 0.0
C3407 C 0.65455 0.91292 0.4589 0.0
C3408 C 0.66558 0.91812 0.44819 0.0
C3409 C 0.66685 0.92541 0.43231 0.0
C3410 C 0.63299 0.90968 0.46454 0.0
C3411 C 0.6761 0.91606 0.45358 0.0
C3412 C 0.65691 0.90501 0.51003 0.0
C3413 C 0.65222 0.89223 0.50903 0.0
C3414 C 0.6575 0.9118 0.49388 0.0
C3415 C 0.65335 0.90568 0.47627 0.0
C3416 C 0.64841 0.89274 0.47522 0.0
C3417 C 0.64786 0.88615 0.49165 0.0
C3418 C 0.66272 0.92557 0.49563 0.0
C3419 C 0.64396 0.88592 0.45666 0.0
H3420 H 0.63899 0.92399 0.43326 0.0
H3421 H 0.67528 0.92934 0.42405 0.0
H3422 H 0.62871 0.89951 0.4656 0.0
H3423 H 0.63497 0.91339 0.47919 0.0
H3424 H 0.62621 0.91186 0.45806 0.0
H3425 H 0.68391 0.92044 0.44342 0.0
H3426 H 0.67956 0.9199 0.46789 0.0
H3427 H 0.67282 0.90603 0.45421 0.0
H3428 H 0.66011 0.9097 0.52351 0.0
H3429 H 0.6443 0.87629 0.49082 0.0
H3430 H 0.65594 0.92811 0.49031 0.0
H3431 H 0.67113 0.93052 0.48677 0.0
H3432 H 0.66515 0.92885 0.51047 0.0
H3433 H 0.63683 0.88763 0.45035 0.0
H3434 H 0.64001 0.8758 0.45834 0.0
H3435 H 0.65174 0.8894 0.44647 0.0
C3436 C 0.08673 0.74205 0.42525 0.0
C3437 C 0.0741 0.73496 0.42966 0.0
C3438 C 0.09558 0.74853 0.43935 0.0
C3439 C 0.0918 0.74751 0.45846 0.0
C3440 C 0.07912 0.74037 0.46308 0.0
C3441 C 0.07043 0.73442 0.44862 0.0
C3442 C 0.10897 0.75639 0.4338 0.0
C3443 C 0.07473 0.73883 0.48336 0.0
C3444 C 0.11467 0.75297 0.49781 0.0
C3445 C 0.1167 0.76419 0.50557 0.0
C3446 C 0.10672 0.74752 0.48233 0.0
C3447 C 0.10106 0.75367 0.47379 0.0
C3448 C 0.10367 0.76535 0.48069 0.0
C3449 C 0.11125 0.77035 0.49669 0.0
C3450 C 0.10397 0.73492 0.47565 0.0
C3451 C 0.09815 0.7724 0.47156 0.0
H3452 H 0.08981 0.74244 0.4108 0.0
H3453 H 0.06074 0.72934 0.4523 0.0
H3454 H 0.1128 0.76584 0.43967 0.0
H3455 H 0.11444 0.75246 0.43984 0.0
H3456 H 0.11026 0.75707 0.41819 0.0
H3457 H 0.06461 0.73255 0.48465 0.0
H3458 H 0.07949 0.73506 0.49206 0.0
H3459 H 0.07709 0.74792 0.48944 0.0
H3460 H 0.11908 0.74826 0.50406 0.0
H3461 H 0.11253 0.77891 0.50254 0.0
H3462 H 0.10612 0.73519 0.46037 0.0
H3463 H 0.09397 0.72823 0.47739 0.0
H3464 H 0.10928 0.73146 0.48361 0.0
H3465 H 0.09938 0.77272 0.45596 0.0
H3466 H 0.10236 0.782 0.47698 0.0
H3467 H 0.08809 0.76763 0.47439 0.0
C3468 C 0.32464 0.06462 0.77606 0.0
C3469 C 0.31723 0.06146 0.75985 0.0
C3470 C 0.32299 0.07101 0.79105 0.0
C3471 C 0.31349 0.07402 0.78993 0.0
C3472 C 0.30585 0.07065 0.77367 0.0
C3473 C 0.30792 0.06453 0.75869 0.0
C3474 C 0.33149 0.07466 0.80798 0.0
C3475 C 0.29545 0.07344 0.77217 0.0
C3476 C 0.30335 0.08045 0.83714 0.0
C3477 C 0.30958 0.09341 0.83749 0.0
C3478 C 0.30414 0.07402 0.82143 0.0
C3479 C 0.31161 0.08069 0.80584 0.0
C3480 C 0.31776 0.09375 0.80589 0.0
C3481 C 0.31654 0.09994 0.82159 0.0
C3482 C 0.29726 0.06008 0.82175 0.0
C3483 C 0.32594 0.10119 0.78962 0.0
H3484 H 0.33192 0.06233 0.77681 0.0
H3485 H 0.30216 0.062 0.74613 0.0
H3486 H 0.33623 0.08481 0.81001 0.0
H3487 H 0.32608 0.07034 0.821 0.0
H3488 H 0.3386 0.07187 0.80643 0.0
H3489 H 0.29018 0.06995 0.75876 0.0
H3490 H 0.289 0.06919 0.78425 0.0
H3491 H 0.29916 0.08354 0.77298 0.0
H3492 H 0.29811 0.07526 0.84939 0.0
H3493 H 0.32119 0.10993 0.82147 0.0
H3494 H 0.30393 0.0567 0.82233 0.0
H3495 H 0.29177 0.05637 0.80858 0.0
H3496 H 0.29095 0.05627 0.8341 0.0
H3497 H 0.33366 0.0993 0.78809 0.0
H3498 H 0.32985 0.11127 0.79164 0.0
H3499 H 0.32066 0.09842 0.77615 0.0
C3500 C 0.92319 0.25199 0.76309 0.0
C3501 C 0.93583 0.25676 0.75968 0.0
C3502 C 0.91729 0.24408 0.77844 0.0
C3503 C 0.9242 0.24095 0.79082 0.0
C3504 C 0.93692 0.2456 0.78735 0.0
C3505 C 0.94257 0.2534 0.77179 0.0
C3506 C 0.9037 0.23928 0.78164 0.0
C3507 C 0.9446 0.2425 0.80029 0.0
C3508 C 0.91209 0.23188 0.84093 0.0
C3509 C 0.90652 0.21899 0.8403 0.0
C3510 C 0.91798 0.23913 0.82499 0.0
C3511 C 0.91825 0.23333 0.80792 0.0
C3512 C 0.91269 0.22031 0.80719 0.0
C3513 C 0.90694 0.21328 0.82345 0.0
C3514 C 0.92392 0.25299 0.8264 0.0
C3515 C 0.9127 0.2138 0.78918 0.0
H3516 H 0.91794 0.25466 0.754 0.0
H3517 H 0.95228 0.25687 0.76908 0.0
H3518 H 0.89867 0.22907 0.78275 0.0
H3519 H 0.90236 0.24293 0.79521 0.0
H3520 H 0.89948 0.24197 0.77008 0.0
H3521 H 0.95429 0.24656 0.79531 0.0
H3522 H 0.94469 0.246 0.81477 0.0
H3523 H 0.94048 0.23235 0.80136 0.0
H3524 H 0.91195 0.23634 0.85403 0.0
H3525 H 0.90259 0.20331 0.8229 0.0
H3526 H 0.91956 0.25636 0.81614 0.0
H3527 H 0.93385 0.25742 0.82269 0.0
H3528 H 0.92309 0.25606 0.84082 0.0
H3529 H 0.90787 0.21584 0.77779 0.0
H3530 H 0.90812 0.20364 0.79103 0.0
H3531 H 0.92232 0.21727 0.78434 0.0
C3532 C 0.7397 0.67855 0.77698 0.0
C3533 C 0.74325 0.67836 0.75823 0.0
C3534 C 0.74778 0.68051 0.79207 0.0
C3535 C 0.75962 0.68212 0.7883 0.0
C3536 C 0.76321 0.68183 0.76938 0.0
C3537 C 0.75501 0.68005 0.75454 0.0
C3538 C 0.74368 0.68094 0.81204 0.0
C3539 C 0.77567 0.68331 0.76484 0.0
C3540 C 0.7841 0.69799 0.82626 0.0
C3541 C 0.78331 0.68789 0.83618 0.0
C3542 C 0.77658 0.69626 0.81047 0.0
C3543 C 0.76821 0.68413 0.80422 0.0
C3544 C 0.7677 0.67391 0.81368 0.0
C3545 C 0.77518 0.67591 0.82962 0.0
C3546 C 0.77734 0.70739 0.80081 0.0
C3547 C 0.759 0.66084 0.80728 0.0
H3548 H 0.73064 0.67735 0.77981 0.0
H3549 H 0.75771 0.67978 0.74003 0.0
H3550 H 0.7438 0.67362 0.82074 0.0
H3551 H 0.75019 0.68993 0.81868 0.0
H3552 H 0.73424 0.67969 0.81252 0.0
H3553 H 0.777 0.68273 0.7494 0.0
H3554 H 0.78312 0.69235 0.77012 0.0
H3555 H 0.77673 0.67604 0.77216 0.0
H3556 H 0.79051 0.70729 0.83097 0.0
H3557 H 0.77435 0.66802 0.8373 0.0
H3558 H 0.76831 0.70702 0.80192 0.0
H3559 H 0.77934 0.70735 0.78552 0.0
H3560 H 0.78457 0.71621 0.8071 0.0
H3561 H 0.74931 0.65864 0.80929 0.0
H3562 H 0.76039 0.65398 0.81525 0.0
H3563 H 0.76027 0.65986 0.79196 0.0
C3564 C 0.72515 0.65457 0.57261 0.0
C3565 C 0.7293 0.65496 0.59121 0.0
C3566 C 0.73098 0.65255 0.55717 0.0
C3567 C 0.74136 0.6511 0.56035 0.0
C3568 C 0.74565 0.65154 0.57903 0.0
C3569 C 0.73951 0.65336 0.59425 0.0
C3570 C 0.72606 0.65202 0.53744 0.0
C3571 C 0.75676 0.65015 0.58295 0.0
C3572 C 0.74956 0.6354 0.52161 0.0
C3573 C 0.75864 0.64555 0.51146 0.0
C3574 C 0.74398 0.63707 0.53771 0.0
C3575 C 0.74771 0.64917 0.54403 0.0
C3576 C 0.75718 0.65944 0.5343 0.0
C3577 C 0.76245 0.65751 0.51805 0.0
C3578 C 0.73385 0.62589 0.54764 0.0
C3579 C 0.76152 0.67249 0.54078 0.0
H3580 H 0.71743 0.65601 0.57003 0.0
H3581 H 0.74267 0.65343 0.60856 0.0
H3582 H 0.73323 0.65951 0.52862 0.0
H3583 H 0.72375 0.64313 0.5306 0.0
H3584 H 0.71768 0.65296 0.53744 0.0
H3585 H 0.75905 0.65091 0.59828 0.0
H3586 H 0.75506 0.64107 0.57775 0.0
H3587 H 0.7649 0.65735 0.57518 0.0
H3588 H 0.74671 0.62612 0.51687 0.0
H3589 H 0.76932 0.66543 0.51021 0.0
H3590 H 0.72511 0.62612 0.54696 0.0
H3591 H 0.73617 0.62598 0.56283 0.0
H3592 H 0.73226 0.61709 0.54124 0.0
H3593 H 0.75391 0.67455 0.53933 0.0
H3594 H 0.76956 0.67942 0.53248 0.0
H3595 H 0.76412 0.67353 0.55597 0.0
C3596 C 0.35194 0.07641 0.57857 0.0
C3597 C 0.34519 0.0762 0.59455 0.0
C3598 C 0.35395 0.08452 0.56348 0.0
C3599 C 0.34892 0.09244 0.5643 0.0
C3600 C 0.34215 0.09229 0.58046 0.0
C3601 C 0.34043 0.08422 0.59545 0.0
C3602 C 0.36136 0.08453 0.54659 0.0
C3603 C 0.33647 0.10045 0.58172 0.0
C3604 C 0.36141 0.12022 0.53147 0.0
C3605 C 0.35277 0.11569 0.51665 0.0
C3606 C 0.36033 0.11275 0.54704 0.0
C3607 C 0.35028 0.1005 0.54792 0.0
C3608 C 0.34148 0.0959 0.53311 0.0
C3609 C 0.34289 0.1035 0.51761 0.0
C3610 C 0.36995 0.11793 0.5625 0.0
C3611 C 0.33059 0.08291 0.5336 0.0
H3612 H 0.35573 0.0703 0.57796 0.0
H3613 H 0.33511 0.08397 0.60772 0.0
H3614 H 0.35548 0.08164 0.53372 0.0
H3615 H 0.36914 0.09399 0.54399 0.0
H3616 H 0.36512 0.07822 0.54855 0.0
H3617 H 0.33176 0.09946 0.59548 0.0
H3618 H 0.34368 0.11027 0.57986 0.0
H3619 H 0.32965 0.09811 0.57015 0.0
H3620 H 0.36901 0.12965 0.53096 0.0
H3621 H 0.33631 0.09978 0.50607 0.0
H3622 H 0.37427 0.11211 0.56417 0.0
H3623 H 0.36554 0.11776 0.57622 0.0
H3624 H 0.37732 0.12756 0.55954 0.0
H3625 H 0.33388 0.07616 0.53383 0.0
H3626 H 0.32438 0.08086 0.5212 0.0
H3627 H 0.32516 0.08149 0.54672 0.0
C3628 C 0.91937 0.27511 0.58014 0.0
C3629 C 0.92493 0.26948 0.59015 0.0
C3630 C 0.91186 0.26935 0.56432 0.0
C3631 C 0.90983 0.25766 0.55845 0.0
C3632 C 0.91528 0.25186 0.56865 0.0
C3633 C 0.92279 0.25786 0.58434 0.0
C3634 C 0.90629 0.27586 0.5537 0.0
C3635 C 0.91327 0.23936 0.56288 0.0
C3636 C 0.88268 0.23758 0.52629 0.0
C3637 C 0.88852 0.23948 0.50867 0.0
C3638 C 0.88947 0.24355 0.54262 0.0
C3639 C 0.90237 0.25166 0.54122 0.0
C3640 C 0.90826 0.25382 0.52338 0.0
C3641 C 0.90127 0.24768 0.50734 0.0
C3642 C 0.88289 0.24099 0.56143 0.0
C3643 C 0.92198 0.26249 0.52127 0.0
H3644 H 0.92109 0.28415 0.58448 0.0
H3645 H 0.92693 0.2534 0.5922 0.0
H3646 H 0.90981 0.27773 0.53894 0.0
H3647 H 0.89611 0.26987 0.55292 0.0
H3648 H 0.90846 0.28475 0.56045 0.0
H3649 H 0.91784 0.23593 0.57268 0.0
H3650 H 0.90324 0.23253 0.56249 0.0
H3651 H 0.91693 0.23987 0.54839 0.0
H3652 H 0.87284 0.23118 0.52737 0.0
H3653 H 0.90578 0.24932 0.49368 0.0
H3654 H 0.8846 0.24975 0.56801 0.0
H3655 H 0.88658 0.23669 0.57125 0.0
H3656 H 0.87277 0.23474 0.56002 0.0
H3657 H 0.92451 0.27175 0.52683 0.0
H3658 H 0.92506 0.26346 0.5063 0.0
H3659 H 0.92712 0.25906 0.52974 0.0
C3660 C 0.34583 0.26041 0.59835 0.0
C3661 C 0.346 0.27155 0.59494 0.0
C3662 C 0.34755 0.25392 0.58356 0.0
C3663 C 0.34957 0.25872 0.56493 0.0
C3664 C 0.34986 0.27 0.56141 0.0
C3665 C 0.34803 0.27625 0.57643 0.0
C3666 C 0.34715 0.2419 0.58785 0.0
C3667 C 0.35201 0.27543 0.54172 0.0
C3668 C 0.36468 0.24852 0.52802 0.0
C3669 C 0.35452 0.24033 0.51698 0.0
C3670 C 0.36319 0.25436 0.54393 0.0
C3671 C 0.35122 0.2519 0.54901 0.0
C3672 C 0.34088 0.24335 0.53831 0.0
C3673 C 0.34265 0.23771 0.52239 0.0
C3674 C 0.37444 0.26343 0.555 0.0
C3675 C 0.32796 0.24045 0.54334 0.0
H3676 H 0.34445 0.2568 0.61265 0.0
H3677 H 0.34799 0.28475 0.57359 0.0
H3678 H 0.3397 0.23432 0.57949 0.0
H3679 H 0.35597 0.24251 0.5836 0.0
H3680 H 0.34552 0.23944 0.60311 0.0
H3681 H 0.35225 0.28443 0.54144 0.0
H3682 H 0.36088 0.2768 0.53603 0.0
H3683 H 0.34458 0.26894 0.53208 0.0
H3684 H 0.37386 0.25045 0.5241 0.0
H3685 H 0.33476 0.23154 0.51382 0.0
H3686 H 0.37329 0.26085 0.5702 0.0
H3687 H 0.37554 0.27278 0.55401 0.0
H3688 H 0.38303 0.26388 0.54974 0.0
H3689 H 0.32596 0.23759 0.5584 0.0
H3690 H 0.32085 0.233 0.53434 0.0
H3691 H 0.32718 0.24884 0.54161 0.0
C3692 C 0.74015 0.06858 0.58447 0.0
C3693 C 0.73404 0.07284 0.59623 0.0
C3694 C 0.74768 0.07586 0.56958 0.0
C3695 C 0.74907 0.08766 0.56629 0.0
C3696 C 0.74289 0.09199 0.57806 0.0
C3697 C 0.73548 0.08454 0.59297 0.0
C3698 C 0.75421 0.07096 0.55743 0.0
C3699 C 0.74405 0.10446 0.57483 0.0
C3700 C 0.77718 0.11 0.53773 0.0
C3701 C 0.77224 0.10831 0.5194 0.0
C3702 C 0.76968 0.10358 0.55324 0.0
C3703 C 0.75693 0.09535 0.55037 0.0
C3704 C 0.7518 0.09394 0.53205 0.0
C3705 C 0.75952 0.10037 0.51678 0.0
C3706 C 0.77549 0.10531 0.57258 0.0
C3707 C 0.73822 0.08529 0.52845 0.0
H3708 H 0.73921 0.05961 0.58714 0.0
H3709 H 0.73069 0.08781 0.60196 0.0
H3710 H 0.75133 0.07043 0.54243 0.0
H3711 H 0.76433 0.07735 0.558 0.0
H3712 H 0.75225 0.06165 0.56199 0.0
H3713 H 0.73866 0.10649 0.58529 0.0
H3714 H 0.75388 0.11181 0.57573 0.0
H3715 H 0.74077 0.10487 0.56039 0.0
H3716 H 0.78696 0.11625 0.53992 0.0
H3717 H 0.75563 0.09884 0.50266 0.0
H3718 H 0.77463 0.09648 0.57744 0.0
H3719 H 0.77057 0.10792 0.58302 0.0
H3720 H 0.78541 0.11251 0.57261 0.0
H3721 H 0.73594 0.07563 0.53106 0.0
H3722 H 0.73551 0.08597 0.5137 0.0
H3723 H 0.73258 0.08731 0.53836 0.0
C3724 C 0.90991 0.65141 0.59613 0.0
C3725 C 0.9216 0.653 0.59212 0.0
C3726 C 0.90118 0.64866 0.58169 0.0
C3727 C 0.90423 0.64747 0.5628 0.0
C3728 C 0.91593 0.64885 0.55871 0.0
C3729 C 0.92448 0.65161 0.57341 0.0
C3730 C 0.88882 0.64731 0.58659 0.0
C3731 C 0.9195 0.64759 0.53875 0.0
C3732 C 0.87888 0.63132 0.52602 0.0
C3733 C 0.87947 0.64137 0.51628 0.0
C3734 C 0.88674 0.63314 0.54141 0.0
C3735 C 0.89539 0.64531 0.54716 0.0
C3736 C 0.89587 0.65548 0.53762 0.0
C3737 C 0.88793 0.6534 0.52229 0.0
C3738 C 0.88595 0.62206 0.55129 0.0
C3739 C 0.90498 0.6686 0.54331 0.0
H3740 H 0.90767 0.65262 0.61052 0.0
H3741 H 0.93343 0.65264 0.57027 0.0
H3742 H 0.88781 0.65465 0.57943 0.0
H3743 H 0.88125 0.63832 0.58141 0.0
H3744 H 0.88767 0.64793 0.60209 0.0
H3745 H 0.9288 0.64852 0.53804 0.0
H3746 H 0.91266 0.63849 0.53281 0.0
H3747 H 0.91945 0.65477 0.52958 0.0
H3748 H 0.87229 0.622 0.52157 0.0
H3749 H 0.88861 0.66123 0.51464 0.0
H3750 H 0.8843 0.62242 0.56666 0.0
H3751 H 0.89484 0.62219 0.54983 0.0
H3752 H 0.87846 0.61321 0.54548 0.0
H3753 H 0.90389 0.67001 0.55855 0.0
H3754 H 0.90383 0.67548 0.53493 0.0
H3755 H 0.91454 0.67041 0.54132 0.0
C3756 C 0.94078 0.6962 0.76129 0.0
C3757 C 0.93993 0.68464 0.75935 0.0
C3758 C 0.93521 0.6987 0.7766 0.0
C3759 C 0.92853 0.68936 0.79017 0.0
C3760 C 0.92759 0.67766 0.78823 0.0
C3761 C 0.93335 0.67546 0.77288 0.0
C3762 C 0.93654 0.71134 0.77834 0.0
C3763 C 0.92043 0.66742 0.8023 0.0
C3764 C 0.92288 0.69738 0.83963 0.0
C3765 C 0.91056 0.69463 0.83843 0.0
C3766 C 0.92896 0.69608 0.82386 0.0
C3767 C 0.92254 0.6918 0.80651 0.0
C3768 C 0.91021 0.68929 0.80504 0.0
C3769 C 0.90439 0.6908 0.82098 0.0
C3770 C 0.94215 0.69893 0.82595 0.0
C3771 C 0.90305 0.68468 0.78677 0.0
H3772 H 0.94597 0.70336 0.75093 0.0
H3773 H 0.93253 0.66646 0.77129 0.0
H3774 H 0.9273 0.71053 0.77842 0.0
H3775 H 0.94107 0.71563 0.79198 0.0
H3776 H 0.94205 0.71758 0.7666 0.0
H3777 H 0.92049 0.65881 0.79865 0.0
H3778 H 0.9244 0.6704 0.81668 0.0
H3779 H 0.91071 0.66534 0.80292 0.0
H3780 H 0.92768 0.70016 0.85308 0.0
H3781 H 0.89494 0.68884 0.81983 0.0
H3782 H 0.948 0.70543 0.81472 0.0
H3783 H 0.94258 0.69034 0.82422 0.0
H3784 H 0.94612 0.70303 0.83998 0.0
H3785 H 0.90814 0.69114 0.77503 0.0
H3786 H 0.8937 0.68361 0.78775 0.0
H3787 H 0.90205 0.67561 0.78301 0.0
C3788 C 0.33582 0.26556 0.77062 0.0
C3789 C 0.32574 0.262 0.75837 0.0
C3790 C 0.33557 0.25763 0.78485 0.0
C3791 C 0.32514 0.24568 0.78659 0.0
C3792 C 0.31503 0.24189 0.77411 0.0
C3793 C 0.31538 0.25015 0.7603 0.0
C3794 C 0.34649 0.26208 0.79806 0.0
C3795 C 0.30385 0.22912 0.77533 0.0
C3796 C 0.33167 0.22327 0.81337 0.0
C3797 C 0.32719 0.22354 0.83142 0.0
C3798 C 0.33044 0.2299 0.79831 0.0
C3799 C 0.32491 0.23723 0.8016 0.0
C3800 C 0.32007 0.23724 0.81973 0.0
C3801 C 0.32116 0.23028 0.83439 0.0
C3802 C 0.33544 0.22941 0.77907 0.0
C3803 C 0.31436 0.24514 0.82392 0.0
H3804 H 0.34401 0.27454 0.76901 0.0
H3805 H 0.30748 0.24732 0.75111 0.0
H3806 H 0.34339 0.26131 0.81298 0.0
H3807 H 0.35074 0.25619 0.79654 0.0
H3808 H 0.35367 0.27182 0.79528 0.0
H3809 H 0.29695 0.22745 0.76412 0.0
H3810 H 0.30671 0.22207 0.77403 0.0
H3811 H 0.29936 0.22779 0.78935 0.0
H3812 H 0.3363 0.21801 0.81113 0.0
H3813 H 0.31782 0.23057 0.84845 0.0
H3814 H 0.34363 0.2385 0.77577 0.0
H3815 H 0.32843 0.22748 0.76794 0.0
H3816 H 0.33819 0.22225 0.77833 0.0
H3817 H 0.3215 0.25503 0.82266 0.0
H3818 H 0.31032 0.24349 0.83837 0.0
H3819 H 0.30703 0.24332 0.81346 0.0
C3820 C 0.75411 0.07212 0.76368 0.0
C3821 C 0.74132 0.0649 0.76664 0.0
C3822 C 0.76218 0.07845 0.77869 0.0
C3823 C 0.75736 0.07771 0.79707 0.0
C3824 C 0.74447 0.07054 0.80016 0.0
C3825 C 0.73663 0.06415 0.78496 0.0
C3826 C 0.77589 0.08591 0.77489 0.0
C3827 C 0.73897 0.06959 0.81956 0.0
C3828 C 0.77782 0.08425 0.84024 0.0
C3829 C 0.78087 0.09638 0.84485 0.0
C3830 C 0.77043 0.07819 0.82447 0.0
C3831 C 0.76578 0.0843 0.81317 0.0
C3832 C 0.76892 0.09656 0.81757 0.0
C3833 C 0.77649 0.10249 0.83326 0.0
C3834 C 0.76739 0.06514 0.82011 0.0
C3835 C 0.76406 0.10335 0.80591 0.0
H3836 H 0.75782 0.07295 0.74955 0.0
H3837 H 0.7268 0.05845 0.78749 0.0
H3838 H 0.77942 0.09572 0.77866 0.0
H3839 H 0.78084 0.08251 0.78391 0.0
H3840 H 0.77817 0.08542 0.75983 0.0
H3841 H 0.72874 0.06393 0.81947 0.0
H3842 H 0.74263 0.0654 0.82966 0.0
H3843 H 0.74168 0.07894 0.82495 0.0
H3844 H 0.78094 0.07934 0.84924 0.0
H3845 H 0.77894 0.11191 0.83649 0.0
H3846 H 0.76989 0.0645 0.80525 0.0
H3847 H 0.75731 0.05877 0.82159 0.0
H3848 H 0.7723 0.06195 0.82965 0.0
H3849 H 0.76679 0.10373 0.79087 0.0
H3850 H 0.76751 0.11292 0.81103 0.0
H3851 H 0.75382 0.0983 0.80637 0.0
C3852 C 0.05708 0.34816 0.01012 0.0
C3853 C 0.05369 0.3545 0.02301 0.0
C3854 C 0.06557 0.34442 0.01514 0.0
C3855 C 0.07097 0.34724 0.0334 0.0
C3856 C 0.06811 0.35421 0.04611 0.0
C3857 C 0.05945 0.35767 0.04083 0.0
C3858 C 0.06832 0.33693 0.00125 0.0
C3859 C 0.07377 0.35753 0.06565 0.0
C3860 C 0.0804 0.32616 0.05749 0.0
C3861 C 0.09331 0.3328 0.05568 0.0
C3862 C 0.07303 0.33053 0.04961 0.0
C3863 C 0.07868 0.34197 0.03995 0.0
C3864 C 0.09165 0.3486 0.03759 0.0
C3865 C 0.09881 0.3439 0.04537 0.0
C3866 C 0.0592 0.3231 0.05227 0.0
C3867 C 0.09801 0.36088 0.02748 0.0
H3868 H 0.0529 0.34589 0.99617 0.0
H3869 H 0.05683 0.36241 0.05103 0.0
H3870 H 0.07843 0.34091 -0.00034 0.0
H3871 H 0.06451 0.32739 0.0067 0.0
H3872 H 0.06425 0.33646 0.98706 0.0
H3873 H 0.0716 0.36404 0.07305 0.0
H3874 H 0.07025 0.34904 0.07435 0.0
H3875 H 0.08395 0.36175 0.06477 0.0
H3876 H 0.07601 0.31772 0.06573 0.0
H3877 H 0.10874 0.34902 0.04363 0.0
H3878 H 0.05444 0.32167 0.03844 0.0
H3879 H 0.05615 0.32824 0.06151 0.0
H3880 H 0.05618 0.31394 0.05878 0.0
H3881 H 0.09383 0.36005 0.01332 0.0
H3882 H 0.10806 0.36447 0.02571 0.0
H3883 H 0.09672 0.36773 0.03565 0.0
C3884 C 0.64437 0.7064 0.02728 0.0
C3885 C 0.65171 0.70132 0.03255 0.0
C3886 C 0.64762 0.71848 0.03257 0.0
C3887 C 0.65843 0.7256 0.04341 0.0
C3888 C 0.666 0.7206 0.04845 0.0
C3889 C 0.66253 0.70853 0.04298 0.0
C3890 C 0.63936 0.72352 0.0269 0.0
C3891 C 0.67758 0.72789 0.06009 0.0
C3892 C 0.67341 0.76044 0.048 0.0
C3893 C 0.66943 0.7616 0.06607 0.0
C3894 C 0.66954 0.74876 0.04008 0.0
C3895 C 0.66154 0.73802 0.05052 0.0
C3896 C 0.65717 0.73914 0.06847 0.0
C3897 C 0.66118 0.7509 0.07603 0.0
C3898 C 0.67435 0.74792 0.02085 0.0
C3899 C 0.64866 0.7279 0.08007 0.0
H3900 H 0.63607 0.70092 0.01901 0.0
H3901 H 0.66816 0.70461 0.04733 0.0
H3902 H 0.63539 0.72531 0.03975 0.0
H3903 H 0.6448 0.73246 0.01943 0.0
H3904 H 0.63166 0.71707 0.01756 0.0
H3905 H 0.68275 0.72289 0.06203 0.0
H3906 H 0.68375 0.73689 0.05321 0.0
H3907 H 0.67514 0.72987 0.07426 0.0
H3908 H 0.67969 0.76867 0.04016 0.0
H3909 H 0.65823 0.75169 0.09013 0.0
H3910 H 0.66658 0.74172 0.01146 0.0
H3911 H 0.68042 0.74387 0.02233 0.0
H3912 H 0.67968 0.75708 0.01392 0.0
H3913 H 0.64049 0.72145 0.07156 0.0
H3914 H 0.64541 0.73034 0.09314 0.0
H3915 H 0.65354 0.7229 0.08419 0.0
C3916 C 0.29725 0.93438 0.04773 0.0
C3917 C 0.29835 0.9415 0.0317 0.0
C3918 C 0.28568 0.92496 0.05388 0.0
C3919 C 0.27492 0.92264 0.04386 0.0
C3920 C 0.27597 0.92955 0.02739 0.0
C3921 C 0.28768 0.93888 0.02147 0.0
C3922 C 0.28495 0.91777 0.0715 0.0
C3923 C 0.2647 0.92735 0.01637 0.0
C3924 C 0.24597 0.89231 0.05538 0.0
C3925 C 0.2406 0.89597 0.06954 0.0
C3926 C 0.25693 0.90096 0.04632 0.0
C3927 C 0.26258 0.91356 0.05148 0.0
C3928 C 0.25689 0.91739 0.06508 0.0
C3929 C 0.24602 0.90856 0.074 0.0
C3930 C 0.26272 0.89653 0.03185 0.0
C3931 C 0.26259 0.93077 0.0709 0.0
H3932 H 0.30539 0.93645 0.0559 0.0
H3933 H 0.28847 0.9442 0.00891 0.0
H3934 H 0.28001 0.91973 0.08282 0.0
H3935 H 0.27962 0.90771 0.06859 0.0
H3936 H 0.29422 0.92013 0.0769 0.0
H3937 H 0.26715 0.9329 0.00315 0.0
H3938 H 0.25899 0.91744 0.01264 0.0
H3939 H 0.25892 0.92978 0.02527 0.0
H3940 H 0.24176 0.88263 0.05165 0.0
H3941 H 0.24209 0.9115 0.08512 0.0
H3942 H 0.27155 0.89776 0.0375 0.0
H3943 H 0.26492 0.9021 0.01871 0.0
H3944 H 0.25663 0.88664 0.0282 0.0
H3945 H 0.27145 0.9337 0.07835 0.0
H3946 H 0.25647 0.93238 0.08044 0.0
H3947 H 0.26469 0.93674 0.05822 0.0
C3948 C 0.34792 0.05414 0.97268 0.0
C3949 C 0.34635 0.04974 0.99131 0.0
C3950 C 0.34401 0.06242 0.96724 0.0
C3951 C 0.33849 0.06648 0.98082 0.0
C3952 C 0.33715 0.06231 -0.00022 0.0
C3953 C 0.34103 0.05392 0.00478 0.0
C3954 C 0.3455 0.06657 0.94684 0.0
C3955 C 0.33147 0.06658 0.01468 0.0
C3956 C 0.33785 0.09533 0.96632 0.0
C3957 C 0.32596 0.09029 0.95864 0.0
C3958 C 0.34185 0.08774 0.97456 0.0
C3959 C 0.33382 0.0748 0.97488 0.0
C3960 C 0.3216 0.06972 0.96795 0.0
C3961 C 0.3178 0.07755 0.95998 0.0
C3962 C 0.35487 0.09351 0.98209 0.0
C3963 C 0.31278 0.05596 0.96791 0.0
H3964 H 0.35187 0.0508 0.96217 0.0
H3965 H 0.33991 0.05062 0.01924 0.0
H3966 H 0.33632 0.06365 0.94054 0.0
H3967 H 0.35096 0.07679 0.94604 0.0
H3968 H 0.35017 0.06271 0.93812 0.0
H3969 H 0.33165 0.06296 0.02897 0.0
H3970 H 0.33646 0.07682 0.0153 0.0
H3971 H 0.32174 0.0635 0.01091 0.0
H3972 H 0.34413 0.10521 0.96543 0.0
H3973 H 0.30865 0.07362 0.95387 0.0
H3974 H 0.36042 0.091 0.97278 0.0
H3975 H 0.35491 0.08993 0.99645 0.0
H3976 H 0.35945 0.10374 0.98277 0.0
H3977 H 0.31621 0.05144 0.95804 0.0
H3978 H 0.30333 0.05359 0.96347 0.0
H3979 H 0.31228 0.05206 0.9822 0.0
C3980 C 0.93707 0.29469 0.97764 0.0
C3981 C 0.94513 0.2975 0.99305 0.0
C3982 C 0.9291 0.28242 0.9722 0.0
C3983 C 0.92922 0.27273 0.98236 0.0
C3984 C 0.93687 0.27547 0.99853 0.0
C3985 C 0.94473 0.28784 0.0037 0.0
C3986 C 0.921 0.27988 0.95499 0.0
C3987 C 0.9373 0.2654 0.00969 0.0
C3988 C 0.90378 0.23981 0.97211 0.0
C3989 C 0.9095 0.2361 0.95859 0.0
C3990 C 0.91012 0.25164 0.98027 0.0
C3991 C 0.92246 0.25992 0.97478 0.0
C3992 C 0.92833 0.25615 0.9614 0.0
C3993 C 0.92177 0.24434 0.95344 0.0
C3994 C 0.90358 0.25537 0.99449 0.0
C3995 C 0.94147 0.2647 0.95514 0.0
H3996 H 0.93721 0.30213 0.96956 0.0
H3997 H 0.95099 0.28996 0.01554 0.0
H3998 H 0.92432 0.27631 0.94335 0.0
H3999 H 0.91136 0.27268 0.95819 0.0
H4000 H 0.92102 0.28828 0.94988 0.0
H4001 H 0.94258 0.26891 0.02309 0.0
H4002 H 0.92783 0.25789 0.01309 0.0
H4003 H 0.94174 0.2613 0.00101 0.0
H4004 H 0.89433 0.23347 0.97628 0.0
H4005 H 0.92619 0.24168 0.9427 0.0
H4006 H 0.90285 0.26327 0.9889 0.0
H4007 H 0.90899 0.25849 0.00783 0.0
H4008 H 0.89415 0.2477 0.99781 0.0
H4009 H 0.94213 0.27292 0.94803 0.0
H4010 H 0.94485 0.26016 0.9452 0.0
H4011 H 0.9477 0.26803 0.96762 0.0
C4012 C 0.70932 0.66031 0.97481 0.0
C4013 C 0.70199 0.64946 0.98514 0.0
C4014 C 0.72133 0.66362 0.96922 0.0
C4015 C 0.72612 0.65582 0.97382 0.0
C4016 C 0.71882 0.64486 0.98424 0.0
C4017 C 0.70685 0.64183 0.98985 0.0
C4018 C 0.72884 0.67542 0.95816 0.0
C4019 C 0.72359 0.63627 0.98927 0.0
C4020 C 0.75201 0.65986 0.94141 0.0
C4021 C 0.76253 0.66782 0.95202 0.0
C4022 C 0.7401 0.65536 0.94875 0.0
C4023 C 0.73864 0.65903 0.96707 0.0
C4024 C 0.74918 0.66664 0.97818 0.0
C4025 C 0.761 0.67089 0.97056 0.0
C4026 C 0.72909 0.64718 0.93651 0.0
C4027 C 0.74799 0.67077 0.99777 0.0
H4028 H 0.70559 0.66615 0.97077 0.0
H4029 H 0.70133 0.63352 0.99804 0.0
H4030 H 0.73777 0.68138 0.9654 0.0
H4031 H 0.73098 0.67326 0.94389 0.0
H4032 H 0.72396 0.68072 0.95643 0.0
H4033 H 0.71684 0.62822 0.99773 0.0
H4034 H 0.72575 0.63284 0.97615 0.0
H4035 H 0.7323 0.64132 0.99746 0.0
H4036 H 0.75302 0.65757 0.92697 0.0
H4037 H 0.76906 0.67686 0.97899 0.0
H4038 H 0.72432 0.65227 0.93228 0.0
H4039 H 0.72236 0.6389 0.94454 0.0
H4040 H 0.73176 0.64411 0.92347 0.0
H4041 H 0.74406 0.67698 0.99672 0.0
H4042 H 0.75701 0.67578 0.0052 0.0
H4043 H 0.74155 0.66273 0.00649 0.0
C4044 C 0.92844 0.63781 0.99659 0.0
C4045 C 0.94105 0.64628 0.99887 0.0
C4046 C 0.92035 0.64163 0.98969 0.0
C4047 C 0.92505 0.65415 0.98466 0.0
C4048 C 0.93771 0.6628 0.98751 0.0
C4049 C 0.94555 0.65876 0.99467 0.0
C4050 C 0.90687 0.63218 0.98712 0.0
C4051 C 0.94313 0.67621 0.98209 0.0
C4052 C 0.90949 0.66214 0.94553 0.0
C4053 C 0.90371 0.66747 0.95569 0.0
C4054 C 0.9162 0.65749 0.95486 0.0
C4055 C 0.91705 0.65807 0.97487 0.0
C4056 C 0.91087 0.66305 0.98527 0.0
C4057 C 0.90435 0.6678 0.97553 0.0
C4058 C 0.92278 0.6524 0.94323 0.0
C4059 C 0.91143 0.66365 0.00663 0.0
H4060 H 0.92495 0.62817 -6e-05 0.0
H4061 H 0.95533 0.6653 0.99615 0.0
H4062 H 0.90099 0.63554 0.99352 0.0
H4063 H 0.90464 0.63075 0.97179 0.0
H4064 H 0.90444 0.62315 0.99358 0.0
H4065 H 0.95297 0.68188 0.98631 0.0
H4066 H 0.94247 0.67697 0.96652 0.0
H4067 H 0.93783 0.68013 0.98879 0.0
H4068 H 0.90918 0.66205 0.93018 0.0
H4069 H 0.89982 0.67185 0.98341 0.0
H4070 H 0.92001 0.6429 0.94791 0.0
H4071 H 0.93289 0.65816 0.94539 0.0
H4072 H 0.9208 0.65218 0.92784 0.0
H4073 H 0.90874 0.65444 0.0126 0.0
H4074 H 0.90529 0.66683 0.01265 0.0
H4075 H 0.92103 0.67009 0.01127 0.0
C4076 C 0.3443 0.28724 0.00213 0.0
C4077 C 0.3546 0.29816 0.9958 0.0
C4078 C 0.34192 0.27569 0.9954 0.0
C4079 C 0.34995 0.2751 0.98183 0.0
C4080 C 0.36057 0.28609 0.97587 0.0
C4081 C 0.3628 0.29748 0.983 0.0
C4082 C 0.3306 0.26416 0.00228 0.0
C4083 C 0.36928 0.28587 0.96125 0.0
C4084 C 0.3492 0.24515 0.96954 0.0
C4085 C 0.34218 0.2417 0.95285 0.0
C4086 C 0.35145 0.25578 0.97958 0.0
C4087 C 0.34671 0.26319 0.97257 0.0
C4088 C 0.3394 0.25959 0.95594 0.0
C4089 C 0.33719 0.24887 0.94635 0.0
C4090 C 0.35914 0.25924 0.9974 0.0
C4091 C 0.33429 0.2673 0.94787 0.0
H4092 H 0.33802 0.28774 0.01217 0.0
H4093 H 0.37069 0.30591 0.97791 0.0
H4094 H 0.32386 0.26002 0.99052 0.0
H4095 H 0.33308 0.25719 0.00688 0.0
H4096 H 0.32604 0.26607 0.01425 0.0
H4097 H 0.37753 0.29512 0.95905 0.0
H4098 H 0.37239 0.27934 0.96558 0.0
H4099 H 0.36438 0.28257 0.94752 0.0
H4100 H 0.353 0.23957 0.97466 0.0
H4101 H 0.33191 0.24635 0.93329 0.0
H4102 H 0.35424 0.26086 0.00917 0.0
H4103 H 0.36795 0.26799 0.99511 0.0
H4104 H 0.3613 0.252 0.0018 0.0
H4105 H 0.32876 0.26879 0.95872 0.0
H4106 H 0.32839 0.26296 0.93523 0.0
H4107 H 0.342 0.27652 0.94376 0.0
C4108 C 0.7092 0.06178 0.00558 0.0
C4109 C 0.70269 0.05118 0.99434 0.0
C4110 C 0.72144 0.07073 0.00122 0.0
C4111 C 0.72727 0.06901 0.98526 0.0
C4112 C 0.72072 0.05836 0.97384 0.0
C4113 C 0.70852 0.04962 0.97848 0.0
C4114 C 0.72814 0.08198 0.01369 0.0
C4115 C 0.72658 0.0562 0.95664 0.0
C4116 C 0.75446 0.09519 0.95992 0.0
C4117 C 0.7642 0.0934 0.96561 0.0
C4118 C 0.74249 0.08778 0.96709 0.0
C4119 C 0.7402 0.07831 0.98021 0.0
C4120 C 0.75011 0.07693 0.98685 0.0
C4121 C 0.76201 0.0845 0.97949 0.0
C4122 C 0.73218 0.08959 0.95969 0.0
C4123 C 0.74805 0.06698 0.00091 0.0
H4124 H 0.70479 0.063 0.01794 0.0
H4125 H 0.70348 0.04158 0.96952 0.0
H4126 H 0.73654 0.08241 0.01974 0.0
H4127 H 0.73123 0.09047 0.00515 0.0
H4128 H 0.72228 0.08198 0.0255 0.0
H4129 H 0.72025 0.04739 0.94935 0.0
H4130 H 0.72939 0.06388 0.9464 0.0
H4131 H 0.73504 0.05604 0.96085 0.0
H4132 H 0.75601 0.10193 0.94904 0.0
H4133 H 0.76953 0.0832 0.98417 0.0
H4134 H 0.72647 0.08979 0.97155 0.0
H4135 H 0.72605 0.08171 0.95043 0.0
H4136 H 0.7357 0.09825 0.95139 0.0
H4137 H 0.74257 0.06713 0.01315 0.0
H4138 H 0.75687 0.06799 0.00623 0.0
H4139 H 0.74269 0.0578 0.99406 0.0
C4140 C 0.64939 0.94358 0.04867 0.0
C4141 C 0.64689 0.94526 0.02992 0.0
C4142 C 0.65259 0.93466 0.05331 0.0
C4143 C 0.65355 0.92739 0.03875 0.0
C4144 C 0.65071 0.92882 0.01982 0.0
C4145 C 0.6473 0.93769 0.01564 0.0
C4146 C 0.65533 0.93328 0.07372 0.0
C4147 C 0.65182 0.92138 0.0039 0.0
C4148 C 0.67591 0.91648 0.05154 0.0
C4149 C 0.66794 0.90439 0.0579 0.0
C4150 C 0.6713 0.92377 0.04412 0.0
C4151 C 0.6584 0.919 0.04337 0.0
C4152 C 0.65027 0.90664 0.04888 0.0
C4153 C 0.65514 0.89944 0.0559 0.0
C4154 C 0.68029 0.93686 0.03812 0.0
C4155 C 0.63645 0.90123 0.04838 0.0
H4156 H 0.64894 0.94937 0.05972 0.0
H4157 H 0.64543 0.93906 0.00111 0.0
H4158 H 0.64989 0.92347 0.07814 0.0
H4159 H 0.66523 0.93616 0.07528 0.0
H4160 H 0.6532 0.93893 0.08348 0.0
H4161 H 0.64825 0.9228 0.99028 0.0
H4162 H 0.66166 0.92408 0.00198 0.0
H4163 H 0.64672 0.9114 0.0074 0.0
H4164 H 0.6858 0.92053 0.05323 0.0
H4165 H 0.64888 0.89004 0.06037 0.0
H4166 H 0.67999 0.9434 0.04841 0.0
H4167 H 0.6777 0.93883 0.02406 0.0
H4168 H 0.68993 0.93867 0.03738 0.0
H4169 H 0.63373 0.90581 0.05927 0.0
H4170 H 0.6314 0.89114 0.05117 0.0
H4171 H 0.6335 0.90294 0.03443 0.0
C4172 C 0.0427 0.70908 0.04129 0.0
C4173 C 0.04523 0.70314 0.02658 0.0
C4174 C 0.0516 0.72089 0.04742 0.0
C4175 C 0.06335 0.72694 0.03866 0.0
C4176 C 0.0659 0.72112 0.02353 0.0
C4177 C 0.05681 0.70927 0.01769 0.0
C4178 C 0.04853 0.72676 0.06366 0.0
C4179 C 0.07831 0.72731 0.01381 0.0
C4180 C 0.08235 0.76137 0.04835 0.0
C4181 C 0.08958 0.76167 0.06377 0.0
C4182 C 0.07413 0.75017 0.03943 0.0
C4183 C 0.07311 0.73903 0.04615 0.0
C4184 C 0.08075 0.73935 0.06119 0.0
C4185 C 0.08887 0.75065 0.06982 0.0
C4186 C 0.0662 0.75021 0.02335 0.0
C4187 C 0.07991 0.72767 0.06881 0.0
H4188 H 0.03386 0.70434 0.04844 0.0
H4189 H 0.05878 0.70477 0.00618 0.0
H4190 H 0.05464 0.72806 0.07589 0.0
H4191 H 0.05019 0.73601 0.05949 0.0
H4192 H 0.03878 0.72108 0.06835 0.0
H4193 H 0.07859 0.72188 0.00157 0.0
H4194 H 0.08062 0.73662 0.00877 0.0
H4195 H 0.08559 0.72857 0.02404 0.0
H4196 H 0.08296 0.76987 0.04347 0.0
H4197 H 0.09427 0.75076 0.08191 0.0
H4198 H 0.0564 0.74554 0.02792 0.0
H4199 H 0.06676 0.74496 0.01109 0.0
H4200 H 0.06893 0.75971 0.01863 0.0
H4201 H 0.07075 0.72185 0.0755 0.0
H4202 H 0.08717 0.72959 0.07951 0.0
H4203 H 0.08076 0.72222 0.05712 0.0
C4204 C 0.29523 0.34848 0.0535 0.0
C4205 C 0.30117 0.35513 0.03709 0.0
C4206 C 0.28386 0.34704 0.05923 0.0
C4207 C 0.27821 0.35231 0.04822 0.0
C4208 C 0.28397 0.35876 0.03137 0.0
C4209 C 0.2954 0.36013 0.02604 0.0
C4210 C 0.27802 0.34012 0.07732 0.0
C4211 C 0.2782 0.36447 0.01924 0.0
C4212 C 0.24426 0.34057 0.05826 0.0
C4213 C 0.24495 0.34962 0.07074 0.0
C4214 C 0.25498 0.34151 0.05027 0.0
C4215 C 0.26666 0.35169 0.05503 0.0
C4216 C 0.26738 0.361 0.06723 0.0
C4217 C 0.25653 0.35986 0.0749 0.0
C4218 C 0.25386 0.33147 0.03716 0.0
C4219 C 0.27966 0.37195 0.07278 0.0
H4220 H 0.29949 0.34437 0.06192 0.0
H4221 H 0.29997 0.36538 0.01343 0.0
H4222 H 0.2773 0.34641 0.08767 0.0
H4223 H 0.26851 0.33248 0.07449 0.0
H4224 H 0.28338 0.33621 0.08391 0.0
H4225 H 0.28339 0.36838 0.00586 0.0
H4226 H 0.26854 0.35748 0.01568 0.0
H4227 H 0.27791 0.37195 0.02722 0.0
H4228 H 0.23532 0.33268 0.0549 0.0
H4229 H 0.25717 0.36678 0.0848 0.0
H4230 H 0.25819 0.32653 0.0438 0.0
H4231 H 0.25885 0.33554 0.02373 0.0
H4232 H 0.24409 0.32465 0.03381 0.0
H4233 H 0.28513 0.36874 0.08088 0.0
H4234 H 0.27859 0.3787 0.0816 0.0
H4235 H 0.28505 0.37674 0.05995 0.0
C4236 C 0.71139 0.6705 0.36992 0.0
C4237 C 0.71468 0.68096 0.3587 0.0
C4238 C 0.72016 0.66727 0.37547 0.0
C4239 C 0.73264 0.6748 0.36996 0.0
C4240 C 0.73606 0.68531 0.35851 0.0
C4241 C 0.72703 0.68823 0.35292 0.0
C4242 C 0.71611 0.65594 0.3876 0.0
C4243 C 0.74929 0.69361 0.35251 0.0
C4244 C 0.75511 0.67205 0.4028 0.0
C4245 C 0.75744 0.66365 0.39303 0.0
C4246 C 0.7476 0.67629 0.39495 0.0
C4247 C 0.7421 0.67188 0.37702 0.0
C4248 C 0.7448 0.66381 0.36671 0.0
C4249 C 0.7525 0.65986 0.37478 0.0
C4250 C 0.74506 0.685 0.40633 0.0
C4251 C 0.73905 0.65886 0.34757 0.0
H4252 H 0.70196 0.66495 0.37483 0.0
H4253 H 0.72966 0.69624 0.34404 0.0
H4254 H 0.719 0.64974 0.38099 0.0
H4255 H 0.72063 0.65867 0.40168 0.0
H4256 H 0.70595 0.65067 0.38973 0.0
H4257 H 0.75037 0.70118 0.34303 0.0
H4258 H 0.75517 0.69775 0.3652 0.0
H4259 H 0.75279 0.68817 0.34507 0.0
H4260 H 0.75867 0.67492 0.41701 0.0
H4261 H 0.7544 0.65355 0.36696 0.0
H4262 H 0.7353 0.68012 0.41109 0.0
H4263 H 0.74644 0.69292 0.39746 0.0
H4264 H 0.7511 0.68863 0.41902 0.0
H4265 H 0.72895 0.65267 0.34923 0.0
H4266 H 0.74295 0.65359 0.34063 0.0
H4267 H 0.74043 0.66651 0.33808 0.0
C4268 C 0.30618 0.03976 0.38289 0.0
C4269 C 0.31111 0.03694 0.36709 0.0
C4270 C 0.31051 0.05204 0.38833 0.0
C4271 C 0.32002 0.06174 0.37771 0.0
C4272 C 0.32462 0.05898 0.36123 0.0
C4273 C 0.32012 0.04662 0.35613 0.0
C4274 C 0.30532 0.05461 0.40594 0.0
C4275 C 0.33477 0.06907 0.34956 0.0
C4276 C 0.3272 0.09462 0.38745 0.0
C4277 C 0.33711 0.09872 0.40017 0.0
C4278 C 0.32161 0.08265 0.37976 0.0
C4279 C 0.32603 0.07462 0.38499 0.0
C4280 C 0.33611 0.07876 0.39764 0.0
C4281 C 0.34149 0.09072 0.4051 0.0
C4282 C 0.31091 0.07854 0.36624 0.0
C4283 C 0.34107 0.07048 0.40364 0.0
H4284 H 0.29907 0.03233 0.39124 0.0
H4285 H 0.32406 0.04452 0.34401 0.0
H4286 H 0.31254 0.05846 0.4171 0.0
H4287 H 0.30256 0.0616 0.40296 0.0
H4288 H 0.2972 0.04615 0.41158 0.0
H4289 H 0.33636 0.0655 0.33607 0.0
H4290 H 0.33253 0.07639 0.34626 0.0
H4291 H 0.3435 0.07342 0.3578 0.0
H4292 H 0.32382 0.10077 0.38351 0.0
H4293 H 0.34895 0.0937 0.41524 0.0
H4294 H 0.30255 0.07056 0.37232 0.0
H4295 H 0.31295 0.07541 0.35271 0.0
H4296 H 0.30882 0.08601 0.36317 0.0
H4297 H 0.33377 0.06225 0.4111 0.0
H4298 H 0.34919 0.07524 0.41318 0.0
H4299 H 0.34381 0.06714 0.391 0.0
C4300 C 0.95679 0.27188 0.34712 0.0
C4301 C 0.9632 0.28269 0.35792 0.0
C4302 C 0.94456 0.26297 0.35154 0.0
C4303 C 0.93866 0.26492 0.36717 0.0
C4304 C 0.94503 0.2759 0.37794 0.0
C4305 C 0.95722 0.28463 0.3732 0.0
C4306 C 0.93803 0.25139 0.33971 0.0
C4307 C 0.93908 0.2783 0.39478 0.0
C4308 C 0.90392 0.24767 0.37409 0.0
C4309 C 0.9025 0.2392 0.38827 0.0
C4310 C 0.91558 0.25572 0.36634 0.0
C4311 C 0.92604 0.2553 0.37297 0.0
C4312 C 0.92456 0.24634 0.38657 0.0
C4313 C 0.91282 0.23843 0.39407 0.0
C4314 C 0.91679 0.26509 0.35175 0.0
C4315 C 0.93549 0.2456 0.39403 0.0
H4316 H 0.96133 0.2704 0.33516 0.0
H4317 H 0.96217 0.29288 0.38177 0.0
H4318 H 0.93579 0.24322 0.34858 0.0
H4319 H 0.92917 0.2502 0.33429 0.0
H4320 H 0.9437 0.25154 0.32749 0.0
H4321 H 0.94514 0.2875 0.40124 0.0
H4322 H 0.93028 0.27773 0.39048 0.0
H4323 H 0.93684 0.27112 0.40575 0.0
H4324 H 0.89595 0.24821 0.36939 0.0
H4325 H 0.91186 0.23205 0.40523 0.0
H4326 H 0.92228 0.26503 0.33947 0.0
H4327 H 0.92178 0.27448 0.35804 0.0
H4328 H 0.90767 0.26336 0.3466 0.0
H4329 H 0.94109 0.24524 0.38215 0.0
H4330 H 0.93264 0.23739 0.4032 0.0
H4331 H 0.94151 0.254 0.40243 0.0
C4332 C 0.03058 0.39984 0.33117 0.0
C4333 C 0.02555 0.38913 0.32001 0.0
C4334 C 0.02837 0.40953 0.32682 0.0
C4335 C 0.02089 0.40841 0.31103 0.0
C4336 C 0.01572 0.39757 0.29983 0.0
C4337 C 0.01812 0.38808 0.30444 0.0
C4338 C 0.0341 0.42099 0.33898 0.0
C4339 C 0.00761 0.39597 0.28295 0.0
C4340 C 0.00478 0.42708 0.30548 0.0
C4341 C 0.01191 0.43548 0.29127 0.0
C4342 C 0.00795 0.4186 0.31281 0.0
C4343 C 0.01855 0.41858 0.30585 0.0
C4344 C 0.0262 0.42753 0.29239 0.0
C4345 C 0.02277 0.43584 0.28521 0.0
C4346 C 0.99957 0.40922 0.32721 0.0
C4347 C 0.03762 0.42786 0.28467 0.0
H4348 H 0.03638 0.40071 0.34315 0.0
H4349 H 0.01404 0.37973 0.29598 0.0
H4350 H 0.0403 0.42914 0.33024 0.0
H4351 H 0.02682 0.42264 0.34478 0.0
H4352 H 0.03951 0.42032 0.35095 0.0
H4353 H 0.00418 0.3869 0.27587 0.0
H4354 H 0.99956 0.39679 0.28747 0.0
H4355 H 0.01284 0.40338 0.27245 0.0
H4356 H 0.99648 0.42688 0.31046 0.0
H4357 H 0.02828 0.44218 0.27407 0.0
H4358 H 0.00501 0.40885 0.33935 0.0
H4359 H 0.99481 0.39992 0.32064 0.0
H4360 H 0.99246 0.41128 0.33265 0.0
H4361 H 0.04335 0.42752 0.2964 0.0
H4362 H 0.04335 0.43625 0.27605 0.0
H4363 H 0.03488 0.41963 0.27564 0.0
C4364 C 0.61094 0.62436 0.32299 0.0
C4365 C 0.60802 0.6338 0.32314 0.0
C4366 C 0.60251 0.61256 0.31614 0.0
C4367 C 0.59078 0.6101 0.30964 0.0
C4368 C 0.58758 0.61946 0.31055 0.0
C4369 C 0.59631 0.63127 0.31707 0.0
C4370 C 0.60639 0.60292 0.31506 0.0
C4371 C 0.57506 0.61709 0.30415 0.0
C4372 C 0.57597 0.58493 0.27255 0.0
C4373 C 0.56832 0.57458 0.28362 0.0
C4374 C 0.58307 0.59661 0.28079 0.0
C4375 C 0.58231 0.59802 0.30056 0.0
C4376 C 0.57415 0.58771 0.31169 0.0
C4377 C 0.56735 0.57605 0.30311 0.0
C4378 C 0.59183 0.60731 0.26846 0.0
C4379 C 0.57289 0.58891 0.33273 0.0
H4380 H 0.62005 0.62636 0.32749 0.0
H4381 H 0.59405 0.63858 0.3173 0.0
H4382 H 0.5996 0.59439 0.32251 0.0
H4383 H 0.6066 0.60042 0.30003 0.0
H4384 H 0.61565 0.60617 0.32136 0.0
H4385 H 0.57356 0.62491 0.30761 0.0
H4386 H 0.57416 0.61561 0.28861 0.0
H4387 H 0.56766 0.60858 0.31089 0.0
H4388 H 0.57687 0.58377 0.25751 0.0
H4389 H 0.56139 0.56804 0.31166 0.0
H4390 H 0.60148 0.61058 0.27296 0.0
H4391 H 0.59013 0.61515 0.27014 0.0
H4392 H 0.59093 0.60477 0.25323 0.0
H4393 H 0.58158 0.59096 0.33997 0.0
H4394 H 0.56519 0.58036 0.33896 0.0
H4395 H 0.57129 0.59672 0.33568 0.0
C4396 C 0.36811 0.97432 0.33132 0.0
C4397 C 0.36292 0.98066 0.3223 0.0
C4398 C 0.37989 0.97647 0.32632 0.0
C4399 C 0.38661 0.98513 0.31192 0.0
C4400 C 0.38144 0.99158 0.30281 0.0
C4401 C 0.36968 0.98928 0.30813 0.0
C4402 C 0.3851 0.96941 0.33632 0.0
C4403 C 0.38832 0.0009 0.28738 0.0
C4404 C 0.42139 6e-05 0.30706 0.0
C4405 C 0.42242 0.99363 0.29155 0.0
C4406 C 0.40978 0.99702 0.31444 0.0
C4407 C 0.39897 0.98737 0.30603 0.0
C4408 C 0.39998 0.98048 0.29095 0.0
C4409 C 0.41169 0.98369 0.28389 0.0
C4410 C 0.40908 0.0045 0.33066 0.0
C4411 C 0.38867 0.97014 0.28157 0.0
H4412 H 0.36288 0.96754 0.34214 0.0
H4413 H 0.36583 0.99438 0.30133 0.0
H4414 H 0.38678 0.96375 0.32595 0.0
H4415 H 0.39413 0.97594 0.34284 0.0
H4416 H 0.37884 0.96323 0.34755 0.0
H4417 H 0.38302 0.00514 0.28175 0.0
H4418 H 0.39728 0.00834 0.2929 0.0
H4419 H 0.39038 0.9964 0.27551 0.0
H4420 H 0.42966 0.00766 0.31316 0.0
H4421 H 0.41239 0.97879 0.27172 0.0
H4422 H 0.40308 0.99832 0.34208 0.0
H4423 H 0.40488 0.00999 0.32566 0.0
H4424 H 0.41832 0.01093 0.33672 0.0
H4425 H 0.38236 0.96356 0.29236 0.0
H4426 H 0.39105 0.96498 0.27119 0.0
H4427 H 0.38355 0.97398 0.27406 0.0
C4428 C 0.60685 0.97394 0.29801 0.0
C4429 C 0.6104 0.97421 0.31695 0.0
C4430 C 0.59664 0.97518 0.29329 0.0
C4431 C 0.58995 0.97706 0.30781 0.0
C4432 C 0.59363 0.97767 0.32692 0.0
C4433 C 0.60373 0.9761 0.33129 0.0
C4434 C 0.59295 0.97436 0.27272 0.0
C4435 C 0.58687 0.97991 0.34273 0.0
C4436 C 0.57068 0.9903 0.28887 0.0
C4437 C 0.55911 0.97961 0.28655 0.0
C4438 C 0.58061 0.98975 0.29709 0.0
C4439 C 0.57902 0.9782 0.30276 0.0
C4440 C 0.56722 0.9675 0.30152 0.0
C4441 C 0.55738 0.96836 0.29366 0.0
C4442 C 0.59299 0.00143 0.2986 0.0
C4443 C 0.56516 0.95498 0.30726 0.0
H4444 H 0.61209 0.97283 0.28675 0.0
H4445 H 0.60627 0.97619 0.34598 0.0
H4446 H 0.58325 0.96685 0.27082 0.0
H4447 H 0.59344 0.98309 0.26825 0.0
H4448 H 0.59893 0.97255 0.2632 0.0
H4449 H 0.5913 0.9808 0.35674 0.0
H4450 H 0.58653 0.98846 0.33991 0.0
H4451 H 0.5772 0.97219 0.34344 0.0
H4452 H 0.57222 0.99904 0.28333 0.0
H4453 H 0.54841 0.9601 0.29241 0.0
H4454 H 0.59934 0.00132 0.28773 0.0
H4455 H 0.59722 0.00203 0.31267 0.0
H4456 H 0.59225 0.00983 0.29641 0.0
H4457 H 0.57016 0.95214 0.29734 0.0
H4458 H 0.55523 0.94779 0.30712 0.0
H4459 H 0.56891 0.95536 0.32164 0.0
C4460 C 0.01559 0.63201 0.30887 0.0
C4461 C 0.02169 0.63778 0.32572 0.0
C4462 C 0.01503 0.62109 0.30268 0.0
C4463 C 0.02065 0.61577 0.31366 0.0
C4464 C 0.02646 0.62132 0.331 0.0
C4465 C 0.02696 0.6323 0.33679 0.0
C4466 C 0.00883 0.61551 0.28402 0.0
C4467 C 0.03245 0.61585 0.34317 0.0
C4468 C 0.01173 0.58273 0.30142 0.0
C4469 C 0.02146 0.58458 0.28947 0.0
C4470 C 0.01151 0.59277 0.30994 0.0
C4471 C 0.0212 0.60493 0.30625 0.0
C4472 C 0.0312 0.60682 0.29458 0.0
C4473 C 0.03121 0.59663 0.28637 0.0
C4474 C 0.00076 0.5904 0.32245 0.0
C4475 C 0.04166 0.61964 0.29018 0.0
H4476 H 0.01162 0.63628 0.30017 0.0
H4477 H 0.03155 0.63664 0.34995 0.0
H4478 H 0.01576 0.61589 0.27383 0.0
H4479 H 0.00178 0.60564 0.28595 0.0
H4480 H 0.00431 0.62038 0.27772 0.0
H4481 H 0.03572 0.62073 0.35694 0.0
H4482 H 0.02585 0.60595 0.34596 0.0
H4483 H 0.04045 0.61636 0.33557 0.0
H4484 H 0.00421 0.57343 0.30394 0.0
H4485 H 0.03866 0.59815 0.27688 0.0
H4486 H 0.99542 0.59428 0.31574 0.0
H4487 H 0.00415 0.59511 0.33629 0.0
H4488 H 0.99445 0.5804 0.32502 0.0
H4489 H 0.03807 0.62486 0.2823 0.0
H4490 H 0.04902 0.61949 0.28156 0.0
H4491 H 0.04584 0.62475 0.3035 0.0
C4492 C 0.37619 0.399 0.32103 0.0
C4493 C 0.37201 0.38633 0.32231 0.0
C4494 C 0.38834 0.40735 0.31542 0.0
C4495 C 0.39638 0.40287 0.31063 0.0
C4496 C 0.39229 0.39012 0.3124 0.0
C4497 C 0.38017 0.38201 0.31837 0.0
C4498 C 0.39243 0.42091 0.31401 0.0
C4499 C 0.40052 0.38496 0.30713 0.0
C4500 C 0.42131 0.42081 0.27426 0.0
C4501 C 0.43197 0.4265 0.2855 0.0
C4502 C 0.40968 0.41318 0.28232 0.0
C4503 C 0.40867 0.41131 0.30217 0.0
C4504 C 0.41937 0.41722 0.31367 0.0
C4505 C 0.43095 0.42466 0.30515 0.0
C4506 C 0.39853 0.4069 0.26952 0.0
C4507 C 0.41859 0.41559 0.3349 0.0
H4508 H 0.36991 0.40234 0.32426 0.0
H4509 H 0.3769 0.3722 0.3192 0.0
H4510 H 0.40134 0.4265 0.3215 0.0
H4511 H 0.39394 0.4238 0.29894 0.0
H4512 H 0.38552 0.42304 0.32007 0.0
H4513 H 0.39621 0.37496 0.31045 0.0
H4514 H 0.40255 0.38626 0.29173 0.0
H4515 H 0.40946 0.38999 0.31472 0.0
H4516 H 0.42211 0.42206 0.25903 0.0
H4517 H 0.4392 0.42908 0.31383 0.0
H4518 H 0.39156 0.40945 0.27375 0.0
H4519 H 0.39415 0.39673 0.27097 0.0
H4520 H 0.40091 0.40937 0.25439 0.0
H4521 H 0.41196 0.41814 0.34081 0.0
H4522 H 0.42769 0.42128 0.3419 0.0
H4523 H 0.4151 0.40575 0.33848 0.0
C4524 C 0.31301 0.27745 0.38255 0.0
C4525 C 0.31491 0.28178 0.36384 0.0
C4526 C 0.3168 0.26917 0.38855 0.0
C4527 C 0.32256 0.26506 0.37549 0.0
C4528 C 0.32403 0.26899 0.35638 0.0
C4529 C 0.32024 0.27735 0.35081 0.0
C4530 C 0.31515 0.26527 0.40909 0.0
C4531 C 0.33 0.2647 0.342 0.0
C4532 C 0.34497 0.25626 0.39663 0.0
C4533 C 0.33771 0.24337 0.39776 0.0
C4534 C 0.34022 0.26338 0.389 0.0
C4535 C 0.32792 0.25747 0.38224 0.0
C4536 C 0.32065 0.24443 0.38278 0.0
C4537 C 0.32562 0.23753 0.39063 0.0
C4538 C 0.34825 0.27727 0.3888 0.0
C4539 C 0.30755 0.2378 0.37551 0.0
H4540 H 0.30902 0.28094 0.39273 0.0
H4541 H 0.32159 0.28057 0.33627 0.0
H4542 H 0.31037 0.25507 0.41019 0.0
H4543 H 0.32433 0.26896 0.4159 0.0
H4544 H 0.30978 0.26863 0.41713 0.0
H4545 H 0.32942 0.26768 0.32739 0.0
H4546 H 0.33988 0.26849 0.34564 0.0
H4547 H 0.32556 0.25449 0.34224 0.0
H4548 H 0.35424 0.26085 0.4024 0.0
H4549 H 0.32001 0.22756 0.39136 0.0
H4550 H 0.3441 0.28144 0.39795 0.0
H4551 H 0.3488 0.28086 0.37425 0.0
H4552 H 0.35777 0.2804 0.39389 0.0
H4553 H 0.30176 0.24026 0.38434 0.0
H4554 H 0.30343 0.22761 0.37573 0.0
H4555 H 0.30723 0.24075 0.3608 0.0
C4556 C 0.71764 0.04131 0.36861 0.0
C4557 C 0.72042 0.0327 0.36073 0.0
C4558 C 0.72706 0.05277 0.37521 0.0
C4559 C 0.73952 0.0557 0.37374 0.0
C4560 C 0.7424 0.04731 0.36483 0.0
C4561 C 0.7328 0.03588 0.35853 0.0
C4562 C 0.72361 0.06142 0.38477 0.0
C4563 C 0.75558 0.05016 0.36279 0.0
C4564 C 0.76526 0.08859 0.38345 0.0
C4565 C 0.7684 0.08756 0.40216 0.0
C4566 C 0.75586 0.07829 0.37391 0.0
C4567 C 0.74941 0.06681 0.38345 0.0
C4568 C 0.75245 0.06582 0.40243 0.0
C4569 C 0.76193 0.07618 0.41151 0.0
C4570 C 0.75292 0.07965 0.35363 0.0
C4571 C 0.7457 0.05379 0.41319 0.0
H4572 H 0.70808 0.03885 0.37043 0.0
H4573 H 0.73497 0.0293 0.35219 0.0
H4574 H 0.72564 0.06186 0.40015 0.0
H4575 H 0.72919 0.0709 0.37904 0.0
H4576 H 0.71367 0.05839 0.38298 0.0
H4577 H 0.75633 0.04333 0.35366 0.0
H4578 H 0.7614 0.0595 0.35671 0.0
H4579 H 0.75939 0.05009 0.37696 0.0
H4580 H 0.77027 0.09738 0.37621 0.0
H4581 H 0.76417 0.07543 0.4261 0.0
H4582 H 0.74306 0.07701 0.35232 0.0
H4583 H 0.75439 0.07331 0.34442 0.0
H4584 H 0.75871 0.08923 0.34829 0.0
H4585 H 0.73567 0.05054 0.41352 0.0
H4586 H 0.74905 0.05464 0.428 0.0
H4587 H 0.74687 0.04658 0.40591 0.0
C4588 C 0.95505 0.68636 0.36133 0.0
C4589 C 0.96295 0.68638 0.37543 0.0
C4590 C 0.94266 0.68254 0.3654 0.0
C4591 C 0.9382 0.67891 0.3841 0.0
C4592 C 0.9463 0.67936 0.39851 0.0
C4593 C 0.95855 0.68296 0.39394 0.0
C4594 C 0.93425 0.68194 0.3496 0.0
C4595 C 0.94196 0.67578 0.41869 0.0
C4596 C 0.90836 0.67683 0.40086 0.0
C4597 C 0.90037 0.66399 0.40153 0.0
C4598 C 0.92061 0.68188 0.39463 0.0
C4599 C 0.92491 0.67392 0.38851 0.0
C4600 C 0.91671 0.66102 0.38803 0.0
C4601 C 0.90462 0.65621 0.39474 0.0
C4602 C 0.92912 0.69568 0.3955 0.0
C4603 C 0.92088 0.65223 0.38129 0.0
H4604 H 0.95848 0.68893 0.34698 0.0
H4605 H 0.96472 0.68309 0.40485 0.0
H4606 H 0.92702 0.6722 0.34715 0.0
H4607 H 0.92948 0.68707 0.35357 0.0
H4608 H 0.93932 0.6858 0.33612 0.0
H4609 H 0.94963 0.67751 0.42844 0.0
H4610 H 0.93754 0.68103 0.42382 0.0
H4611 H 0.93491 0.66583 0.41934 0.0
H4612 H 0.90515 0.68295 0.40567 0.0
H4613 H 0.89869 0.64629 0.39543 0.0
H4614 H 0.93386 0.6992 0.38173 0.0
H4615 H 0.93637 0.69789 0.40633 0.0
H4616 H 0.92413 0.70066 0.39918 0.0
H4617 H 0.92566 0.6553 0.36744 0.0
H4618 H 0.91305 0.64264 0.37977 0.0
H4619 H 0.92757 0.65217 0.39154 0.0
C4620 C 0.39502 0.02813 0.7132 0.0
C4621 C 0.38852 0.024 0.69608 0.0
C4622 C 0.40368 0.0247 0.7186 0.0
C4623 C 0.40589 0.01694 0.7066 0.0
C4624 C 0.39981 0.01323 0.68889 0.0
C4625 C 0.39119 0.0168 0.68384 0.0
C4626 C 0.40997 0.02884 0.73762 0.0
C4627 C 0.40196 0.00501 0.67567 0.0
C4628 C 0.4335 0.01306 0.71812 0.0
C4629 C 0.42794 0.00218 0.72892 0.0
C4630 C 0.42643 0.01788 0.71038 0.0
C4631 C 0.41352 0.01167 0.71352 0.0
C4632 C 0.40784 0.00056 0.72404 0.0
C4633 C 0.4151 0.99599 0.73166 0.0
C4634 C 0.43279 0.02975 0.6992 0.0
C4635 C 0.3941 0.99364 0.72774 0.0
H4636 H 0.39293 0.03359 0.72281 0.0
H4637 H 0.38635 0.01376 0.67044 0.0
H4638 H 0.4066 0.02077 0.74721 0.0
H4639 H 0.42009 0.03284 0.73609 0.0
H4640 H 0.40818 0.03581 0.74441 0.0
H4641 H 0.39755 0.00404 0.66164 0.0
H4642 H 0.412 0.00872 0.67356 0.0
H4643 H 0.39813 0.9957 0.68205 0.0
H4644 H 0.44338 0.01785 0.71582 0.0
H4645 H 0.41073 0.98774 0.74032 0.0
H4646 H 0.4318 0.03701 0.70667 0.0
H4647 H 0.42837 0.02844 0.68511 0.0
H4648 H 0.44278 0.03309 0.69716 0.0
H4649 H 0.39153 0.99948 0.73622 0.0
H4650 H 0.39104 0.98485 0.73548 0.0
H4651 H 0.38896 0.99153 0.71417 0.0
C4652 C 0.9628 0.36313 0.71192 0.0
C4653 C 0.97083 0.36264 0.69857 0.0
C4654 C 0.9641 0.37445 0.71767 0.0
C4655 C 0.97365 0.38556 0.70983 0.0
C4656 C 0.98154 0.38511 0.69586 0.0
C4657 C 0.98004 0.37365 0.69041 0.0
C4658 C 0.95549 0.37454 0.73258 0.0
C4659 C 0.99181 0.39676 0.68717 0.0
C4660 C 0.97094 0.41414 0.7179 0.0
C4661 C 0.97832 0.41921 0.73405 0.0
C4662 C 0.96966 0.40341 0.70938 0.0
C4663 C 0.97588 0.39762 0.71728 0.0
C4664 C 0.98366 0.40293 0.73319 0.0
C4665 C 0.98478 0.41364 0.74137 0.0
C4666 C 0.96137 0.39806 0.69233 0.0
C4667 C 0.99041 0.397 0.74209 0.0
H4668 H 0.95551 0.35464 0.71801 0.0
H4669 H 0.98635 0.37335 0.6802 0.0
H4670 H 0.96081 0.37927 0.7455 0.0
H4671 H 0.95105 0.37976 0.72743 0.0
H4672 H 0.94815 0.36508 0.73654 0.0
H4673 H 0.99643 0.3948 0.67534 0.0
H4674 H 0.98818 0.40267 0.68178 0.0
H4675 H 0.99883 0.40215 0.69813 0.0
H4676 H 0.96601 0.41847 0.71208 0.0
H4677 H 0.99033 0.41736 0.75404 0.0
H4678 H 0.95327 0.38901 0.69609 0.0
H4679 H 0.96634 0.39641 0.68072 0.0
H4680 H 0.95799 0.4042 0.687 0.0
H4681 H 0.98363 0.38786 0.748 0.0
H4682 H 0.99671 0.40272 0.75365 0.0
H4683 H 0.99589 0.39543 0.73124 0.0
C4684 C 0.62734 0.61773 0.7128 0.0
C4685 C 0.63359 0.6159 0.69779 0.0
C4686 C 0.6152 0.60881 0.7174 0.0
C4687 C 0.60914 0.59774 0.70678 0.0
C4688 C 0.61537 0.59581 0.69159 0.0
C4689 C 0.62754 0.60493 0.68727 0.0
C4690 C 0.6089 0.61119 0.73378 0.0
C4691 C 0.60919 0.58412 0.67998 0.0
C4692 C 0.58277 0.57153 0.73334 0.0
C4693 C 0.57259 0.57231 0.72679 0.0
C4694 C 0.59465 0.57929 0.72614 0.0
C4695 C 0.59641 0.5881 0.71211 0.0
C4696 C 0.5861 0.58849 0.70467 0.0
C4697 C 0.5743 0.58058 0.7121 0.0
C4698 C 0.6054 0.57857 0.73443 0.0
C4699 C 0.58761 0.59771 0.68962 0.0
H4700 H 0.63202 0.6261 0.72117 0.0
H4701 H 0.63228 0.60352 0.67552 0.0
H4702 H 0.60019 0.61061 0.72891 0.0
H4703 H 0.60644 0.60402 0.74482 0.0
H4704 H 0.6148 0.6204 0.74032 0.0
H4705 H 0.61522 0.58413 0.66841 0.0
H4706 H 0.60663 0.57602 0.68922 0.0
H4707 H 0.60053 0.5829 0.67366 0.0
H4708 H 0.5816 0.56531 0.74487 0.0
H4709 H 0.56645 0.58111 0.70679 0.0
H4710 H 0.61119 0.58695 0.743 0.0
H4711 H 0.61132 0.57826 0.72299 0.0
H4712 H 0.60235 0.57034 0.74364 0.0
H4713 H 0.59245 0.60715 0.69573 0.0
H4714 H 0.57859 0.59592 0.68385 0.0
H4715 H 0.59336 0.59755 0.67779 0.0
C4716 C 0.68106 0.72366 0.66465 0.0
C4717 C 0.69085 0.72303 0.6561 0.0
C4718 C 0.67837 0.73293 0.65965 0.0
C4719 C 0.68565 0.74175 0.64577 0.0
C4720 C 0.69578 0.74139 0.63753 0.0
C4721 C 0.69826 0.73204 0.6428 0.0
C4722 C 0.6675 0.73302 0.66874 0.0
C4723 C 0.70379 0.75066 0.62272 0.0
C4724 C 0.67245 0.75718 0.61504 0.0
C4725 C 0.67822 0.76917 0.62254 0.0
C4726 C 0.67437 0.74801 0.62301 0.0
C4727 C 0.68227 0.7509 0.63887 0.0
C4728 C 0.68766 0.76281 0.64709 0.0
C4729 C 0.68558 0.77181 0.63881 0.0
C4730 C 0.66845 0.73542 0.61383 0.0
C4731 C 0.69605 0.76619 0.6641 0.0
H4732 H 0.67522 0.71665 0.67481 0.0
H4733 H 0.70597 0.73173 0.63639 0.0
H4734 H 0.67032 0.74233 0.67442 0.0
H4735 H 0.66025 0.73085 0.65794 0.0
H4736 H 0.66343 0.7262 0.68043 0.0
H4737 H 0.71166 0.74947 0.61837 0.0
H4738 H 0.69818 0.74971 0.60998 0.0
H4739 H 0.70749 0.76019 0.62817 0.0
H4740 H 0.66691 0.75509 0.60231 0.0
H4741 H 0.68995 0.78102 0.64479 0.0
H4742 H 0.66357 0.72809 0.62459 0.0
H4743 H 0.67569 0.73394 0.6074 0.0
H4744 H 0.66176 0.73435 0.60259 0.0
H4745 H 0.69159 0.75919 0.67545 0.0
H4746 H 0.69853 0.7754 0.6699 0.0
H4747 H 0.70468 0.7663 0.66006 0.0
C4748 C 0.28298 0.95578 0.66605 0.0
C4749 C 0.28287 0.96561 0.65666 0.0
C4750 C 0.27482 0.9435 0.66083 0.0
C4751 C 0.26642 0.94099 0.64575 0.0
C4752 C 0.26596 0.95085 0.63669 0.0
C4753 C 0.27417 0.96304 0.64229 0.0
C4754 C 0.27553 0.93324 0.67095 0.0
C4755 C 0.2572 0.94857 0.62046 0.0
C4756 C 0.25692 0.9122 0.61651 0.0
C4757 C 0.24489 0.90423 0.62301 0.0
C4758 C 0.26401 0.92412 0.62392 0.0
C4759 C 0.25899 0.92821 0.63825 0.0
C4760 C 0.24689 0.92019 0.64503 0.0
C4761 C 0.23995 0.90829 0.63725 0.0
C4762 C 0.27683 0.93242 0.61617 0.0
C4763 C 0.24127 0.92421 0.6604 0.0
H4764 H 0.28956 0.95772 0.67737 0.0
H4765 H 0.27411 0.9706 0.63488 0.0
H4766 H 0.2662 0.92602 0.6756 0.0
H4767 H 0.27905 0.9288 0.66109 0.0
H4768 H 0.2817 0.93662 0.68351 0.0
H4769 H 0.25726 0.95711 0.61599 0.0
H4770 H 0.25983 0.94487 0.60814 0.0
H4771 H 0.24765 0.94154 0.62448 0.0
H4772 H 0.2607 0.90922 0.60523 0.0
H4773 H 0.23067 0.90213 0.64236 0.0
H4774 H 0.28371 0.93547 0.6278 0.0
H4775 H 0.27741 0.94082 0.60988 0.0
H4776 H 0.27942 0.92777 0.60517 0.0
H4777 H 0.24726 0.92711 0.67315 0.0
H4778 H 0.23189 0.91676 0.66446 0.0
H4779 H 0.24067 0.93232 0.65554 0.0
C4780 C 0.03752 0.32013 0.63981 0.0
C4781 C 0.03169 0.31358 0.65632 0.0
C4782 C 0.04906 0.3219 0.63433 0.0
C4783 C 0.05496 0.31705 0.64572 0.0
C4784 C 0.04935 0.31083 0.66278 0.0
C4785 C 0.03773 0.30911 0.66784 0.0
C4786 C 0.0547 0.32849 0.61594 0.0
C4787 C 0.05542 0.30566 0.67538 0.0
C4788 C 0.07634 0.30903 0.61925 0.0
C4789 C 0.08794 0.31944 0.62263 0.0
C4790 C 0.0656 0.30799 0.62718 0.0
C4791 C 0.06645 0.31759 0.63884 0.0
C4792 C 0.07817 0.32793 0.64288 0.0
C4793 C 0.08879 0.32877 0.63463 0.0
C4794 C 0.05328 0.29685 0.6224 0.0
C4795 C 0.07944 0.33827 0.65543 0.0
H4796 H 0.03283 0.3235 0.63076 0.0
H4797 H 0.03332 0.30418 0.68075 0.0
H4798 H 0.06428 0.3361 0.61833 0.0
H4799 H 0.05515 0.32196 0.60578 0.0
H4800 H 0.04932 0.33239 0.60935 0.0
H4801 H 0.05042 0.3021 0.68899 0.0
H4802 H 0.05573 0.29799 0.66798 0.0
H4803 H 0.06509 0.31284 0.67847 0.0
H4804 H 0.07558 0.30189 0.60972 0.0
H4805 H 0.09774 0.3368 0.63738 0.0
H4806 H 0.0476 0.29979 0.61423 0.0
H4807 H 0.04813 0.29235 0.63555 0.0
H4808 H 0.05426 0.28992 0.6139 0.0
H4809 H 0.0751 0.3431 0.64845 0.0
H4810 H 0.08924 0.34513 0.65849 0.0
H4811 H 0.07453 0.33452 0.66903 0.0
C4812 C 0.26892 0.30983 0.66084 0.0
C4813 C 0.27999 0.31462 0.65062 0.0
C4814 C 0.25988 0.31286 0.65592 0.0
C4815 C 0.26202 0.32092 0.6405 0.0
C4816 C 0.2732 0.32581 0.63019 0.0
C4817 C 0.28203 0.32259 0.63535 0.0
C4818 C 0.24802 0.3074 0.66713 0.0
C4819 C 0.27586 0.33451 0.61372 0.0
C4820 C 0.23612 0.32143 0.61347 0.0
C4821 C 0.23689 0.33236 0.62016 0.0
C4822 C 0.24382 0.31725 0.62069 0.0
C4823 C 0.25257 0.3242 0.63485 0.0
C4824 C 0.253 0.33491 0.64233 0.0
C4825 C 0.24513 0.33885 0.63493 0.0
C4826 C 0.24304 0.30575 0.61241 0.0
C4827 C 0.2622 0.34256 0.65747 0.0
H4828 H 0.26727 0.3036 0.67256 0.0
H4829 H 0.29066 0.32648 0.62762 0.0
H4830 H 0.24678 0.31489 0.67321 0.0
H4831 H 0.24004 0.3019 0.65764 0.0
H4832 H 0.24784 0.30137 0.67883 0.0
H4833 H 0.28505 0.33757 0.60727 0.0
H4834 H 0.2687 0.32992 0.60262 0.0
H4835 H 0.27552 0.34278 0.61848 0.0
H4836 H 0.22992 0.31644 0.60189 0.0
H4837 H 0.24565 0.3472 0.64036 0.0
H4838 H 0.24257 0.29945 0.62385 0.0
H4839 H 0.25148 0.3083 0.60402 0.0
H4840 H 0.23488 0.30067 0.60303 0.0
H4841 H 0.26176 0.33662 0.66946 0.0
H4842 H 0.2606 0.34996 0.66298 0.0
H4843 H 0.27169 0.34691 0.65157 0.0
C4844 C 0.68961 0.96057 0.6739 0.0
C4845 C 0.68639 0.96753 0.66208 0.0
C4846 C 0.68638 0.94841 0.66912 0.0
C4847 C 0.67963 0.94309 0.65228 0.0
C4848 C 0.67616 0.95002 0.64052 0.0
C4849 C 0.67964 0.96217 0.64552 0.0
C4850 C 0.69038 0.94136 0.68184 0.0
C4851 C 0.66881 0.94462 0.62258 0.0
C4852 C 0.68017 0.91705 0.62581 0.0
C4853 C 0.66854 0.90696 0.6303 0.0
C4854 C 0.68423 0.92871 0.63385 0.0
C4855 C 0.67642 0.9304 0.64647 0.0
C4856 C 0.66497 0.92015 0.65186 0.0
C4857 C 0.66121 0.90853 0.64382 0.0
C4858 C 0.69658 0.93938 0.62792 0.0
C4859 C 0.65636 0.92159 0.66524 0.0
H4860 H 0.69488 0.96474 0.68668 0.0
H4861 H 0.67698 0.96748 0.63652 0.0
H4862 H 0.68226 0.93252 0.68628 0.0
H4863 H 0.69663 0.93904 0.67396 0.0
H4864 H 0.69526 0.94669 0.69471 0.0
H4865 H 0.66647 0.95109 0.61539 0.0
H4866 H 0.67415 0.94225 0.61259 0.0
H4867 H 0.66011 0.93596 0.62584 0.0
H4868 H 0.68587 0.91604 0.61523 0.0
H4869 H 0.65233 0.90075 0.64768 0.0
H4870 H 0.7019 0.94473 0.64048 0.0
H4871 H 0.69513 0.94573 0.6187 0.0
H4872 H 0.7022 0.93626 0.62 0.0
H4873 H 0.66137 0.92669 0.67814 0.0
H4874 H 0.64842 0.91254 0.66954 0.0
H4875 H 0.65273 0.92706 0.65824 0.0
C4876 C 0.03672 0.72707 0.63161 0.0
C4877 C 0.0334 0.7233 0.65044 0.0
C4878 C 0.04903 0.73533 0.62669 0.0
C4879 C 0.05823 0.73997 0.64095 0.0
C4880 C 0.05487 0.73656 0.66008 0.0
C4881 C 0.04249 0.72823 0.66459 0.0
C4882 C 0.05226 0.7387 0.60611 0.0
C4883 C 0.0644 0.74139 0.67569 0.0
C4884 C 0.09048 0.74896 0.6244 0.0
C4885 C 0.09594 0.76179 0.6223 0.0
C4886 C 0.07833 0.74182 0.63098 0.0
C4887 C 0.07146 0.74764 0.63558 0.0
C4888 C 0.07703 0.76063 0.6341 0.0
C4889 C 0.08921 0.76756 0.6274 0.0
C4890 C 0.0727 0.72798 0.63228 0.0
C4891 C 0.07002 0.76716 0.63905 0.0
H4892 H 0.02977 0.72319 0.62059 0.0
H4893 H 0.03993 0.72546 0.6792 0.0
H4894 H 0.05756 0.74888 0.60442 0.0
H4895 H 0.05822 0.73506 0.60106 0.0
H4896 H 0.04394 0.73493 0.59693 0.0
H4897 H 0.06015 0.73867 0.68997 0.0
H4898 H 0.07081 0.73777 0.67379 0.0
H4899 H 0.06999 0.75161 0.67502 0.0
H4900 H 0.09553 0.7444 0.62017 0.0
H4901 H 0.09343 0.77748 0.62594 0.0
H4902 H 0.06491 0.72341 0.62216 0.0
H4903 H 0.06893 0.72472 0.64669 0.0
H4904 H 0.07948 0.72496 0.62908 0.0
H4905 H 0.06222 0.76433 0.62904 0.0
H4906 H 0.07595 0.77737 0.63846 0.0
H4907 H 0.06603 0.76449 0.65347 0.0
C4908 C 0.97218 0.6075 0.7098 0.0
C4909 C 0.97931 0.61668 0.69653 0.0
C4910 C 0.97548 0.59881 0.71561 0.0
C4911 C 0.98611 0.59923 0.70783 0.0
C4912 C 0.99308 0.60816 0.6939 0.0
C4913 C 0.98965 0.61682 0.68849 0.0
C4914 C 0.96781 0.58944 0.73054 0.0
C4915 C 0.00444 0.60885 0.68519 0.0
C4916 C 0.0021 0.58663 0.73865 0.0
C4917 C 0.9976 0.57475 0.73117 0.0
C4918 C 0.99859 0.59474 0.73095 0.0
C4919 C 0.99041 0.59091 0.71531 0.0
C4920 C 0.98608 0.57905 0.70736 0.0
C4921 C 0.98967 0.57107 0.71547 0.0
C4922 C 0.00333 0.60727 0.73995 0.0
C4923 C 0.97747 0.57472 0.69054 0.0
H4924 H 0.96405 0.60717 0.71582 0.0
H4925 H 0.99531 0.62396 0.6784 0.0
H4926 H 0.96485 0.57997 0.72545 0.0
H4927 H 0.97346 0.591 0.74347 0.0
H4928 H 0.95948 0.58994 0.73447 0.0
H4929 H 0.00817 0.61557 0.67331 0.0
H4930 H 0.01173 0.61167 0.69613 0.0
H4931 H 0.0023 0.59965 0.67987 0.0
H4932 H 0.00805 0.58945 0.75099 0.0
H4933 H 0.98623 0.56191 0.7096 0.0
H4934 H 0.99548 0.60804 0.74564 0.0
H4935 H 0.00801 0.61464 0.72919 0.0
H4936 H 0.00992 0.60897 0.75167 0.0
H4937 H 0.96863 0.57418 0.69441 0.0
H4938 H 0.97548 0.56551 0.6854 0.0
H4939 H 0.98154 0.58144 0.67875 0.0
C4940 C 0.3874 0.37645 0.71094 0.0
C4941 C 0.38882 0.36926 0.69698 0.0
C4942 C 0.39747 0.38762 0.71708 0.0
C4943 C 0.40931 0.39164 0.70931 0.0
C4944 C 0.41075 0.38468 0.69477 0.0
C4945 C 0.40048 0.37361 0.6887 0.0
C4946 C 0.39553 0.39484 0.73252 0.0
C4947 C 0.42325 0.38863 0.68622 0.0
C4948 C 0.43422 0.42468 0.71991 0.0
C4949 C 0.43976 0.42307 0.73614 0.0
C4950 C 0.42448 0.41452 0.71067 0.0
C4951 C 0.42028 0.40247 0.71771 0.0
C4952 C 0.42612 0.40074 0.73364 0.0
C4953 C 0.43569 0.41104 0.74273 0.0
C4954 C 0.41841 0.4167 0.69379 0.0
C4955 C 0.42199 0.38803 0.74152 0.0
H4956 H 0.3785 0.37314 0.71764 0.0
H4957 H 0.40163 0.36826 0.67765 0.0
H4958 H 0.40021 0.39451 0.74567 0.0
H4959 H 0.39967 0.40468 0.72839 0.0
H4960 H 0.38559 0.39113 0.73571 0.0
H4961 H 0.42265 0.3828 0.67394 0.0
H4962 H 0.42771 0.39839 0.68153 0.0
H4963 H 0.42933 0.38802 0.69709 0.0
H4964 H 0.43739 0.4339 0.71455 0.0
H4965 H 0.43966 0.40965 0.75547 0.0
H4966 H 0.40872 0.41392 0.69734 0.0
H4967 H 0.41812 0.41093 0.68165 0.0
H4968 H 0.42327 0.42653 0.68931 0.0
H4969 H 0.41246 0.38398 0.74714 0.0
H4970 H 0.42809 0.3882 0.75309 0.0
H4971 H 0.4218 0.38183 0.73014 0.0
C4972 C 0.62572 0.00955 0.70906 0.0
C4973 C 0.63378 0.02115 0.70118 0.0
C4974 C 0.6138 0.00648 0.71486 0.0
C4975 C 0.60983 0.0152 0.71271 0.0
C4976 C 0.61779 0.0268 0.70432 0.0
C4977 C 0.62971 0.02966 0.69871 0.0
C4978 C 0.60562 0.99403 0.72388 0.0
C4979 C 0.61383 0.03629 0.70169 0.0
C4980 C 0.57526 0.00238 0.7175 0.0
C4981 C 0.5743 0.00488 0.73659 0.0
C4982 C 0.58683 0.0061 0.70926 0.0
C4983 C 0.59764 0.0124 0.72044 0.0
C4984 C 0.59674 0.01529 0.73953 0.0
C4985 C 0.5851 0.0115 0.74737 0.0
C4986 C 0.58745 0.00295 0.6888 0.0
C4987 C 0.60804 0.02192 0.75197 0.0
H4988 H 0.62887 0.003 0.71125 0.0
H4989 H 0.63586 0.03858 0.69243 0.0
H4990 H 0.60373 0.99529 0.73883 0.0
H4991 H 0.5966 0.98916 0.71644 0.0
H4992 H 0.60986 0.98807 0.72363 0.0
H4993 H 0.62078 0.04452 0.69375 0.0
H4994 H 0.60491 0.03218 0.694 0.0
H4995 H 0.61239 0.03936 0.71573 0.0
H4996 H 0.56696 0.99736 0.70907 0.0
H4997 H 0.58442 0.01328 0.76222 0.0
H4998 H 0.59068 0.99616 0.68799 0.0
H4999 H 0.59421 0.0113 0.68095 0.0
H5000 H 0.57834 0.99897 0.68162 0.0
H5001 H 0.61231 0.01607 0.75391 0.0
H5002 H 0.60584 0.02417 0.76615 0.0
H5003 H 0.61503 0.03062 0.74511 0.0
loop_
_geom_bond_atom_site_label_1
_geom_bond_atom_site_label_2
_geom_bond_distance
_geom_bond_site_symmetry_2
_ccdc_geom_bond_type
Li0 N17 1.990 . S
Li0 O60 1.956 . S
Li0 O61 1.970 1_654 S
Li0 O62 1.961 . S
Li1 N25 1.990 . S
Li1 O60 1.970 1_455 S
Li1 O61 1.956 1_554 S
Li1 O63 1.961 . S
Li2 N47 1.990 . S
Li2 O60 1.961 . S
Li2 O62 1.956 . S
Li2 O63 1.970 1_655 S
Li3 N53 1.990 . S
Li3 O61 1.961 . S
Li3 O62 1.970 1_456 S
Li3 O63 1.956 1_556 S
C4 C6 1.348 1_655 S
C4 C7 1.356 . S
C4 O60 1.325 . S
N5 C8 1.314 . S
N5 C9 1.279 . S
C6 C4 1.348 1_455 S
C6 C8 1.353 1_455 S
C6 H64 0.929 . S
C7 C4 1.356 . S
C7 C9 1.358 . S
C7 H65 0.930 . S
C8 N5 1.314 . S
C8 C6 1.353 1_655 S
C8 H66 0.930 1_655 S
C9 N5 1.279 . S
C9 C7 1.358 . S
C9 H67 0.930 . S
C10 C13 1.349 1_455 S
C10 C14 1.356 . S
C10 O61 1.325 . S
C11 N12 1.279 . S
C11 C14 1.358 . S
C11 H68 0.930 . S
N12 C11 1.279 . S
N12 C15 1.314 . S
C13 C10 1.349 1_655 S
C13 C15 1.325 1_655 S
C13 H69 0.960 . S
C14 C10 1.356 . S
C14 C11 1.358 . S
C14 H70 0.930 . S
C15 N12 1.314 . S
C15 C13 1.325 1_455 S
C15 H71 0.930 1_455 S
C16 N17 1.314 1_556 S
C16 C21 1.353 . S
C16 H22 0.930 . S
N17 Li0 1.990 . S
N17 C16 1.314 1_554 S
N17 C19 1.279 . S
C18 C19 1.358 . S
C18 C20 1.356 1_554 S
C18 H72 0.930 . S
C19 N17 1.279 . S
C19 C18 1.358 . S
C19 H23 0.930 . S
C20 C18 1.356 1_556 S
C20 C21 1.348 . S
C21 C16 1.353 . S
C21 C20 1.348 . S
C21 H73 0.929 . S
H22 C16 0.930 . S
H23 C19 0.930 . S
C24 N25 1.314 . S
C24 C26 1.353 . S
C24 H30 0.930 . S
N25 Li1 1.990 . S
N25 C24 1.314 . S
N25 C28 1.279 . S
C26 C24 1.353 . S
C26 C29 1.348 . S
C26 H74 0.929 . S
C27 C28 1.358 . S
C27 C29 1.356 . S
C27 H75 0.930 . S
C28 N25 1.279 . S
C28 C27 1.358 . S
C28 H31 0.930 1_554 S
C29 C26 1.348 . S
C29 C27 1.356 . S
H30 C24 0.930 . S
H31 C28 0.930 1_556 S
C32 C34 1.348 1_554 S
C32 C35 1.356 . S
C32 O62 1.325 . S
N33 C36 1.314 . S
N33 C37 1.279 1_556 S
C34 C32 1.348 1_556 S
C34 C36 1.353 . S
C34 H76 0.929 . S
C35 C32 1.356 . S
C35 C37 1.358 . S
C35 H77 0.930 . S
C36 N33 1.314 . S
C36 C34 1.353 . S
C36 H78 0.930 . S
C37 N33 1.279 1_554 S
C37 C35 1.358 . S
C37 H79 0.930 . S
C38 C39 1.348 . S
C38 C40 1.356 . S
C38 O63 1.325 . S
C39 C38 1.348 . S
C39 C41 1.353 . S
C39 H80 0.929 . S
C40 C38 1.356 . S
C40 C42 1.358 . S
C40 H81 0.930 . S
C41 C39 1.353 . S
C41 N43 1.314 . S
C41 H82 0.930 . S
C42 C40 1.358 . S
C42 N43 1.279 . S
C42 H83 0.930 . S
N43 C41 1.314 . S
N43 C42 1.279 . S
C44 C46 1.353 . S
C44 N47 1.314 . S
C44 H50 0.930 1_655 S
C45 N47 1.279 . S
C45 C48 1.358 . S
C45 H51 0.930 . S
C46 C44 1.353 . S
C46 C49 1.348 . S
C46 H84 0.931 1_655 S
N47 Li2 1.990 . S
N47 C44 1.314 . S
N47 C45 1.279 . S
C48 C45 1.358 . S
C48 C49 1.356 . S
C48 H85 0.930 . S
C49 C46 1.348 . S
C49 C48 1.356 . S
H50 C44 0.930 1_455 S
H51 C45 0.930 . S
C52 N53 1.314 . S
C52 C54 1.353 . S
C52 H58 0.930 1_455 S
N53 Li3 1.990 . S
N53 C52 1.314 . S
N53 C56 1.279 . S
C54 C52 1.353 . S
C54 C57 1.348 . S
C54 H86 0.948 . S
C55 C56 1.358 . S
C55 C57 1.356 . S
C55 H87 0.930 . S
C56 N53 1.279 . S
C56 C55 1.358 . S
C56 H59 0.930 . S
C57 C54 1.348 . S
C57 C55 1.356 . S
H58 C52 0.930 1_655 S
H59 C56 0.930 . S
O60 Li0 1.956 . S
O60 Li1 1.970 1_655 S
O60 Li2 1.961 . S
O60 C4 1.325 . S
O61 Li0 1.970 1_456 S
O61 Li1 1.956 1_556 S
O61 Li3 1.961 . S
O61 C10 1.325 . S
O62 Li0 1.961 . S
O62 Li2 1.956 . S
O62 Li3 1.970 1_654 S
O62 C32 1.325 . S
O63 Li1 1.961 . S
O63 Li2 1.970 1_455 S
O63 Li3 1.956 1_554 S
O63 C38 1.325 . S
H64 C6 0.929 . S
H65 C7 0.930 . S
H66 C8 0.930 1_455 S
H67 C9 0.930 . S
H68 C11 0.930 . S
H69 C13 0.960 . S
H70 C14 0.930 . S
H71 C15 0.930 1_655 S
H72 C18 0.930 . S
H73 C21 0.929 . S
H74 C26 0.929 . S
H75 C27 0.930 . S
H76 C34 0.929 . S
H77 C35 0.930 . S
H78 C36 0.930 . S
H79 C37 0.930 . S
H80 C39 0.929 . S
H81 C40 0.930 . S
H82 C41 0.930 . S
H83 C42 0.930 . S
H84 C46 0.931 1_455 S
H85 C48 0.930 . S
H86 C54 0.948 . S
H87 C55 0.930 . S
Li88 N105 1.990 . S
Li88 O148 1.956 . S
Li88 O149 1.970 1_554 S
Li88 O150 1.961 . S
Li89 N113 1.990 . S
Li89 O148 1.970 . S
Li89 O149 1.956 1_554 S
Li89 O151 1.961 . S
Li90 N135 1.990 . S
Li90 O148 1.961 . S
Li90 O150 1.956 . S
Li90 O151 1.970 . S
Li91 N141 1.990 . S
Li91 O149 1.961 . S
Li91 O150 1.970 1_556 S
Li91 O151 1.956 1_556 S
C92 C94 1.348 . S
C92 C95 1.356 . S
C92 O148 1.325 . S
N93 C96 1.314 . S
N93 C97 1.279 . S
C94 C92 1.348 . S
C94 C96 1.353 . S
C94 H152 0.929 . S
C95 C92 1.356 . S
C95 C97 1.358 . S
C95 H153 0.930 . S
C96 N93 1.314 . S
C96 C94 1.353 . S
C96 H154 0.930 . S
C97 N93 1.279 . S
C97 C95 1.358 . S
C97 H155 0.930 . S
C98 C101 1.348 . S
C98 C102 1.356 . S
C98 O149 1.325 . S
C99 N100 1.279 . S
C99 C102 1.358 . S
C99 H156 0.930 . S
N100 C99 1.279 . S
N100 C103 1.314 . S
C101 C98 1.348 . S
C101 C103 1.353 . S
C101 H157 0.929 . S
C102 C98 1.356 . S
C102 C99 1.358 . S
C102 H158 0.930 . S
C103 N100 1.314 . S
C103 C101 1.353 . S
C103 H159 0.930 . S
C104 N105 1.314 1_556 S
C104 C109 1.353 . S
C104 H110 0.930 . S
N105 Li88 1.990 . S
N105 C104 1.314 1_554 S
N105 C107 1.279 . S
C106 C107 1.358 . S
C106 C108 1.356 1_554 S
C106 H160 0.930 . S
C107 N105 1.279 . S
C107 C106 1.358 . S
C107 H111 0.930 . S
C108 C106 1.356 1_556 S
C108 C109 1.348 . S
C109 C104 1.353 . S
C109 C108 1.348 . S
C109 H161 0.929 . S
H110 C104 0.930 . S
H111 C107 0.930 . S
C112 N113 1.314 . S
C112 C114 1.353 . S
C112 H118 0.930 . S
N113 Li89 1.990 . S
N113 C112 1.314 . S
N113 C116 1.279 . S
C114 C112 1.353 . S
C114 C117 1.348 . S
C114 H162 0.929 . S
C115 C116 1.358 . S
C115 C117 1.356 . S
C115 H163 0.930 . S
C116 N113 1.279 . S
C116 C115 1.358 . S
C116 H119 0.948 . S
C117 C114 1.348 . S
C117 C115 1.356 . S
H118 C112 0.930 . S
H119 C116 0.948 . S
C120 C122 1.348 1_554 S
C120 C123 1.356 . S
C120 O150 1.325 . S
N121 C124 1.314 . S
N121 C125 1.279 1_556 S
C122 C120 1.348 1_556 S
C122 C124 1.353 . S
C122 H164 0.929 . S
C123 C120 1.356 . S
C123 C125 1.358 . S
C123 H165 0.930 . S
C124 N121 1.314 . S
C124 C122 1.353 . S
C124 H166 0.930 . S
C125 N121 1.279 1_554 S
C125 C123 1.358 . S
C125 H167 0.930 . S
C126 C127 1.348 . S
C126 C128 1.356 . S
C126 O151 1.325 . S
C127 C126 1.348 . S
C127 C129 1.353 . S
C127 H168 0.929 . S
C128 C126 1.356 . S
C128 C130 1.358 . S
C128 H169 0.930 . S
C129 C127 1.353 . S
C129 N131 1.314 . S
C129 H170 0.930 . S
C130 C128 1.358 . S
C130 N131 1.279 . S
C130 H171 0.930 . S
N131 C129 1.314 . S
N131 C130 1.279 . S
C132 C134 1.353 . S
C132 N135 1.314 . S
C132 H138 0.930 . S
C133 N135 1.279 . S
C133 C136 1.358 . S
C133 H139 0.930 . S
C134 C132 1.353 . S
C134 C137 1.348 . S
C134 H172 0.929 . S
N135 Li90 1.990 . S
N135 C132 1.314 . S
N135 C133 1.279 . S
C136 C133 1.358 . S
C136 C137 1.356 . S
C136 H173 0.930 . S
C137 C134 1.348 . S
C137 C136 1.356 . S
H138 C132 0.930 . S
H139 C133 0.930 . S
C140 N141 1.314 . S
C140 C142 1.353 . S
C140 H146 0.930 . S
N141 Li91 1.990 . S
N141 C140 1.314 . S
N141 C144 1.279 . S
C142 C140 1.353 . S
C142 C145 1.348 . S
C142 H174 0.929 . S
C143 C144 1.358 . S
C143 C145 1.356 . S
C143 H175 0.930 . S
C144 N141 1.279 . S
C144 C143 1.358 . S
C144 H147 0.930 . S
C145 C142 1.348 . S
C145 C143 1.356 . S
H146 C140 0.930 . S
H147 C144 0.930 . S
O148 Li88 1.956 . S
O148 Li89 1.970 . S
O148 Li90 1.961 . S
O148 C92 1.325 . S
O149 Li88 1.970 1_556 S
O149 Li89 1.956 1_556 S
O149 Li91 1.961 . S
O149 C98 1.325 . S
O150 Li88 1.961 . S
O150 Li90 1.956 . S
O150 Li91 1.970 1_554 S
O150 C120 1.325 . S
O151 Li89 1.961 . S
O151 Li90 1.970 . S
O151 Li91 1.956 1_554 S
O151 C126 1.325 . S
H152 C94 0.929 . S
H153 C95 0.930 . S
H154 C96 0.930 . S
H155 C97 0.930 . S
H156 C99 0.930 . S
H157 C101 0.929 . S
H158 C102 0.930 . S
H159 C103 0.930 . S
H160 C106 0.930 . S
H161 C109 0.929 . S
H162 C114 0.929 . S
H163 C115 0.930 . S
H164 C122 0.929 . S
H165 C123 0.930 . S
H166 C124 0.930 . S
H167 C125 0.930 . S
H168 C127 0.929 . S
H169 C128 0.930 . S
H170 C129 0.930 . S
H171 C130 0.930 . S
H172 C134 0.929 . S
H173 C136 0.930 . S
H174 C142 0.929 . S
H175 C143 0.930 . S
Li176 N193 1.990 . S
Li176 O236 1.956 1_556 S
Li176 O237 1.970 1_566 S
Li176 O238 1.961 . S
Li177 N201 1.990 . S
Li177 O236 1.970 1_545 S
Li177 O237 1.956 . S
Li177 O239 1.961 . S
Li178 N223 1.990 . S
Li178 O236 1.961 . S
Li178 O238 1.956 1_554 S
Li178 O239 1.970 1_565 S
Li179 N229 1.990 . S
Li179 O237 1.961 . S
Li179 O238 1.970 1_544 S
Li179 O239 1.956 . S
C180 C182 1.348 . S
C180 C183 1.356 . S
C180 O236 1.325 . S
N181 C184 1.314 . S
N181 C185 1.279 . S
C182 C180 1.348 . S
C182 C184 1.353 . S
C182 H240 0.929 . S
C183 C180 1.356 . S
C183 C185 1.358 . S
C183 H241 0.930 . S
C184 N181 1.314 . S
C184 C182 1.353 . S
C184 H242 0.930 . S
C185 N181 1.279 . S
C185 C183 1.358 . S
C185 H243 0.930 . S
C186 C189 1.348 1_554 S
C186 C190 1.356 . S
C186 O237 1.325 . S
C187 N188 1.279 1_554 S
C187 C190 1.358 . S
C187 H244 0.930 . S
N188 C187 1.279 1_556 S
N188 C191 1.314 . S
C189 C186 1.348 1_556 S
C189 C191 1.353 . S
C189 H245 0.929 . S
C190 C186 1.356 . S
C190 C187 1.358 . S
C190 H246 0.930 . S
C191 N188 1.314 . S
C191 C189 1.353 . S
C191 H247 0.930 . S
C192 N193 1.314 . S
C192 C197 1.353 . S
C192 H198 0.930 1_565 S
N193 Li176 1.990 . S
N193 C192 1.314 . S
N193 C195 1.279 . S
C194 C195 1.358 . S
C194 C196 1.356 . S
C194 H248 0.930 . S
C195 N193 1.279 . S
C195 C194 1.358 . S
C195 H199 0.930 . S
C196 C194 1.356 . S
C196 C197 1.348 . S
C197 C192 1.353 . S
C197 C196 1.348 . S
C197 H249 0.929 1_565 S
H198 C192 0.930 1_545 S
H199 C195 0.930 . S
C200 N201 1.314 . S
C200 C202 1.353 . S
C200 H206 0.930 1_545 S
N201 Li177 1.990 . S
N201 C200 1.314 . S
N201 C204 1.279 . S
C202 C200 1.353 . S
C202 C205 1.348 . S
C202 H250 0.949 . S
C203 C204 1.358 . S
C203 C205 1.356 . S
C203 H251 0.930 . S
C204 N201 1.279 . S
C204 C203 1.358 . S
C204 H207 0.930 . S
C205 C202 1.348 . S
C205 C203 1.356 . S
H206 C200 0.930 1_565 S
H207 C204 0.930 . S
C208 C210 1.348 1_565 S
C208 C211 1.356 . S
C208 O238 1.325 . S
N209 C212 1.314 . S
N209 C213 1.279 . S
C210 C208 1.348 1_545 S
C210 C212 1.353 1_545 S
C210 H252 0.929 . S
C211 C208 1.356 . S
C211 C213 1.358 . S
C211 H253 0.930 . S
C212 N209 1.314 . S
C212 C210 1.353 1_565 S
C212 H254 0.930 1_565 S
C213 N209 1.279 . S
C213 C211 1.358 . S
C213 H255 0.930 . S
C214 C215 1.348 1_545 S
C214 C216 1.356 . S
C214 O239 1.325 . S
C215 C214 1.348 1_565 S
C215 C217 1.326 1_565 S
C215 H256 0.959 . S
C216 C214 1.356 . S
C216 C218 1.358 . S
C216 H257 0.930 . S
C217 C215 1.326 1_545 S
C217 N219 1.314 . S
C217 H258 0.930 1_545 S
C218 C216 1.358 . S
C218 N219 1.279 . S
C218 H259 0.930 . S
N219 C217 1.314 . S
N219 C218 1.279 . S
C220 C222 1.353 . S
C220 N223 1.314 . S
C220 H226 0.930 . S
C221 N223 1.279 . S
C221 C224 1.358 . S
C221 H227 0.930 1_554 S
C222 C220 1.353 . S
C222 C225 1.348 . S
C222 H260 0.929 . S
N223 Li178 1.990 . S
N223 C220 1.314 . S
N223 C221 1.279 . S
C224 C221 1.358 . S
C224 C225 1.356 . S
C224 H261 0.930 . S
C225 C222 1.348 . S
C225 C224 1.356 . S
H226 C220 0.930 . S
H227 C221 0.930 1_556 S
C228 N229 1.314 1_556 S
C228 C230 1.353 . S
C228 H234 0.930 . S
N229 Li179 1.990 . S
N229 C228 1.314 1_554 S
N229 C232 1.279 . S
C230 C228 1.353 . S
C230 C233 1.348 . S
C230 H262 0.929 . S
C231 C232 1.358 . S
C231 C233 1.356 1_554 S
C231 H263 0.930 . S
C232 N229 1.279 . S
C232 C231 1.358 . S
C232 H235 0.930 . S
C233 C230 1.348 . S
C233 C231 1.356 1_556 S
H234 C228 0.930 . S
H235 C232 0.930 . S
O236 Li176 1.956 1_554 S
O236 Li177 1.970 1_565 S
O236 Li178 1.961 . S
O236 C180 1.325 . S
O237 Li176 1.970 1_544 S
O237 Li177 1.956 . S
O237 Li179 1.961 . S
O237 C186 1.325 . S
O238 Li176 1.961 . S
O238 Li178 1.956 1_556 S
O238 Li179 1.970 1_566 S
O238 C208 1.325 . S
O239 Li177 1.961 . S
O239 Li178 1.970 1_545 S
O239 Li179 1.956 . S
O239 C214 1.325 . S
H240 C182 0.929 . S
H241 C183 0.930 . S
H242 C184 0.930 . S
H243 C185 0.930 . S
H244 C187 0.930 . S
H245 C189 0.929 . S
H246 C190 0.930 . S
H247 C191 0.930 . S
H248 C194 0.930 . S
H249 C197 0.929 1_545 S
H250 C202 0.949 . S
H251 C203 0.930 . S
H252 C210 0.929 . S
H253 C211 0.930 . S
H254 C212 0.930 1_545 S
H255 C213 0.930 . S
H256 C215 0.959 . S
H257 C216 0.930 . S
H258 C217 0.930 1_565 S
H259 C218 0.930 . S
H260 C222 0.929 . S
H261 C224 0.930 . S
H262 C230 0.929 . S
H263 C231 0.930 . S
Li264 N281 1.990 . S
Li264 O324 1.956 . S
Li264 O325 1.970 1_455 S
Li264 O326 1.961 1_554 S
Li265 N289 1.990 . S
Li265 O324 1.970 1_655 S
Li265 O325 1.956 . S
Li265 O327 1.961 . S
Li266 N311 1.990 . S
Li266 O324 1.961 1_556 S
Li266 O326 1.956 . S
Li266 O327 1.970 1_456 S
Li267 N317 1.990 . S
Li267 O325 1.961 . S
Li267 O326 1.970 1_654 S
Li267 O327 1.956 . S
C268 C270 1.348 . S
C268 C271 1.356 . S
C268 O324 1.325 . S
N269 C272 1.314 . S
N269 C273 1.279 . S
C270 C268 1.348 . S
C270 C272 1.353 . S
C270 H328 0.929 . S
C271 C268 1.356 . S
C271 C273 1.358 . S
C271 H329 0.930 1_554 S
C272 N269 1.314 . S
C272 C270 1.353 . S
C272 H330 0.930 . S
C273 N269 1.279 . S
C273 C271 1.358 . S
C273 H331 0.924 1_554 S
C274 C277 1.348 1_655 S
C274 C278 1.356 . S
C274 O325 1.325 . S
C275 N276 1.279 . S
C275 C278 1.358 . S
C275 H332 0.930 . S
N276 C275 1.279 . S
N276 C279 1.251 1_655 S
C277 C274 1.348 1_455 S
C277 C279 1.391 . S
C277 H333 0.929 . S
C278 C274 1.356 . S
C278 C275 1.358 . S
C278 H334 0.930 . S
C279 N276 1.251 1_455 S
C279 C277 1.391 . S
C279 H335 0.963 . S
C280 N281 1.314 . S
C280 C285 1.353 . S
C280 H286 0.930 . S
N281 Li264 1.990 . S
N281 C280 1.314 . S
N281 C283 1.279 . S
C282 C283 1.358 . S
C282 C284 1.356 . S
C282 H336 0.930 . S
C283 N281 1.279 . S
C283 C282 1.358 . S
C283 H287 0.930 . S
C284 C282 1.356 . S
C284 C285 1.348 . S
C285 C280 1.353 . S
C285 C284 1.348 . S
C285 H337 0.929 . S
H286 C280 0.930 . S
H287 C283 0.930 . S
C288 N289 1.314 . S
C288 C290 1.353 . S
C288 H294 0.930 . S
N289 Li265 1.990 . S
N289 C288 1.314 . S
N289 C292 1.279 . S
C290 C288 1.353 . S
C290 C293 1.348 . S
C290 H338 0.929 . S
C291 C292 1.358 . S
C291 C293 1.356 . S
C291 H339 0.930 . S
C292 N289 1.279 . S
C292 C291 1.358 . S
C292 H295 0.930 . S
C293 C290 1.348 . S
C293 C291 1.356 . S
H294 C288 0.930 . S
H295 C292 0.930 . S
C296 C298 1.348 1_455 S
C296 C299 1.356 . S
C296 O326 1.325 . S
N297 C300 1.265 1_455 S
N297 C301 1.279 . S
C298 C296 1.348 1_655 S
C298 C300 1.351 . S
C298 H340 0.929 . S
C299 C296 1.356 . S
C299 C301 1.358 . S
C299 H341 0.930 . S
C300 N297 1.265 1_655 S
C300 C298 1.351 . S
C300 H342 0.991 . S
C301 N297 1.279 . S
C301 C299 1.358 . S
C301 H343 0.930 . S
C302 C303 1.348 1_554 S
C302 C304 1.356 . S
C302 O327 1.325 . S
C303 C302 1.348 1_556 S
C303 C305 1.353 . S
C303 H344 0.929 . S
C304 C302 1.356 . S
C304 C306 1.358 . S
C304 H345 0.930 . S
C305 C303 1.353 . S
C305 N307 1.314 . S
C305 H346 0.930 . S
C306 C304 1.358 . S
C306 N307 1.279 1_554 S
C306 H347 0.930 . S
N307 C305 1.314 . S
N307 C306 1.279 1_556 S
C308 C310 1.353 . S
C308 N311 1.314 . S
C308 H314 0.930 . S
C309 N311 1.279 . S
C309 C312 1.358 . S
C309 H315 0.930 . S
C310 C308 1.353 . S
C310 C313 1.348 . S
C310 H348 0.929 . S
N311 Li266 1.990 . S
N311 C308 1.314 . S
N311 C309 1.279 . S
C312 C309 1.358 . S
C312 C313 1.356 . S
C312 H349 0.930 . S
C313 C310 1.348 . S
C313 C312 1.356 . S
H314 C308 0.930 . S
H315 C309 0.930 . S
C316 N317 1.314 . S
C316 C318 1.353 . S
C316 H322 0.930 . S
N317 Li267 1.990 . S
N317 C316 1.314 . S
N317 C320 1.279 1_554 S
C318 C316 1.353 . S
C318 C321 1.348 1_554 S
C318 H350 0.929 . S
C319 C320 1.358 . S
C319 C321 1.356 . S
C319 H351 0.930 . S
C320 N317 1.279 1_556 S
C320 C319 1.358 . S
C320 H323 0.930 . S
C321 C318 1.348 1_556 S
C321 C319 1.356 . S
H322 C316 0.930 . S
H323 C320 0.930 . S
O324 Li264 1.956 . S
O324 Li265 1.970 1_455 S
O324 Li266 1.961 1_554 S
O324 C268 1.325 . S
O325 Li264 1.970 1_655 S
O325 Li265 1.956 . S
O325 Li267 1.961 . S
O325 C274 1.325 . S
O326 Li264 1.961 1_556 S
O326 Li266 1.956 . S
O326 Li267 1.970 1_456 S
O326 C296 1.325 . S
O327 Li265 1.961 . S
O327 Li266 1.970 1_654 S
O327 Li267 1.956 . S
O327 C302 1.325 . S
H328 C270 0.929 . S
H329 C271 0.930 1_556 S
H330 C272 0.930 . S
H331 C273 0.924 1_556 S
H332 C275 0.930 . S
H333 C277 0.929 . S
H334 C278 0.930 . S
H335 C279 0.963 . S
H336 C282 0.930 . S
H337 C285 0.929 . S
H338 C290 0.929 . S
H339 C291 0.930 . S
H340 C298 0.929 . S
H341 C299 0.930 . S
H342 C300 0.991 . S
H343 C301 0.930 . S
H344 C303 0.929 . S
H345 C304 0.930 . S
H346 C305 0.930 . S
H347 C306 0.930 . S
H348 C310 0.929 . S
H349 C312 0.930 . S
H350 C318 0.929 . S
H351 C319 0.930 . S
Li352 N369 1.990 . S
Li352 O412 1.956 . S
Li352 O413 1.970 . S
Li352 O414 1.961 1_554 S
Li353 N377 1.990 . S
Li353 O412 1.970 . S
Li353 O413 1.956 . S
Li353 O415 1.961 . S
Li354 N399 1.990 . S
Li354 O412 1.961 1_556 S
Li354 O414 1.956 . S
Li354 O415 1.970 1_556 S
Li355 N405 2.002 . S
Li355 O413 1.961 . S
Li355 O414 1.970 1_554 S
Li355 O415 1.956 . S
C356 C358 1.348 . S
C356 C359 1.356 . S
C356 O412 1.325 . S
N357 C360 1.314 . S
N357 C361 1.279 . S
C358 C356 1.348 . S
C358 C360 1.353 . S
C358 H416 0.929 . S
C359 C356 1.356 . S
C359 C361 1.358 . S
C359 H417 0.930 1_554 S
C360 N357 1.314 . S
C360 C358 1.353 . S
C360 H418 0.930 . S
C361 N357 1.279 . S
C361 C359 1.358 . S
C361 H419 0.930 . S
C362 C365 1.348 . S
C362 C366 1.356 . S
C362 O413 1.325 . S
C363 N364 1.279 . S
C363 C366 1.358 . S
C363 H420 0.930 . S
N364 C363 1.279 . S
N364 C367 1.314 . S
C365 C362 1.348 . S
C365 C367 1.353 . S
C365 H421 0.929 . S
C366 C362 1.356 . S
C366 C363 1.358 . S
C366 H422 0.930 . S
C367 N364 1.314 . S
C367 C365 1.353 . S
C367 H423 0.930 . S
C368 N369 1.314 . S
C368 C373 1.353 . S
C368 H374 0.930 . S
N369 Li352 1.990 . S
N369 C368 1.314 . S
N369 C371 1.279 . S
C370 C371 1.358 . S
C370 C372 1.356 . S
C370 H424 0.930 . S
C371 N369 1.279 . S
C371 C370 1.358 . S
C371 H375 0.930 . S
C372 C370 1.356 . S
C372 C373 1.348 . S
C373 C368 1.353 . S
C373 C372 1.348 . S
C373 H425 0.929 . S
H374 C368 0.930 . S
H375 C371 0.930 . S
C376 N377 1.314 . S
C376 C378 1.353 . S
C376 H382 0.930 . S
N377 Li353 1.990 . S
N377 C376 1.314 . S
N377 C380 1.279 . S
C378 C376 1.353 . S
C378 C381 1.348 . S
C378 H426 0.929 . S
C379 C380 1.358 . S
C379 C381 1.356 . S
C379 H427 0.930 . S
C380 N377 1.279 . S
C380 C379 1.358 . S
C380 H383 0.930 . S
C381 C378 1.348 . S
C381 C379 1.356 . S
H382 C376 0.930 . S
H383 C380 0.930 . S
C384 C386 1.348 . S
C384 C387 1.356 . S
C384 O414 1.325 . S
N385 C388 1.314 . S
N385 C389 1.279 . S
C386 C384 1.348 . S
C386 C388 1.353 . S
C386 H428 0.929 . S
C387 C384 1.356 . S
C387 C389 1.358 . S
C387 H429 0.930 . S
C388 N385 1.314 . S
C388 C386 1.353 . S
C388 H430 0.930 . S
C389 N385 1.279 . S
C389 C387 1.358 . S
C389 H431 0.930 . S
C390 C391 1.348 1_554 S
C390 C392 1.356 . S
C390 O415 1.325 . S
C391 C390 1.348 1_556 S
C391 C393 1.353 . S
C391 H432 0.929 . S
C392 C390 1.356 . S
C392 C394 1.358 . S
C392 H433 0.930 . S
C393 C391 1.353 . S
C393 N395 1.314 . S
C393 H434 0.930 . S
C394 C392 1.358 . S
C394 N395 1.279 1_554 S
C394 H435 0.930 . S
N395 C393 1.314 . S
N395 C394 1.279 1_556 S
C396 C398 1.353 . S
C396 N399 1.314 . S
C396 H402 0.930 . S
C397 N399 1.279 . S
C397 C400 1.358 . S
C397 H403 0.930 . S
C398 C396 1.353 . S
C398 C401 1.348 . S
C398 H436 0.929 . S
N399 Li354 1.990 . S
N399 C396 1.314 . S
N399 C397 1.279 . S
C400 C397 1.358 . S
C400 C401 1.356 . S
C400 H437 0.930 . S
C401 C398 1.348 . S
C401 C400 1.356 . S
H402 C396 0.930 . S
H403 C397 0.930 . S
C404 N405 1.329 . S
C404 C406 1.353 . S
C404 H410 0.930 . S
N405 Li355 2.002 . S
N405 C404 1.329 . S
N405 C408 1.251 1_554 S
C406 C404 1.353 . S
C406 C409 1.348 1_554 S
C406 H438 0.929 . S
C407 C408 1.358 . S
C407 C409 1.356 . S
C407 H439 0.930 . S
C408 N405 1.251 1_556 S
C408 C407 1.358 . S
C408 H411 0.930 . S
C409 C406 1.348 1_556 S
C409 C407 1.356 . S
H410 C404 0.930 . S
H411 C408 0.930 . S
O412 Li352 1.956 . S
O412 Li353 1.970 . S
O412 Li354 1.961 1_554 S
O412 C356 1.325 . S
O413 Li352 1.970 . S
O413 Li353 1.956 . S
O413 Li355 1.961 . S
O413 C362 1.325 . S
O414 Li352 1.961 1_556 S
O414 Li354 1.956 . S
O414 Li355 1.970 1_556 S
O414 C384 1.325 . S
O415 Li353 1.961 . S
O415 Li354 1.970 1_554 S
O415 Li355 1.956 . S
O415 C390 1.325 . S
H416 C358 0.929 . S
H417 C359 0.930 1_556 S
H418 C360 0.930 . S
H419 C361 0.930 . S
H420 C363 0.930 . S
H421 C365 0.929 . S
H422 C366 0.930 . S
H423 C367 0.930 . S
H424 C370 0.930 . S
H425 C373 0.929 . S
H426 C378 0.929 . S
H427 C379 0.930 . S
H428 C386 0.929 . S
H429 C387 0.930 . S
H430 C388 0.930 . S
H431 C389 0.930 . S
H432 C391 0.929 . S
H433 C392 0.930 . S
H434 C393 0.930 . S
H435 C394 0.930 . S
H436 C398 0.929 . S
H437 C400 0.930 . S
H438 C406 0.929 . S
H439 C407 0.930 . S
Li440 N457 1.990 . S
Li440 O500 1.956 . S
Li440 O501 1.970 1_565 S
Li440 O502 1.961 1_554 S
Li441 N465 1.990 . S
Li441 O500 1.970 1_545 S
Li441 O501 1.956 . S
Li441 O503 1.961 . S
Li442 N487 1.990 . S
Li442 O500 1.961 1_556 S
Li442 O502 1.956 . S
Li442 O503 1.970 1_566 S
Li443 N493 1.990 . S
Li443 O501 1.961 . S
Li443 O502 1.970 1_544 S
Li443 O503 1.956 . S
C444 C446 1.348 . S
C444 C447 1.356 . S
C444 O500 1.325 . S
N445 C448 1.314 . S
N445 C449 1.279 . S
C446 C444 1.348 . S
C446 C448 1.353 . S
C446 H504 0.929 . S
C447 C444 1.356 . S
C447 C449 1.358 . S
C447 H505 0.930 1_554 S
C448 N445 1.314 . S
C448 C446 1.353 . S
C448 H506 0.930 . S
C449 N445 1.279 . S
C449 C447 1.358 . S
C449 H507 0.964 . S
C450 C453 1.348 1_545 S
C450 C454 1.356 . S
C450 O501 1.325 . S
C451 N452 1.279 . S
C451 C454 1.358 . S
C451 H508 0.930 . S
N452 C451 1.279 . S
N452 C455 1.265 1_545 S
C453 C450 1.348 1_565 S
C453 C455 1.351 . S
C453 H509 0.929 . S
C454 C450 1.356 . S
C454 C451 1.358 . S
C454 H510 0.930 . S
C455 N452 1.265 1_565 S
C455 C453 1.351 . S
C455 H511 0.991 . S
C456 N457 1.314 . S
C456 C461 1.353 . S
C456 H462 0.930 . S
N457 Li440 1.990 . S
N457 C456 1.314 . S
N457 C459 1.279 . S
C458 C459 1.358 . S
C458 C460 1.356 . S
C458 H512 0.930 . S
C459 N457 1.279 . S
C459 C458 1.358 . S
C459 H463 0.930 . S
C460 C458 1.356 . S
C460 C461 1.348 . S
C461 C456 1.353 . S
C461 C460 1.348 . S
C461 H513 0.929 . S
H462 C456 0.930 . S
H463 C459 0.930 . S
C464 N465 1.314 . S
C464 C466 1.353 . S
C464 H470 0.930 . S
N465 Li441 1.990 . S
N465 C464 1.314 . S
N465 C468 1.279 . S
C466 C464 1.353 . S
C466 C469 1.348 . S
C466 H514 0.929 . S
C467 C468 1.358 . S
C467 C469 1.356 . S
C467 H515 0.930 . S
C468 N465 1.279 . S
C468 C467 1.358 . S
C468 H471 0.930 . S
C469 C466 1.348 . S
C469 C467 1.356 . S
H470 C464 0.930 . S
H471 C468 0.930 . S
C472 C474 1.348 1_565 S
C472 C475 1.356 . S
C472 O502 1.325 . S
N473 C476 1.250 1_565 S
N473 C477 1.279 . S
C474 C472 1.348 1_545 S
C474 C476 1.391 . S
C474 H516 0.929 . S
C475 C472 1.356 . S
C475 C477 1.358 . S
C475 H517 0.930 . S
C476 N473 1.250 1_545 S
C476 C474 1.391 . S
C476 H518 0.963 . S
C477 N473 1.279 . S
C477 C475 1.358 . S
C477 H519 0.930 . S
C478 C479 1.348 1_554 S
C478 C480 1.356 . S
C478 O503 1.325 . S
C479 C478 1.348 1_556 S
C479 C481 1.353 . S
C479 H520 0.929 . S
C480 C478 1.356 . S
C480 C482 1.358 . S
C480 H521 0.930 . S
C481 C479 1.353 . S
C481 N483 1.314 . S
C481 H522 0.930 . S
C482 C480 1.358 . S
C482 N483 1.279 1_554 S
C482 H523 0.930 . S
N483 C481 1.314 . S
N483 C482 1.279 1_556 S
C484 C486 1.353 . S
C484 N487 1.314 . S
C484 H490 0.930 . S
C485 N487 1.279 . S
C485 C488 1.358 . S
C485 H491 0.930 . S
C486 C484 1.353 . S
C486 C489 1.348 . S
C486 H524 0.929 . S
N487 Li442 1.990 . S
N487 C484 1.314 . S
N487 C485 1.279 . S
C488 C485 1.358 . S
C488 C489 1.356 . S
C488 H525 0.930 . S
C489 C486 1.348 . S
C489 C488 1.356 . S
H490 C484 0.930 . S
H491 C485 0.930 . S
C492 N493 1.314 . S
C492 C494 1.353 . S
C492 H498 0.930 . S
N493 Li443 1.990 . S
N493 C492 1.314 . S
N493 C496 1.279 1_554 S
C494 C492 1.353 . S
C494 C497 1.348 1_554 S
C494 H526 0.929 . S
C495 C496 1.358 . S
C495 C497 1.356 . S
C495 H527 0.930 . S
C496 N493 1.279 1_556 S
C496 C495 1.358 . S
C496 H499 0.930 . S
C497 C494 1.348 1_556 S
C497 C495 1.356 . S
H498 C492 0.930 . S
H499 C496 0.930 . S
O500 Li440 1.956 . S
O500 Li441 1.970 1_565 S
O500 Li442 1.961 1_554 S
O500 C444 1.325 . S
O501 Li440 1.970 1_545 S
O501 Li441 1.956 . S
O501 Li443 1.961 . S
O501 C450 1.325 . S
O502 Li440 1.961 1_556 S
O502 Li442 1.956 . S
O502 Li443 1.970 1_566 S
O502 C472 1.325 . S
O503 Li441 1.961 . S
O503 Li442 1.970 1_544 S
O503 Li443 1.956 . S
O503 C478 1.325 . S
H504 C446 0.929 . S
H505 C447 0.930 1_556 S
H506 C448 0.930 . S
H507 C449 0.964 . S
H508 C451 0.930 . S
H509 C453 0.929 . S
H510 C454 0.930 . S
H511 C455 0.991 . S
H512 C458 0.930 . S
H513 C461 0.929 . S
H514 C466 0.929 . S
H515 C467 0.930 . S
H516 C474 0.929 . S
H517 C475 0.930 . S
H518 C476 0.963 . S
H519 C477 0.930 . S
H520 C479 0.929 . S
H521 C480 0.930 . S
H522 C481 0.930 . S
H523 C482 0.930 . S
H524 C486 0.929 . S
H525 C488 0.930 . S
H526 C494 0.929 . S
H527 C495 0.930 . S
Li528 N545 1.990 . S
Li528 O588 1.956 . S
Li528 O589 1.970 . S
Li528 O590 1.961 . S
Li529 N553 1.990 . S
Li529 O588 1.970 . S
Li529 O589 1.956 . S
Li529 O591 1.961 . S
Li530 N575 1.990 . S
Li530 O588 1.961 . S
Li530 O590 1.956 . S
Li530 O591 1.970 . S
Li531 N581 1.990 . S
Li531 O589 1.961 . S
Li531 O590 1.970 . S
Li531 O591 1.956 . S
C532 C534 1.348 . S
C532 C535 1.356 . S
C532 O588 1.325 . S
N533 C536 1.314 . S
N533 C537 1.279 . S
C534 C532 1.348 . S
C534 C536 1.353 . S
C534 H592 0.929 . S
C535 C532 1.356 . S
C535 C537 1.358 . S
C535 H593 0.930 . S
C536 N533 1.314 . S
C536 C534 1.353 . S
C536 H594 0.930 . S
C537 N533 1.279 . S
C537 C535 1.358 . S
C537 H595 0.930 . S
C538 C541 1.348 . S
C538 C542 1.356 . S
C538 O589 1.325 . S
C539 N540 1.279 . S
C539 C542 1.358 . S
C539 H596 0.930 . S
N540 C539 1.279 . S
N540 C543 1.314 . S
C541 C538 1.348 . S
C541 C543 1.353 . S
C541 H597 0.929 . S
C542 C538 1.356 . S
C542 C539 1.358 . S
C542 H598 0.930 . S
C543 N540 1.314 . S
C543 C541 1.353 . S
C543 H599 0.930 . S
C544 N545 1.314 . S
C544 C549 1.353 . S
C544 H550 0.930 . S
N545 Li528 1.990 . S
N545 C544 1.314 . S
N545 C547 1.279 . S
C546 C547 1.358 . S
C546 C548 1.356 . S
C546 H600 0.930 . S
C547 N545 1.279 . S
C547 C546 1.358 . S
C547 H551 0.930 . S
C548 C546 1.356 . S
C548 C549 1.348 . S
C549 C544 1.353 . S
C549 C548 1.348 . S
C549 H601 0.929 . S
H550 C544 0.930 . S
H551 C547 0.930 . S
C552 N553 1.314 . S
C552 C554 1.353 . S
C552 H558 0.930 . S
N553 Li529 1.990 . S
N553 C552 1.314 . S
N553 C556 1.279 . S
C554 C552 1.353 . S
C554 C557 1.348 . S
C554 H602 0.929 . S
C555 C556 1.358 . S
C555 C557 1.356 . S
C555 H603 0.930 . S
C556 N553 1.279 . S
C556 C555 1.358 . S
C556 H559 0.930 . S
C557 C554 1.348 . S
C557 C555 1.356 . S
H558 C552 0.930 . S
H559 C556 0.930 . S
C560 C562 1.348 . S
C560 C563 1.356 . S
C560 O590 1.325 . S
N561 C564 1.314 . S
N561 C565 1.279 . S
C562 C560 1.348 . S
C562 C564 1.353 . S
C562 H604 0.929 . S
C563 C560 1.356 . S
C563 C565 1.358 . S
C563 H605 0.930 . S
C564 N561 1.314 . S
C564 C562 1.353 . S
C564 H606 0.930 . S
C565 N561 1.279 . S
C565 C563 1.358 . S
C565 H607 0.930 . S
C566 C567 1.348 . S
C566 C568 1.356 . S
C566 O591 1.325 . S
C567 C566 1.348 . S
C567 C569 1.353 . S
C567 H608 0.929 . S
C568 C566 1.356 . S
C568 C570 1.358 . S
C568 H609 0.930 . S
C569 C567 1.353 . S
C569 N571 1.314 . S
C569 H610 0.930 . S
C570 C568 1.358 . S
C570 N571 1.279 . S
C570 H611 0.930 . S
N571 C569 1.314 . S
N571 C570 1.279 . S
C572 C574 1.353 . S
C572 N575 1.314 . S
C572 H578 0.930 . S
C573 N575 1.279 . S
C573 C576 1.358 . S
C573 H579 0.930 . S
C574 C572 1.353 . S
C574 C577 1.348 . S
C574 H612 0.929 . S
N575 Li530 1.990 . S
N575 C572 1.314 . S
N575 C573 1.279 . S
C576 C573 1.358 . S
C576 C577 1.356 . S
C576 H613 0.930 . S
C577 C574 1.348 . S
C577 C576 1.356 . S
H578 C572 0.930 . S
H579 C573 0.930 . S
C580 N581 1.314 . S
C580 C582 1.353 . S
C580 H586 0.930 . S
N581 Li531 1.990 . S
N581 C580 1.314 . S
N581 C584 1.279 . S
C582 C580 1.353 . S
C582 C585 1.348 . S
C582 H614 0.929 . S
C583 C584 1.358 . S
C583 C585 1.356 . S
C583 H615 0.930 . S
C584 N581 1.279 . S
C584 C583 1.358 . S
C584 H587 0.930 . S
C585 C582 1.348 . S
C585 C583 1.356 . S
H586 C580 0.930 . S
H587 C584 0.930 . S
O588 Li528 1.956 . S
O588 Li529 1.970 . S
O588 Li530 1.961 . S
O588 C532 1.325 . S
O589 Li528 1.970 . S
O589 Li529 1.956 . S
O589 Li531 1.961 . S
O589 C538 1.325 . S
O590 Li528 1.961 . S
O590 Li530 1.956 . S
O590 Li531 1.970 . S
O590 C560 1.325 . S
O591 Li529 1.961 . S
O591 Li530 1.970 . S
O591 Li531 1.956 . S
O591 C566 1.325 . S
H592 C534 0.929 . S
H593 C535 0.930 . S
H594 C536 0.930 . S
H595 C537 0.930 . S
H596 C539 0.930 . S
H597 C541 0.929 . S
H598 C542 0.930 . S
H599 C543 0.930 . S
H600 C546 0.930 . S
H601 C549 0.929 . S
H602 C554 0.929 . S
H603 C555 0.930 . S
H604 C562 0.929 . S
H605 C563 0.930 . S
H606 C564 0.930 . S
H607 C565 0.930 . S
H608 C567 0.929 . S
H609 C568 0.930 . S
H610 C569 0.930 . S
H611 C570 0.930 . S
H612 C574 0.929 . S
H613 C576 0.930 . S
H614 C582 0.929 . S
H615 C583 0.930 . S
Li616 N633 1.990 . S
Li616 O676 1.956 . S
Li616 O677 1.970 . S
Li616 O678 1.961 . S
Li617 N641 1.990 . S
Li617 O676 1.970 . S
Li617 O677 1.956 . S
Li617 O679 1.961 . S
Li618 N663 1.990 1_565 S
Li618 O676 1.961 . S
Li618 O678 1.956 . S
Li618 O679 1.970 . S
Li619 N669 1.990 . S
Li619 O677 1.961 . S
Li619 O678 1.970 . S
Li619 O679 1.956 . S
C620 C622 1.348 . S
C620 C623 1.356 . S
C620 O676 1.325 . S
N621 C624 1.314 . S
N621 C625 1.279 . S
C622 C620 1.348 . S
C622 C624 1.353 . S
C622 H680 0.929 . S
C623 C620 1.356 . S
C623 C625 1.358 . S
C623 H681 0.930 . S
C624 N621 1.314 . S
C624 C622 1.353 . S
C624 H682 0.930 . S
C625 N621 1.279 . S
C625 C623 1.358 . S
C625 H683 0.930 . S
C626 C629 1.348 . S
C626 C630 1.356 . S
C626 O677 1.325 . S
C627 N628 1.279 . S
C627 C630 1.358 . S
C627 H684 0.930 . S
N628 C627 1.279 . S
N628 C631 1.314 . S
C629 C626 1.348 . S
C629 C631 1.353 . S
C629 H685 0.929 . S
C630 C626 1.356 . S
C630 C627 1.358 . S
C630 H686 0.930 . S
C631 N628 1.314 . S
C631 C629 1.353 . S
C631 H687 0.930 . S
C632 N633 1.314 . S
C632 C637 1.353 . S
C632 H638 0.930 . S
N633 Li616 1.990 . S
N633 C632 1.314 . S
N633 C635 1.279 . S
C634 C635 1.358 . S
C634 C636 1.356 . S
C634 H688 0.930 . S
C635 N633 1.279 . S
C635 C634 1.358 . S
C635 H639 0.930 . S
C636 C634 1.356 . S
C636 C637 1.348 . S
C637 C632 1.353 . S
C637 C636 1.348 . S
C637 H689 0.929 . S
H638 C632 0.930 . S
H639 C635 0.930 . S
C640 N641 1.314 . S
C640 C642 1.353 . S
C640 H646 0.930 . S
N641 Li617 1.990 . S
N641 C640 1.314 . S
N641 C644 1.279 . S
C642 C640 1.353 . S
C642 C645 1.348 . S
C642 H690 0.929 . S
C643 C644 1.358 . S
C643 C645 1.356 . S
C643 H691 0.930 . S
C644 N641 1.279 . S
C644 C643 1.358 . S
C644 H647 0.930 . S
C645 C642 1.348 . S
C645 C643 1.356 . S
H646 C640 0.930 . S
H647 C644 0.930 . S
C648 C650 1.348 . S
C648 C651 1.356 . S
C648 O678 1.325 . S
N649 C652 1.314 . S
N649 C653 1.279 . S
C650 C648 1.348 . S
C650 C652 1.353 1_565 S
C650 H692 0.929 . S
C651 C648 1.356 . S
C651 C653 1.358 1_565 S
C651 H693 0.930 . S
C652 N649 1.314 . S
C652 C650 1.353 1_545 S
C652 H694 0.930 . S
C653 N649 1.279 . S
C653 C651 1.358 1_545 S
C653 H695 0.930 . S
C654 C655 1.348 . S
C654 C656 1.356 . S
C654 O679 1.325 . S
C655 C654 1.348 . S
C655 C657 1.354 1_565 S
C655 H696 0.929 1_565 S
C656 C654 1.356 . S
C656 C658 1.358 . S
C656 H697 0.930 . S
C657 C655 1.354 1_545 S
C657 N659 1.284 1_545 S
C657 H698 0.964 . S
C658 C656 1.358 . S
C658 N659 1.279 . S
C658 H699 0.930 . S
N659 C657 1.284 1_565 S
N659 C658 1.279 . S
C660 C662 1.353 . S
C660 N663 1.314 . S
C660 H666 0.882 1_545 S
C661 N663 1.279 . S
C661 C664 1.358 . S
C661 H667 0.930 . S
C662 C660 1.353 . S
C662 C665 1.348 . S
C662 H700 0.929 . S
N663 Li618 1.990 1_545 S
N663 C660 1.314 . S
N663 C661 1.279 . S
C664 C661 1.358 . S
C664 C665 1.356 . S
C664 H701 0.930 . S
C665 C662 1.348 . S
C665 C664 1.356 . S
H666 C660 0.882 1_565 S
H667 C661 0.930 . S
C668 N669 1.314 . S
C668 C670 1.353 . S
C668 H674 0.930 . S
N669 Li619 1.990 . S
N669 C668 1.314 . S
N669 C672 1.279 . S
C670 C668 1.353 . S
C670 C673 1.348 . S
C670 H702 0.929 . S
C671 C672 1.358 . S
C671 C673 1.356 . S
C671 H703 0.930 . S
C672 N669 1.279 . S
C672 C671 1.358 . S
C672 H675 0.930 . S
C673 C670 1.348 . S
C673 C671 1.356 . S
H674 C668 0.930 . S
H675 C672 0.930 . S
O676 Li616 1.956 . S
O676 Li617 1.970 . S
O676 Li618 1.961 . S
O676 C620 1.325 . S
O677 Li616 1.970 . S
O677 Li617 1.956 . S
O677 Li619 1.961 . S
O677 C626 1.325 . S
O678 Li616 1.961 . S
O678 Li618 1.956 . S
O678 Li619 1.970 . S
O678 C648 1.325 . S
O679 Li617 1.961 . S
O679 Li618 1.970 . S
O679 Li619 1.956 . S
O679 C654 1.325 . S
H680 C622 0.929 . S
H681 C623 0.930 . S
H682 C624 0.930 . S
H683 C625 0.930 . S
H684 C627 0.930 . S
H685 C629 0.929 . S
H686 C630 0.930 . S
H687 C631 0.930 . S
H688 C634 0.930 . S
H689 C637 0.929 . S
H690 C642 0.929 . S
H691 C643 0.930 . S
H692 C650 0.929 . S
H693 C651 0.930 . S
H694 C652 0.930 . S
H695 C653 0.930 . S
H696 C655 0.929 1_545 S
H697 C656 0.930 . S
H698 C657 0.964 . S
H699 C658 0.930 . S
H700 C662 0.929 . S
H701 C664 0.930 . S
H702 C670 0.929 . S
H703 C671 0.930 . S
Li704 N721 1.990 . S
Li704 O764 1.956 . S
Li704 O765 1.970 . S
Li704 O766 1.961 . S
Li705 N729 1.990 . S
Li705 O764 1.970 . S
Li705 O765 1.956 . S
Li705 O767 1.961 . S
Li706 N751 1.990 1_455 S
Li706 O764 1.961 . S
Li706 O766 1.956 . S
Li706 O767 1.970 . S
Li707 N757 1.990 . S
Li707 O765 1.961 . S
Li707 O766 1.970 . S
Li707 O767 1.956 . S
C708 C710 1.348 . S
C708 C711 1.356 . S
C708 O764 1.325 . S
N709 C712 1.314 . S
N709 C713 1.279 . S
C710 C708 1.348 . S
C710 C712 1.353 . S
C710 H768 0.929 . S
C711 C708 1.356 . S
C711 C713 1.358 . S
C711 H769 0.930 . S
C712 N709 1.314 . S
C712 C710 1.353 . S
C712 H770 0.930 . S
C713 N709 1.279 . S
C713 C711 1.358 . S
C713 H771 0.930 . S
C714 C717 1.348 . S
C714 C718 1.356 . S
C714 O765 1.325 . S
C715 N716 1.279 . S
C715 C718 1.358 . S
C715 H772 0.930 . S
N716 C715 1.279 . S
N716 C719 1.314 . S
C717 C714 1.348 . S
C717 C719 1.353 . S
C717 H773 0.929 . S
C718 C714 1.356 . S
C718 C715 1.358 . S
C718 H774 0.930 . S
C719 N716 1.314 . S
C719 C717 1.353 . S
C719 H775 0.930 . S
C720 N721 1.314 . S
C720 C725 1.353 . S
C720 H726 0.930 . S
N721 Li704 1.990 . S
N721 C720 1.314 . S
N721 C723 1.279 . S
C722 C723 1.358 . S
C722 C724 1.356 . S
C722 H776 0.930 . S
C723 N721 1.279 . S
C723 C722 1.358 . S
C723 H727 0.930 . S
C724 C722 1.356 . S
C724 C725 1.348 . S
C725 C720 1.353 . S
C725 C724 1.348 . S
C725 H777 0.929 . S
H726 C720 0.930 . S
H727 C723 0.930 . S
C728 N729 1.314 . S
C728 C730 1.353 . S
C728 H734 0.930 . S
N729 Li705 1.990 . S
N729 C728 1.314 . S
N729 C732 1.279 . S
C730 C728 1.353 . S
C730 C733 1.348 . S
C730 H778 0.929 . S
C731 C732 1.358 . S
C731 C733 1.356 . S
C731 H779 0.930 . S
C732 N729 1.279 . S
C732 C731 1.358 . S
C732 H735 0.930 . S
C733 C730 1.348 . S
C733 C731 1.356 . S
H734 C728 0.930 . S
H735 C732 0.930 . S
C736 C738 1.348 . S
C736 C739 1.356 . S
C736 O766 1.325 . S
N737 C740 1.314 . S
N737 C741 1.279 . S
C738 C736 1.348 . S
C738 C740 1.353 1_455 S
C738 H780 0.929 . S
C739 C736 1.356 . S
C739 C741 1.358 1_455 S
C739 H781 0.930 . S
C740 N737 1.314 . S
C740 C738 1.353 1_655 S
C740 H782 0.930 . S
C741 N737 1.279 . S
C741 C739 1.358 1_655 S
C741 H783 0.930 . S
C742 C743 1.348 . S
C742 C744 1.356 . S
C742 O767 1.325 . S
C743 C742 1.348 . S
C743 C745 1.351 . S
C743 H784 0.929 1_455 S
C744 C742 1.356 . S
C744 C746 1.358 . S
C744 H785 0.930 . S
C745 C743 1.351 . S
C745 N747 1.314 . S
C745 H786 0.933 1_455 S
C746 C744 1.358 . S
C746 N747 1.279 . S
C746 H787 0.930 . S
N747 C745 1.314 . S
N747 C746 1.279 . S
C748 C750 1.353 . S
C748 N751 1.314 . S
C748 H754 0.930 1_655 S
C749 N751 1.279 . S
C749 C752 1.358 . S
C749 H755 0.930 . S
C750 C748 1.353 . S
C750 C753 1.348 . S
C750 H788 0.929 . S
N751 Li706 1.990 1_655 S
N751 C748 1.314 . S
N751 C749 1.279 . S
C752 C749 1.358 . S
C752 C753 1.356 . S
C752 H789 0.930 . S
C753 C750 1.348 . S
C753 C752 1.356 . S
H754 C748 0.930 1_455 S
H755 C749 0.930 . S
C756 N757 1.314 . S
C756 C758 1.353 . S
C756 H762 0.930 . S
N757 Li707 1.990 . S
N757 C756 1.314 . S
N757 C760 1.279 . S
C758 C756 1.353 . S
C758 C761 1.348 . S
C758 H790 0.929 . S
C759 C760 1.358 . S
C759 C761 1.356 . S
C759 H791 0.930 . S
C760 N757 1.279 . S
C760 C759 1.358 . S
C760 H763 0.930 . S
C761 C758 1.348 . S
C761 C759 1.356 . S
H762 C756 0.930 . S
H763 C760 0.930 . S
O764 Li704 1.956 . S
O764 Li705 1.970 . S
O764 Li706 1.961 . S
O764 C708 1.325 . S
O765 Li704 1.970 . S
O765 Li705 1.956 . S
O765 Li707 1.961 . S
O765 C714 1.325 . S
O766 Li704 1.961 . S
O766 Li706 1.956 . S
O766 Li707 1.970 . S
O766 C736 1.325 . S
O767 Li705 1.961 . S
O767 Li706 1.970 . S
O767 Li707 1.956 . S
O767 C742 1.325 . S
H768 C710 0.929 . S
H769 C711 0.930 . S
H770 C712 0.930 . S
H771 C713 0.930 . S
H772 C715 0.930 . S
H773 C717 0.929 . S
H774 C718 0.930 . S
H775 C719 0.930 . S
H776 C722 0.930 . S
H777 C725 0.929 . S
H778 C730 0.929 . S
H779 C731 0.930 . S
H780 C738 0.929 . S
H781 C739 0.930 . S
H782 C740 0.930 . S
H783 C741 0.930 . S
H784 C743 0.929 1_655 S
H785 C744 0.930 . S
H786 C745 0.933 1_655 S
H787 C746 0.930 . S
H788 C750 0.929 . S
H789 C752 0.930 . S
H790 C758 0.929 . S
H791 C759 0.930 . S
Li792 N809 1.990 1_565 S
Li792 O852 1.956 . S
Li792 O853 1.970 . S
Li792 O854 1.961 . S
Li793 N817 1.990 . S
Li793 O852 1.970 . S
Li793 O853 1.956 . S
Li793 O855 1.961 . S
Li794 N839 1.990 . S
Li794 O852 1.961 . S
Li794 O854 1.956 . S
Li794 O855 1.970 . S
Li795 N845 1.990 . S
Li795 O853 1.961 . S
Li795 O854 1.970 . S
Li795 O855 1.956 . S
C796 C798 1.348 . S
C796 C799 1.356 . S
C796 O852 1.325 . S
N797 C800 1.314 . S
N797 C801 1.279 . S
C798 C796 1.348 . S
C798 C800 1.353 . S
C798 H856 0.929 . S
C799 C796 1.356 . S
C799 C801 1.358 . S
C799 H857 0.930 . S
C800 N797 1.314 . S
C800 C798 1.353 . S
C800 H858 0.930 . S
C801 N797 1.279 . S
C801 C799 1.358 . S
C801 H859 0.930 . S
C802 C805 1.348 . S
C802 C806 1.356 . S
C802 O853 1.325 . S
C803 N804 1.279 . S
C803 C806 1.358 . S
C803 H860 0.930 . S
N804 C803 1.279 . S
N804 C807 1.314 . S
C805 C802 1.348 . S
C805 C807 1.353 . S
C805 H861 0.929 . S
C806 C802 1.356 . S
C806 C803 1.358 . S
C806 H862 0.930 . S
C807 N804 1.314 . S
C807 C805 1.353 . S
C807 H863 0.930 1_565 S
C808 N809 1.314 . S
C808 C813 1.353 . S
C808 H814 0.930 . S
N809 Li792 1.990 1_545 S
N809 C808 1.314 . S
N809 C811 1.279 . S
C810 C811 1.358 . S
C810 C812 1.356 . S
C810 H864 0.930 . S
C811 N809 1.279 . S
C811 C810 1.358 . S
C811 H815 0.930 1_545 S
C812 C810 1.356 . S
C812 C813 1.348 . S
C813 C808 1.353 . S
C813 C812 1.348 . S
C813 H865 0.929 . S
H814 C808 0.930 . S
H815 C811 0.930 1_565 S
C816 N817 1.314 . S
C816 C818 1.353 . S
C816 H822 0.930 . S
N817 Li793 1.990 . S
N817 C816 1.314 . S
N817 C820 1.279 . S
C818 C816 1.353 . S
C818 C821 1.348 . S
C818 H866 0.929 . S
C819 C820 1.358 . S
C819 C821 1.356 . S
C819 H867 0.930 . S
C820 N817 1.279 . S
C820 C819 1.358 . S
C820 H823 0.930 . S
C821 C818 1.348 . S
C821 C819 1.356 . S
H822 C816 0.930 . S
H823 C820 0.930 . S
C824 C826 1.348 . S
C824 C827 1.356 . S
C824 O854 1.325 . S
N825 C828 1.314 1_545 S
N825 C829 1.279 . S
C826 C824 1.348 . S
C826 C828 1.353 . S
C826 H868 0.929 . S
C827 C824 1.356 . S
C827 C829 1.358 1_565 S
C827 H869 0.930 . S
C828 N825 1.314 1_565 S
C828 C826 1.353 . S
C828 H870 0.930 . S
C829 N825 1.279 . S
C829 C827 1.358 1_545 S
C829 H871 0.930 . S
C830 C831 1.348 . S
C830 C832 1.356 . S
C830 O855 1.325 . S
C831 C830 1.348 . S
C831 C833 1.353 . S
C831 H872 0.929 . S
C832 C830 1.356 . S
C832 C834 1.358 . S
C832 H873 0.930 . S
C833 C831 1.353 . S
C833 N835 1.314 . S
C833 H874 0.930 . S
C834 C832 1.358 . S
C834 N835 1.279 . S
C834 H875 0.930 . S
N835 C833 1.314 . S
N835 C834 1.279 . S
C836 C838 1.353 . S
C836 N839 1.314 . S
C836 H842 0.930 . S
C837 N839 1.279 . S
C837 C840 1.358 . S
C837 H843 0.930 . S
C838 C836 1.353 . S
C838 C841 1.348 . S
C838 H876 0.929 . S
N839 Li794 1.990 . S
N839 C836 1.314 . S
N839 C837 1.279 . S
C840 C837 1.358 . S
C840 C841 1.356 . S
C840 H877 0.930 . S
C841 C838 1.348 . S
C841 C840 1.356 . S
H842 C836 0.930 . S
H843 C837 0.930 . S
C844 N845 1.314 . S
C844 C846 1.353 . S
C844 H850 0.930 . S
N845 Li795 1.990 . S
N845 C844 1.314 . S
N845 C848 1.279 . S
C846 C844 1.353 . S
C846 C849 1.348 . S
C846 H878 0.929 . S
C847 C848 1.358 . S
C847 C849 1.356 . S
C847 H879 0.930 . S
C848 N845 1.279 . S
C848 C847 1.358 . S
C848 H851 0.930 . S
C849 C846 1.348 . S
C849 C847 1.356 . S
H850 C844 0.930 . S
H851 C848 0.930 . S
O852 Li792 1.956 . S
O852 Li793 1.970 . S
O852 Li794 1.961 . S
O852 C796 1.325 . S
O853 Li792 1.970 . S
O853 Li793 1.956 . S
O853 Li795 1.961 . S
O853 C802 1.325 . S
O854 Li792 1.961 . S
O854 Li794 1.956 . S
O854 Li795 1.970 . S
O854 C824 1.325 . S
O855 Li793 1.961 . S
O855 Li794 1.970 . S
O855 Li795 1.956 . S
O855 C830 1.325 . S
H856 C798 0.929 . S
H857 C799 0.930 . S
H858 C800 0.930 . S
H859 C801 0.930 . S
H860 C803 0.930 . S
H861 C805 0.929 . S
H862 C806 0.930 . S
H863 C807 0.930 1_545 S
H864 C810 0.930 . S
H865 C813 0.929 . S
H866 C818 0.929 . S
H867 C819 0.930 . S
H868 C826 0.929 . S
H869 C827 0.930 . S
H870 C828 0.930 . S
H871 C829 0.930 . S
H872 C831 0.929 . S
H873 C832 0.930 . S
H874 C833 0.930 . S
H875 C834 0.930 . S
H876 C838 0.929 . S
H877 C840 0.930 . S
H878 C846 0.929 . S
H879 C847 0.930 . S
Li880 N897 1.990 . S
Li880 O940 1.956 . S
Li880 O941 1.970 . S
Li880 O942 1.961 . S
Li881 N905 1.990 1_455 S
Li881 O940 1.970 . S
Li881 O941 1.956 . S
Li881 O943 1.961 . S
Li882 N927 1.990 . S
Li882 O940 1.961 . S
Li882 O942 1.956 . S
Li882 O943 1.970 . S
Li883 N933 1.990 . S
Li883 O941 1.961 . S
Li883 O942 1.970 . S
Li883 O943 1.956 . S
C884 C886 1.348 . S
C884 C887 1.356 . S
C884 O940 1.325 . S
N885 C888 1.314 . S
N885 C889 1.279 . S
C886 C884 1.348 . S
C886 C888 1.353 . S
C886 H944 0.929 . S
C887 C884 1.356 . S
C887 C889 1.358 . S
C887 H945 0.930 . S
C888 N885 1.314 . S
C888 C886 1.353 . S
C888 H946 0.930 1_455 S
C889 N885 1.279 . S
C889 C887 1.358 . S
C889 H947 0.930 . S
C890 C893 1.348 . S
C890 C894 1.356 . S
C890 O941 1.325 . S
C891 N892 1.279 . S
C891 C894 1.358 . S
C891 H948 0.930 . S
N892 C891 1.279 . S
N892 C895 1.314 . S
C893 C890 1.348 . S
C893 C895 1.353 . S
C893 H949 0.929 . S
C894 C890 1.356 . S
C894 C891 1.358 . S
C894 H950 0.930 . S
C895 N892 1.314 . S
C895 C893 1.353 . S
C895 H951 0.930 . S
C896 N897 1.314 . S
C896 C901 1.353 . S
C896 H902 0.930 . S
N897 Li880 1.990 . S
N897 C896 1.314 . S
N897 C899 1.279 . S
C898 C899 1.358 . S
C898 C900 1.356 . S
C898 H952 0.930 . S
C899 N897 1.279 . S
C899 C898 1.358 . S
C899 H903 0.930 . S
C900 C898 1.356 . S
C900 C901 1.348 . S
C901 C896 1.353 . S
C901 C900 1.348 . S
C901 H953 0.929 . S
H902 C896 0.930 . S
H903 C899 0.930 . S
C904 N905 1.314 . S
C904 C906 1.353 . S
C904 H910 0.930 . S
N905 Li881 1.990 1_655 S
N905 C904 1.314 . S
N905 C908 1.279 . S
C906 C904 1.353 . S
C906 C909 1.348 . S
C906 H954 0.929 . S
C907 C908 1.358 . S
C907 C909 1.356 . S
C907 H955 0.930 . S
C908 N905 1.279 . S
C908 C907 1.358 . S
C908 H911 0.930 1_655 S
C909 C906 1.348 . S
C909 C907 1.356 . S
H910 C904 0.930 . S
H911 C908 0.930 1_455 S
C912 C914 1.348 . S
C912 C915 1.356 . S
C912 O942 1.325 . S
N913 C916 1.314 . S
N913 C917 1.279 . S
C914 C912 1.348 . S
C914 C916 1.353 . S
C914 H956 0.929 . S
C915 C912 1.356 . S
C915 C917 1.358 . S
C915 H957 0.930 . S
C916 N913 1.314 . S
C916 C914 1.353 . S
C916 H958 0.930 . S
C917 N913 1.279 . S
C917 C915 1.358 . S
C917 H959 0.930 . S
C918 C919 1.348 . S
C918 C920 1.356 . S
C918 O943 1.325 . S
C919 C918 1.348 . S
C919 C921 1.353 . S
C919 H960 0.929 . S
C920 C918 1.356 . S
C920 C922 1.358 1_455 S
C920 H961 0.930 . S
C921 C919 1.353 . S
C921 N923 1.314 1_455 S
C921 H962 0.930 . S
C922 C920 1.358 1_655 S
C922 N923 1.279 . S
C922 H963 0.930 . S
N923 C921 1.314 1_655 S
N923 C922 1.279 . S
C924 C926 1.353 . S
C924 N927 1.314 . S
C924 H930 0.930 . S
C925 N927 1.279 . S
C925 C928 1.358 . S
C925 H931 0.930 . S
C926 C924 1.353 . S
C926 C929 1.348 . S
C926 H964 0.929 . S
N927 Li882 1.990 . S
N927 C924 1.314 . S
N927 C925 1.279 . S
C928 C925 1.358 . S
C928 C929 1.356 . S
C928 H965 0.930 . S
C929 C926 1.348 . S
C929 C928 1.356 . S
H930 C924 0.930 . S
H931 C925 0.930 . S
C932 N933 1.314 . S
C932 C934 1.353 . S
C932 H938 0.930 . S
N933 Li883 1.990 . S
N933 C932 1.314 . S
N933 C936 1.279 . S
C934 C932 1.353 . S
C934 C937 1.348 . S
C934 H966 0.929 . S
C935 C936 1.358 . S
C935 C937 1.356 . S
C935 H967 0.930 . S
C936 N933 1.279 . S
C936 C935 1.358 . S
C936 H939 0.930 . S
C937 C934 1.348 . S
C937 C935 1.356 . S
H938 C932 0.930 . S
H939 C936 0.930 . S
O940 Li880 1.956 . S
O940 Li881 1.970 . S
O940 Li882 1.961 . S
O940 C884 1.325 . S
O941 Li880 1.970 . S
O941 Li881 1.956 . S
O941 Li883 1.961 . S
O941 C890 1.325 . S
O942 Li880 1.961 . S
O942 Li882 1.956 . S
O942 Li883 1.970 . S
O942 C912 1.325 . S
O943 Li881 1.961 . S
O943 Li882 1.970 . S
O943 Li883 1.956 . S
O943 C918 1.325 . S
H944 C886 0.929 . S
H945 C887 0.930 . S
H946 C888 0.930 1_655 S
H947 C889 0.930 . S
H948 C891 0.930 . S
H949 C893 0.929 . S
H950 C894 0.930 . S
H951 C895 0.930 . S
H952 C898 0.930 . S
H953 C901 0.929 . S
H954 C906 0.929 . S
H955 C907 0.930 . S
H956 C914 0.929 . S
H957 C915 0.930 . S
H958 C916 0.930 . S
H959 C917 0.930 . S
H960 C919 0.929 . S
H961 C920 0.930 . S
H962 C921 0.930 . S
H963 C922 0.930 . S
H964 C926 0.929 . S
H965 C928 0.930 . S
H966 C934 0.929 . S
H967 C935 0.930 . S
Li968 N985 1.990 . S
Li968 O1028 1.956 . S
Li968 O1029 1.970 . S
Li968 O1030 1.961 . S
Li969 N993 1.990 . S
Li969 O1028 1.970 . S
Li969 O1029 1.956 . S
Li969 O1031 1.961 . S
Li970 N1015 1.990 . S
Li970 O1028 1.961 . S
Li970 O1030 1.956 . S
Li970 O1031 1.970 . S
Li971 N1021 1.990 . S
Li971 O1029 1.961 . S
Li971 O1030 1.970 . S
Li971 O1031 1.956 . S
C972 C974 1.348 . S
C972 C975 1.356 . S
C972 O1028 1.325 . S
N973 C976 1.314 . S
N973 C977 1.279 . S
C974 C972 1.348 . S
C974 C976 1.353 . S
C974 H1032 0.929 . S
C975 C972 1.356 . S
C975 C977 1.358 . S
C975 H1033 0.930 . S
C976 N973 1.314 . S
C976 C974 1.353 . S
C976 H1034 0.930 . S
C977 N973 1.279 . S
C977 C975 1.358 . S
C977 H1035 0.930 . S
C978 C981 1.348 . S
C978 C982 1.356 . S
C978 O1029 1.325 . S
C979 N980 1.279 . S
C979 C982 1.358 . S
C979 H1036 0.930 . S
N980 C979 1.279 . S
N980 C983 1.314 . S
C981 C978 1.348 . S
C981 C983 1.353 . S
C981 H1037 0.929 . S
C982 C978 1.356 . S
C982 C979 1.358 . S
C982 H1038 0.930 . S
C983 N980 1.314 . S
C983 C981 1.353 . S
C983 H1039 0.930 . S
C984 N985 1.314 . S
C984 C989 1.353 . S
C984 H990 0.930 . S
N985 Li968 1.990 . S
N985 C984 1.314 . S
N985 C987 1.279 . S
C986 C987 1.358 . S
C986 C988 1.356 . S
C986 H1040 0.930 . S
C987 N985 1.279 . S
C987 C986 1.358 . S
C987 H991 0.930 . S
C988 C986 1.356 . S
C988 C989 1.348 . S
C989 C984 1.353 . S
C989 C988 1.348 . S
C989 H1041 0.929 . S
H990 C984 0.930 . S
H991 C987 0.930 . S
C992 N993 1.314 . S
C992 C994 1.353 . S
C992 H998 0.930 . S
N993 Li969 1.990 . S
N993 C992 1.314 . S
N993 C996 1.279 . S
C994 C992 1.353 . S
C994 C997 1.348 . S
C994 H1042 0.929 . S
C995 C996 1.358 . S
C995 C997 1.356 . S
C995 H1043 0.930 . S
C996 N993 1.279 . S
C996 C995 1.358 . S
C996 H999 0.930 . S
C997 C994 1.348 . S
C997 C995 1.356 . S
H998 C992 0.930 . S
H999 C996 0.930 . S
C1000 C1002 1.348 . S
C1000 C1003 1.356 . S
C1000 O1030 1.325 . S
N1001 C1004 1.314 . S
N1001 C1005 1.279 . S
C1002 C1000 1.348 . S
C1002 C1004 1.353 . S
C1002 H1044 0.929 . S
C1003 C1000 1.356 . S
C1003 C1005 1.358 . S
C1003 H1045 0.930 . S
C1004 N1001 1.314 . S
C1004 C1002 1.353 . S
C1004 H1046 0.930 . S
C1005 N1001 1.279 . S
C1005 C1003 1.358 . S
C1005 H1047 0.930 . S
C1006 C1007 1.348 . S
C1006 C1008 1.356 . S
C1006 O1031 1.325 . S
C1007 C1006 1.348 . S
C1007 C1009 1.353 . S
C1007 H1048 0.929 . S
C1008 C1006 1.356 . S
C1008 C1010 1.358 . S
C1008 H1049 0.930 . S
C1009 C1007 1.353 . S
C1009 N1011 1.314 . S
C1009 H1050 0.930 . S
C1010 C1008 1.358 . S
C1010 N1011 1.279 . S
C1010 H1051 0.930 . S
N1011 C1009 1.314 . S
N1011 C1010 1.279 . S
C1012 C1014 1.353 . S
C1012 N1015 1.314 . S
C1012 H1018 0.930 . S
C1013 N1015 1.279 . S
C1013 C1016 1.358 . S
C1013 H1019 0.930 . S
C1014 C1012 1.353 . S
C1014 C1017 1.348 . S
C1014 H1052 0.929 . S
N1015 Li970 1.990 . S
N1015 C1012 1.314 . S
N1015 C1013 1.279 . S
C1016 C1013 1.358 . S
C1016 C1017 1.356 . S
C1016 H1053 0.930 . S
C1017 C1014 1.348 . S
C1017 C1016 1.356 . S
H1018 C1012 0.930 . S
H1019 C1013 0.930 . S
C1020 N1021 1.314 . S
C1020 C1022 1.353 . S
C1020 H1026 0.930 . S
N1021 Li971 1.990 . S
N1021 C1020 1.314 . S
N1021 C1024 1.279 . S
C1022 C1020 1.353 . S
C1022 C1025 1.348 . S
C1022 H1054 0.929 . S
C1023 C1024 1.358 . S
C1023 C1025 1.356 . S
C1023 H1055 0.930 . S
C1024 N1021 1.279 . S
C1024 C1023 1.358 . S
C1024 H1027 0.930 . S
C1025 C1022 1.348 . S
C1025 C1023 1.356 . S
H1026 C1020 0.930 . S
H1027 C1024 0.930 . S
O1028 Li968 1.956 . S
O1028 Li969 1.970 . S
O1028 Li970 1.961 . S
O1028 C972 1.325 . S
O1029 Li968 1.970 . S
O1029 Li969 1.956 . S
O1029 Li971 1.961 . S
O1029 C978 1.325 . S
O1030 Li968 1.961 . S
O1030 Li970 1.956 . S
O1030 Li971 1.970 . S
O1030 C1000 1.325 . S
O1031 Li969 1.961 . S
O1031 Li970 1.970 . S
O1031 Li971 1.956 . S
O1031 C1006 1.325 . S
H1032 C974 0.929 . S
H1033 C975 0.930 . S
H1034 C976 0.930 . S
H1035 C977 0.930 . S
H1036 C979 0.930 . S
H1037 C981 0.929 . S
H1038 C982 0.930 . S
H1039 C983 0.930 . S
H1040 C986 0.930 . S
H1041 C989 0.929 . S
H1042 C994 0.929 . S
H1043 C995 0.930 . S
H1044 C1002 0.929 . S
H1045 C1003 0.930 . S
H1046 C1004 0.930 . S
H1047 C1005 0.930 . S
H1048 C1007 0.929 . S
H1049 C1008 0.930 . S
H1050 C1009 0.930 . S
H1051 C1010 0.930 . S
H1052 C1014 0.929 . S
H1053 C1016 0.930 . S
H1054 C1022 0.929 . S
H1055 C1023 0.930 . S
Li1056 N1073 1.990 1_545 S
Li1056 O1116 1.956 . S
Li1056 O1117 1.970 . S
Li1056 O1118 1.961 . S
Li1057 N1081 1.990 . S
Li1057 O1116 1.970 . S
Li1057 O1117 1.956 . S
Li1057 O1119 1.961 . S
Li1058 N1103 1.990 . S
Li1058 O1116 1.961 . S
Li1058 O1118 1.956 . S
Li1058 O1119 1.970 . S
Li1059 N1109 1.990 . S
Li1059 O1117 1.961 . S
Li1059 O1118 1.970 . S
Li1059 O1119 1.956 . S
C1060 C1062 1.348 . S
C1060 C1063 1.356 . S
C1060 O1116 1.325 . S
N1061 C1064 1.314 . S
N1061 C1065 1.279 . S
C1062 C1060 1.348 . S
C1062 C1064 1.353 1_545 S
C1062 H1120 0.929 . S
C1063 C1060 1.356 . S
C1063 C1065 1.358 1_545 S
C1063 H1121 0.930 . S
C1064 N1061 1.314 . S
C1064 C1062 1.353 1_565 S
C1064 H1122 0.930 . S
C1065 N1061 1.279 . S
C1065 C1063 1.358 1_565 S
C1065 H1123 0.930 . S
C1066 C1069 1.348 . S
C1066 C1070 1.356 . S
C1066 O1117 1.325 . S
C1067 N1068 1.279 . S
C1067 C1070 1.358 . S
C1067 H1124 0.930 . S
N1068 C1067 1.279 . S
N1068 C1071 1.315 . S
C1069 C1066 1.348 . S
C1069 C1071 1.354 . S
C1069 H1125 0.929 1_545 S
C1070 C1066 1.356 . S
C1070 C1067 1.358 . S
C1070 H1126 0.930 . S
C1071 N1068 1.315 . S
C1071 C1069 1.354 . S
C1071 H1127 0.928 1_545 S
C1072 N1073 1.314 . S
C1072 C1077 1.353 . S
C1072 H1078 0.930 1_565 S
N1073 Li1056 1.990 1_565 S
N1073 C1072 1.314 . S
N1073 C1075 1.279 . S
C1074 C1075 1.358 . S
C1074 C1076 1.356 . S
C1074 H1128 0.930 . S
C1075 N1073 1.279 . S
C1075 C1074 1.358 . S
C1075 H1079 0.930 . S
C1076 C1074 1.356 . S
C1076 C1077 1.348 . S
C1077 C1072 1.353 . S
C1077 C1076 1.348 . S
C1077 H1129 0.929 . S
H1078 C1072 0.930 1_545 S
H1079 C1075 0.930 . S
C1080 N1081 1.314 . S
C1080 C1082 1.353 . S
C1080 H1086 0.930 . S
N1081 Li1057 1.990 . S
N1081 C1080 1.314 . S
N1081 C1084 1.279 . S
C1082 C1080 1.353 . S
C1082 C1085 1.348 . S
C1082 H1130 0.929 . S
C1083 C1084 1.358 . S
C1083 C1085 1.356 . S
C1083 H1131 0.930 . S
C1084 N1081 1.279 . S
C1084 C1083 1.358 . S
C1084 H1087 0.930 . S
C1085 C1082 1.348 . S
C1085 C1083 1.356 . S
H1086 C1080 0.930 . S
H1087 C1084 0.930 . S
C1088 C1090 1.348 . S
C1088 C1091 1.356 . S
C1088 O1118 1.325 . S
N1089 C1092 1.314 . S
N1089 C1093 1.279 . S
C1090 C1088 1.348 . S
C1090 C1092 1.353 . S
C1090 H1132 0.929 . S
C1091 C1088 1.356 . S
C1091 C1093 1.358 . S
C1091 H1133 0.930 . S
C1092 N1089 1.314 . S
C1092 C1090 1.353 . S
C1092 H1134 0.930 . S
C1093 N1089 1.279 . S
C1093 C1091 1.358 . S
C1093 H1135 0.930 . S
C1094 C1095 1.348 . S
C1094 C1096 1.356 . S
C1094 O1119 1.325 . S
C1095 C1094 1.348 . S
C1095 C1097 1.353 . S
C1095 H1136 0.929 . S
C1096 C1094 1.356 . S
C1096 C1098 1.358 . S
C1096 H1137 0.930 . S
C1097 C1095 1.353 . S
C1097 N1099 1.314 . S
C1097 H1138 0.930 . S
C1098 C1096 1.358 . S
C1098 N1099 1.279 . S
C1098 H1139 0.930 . S
N1099 C1097 1.314 . S
N1099 C1098 1.279 . S
C1100 C1102 1.353 . S
C1100 N1103 1.314 . S
C1100 H1106 0.930 . S
C1101 N1103 1.279 . S
C1101 C1104 1.358 . S
C1101 H1107 0.930 . S
C1102 C1100 1.353 . S
C1102 C1105 1.348 . S
C1102 H1140 0.929 . S
N1103 Li1058 1.990 . S
N1103 C1100 1.314 . S
N1103 C1101 1.279 . S
C1104 C1101 1.358 . S
C1104 C1105 1.356 . S
C1104 H1141 0.930 . S
C1105 C1102 1.348 . S
C1105 C1104 1.356 . S
H1106 C1100 0.930 . S
H1107 C1101 0.930 . S
C1108 N1109 1.314 . S
C1108 C1110 1.353 . S
C1108 H1114 0.930 . S
N1109 Li1059 1.990 . S
N1109 C1108 1.314 . S
N1109 C1112 1.279 . S
C1110 C1108 1.353 . S
C1110 C1113 1.348 . S
C1110 H1142 0.929 . S
C1111 C1112 1.358 . S
C1111 C1113 1.356 . S
C1111 H1143 0.930 . S
C1112 N1109 1.279 . S
C1112 C1111 1.358 . S
C1112 H1115 0.930 . S
C1113 C1110 1.348 . S
C1113 C1111 1.356 . S
H1114 C1108 0.930 . S
H1115 C1112 0.930 . S
O1116 Li1056 1.956 . S
O1116 Li1057 1.970 . S
O1116 Li1058 1.961 . S
O1116 C1060 1.325 . S
O1117 Li1056 1.970 . S
O1117 Li1057 1.956 . S
O1117 Li1059 1.961 . S
O1117 C1066 1.325 . S
O1118 Li1056 1.961 . S
O1118 Li1058 1.956 . S
O1118 Li1059 1.970 . S
O1118 C1088 1.325 . S
O1119 Li1057 1.961 . S
O1119 Li1058 1.970 . S
O1119 Li1059 1.956 . S
O1119 C1094 1.325 . S
H1120 C1062 0.929 . S
H1121 C1063 0.930 . S
H1122 C1064 0.930 . S
H1123 C1065 0.930 . S
H1124 C1067 0.930 . S
H1125 C1069 0.929 1_565 S
H1126 C1070 0.930 . S
H1127 C1071 0.928 1_565 S
H1128 C1074 0.930 . S
H1129 C1077 0.929 . S
H1130 C1082 0.929 . S
H1131 C1083 0.930 . S
H1132 C1090 0.929 . S
H1133 C1091 0.930 . S
H1134 C1092 0.930 . S
H1135 C1093 0.930 . S
H1136 C1095 0.929 . S
H1137 C1096 0.930 . S
H1138 C1097 0.930 . S
H1139 C1098 0.930 . S
H1140 C1102 0.929 . S
H1141 C1104 0.930 . S
H1142 C1110 0.929 . S
H1143 C1111 0.930 . S
Li1144 N1161 1.990 1_655 S
Li1144 O1204 1.956 . S
Li1144 O1205 1.970 . S
Li1144 O1206 1.961 . S
Li1145 N1169 1.990 . S
Li1145 O1204 1.970 . S
Li1145 O1205 1.956 . S
Li1145 O1207 1.961 . S
Li1146 N1191 1.990 . S
Li1146 O1204 1.961 . S
Li1146 O1206 1.956 . S
Li1146 O1207 1.970 . S
Li1147 N1197 1.990 . S
Li1147 O1205 1.961 . S
Li1147 O1206 1.970 . S
Li1147 O1207 1.956 . S
C1148 C1150 1.348 . S
C1148 C1151 1.356 . S
C1148 O1204 1.325 . S
N1149 C1152 1.314 . S
N1149 C1153 1.279 . S
C1150 C1148 1.348 . S
C1150 C1152 1.353 1_655 S
C1150 H1208 0.929 . S
C1151 C1148 1.356 . S
C1151 C1153 1.358 1_655 S
C1151 H1209 0.930 . S
C1152 N1149 1.314 . S
C1152 C1150 1.353 1_455 S
C1152 H1210 0.930 . S
C1153 N1149 1.279 . S
C1153 C1151 1.358 1_455 S
C1153 H1211 0.930 . S
C1154 C1157 1.348 . S
C1154 C1158 1.356 . S
C1154 O1205 1.325 . S
C1155 N1156 1.279 . S
C1155 C1158 1.358 . S
C1155 H1212 0.930 . S
N1156 C1155 1.279 . S
N1156 C1159 1.288 1_655 S
C1157 C1154 1.348 . S
C1157 C1159 1.353 1_655 S
C1157 H1213 0.929 1_655 S
C1158 C1154 1.356 . S
C1158 C1155 1.358 . S
C1158 H1214 0.930 . S
C1159 N1156 1.288 1_455 S
C1159 C1157 1.353 1_455 S
C1159 H1215 0.960 . S
C1160 N1161 1.314 . S
C1160 C1165 1.353 . S
C1160 H1166 0.879 1_455 S
N1161 Li1144 1.990 1_455 S
N1161 C1160 1.314 . S
N1161 C1163 1.279 . S
C1162 C1163 1.358 . S
C1162 C1164 1.356 . S
C1162 H1216 0.930 . S
C1163 N1161 1.279 . S
C1163 C1162 1.358 . S
C1163 H1167 0.930 . S
C1164 C1162 1.356 . S
C1164 C1165 1.348 . S
C1165 C1160 1.353 . S
C1165 C1164 1.348 . S
C1165 H1217 0.929 . S
H1166 C1160 0.879 1_655 S
H1167 C1163 0.930 . S
C1168 N1169 1.314 . S
C1168 C1170 1.353 . S
C1168 H1174 0.930 . S
N1169 Li1145 1.990 . S
N1169 C1168 1.314 . S
N1169 C1172 1.279 . S
C1170 C1168 1.353 . S
C1170 C1173 1.348 . S
C1170 H1218 0.929 . S
C1171 C1172 1.358 . S
C1171 C1173 1.356 . S
C1171 H1219 0.930 . S
C1172 N1169 1.279 . S
C1172 C1171 1.358 . S
C1172 H1175 0.930 . S
C1173 C1170 1.348 . S
C1173 C1171 1.356 . S
H1174 C1168 0.930 . S
H1175 C1172 0.930 . S
C1176 C1178 1.348 . S
C1176 C1179 1.356 . S
C1176 O1206 1.325 . S
N1177 C1180 1.314 . S
N1177 C1181 1.279 . S
C1178 C1176 1.348 . S
C1178 C1180 1.353 . S
C1178 H1220 0.929 . S
C1179 C1176 1.356 . S
C1179 C1181 1.358 . S
C1179 H1221 0.930 . S
C1180 N1177 1.314 . S
C1180 C1178 1.353 . S
C1180 H1222 0.930 . S
C1181 N1177 1.279 . S
C1181 C1179 1.358 . S
C1181 H1223 0.930 . S
C1182 C1183 1.348 . S
C1182 C1184 1.356 . S
C1182 O1207 1.325 . S
C1183 C1182 1.348 . S
C1183 C1185 1.353 . S
C1183 H1224 0.929 . S
C1184 C1182 1.356 . S
C1184 C1186 1.358 . S
C1184 H1225 0.930 . S
C1185 C1183 1.353 . S
C1185 N1187 1.314 . S
C1185 H1226 0.930 . S
C1186 C1184 1.358 . S
C1186 N1187 1.279 . S
C1186 H1227 0.930 . S
N1187 C1185 1.314 . S
N1187 C1186 1.279 . S
C1188 C1190 1.353 . S
C1188 N1191 1.314 . S
C1188 H1194 0.930 . S
C1189 N1191 1.279 . S
C1189 C1192 1.358 . S
C1189 H1195 0.930 . S
C1190 C1188 1.353 . S
C1190 C1193 1.348 . S
C1190 H1228 0.929 . S
N1191 Li1146 1.990 . S
N1191 C1188 1.314 . S
N1191 C1189 1.279 . S
C1192 C1189 1.358 . S
C1192 C1193 1.356 . S
C1192 H1229 0.930 . S
C1193 C1190 1.348 . S
C1193 C1192 1.356 . S
H1194 C1188 0.930 . S
H1195 C1189 0.930 . S
C1196 N1197 1.314 . S
C1196 C1198 1.353 . S
C1196 H1202 0.930 . S
N1197 Li1147 1.990 . S
N1197 C1196 1.314 . S
N1197 C1200 1.279 . S
C1198 C1196 1.353 . S
C1198 C1201 1.348 . S
C1198 H1230 0.929 . S
C1199 C1200 1.358 . S
C1199 C1201 1.356 . S
C1199 H1231 0.930 . S
C1200 N1197 1.279 . S
C1200 C1199 1.358 . S
C1200 H1203 0.930 . S
C1201 C1198 1.348 . S
C1201 C1199 1.356 . S
H1202 C1196 0.930 . S
H1203 C1200 0.930 . S
O1204 Li1144 1.956 . S
O1204 Li1145 1.970 . S
O1204 Li1146 1.961 . S
O1204 C1148 1.325 . S
O1205 Li1144 1.970 . S
O1205 Li1145 1.956 . S
O1205 Li1147 1.961 . S
O1205 C1154 1.325 . S
O1206 Li1144 1.961 . S
O1206 Li1146 1.956 . S
O1206 Li1147 1.970 . S
O1206 C1176 1.325 . S
O1207 Li1145 1.961 . S
O1207 Li1146 1.970 . S
O1207 Li1147 1.956 . S
O1207 C1182 1.325 . S
H1208 C1150 0.929 . S
H1209 C1151 0.930 . S
H1210 C1152 0.930 . S
H1211 C1153 0.930 . S
H1212 C1155 0.930 . S
H1213 C1157 0.929 1_455 S
H1214 C1158 0.930 . S
H1215 C1159 0.960 . S
H1216 C1162 0.930 . S
H1217 C1165 0.929 . S
H1218 C1170 0.929 . S
H1219 C1171 0.930 . S
H1220 C1178 0.929 . S
H1221 C1179 0.930 . S
H1222 C1180 0.930 . S
H1223 C1181 0.930 . S
H1224 C1183 0.929 . S
H1225 C1184 0.930 . S
H1226 C1185 0.930 . S
H1227 C1186 0.930 . S
H1228 C1190 0.929 . S
H1229 C1192 0.930 . S
H1230 C1198 0.929 . S
H1231 C1199 0.930 . S
Li1232 N1249 1.990 . S
Li1232 O1292 1.956 . S
Li1232 O1293 1.970 . S
Li1232 O1294 1.961 . S
Li1233 N1257 1.990 . S
Li1233 O1292 1.970 . S
Li1233 O1293 1.956 . S
Li1233 O1295 1.961 . S
Li1234 N1279 1.990 . S
Li1234 O1292 1.961 . S
Li1234 O1294 1.956 . S
Li1234 O1295 1.970 . S
Li1235 N1285 1.990 . S
Li1235 O1293 1.961 . S
Li1235 O1294 1.970 . S
Li1235 O1295 1.956 . S
C1236 C1238 1.348 . S
C1236 C1239 1.356 . S
C1236 O1292 1.325 . S
N1237 C1240 1.314 . S
N1237 C1241 1.279 . S
C1238 C1236 1.348 . S
C1238 C1240 1.353 . S
C1238 H1296 0.929 . S
C1239 C1236 1.356 . S
C1239 C1241 1.358 . S
C1239 H1297 0.930 . S
C1240 N1237 1.314 . S
C1240 C1238 1.353 . S
C1240 H1298 0.930 . S
C1241 N1237 1.279 . S
C1241 C1239 1.358 . S
C1241 H1299 0.930 . S
C1242 C1245 1.348 . S
C1242 C1246 1.356 . S
C1242 O1293 1.325 . S
C1243 N1244 1.279 . S
C1243 C1246 1.358 . S
C1243 H1300 0.930 . S
N1244 C1243 1.279 . S
N1244 C1247 1.314 . S
C1245 C1242 1.348 . S
C1245 C1247 1.353 . S
C1245 H1301 0.929 . S
C1246 C1242 1.356 . S
C1246 C1243 1.358 . S
C1246 H1302 0.930 . S
C1247 N1244 1.314 . S
C1247 C1245 1.353 . S
C1247 H1303 0.930 . S
C1248 N1249 1.314 . S
C1248 C1253 1.353 . S
C1248 H1254 0.930 . S
N1249 Li1232 1.990 . S
N1249 C1248 1.314 . S
N1249 C1251 1.279 . S
C1250 C1251 1.358 . S
C1250 C1252 1.356 . S
C1250 H1304 0.930 . S
C1251 N1249 1.279 . S
C1251 C1250 1.358 . S
C1251 H1255 0.930 . S
C1252 C1250 1.356 . S
C1252 C1253 1.348 . S
C1253 C1248 1.353 . S
C1253 C1252 1.348 . S
C1253 H1305 0.929 . S
H1254 C1248 0.930 . S
H1255 C1251 0.930 . S
C1256 N1257 1.314 . S
C1256 C1258 1.353 . S
C1256 H1262 0.930 . S
N1257 Li1233 1.990 . S
N1257 C1256 1.314 . S
N1257 C1260 1.279 . S
C1258 C1256 1.353 . S
C1258 C1261 1.348 . S
C1258 H1306 0.929 . S
C1259 C1260 1.358 . S
C1259 C1261 1.356 . S
C1259 H1307 0.930 . S
C1260 N1257 1.279 . S
C1260 C1259 1.358 . S
C1260 H1263 0.930 . S
C1261 C1258 1.348 . S
C1261 C1259 1.356 . S
H1262 C1256 0.930 . S
H1263 C1260 0.930 . S
C1264 C1266 1.348 . S
C1264 C1267 1.356 . S
C1264 O1294 1.325 . S
N1265 C1268 1.314 . S
N1265 C1269 1.279 . S
C1266 C1264 1.348 . S
C1266 C1268 1.353 . S
C1266 H1308 0.929 . S
C1267 C1264 1.356 . S
C1267 C1269 1.358 . S
C1267 H1309 0.930 . S
C1268 N1265 1.314 . S
C1268 C1266 1.353 . S
C1268 H1310 0.930 . S
C1269 N1265 1.279 . S
C1269 C1267 1.358 . S
C1269 H1311 0.930 . S
C1270 C1271 1.348 . S
C1270 C1272 1.356 . S
C1270 O1295 1.325 . S
C1271 C1270 1.348 . S
C1271 C1273 1.353 . S
C1271 H1312 0.929 . S
C1272 C1270 1.356 . S
C1272 C1274 1.358 . S
C1272 H1313 0.930 . S
C1273 C1271 1.353 . S
C1273 N1275 1.314 . S
C1273 H1314 0.930 . S
C1274 C1272 1.358 . S
C1274 N1275 1.279 . S
C1274 H1315 0.930 . S
N1275 C1273 1.314 . S
N1275 C1274 1.279 . S
C1276 C1278 1.353 . S
C1276 N1279 1.314 . S
C1276 H1282 0.930 . S
C1277 N1279 1.279 . S
C1277 C1280 1.358 . S
C1277 H1283 0.930 . S
C1278 C1276 1.353 . S
C1278 C1281 1.348 . S
C1278 H1316 0.929 . S
N1279 Li1234 1.990 . S
N1279 C1276 1.314 . S
N1279 C1277 1.279 . S
C1280 C1277 1.358 . S
C1280 C1281 1.356 . S
C1280 H1317 0.930 . S
C1281 C1278 1.348 . S
C1281 C1280 1.356 . S
H1282 C1276 0.930 . S
H1283 C1277 0.930 . S
C1284 N1285 1.314 . S
C1284 C1286 1.353 . S
C1284 H1290 0.930 . S
N1285 Li1235 1.990 . S
N1285 C1284 1.314 . S
N1285 C1288 1.279 . S
C1286 C1284 1.353 . S
C1286 C1289 1.348 . S
C1286 H1318 0.929 . S
C1287 C1288 1.358 . S
C1287 C1289 1.356 . S
C1287 H1319 0.930 . S
C1288 N1285 1.279 . S
C1288 C1287 1.358 . S
C1288 H1291 0.930 . S
C1289 C1286 1.348 . S
C1289 C1287 1.356 . S
H1290 C1284 0.930 . S
H1291 C1288 0.930 . S
O1292 Li1232 1.956 . S
O1292 Li1233 1.970 . S
O1292 Li1234 1.961 . S
O1292 C1236 1.325 . S
O1293 Li1232 1.970 . S
O1293 Li1233 1.956 . S
O1293 Li1235 1.961 . S
O1293 C1242 1.325 . S
O1294 Li1232 1.961 . S
O1294 Li1234 1.956 . S
O1294 Li1235 1.970 . S
O1294 C1264 1.325 . S
O1295 Li1233 1.961 . S
O1295 Li1234 1.970 . S
O1295 Li1235 1.956 . S
O1295 C1270 1.325 . S
H1296 C1238 0.929 . S
H1297 C1239 0.930 . S
H1298 C1240 0.930 . S
H1299 C1241 0.930 . S
H1300 C1243 0.930 . S
H1301 C1245 0.929 . S
H1302 C1246 0.930 . S
H1303 C1247 0.930 . S
H1304 C1250 0.930 . S
H1305 C1253 0.929 . S
H1306 C1258 0.929 . S
H1307 C1259 0.930 . S
H1308 C1266 0.929 . S
H1309 C1267 0.930 . S
H1310 C1268 0.930 . S
H1311 C1269 0.930 . S
H1312 C1271 0.929 . S
H1313 C1272 0.930 . S
H1314 C1273 0.930 . S
H1315 C1274 0.930 . S
H1316 C1278 0.929 . S
H1317 C1280 0.930 . S
H1318 C1286 0.929 . S
H1319 C1287 0.930 . S
Li1320 N1337 1.990 . S
Li1320 O1380 1.956 . S
Li1320 O1381 1.970 . S
Li1320 O1382 1.961 . S
Li1321 N1345 1.990 . S
Li1321 O1380 1.970 . S
Li1321 O1381 1.956 . S
Li1321 O1383 1.961 . S
Li1322 N1367 1.990 . S
Li1322 O1380 1.961 . S
Li1322 O1382 1.956 . S
Li1322 O1383 1.970 . S
Li1323 N1373 1.990 . S
Li1323 O1381 1.961 . S
Li1323 O1382 1.970 . S
Li1323 O1383 1.956 . S
C1324 C1326 1.348 . S
C1324 C1327 1.356 . S
C1324 O1380 1.325 . S
N1325 C1328 1.314 . S
N1325 C1329 1.279 . S
C1326 C1324 1.348 . S
C1326 C1328 1.353 . S
C1326 H1384 0.929 . S
C1327 C1324 1.356 . S
C1327 C1329 1.358 . S
C1327 H1385 0.930 . S
C1328 N1325 1.314 . S
C1328 C1326 1.353 . S
C1328 H1386 0.930 . S
C1329 N1325 1.279 . S
C1329 C1327 1.358 . S
C1329 H1387 0.930 . S
C1330 C1333 1.348 . S
C1330 C1334 1.356 . S
C1330 O1381 1.325 . S
C1331 N1332 1.279 . S
C1331 C1334 1.358 . S
C1331 H1388 0.930 . S
N1332 C1331 1.279 . S
N1332 C1335 1.314 . S
C1333 C1330 1.348 . S
C1333 C1335 1.353 . S
C1333 H1389 0.929 . S
C1334 C1330 1.356 . S
C1334 C1331 1.358 . S
C1334 H1390 0.930 . S
C1335 N1332 1.314 . S
C1335 C1333 1.353 . S
C1335 H1391 0.930 . S
C1336 N1337 1.314 . S
C1336 C1341 1.353 . S
C1336 H1342 0.930 . S
N1337 Li1320 1.990 . S
N1337 C1336 1.314 . S
N1337 C1339 1.279 . S
C1338 C1339 1.358 . S
C1338 C1340 1.356 . S
C1338 H1392 0.930 . S
C1339 N1337 1.279 . S
C1339 C1338 1.358 . S
C1339 H1343 0.930 . S
C1340 C1338 1.356 . S
C1340 C1341 1.348 . S
C1341 C1336 1.353 . S
C1341 C1340 1.348 . S
C1341 H1393 0.929 . S
H1342 C1336 0.930 . S
H1343 C1339 0.930 . S
C1344 N1345 1.314 . S
C1344 C1346 1.353 . S
C1344 H1350 0.930 . S
N1345 Li1321 1.990 . S
N1345 C1344 1.314 . S
N1345 C1348 1.279 . S
C1346 C1344 1.353 . S
C1346 C1349 1.348 . S
C1346 H1394 0.929 . S
C1347 C1348 1.358 . S
C1347 C1349 1.356 . S
C1347 H1395 0.930 . S
C1348 N1345 1.279 . S
C1348 C1347 1.358 . S
C1348 H1351 0.930 . S
C1349 C1346 1.348 . S
C1349 C1347 1.356 . S
H1350 C1344 0.930 . S
H1351 C1348 0.930 . S
C1352 C1354 1.348 . S
C1352 C1355 1.356 . S
C1352 O1382 1.325 . S
N1353 C1356 1.314 . S
N1353 C1357 1.279 . S
C1354 C1352 1.348 . S
C1354 C1356 1.353 . S
C1354 H1396 0.929 . S
C1355 C1352 1.356 . S
C1355 C1357 1.358 . S
C1355 H1397 0.930 . S
C1356 N1353 1.314 . S
C1356 C1354 1.353 . S
C1356 H1398 0.930 . S
C1357 N1353 1.279 . S
C1357 C1355 1.358 . S
C1357 H1399 0.930 . S
C1358 C1359 1.348 . S
C1358 C1360 1.356 . S
C1358 O1383 1.325 . S
C1359 C1358 1.348 . S
C1359 C1361 1.353 . S
C1359 H1400 0.929 . S
C1360 C1358 1.356 . S
C1360 C1362 1.358 . S
C1360 H1401 0.930 . S
C1361 C1359 1.353 . S
C1361 N1363 1.314 . S
C1361 H1402 0.930 . S
C1362 C1360 1.358 . S
C1362 N1363 1.279 . S
C1362 H1403 0.930 . S
N1363 C1361 1.314 . S
N1363 C1362 1.279 . S
C1364 C1366 1.353 . S
C1364 N1367 1.314 . S
C1364 H1370 0.930 . S
C1365 N1367 1.279 . S
C1365 C1368 1.358 . S
C1365 H1371 0.930 . S
C1366 C1364 1.353 . S
C1366 C1369 1.348 . S
C1366 H1404 0.929 . S
N1367 Li1322 1.990 . S
N1367 C1364 1.314 . S
N1367 C1365 1.279 . S
C1368 C1365 1.358 . S
C1368 C1369 1.356 . S
C1368 H1405 0.930 . S
C1369 C1366 1.348 . S
C1369 C1368 1.356 . S
H1370 C1364 0.930 . S
H1371 C1365 0.930 . S
C1372 N1373 1.314 . S
C1372 C1374 1.353 . S
C1372 H1378 0.930 . S
N1373 Li1323 1.990 . S
N1373 C1372 1.314 . S
N1373 C1376 1.279 . S
C1374 C1372 1.353 . S
C1374 C1377 1.348 . S
C1374 H1406 0.929 . S
C1375 C1376 1.358 . S
C1375 C1377 1.356 . S
C1375 H1407 0.930 . S
C1376 N1373 1.279 . S
C1376 C1375 1.358 . S
C1376 H1379 0.930 . S
C1377 C1374 1.348 . S
C1377 C1375 1.356 . S
H1378 C1372 0.930 . S
H1379 C1376 0.930 . S
O1380 Li1320 1.956 . S
O1380 Li1321 1.970 . S
O1380 Li1322 1.961 . S
O1380 C1324 1.325 . S
O1381 Li1320 1.970 . S
O1381 Li1321 1.956 . S
O1381 Li1323 1.961 . S
O1381 C1330 1.325 . S
O1382 Li1320 1.961 . S
O1382 Li1322 1.956 . S
O1382 Li1323 1.970 . S
O1382 C1352 1.325 . S
O1383 Li1321 1.961 . S
O1383 Li1322 1.970 . S
O1383 Li1323 1.956 . S
O1383 C1358 1.325 . S
H1384 C1326 0.929 . S
H1385 C1327 0.930 . S
H1386 C1328 0.930 . S
H1387 C1329 0.930 . S
H1388 C1331 0.930 . S
H1389 C1333 0.929 . S
H1390 C1334 0.930 . S
H1391 C1335 0.930 . S
H1392 C1338 0.930 . S
H1393 C1341 0.929 . S
H1394 C1346 0.929 . S
H1395 C1347 0.930 . S
H1396 C1354 0.929 . S
H1397 C1355 0.930 . S
H1398 C1356 0.930 . S
H1399 C1357 0.930 . S
H1400 C1359 0.929 . S
H1401 C1360 0.930 . S
H1402 C1361 0.930 . S
H1403 C1362 0.930 . S
H1404 C1366 0.929 . S
H1405 C1368 0.930 . S
H1406 C1374 0.929 . S
H1407 C1375 0.930 . S
Li1408 N1425 1.990 . S
Li1408 O1468 1.956 . S
Li1408 O1469 1.970 . S
Li1408 O1470 1.961 . S
Li1409 N1433 1.990 . S
Li1409 O1468 1.970 . S
Li1409 O1469 1.956 . S
Li1409 O1471 1.961 . S
Li1410 N1455 1.990 . S
Li1410 O1468 1.961 . S
Li1410 O1470 1.956 . S
Li1410 O1471 1.970 . S
Li1411 N1461 1.990 1_545 S
Li1411 O1469 1.961 . S
Li1411 O1470 1.970 . S
Li1411 O1471 1.956 . S
C1412 C1414 1.348 . S
C1412 C1415 1.356 . S
C1412 O1468 1.325 . S
N1413 C1416 1.314 . S
N1413 C1417 1.279 . S
C1414 C1412 1.348 . S
C1414 C1416 1.353 . S
C1414 H1472 0.929 . S
C1415 C1412 1.356 . S
C1415 C1417 1.358 . S
C1415 H1473 0.930 . S
C1416 N1413 1.314 . S
C1416 C1414 1.353 . S
C1416 H1474 0.930 . S
C1417 N1413 1.279 . S
C1417 C1415 1.358 . S
C1417 H1475 0.930 . S
C1418 C1421 1.348 . S
C1418 C1422 1.356 . S
C1418 O1469 1.325 . S
C1419 N1420 1.279 . S
C1419 C1422 1.358 1_565 S
C1419 H1476 0.930 . S
N1420 C1419 1.279 . S
N1420 C1423 1.314 1_565 S
C1421 C1418 1.348 . S
C1421 C1423 1.353 . S
C1421 H1477 0.929 . S
C1422 C1418 1.356 . S
C1422 C1419 1.358 1_545 S
C1422 H1478 0.930 . S
C1423 N1420 1.314 1_545 S
C1423 C1421 1.353 . S
C1423 H1479 0.930 . S
C1424 N1425 1.314 . S
C1424 C1429 1.353 . S
C1424 H1430 0.930 . S
N1425 Li1408 1.990 . S
N1425 C1424 1.314 . S
N1425 C1427 1.279 . S
C1426 C1427 1.358 . S
C1426 C1428 1.356 . S
C1426 H1480 0.930 . S
C1427 N1425 1.279 . S
C1427 C1426 1.358 . S
C1427 H1431 0.930 . S
C1428 C1426 1.356 . S
C1428 C1429 1.348 . S
C1429 C1424 1.353 . S
C1429 C1428 1.348 . S
C1429 H1481 0.929 . S
H1430 C1424 0.930 . S
H1431 C1427 0.930 . S
C1432 N1433 1.314 . S
C1432 C1434 1.353 . S
C1432 H1438 0.930 . S
N1433 Li1409 1.990 . S
N1433 C1432 1.314 . S
N1433 C1436 1.279 . S
C1434 C1432 1.353 . S
C1434 C1437 1.348 . S
C1434 H1482 0.929 . S
C1435 C1436 1.358 . S
C1435 C1437 1.356 . S
C1435 H1483 0.930 . S
C1436 N1433 1.279 . S
C1436 C1435 1.358 . S
C1436 H1439 0.930 . S
C1437 C1434 1.348 . S
C1437 C1435 1.356 . S
H1438 C1432 0.930 . S
H1439 C1436 0.930 . S
C1440 C1442 1.348 . S
C1440 C1443 1.356 . S
C1440 O1470 1.325 . S
N1441 C1444 1.314 . S
N1441 C1445 1.279 . S
C1442 C1440 1.348 . S
C1442 C1444 1.353 . S
C1442 H1484 0.929 . S
C1443 C1440 1.356 . S
C1443 C1445 1.358 . S
C1443 H1485 0.930 . S
C1444 N1441 1.314 . S
C1444 C1442 1.353 . S
C1444 H1486 0.930 1_545 S
C1445 N1441 1.279 . S
C1445 C1443 1.358 . S
C1445 H1487 0.930 . S
C1446 C1447 1.348 . S
C1446 C1448 1.356 . S
C1446 O1471 1.325 . S
C1447 C1446 1.348 . S
C1447 C1449 1.353 . S
C1447 H1488 0.929 . S
C1448 C1446 1.356 . S
C1448 C1450 1.358 . S
C1448 H1489 0.930 . S
C1449 C1447 1.353 . S
C1449 N1451 1.314 . S
C1449 H1490 0.930 . S
C1450 C1448 1.358 . S
C1450 N1451 1.279 . S
C1450 H1491 0.930 . S
N1451 C1449 1.314 . S
N1451 C1450 1.279 . S
C1452 C1454 1.353 . S
C1452 N1455 1.314 . S
C1452 H1458 0.930 . S
C1453 N1455 1.279 . S
C1453 C1456 1.358 . S
C1453 H1459 0.930 . S
C1454 C1452 1.353 . S
C1454 C1457 1.348 . S
C1454 H1492 0.929 . S
N1455 Li1410 1.990 . S
N1455 C1452 1.314 . S
N1455 C1453 1.279 . S
C1456 C1453 1.358 . S
C1456 C1457 1.356 . S
C1456 H1493 0.930 . S
C1457 C1454 1.348 . S
C1457 C1456 1.356 . S
H1458 C1452 0.930 . S
H1459 C1453 0.930 . S
C1460 N1461 1.314 . S
C1460 C1462 1.353 . S
C1460 H1466 0.930 . S
N1461 Li1411 1.990 1_565 S
N1461 C1460 1.314 . S
N1461 C1464 1.279 . S
C1462 C1460 1.353 . S
C1462 C1465 1.348 . S
C1462 H1494 0.929 . S
C1463 C1464 1.358 . S
C1463 C1465 1.356 . S
C1463 H1495 0.930 . S
C1464 N1461 1.279 . S
C1464 C1463 1.358 . S
C1464 H1467 0.930 1_565 S
C1465 C1462 1.348 . S
C1465 C1463 1.356 . S
H1466 C1460 0.930 . S
H1467 C1464 0.930 1_545 S
O1468 Li1408 1.956 . S
O1468 Li1409 1.970 . S
O1468 Li1410 1.961 . S
O1468 C1412 1.325 . S
O1469 Li1408 1.970 . S
O1469 Li1409 1.956 . S
O1469 Li1411 1.961 . S
O1469 C1418 1.325 . S
O1470 Li1408 1.961 . S
O1470 Li1410 1.956 . S
O1470 Li1411 1.970 . S
O1470 C1440 1.325 . S
O1471 Li1409 1.961 . S
O1471 Li1410 1.970 . S
O1471 Li1411 1.956 . S
O1471 C1446 1.325 . S
H1472 C1414 0.929 . S
H1473 C1415 0.930 . S
H1474 C1416 0.930 . S
H1475 C1417 0.930 . S
H1476 C1419 0.930 . S
H1477 C1421 0.929 . S
H1478 C1422 0.930 . S
H1479 C1423 0.930 . S
H1480 C1426 0.930 . S
H1481 C1429 0.929 . S
H1482 C1434 0.929 . S
H1483 C1435 0.930 . S
H1484 C1442 0.929 . S
H1485 C1443 0.930 . S
H1486 C1444 0.930 1_565 S
H1487 C1445 0.930 . S
H1488 C1447 0.929 . S
H1489 C1448 0.930 . S
H1490 C1449 0.930 . S
H1491 C1450 0.930 . S
H1492 C1454 0.929 . S
H1493 C1456 0.930 . S
H1494 C1462 0.929 . S
H1495 C1463 0.930 . S
Li1496 N1513 1.990 . S
Li1496 O1556 1.956 . S
Li1496 O1557 1.970 . S
Li1496 O1558 1.961 . S
Li1497 N1521 1.990 . S
Li1497 O1556 1.970 . S
Li1497 O1557 1.956 . S
Li1497 O1559 1.961 . S
Li1498 N1543 1.990 1_655 S
Li1498 O1556 1.961 . S
Li1498 O1558 1.956 . S
Li1498 O1559 1.970 . S
Li1499 N1549 1.990 . S
Li1499 O1557 1.961 . S
Li1499 O1558 1.970 . S
Li1499 O1559 1.956 . S
C1500 C1502 1.348 . S
C1500 C1503 1.356 . S
C1500 O1556 1.325 . S
N1501 C1504 1.314 1_455 S
N1501 C1505 1.279 . S
C1502 C1500 1.348 . S
C1502 C1504 1.353 . S
C1502 H1560 0.929 . S
C1503 C1500 1.356 . S
C1503 C1505 1.358 1_655 S
C1503 H1561 0.930 . S
C1504 N1501 1.314 1_655 S
C1504 C1502 1.353 . S
C1504 H1562 0.930 . S
C1505 N1501 1.279 . S
C1505 C1503 1.358 1_455 S
C1505 H1563 0.930 . S
C1506 C1509 1.348 . S
C1506 C1510 1.356 . S
C1506 O1557 1.325 . S
C1507 N1508 1.279 . S
C1507 C1510 1.358 . S
C1507 H1564 0.930 . S
N1508 C1507 1.279 . S
N1508 C1511 1.314 . S
C1509 C1506 1.348 . S
C1509 C1511 1.353 . S
C1509 H1565 0.929 . S
C1510 C1506 1.356 . S
C1510 C1507 1.358 . S
C1510 H1566 0.930 . S
C1511 N1508 1.314 . S
C1511 C1509 1.353 . S
C1511 H1567 0.930 . S
C1512 N1513 1.314 . S
C1512 C1517 1.353 . S
C1512 H1518 0.930 . S
N1513 Li1496 1.990 . S
N1513 C1512 1.314 . S
N1513 C1515 1.279 . S
C1514 C1515 1.358 . S
C1514 C1516 1.356 . S
C1514 H1568 0.930 . S
C1515 N1513 1.279 . S
C1515 C1514 1.358 . S
C1515 H1519 0.930 . S
C1516 C1514 1.356 . S
C1516 C1517 1.348 . S
C1517 C1512 1.353 . S
C1517 C1516 1.348 . S
C1517 H1569 0.929 . S
H1518 C1512 0.930 . S
H1519 C1515 0.930 . S
C1520 N1521 1.314 . S
C1520 C1522 1.353 . S
C1520 H1526 0.930 . S
N1521 Li1497 1.990 . S
N1521 C1520 1.314 . S
N1521 C1524 1.279 . S
C1522 C1520 1.353 . S
C1522 C1525 1.348 . S
C1522 H1570 0.929 . S
C1523 C1524 1.358 . S
C1523 C1525 1.356 . S
C1523 H1571 0.930 . S
C1524 N1521 1.279 . S
C1524 C1523 1.358 . S
C1524 H1527 0.930 . S
C1525 C1522 1.348 . S
C1525 C1523 1.356 . S
H1526 C1520 0.930 . S
H1527 C1524 0.930 . S
C1528 C1530 1.348 . S
C1528 C1531 1.356 . S
C1528 O1558 1.325 . S
N1529 C1532 1.314 . S
N1529 C1533 1.279 . S
C1530 C1528 1.348 . S
C1530 C1532 1.353 . S
C1530 H1572 0.929 . S
C1531 C1528 1.356 . S
C1531 C1533 1.358 . S
C1531 H1573 0.930 . S
C1532 N1529 1.314 . S
C1532 C1530 1.353 . S
C1532 H1574 0.930 . S
C1533 N1529 1.279 . S
C1533 C1531 1.358 . S
C1533 H1575 0.930 . S
C1534 C1535 1.348 . S
C1534 C1536 1.356 . S
C1534 O1559 1.325 . S
C1535 C1534 1.348 . S
C1535 C1537 1.353 . S
C1535 H1576 0.929 . S
C1536 C1534 1.356 . S
C1536 C1538 1.358 . S
C1536 H1577 0.930 . S
C1537 C1535 1.353 . S
C1537 N1539 1.314 . S
C1537 H1578 0.930 1_655 S
C1538 C1536 1.358 . S
C1538 N1539 1.279 . S
C1538 H1579 0.930 . S
N1539 C1537 1.314 . S
N1539 C1538 1.279 . S
C1540 C1542 1.353 . S
C1540 N1543 1.314 . S
C1540 H1546 0.930 . S
C1541 N1543 1.279 . S
C1541 C1544 1.358 . S
C1541 H1547 0.930 1_455 S
C1542 C1540 1.353 . S
C1542 C1545 1.348 . S
C1542 H1580 0.929 . S
N1543 Li1498 1.990 1_455 S
N1543 C1540 1.314 . S
N1543 C1541 1.279 . S
C1544 C1541 1.358 . S
C1544 C1545 1.356 . S
C1544 H1581 0.930 . S
C1545 C1542 1.348 . S
C1545 C1544 1.356 . S
H1546 C1540 0.930 . S
H1547 C1541 0.930 1_655 S
C1548 N1549 1.314 . S
C1548 C1550 1.353 . S
C1548 H1554 0.930 . S
N1549 Li1499 1.990 . S
N1549 C1548 1.314 . S
N1549 C1552 1.279 . S
C1550 C1548 1.353 . S
C1550 C1553 1.348 . S
C1550 H1582 0.929 . S
C1551 C1552 1.358 . S
C1551 C1553 1.356 . S
C1551 H1583 0.930 . S
C1552 N1549 1.279 . S
C1552 C1551 1.358 . S
C1552 H1555 0.930 . S
C1553 C1550 1.348 . S
C1553 C1551 1.356 . S
H1554 C1548 0.930 . S
H1555 C1552 0.930 . S
O1556 Li1496 1.956 . S
O1556 Li1497 1.970 . S
O1556 Li1498 1.961 . S
O1556 C1500 1.325 . S
O1557 Li1496 1.970 . S
O1557 Li1497 1.956 . S
O1557 Li1499 1.961 . S
O1557 C1506 1.325 . S
O1558 Li1496 1.961 . S
O1558 Li1498 1.956 . S
O1558 Li1499 1.970 . S
O1558 C1528 1.325 . S
O1559 Li1497 1.961 . S
O1559 Li1498 1.970 . S
O1559 Li1499 1.956 . S
O1559 C1534 1.325 . S
H1560 C1502 0.929 . S
H1561 C1503 0.930 . S
H1562 C1504 0.930 . S
H1563 C1505 0.930 . S
H1564 C1507 0.930 . S
H1565 C1509 0.929 . S
H1566 C1510 0.930 . S
H1567 C1511 0.930 . S
H1568 C1514 0.930 . S
H1569 C1517 0.929 . S
H1570 C1522 0.929 . S
H1571 C1523 0.930 . S
H1572 C1530 0.929 . S
H1573 C1531 0.930 . S
H1574 C1532 0.930 . S
H1575 C1533 0.930 . S
H1576 C1535 0.929 . S
H1577 C1536 0.930 . S
H1578 C1537 0.930 1_455 S
H1579 C1538 0.930 . S
H1580 C1542 0.929 . S
H1581 C1544 0.930 . S
H1582 C1550 0.929 . S
H1583 C1551 0.930 . S
H1584 C1611 0.929 . S
N1585 C1610 1.433 . S
N1585 C1616 1.435 . S
N1585 C1622 1.423 . S
H1586 C1612 0.930 . S
H1587 C1615 0.931 . S
H1588 C1614 0.929 . S
H1589 C1617 0.930 . S
H1590 C1618 0.932 . S
H1591 C1621 0.929 . S
H1592 C1620 0.931 . S
H1593 C1623 0.929 . S
H1594 C1627 0.932 . S
H1595 C1624 0.931 . S
H1596 C1626 0.929 . S
H1597 C1629 0.929 . S
H1598 C1630 0.930 . S
H1599 C1632 0.929 . S
H1600 C1633 0.931 . S
H1601 C1635 0.930 . S
H1602 C1636 0.932 . S
H1603 C1638 0.931 . S
H1604 C1639 0.929 . S
H1605 C1641 0.929 . S
H1606 C1642 0.931 . S
H1607 C1644 0.929 . S
N1608 C1628 1.433 . S
N1608 C1634 1.435 . S
N1608 C1640 1.423 . S
H1609 C1645 0.932 . S
C1610 N1585 1.433 . S
C1610 C1611 1.363 . S
C1610 C1615 1.370 . S
C1611 H1584 0.929 . S
C1611 C1610 1.363 . S
C1611 C1612 1.385 . S
C1612 H1586 0.930 . S
C1612 C1611 1.385 . S
C1612 C1613 1.357 . S
C1613 C1612 1.357 . S
C1613 C1614 1.406 . S
C1614 H1588 0.929 . S
C1614 C1613 1.406 . S
C1614 C1615 1.391 . S
C1615 H1587 0.931 . S
C1615 C1610 1.370 . S
C1615 C1614 1.391 . S
C1616 N1585 1.435 . S
C1616 C1617 1.358 . S
C1616 C1621 1.371 . S
C1617 H1589 0.930 . S
C1617 C1616 1.358 . S
C1617 C1618 1.405 . S
C1618 H1590 0.932 . S
C1618 C1617 1.405 . S
C1618 C1619 1.383 . S
C1619 C1618 1.383 . S
C1619 C1620 1.393 . S
C1620 H1592 0.931 . S
C1620 C1619 1.393 . S
C1620 C1621 1.382 . S
C1621 H1591 0.929 . S
C1621 C1616 1.371 . S
C1621 C1620 1.382 . S
C1622 N1585 1.423 . S
C1622 C1623 1.362 . S
C1622 C1627 1.388 . S
C1623 H1593 0.929 . S
C1623 C1622 1.362 . S
C1623 C1624 1.376 . S
C1624 H1595 0.931 . S
C1624 C1623 1.376 . S
C1624 C1625 1.396 . S
C1625 C1624 1.396 . S
C1625 C1626 1.348 . S
C1625 C1643 1.472 . S
C1626 H1596 0.929 . S
C1626 C1625 1.348 . S
C1626 C1627 1.443 . S
C1627 H1594 0.932 . S
C1627 C1622 1.388 . S
C1627 C1626 1.443 . S
C1628 N1608 1.433 . S
C1628 C1629 1.363 . S
C1628 C1633 1.370 . S
C1629 H1597 0.929 . S
C1629 C1628 1.363 . S
C1629 C1630 1.385 . S
C1630 H1598 0.930 . S
C1630 C1629 1.385 . S
C1630 C1631 1.357 . S
C1631 C1630 1.357 . S
C1631 C1632 1.406 . S
C1632 H1599 0.929 . S
C1632 C1631 1.406 . S
C1632 C1633 1.391 . S
C1633 H1600 0.931 . S
C1633 C1628 1.370 . S
C1633 C1632 1.391 . S
C1634 N1608 1.435 . S
C1634 C1635 1.358 . S
C1634 C1639 1.371 . S
C1635 H1601 0.930 . S
C1635 C1634 1.358 . S
C1635 C1636 1.405 . S
C1636 H1602 0.932 . S
C1636 C1635 1.405 . S
C1636 C1637 1.383 . S
C1637 C1636 1.383 . S
C1637 C1638 1.393 . S
C1638 H1603 0.931 . S
C1638 C1637 1.393 . S
C1638 C1639 1.382 . S
C1639 H1604 0.929 . S
C1639 C1634 1.371 . S
C1639 C1638 1.382 . S
C1640 N1608 1.423 . S
C1640 C1641 1.362 . S
C1640 C1645 1.388 . S
C1641 H1605 0.929 . S
C1641 C1640 1.362 . S
C1641 C1642 1.376 . S
C1642 H1606 0.931 . S
C1642 C1641 1.376 . S
C1642 C1643 1.396 . S
C1643 C1625 1.472 . S
C1643 C1642 1.396 . S
C1643 C1644 1.348 . S
C1644 H1607 0.929 . S
C1644 C1643 1.348 . S
C1644 C1645 1.443 . S
C1645 H1609 0.932 . S
C1645 C1640 1.388 . S
C1645 C1644 1.443 . S
H1646 C1673 0.929 . S
N1647 C1672 1.433 . S
N1647 C1678 1.435 . S
N1647 C1684 1.423 . S
H1648 C1674 0.930 . S
H1649 C1677 0.931 . S
H1650 C1676 0.929 . S
H1651 C1679 0.930 . S
H1652 C1680 0.932 . S
H1653 C1683 0.929 . S
H1654 C1682 0.931 . S
H1655 C1685 0.929 . S
H1656 C1689 0.932 . S
H1657 C1686 0.931 . S
H1658 C1688 0.929 . S
H1659 C1691 0.929 . S
H1660 C1692 0.930 . S
H1661 C1694 0.929 . S
H1662 C1695 0.931 . S
H1663 C1697 0.930 . S
H1664 C1698 0.932 . S
H1665 C1700 0.931 . S
H1666 C1701 0.929 . S
H1667 C1703 0.929 . S
H1668 C1704 0.931 . S
H1669 C1706 0.929 . S
N1670 C1690 1.433 . S
N1670 C1696 1.435 . S
N1670 C1702 1.423 . S
H1671 C1707 0.932 . S
C1672 N1647 1.433 . S
C1672 C1673 1.363 . S
C1672 C1677 1.370 . S
C1673 H1646 0.929 . S
C1673 C1672 1.363 . S
C1673 C1674 1.385 . S
C1674 H1648 0.930 . S
C1674 C1673 1.385 . S
C1674 C1675 1.357 . S
C1675 C1674 1.357 . S
C1675 C1676 1.406 . S
C1676 H1650 0.929 . S
C1676 C1675 1.406 . S
C1676 C1677 1.391 . S
C1677 H1649 0.931 . S
C1677 C1672 1.370 . S
C1677 C1676 1.391 . S
C1678 N1647 1.435 . S
C1678 C1679 1.358 . S
C1678 C1683 1.371 . S
C1679 H1651 0.930 . S
C1679 C1678 1.358 . S
C1679 C1680 1.405 . S
C1680 H1652 0.932 . S
C1680 C1679 1.405 . S
C1680 C1681 1.383 . S
C1681 C1680 1.383 . S
C1681 C1682 1.393 . S
C1682 H1654 0.931 . S
C1682 C1681 1.393 . S
C1682 C1683 1.382 . S
C1683 H1653 0.929 . S
C1683 C1678 1.371 . S
C1683 C1682 1.382 . S
C1684 N1647 1.423 . S
C1684 C1685 1.362 . S
C1684 C1689 1.388 . S
C1685 H1655 0.929 . S
C1685 C1684 1.362 . S
C1685 C1686 1.376 . S
C1686 H1657 0.931 . S
C1686 C1685 1.376 . S
C1686 C1687 1.396 . S
C1687 C1686 1.396 . S
C1687 C1688 1.348 . S
C1687 C1705 1.472 . S
C1688 H1658 0.929 . S
C1688 C1687 1.348 . S
C1688 C1689 1.443 . S
C1689 H1656 0.932 . S
C1689 C1684 1.388 . S
C1689 C1688 1.443 . S
C1690 N1670 1.433 . S
C1690 C1691 1.363 . S
C1690 C1695 1.370 . S
C1691 H1659 0.929 . S
C1691 C1690 1.363 . S
C1691 C1692 1.385 . S
C1692 H1660 0.930 . S
C1692 C1691 1.385 . S
C1692 C1693 1.357 . S
C1693 C1692 1.357 . S
C1693 C1694 1.406 . S
C1694 H1661 0.929 . S
C1694 C1693 1.406 . S
C1694 C1695 1.391 . S
C1695 H1662 0.931 . S
C1695 C1690 1.370 . S
C1695 C1694 1.391 . S
C1696 N1670 1.435 . S
C1696 C1697 1.358 . S
C1696 C1701 1.371 . S
C1697 H1663 0.930 . S
C1697 C1696 1.358 . S
C1697 C1698 1.405 . S
C1698 H1664 0.932 . S
C1698 C1697 1.405 . S
C1698 C1699 1.383 . S
C1699 C1698 1.383 . S
C1699 C1700 1.393 . S
C1700 H1665 0.931 . S
C1700 C1699 1.393 . S
C1700 C1701 1.382 . S
C1701 H1666 0.929 . S
C1701 C1696 1.371 . S
C1701 C1700 1.382 . S
C1702 N1670 1.423 . S
C1702 C1703 1.362 . S
C1702 C1707 1.388 . S
C1703 H1667 0.929 . S
C1703 C1702 1.362 . S
C1703 C1704 1.376 . S
C1704 H1668 0.931 . S
C1704 C1703 1.376 . S
C1704 C1705 1.396 . S
C1705 C1687 1.472 . S
C1705 C1704 1.396 . S
C1705 C1706 1.348 . S
C1706 H1669 0.929 . S
C1706 C1705 1.348 . S
C1706 C1707 1.443 . S
C1707 H1671 0.932 . S
C1707 C1702 1.388 . S
C1707 C1706 1.443 . S
H1708 C1735 0.929 . S
N1709 C1734 1.433 . S
N1709 C1740 1.435 . S
N1709 C1746 1.423 . S
H1710 C1736 0.930 . S
H1711 C1739 0.931 . S
H1712 C1738 0.929 . S
H1713 C1741 0.930 . S
H1714 C1742 0.932 . S
H1715 C1745 0.929 . S
H1716 C1744 0.931 . S
H1717 C1747 0.929 . S
H1718 C1751 0.932 . S
H1719 C1748 0.931 . S
H1720 C1750 0.929 . S
H1721 C1753 0.929 . S
H1722 C1754 0.930 . S
H1723 C1756 0.929 . S
H1724 C1757 0.931 . S
H1725 C1759 0.930 . S
H1726 C1760 0.932 . S
H1727 C1762 0.931 . S
H1728 C1763 0.929 . S
H1729 C1765 0.929 . S
H1730 C1766 0.931 . S
H1731 C1768 0.929 . S
N1732 C1752 1.433 . S
N1732 C1758 1.435 . S
N1732 C1764 1.423 . S
H1733 C1769 0.932 . S
C1734 N1709 1.433 . S
C1734 C1735 1.363 . S
C1734 C1739 1.370 . S
C1735 H1708 0.929 . S
C1735 C1734 1.363 . S
C1735 C1736 1.385 . S
C1736 H1710 0.930 . S
C1736 C1735 1.385 . S
C1736 C1737 1.357 . S
C1737 C1736 1.357 . S
C1737 C1738 1.406 . S
C1738 H1712 0.929 . S
C1738 C1737 1.406 . S
C1738 C1739 1.391 . S
C1739 H1711 0.931 . S
C1739 C1734 1.370 . S
C1739 C1738 1.391 . S
C1740 N1709 1.435 . S
C1740 C1741 1.358 . S
C1740 C1745 1.371 . S
C1741 H1713 0.930 . S
C1741 C1740 1.358 . S
C1741 C1742 1.405 . S
C1742 H1714 0.932 . S
C1742 C1741 1.405 . S
C1742 C1743 1.383 . S
C1743 C1742 1.383 . S
C1743 C1744 1.393 . S
C1744 H1716 0.931 . S
C1744 C1743 1.393 . S
C1744 C1745 1.382 . S
C1745 H1715 0.929 . S
C1745 C1740 1.371 . S
C1745 C1744 1.382 . S
C1746 N1709 1.423 . S
C1746 C1747 1.362 . S
C1746 C1751 1.388 . S
C1747 H1717 0.929 . S
C1747 C1746 1.362 . S
C1747 C1748 1.376 . S
C1748 H1719 0.931 . S
C1748 C1747 1.376 . S
C1748 C1749 1.396 . S
C1749 C1748 1.396 . S
C1749 C1750 1.348 . S
C1749 C1767 1.472 . S
C1750 H1720 0.929 . S
C1750 C1749 1.348 . S
C1750 C1751 1.443 . S
C1751 H1718 0.932 . S
C1751 C1746 1.388 . S
C1751 C1750 1.443 . S
C1752 N1732 1.433 . S
C1752 C1753 1.363 . S
C1752 C1757 1.370 . S
C1753 H1721 0.929 . S
C1753 C1752 1.363 . S
C1753 C1754 1.385 . S
C1754 H1722 0.930 . S
C1754 C1753 1.385 . S
C1754 C1755 1.357 . S
C1755 C1754 1.357 . S
C1755 C1756 1.406 . S
C1756 H1723 0.929 . S
C1756 C1755 1.406 . S
C1756 C1757 1.391 . S
C1757 H1724 0.931 . S
C1757 C1752 1.370 . S
C1757 C1756 1.391 . S
C1758 N1732 1.435 . S
C1758 C1759 1.358 . S
C1758 C1763 1.371 . S
C1759 H1725 0.930 . S
C1759 C1758 1.358 . S
C1759 C1760 1.405 . S
C1760 H1726 0.932 . S
C1760 C1759 1.405 . S
C1760 C1761 1.383 . S
C1761 C1760 1.383 . S
C1761 C1762 1.393 . S
C1762 H1727 0.931 . S
C1762 C1761 1.393 . S
C1762 C1763 1.382 . S
C1763 H1728 0.929 . S
C1763 C1758 1.371 . S
C1763 C1762 1.382 . S
C1764 N1732 1.423 . S
C1764 C1765 1.362 . S
C1764 C1769 1.388 . S
C1765 H1729 0.929 . S
C1765 C1764 1.362 . S
C1765 C1766 1.376 . S
C1766 H1730 0.931 . S
C1766 C1765 1.376 . S
C1766 C1767 1.396 . S
C1767 C1749 1.472 . S
C1767 C1766 1.396 . S
C1767 C1768 1.348 . S
C1768 H1731 0.929 . S
C1768 C1767 1.348 . S
C1768 C1769 1.443 . S
C1769 H1733 0.932 . S
C1769 C1764 1.388 . S
C1769 C1768 1.443 . S
H1770 C1797 0.929 . S
N1771 C1796 1.433 . S
N1771 C1802 1.435 . S
N1771 C1808 1.423 . S
H1772 C1798 0.930 . S
H1773 C1801 0.931 . S
H1774 C1800 0.929 . S
H1775 C1803 0.930 . S
H1776 C1804 0.932 . S
H1777 C1807 0.929 . S
H1778 C1806 0.931 . S
H1779 C1809 0.929 . S
H1780 C1813 0.932 . S
H1781 C1810 0.931 . S
H1782 C1812 0.929 . S
H1783 C1815 0.929 . S
H1784 C1816 0.930 . S
H1785 C1818 0.929 . S
H1786 C1819 0.931 . S
H1787 C1821 0.930 . S
H1788 C1822 0.932 . S
H1789 C1824 0.931 . S
H1790 C1825 0.929 . S
H1791 C1827 0.929 . S
H1792 C1828 0.931 . S
H1793 C1830 0.929 . S
N1794 C1814 1.433 . S
N1794 C1820 1.435 . S
N1794 C1826 1.423 . S
H1795 C1831 0.932 . S
C1796 N1771 1.433 . S
C1796 C1797 1.363 . S
C1796 C1801 1.370 . S
C1797 H1770 0.929 . S
C1797 C1796 1.363 . S
C1797 C1798 1.385 . S
C1798 H1772 0.930 . S
C1798 C1797 1.385 . S
C1798 C1799 1.357 . S
C1799 C1798 1.357 . S
C1799 C1800 1.406 . S
C1800 H1774 0.929 . S
C1800 C1799 1.406 . S
C1800 C1801 1.391 . S
C1801 H1773 0.931 . S
C1801 C1796 1.370 . S
C1801 C1800 1.391 . S
C1802 N1771 1.435 . S
C1802 C1803 1.358 . S
C1802 C1807 1.371 . S
C1803 H1775 0.930 . S
C1803 C1802 1.358 . S
C1803 C1804 1.405 . S
C1804 H1776 0.932 . S
C1804 C1803 1.405 . S
C1804 C1805 1.383 . S
C1805 C1804 1.383 . S
C1805 C1806 1.393 . S
C1806 H1778 0.931 . S
C1806 C1805 1.393 . S
C1806 C1807 1.382 . S
C1807 H1777 0.929 . S
C1807 C1802 1.371 . S
C1807 C1806 1.382 . S
C1808 N1771 1.423 . S
C1808 C1809 1.362 . S
C1808 C1813 1.388 . S
C1809 H1779 0.929 . S
C1809 C1808 1.362 . S
C1809 C1810 1.376 . S
C1810 H1781 0.931 . S
C1810 C1809 1.376 . S
C1810 C1811 1.396 . S
C1811 C1810 1.396 . S
C1811 C1812 1.348 . S
C1811 C1829 1.472 . S
C1812 H1782 0.929 . S
C1812 C1811 1.348 . S
C1812 C1813 1.443 . S
C1813 H1780 0.932 . S
C1813 C1808 1.388 . S
C1813 C1812 1.443 . S
C1814 N1794 1.433 . S
C1814 C1815 1.363 . S
C1814 C1819 1.370 . S
C1815 H1783 0.929 . S
C1815 C1814 1.363 . S
C1815 C1816 1.385 . S
C1816 H1784 0.930 . S
C1816 C1815 1.385 . S
C1816 C1817 1.357 . S
C1817 C1816 1.357 . S
C1817 C1818 1.406 . S
C1818 H1785 0.929 . S
C1818 C1817 1.406 . S
C1818 C1819 1.391 . S
C1819 H1786 0.931 . S
C1819 C1814 1.370 . S
C1819 C1818 1.391 . S
C1820 N1794 1.435 . S
C1820 C1821 1.358 . S
C1820 C1825 1.371 . S
C1821 H1787 0.930 . S
C1821 C1820 1.358 . S
C1821 C1822 1.405 . S
C1822 H1788 0.932 . S
C1822 C1821 1.405 . S
C1822 C1823 1.383 . S
C1823 C1822 1.383 . S
C1823 C1824 1.393 . S
C1824 H1789 0.931 . S
C1824 C1823 1.393 . S
C1824 C1825 1.382 . S
C1825 H1790 0.929 . S
C1825 C1820 1.371 . S
C1825 C1824 1.382 . S
C1826 N1794 1.423 . S
C1826 C1827 1.362 . S
C1826 C1831 1.388 . S
C1827 H1791 0.929 . S
C1827 C1826 1.362 . S
C1827 C1828 1.376 . S
C1828 H1792 0.931 . S
C1828 C1827 1.376 . S
C1828 C1829 1.396 . S
C1829 C1811 1.472 . S
C1829 C1828 1.396 . S
C1829 C1830 1.348 . S
C1830 H1793 0.929 . S
C1830 C1829 1.348 . S
C1830 C1831 1.443 . S
C1831 H1795 0.932 . S
C1831 C1826 1.388 . S
C1831 C1830 1.443 . S
H1832 C1859 0.929 . S
N1833 C1858 1.433 . S
N1833 C1864 1.435 . S
N1833 C1870 1.423 . S
H1834 C1860 0.930 . S
H1835 C1863 0.931 . S
H1836 C1862 0.929 . S
H1837 C1865 0.930 . S
H1838 C1866 0.932 . S
H1839 C1869 0.929 . S
H1840 C1868 0.931 . S
H1841 C1871 0.929 . S
H1842 C1875 0.932 . S
H1843 C1872 0.931 . S
H1844 C1874 0.929 . S
H1845 C1877 0.929 . S
H1846 C1878 0.930 . S
H1847 C1880 0.929 . S
H1848 C1881 0.931 . S
H1849 C1883 0.930 . S
H1850 C1884 0.932 . S
H1851 C1886 0.931 . S
H1852 C1887 0.929 . S
H1853 C1889 0.929 . S
H1854 C1890 0.931 . S
H1855 C1892 0.929 . S
N1856 C1876 1.433 . S
N1856 C1882 1.435 . S
N1856 C1888 1.423 . S
H1857 C1893 0.932 . S
C1858 N1833 1.433 . S
C1858 C1859 1.363 . S
C1858 C1863 1.370 . S
C1859 H1832 0.929 . S
C1859 C1858 1.363 . S
C1859 C1860 1.385 . S
C1860 H1834 0.930 . S
C1860 C1859 1.385 . S
C1860 C1861 1.357 . S
C1861 C1860 1.357 . S
C1861 C1862 1.406 . S
C1862 H1836 0.929 . S
C1862 C1861 1.406 . S
C1862 C1863 1.391 . S
C1863 H1835 0.931 . S
C1863 C1858 1.370 . S
C1863 C1862 1.391 . S
C1864 N1833 1.435 . S
C1864 C1865 1.358 . S
C1864 C1869 1.371 . S
C1865 H1837 0.930 . S
C1865 C1864 1.358 . S
C1865 C1866 1.405 . S
C1866 H1838 0.932 . S
C1866 C1865 1.405 . S
C1866 C1867 1.383 . S
C1867 C1866 1.383 . S
C1867 C1868 1.393 . S
C1868 H1840 0.931 . S
C1868 C1867 1.393 . S
C1868 C1869 1.382 . S
C1869 H1839 0.929 . S
C1869 C1864 1.371 . S
C1869 C1868 1.382 . S
C1870 N1833 1.423 . S
C1870 C1871 1.362 . S
C1870 C1875 1.388 . S
C1871 H1841 0.929 . S
C1871 C1870 1.362 . S
C1871 C1872 1.376 . S
C1872 H1843 0.931 . S
C1872 C1871 1.376 . S
C1872 C1873 1.396 . S
C1873 C1872 1.396 . S
C1873 C1874 1.348 . S
C1873 C1891 1.472 . S
C1874 H1844 0.929 . S
C1874 C1873 1.348 . S
C1874 C1875 1.443 . S
C1875 H1842 0.932 . S
C1875 C1870 1.388 . S
C1875 C1874 1.443 . S
C1876 N1856 1.433 . S
C1876 C1877 1.363 . S
C1876 C1881 1.370 . S
C1877 H1845 0.929 . S
C1877 C1876 1.363 . S
C1877 C1878 1.385 . S
C1878 H1846 0.930 . S
C1878 C1877 1.385 . S
C1878 C1879 1.357 . S
C1879 C1878 1.357 . S
C1879 C1880 1.406 . S
C1880 H1847 0.929 . S
C1880 C1879 1.406 . S
C1880 C1881 1.391 . S
C1881 H1848 0.931 . S
C1881 C1876 1.370 . S
C1881 C1880 1.391 . S
C1882 N1856 1.435 . S
C1882 C1883 1.358 . S
C1882 C1887 1.371 . S
C1883 H1849 0.930 . S
C1883 C1882 1.358 . S
C1883 C1884 1.405 . S
C1884 H1850 0.932 . S
C1884 C1883 1.405 . S
C1884 C1885 1.383 . S
C1885 C1884 1.383 . S
C1885 C1886 1.393 . S
C1886 H1851 0.931 . S
C1886 C1885 1.393 . S
C1886 C1887 1.382 . S
C1887 H1852 0.929 . S
C1887 C1882 1.371 . S
C1887 C1886 1.382 . S
C1888 N1856 1.423 . S
C1888 C1889 1.362 . S
C1888 C1893 1.388 . S
C1889 H1853 0.929 . S
C1889 C1888 1.362 . S
C1889 C1890 1.376 . S
C1890 H1854 0.931 . S
C1890 C1889 1.376 . S
C1890 C1891 1.396 . S
C1891 C1873 1.472 . S
C1891 C1890 1.396 . S
C1891 C1892 1.348 . S
C1892 H1855 0.929 . S
C1892 C1891 1.348 . S
C1892 C1893 1.443 . S
C1893 H1857 0.932 . S
C1893 C1888 1.388 . S
C1893 C1892 1.443 . S
H1894 C1921 0.929 . S
N1895 C1920 1.433 . S
N1895 C1926 1.435 . S
N1895 C1932 1.423 . S
H1896 C1922 0.930 . S
H1897 C1925 0.931 . S
H1898 C1924 0.929 . S
H1899 C1927 0.930 . S
H1900 C1928 0.932 . S
H1901 C1931 0.929 . S
H1902 C1930 0.931 . S
H1903 C1933 0.929 . S
H1904 C1937 0.932 . S
H1905 C1934 0.931 . S
H1906 C1936 0.929 . S
H1907 C1939 0.929 . S
H1908 C1940 0.930 . S
H1909 C1942 0.929 . S
H1910 C1943 0.931 . S
H1911 C1945 0.930 . S
H1912 C1946 0.932 . S
H1913 C1948 0.931 . S
H1914 C1949 0.929 . S
H1915 C1951 0.929 . S
H1916 C1952 0.931 . S
H1917 C1954 0.929 . S
N1918 C1938 1.433 . S
N1918 C1944 1.435 . S
N1918 C1950 1.423 . S
H1919 C1955 0.932 . S
C1920 N1895 1.433 . S
C1920 C1921 1.363 . S
C1920 C1925 1.370 . S
C1921 H1894 0.929 . S
C1921 C1920 1.363 . S
C1921 C1922 1.385 . S
C1922 H1896 0.930 . S
C1922 C1921 1.385 . S
C1922 C1923 1.357 . S
C1923 C1922 1.357 . S
C1923 C1924 1.406 . S
C1924 H1898 0.929 . S
C1924 C1923 1.406 . S
C1924 C1925 1.391 . S
C1925 H1897 0.931 . S
C1925 C1920 1.370 . S
C1925 C1924 1.391 . S
C1926 N1895 1.435 . S
C1926 C1927 1.358 . S
C1926 C1931 1.371 . S
C1927 H1899 0.930 . S
C1927 C1926 1.358 . S
C1927 C1928 1.405 . S
C1928 H1900 0.932 . S
C1928 C1927 1.405 . S
C1928 C1929 1.383 . S
C1929 C1928 1.383 . S
C1929 C1930 1.393 . S
C1930 H1902 0.931 . S
C1930 C1929 1.393 . S
C1930 C1931 1.382 . S
C1931 H1901 0.929 . S
C1931 C1926 1.371 . S
C1931 C1930 1.382 . S
C1932 N1895 1.423 . S
C1932 C1933 1.362 . S
C1932 C1937 1.388 . S
C1933 H1903 0.929 . S
C1933 C1932 1.362 . S
C1933 C1934 1.376 . S
C1934 H1905 0.931 . S
C1934 C1933 1.376 . S
C1934 C1935 1.396 . S
C1935 C1934 1.396 . S
C1935 C1936 1.348 . S
C1935 C1953 1.472 . S
C1936 H1906 0.929 . S
C1936 C1935 1.348 . S
C1936 C1937 1.443 . S
C1937 H1904 0.932 . S
C1937 C1932 1.388 . S
C1937 C1936 1.443 . S
C1938 N1918 1.433 . S
C1938 C1939 1.363 . S
C1938 C1943 1.370 . S
C1939 H1907 0.929 . S
C1939 C1938 1.363 . S
C1939 C1940 1.385 . S
C1940 H1908 0.930 . S
C1940 C1939 1.385 . S
C1940 C1941 1.357 . S
C1941 C1940 1.357 . S
C1941 C1942 1.406 . S
C1942 H1909 0.929 . S
C1942 C1941 1.406 . S
C1942 C1943 1.391 . S
C1943 H1910 0.931 . S
C1943 C1938 1.370 . S
C1943 C1942 1.391 . S
C1944 N1918 1.435 . S
C1944 C1945 1.358 . S
C1944 C1949 1.371 . S
C1945 H1911 0.930 . S
C1945 C1944 1.358 . S
C1945 C1946 1.405 . S
C1946 H1912 0.932 . S
C1946 C1945 1.405 . S
C1946 C1947 1.383 . S
C1947 C1946 1.383 . S
C1947 C1948 1.393 . S
C1948 H1913 0.931 . S
C1948 C1947 1.393 . S
C1948 C1949 1.382 . S
C1949 H1914 0.929 . S
C1949 C1944 1.371 . S
C1949 C1948 1.382 . S
C1950 N1918 1.423 . S
C1950 C1951 1.362 . S
C1950 C1955 1.388 . S
C1951 H1915 0.929 . S
C1951 C1950 1.362 . S
C1951 C1952 1.376 . S
C1952 H1916 0.931 . S
C1952 C1951 1.376 . S
C1952 C1953 1.396 . S
C1953 C1935 1.472 . S
C1953 C1952 1.396 . S
C1953 C1954 1.348 . S
C1954 H1917 0.929 . S
C1954 C1953 1.348 . S
C1954 C1955 1.443 . S
C1955 H1919 0.932 . S
C1955 C1950 1.388 . S
C1955 C1954 1.443 . S
H1956 C1983 0.929 . S
N1957 C1982 1.433 . S
N1957 C1988 1.435 . S
N1957 C1994 1.423 . S
H1958 C1984 0.930 . S
H1959 C1987 0.931 . S
H1960 C1986 0.929 . S
H1961 C1989 0.930 . S
H1962 C1990 0.932 . S
H1963 C1993 0.929 . S
H1964 C1992 0.931 . S
H1965 C1995 0.929 . S
H1966 C1999 0.932 . S
H1967 C1996 0.931 . S
H1968 C1998 0.929 . S
H1969 C2001 0.929 . S
H1970 C2002 0.930 . S
H1971 C2004 0.929 . S
H1972 C2005 0.931 . S
H1973 C2007 0.930 . S
H1974 C2008 0.932 . S
H1975 C2010 0.931 . S
H1976 C2011 0.929 . S
H1977 C2013 0.929 . S
H1978 C2014 0.931 . S
H1979 C2016 0.929 . S
N1980 C2000 1.433 . S
N1980 C2006 1.435 . S
N1980 C2012 1.423 . S
H1981 C2017 0.932 . S
C1982 N1957 1.433 . S
C1982 C1983 1.363 . S
C1982 C1987 1.370 . S
C1983 H1956 0.929 . S
C1983 C1982 1.363 . S
C1983 C1984 1.385 . S
C1984 H1958 0.930 . S
C1984 C1983 1.385 . S
C1984 C1985 1.357 . S
C1985 C1984 1.357 . S
C1985 C1986 1.406 . S
C1986 H1960 0.929 . S
C1986 C1985 1.406 . S
C1986 C1987 1.391 . S
C1987 H1959 0.931 . S
C1987 C1982 1.370 . S
C1987 C1986 1.391 . S
C1988 N1957 1.435 . S
C1988 C1989 1.358 . S
C1988 C1993 1.371 . S
C1989 H1961 0.930 . S
C1989 C1988 1.358 . S
C1989 C1990 1.405 . S
C1990 H1962 0.932 . S
C1990 C1989 1.405 . S
C1990 C1991 1.383 . S
C1991 C1990 1.383 . S
C1991 C1992 1.393 . S
C1992 H1964 0.931 . S
C1992 C1991 1.393 . S
C1992 C1993 1.382 . S
C1993 H1963 0.929 . S
C1993 C1988 1.371 . S
C1993 C1992 1.382 . S
C1994 N1957 1.423 . S
C1994 C1995 1.362 . S
C1994 C1999 1.388 . S
C1995 H1965 0.929 . S
C1995 C1994 1.362 . S
C1995 C1996 1.376 . S
C1996 H1967 0.931 . S
C1996 C1995 1.376 . S
C1996 C1997 1.396 . S
C1997 C1996 1.396 . S
C1997 C1998 1.348 . S
C1997 C2015 1.472 . S
C1998 H1968 0.929 . S
C1998 C1997 1.348 . S
C1998 C1999 1.443 . S
C1999 H1966 0.932 . S
C1999 C1994 1.388 . S
C1999 C1998 1.443 . S
C2000 N1980 1.433 . S
C2000 C2001 1.363 . S
C2000 C2005 1.370 . S
C2001 H1969 0.929 . S
C2001 C2000 1.363 . S
C2001 C2002 1.385 . S
C2002 H1970 0.930 . S
C2002 C2001 1.385 . S
C2002 C2003 1.357 . S
C2003 C2002 1.357 . S
C2003 C2004 1.406 . S
C2004 H1971 0.929 . S
C2004 C2003 1.406 . S
C2004 C2005 1.391 . S
C2005 H1972 0.931 . S
C2005 C2000 1.370 . S
C2005 C2004 1.391 . S
C2006 N1980 1.435 . S
C2006 C2007 1.358 . S
C2006 C2011 1.371 . S
C2007 H1973 0.930 . S
C2007 C2006 1.358 . S
C2007 C2008 1.405 . S
C2008 H1974 0.932 . S
C2008 C2007 1.405 . S
C2008 C2009 1.383 . S
C2009 C2008 1.383 . S
C2009 C2010 1.393 . S
C2010 H1975 0.931 . S
C2010 C2009 1.393 . S
C2010 C2011 1.382 . S
C2011 H1976 0.929 . S
C2011 C2006 1.371 . S
C2011 C2010 1.382 . S
C2012 N1980 1.423 . S
C2012 C2013 1.362 . S
C2012 C2017 1.388 . S
C2013 H1977 0.929 . S
C2013 C2012 1.362 . S
C2013 C2014 1.376 . S
C2014 H1978 0.931 . S
C2014 C2013 1.376 . S
C2014 C2015 1.396 . S
C2015 C1997 1.472 . S
C2015 C2014 1.396 . S
C2015 C2016 1.348 . S
C2016 H1979 0.929 . S
C2016 C2015 1.348 . S
C2016 C2017 1.443 . S
C2017 H1981 0.932 . S
C2017 C2012 1.388 . S
C2017 C2016 1.443 . S
H2018 C2045 0.929 . S
N2019 C2044 1.433 . S
N2019 C2050 1.435 . S
N2019 C2056 1.423 . S
H2020 C2046 0.930 . S
H2021 C2049 0.931 . S
H2022 C2048 0.929 . S
H2023 C2051 0.930 . S
H2024 C2052 0.932 . S
H2025 C2055 0.929 . S
H2026 C2054 0.931 . S
H2027 C2057 0.929 . S
H2028 C2061 0.932 . S
H2029 C2058 0.931 . S
H2030 C2060 0.929 . S
H2031 C2063 0.929 . S
H2032 C2064 0.930 . S
H2033 C2066 0.929 . S
H2034 C2067 0.931 . S
H2035 C2069 0.930 . S
H2036 C2070 0.932 . S
H2037 C2072 0.931 . S
H2038 C2073 0.929 . S
H2039 C2075 0.929 . S
H2040 C2076 0.931 . S
H2041 C2078 0.929 . S
N2042 C2062 1.433 . S
N2042 C2068 1.435 . S
N2042 C2074 1.423 . S
H2043 C2079 0.932 . S
C2044 N2019 1.433 . S
C2044 C2045 1.363 . S
C2044 C2049 1.370 . S
C2045 H2018 0.929 . S
C2045 C2044 1.363 . S
C2045 C2046 1.385 . S
C2046 H2020 0.930 . S
C2046 C2045 1.385 . S
C2046 C2047 1.357 . S
C2047 C2046 1.357 . S
C2047 C2048 1.406 . S
C2048 H2022 0.929 . S
C2048 C2047 1.406 . S
C2048 C2049 1.391 . S
C2049 H2021 0.931 . S
C2049 C2044 1.370 . S
C2049 C2048 1.391 . S
C2050 N2019 1.435 . S
C2050 C2051 1.358 . S
C2050 C2055 1.371 . S
C2051 H2023 0.930 . S
C2051 C2050 1.358 . S
C2051 C2052 1.405 . S
C2052 H2024 0.932 . S
C2052 C2051 1.405 . S
C2052 C2053 1.383 . S
C2053 C2052 1.383 . S
C2053 C2054 1.393 . S
C2054 H2026 0.931 . S
C2054 C2053 1.393 . S
C2054 C2055 1.382 . S
C2055 H2025 0.929 . S
C2055 C2050 1.371 . S
C2055 C2054 1.382 . S
C2056 N2019 1.423 . S
C2056 C2057 1.362 . S
C2056 C2061 1.388 . S
C2057 H2027 0.929 . S
C2057 C2056 1.362 . S
C2057 C2058 1.376 . S
C2058 H2029 0.931 . S
C2058 C2057 1.376 . S
C2058 C2059 1.396 . S
C2059 C2058 1.396 . S
C2059 C2060 1.348 . S
C2059 C2077 1.472 . S
C2060 H2030 0.929 . S
C2060 C2059 1.348 . S
C2060 C2061 1.443 . S
C2061 H2028 0.932 . S
C2061 C2056 1.388 . S
C2061 C2060 1.443 . S
C2062 N2042 1.433 . S
C2062 C2063 1.363 . S
C2062 C2067 1.370 . S
C2063 H2031 0.929 . S
C2063 C2062 1.363 . S
C2063 C2064 1.385 . S
C2064 H2032 0.930 . S
C2064 C2063 1.385 . S
C2064 C2065 1.357 . S
C2065 C2064 1.357 . S
C2065 C2066 1.406 . S
C2066 H2033 0.929 . S
C2066 C2065 1.406 . S
C2066 C2067 1.391 . S
C2067 H2034 0.931 . S
C2067 C2062 1.370 . S
C2067 C2066 1.391 . S
C2068 N2042 1.435 . S
C2068 C2069 1.358 . S
C2068 C2073 1.371 . S
C2069 H2035 0.930 . S
C2069 C2068 1.358 . S
C2069 C2070 1.405 . S
C2070 H2036 0.932 . S
C2070 C2069 1.405 . S
C2070 C2071 1.383 . S
C2071 C2070 1.383 . S
C2071 C2072 1.393 . S
C2072 H2037 0.931 . S
C2072 C2071 1.393 . S
C2072 C2073 1.382 . S
C2073 H2038 0.929 . S
C2073 C2068 1.371 . S
C2073 C2072 1.382 . S
C2074 N2042 1.423 . S
C2074 C2075 1.362 . S
C2074 C2079 1.388 . S
C2075 H2039 0.929 . S
C2075 C2074 1.362 . S
C2075 C2076 1.376 . S
C2076 H2040 0.931 . S
C2076 C2075 1.376 . S
C2076 C2077 1.396 . S
C2077 C2059 1.472 . S
C2077 C2076 1.396 . S
C2077 C2078 1.348 . S
C2078 H2041 0.929 . S
C2078 C2077 1.348 . S
C2078 C2079 1.443 . S
C2079 H2043 0.932 . S
C2079 C2074 1.388 . S
C2079 C2078 1.443 . S
H2080 C2107 0.929 . S
N2081 C2106 1.433 . S
N2081 C2112 1.435 . S
N2081 C2118 1.423 . S
H2082 C2108 0.930 . S
H2083 C2111 0.931 . S
H2084 C2110 0.929 . S
H2085 C2113 0.930 . S
H2086 C2114 0.932 . S
H2087 C2117 0.929 . S
H2088 C2116 0.931 . S
H2089 C2119 0.929 . S
H2090 C2123 0.932 . S
H2091 C2120 0.931 . S
H2092 C2122 0.929 . S
H2093 C2125 0.929 . S
H2094 C2126 0.930 . S
H2095 C2128 0.929 . S
H2096 C2129 0.931 . S
H2097 C2131 0.930 . S
H2098 C2132 0.932 . S
H2099 C2134 0.931 . S
H2100 C2135 0.929 . S
H2101 C2137 0.929 . S
H2102 C2138 0.931 . S
H2103 C2140 0.929 . S
N2104 C2124 1.433 . S
N2104 C2130 1.435 . S
N2104 C2136 1.423 . S
H2105 C2141 0.932 . S
C2106 N2081 1.433 . S
C2106 C2107 1.363 . S
C2106 C2111 1.370 . S
C2107 H2080 0.929 . S
C2107 C2106 1.363 . S
C2107 C2108 1.385 . S
C2108 H2082 0.930 . S
C2108 C2107 1.385 . S
C2108 C2109 1.357 . S
C2109 C2108 1.357 . S
C2109 C2110 1.406 . S
C2110 H2084 0.929 . S
C2110 C2109 1.406 . S
C2110 C2111 1.391 . S
C2111 H2083 0.931 . S
C2111 C2106 1.370 . S
C2111 C2110 1.391 . S
C2112 N2081 1.435 . S
C2112 C2113 1.358 . S
C2112 C2117 1.371 . S
C2113 H2085 0.930 . S
C2113 C2112 1.358 . S
C2113 C2114 1.405 . S
C2114 H2086 0.932 . S
C2114 C2113 1.405 . S
C2114 C2115 1.383 . S
C2115 C2114 1.383 . S
C2115 C2116 1.393 . S
C2116 H2088 0.931 . S
C2116 C2115 1.393 . S
C2116 C2117 1.382 . S
C2117 H2087 0.929 . S
C2117 C2112 1.371 . S
C2117 C2116 1.382 . S
C2118 N2081 1.423 . S
C2118 C2119 1.362 . S
C2118 C2123 1.388 . S
C2119 H2089 0.929 . S
C2119 C2118 1.362 . S
C2119 C2120 1.376 . S
C2120 H2091 0.931 . S
C2120 C2119 1.376 . S
C2120 C2121 1.396 . S
C2121 C2120 1.396 . S
C2121 C2122 1.348 . S
C2121 C2139 1.472 . S
C2122 H2092 0.929 . S
C2122 C2121 1.348 . S
C2122 C2123 1.443 . S
C2123 H2090 0.932 . S
C2123 C2118 1.388 . S
C2123 C2122 1.443 . S
C2124 N2104 1.433 . S
C2124 C2125 1.363 . S
C2124 C2129 1.370 . S
C2125 H2093 0.929 . S
C2125 C2124 1.363 . S
C2125 C2126 1.385 . S
C2126 H2094 0.930 . S
C2126 C2125 1.385 . S
C2126 C2127 1.357 . S
C2127 C2126 1.357 . S
C2127 C2128 1.406 . S
C2128 H2095 0.929 . S
C2128 C2127 1.406 . S
C2128 C2129 1.391 . S
C2129 H2096 0.931 . S
C2129 C2124 1.370 . S
C2129 C2128 1.391 . S
C2130 N2104 1.435 . S
C2130 C2131 1.358 . S
C2130 C2135 1.371 . S
C2131 H2097 0.930 . S
C2131 C2130 1.358 . S
C2131 C2132 1.405 . S
C2132 H2098 0.932 . S
C2132 C2131 1.405 . S
C2132 C2133 1.383 . S
C2133 C2132 1.383 . S
C2133 C2134 1.393 . S
C2134 H2099 0.931 . S
C2134 C2133 1.393 . S
C2134 C2135 1.382 . S
C2135 H2100 0.929 . S
C2135 C2130 1.371 . S
C2135 C2134 1.382 . S
C2136 N2104 1.423 . S
C2136 C2137 1.362 . S
C2136 C2141 1.388 . S
C2137 H2101 0.929 . S
C2137 C2136 1.362 . S
C2137 C2138 1.376 . S
C2138 H2102 0.931 . S
C2138 C2137 1.376 . S
C2138 C2139 1.396 . S
C2139 C2121 1.472 . S
C2139 C2138 1.396 . S
C2139 C2140 1.348 . S
C2140 H2103 0.929 . S
C2140 C2139 1.348 . S
C2140 C2141 1.443 . S
C2141 H2105 0.932 . S
C2141 C2136 1.388 . S
C2141 C2140 1.443 . S
H2142 C2169 0.929 . S
N2143 C2168 1.433 . S
N2143 C2174 1.435 . S
N2143 C2180 1.423 . S
H2144 C2170 0.930 . S
H2145 C2173 0.931 . S
H2146 C2172 0.929 . S
H2147 C2175 0.930 . S
H2148 C2176 0.932 . S
H2149 C2179 0.929 . S
H2150 C2178 0.931 . S
H2151 C2181 0.929 . S
H2152 C2185 0.932 1_655 S
H2153 C2182 0.931 . S
H2154 C2184 0.944 . S
H2155 C2187 0.929 . S
H2156 C2188 0.930 . S
H2157 C2190 0.929 . S
H2158 C2191 0.931 . S
H2159 C2193 0.930 . S
H2160 C2194 0.932 . S
H2161 C2196 0.931 . S
H2162 C2197 0.929 . S
H2163 C2199 0.929 . S
H2164 C2200 0.931 . S
H2165 C2202 0.929 . S
N2166 C2186 1.433 . S
N2166 C2192 1.435 . S
N2166 C2198 1.423 . S
H2167 C2203 0.932 1_655 S
C2168 N2143 1.433 . S
C2168 C2169 1.363 . S
C2168 C2173 1.370 1_455 S
C2169 H2142 0.929 . S
C2169 C2168 1.363 . S
C2169 C2170 1.385 . S
C2170 H2144 0.930 . S
C2170 C2169 1.385 . S
C2170 C2171 1.357 1_455 S
C2171 C2170 1.357 1_655 S
C2171 C2172 1.406 . S
C2172 H2146 0.929 . S
C2172 C2171 1.406 . S
C2172 C2173 1.391 . S
C2173 H2145 0.931 . S
C2173 C2168 1.370 1_655 S
C2173 C2172 1.391 . S
C2174 N2143 1.435 . S
C2174 C2175 1.358 1_455 S
C2174 C2179 1.371 . S
C2175 H2147 0.930 . S
C2175 C2174 1.358 1_655 S
C2175 C2176 1.405 . S
C2176 H2148 0.932 . S
C2176 C2175 1.405 . S
C2176 C2177 1.383 1_655 S
C2177 C2176 1.383 1_455 S
C2177 C2178 1.393 . S
C2178 H2150 0.931 . S
C2178 C2177 1.393 . S
C2178 C2179 1.382 . S
C2179 H2149 0.929 . S
C2179 C2174 1.371 . S
C2179 C2178 1.382 . S
C2180 N2143 1.423 . S
C2180 C2181 1.362 . S
C2180 C2185 1.388 . S
C2181 H2151 0.929 . S
C2181 C2180 1.362 . S
C2181 C2182 1.376 . S
C2182 H2153 0.931 . S
C2182 C2181 1.376 . S
C2182 C2183 1.396 . S
C2183 C2182 1.396 . S
C2183 C2184 1.348 . S
C2183 C2201 1.472 . S
C2184 H2154 0.944 . S
C2184 C2183 1.348 . S
C2184 C2185 1.443 . S
C2185 H2152 0.932 1_455 S
C2185 C2180 1.388 . S
C2185 C2184 1.443 . S
C2186 N2166 1.433 . S
C2186 C2187 1.363 . S
C2186 C2191 1.370 1_455 S
C2187 H2155 0.929 . S
C2187 C2186 1.363 . S
C2187 C2188 1.385 . S
C2188 H2156 0.930 . S
C2188 C2187 1.385 . S
C2188 C2189 1.357 1_455 S
C2189 C2188 1.357 1_655 S
C2189 C2190 1.406 . S
C2190 H2157 0.929 . S
C2190 C2189 1.406 . S
C2190 C2191 1.391 . S
C2191 H2158 0.931 . S
C2191 C2186 1.370 1_655 S
C2191 C2190 1.391 . S
C2192 N2166 1.435 . S
C2192 C2193 1.358 1_455 S
C2192 C2197 1.371 . S
C2193 H2159 0.930 . S
C2193 C2192 1.358 1_655 S
C2193 C2194 1.405 . S
C2194 H2160 0.932 . S
C2194 C2193 1.405 . S
C2194 C2195 1.383 1_655 S
C2195 C2194 1.383 1_455 S
C2195 C2196 1.393 . S
C2196 H2161 0.931 . S
C2196 C2195 1.393 . S
C2196 C2197 1.382 . S
C2197 H2162 0.929 . S
C2197 C2192 1.371 . S
C2197 C2196 1.382 . S
C2198 N2166 1.423 . S
C2198 C2199 1.362 . S
C2198 C2203 1.388 . S
C2199 H2163 0.929 . S
C2199 C2198 1.362 . S
C2199 C2200 1.376 . S
C2200 H2164 0.931 . S
C2200 C2199 1.376 . S
C2200 C2201 1.396 . S
C2201 C2183 1.472 . S
C2201 C2200 1.396 . S
C2201 C2202 1.348 . S
C2202 H2165 0.929 . S
C2202 C2201 1.348 . S
C2202 C2203 1.443 . S
C2203 H2167 0.932 1_455 S
C2203 C2198 1.388 . S
C2203 C2202 1.443 . S
H2204 C2231 0.929 . S
N2205 C2230 1.433 . S
N2205 C2236 1.435 . S
N2205 C2242 1.423 . S
H2206 C2232 0.930 . S
H2207 C2235 0.931 . S
H2208 C2234 0.929 . S
H2209 C2237 0.930 . S
H2210 C2238 0.932 . S
H2211 C2241 0.929 . S
H2212 C2240 0.931 . S
H2213 C2243 0.929 . S
H2214 C2247 0.932 . S
H2215 C2244 0.931 . S
H2216 C2246 0.929 . S
H2217 C2249 0.929 . S
H2218 C2250 0.930 . S
H2219 C2252 0.929 . S
H2220 C2253 0.931 . S
H2221 C2255 0.930 . S
H2222 C2256 0.932 . S
H2223 C2258 0.931 . S
H2224 C2259 0.929 . S
H2225 C2261 0.929 . S
H2226 C2262 0.931 . S
H2227 C2264 0.929 . S
N2228 C2248 1.433 . S
N2228 C2254 1.435 . S
N2228 C2260 1.423 . S
H2229 C2265 0.932 . S
C2230 N2205 1.433 . S
C2230 C2231 1.363 . S
C2230 C2235 1.370 . S
C2231 H2204 0.929 . S
C2231 C2230 1.363 . S
C2231 C2232 1.385 . S
C2232 H2206 0.930 . S
C2232 C2231 1.385 . S
C2232 C2233 1.357 . S
C2233 C2232 1.357 . S
C2233 C2234 1.406 . S
C2234 H2208 0.929 . S
C2234 C2233 1.406 . S
C2234 C2235 1.391 . S
C2235 H2207 0.931 . S
C2235 C2230 1.370 . S
C2235 C2234 1.391 . S
C2236 N2205 1.435 . S
C2236 C2237 1.358 . S
C2236 C2241 1.371 . S
C2237 H2209 0.930 . S
C2237 C2236 1.358 . S
C2237 C2238 1.405 . S
C2238 H2210 0.932 . S
C2238 C2237 1.405 . S
C2238 C2239 1.383 . S
C2239 C2238 1.383 . S
C2239 C2240 1.393 . S
C2240 H2212 0.931 . S
C2240 C2239 1.393 . S
C2240 C2241 1.382 . S
C2241 H2211 0.929 . S
C2241 C2236 1.371 . S
C2241 C2240 1.382 . S
C2242 N2205 1.423 . S
C2242 C2243 1.362 . S
C2242 C2247 1.388 . S
C2243 H2213 0.929 . S
C2243 C2242 1.362 . S
C2243 C2244 1.376 . S
C2244 H2215 0.931 . S
C2244 C2243 1.376 . S
C2244 C2245 1.396 . S
C2245 C2244 1.396 . S
C2245 C2246 1.348 . S
C2245 C2263 1.472 . S
C2246 H2216 0.929 . S
C2246 C2245 1.348 . S
C2246 C2247 1.443 . S
C2247 H2214 0.932 . S
C2247 C2242 1.388 . S
C2247 C2246 1.443 . S
C2248 N2228 1.433 . S
C2248 C2249 1.363 . S
C2248 C2253 1.370 . S
C2249 H2217 0.929 . S
C2249 C2248 1.363 . S
C2249 C2250 1.385 . S
C2250 H2218 0.930 . S
C2250 C2249 1.385 . S
C2250 C2251 1.357 . S
C2251 C2250 1.357 . S
C2251 C2252 1.406 . S
C2252 H2219 0.929 . S
C2252 C2251 1.406 . S
C2252 C2253 1.391 . S
C2253 H2220 0.931 . S
C2253 C2248 1.370 . S
C2253 C2252 1.391 . S
C2254 N2228 1.435 . S
C2254 C2255 1.358 . S
C2254 C2259 1.371 . S
C2255 H2221 0.930 . S
C2255 C2254 1.358 . S
C2255 C2256 1.405 . S
C2256 H2222 0.932 . S
C2256 C2255 1.405 . S
C2256 C2257 1.383 . S
C2257 C2256 1.383 . S
C2257 C2258 1.393 . S
C2258 H2223 0.931 . S
C2258 C2257 1.393 . S
C2258 C2259 1.382 . S
C2259 H2224 0.929 . S
C2259 C2254 1.371 . S
C2259 C2258 1.382 . S
C2260 N2228 1.423 . S
C2260 C2261 1.362 . S
C2260 C2265 1.388 . S
C2261 H2225 0.929 . S
C2261 C2260 1.362 . S
C2261 C2262 1.376 . S
C2262 H2226 0.931 . S
C2262 C2261 1.376 . S
C2262 C2263 1.396 . S
C2263 C2245 1.472 . S
C2263 C2262 1.396 . S
C2263 C2264 1.348 . S
C2264 H2227 0.929 . S
C2264 C2263 1.348 . S
C2264 C2265 1.443 . S
C2265 H2229 0.932 . S
C2265 C2260 1.388 . S
C2265 C2264 1.443 . S
H2266 C2293 0.929 . S
N2267 C2292 1.433 . S
N2267 C2298 1.435 . S
N2267 C2304 1.423 . S
H2268 C2294 0.930 . S
H2269 C2297 0.931 . S
H2270 C2296 0.929 . S
H2271 C2299 0.930 . S
H2272 C2300 0.932 . S
H2273 C2303 0.929 . S
H2274 C2302 0.931 . S
H2275 C2305 0.929 . S
H2276 C2309 0.932 1_545 S
H2277 C2306 0.931 . S
H2278 C2308 0.929 . S
H2279 C2311 0.929 . S
H2280 C2312 0.930 . S
H2281 C2314 0.929 . S
H2282 C2315 0.931 . S
H2283 C2317 0.930 . S
H2284 C2318 0.932 . S
H2285 C2320 0.931 . S
H2286 C2321 0.929 . S
H2287 C2323 0.929 . S
H2288 C2324 0.931 . S
H2289 C2326 0.945 . S
N2290 C2310 1.433 . S
N2290 C2316 1.435 . S
N2290 C2322 1.423 . S
H2291 C2327 0.932 1_545 S
C2292 N2267 1.433 . S
C2292 C2293 1.363 . S
C2292 C2297 1.370 1_565 S
C2293 H2266 0.929 . S
C2293 C2292 1.363 . S
C2293 C2294 1.385 . S
C2294 H2268 0.930 . S
C2294 C2293 1.385 . S
C2294 C2295 1.357 1_565 S
C2295 C2294 1.357 1_545 S
C2295 C2296 1.406 . S
C2296 H2270 0.929 . S
C2296 C2295 1.406 . S
C2296 C2297 1.391 . S
C2297 H2269 0.931 . S
C2297 C2292 1.370 1_545 S
C2297 C2296 1.391 . S
C2298 N2267 1.435 . S
C2298 C2299 1.358 1_565 S
C2298 C2303 1.371 . S
C2299 H2271 0.930 . S
C2299 C2298 1.358 1_545 S
C2299 C2300 1.405 . S
C2300 H2272 0.932 . S
C2300 C2299 1.405 . S
C2300 C2301 1.383 1_545 S
C2301 C2300 1.383 1_565 S
C2301 C2302 1.393 . S
C2302 H2274 0.931 . S
C2302 C2301 1.393 . S
C2302 C2303 1.382 . S
C2303 H2273 0.929 . S
C2303 C2298 1.371 . S
C2303 C2302 1.382 . S
C2304 N2267 1.423 . S
C2304 C2305 1.362 . S
C2304 C2309 1.388 . S
C2305 H2275 0.929 . S
C2305 C2304 1.362 . S
C2305 C2306 1.376 . S
C2306 H2277 0.931 . S
C2306 C2305 1.376 . S
C2306 C2307 1.396 . S
C2307 C2306 1.396 . S
C2307 C2308 1.348 . S
C2307 C2325 1.472 . S
C2308 H2278 0.929 . S
C2308 C2307 1.348 . S
C2308 C2309 1.443 . S
C2309 H2276 0.932 1_565 S
C2309 C2304 1.388 . S
C2309 C2308 1.443 . S
C2310 N2290 1.433 . S
C2310 C2311 1.363 . S
C2310 C2315 1.370 1_565 S
C2311 H2279 0.929 . S
C2311 C2310 1.363 . S
C2311 C2312 1.385 . S
C2312 H2280 0.930 . S
C2312 C2311 1.385 . S
C2312 C2313 1.357 1_565 S
C2313 C2312 1.357 1_545 S
C2313 C2314 1.406 . S
C2314 H2281 0.929 . S
C2314 C2313 1.406 . S
C2314 C2315 1.391 . S
C2315 H2282 0.931 . S
C2315 C2310 1.370 1_545 S
C2315 C2314 1.391 . S
C2316 N2290 1.435 . S
C2316 C2317 1.358 1_565 S
C2316 C2321 1.371 . S
C2317 H2283 0.930 . S
C2317 C2316 1.358 1_545 S
C2317 C2318 1.405 . S
C2318 H2284 0.932 . S
C2318 C2317 1.405 . S
C2318 C2319 1.383 1_545 S
C2319 C2318 1.383 1_565 S
C2319 C2320 1.393 . S
C2320 H2285 0.931 . S
C2320 C2319 1.393 . S
C2320 C2321 1.382 . S
C2321 H2286 0.929 . S
C2321 C2316 1.371 . S
C2321 C2320 1.382 . S
C2322 N2290 1.423 . S
C2322 C2323 1.362 . S
C2322 C2327 1.388 . S
C2323 H2287 0.929 . S
C2323 C2322 1.362 . S
C2323 C2324 1.376 . S
C2324 H2288 0.931 . S
C2324 C2323 1.376 . S
C2324 C2325 1.396 . S
C2325 C2307 1.472 . S
C2325 C2324 1.396 . S
C2325 C2326 1.348 . S
C2326 H2289 0.945 . S
C2326 C2325 1.348 . S
C2326 C2327 1.443 . S
C2327 H2291 0.932 1_565 S
C2327 C2322 1.388 . S
C2327 C2326 1.443 . S
H2328 C2355 0.929 . S
N2329 C2354 1.433 . S
N2329 C2360 1.435 . S
N2329 C2366 1.423 . S
H2330 C2356 0.930 . S
H2331 C2359 0.930 . S
H2332 C2358 0.947 . S
H2333 C2361 0.930 . S
H2334 C2362 0.932 . S
H2335 C2365 0.929 . S
H2336 C2364 0.931 . S
H2337 C2367 0.929 . S
H2338 C2371 1.028 . S
H2339 C2368 0.931 . S
H2340 C2370 0.922 1_545 S
H2341 C2373 0.929 . S
H2342 C2374 0.930 . S
H2343 C2376 0.982 . S
H2344 C2377 0.976 . S
H2345 C2379 0.930 . S
H2346 C2380 0.932 . S
H2347 C2382 0.931 . S
H2348 C2383 0.929 . S
H2349 C2385 0.929 . S
H2350 C2386 0.931 . S
H2351 C2388 0.903 1_545 S
N2352 C2372 1.433 . S
N2352 C2378 1.435 . S
N2352 C2384 1.423 . S
H2353 C2389 0.973 . S
C2354 N2329 1.433 . S
C2354 C2355 1.363 . S
C2354 C2359 1.363 1_565 S
C2355 H2328 0.929 . S
C2355 C2354 1.363 . S
C2355 C2356 1.385 . S
C2356 H2330 0.930 . S
C2356 C2355 1.385 . S
C2356 C2357 1.357 . S
C2357 C2356 1.357 . S
C2357 C2358 1.413 1_565 S
C2358 H2332 0.947 . S
C2358 C2357 1.413 1_545 S
C2358 C2359 1.387 . S
C2359 H2331 0.930 . S
C2359 C2354 1.363 1_545 S
C2359 C2358 1.387 . S
C2360 N2329 1.435 . S
C2360 C2361 1.358 1_565 S
C2360 C2365 1.371 . S
C2361 H2333 0.930 . S
C2361 C2360 1.358 1_545 S
C2361 C2362 1.405 . S
C2362 H2334 0.932 . S
C2362 C2361 1.405 . S
C2362 C2363 1.383 . S
C2363 C2362 1.383 . S
C2363 C2364 1.393 1_545 S
C2364 H2336 0.931 . S
C2364 C2363 1.393 1_565 S
C2364 C2365 1.382 . S
C2365 H2335 0.929 . S
C2365 C2360 1.371 . S
C2365 C2364 1.382 . S
C2366 N2329 1.423 . S
C2366 C2367 1.362 . S
C2366 C2371 1.361 1_565 S
C2367 H2337 0.929 . S
C2367 C2366 1.362 . S
C2367 C2368 1.376 . S
C2368 H2339 0.931 . S
C2368 C2367 1.376 . S
C2368 C2369 1.396 . S
C2369 C2368 1.396 . S
C2369 C2370 1.375 . S
C2369 C2387 1.472 . S
C2370 H2340 0.922 1_565 S
C2370 C2369 1.375 . S
C2370 C2371 1.363 1_565 S
C2371 H2338 1.028 . S
C2371 C2366 1.361 1_545 S
C2371 C2370 1.363 1_545 S
C2372 N2352 1.433 . S
C2372 C2373 1.363 . S
C2372 C2377 1.335 1_565 S
C2373 H2341 0.929 . S
C2373 C2372 1.363 . S
C2373 C2374 1.385 . S
C2374 H2342 0.930 . S
C2374 C2373 1.385 . S
C2374 C2375 1.357 . S
C2375 C2374 1.357 . S
C2375 C2376 1.344 1_565 S
C2376 H2343 0.982 . S
C2376 C2375 1.344 1_545 S
C2376 C2377 1.395 . S
C2377 H2344 0.976 . S
C2377 C2372 1.335 1_545 S
C2377 C2376 1.395 . S
C2378 N2352 1.435 . S
C2378 C2379 1.358 1_565 S
C2378 C2383 1.371 . S
C2379 H2345 0.930 . S
C2379 C2378 1.358 1_545 S
C2379 C2380 1.405 . S
C2380 H2346 0.932 . S
C2380 C2379 1.405 . S
C2380 C2381 1.383 . S
C2381 C2380 1.383 . S
C2381 C2382 1.393 1_545 S
C2382 H2347 0.931 . S
C2382 C2381 1.393 1_565 S
C2382 C2383 1.382 . S
C2383 H2348 0.929 . S
C2383 C2378 1.371 . S
C2383 C2382 1.382 . S
C2384 N2352 1.423 . S
C2384 C2385 1.362 . S
C2384 C2389 1.310 1_565 S
C2385 H2349 0.929 . S
C2385 C2384 1.362 . S
C2385 C2386 1.376 . S
C2386 H2350 0.931 . S
C2386 C2385 1.376 . S
C2386 C2387 1.396 . S
C2387 C2369 1.472 . S
C2387 C2386 1.396 . S
C2387 C2388 1.358 . S
C2388 H2351 0.903 1_565 S
C2388 C2387 1.358 . S
C2388 C2389 1.507 1_565 S
C2389 H2353 0.973 . S
C2389 C2384 1.310 1_545 S
C2389 C2388 1.507 1_545 S
H2390 C2417 0.929 . S
N2391 C2416 1.433 . S
N2391 C2422 1.435 . S
N2391 C2428 1.423 . S
H2392 C2418 0.930 . S
H2393 C2421 0.931 . S
H2394 C2420 0.929 . S
H2395 C2423 0.930 . S
H2396 C2424 0.932 . S
H2397 C2427 0.929 . S
H2398 C2426 0.931 . S
H2399 C2429 0.929 . S
H2400 C2433 0.932 1_455 S
H2401 C2430 0.931 . S
H2402 C2432 0.929 . S
H2403 C2435 0.929 . S
H2404 C2436 0.930 . S
H2405 C2438 0.929 . S
H2406 C2439 0.931 . S
H2407 C2441 0.930 . S
H2408 C2442 0.932 . S
H2409 C2444 0.931 . S
H2410 C2445 0.929 . S
H2411 C2447 0.929 . S
H2412 C2448 0.931 . S
H2413 C2450 0.929 . S
N2414 C2434 1.433 . S
N2414 C2440 1.435 . S
N2414 C2446 1.423 . S
H2415 C2451 0.932 1_455 S
C2416 N2391 1.433 . S
C2416 C2417 1.363 . S
C2416 C2421 1.370 1_655 S
C2417 H2390 0.929 . S
C2417 C2416 1.363 . S
C2417 C2418 1.385 . S
C2418 H2392 0.930 . S
C2418 C2417 1.385 . S
C2418 C2419 1.357 1_655 S
C2419 C2418 1.357 1_455 S
C2419 C2420 1.406 . S
C2420 H2394 0.929 . S
C2420 C2419 1.406 . S
C2420 C2421 1.391 . S
C2421 H2393 0.931 . S
C2421 C2416 1.370 1_455 S
C2421 C2420 1.391 . S
C2422 N2391 1.435 . S
C2422 C2423 1.358 1_655 S
C2422 C2427 1.371 . S
C2423 H2395 0.930 . S
C2423 C2422 1.358 1_455 S
C2423 C2424 1.405 . S
C2424 H2396 0.932 . S
C2424 C2423 1.405 . S
C2424 C2425 1.383 1_455 S
C2425 C2424 1.383 1_655 S
C2425 C2426 1.393 . S
C2426 H2398 0.931 . S
C2426 C2425 1.393 . S
C2426 C2427 1.382 . S
C2427 H2397 0.929 . S
C2427 C2422 1.371 . S
C2427 C2426 1.382 . S
C2428 N2391 1.423 . S
C2428 C2429 1.362 . S
C2428 C2433 1.388 . S
C2429 H2399 0.929 . S
C2429 C2428 1.362 . S
C2429 C2430 1.376 . S
C2430 H2401 0.931 . S
C2430 C2429 1.376 . S
C2430 C2431 1.396 . S
C2431 C2430 1.396 . S
C2431 C2432 1.348 . S
C2431 C2449 1.472 . S
C2432 H2402 0.929 . S
C2432 C2431 1.348 . S
C2432 C2433 1.443 . S
C2433 H2400 0.932 1_655 S
C2433 C2428 1.388 . S
C2433 C2432 1.443 . S
C2434 N2414 1.433 . S
C2434 C2435 1.363 . S
C2434 C2439 1.370 1_655 S
C2435 H2403 0.929 . S
C2435 C2434 1.363 . S
C2435 C2436 1.385 . S
C2436 H2404 0.930 . S
C2436 C2435 1.385 . S
C2436 C2437 1.357 1_655 S
C2437 C2436 1.357 1_455 S
C2437 C2438 1.406 . S
C2438 H2405 0.929 . S
C2438 C2437 1.406 . S
C2438 C2439 1.391 . S
C2439 H2406 0.931 . S
C2439 C2434 1.370 1_455 S
C2439 C2438 1.391 . S
C2440 N2414 1.435 . S
C2440 C2441 1.358 1_655 S
C2440 C2445 1.371 . S
C2441 H2407 0.930 . S
C2441 C2440 1.358 1_455 S
C2441 C2442 1.405 . S
C2442 H2408 0.932 . S
C2442 C2441 1.405 . S
C2442 C2443 1.383 1_455 S
C2443 C2442 1.383 1_655 S
C2443 C2444 1.393 . S
C2444 H2409 0.931 . S
C2444 C2443 1.393 . S
C2444 C2445 1.382 . S
C2445 H2410 0.929 . S
C2445 C2440 1.371 . S
C2445 C2444 1.382 . S
C2446 N2414 1.423 . S
C2446 C2447 1.362 . S
C2446 C2451 1.388 . S
C2447 H2411 0.929 . S
C2447 C2446 1.362 . S
C2447 C2448 1.376 . S
C2448 H2412 0.931 . S
C2448 C2447 1.376 . S
C2448 C2449 1.396 . S
C2449 C2431 1.472 . S
C2449 C2448 1.396 . S
C2449 C2450 1.348 . S
C2450 H2413 0.929 . S
C2450 C2449 1.348 . S
C2450 C2451 1.443 . S
C2451 H2415 0.932 1_655 S
C2451 C2446 1.388 . S
C2451 C2450 1.443 . S
H2452 C2479 0.929 . S
N2453 C2478 1.433 . S
N2453 C2484 1.435 . S
N2453 C2490 1.423 . S
H2454 C2480 0.930 . S
H2455 C2483 0.931 . S
H2456 C2482 0.929 . S
H2457 C2485 0.930 . S
H2458 C2486 0.932 . S
H2459 C2489 0.929 . S
H2460 C2488 0.931 . S
H2461 C2491 0.929 . S
H2462 C2495 0.932 . S
H2463 C2492 0.931 . S
H2464 C2494 0.929 . S
H2465 C2497 0.929 . S
H2466 C2498 0.930 . S
H2467 C2500 0.929 . S
H2468 C2501 0.931 . S
H2469 C2503 0.930 . S
H2470 C2504 0.932 . S
H2471 C2506 0.931 . S
H2472 C2507 0.929 . S
H2473 C2509 0.929 . S
H2474 C2510 0.931 . S
H2475 C2512 0.929 . S
N2476 C2496 1.433 . S
N2476 C2502 1.435 . S
N2476 C2508 1.423 . S
H2477 C2513 0.932 . S
C2478 N2453 1.433 . S
C2478 C2479 1.363 . S
C2478 C2483 1.370 . S
C2479 H2452 0.929 . S
C2479 C2478 1.363 . S
C2479 C2480 1.385 . S
C2480 H2454 0.930 . S
C2480 C2479 1.385 . S
C2480 C2481 1.357 . S
C2481 C2480 1.357 . S
C2481 C2482 1.406 . S
C2482 H2456 0.929 . S
C2482 C2481 1.406 . S
C2482 C2483 1.391 . S
C2483 H2455 0.931 . S
C2483 C2478 1.370 . S
C2483 C2482 1.391 . S
C2484 N2453 1.435 . S
C2484 C2485 1.358 . S
C2484 C2489 1.371 . S
C2485 H2457 0.930 . S
C2485 C2484 1.358 . S
C2485 C2486 1.405 . S
C2486 H2458 0.932 . S
C2486 C2485 1.405 . S
C2486 C2487 1.383 . S
C2487 C2486 1.383 . S
C2487 C2488 1.393 . S
C2488 H2460 0.931 . S
C2488 C2487 1.393 . S
C2488 C2489 1.382 . S
C2489 H2459 0.929 . S
C2489 C2484 1.371 . S
C2489 C2488 1.382 . S
C2490 N2453 1.423 . S
C2490 C2491 1.362 . S
C2490 C2495 1.388 . S
C2491 H2461 0.929 . S
C2491 C2490 1.362 . S
C2491 C2492 1.376 . S
C2492 H2463 0.931 . S
C2492 C2491 1.376 . S
C2492 C2493 1.396 . S
C2493 C2492 1.396 . S
C2493 C2494 1.348 . S
C2493 C2511 1.472 . S
C2494 H2464 0.929 . S
C2494 C2493 1.348 . S
C2494 C2495 1.443 . S
C2495 H2462 0.932 . S
C2495 C2490 1.388 . S
C2495 C2494 1.443 . S
C2496 N2476 1.433 . S
C2496 C2497 1.363 . S
C2496 C2501 1.370 . S
C2497 H2465 0.929 . S
C2497 C2496 1.363 . S
C2497 C2498 1.385 . S
C2498 H2466 0.930 . S
C2498 C2497 1.385 . S
C2498 C2499 1.357 . S
C2499 C2498 1.357 . S
C2499 C2500 1.406 . S
C2500 H2467 0.929 . S
C2500 C2499 1.406 . S
C2500 C2501 1.391 . S
C2501 H2468 0.931 . S
C2501 C2496 1.370 . S
C2501 C2500 1.391 . S
C2502 N2476 1.435 . S
C2502 C2503 1.358 . S
C2502 C2507 1.371 . S
C2503 H2469 0.930 . S
C2503 C2502 1.358 . S
C2503 C2504 1.405 . S
C2504 H2470 0.932 . S
C2504 C2503 1.405 . S
C2504 C2505 1.383 . S
C2505 C2504 1.383 . S
C2505 C2506 1.393 . S
C2506 H2471 0.931 . S
C2506 C2505 1.393 . S
C2506 C2507 1.382 . S
C2507 H2472 0.929 . S
C2507 C2502 1.371 . S
C2507 C2506 1.382 . S
C2508 N2476 1.423 . S
C2508 C2509 1.362 . S
C2508 C2513 1.388 . S
C2509 H2473 0.929 . S
C2509 C2508 1.362 . S
C2509 C2510 1.376 . S
C2510 H2474 0.931 . S
C2510 C2509 1.376 . S
C2510 C2511 1.396 . S
C2511 C2493 1.472 . S
C2511 C2510 1.396 . S
C2511 C2512 1.348 . S
C2512 H2475 0.929 . S
C2512 C2511 1.348 . S
C2512 C2513 1.443 . S
C2513 H2477 0.932 . S
C2513 C2508 1.388 . S
C2513 C2512 1.443 . S
H2514 C2541 0.929 . S
N2515 C2540 1.433 . S
N2515 C2546 1.435 . S
N2515 C2552 1.423 . S
H2516 C2542 0.930 . S
H2517 C2545 0.931 . S
H2518 C2544 0.929 . S
H2519 C2547 0.930 . S
H2520 C2548 0.932 . S
H2521 C2551 0.929 . S
H2522 C2550 0.931 . S
H2523 C2553 0.929 . S
H2524 C2557 0.932 . S
H2525 C2554 0.931 . S
H2526 C2556 0.929 . S
H2527 C2559 0.929 . S
H2528 C2560 0.930 . S
H2529 C2562 0.929 . S
H2530 C2563 0.931 . S
H2531 C2565 0.930 . S
H2532 C2566 0.932 . S
H2533 C2568 0.931 . S
H2534 C2569 0.929 . S
H2535 C2571 0.929 . S
H2536 C2572 0.931 . S
H2537 C2574 0.929 . S
N2538 C2558 1.433 . S
N2538 C2564 1.435 . S
N2538 C2570 1.423 . S
H2539 C2575 0.932 . S
C2540 N2515 1.433 . S
C2540 C2541 1.363 . S
C2540 C2545 1.370 . S
C2541 H2514 0.929 . S
C2541 C2540 1.363 . S
C2541 C2542 1.385 . S
C2542 H2516 0.930 . S
C2542 C2541 1.385 . S
C2542 C2543 1.357 . S
C2543 C2542 1.357 . S
C2543 C2544 1.406 . S
C2544 H2518 0.929 . S
C2544 C2543 1.406 . S
C2544 C2545 1.391 . S
C2545 H2517 0.931 . S
C2545 C2540 1.370 . S
C2545 C2544 1.391 . S
C2546 N2515 1.435 . S
C2546 C2547 1.358 . S
C2546 C2551 1.371 . S
C2547 H2519 0.930 . S
C2547 C2546 1.358 . S
C2547 C2548 1.405 . S
C2548 H2520 0.932 . S
C2548 C2547 1.405 . S
C2548 C2549 1.383 . S
C2549 C2548 1.383 . S
C2549 C2550 1.393 . S
C2550 H2522 0.931 . S
C2550 C2549 1.393 . S
C2550 C2551 1.382 . S
C2551 H2521 0.929 . S
C2551 C2546 1.371 . S
C2551 C2550 1.382 . S
C2552 N2515 1.423 . S
C2552 C2553 1.362 . S
C2552 C2557 1.388 . S
C2553 H2523 0.929 . S
C2553 C2552 1.362 . S
C2553 C2554 1.376 . S
C2554 H2525 0.931 . S
C2554 C2553 1.376 . S
C2554 C2555 1.396 . S
C2555 C2554 1.396 . S
C2555 C2556 1.348 . S
C2555 C2573 1.472 . S
C2556 H2526 0.929 . S
C2556 C2555 1.348 . S
C2556 C2557 1.443 . S
C2557 H2524 0.932 . S
C2557 C2552 1.388 . S
C2557 C2556 1.443 . S
C2558 N2538 1.433 . S
C2558 C2559 1.363 . S
C2558 C2563 1.370 . S
C2559 H2527 0.929 . S
C2559 C2558 1.363 . S
C2559 C2560 1.385 . S
C2560 H2528 0.930 . S
C2560 C2559 1.385 . S
C2560 C2561 1.357 . S
C2561 C2560 1.357 . S
C2561 C2562 1.406 . S
C2562 H2529 0.929 . S
C2562 C2561 1.406 . S
C2562 C2563 1.391 . S
C2563 H2530 0.931 . S
C2563 C2558 1.370 . S
C2563 C2562 1.391 . S
C2564 N2538 1.435 . S
C2564 C2565 1.358 . S
C2564 C2569 1.371 . S
C2565 H2531 0.930 . S
C2565 C2564 1.358 . S
C2565 C2566 1.405 . S
C2566 H2532 0.932 . S
C2566 C2565 1.405 . S
C2566 C2567 1.383 . S
C2567 C2566 1.383 . S
C2567 C2568 1.393 . S
C2568 H2533 0.931 . S
C2568 C2567 1.393 . S
C2568 C2569 1.382 . S
C2569 H2534 0.929 . S
C2569 C2564 1.371 . S
C2569 C2568 1.382 . S
C2570 N2538 1.423 . S
C2570 C2571 1.362 . S
C2570 C2575 1.388 . S
C2571 H2535 0.929 . S
C2571 C2570 1.362 . S
C2571 C2572 1.376 . S
C2572 H2536 0.931 . S
C2572 C2571 1.376 . S
C2572 C2573 1.396 . S
C2573 C2555 1.472 . S
C2573 C2572 1.396 . S
C2573 C2574 1.348 . S
C2574 H2537 0.929 . S
C2574 C2573 1.348 . S
C2574 C2575 1.443 . S
C2575 H2539 0.932 . S
C2575 C2570 1.388 . S
C2575 C2574 1.443 . S
H2576 C2603 0.929 . S
N2577 C2602 1.433 . S
N2577 C2608 1.435 . S
N2577 C2614 1.423 . S
H2578 C2604 0.930 . S
H2579 C2607 0.931 . S
H2580 C2606 0.929 . S
H2581 C2609 0.930 . S
H2582 C2610 0.932 . S
H2583 C2613 0.929 . S
H2584 C2612 0.931 . S
H2585 C2615 0.929 . S
H2586 C2619 0.932 . S
H2587 C2616 0.931 . S
H2588 C2618 0.929 . S
H2589 C2621 0.929 . S
H2590 C2622 0.930 . S
H2591 C2624 0.929 . S
H2592 C2625 0.931 . S
H2593 C2627 0.930 . S
H2594 C2628 0.932 . S
H2595 C2630 0.931 . S
H2596 C2631 0.929 . S
H2597 C2633 0.929 . S
H2598 C2634 0.931 . S
H2599 C2636 0.929 . S
N2600 C2620 1.433 . S
N2600 C2626 1.435 . S
N2600 C2632 1.423 . S
H2601 C2637 0.932 . S
C2602 N2577 1.433 . S
C2602 C2603 1.363 . S
C2602 C2607 1.370 . S
C2603 H2576 0.929 . S
C2603 C2602 1.363 . S
C2603 C2604 1.385 . S
C2604 H2578 0.930 . S
C2604 C2603 1.385 . S
C2604 C2605 1.357 . S
C2605 C2604 1.357 . S
C2605 C2606 1.406 . S
C2606 H2580 0.929 . S
C2606 C2605 1.406 . S
C2606 C2607 1.391 . S
C2607 H2579 0.931 . S
C2607 C2602 1.370 . S
C2607 C2606 1.391 . S
C2608 N2577 1.435 . S
C2608 C2609 1.358 . S
C2608 C2613 1.371 . S
C2609 H2581 0.930 . S
C2609 C2608 1.358 . S
C2609 C2610 1.405 . S
C2610 H2582 0.932 . S
C2610 C2609 1.405 . S
C2610 C2611 1.383 . S
C2611 C2610 1.383 . S
C2611 C2612 1.393 . S
C2612 H2584 0.931 . S
C2612 C2611 1.393 . S
C2612 C2613 1.382 . S
C2613 H2583 0.929 . S
C2613 C2608 1.371 . S
C2613 C2612 1.382 . S
C2614 N2577 1.423 . S
C2614 C2615 1.362 . S
C2614 C2619 1.388 . S
C2615 H2585 0.929 . S
C2615 C2614 1.362 . S
C2615 C2616 1.376 . S
C2616 H2587 0.931 . S
C2616 C2615 1.376 . S
C2616 C2617 1.396 . S
C2617 C2616 1.396 . S
C2617 C2618 1.348 . S
C2617 C2635 1.472 . S
C2618 H2588 0.929 . S
C2618 C2617 1.348 . S
C2618 C2619 1.443 . S
C2619 H2586 0.932 . S
C2619 C2614 1.388 . S
C2619 C2618 1.443 . S
C2620 N2600 1.433 . S
C2620 C2621 1.363 . S
C2620 C2625 1.370 . S
C2621 H2589 0.929 . S
C2621 C2620 1.363 . S
C2621 C2622 1.385 . S
C2622 H2590 0.930 . S
C2622 C2621 1.385 . S
C2622 C2623 1.357 . S
C2623 C2622 1.357 . S
C2623 C2624 1.406 . S
C2624 H2591 0.929 . S
C2624 C2623 1.406 . S
C2624 C2625 1.391 . S
C2625 H2592 0.931 . S
C2625 C2620 1.370 . S
C2625 C2624 1.391 . S
C2626 N2600 1.435 . S
C2626 C2627 1.358 . S
C2626 C2631 1.371 . S
C2627 H2593 0.930 . S
C2627 C2626 1.358 . S
C2627 C2628 1.405 . S
C2628 H2594 0.932 . S
C2628 C2627 1.405 . S
C2628 C2629 1.383 . S
C2629 C2628 1.383 . S
C2629 C2630 1.393 . S
C2630 H2595 0.931 . S
C2630 C2629 1.393 . S
C2630 C2631 1.382 . S
C2631 H2596 0.929 . S
C2631 C2626 1.371 . S
C2631 C2630 1.382 . S
C2632 N2600 1.423 . S
C2632 C2633 1.362 . S
C2632 C2637 1.388 . S
C2633 H2597 0.929 . S
C2633 C2632 1.362 . S
C2633 C2634 1.376 . S
C2634 H2598 0.931 . S
C2634 C2633 1.376 . S
C2634 C2635 1.396 . S
C2635 C2617 1.472 . S
C2635 C2634 1.396 . S
C2635 C2636 1.348 . S
C2636 H2599 0.929 . S
C2636 C2635 1.348 . S
C2636 C2637 1.443 . S
C2637 H2601 0.932 . S
C2637 C2632 1.388 . S
C2637 C2636 1.443 . S
H2638 C2665 0.929 . S
N2639 C2664 1.433 . S
N2639 C2670 1.435 . S
N2639 C2676 1.423 . S
H2640 C2666 0.930 . S
H2641 C2669 0.931 . S
H2642 C2668 0.929 . S
H2643 C2671 0.930 . S
H2644 C2672 0.932 . S
H2645 C2675 0.929 . S
H2646 C2674 0.931 . S
H2647 C2677 0.929 . S
H2648 C2681 0.932 . S
H2649 C2678 0.931 . S
H2650 C2680 0.929 . S
H2651 C2683 0.929 . S
H2652 C2684 0.930 . S
H2653 C2686 0.929 . S
H2654 C2687 0.931 . S
H2655 C2689 0.930 . S
H2656 C2690 0.932 . S
H2657 C2692 0.931 . S
H2658 C2693 0.929 . S
H2659 C2695 0.929 . S
H2660 C2696 0.931 . S
H2661 C2698 0.929 . S
N2662 C2682 1.433 . S
N2662 C2688 1.435 . S
N2662 C2694 1.423 . S
H2663 C2699 0.932 . S
C2664 N2639 1.433 . S
C2664 C2665 1.363 . S
C2664 C2669 1.370 . S
C2665 H2638 0.929 . S
C2665 C2664 1.363 . S
C2665 C2666 1.385 . S
C2666 H2640 0.930 . S
C2666 C2665 1.385 . S
C2666 C2667 1.357 . S
C2667 C2666 1.357 . S
C2667 C2668 1.406 . S
C2668 H2642 0.929 . S
C2668 C2667 1.406 . S
C2668 C2669 1.391 . S
C2669 H2641 0.931 . S
C2669 C2664 1.370 . S
C2669 C2668 1.391 . S
C2670 N2639 1.435 . S
C2670 C2671 1.358 . S
C2670 C2675 1.371 . S
C2671 H2643 0.930 . S
C2671 C2670 1.358 . S
C2671 C2672 1.405 . S
C2672 H2644 0.932 . S
C2672 C2671 1.405 . S
C2672 C2673 1.383 . S
C2673 C2672 1.383 . S
C2673 C2674 1.393 . S
C2674 H2646 0.931 . S
C2674 C2673 1.393 . S
C2674 C2675 1.382 . S
C2675 H2645 0.929 . S
C2675 C2670 1.371 . S
C2675 C2674 1.382 . S
C2676 N2639 1.423 . S
C2676 C2677 1.362 . S
C2676 C2681 1.388 . S
C2677 H2647 0.929 . S
C2677 C2676 1.362 . S
C2677 C2678 1.376 . S
C2678 H2649 0.931 . S
C2678 C2677 1.376 . S
C2678 C2679 1.396 . S
C2679 C2678 1.396 . S
C2679 C2680 1.348 . S
C2679 C2697 1.472 . S
C2680 H2650 0.929 . S
C2680 C2679 1.348 . S
C2680 C2681 1.443 . S
C2681 H2648 0.932 . S
C2681 C2676 1.388 . S
C2681 C2680 1.443 . S
C2682 N2662 1.433 . S
C2682 C2683 1.363 . S
C2682 C2687 1.370 . S
C2683 H2651 0.929 . S
C2683 C2682 1.363 . S
C2683 C2684 1.385 . S
C2684 H2652 0.930 . S
C2684 C2683 1.385 . S
C2684 C2685 1.357 . S
C2685 C2684 1.357 . S
C2685 C2686 1.406 . S
C2686 H2653 0.929 . S
C2686 C2685 1.406 . S
C2686 C2687 1.391 . S
C2687 H2654 0.931 . S
C2687 C2682 1.370 . S
C2687 C2686 1.391 . S
C2688 N2662 1.435 . S
C2688 C2689 1.358 . S
C2688 C2693 1.371 . S
C2689 H2655 0.930 . S
C2689 C2688 1.358 . S
C2689 C2690 1.405 . S
C2690 H2656 0.932 . S
C2690 C2689 1.405 . S
C2690 C2691 1.383 . S
C2691 C2690 1.383 . S
C2691 C2692 1.393 . S
C2692 H2657 0.931 . S
C2692 C2691 1.393 . S
C2692 C2693 1.382 . S
C2693 H2658 0.929 . S
C2693 C2688 1.371 . S
C2693 C2692 1.382 . S
C2694 N2662 1.423 . S
C2694 C2695 1.362 . S
C2694 C2699 1.388 . S
C2695 H2659 0.929 . S
C2695 C2694 1.362 . S
C2695 C2696 1.376 . S
C2696 H2660 0.931 . S
C2696 C2695 1.376 . S
C2696 C2697 1.396 . S
C2697 C2679 1.472 . S
C2697 C2696 1.396 . S
C2697 C2698 1.348 . S
C2698 H2661 0.929 . S
C2698 C2697 1.348 . S
C2698 C2699 1.443 . S
C2699 H2663 0.932 . S
C2699 C2694 1.388 . S
C2699 C2698 1.443 . S
C2700 C2701 1.391 . S
C2700 C2702 1.394 . S
C2700 H2716 0.931 1_655 S
C2701 C2700 1.391 . S
C2701 C2705 1.376 . S
C2702 C2700 1.394 . S
C2702 C2703 1.369 . S
C2702 C2706 1.531 1_655 S
C2703 C2702 1.369 . S
C2703 C2704 1.410 . S
C2703 C2711 1.503 . S
C2704 C2703 1.410 . S
C2704 C2705 1.392 . S
C2704 C2707 1.511 . S
C2705 C2701 1.376 . S
C2705 C2704 1.392 . S
C2705 H2717 0.929 . S
C2706 C2702 1.531 1_455 S
C2706 H2718 0.960 . S
C2706 H2719 0.962 . S
C2706 H2720 0.960 . S
C2707 C2704 1.511 . S
C2707 H2721 0.961 . S
C2707 H2722 0.961 . S
C2707 H2723 0.961 . S
C2708 C2709 1.273 1_455 S
C2708 C2710 1.419 1_455 S
C2708 H2724 1.005 . S
C2709 C2708 1.273 1_655 S
C2709 C2713 1.408 . S
C2710 C2708 1.419 1_655 S
C2710 C2711 1.410 . S
C2710 C2714 1.469 1_655 S
C2711 C2703 1.503 . S
C2711 C2710 1.410 . S
C2711 C2712 1.403 . S
C2712 C2711 1.403 . S
C2712 C2713 1.404 . S
C2712 C2715 1.539 . S
C2713 C2709 1.408 . S
C2713 C2712 1.404 . S
C2713 H2725 0.930 . S
C2714 C2710 1.469 1_455 S
C2714 H2726 0.956 . S
C2714 H2727 0.961 . S
C2714 H2728 0.961 . S
C2715 C2712 1.539 . S
C2715 H2729 0.958 . S
C2715 H2730 0.961 . S
C2715 H2731 0.960 . S
H2716 C2700 0.931 1_455 S
H2717 C2705 0.929 . S
H2718 C2706 0.960 . S
H2719 C2706 0.962 . S
H2720 C2706 0.960 . S
H2721 C2707 0.961 . S
H2722 C2707 0.961 . S
H2723 C2707 0.961 . S
H2724 C2708 1.005 . S
H2725 C2713 0.930 . S
H2726 C2714 0.956 . S
H2727 C2714 0.961 . S
H2728 C2714 0.961 . S
H2729 C2715 0.958 . S
H2730 C2715 0.961 . S
H2731 C2715 0.960 . S
C2732 C2733 1.391 . S
C2732 C2734 1.394 . S
C2732 H2748 0.931 . S
C2733 C2732 1.391 . S
C2733 C2737 1.376 . S
C2734 C2732 1.394 . S
C2734 C2735 1.369 . S
C2734 C2738 1.531 . S
C2735 C2734 1.369 . S
C2735 C2736 1.410 . S
C2735 C2743 1.503 . S
C2736 C2735 1.410 . S
C2736 C2737 1.392 . S
C2736 C2739 1.511 . S
C2737 C2733 1.376 . S
C2737 C2736 1.392 . S
C2737 H2749 0.929 . S
C2738 C2734 1.531 . S
C2738 H2750 0.960 . S
C2738 H2751 0.962 . S
C2738 H2752 0.960 . S
C2739 C2736 1.511 . S
C2739 H2753 0.961 . S
C2739 H2754 0.961 . S
C2739 H2755 0.961 . S
C2740 C2741 1.370 . S
C2740 C2742 1.363 . S
C2740 H2756 0.931 . S
C2741 C2740 1.370 . S
C2741 C2745 1.408 . S
C2742 C2740 1.363 . S
C2742 C2743 1.370 . S
C2742 C2746 1.524 . S
C2743 C2735 1.503 . S
C2743 C2742 1.370 . S
C2743 C2744 1.403 . S
C2744 C2743 1.403 . S
C2744 C2745 1.404 . S
C2744 C2747 1.539 . S
C2745 C2741 1.408 . S
C2745 C2744 1.404 . S
C2745 H2757 0.930 . S
C2746 C2742 1.524 . S
C2746 H2758 0.956 . S
C2746 H2759 0.961 . S
C2746 H2760 0.961 . S
C2747 C2744 1.539 . S
C2747 H2761 0.958 . S
C2747 H2762 0.961 . S
C2747 H2763 0.960 . S
H2748 C2732 0.931 . S
H2749 C2737 0.929 . S
H2750 C2738 0.960 . S
H2751 C2738 0.962 . S
H2752 C2738 0.960 . S
H2753 C2739 0.961 . S
H2754 C2739 0.961 . S
H2755 C2739 0.961 . S
H2756 C2740 0.931 . S
H2757 C2745 0.930 . S
H2758 C2746 0.956 . S
H2759 C2746 0.961 . S
H2760 C2746 0.961 . S
H2761 C2747 0.958 . S
H2762 C2747 0.961 . S
H2763 C2747 0.960 . S
C2764 C2765 1.391 . S
C2764 C2766 1.394 . S
C2764 H2780 0.931 . S
C2765 C2764 1.391 . S
C2765 C2769 1.466 . S
C2766 C2764 1.394 . S
C2766 C2767 1.369 . S
C2766 C2770 1.531 . S
C2767 C2766 1.369 . S
C2767 C2768 1.410 1_545 S
C2767 C2775 1.503 . S
C2768 C2767 1.410 1_565 S
C2768 C2769 1.349 1_565 S
C2768 C2771 1.511 . S
C2769 C2765 1.466 . S
C2769 C2768 1.349 1_545 S
C2769 H2781 0.887 1_545 S
C2770 C2766 1.531 . S
C2770 H2782 0.960 . S
C2770 H2783 0.962 . S
C2770 H2784 0.960 . S
C2771 C2768 1.511 . S
C2771 H2785 0.961 . S
C2771 H2786 0.961 . S
C2771 H2787 0.961 . S
C2772 C2773 1.370 . S
C2772 C2774 1.363 . S
C2772 H2788 0.931 . S
C2773 C2772 1.370 . S
C2773 C2777 1.408 1_545 S
C2774 C2772 1.363 . S
C2774 C2775 1.370 . S
C2774 C2778 1.524 . S
C2775 C2767 1.503 . S
C2775 C2774 1.370 . S
C2775 C2776 1.368 1_545 S
C2776 C2775 1.368 1_565 S
C2776 C2777 1.442 . S
C2776 C2779 1.548 . S
C2777 C2773 1.408 1_565 S
C2777 C2776 1.442 . S
C2777 H2789 0.930 . S
C2778 C2774 1.524 . S
C2778 H2790 0.956 . S
C2778 H2791 0.961 . S
C2778 H2792 0.961 . S
C2779 C2776 1.548 . S
C2779 H2793 0.958 . S
C2779 H2794 0.961 . S
C2779 H2795 0.960 . S
H2780 C2764 0.931 . S
H2781 C2769 0.887 1_565 S
H2782 C2770 0.960 . S
H2783 C2770 0.962 . S
H2784 C2770 0.960 . S
H2785 C2771 0.961 . S
H2786 C2771 0.961 . S
H2787 C2771 0.961 . S
H2788 C2772 0.931 . S
H2789 C2777 0.930 . S
H2790 C2778 0.956 . S
H2791 C2778 0.961 . S
H2792 C2778 0.961 . S
H2793 C2779 0.958 . S
H2794 C2779 0.961 . S
H2795 C2779 0.960 . S
C2796 C2797 1.391 . S
C2796 C2798 1.394 . S
C2796 H2812 0.931 . S
C2797 C2796 1.391 . S
C2797 C2801 1.376 . S
C2798 C2796 1.394 . S
C2798 C2799 1.369 . S
C2798 C2802 1.531 . S
C2799 C2798 1.369 . S
C2799 C2800 1.410 . S
C2799 C2807 1.503 . S
C2800 C2799 1.410 . S
C2800 C2801 1.392 . S
C2800 C2803 1.511 . S
C2801 C2797 1.376 . S
C2801 C2800 1.392 . S
C2801 H2813 0.929 . S
C2802 C2798 1.531 . S
C2802 H2814 0.960 . S
C2802 H2815 0.887 1_565 S
C2802 H2816 0.960 . S
C2803 C2800 1.511 . S
C2803 H2817 0.961 . S
C2803 H2818 0.961 . S
C2803 H2819 0.961 . S
C2804 C2805 1.370 1_545 S
C2804 C2806 1.363 . S
C2804 H2820 0.931 . S
C2805 C2804 1.370 1_565 S
C2805 C2809 1.408 . S
C2806 C2804 1.363 . S
C2806 C2807 1.370 1_545 S
C2806 C2810 1.524 . S
C2807 C2799 1.503 . S
C2807 C2806 1.370 1_565 S
C2807 C2808 1.403 . S
C2808 C2807 1.403 . S
C2808 C2809 1.404 . S
C2808 C2811 1.539 . S
C2809 C2805 1.408 . S
C2809 C2808 1.404 . S
C2809 H2821 0.930 . S
C2810 C2806 1.524 . S
C2810 H2822 0.956 . S
C2810 H2823 0.961 . S
C2810 H2824 0.961 . S
C2811 C2808 1.539 . S
C2811 H2825 0.958 . S
C2811 H2826 0.961 . S
C2811 H2827 0.960 . S
H2812 C2796 0.931 . S
H2813 C2801 0.929 . S
H2814 C2802 0.960 . S
H2815 C2802 0.887 1_545 S
H2816 C2802 0.960 . S
H2817 C2803 0.961 . S
H2818 C2803 0.961 . S
H2819 C2803 0.961 . S
H2820 C2804 0.931 . S
H2821 C2809 0.930 . S
H2822 C2810 0.956 . S
H2823 C2810 0.961 . S
H2824 C2810 0.961 . S
H2825 C2811 0.958 . S
H2826 C2811 0.961 . S
H2827 C2811 0.960 . S
C2828 C2829 1.391 . S
C2828 C2830 1.394 . S
C2828 H2844 0.931 . S
C2829 C2828 1.391 . S
C2829 C2833 1.376 . S
C2830 C2828 1.394 . S
C2830 C2831 1.369 . S
C2830 C2834 1.531 . S
C2831 C2830 1.369 . S
C2831 C2832 1.410 . S
C2831 C2839 1.503 . S
C2832 C2831 1.410 . S
C2832 C2833 1.392 . S
C2832 C2835 1.499 1_455 S
C2833 C2829 1.376 . S
C2833 C2832 1.392 . S
C2833 H2845 0.929 . S
C2834 C2830 1.531 . S
C2834 H2846 0.960 . S
C2834 H2847 0.962 . S
C2834 H2848 0.960 . S
C2835 C2832 1.499 1_655 S
C2835 H2849 0.957 1_655 S
C2835 H2850 0.962 1_655 S
C2835 H2851 0.976 . S
C2836 C2837 1.370 . S
C2836 C2838 1.363 . S
C2836 H2852 0.931 . S
C2837 C2836 1.370 . S
C2837 C2841 1.408 1_455 S
C2838 C2836 1.363 . S
C2838 C2839 1.370 . S
C2838 C2842 1.524 . S
C2839 C2831 1.503 . S
C2839 C2838 1.370 . S
C2839 C2840 1.403 1_455 S
C2840 C2839 1.403 1_655 S
C2840 C2841 1.404 . S
C2840 C2843 1.539 . S
C2841 C2837 1.408 1_655 S
C2841 C2840 1.404 . S
C2841 H2853 0.930 . S
C2842 C2838 1.524 . S
C2842 H2854 0.956 . S
C2842 H2855 0.961 . S
C2842 H2856 0.961 . S
C2843 C2840 1.539 . S
C2843 H2857 0.958 . S
C2843 H2858 0.961 . S
C2843 H2859 0.960 . S
H2844 C2828 0.931 . S
H2845 C2833 0.929 . S
H2846 C2834 0.960 . S
H2847 C2834 0.962 . S
H2848 C2834 0.960 . S
H2849 C2835 0.957 1_455 S
H2850 C2835 0.962 1_455 S
H2851 C2835 0.976 . S
H2852 C2836 0.931 . S
H2853 C2841 0.930 . S
H2854 C2842 0.956 . S
H2855 C2842 0.961 . S
H2856 C2842 0.961 . S
H2857 C2843 0.958 . S
H2858 C2843 0.961 . S
H2859 C2843 0.960 . S
C2860 C2861 1.391 . S
C2860 C2862 1.394 . S
C2860 H2876 0.931 . S
C2861 C2860 1.391 . S
C2861 C2865 1.376 . S
C2862 C2860 1.394 . S
C2862 C2863 1.369 . S
C2862 C2866 1.531 . S
C2863 C2862 1.369 . S
C2863 C2864 1.410 . S
C2863 C2871 1.503 . S
C2864 C2863 1.410 . S
C2864 C2865 1.392 . S
C2864 C2867 1.511 . S
C2865 C2861 1.376 . S
C2865 C2864 1.392 . S
C2865 H2877 0.929 . S
C2866 C2862 1.531 . S
C2866 H2878 0.960 . S
C2866 H2879 0.962 . S
C2866 H2880 0.960 . S
C2867 C2864 1.511 . S
C2867 H2881 0.961 . S
C2867 H2882 0.961 . S
C2867 H2883 0.961 . S
C2868 C2869 1.370 . S
C2868 C2870 1.363 . S
C2868 H2884 0.931 . S
C2869 C2868 1.370 . S
C2869 C2873 1.408 . S
C2870 C2868 1.363 . S
C2870 C2871 1.370 . S
C2870 C2874 1.524 . S
C2871 C2863 1.503 . S
C2871 C2870 1.370 . S
C2871 C2872 1.403 . S
C2872 C2871 1.403 . S
C2872 C2873 1.404 . S
C2872 C2875 1.539 . S
C2873 C2869 1.408 . S
C2873 C2872 1.404 . S
C2873 H2885 0.930 . S
C2874 C2870 1.524 . S
C2874 H2886 0.956 . S
C2874 H2887 0.961 . S
C2874 H2888 0.961 . S
C2875 C2872 1.539 . S
C2875 H2889 0.958 . S
C2875 H2890 0.961 . S
C2875 H2891 0.960 . S
H2876 C2860 0.931 . S
H2877 C2865 0.929 . S
H2878 C2866 0.960 . S
H2879 C2866 0.962 . S
H2880 C2866 0.960 . S
H2881 C2867 0.961 . S
H2882 C2867 0.961 . S
H2883 C2867 0.961 . S
H2884 C2868 0.931 . S
H2885 C2873 0.930 . S
H2886 C2874 0.956 . S
H2887 C2874 0.961 . S
H2888 C2874 0.961 . S
H2889 C2875 0.958 . S
H2890 C2875 0.961 . S
H2891 C2875 0.960 . S
C2892 C2893 1.391 . S
C2892 C2894 1.394 . S
C2892 H2908 0.931 . S
C2893 C2892 1.391 . S
C2893 C2897 1.376 . S
C2894 C2892 1.394 . S
C2894 C2895 1.369 . S
C2894 C2898 1.531 . S
C2895 C2894 1.369 . S
C2895 C2896 1.343 1_455 S
C2895 C2903 1.503 . S
C2896 C2895 1.343 1_655 S
C2896 C2897 1.414 1_655 S
C2896 C2899 1.559 . S
C2897 C2893 1.376 . S
C2897 C2896 1.414 1_455 S
C2897 H2909 0.929 1_455 S
C2898 C2894 1.531 . S
C2898 H2910 0.960 . S
C2898 H2911 0.962 . S
C2898 H2912 0.960 . S
C2899 C2896 1.559 . S
C2899 H2913 0.961 . S
C2899 H2914 0.961 . S
C2899 H2915 0.961 . S
C2900 C2901 1.370 . S
C2900 C2902 1.363 . S
C2900 H2916 0.931 . S
C2901 C2900 1.370 . S
C2901 C2905 1.408 1_455 S
C2902 C2900 1.363 . S
C2902 C2903 1.370 . S
C2902 C2906 1.524 . S
C2903 C2895 1.503 . S
C2903 C2902 1.370 . S
C2903 C2904 1.403 1_455 S
C2904 C2903 1.403 1_655 S
C2904 C2905 1.404 . S
C2904 C2907 1.539 . S
C2905 C2901 1.408 1_655 S
C2905 C2904 1.404 . S
C2905 H2917 0.930 . S
C2906 C2902 1.524 . S
C2906 H2918 0.956 . S
C2906 H2919 0.961 . S
C2906 H2920 0.961 . S
C2907 C2904 1.539 . S
C2907 H2921 0.958 . S
C2907 H2922 0.961 . S
C2907 H2923 0.960 . S
H2908 C2892 0.931 . S
H2909 C2897 0.929 1_655 S
H2910 C2898 0.960 . S
H2911 C2898 0.962 . S
H2912 C2898 0.960 . S
H2913 C2899 0.961 . S
H2914 C2899 0.961 . S
H2915 C2899 0.961 . S
H2916 C2900 0.931 . S
H2917 C2905 0.930 . S
H2918 C2906 0.956 . S
H2919 C2906 0.961 . S
H2920 C2906 0.961 . S
H2921 C2907 0.958 . S
H2922 C2907 0.961 . S
H2923 C2907 0.960 . S
C2924 C2925 1.391 . S
C2924 C2926 1.394 . S
C2924 H2940 0.931 . S
C2925 C2924 1.391 . S
C2925 C2929 1.376 . S
C2926 C2924 1.394 . S
C2926 C2927 1.369 . S
C2926 C2930 1.531 . S
C2927 C2926 1.369 . S
C2927 C2928 1.410 . S
C2927 C2935 1.503 . S
C2928 C2927 1.410 . S
C2928 C2929 1.392 . S
C2928 C2931 1.511 . S
C2929 C2925 1.376 . S
C2929 C2928 1.392 . S
C2929 H2941 0.929 . S
C2930 C2926 1.531 . S
C2930 H2942 0.960 . S
C2930 H2943 0.962 . S
C2930 H2944 0.960 . S
C2931 C2928 1.511 . S
C2931 H2945 0.961 . S
C2931 H2946 0.961 . S
C2931 H2947 0.961 . S
C2932 C2933 1.370 . S
C2932 C2934 1.363 . S
C2932 H2948 0.931 . S
C2933 C2932 1.370 . S
C2933 C2937 1.408 . S
C2934 C2932 1.363 . S
C2934 C2935 1.370 . S
C2934 C2938 1.524 . S
C2935 C2927 1.503 . S
C2935 C2934 1.370 . S
C2935 C2936 1.403 . S
C2936 C2935 1.403 . S
C2936 C2937 1.404 . S
C2936 C2939 1.539 . S
C2937 C2933 1.408 . S
C2937 C2936 1.404 . S
C2937 H2949 0.930 . S
C2938 C2934 1.524 . S
C2938 H2950 0.956 . S
C2938 H2951 0.961 . S
C2938 H2952 0.961 . S
C2939 C2936 1.539 . S
C2939 H2953 0.958 . S
C2939 H2954 0.961 . S
C2939 H2955 0.960 . S
H2940 C2924 0.931 . S
H2941 C2929 0.929 . S
H2942 C2930 0.960 . S
H2943 C2930 0.962 . S
H2944 C2930 0.960 . S
H2945 C2931 0.961 . S
H2946 C2931 0.961 . S
H2947 C2931 0.961 . S
H2948 C2932 0.931 . S
H2949 C2937 0.930 . S
H2950 C2938 0.956 . S
H2951 C2938 0.961 . S
H2952 C2938 0.961 . S
H2953 C2939 0.958 . S
H2954 C2939 0.961 . S
H2955 C2939 0.960 . S
C2956 C2957 1.391 . S
C2956 C2958 1.394 . S
C2956 H2972 0.931 . S
C2957 C2956 1.391 . S
C2957 C2961 1.376 . S
C2958 C2956 1.394 . S
C2958 C2959 1.369 . S
C2958 C2962 1.531 . S
C2959 C2958 1.369 . S
C2959 C2960 1.410 . S
C2959 C2967 1.503 . S
C2960 C2959 1.410 . S
C2960 C2961 1.392 . S
C2960 C2963 1.511 . S
C2961 C2957 1.376 . S
C2961 C2960 1.392 . S
C2961 H2973 0.929 . S
C2962 C2958 1.531 . S
C2962 H2974 0.960 1_565 S
C2962 H2975 0.962 . S
C2962 H2976 0.960 1_565 S
C2963 C2960 1.511 . S
C2963 H2977 0.961 . S
C2963 H2978 0.961 . S
C2963 H2979 1.016 . S
C2964 C2965 1.370 . S
C2964 C2966 1.363 . S
C2964 H2980 0.931 . S
C2965 C2964 1.370 . S
C2965 C2969 1.408 1_565 S
C2966 C2964 1.363 . S
C2966 C2967 1.370 . S
C2966 C2970 1.524 . S
C2967 C2959 1.503 . S
C2967 C2966 1.370 . S
C2967 C2968 1.403 1_565 S
C2968 C2967 1.403 1_545 S
C2968 C2969 1.404 . S
C2968 C2971 1.539 . S
C2969 C2965 1.408 1_545 S
C2969 C2968 1.404 . S
C2969 H2981 0.930 . S
C2970 C2966 1.524 . S
C2970 H2982 0.956 . S
C2970 H2983 0.961 . S
C2970 H2984 0.961 . S
C2971 C2968 1.539 . S
C2971 H2985 0.958 . S
C2971 H2986 0.961 . S
C2971 H2987 0.960 . S
H2972 C2956 0.931 . S
H2973 C2961 0.929 . S
H2974 C2962 0.960 1_545 S
H2975 C2962 0.962 . S
H2976 C2962 0.960 1_545 S
H2977 C2963 0.961 . S
H2978 C2963 0.961 . S
H2979 C2963 1.016 . S
H2980 C2964 0.931 . S
H2981 C2969 0.930 . S
H2982 C2970 0.956 . S
H2983 C2970 0.961 . S
H2984 C2970 0.961 . S
H2985 C2971 0.958 . S
H2986 C2971 0.961 . S
H2987 C2971 0.960 . S
C2988 C2989 1.391 . S
C2988 C2990 1.394 . S
C2988 H3004 0.922 . S
C2989 C2988 1.391 . S
C2989 C2993 1.376 . S
C2990 C2988 1.394 . S
C2990 C2991 1.369 . S
C2990 C2994 1.531 1_545 S
C2991 C2990 1.369 . S
C2991 C2992 1.410 . S
C2991 C2999 1.503 . S
C2992 C2991 1.410 . S
C2992 C2993 1.392 . S
C2992 C2995 1.511 . S
C2993 C2989 1.376 . S
C2993 C2992 1.392 . S
C2993 H3005 0.929 . S
C2994 C2990 1.531 1_565 S
C2994 H3006 0.988 . S
C2994 H3007 0.962 . S
C2994 H3008 0.960 . S
C2995 C2992 1.511 . S
C2995 H3009 0.961 . S
C2995 H3010 0.961 . S
C2995 H3011 0.961 . S
C2996 C2997 1.370 1_565 S
C2996 C2998 1.370 1_565 S
C2996 H3012 0.931 . S
C2997 C2996 1.370 1_545 S
C2997 C3001 1.408 . S
C2998 C2996 1.370 1_545 S
C2998 C2999 1.377 . S
C2998 C3002 1.511 1_545 S
C2999 C2991 1.503 . S
C2999 C2998 1.377 . S
C2999 C3000 1.403 . S
C3000 C2999 1.403 . S
C3000 C3001 1.404 . S
C3000 C3003 1.539 . S
C3001 C2997 1.408 . S
C3001 C3000 1.404 . S
C3001 H3013 0.930 . S
C3002 C2998 1.511 1_565 S
C3002 H3014 0.956 . S
C3002 H3015 0.961 . S
C3002 H3016 0.961 . S
C3003 C3000 1.539 . S
C3003 H3017 0.958 . S
C3003 H3018 0.961 . S
C3003 H3019 0.960 . S
H3004 C2988 0.922 . S
H3005 C2993 0.929 . S
H3006 C2994 0.988 . S
H3007 C2994 0.962 . S
H3008 C2994 0.960 . S
H3009 C2995 0.961 . S
H3010 C2995 0.961 . S
H3011 C2995 0.961 . S
H3012 C2996 0.931 . S
H3013 C3001 0.930 . S
H3014 C3002 0.956 . S
H3015 C3002 0.961 . S
H3016 C3002 0.961 . S
H3017 C3003 0.958 . S
H3018 C3003 0.961 . S
H3019 C3003 0.960 . S
C3020 C3021 1.391 1_455 S
C3020 C3022 1.394 . S
C3020 H3036 0.931 . S
C3021 C3020 1.391 1_655 S
C3021 C3025 1.376 . S
C3022 C3020 1.394 . S
C3022 C3023 1.369 1_455 S
C3022 C3026 1.531 . S
C3023 C3022 1.369 1_655 S
C3023 C3024 1.410 . S
C3023 C3031 1.503 . S
C3024 C3023 1.410 . S
C3024 C3025 1.392 . S
C3024 C3027 1.511 . S
C3025 C3021 1.376 . S
C3025 C3024 1.392 . S
C3025 H3037 0.929 . S
C3026 C3022 1.531 . S
C3026 H3038 0.960 . S
C3026 H3039 0.962 . S
C3026 H3040 0.960 . S
C3027 C3024 1.511 . S
C3027 H3041 0.961 . S
C3027 H3042 0.961 . S
C3027 H3043 0.961 . S
C3028 C3029 1.370 . S
C3028 C3030 1.363 . S
C3028 H3044 0.931 . S
C3029 C3028 1.370 . S
C3029 C3033 1.408 . S
C3030 C3028 1.363 . S
C3030 C3031 1.370 . S
C3030 C3034 1.524 . S
C3031 C3023 1.503 . S
C3031 C3030 1.370 . S
C3031 C3032 1.403 . S
C3032 C3031 1.403 . S
C3032 C3033 1.404 . S
C3032 C3035 1.539 . S
C3033 C3029 1.408 . S
C3033 C3032 1.404 . S
C3033 H3045 0.930 . S
C3034 C3030 1.524 . S
C3034 H3046 0.956 . S
C3034 H3047 0.961 . S
C3034 H3048 0.961 . S
C3035 C3032 1.539 . S
C3035 H3049 0.958 1_655 S
C3035 H3050 0.961 . S
C3035 H3051 0.960 . S
H3036 C3020 0.931 . S
H3037 C3025 0.929 . S
H3038 C3026 0.960 . S
H3039 C3026 0.962 . S
H3040 C3026 0.960 . S
H3041 C3027 0.961 . S
H3042 C3027 0.961 . S
H3043 C3027 0.961 . S
H3044 C3028 0.931 . S
H3045 C3033 0.930 . S
H3046 C3034 0.956 . S
H3047 C3034 0.961 . S
H3048 C3034 0.961 . S
H3049 C3035 0.958 1_455 S
H3050 C3035 0.961 . S
H3051 C3035 0.960 . S
C3052 C3053 1.391 . S
C3052 C3054 1.394 . S
C3052 H3068 0.931 . S
C3053 C3052 1.391 . S
C3053 C3057 1.376 . S
C3054 C3052 1.394 . S
C3054 C3055 1.369 . S
C3054 C3058 1.531 . S
C3055 C3054 1.369 . S
C3055 C3056 1.410 . S
C3055 C3063 1.503 . S
C3056 C3055 1.410 . S
C3056 C3057 1.392 . S
C3056 C3059 1.511 . S
C3057 C3053 1.376 . S
C3057 C3056 1.392 . S
C3057 H3069 0.929 . S
C3058 C3054 1.531 . S
C3058 H3070 0.960 . S
C3058 H3071 0.962 . S
C3058 H3072 0.960 . S
C3059 C3056 1.511 . S
C3059 H3073 0.961 . S
C3059 H3074 0.961 . S
C3059 H3075 0.961 . S
C3060 C3061 1.370 . S
C3060 C3062 1.363 . S
C3060 H3076 0.931 . S
C3061 C3060 1.370 . S
C3061 C3065 1.408 . S
C3062 C3060 1.363 . S
C3062 C3063 1.370 . S
C3062 C3066 1.524 . S
C3063 C3055 1.503 . S
C3063 C3062 1.370 . S
C3063 C3064 1.403 . S
C3064 C3063 1.403 . S
C3064 C3065 1.404 . S
C3064 C3067 1.539 . S
C3065 C3061 1.408 . S
C3065 C3064 1.404 . S
C3065 H3077 0.930 . S
C3066 C3062 1.524 . S
C3066 H3078 0.956 . S
C3066 H3079 0.961 . S
C3066 H3080 0.961 . S
C3067 C3064 1.539 . S
C3067 H3081 0.958 . S
C3067 H3082 0.961 . S
C3067 H3083 0.960 . S
H3068 C3052 0.931 . S
H3069 C3057 0.929 . S
H3070 C3058 0.960 . S
H3071 C3058 0.962 . S
H3072 C3058 0.960 . S
H3073 C3059 0.961 . S
H3074 C3059 0.961 . S
H3075 C3059 0.961 . S
H3076 C3060 0.931 . S
H3077 C3065 0.930 . S
H3078 C3066 0.956 . S
H3079 C3066 0.961 . S
H3080 C3066 0.961 . S
H3081 C3067 0.958 . S
H3082 C3067 0.961 . S
H3083 C3067 0.960 . S
C3084 C3085 1.391 . S
C3084 C3086 1.394 . S
C3084 H3100 0.931 . S
C3085 C3084 1.391 . S
C3085 C3089 1.376 . S
C3086 C3084 1.394 . S
C3086 C3087 1.369 . S
C3086 C3090 1.531 . S
C3087 C3086 1.369 . S
C3087 C3088 1.410 . S
C3087 C3095 1.503 . S
C3088 C3087 1.410 . S
C3088 C3089 1.392 . S
C3088 C3091 1.511 . S
C3089 C3085 1.376 . S
C3089 C3088 1.392 . S
C3089 H3101 0.929 . S
C3090 C3086 1.531 . S
C3090 H3102 0.960 . S
C3090 H3103 0.962 . S
C3090 H3104 0.960 . S
C3091 C3088 1.511 . S
C3091 H3105 0.961 . S
C3091 H3106 0.961 . S
C3091 H3107 0.961 . S
C3092 C3093 1.370 . S
C3092 C3094 1.363 . S
C3092 H3108 0.931 . S
C3093 C3092 1.370 . S
C3093 C3097 1.408 . S
C3094 C3092 1.363 . S
C3094 C3095 1.370 . S
C3094 C3098 1.524 . S
C3095 C3087 1.503 . S
C3095 C3094 1.370 . S
C3095 C3096 1.403 . S
C3096 C3095 1.403 . S
C3096 C3097 1.404 . S
C3096 C3099 1.539 . S
C3097 C3093 1.408 . S
C3097 C3096 1.404 . S
C3097 H3109 0.930 . S
C3098 C3094 1.524 . S
C3098 H3110 0.956 . S
C3098 H3111 0.961 . S
C3098 H3112 0.961 . S
C3099 C3096 1.539 . S
C3099 H3113 0.958 . S
C3099 H3114 0.961 . S
C3099 H3115 0.960 . S
H3100 C3084 0.931 . S
H3101 C3089 0.929 . S
H3102 C3090 0.960 . S
H3103 C3090 0.962 . S
H3104 C3090 0.960 . S
H3105 C3091 0.961 . S
H3106 C3091 0.961 . S
H3107 C3091 0.961 . S
H3108 C3092 0.931 . S
H3109 C3097 0.930 . S
H3110 C3098 0.956 . S
H3111 C3098 0.961 . S
H3112 C3098 0.961 . S
H3113 C3099 0.958 . S
H3114 C3099 0.961 . S
H3115 C3099 0.960 . S
C3116 C3117 1.391 . S
C3116 C3118 1.394 . S
C3116 H3132 0.931 . S
C3117 C3116 1.391 . S
C3117 C3121 1.376 . S
C3118 C3116 1.394 . S
C3118 C3119 1.369 . S
C3118 C3122 1.531 . S
C3119 C3118 1.369 . S
C3119 C3120 1.410 . S
C3119 C3127 1.503 . S
C3120 C3119 1.410 . S
C3120 C3121 1.392 . S
C3120 C3123 1.511 . S
C3121 C3117 1.376 . S
C3121 C3120 1.392 . S
C3121 H3133 0.929 . S
C3122 C3118 1.531 . S
C3122 H3134 0.960 . S
C3122 H3135 0.962 . S
C3122 H3136 0.960 . S
C3123 C3120 1.511 . S
C3123 H3137 0.961 . S
C3123 H3138 0.961 . S
C3123 H3139 0.961 . S
C3124 C3125 1.370 . S
C3124 C3126 1.363 . S
C3124 H3140 0.931 . S
C3125 C3124 1.370 . S
C3125 C3129 1.408 . S
C3126 C3124 1.363 . S
C3126 C3127 1.370 . S
C3126 C3130 1.524 . S
C3127 C3119 1.503 . S
C3127 C3126 1.370 . S
C3127 C3128 1.403 . S
C3128 C3127 1.403 . S
C3128 C3129 1.404 . S
C3128 C3131 1.539 . S
C3129 C3125 1.408 . S
C3129 C3128 1.404 . S
C3129 H3141 0.930 . S
C3130 C3126 1.524 . S
C3130 H3142 0.956 . S
C3130 H3143 0.961 . S
C3130 H3144 0.961 . S
C3131 C3128 1.539 . S
C3131 H3145 0.958 . S
C3131 H3146 0.961 . S
C3131 H3147 0.960 . S
H3132 C3116 0.931 . S
H3133 C3121 0.929 . S
H3134 C3122 0.960 . S
H3135 C3122 0.962 . S
H3136 C3122 0.960 . S
H3137 C3123 0.961 . S
H3138 C3123 0.961 . S
H3139 C3123 0.961 . S
H3140 C3124 0.931 . S
H3141 C3129 0.930 . S
H3142 C3130 0.956 . S
H3143 C3130 0.961 . S
H3144 C3130 0.961 . S
H3145 C3131 0.958 . S
H3146 C3131 0.961 . S
H3147 C3131 0.960 . S
C3148 C3149 1.391 . S
C3148 C3150 1.394 . S
C3148 H3164 0.931 . S
C3149 C3148 1.391 . S
C3149 C3153 1.376 . S
C3150 C3148 1.394 . S
C3150 C3151 1.369 . S
C3150 C3154 1.531 . S
C3151 C3150 1.369 . S
C3151 C3152 1.410 . S
C3151 C3159 1.503 . S
C3152 C3151 1.410 . S
C3152 C3153 1.392 . S
C3152 C3155 1.511 . S
C3153 C3149 1.376 . S
C3153 C3152 1.392 . S
C3153 H3165 0.929 . S
C3154 C3150 1.531 . S
C3154 H3166 0.960 . S
C3154 H3167 0.962 . S
C3154 H3168 0.960 . S
C3155 C3152 1.511 . S
C3155 H3169 0.961 . S
C3155 H3170 0.961 . S
C3155 H3171 0.961 . S
C3156 C3157 1.370 . S
C3156 C3158 1.363 . S
C3156 H3172 0.931 . S
C3157 C3156 1.370 . S
C3157 C3161 1.408 . S
C3158 C3156 1.363 . S
C3158 C3159 1.370 . S
C3158 C3162 1.524 . S
C3159 C3151 1.503 . S
C3159 C3158 1.370 . S
C3159 C3160 1.403 . S
C3160 C3159 1.403 . S
C3160 C3161 1.404 . S
C3160 C3163 1.539 . S
C3161 C3157 1.408 . S
C3161 C3160 1.404 . S
C3161 H3173 0.930 . S
C3162 C3158 1.524 . S
C3162 H3174 0.956 . S
C3162 H3175 0.961 . S
C3162 H3176 0.961 . S
C3163 C3160 1.539 . S
C3163 H3177 0.958 . S
C3163 H3178 0.961 . S
C3163 H3179 0.960 . S
H3164 C3148 0.931 . S
H3165 C3153 0.929 . S
H3166 C3154 0.960 . S
H3167 C3154 0.962 . S
H3168 C3154 0.960 . S
H3169 C3155 0.961 . S
H3170 C3155 0.961 . S
H3171 C3155 0.961 . S
H3172 C3156 0.931 . S
H3173 C3161 0.930 . S
H3174 C3162 0.956 . S
H3175 C3162 0.961 . S
H3176 C3162 0.961 . S
H3177 C3163 0.958 . S
H3178 C3163 0.961 . S
H3179 C3163 0.960 . S
C3180 C3181 1.391 . S
C3180 C3182 1.394 . S
C3180 H3196 0.931 . S
C3181 C3180 1.391 . S
C3181 C3185 1.376 . S
C3182 C3180 1.394 . S
C3182 C3183 1.369 . S
C3182 C3186 1.531 . S
C3183 C3182 1.369 . S
C3183 C3184 1.410 . S
C3183 C3191 1.503 . S
C3184 C3183 1.410 . S
C3184 C3185 1.392 . S
C3184 C3187 1.511 . S
C3185 C3181 1.376 . S
C3185 C3184 1.392 . S
C3185 H3197 0.929 . S
C3186 C3182 1.531 . S
C3186 H3198 0.960 . S
C3186 H3199 0.962 . S
C3186 H3200 0.960 . S
C3187 C3184 1.511 . S
C3187 H3201 0.961 . S
C3187 H3202 0.961 . S
C3187 H3203 0.961 . S
C3188 C3189 1.370 . S
C3188 C3190 1.363 . S
C3188 H3204 0.931 . S
C3189 C3188 1.370 . S
C3189 C3193 1.408 . S
C3190 C3188 1.363 . S
C3190 C3191 1.370 . S
C3190 C3194 1.524 . S
C3191 C3183 1.503 . S
C3191 C3190 1.370 . S
C3191 C3192 1.403 . S
C3192 C3191 1.403 . S
C3192 C3193 1.404 . S
C3192 C3195 1.539 . S
C3193 C3189 1.408 . S
C3193 C3192 1.404 . S
C3193 H3205 0.930 . S
C3194 C3190 1.524 . S
C3194 H3206 0.956 . S
C3194 H3207 0.961 . S
C3194 H3208 0.961 . S
C3195 C3192 1.539 . S
C3195 H3209 0.958 . S
C3195 H3210 0.961 . S
C3195 H3211 0.960 . S
H3196 C3180 0.931 . S
H3197 C3185 0.929 . S
H3198 C3186 0.960 . S
H3199 C3186 0.962 . S
H3200 C3186 0.960 . S
H3201 C3187 0.961 . S
H3202 C3187 0.961 . S
H3203 C3187 0.961 . S
H3204 C3188 0.931 . S
H3205 C3193 0.930 . S
H3206 C3194 0.956 . S
H3207 C3194 0.961 . S
H3208 C3194 0.961 . S
H3209 C3195 0.958 . S
H3210 C3195 0.961 . S
H3211 C3195 0.960 . S
C3212 C3213 1.391 . S
C3212 C3214 1.394 . S
C3212 H3228 0.931 . S
C3213 C3212 1.391 . S
C3213 C3217 1.376 . S
C3214 C3212 1.394 . S
C3214 C3215 1.369 . S
C3214 C3218 1.531 . S
C3215 C3214 1.369 . S
C3215 C3216 1.410 . S
C3215 C3223 1.503 . S
C3216 C3215 1.410 . S
C3216 C3217 1.392 . S
C3216 C3219 1.511 . S
C3217 C3213 1.376 . S
C3217 C3216 1.392 . S
C3217 H3229 0.929 . S
C3218 C3214 1.531 . S
C3218 H3230 0.960 . S
C3218 H3231 0.962 . S
C3218 H3232 0.960 . S
C3219 C3216 1.511 . S
C3219 H3233 0.961 . S
C3219 H3234 0.961 . S
C3219 H3235 0.961 . S
C3220 C3221 1.370 . S
C3220 C3222 1.363 . S
C3220 H3236 0.931 . S
C3221 C3220 1.370 . S
C3221 C3225 1.408 . S
C3222 C3220 1.363 . S
C3222 C3223 1.370 . S
C3222 C3226 1.524 . S
C3223 C3215 1.503 . S
C3223 C3222 1.370 . S
C3223 C3224 1.403 . S
C3224 C3223 1.403 . S
C3224 C3225 1.404 . S
C3224 C3227 1.539 . S
C3225 C3221 1.408 . S
C3225 C3224 1.404 . S
C3225 H3237 0.930 . S
C3226 C3222 1.524 . S
C3226 H3238 0.956 . S
C3226 H3239 0.961 . S
C3226 H3240 0.961 . S
C3227 C3224 1.539 . S
C3227 H3241 0.958 . S
C3227 H3242 0.961 . S
C3227 H3243 0.960 . S
H3228 C3212 0.931 . S
H3229 C3217 0.929 . S
H3230 C3218 0.960 . S
H3231 C3218 0.962 . S
H3232 C3218 0.960 . S
H3233 C3219 0.961 . S
H3234 C3219 0.961 . S
H3235 C3219 0.961 . S
H3236 C3220 0.931 . S
H3237 C3225 0.930 . S
H3238 C3226 0.956 . S
H3239 C3226 0.961 . S
H3240 C3226 0.961 . S
H3241 C3227 0.958 . S
H3242 C3227 0.961 . S
H3243 C3227 0.960 . S
C3244 C3245 1.391 . S
C3244 C3246 1.394 . S
C3244 H3260 0.931 . S
C3245 C3244 1.391 . S
C3245 C3249 1.376 . S
C3246 C3244 1.394 . S
C3246 C3247 1.369 . S
C3246 C3250 1.531 . S
C3247 C3246 1.369 . S
C3247 C3248 1.410 . S
C3247 C3255 1.503 . S
C3248 C3247 1.410 . S
C3248 C3249 1.392 . S
C3248 C3251 1.511 . S
C3249 C3245 1.376 . S
C3249 C3248 1.392 . S
C3249 H3261 0.929 . S
C3250 C3246 1.531 . S
C3250 H3262 0.960 . S
C3250 H3263 0.962 . S
C3250 H3264 0.960 . S
C3251 C3248 1.511 . S
C3251 H3265 0.961 . S
C3251 H3266 0.961 . S
C3251 H3267 0.961 . S
C3252 C3253 1.370 . S
C3252 C3254 1.363 . S
C3252 H3268 0.931 . S
C3253 C3252 1.370 . S
C3253 C3257 1.408 . S
C3254 C3252 1.363 . S
C3254 C3255 1.370 . S
C3254 C3258 1.524 . S
C3255 C3247 1.503 . S
C3255 C3254 1.370 . S
C3255 C3256 1.403 . S
C3256 C3255 1.403 . S
C3256 C3257 1.404 . S
C3256 C3259 1.539 . S
C3257 C3253 1.408 . S
C3257 C3256 1.404 . S
C3257 H3269 0.930 . S
C3258 C3254 1.524 . S
C3258 H3270 0.956 . S
C3258 H3271 0.961 . S
C3258 H3272 0.961 . S
C3259 C3256 1.539 . S
C3259 H3273 0.958 . S
C3259 H3274 0.961 . S
C3259 H3275 0.960 . S
H3260 C3244 0.931 . S
H3261 C3249 0.929 . S
H3262 C3250 0.960 . S
H3263 C3250 0.962 . S
H3264 C3250 0.960 . S
H3265 C3251 0.961 . S
H3266 C3251 0.961 . S
H3267 C3251 0.961 . S
H3268 C3252 0.931 . S
H3269 C3257 0.930 . S
H3270 C3258 0.956 . S
H3271 C3258 0.961 . S
H3272 C3258 0.961 . S
H3273 C3259 0.958 . S
H3274 C3259 0.961 . S
H3275 C3259 0.960 . S
C3276 C3277 1.391 . S
C3276 C3278 1.394 . S
C3276 H3292 0.931 . S
C3277 C3276 1.391 . S
C3277 C3281 1.376 . S
C3278 C3276 1.394 . S
C3278 C3279 1.369 . S
C3278 C3282 1.531 . S
C3279 C3278 1.369 . S
C3279 C3280 1.410 . S
C3279 C3287 1.503 . S
C3280 C3279 1.410 . S
C3280 C3281 1.392 . S
C3280 C3283 1.511 . S
C3281 C3277 1.376 . S
C3281 C3280 1.392 . S
C3281 H3293 0.929 . S
C3282 C3278 1.531 . S
C3282 H3294 0.960 . S
C3282 H3295 0.962 . S
C3282 H3296 0.960 . S
C3283 C3280 1.511 . S
C3283 H3297 0.961 . S
C3283 H3298 0.961 . S
C3283 H3299 0.961 . S
C3284 C3285 1.370 . S
C3284 C3286 1.363 . S
C3284 H3300 0.931 . S
C3285 C3284 1.370 . S
C3285 C3289 1.408 . S
C3286 C3284 1.363 . S
C3286 C3287 1.370 . S
C3286 C3290 1.524 . S
C3287 C3279 1.503 . S
C3287 C3286 1.370 . S
C3287 C3288 1.403 . S
C3288 C3287 1.403 . S
C3288 C3289 1.404 . S
C3288 C3291 1.539 . S
C3289 C3285 1.408 . S
C3289 C3288 1.404 . S
C3289 H3301 0.930 . S
C3290 C3286 1.524 . S
C3290 H3302 0.956 . S
C3290 H3303 0.961 . S
C3290 H3304 0.961 . S
C3291 C3288 1.539 . S
C3291 H3305 0.958 . S
C3291 H3306 0.961 . S
C3291 H3307 0.960 . S
H3292 C3276 0.931 . S
H3293 C3281 0.929 . S
H3294 C3282 0.960 . S
H3295 C3282 0.962 . S
H3296 C3282 0.960 . S
H3297 C3283 0.961 . S
H3298 C3283 0.961 . S
H3299 C3283 0.961 . S
H3300 C3284 0.931 . S
H3301 C3289 0.930 . S
H3302 C3290 0.956 . S
H3303 C3290 0.961 . S
H3304 C3290 0.961 . S
H3305 C3291 0.958 . S
H3306 C3291 0.961 . S
H3307 C3291 0.960 . S
C3308 C3309 1.391 . S
C3308 C3310 1.394 . S
C3308 H3324 0.931 . S
C3309 C3308 1.391 . S
C3309 C3313 1.376 . S
C3310 C3308 1.394 . S
C3310 C3311 1.369 . S
C3310 C3314 1.531 . S
C3311 C3310 1.369 . S
C3311 C3312 1.410 . S
C3311 C3319 1.503 . S
C3312 C3311 1.410 . S
C3312 C3313 1.392 . S
C3312 C3315 1.511 . S
C3313 C3309 1.376 . S
C3313 C3312 1.392 . S
C3313 H3325 0.929 . S
C3314 C3310 1.531 . S
C3314 H3326 0.960 . S
C3314 H3327 0.962 . S
C3314 H3328 0.960 . S
C3315 C3312 1.511 . S
C3315 H3329 0.961 . S
C3315 H3330 0.961 . S
C3315 H3331 0.961 . S
C3316 C3317 1.370 . S
C3316 C3318 1.363 . S
C3316 H3332 0.931 . S
C3317 C3316 1.370 . S
C3317 C3321 1.408 . S
C3318 C3316 1.363 . S
C3318 C3319 1.370 . S
C3318 C3322 1.524 . S
C3319 C3311 1.503 . S
C3319 C3318 1.370 . S
C3319 C3320 1.403 . S
C3320 C3319 1.403 . S
C3320 C3321 1.404 . S
C3320 C3323 1.539 . S
C3321 C3317 1.408 . S
C3321 C3320 1.404 . S
C3321 H3333 0.930 . S
C3322 C3318 1.524 . S
C3322 H3334 0.956 . S
C3322 H3335 0.961 . S
C3322 H3336 0.961 . S
C3323 C3320 1.539 . S
C3323 H3337 0.958 . S
C3323 H3338 0.961 . S
C3323 H3339 0.960 . S
H3324 C3308 0.931 . S
H3325 C3313 0.929 . S
H3326 C3314 0.960 . S
H3327 C3314 0.962 . S
H3328 C3314 0.960 . S
H3329 C3315 0.961 . S
H3330 C3315 0.961 . S
H3331 C3315 0.961 . S
H3332 C3316 0.931 . S
H3333 C3321 0.930 . S
H3334 C3322 0.956 . S
H3335 C3322 0.961 . S
H3336 C3322 0.961 . S
H3337 C3323 0.958 . S
H3338 C3323 0.961 . S
H3339 C3323 0.960 . S
C3340 C3341 1.391 . S
C3340 C3342 1.394 . S
C3340 H3356 0.931 . S
C3341 C3340 1.391 . S
C3341 C3345 1.376 . S
C3342 C3340 1.394 . S
C3342 C3343 1.369 . S
C3342 C3346 1.531 . S
C3343 C3342 1.369 . S
C3343 C3344 1.410 . S
C3343 C3351 1.503 . S
C3344 C3343 1.410 . S
C3344 C3345 1.392 . S
C3344 C3347 1.511 . S
C3345 C3341 1.376 . S
C3345 C3344 1.392 . S
C3345 H3357 0.929 . S
C3346 C3342 1.531 . S
C3346 H3358 0.960 . S
C3346 H3359 0.962 . S
C3346 H3360 0.960 . S
C3347 C3344 1.511 . S
C3347 H3361 0.961 . S
C3347 H3362 0.961 . S
C3347 H3363 0.961 . S
C3348 C3349 1.370 . S
C3348 C3350 1.363 . S
C3348 H3364 0.931 . S
C3349 C3348 1.370 . S
C3349 C3353 1.408 . S
C3350 C3348 1.363 . S
C3350 C3351 1.370 . S
C3350 C3354 1.524 . S
C3351 C3343 1.503 . S
C3351 C3350 1.370 . S
C3351 C3352 1.403 . S
C3352 C3351 1.403 . S
C3352 C3353 1.404 . S
C3352 C3355 1.539 . S
C3353 C3349 1.408 . S
C3353 C3352 1.404 . S
C3353 H3365 0.930 . S
C3354 C3350 1.524 . S
C3354 H3366 0.956 . S
C3354 H3367 0.961 . S
C3354 H3368 0.961 . S
C3355 C3352 1.539 . S
C3355 H3369 0.958 . S
C3355 H3370 0.961 . S
C3355 H3371 0.960 . S
H3356 C3340 0.931 . S
H3357 C3345 0.929 . S
H3358 C3346 0.960 . S
H3359 C3346 0.962 . S
H3360 C3346 0.960 . S
H3361 C3347 0.961 . S
H3362 C3347 0.961 . S
H3363 C3347 0.961 . S
H3364 C3348 0.931 . S
H3365 C3353 0.930 . S
H3366 C3354 0.956 . S
H3367 C3354 0.961 . S
H3368 C3354 0.961 . S
H3369 C3355 0.958 . S
H3370 C3355 0.961 . S
H3371 C3355 0.960 . S
C3372 C3373 1.391 . S
C3372 C3374 1.394 . S
C3372 H3388 0.931 . S
C3373 C3372 1.391 . S
C3373 C3377 1.376 . S
C3374 C3372 1.394 . S
C3374 C3375 1.369 . S
C3374 C3378 1.531 . S
C3375 C3374 1.369 . S
C3375 C3376 1.410 . S
C3375 C3383 1.503 . S
C3376 C3375 1.410 . S
C3376 C3377 1.392 . S
C3376 C3379 1.511 . S
C3377 C3373 1.376 . S
C3377 C3376 1.392 . S
C3377 H3389 0.929 . S
C3378 C3374 1.531 . S
C3378 H3390 0.960 . S
C3378 H3391 0.962 . S
C3378 H3392 0.960 . S
C3379 C3376 1.511 . S
C3379 H3393 0.961 . S
C3379 H3394 0.961 . S
C3379 H3395 0.961 . S
C3380 C3381 1.370 . S
C3380 C3382 1.363 . S
C3380 H3396 0.931 . S
C3381 C3380 1.370 . S
C3381 C3385 1.408 . S
C3382 C3380 1.363 . S
C3382 C3383 1.370 . S
C3382 C3386 1.524 . S
C3383 C3375 1.503 . S
C3383 C3382 1.370 . S
C3383 C3384 1.403 . S
C3384 C3383 1.403 . S
C3384 C3385 1.404 . S
C3384 C3387 1.539 . S
C3385 C3381 1.408 . S
C3385 C3384 1.404 . S
C3385 H3397 0.930 . S
C3386 C3382 1.524 . S
C3386 H3398 0.956 . S
C3386 H3399 0.961 . S
C3386 H3400 0.961 . S
C3387 C3384 1.539 . S
C3387 H3401 0.958 . S
C3387 H3402 0.961 . S
C3387 H3403 0.960 . S
H3388 C3372 0.931 . S
H3389 C3377 0.929 . S
H3390 C3378 0.960 . S
H3391 C3378 0.962 . S
H3392 C3378 0.960 . S
H3393 C3379 0.961 . S
H3394 C3379 0.961 . S
H3395 C3379 0.961 . S
H3396 C3380 0.931 . S
H3397 C3385 0.930 . S
H3398 C3386 0.956 . S
H3399 C3386 0.961 . S
H3400 C3386 0.961 . S
H3401 C3387 0.958 . S
H3402 C3387 0.961 . S
H3403 C3387 0.960 . S
C3404 C3405 1.391 . S
C3404 C3406 1.394 . S
C3404 H3420 0.931 . S
C3405 C3404 1.391 . S
C3405 C3409 1.376 . S
C3406 C3404 1.394 . S
C3406 C3407 1.369 . S
C3406 C3410 1.531 . S
C3407 C3406 1.369 . S
C3407 C3408 1.410 . S
C3407 C3415 1.503 . S
C3408 C3407 1.410 . S
C3408 C3409 1.392 . S
C3408 C3411 1.511 . S
C3409 C3405 1.376 . S
C3409 C3408 1.392 . S
C3409 H3421 0.929 . S
C3410 C3406 1.531 . S
C3410 H3422 0.960 . S
C3410 H3423 0.962 . S
C3410 H3424 0.960 . S
C3411 C3408 1.511 . S
C3411 H3425 0.961 . S
C3411 H3426 0.961 . S
C3411 H3427 0.961 . S
C3412 C3413 1.370 . S
C3412 C3414 1.363 . S
C3412 H3428 0.931 . S
C3413 C3412 1.370 . S
C3413 C3417 1.408 . S
C3414 C3412 1.363 . S
C3414 C3415 1.370 . S
C3414 C3418 1.524 . S
C3415 C3407 1.503 . S
C3415 C3414 1.370 . S
C3415 C3416 1.403 . S
C3416 C3415 1.403 . S
C3416 C3417 1.404 . S
C3416 C3419 1.539 . S
C3417 C3413 1.408 . S
C3417 C3416 1.404 . S
C3417 H3429 0.930 . S
C3418 C3414 1.524 . S
C3418 H3430 0.956 . S
C3418 H3431 0.961 . S
C3418 H3432 0.961 . S
C3419 C3416 1.539 . S
C3419 H3433 0.958 . S
C3419 H3434 0.961 . S
C3419 H3435 0.960 . S
H3420 C3404 0.931 . S
H3421 C3409 0.929 . S
H3422 C3410 0.960 . S
H3423 C3410 0.962 . S
H3424 C3410 0.960 . S
H3425 C3411 0.961 . S
H3426 C3411 0.961 . S
H3427 C3411 0.961 . S
H3428 C3412 0.931 . S
H3429 C3417 0.930 . S
H3430 C3418 0.956 . S
H3431 C3418 0.961 . S
H3432 C3418 0.961 . S
H3433 C3419 0.958 . S
H3434 C3419 0.961 . S
H3435 C3419 0.960 . S
C3436 C3437 1.391 . S
C3436 C3438 1.394 . S
C3436 H3452 0.931 . S
C3437 C3436 1.391 . S
C3437 C3441 1.376 . S
C3438 C3436 1.394 . S
C3438 C3439 1.369 . S
C3438 C3442 1.531 . S
C3439 C3438 1.369 . S
C3439 C3440 1.410 . S
C3439 C3447 1.503 . S
C3440 C3439 1.410 . S
C3440 C3441 1.392 . S
C3440 C3443 1.511 . S
C3441 C3437 1.376 . S
C3441 C3440 1.392 . S
C3441 H3453 0.929 . S
C3442 C3438 1.531 . S
C3442 H3454 0.960 . S
C3442 H3455 0.962 . S
C3442 H3456 0.960 . S
C3443 C3440 1.511 . S
C3443 H3457 0.961 . S
C3443 H3458 0.961 . S
C3443 H3459 0.961 . S
C3444 C3445 1.370 . S
C3444 C3446 1.363 . S
C3444 H3460 0.931 . S
C3445 C3444 1.370 . S
C3445 C3449 1.408 . S
C3446 C3444 1.363 . S
C3446 C3447 1.370 . S
C3446 C3450 1.524 . S
C3447 C3439 1.503 . S
C3447 C3446 1.370 . S
C3447 C3448 1.403 . S
C3448 C3447 1.403 . S
C3448 C3449 1.404 . S
C3448 C3451 1.539 . S
C3449 C3445 1.408 . S
C3449 C3448 1.404 . S
C3449 H3461 0.930 . S
C3450 C3446 1.524 . S
C3450 H3462 0.956 . S
C3450 H3463 0.961 . S
C3450 H3464 0.961 . S
C3451 C3448 1.539 . S
C3451 H3465 0.958 . S
C3451 H3466 0.961 . S
C3451 H3467 0.960 . S
H3452 C3436 0.931 . S
H3453 C3441 0.929 . S
H3454 C3442 0.960 . S
H3455 C3442 0.962 . S
H3456 C3442 0.960 . S
H3457 C3443 0.961 . S
H3458 C3443 0.961 . S
H3459 C3443 0.961 . S
H3460 C3444 0.931 . S
H3461 C3449 0.930 . S
H3462 C3450 0.956 . S
H3463 C3450 0.961 . S
H3464 C3450 0.961 . S
H3465 C3451 0.958 . S
H3466 C3451 0.961 . S
H3467 C3451 0.960 . S
C3468 C3469 1.391 . S
C3468 C3470 1.394 . S
C3468 H3484 0.931 . S
C3469 C3468 1.391 . S
C3469 C3473 1.376 . S
C3470 C3468 1.394 . S
C3470 C3471 1.369 . S
C3470 C3474 1.531 . S
C3471 C3470 1.369 . S
C3471 C3472 1.410 . S
C3471 C3479 1.503 . S
C3472 C3471 1.410 . S
C3472 C3473 1.392 . S
C3472 C3475 1.511 . S
C3473 C3469 1.376 . S
C3473 C3472 1.392 . S
C3473 H3485 0.929 . S
C3474 C3470 1.531 . S
C3474 H3486 0.960 . S
C3474 H3487 0.962 . S
C3474 H3488 0.960 . S
C3475 C3472 1.511 . S
C3475 H3489 0.961 . S
C3475 H3490 0.961 . S
C3475 H3491 0.961 . S
C3476 C3477 1.370 . S
C3476 C3478 1.363 . S
C3476 H3492 0.931 . S
C3477 C3476 1.370 . S
C3477 C3481 1.408 . S
C3478 C3476 1.363 . S
C3478 C3479 1.370 . S
C3478 C3482 1.524 . S
C3479 C3471 1.503 . S
C3479 C3478 1.370 . S
C3479 C3480 1.403 . S
C3480 C3479 1.403 . S
C3480 C3481 1.404 . S
C3480 C3483 1.539 . S
C3481 C3477 1.408 . S
C3481 C3480 1.404 . S
C3481 H3493 0.930 . S
C3482 C3478 1.524 . S
C3482 H3494 0.956 . S
C3482 H3495 0.961 . S
C3482 H3496 0.961 . S
C3483 C3480 1.539 . S
C3483 H3497 0.958 . S
C3483 H3498 0.961 . S
C3483 H3499 0.960 . S
H3484 C3468 0.931 . S
H3485 C3473 0.929 . S
H3486 C3474 0.960 . S
H3487 C3474 0.962 . S
H3488 C3474 0.960 . S
H3489 C3475 0.961 . S
H3490 C3475 0.961 . S
H3491 C3475 0.961 . S
H3492 C3476 0.931 . S
H3493 C3481 0.930 . S
H3494 C3482 0.956 . S
H3495 C3482 0.961 . S
H3496 C3482 0.961 . S
H3497 C3483 0.958 . S
H3498 C3483 0.961 . S
H3499 C3483 0.960 . S
C3500 C3501 1.391 . S
C3500 C3502 1.394 . S
C3500 H3516 0.931 . S
C3501 C3500 1.391 . S
C3501 C3505 1.376 . S
C3502 C3500 1.394 . S
C3502 C3503 1.369 . S
C3502 C3506 1.531 . S
C3503 C3502 1.369 . S
C3503 C3504 1.410 . S
C3503 C3511 1.503 . S
C3504 C3503 1.410 . S
C3504 C3505 1.392 . S
C3504 C3507 1.511 . S
C3505 C3501 1.376 . S
C3505 C3504 1.392 . S
C3505 H3517 0.929 . S
C3506 C3502 1.531 . S
C3506 H3518 0.960 . S
C3506 H3519 0.962 . S
C3506 H3520 0.960 . S
C3507 C3504 1.511 . S
C3507 H3521 0.961 . S
C3507 H3522 0.961 . S
C3507 H3523 0.961 . S
C3508 C3509 1.370 . S
C3508 C3510 1.363 . S
C3508 H3524 0.931 . S
C3509 C3508 1.370 . S
C3509 C3513 1.408 . S
C3510 C3508 1.363 . S
C3510 C3511 1.370 . S
C3510 C3514 1.524 . S
C3511 C3503 1.503 . S
C3511 C3510 1.370 . S
C3511 C3512 1.403 . S
C3512 C3511 1.403 . S
C3512 C3513 1.404 . S
C3512 C3515 1.539 . S
C3513 C3509 1.408 . S
C3513 C3512 1.404 . S
C3513 H3525 0.930 . S
C3514 C3510 1.524 . S
C3514 H3526 0.956 . S
C3514 H3527 0.961 . S
C3514 H3528 0.961 . S
C3515 C3512 1.539 . S
C3515 H3529 0.958 . S
C3515 H3530 0.961 . S
C3515 H3531 0.960 . S
H3516 C3500 0.931 . S
H3517 C3505 0.929 . S
H3518 C3506 0.960 . S
H3519 C3506 0.962 . S
H3520 C3506 0.960 . S
H3521 C3507 0.961 . S
H3522 C3507 0.961 . S
H3523 C3507 0.961 . S
H3524 C3508 0.931 . S
H3525 C3513 0.930 . S
H3526 C3514 0.956 . S
H3527 C3514 0.961 . S
H3528 C3514 0.961 . S
H3529 C3515 0.958 . S
H3530 C3515 0.961 . S
H3531 C3515 0.960 . S
C3532 C3533 1.391 . S
C3532 C3534 1.394 . S
C3532 H3548 0.931 . S
C3533 C3532 1.391 . S
C3533 C3537 1.376 . S
C3534 C3532 1.394 . S
C3534 C3535 1.369 . S
C3534 C3538 1.531 . S
C3535 C3534 1.369 . S
C3535 C3536 1.410 . S
C3535 C3543 1.503 . S
C3536 C3535 1.410 . S
C3536 C3537 1.392 . S
C3536 C3539 1.511 . S
C3537 C3533 1.376 . S
C3537 C3536 1.392 . S
C3537 H3549 0.929 . S
C3538 C3534 1.531 . S
C3538 H3550 0.960 . S
C3538 H3551 0.962 . S
C3538 H3552 0.960 . S
C3539 C3536 1.511 . S
C3539 H3553 0.961 . S
C3539 H3554 0.961 . S
C3539 H3555 0.961 . S
C3540 C3541 1.370 . S
C3540 C3542 1.363 . S
C3540 H3556 0.931 . S
C3541 C3540 1.370 . S
C3541 C3545 1.408 . S
C3542 C3540 1.363 . S
C3542 C3543 1.370 . S
C3542 C3546 1.524 . S
C3543 C3535 1.503 . S
C3543 C3542 1.370 . S
C3543 C3544 1.403 . S
C3544 C3543 1.403 . S
C3544 C3545 1.404 . S
C3544 C3547 1.539 . S
C3545 C3541 1.408 . S
C3545 C3544 1.404 . S
C3545 H3557 0.930 . S
C3546 C3542 1.524 . S
C3546 H3558 0.956 . S
C3546 H3559 0.961 . S
C3546 H3560 0.961 . S
C3547 C3544 1.539 . S
C3547 H3561 0.958 . S
C3547 H3562 0.961 . S
C3547 H3563 0.960 . S
H3548 C3532 0.931 . S
H3549 C3537 0.929 . S
H3550 C3538 0.960 . S
H3551 C3538 0.962 . S
H3552 C3538 0.960 . S
H3553 C3539 0.961 . S
H3554 C3539 0.961 . S
H3555 C3539 0.961 . S
H3556 C3540 0.931 . S
H3557 C3545 0.930 . S
H3558 C3546 0.956 . S
H3559 C3546 0.961 . S
H3560 C3546 0.961 . S
H3561 C3547 0.958 . S
H3562 C3547 0.961 . S
H3563 C3547 0.960 . S
C3564 C3565 1.391 . S
C3564 C3566 1.394 . S
C3564 H3580 0.931 . S
C3565 C3564 1.391 . S
C3565 C3569 1.376 . S
C3566 C3564 1.394 . S
C3566 C3567 1.369 . S
C3566 C3570 1.531 . S
C3567 C3566 1.369 . S
C3567 C3568 1.410 . S
C3567 C3575 1.503 . S
C3568 C3567 1.410 . S
C3568 C3569 1.392 . S
C3568 C3571 1.511 . S
C3569 C3565 1.376 . S
C3569 C3568 1.392 . S
C3569 H3581 0.929 . S
C3570 C3566 1.531 . S
C3570 H3582 0.960 . S
C3570 H3583 0.962 . S
C3570 H3584 0.960 . S
C3571 C3568 1.511 . S
C3571 H3585 0.961 . S
C3571 H3586 0.961 . S
C3571 H3587 0.961 . S
C3572 C3573 1.370 . S
C3572 C3574 1.363 . S
C3572 H3588 0.931 . S
C3573 C3572 1.370 . S
C3573 C3577 1.408 . S
C3574 C3572 1.363 . S
C3574 C3575 1.370 . S
C3574 C3578 1.524 . S
C3575 C3567 1.503 . S
C3575 C3574 1.370 . S
C3575 C3576 1.403 . S
C3576 C3575 1.403 . S
C3576 C3577 1.404 . S
C3576 C3579 1.539 . S
C3577 C3573 1.408 . S
C3577 C3576 1.404 . S
C3577 H3589 0.930 . S
C3578 C3574 1.524 . S
C3578 H3590 0.956 . S
C3578 H3591 0.961 . S
C3578 H3592 0.961 . S
C3579 C3576 1.539 . S
C3579 H3593 0.958 . S
C3579 H3594 0.961 . S
C3579 H3595 0.960 . S
H3580 C3564 0.931 . S
H3581 C3569 0.929 . S
H3582 C3570 0.960 . S
H3583 C3570 0.962 . S
H3584 C3570 0.960 . S
H3585 C3571 0.961 . S
H3586 C3571 0.961 . S
H3587 C3571 0.961 . S
H3588 C3572 0.931 . S
H3589 C3577 0.930 . S
H3590 C3578 0.956 . S
H3591 C3578 0.961 . S
H3592 C3578 0.961 . S
H3593 C3579 0.958 . S
H3594 C3579 0.961 . S
H3595 C3579 0.960 . S
C3596 C3597 1.391 . S
C3596 C3598 1.394 . S
C3596 H3612 0.931 . S
C3597 C3596 1.391 . S
C3597 C3601 1.376 . S
C3598 C3596 1.394 . S
C3598 C3599 1.369 . S
C3598 C3602 1.531 . S
C3599 C3598 1.369 . S
C3599 C3600 1.410 . S
C3599 C3607 1.503 . S
C3600 C3599 1.410 . S
C3600 C3601 1.392 . S
C3600 C3603 1.511 . S
C3601 C3597 1.376 . S
C3601 C3600 1.392 . S
C3601 H3613 0.929 . S
C3602 C3598 1.531 . S
C3602 H3614 0.960 . S
C3602 H3615 0.962 . S
C3602 H3616 0.960 . S
C3603 C3600 1.511 . S
C3603 H3617 0.961 . S
C3603 H3618 0.961 . S
C3603 H3619 0.961 . S
C3604 C3605 1.370 . S
C3604 C3606 1.363 . S
C3604 H3620 0.931 . S
C3605 C3604 1.370 . S
C3605 C3609 1.408 . S
C3606 C3604 1.363 . S
C3606 C3607 1.370 . S
C3606 C3610 1.524 . S
C3607 C3599 1.503 . S
C3607 C3606 1.370 . S
C3607 C3608 1.403 . S
C3608 C3607 1.403 . S
C3608 C3609 1.404 . S
C3608 C3611 1.539 . S
C3609 C3605 1.408 . S
C3609 C3608 1.404 . S
C3609 H3621 0.930 . S
C3610 C3606 1.524 . S
C3610 H3622 0.956 . S
C3610 H3623 0.961 . S
C3610 H3624 0.961 . S
C3611 C3608 1.539 . S
C3611 H3625 0.958 . S
C3611 H3626 0.961 . S
C3611 H3627 0.960 . S
H3612 C3596 0.931 . S
H3613 C3601 0.929 . S
H3614 C3602 0.960 . S
H3615 C3602 0.962 . S
H3616 C3602 0.960 . S
H3617 C3603 0.961 . S
H3618 C3603 0.961 . S
H3619 C3603 0.961 . S
H3620 C3604 0.931 . S
H3621 C3609 0.930 . S
H3622 C3610 0.956 . S
H3623 C3610 0.961 . S
H3624 C3610 0.961 . S
H3625 C3611 0.958 . S
H3626 C3611 0.961 . S
H3627 C3611 0.960 . S
C3628 C3629 1.391 . S
C3628 C3630 1.394 . S
C3628 H3644 0.931 . S
C3629 C3628 1.391 . S
C3629 C3633 1.376 . S
C3630 C3628 1.394 . S
C3630 C3631 1.369 . S
C3630 C3634 1.531 . S
C3631 C3630 1.369 . S
C3631 C3632 1.410 . S
C3631 C3639 1.503 . S
C3632 C3631 1.410 . S
C3632 C3633 1.392 . S
C3632 C3635 1.511 . S
C3633 C3629 1.376 . S
C3633 C3632 1.392 . S
C3633 H3645 0.929 . S
C3634 C3630 1.531 . S
C3634 H3646 0.960 . S
C3634 H3647 0.962 . S
C3634 H3648 0.960 . S
C3635 C3632 1.511 . S
C3635 H3649 0.961 . S
C3635 H3650 0.961 . S
C3635 H3651 0.961 . S
C3636 C3637 1.370 . S
C3636 C3638 1.363 . S
C3636 H3652 0.931 . S
C3637 C3636 1.370 . S
C3637 C3641 1.408 . S
C3638 C3636 1.363 . S
C3638 C3639 1.370 . S
C3638 C3642 1.524 . S
C3639 C3631 1.503 . S
C3639 C3638 1.370 . S
C3639 C3640 1.403 . S
C3640 C3639 1.403 . S
C3640 C3641 1.404 . S
C3640 C3643 1.539 . S
C3641 C3637 1.408 . S
C3641 C3640 1.404 . S
C3641 H3653 0.930 . S
C3642 C3638 1.524 . S
C3642 H3654 0.956 . S
C3642 H3655 0.961 . S
C3642 H3656 0.961 . S
C3643 C3640 1.539 . S
C3643 H3657 0.958 . S
C3643 H3658 0.961 . S
C3643 H3659 0.960 . S
H3644 C3628 0.931 . S
H3645 C3633 0.929 . S
H3646 C3634 0.960 . S
H3647 C3634 0.962 . S
H3648 C3634 0.960 . S
H3649 C3635 0.961 . S
H3650 C3635 0.961 . S
H3651 C3635 0.961 . S
H3652 C3636 0.931 . S
H3653 C3641 0.930 . S
H3654 C3642 0.956 . S
H3655 C3642 0.961 . S
H3656 C3642 0.961 . S
H3657 C3643 0.958 . S
H3658 C3643 0.961 . S
H3659 C3643 0.960 . S
C3660 C3661 1.391 . S
C3660 C3662 1.394 . S
C3660 H3676 0.931 . S
C3661 C3660 1.391 . S
C3661 C3665 1.376 . S
C3662 C3660 1.394 . S
C3662 C3663 1.369 . S
C3662 C3666 1.531 . S
C3663 C3662 1.369 . S
C3663 C3664 1.410 . S
C3663 C3671 1.503 . S
C3664 C3663 1.410 . S
C3664 C3665 1.392 . S
C3664 C3667 1.511 . S
C3665 C3661 1.376 . S
C3665 C3664 1.392 . S
C3665 H3677 0.929 . S
C3666 C3662 1.531 . S
C3666 H3678 0.960 . S
C3666 H3679 0.962 . S
C3666 H3680 0.960 . S
C3667 C3664 1.511 . S
C3667 H3681 0.961 . S
C3667 H3682 0.961 . S
C3667 H3683 0.961 . S
C3668 C3669 1.370 . S
C3668 C3670 1.363 . S
C3668 H3684 0.931 . S
C3669 C3668 1.370 . S
C3669 C3673 1.408 . S
C3670 C3668 1.363 . S
C3670 C3671 1.370 . S
C3670 C3674 1.524 . S
C3671 C3663 1.503 . S
C3671 C3670 1.370 . S
C3671 C3672 1.403 . S
C3672 C3671 1.403 . S
C3672 C3673 1.404 . S
C3672 C3675 1.539 . S
C3673 C3669 1.408 . S
C3673 C3672 1.404 . S
C3673 H3685 0.930 . S
C3674 C3670 1.524 . S
C3674 H3686 0.956 . S
C3674 H3687 0.961 . S
C3674 H3688 0.961 . S
C3675 C3672 1.539 . S
C3675 H3689 0.958 . S
C3675 H3690 0.961 . S
C3675 H3691 0.960 . S
H3676 C3660 0.931 . S
H3677 C3665 0.929 . S
H3678 C3666 0.960 . S
H3679 C3666 0.962 . S
H3680 C3666 0.960 . S
H3681 C3667 0.961 . S
H3682 C3667 0.961 . S
H3683 C3667 0.961 . S
H3684 C3668 0.931 . S
H3685 C3673 0.930 . S
H3686 C3674 0.956 . S
H3687 C3674 0.961 . S
H3688 C3674 0.961 . S
H3689 C3675 0.958 . S
H3690 C3675 0.961 . S
H3691 C3675 0.960 . S
C3692 C3693 1.391 . S
C3692 C3694 1.394 . S
C3692 H3708 0.931 . S
C3693 C3692 1.391 . S
C3693 C3697 1.376 . S
C3694 C3692 1.394 . S
C3694 C3695 1.369 . S
C3694 C3698 1.531 . S
C3695 C3694 1.369 . S
C3695 C3696 1.410 . S
C3695 C3703 1.503 . S
C3696 C3695 1.410 . S
C3696 C3697 1.392 . S
C3696 C3699 1.511 . S
C3697 C3693 1.376 . S
C3697 C3696 1.392 . S
C3697 H3709 0.929 . S
C3698 C3694 1.531 . S
C3698 H3710 0.960 . S
C3698 H3711 0.962 . S
C3698 H3712 0.960 . S
C3699 C3696 1.511 . S
C3699 H3713 0.961 . S
C3699 H3714 0.961 . S
C3699 H3715 0.961 . S
C3700 C3701 1.370 . S
C3700 C3702 1.363 . S
C3700 H3716 0.931 . S
C3701 C3700 1.370 . S
C3701 C3705 1.408 . S
C3702 C3700 1.363 . S
C3702 C3703 1.370 . S
C3702 C3706 1.524 . S
C3703 C3695 1.503 . S
C3703 C3702 1.370 . S
C3703 C3704 1.403 . S
C3704 C3703 1.403 . S
C3704 C3705 1.404 . S
C3704 C3707 1.539 . S
C3705 C3701 1.408 . S
C3705 C3704 1.404 . S
C3705 H3717 0.930 . S
C3706 C3702 1.524 . S
C3706 H3718 0.956 . S
C3706 H3719 0.961 . S
C3706 H3720 0.961 . S
C3707 C3704 1.539 . S
C3707 H3721 0.958 . S
C3707 H3722 0.961 . S
C3707 H3723 0.960 . S
H3708 C3692 0.931 . S
H3709 C3697 0.929 . S
H3710 C3698 0.960 . S
H3711 C3698 0.962 . S
H3712 C3698 0.960 . S
H3713 C3699 0.961 . S
H3714 C3699 0.961 . S
H3715 C3699 0.961 . S
H3716 C3700 0.931 . S
H3717 C3705 0.930 . S
H3718 C3706 0.956 . S
H3719 C3706 0.961 . S
H3720 C3706 0.961 . S
H3721 C3707 0.958 . S
H3722 C3707 0.961 . S
H3723 C3707 0.960 . S
C3724 C3725 1.391 . S
C3724 C3726 1.394 . S
C3724 H3740 0.931 . S
C3725 C3724 1.391 . S
C3725 C3729 1.376 . S
C3726 C3724 1.394 . S
C3726 C3727 1.369 . S
C3726 C3730 1.531 . S
C3727 C3726 1.369 . S
C3727 C3728 1.410 . S
C3727 C3735 1.503 . S
C3728 C3727 1.410 . S
C3728 C3729 1.392 . S
C3728 C3731 1.511 . S
C3729 C3725 1.376 . S
C3729 C3728 1.392 . S
C3729 H3741 0.929 . S
C3730 C3726 1.531 . S
C3730 H3742 0.960 . S
C3730 H3743 0.962 . S
C3730 H3744 0.960 . S
C3731 C3728 1.511 . S
C3731 H3745 0.961 . S
C3731 H3746 0.961 . S
C3731 H3747 0.961 . S
C3732 C3733 1.370 . S
C3732 C3734 1.363 . S
C3732 H3748 0.931 . S
C3733 C3732 1.370 . S
C3733 C3737 1.408 . S
C3734 C3732 1.363 . S
C3734 C3735 1.370 . S
C3734 C3738 1.524 . S
C3735 C3727 1.503 . S
C3735 C3734 1.370 . S
C3735 C3736 1.403 . S
C3736 C3735 1.403 . S
C3736 C3737 1.404 . S
C3736 C3739 1.539 . S
C3737 C3733 1.408 . S
C3737 C3736 1.404 . S
C3737 H3749 0.930 . S
C3738 C3734 1.524 . S
C3738 H3750 0.956 . S
C3738 H3751 0.961 . S
C3738 H3752 0.961 . S
C3739 C3736 1.539 . S
C3739 H3753 0.958 . S
C3739 H3754 0.961 . S
C3739 H3755 0.960 . S
H3740 C3724 0.931 . S
H3741 C3729 0.929 . S
H3742 C3730 0.960 . S
H3743 C3730 0.962 . S
H3744 C3730 0.960 . S
H3745 C3731 0.961 . S
H3746 C3731 0.961 . S
H3747 C3731 0.961 . S
H3748 C3732 0.931 . S
H3749 C3737 0.930 . S
H3750 C3738 0.956 . S
H3751 C3738 0.961 . S
H3752 C3738 0.961 . S
H3753 C3739 0.958 . S
H3754 C3739 0.961 . S
H3755 C3739 0.960 . S
C3756 C3757 1.391 . S
C3756 C3758 1.394 . S
C3756 H3772 0.931 . S
C3757 C3756 1.391 . S
C3757 C3761 1.376 . S
C3758 C3756 1.394 . S
C3758 C3759 1.369 . S
C3758 C3762 1.531 . S
C3759 C3758 1.369 . S
C3759 C3760 1.410 . S
C3759 C3767 1.503 . S
C3760 C3759 1.410 . S
C3760 C3761 1.392 . S
C3760 C3763 1.511 . S
C3761 C3757 1.376 . S
C3761 C3760 1.392 . S
C3761 H3773 0.929 . S
C3762 C3758 1.531 . S
C3762 H3774 0.960 . S
C3762 H3775 0.962 . S
C3762 H3776 0.960 . S
C3763 C3760 1.511 . S
C3763 H3777 0.961 . S
C3763 H3778 0.961 . S
C3763 H3779 0.961 . S
C3764 C3765 1.370 . S
C3764 C3766 1.363 . S
C3764 H3780 0.931 . S
C3765 C3764 1.370 . S
C3765 C3769 1.408 . S
C3766 C3764 1.363 . S
C3766 C3767 1.370 . S
C3766 C3770 1.524 . S
C3767 C3759 1.503 . S
C3767 C3766 1.370 . S
C3767 C3768 1.403 . S
C3768 C3767 1.403 . S
C3768 C3769 1.404 . S
C3768 C3771 1.539 . S
C3769 C3765 1.408 . S
C3769 C3768 1.404 . S
C3769 H3781 0.930 . S
C3770 C3766 1.524 . S
C3770 H3782 0.956 . S
C3770 H3783 0.961 . S
C3770 H3784 0.961 . S
C3771 C3768 1.539 . S
C3771 H3785 0.958 . S
C3771 H3786 0.961 . S
C3771 H3787 0.960 . S
H3772 C3756 0.931 . S
H3773 C3761 0.929 . S
H3774 C3762 0.960 . S
H3775 C3762 0.962 . S
H3776 C3762 0.960 . S
H3777 C3763 0.961 . S
H3778 C3763 0.961 . S
H3779 C3763 0.961 . S
H3780 C3764 0.931 . S
H3781 C3769 0.930 . S
H3782 C3770 0.956 . S
H3783 C3770 0.961 . S
H3784 C3770 0.961 . S
H3785 C3771 0.958 . S
H3786 C3771 0.961 . S
H3787 C3771 0.960 . S
C3788 C3789 1.391 . S
C3788 C3790 1.394 . S
C3788 H3804 0.931 . S
C3789 C3788 1.391 . S
C3789 C3793 1.376 . S
C3790 C3788 1.394 . S
C3790 C3791 1.369 . S
C3790 C3794 1.531 . S
C3791 C3790 1.369 . S
C3791 C3792 1.410 . S
C3791 C3799 1.503 . S
C3792 C3791 1.410 . S
C3792 C3793 1.392 . S
C3792 C3795 1.511 . S
C3793 C3789 1.376 . S
C3793 C3792 1.392 . S
C3793 H3805 0.929 . S
C3794 C3790 1.531 . S
C3794 H3806 0.960 . S
C3794 H3807 0.962 . S
C3794 H3808 0.960 . S
C3795 C3792 1.511 . S
C3795 H3809 0.961 . S
C3795 H3810 0.961 . S
C3795 H3811 0.961 . S
C3796 C3797 1.370 . S
C3796 C3798 1.363 . S
C3796 H3812 0.931 . S
C3797 C3796 1.370 . S
C3797 C3801 1.408 . S
C3798 C3796 1.363 . S
C3798 C3799 1.370 . S
C3798 C3802 1.524 . S
C3799 C3791 1.503 . S
C3799 C3798 1.370 . S
C3799 C3800 1.403 . S
C3800 C3799 1.403 . S
C3800 C3801 1.404 . S
C3800 C3803 1.539 . S
C3801 C3797 1.408 . S
C3801 C3800 1.404 . S
C3801 H3813 0.930 . S
C3802 C3798 1.524 . S
C3802 H3814 0.956 . S
C3802 H3815 0.961 . S
C3802 H3816 0.961 . S
C3803 C3800 1.539 . S
C3803 H3817 0.958 . S
C3803 H3818 0.961 . S
C3803 H3819 0.960 . S
H3804 C3788 0.931 . S
H3805 C3793 0.929 . S
H3806 C3794 0.960 . S
H3807 C3794 0.962 . S
H3808 C3794 0.960 . S
H3809 C3795 0.961 . S
H3810 C3795 0.961 . S
H3811 C3795 0.961 . S
H3812 C3796 0.931 . S
H3813 C3801 0.930 . S
H3814 C3802 0.956 . S
H3815 C3802 0.961 . S
H3816 C3802 0.961 . S
H3817 C3803 0.958 . S
H3818 C3803 0.961 . S
H3819 C3803 0.960 . S
C3820 C3821 1.391 . S
C3820 C3822 1.394 . S
C3820 H3836 0.931 . S
C3821 C3820 1.391 . S
C3821 C3825 1.376 . S
C3822 C3820 1.394 . S
C3822 C3823 1.369 . S
C3822 C3826 1.531 . S
C3823 C3822 1.369 . S
C3823 C3824 1.410 . S
C3823 C3831 1.503 . S
C3824 C3823 1.410 . S
C3824 C3825 1.392 . S
C3824 C3827 1.511 . S
C3825 C3821 1.376 . S
C3825 C3824 1.392 . S
C3825 H3837 0.929 . S
C3826 C3822 1.531 . S
C3826 H3838 0.960 . S
C3826 H3839 0.962 . S
C3826 H3840 0.960 . S
C3827 C3824 1.511 . S
C3827 H3841 0.961 . S
C3827 H3842 0.961 . S
C3827 H3843 0.961 . S
C3828 C3829 1.370 . S
C3828 C3830 1.363 . S
C3828 H3844 0.931 . S
C3829 C3828 1.370 . S
C3829 C3833 1.408 . S
C3830 C3828 1.363 . S
C3830 C3831 1.370 . S
C3830 C3834 1.524 . S
C3831 C3823 1.503 . S
C3831 C3830 1.370 . S
C3831 C3832 1.403 . S
C3832 C3831 1.403 . S
C3832 C3833 1.404 . S
C3832 C3835 1.539 . S
C3833 C3829 1.408 . S
C3833 C3832 1.404 . S
C3833 H3845 0.930 . S
C3834 C3830 1.524 . S
C3834 H3846 0.956 . S
C3834 H3847 0.961 . S
C3834 H3848 0.961 . S
C3835 C3832 1.539 . S
C3835 H3849 0.958 . S
C3835 H3850 0.961 . S
C3835 H3851 0.960 . S
H3836 C3820 0.931 . S
H3837 C3825 0.929 . S
H3838 C3826 0.960 . S
H3839 C3826 0.962 . S
H3840 C3826 0.960 . S
H3841 C3827 0.961 . S
H3842 C3827 0.961 . S
H3843 C3827 0.961 . S
H3844 C3828 0.931 . S
H3845 C3833 0.930 . S
H3846 C3834 0.956 . S
H3847 C3834 0.961 . S
H3848 C3834 0.961 . S
H3849 C3835 0.958 . S
H3850 C3835 0.961 . S
H3851 C3835 0.960 . S
C3852 C3853 1.391 . S
C3852 C3854 1.394 . S
C3852 H3868 0.931 . S
C3853 C3852 1.391 . S
C3853 C3857 1.376 . S
C3854 C3852 1.394 . S
C3854 C3855 1.369 . S
C3854 C3858 1.531 . S
C3855 C3854 1.369 . S
C3855 C3856 1.410 . S
C3855 C3863 1.503 . S
C3856 C3855 1.410 . S
C3856 C3857 1.392 . S
C3856 C3859 1.511 . S
C3857 C3853 1.376 . S
C3857 C3856 1.392 . S
C3857 H3869 0.929 . S
C3858 C3854 1.531 . S
C3858 H3870 0.960 . S
C3858 H3871 0.962 . S
C3858 H3872 0.960 1_554 S
C3859 C3856 1.511 . S
C3859 H3873 0.961 . S
C3859 H3874 0.961 . S
C3859 H3875 0.961 . S
C3860 C3861 1.370 . S
C3860 C3862 1.363 . S
C3860 H3876 0.931 . S
C3861 C3860 1.370 . S
C3861 C3865 1.408 . S
C3862 C3860 1.363 . S
C3862 C3863 1.370 . S
C3862 C3866 1.524 . S
C3863 C3855 1.503 . S
C3863 C3862 1.370 . S
C3863 C3864 1.403 . S
C3864 C3863 1.403 . S
C3864 C3865 1.404 . S
C3864 C3867 1.539 . S
C3865 C3861 1.408 . S
C3865 C3864 1.404 . S
C3865 H3877 0.930 . S
C3866 C3862 1.524 . S
C3866 H3878 0.956 . S
C3866 H3879 0.961 . S
C3866 H3880 0.961 . S
C3867 C3864 1.539 . S
C3867 H3881 0.958 . S
C3867 H3882 0.961 . S
C3867 H3883 0.960 . S
H3868 C3852 0.931 . S
H3869 C3857 0.929 . S
H3870 C3858 0.960 . S
H3871 C3858 0.962 . S
H3872 C3858 0.960 1_556 S
H3873 C3859 0.961 . S
H3874 C3859 0.961 . S
H3875 C3859 0.961 . S
H3876 C3860 0.931 . S
H3877 C3865 0.930 . S
H3878 C3866 0.956 . S
H3879 C3866 0.961 . S
H3880 C3866 0.961 . S
H3881 C3867 0.958 . S
H3882 C3867 0.961 . S
H3883 C3867 0.960 . S
C3884 C3885 1.391 . S
C3884 C3886 1.394 . S
C3884 H3900 0.931 . S
C3885 C3884 1.391 . S
C3885 C3889 1.376 . S
C3886 C3884 1.394 . S
C3886 C3887 1.369 . S
C3886 C3890 1.531 . S
C3887 C3886 1.369 . S
C3887 C3888 1.410 . S
C3887 C3895 1.503 . S
C3888 C3887 1.410 . S
C3888 C3889 1.392 . S
C3888 C3891 1.511 . S
C3889 C3885 1.376 . S
C3889 C3888 1.392 . S
C3889 H3901 0.929 . S
C3890 C3886 1.531 . S
C3890 H3902 0.960 . S
C3890 H3903 0.962 . S
C3890 H3904 0.960 . S
C3891 C3888 1.511 . S
C3891 H3905 0.961 . S
C3891 H3906 0.961 . S
C3891 H3907 0.961 . S
C3892 C3893 1.370 . S
C3892 C3894 1.363 . S
C3892 H3908 0.931 . S
C3893 C3892 1.370 . S
C3893 C3897 1.408 . S
C3894 C3892 1.363 . S
C3894 C3895 1.370 . S
C3894 C3898 1.524 . S
C3895 C3887 1.503 . S
C3895 C3894 1.370 . S
C3895 C3896 1.403 . S
C3896 C3895 1.403 . S
C3896 C3897 1.404 . S
C3896 C3899 1.539 . S
C3897 C3893 1.408 . S
C3897 C3896 1.404 . S
C3897 H3909 0.930 . S
C3898 C3894 1.524 . S
C3898 H3910 0.956 . S
C3898 H3911 0.961 . S
C3898 H3912 0.961 . S
C3899 C3896 1.539 . S
C3899 H3913 0.958 . S
C3899 H3914 0.961 . S
C3899 H3915 0.960 . S
H3900 C3884 0.931 . S
H3901 C3889 0.929 . S
H3902 C3890 0.960 . S
H3903 C3890 0.962 . S
H3904 C3890 0.960 . S
H3905 C3891 0.961 . S
H3906 C3891 0.961 . S
H3907 C3891 0.961 . S
H3908 C3892 0.931 . S
H3909 C3897 0.930 . S
H3910 C3898 0.956 . S
H3911 C3898 0.961 . S
H3912 C3898 0.961 . S
H3913 C3899 0.958 . S
H3914 C3899 0.961 . S
H3915 C3899 0.960 . S
C3916 C3917 1.391 . S
C3916 C3918 1.394 . S
C3916 H3932 0.931 . S
C3917 C3916 1.391 . S
C3917 C3921 1.376 . S
C3918 C3916 1.394 . S
C3918 C3919 1.369 . S
C3918 C3922 1.531 . S
C3919 C3918 1.369 . S
C3919 C3920 1.410 . S
C3919 C3927 1.503 . S
C3920 C3919 1.410 . S
C3920 C3921 1.392 . S
C3920 C3923 1.511 . S
C3921 C3917 1.376 . S
C3921 C3920 1.392 . S
C3921 H3933 0.929 . S
C3922 C3918 1.531 . S
C3922 H3934 0.960 . S
C3922 H3935 0.962 . S
C3922 H3936 0.960 . S
C3923 C3920 1.511 . S
C3923 H3937 0.961 . S
C3923 H3938 0.961 . S
C3923 H3939 0.961 . S
C3924 C3925 1.370 . S
C3924 C3926 1.363 . S
C3924 H3940 0.931 . S
C3925 C3924 1.370 . S
C3925 C3929 1.408 . S
C3926 C3924 1.363 . S
C3926 C3927 1.370 . S
C3926 C3930 1.524 . S
C3927 C3919 1.503 . S
C3927 C3926 1.370 . S
C3927 C3928 1.403 . S
C3928 C3927 1.403 . S
C3928 C3929 1.404 . S
C3928 C3931 1.539 . S
C3929 C3925 1.408 . S
C3929 C3928 1.404 . S
C3929 H3941 0.930 . S
C3930 C3926 1.524 . S
C3930 H3942 0.956 . S
C3930 H3943 0.961 . S
C3930 H3944 0.961 . S
C3931 C3928 1.539 . S
C3931 H3945 0.958 . S
C3931 H3946 0.961 . S
C3931 H3947 0.960 . S
H3932 C3916 0.931 . S
H3933 C3921 0.929 . S
H3934 C3922 0.960 . S
H3935 C3922 0.962 . S
H3936 C3922 0.960 . S
H3937 C3923 0.961 . S
H3938 C3923 0.961 . S
H3939 C3923 0.961 . S
H3940 C3924 0.931 . S
H3941 C3929 0.930 . S
H3942 C3930 0.956 . S
H3943 C3930 0.961 . S
H3944 C3930 0.961 . S
H3945 C3931 0.958 . S
H3946 C3931 0.961 . S
H3947 C3931 0.960 . S
C3948 C3949 1.391 . S
C3948 C3950 1.394 . S
C3948 H3964 0.931 . S
C3949 C3948 1.391 . S
C3949 C3953 1.382 . S
C3950 C3948 1.394 . S
C3950 C3951 1.369 . S
C3950 C3954 1.531 . S
C3951 C3950 1.369 . S
C3951 C3952 1.410 . S
C3951 C3959 1.503 . S
C3952 C3951 1.410 . S
C3952 C3953 1.395 . S
C3952 C3955 1.511 1_556 S
C3953 C3949 1.382 . S
C3953 C3952 1.395 . S
C3953 H3965 0.920 1_556 S
C3954 C3950 1.531 . S
C3954 H3966 0.960 . S
C3954 H3967 0.962 . S
C3954 H3968 0.960 . S
C3955 C3952 1.511 1_554 S
C3955 H3969 0.961 . S
C3955 H3970 0.961 . S
C3955 H3971 0.961 . S
C3956 C3957 1.370 . S
C3956 C3958 1.363 . S
C3956 H3972 0.931 . S
C3957 C3956 1.370 . S
C3957 C3961 1.408 . S
C3958 C3956 1.363 . S
C3958 C3959 1.370 . S
C3958 C3962 1.524 . S
C3959 C3951 1.503 . S
C3959 C3958 1.370 . S
C3959 C3960 1.403 . S
C3960 C3959 1.403 . S
C3960 C3961 1.404 . S
C3960 C3963 1.539 . S
C3961 C3957 1.408 . S
C3961 C3960 1.404 . S
C3961 H3973 0.930 . S
C3962 C3958 1.524 . S
C3962 H3974 0.956 . S
C3962 H3975 0.930 1_556 S
C3962 H3976 0.961 . S
C3963 C3960 1.539 . S
C3963 H3977 0.958 . S
C3963 H3978 0.961 . S
C3963 H3979 0.960 . S
H3964 C3948 0.931 . S
H3965 C3953 0.920 1_554 S
H3966 C3954 0.960 . S
H3967 C3954 0.962 . S
H3968 C3954 0.960 . S
H3969 C3955 0.961 . S
H3970 C3955 0.961 . S
H3971 C3955 0.961 . S
H3972 C3956 0.931 . S
H3973 C3961 0.930 . S
H3974 C3962 0.956 . S
H3975 C3962 0.930 1_554 S
H3976 C3962 0.961 . S
H3977 C3963 0.958 . S
H3978 C3963 0.961 . S
H3979 C3963 0.960 . S
C3980 C3981 1.391 . S
C3980 C3982 1.394 . S
C3980 H3996 0.931 . S
C3981 C3980 1.391 . S
C3981 C3985 1.376 . S
C3982 C3980 1.394 . S
C3982 C3983 1.369 . S
C3982 C3986 1.531 . S
C3983 C3982 1.369 . S
C3983 C3984 1.410 . S
C3983 C3991 1.503 . S
C3984 C3983 1.410 . S
C3984 C3985 1.392 . S
C3984 C3987 1.485 1_556 S
C3985 C3981 1.376 . S
C3985 C3984 1.392 . S
C3985 H3997 0.929 1_556 S
C3986 C3982 1.531 . S
C3986 H3998 0.960 . S
C3986 H3999 0.962 . S
C3986 H4000 0.960 . S
C3987 C3984 1.485 1_554 S
C3987 H4001 1.018 . S
C3987 H4002 0.965 . S
C3987 H4003 0.930 1_554 S
C3988 C3989 1.370 . S
C3988 C3990 1.363 . S
C3988 H4004 0.931 . S
C3989 C3988 1.370 . S
C3989 C3993 1.408 . S
C3990 C3988 1.363 . S
C3990 C3991 1.370 . S
C3990 C3994 1.524 . S
C3991 C3983 1.503 . S
C3991 C3990 1.370 . S
C3991 C3992 1.403 . S
C3992 C3991 1.403 . S
C3992 C3993 1.404 . S
C3992 C3995 1.539 . S
C3993 C3989 1.408 . S
C3993 C3992 1.404 . S
C3993 H4005 0.930 . S
C3994 C3990 1.524 . S
C3994 H4006 0.956 . S
C3994 H4007 0.961 1_556 S
C3994 H4008 0.961 1_556 S
C3995 C3992 1.539 . S
C3995 H4009 0.958 . S
C3995 H4010 0.961 . S
C3995 H4011 0.960 . S
H3996 C3980 0.931 . S
H3997 C3985 0.929 1_554 S
H3998 C3986 0.960 . S
H3999 C3986 0.962 . S
H4000 C3986 0.960 . S
H4001 C3987 1.018 . S
H4002 C3987 0.965 . S
H4003 C3987 0.930 1_556 S
H4004 C3988 0.931 . S
H4005 C3993 0.930 . S
H4006 C3994 0.956 . S
H4007 C3994 0.961 1_554 S
H4008 C3994 0.961 1_554 S
H4009 C3995 0.958 . S
H4010 C3995 0.961 . S
H4011 C3995 0.960 . S
C4012 C4013 1.391 . S
C4012 C4014 1.394 . S
C4012 H4028 0.931 . S
C4013 C4012 1.391 . S
C4013 C4017 1.376 . S
C4014 C4012 1.394 . S
C4014 C4015 1.369 . S
C4014 C4018 1.531 . S
C4015 C4014 1.369 . S
C4015 C4016 1.410 . S
C4015 C4023 1.503 . S
C4016 C4015 1.410 . S
C4016 C4017 1.392 . S
C4016 C4019 1.511 . S
C4017 C4013 1.376 . S
C4017 C4016 1.392 . S
C4017 H4029 0.929 . S
C4018 C4014 1.531 . S
C4018 H4030 0.960 . S
C4018 H4031 0.962 . S
C4018 H4032 0.960 . S
C4019 C4016 1.511 . S
C4019 H4033 0.961 . S
C4019 H4034 0.961 . S
C4019 H4035 0.961 . S
C4020 C4021 1.370 . S
C4020 C4022 1.363 . S
C4020 H4036 0.931 . S
C4021 C4020 1.370 . S
C4021 C4025 1.408 . S
C4022 C4020 1.363 . S
C4022 C4023 1.370 . S
C4022 C4026 1.524 . S
C4023 C4015 1.503 . S
C4023 C4022 1.370 . S
C4023 C4024 1.403 . S
C4024 C4023 1.403 . S
C4024 C4025 1.404 . S
C4024 C4027 1.539 1_556 S
C4025 C4021 1.408 . S
C4025 C4024 1.404 . S
C4025 H4037 0.930 . S
C4026 C4022 1.524 . S
C4026 H4038 0.956 . S
C4026 H4039 0.961 . S
C4026 H4040 0.961 . S
C4027 C4024 1.539 1_554 S
C4027 H4041 0.958 . S
C4027 H4042 0.961 . S
C4027 H4043 0.960 . S
H4028 C4012 0.931 . S
H4029 C4017 0.929 . S
H4030 C4018 0.960 . S
H4031 C4018 0.962 . S
H4032 C4018 0.960 . S
H4033 C4019 0.961 . S
H4034 C4019 0.961 . S
H4035 C4019 0.961 . S
H4036 C4020 0.931 . S
H4037 C4025 0.930 . S
H4038 C4026 0.956 . S
H4039 C4026 0.961 . S
H4040 C4026 0.961 . S
H4041 C4027 0.958 . S
H4042 C4027 0.961 . S
H4043 C4027 0.960 . S
C4044 C4045 1.391 . S
C4044 C4046 1.394 . S
C4044 H4060 0.931 . S
C4045 C4044 1.391 . S
C4045 C4049 1.376 . S
C4046 C4044 1.394 . S
C4046 C4047 1.369 . S
C4046 C4050 1.531 . S
C4047 C4046 1.369 . S
C4047 C4048 1.410 . S
C4047 C4055 1.503 . S
C4048 C4047 1.410 . S
C4048 C4049 1.392 . S
C4048 C4051 1.511 . S
C4049 C4045 1.376 . S
C4049 C4048 1.392 . S
C4049 H4061 0.929 . S
C4050 C4046 1.531 . S
C4050 H4062 0.960 . S
C4050 H4063 0.962 . S
C4050 H4064 0.960 . S
C4051 C4048 1.511 . S
C4051 H4065 0.961 . S
C4051 H4066 0.961 . S
C4051 H4067 1.002 . S
C4052 C4053 1.370 . S
C4052 C4054 1.363 . S
C4052 H4068 0.931 . S
C4053 C4052 1.370 . S
C4053 C4057 1.408 . S
C4054 C4052 1.363 . S
C4054 C4055 1.370 . S
C4054 C4058 1.524 . S
C4055 C4047 1.503 . S
C4055 C4054 1.370 . S
C4055 C4056 1.403 . S
C4056 C4055 1.403 . S
C4056 C4057 1.404 . S
C4056 C4059 1.539 1_556 S
C4057 C4053 1.408 . S
C4057 C4056 1.404 . S
C4057 H4069 0.930 . S
C4058 C4054 1.524 . S
C4058 H4070 0.956 . S
C4058 H4071 0.961 . S
C4058 H4072 0.961 . S
C4059 C4056 1.539 1_554 S
C4059 H4073 0.958 . S
C4059 H4074 0.961 . S
C4059 H4075 0.960 . S
H4060 C4044 0.931 . S
H4061 C4049 0.929 . S
H4062 C4050 0.960 . S
H4063 C4050 0.962 . S
H4064 C4050 0.960 . S
H4065 C4051 0.961 . S
H4066 C4051 0.961 . S
H4067 C4051 1.002 . S
H4068 C4052 0.931 . S
H4069 C4057 0.930 . S
H4070 C4058 0.956 . S
H4071 C4058 0.961 . S
H4072 C4058 0.961 . S
H4073 C4059 0.958 . S
H4074 C4059 0.961 . S
H4075 C4059 0.960 . S
C4076 C4077 1.391 . S
C4076 C4078 1.394 . S
C4076 H4092 0.931 1_556 S
C4077 C4076 1.391 . S
C4077 C4081 1.376 . S
C4078 C4076 1.394 . S
C4078 C4079 1.369 . S
C4078 C4082 1.531 . S
C4079 C4078 1.369 . S
C4079 C4080 1.410 . S
C4079 C4087 1.503 . S
C4080 C4079 1.410 . S
C4080 C4081 1.392 . S
C4080 C4083 1.511 . S
C4081 C4077 1.376 . S
C4081 C4080 1.392 . S
C4081 H4093 0.929 . S
C4082 C4078 1.531 . S
C4082 H4094 0.960 . S
C4082 H4095 0.962 1_556 S
C4082 H4096 0.960 . S
C4083 C4080 1.511 . S
C4083 H4097 0.961 . S
C4083 H4098 0.961 . S
C4083 H4099 0.961 . S
C4084 C4085 1.370 . S
C4084 C4086 1.363 . S
C4084 H4100 0.931 . S
C4085 C4084 1.370 . S
C4085 C4089 1.408 . S
C4086 C4084 1.363 . S
C4086 C4087 1.370 . S
C4086 C4090 1.524 . S
C4087 C4079 1.503 . S
C4087 C4086 1.370 . S
C4087 C4088 1.403 . S
C4088 C4087 1.403 . S
C4088 C4089 1.404 . S
C4088 C4091 1.539 . S
C4089 C4085 1.408 . S
C4089 C4088 1.404 . S
C4089 H4101 0.930 . S
C4090 C4086 1.524 . S
C4090 H4102 0.956 1_556 S
C4090 H4103 0.961 . S
C4090 H4104 0.961 1_556 S
C4091 C4088 1.539 . S
C4091 H4105 0.958 . S
C4091 H4106 0.961 . S
C4091 H4107 0.960 . S
H4092 C4076 0.931 1_554 S
H4093 C4081 0.929 . S
H4094 C4082 0.960 . S
H4095 C4082 0.962 1_554 S
H4096 C4082 0.960 . S
H4097 C4083 0.961 . S
H4098 C4083 0.961 . S
H4099 C4083 0.961 . S
H4100 C4084 0.931 . S
H4101 C4089 0.930 . S
H4102 C4090 0.956 1_554 S
H4103 C4090 0.961 . S
H4104 C4090 0.961 1_554 S
H4105 C4091 0.958 . S
H4106 C4091 0.961 . S
H4107 C4091 0.960 . S
C4108 C4109 1.391 . S
C4108 C4110 1.394 . S
C4108 H4124 0.931 . S
C4109 C4108 1.391 . S
C4109 C4113 1.376 . S
C4110 C4108 1.394 . S
C4110 C4111 1.369 . S
C4110 C4114 1.531 . S
C4111 C4110 1.369 . S
C4111 C4112 1.410 . S
C4111 C4119 1.503 . S
C4112 C4111 1.410 . S
C4112 C4113 1.392 . S
C4112 C4115 1.511 . S
C4113 C4109 1.376 . S
C4113 C4112 1.392 . S
C4113 H4125 0.929 . S
C4114 C4110 1.531 . S
C4114 H4126 0.960 . S
C4114 H4127 0.962 . S
C4114 H4128 0.960 . S
C4115 C4112 1.511 . S
C4115 H4129 0.961 . S
C4115 H4130 0.961 . S
C4115 H4131 0.961 . S
C4116 C4117 1.370 . S
C4116 C4118 1.363 . S
C4116 H4132 0.931 . S
C4117 C4116 1.370 . S
C4117 C4121 1.408 . S
C4118 C4116 1.363 . S
C4118 C4119 1.370 . S
C4118 C4122 1.524 . S
C4119 C4111 1.503 . S
C4119 C4118 1.370 . S
C4119 C4120 1.403 . S
C4120 C4119 1.403 . S
C4120 C4121 1.404 . S
C4120 C4123 1.539 1_556 S
C4121 C4117 1.408 . S
C4121 C4120 1.404 . S
C4121 H4133 0.930 . S
C4122 C4118 1.524 . S
C4122 H4134 0.956 . S
C4122 H4135 0.961 . S
C4122 H4136 0.961 . S
C4123 C4120 1.539 1_554 S
C4123 H4137 0.958 . S
C4123 H4138 0.961 . S
C4123 H4139 0.960 . S
H4124 C4108 0.931 . S
H4125 C4113 0.929 . S
H4126 C4114 0.960 . S
H4127 C4114 0.962 . S
H4128 C4114 0.960 . S
H4129 C4115 0.961 . S
H4130 C4115 0.961 . S
H4131 C4115 0.961 . S
H4132 C4116 0.931 . S
H4133 C4121 0.930 . S
H4134 C4122 0.956 . S
H4135 C4122 0.961 . S
H4136 C4122 0.961 . S
H4137 C4123 0.958 . S
H4138 C4123 0.961 . S
H4139 C4123 0.960 . S
C4140 C4141 1.391 . S
C4140 C4142 1.394 . S
C4140 H4156 0.931 . S
C4141 C4140 1.391 . S
C4141 C4145 1.376 . S
C4142 C4140 1.394 . S
C4142 C4143 1.369 . S
C4142 C4146 1.531 . S
C4143 C4142 1.369 . S
C4143 C4144 1.410 . S
C4143 C4151 1.503 . S
C4144 C4143 1.410 . S
C4144 C4145 1.392 . S
C4144 C4147 1.511 . S
C4145 C4141 1.376 . S
C4145 C4144 1.392 . S
C4145 H4157 0.929 . S
C4146 C4142 1.531 . S
C4146 H4158 0.960 . S
C4146 H4159 0.962 . S
C4146 H4160 0.960 . S
C4147 C4144 1.511 . S
C4147 H4161 0.961 . S
C4147 H4162 0.961 . S
C4147 H4163 0.961 . S
C4148 C4149 1.370 . S
C4148 C4150 1.363 . S
C4148 H4164 0.931 . S
C4149 C4148 1.370 . S
C4149 C4153 1.408 . S
C4150 C4148 1.363 . S
C4150 C4151 1.370 . S
C4150 C4154 1.524 . S
C4151 C4143 1.503 . S
C4151 C4150 1.370 . S
C4151 C4152 1.403 . S
C4152 C4151 1.403 . S
C4152 C4153 1.404 . S
C4152 C4155 1.539 . S
C4153 C4149 1.408 . S
C4153 C4152 1.404 . S
C4153 H4165 0.930 . S
C4154 C4150 1.524 . S
C4154 H4166 0.956 . S
C4154 H4167 0.961 . S
C4154 H4168 0.961 . S
C4155 C4152 1.539 . S
C4155 H4169 0.958 . S
C4155 H4170 0.961 . S
C4155 H4171 0.960 . S
H4156 C4140 0.931 . S
H4157 C4145 0.929 . S
H4158 C4146 0.960 . S
H4159 C4146 0.962 . S
H4160 C4146 0.960 . S
H4161 C4147 0.961 . S
H4162 C4147 0.961 . S
H4163 C4147 0.961 . S
H4164 C4148 0.931 . S
H4165 C4153 0.930 . S
H4166 C4154 0.956 . S
H4167 C4154 0.961 . S
H4168 C4154 0.961 . S
H4169 C4155 0.958 . S
H4170 C4155 0.961 . S
H4171 C4155 0.960 . S
C4172 C4173 1.391 . S
C4172 C4174 1.394 . S
C4172 H4188 0.931 . S
C4173 C4172 1.391 . S
C4173 C4177 1.376 . S
C4174 C4172 1.394 . S
C4174 C4175 1.369 . S
C4174 C4178 1.531 . S
C4175 C4174 1.369 . S
C4175 C4176 1.410 . S
C4175 C4183 1.503 . S
C4176 C4175 1.410 . S
C4176 C4177 1.392 . S
C4176 C4179 1.511 . S
C4177 C4173 1.376 . S
C4177 C4176 1.392 . S
C4177 H4189 0.929 . S
C4178 C4174 1.531 . S
C4178 H4190 0.960 . S
C4178 H4191 0.962 . S
C4178 H4192 0.960 . S
C4179 C4176 1.511 . S
C4179 H4193 0.961 . S
C4179 H4194 0.961 . S
C4179 H4195 0.961 . S
C4180 C4181 1.370 . S
C4180 C4182 1.363 . S
C4180 H4196 0.931 . S
C4181 C4180 1.370 . S
C4181 C4185 1.408 . S
C4182 C4180 1.363 . S
C4182 C4183 1.370 . S
C4182 C4186 1.524 . S
C4183 C4175 1.503 . S
C4183 C4182 1.370 . S
C4183 C4184 1.403 . S
C4184 C4183 1.403 . S
C4184 C4185 1.404 . S
C4184 C4187 1.539 . S
C4185 C4181 1.408 . S
C4185 C4184 1.404 . S
C4185 H4197 0.930 . S
C4186 C4182 1.524 . S
C4186 H4198 0.956 . S
C4186 H4199 0.961 . S
C4186 H4200 0.961 . S
C4187 C4184 1.539 . S
C4187 H4201 0.958 . S
C4187 H4202 0.961 . S
C4187 H4203 0.960 . S
H4188 C4172 0.931 . S
H4189 C4177 0.929 . S
H4190 C4178 0.960 . S
H4191 C4178 0.962 . S
H4192 C4178 0.960 . S
H4193 C4179 0.961 . S
H4194 C4179 0.961 . S
H4195 C4179 0.961 . S
H4196 C4180 0.931 . S
H4197 C4185 0.930 . S
H4198 C4186 0.956 . S
H4199 C4186 0.961 . S
H4200 C4186 0.961 . S
H4201 C4187 0.958 . S
H4202 C4187 0.961 . S
H4203 C4187 0.960 . S
C4204 C4205 1.391 . S
C4204 C4206 1.394 . S
C4204 H4220 0.931 . S
C4205 C4204 1.391 . S
C4205 C4209 1.376 . S
C4206 C4204 1.394 . S
C4206 C4207 1.369 . S
C4206 C4210 1.531 . S
C4207 C4206 1.369 . S
C4207 C4208 1.410 . S
C4207 C4215 1.503 . S
C4208 C4207 1.410 . S
C4208 C4209 1.392 . S
C4208 C4211 1.511 . S
C4209 C4205 1.376 . S
C4209 C4208 1.392 . S
C4209 H4221 0.929 . S
C4210 C4206 1.531 . S
C4210 H4222 0.960 . S
C4210 H4223 0.962 . S
C4210 H4224 0.960 . S
C4211 C4208 1.511 . S
C4211 H4225 0.973 . S
C4211 H4226 0.961 . S
C4211 H4227 0.961 . S
C4212 C4213 1.370 . S
C4212 C4214 1.363 . S
C4212 H4228 0.931 . S
C4213 C4212 1.370 . S
C4213 C4217 1.408 . S
C4214 C4212 1.363 . S
C4214 C4215 1.370 . S
C4214 C4218 1.524 . S
C4215 C4207 1.503 . S
C4215 C4214 1.370 . S
C4215 C4216 1.403 . S
C4216 C4215 1.403 . S
C4216 C4217 1.404 . S
C4216 C4219 1.539 . S
C4217 C4213 1.408 . S
C4217 C4216 1.404 . S
C4217 H4229 0.930 . S
C4218 C4214 1.524 . S
C4218 H4230 0.956 . S
C4218 H4231 0.961 . S
C4218 H4232 0.961 . S
C4219 C4216 1.539 . S
C4219 H4233 0.958 . S
C4219 H4234 0.961 . S
C4219 H4235 0.960 . S
H4220 C4204 0.931 . S
H4221 C4209 0.929 . S
H4222 C4210 0.960 . S
H4223 C4210 0.962 . S
H4224 C4210 0.960 . S
H4225 C4211 0.973 . S
H4226 C4211 0.961 . S
H4227 C4211 0.961 . S
H4228 C4212 0.931 . S
H4229 C4217 0.930 . S
H4230 C4218 0.956 . S
H4231 C4218 0.961 . S
H4232 C4218 0.961 . S
H4233 C4219 0.958 . S
H4234 C4219 0.961 . S
H4235 C4219 0.960 . S
C4236 C4237 1.391 . S
C4236 C4238 1.394 . S
C4236 H4252 0.931 . S
C4237 C4236 1.391 . S
C4237 C4241 1.376 . S
C4238 C4236 1.394 . S
C4238 C4239 1.369 . S
C4238 C4242 1.531 . S
C4239 C4238 1.369 . S
C4239 C4240 1.410 . S
C4239 C4247 1.503 . S
C4240 C4239 1.410 . S
C4240 C4241 1.392 . S
C4240 C4243 1.511 . S
C4241 C4237 1.376 . S
C4241 C4240 1.392 . S
C4241 H4253 0.929 . S
C4242 C4238 1.531 . S
C4242 H4254 0.960 . S
C4242 H4255 0.962 . S
C4242 H4256 0.960 . S
C4243 C4240 1.511 . S
C4243 H4257 0.961 . S
C4243 H4258 0.961 . S
C4243 H4259 0.961 . S
C4244 C4245 1.370 . S
C4244 C4246 1.363 . S
C4244 H4260 0.931 . S
C4245 C4244 1.370 . S
C4245 C4249 1.408 . S
C4246 C4244 1.363 . S
C4246 C4247 1.370 . S
C4246 C4250 1.524 . S
C4247 C4239 1.503 . S
C4247 C4246 1.370 . S
C4247 C4248 1.403 . S
C4248 C4247 1.403 . S
C4248 C4249 1.404 . S
C4248 C4251 1.539 . S
C4249 C4245 1.408 . S
C4249 C4248 1.404 . S
C4249 H4261 0.930 . S
C4250 C4246 1.524 . S
C4250 H4262 0.956 . S
C4250 H4263 0.961 . S
C4250 H4264 0.961 . S
C4251 C4248 1.539 . S
C4251 H4265 0.958 . S
C4251 H4266 0.961 . S
C4251 H4267 0.960 . S
H4252 C4236 0.931 . S
H4253 C4241 0.929 . S
H4254 C4242 0.960 . S
H4255 C4242 0.962 . S
H4256 C4242 0.960 . S
H4257 C4243 0.961 . S
H4258 C4243 0.961 . S
H4259 C4243 0.961 . S
H4260 C4244 0.931 . S
H4261 C4249 0.930 . S
H4262 C4250 0.956 . S
H4263 C4250 0.961 . S
H4264 C4250 0.961 . S
H4265 C4251 0.958 . S
H4266 C4251 0.961 . S
H4267 C4251 0.960 . S
C4268 C4269 1.391 . S
C4268 C4270 1.394 . S
C4268 H4284 0.931 . S
C4269 C4268 1.391 . S
C4269 C4273 1.376 . S
C4270 C4268 1.394 . S
C4270 C4271 1.369 . S
C4270 C4274 1.531 . S
C4271 C4270 1.369 . S
C4271 C4272 1.410 . S
C4271 C4279 1.503 . S
C4272 C4271 1.410 . S
C4272 C4273 1.392 . S
C4272 C4275 1.511 . S
C4273 C4269 1.376 . S
C4273 C4272 1.392 . S
C4273 H4285 0.929 . S
C4274 C4270 1.531 . S
C4274 H4286 0.960 . S
C4274 H4287 0.962 . S
C4274 H4288 0.960 . S
C4275 C4272 1.511 . S
C4275 H4289 0.961 . S
C4275 H4290 0.961 . S
C4275 H4291 0.961 . S
C4276 C4277 1.370 . S
C4276 C4278 1.363 . S
C4276 H4292 0.931 . S
C4277 C4276 1.370 . S
C4277 C4281 1.408 . S
C4278 C4276 1.363 . S
C4278 C4279 1.370 . S
C4278 C4282 1.524 . S
C4279 C4271 1.503 . S
C4279 C4278 1.370 . S
C4279 C4280 1.403 . S
C4280 C4279 1.403 . S
C4280 C4281 1.404 . S
C4280 C4283 1.539 . S
C4281 C4277 1.408 . S
C4281 C4280 1.404 . S
C4281 H4293 0.930 . S
C4282 C4278 1.524 . S
C4282 H4294 0.956 . S
C4282 H4295 0.961 . S
C4282 H4296 0.961 . S
C4283 C4280 1.539 . S
C4283 H4297 0.958 . S
C4283 H4298 0.961 . S
C4283 H4299 0.960 . S
H4284 C4268 0.931 . S
H4285 C4273 0.929 . S
H4286 C4274 0.960 . S
H4287 C4274 0.962 . S
H4288 C4274 0.960 . S
H4289 C4275 0.961 . S
H4290 C4275 0.961 . S
H4291 C4275 0.961 . S
H4292 C4276 0.931 . S
H4293 C4281 0.930 . S
H4294 C4282 0.956 . S
H4295 C4282 0.961 . S
H4296 C4282 0.961 . S
H4297 C4283 0.958 . S
H4298 C4283 0.961 . S
H4299 C4283 0.960 . S
C4300 C4301 1.391 . S
C4300 C4302 1.394 . S
C4300 H4316 0.931 . S
C4301 C4300 1.391 . S
C4301 C4305 1.376 . S
C4302 C4300 1.394 . S
C4302 C4303 1.369 . S
C4302 C4306 1.531 . S
C4303 C4302 1.369 . S
C4303 C4304 1.410 . S
C4303 C4311 1.503 . S
C4304 C4303 1.410 . S
C4304 C4305 1.392 . S
C4304 C4307 1.511 . S
C4305 C4301 1.376 . S
C4305 C4304 1.392 . S
C4305 H4317 0.929 . S
C4306 C4302 1.531 . S
C4306 H4318 0.960 . S
C4306 H4319 0.962 . S
C4306 H4320 0.960 . S
C4307 C4304 1.511 . S
C4307 H4321 0.961 . S
C4307 H4322 0.961 . S
C4307 H4323 0.961 . S
C4308 C4309 1.370 . S
C4308 C4310 1.363 . S
C4308 H4324 0.931 . S
C4309 C4308 1.370 . S
C4309 C4313 1.408 . S
C4310 C4308 1.363 . S
C4310 C4311 1.370 . S
C4310 C4314 1.524 . S
C4311 C4303 1.503 . S
C4311 C4310 1.370 . S
C4311 C4312 1.403 . S
C4312 C4311 1.403 . S
C4312 C4313 1.404 . S
C4312 C4315 1.539 . S
C4313 C4309 1.408 . S
C4313 C4312 1.404 . S
C4313 H4325 0.930 . S
C4314 C4310 1.524 . S
C4314 H4326 0.956 . S
C4314 H4327 0.961 . S
C4314 H4328 0.961 . S
C4315 C4312 1.539 . S
C4315 H4329 0.958 . S
C4315 H4330 0.961 . S
C4315 H4331 0.960 . S
H4316 C4300 0.931 . S
H4317 C4305 0.929 . S
H4318 C4306 0.960 . S
H4319 C4306 0.962 . S
H4320 C4306 0.960 . S
H4321 C4307 0.961 . S
H4322 C4307 0.961 . S
H4323 C4307 0.961 . S
H4324 C4308 0.931 . S
H4325 C4313 0.930 . S
H4326 C4314 0.956 . S
H4327 C4314 0.961 . S
H4328 C4314 0.961 . S
H4329 C4315 0.958 . S
H4330 C4315 0.961 . S
H4331 C4315 0.960 . S
C4332 C4333 1.391 . S
C4332 C4334 1.394 . S
C4332 H4348 0.931 . S
C4333 C4332 1.391 . S
C4333 C4337 1.376 . S
C4334 C4332 1.394 . S
C4334 C4335 1.369 . S
C4334 C4338 1.531 . S
C4335 C4334 1.369 . S
C4335 C4336 1.410 . S
C4335 C4343 1.503 . S
C4336 C4335 1.410 . S
C4336 C4337 1.392 . S
C4336 C4339 1.511 . S
C4337 C4333 1.376 . S
C4337 C4336 1.392 . S
C4337 H4349 0.929 . S
C4338 C4334 1.531 . S
C4338 H4350 0.960 . S
C4338 H4351 0.962 . S
C4338 H4352 0.960 . S
C4339 C4336 1.511 . S
C4339 H4353 0.961 . S
C4339 H4354 0.961 . S
C4339 H4355 0.961 . S
C4340 C4341 1.370 1_655 S
C4340 C4342 1.363 1_655 S
C4340 H4356 0.931 . S
C4341 C4340 1.370 1_455 S
C4341 C4345 1.408 . S
C4342 C4340 1.363 1_455 S
C4342 C4343 1.370 . S
C4342 C4346 1.524 1_455 S
C4343 C4335 1.503 . S
C4343 C4342 1.370 . S
C4343 C4344 1.403 . S
C4344 C4343 1.403 . S
C4344 C4345 1.404 . S
C4344 C4347 1.539 . S
C4345 C4341 1.408 . S
C4345 C4344 1.404 . S
C4345 H4357 0.930 . S
C4346 C4342 1.524 1_655 S
C4346 H4358 0.956 . S
C4346 H4359 0.961 . S
C4346 H4360 0.961 . S
C4347 C4344 1.539 . S
C4347 H4361 0.958 . S
C4347 H4362 0.961 . S
C4347 H4363 0.960 . S
H4348 C4332 0.931 . S
H4349 C4337 0.929 . S
H4350 C4338 0.960 . S
H4351 C4338 0.962 . S
H4352 C4338 0.960 . S
H4353 C4339 0.961 . S
H4354 C4339 0.961 . S
H4355 C4339 0.961 . S
H4356 C4340 0.931 . S
H4357 C4345 0.930 . S
H4358 C4346 0.956 . S
H4359 C4346 0.961 . S
H4360 C4346 0.961 . S
H4361 C4347 0.958 . S
H4362 C4347 0.961 . S
H4363 C4347 0.960 . S
C4364 C4365 1.391 . S
C4364 C4366 1.394 . S
C4364 H4380 0.931 . S
C4365 C4364 1.391 . S
C4365 C4369 1.376 . S
C4366 C4364 1.394 . S
C4366 C4367 1.369 . S
C4366 C4370 1.531 . S
C4367 C4366 1.369 . S
C4367 C4368 1.410 . S
C4367 C4375 1.503 . S
C4368 C4367 1.410 . S
C4368 C4369 1.392 . S
C4368 C4371 1.511 . S
C4369 C4365 1.376 . S
C4369 C4368 1.392 . S
C4369 H4381 0.929 . S
C4370 C4366 1.531 . S
C4370 H4382 0.960 . S
C4370 H4383 0.962 . S
C4370 H4384 0.960 . S
C4371 C4368 1.511 . S
C4371 H4385 0.961 . S
C4371 H4386 0.961 . S
C4371 H4387 0.961 . S
C4372 C4373 1.370 . S
C4372 C4374 1.363 . S
C4372 H4388 0.931 . S
C4373 C4372 1.370 . S
C4373 C4377 1.408 . S
C4374 C4372 1.363 . S
C4374 C4375 1.370 . S
C4374 C4378 1.524 . S
C4375 C4367 1.503 . S
C4375 C4374 1.370 . S
C4375 C4376 1.403 . S
C4376 C4375 1.403 . S
C4376 C4377 1.404 . S
C4376 C4379 1.539 . S
C4377 C4373 1.408 . S
C4377 C4376 1.404 . S
C4377 H4389 0.930 . S
C4378 C4374 1.524 . S
C4378 H4390 0.956 . S
C4378 H4391 0.961 . S
C4378 H4392 0.961 . S
C4379 C4376 1.539 . S
C4379 H4393 0.958 . S
C4379 H4394 0.961 . S
C4379 H4395 0.960 . S
H4380 C4364 0.931 . S
H4381 C4369 0.929 . S
H4382 C4370 0.960 . S
H4383 C4370 0.962 . S
H4384 C4370 0.960 . S
H4385 C4371 0.961 . S
H4386 C4371 0.961 . S
H4387 C4371 0.961 . S
H4388 C4372 0.931 . S
H4389 C4377 0.930 . S
H4390 C4378 0.956 . S
H4391 C4378 0.961 . S
H4392 C4378 0.961 . S
H4393 C4379 0.958 . S
H4394 C4379 0.961 . S
H4395 C4379 0.960 . S
C4396 C4397 1.391 . S
C4396 C4398 1.394 . S
C4396 H4412 0.931 . S
C4397 C4396 1.391 . S
C4397 C4401 1.376 . S
C4398 C4396 1.394 . S
C4398 C4399 1.369 . S
C4398 C4402 1.531 . S
C4399 C4398 1.369 . S
C4399 C4400 1.410 . S
C4399 C4407 1.503 . S
C4400 C4399 1.410 . S
C4400 C4401 1.392 . S
C4400 C4403 1.511 . S
C4401 C4397 1.376 . S
C4401 C4400 1.392 . S
C4401 H4413 0.929 . S
C4402 C4398 1.531 . S
C4402 H4414 0.960 . S
C4402 H4415 0.962 . S
C4402 H4416 0.960 . S
C4403 C4400 1.511 . S
C4403 H4417 0.961 1_565 S
C4403 H4418 0.961 1_565 S
C4403 H4419 0.961 . S
C4404 C4405 1.370 1_545 S
C4404 C4406 1.363 1_545 S
C4404 H4420 0.931 . S
C4405 C4404 1.370 1_565 S
C4405 C4409 1.408 . S
C4406 C4404 1.363 1_565 S
C4406 C4407 1.370 . S
C4406 C4410 1.524 1_565 S
C4407 C4399 1.503 . S
C4407 C4406 1.370 . S
C4407 C4408 1.403 . S
C4408 C4407 1.403 . S
C4408 C4409 1.404 . S
C4408 C4411 1.539 . S
C4409 C4405 1.408 . S
C4409 C4408 1.404 . S
C4409 H4421 0.930 . S
C4410 C4406 1.524 1_545 S
C4410 H4422 0.928 1_545 S
C4410 H4423 0.961 . S
C4410 H4424 0.961 . S
C4411 C4408 1.539 . S
C4411 H4425 0.958 . S
C4411 H4426 0.961 . S
C4411 H4427 0.960 . S
H4412 C4396 0.931 . S
H4413 C4401 0.929 . S
H4414 C4402 0.960 . S
H4415 C4402 0.962 . S
H4416 C4402 0.960 . S
H4417 C4403 0.961 1_545 S
H4418 C4403 0.961 1_545 S
H4419 C4403 0.961 . S
H4420 C4404 0.931 . S
H4421 C4409 0.930 . S
H4422 C4410 0.928 1_565 S
H4423 C4410 0.961 . S
H4424 C4410 0.961 . S
H4425 C4411 0.958 . S
H4426 C4411 0.961 . S
H4427 C4411 0.960 . S
C4428 C4429 1.391 . S
C4428 C4430 1.394 . S
C4428 H4444 0.931 . S
C4429 C4428 1.391 . S
C4429 C4433 1.376 . S
C4430 C4428 1.394 . S
C4430 C4431 1.369 . S
C4430 C4434 1.531 . S
C4431 C4430 1.369 . S
C4431 C4432 1.410 . S
C4431 C4439 1.503 . S
C4432 C4431 1.410 . S
C4432 C4433 1.392 . S
C4432 C4435 1.511 . S
C4433 C4429 1.376 . S
C4433 C4432 1.392 . S
C4433 H4445 0.929 . S
C4434 C4430 1.531 . S
C4434 H4446 0.960 . S
C4434 H4447 0.962 . S
C4434 H4448 0.960 . S
C4435 C4432 1.511 . S
C4435 H4449 0.971 . S
C4435 H4450 0.961 . S
C4435 H4451 0.961 . S
C4436 C4437 1.366 1_545 S
C4436 C4438 1.308 1_545 S
C4436 H4452 0.997 . S
C4437 C4436 1.366 1_565 S
C4437 C4441 1.408 . S
C4438 C4436 1.308 1_565 S
C4438 C4439 1.370 . S
C4438 C4442 1.524 1_565 S
C4439 C4431 1.503 . S
C4439 C4438 1.370 . S
C4439 C4440 1.403 . S
C4440 C4439 1.403 . S
C4440 C4441 1.404 . S
C4440 C4443 1.539 . S
C4441 C4437 1.408 . S
C4441 C4440 1.404 . S
C4441 H4453 0.930 . S
C4442 C4438 1.524 1_545 S
C4442 H4454 0.956 . S
C4442 H4455 0.961 . S
C4442 H4456 0.961 . S
C4443 C4440 1.539 . S
C4443 H4457 0.958 . S
C4443 H4458 0.961 . S
C4443 H4459 0.960 . S
H4444 C4428 0.931 . S
H4445 C4433 0.929 . S
H4446 C4434 0.960 . S
H4447 C4434 0.962 . S
H4448 C4434 0.960 . S
H4449 C4435 0.971 . S
H4450 C4435 0.961 . S
H4451 C4435 0.961 . S
H4452 C4436 0.997 . S
H4453 C4441 0.930 . S
H4454 C4442 0.956 . S
H4455 C4442 0.961 . S
H4456 C4442 0.961 . S
H4457 C4443 0.958 . S
H4458 C4443 0.961 . S
H4459 C4443 0.960 . S
C4460 C4461 1.391 . S
C4460 C4462 1.394 . S
C4460 H4476 0.931 . S
C4461 C4460 1.391 . S
C4461 C4465 1.376 . S
C4462 C4460 1.394 . S
C4462 C4463 1.369 . S
C4462 C4466 1.531 . S
C4463 C4462 1.369 . S
C4463 C4464 1.410 . S
C4463 C4471 1.503 . S
C4464 C4463 1.410 . S
C4464 C4465 1.392 . S
C4464 C4467 1.511 . S
C4465 C4461 1.376 . S
C4465 C4464 1.392 . S
C4465 H4477 0.929 . S
C4466 C4462 1.531 . S
C4466 H4478 0.960 . S
C4466 H4479 0.962 1_455 S
C4466 H4480 0.960 . S
C4467 C4464 1.511 . S
C4467 H4481 0.961 . S
C4467 H4482 0.961 . S
C4467 H4483 0.961 . S
C4468 C4469 1.362 1_655 S
C4468 C4470 1.366 1_655 S
C4468 H4484 0.937 . S
C4469 C4468 1.362 1_455 S
C4469 C4473 1.408 . S
C4470 C4468 1.366 1_455 S
C4470 C4471 1.370 . S
C4470 C4474 1.524 1_455 S
C4471 C4463 1.503 . S
C4471 C4470 1.370 . S
C4471 C4472 1.403 . S
C4472 C4471 1.403 . S
C4472 C4473 1.404 . S
C4472 C4475 1.539 . S
C4473 C4469 1.408 . S
C4473 C4472 1.404 . S
C4473 H4485 0.930 . S
C4474 C4470 1.524 1_655 S
C4474 H4486 0.956 . S
C4474 H4487 0.961 1_655 S
C4474 H4488 0.961 . S
C4475 C4472 1.539 . S
C4475 H4489 0.958 . S
C4475 H4490 0.961 . S
C4475 H4491 0.960 . S
H4476 C4460 0.931 . S
H4477 C4465 0.929 . S
H4478 C4466 0.960 . S
H4479 C4466 0.962 1_655 S
H4480 C4466 0.960 . S
H4481 C4467 0.961 . S
H4482 C4467 0.961 . S
H4483 C4467 0.961 . S
H4484 C4468 0.937 . S
H4485 C4473 0.930 . S
H4486 C4474 0.956 . S
H4487 C4474 0.961 1_455 S
H4488 C4474 0.961 . S
H4489 C4475 0.958 . S
H4490 C4475 0.961 . S
H4491 C4475 0.960 . S
C4492 C4493 1.391 . S
C4492 C4494 1.394 . S
C4492 H4508 0.931 . S
C4493 C4492 1.391 . S
C4493 C4497 1.376 . S
C4494 C4492 1.394 . S
C4494 C4495 1.369 . S
C4494 C4498 1.531 . S
C4495 C4494 1.369 . S
C4495 C4496 1.410 . S
C4495 C4503 1.503 . S
C4496 C4495 1.410 . S
C4496 C4497 1.392 . S
C4496 C4499 1.511 . S
C4497 C4493 1.376 . S
C4497 C4496 1.392 . S
C4497 H4509 0.929 . S
C4498 C4494 1.531 . S
C4498 H4510 0.960 . S
C4498 H4511 0.962 . S
C4498 H4512 0.960 . S
C4499 C4496 1.511 . S
C4499 H4513 0.961 . S
C4499 H4514 0.961 . S
C4499 H4515 0.961 . S
C4500 C4501 1.370 . S
C4500 C4502 1.363 . S
C4500 H4516 0.931 . S
C4501 C4500 1.370 . S
C4501 C4505 1.408 . S
C4502 C4500 1.363 . S
C4502 C4503 1.370 . S
C4502 C4506 1.524 . S
C4503 C4495 1.503 . S
C4503 C4502 1.370 . S
C4503 C4504 1.403 . S
C4504 C4503 1.403 . S
C4504 C4505 1.404 . S
C4504 C4507 1.539 . S
C4505 C4501 1.408 . S
C4505 C4504 1.404 . S
C4505 H4517 0.930 . S
C4506 C4502 1.524 . S
C4506 H4518 0.956 . S
C4506 H4519 0.961 . S
C4506 H4520 0.961 . S
C4507 C4504 1.539 . S
C4507 H4521 0.958 . S
C4507 H4522 0.961 . S
C4507 H4523 0.960 . S
H4508 C4492 0.931 . S
H4509 C4497 0.929 . S
H4510 C4498 0.960 . S
H4511 C4498 0.962 . S
H4512 C4498 0.960 . S
H4513 C4499 0.961 . S
H4514 C4499 0.961 . S
H4515 C4499 0.961 . S
H4516 C4500 0.931 . S
H4517 C4505 0.930 . S
H4518 C4506 0.956 . S
H4519 C4506 0.961 . S
H4520 C4506 0.961 . S
H4521 C4507 0.958 . S
H4522 C4507 0.961 . S
H4523 C4507 0.960 . S
C4524 C4525 1.391 . S
C4524 C4526 1.394 . S
C4524 H4540 0.931 . S
C4525 C4524 1.391 . S
C4525 C4529 1.376 . S
C4526 C4524 1.394 . S
C4526 C4527 1.369 . S
C4526 C4530 1.531 . S
C4527 C4526 1.369 . S
C4527 C4528 1.410 . S
C4527 C4535 1.503 . S
C4528 C4527 1.410 . S
C4528 C4529 1.392 . S
C4528 C4531 1.511 . S
C4529 C4525 1.376 . S
C4529 C4528 1.392 . S
C4529 H4541 0.929 . S
C4530 C4526 1.531 . S
C4530 H4542 0.960 . S
C4530 H4543 0.962 . S
C4530 H4544 0.960 . S
C4531 C4528 1.511 . S
C4531 H4545 0.961 . S
C4531 H4546 0.961 . S
C4531 H4547 0.961 . S
C4532 C4533 1.370 . S
C4532 C4534 1.363 . S
C4532 H4548 0.931 . S
C4533 C4532 1.370 . S
C4533 C4537 1.408 . S
C4534 C4532 1.363 . S
C4534 C4535 1.370 . S
C4534 C4538 1.524 . S
C4535 C4527 1.503 . S
C4535 C4534 1.370 . S
C4535 C4536 1.403 . S
C4536 C4535 1.403 . S
C4536 C4537 1.404 . S
C4536 C4539 1.539 . S
C4537 C4533 1.408 . S
C4537 C4536 1.404 . S
C4537 H4549 0.930 . S
C4538 C4534 1.524 . S
C4538 H4550 0.956 . S
C4538 H4551 0.961 . S
C4538 H4552 0.961 . S
C4539 C4536 1.539 . S
C4539 H4553 0.958 . S
C4539 H4554 0.961 . S
C4539 H4555 0.960 . S
H4540 C4524 0.931 . S
H4541 C4529 0.929 . S
H4542 C4530 0.960 . S
H4543 C4530 0.962 . S
H4544 C4530 0.960 . S
H4545 C4531 0.961 . S
H4546 C4531 0.961 . S
H4547 C4531 0.961 . S
H4548 C4532 0.931 . S
H4549 C4537 0.930 . S
H4550 C4538 0.956 . S
H4551 C4538 0.961 . S
H4552 C4538 0.961 . S
H4553 C4539 0.958 . S
H4554 C4539 0.961 . S
H4555 C4539 0.960 . S
C4556 C4557 1.391 . S
C4556 C4558 1.394 . S
C4556 H4572 0.931 . S
C4557 C4556 1.391 . S
C4557 C4561 1.376 . S
C4558 C4556 1.394 . S
C4558 C4559 1.369 . S
C4558 C4562 1.531 . S
C4559 C4558 1.369 . S
C4559 C4560 1.410 . S
C4559 C4567 1.503 . S
C4560 C4559 1.410 . S
C4560 C4561 1.392 . S
C4560 C4563 1.511 . S
C4561 C4557 1.376 . S
C4561 C4560 1.392 . S
C4561 H4573 0.929 . S
C4562 C4558 1.531 . S
C4562 H4574 0.960 . S
C4562 H4575 0.962 . S
C4562 H4576 0.960 . S
C4563 C4560 1.511 . S
C4563 H4577 0.961 . S
C4563 H4578 0.961 . S
C4563 H4579 0.961 . S
C4564 C4565 1.370 . S
C4564 C4566 1.363 . S
C4564 H4580 0.931 . S
C4565 C4564 1.370 . S
C4565 C4569 1.408 . S
C4566 C4564 1.363 . S
C4566 C4567 1.370 . S
C4566 C4570 1.524 . S
C4567 C4559 1.503 . S
C4567 C4566 1.370 . S
C4567 C4568 1.403 . S
C4568 C4567 1.403 . S
C4568 C4569 1.404 . S
C4568 C4571 1.539 . S
C4569 C4565 1.408 . S
C4569 C4568 1.404 . S
C4569 H4581 0.930 . S
C4570 C4566 1.524 . S
C4570 H4582 0.956 . S
C4570 H4583 0.961 . S
C4570 H4584 0.961 . S
C4571 C4568 1.539 . S
C4571 H4585 0.958 . S
C4571 H4586 0.961 . S
C4571 H4587 0.960 . S
H4572 C4556 0.931 . S
H4573 C4561 0.929 . S
H4574 C4562 0.960 . S
H4575 C4562 0.962 . S
H4576 C4562 0.960 . S
H4577 C4563 0.961 . S
H4578 C4563 0.961 . S
H4579 C4563 0.961 . S
H4580 C4564 0.931 . S
H4581 C4569 0.930 . S
H4582 C4570 0.956 . S
H4583 C4570 0.961 . S
H4584 C4570 0.961 . S
H4585 C4571 0.958 . S
H4586 C4571 0.961 . S
H4587 C4571 0.960 . S
C4588 C4589 1.391 . S
C4588 C4590 1.394 . S
C4588 H4604 0.931 . S
C4589 C4588 1.391 . S
C4589 C4593 1.376 . S
C4590 C4588 1.394 . S
C4590 C4591 1.369 . S
C4590 C4594 1.531 . S
C4591 C4590 1.369 . S
C4591 C4592 1.410 . S
C4591 C4599 1.503 . S
C4592 C4591 1.410 . S
C4592 C4593 1.392 . S
C4592 C4595 1.511 . S
C4593 C4589 1.376 . S
C4593 C4592 1.392 . S
C4593 H4605 0.929 . S
C4594 C4590 1.531 . S
C4594 H4606 0.960 . S
C4594 H4607 0.962 . S
C4594 H4608 0.960 . S
C4595 C4592 1.511 . S
C4595 H4609 0.961 . S
C4595 H4610 0.961 . S
C4595 H4611 0.961 . S
C4596 C4597 1.370 . S
C4596 C4598 1.363 . S
C4596 H4612 0.931 . S
C4597 C4596 1.370 . S
C4597 C4601 1.408 . S
C4598 C4596 1.363 . S
C4598 C4599 1.370 . S
C4598 C4602 1.524 . S
C4599 C4591 1.503 . S
C4599 C4598 1.370 . S
C4599 C4600 1.403 . S
C4600 C4599 1.403 . S
C4600 C4601 1.404 . S
C4600 C4603 1.539 . S
C4601 C4597 1.408 . S
C4601 C4600 1.404 . S
C4601 H4613 0.930 . S
C4602 C4598 1.524 . S
C4602 H4614 0.956 . S
C4602 H4615 0.961 . S
C4602 H4616 0.961 . S
C4603 C4600 1.539 . S
C4603 H4617 0.958 . S
C4603 H4618 0.961 . S
C4603 H4619 0.960 . S
H4604 C4588 0.931 . S
H4605 C4593 0.929 . S
H4606 C4594 0.960 . S
H4607 C4594 0.962 . S
H4608 C4594 0.960 . S
H4609 C4595 0.961 . S
H4610 C4595 0.961 . S
H4611 C4595 0.961 . S
H4612 C4596 0.931 . S
H4613 C4601 0.930 . S
H4614 C4602 0.956 . S
H4615 C4602 0.961 . S
H4616 C4602 0.961 . S
H4617 C4603 0.958 . S
H4618 C4603 0.961 . S
H4619 C4603 0.960 . S
C4620 C4621 1.391 . S
C4620 C4622 1.394 . S
C4620 H4636 0.931 . S
C4621 C4620 1.391 . S
C4621 C4625 1.376 . S
C4622 C4620 1.394 . S
C4622 C4623 1.369 . S
C4622 C4626 1.531 . S
C4623 C4622 1.369 . S
C4623 C4624 1.410 . S
C4623 C4631 1.503 . S
C4624 C4623 1.410 . S
C4624 C4625 1.392 . S
C4624 C4627 1.511 . S
C4625 C4621 1.376 . S
C4625 C4624 1.392 . S
C4625 H4637 0.929 . S
C4626 C4622 1.531 . S
C4626 H4638 0.960 . S
C4626 H4639 0.962 . S
C4626 H4640 0.960 . S
C4627 C4624 1.511 . S
C4627 H4641 0.961 . S
C4627 H4642 0.961 . S
C4627 H4643 0.961 . S
C4628 C4629 1.370 . S
C4628 C4630 1.363 . S
C4628 H4644 0.931 . S
C4629 C4628 1.370 . S
C4629 C4633 1.408 1_545 S
C4630 C4628 1.363 . S
C4630 C4631 1.370 . S
C4630 C4634 1.524 . S
C4631 C4623 1.503 . S
C4631 C4630 1.370 . S
C4631 C4632 1.403 1_545 S
C4632 C4631 1.403 1_565 S
C4632 C4633 1.404 . S
C4632 C4635 1.539 . S
C4633 C4629 1.408 1_565 S
C4633 C4632 1.404 . S
C4633 H4645 0.930 . S
C4634 C4630 1.524 . S
C4634 H4646 0.956 . S
C4634 H4647 0.961 . S
C4634 H4648 0.961 . S
C4635 C4632 1.539 . S
C4635 H4649 0.958 . S
C4635 H4650 0.961 . S
C4635 H4651 0.960 . S
H4636 C4620 0.931 . S
H4637 C4625 0.929 . S
H4638 C4626 0.960 . S
H4639 C4626 0.962 . S
H4640 C4626 0.960 . S
H4641 C4627 0.961 . S
H4642 C4627 0.961 . S
H4643 C4627 0.961 . S
H4644 C4628 0.931 . S
H4645 C4633 0.930 . S
H4646 C4634 0.956 . S
H4647 C4634 0.961 . S
H4648 C4634 0.961 . S
H4649 C4635 0.958 . S
H4650 C4635 0.961 . S
H4651 C4635 0.960 . S
C4652 C4653 1.391 . S
C4652 C4654 1.394 . S
C4652 H4668 0.931 . S
C4653 C4652 1.391 . S
C4653 C4657 1.376 . S
C4654 C4652 1.394 . S
C4654 C4655 1.369 . S
C4654 C4658 1.531 . S
C4655 C4654 1.369 . S
C4655 C4656 1.410 . S
C4655 C4663 1.503 . S
C4656 C4655 1.410 . S
C4656 C4657 1.392 . S
C4656 C4659 1.511 1_655 S
C4657 C4653 1.376 . S
C4657 C4656 1.392 . S
C4657 H4669 0.929 . S
C4658 C4654 1.531 . S
C4658 H4670 0.960 . S
C4658 H4671 0.962 . S
C4658 H4672 0.960 . S
C4659 C4656 1.511 1_455 S
C4659 H4673 0.961 . S
C4659 H4674 0.961 . S
C4659 H4675 0.961 . S
C4660 C4661 1.370 . S
C4660 C4662 1.363 . S
C4660 H4676 0.931 . S
C4661 C4660 1.370 . S
C4661 C4665 1.408 . S
C4662 C4660 1.363 . S
C4662 C4663 1.370 . S
C4662 C4666 1.524 . S
C4663 C4655 1.503 . S
C4663 C4662 1.370 . S
C4663 C4664 1.403 . S
C4664 C4663 1.403 . S
C4664 C4665 1.404 . S
C4664 C4667 1.539 . S
C4665 C4661 1.408 . S
C4665 C4664 1.404 . S
C4665 H4677 0.930 . S
C4666 C4662 1.524 . S
C4666 H4678 0.956 . S
C4666 H4679 0.961 . S
C4666 H4680 0.961 . S
C4667 C4664 1.539 . S
C4667 H4681 0.958 . S
C4667 H4682 0.961 1_655 S
C4667 H4683 0.960 . S
H4668 C4652 0.931 . S
H4669 C4657 0.929 . S
H4670 C4658 0.960 . S
H4671 C4658 0.962 . S
H4672 C4658 0.960 . S
H4673 C4659 0.961 . S
H4674 C4659 0.961 . S
H4675 C4659 0.961 . S
H4676 C4660 0.931 . S
H4677 C4665 0.930 . S
H4678 C4666 0.956 . S
H4679 C4666 0.961 . S
H4680 C4666 0.961 . S
H4681 C4667 0.958 . S
H4682 C4667 0.961 1_455 S
H4683 C4667 0.960 . S
C4684 C4685 1.391 . S
C4684 C4686 1.394 . S
C4684 H4700 0.931 . S
C4685 C4684 1.391 . S
C4685 C4689 1.376 . S
C4686 C4684 1.394 . S
C4686 C4687 1.369 . S
C4686 C4690 1.531 . S
C4687 C4686 1.369 . S
C4687 C4688 1.410 . S
C4687 C4695 1.503 . S
C4688 C4687 1.410 . S
C4688 C4689 1.392 . S
C4688 C4691 1.511 . S
C4689 C4685 1.376 . S
C4689 C4688 1.392 . S
C4689 H4701 0.929 . S
C4690 C4686 1.531 . S
C4690 H4702 0.960 . S
C4690 H4703 0.962 . S
C4690 H4704 0.960 . S
C4691 C4688 1.511 . S
C4691 H4705 0.961 . S
C4691 H4706 0.961 . S
C4691 H4707 0.961 . S
C4692 C4693 1.370 . S
C4692 C4694 1.363 . S
C4692 H4708 0.931 . S
C4693 C4692 1.370 . S
C4693 C4697 1.408 . S
C4694 C4692 1.363 . S
C4694 C4695 1.370 . S
C4694 C4698 1.524 . S
C4695 C4687 1.503 . S
C4695 C4694 1.370 . S
C4695 C4696 1.403 . S
C4696 C4695 1.403 . S
C4696 C4697 1.404 . S
C4696 C4699 1.539 . S
C4697 C4693 1.408 . S
C4697 C4696 1.404 . S
C4697 H4709 0.930 . S
C4698 C4694 1.524 . S
C4698 H4710 0.956 . S
C4698 H4711 0.961 . S
C4698 H4712 0.961 . S
C4699 C4696 1.539 . S
C4699 H4713 0.958 . S
C4699 H4714 0.961 . S
C4699 H4715 0.960 . S
H4700 C4684 0.931 . S
H4701 C4689 0.929 . S
H4702 C4690 0.960 . S
H4703 C4690 0.962 . S
H4704 C4690 0.960 . S
H4705 C4691 0.961 . S
H4706 C4691 0.961 . S
H4707 C4691 0.961 . S
H4708 C4692 0.931 . S
H4709 C4697 0.930 . S
H4710 C4698 0.956 . S
H4711 C4698 0.961 . S
H4712 C4698 0.961 . S
H4713 C4699 0.958 . S
H4714 C4699 0.961 . S
H4715 C4699 0.960 . S
C4716 C4717 1.391 . S
C4716 C4718 1.394 . S
C4716 H4732 0.931 . S
C4717 C4716 1.391 . S
C4717 C4721 1.376 . S
C4718 C4716 1.394 . S
C4718 C4719 1.369 . S
C4718 C4722 1.531 . S
C4719 C4718 1.369 . S
C4719 C4720 1.410 . S
C4719 C4727 1.503 . S
C4720 C4719 1.410 . S
C4720 C4721 1.392 . S
C4720 C4723 1.511 . S
C4721 C4717 1.376 . S
C4721 C4720 1.392 . S
C4721 H4733 0.929 . S
C4722 C4718 1.531 . S
C4722 H4734 0.960 . S
C4722 H4735 0.962 . S
C4722 H4736 0.960 . S
C4723 C4720 1.511 . S
C4723 H4737 0.961 . S
C4723 H4738 0.961 . S
C4723 H4739 0.961 . S
C4724 C4725 1.370 . S
C4724 C4726 1.363 . S
C4724 H4740 0.931 . S
C4725 C4724 1.370 . S
C4725 C4729 1.408 . S
C4726 C4724 1.363 . S
C4726 C4727 1.370 . S
C4726 C4730 1.524 . S
C4727 C4719 1.503 . S
C4727 C4726 1.370 . S
C4727 C4728 1.403 . S
C4728 C4727 1.403 . S
C4728 C4729 1.404 . S
C4728 C4731 1.539 . S
C4729 C4725 1.408 . S
C4729 C4728 1.404 . S
C4729 H4741 0.930 . S
C4730 C4726 1.524 . S
C4730 H4742 0.956 . S
C4730 H4743 0.961 . S
C4730 H4744 0.961 . S
C4731 C4728 1.539 . S
C4731 H4745 0.958 . S
C4731 H4746 0.961 . S
C4731 H4747 0.960 . S
H4732 C4716 0.931 . S
H4733 C4721 0.929 . S
H4734 C4722 0.960 . S
H4735 C4722 0.962 . S
H4736 C4722 0.960 . S
H4737 C4723 0.961 . S
H4738 C4723 0.961 . S
H4739 C4723 0.961 . S
H4740 C4724 0.931 . S
H4741 C4729 0.930 . S
H4742 C4730 0.956 . S
H4743 C4730 0.961 . S
H4744 C4730 0.961 . S
H4745 C4731 0.958 . S
H4746 C4731 0.961 . S
H4747 C4731 0.960 . S
C4748 C4749 1.391 . S
C4748 C4750 1.394 . S
C4748 H4764 0.931 . S
C4749 C4748 1.391 . S
C4749 C4753 1.376 . S
C4750 C4748 1.394 . S
C4750 C4751 1.369 . S
C4750 C4754 1.531 . S
C4751 C4750 1.369 . S
C4751 C4752 1.410 . S
C4751 C4759 1.503 . S
C4752 C4751 1.410 . S
C4752 C4753 1.392 . S
C4752 C4755 1.511 . S
C4753 C4749 1.376 . S
C4753 C4752 1.392 . S
C4753 H4765 0.929 . S
C4754 C4750 1.531 . S
C4754 H4766 0.960 . S
C4754 H4767 0.962 . S
C4754 H4768 0.960 . S
C4755 C4752 1.511 . S
C4755 H4769 0.961 . S
C4755 H4770 0.961 . S
C4755 H4771 0.961 . S
C4756 C4757 1.370 . S
C4756 C4758 1.363 . S
C4756 H4772 0.931 . S
C4757 C4756 1.370 . S
C4757 C4761 1.408 . S
C4758 C4756 1.363 . S
C4758 C4759 1.370 . S
C4758 C4762 1.524 . S
C4759 C4751 1.503 . S
C4759 C4758 1.370 . S
C4759 C4760 1.403 . S
C4760 C4759 1.403 . S
C4760 C4761 1.404 . S
C4760 C4763 1.539 . S
C4761 C4757 1.408 . S
C4761 C4760 1.404 . S
C4761 H4773 0.930 . S
C4762 C4758 1.524 . S
C4762 H4774 0.956 . S
C4762 H4775 0.961 . S
C4762 H4776 0.961 . S
C4763 C4760 1.539 . S
C4763 H4777 0.958 . S
C4763 H4778 0.961 . S
C4763 H4779 0.960 . S
H4764 C4748 0.931 . S
H4765 C4753 0.929 . S
H4766 C4754 0.960 . S
H4767 C4754 0.962 . S
H4768 C4754 0.960 . S
H4769 C4755 0.961 . S
H4770 C4755 0.961 . S
H4771 C4755 0.961 . S
H4772 C4756 0.931 . S
H4773 C4761 0.930 . S
H4774 C4762 0.956 . S
H4775 C4762 0.961 . S
H4776 C4762 0.961 . S
H4777 C4763 0.958 . S
H4778 C4763 0.961 . S
H4779 C4763 0.960 . S
C4780 C4781 1.391 . S
C4780 C4782 1.394 . S
C4780 H4796 0.931 . S
C4781 C4780 1.391 . S
C4781 C4785 1.376 . S
C4782 C4780 1.394 . S
C4782 C4783 1.369 . S
C4782 C4786 1.531 . S
C4783 C4782 1.369 . S
C4783 C4784 1.410 . S
C4783 C4791 1.503 . S
C4784 C4783 1.410 . S
C4784 C4785 1.392 . S
C4784 C4787 1.511 . S
C4785 C4781 1.376 . S
C4785 C4784 1.392 . S
C4785 H4797 0.929 . S
C4786 C4782 1.531 . S
C4786 H4798 0.960 . S
C4786 H4799 0.962 . S
C4786 H4800 0.960 . S
C4787 C4784 1.511 . S
C4787 H4801 0.961 . S
C4787 H4802 0.961 . S
C4787 H4803 0.961 . S
C4788 C4789 1.370 . S
C4788 C4790 1.363 . S
C4788 H4804 0.931 . S
C4789 C4788 1.370 . S
C4789 C4793 1.408 . S
C4790 C4788 1.363 . S
C4790 C4791 1.370 . S
C4790 C4794 1.524 . S
C4791 C4783 1.503 . S
C4791 C4790 1.370 . S
C4791 C4792 1.403 . S
C4792 C4791 1.403 . S
C4792 C4793 1.404 . S
C4792 C4795 1.539 . S
C4793 C4789 1.408 . S
C4793 C4792 1.404 . S
C4793 H4805 0.930 . S
C4794 C4790 1.524 . S
C4794 H4806 0.956 . S
C4794 H4807 0.961 . S
C4794 H4808 0.961 . S
C4795 C4792 1.539 . S
C4795 H4809 0.958 . S
C4795 H4810 0.961 . S
C4795 H4811 0.960 . S
H4796 C4780 0.931 . S
H4797 C4785 0.929 . S
H4798 C4786 0.960 . S
H4799 C4786 0.962 . S
H4800 C4786 0.960 . S
H4801 C4787 0.961 . S
H4802 C4787 0.961 . S
H4803 C4787 0.961 . S
H4804 C4788 0.931 . S
H4805 C4793 0.930 . S
H4806 C4794 0.956 . S
H4807 C4794 0.961 . S
H4808 C4794 0.961 . S
H4809 C4795 0.958 . S
H4810 C4795 0.961 . S
H4811 C4795 0.960 . S
C4812 C4813 1.391 . S
C4812 C4814 1.394 . S
C4812 H4828 0.931 . S
C4813 C4812 1.391 . S
C4813 C4817 1.376 . S
C4814 C4812 1.394 . S
C4814 C4815 1.369 . S
C4814 C4818 1.531 . S
C4815 C4814 1.369 . S
C4815 C4816 1.410 . S
C4815 C4823 1.503 . S
C4816 C4815 1.410 . S
C4816 C4817 1.392 . S
C4816 C4819 1.511 . S
C4817 C4813 1.376 . S
C4817 C4816 1.392 . S
C4817 H4829 0.929 . S
C4818 C4814 1.531 . S
C4818 H4830 0.960 . S
C4818 H4831 0.962 . S
C4818 H4832 0.960 . S
C4819 C4816 1.511 . S
C4819 H4833 0.961 . S
C4819 H4834 0.961 . S
C4819 H4835 0.961 . S
C4820 C4821 1.370 . S
C4820 C4822 1.363 . S
C4820 H4836 0.931 . S
C4821 C4820 1.370 . S
C4821 C4825 1.408 . S
C4822 C4820 1.363 . S
C4822 C4823 1.370 . S
C4822 C4826 1.524 . S
C4823 C4815 1.503 . S
C4823 C4822 1.370 . S
C4823 C4824 1.403 . S
C4824 C4823 1.403 . S
C4824 C4825 1.404 . S
C4824 C4827 1.539 . S
C4825 C4821 1.408 . S
C4825 C4824 1.404 . S
C4825 H4837 0.930 . S
C4826 C4822 1.524 . S
C4826 H4838 0.956 . S
C4826 H4839 0.961 . S
C4826 H4840 0.961 . S
C4827 C4824 1.539 . S
C4827 H4841 0.958 . S
C4827 H4842 0.961 . S
C4827 H4843 0.960 . S
H4828 C4812 0.931 . S
H4829 C4817 0.929 . S
H4830 C4818 0.960 . S
H4831 C4818 0.962 . S
H4832 C4818 0.960 . S
H4833 C4819 0.961 . S
H4834 C4819 0.961 . S
H4835 C4819 0.961 . S
H4836 C4820 0.931 . S
H4837 C4825 0.930 . S
H4838 C4826 0.956 . S
H4839 C4826 0.961 . S
H4840 C4826 0.961 . S
H4841 C4827 0.958 . S
H4842 C4827 0.961 . S
H4843 C4827 0.960 . S
C4844 C4845 1.391 . S
C4844 C4846 1.394 . S
C4844 H4860 0.931 . S
C4845 C4844 1.391 . S
C4845 C4849 1.376 . S
C4846 C4844 1.394 . S
C4846 C4847 1.369 . S
C4846 C4850 1.531 . S
C4847 C4846 1.369 . S
C4847 C4848 1.410 . S
C4847 C4855 1.503 . S
C4848 C4847 1.410 . S
C4848 C4849 1.392 . S
C4848 C4851 1.511 . S
C4849 C4845 1.376 . S
C4849 C4848 1.392 . S
C4849 H4861 0.929 . S
C4850 C4846 1.531 . S
C4850 H4862 0.960 . S
C4850 H4863 0.962 . S
C4850 H4864 0.960 . S
C4851 C4848 1.511 . S
C4851 H4865 0.961 . S
C4851 H4866 0.961 . S
C4851 H4867 0.961 . S
C4852 C4853 1.370 . S
C4852 C4854 1.363 . S
C4852 H4868 0.931 . S
C4853 C4852 1.370 . S
C4853 C4857 1.408 . S
C4854 C4852 1.363 . S
C4854 C4855 1.370 . S
C4854 C4858 1.524 . S
C4855 C4847 1.503 . S
C4855 C4854 1.370 . S
C4855 C4856 1.403 . S
C4856 C4855 1.403 . S
C4856 C4857 1.404 . S
C4856 C4859 1.539 . S
C4857 C4853 1.408 . S
C4857 C4856 1.404 . S
C4857 H4869 0.930 . S
C4858 C4854 1.524 . S
C4858 H4870 0.956 . S
C4858 H4871 0.961 . S
C4858 H4872 0.961 . S
C4859 C4856 1.539 . S
C4859 H4873 0.958 . S
C4859 H4874 0.961 . S
C4859 H4875 0.960 . S
H4860 C4844 0.931 . S
H4861 C4849 0.929 . S
H4862 C4850 0.960 . S
H4863 C4850 0.962 . S
H4864 C4850 0.960 . S
H4865 C4851 0.961 . S
H4866 C4851 0.961 . S
H4867 C4851 0.961 . S
H4868 C4852 0.931 . S
H4869 C4857 0.930 . S
H4870 C4858 0.956 . S
H4871 C4858 0.961 . S
H4872 C4858 0.961 . S
H4873 C4859 0.958 . S
H4874 C4859 0.961 . S
H4875 C4859 0.960 . S
C4876 C4877 1.391 . S
C4876 C4878 1.394 . S
C4876 H4892 0.931 . S
C4877 C4876 1.391 . S
C4877 C4881 1.376 . S
C4878 C4876 1.394 . S
C4878 C4879 1.369 . S
C4878 C4882 1.531 . S
C4879 C4878 1.369 . S
C4879 C4880 1.410 . S
C4879 C4887 1.503 . S
C4880 C4879 1.410 . S
C4880 C4881 1.392 . S
C4880 C4883 1.511 . S
C4881 C4877 1.376 . S
C4881 C4880 1.392 . S
C4881 H4893 0.929 . S
C4882 C4878 1.531 . S
C4882 H4894 0.960 . S
C4882 H4895 0.962 . S
C4882 H4896 0.960 . S
C4883 C4880 1.511 . S
C4883 H4897 0.961 . S
C4883 H4898 0.961 . S
C4883 H4899 0.961 . S
C4884 C4885 1.370 . S
C4884 C4886 1.363 . S
C4884 H4900 0.931 . S
C4885 C4884 1.370 . S
C4885 C4889 1.408 . S
C4886 C4884 1.363 . S
C4886 C4887 1.370 . S
C4886 C4890 1.524 . S
C4887 C4879 1.503 . S
C4887 C4886 1.370 . S
C4887 C4888 1.403 . S
C4888 C4887 1.403 . S
C4888 C4889 1.404 . S
C4888 C4891 1.539 . S
C4889 C4885 1.408 . S
C4889 C4888 1.404 . S
C4889 H4901 0.930 . S
C4890 C4886 1.524 . S
C4890 H4902 0.956 . S
C4890 H4903 0.961 . S
C4890 H4904 0.961 . S
C4891 C4888 1.539 . S
C4891 H4905 0.958 . S
C4891 H4906 0.961 . S
C4891 H4907 0.960 . S
H4892 C4876 0.931 . S
H4893 C4881 0.929 . S
H4894 C4882 0.960 . S
H4895 C4882 0.962 . S
H4896 C4882 0.960 . S
H4897 C4883 0.961 . S
H4898 C4883 0.961 . S
H4899 C4883 0.961 . S
H4900 C4884 0.931 . S
H4901 C4889 0.930 . S
H4902 C4890 0.956 . S
H4903 C4890 0.961 . S
H4904 C4890 0.961 . S
H4905 C4891 0.958 . S
H4906 C4891 0.961 . S
H4907 C4891 0.960 . S
C4908 C4909 1.391 . S
C4908 C4910 1.394 . S
C4908 H4924 0.931 . S
C4909 C4908 1.391 . S
C4909 C4913 1.376 . S
C4910 C4908 1.394 . S
C4910 C4911 1.369 . S
C4910 C4914 1.531 . S
C4911 C4910 1.369 . S
C4911 C4912 1.410 . S
C4911 C4919 1.503 . S
C4912 C4911 1.410 . S
C4912 C4913 1.392 . S
C4912 C4915 1.511 1_655 S
C4913 C4909 1.376 . S
C4913 C4912 1.392 . S
C4913 H4925 0.929 . S
C4914 C4910 1.531 . S
C4914 H4926 0.960 . S
C4914 H4927 0.962 . S
C4914 H4928 0.960 . S
C4915 C4912 1.511 1_455 S
C4915 H4929 0.961 . S
C4915 H4930 0.961 . S
C4915 H4931 0.961 . S
C4916 C4917 1.370 . S
C4916 C4918 1.363 . S
C4916 H4932 0.931 . S
C4917 C4916 1.370 . S
C4917 C4921 1.408 . S
C4918 C4916 1.363 . S
C4918 C4919 1.370 . S
C4918 C4922 1.524 . S
C4919 C4911 1.503 . S
C4919 C4918 1.370 . S
C4919 C4920 1.403 . S
C4920 C4919 1.403 . S
C4920 C4921 1.404 . S
C4920 C4923 1.539 . S
C4921 C4917 1.408 . S
C4921 C4920 1.404 . S
C4921 H4933 0.930 . S
C4922 C4918 1.524 . S
C4922 H4934 0.956 . S
C4922 H4935 0.961 . S
C4922 H4936 0.961 . S
C4923 C4920 1.539 . S
C4923 H4937 0.958 . S
C4923 H4938 0.961 . S
C4923 H4939 0.960 . S
H4924 C4908 0.931 . S
H4925 C4913 0.929 . S
H4926 C4914 0.960 . S
H4927 C4914 0.962 . S
H4928 C4914 0.960 . S
H4929 C4915 0.961 . S
H4930 C4915 0.961 . S
H4931 C4915 0.961 . S
H4932 C4916 0.931 . S
H4933 C4921 0.930 . S
H4934 C4922 0.956 . S
H4935 C4922 0.961 . S
H4936 C4922 0.961 . S
H4937 C4923 0.958 . S
H4938 C4923 0.961 . S
H4939 C4923 0.960 . S
C4940 C4941 1.391 . S
C4940 C4942 1.394 . S
C4940 H4956 0.931 . S
C4941 C4940 1.391 . S
C4941 C4945 1.376 . S
C4942 C4940 1.394 . S
C4942 C4943 1.369 . S
C4942 C4946 1.531 . S
C4943 C4942 1.369 . S
C4943 C4944 1.410 . S
C4943 C4951 1.503 . S
C4944 C4943 1.410 . S
C4944 C4945 1.392 . S
C4944 C4947 1.511 . S
C4945 C4941 1.376 . S
C4945 C4944 1.392 . S
C4945 H4957 0.929 . S
C4946 C4942 1.531 . S
C4946 H4958 0.960 . S
C4946 H4959 0.962 . S
C4946 H4960 0.960 . S
C4947 C4944 1.511 . S
C4947 H4961 0.961 . S
C4947 H4962 0.961 . S
C4947 H4963 0.961 . S
C4948 C4949 1.370 . S
C4948 C4950 1.363 . S
C4948 H4964 0.931 . S
C4949 C4948 1.370 . S
C4949 C4953 1.408 . S
C4950 C4948 1.363 . S
C4950 C4951 1.370 . S
C4950 C4954 1.524 . S
C4951 C4943 1.503 . S
C4951 C4950 1.370 . S
C4951 C4952 1.403 . S
C4952 C4951 1.403 . S
C4952 C4953 1.404 . S
C4952 C4955 1.539 . S
C4953 C4949 1.408 . S
C4953 C4952 1.404 . S
C4953 H4965 0.930 . S
C4954 C4950 1.524 . S
C4954 H4966 0.956 . S
C4954 H4967 0.961 . S
C4954 H4968 0.961 . S
C4955 C4952 1.539 . S
C4955 H4969 0.958 . S
C4955 H4970 0.961 . S
C4955 H4971 0.960 . S
H4956 C4940 0.931 . S
H4957 C4945 0.929 . S
H4958 C4946 0.960 . S
H4959 C4946 0.962 . S
H4960 C4946 0.960 . S
H4961 C4947 0.961 . S
H4962 C4947 0.961 . S
H4963 C4947 0.961 . S
H4964 C4948 0.931 . S
H4965 C4953 0.930 . S
H4966 C4954 0.956 . S
H4967 C4954 0.961 . S
H4968 C4954 0.961 . S
H4969 C4955 0.958 . S
H4970 C4955 0.961 . S
H4971 C4955 0.960 . S
C4972 C4973 1.391 . S
C4972 C4974 1.394 . S
C4972 H4988 0.931 . S
C4973 C4972 1.391 . S
C4973 C4977 1.376 . S
C4974 C4972 1.394 . S
C4974 C4975 1.369 . S
C4974 C4978 1.531 1_545 S
C4975 C4974 1.369 . S
C4975 C4976 1.410 . S
C4975 C4983 1.503 . S
C4976 C4975 1.410 . S
C4976 C4977 1.392 . S
C4976 C4979 1.511 . S
C4977 C4973 1.376 . S
C4977 C4976 1.392 . S
C4977 H4989 0.929 . S
C4978 C4974 1.531 1_565 S
C4978 H4990 0.960 . S
C4978 H4991 0.962 . S
C4978 H4992 0.960 . S
C4979 C4976 1.511 . S
C4979 H4993 0.961 . S
C4979 H4994 0.961 . S
C4979 H4995 0.961 . S
C4980 C4981 1.370 . S
C4980 C4982 1.363 . S
C4980 H4996 0.931 . S
C4981 C4980 1.370 . S
C4981 C4985 1.408 . S
C4982 C4980 1.363 . S
C4982 C4983 1.370 . S
C4982 C4986 1.524 . S
C4983 C4975 1.503 . S
C4983 C4982 1.370 . S
C4983 C4984 1.403 . S
C4984 C4983 1.403 . S
C4984 C4985 1.404 . S
C4984 C4987 1.539 . S
C4985 C4981 1.408 . S
C4985 C4984 1.404 . S
C4985 H4997 0.918 1_545 S
C4986 C4982 1.524 . S
C4986 H4998 0.956 . S
C4986 H4999 0.961 . S
C4986 H5000 0.961 . S
C4987 C4984 1.539 . S
C4987 H5001 0.958 1_545 S
C4987 H5002 0.961 . S
C4987 H5003 0.960 . S
H4988 C4972 0.931 . S
H4989 C4977 0.929 . S
H4990 C4978 0.960 . S
H4991 C4978 0.962 . S
H4992 C4978 0.960 . S
H4993 C4979 0.961 . S
H4994 C4979 0.961 . S
H4995 C4979 0.961 . S
H4996 C4980 0.931 . S
H4997 C4985 0.918 1_565 S
H4998 C4986 0.956 . S
H4999 C4986 0.961 . S
H5000 C4986 0.961 . S
H5001 C4987 0.958 1_565 S
H5002 C4987 0.961 . S
H5003 C4987 0.960 . S
C2701 C49 1.662 . S
C2709 C2189 1.626 . S
C2733 C137 1.698 . S
C2741 C2233 1.638 . S
C2773 C2313 1.612 . S
C2765 C205 1.677 . S
C2797 C196 1.673 . S
C2805 C2357 1.610 . S
C2829 C57 1.662 . S
C2837 C2437 1.623 . S
C2861 C145 1.702 . S
C2869 C2499 1.609 . S
C2893 C313 1.648 . S
C2901 C2419 1.618 . S
C2933 C2481 1.631 . S
C2925 C401 1.681 . S
C2965 C2375 1.623 . S
C2957 C489 1.663 . S
C2989 C469 1.683 . S
C2997 C2295 1.613 . S
C3029 C2171 1.613 . S
C3021 C293 1.683 . S
C3053 C381 1.681 . S
C3061 C2251 1.654 . S
C3085 C577 1.736 . S
C3093 C2561 1.655 . S
C3117 C645 1.733 . S
C3125 C2605 1.663 . S
C3157 C2685 1.627 . S
C3149 C733 1.689 . S
C3181 C724 1.692 . S
C3189 C1631 1.641 . S
C3213 C585 1.723 . S
C3221 C1675 1.661 . S
C3245 C636 1.742 . S
C3253 C1755 1.652 . S
C3277 C841 1.705 . S
C3285 C1693 1.651 . S
C3309 C937 1.723 . S
C3317 C1737 1.663 . S
C3349 C1613 1.644 . S
C3341 C1025 1.711 . S
C3381 C2667 1.669 . S
C3373 C988 1.730 . S
C3413 C2543 1.634 . S
C3405 C821 1.689 . S
C3445 C2623 1.681 . S
C3437 C900 1.716 . S
C3469 C1105 1.684 . S
C3477 C1817 1.635 . S
C3501 C1193 1.725 . S
C3509 C1879 1.673 . S
C3533 C1281 1.712 . S
C3541 C1923 1.672 . S
C3565 C1289 1.715 . S
C3573 C1985 1.687 . S
C3605 C2047 1.648 . S
C3597 C1113 1.697 . S
C3637 C2127 1.637 . S
C3629 C1201 1.733 . S
C3669 C2065 1.683 . S
C3661 C1369 1.721 . S
C3701 C2109 1.644 . S
C3693 C1457 1.735 . S
C3725 C1553 1.695 . S
C3733 C2003 1.645 . S
C3765 C1941 1.661 . S
C3757 C1516 1.689 . S
C3789 C1349 1.732 . S
C3797 C1799 1.641 . S
C3829 C1861 1.649 . S
C3821 C1437 1.731 . S
C3861 C1637 1.343 . S
C3853 C29 1.443 . S
C3885 C117 1.402 . S
C3893 C1681 1.318 . S
C3925 C1761 1.363 . S
C3917 C225 1.433 . S
C3957 C1823 1.344 . S
C3949 C233 1.408 . S
C3989 C1885 1.359 . S
C3981 C20 1.435 . S
C4021 C1929 1.352 . S
C4013 C108 1.396 . S
C4045 C321 1.436 . S
C4053 C1947 1.398 . S
C4077 C409 1.394 . S
C4085 C1805 1.300 . S
C4109 C497 1.453 . S
C4117 C1867 1.381 . S
C4141 C460 1.438 . S
C4149 C1699 1.368 . S
C4181 C1743 1.346 . S
C4173 C284 1.452 . S
C4205 C372 1.419 . S
C4213 C1619 1.305 . S
C4245 C1991 1.362 . S
C4237 C557 1.403 . S
C4269 C665 1.455 . S
C4277 C2053 1.387 . S
C4301 C753 1.490 . S
C4309 C2133 1.369 . S
C4341 C2195 1.167 . S
C4333 C761 1.248 . S
C4365 C548 1.398 . S
C4373 C2239 1.342 . S
C4397 C673 1.253 . S
C4405 C2319 1.163 . S
C4429 C849 1.253 . S
C4437 C2301 1.179 . S
C4461 C929 1.258 . S
C4469 C2177 1.172 . S
C4501 C2257 1.349 . S
C4493 C1017 1.397 . S
C4525 C997 1.432 . S
C4533 C2071 1.352 . S
C4557 C812 1.484 . S
C4565 C2115 1.363 . S
C4597 C2009 1.408 . S
C4589 C909 1.458 . S
C4629 C2363 1.192 . S
C4621 C1085 1.228 . S
C4653 C1173 1.244 . S
C4661 C2443 1.165 . S
C4685 C1261 1.391 . S
C4693 C2505 1.324 . S
C4725 C2567 1.329 . S
C4717 C1252 1.418 . S
C4757 C2611 1.401 . S
C4749 C1076 1.489 . S
C4781 C1164 1.452 . S
C4789 C2691 1.389 . S
C4813 C1377 1.403 . S
C4821 C2673 1.337 . S
C4845 C1465 1.456 . S
C4853 C2549 1.384 . S
C4885 C2629 1.399 . S
C4877 C1545 1.489 . S
C4917 C2425 1.197 . S
C4909 C1525 1.239 . S
C4949 C2487 1.291 . S
C4941 C1340 1.404 . S
C4973 C1428 1.249 . S
C4981 C2381 1.178 . S
