# Generated by pormake.
# Topology eea, (3,6)-cn, num edge types: 1
# Building blocks:
#     Node 0, Type 0, BuildingBlock: PAMTOO_clean_linker_0, # of connection points: 3
#     Node 1, Type 0, BuildingBlock: PAMTOO_clean_linker_0, # of connection points: 3
#     Node 2, Type 0, BuildingBlock: PAMTOO_clean_linker_0, # of connection points: 3
#     Node 3, Type 0, BuildingBlock: PAMTOO_clean_linker_0, # of connection points: 3
#     Node 4, Type 0, BuildingBlock: PAMTOO_clean_linker_0, # of connection points: 3
#     Node 5, Type 0, BuildingBlock: PAMTOO_clean_linker_0, # of connection points: 3
#     Node 6, Type 0, BuildingBlock: PAMTOO_clean_linker_0, # of connection points: 3
#     Node 7, Type 0, BuildingBlock: PAMTOO_clean_linker_0, # of connection points: 3
#     Node 8, Type 0, BuildingBlock: PAMTOO_clean_linker_0, # of connection points: 3
#     Node 9, Type 0, BuildingBlock: PAMTOO_clean_linker_0, # of connection points: 3
#     Node 10, Type 0, BuildingBlock: PAMTOO_clean_linker_0, # of connection points: 3
#     Node 11, Type 0, BuildingBlock: PAMTOO_clean_linker_0, # of connection points: 3
#     Node 12, Type 0, BuildingBlock: PAMTOO_clean_linker_0, # of connection points: 3
#     Node 13, Type 0, BuildingBlock: PAMTOO_clean_linker_0, # of connection points: 3
#     Node 14, Type 0, BuildingBlock: PAMTOO_clean_linker_0, # of connection points: 3
#     Node 15, Type 0, BuildingBlock: PAMTOO_clean_linker_0, # of connection points: 3
#     Node 16, Type 0, BuildingBlock: PAMTOO_clean_linker_0, # of connection points: 3
#     Node 17, Type 0, BuildingBlock: PAMTOO_clean_linker_0, # of connection points: 3
#     Node 18, Type 1, BuildingBlock: NUHQIS_clean_sbu_0, # of connection points: 6
#     Node 19, Type 1, BuildingBlock: NUHQIS_clean_sbu_0, # of connection points: 6
#     Node 20, Type 1, BuildingBlock: NUHQIS_clean_sbu_0, # of connection points: 6
#     Node 21, Type 1, BuildingBlock: NUHQIS_clean_sbu_0, # of connection points: 6
#     Node 22, Type 1, BuildingBlock: NUHQIS_clean_sbu_0, # of connection points: 6
#     Node 23, Type 1, BuildingBlock: NUHQIS_clean_sbu_0, # of connection points: 6
#     Node 24, Type 1, BuildingBlock: NUHQIS_clean_sbu_0, # of connection points: 6
#     Node 25, Type 1, BuildingBlock: NUHQIS_clean_sbu_0, # of connection points: 6
#     Node 26, Type 1, BuildingBlock: NUHQIS_clean_sbu_0, # of connection points: 6
#     Edge 27, Type (0, 1), BuildingBlock: OJICUG_clean_linker_0, # of connection points: 2
#     Edge 28, Type (0, 1), BuildingBlock: OJICUG_clean_linker_0, # of connection points: 2
#     Edge 29, Type (0, 1), BuildingBlock: OJICUG_clean_linker_0, # of connection points: 2
#     Edge 30, Type (0, 1), BuildingBlock: OJICUG_clean_linker_0, # of connection points: 2
#     Edge 31, Type (0, 1), BuildingBlock: OJICUG_clean_linker_0, # of connection points: 2
#     Edge 32, Type (0, 1), BuildingBlock: OJICUG_clean_linker_0, # of connection points: 2
#     Edge 33, Type (0, 1), BuildingBlock: OJICUG_clean_linker_0, # of connection points: 2
#     Edge 34, Type (0, 1), BuildingBlock: OJICUG_clean_linker_0, # of connection points: 2
#     Edge 35, Type (0, 1), BuildingBlock: OJICUG_clean_linker_0, # of connection points: 2
#     Edge 36, Type (0, 1), BuildingBlock: OJICUG_clean_linker_0, # of connection points: 2
#     Edge 37, Type (0, 1), BuildingBlock: OJICUG_clean_linker_0, # of connection points: 2
#     Edge 38, Type (0, 1), BuildingBlock: OJICUG_clean_linker_0, # of connection points: 2
#     Edge 39, Type (0, 1), BuildingBlock: OJICUG_clean_linker_0, # of connection points: 2
#     Edge 40, Type (0, 1), BuildingBlock: OJICUG_clean_linker_0, # of connection points: 2
#     Edge 41, Type (0, 1), BuildingBlock: OJICUG_clean_linker_0, # of connection points: 2
#     Edge 42, Type (0, 1), BuildingBlock: OJICUG_clean_linker_0, # of connection points: 2
#     Edge 43, Type (0, 1), BuildingBlock: OJICUG_clean_linker_0, # of connection points: 2
#     Edge 44, Type (0, 1), BuildingBlock: OJICUG_clean_linker_0, # of connection points: 2
#     Edge 45, Type (0, 1), BuildingBlock: OJICUG_clean_linker_0, # of connection points: 2
#     Edge 46, Type (0, 1), BuildingBlock: OJICUG_clean_linker_0, # of connection points: 2
#     Edge 47, Type (0, 1), BuildingBlock: OJICUG_clean_linker_0, # of connection points: 2
#     Edge 48, Type (0, 1), BuildingBlock: OJICUG_clean_linker_0, # of connection points: 2
#     Edge 49, Type (0, 1), BuildingBlock: OJICUG_clean_linker_0, # of connection points: 2
#     Edge 50, Type (0, 1), BuildingBlock: OJICUG_clean_linker_0, # of connection points: 2
#     Edge 51, Type (0, 1), BuildingBlock: OJICUG_clean_linker_0, # of connection points: 2
#     Edge 52, Type (0, 1), BuildingBlock: OJICUG_clean_linker_0, # of connection points: 2
#     Edge 53, Type (0, 1), BuildingBlock: OJICUG_clean_linker_0, # of connection points: 2
#     Edge 54, Type (0, 1), BuildingBlock: OJICUG_clean_linker_0, # of connection points: 2
#     Edge 55, Type (0, 1), BuildingBlock: OJICUG_clean_linker_0, # of connection points: 2
#     Edge 56, Type (0, 1), BuildingBlock: OJICUG_clean_linker_0, # of connection points: 2
#     Edge 57, Type (0, 1), BuildingBlock: OJICUG_clean_linker_0, # of connection points: 2
#     Edge 58, Type (0, 1), BuildingBlock: OJICUG_clean_linker_0, # of connection points: 2
#     Edge 59, Type (0, 1), BuildingBlock: OJICUG_clean_linker_0, # of connection points: 2
#     Edge 60, Type (0, 1), BuildingBlock: OJICUG_clean_linker_0, # of connection points: 2
#     Edge 61, Type (0, 1), BuildingBlock: OJICUG_clean_linker_0, # of connection points: 2
#     Edge 62, Type (0, 1), BuildingBlock: OJICUG_clean_linker_0, # of connection points: 2
#     Edge 63, Type (0, 1), BuildingBlock: OJICUG_clean_linker_0, # of connection points: 2
#     Edge 64, Type (0, 1), BuildingBlock: OJICUG_clean_linker_0, # of connection points: 2
#     Edge 65, Type (0, 1), BuildingBlock: OJICUG_clean_linker_0, # of connection points: 2
#     Edge 66, Type (0, 1), BuildingBlock: OJICUG_clean_linker_0, # of connection points: 2
#     Edge 67, Type (0, 1), BuildingBlock: OJICUG_clean_linker_0, # of connection points: 2
#     Edge 68, Type (0, 1), BuildingBlock: OJICUG_clean_linker_0, # of connection points: 2
#     Edge 69, Type (0, 1), BuildingBlock: OJICUG_clean_linker_0, # of connection points: 2
#     Edge 70, Type (0, 1), BuildingBlock: OJICUG_clean_linker_0, # of connection points: 2
#     Edge 71, Type (0, 1), BuildingBlock: OJICUG_clean_linker_0, # of connection points: 2
#     Edge 72, Type (0, 1), BuildingBlock: OJICUG_clean_linker_0, # of connection points: 2
#     Edge 73, Type (0, 1), BuildingBlock: OJICUG_clean_linker_0, # of connection points: 2
#     Edge 74, Type (0, 1), BuildingBlock: OJICUG_clean_linker_0, # of connection points: 2
#     Edge 75, Type (0, 1), BuildingBlock: OJICUG_clean_linker_0, # of connection points: 2
#     Edge 76, Type (0, 1), BuildingBlock: OJICUG_clean_linker_0, # of connection points: 2
#     Edge 77, Type (0, 1), BuildingBlock: OJICUG_clean_linker_0, # of connection points: 2
#     Edge 78, Type (0, 1), BuildingBlock: OJICUG_clean_linker_0, # of connection points: 2
#     Edge 79, Type (0, 1), BuildingBlock: OJICUG_clean_linker_0, # of connection points: 2
#     Edge 80, Type (0, 1), BuildingBlock: OJICUG_clean_linker_0, # of connection points: 2
# Relax obj value: 0.059
# Max RMSD: 0.227
# Mean RMSD: 0.162
data_MOF--net-eea--node1-NUHQIS_clean_sbu_0--node2-PAMTOO_clean_linker_0--edge1-OJICUG_clean_linker_0
_symmetry_space_group_name_H-M    P1
_symmetry_Int_Tables_number       1
_symmetry_cell_setting            triclinic
loop_
_symmetry_equiv_pos_as_xyz
'x, y, z'
_cell_length_a     39.164061
_cell_length_b     39.88511
_cell_length_c     54.767464
_cell_angle_alpha  93.109934
_cell_angle_beta   92.828184
_cell_angle_gamma 120.06013
loop_
_atom_site_label
_atom_site_type_symbol
_atom_site_fract_x
_atom_site_fract_y
_atom_site_fract_z
_atom_type_partial_charge
H0 H 0.2683 0.06535 0.43095 0.0
H1 H 0.25974 0.16876 0.43348 0.0
H2 H 0.20755 0.0854 0.37067 0.0
H3 H 0.25117 0.16758 0.35875 0.0
C4 C 0.24786 0.18152 0.37593 0.0
O5 O 0.22254 0.15304 0.3899 0.0
H6 H 0.27762 0.19943 0.38614 0.0
C7 C 0.25803 0.083 0.4225 0.0
C8 C 0.23651 0.07036 0.39927 0.0
C9 C 0.26605 0.11804 0.43522 0.0
C10 C 0.25332 0.14127 0.42419 0.0
C11 C 0.23313 0.1297 0.40077 0.0
C12 C 0.22426 0.09422 0.38848 0.0
H13 H 0.96988 0.21433 0.43353 0.0
H14 H 0.87301 0.09748 0.43494 0.0
H15 H 0.9475 0.12494 0.37608 0.0
H16 H 0.85947 0.07578 0.36106 0.0
C17 C 0.85046 0.06249 0.37868 0.0
O18 O 0.88394 0.07142 0.39351 0.0
H19 H 0.83362 0.07481 0.38751 0.0
C20 C 0.95344 0.18448 0.4255 0.0
C21 C 0.96383 0.17353 0.40325 0.0
C22 C 0.92068 0.15727 0.43706 0.0
C23 C 0.89836 0.1189 0.42637 0.0
C24 C 0.90774 0.10781 0.4043 0.0
C25 C 0.94049 0.13471 0.39292 0.0
H26 H 0.82187 0.75102 0.43801 0.0
H27 H 0.93818 0.76459 0.4435 0.0
H28 H 0.90256 0.80749 0.3832 0.0
H29 H 0.9409 0.76239 0.37006 0.0
C30 C 0.96345 0.77238 0.38606 0.0
O31 O 0.9585 0.79705 0.40232 0.0
H32 H 0.95875 0.74632 0.39518 0.0
C33 C 0.85064 0.76201 0.43108 0.0
C34 C 0.85845 0.78082 0.40922 0.0
C35 C 0.8792 0.75651 0.44401 0.0
C36 C 0.91558 0.76836 0.43401 0.0
C37 C 0.92344 0.78591 0.41184 0.0
C38 C 0.89524 0.79261 0.39977 0.0
H39 H 0.06222 0.25676 0.58118 0.0
H40 H 0.16158 0.23914 0.57738 0.0
H41 H 0.08978 0.19975 0.63745 0.0
H42 H 0.18048 0.24486 0.64932 0.0
C43 C 0.18773 0.23395 0.63235 0.0
O44 O 0.1531 0.20763 0.61846 0.0
H45 H 0.20562 0.25945 0.62192 0.0
C46 C 0.08015 0.24559 0.58882 0.0
C47 C 0.07091 0.22716 0.61091 0.0
C48 C 0.11231 0.24946 0.57624 0.0
C49 C 0.13609 0.23569 0.58633 0.0
C50 C 0.12844 0.2188 0.60858 0.0
C51 C 0.09579 0.21412 0.62067 0.0
H52 H 0.76068 0.80812 0.59261 0.0
H53 H 0.76888 0.92008 0.5977 0.0
H54 H 0.81097 0.88485 0.65919 0.0
H55 H 0.77187 0.93539 0.67248 0.0
C56 C 0.77561 0.94733 0.65429 0.0
O57 O 0.80183 0.94027 0.64234 0.0
H58 H 0.74604 0.93279 0.64365 0.0
C59 C 0.76878 0.83531 0.60307 0.0
C60 C 0.78656 0.84287 0.62724 0.0
C61 C 0.76228 0.86289 0.59209 0.0
C62 C 0.77365 0.89831 0.60565 0.0
C63 C 0.79055 0.90577 0.62982 0.0
C64 C 0.79683 0.87813 0.64068 0.0
H65 H 0.20049 0.94571 0.5796 0.0
H66 H 0.09 0.83784 0.57621 0.0
H67 H 0.12467 0.9212 0.63864 0.0
H68 H 0.09202 0.84284 0.65185 0.0
C69 C 0.07107 0.82637 0.6354 0.0
O70 O 0.07132 0.85199 0.61937 0.0
H71 H 0.08115 0.80751 0.62643 0.0
C72 C 0.17316 0.92711 0.58759 0.0
C73 C 0.1662 0.93874 0.61065 0.0
C74 C 0.14569 0.89129 0.57472 0.0
C75 C 0.11149 0.86574 0.58572 0.0
C76 C 0.10441 0.87652 0.6089 0.0
C77 C 0.13132 0.91306 0.6211 0.0
H78 H 0.93687 0.4023 0.76316 0.0
H79 H 0.93211 0.50778 0.76418 0.0
H80 H 0.87866 0.42352 0.702 0.0
H81 H 0.91938 0.50242 0.68769 0.0
C82 C 0.91967 0.51814 0.70518 0.0
O83 O 0.8951 0.4918 0.72052 0.0
H84 H 0.95073 0.53448 0.71377 0.0
C85 C 0.92757 0.42042 0.75438 0.0
C86 C 0.90667 0.40797 0.7309 0.0
C87 C 0.93631 0.45597 0.76685 0.0
C88 C 0.92502 0.47987 0.75523 0.0
C89 C 0.905 0.46823 0.73175 0.0
C90 C 0.89526 0.43226 0.71984 0.0
H91 H 0.63583 0.5492 0.76609 0.0
H92 H 0.53764 0.43248 0.7657 0.0
H93 H 0.60474 0.4661 0.70312 0.0
H94 H 0.51193 0.41386 0.6929 0.0
C95 C 0.5076 0.39989 0.71041 0.0
O96 O 0.54399 0.40984 0.72186 0.0
H97 H 0.49198 0.41067 0.7221 0.0
C98 C 0.61708 0.52037 0.7568 0.0
C99 C 0.62479 0.51132 0.73314 0.0
C100 C 0.58594 0.49206 0.76883 0.0
C101 C 0.56207 0.45467 0.75689 0.0
C102 C 0.56831 0.44578 0.73314 0.0
C103 C 0.59953 0.47393 0.72123 0.0
H104 H 0.48847 0.09454 0.77201 0.0
H105 H 0.60374 0.10559 0.77891 0.0
H106 H 0.56724 0.14024 0.71471 0.0
H107 H 0.60747 0.09408 0.70753 0.0
C108 C 0.63052 0.10806 0.72332 0.0
O109 O 0.62451 0.13457 0.73691 0.0
H110 H 0.62752 0.08481 0.7349 0.0
C111 C 0.51651 0.10281 0.76466 0.0
C112 C 0.52399 0.11825 0.74163 0.0
C113 C 0.5447 0.09753 0.77824 0.0
C114 C 0.58128 0.10879 0.76871 0.0
C115 C 0.58928 0.12425 0.74593 0.0
C116 C 0.56075 0.12889 0.73247 0.0
H117 H 0.72406 0.58397 0.91246 0.0
H118 H 0.82521 0.5691 0.90798 0.0
H119 H 0.76046 0.53755 0.97138 0.0
H120 H 0.85247 0.58217 0.97783 0.0
C121 C 0.85646 0.56708 0.96146 0.0
O122 O 0.81986 0.54031 0.94976 0.0
H123 H 0.87386 0.5896 0.94896 0.0
C124 C 0.74403 0.57547 0.92057 0.0
C125 C 0.73752 0.56005 0.94373 0.0
C126 C 0.77566 0.57908 0.90739 0.0
C127 C 0.80035 0.56624 0.91743 0.0
C128 C 0.79476 0.55136 0.94033 0.0
C129 C 0.76369 0.54848 0.95347 0.0
H130 H 0.44073 0.14429 0.92018 0.0
H131 H 0.45566 0.25864 0.92097 0.0
H132 H 0.4985 0.2271 0.98384 0.0
H133 H 0.45551 0.27121 0.99551 0.0
C134 C 0.45948 0.28475 0.97785 0.0
O135 O 0.48732 0.2804 0.96584 0.0
H136 H 0.43033 0.26985 0.9667 0.0
C137 C 0.45185 0.17291 0.92955 0.0
C138 C 0.47101 0.18202 0.95346 0.0
C139 C 0.44682 0.2005 0.91747 0.0
C140 C 0.46025 0.23727 0.92967 0.0
C141 C 0.47782 0.24615 0.95369 0.0
C142 C 0.48382 0.21901 0.96544 0.0
H143 H 0.86699 0.276 0.91678 0.0
H144 H 0.75548 0.16844 0.9113 0.0
H145 H 0.79525 0.24396 0.97804 0.0
H146 H 0.75704 0.16263 0.98551 0.0
C147 C 0.73466 0.14982 0.96934 0.0
O148 O 0.73791 0.17914 0.9556 0.0
H149 H 0.7405 0.12946 0.95809 0.0
C150 C 0.84055 0.25572 0.92499 0.0
C151 C 0.83512 0.2643 0.94925 0.0
C152 C 0.81221 0.22124 0.9111 0.0
C153 C 0.77788 0.19503 0.92176 0.0
C154 C 0.77178 0.20355 0.94579 0.0
C155 C 0.80026 0.23805 0.95942 0.0
H156 H 0.60236 0.73434 0.09979 0.0
H157 H 0.59273 0.83716 0.10257 0.0
H158 H 0.54005 0.7534 0.03996 0.0
H159 H 0.58272 0.83475 0.02778 0.0
C160 C 0.57919 0.84905 0.04472 0.0
O161 O 0.55466 0.82089 0.05916 0.0
H162 H 0.60896 0.86789 0.05474 0.0
C163 C 0.59173 0.75178 0.09144 0.0
C164 C 0.56987 0.73889 0.06832 0.0
C165 C 0.59963 0.78676 0.10419 0.0
C166 C 0.58645 0.80974 0.09326 0.0
C167 C 0.56586 0.79791 0.06993 0.0
C168 C 0.55709 0.76244 0.05767 0.0
H169 H 0.30592 0.87302 0.09906 0.0
H170 H 0.20443 0.75805 0.09831 0.0
H171 H 0.26821 0.7915 0.03451 0.0
H172 H 0.18048 0.742 0.02377 0.0
C173 C 0.17379 0.72775 0.0412 0.0
O174 O 0.20876 0.73555 0.05379 0.0
H175 H 0.15858 0.73979 0.05222 0.0
C176 C 0.28571 0.84481 0.08943 0.0
C177 C 0.29156 0.83611 0.06516 0.0
C178 C 0.2544 0.81691 0.10166 0.0
C179 C 0.22911 0.77986 0.08948 0.0
C180 C 0.23424 0.77098 0.06541 0.0
C181 C 0.26526 0.79888 0.05331 0.0
H182 H 0.15365 0.41929 0.10512 0.0
H183 H 0.26887 0.43031 0.11009 0.0
H184 H 0.23512 0.47652 0.0508 0.0
H185 H 0.27417 0.431 0.03773 0.0
C186 C 0.2964 0.44107 0.05392 0.0
O187 O 0.29088 0.46558 0.06998 0.0
H188 H 0.29153 0.415 0.0631 0.0
C189 C 0.18211 0.42934 0.09793 0.0
C190 C 0.19046 0.44896 0.07638 0.0
C191 C 0.21012 0.42273 0.11053 0.0
C192 C 0.24696 0.43546 0.10097 0.0
C193 C 0.25552 0.45411 0.07922 0.0
C194 C 0.22751 0.46112 0.06716 0.0
H195 H 0.39264 0.91648 0.24722 0.0
H196 H 0.49371 0.90155 0.24297 0.0
H197 H 0.42696 0.86761 0.30558 0.0
H198 H 0.51725 0.91253 0.31424 0.0
C199 C 0.5233 0.89945 0.29773 0.0
O200 O 0.48789 0.87243 0.28483 0.0
H201 H 0.54095 0.9234 0.28616 0.0
C202 C 0.41196 0.90707 0.25513 0.0
C203 C 0.40478 0.89081 0.27798 0.0
C204 C 0.44448 0.91195 0.24254 0.0
C205 C 0.46894 0.89881 0.2525 0.0
C206 C 0.46256 0.88297 0.2751 0.0
C207 C 0.43077 0.87912 0.28783 0.0
H208 H 0.10387 0.47492 0.25367 0.0
H209 H 0.11932 0.58954 0.2548 0.0
H210 H 0.16399 0.55827 0.31687 0.0
H211 H 0.12242 0.60289 0.32983 0.0
C212 C 0.12512 0.61582 0.31202 0.0
O213 O 0.15235 0.61138 0.29935 0.0
H214 H 0.09542 0.60049 0.30151 0.0
C215 C 0.11534 0.50361 0.26302 0.0
C216 C 0.13521 0.51285 0.28675 0.0
C217 C 0.11019 0.53128 0.25109 0.0
C218 C 0.12404 0.56812 0.26332 0.0
C219 C 0.14235 0.57708 0.28713 0.0
C220 C 0.14862 0.54999 0.29867 0.0
H221 H 0.53595 0.61187 0.24881 0.0
H222 H 0.42443 0.50471 0.24293 0.0
H223 H 0.45819 0.58508 0.30692 0.0
H224 H 0.42468 0.50261 0.31645 0.0
C225 C 0.4023 0.48869 0.30032 0.0
O226 O 0.40449 0.51704 0.28601 0.0
H227 H 0.40904 0.46859 0.28951 0.0
C228 C 0.50823 0.59299 0.25631 0.0
C229 C 0.50059 0.60372 0.27944 0.0
C230 C 0.48088 0.5578 0.24276 0.0
C231 C 0.44597 0.53206 0.25304 0.0
C232 C 0.4383 0.54182 0.27631 0.0
C233 C 0.46527 0.57764 0.28931 0.0
Tb234 Tb 0.48968 0.98716 0.98169 0.0
Eu235 Eu 0.51224 0.02459 0.0401 0.0
C236 C 0.52024 0.95197 0.02144 0.0
C237 C 0.42764 0.9528 0.02052 0.0
C238 C 0.48593 0.98516 0.91352 0.0
C239 C 0.53277 0.01593 0.88287 0.0
C240 C 0.52292 0.99701 0.90441 0.0
C241 C 0.459 0.99263 0.90043 0.0
C242 C 0.46889 0.01163 0.87886 0.0
C243 C 0.50588 0.02342 0.86974 0.0
C244 C 0.47539 0.96476 0.93635 0.0
O245 O 0.46969 0.02879 0.98627 0.0
O246 O 0.51209 0.07078 0.01849 0.0
O247 O 0.57007 0.04944 0.0225 0.0
O248 O 0.5457 0.04133 0.98219 0.0
C249 C 0.48869 0.06332 0.9985 0.0
O250 O 0.49865 0.0493 0.07218 0.0
O251 O 0.54742 0.0383 0.07523 0.0
O252 O 0.50818 0.96632 0.03889 0.0
O253 O 0.52203 0.96239 0.99898 0.0
O254 O 0.44327 0.94418 1.00219 0.0
O255 O 0.44618 0.98731 0.0327 0.0
C256 C 0.57539 0.05647 0.99936 0.0
O257 O 0.50442 0.96661 0.95018 0.0
O258 O 0.45073 0.96909 0.9495 0.0
C259 C 0.51051 0.02837 0.10954 0.0
C260 C 0.48586 0.99096 0.15304 0.0
C261 C 0.51535 0.03053 0.15406 0.0
C262 C 0.52754 0.04899 0.13252 0.0
C263 C 0.48062 0.98909 0.10833 0.0
C264 C 0.46833 0.97057 0.12989 0.0
C265 C 0.52484 0.04773 0.087 0.0
H266 H 0.5617 0.025 0.87663 0.0
H267 H 0.54445 0.99171 0.91391 0.0
H268 H 0.43014 0.98363 0.90678 0.0
H269 H 0.44721 0.01642 0.86909 0.0
H270 H 0.52908 0.0473 0.17154 0.0
H271 H 0.55056 0.07934 0.13382 0.0
H272 H 0.46719 0.97264 0.0907 0.0
H273 H 0.44587 0.94003 0.12838 0.0
Tb274 Tb 0.02596 0.48797 0.98416 0.0
Eu275 Eu 0.99338 0.48313 0.03885 0.0
C276 C 0.06352 0.56166 0.02221 0.0
C277 C 0.06842 0.4728 0.0294 0.0
C278 C 0.03319 0.49074 0.9164 0.0
C279 C 0.04558 0.50108 0.87371 0.0
C280 C 0.05929 0.50213 0.89795 0.0
C281 C 0.99341 0.47963 0.91056 0.0
C282 C 0.97959 0.47834 0.8863 0.0
C283 C 1.00536 0.48835 0.86748 0.0
C284 C 0.04724 0.48815 0.94122 0.0
O285 O 0.99136 0.42759 0.99209 0.0
O286 O 0.94632 0.43268 0.01386 0.0
O287 O 0.96653 0.51119 0.01704 0.0
O288 O 0.97196 0.49145 0.97781 0.0
C289 C 0.95531 0.41233 0.99876 0.0
O290 O 0.96597 0.44801 0.06894 0.0
O291 O 0.98073 0.50832 0.07097 0.0
O292 O 0.05152 0.53946 0.04042 0.0
O293 O 0.04939 0.54759 0.99942 0.0
O294 O 0.07246 0.48853 0.0084 0.0
O295 O 0.03681 0.46203 0.04136 0.0
C296 C 0.95693 0.50611 0.99328 0.0
O297 O 0.06155 0.51911 0.95654 0.0
O298 O 0.02392 0.45691 0.95151 0.0
C299 C 0.98967 0.48404 0.10722 0.0
C300 C 0.02914 0.4971 0.15405 0.0
C301 C 0.98779 0.48094 0.15122 0.0
C302 C 0.96819 0.47448 0.12792 0.0
C303 C 0.03081 0.49976 0.10989 0.0
C304 C 0.05041 0.50626 0.13312 0.0
C305 C 0.96936 0.47738 0.08278 0.0
H306 H 0.06639 0.5097 0.85979 0.0
H307 H 0.09014 0.51097 0.90218 0.0
H308 H 0.97279 0.47079 0.9246 0.0
H309 H 0.94838 0.46802 0.88218 0.0
H310 H 0.97071 0.47397 0.16705 0.0
H311 H 0.93638 0.46225 0.12608 0.0
H312 H 0.04773 0.50706 0.09397 0.0
H313 H 0.08218 0.51824 0.13469 0.0
Tb314 Tb 0.54154 0.51689 0.03432 0.0
Eu315 Eu 0.51408 0.52588 0.97817 0.0
C316 C 0.50531 0.44712 0.99445 0.0
C317 C 0.6003 0.54022 0.99279 0.0
C318 C 0.54812 0.51665 0.10168 0.0
C319 C 0.54391 0.508 0.14521 0.0
C320 C 0.55672 0.5027 0.12266 0.0
C321 C 0.52634 0.53576 0.10342 0.0
C322 C 0.51368 0.54122 0.12594 0.0
C323 C 0.52234 0.52744 0.14713 0.0
C324 C 0.56011 0.50954 0.07781 0.0
O325 O 0.56034 0.57788 0.03299 0.0
O326 O 0.51754 0.57555 1.00174 0.0
O327 O 0.45837 0.49835 0.99798 0.0
O328 O 0.48577 0.51598 0.03809 0.0
C329 C 0.54185 0.59307 0.02153 0.0
O330 O 0.52241 0.56157 0.94773 0.0
O331 O 0.47699 0.50065 0.94361 0.0
O332 O 0.51738 0.47087 0.97707 0.0
O333 O 0.50284 0.45927 0.01656 0.0
O334 O 0.58616 0.51796 0.01093 0.0
O335 O 0.58044 0.55463 0.98213 0.0
C336 C 0.45502 0.50225 0.02166 0.0
O337 O 0.53194 0.48147 0.06321 0.0
O338 O 0.5812 0.54005 0.06618 0.0
C339 C 0.51122 0.52754 0.90851 0.0
C340 C 0.53934 0.51869 0.86336 0.0
C341 C 0.55563 0.55555 0.87635 0.0
C342 C 0.54166 0.55994 0.89863 0.0
C343 C 0.49445 0.49081 0.89529 0.0
C344 C 0.50837 0.48645 0.87303 0.0
C345 C 0.49723 0.53208 0.93248 0.0
H346 H 0.55143 0.49742 0.16123 0.0
H347 H 0.57323 0.4876 0.1216 0.0
H348 H 0.51891 0.54621 0.08731 0.0
H349 H 0.4967 0.55585 0.1267 0.0
H350 H 0.57964 0.58096 0.86951 0.0
H351 H 0.55498 0.58871 0.90823 0.0
H352 H 0.47059 0.4653 0.90215 0.0
H353 H 0.49454 0.45776 0.86325 0.0
Tb354 Tb 0.15833 0.32055 0.31531 0.0
Eu355 Eu 0.18445 0.36038 0.37356 0.0
C356 C 0.19131 0.28701 0.35478 0.0
C357 C 0.09947 0.28754 0.35647 0.0
C358 C 0.15096 0.31409 0.24708 0.0
C359 C 0.14612 0.30854 0.20242 0.0
C360 C 0.13626 0.29128 0.22457 0.0
C361 C 0.17566 0.35452 0.24717 0.0
C362 C 0.18551 0.37185 0.22504 0.0
C363 C 0.17096 0.34909 0.20231 0.0
C364 C 0.14174 0.29535 0.2703 0.0
O365 O 0.13807 0.36186 0.31999 0.0
O366 O 0.18153 0.405 0.35154 0.0
O367 O 0.24073 0.3848 0.35463 0.0
O368 O 0.21413 0.37497 0.31464 0.0
C369 C 0.15709 0.39662 0.3319 0.0
O370 O 0.17261 0.38622 0.40591 0.0
O371 O 0.2217 0.37564 0.40797 0.0
O372 O 0.18074 0.30225 0.37261 0.0
O373 O 0.19166 0.29658 0.33221 0.0
O374 O 0.11266 0.27854 0.33692 0.0
O375 O 0.11863 0.32236 0.36814 0.0
C376 C 0.24461 0.39117 0.33133 0.0
O377 O 0.17197 0.29901 0.28372 0.0
O378 O 0.11824 0.30125 0.28362 0.0
C379 C 0.18558 0.365 0.44333 0.0
C380 C 0.15895 0.32668 0.48652 0.0
C381 C 0.13959 0.34426 0.47527 0.0
C382 C 0.15277 0.36321 0.45395 0.0
C383 C 0.20532 0.348 0.45484 0.0
C384 C 0.19213 0.32903 0.47609 0.0
C385 C 0.19897 0.38421 0.42033 0.0
H386 H 0.13479 0.28996 0.18538 0.0
H387 H 0.11746 0.26 0.2241 0.0
H388 H 0.18752 0.37264 0.26438 0.0
H389 H 0.20424 0.40315 0.22576 0.0
H390 H 0.11381 0.34282 0.48269 0.0
H391 H 0.137 0.37621 0.44568 0.0
H392 H 0.23097 0.34917 0.44739 0.0
H393 H 0.20826 0.31652 0.48451 0.0
Tb394 Tb 0.69894 0.8289 0.3187 0.0
Eu395 Eu 0.66462 0.81841 0.37366 0.0
C396 C 0.73699 0.89772 0.35987 0.0
C397 C 0.73737 0.80634 0.36273 0.0
C398 C 0.70774 0.83119 0.25166 0.0
C399 C 0.71555 0.83857 0.20831 0.0
C400 C 0.73215 0.84413 0.23239 0.0
C401 C 0.66651 0.81256 0.24671 0.0
C402 C 0.64986 0.80698 0.22263 0.0
C403 C 0.67422 0.82002 0.20316 0.0
C404 C 0.72558 0.83891 0.27695 0.0
O405 O 0.65445 0.76788 0.31744 0.0
O406 O 0.61732 0.76715 0.34902 0.0
O407 O 0.63751 0.84688 0.35224 0.0
O408 O 0.64342 0.82924 0.31265 0.0
C409 C 0.62204 0.7511 0.32885 0.0
O410 O 0.63802 0.78325 0.40389 0.0
O411 O 0.65125 0.84305 0.40577 0.0
O412 O 0.72427 0.87381 0.37716 0.0
O413 O 0.72171 0.8862 0.33713 0.0
O414 O 0.74315 0.82571 0.34316 0.0
O415 O 0.70506 0.79401 0.37408 0.0
C416 C 0.6277 0.84242 0.32853 0.0
O417 O 0.72265 0.86509 0.29039 0.0
O418 O 0.71726 0.80857 0.28872 0.0
C419 C 0.65811 0.819 0.44323 0.0
C420 C 0.69192 0.83278 0.49205 0.0
C421 C 0.68283 0.79863 0.47764 0.0
C422 C 0.66611 0.7918 0.45347 0.0
C423 C 0.6667 0.85286 0.45779 0.0
C424 C 0.68361 0.85978 0.48189 0.0
C425 C 0.64049 0.81228 0.41767 0.0
H426 H 0.7351 0.84932 0.19376 0.0
H427 H 0.76407 0.8589 0.23601 0.0
H428 H 0.64728 0.80256 0.26147 0.0
H429 H 0.61792 0.79211 0.21924 0.0
H430 H 0.68917 0.77744 0.48495 0.0
H431 H 0.65963 0.76528 0.44282 0.0
H432 H 0.66036 0.87409 0.45052 0.0
H433 H 0.68976 0.88607 0.49269 0.0
Tb434 Tb 0.20772 0.84854 0.36663 0.0
Eu435 Eu 0.18125 0.85676 0.3099 0.0
C436 C 0.17145 0.77829 0.32727 0.0
C437 C 0.26701 0.87108 0.32574 0.0
C438 C 0.21286 0.84856 0.43409 0.0
C439 C 0.20862 0.84055 0.4777 0.0
C440 C 0.22187 0.83536 0.4553 0.0
C441 C 0.19016 0.86674 0.43544 0.0
C442 C 0.177 0.87205 0.45781 0.0
C443 C 0.18615 0.85911 0.47924 0.0
C444 C 0.22559 0.84176 0.41042 0.0
O445 O 0.22697 0.90948 0.36446 0.0
O446 O 0.18437 0.90676 0.33289 0.0
O447 O 0.12514 0.82991 0.32946 0.0
O448 O 0.15218 0.84813 0.36967 0.0
C449 C 0.20851 0.9245 0.35274 0.0
O450 O 0.19064 0.89178 0.27895 0.0
O451 O 0.1455 0.83079 0.27494 0.0
O452 O 0.18439 0.80178 0.3098 0.0
O453 O 0.16853 0.79088 0.34913 0.0
O454 O 0.25237 0.84878 0.34377 0.0
O455 O 0.24755 0.88568 0.31482 0.0
C456 C 0.12159 0.83411 0.3531 0.0
O457 O 0.198 0.8134 0.39569 0.0
O458 O 0.24652 0.87237 0.39884 0.0
C459 C 0.18111 0.8571 0.24072 0.0
C460 C 0.21072 0.84773 0.19644 0.0
C461 C 0.1851 0.86292 0.19689 0.0
C462 C 0.17042 0.86751 0.21885 0.0
C463 C 0.20701 0.84239 0.24049 0.0
C464 C 0.2216 0.83764 0.21854 0.0
C465 C 0.16569 0.86214 0.26376 0.0
H466 H 0.21656 0.83065 0.49389 0.0
H467 H 0.23912 0.821 0.45453 0.0
H468 H 0.18246 0.87666 0.41917 0.0
H469 H 0.15936 0.886 0.45828 0.0
H470 H 0.17574 0.87052 0.18018 0.0
H471 H 0.15055 0.87902 0.21872 0.0
H472 H 0.21589 0.83454 0.25729 0.0
H473 H 0.2416 0.8263 0.21889 0.0
Tb474 Tb 0.82547 0.65572 0.64952 0.0
Eu475 Eu 0.85267 0.69651 0.70711 0.0
C476 C 0.86291 0.6245 0.68723 0.0
C477 C 0.76932 0.62113 0.69197 0.0
C478 C 0.81878 0.64955 0.58107 0.0
C479 C 0.86769 0.68011 0.55143 0.0
C480 C 0.85703 0.66277 0.57353 0.0
C481 C 0.79151 0.65385 0.56589 0.0
C482 C 0.80224 0.67142 0.54392 0.0
C483 C 0.8405 0.68489 0.53641 0.0
C484 C 0.80681 0.6314 0.60454 0.0
O485 O 0.8355 0.71401 0.64931 0.0
O486 O 0.81952 0.72191 0.68781 0.0
O487 O 0.90232 0.73734 0.68579 0.0
O488 O 0.88984 0.69392 0.65217 0.0
C489 C 0.82325 0.73068 0.66497 0.0
O490 O 0.83583 0.71754 0.73931 0.0
O491 O 0.89035 0.71615 0.74177 0.0
O492 O 0.87825 0.65741 0.70129 0.0
O493 O 0.83546 0.61517 0.66914 0.0
O494 O 0.77129 0.63032 0.6691 0.0
O495 O 0.80098 0.6369 0.70736 0.0
C496 C 0.91313 0.72709 0.66563 0.0
O497 O 0.83318 0.62823 0.61815 0.0
O498 O 0.78685 0.64255 0.61779 0.0
C499 C 0.85228 0.69931 0.77613 0.0
C500 C 0.82358 0.65841 0.81816 0.0
C501 C 0.84364 0.69942 0.81984 0.0
C502 C 0.85768 0.71961 0.79902 0.0
C503 C 0.83272 0.65853 0.77434 0.0
C504 C 0.81837 0.6383 0.79505 0.0
C505 C 0.86465 0.72036 0.7539 0.0
H506 H 0.89749 0.69042 0.54633 0.0
H507 H 0.87888 0.65998 0.58475 0.0
H508 H 0.76176 0.6437 0.57106 0.0
H509 H 0.78035 0.67408 0.53266 0.0
H510 H 0.84889 0.71605 0.8373 0.0
H511 H 0.87256 0.75109 0.80078 0.0
H512 H 0.82812 0.64229 0.7568 0.0
H513 H 0.80264 0.60682 0.7928 0.0
Tb514 Tb 0.36567 0.16543 0.64951 0.0
Eu515 Eu 0.3316 0.15209 0.70401 0.0
C516 C 0.40171 0.2336 0.69086 0.0
C517 C 0.4031 0.14035 0.69175 0.0
C518 C 0.37509 0.16687 0.5827 0.0
C519 C 0.38242 0.17243 0.53919 0.0
C520 C 0.3993 0.17923 0.56331 0.0
C521 C 0.3338 0.14746 0.57784 0.0
C522 C 0.31689 0.14067 0.55375 0.0
C523 C 0.34103 0.15324 0.53416 0.0
C524 C 0.39304 0.17592 0.60801 0.0
O525 O 0.3209 0.10419 0.64737 0.0
O526 O 0.28351 0.10255 0.67897 0.0
O527 O 0.30199 0.17921 0.6837 0.0
O528 O 0.31032 0.16613 0.64362 0.0
C529 C 0.28829 0.08705 0.65862 0.0
O530 O 0.30722 0.11527 0.73386 0.0
O531 O 0.31773 0.17413 0.73704 0.0
O532 O 0.39016 0.209 0.70783 0.0
O533 O 0.38673 0.22223 0.66807 0.0
O534 O 0.41053 0.1645 0.67469 0.0
O535 O 0.36902 0.12442 0.70122 0.0
C536 C 0.29328 0.17697 0.65998 0.0
O537 O 0.38851 0.20145 0.62103 0.0
O538 O 0.38613 0.14625 0.62015 0.0
C539 C 0.3285 0.14981 0.77272 0.0
C540 C 0.36747 0.16435 0.81983 0.0
C541 C 0.32609 0.14776 0.81673 0.0
C542 C 0.30676 0.14059 0.7933 0.0
C543 C 0.36969 0.1659 0.77563 0.0
C544 C 0.38905 0.17316 0.79903 0.0
C545 C 0.30834 0.14301 0.74824 0.0
H546 H 0.40178 0.18279 0.52452 0.0
H547 H 0.43126 0.19454 0.56685 0.0
H548 H 0.31473 0.13784 0.59271 0.0
H549 H 0.28491 0.12532 0.55044 0.0
H550 H 0.30878 0.14106 0.83245 0.0
H551 H 0.27492 0.12818 0.79125 0.0
H552 H 0.38681 0.17298 0.7598 0.0
H553 H 0.42088 0.18549 0.80085 0.0
Tb554 Tb 0.87584 0.18884 0.70063 0.0
Eu555 Eu 0.84299 0.18967 0.64358 0.0
C556 C 0.83445 0.11333 0.66462 0.0
C557 C 0.93047 0.20433 0.65704 0.0
C558 C 0.88093 0.19093 0.76845 0.0
C559 C 0.87607 0.17938 0.81161 0.0
C560 C 0.89076 0.17724 0.78913 0.0
C561 C 0.85542 0.20596 0.77036 0.0
C562 C 0.84097 0.20839 0.79285 0.0
C563 C 0.85145 0.1955 0.8138 0.0
C564 C 0.89782 0.19 0.74512 0.0
O565 O 0.89839 0.2485 0.69265 0.0
O566 O 0.84784 0.24104 0.66609 0.0
O567 O 0.78904 0.16369 0.66474 0.0
O568 O 0.81898 0.18599 0.7042 0.0
C569 C 0.87658 0.26174 0.68327 0.0
O570 O 0.84685 0.223 0.61251 0.0
O571 O 0.80621 0.16078 0.60926 0.0
O572 O 0.84449 0.13404 0.64564 0.0
O573 O 0.83591 0.12906 0.68655 0.0
O574 O 0.92007 0.18801 0.6778 0.0
O575 O 0.90868 0.21515 0.64462 0.0
C576 C 0.78722 0.16986 0.68838 0.0
O577 O 0.87788 0.15835 0.73043 0.0
O578 O 0.90995 0.2208 0.73322 0.0
C579 C 0.83806 0.18906 0.57418 0.0
C580 C 0.86848 0.18513 0.52912 0.0
C581 C 0.84052 0.19734 0.53058 0.0
C582 C 0.82557 0.19942 0.55295 0.0
C583 C 0.86598 0.17692 0.57289 0.0
C584 C 0.88121 0.17513 0.55058 0.0
C585 C 0.82297 0.19226 0.59775 0.0
H586 H 0.88496 0.16952 0.82745 0.0
H587 H 0.91029 0.16542 0.788 0.0
H588 H 0.84709 0.21633 0.75455 0.0
H589 H 0.82169 0.22052 0.79386 0.0
H590 H 0.83036 0.20553 0.51444 0.0
H591 H 0.80427 0.20916 0.55367 0.0
H592 H 0.87581 0.16867 0.58913 0.0
H593 H 0.90227 0.1651 0.55002 0.0
C594 C 0.33705 0.90545 0.05622 0.0
C595 C 0.32492 0.86575 0.05226 0.0
H596 H 0.37852 0.96379 0.04918 0.0
C597 C 0.34537 0.85479 0.03615 0.0
H598 H 0.32158 0.91508 0.06795 0.0
C599 C 0.37762 0.88284 0.02486 0.0
C600 C 0.39049 0.92254 0.02964 0.0
H601 H 0.33732 0.82461 0.03281 0.0
H602 H 0.39341 0.87352 0.01319 0.0
C603 C 0.36952 0.93344 0.04521 0.0
C604 C 0.15616 0.45664 0.03817 0.0
C605 C 0.16047 0.45684 0.06394 0.0
H606 H 0.12403 0.46185 0.00698 0.0
C607 C 0.13515 0.464 0.0779 0.0
H608 H 0.17471 0.45093 0.02668 0.0
C609 C 0.10555 0.46909 0.06655 0.0
C610 C 0.10086 0.46825 0.04089 0.0
H611 H 0.13812 0.46585 0.09775 0.0
H612 H 0.08646 0.47408 0.07801 0.0
C613 C 0.12693 0.46266 0.0268 0.0
C614 C 0.55349 0.66967 0.06961 0.0
C615 C 0.56035 0.70078 0.05571 0.0
H616 H 0.54304 0.61171 0.06956 0.0
C617 C 0.55892 0.69524 0.02995 0.0
H618 H 0.5528 0.67207 0.08934 0.0
C619 C 0.55169 0.65973 0.01852 0.0
C620 C 0.54686 0.62971 0.03273 0.0
H621 H 0.56437 0.71855 0.01862 0.0
H622 H 0.55127 0.65623 0.99873 0.0
C623 C 0.5475 0.63485 0.05828 0.0
C624 C 0.90628 0.31429 0.96176 0.0
C625 C 0.86585 0.30086 0.96363 0.0
H626 H 0.96605 0.35969 0.97141 0.0
C627 C 0.85518 0.32334 0.97861 0.0
H628 H 0.91562 0.29735 0.95084 0.0
C629 C 0.88426 0.359 0.99073 0.0
C630 C 0.92459 0.373 0.98805 0.0
H631 H 0.82432 0.31403 0.98033 0.0
H632 H 0.87504 0.37614 1.00158 0.0
C633 C 0.93527 0.34996 0.97372 0.0
C634 C 0.69032 0.58282 0.95595 0.0
C635 C 0.70362 0.55603 0.95763 0.0
H636 H 0.6479 0.59899 0.96569 0.0
C637 C 0.68378 0.52514 0.9725 0.0
H638 H 0.70513 0.60758 0.94533 0.0
C639 C 0.65134 0.52083 0.98481 0.0
C640 C 0.63743 0.54692 0.98233 0.0
H641 H 0.69248 0.50347 0.97412 0.0
H642 H 0.63624 0.4962 0.99552 0.0
C643 C 0.6576 0.57814 0.96791 0.0
C644 C 0.48383 0.12628 0.95154 0.0
C645 C 0.4773 0.15277 0.96565 0.0
H646 H 0.49174 0.07699 0.95098 0.0
C647 C 0.47621 0.15044 0.99125 0.0
H648 H 0.48634 0.12781 0.93199 0.0
C649 C 0.48097 0.122 1.00228 0.0
C650 C 0.48573 0.09481 0.98781 0.0
H651 H 0.47079 0.16993 1.00275 0.0
H652 H 0.47965 0.12046 0.02193 0.0
C653 C 0.48731 0.09729 0.96243 0.0
C654 C 0.68719 0.12258 1.00239 0.0
C655 C 0.69338 0.12738 0.97745 0.0
H656 H 0.64513 0.09662 0.02897 0.0
C657 C 0.66058 0.10956 0.95991 0.0
H658 H 0.71204 0.13586 0.01628 0.0
C659 C 0.62231 0.08724 0.96711 0.0
C660 C 0.61597 0.08196 0.99206 0.0
H661 H 0.66467 0.1126 0.94056 0.0
H662 H 0.59777 0.07362 0.95301 0.0
C663 C 0.64887 0.1001 0.00963 0.0
C664 C 0.89927 0.53775 0.95177 0.0
C665 C 0.87933 0.54749 0.96892 0.0
H666 H 0.93958 0.51689 0.94588 0.0
C667 C 0.88253 0.54045 0.99348 0.0
H668 H 0.89692 0.54264 0.93265 0.0
C669 C 0.90687 0.52602 1.00106 0.0
C670 C 0.92842 0.51789 0.98422 0.0
H671 H 0.8671 0.54724 0.00701 0.0
H672 H 0.9093 0.52191 0.02032 0.0
C673 C 0.92361 0.52302 0.95933 0.0
C674 C 0.47563 0.34384 1.00572 0.0
C675 C 0.4725 0.3271 0.98199 0.0
H676 H 0.48849 0.39471 0.0282 0.0
C677 C 0.48025 0.34997 0.96207 0.0
H678 H 0.46957 0.32673 0.02133 0.0
C679 C 0.49125 0.38922 0.96592 0.0
C680 C 0.49421 0.40593 0.98974 0.0
H681 H 0.47762 0.33735 0.94356 0.0
H682 H 0.49705 0.40626 0.9503 0.0
C683 C 0.48636 0.3828 0.00956 0.0
C684 C 0.13222 0.66126 0.05594 0.0
C685 C 0.14657 0.68448 0.03633 0.0
H686 H 0.0948 0.60412 0.06695 0.0
C687 C 0.13421 0.66702 0.01218 0.0
H688 H 0.14137 0.67423 0.07471 0.0
C689 C 0.10754 0.62712 0.00769 0.0
C690 C 0.09268 0.60377 0.02726 0.0
H691 H 0.14485 0.6843 0.99675 0.0
H692 H 0.09842 0.61468 0.98881 0.0
C693 C 0.1056 0.62123 0.05146 0.0
C694 C 0.34399 0.46242 0.0207 0.0
C695 C 0.338 0.46106 0.0458 0.0
H696 H 0.38526 0.47654 0.99342 0.0
C697 C 0.37106 0.47517 0.06302 0.0
H698 H 0.31906 0.45148 0.00697 0.0
C699 C 0.40921 0.48959 0.05528 0.0
C700 C 0.4151 0.48992 0.03009 0.0
H701 H 0.3672 0.47407 0.08247 0.0
H702 H 0.43392 0.49951 0.06905 0.0
C703 C 0.38201 0.47668 0.01294 0.0
C704 C 0.55729 0.881 0.01409 0.0
C705 C 0.56209 0.87416 0.03853 0.0
H706 H 0.54001 0.91073 0.98948 0.0
C707 C 0.55238 0.89244 0.05732 0.0
H708 H 0.56489 0.86746 0.9993 0.0
C709 C 0.53795 0.91709 0.05176 0.0
C710 C 0.53346 0.92429 0.0273 0.0
H711 H 0.5563 0.88784 0.07633 0.0
H712 H 0.53102 0.93102 0.06668 0.0
C713 C 0.5431 0.90582 0.00852 0.0
C714 C 0.99918 0.1998 0.365 0.0
C715 C 0.99864 0.20239 0.39083 0.0
H716 H 0.03163 0.22419 0.33379 0.0
C717 C 0.03199 0.23286 0.40479 0.0
H718 H 0.97396 0.17731 0.35343 0.0
C719 C 0.06425 0.26024 0.3934 0.0
C720 C 0.06471 0.25759 0.36772 0.0
H721 H 0.0336 0.23551 0.42464 0.0
H722 H 0.08931 0.2833 0.40486 0.0
C723 C 0.0321 0.22681 0.35361 0.0
C724 C 0.80292 0.79548 0.41087 0.0
C725 C 0.82832 0.78856 0.39683 0.0
H726 H 0.75443 0.80586 0.41113 0.0
C727 C 0.82424 0.78891 0.37109 0.0
H728 H 0.80571 0.79697 0.43071 0.0
C729 C 0.79532 0.79548 0.35984 0.0
C730 C 0.76925 0.8009 0.37402 0.0
H731 H 0.84281 0.78338 0.35951 0.0
H732 H 0.79265 0.79528 0.34005 0.0
C733 C 0.77354 0.80097 0.39962 0.0
C734 C 0.21923 1.00092 0.40056 0.0
C735 C 0.22683 0.03222 0.38667 0.0
H736 H 0.20821 0.94278 0.40058 0.0
C737 C 0.22601 0.02683 0.36093 0.0
H738 H 0.21807 0.00325 0.42025 0.0
C739 C 0.21877 0.99128 0.34955 0.0
C740 C 0.21327 0.96109 0.36379 0.0
H741 H 0.23202 0.05029 0.34962 0.0
H742 H 0.2189 0.9879 0.3298 0.0
C743 C 0.2132 0.96606 0.38929 0.0
C744 C 0.55186 0.67445 0.27954 0.0
C745 C 0.52962 0.64221 0.29281 0.0
H746 H 0.59864 0.73357 0.28059 0.0
C747 C 0.53647 0.64706 0.31864 0.0
H748 H 0.54662 0.67259 0.25978 0.0
C749 C 0.56565 0.68289 0.33069 0.0
C750 C 0.58902 0.71408 0.31707 0.0
H751 H 0.5202 0.62297 0.32953 0.0
H752 H 0.57095 0.68575 0.35049 0.0
C753 C 0.58154 0.70963 0.29147 0.0
C754 C 0.35835 0.91424 0.29037 0.0
C755 C 0.37076 0.88675 0.29165 0.0
H756 H 0.31634 0.93094 0.30013 0.0
C757 C 0.35002 0.85522 0.30587 0.0
H758 H 0.37398 0.93954 0.28031 0.0
C759 C 0.31738 0.85091 0.31791 0.0
C760 C 0.3043 0.87769 0.31574 0.0
H761 H 0.35818 0.83311 0.30716 0.0
H762 H 0.30148 0.82579 0.3281 0.0
C763 C 0.32543 0.90957 0.30203 0.0
C764 C 0.14229 0.48232 0.32457 0.0
C765 C 0.14195 0.48384 0.29887 0.0
H766 H 0.14817 0.45378 0.35538 0.0
C767 C 0.148 0.45712 0.28466 0.0
H768 H 0.13717 0.50193 0.33616 0.0
C769 C 0.15271 0.42887 0.29563 0.0
C770 C 0.15283 0.42736 0.32114 0.0
H771 H 0.14935 0.45799 0.265 0.0
H772 H 0.15679 0.40841 0.28413 0.0
C773 C 0.1483 0.45464 0.33565 0.0
C774 C 0.32825 0.44625 0.29112 0.0
C775 C 0.36121 0.4654 0.30853 0.0
H776 H 0.26558 0.4081 0.2846 0.0
C777 C 0.35554 0.46077 0.33351 0.0
H778 H 0.33198 0.44912 0.27173 0.0
C779 C 0.31764 0.43716 0.34096 0.0
C780 C 0.28457 0.41763 0.32356 0.0
H781 H 0.38052 0.475 0.3473 0.0
H782 H 0.3144 0.43393 0.36035 0.0
C783 C 0.2903 0.42275 0.29854 0.0
C784 C 0.55176 0.87478 0.32967 0.0
C785 C 0.54725 0.88091 0.30505 0.0
H786 H 0.58047 0.85785 0.3563 0.0
C787 C 0.56712 0.87154 0.28766 0.0
H788 H 0.5365 0.88142 0.3434 0.0
C789 C 0.59247 0.85787 0.295 0.0
C790 C 0.59842 0.85347 0.31989 0.0
H791 H 0.56387 0.87587 0.26852 0.0
H792 H 0.60823 0.85188 0.28132 0.0
C793 C 0.57711 0.86137 0.33702 0.0
C794 C 0.14063 0.67513 0.33939 0.0
C795 C 0.13798 0.65812 0.31582 0.0
H796 H 0.15338 0.72634 0.36143 0.0
C797 C 0.1461 0.68068 0.29573 0.0
H798 H 0.13417 0.6582 0.3551 0.0
C799 C 0.15731 0.71998 0.29927 0.0
C800 C 0.15999 0.73702 0.32293 0.0
H801 H 0.14374 0.66782 0.27733 0.0
H802 H 0.16352 0.73683 0.28354 0.0
C803 C 0.15153 0.71415 0.34292 0.0
C804 C 0.81383 1.00098 0.35044 0.0
C805 C 0.82375 0.01915 0.37438 0.0
H806 H 0.77902 0.94852 0.32722 0.0
C807 C 0.80654 0.99678 0.394 0.0
H808 H 0.82671 0.01756 0.33501 0.0
C809 C 0.77901 0.95688 0.38961 0.0
C810 C 0.7681 0.939 0.36548 0.0
H811 H 0.81379 0.0104 0.41263 0.0
H812 H 0.76552 0.94038 0.40495 0.0
C813 C 0.78634 0.96141 0.34603 0.0
C814 C 1.01029 0.79235 0.3524 0.0
C815 C 1.00478 0.79226 0.37758 0.0
H816 H 0.0512 0.80578 0.32492 0.0
C817 C 0.03814 0.80772 0.39466 0.0
H818 H 0.98508 0.7803 0.33881 0.0
C819 C 0.07617 0.82238 0.38674 0.0
C820 C 0.08166 0.82158 0.36151 0.0
H821 H 0.03466 0.80757 0.41416 0.0
H822 H 0.10112 0.83339 0.40044 0.0
C823 C 0.04824 0.80688 0.34446 0.0
C824 C 0.2244 0.22725 0.38961 0.0
C825 C 0.23186 0.20773 0.37037 0.0
H826 H 0.20531 0.2674 0.39982 0.0
C827 C 0.2253 0.21386 0.34604 0.0
H828 H 0.22956 0.22305 0.40853 0.0
C829 C 0.21167 0.23928 0.34101 0.0
C830 C 0.20429 0.25902 0.36023 0.0
H831 H 0.23101 0.19923 0.33092 0.0
H832 H 0.20713 0.24356 0.32203 0.0
C833 C 0.21053 0.25253 0.3846 0.0
C834 C 0.66071 0.54516 0.69667 0.0
C835 C 0.66094 0.53986 0.72194 0.0
H836 H 0.69467 0.57523 0.66716 0.0
C837 C 0.69674 0.56131 0.73673 0.0
H838 H 0.63351 0.52909 0.68477 0.0
C839 C 0.73128 0.58736 0.72676 0.0
C840 C 0.73142 0.59294 0.70158 0.0
H841 H 0.69837 0.55746 0.7561 0.0
H842 H 0.75805 0.60308 0.73905 0.0
C843 C 0.69565 0.57162 0.68659 0.0
C844 C 0.45275 0.09552 0.72779 0.0
C845 C 0.49326 0.12283 0.72724 0.0
H846 H 0.39291 0.07957 0.71706 0.0
C847 C 0.50385 0.15482 0.7133 0.0
H848 H 0.44323 0.06992 0.73766 0.0
C849 C 0.47472 0.15985 0.7009 0.0
C850 C 0.43432 0.13329 0.70239 0.0
H851 H 0.53465 0.17669 0.71255 0.0
H852 H 0.48384 0.18531 0.69091 0.0
C853 C 0.42376 0.10085 0.71574 0.0
C854 C 0.88956 0.33828 0.73183 0.0
C855 C 0.89686 0.36975 0.71815 0.0
H856 H 0.87821 0.27989 0.73133 0.0
C857 C 0.89539 0.3644 0.69234 0.0
H858 H 0.88892 0.34044 0.75157 0.0
C859 C 0.88743 0.32878 0.68068 0.0
C860 C 0.88202 0.2984 0.69467 0.0
H861 H 0.90133 0.38793 0.68111 0.0
H862 H 0.88694 0.32544 0.66088 0.0
C863 C 0.88294 0.30332 0.72025 0.0
C864 C 0.21799 0.00923 0.60981 0.0
C865 C 0.19561 0.97754 0.62349 0.0
H866 H 0.26513 0.06816 0.61025 0.0
C867 C 0.20273 0.98314 0.6493 0.0
H868 H 0.21262 0.00681 0.59004 0.0
C869 C 0.23209 0.01915 0.66095 0.0
C870 C 0.25549 0.04981 0.64699 0.0
H871 H 0.18649 0.95951 0.66051 0.0
H872 H 0.23745 0.02257 0.68077 0.0
C873 C 0.24796 0.04463 0.62138 0.0
C874 C 0.03374 0.22025 0.64903 0.0
C875 C 0.03495 0.22082 0.62328 0.0
H876 H 0.99977 0.21407 0.67999 0.0
C877 C 1.00101 0.21486 0.6092 0.0
H878 H 0.05924 0.22518 0.66068 0.0
C879 C 0.96767 0.20975 0.62038 0.0
C880 C 0.96647 0.20929 0.64598 0.0
H881 H 0.99974 0.21366 0.58937 0.0
H882 H 0.94248 0.20568 0.60877 0.0
C883 C 0.9997 0.2141 0.66021 0.0
C884 C 0.81281 0.79756 0.62293 0.0
C885 C 0.79648 0.81487 0.63764 0.0
H886 H 0.83403 0.75789 0.61995 0.0
C887 C 0.78998 0.80524 0.66199 0.0
H888 H 0.81905 0.80499 0.6043 0.0
C889 C 0.79893 0.77812 0.67121 0.0
C890 C 0.81461 0.76035 0.65621 0.0
H891 H 0.77735 0.81812 0.67374 0.0
H892 H 0.79318 0.77081 0.68988 0.0
C893 C 0.82166 0.77066 0.63205 0.0
C894 C 1.00241 0.76763 0.62829 0.0
C895 C 0.02988 0.8014 0.64301 0.0
H896 H 0.94422 0.71765 0.62387 0.0
C897 C 0.01834 0.81163 0.66475 0.0
H898 H 1.01049 0.7595 0.61127 0.0
C899 C 0.98036 0.78773 0.67208 0.0
C900 C 0.9531 0.75324 0.6577 0.0
H901 H 0.0389 0.83789 0.67621 0.0
H902 H 0.97256 0.79615 0.6891 0.0
C903 C 0.9645 0.74372 0.63558 0.0
C904 C 0.23335 0.20884 0.62096 0.0
C905 C 0.21206 0.21546 0.63868 0.0
H906 H 0.27584 0.19132 0.61369 0.0
C907 C 0.21533 0.20643 0.66274 0.0
H908 H 0.231 0.21538 0.60222 0.0
C909 C 0.24089 0.19294 0.66933 0.0
C910 C 0.26365 0.18786 0.65196 0.0
H911 H 0.19893 0.21088 0.67667 0.0
H912 H 0.24329 0.18718 0.68824 0.0
C913 C 0.25892 0.19509 0.62753 0.0
C914 C 0.79713 0.01085 0.63593 0.0
C915 C 0.79109 0.99036 0.65689 0.0
H916 H 0.81593 0.06605 0.62184 0.0
C917 C 0.79969 0.01048 0.68019 0.0
H918 H 0.7906 0.99574 0.61777 0.0
C919 C 0.81393 0.0504 0.68255 0.0
C920 C 0.82002 0.07112 0.66164 0.0
H921 H 0.79532 0.99531 0.6966 0.0
H922 H 0.8202 0.06498 0.70086 0.0
C923 C 0.81165 0.05097 0.63828 0.0
C924 C 0.47452 0.33839 0.68204 0.0
C925 C 0.48241 0.35639 0.70592 0.0
H926 H 0.44315 0.28563 0.6587 0.0
C927 C 0.4659 0.33342 0.72543 0.0
H928 H 0.48734 0.3554 0.66676 0.0
C929 C 0.44048 0.29309 0.7209 0.0
C930 C 0.4312 0.27535 0.69677 0.0
H931 H 0.47204 0.34685 0.74406 0.0
H932 H 0.42726 0.27609 0.73611 0.0
C933 C 0.44913 0.29839 0.6775 0.0
C934 C 0.67621 0.12786 0.68914 0.0
C935 C 0.67146 0.1276 0.71439 0.0
H936 H 0.71619 0.14144 0.66116 0.0
C937 C 0.70529 0.1434 0.73114 0.0
H938 H 0.65066 0.11585 0.67581 0.0
C939 C 0.74307 0.1582 0.72278 0.0
C940 C 0.74774 0.1573 0.69746 0.0
H941 H 0.70234 0.14339 0.7507 0.0
H942 H 0.76843 0.16937 0.73618 0.0
C943 C 0.71384 0.14247 0.68078 0.0
C944 C 0.91896 0.57988 0.71601 0.0
C945 C 0.90551 0.54597 0.70025 0.0
H946 H 0.91624 0.63144 0.72423 0.0
C947 C 0.87708 0.53728 0.68065 0.0
H948 H 0.94031 0.58666 0.73154 0.0
C949 C 0.86308 0.5627 0.67646 0.0
C950 C 0.87706 0.59713 0.69194 0.0
H951 H 0.86578 0.51084 0.66857 0.0
H952 H 0.84141 0.55537 0.66104 0.0
C953 C 0.90504 0.60535 0.71184 0.0
C954 C 0.49397 0.95956 0.21634 0.0
C955 C 0.45436 0.93231 0.21962 0.0
H956 H 0.53487 0.99882 0.19294 0.0
C957 C 0.42487 0.9248 0.20089 0.0
H958 H 0.51742 0.9665 0.2305 0.0
C959 C 0.43491 0.94375 0.17928 0.0
C960 C 0.47463 0.97087 0.17602 0.0
H961 H 0.39411 0.90386 0.20276 0.0
H962 H 0.41152 0.93738 0.16522 0.0
C963 C 0.50395 0.97852 0.19488 0.0
C964 C 0.10534 0.54874 0.20841 0.0
C965 C 0.0899 0.52178 0.22604 0.0
H966 H 0.09807 0.56217 0.17195 0.0
C967 C 0.0546 0.48627 0.21974 0.0
H968 H 0.13268 0.5762 0.2127 0.0
C969 C 0.03488 0.47812 0.19633 0.0
C970 C 0.05021 0.50525 0.17877 0.0
H971 H 0.04185 0.46511 0.23304 0.0
H972 H 1.00773 0.45053 0.19193 0.0
C973 C 0.08573 0.54055 0.18502 0.0
C974 C 0.50388 0.5778 0.20132 0.0
C975 C 0.48912 0.54881 0.21777 0.0
H976 H 0.52613 0.5939 0.16637 0.0
C977 C 0.48391 0.51209 0.21048 0.0
H978 H 0.50782 0.60626 0.2063 0.0
C979 C 0.49435 0.50495 0.18748 0.0
C980 C 0.50982 0.53425 0.17123 0.0
H981 H 0.47273 0.48924 0.22279 0.0
H982 H 0.49033 0.47648 0.18241 0.0
C983 C 0.51404 0.57061 0.17834 0.0
C984 C 0.94329 0.48367 0.81037 0.0
C985 C 0.95623 0.46737 0.79221 0.0
H986 H 0.94902 0.50373 0.84823 0.0
C987 C 0.98704 0.46027 0.79876 0.0
H988 H 0.91944 0.48927 0.80599 0.0
C989 C 1.00354 0.46795 0.82302 0.0
C990 C 0.98984 0.48319 0.84135 0.0
H991 H 0.99814 0.44829 0.78517 0.0
H992 H 0.02621 0.46075 0.82751 0.0
C993 C 0.95993 0.49152 0.83465 0.0
C994 C 0.56958 0.47462 0.81164 0.0
C995 C 0.57772 0.50103 0.79378 0.0
H996 H 0.55198 0.45988 0.84767 0.0
C997 C 0.57548 0.53461 0.79946 0.0
H998 H 0.57172 0.44881 0.80792 0.0
C999 C 0.56378 0.54083 0.82221 0.0
C1000 C 0.55428 0.51366 0.83977 0.0
H1001 H 0.58128 0.55531 0.78597 0.0
H1002 H 0.56088 0.56624 0.8257 0.0
C1003 C 0.55811 0.4809 0.83436 0.0
C1004 C 0.5464 0.05176 0.8076 0.0
C1005 C 0.53549 0.07932 0.80199 0.0
H1006 H 0.54512 0.01218 0.83291 0.0
C1007 C 0.51499 0.08859 0.81899 0.0
H1008 H 0.56158 0.04336 0.7948 0.0
C1009 C 0.50548 0.07063 0.84093 0.0
C1010 C 0.51624 0.04292 0.84647 0.0
H1011 H 0.5066 0.11007 0.81547 0.0
H1012 H 0.49011 0.07884 0.85369 0.0
C1013 C 0.53691 0.03382 0.82951 0.0
C1014 C 0.12072 0.30244 0.54964 0.0
C1015 C 0.12169 0.26813 0.5527 0.0
H1016 H 0.13217 0.34812 0.52661 0.0
C1017 C 0.1333 0.25243 0.53338 0.0
H1018 H 0.11231 0.31554 0.56423 0.0
C1019 C 0.1447 0.27107 0.51187 0.0
C1020 C 0.14482 0.30596 0.50903 0.0
H1021 H 0.13365 0.22564 0.53489 0.0
H1022 H 0.1534 0.25805 0.4974 0.0
C1023 C 0.13215 0.32114 0.52806 0.0
C1024 C 0.75873 0.88458 0.55033 0.0
C1025 C 0.74431 0.85503 0.5664 0.0
H1026 H 0.75373 0.90058 0.51422 0.0
C1027 C 0.71265 0.81796 0.55773 0.0
H1028 H 0.78354 0.91325 0.55628 0.0
C1029 C 0.69578 0.81066 0.53357 0.0
C1030 C 0.71006 0.84031 0.51761 0.0
H1031 H 0.70046 0.79472 0.56973 0.0
H1032 H 0.67108 0.78197 0.5275 0.0
C1033 C 0.74172 0.87732 0.52623 0.0
C1034 C 0.14878 0.845 0.54291 0.0
C1035 C 0.15319 0.88153 0.54971 0.0
H1036 H 0.15574 0.80918 0.51527 0.0
C1037 C 0.16673 0.90981 0.53276 0.0
H1038 H 0.13853 0.8227 0.55561 0.0
C1039 C 0.1767 0.90221 0.50983 0.0
C1040 C 0.17345 0.86613 0.50322 0.0
H1041 H 0.17002 0.9381 0.53736 0.0
H1042 H 0.18799 0.92506 0.49751 0.0
C1043 C 0.15901 0.83744 0.51993 0.0
C1044 C 0.60649 0.81161 0.14825 0.0
C1045 C 0.62065 0.79833 0.12915 0.0
H1046 H 0.61247 0.82912 0.18661 0.0
C1047 C 0.65363 0.79396 0.13437 0.0
H1048 H 0.58097 0.81501 0.14481 0.0
C1049 C 0.67136 0.80158 0.1583 0.0
C1050 C 0.65653 0.81379 0.17756 0.0
H1051 H 0.66549 0.78419 0.11997 0.0
H1052 H 0.69605 0.79691 0.16181 0.0
C1053 C 0.62421 0.8192 0.17222 0.0
C1054 C 0.24764 0.86163 0.1327 0.0
C1055 C 0.24683 0.82649 0.12674 0.0
H1056 H 0.23707 0.896 0.15937 0.0
C1057 C 0.2362 0.79942 0.14441 0.0
H1058 H 0.25545 0.88297 0.11945 0.0
C1059 C 0.22546 0.80676 0.1672 0.0
C1060 C 0.22493 0.8413 0.17287 0.0
H1061 H 0.23565 0.77223 0.14049 0.0
H1062 H 0.21636 0.78478 0.18009 0.0
C1063 C 0.23668 0.86889 0.15547 0.0
C1064 C 0.2292 0.41625 0.15406 0.0
C1065 C 0.20073 0.40295 0.13377 0.0
H1066 H 0.24243 0.40975 0.19135 0.0
C1067 C 0.16268 0.37132 0.13613 0.0
H1068 H 0.2587 0.4407 0.15303 0.0
C1069 C 0.15317 0.3539 0.15821 0.0
C1070 C 0.18144 0.36748 0.17863 0.0
H1071 H 0.14009 0.3599 0.12084 0.0
H1072 H 0.12333 0.33014 0.15937 0.0
C1073 C 0.21968 0.39879 0.17618 0.0
C1074 C 0.7816 0.63078 0.88027 0.0
C1075 C 0.78431 0.59743 0.88363 0.0
H1076 H 0.79125 0.67581 0.8571 0.0
C1077 C 0.79814 0.58331 0.8647 0.0
H1078 H 0.77137 0.64271 0.89446 0.0
C1079 C 0.81035 0.60275 0.8435 0.0
C1080 C 0.80879 0.63677 0.8404 0.0
H1081 H 0.8001 0.55739 0.86638 0.0
H1082 H 0.82206 0.59156 0.82984 0.0
C1083 C 0.79365 0.65016 0.85895 0.0
C1084 C 0.44246 0.21751 0.87458 0.0
C1085 C 0.42689 0.19077 0.89232 0.0
H1086 H 0.43571 0.23018 0.83781 0.0
C1087 C 0.39191 0.155 0.88598 0.0
H1088 H 0.46955 0.24517 0.87892 0.0
C1089 C 0.37268 0.1463 0.8624 0.0
C1090 C 0.38816 0.17314 0.84471 0.0
H1091 H 0.37904 0.13399 0.89936 0.0
H1092 H 0.3458 0.11848 0.85799 0.0
C1093 C 0.42332 0.20877 0.851 0.0
C1094 C 0.83173 0.24244 0.86927 0.0
C1095 C 0.81899 0.21318 0.88552 0.0
H1096 H 0.85185 0.25974 0.834 0.0
C1097 C 0.81498 0.17718 0.87758 0.0
H1098 H 0.8348 0.27037 0.87482 0.0
C1099 C 0.82491 0.17111 0.85416 0.0
C1100 C 0.8385 0.20073 0.83811 0.0
H1101 H 0.80539 0.15418 0.88975 0.0
H1102 H 0.82221 0.14332 0.84866 0.0
C1103 C 0.8412 0.23623 0.84582 0.0
C1104 C 0.27282 0.14326 0.47916 0.0
C1105 C 0.28689 0.12958 0.46022 0.0
H1106 H 0.27906 0.16169 0.51737 0.0
C1107 C 0.31981 0.12517 0.46559 0.0
H1108 H 0.24733 0.14668 0.4756 0.0
C1109 C 0.3377 0.13335 0.48951 0.0
C1110 C 0.32304 0.14611 0.50858 0.0
H1111 H 0.33158 0.11509 0.45131 0.0
H1112 H 0.36244 0.12879 0.49316 0.0
C1113 C 0.29067 0.15138 0.50311 0.0
C1114 C 0.86872 0.15714 0.4619 0.0
C1115 C 0.90864 0.16831 0.46002 0.0
H1116 H 0.82486 0.15357 0.48508 0.0
C1117 C 0.93591 0.1872 0.4807 0.0
H1118 H 0.8471 0.14272 0.44619 0.0
C1119 C 0.92312 0.1933 0.5031 0.0
C1120 C 0.88291 0.1811 0.50512 0.0
H1121 H 0.96681 0.19594 0.47977 0.0
H1122 H 0.9446 0.20725 0.51891 0.0
C1123 C 0.85604 0.16357 0.48413 0.0
C1124 C 0.88315 0.71281 0.47461 0.0
C1125 C 0.87079 0.739 0.46807 0.0
H1126 H 0.8831 0.67499 0.50107 0.0
C1127 C 0.84962 0.74808 0.48467 0.0
H1128 H 0.89919 0.70482 0.46227 0.0
C1129 C 0.84018 0.7308 0.50677 0.0
C1130 C 0.85185 0.7041 0.51311 0.0
H1131 H 0.84043 0.76883 0.48066 0.0
H1132 H 0.82392 0.73864 0.51904 0.0
C1133 C 0.87387 0.69564 0.49687 0.0
loop_
_geom_bond_atom_site_label_1
_geom_bond_atom_site_label_2
_geom_bond_distance
_geom_bond_site_symmetry_2
_ccdc_geom_bond_type
H0 C7 0.929 . S
H1 C10 0.930 . S
H2 C12 0.929 . S
H3 C4 0.969 . S
C4 H3 0.969 . S
C4 O5 1.550 . S
C4 H6 0.973 . S
O5 C4 1.550 . S
O5 C11 1.412 . S
H6 C4 0.973 . S
C7 H0 0.929 . S
C7 C8 1.400 . S
C7 C9 1.364 . S
C8 C7 1.400 . S
C8 C12 1.377 . S
C9 C7 1.364 . S
C9 C10 1.374 . S
C10 H1 0.930 . S
C10 C9 1.374 . S
C10 C11 1.383 . S
C11 O5 1.412 . S
C11 C10 1.383 . S
C11 C12 1.394 . S
C12 H2 0.929 . S
C12 C8 1.377 . S
C12 C11 1.394 . S
H13 C20 0.929 . S
H14 C23 0.930 . S
H15 C25 0.929 . S
H16 C17 0.969 . S
C17 H16 0.969 . S
C17 O18 1.550 . S
C17 H19 0.973 . S
O18 C17 1.550 . S
O18 C24 1.412 . S
H19 C17 0.973 . S
C20 H13 0.929 . S
C20 C21 1.400 . S
C20 C22 1.364 . S
C21 C20 1.400 . S
C21 C25 1.377 . S
C22 C20 1.364 . S
C22 C23 1.374 . S
C23 H14 0.930 . S
C23 C22 1.374 . S
C23 C24 1.383 . S
C24 O18 1.412 . S
C24 C23 1.383 . S
C24 C25 1.394 . S
C25 H15 0.929 . S
C25 C21 1.377 . S
C25 C24 1.394 . S
H26 C33 0.929 . S
H27 C36 0.930 . S
H28 C38 0.929 . S
H29 C30 0.969 . S
C30 H29 0.969 . S
C30 O31 1.550 . S
C30 H32 0.973 . S
O31 C30 1.550 . S
O31 C37 1.412 . S
H32 C30 0.973 . S
C33 H26 0.929 . S
C33 C34 1.400 . S
C33 C35 1.364 . S
C34 C33 1.400 . S
C34 C38 1.377 . S
C35 C33 1.364 . S
C35 C36 1.374 . S
C36 H27 0.930 . S
C36 C35 1.374 . S
C36 C37 1.383 . S
C37 O31 1.412 . S
C37 C36 1.383 . S
C37 C38 1.394 . S
C38 H28 0.929 . S
C38 C34 1.377 . S
C38 C37 1.394 . S
H39 C46 0.929 . S
H40 C49 0.930 . S
H41 C51 0.929 . S
H42 C43 0.969 . S
C43 H42 0.969 . S
C43 O44 1.550 . S
C43 H45 0.973 . S
O44 C43 1.550 . S
O44 C50 1.412 . S
H45 C43 0.973 . S
C46 H39 0.929 . S
C46 C47 1.400 . S
C46 C48 1.364 . S
C47 C46 1.400 . S
C47 C51 1.377 . S
C48 C46 1.364 . S
C48 C49 1.374 . S
C49 H40 0.930 . S
C49 C48 1.374 . S
C49 C50 1.383 . S
C50 O44 1.412 . S
C50 C49 1.383 . S
C50 C51 1.394 . S
C51 H41 0.929 . S
C51 C47 1.377 . S
C51 C50 1.394 . S
H52 C59 0.929 . S
H53 C62 0.930 . S
H54 C64 0.929 . S
H55 C56 0.969 . S
C56 H55 0.969 . S
C56 O57 1.550 . S
C56 H58 0.973 . S
O57 C56 1.550 . S
O57 C63 1.412 . S
H58 C56 0.973 . S
C59 H52 0.929 . S
C59 C60 1.400 . S
C59 C61 1.364 . S
C60 C59 1.400 . S
C60 C64 1.377 . S
C61 C59 1.364 . S
C61 C62 1.374 . S
C62 H53 0.930 . S
C62 C61 1.374 . S
C62 C63 1.383 . S
C63 O57 1.412 . S
C63 C62 1.383 . S
C63 C64 1.394 . S
C64 H54 0.929 . S
C64 C60 1.377 . S
C64 C63 1.394 . S
H65 C72 0.929 . S
H66 C75 0.930 . S
H67 C77 0.929 . S
H68 C69 0.969 . S
C69 H68 0.969 . S
C69 O70 1.550 . S
C69 H71 0.973 . S
O70 C69 1.550 . S
O70 C76 1.412 . S
H71 C69 0.973 . S
C72 H65 0.929 . S
C72 C73 1.400 . S
C72 C74 1.364 . S
C73 C72 1.400 . S
C73 C77 1.377 . S
C74 C72 1.364 . S
C74 C75 1.374 . S
C75 H66 0.930 . S
C75 C74 1.374 . S
C75 C76 1.383 . S
C76 O70 1.412 . S
C76 C75 1.383 . S
C76 C77 1.394 . S
C77 H67 0.929 . S
C77 C73 1.377 . S
C77 C76 1.394 . S
H78 C85 0.929 . S
H79 C88 0.930 . S
H80 C90 0.929 . S
H81 C82 0.969 . S
C82 H81 0.969 . S
C82 O83 1.550 . S
C82 H84 0.973 . S
O83 C82 1.550 . S
O83 C89 1.412 . S
H84 C82 0.973 . S
C85 H78 0.929 . S
C85 C86 1.400 . S
C85 C87 1.364 . S
C86 C85 1.400 . S
C86 C90 1.377 . S
C87 C85 1.364 . S
C87 C88 1.374 . S
C88 H79 0.930 . S
C88 C87 1.374 . S
C88 C89 1.383 . S
C89 O83 1.412 . S
C89 C88 1.383 . S
C89 C90 1.394 . S
C90 H80 0.929 . S
C90 C86 1.377 . S
C90 C89 1.394 . S
H91 C98 0.929 . S
H92 C101 0.930 . S
H93 C103 0.929 . S
H94 C95 0.969 . S
C95 H94 0.969 . S
C95 O96 1.550 . S
C95 H97 0.973 . S
O96 C95 1.550 . S
O96 C102 1.412 . S
H97 C95 0.973 . S
C98 H91 0.929 . S
C98 C99 1.400 . S
C98 C100 1.364 . S
C99 C98 1.400 . S
C99 C103 1.377 . S
C100 C98 1.364 . S
C100 C101 1.374 . S
C101 H92 0.930 . S
C101 C100 1.374 . S
C101 C102 1.383 . S
C102 O96 1.412 . S
C102 C101 1.383 . S
C102 C103 1.394 . S
C103 H93 0.929 . S
C103 C99 1.377 . S
C103 C102 1.394 . S
H104 C111 0.929 . S
H105 C114 0.930 . S
H106 C116 0.929 . S
H107 C108 0.969 . S
C108 H107 0.969 . S
C108 O109 1.550 . S
C108 H110 0.973 . S
O109 C108 1.550 . S
O109 C115 1.412 . S
H110 C108 0.973 . S
C111 H104 0.929 . S
C111 C112 1.400 . S
C111 C113 1.364 . S
C112 C111 1.400 . S
C112 C116 1.377 . S
C113 C111 1.364 . S
C113 C114 1.374 . S
C114 H105 0.930 . S
C114 C113 1.374 . S
C114 C115 1.383 . S
C115 O109 1.412 . S
C115 C114 1.383 . S
C115 C116 1.394 . S
C116 H106 0.929 . S
C116 C112 1.377 . S
C116 C115 1.394 . S
H117 C124 0.929 . S
H118 C127 0.930 . S
H119 C129 0.929 . S
H120 C121 0.969 . S
C121 H120 0.969 . S
C121 O122 1.550 . S
C121 H123 0.973 . S
O122 C121 1.550 . S
O122 C128 1.412 . S
H123 C121 0.973 . S
C124 H117 0.929 . S
C124 C125 1.400 . S
C124 C126 1.364 . S
C125 C124 1.400 . S
C125 C129 1.377 . S
C126 C124 1.364 . S
C126 C127 1.374 . S
C127 H118 0.930 . S
C127 C126 1.374 . S
C127 C128 1.383 . S
C128 O122 1.412 . S
C128 C127 1.383 . S
C128 C129 1.394 . S
C129 H119 0.929 . S
C129 C125 1.377 . S
C129 C128 1.394 . S
H130 C137 0.929 . S
H131 C140 0.930 . S
H132 C142 0.929 1_554 S
H133 C134 0.969 . S
C134 H133 0.969 . S
C134 O135 1.550 . S
C134 H136 0.973 . S
O135 C134 1.550 . S
O135 C141 1.412 . S
H136 C134 0.973 . S
C137 H130 0.929 . S
C137 C138 1.400 . S
C137 C139 1.364 . S
C138 C137 1.400 . S
C138 C142 1.377 . S
C139 C137 1.364 . S
C139 C140 1.374 . S
C140 H131 0.930 . S
C140 C139 1.374 . S
C140 C141 1.383 . S
C141 O135 1.412 . S
C141 C140 1.383 . S
C141 C142 1.394 . S
C142 H132 0.929 1_556 S
C142 C138 1.377 . S
C142 C141 1.394 . S
H143 C150 0.929 . S
H144 C153 0.930 . S
H145 C155 0.929 . S
H146 C147 0.969 . S
C147 H146 0.969 . S
C147 O148 1.550 . S
C147 H149 0.973 . S
O148 C147 1.550 . S
O148 C154 1.412 . S
H149 C147 0.973 . S
C150 H143 0.929 . S
C150 C151 1.400 . S
C150 C152 1.364 . S
C151 C150 1.400 . S
C151 C155 1.377 . S
C152 C150 1.364 . S
C152 C153 1.374 . S
C153 H144 0.930 . S
C153 C152 1.374 . S
C153 C154 1.383 . S
C154 O148 1.412 . S
C154 C153 1.383 . S
C154 C155 1.394 . S
C155 H145 0.929 . S
C155 C151 1.377 . S
C155 C154 1.394 . S
H156 C163 0.929 . S
H157 C166 0.930 . S
H158 C168 0.929 . S
H159 C160 0.969 . S
C160 H159 0.969 . S
C160 O161 1.550 . S
C160 H162 0.973 . S
O161 C160 1.550 . S
O161 C167 1.412 . S
H162 C160 0.973 . S
C163 H156 0.929 . S
C163 C164 1.400 . S
C163 C165 1.364 . S
C164 C163 1.400 . S
C164 C168 1.377 . S
C165 C163 1.364 . S
C165 C166 1.374 . S
C166 H157 0.930 . S
C166 C165 1.374 . S
C166 C167 1.383 . S
C167 O161 1.412 . S
C167 C166 1.383 . S
C167 C168 1.394 . S
C168 H158 0.929 . S
C168 C164 1.377 . S
C168 C167 1.394 . S
H169 C176 0.929 . S
H170 C179 0.930 . S
H171 C181 0.929 . S
H172 C173 0.969 . S
C173 H172 0.969 . S
C173 O174 1.550 . S
C173 H175 0.973 . S
O174 C173 1.550 . S
O174 C180 1.412 . S
H175 C173 0.973 . S
C176 H169 0.929 . S
C176 C177 1.400 . S
C176 C178 1.364 . S
C177 C176 1.400 . S
C177 C181 1.377 . S
C178 C176 1.364 . S
C178 C179 1.374 . S
C179 H170 0.930 . S
C179 C178 1.374 . S
C179 C180 1.383 . S
C180 O174 1.412 . S
C180 C179 1.383 . S
C180 C181 1.394 . S
C181 H171 0.929 . S
C181 C177 1.377 . S
C181 C180 1.394 . S
H182 C189 0.929 . S
H183 C192 0.930 . S
H184 C194 0.929 . S
H185 C186 0.969 . S
C186 H185 0.969 . S
C186 O187 1.550 . S
C186 H188 0.973 . S
O187 C186 1.550 . S
O187 C193 1.412 . S
H188 C186 0.973 . S
C189 H182 0.929 . S
C189 C190 1.400 . S
C189 C191 1.364 . S
C190 C189 1.400 . S
C190 C194 1.377 . S
C191 C189 1.364 . S
C191 C192 1.374 . S
C192 H183 0.930 . S
C192 C191 1.374 . S
C192 C193 1.383 . S
C193 O187 1.412 . S
C193 C192 1.383 . S
C193 C194 1.394 . S
C194 H184 0.929 . S
C194 C190 1.377 . S
C194 C193 1.394 . S
H195 C202 0.929 . S
H196 C205 0.930 . S
H197 C207 0.929 . S
H198 C199 0.969 . S
C199 H198 0.969 . S
C199 O200 1.550 . S
C199 H201 0.973 . S
O200 C199 1.550 . S
O200 C206 1.412 . S
H201 C199 0.973 . S
C202 H195 0.929 . S
C202 C203 1.400 . S
C202 C204 1.364 . S
C203 C202 1.400 . S
C203 C207 1.377 . S
C204 C202 1.364 . S
C204 C205 1.374 . S
C205 H196 0.930 . S
C205 C204 1.374 . S
C205 C206 1.383 . S
C206 O200 1.412 . S
C206 C205 1.383 . S
C206 C207 1.394 . S
C207 H197 0.929 . S
C207 C203 1.377 . S
C207 C206 1.394 . S
H208 C215 0.929 . S
H209 C218 0.930 . S
H210 C220 0.929 . S
H211 C212 0.969 . S
C212 H211 0.969 . S
C212 O213 1.550 . S
C212 H214 0.973 . S
O213 C212 1.550 . S
O213 C219 1.412 . S
H214 C212 0.973 . S
C215 H208 0.929 . S
C215 C216 1.400 . S
C215 C217 1.364 . S
C216 C215 1.400 . S
C216 C220 1.377 . S
C217 C215 1.364 . S
C217 C218 1.374 . S
C218 H209 0.930 . S
C218 C217 1.374 . S
C218 C219 1.383 . S
C219 O213 1.412 . S
C219 C218 1.383 . S
C219 C220 1.394 . S
C220 H210 0.929 . S
C220 C216 1.377 . S
C220 C219 1.394 . S
H221 C228 0.929 . S
H222 C231 0.930 . S
H223 C233 0.929 . S
H224 C225 0.969 . S
C225 H224 0.969 . S
C225 O226 1.550 . S
C225 H227 0.973 . S
O226 C225 1.550 . S
O226 C232 1.412 . S
H227 C225 0.973 . S
C228 H221 0.929 . S
C228 C229 1.400 . S
C228 C230 1.364 . S
C229 C228 1.400 . S
C229 C233 1.377 . S
C230 C228 1.364 . S
C230 C231 1.374 . S
C231 H222 0.930 . S
C231 C230 1.374 . S
C231 C232 1.383 . S
C232 O226 1.412 . S
C232 C231 1.383 . S
C232 C233 1.394 . S
C233 H223 0.929 . S
C233 C229 1.377 . S
C233 C232 1.394 . S
Tb234 C244 2.825 1_565 S
Tb234 O245 2.347 1_565 S
Tb234 O248 2.366 1_565 S
Tb234 O253 2.418 . S
Tb234 O254 2.384 . S
Tb234 O257 2.479 . S
Tb234 O258 2.471 1_565 S
Eu235 O246 2.418 . S
Eu235 O247 2.384 . S
Eu235 O250 2.479 . S
Eu235 O251 2.471 1_545 S
Eu235 O252 2.347 1_545 S
Eu235 O255 2.366 1_545 S
Eu235 C265 2.825 . S
C236 O252 1.259 . S
C236 O253 1.265 1_554 S
C237 O254 1.255 1_554 S
C237 O255 1.265 . S
C238 C240 1.380 1_545 S
C238 C241 1.374 . S
C238 C244 1.507 . S
C239 C240 1.384 1_545 S
C239 C243 1.387 . S
C239 H266 0.930 1_545 S
C240 C238 1.380 1_565 S
C240 C239 1.384 1_565 S
C240 H267 0.931 . S
C241 C238 1.374 . S
C241 C242 1.390 . S
C241 H268 0.930 . S
C242 C241 1.390 . S
C242 C243 1.391 . S
C242 H269 0.930 . S
C243 C239 1.387 . S
C243 C242 1.391 . S
C244 Tb234 2.825 1_545 S
C244 C238 1.507 . S
C244 O257 1.238 1_545 S
C244 O258 1.247 . S
O245 Tb234 2.347 1_545 S
O245 C249 1.259 1_556 S
O246 Eu235 2.418 . S
O246 C249 1.265 . S
O247 Eu235 2.384 . S
O247 C256 1.255 1_554 S
O248 Tb234 2.366 1_545 S
O248 C256 1.265 . S
C249 O245 1.259 1_554 S
C249 O246 1.265 . S
O250 Eu235 2.479 . S
O250 C265 1.238 . S
O251 Eu235 2.471 1_565 S
O251 C265 1.247 1_565 S
O252 Eu235 2.347 1_565 S
O252 C236 1.259 . S
O253 Tb234 2.418 . S
O253 C236 1.265 1_556 S
O254 Tb234 2.384 . S
O254 C237 1.255 1_556 S
O255 Eu235 2.366 1_565 S
O255 C237 1.265 . S
C256 O247 1.255 1_556 S
C256 O248 1.265 . S
O257 Tb234 2.479 . S
O257 C244 1.238 1_565 S
O258 Tb234 2.471 1_545 S
O258 C244 1.247 . S
C259 C262 1.380 1_565 S
C259 C263 1.374 . S
C259 C265 1.507 1_565 S
C260 C261 1.387 1_565 S
C260 C264 1.391 . S
C261 C260 1.387 1_545 S
C261 C262 1.384 . S
C261 H270 0.930 . S
C262 C259 1.380 1_545 S
C262 C261 1.384 . S
C262 H271 0.931 . S
C263 C259 1.374 . S
C263 C264 1.390 . S
C263 H272 0.930 . S
C264 C260 1.391 . S
C264 C263 1.390 . S
C264 H273 0.930 . S
C265 Eu235 2.825 . S
C265 O250 1.238 . S
C265 O251 1.247 1_545 S
C265 C259 1.507 1_545 S
H266 C239 0.930 1_565 S
H267 C240 0.931 . S
H268 C241 0.930 . S
H269 C242 0.930 . S
H270 C261 0.930 . S
H271 C262 0.931 . S
H272 C263 0.930 . S
H273 C264 0.930 . S
Tb274 C284 2.825 . S
Tb274 O285 2.347 1_455 S
Tb274 O288 2.366 1_455 S
Tb274 O293 2.418 . S
Tb274 O294 2.349 1_556 S
Tb274 O297 2.479 . S
Tb274 O298 2.471 1_455 S
Eu275 O286 2.418 . S
Eu275 O287 2.384 . S
Eu275 O290 2.479 . S
Eu275 O291 2.471 1_655 S
Eu275 O292 2.347 1_655 S
Eu275 O295 2.366 1_655 S
Eu275 C305 2.825 1_655 S
C276 O292 1.259 . S
C276 O293 1.265 1_554 S
C277 O294 1.303 . S
C277 O295 1.265 . S
C278 C280 1.380 1_655 S
C278 C281 1.374 . S
C278 C284 1.507 1_655 S
C279 C280 1.384 1_655 S
C279 C283 1.387 . S
C279 H306 0.930 1_655 S
C280 C278 1.380 1_455 S
C280 C279 1.384 1_455 S
C280 H307 0.931 . S
C281 C278 1.374 . S
C281 C282 1.390 . S
C281 H308 0.930 . S
C282 C281 1.390 . S
C282 C283 1.391 . S
C282 H309 0.930 . S
C283 C279 1.387 . S
C283 C282 1.391 . S
C284 Tb274 2.825 . S
C284 C278 1.507 1_455 S
C284 O297 1.238 . S
C284 O298 1.247 1_455 S
O285 Tb274 2.347 1_655 S
O285 C289 1.259 . S
O286 Eu275 2.418 . S
O286 C289 1.265 1_554 S
O287 Eu275 2.384 . S
O287 C296 1.255 1_554 S
O288 Tb274 2.366 1_655 S
O288 C296 1.265 . S
C289 O285 1.259 . S
C289 O286 1.265 1_556 S
O290 Eu275 2.479 . S
O290 C305 1.238 1_655 S
O291 Eu275 2.471 1_455 S
O291 C305 1.247 . S
O292 Eu275 2.347 1_455 S
O292 C276 1.259 . S
O293 Tb274 2.418 . S
O293 C276 1.265 1_556 S
O294 Tb274 2.349 1_554 S
O294 C277 1.303 . S
O295 Eu275 2.366 1_455 S
O295 C277 1.265 . S
C296 O287 1.255 1_556 S
C296 O288 1.265 . S
O297 Tb274 2.479 . S
O297 C284 1.238 . S
O298 Tb274 2.471 1_655 S
O298 C284 1.247 1_655 S
C299 C302 1.380 1_455 S
C299 C303 1.374 . S
C299 C305 1.507 . S
C300 C301 1.387 . S
C300 C304 1.391 . S
C301 C300 1.387 . S
C301 C302 1.384 1_455 S
C301 H310 0.930 1_455 S
C302 C299 1.380 1_655 S
C302 C301 1.384 1_655 S
C302 H311 0.931 . S
C303 C299 1.374 . S
C303 C304 1.390 . S
C303 H312 0.930 . S
C304 C300 1.391 . S
C304 C303 1.390 . S
C304 H313 0.930 . S
C305 Eu275 2.825 1_455 S
C305 O290 1.238 1_455 S
C305 O291 1.247 . S
C305 C299 1.507 . S
H306 C279 0.930 1_455 S
H307 C280 0.931 . S
H308 C281 0.930 . S
H309 C282 0.930 . S
H310 C301 0.930 1_655 S
H311 C302 0.931 . S
H312 C303 0.930 . S
H313 C304 0.930 . S
Tb314 C324 2.825 . S
Tb314 O325 2.347 . S
Tb314 O328 2.366 . S
Tb314 O333 2.418 . S
Tb314 O334 2.384 . S
Tb314 O337 2.479 . S
Tb314 O338 2.471 . S
Eu315 O326 2.418 . S
Eu315 O327 2.384 1_556 S
Eu315 O330 2.479 . S
Eu315 O331 2.471 . S
Eu315 O332 2.347 . S
Eu315 O335 2.366 . S
Eu315 C345 2.825 . S
C316 O332 1.259 1_554 S
C316 O333 1.265 . S
C317 O334 1.255 1_556 S
C317 O335 1.265 . S
C318 C320 1.380 . S
C318 C321 1.374 . S
C318 C324 1.507 . S
C319 C320 1.384 . S
C319 C323 1.387 . S
C319 H346 0.930 . S
C320 C318 1.380 . S
C320 C319 1.384 . S
C320 H347 0.931 . S
C321 C318 1.374 . S
C321 C322 1.390 . S
C321 H348 0.930 . S
C322 C321 1.390 . S
C322 C323 1.391 . S
C322 H349 0.930 . S
C323 C319 1.387 . S
C323 C322 1.391 . S
C324 Tb314 2.825 . S
C324 C318 1.507 . S
C324 O337 1.238 . S
C324 O338 1.247 . S
O325 Tb314 2.347 . S
O325 C329 1.259 . S
O326 Eu315 2.418 . S
O326 C329 1.265 1_556 S
O327 Eu315 2.384 1_554 S
O327 C336 1.255 . S
O328 Tb314 2.366 . S
O328 C336 1.265 . S
C329 O325 1.259 . S
C329 O326 1.265 1_554 S
O330 Eu315 2.479 . S
O330 C345 1.238 . S
O331 Eu315 2.471 . S
O331 C345 1.247 . S
O332 Eu315 2.347 . S
O332 C316 1.259 1_556 S
O333 Tb314 2.418 . S
O333 C316 1.265 . S
O334 Tb314 2.384 . S
O334 C317 1.255 1_554 S
O335 Eu315 2.366 . S
O335 C317 1.265 . S
C336 O327 1.255 . S
C336 O328 1.265 . S
O337 Tb314 2.479 . S
O337 C324 1.238 . S
O338 Tb314 2.471 . S
O338 C324 1.247 . S
C339 C342 1.380 . S
C339 C343 1.374 . S
C339 C345 1.507 . S
C340 C341 1.387 . S
C340 C344 1.391 . S
C341 C340 1.387 . S
C341 C342 1.384 . S
C341 H350 0.930 . S
C342 C339 1.380 . S
C342 C341 1.384 . S
C342 H351 0.931 . S
C343 C339 1.374 . S
C343 C344 1.390 . S
C343 H352 0.930 . S
C344 C340 1.391 . S
C344 C343 1.390 . S
C344 H353 0.930 . S
C345 Eu315 2.825 . S
C345 O330 1.238 . S
C345 O331 1.247 . S
C345 C339 1.507 . S
H346 C319 0.930 . S
H347 C320 0.931 . S
H348 C321 0.930 . S
H349 C322 0.930 . S
H350 C341 0.930 . S
H351 C342 0.931 . S
H352 C343 0.930 . S
H353 C344 0.930 . S
Tb354 C364 2.825 . S
Tb354 O365 2.347 . S
Tb354 O368 2.366 . S
Tb354 O373 2.418 . S
Tb354 O374 2.384 . S
Tb354 O377 2.479 . S
Tb354 O378 2.471 . S
Eu355 O366 2.418 . S
Eu355 O367 2.384 . S
Eu355 O370 2.479 . S
Eu355 O371 2.471 . S
Eu355 O372 2.347 . S
Eu355 O375 2.366 . S
Eu355 C385 2.825 . S
C356 O372 1.259 . S
C356 O373 1.265 . S
C357 O374 1.255 . S
C357 O375 1.265 . S
C358 C360 1.380 . S
C358 C361 1.374 . S
C358 C364 1.507 . S
C359 C360 1.384 . S
C359 C363 1.387 . S
C359 H386 0.930 . S
C360 C358 1.380 . S
C360 C359 1.384 . S
C360 H387 0.931 . S
C361 C358 1.374 . S
C361 C362 1.390 . S
C361 H388 0.930 . S
C362 C361 1.390 . S
C362 C363 1.391 . S
C362 H389 0.930 . S
C363 C359 1.387 . S
C363 C362 1.391 . S
C364 Tb354 2.825 . S
C364 C358 1.507 . S
C364 O377 1.238 . S
C364 O378 1.247 . S
O365 Tb354 2.347 . S
O365 C369 1.259 . S
O366 Eu355 2.418 . S
O366 C369 1.265 . S
O367 Eu355 2.384 . S
O367 C376 1.255 . S
O368 Tb354 2.366 . S
O368 C376 1.265 . S
C369 O365 1.259 . S
C369 O366 1.265 . S
O370 Eu355 2.479 . S
O370 C385 1.238 . S
O371 Eu355 2.471 . S
O371 C385 1.247 . S
O372 Eu355 2.347 . S
O372 C356 1.259 . S
O373 Tb354 2.418 . S
O373 C356 1.265 . S
O374 Tb354 2.384 . S
O374 C357 1.255 . S
O375 Eu355 2.366 . S
O375 C357 1.265 . S
C376 O367 1.255 . S
C376 O368 1.265 . S
O377 Tb354 2.479 . S
O377 C364 1.238 . S
O378 Tb354 2.471 . S
O378 C364 1.247 . S
C379 C382 1.380 . S
C379 C383 1.374 . S
C379 C385 1.507 . S
C380 C381 1.387 . S
C380 C384 1.391 . S
C381 C380 1.387 . S
C381 C382 1.384 . S
C381 H390 0.930 . S
C382 C379 1.380 . S
C382 C381 1.384 . S
C382 H391 0.931 . S
C383 C379 1.374 . S
C383 C384 1.390 . S
C383 H392 0.930 . S
C384 C380 1.391 . S
C384 C383 1.390 . S
C384 H393 0.930 . S
C385 Eu355 2.825 . S
C385 O370 1.238 . S
C385 O371 1.247 . S
C385 C379 1.507 . S
H386 C359 0.930 . S
H387 C360 0.931 . S
H388 C361 0.930 . S
H389 C362 0.930 . S
H390 C381 0.930 . S
H391 C382 0.931 . S
H392 C383 0.930 . S
H393 C384 0.930 . S
Tb394 C404 2.825 . S
Tb394 O405 2.347 . S
Tb394 O408 2.366 . S
Tb394 O413 2.418 . S
Tb394 O414 2.384 . S
Tb394 O417 2.479 . S
Tb394 O418 2.471 . S
Eu395 O406 2.418 . S
Eu395 O407 2.384 . S
Eu395 O410 2.479 . S
Eu395 O411 2.471 . S
Eu395 O412 2.347 . S
Eu395 O415 2.366 . S
Eu395 C425 2.825 . S
C396 O412 1.259 . S
C396 O413 1.265 . S
C397 O414 1.255 . S
C397 O415 1.265 . S
C398 C400 1.380 . S
C398 C401 1.374 . S
C398 C404 1.507 . S
C399 C400 1.384 . S
C399 C403 1.387 . S
C399 H426 0.930 . S
C400 C398 1.380 . S
C400 C399 1.384 . S
C400 H427 0.931 . S
C401 C398 1.374 . S
C401 C402 1.390 . S
C401 H428 0.930 . S
C402 C401 1.390 . S
C402 C403 1.391 . S
C402 H429 0.930 . S
C403 C399 1.387 . S
C403 C402 1.391 . S
C404 Tb394 2.825 . S
C404 C398 1.507 . S
C404 O417 1.238 . S
C404 O418 1.247 . S
O405 Tb394 2.347 . S
O405 C409 1.259 . S
O406 Eu395 2.418 . S
O406 C409 1.265 . S
O407 Eu395 2.384 . S
O407 C416 1.255 . S
O408 Tb394 2.366 . S
O408 C416 1.265 . S
C409 O405 1.259 . S
C409 O406 1.265 . S
O410 Eu395 2.479 . S
O410 C425 1.238 . S
O411 Eu395 2.471 . S
O411 C425 1.247 . S
O412 Eu395 2.347 . S
O412 C396 1.259 . S
O413 Tb394 2.418 . S
O413 C396 1.265 . S
O414 Tb394 2.384 . S
O414 C397 1.255 . S
O415 Eu395 2.366 . S
O415 C397 1.265 . S
C416 O407 1.255 . S
C416 O408 1.265 . S
O417 Tb394 2.479 . S
O417 C404 1.238 . S
O418 Tb394 2.471 . S
O418 C404 1.247 . S
C419 C422 1.380 . S
C419 C423 1.374 . S
C419 C425 1.507 . S
C420 C421 1.387 . S
C420 C424 1.391 . S
C421 C420 1.387 . S
C421 C422 1.384 . S
C421 H430 0.930 . S
C422 C419 1.380 . S
C422 C421 1.384 . S
C422 H431 0.931 . S
C423 C419 1.374 . S
C423 C424 1.390 . S
C423 H432 0.930 . S
C424 C420 1.391 . S
C424 C423 1.390 . S
C424 H433 0.930 . S
C425 Eu395 2.825 . S
C425 O410 1.238 . S
C425 O411 1.247 . S
C425 C419 1.507 . S
H426 C399 0.930 . S
H427 C400 0.931 . S
H428 C401 0.930 . S
H429 C402 0.930 . S
H430 C421 0.930 . S
H431 C422 0.931 . S
H432 C423 0.930 . S
H433 C424 0.930 . S
Tb434 C444 2.825 . S
Tb434 O445 2.347 . S
Tb434 O448 2.366 . S
Tb434 O453 2.418 . S
Tb434 O454 2.384 . S
Tb434 O457 2.479 . S
Tb434 O458 2.471 . S
Eu435 O446 2.418 . S
Eu435 O447 2.384 . S
Eu435 O450 2.479 . S
Eu435 O451 2.471 . S
Eu435 O452 2.347 . S
Eu435 O455 2.366 . S
Eu435 C465 2.825 . S
C436 O452 1.259 . S
C436 O453 1.265 . S
C437 O454 1.255 . S
C437 O455 1.265 . S
C438 C440 1.380 . S
C438 C441 1.374 . S
C438 C444 1.507 . S
C439 C440 1.384 . S
C439 C443 1.387 . S
C439 H466 0.930 . S
C440 C438 1.380 . S
C440 C439 1.384 . S
C440 H467 0.931 . S
C441 C438 1.374 . S
C441 C442 1.390 . S
C441 H468 0.930 . S
C442 C441 1.390 . S
C442 C443 1.391 . S
C442 H469 0.930 . S
C443 C439 1.387 . S
C443 C442 1.391 . S
C444 Tb434 2.825 . S
C444 C438 1.507 . S
C444 O457 1.238 . S
C444 O458 1.247 . S
O445 Tb434 2.347 . S
O445 C449 1.259 . S
O446 Eu435 2.418 . S
O446 C449 1.265 . S
O447 Eu435 2.384 . S
O447 C456 1.255 . S
O448 Tb434 2.366 . S
O448 C456 1.265 . S
C449 O445 1.259 . S
C449 O446 1.265 . S
O450 Eu435 2.479 . S
O450 C465 1.238 . S
O451 Eu435 2.471 . S
O451 C465 1.247 . S
O452 Eu435 2.347 . S
O452 C436 1.259 . S
O453 Tb434 2.418 . S
O453 C436 1.265 . S
O454 Tb434 2.384 . S
O454 C437 1.255 . S
O455 Eu435 2.366 . S
O455 C437 1.265 . S
C456 O447 1.255 . S
C456 O448 1.265 . S
O457 Tb434 2.479 . S
O457 C444 1.238 . S
O458 Tb434 2.471 . S
O458 C444 1.247 . S
C459 C462 1.380 . S
C459 C463 1.374 . S
C459 C465 1.507 . S
C460 C461 1.387 . S
C460 C464 1.391 . S
C461 C460 1.387 . S
C461 C462 1.384 . S
C461 H470 0.930 . S
C462 C459 1.380 . S
C462 C461 1.384 . S
C462 H471 0.931 . S
C463 C459 1.374 . S
C463 C464 1.390 . S
C463 H472 0.930 . S
C464 C460 1.391 . S
C464 C463 1.390 . S
C464 H473 0.930 . S
C465 Eu435 2.825 . S
C465 O450 1.238 . S
C465 O451 1.247 . S
C465 C459 1.507 . S
H466 C439 0.930 . S
H467 C440 0.931 . S
H468 C441 0.930 . S
H469 C442 0.930 . S
H470 C461 0.930 . S
H471 C462 0.931 . S
H472 C463 0.930 . S
H473 C464 0.930 . S
Tb474 C484 2.825 . S
Tb474 O485 2.347 . S
Tb474 O488 2.366 . S
Tb474 O493 2.418 . S
Tb474 O494 2.384 . S
Tb474 O497 2.479 . S
Tb474 O498 2.471 . S
Eu475 O486 2.418 . S
Eu475 O487 2.384 . S
Eu475 O490 2.479 . S
Eu475 O491 2.471 . S
Eu475 O492 2.347 . S
Eu475 O495 2.366 . S
Eu475 C505 2.825 . S
C476 O492 1.259 . S
C476 O493 1.265 . S
C477 O494 1.255 . S
C477 O495 1.265 . S
C478 C480 1.380 . S
C478 C481 1.374 . S
C478 C484 1.507 . S
C479 C480 1.384 . S
C479 C483 1.387 . S
C479 H506 0.930 . S
C480 C478 1.380 . S
C480 C479 1.384 . S
C480 H507 0.931 . S
C481 C478 1.374 . S
C481 C482 1.390 . S
C481 H508 0.930 . S
C482 C481 1.390 . S
C482 C483 1.391 . S
C482 H509 0.930 . S
C483 C479 1.387 . S
C483 C482 1.391 . S
C484 Tb474 2.825 . S
C484 C478 1.507 . S
C484 O497 1.238 . S
C484 O498 1.247 . S
O485 Tb474 2.347 . S
O485 C489 1.259 . S
O486 Eu475 2.418 . S
O486 C489 1.265 . S
O487 Eu475 2.384 . S
O487 C496 1.255 . S
O488 Tb474 2.366 . S
O488 C496 1.265 . S
C489 O485 1.259 . S
C489 O486 1.265 . S
O490 Eu475 2.479 . S
O490 C505 1.238 . S
O491 Eu475 2.471 . S
O491 C505 1.247 . S
O492 Eu475 2.347 . S
O492 C476 1.259 . S
O493 Tb474 2.418 . S
O493 C476 1.265 . S
O494 Tb474 2.384 . S
O494 C477 1.255 . S
O495 Eu475 2.366 . S
O495 C477 1.265 . S
C496 O487 1.255 . S
C496 O488 1.265 . S
O497 Tb474 2.479 . S
O497 C484 1.238 . S
O498 Tb474 2.471 . S
O498 C484 1.247 . S
C499 C502 1.380 . S
C499 C503 1.374 . S
C499 C505 1.507 . S
C500 C501 1.387 . S
C500 C504 1.391 . S
C501 C500 1.387 . S
C501 C502 1.384 . S
C501 H510 0.930 . S
C502 C499 1.380 . S
C502 C501 1.384 . S
C502 H511 0.931 . S
C503 C499 1.374 . S
C503 C504 1.390 . S
C503 H512 0.930 . S
C504 C500 1.391 . S
C504 C503 1.390 . S
C504 H513 0.930 . S
C505 Eu475 2.825 . S
C505 O490 1.238 . S
C505 O491 1.247 . S
C505 C499 1.507 . S
H506 C479 0.930 . S
H507 C480 0.931 . S
H508 C481 0.930 . S
H509 C482 0.930 . S
H510 C501 0.930 . S
H511 C502 0.931 . S
H512 C503 0.930 . S
H513 C504 0.930 . S
Tb514 C524 2.825 . S
Tb514 O525 2.347 . S
Tb514 O528 2.366 . S
Tb514 O533 2.418 . S
Tb514 O534 2.384 . S
Tb514 O537 2.479 . S
Tb514 O538 2.471 . S
Eu515 O526 2.418 . S
Eu515 O527 2.384 . S
Eu515 O530 2.479 . S
Eu515 O531 2.471 . S
Eu515 O532 2.347 . S
Eu515 O535 2.366 . S
Eu515 C545 2.825 . S
C516 O532 1.259 . S
C516 O533 1.265 . S
C517 O534 1.255 . S
C517 O535 1.265 . S
C518 C520 1.380 . S
C518 C521 1.374 . S
C518 C524 1.507 . S
C519 C520 1.384 . S
C519 C523 1.387 . S
C519 H546 0.930 . S
C520 C518 1.380 . S
C520 C519 1.384 . S
C520 H547 0.931 . S
C521 C518 1.374 . S
C521 C522 1.390 . S
C521 H548 0.930 . S
C522 C521 1.390 . S
C522 C523 1.391 . S
C522 H549 0.930 . S
C523 C519 1.387 . S
C523 C522 1.391 . S
C524 Tb514 2.825 . S
C524 C518 1.507 . S
C524 O537 1.238 . S
C524 O538 1.247 . S
O525 Tb514 2.347 . S
O525 C529 1.259 . S
O526 Eu515 2.418 . S
O526 C529 1.265 . S
O527 Eu515 2.384 . S
O527 C536 1.255 . S
O528 Tb514 2.366 . S
O528 C536 1.265 . S
C529 O525 1.259 . S
C529 O526 1.265 . S
O530 Eu515 2.479 . S
O530 C545 1.238 . S
O531 Eu515 2.471 . S
O531 C545 1.247 . S
O532 Eu515 2.347 . S
O532 C516 1.259 . S
O533 Tb514 2.418 . S
O533 C516 1.265 . S
O534 Tb514 2.384 . S
O534 C517 1.255 . S
O535 Eu515 2.366 . S
O535 C517 1.265 . S
C536 O527 1.255 . S
C536 O528 1.265 . S
O537 Tb514 2.479 . S
O537 C524 1.238 . S
O538 Tb514 2.471 . S
O538 C524 1.247 . S
C539 C542 1.380 . S
C539 C543 1.374 . S
C539 C545 1.507 . S
C540 C541 1.387 . S
C540 C544 1.391 . S
C541 C540 1.387 . S
C541 C542 1.384 . S
C541 H550 0.930 . S
C542 C539 1.380 . S
C542 C541 1.384 . S
C542 H551 0.931 . S
C543 C539 1.374 . S
C543 C544 1.390 . S
C543 H552 0.930 . S
C544 C540 1.391 . S
C544 C543 1.390 . S
C544 H553 0.930 . S
C545 Eu515 2.825 . S
C545 O530 1.238 . S
C545 O531 1.247 . S
C545 C539 1.507 . S
H546 C519 0.930 . S
H547 C520 0.931 . S
H548 C521 0.930 . S
H549 C522 0.930 . S
H550 C541 0.930 . S
H551 C542 0.931 . S
H552 C543 0.930 . S
H553 C544 0.930 . S
Tb554 C564 2.825 . S
Tb554 O565 2.347 . S
Tb554 O568 2.366 . S
Tb554 O573 2.418 . S
Tb554 O574 2.384 . S
Tb554 O577 2.479 . S
Tb554 O578 2.471 . S
Eu555 O566 2.418 . S
Eu555 O567 2.384 . S
Eu555 O570 2.479 . S
Eu555 O571 2.471 . S
Eu555 O572 2.347 . S
Eu555 O575 2.366 . S
Eu555 C585 2.825 . S
C556 O572 1.259 . S
C556 O573 1.265 . S
C557 O574 1.255 . S
C557 O575 1.265 . S
C558 C560 1.380 . S
C558 C561 1.374 . S
C558 C564 1.507 . S
C559 C560 1.384 . S
C559 C563 1.387 . S
C559 H586 0.930 . S
C560 C558 1.380 . S
C560 C559 1.384 . S
C560 H587 0.931 . S
C561 C558 1.374 . S
C561 C562 1.390 . S
C561 H588 0.930 . S
C562 C561 1.390 . S
C562 C563 1.391 . S
C562 H589 0.930 . S
C563 C559 1.387 . S
C563 C562 1.391 . S
C564 Tb554 2.825 . S
C564 C558 1.507 . S
C564 O577 1.238 . S
C564 O578 1.247 . S
O565 Tb554 2.347 . S
O565 C569 1.259 . S
O566 Eu555 2.418 . S
O566 C569 1.265 . S
O567 Eu555 2.384 . S
O567 C576 1.255 . S
O568 Tb554 2.366 . S
O568 C576 1.265 . S
C569 O565 1.259 . S
C569 O566 1.265 . S
O570 Eu555 2.479 . S
O570 C585 1.238 . S
O571 Eu555 2.471 . S
O571 C585 1.247 . S
O572 Eu555 2.347 . S
O572 C556 1.259 . S
O573 Tb554 2.418 . S
O573 C556 1.265 . S
O574 Tb554 2.384 . S
O574 C557 1.255 . S
O575 Eu555 2.366 . S
O575 C557 1.265 . S
C576 O567 1.255 . S
C576 O568 1.265 . S
O577 Tb554 2.479 . S
O577 C564 1.238 . S
O578 Tb554 2.471 . S
O578 C564 1.247 . S
C579 C582 1.380 . S
C579 C583 1.374 . S
C579 C585 1.507 . S
C580 C581 1.387 . S
C580 C584 1.391 . S
C581 C580 1.387 . S
C581 C582 1.384 . S
C581 H590 0.930 . S
C582 C579 1.380 . S
C582 C581 1.384 . S
C582 H591 0.931 . S
C583 C579 1.374 . S
C583 C584 1.390 . S
C583 H592 0.930 . S
C584 C580 1.391 . S
C584 C583 1.390 . S
C584 H593 0.930 . S
C585 Eu555 2.825 . S
C585 O570 1.238 . S
C585 O571 1.247 . S
C585 C579 1.507 . S
H586 C559 0.930 . S
H587 C560 0.931 . S
H588 C561 0.930 . S
H589 C562 0.930 . S
H590 C581 0.930 . S
H591 C582 0.931 . S
H592 C583 0.930 . S
H593 C584 0.930 . S
C594 C595 1.387 . S
C594 H598 0.950 . S
C594 C603 1.390 . S
C595 C594 1.387 . S
C595 C597 1.387 . S
H596 C603 0.950 . S
C597 C595 1.387 . S
C597 C599 1.390 . S
C597 H601 0.950 . S
H598 C594 0.950 . S
C599 C597 1.390 . S
C599 C600 1.387 . S
C599 H602 0.948 1_554 S
C600 C599 1.387 . S
C600 C603 1.387 . S
H601 C597 0.950 . S
H602 C599 0.948 1_556 S
C603 C594 1.390 . S
C603 H596 0.950 . S
C603 C600 1.387 . S
C604 C605 1.387 . S
C604 H608 0.950 . S
C604 C613 1.390 . S
C605 C604 1.387 . S
C605 C607 1.387 . S
H606 C613 0.950 . S
C607 C605 1.387 . S
C607 C609 1.390 . S
C607 H611 0.950 . S
H608 C604 0.950 . S
C609 C607 1.390 . S
C609 C610 1.387 . S
C609 H612 0.950 . S
C610 C609 1.387 . S
C610 C613 1.387 . S
H611 C607 0.950 . S
H612 C609 0.950 . S
C613 C604 1.390 . S
C613 H606 0.950 . S
C613 C610 1.387 . S
C614 C615 1.387 . S
C614 H618 0.950 . S
C614 C623 1.390 . S
C615 C614 1.387 . S
C615 C617 1.387 . S
H616 C623 0.950 . S
C617 C615 1.387 . S
C617 C619 1.390 1_554 S
C617 H621 0.950 1_554 S
H618 C614 0.950 . S
C619 C617 1.390 1_556 S
C619 C620 1.387 1_556 S
C619 H622 0.950 . S
C620 C619 1.387 1_554 S
C620 C623 1.387 . S
H621 C617 0.950 1_556 S
H622 C619 0.950 . S
C623 C614 1.390 . S
C623 H616 0.950 . S
C623 C620 1.387 . S
C624 C625 1.387 . S
C624 H628 0.950 . S
C624 C633 1.390 . S
C625 C624 1.387 . S
C625 C627 1.387 . S
H626 C633 0.950 . S
C627 C625 1.387 . S
C627 C629 1.390 . S
C627 H631 0.950 . S
H628 C624 0.950 . S
C629 C627 1.390 . S
C629 C630 1.387 . S
C629 H632 0.950 1_556 S
C630 C629 1.387 . S
C630 C633 1.387 . S
H631 C627 0.950 . S
H632 C629 0.950 1_554 S
C633 C624 1.390 . S
C633 H626 0.950 . S
C633 C630 1.387 . S
C634 C635 1.387 . S
C634 H638 0.950 . S
C634 C643 1.390 . S
C635 C634 1.387 . S
C635 C637 1.387 . S
H636 C643 0.950 . S
C637 C635 1.387 . S
C637 C639 1.390 . S
C637 H641 0.950 . S
H638 C634 0.950 . S
C639 C637 1.390 . S
C639 C640 1.387 . S
C639 H642 0.950 . S
C640 C639 1.387 . S
C640 C643 1.387 . S
H641 C637 0.950 . S
H642 C639 0.950 . S
C643 C634 1.390 . S
C643 H636 0.950 . S
C643 C640 1.387 . S
C644 C645 1.387 . S
C644 H648 0.950 . S
C644 C653 1.390 . S
C645 C644 1.387 . S
C645 C647 1.387 1_556 S
H646 C653 0.950 . S
C647 C645 1.387 1_554 S
C647 C649 1.390 . S
C647 H651 0.950 . S
H648 C644 0.950 . S
C649 C647 1.390 . S
C649 C650 1.387 1_554 S
C649 H652 0.950 . S
C650 C649 1.387 1_556 S
C650 C653 1.387 . S
H651 C647 0.950 . S
H652 C649 0.950 . S
C653 C644 1.390 . S
C653 H646 0.950 . S
C653 C650 1.387 . S
C654 C655 1.387 . S
C654 H658 0.950 1_556 S
C654 C663 1.390 . S
C655 C654 1.387 . S
C655 C657 1.387 . S
H656 C663 0.950 1_554 S
C657 C655 1.387 . S
C657 C659 1.390 . S
C657 H661 0.950 . S
H658 C654 0.950 1_554 S
C659 C657 1.390 . S
C659 C660 1.387 . S
C659 H662 0.950 . S
C660 C659 1.387 . S
C660 C663 1.387 . S
H661 C657 0.950 . S
H662 C659 0.950 . S
C663 C654 1.390 . S
C663 H656 0.950 1_556 S
C663 C660 1.387 . S
C664 C665 1.387 . S
C664 H668 0.950 . S
C664 C673 1.390 . S
C665 C664 1.387 . S
C665 C667 1.387 . S
H666 C673 0.950 . S
C667 C665 1.387 . S
C667 C669 1.390 . S
C667 H671 0.931 1_556 S
H668 C664 0.950 . S
C669 C667 1.390 . S
C669 C670 1.387 . S
C669 H672 0.950 1_556 S
C670 C669 1.387 . S
C670 C673 1.387 . S
H671 C667 0.931 1_554 S
H672 C669 0.950 1_554 S
C673 C664 1.390 . S
C673 H666 0.950 . S
C673 C670 1.387 . S
C674 C675 1.387 1_554 S
C674 H678 0.950 . S
C674 C683 1.390 . S
C675 C674 1.387 1_556 S
C675 C677 1.387 . S
H676 C683 0.950 . S
C677 C675 1.387 . S
C677 C679 1.390 . S
C677 H681 0.950 . S
H678 C674 0.950 . S
C679 C677 1.390 . S
C679 C680 1.387 . S
C679 H682 0.950 . S
C680 C679 1.387 . S
C680 C683 1.387 1_556 S
H681 C677 0.950 . S
H682 C679 0.950 . S
C683 C674 1.390 . S
C683 H676 0.950 . S
C683 C680 1.387 1_554 S
C684 C685 1.387 . S
C684 H688 0.950 . S
C684 C693 1.390 . S
C685 C684 1.387 . S
C685 C687 1.387 1_554 S
H686 C693 0.950 . S
C687 C685 1.387 1_556 S
C687 C689 1.390 . S
C687 H691 0.950 . S
H688 C684 0.950 . S
C689 C687 1.390 . S
C689 C690 1.387 1_556 S
C689 H692 0.950 . S
C690 C689 1.387 1_554 S
C690 C693 1.387 . S
H691 C687 0.950 . S
H692 C689 0.950 . S
C693 C684 1.390 . S
C693 H686 0.950 . S
C693 C690 1.387 . S
C694 C695 1.387 . S
C694 H698 0.950 . S
C694 C703 1.390 . S
C695 C694 1.387 . S
C695 C697 1.387 . S
H696 C703 0.950 . S
C697 C695 1.387 . S
C697 C699 1.390 . S
C697 H701 0.950 . S
H698 C694 0.950 . S
C699 C697 1.390 . S
C699 C700 1.387 . S
C699 H702 0.950 . S
C700 C699 1.387 . S
C700 C703 1.387 . S
H701 C697 0.950 . S
H702 C699 0.950 . S
C703 C694 1.390 . S
C703 H696 0.950 . S
C703 C700 1.387 . S
C704 C705 1.387 1_556 S
C704 H708 0.950 . S
C704 C713 1.390 . S
C705 C704 1.387 1_554 S
C705 C707 1.387 . S
H706 C713 0.950 . S
C707 C705 1.387 . S
C707 C709 1.390 . S
C707 H711 0.950 . S
H708 C704 0.950 . S
C709 C707 1.390 . S
C709 C710 1.387 . S
C709 H712 0.950 . S
C710 C709 1.387 . S
C710 C713 1.387 1_554 S
H711 C707 0.950 . S
H712 C709 0.950 . S
C713 C704 1.390 . S
C713 H706 0.950 . S
C713 C710 1.387 1_556 S
C714 C715 1.387 . S
C714 H718 0.950 . S
C714 C723 1.390 . S
C715 C714 1.387 . S
C715 C717 1.387 . S
H716 C723 0.950 1_455 S
C717 C715 1.387 . S
C717 C719 1.390 1_655 S
C717 H721 0.950 . S
H718 C714 0.950 . S
C719 C717 1.390 1_455 S
C719 C720 1.387 . S
C719 H722 0.950 . S
C720 C719 1.387 . S
C720 C723 1.387 1_455 S
H721 C717 0.950 . S
H722 C719 0.950 . S
C723 C714 1.390 . S
C723 H716 0.950 1_655 S
C723 C720 1.387 1_655 S
C724 C725 1.387 . S
C724 H728 0.950 . S
C724 C733 1.390 . S
C725 C724 1.387 . S
C725 C727 1.387 . S
H726 C733 0.950 . S
C727 C725 1.387 . S
C727 C729 1.390 . S
C727 H731 0.950 . S
H728 C724 0.950 . S
C729 C727 1.390 . S
C729 C730 1.387 . S
C729 H732 0.950 . S
C730 C729 1.387 . S
C730 C733 1.387 . S
H731 C727 0.950 . S
H732 C729 0.950 . S
C733 C724 1.390 . S
C733 H726 0.950 . S
C733 C730 1.387 . S
C734 C735 1.387 . S
C734 H738 0.950 . S
C734 C743 1.390 . S
C735 C734 1.387 . S
C735 C737 1.387 . S
H736 C743 0.950 1_565 S
C737 C735 1.387 . S
C737 C739 1.390 . S
C737 H741 0.950 . S
H738 C734 0.950 . S
C739 C737 1.390 . S
C739 C740 1.387 1_545 S
C739 H742 0.950 1_545 S
C740 C739 1.387 1_565 S
C740 C743 1.387 1_565 S
H741 C737 0.950 . S
H742 C739 0.950 1_565 S
C743 C734 1.390 . S
C743 H736 0.950 1_545 S
C743 C740 1.387 1_545 S
C744 C745 1.387 . S
C744 H748 0.950 . S
C744 C753 1.390 . S
C745 C744 1.387 . S
C745 C747 1.387 . S
H746 C753 0.950 . S
C747 C745 1.387 . S
C747 C749 1.390 . S
C747 H751 0.950 . S
H748 C744 0.950 . S
C749 C747 1.390 . S
C749 C750 1.387 . S
C749 H752 0.950 . S
C750 C749 1.387 . S
C750 C753 1.387 . S
H751 C747 0.950 . S
H752 C749 0.950 . S
C753 C744 1.390 . S
C753 H746 0.950 . S
C753 C750 1.387 . S
C754 C755 1.387 . S
C754 H758 0.950 . S
C754 C763 1.390 . S
C755 C754 1.387 . S
C755 C757 1.387 . S
H756 C763 0.950 . S
C757 C755 1.387 . S
C757 C759 1.390 . S
C757 H761 0.950 . S
H758 C754 0.950 . S
C759 C757 1.390 . S
C759 C760 1.387 . S
C759 H762 0.950 . S
C760 C759 1.387 . S
C760 C763 1.387 . S
H761 C757 0.950 . S
H762 C759 0.950 . S
C763 C754 1.390 . S
C763 H756 0.950 . S
C763 C760 1.387 . S
C764 C765 1.387 . S
C764 H768 0.950 . S
C764 C773 1.390 . S
C765 C764 1.387 . S
C765 C767 1.387 . S
H766 C773 0.950 . S
C767 C765 1.387 . S
C767 C769 1.390 . S
C767 H771 0.950 . S
H768 C764 0.950 . S
C769 C767 1.390 . S
C769 C770 1.387 . S
C769 H772 0.950 . S
C770 C769 1.387 . S
C770 C773 1.387 . S
H771 C767 0.950 . S
H772 C769 0.950 . S
C773 C764 1.390 . S
C773 H766 0.950 . S
C773 C770 1.387 . S
C774 C775 1.387 . S
C774 H778 0.950 . S
C774 C783 1.390 . S
C775 C774 1.387 . S
C775 C777 1.387 . S
H776 C783 0.950 . S
C777 C775 1.387 . S
C777 C779 1.390 . S
C777 H781 0.950 . S
H778 C774 0.950 . S
C779 C777 1.390 . S
C779 C780 1.387 . S
C779 H782 0.950 . S
C780 C779 1.387 . S
C780 C783 1.387 . S
H781 C777 0.950 . S
H782 C779 0.950 . S
C783 C774 1.390 . S
C783 H776 0.950 . S
C783 C780 1.387 . S
C784 C785 1.387 . S
C784 H788 0.950 . S
C784 C793 1.390 . S
C785 C784 1.387 . S
C785 C787 1.387 . S
H786 C793 0.950 . S
C787 C785 1.387 . S
C787 C789 1.390 . S
C787 H791 0.950 . S
H788 C784 0.950 . S
C789 C787 1.390 . S
C789 C790 1.387 . S
C789 H792 0.950 . S
C790 C789 1.387 . S
C790 C793 1.387 . S
H791 C787 0.950 . S
H792 C789 0.950 . S
C793 C784 1.390 . S
C793 H786 0.950 . S
C793 C790 1.387 . S
C794 C795 1.387 . S
C794 H798 0.950 . S
C794 C803 1.390 . S
C795 C794 1.387 . S
C795 C797 1.387 . S
H796 C803 0.950 . S
C797 C795 1.387 . S
C797 C799 1.390 . S
C797 H801 0.950 . S
H798 C794 0.950 . S
C799 C797 1.390 . S
C799 C800 1.387 . S
C799 H802 0.950 . S
C800 C799 1.387 . S
C800 C803 1.387 . S
H801 C797 0.950 . S
H802 C799 0.950 . S
C803 C794 1.390 . S
C803 H796 0.950 . S
C803 C800 1.387 . S
C804 C805 1.387 1_565 S
C804 H808 0.950 . S
C804 C813 1.390 . S
C805 C804 1.387 1_545 S
C805 C807 1.387 1_545 S
H806 C813 0.950 . S
C807 C805 1.387 1_565 S
C807 C809 1.390 . S
C807 H811 0.950 . S
H808 C804 0.950 . S
C809 C807 1.390 . S
C809 C810 1.387 . S
C809 H812 0.950 . S
C810 C809 1.387 . S
C810 C813 1.387 . S
H811 C807 0.950 . S
H812 C809 0.950 . S
C813 C804 1.390 . S
C813 H806 0.950 . S
C813 C810 1.387 . S
C814 C815 1.387 . S
C814 H818 0.950 . S
C814 C823 1.390 . S
C815 C814 1.387 . S
C815 C817 1.387 . S
H816 C823 0.950 . S
C817 C815 1.387 . S
C817 C819 1.390 . S
C817 H821 0.950 . S
H818 C814 0.950 . S
C819 C817 1.390 . S
C819 C820 1.387 . S
C819 H822 0.950 . S
C820 C819 1.387 . S
C820 C823 1.387 . S
H821 C817 0.950 . S
H822 C819 0.950 . S
C823 C814 1.390 . S
C823 H816 0.950 . S
C823 C820 1.387 . S
C824 C825 1.387 . S
C824 H828 0.950 . S
C824 C833 1.390 . S
C825 C824 1.387 . S
C825 C827 1.387 . S
H826 C833 0.950 . S
C827 C825 1.387 . S
C827 C829 1.390 . S
C827 H831 0.950 . S
H828 C824 0.950 . S
C829 C827 1.390 . S
C829 C830 1.387 . S
C829 H832 0.950 . S
C830 C829 1.387 . S
C830 C833 1.387 . S
H831 C827 0.950 . S
H832 C829 0.950 . S
C833 C824 1.390 . S
C833 H826 0.950 . S
C833 C830 1.387 . S
C834 C835 1.387 . S
C834 H838 0.950 . S
C834 C843 1.390 . S
C835 C834 1.387 . S
C835 C837 1.387 . S
H836 C843 0.950 . S
C837 C835 1.387 . S
C837 C839 1.390 . S
C837 H841 0.950 . S
H838 C834 0.950 . S
C839 C837 1.390 . S
C839 C840 1.387 . S
C839 H842 0.950 . S
C840 C839 1.387 . S
C840 C843 1.387 . S
H841 C837 0.950 . S
H842 C839 0.950 . S
C843 C834 1.390 . S
C843 H836 0.950 . S
C843 C840 1.387 . S
C844 C845 1.387 . S
C844 H848 0.950 . S
C844 C853 1.390 . S
C845 C844 1.387 . S
C845 C847 1.387 . S
H846 C853 0.950 . S
C847 C845 1.387 . S
C847 C849 1.390 . S
C847 H851 0.950 . S
H848 C844 0.950 . S
C849 C847 1.390 . S
C849 C850 1.387 . S
C849 H852 0.950 . S
C850 C849 1.387 . S
C850 C853 1.387 . S
H851 C847 0.950 . S
H852 C849 0.950 . S
C853 C844 1.390 . S
C853 H846 0.950 . S
C853 C850 1.387 . S
C854 C855 1.387 . S
C854 H858 0.950 . S
C854 C863 1.390 . S
C855 C854 1.387 . S
C855 C857 1.387 . S
H856 C863 0.950 . S
C857 C855 1.387 . S
C857 C859 1.390 . S
C857 H861 0.950 . S
H858 C854 0.950 . S
C859 C857 1.390 . S
C859 C860 1.387 . S
C859 H862 0.950 . S
C860 C859 1.387 . S
C860 C863 1.387 . S
H861 C857 0.950 . S
H862 C859 0.950 . S
C863 C854 1.390 . S
C863 H856 0.950 . S
C863 C860 1.387 . S
C864 C865 1.387 . S
C864 H868 0.950 . S
C864 C873 1.390 1_565 S
C865 C864 1.387 . S
C865 C867 1.387 . S
H866 C873 0.950 . S
C867 C865 1.387 . S
C867 C869 1.390 1_565 S
C867 H871 0.950 . S
H868 C864 0.950 . S
C869 C867 1.390 1_545 S
C869 C870 1.387 . S
C869 H872 0.950 . S
C870 C869 1.387 . S
C870 C873 1.387 . S
H871 C867 0.950 . S
H872 C869 0.950 . S
C873 C864 1.390 1_545 S
C873 H866 0.950 . S
C873 C870 1.387 . S
C874 C875 1.387 . S
C874 H878 0.950 . S
C874 C883 1.390 . S
C875 C874 1.387 . S
C875 C877 1.387 . S
H876 C883 0.950 . S
C877 C875 1.387 . S
C877 C879 1.390 1_455 S
C877 H881 0.950 1_455 S
H878 C874 0.950 . S
C879 C877 1.390 1_655 S
C879 C880 1.387 . S
C879 H882 0.950 . S
C880 C879 1.387 . S
C880 C883 1.387 1_655 S
H881 C877 0.950 1_655 S
H882 C879 0.950 . S
C883 C874 1.390 . S
C883 H876 0.950 . S
C883 C880 1.387 1_455 S
C884 C885 1.387 . S
C884 H888 0.950 . S
C884 C893 1.390 . S
C885 C884 1.387 . S
C885 C887 1.387 . S
H886 C893 0.950 . S
C887 C885 1.387 . S
C887 C889 1.390 . S
C887 H891 0.950 . S
H888 C884 0.950 . S
C889 C887 1.390 . S
C889 C890 1.387 . S
C889 H892 0.950 . S
C890 C889 1.387 . S
C890 C893 1.387 . S
H891 C887 0.950 . S
H892 C889 0.950 . S
C893 C884 1.390 . S
C893 H886 0.950 . S
C893 C890 1.387 . S
C894 C895 1.387 . S
C894 H898 0.950 . S
C894 C903 1.390 . S
C895 C894 1.387 . S
C895 C897 1.387 . S
H896 C903 0.950 . S
C897 C895 1.387 . S
C897 C899 1.390 . S
C897 H901 0.950 1_655 S
H898 C894 0.950 . S
C899 C897 1.390 . S
C899 C900 1.387 . S
C899 H902 0.950 . S
C900 C899 1.387 . S
C900 C903 1.387 . S
H901 C897 0.950 1_455 S
H902 C899 0.950 . S
C903 C894 1.390 . S
C903 H896 0.950 . S
C903 C900 1.387 . S
C904 C905 1.387 . S
C904 H908 0.950 . S
C904 C913 1.390 . S
C905 C904 1.387 . S
C905 C907 1.387 . S
H906 C913 0.950 . S
C907 C905 1.387 . S
C907 C909 1.390 . S
C907 H911 0.950 . S
H908 C904 0.950 . S
C909 C907 1.390 . S
C909 C910 1.387 . S
C909 H912 0.950 . S
C910 C909 1.387 . S
C910 C913 1.387 . S
H911 C907 0.950 . S
H912 C909 0.950 . S
C913 C904 1.390 . S
C913 H906 0.950 . S
C913 C910 1.387 . S
C914 C915 1.387 . S
C914 H918 0.950 . S
C914 C923 1.390 . S
C915 C914 1.387 . S
C915 C917 1.387 . S
H916 C923 0.950 . S
C917 C915 1.387 . S
C917 C919 1.390 . S
C917 H921 0.950 . S
H918 C914 0.950 . S
C919 C917 1.390 . S
C919 C920 1.387 . S
C919 H922 0.950 . S
C920 C919 1.387 . S
C920 C923 1.387 . S
H921 C917 0.950 . S
H922 C919 0.950 . S
C923 C914 1.390 . S
C923 H916 0.950 . S
C923 C920 1.387 . S
C924 C925 1.387 . S
C924 H928 0.950 . S
C924 C933 1.390 . S
C925 C924 1.387 . S
C925 C927 1.387 . S
H926 C933 0.950 . S
C927 C925 1.387 . S
C927 C929 1.390 . S
C927 H931 0.950 . S
H928 C924 0.950 . S
C929 C927 1.390 . S
C929 C930 1.387 . S
C929 H932 0.950 . S
C930 C929 1.387 . S
C930 C933 1.387 . S
H931 C927 0.950 . S
H932 C929 0.950 . S
C933 C924 1.390 . S
C933 H926 0.950 . S
C933 C930 1.387 . S
C934 C935 1.387 . S
C934 H938 0.950 . S
C934 C943 1.390 . S
C935 C934 1.387 . S
C935 C937 1.387 . S
H936 C943 0.950 . S
C937 C935 1.387 . S
C937 C939 1.390 . S
C937 H941 0.950 . S
H938 C934 0.950 . S
C939 C937 1.390 . S
C939 C940 1.387 . S
C939 H942 0.950 . S
C940 C939 1.387 . S
C940 C943 1.387 . S
H941 C937 0.950 . S
H942 C939 0.950 . S
C943 C934 1.390 . S
C943 H936 0.950 . S
C943 C940 1.387 . S
C944 C945 1.387 . S
C944 H948 0.950 . S
C944 C953 1.390 . S
C945 C944 1.387 . S
C945 C947 1.387 . S
H946 C953 0.950 . S
C947 C945 1.387 . S
C947 C949 1.390 . S
C947 H951 0.950 . S
H948 C944 0.950 . S
C949 C947 1.390 . S
C949 C950 1.387 . S
C949 H952 0.950 . S
C950 C949 1.387 . S
C950 C953 1.387 . S
H951 C947 0.950 . S
H952 C949 0.950 . S
C953 C944 1.390 . S
C953 H946 0.950 . S
C953 C950 1.387 . S
C954 C955 1.387 . S
C954 H958 0.950 . S
C954 C963 1.390 . S
C955 C954 1.387 . S
C955 C957 1.387 . S
H956 C963 0.971 . S
C957 C955 1.387 . S
C957 C959 1.390 . S
C957 H961 0.950 . S
H958 C954 0.950 . S
C959 C957 1.390 . S
C959 C960 1.387 . S
C959 H962 0.950 . S
C960 C959 1.387 . S
C960 C963 1.387 . S
H961 C957 0.950 . S
H962 C959 0.950 . S
C963 C954 1.390 . S
C963 H956 0.971 . S
C963 C960 1.387 . S
C964 C965 1.387 . S
C964 H968 0.950 . S
C964 C973 1.390 . S
C965 C964 1.387 . S
C965 C967 1.387 . S
H966 C973 0.950 . S
C967 C965 1.387 . S
C967 C969 1.390 . S
C967 H971 0.950 . S
H968 C964 0.950 . S
C969 C967 1.390 . S
C969 C970 1.387 . S
C969 H972 0.950 . S
C970 C969 1.387 . S
C970 C973 1.387 . S
H971 C967 0.950 . S
H972 C969 0.950 . S
C973 C964 1.390 . S
C973 H966 0.950 . S
C973 C970 1.387 . S
C974 C975 1.387 . S
C974 H978 0.950 . S
C974 C983 1.390 . S
C975 C974 1.387 . S
C975 C977 1.387 . S
H976 C983 0.950 . S
C977 C975 1.387 . S
C977 C979 1.390 . S
C977 H981 0.950 . S
H978 C974 0.950 . S
C979 C977 1.390 . S
C979 C980 1.387 . S
C979 H982 0.950 . S
C980 C979 1.387 . S
C980 C983 1.387 . S
H981 C977 0.950 . S
H982 C979 0.950 . S
C983 C974 1.390 . S
C983 H976 0.950 . S
C983 C980 1.387 . S
C984 C985 1.387 . S
C984 H988 0.950 . S
C984 C993 1.390 . S
C985 C984 1.387 . S
C985 C987 1.387 . S
H986 C993 0.950 . S
C987 C985 1.387 . S
C987 C989 1.390 . S
C987 H991 0.950 1_655 S
H988 C984 0.950 . S
C989 C987 1.390 . S
C989 C990 1.387 . S
C989 H992 0.950 1_655 S
C990 C989 1.387 . S
C990 C993 1.387 . S
H991 C987 0.950 1_455 S
H992 C989 0.950 1_455 S
C993 C984 1.390 . S
C993 H986 0.950 . S
C993 C990 1.387 . S
C994 C995 1.387 . S
C994 H998 0.950 . S
C994 C1003 1.390 . S
C995 C994 1.387 . S
C995 C997 1.387 . S
H996 C1003 0.950 . S
C997 C995 1.387 . S
C997 C999 1.390 . S
C997 H1001 0.950 . S
H998 C994 0.950 . S
C999 C997 1.390 . S
C999 C1000 1.387 . S
C999 H1002 0.950 . S
C1000 C999 1.387 . S
C1000 C1003 1.387 . S
H1001 C997 0.950 . S
H1002 C999 0.950 . S
C1003 C994 1.390 . S
C1003 H996 0.950 . S
C1003 C1000 1.387 . S
C1004 C1005 1.387 . S
C1004 H1008 0.950 . S
C1004 C1013 1.390 . S
C1005 C1004 1.387 . S
C1005 C1007 1.387 . S
H1006 C1013 0.950 . S
C1007 C1005 1.387 . S
C1007 C1009 1.390 . S
C1007 H1011 0.950 . S
H1008 C1004 0.950 . S
C1009 C1007 1.390 . S
C1009 C1010 1.387 . S
C1009 H1012 0.950 . S
C1010 C1009 1.387 . S
C1010 C1013 1.387 . S
H1011 C1007 0.950 . S
H1012 C1009 0.950 . S
C1013 C1004 1.390 . S
C1013 H1006 0.950 . S
C1013 C1010 1.387 . S
C1014 C1015 1.387 . S
C1014 H1018 0.950 . S
C1014 C1023 1.390 . S
C1015 C1014 1.387 . S
C1015 C1017 1.387 . S
H1016 C1023 0.950 . S
C1017 C1015 1.387 . S
C1017 C1019 1.390 . S
C1017 H1021 0.950 . S
H1018 C1014 0.950 . S
C1019 C1017 1.390 . S
C1019 C1020 1.387 . S
C1019 H1022 0.950 . S
C1020 C1019 1.387 . S
C1020 C1023 1.387 . S
H1021 C1017 0.950 . S
H1022 C1019 0.950 . S
C1023 C1014 1.390 . S
C1023 H1016 0.950 . S
C1023 C1020 1.387 . S
C1024 C1025 1.387 . S
C1024 H1028 0.950 . S
C1024 C1033 1.390 . S
C1025 C1024 1.387 . S
C1025 C1027 1.387 . S
H1026 C1033 0.950 . S
C1027 C1025 1.387 . S
C1027 C1029 1.390 . S
C1027 H1031 0.950 . S
H1028 C1024 0.950 . S
C1029 C1027 1.390 . S
C1029 C1030 1.387 . S
C1029 H1032 0.950 . S
C1030 C1029 1.387 . S
C1030 C1033 1.387 . S
H1031 C1027 0.950 . S
H1032 C1029 0.950 . S
C1033 C1024 1.390 . S
C1033 H1026 0.950 . S
C1033 C1030 1.387 . S
C1034 C1035 1.387 . S
C1034 H1038 0.950 . S
C1034 C1043 1.390 . S
C1035 C1034 1.387 . S
C1035 C1037 1.387 . S
H1036 C1043 0.950 . S
C1037 C1035 1.387 . S
C1037 C1039 1.390 . S
C1037 H1041 0.950 . S
H1038 C1034 0.950 . S
C1039 C1037 1.390 . S
C1039 C1040 1.387 . S
C1039 H1042 0.950 . S
C1040 C1039 1.387 . S
C1040 C1043 1.387 . S
H1041 C1037 0.950 . S
H1042 C1039 0.950 . S
C1043 C1034 1.390 . S
C1043 H1036 0.950 . S
C1043 C1040 1.387 . S
C1044 C1045 1.387 . S
C1044 H1048 0.950 . S
C1044 C1053 1.390 . S
C1045 C1044 1.387 . S
C1045 C1047 1.387 . S
H1046 C1053 0.950 . S
C1047 C1045 1.387 . S
C1047 C1049 1.390 . S
C1047 H1051 0.950 . S
H1048 C1044 0.950 . S
C1049 C1047 1.390 . S
C1049 C1050 1.387 . S
C1049 H1052 0.950 . S
C1050 C1049 1.387 . S
C1050 C1053 1.387 . S
H1051 C1047 0.950 . S
H1052 C1049 0.950 . S
C1053 C1044 1.390 . S
C1053 H1046 0.950 . S
C1053 C1050 1.387 . S
C1054 C1055 1.387 . S
C1054 H1058 0.950 . S
C1054 C1063 1.390 . S
C1055 C1054 1.387 . S
C1055 C1057 1.387 . S
H1056 C1063 0.950 . S
C1057 C1055 1.387 . S
C1057 C1059 1.390 . S
C1057 H1061 0.950 . S
H1058 C1054 0.950 . S
C1059 C1057 1.390 . S
C1059 C1060 1.387 . S
C1059 H1062 0.950 . S
C1060 C1059 1.387 . S
C1060 C1063 1.387 . S
H1061 C1057 0.950 . S
H1062 C1059 0.950 . S
C1063 C1054 1.390 . S
C1063 H1056 0.950 . S
C1063 C1060 1.387 . S
C1064 C1065 1.387 . S
C1064 H1068 0.950 . S
C1064 C1073 1.390 . S
C1065 C1064 1.387 . S
C1065 C1067 1.387 . S
H1066 C1073 0.950 . S
C1067 C1065 1.387 . S
C1067 C1069 1.390 . S
C1067 H1071 0.950 . S
H1068 C1064 0.950 . S
C1069 C1067 1.390 . S
C1069 C1070 1.387 . S
C1069 H1072 0.950 . S
C1070 C1069 1.387 . S
C1070 C1073 1.387 . S
H1071 C1067 0.950 . S
H1072 C1069 0.950 . S
C1073 C1064 1.390 . S
C1073 H1066 0.950 . S
C1073 C1070 1.387 . S
C1074 C1075 1.387 . S
C1074 H1078 0.950 . S
C1074 C1083 1.390 . S
C1075 C1074 1.387 . S
C1075 C1077 1.387 . S
H1076 C1083 0.950 . S
C1077 C1075 1.387 . S
C1077 C1079 1.390 . S
C1077 H1081 0.950 . S
H1078 C1074 0.950 . S
C1079 C1077 1.390 . S
C1079 C1080 1.387 . S
C1079 H1082 0.950 . S
C1080 C1079 1.387 . S
C1080 C1083 1.387 . S
H1081 C1077 0.950 . S
H1082 C1079 0.950 . S
C1083 C1074 1.390 . S
C1083 H1076 0.950 . S
C1083 C1080 1.387 . S
C1084 C1085 1.387 . S
C1084 H1088 0.950 . S
C1084 C1093 1.390 . S
C1085 C1084 1.387 . S
C1085 C1087 1.387 . S
H1086 C1093 0.950 . S
C1087 C1085 1.387 . S
C1087 C1089 1.390 . S
C1087 H1091 0.950 . S
H1088 C1084 0.950 . S
C1089 C1087 1.390 . S
C1089 C1090 1.387 . S
C1089 H1092 0.950 . S
C1090 C1089 1.387 . S
C1090 C1093 1.387 . S
H1091 C1087 0.950 . S
H1092 C1089 0.950 . S
C1093 C1084 1.390 . S
C1093 H1086 0.950 . S
C1093 C1090 1.387 . S
C1094 C1095 1.387 . S
C1094 H1098 0.950 . S
C1094 C1103 1.390 . S
C1095 C1094 1.387 . S
C1095 C1097 1.387 . S
H1096 C1103 0.950 . S
C1097 C1095 1.387 . S
C1097 C1099 1.390 . S
C1097 H1101 0.950 . S
H1098 C1094 0.950 . S
C1099 C1097 1.390 . S
C1099 C1100 1.387 . S
C1099 H1102 0.950 . S
C1100 C1099 1.387 . S
C1100 C1103 1.387 . S
H1101 C1097 0.950 . S
H1102 C1099 0.950 . S
C1103 C1094 1.390 . S
C1103 H1096 0.950 . S
C1103 C1100 1.387 . S
C1104 C1105 1.387 . S
C1104 H1108 0.950 . S
C1104 C1113 1.390 . S
C1105 C1104 1.387 . S
C1105 C1107 1.387 . S
H1106 C1113 0.950 . S
C1107 C1105 1.387 . S
C1107 C1109 1.390 . S
C1107 H1111 0.950 . S
H1108 C1104 0.950 . S
C1109 C1107 1.390 . S
C1109 C1110 1.387 . S
C1109 H1112 0.950 . S
C1110 C1109 1.387 . S
C1110 C1113 1.387 . S
H1111 C1107 0.950 . S
H1112 C1109 0.950 . S
C1113 C1104 1.390 . S
C1113 H1106 0.950 . S
C1113 C1110 1.387 . S
C1114 C1115 1.387 . S
C1114 H1118 0.950 . S
C1114 C1123 1.390 . S
C1115 C1114 1.387 . S
C1115 C1117 1.387 . S
H1116 C1123 0.950 . S
C1117 C1115 1.387 . S
C1117 C1119 1.390 . S
C1117 H1121 0.950 . S
H1118 C1114 0.950 . S
C1119 C1117 1.390 . S
C1119 C1120 1.387 . S
C1119 H1122 0.950 . S
C1120 C1119 1.387 . S
C1120 C1123 1.387 . S
H1121 C1117 0.950 . S
H1122 C1119 0.950 . S
C1123 C1114 1.390 . S
C1123 H1116 0.950 . S
C1123 C1120 1.387 . S
C1124 C1125 1.387 . S
C1124 H1128 0.950 . S
C1124 C1133 1.390 . S
C1125 C1124 1.387 . S
C1125 C1127 1.387 . S
H1126 C1133 0.950 . S
C1127 C1125 1.387 . S
C1127 C1129 1.390 . S
C1127 H1131 0.950 . S
H1128 C1124 0.950 . S
C1129 C1127 1.390 . S
C1129 C1130 1.387 . S
C1129 H1132 0.950 . S
C1130 C1129 1.387 . S
C1130 C1133 1.387 . S
H1131 C1127 0.950 . S
H1132 C1129 0.950 . S
C1133 C1124 1.390 . S
C1133 H1126 0.950 . S
C1133 C1130 1.387 . S
C595 C177 1.654 . S
C600 C237 1.666 . S
C605 C190 1.750 . S
C610 C277 1.746 . S
C615 C164 1.587 . S
C620 C329 1.580 . S
C625 C151 1.494 . S
C630 C289 1.474 . S
C640 C317 1.520 . S
C635 C125 1.523 . S
C645 C138 1.404 . S
C650 C249 1.404 1_556 S
C660 C256 1.673 . S
C655 C147 1.652 . S
C670 C296 1.647 . S
C665 C121 1.593 . S
C675 C134 1.610 . S
C680 C316 1.671 1_556 S
C685 C173 1.493 . S
C690 C276 1.532 . S
C695 C186 1.475 . S
C700 C336 1.489 . S
C710 C236 1.527 . S
C705 C160 1.495 . S
C720 C357 1.666 . S
C715 C21 1.653 . S
C725 C34 1.749 . S
C730 C397 1.745 . S
C735 C8 1.588 . S
C740 C449 1.580 . S
C745 C229 1.493 . S
C750 C409 1.473 . S
C755 C203 1.523 . S
C760 C437 1.520 . S
C765 C216 1.403 . S
C770 C369 1.405 . S
C775 C225 1.651 . S
C780 C376 1.671 . S
C785 C199 1.591 . S
C790 C416 1.647 . S
C800 C436 1.672 . S
C795 C212 1.611 . S
C805 C17 1.490 . S
C810 C396 1.530 . S
C820 C456 1.489 . S
C815 C30 1.475 1_455 S
C825 C4 1.495 . S
C830 C356 1.526 . S
C840 C477 1.666 . S
C835 C99 1.652 . S
C845 C112 1.750 . S
C850 C517 1.746 . S
C860 C569 1.580 . S
C855 C86 1.588 . S
C870 C529 1.473 . S
C865 C73 1.493 . S
C880 C557 1.520 . S
C875 C47 1.523 . S
C885 C60 1.404 . S
C890 C489 1.404 . S
C895 C69 1.651 1_655 S
C900 C496 1.671 . S
C905 C43 1.594 . S
C910 C536 1.648 . S
C920 C556 1.672 . S
C915 C56 1.612 1_545 S
C925 C95 1.490 . S
C930 C516 1.531 . S
C935 C108 1.474 . S
C940 C576 1.488 . S
C945 C82 1.495 . S
C950 C476 1.526 . S
C955 C204 1.598 . S
C960 C260 1.560 . S
C970 C300 1.868 . S
C965 C217 1.916 . S
C975 C230 1.553 . S
C980 C323 1.570 . S
C985 C87 1.730 . S
C990 C283 1.724 . S
C995 C100 1.679 . S
C1000 C340 1.654 . S
C1010 C243 1.371 . S
C1005 C113 1.363 . S
C1015 C48 1.598 . S
C1020 C380 1.559 . S
C1025 C61 1.916 . S
C1030 C420 1.868 . S
C1035 C74 1.553 . S
C1040 C443 1.571 . S
C1045 C165 1.730 . S
C1050 C403 1.724 . S
C1060 C460 1.652 . S
C1055 C178 1.678 . S
C1065 C191 1.364 . S
C1070 C363 1.371 . S
C1075 C126 1.598 . S
C1080 C500 1.559 . S
C1085 C139 1.916 . S
C1090 C540 1.868 . S
C1100 C563 1.570 . S
C1095 C152 1.553 . S
C1105 C9 1.730 . S
C1110 C523 1.724 . S
C1115 C22 1.679 . S
C1120 C580 1.653 . S
C1125 C35 1.363 . S
C1130 C483 1.371 . S
