# Generated by pormake.
# Topology pyr, (3,6)-cn, num edge types: 1
# Building blocks:
#     Node 0, Type 0, BuildingBlock: QEWDON_clean_linker_0, # of connection points: 3
#     Node 1, Type 0, BuildingBlock: QEWDON_clean_linker_0, # of connection points: 3
#     Node 2, Type 0, BuildingBlock: QEWDON_clean_linker_0, # of connection points: 3
#     Node 3, Type 0, BuildingBlock: QEWDON_clean_linker_0, # of connection points: 3
#     Node 4, Type 0, BuildingBlock: QEWDON_clean_linker_0, # of connection points: 3
#     Node 5, Type 0, BuildingBlock: QEWDON_clean_linker_0, # of connection points: 3
#     Node 6, Type 0, BuildingBlock: QEWDON_clean_linker_0, # of connection points: 3
#     Node 7, Type 0, BuildingBlock: QEWDON_clean_linker_0, # of connection points: 3
#     Node 8, Type 1, BuildingBlock: PAMTUU_clean_sbu_0, # of connection points: 6
#     Node 9, Type 1, BuildingBlock: PAMTUU_clean_sbu_0, # of connection points: 6
#     Node 10, Type 1, BuildingBlock: PAMTUU_clean_sbu_0, # of connection points: 6
#     Node 11, Type 1, BuildingBlock: PAMTUU_clean_sbu_0, # of connection points: 6
#     Edge 12, Type (0, 1), BuildingBlock: XUDNAN_clean_linker_2, # of connection points: 2
#     Edge 13, Type (0, 1), BuildingBlock: XUDNAN_clean_linker_2, # of connection points: 2
#     Edge 14, Type (0, 1), BuildingBlock: XUDNAN_clean_linker_2, # of connection points: 2
#     Edge 15, Type (0, 1), BuildingBlock: XUDNAN_clean_linker_2, # of connection points: 2
#     Edge 16, Type (0, 1), BuildingBlock: XUDNAN_clean_linker_2, # of connection points: 2
#     Edge 17, Type (0, 1), BuildingBlock: XUDNAN_clean_linker_2, # of connection points: 2
#     Edge 18, Type (0, 1), BuildingBlock: XUDNAN_clean_linker_2, # of connection points: 2
#     Edge 19, Type (0, 1), BuildingBlock: XUDNAN_clean_linker_2, # of connection points: 2
#     Edge 20, Type (0, 1), BuildingBlock: XUDNAN_clean_linker_2, # of connection points: 2
#     Edge 21, Type (0, 1), BuildingBlock: XUDNAN_clean_linker_2, # of connection points: 2
#     Edge 22, Type (0, 1), BuildingBlock: XUDNAN_clean_linker_2, # of connection points: 2
#     Edge 23, Type (0, 1), BuildingBlock: XUDNAN_clean_linker_2, # of connection points: 2
#     Edge 24, Type (0, 1), BuildingBlock: XUDNAN_clean_linker_2, # of connection points: 2
#     Edge 25, Type (0, 1), BuildingBlock: XUDNAN_clean_linker_2, # of connection points: 2
#     Edge 26, Type (0, 1), BuildingBlock: XUDNAN_clean_linker_2, # of connection points: 2
#     Edge 27, Type (0, 1), BuildingBlock: XUDNAN_clean_linker_2, # of connection points: 2
#     Edge 28, Type (0, 1), BuildingBlock: XUDNAN_clean_linker_2, # of connection points: 2
#     Edge 29, Type (0, 1), BuildingBlock: XUDNAN_clean_linker_2, # of connection points: 2
#     Edge 30, Type (0, 1), BuildingBlock: XUDNAN_clean_linker_2, # of connection points: 2
#     Edge 31, Type (0, 1), BuildingBlock: XUDNAN_clean_linker_2, # of connection points: 2
#     Edge 32, Type (0, 1), BuildingBlock: XUDNAN_clean_linker_2, # of connection points: 2
#     Edge 33, Type (0, 1), BuildingBlock: XUDNAN_clean_linker_2, # of connection points: 2
#     Edge 34, Type (0, 1), BuildingBlock: XUDNAN_clean_linker_2, # of connection points: 2
#     Edge 35, Type (0, 1), BuildingBlock: XUDNAN_clean_linker_2, # of connection points: 2
# Relax obj value: 0.157
# Max RMSD: 0.246
# Mean RMSD: 0.188
data_MOF--net-pyr--node1-PAMTUU_clean_sbu_0--node2-QEWDON_clean_linker_0--edge1-XUDNAN_clean_linker_2
_symmetry_space_group_name_H-M    P1
_symmetry_Int_Tables_number       1
_symmetry_cell_setting            triclinic
loop_
_symmetry_equiv_pos_as_xyz
'x, y, z'
_cell_length_a     38.777044
_cell_length_b     39.901731
_cell_length_c     40.365978
_cell_angle_alpha  90.106353
_cell_angle_beta   89.675553
_cell_angle_gamma 110.21492
loop_
_atom_site_label
_atom_site_type_symbol
_atom_site_fract_x
_atom_site_fract_y
_atom_site_fract_z
_atom_type_partial_charge
H0 H 0.39573 0.32424 0.15792 0.0
C1 C 0.38634 0.31949 0.18341 0.0
C2 C 0.38818 0.28942 0.20015 0.0
C3 C 0.37084 0.34245 0.19893 0.0
H4 H 0.3757 0.25885 0.24529 0.0
C5 C 0.37485 0.28253 0.23268 0.0
C6 C 0.35871 0.30496 0.24834 0.0
C7 C 0.35721 0.33513 0.23143 0.0
C8 C 0.36562 0.37203 0.18008 0.0
H9 H 0.34409 0.35217 0.24303 0.0
C10 C 0.33053 0.37471 0.17826 0.0
C11 C 0.32452 0.40169 0.1594 0.0
C12 C 0.39502 0.39682 0.16297 0.0
H13 H 0.42229 0.39514 0.16396 0.0
C14 C 0.38941 0.42418 0.14468 0.0
H15 H 0.30775 0.35541 0.19128 0.0
C16 C 0.35439 0.42667 0.14286 0.0
H17 H 0.35054 0.44765 0.12797 0.0
H18 H 0.41221 0.44331 0.13163 0.0
H19 H 0.18306 0.84929 0.7909 0.0
C20 C 0.19936 0.83261 0.78569 0.0
C21 C 0.22565 0.83097 0.80863 0.0
C22 C 0.19403 0.81265 0.7562 0.0
H23 H 0.26821 0.80975 0.81948 0.0
C24 C 0.24699 0.80972 0.80207 0.0
C25 C 0.2426 0.79012 0.77255 0.0
C26 C 0.21584 0.79151 0.74978 0.0
C27 C 0.16626 0.81442 0.7318 0.0
H28 H 0.21239 0.77659 0.72683 0.0
C29 C 0.16376 0.84753 0.72269 0.0
C30 C 0.13775 0.84941 0.69926 0.0
C31 C 0.14229 0.78304 0.71731 0.0
H32 H 0.14346 0.75719 0.72405 0.0
C33 C 0.11623 0.78469 0.69427 0.0
H34 H 0.18224 0.87184 0.73371 0.0
C35 C 0.11392 0.8176 0.68524 0.0
H36 H 0.09392 0.81817 0.66682 0.0
H37 H 0.09785 0.76037 0.68324 0.0
H38 H 0.71083 0.48003 0.90827 0.0
C39 C 0.704 0.45287 0.917 0.0
C40 C 0.72919 0.44334 0.93696 0.0
C41 C 0.66865 0.42795 0.91014 0.0
H42 H 0.73856 0.39899 0.96086 0.0
C43 C 0.71873 0.40778 0.94818 0.0
C44 C 0.68266 0.38353 0.94492 0.0
C45 C 0.65824 0.39347 0.92479 0.0
C46 C 0.64044 0.43886 0.89179 0.0
H47 H 0.63056 0.37484 0.92153 0.0
C48 C 0.64778 0.45824 0.86132 0.0
C49 C 0.6191 0.46573 0.84434 0.0
C50 C 0.60479 0.42901 0.90533 0.0
H51 H 0.59829 0.4153 0.92891 0.0
C52 C 0.57698 0.43684 0.88903 0.0
H53 H 0.67504 0.46637 0.85047 0.0
C54 C 0.58391 0.45471 0.85884 0.0
H55 H 0.5616 0.46048 0.84695 0.0
H56 H 0.54976 0.42896 0.89993 0.0
H57 H 0.90555 0.78654 0.38273 0.0
C58 C 0.88376 0.7728 0.39996 0.0
C59 C 0.88221 0.78798 0.43147 0.0
C60 C 0.85535 0.7414 0.38965 0.0
H61 H 0.85205 0.78097 0.47741 0.0
C62 C 0.85281 0.77027 0.45283 0.0
C63 C 0.82344 0.74005 0.44271 0.0
C64 C 0.82551 0.72524 0.41149 0.0
C65 C 0.85258 0.7286 0.35445 0.0
H66 H 0.80269 0.70229 0.40323 0.0
C67 C 0.88088 0.72005 0.33776 0.0
C68 C 0.87512 0.70555 0.30513 0.0
C69 C 0.81965 0.72397 0.33751 0.0
H70 H 0.79779 0.73091 0.34919 0.0
C71 C 0.81428 0.71048 0.30543 0.0
H72 H 0.90648 0.72353 0.35033 0.0
C73 C 0.84154 0.70118 0.28946 0.0
H74 H 0.8365 0.69106 0.26436 0.0
H75 H 0.78874 0.70718 0.29283 0.0
H76 H 0.71561 0.80133 0.96562 0.0
C77 C 0.72459 0.80965 0.94053 0.0
C78 C 0.75867 0.80911 0.92902 0.0
C79 C 0.70172 0.82045 0.91941 0.0
H80 H 0.79663 0.82129 0.88778 0.0
C81 C 0.76991 0.82055 0.89656 0.0
C82 C 0.74761 0.83205 0.8755 0.0
C83 C 0.71312 0.83124 0.88689 0.0
C84 C 0.66651 0.82222 0.9315 0.0
H85 H 0.69582 0.84059 0.87105 0.0
C86 C 0.66614 0.84949 0.95337 0.0
C87 C 0.63276 0.85372 0.96221 0.0
C88 C 0.63332 0.7985 0.91913 0.0
H89 H 0.63325 0.77754 0.902 0.0
C90 C 0.60002 0.80196 0.92857 0.0
H91 H 0.69192 0.86838 0.96218 0.0
C92 C 0.59968 0.82954 0.94978 0.0
H93 H 0.57357 0.83204 0.95644 0.0
H94 H 0.57444 0.78356 0.91902 0.0
H95 H 0.85005 0.25228 0.49162 0.0
C96 C 0.84812 0.26206 0.467 0.0
C97 C 0.8752 0.26348 0.4431 0.0
C98 C 0.81773 0.27199 0.45889 0.0
H99 H 0.89556 0.28223 0.39468 0.0
C100 C 0.87288 0.27783 0.41175 0.0
C101 C 0.84103 0.28433 0.40177 0.0
C102 C 0.81368 0.28128 0.42592 0.0
C103 C 0.78877 0.27074 0.48397 0.0
H104 H 0.78805 0.28433 0.41916 0.0
C105 C 0.77041 0.29568 0.48258 0.0
C106 C 0.74137 0.2936 0.50451 0.0
C107 C 0.77837 0.24422 0.50866 0.0
H108 H 0.79115 0.22408 0.51022 0.0
C109 C 0.75038 0.24269 0.53118 0.0
H110 H 0.77875 0.3169 0.46435 0.0
C111 C 0.73184 0.26703 0.52909 0.0
H112 H 0.70941 0.26439 0.54616 0.0
H113 H 0.74247 0.22203 0.54994 0.0
H114 H 0.42587 0.78172 0.26629 0.0
C115 C 0.39793 0.77092 0.25723 0.0
C116 C 0.38519 0.79113 0.2348 0.0
C117 C 0.3758 0.73577 0.26616 0.0
H118 H 0.33979 0.79134 0.20483 0.0
C119 C 0.34956 0.7759 0.22207 0.0
C120 C 0.32636 0.74125 0.23094 0.0
C121 C 0.34005 0.72107 0.25266 0.0
C122 C 0.39337 0.71204 0.28237 0.0
H123 H 0.3233 0.69381 0.25859 0.0
C124 C 0.39576 0.70817 0.31734 0.0
C125 C 0.41462 0.68612 0.33069 0.0
C126 C 0.40978 0.69394 0.26128 0.0
H127 H 0.40849 0.69655 0.23463 0.0
C128 C 0.42876 0.67306 0.27404 0.0
H129 H 0.38292 0.72194 0.33373 0.0
C130 C 0.43151 0.66947 0.30812 0.0
H131 H 0.44771 0.65391 0.31662 0.0
H132 H 0.44189 0.65985 0.25733 0.0
H133 H 0.21989 0.45308 0.78282 0.0
C134 C 0.20577 0.43165 0.76596 0.0
C135 C 0.22197 0.4288 0.73496 0.0
C136 C 0.1721 0.40582 0.77603 0.0
H137 H 0.21611 0.39631 0.69109 0.0
C138 C 0.20331 0.40005 0.71404 0.0
C139 C 0.16927 0.37462 0.72293 0.0
C140 C 0.15395 0.37769 0.75394 0.0
C141 C 0.15772 0.4049 0.81083 0.0
H142 H 0.12789 0.35788 0.76107 0.0
C143 C 0.15456 0.43526 0.82745 0.0
C144 C 0.13969 0.43218 0.86022 0.0
C145 C 0.14675 0.37209 0.82774 0.0
H146 H 0.1495 0.34856 0.81627 0.0
C147 C 0.13217 0.36891 0.85958 0.0
H148 H 0.16325 0.46079 0.81488 0.0
C149 C 0.1283 0.39834 0.8755 0.0
H150 H 0.11555 0.39415 0.89978 0.0
H151 H 0.12344 0.34325 0.87195 0.0
Tb152 Tb 0.08226 0.09516 0.54328 0.0
Tb153 Tb 1.01047 0.07411 0.5924 0.0
C154 C 0.01818 0.02124 0.53625 0.0
C155 C 0.15952 0.14083 0.4837 0.0
C156 C 0.20424 0.19144 0.43856 0.0
C157 C 0.17033 0.16673 0.42847 0.0
C158 C 0.14821 0.14165 0.45077 0.0
C159 C 0.19294 0.1662 0.49401 0.0
C160 C 0.21499 0.19139 0.47171 0.0
C161 C 0.13853 0.11191 0.50647 0.0
O162 O 0.04034 0.10871 0.51609 0.0
O163 O 1.00603 0.11575 0.56034 0.0
O164 O 0.05242 0.1218 0.61325 0.0
O165 O 0.08361 0.1451 0.56559 0.0
O166 O 0.95335 0.05878 0.59924 0.0
O167 O 0.99038 0.07078 0.64104 0.0
O168 O 0.03967 0.03887 0.60618 0.0
O169 O 0.09673 0.07531 0.58952 0.0
O170 O 0.05383 0.03835 0.536 0.0
O171 O 0.9957 0.03394 0.55249 0.0
C172 C 0.01603 0.12114 0.52919 0.0
O173 O 0.13938 0.11975 0.5379 0.0
O174 O 0.10585 0.09141 0.49718 0.0
C175 C 0.07424 0.1491 0.59623 0.0
C176 C 0.93091 0.02985 0.65042 0.0
C177 C 0.88314 0.9746 0.68931 0.0
C178 C 0.8982 1.00942 0.70197 0.0
C179 C 0.92178 0.03673 0.68269 0.0
C180 C 0.91583 0.99516 0.6374 0.0
C181 C 0.89185 0.96769 0.65673 0.0
C182 C 0.95625 0.05965 0.63144 0.0
C183 C 0.07551 0.04791 0.60664 0.0
H184 H 0.16118 0.1664 0.40312 0.0
H185 H 0.12273 0.12238 0.44193 0.0
H186 H 0.20259 0.16593 0.51911 0.0
H187 H 0.24117 0.20985 0.48009 0.0
H188 H 0.89152 1.01562 0.72681 0.0
H189 H 0.93302 0.06337 0.69306 0.0
H190 H 0.92267 0.98929 0.61251 0.0
H191 H 0.88068 0.94101 0.64648 0.0
Tb192 Tb 0.57233 0.10236 0.1258 0.0
Tb193 Tb 0.51712 0.07356 0.06267 0.0
C194 C 0.58538 0.05279 0.07182 0.0
C195 C 0.6412 0.16005 0.18567 0.0
C196 C 0.69674 0.21933 0.21278 0.0
C197 C 0.69644 0.21216 0.17866 0.0
C198 C 0.66879 0.18281 0.16515 0.0
C199 C 0.6401 0.16859 0.21924 0.0
C200 C 0.66752 0.19803 0.23268 0.0
C201 C 0.61551 0.1257 0.17359 0.0
O202 O 0.59805 0.13912 0.08592 0.0
O203 O 0.54927 0.12945 0.05054 0.0
O204 O 0.48702 0.09108 0.10016 0.0
O205 O 0.53664 0.13386 0.12316 0.0
O206 O 0.49713 0.03591 1.02478 0.0
O207 O 0.47977 0.08179 0.02891 0.0
O208 O 0.50172 0.02791 0.09739 0.0
O209 O 0.52763 0.05719 0.14526 0.0
O210 O 0.58324 0.05729 0.10381 0.0
O211 O 0.56952 0.0681 0.0512 0.0
C212 C 0.58217 0.14919 0.06102 0.0
O213 O 0.5806 0.12125 0.17487 0.0
O214 O 0.6245 0.11319 0.14625 0.0
C215 C 0.50136 0.12091 0.11674 0.0
C216 C 0.43784 0.02992 1.00419 0.0
C217 C 0.37005 0.98687 0.97721 0.0
C218 C 0.38397 0.02379 0.97097 0.0
C219 C 0.41758 0.04504 0.98424 0.0
C220 C 0.42306 0.99341 1.01208 0.0
C221 C 0.38942 0.97208 0.99871 0.0
C222 C 0.47561 0.05204 1.01331 0.0
C223 C 0.50654 0.0284 0.12984 0.0
H224 H 0.71852 0.22827 0.16274 0.0
H225 H 0.67001 0.17705 0.13902 0.0
H226 H 0.61902 0.15142 0.23546 0.0
H227 H 0.66722 0.20252 0.25914 0.0
H228 H 0.36946 0.03606 0.95489 0.0
H229 H 0.42844 0.07314 0.97784 0.0
H230 H 0.4381 0.98104 1.02746 0.0
H231 H 0.37961 0.94368 1.00378 0.0
Tb232 Tb 0.51986 0.5587 0.57526 0.0
Tb233 Tb 0.52842 0.63146 0.61668 0.0
C234 C 0.48662 0.6159 0.54828 0.0
C235 C 0.53889 0.48129 0.53735 0.0
C236 C 0.58531 0.44235 0.52192 0.0
C237 C 0.55212 0.43593 0.50483 0.0
C238 C 0.52916 0.45523 0.5125 0.0
C239 C 0.57178 0.48768 0.55478 0.0
C240 C 0.59476 0.46823 0.54722 0.0
C241 C 0.51493 0.50216 0.54398 0.0
O242 O 0.5775 0.59327 0.56777 0.0
O243 O 0.57085 0.64708 0.57917 0.0
O244 O 0.56894 0.61084 0.63816 0.0
O245 O 0.54057 0.55208 0.62434 0.0
O246 O 0.53279 0.68543 0.61759 0.0
O247 O 0.53293 0.65702 0.66284 0.0
O248 O 0.48543 0.58855 0.64075 0.0
O249 O 0.46532 0.55033 0.5971 0.0
O250 O 0.50188 0.59197 0.54126 0.0
O251 O 0.48714 0.62823 0.57867 0.0
C252 C 0.58966 0.62847 0.56635 0.0
O253 O 0.50415 0.50273 0.57451 0.0
O254 O 0.52516 0.53375 0.53061 0.0
C255 C 0.56335 0.57674 0.64319 0.0
C256 C 0.50105 0.69725 0.66376 0.0
C257 C 0.44256 0.71262 0.69401 0.0
C258 C 0.4761 0.7197 0.71065 0.0
C259 C 0.50513 0.71214 0.69559 0.0
C260 C 0.46778 0.6907 0.64684 0.0
C261 C 0.43888 0.69858 0.66176 0.0
C262 C 0.53032 0.68581 0.64978 0.0
C263 C 0.4604 0.56122 0.62701 0.0
H264 H 0.54378 0.41584 0.48557 0.0
H265 H 0.50386 0.44997 0.49882 0.0
H266 H 0.5798 0.5079 0.57396 0.0
H267 H 0.62027 0.474 0.56063 0.0
H268 H 0.47978 0.73084 0.73541 0.0
H269 H 0.53048 0.71714 0.70911 0.0
H270 H 0.46377 0.67871 0.62241 0.0
H271 H 0.41322 0.69255 0.64851 0.0
Tb272 Tb 0.03969 0.64068 0.05481 0.0
Tb273 Tb 0.02433 0.56505 0.09346 0.0
C274 C 0.06342 0.57895 1.02353 0.0
C275 C 0.01957 0.71785 1.02472 0.0
C276 C 0.96255 0.74567 1.01701 0.0
C277 C 0.98955 0.75076 0.99223 0.0
C278 C 0.01787 0.73695 0.99608 0.0
C279 C 0.99331 0.71367 0.04997 0.0
C280 C 0.96518 0.7277 0.04624 0.0
C281 C 0.04579 0.69873 1.02646 0.0
O282 O 0.98069 0.6128 0.05131 0.0
O283 O 0.97876 0.55521 0.05873 0.0
O284 O 0.99184 0.59159 0.12068 0.0
O285 O 0.02659 0.64874 0.10616 0.0
O286 O 1.0094 0.50925 0.09164 0.0
O287 O 0.0229 0.53741 0.13799 0.0
O288 O 0.07476 0.60281 0.11459 0.0
O289 O 0.0936 0.6436 0.07226 0.0
O290 O 0.05069 0.60505 1.01842 0.0
O291 O 0.06271 0.56528 0.05327 0.0
C292 C 0.96419 0.57824 0.04758 0.0
O293 O 0.05928 0.69681 0.05558 0.0
O294 O 0.03521 0.66796 1.01149 0.0
C295 C 1.00305 0.62621 0.12622 0.0
C296 C 0.04516 0.49075 0.12874 0.0
C297 C 0.09926 0.45973 0.13926 0.0
C298 C 0.06342 0.44345 0.15195 0.0
C299 C 0.03653 0.4589 0.1467 0.0
C300 C 0.08083 0.50712 0.11618 0.0
C301 C 0.10758 0.49172 0.12126 0.0
C302 C 0.01741 0.50726 0.12269 0.0
C303 C 0.09987 0.63012 0.10035 0.0
H304 H 0.98832 0.76479 0.96956 0.0
H305 H 0.03768 0.74012 0.97624 0.0
H306 H 0.99375 0.69845 0.07206 0.0
H307 H 0.94454 0.72302 0.06555 0.0
H308 H 0.05628 0.41899 0.16618 0.0
H309 H 1.0091 0.44604 0.15662 0.0
H310 H 0.08795 0.53178 0.10223 0.0
H311 H 0.13464 0.50463 0.11063 0.0
H312 H 0.31206 0.23933 0.26714 0.0
H313 H 0.36238 0.3481 0.30231 0.0
H314 H 0.32829 0.33125 0.35536 0.0
H315 H 0.22379 0.22413 0.302 0.0
H316 H 0.21579 0.17811 0.31231 0.0
H317 H 0.24517 0.19855 0.27786 0.0
H318 H 0.29815 0.18166 0.30343 0.0
H319 H 0.26883 0.16086 0.33782 0.0
H320 H 0.31261 0.19526 0.34521 0.0
H321 H 0.288 0.30192 0.40452 0.0
H322 H 0.24459 0.26282 0.44529 0.0
H323 H 0.22117 0.17395 0.37674 0.0
C324 C 0.31642 0.25949 0.28621 0.0
C325 C 0.34011 0.29492 0.28084 0.0
C326 C 0.34432 0.32078 0.30603 0.0
C327 C 0.32516 0.31144 0.33618 0.0
C328 C 0.30181 0.27623 0.34056 0.0
C329 C 0.29743 0.25071 0.31621 0.0
C330 C 0.2701 0.21497 0.32655 0.0
C331 C 0.23674 0.20327 0.3033 0.0
C332 C 0.28854 0.18652 0.32837 0.0
C333 C 0.25972 0.22428 0.36058 0.0
C334 C 0.27832 0.25967 0.36834 0.0
C335 C 0.27329 0.27417 0.39868 0.0
C336 C 0.2487 0.2518 0.42167 0.0
C337 C 0.22936 0.21548 0.41404 0.0
C338 C 0.23506 0.20175 0.38305 0.0
H339 H 0.26903 0.90023 0.81243 0.0
H340 H 0.20271 0.81066 0.87162 0.0
H341 H 0.22611 0.8452 0.92289 0.0
H342 H 0.34558 0.92003 0.85985 0.0
H343 H 0.3606 0.96786 0.85521 0.0
H344 H 0.33283 0.93947 0.82372 0.0
H345 H 0.28489 0.97108 0.82952 0.0
H346 H 0.31273 0.99988 0.86097 0.0
H347 H 0.26536 0.97388 0.86962 0.0
H348 H 0.26391 0.88579 0.96698 0.0
H349 H 0.3128 0.92886 1.00027 0.0
H350 H 0.35559 0.99091 0.9116 0.0
C351 C 0.25836 0.88867 0.83625 0.0
C352 C 0.23348 0.85342 0.83847 0.0
C353 C 0.22115 0.83809 0.86979 0.0
C354 C 0.23431 0.85748 0.89888 0.0
C355 C 0.25978 0.89202 0.89601 0.0
C356 C 0.2715 0.90756 0.86542 0.0
C357 C 0.30244 0.943 0.86889 0.0
C358 C 0.33741 0.94252 0.85087 0.0
C359 C 0.29063 0.97378 0.85652 0.0
C360 C 0.30725 0.94442 0.90608 0.0
C361 C 0.28207 0.91511 0.92139 0.0
C362 C 0.28332 0.90919 0.95533 0.0
C363 C 0.31131 0.93363 0.974 0.0
C364 C 0.33778 0.96343 0.95861 0.0
C365 C 0.33515 0.96902 0.9243 0.0
H366 H 0.57784 0.44522 0.78804 0.0
H367 H 0.66972 0.53162 0.8281 0.0
H368 H 0.66845 0.56887 0.77918 0.0
H369 H 0.60412 0.46212 0.69909 0.0
H370 H 0.55689 0.45017 0.68643 0.0
H371 H 0.56828 0.42958 0.72247 0.0
H372 H 0.52311 0.45008 0.75762 0.0
H373 H 0.51192 0.47108 0.72186 0.0
H374 H 0.52856 0.4968 0.75887 0.0
H375 H 0.6509 0.59935 0.72853 0.0
H376 H 0.62313 0.61768 0.67976 0.0
H377 H 0.54388 0.51029 0.67237 0.0
C378 C 0.5984 0.47166 0.78608 0.0
C379 C 0.62416 0.48535 0.81191 0.0
C380 C 0.65021 0.52026 0.8085 0.0
C381 C 0.64942 0.54171 0.78085 0.0
C382 C 0.6227 0.52778 0.75647 0.0
C383 C 0.59812 0.49321 0.75862 0.0
C384 C 0.57104 0.48481 0.73008 0.0
C385 C 0.57535 0.4549 0.70822 0.0
C386 C 0.53132 0.47513 0.74289 0.0
C387 C 0.58348 0.52026 0.71183 0.0
C388 C 0.6133 0.54482 0.72736 0.0
C389 C 0.62797 0.58003 0.71599 0.0
C390 C 0.6119 0.59028 0.68824 0.0
C391 C 0.58149 0.56546 0.67175 0.0
C392 C 0.56748 0.5299 0.68384 0.0
H393 H 0.8652 0.64442 0.26891 0.0
H394 H 0.94843 0.74486 0.29637 0.0
H395 H 0.99149 0.73343 0.25597 0.0
H396 H 0.9288 0.59413 0.25387 0.0
H397 H 0.90218 0.57009 0.21939 0.0
H398 H 0.8798 0.58432 0.25308 0.0
H399 H 0.85234 0.61736 0.2114 0.0
H400 H 0.87494 0.60363 0.17766 0.0
H401 H 0.88264 0.65037 0.1841 0.0
H402 H 0.02228 0.71474 0.20718 0.0
H403 H 0.04085 0.68806 0.15814 0.0
H404 H 0.93831 0.59835 0.16289 0.0
C405 C 0.89279 0.66368 0.26697 0.0
C406 C 0.90344 0.69561 0.286 0.0
C407 C 0.93976 0.72007 0.28255 0.0
C408 C 0.96429 0.71386 0.25942 0.0
C409 C 0.95235 0.6828 0.24018 0.0
C410 C 0.91763 0.65777 0.24418 0.0
C411 C 0.91092 0.6273 0.2195 0.0
C412 C 0.90509 0.59186 0.23754 0.0
C413 C 0.87828 0.62452 0.19683 0.0
C414 C 0.94694 0.63948 0.20028 0.0
C415 C 0.97041 0.67159 0.21265 0.0
C416 C 1.00431 0.68935 0.19773 0.0
C417 C 0.01452 0.674 0.16966 0.0
C418 C 0.99121 0.64092 0.15661 0.0
C419 C 0.95703 0.62334 0.17247 0.0
H420 H 0.44641 0.26875 0.21548 0.0
H421 H 0.35715 0.2509 0.14588 0.0
H422 H 0.37503 0.20394 0.11805 0.0
H423 H 0.51179 0.2584 0.15546 0.0
H424 H 0.53275 0.23688 0.1843 0.0
H425 H 0.5122 0.26829 0.19908 0.0
H426 H 0.47096 0.22032 0.23929 0.0
H427 H 0.49119 0.18869 0.22442 0.0
H428 H 0.44207 0.17781 0.22309 0.0
H429 H 0.401 0.15751 0.09953 0.0
H430 H 0.43769 0.1192 0.08716 0.0
H431 H 0.51266 0.17011 0.16653 0.0
C432 C 0.43084 0.25493 0.1943 0.0
C433 C 0.40049 0.26313 0.18263 0.0
C434 C 0.38065 0.24489 0.15485 0.0
C435 C 0.39046 0.21816 0.1391 0.0
C436 C 0.42043 0.21045 0.15127 0.0
C437 C 0.44071 0.22865 0.17789 0.0
C438 C 0.47255 0.21614 0.1852 0.0
C439 C 0.50951 0.24675 0.18073 0.0
C440 C 0.46896 0.19976 0.22007 0.0
C441 C 0.4669 0.18796 0.15863 0.0
C442 C 0.43638 0.18475 0.13964 0.0
C443 C 0.42511 0.15992 0.11407 0.0
C444 C 0.44598 0.13817 0.10736 0.0
C445 C 0.47801 0.14184 0.12583 0.0
C446 C 0.48841 0.16693 0.15189 0.0
H447 H 0.07619 0.86696 0.68854 0.0
H448 H 0.19537 0.91098 0.68577 0.0
H449 H 0.19248 0.96849 0.66605 0.0
H450 H 0.06177 0.90712 0.6146 0.0
H451 H 0.0214 0.9152 0.62938 0.0
H452 H 0.03297 0.87863 0.64592 0.0
H453 H 0.03253 0.90333 0.70533 0.0
H454 H 0.02105 0.94009 0.6889 0.0
H455 H 0.06104 0.94863 0.7146 0.0
H456 H 0.17655 0.01969 0.64265 0.0
H457 H 0.14876 0.06059 0.61738 0.0
H458 H 0.04003 0.98289 0.63549 0.0
C459 C 0.1017 0.88873 0.68391 0.0
C460 C 0.13601 0.88449 0.68884 0.0
C461 C 0.16876 0.91375 0.68269 0.0
C462 C 0.1674 0.94648 0.67136 0.0
C463 C 0.1331 0.94961 0.66648 0.0
C464 C 0.10084 0.92155 0.67266 0.0
C465 C 0.06755 0.93131 0.66406 0.0
C466 C 0.04459 0.9066 0.63687 0.0
C467 C 0.04417 0.93081 0.69507 0.0
C468 C 0.08613 0.96897 0.65137 0.0
C469 C 0.12394 0.97915 0.65318 0.0
C470 C 0.14696 1.01216 0.64144 0.0
C471 C 0.13091 0.0352 0.62709 0.0
C472 C 0.09221 0.02507 0.62459 0.0
C473 C 0.06968 0.99168 0.63737 0.0
H474 H 0.76738 0.44211 0.99488 0.0
H475 H 0.77361 0.5068 0.90689 0.0
H476 H 0.83203 0.55003 0.92736 0.0
H477 H 0.80818 0.51103 0.05287 0.0
H478 H 0.83356 0.48701 0.07357 0.0
H479 H 0.7908 0.46288 0.05346 0.0
H480 H 0.82325 0.42809 1.01827 0.0
H481 H 0.86604 0.45183 0.03848 0.0
H482 H 0.86315 0.45243 0.99394 0.0
H483 H 0.89046 0.58715 0.95896 0.0
H484 H 0.94558 0.61044 0.99437 0.0
H485 H 0.90456 0.51642 0.05662 0.0
C486 C 0.78097 0.4647 0.97906 0.0
C487 C 0.76518 0.47024 0.9487 0.0
C488 C 0.78421 0.50159 0.93031 0.0
C489 C 0.81774 0.52636 0.9417 0.0
C490 C 0.83248 0.51939 0.97135 0.0
C491 C 0.81484 0.48893 0.98942 0.0
C492 C 0.83716 0.4862 1.01943 0.0
C493 C 0.81616 0.48683 0.05174 0.0
C494 C 0.84805 0.45265 1.01739 0.0
C495 C 0.87036 0.51996 1.01558 0.0
C496 C 0.86683 0.53919 0.98809 0.0
C497 C 0.89351 0.57203 0.98028 0.0
C498 C 0.92467 0.58515 1.00067 0.0
C499 C 0.92951 0.56518 1.02817 0.0
C500 C 0.90182 0.53216 0.03563 0.0
H501 H 0.77524 0.67036 0.45555 0.0
H502 H 0.79197 0.78208 0.47501 0.0
H503 H 0.7364 0.76451 0.5093 0.0
H504 H 0.67567 0.64248 0.44915 0.0
H505 H 0.66688 0.59996 0.46916 0.0
H506 H 0.70914 0.62048 0.44654 0.0
H507 H 0.74629 0.61689 0.49864 0.0
H508 H 0.70413 0.59644 0.52144 0.0
H509 H 0.73836 0.63655 0.53689 0.0
H510 H 0.68046 0.737 0.54109 0.0
H511 H 0.62351 0.70034 0.56797 0.0
H512 H 0.63771 0.60432 0.52853 0.0
C513 C 0.76717 0.69105 0.46706 0.0
C514 C 0.78888 0.72773 0.4631 0.0
C515 C 0.77691 0.75387 0.47841 0.0
C516 C 0.74505 0.74418 0.49781 0.0
C517 C 0.72477 0.70812 0.50164 0.0
C518 C 0.73493 0.68179 0.48667 0.0
C519 C 0.70696 0.64502 0.49472 0.0
C520 C 0.68857 0.62585 0.463 0.0
C521 C 0.72502 0.62239 0.51408 0.0
C522 C 0.67971 0.65512 0.51642 0.0
C523 C 0.69101 0.69177 0.51995 0.0
C524 C 0.67118 0.70825 0.53848 0.0
C525 C 0.63862 0.68693 0.5537 0.0
C526 C 0.6256 0.64917 0.55044 0.0
C527 C 0.64676 0.63302 0.53163 0.0
H528 H 0.30361 0.46069 0.16296 0.0
H529 H 0.26061 0.34576 0.14911 0.0
H530 H 0.19782 0.34763 0.14493 0.0
H531 H 0.22795 0.4669 0.21213 0.0
H532 H 0.22911 0.50831 0.19353 0.0
H533 H 0.27061 0.49782 0.19626 0.0
H534 H 0.28013 0.50622 0.13276 0.0
H535 H 0.23874 0.51684 0.12992 0.0
H536 H 0.24387 0.48112 0.10527 0.0
H537 H 0.13998 0.36221 0.1407 0.0
H538 H 0.09135 0.38876 0.13572 0.0
H539 H 0.17215 0.49393 0.15333 0.0
C540 C 0.281 0.43596 0.15889 0.0
C541 C 0.28694 0.40306 0.15652 0.0
C542 C 0.2566 0.3712 0.15149 0.0
C543 C 0.22087 0.372 0.14896 0.0
C544 C 0.21595 0.40485 0.15156 0.0
C545 C 0.24516 0.43625 0.1564 0.0
C546 C 0.23245 0.46806 0.15791 0.0
C547 C 0.24051 0.48634 0.19199 0.0
C548 C 0.24983 0.49462 0.12978 0.0
C549 C 0.19162 0.44966 0.15278 0.0
C550 C 0.18261 0.41321 0.1493 0.0
C551 C 0.14663 0.39072 0.14361 0.0
C552 C 0.11917 0.40601 0.14105 0.0
C553 C 0.12791 0.4434 0.14414 0.0
C554 C 0.16461 0.4653 0.15048 0.0
H555 H 0.63033 0.31521 0.9318 0.0
H556 H 0.70553 0.37609 1.00755 0.0
H557 H 0.68948 0.32304 0.04247 0.0
H558 H 0.55991 0.26456 0.9912 0.0
H559 H 0.54638 0.22374 0.96755 0.0
H560 H 0.56458 0.26621 0.94671 0.0
H561 H 0.61454 0.24612 0.91897 0.0
H562 H 0.59659 0.20366 0.93984 0.0
H563 H 0.64425 0.23096 0.94447 0.0
H564 H 0.66807 0.26429 0.06933 0.0
H565 H 0.63721 0.20329 0.08951 0.0
H566 H 0.57051 0.17818 1.00053 0.0
C567 C 0.64339 0.31744 0.95572 0.0
C568 C 0.67048 0.35013 0.96596 0.0
C569 C 0.68617 0.35147 0.99792 0.0
C570 C 0.67691 0.32138 1.01837 0.0
C571 C 0.65107 0.28972 1.00729 0.0
C572 C 0.63394 0.28742 0.97705 0.0
C573 C 0.60589 0.24992 0.97231 0.0
C574 C 0.56687 0.25119 0.96926 0.0
C575 C 0.61593 0.23159 0.9421 0.0
C576 C 0.61033 0.23182 1.00452 0.0
C577 C 0.63693 0.25548 1.02399 0.0
C578 C 0.64702 0.24551 0.05442 0.0
C579 C 0.62934 0.21053 0.0656 0.0
C580 C 0.60132 0.18555 0.04674 0.0
C581 C 0.5917 0.19652 1.01565 0.0
H582 H 0.86783 0.84191 0.46534 0.0
H583 H 0.95754 0.81512 0.4217 0.0
H584 H 1.00162 0.87215 0.4428 0.0
H585 H 0.90483 0.93705 0.45048 0.0
H586 H 0.8882 0.94813 0.4893 0.0
H587 H 0.8639 0.90624 0.46934 0.0
H588 H 0.86942 0.87233 0.52255 0.0
H589 H 0.89384 0.91408 0.54265 0.0
H590 H 0.91415 0.87978 0.54 0.0
H591 H 0.03606 0.93127 0.47102 0.0
H592 H 0.05816 0.98783 0.50193 0.0
H593 H 0.94579 0.97552 0.52868 0.0
C594 C 0.89677 0.84776 0.46028 0.0
C595 C 0.90912 0.82353 0.44199 0.0
C596 C 0.94723 0.83307 0.43539 0.0
C597 C 0.97249 0.86537 0.44749 0.0
C598 C 0.95931 0.88805 0.46609 0.0
C599 C 0.92227 0.87969 0.4723 0.0
C600 C 0.91509 0.90825 0.49339 0.0
C601 C 0.89162 0.92596 0.47449 0.0
C602 C 0.89706 0.89267 0.52661 0.0
C603 C 0.95397 0.93409 0.49834 0.0
C604 C 0.97903 0.92193 0.48232 0.0
C605 C 0.01659 0.94099 0.4835 0.0
C606 C 0.02888 0.97324 0.50127 0.0
C607 C 1.00384 0.98651 0.51791 0.0
C608 C 0.96578 0.96638 0.51633 0.0
H609 H 0.27877 0.78922 0.71412 0.0
H610 H 0.26414 0.74722 0.81432 0.0
H611 H 0.31202 0.72058 0.80422 0.0
H612 H 0.29665 0.71265 0.67511 0.0
H613 H 0.33036 0.74106 0.64696 0.0
H614 H 0.29266 0.75406 0.66118 0.0
H615 H 0.33895 0.81408 0.68218 0.0
H616 H 0.37676 0.80114 0.66839 0.0
H617 H 0.37416 0.81369 0.711 0.0
H618 H 0.36497 0.70328 0.78508 0.0
H619 H 0.41732 0.69329 0.7569 0.0
H620 H 0.39692 0.7456 0.66881 0.0
C621 C 0.28492 0.77358 0.73362 0.0
C622 C 0.26773 0.77024 0.76501 0.0
C623 C 0.27718 0.7503 0.79017 0.0
C624 C 0.30421 0.73497 0.78463 0.0
C625 C 0.32134 0.7396 0.75372 0.0
C626 C 0.31182 0.75805 0.72849 0.0
C627 C 0.33568 0.76053 0.69809 0.0
C628 C 0.31244 0.74089 0.66859 0.0
C629 C 0.35769 0.79968 0.68942 0.0
C630 C 0.36055 0.74121 0.71042 0.0
C631 C 0.35175 0.72929 0.74255 0.0
C632 C 0.37189 0.71214 0.7598 0.0
C633 C 0.40172 0.70686 0.74371 0.0
C634 C 0.41108 0.71864 0.71072 0.0
C635 C 0.39006 0.7359 0.6939 0.0
H636 H 0.81553 0.87968 0.86154 0.0
H637 H 0.71162 0.81961 0.81563 0.0
H638 H 0.73631 0.84636 0.76124 0.0
H639 H 0.83221 0.95883 0.81632 0.0
H640 H 0.88118 0.96898 0.81363 0.0
H641 H 0.85573 0.94338 0.84799 0.0
H642 H 0.88094 0.89258 0.83435 0.0
H643 H 0.90648 0.91804 0.79986 0.0
H644 H 0.87469 0.87336 0.79341 0.0
H645 H 0.77278 0.88169 0.71206 0.0
H646 H 0.81598 0.92493 0.67375 0.0
H647 H 0.89517 0.96035 0.75316 0.0
C648 C 0.79813 0.8716 0.83996 0.0
C649 C 0.76183 0.84728 0.84264 0.0
C650 C 0.73954 0.83824 0.81402 0.0
C651 C 0.75341 0.8531 0.78307 0.0
C652 C 0.78952 0.8769 0.78132 0.0
C653 C 0.81145 0.88612 0.80912 0.0
C654 C 0.84859 0.91355 0.80131 0.0
C655 C 0.85476 0.94823 0.82097 0.0
C656 C 0.8795 0.89847 0.8076 0.0
C657 C 0.84411 0.91885 0.7648 0.0
C658 C 0.81007 0.89728 0.75349 0.0
C659 C 0.79957 0.89852 0.72063 0.0
C660 C 0.82427 0.92297 0.69904 0.0
C661 C 0.85875 0.94595 0.71062 0.0
C662 C 0.86887 0.94324 0.74373 0.0
H663 H 0.79085 0.31221 0.37355 0.0
H664 H 0.87405 0.26631 0.34623 0.0
H665 H 0.85531 0.26406 0.28905 0.0
H666 H 0.72516 0.24848 0.3344 0.0
H667 H 0.69863 0.27523 0.32115 0.0
H668 H 0.72724 0.28816 0.35701 0.0
H669 H 0.76092 0.35021 0.33078 0.0
H670 H 0.73227 0.33729 0.29458 0.0
H671 H 0.7816 0.3531 0.29028 0.0
H672 H 0.82002 0.2521 0.23812 0.0
H673 H 0.76753 0.22464 0.20141 0.0
H674 H 0.7004 0.26817 0.26189 0.0
C675 C 0.8057 0.30194 0.35589 0.0
C676 C 0.8343 0.28954 0.36571 0.0
C677 C 0.85295 0.27729 0.34055 0.0
C678 C 0.84232 0.27566 0.30738 0.0
C679 C 0.81238 0.28554 0.29926 0.0
C680 C 0.79406 0.29818 0.32289 0.0
C681 C 0.75762 0.29861 0.30977 0.0
C682 C 0.7253 0.27627 0.33188 0.0
C683 C 0.75816 0.3371 0.30613 0.0
C684 C 0.75708 0.28143 0.27616 0.0
C685 C 0.78984 0.27598 0.26991 0.0
C686 C 0.79458 0.25699 0.24229 0.0
C687 C 0.76456 0.24154 0.22146 0.0
C688 C 0.72997 0.24444 0.22878 0.0
C689 C 0.72672 0.26597 0.25561 0.0
H690 H 0.41894 0.626 0.36249 0.0
H691 H 0.41958 0.733 0.38336 0.0
H692 H 0.43303 0.72512 0.44221 0.0
H693 H 0.38199 0.58426 0.44089 0.0
H694 H 0.41169 0.55809 0.44179 0.0
H695 H 0.39756 0.57067 0.40268 0.0
H696 H 0.46572 0.59981 0.38495 0.0
H697 H 0.48005 0.58732 0.42395 0.0
H698 H 0.49679 0.63341 0.41104 0.0
H699 H 0.45028 0.70564 0.49968 0.0
H700 H 0.4716 0.67865 0.54705 0.0
H701 H 0.46524 0.58712 0.48614 0.0
C702 C 0.42202 0.64814 0.3791 0.0
C703 C 0.41839 0.68045 0.3675 0.0
C704 C 0.4217 0.70783 0.3911 0.0
C705 C 0.42965 0.70364 0.42473 0.0
C706 C 0.43441 0.67193 0.43476 0.0
C707 C 0.43073 0.64472 0.4124 0.0
C708 C 0.43955 0.61417 0.42839 0.0
C709 C 0.40568 0.57976 0.42844 0.0
C710 C 0.47248 0.60835 0.41105 0.0
C711 C 0.44925 0.62841 0.46329 0.0
C712 C 0.44557 0.66151 0.46677 0.0
C713 C 0.45315 0.67974 0.49699 0.0
C714 C 0.46517 0.66408 0.52392 0.0
C715 C 0.47023 0.63064 0.52062 0.0
C716 C 0.46178 0.61267 0.48974 0.0
H717 H 0.14498 0.44581 0.92781 0.0
H718 H 0.1201 0.4878 0.83532 0.0
H719 H 0.10232 0.53256 0.86688 0.0
H720 H 0.0676 0.45002 0.97139 0.0
H721 H 0.09072 0.46164 1.0106 0.0
H722 H 0.10613 0.43626 0.98075 0.0
H723 H 0.17162 0.48358 0.98224 0.0
H724 H 0.1564 0.50904 1.01224 0.0
H725 H 0.17789 0.52976 0.9742 0.0
H726 H 0.08239 0.57 0.90936 0.0
H727 H 0.06239 0.59634 0.95786 0.0
H728 H 0.09639 0.5271 1.02289 0.0
C729 C 0.13591 0.46438 0.91392 0.0
C730 C 0.13391 0.46279 0.8787 0.0
C731 C 0.12251 0.48842 0.86203 0.0
C732 C 0.11203 0.51387 0.87987 0.0
C733 C 0.113 0.51357 0.91451 0.0
C734 C 0.12481 0.48949 0.93132 0.0
C735 C 0.12118 0.49309 0.96861 0.0
C736 C 0.09484 0.45818 0.98371 0.0
C737 C 0.15903 0.50455 0.9853 0.0
C738 C 0.10489 0.52263 0.9703 0.0
C739 C 0.1008 0.53437 0.93882 0.0
C740 C 0.08572 0.56105 0.93404 0.0
C741 C 0.0744 0.57591 0.96192 0.0
C742 C 0.07775 0.56402 0.99451 0.0
C743 C 0.09347 0.53704 0.99851 0.0
H744 H 0.59603 0.89975 0.95037 0.0
H745 H 0.6692 0.87681 1.02052 0.0
H746 H 0.66809 0.92775 0.05519 0.0
H747 H 0.63529 0.99619 0.95658 0.0
H748 H 0.59149 1.00218 0.9528 0.0
H749 H 0.59883 0.96449 0.93339 0.0
H750 H 0.54227 0.92137 0.96461 0.0
H751 H 0.53467 0.95892 0.98394 0.0
H752 H 0.54003 0.92382 1.00913 0.0
H753 H 0.65537 0.97891 0.08382 0.0
H754 H 0.63373 0.02721 0.10314 0.0
H755 H 0.57136 0.0178 1.01255 0.0
C756 C 0.61172 0.9054 0.97309 0.0
C757 C 0.63251 0.88429 0.98297 0.0
C758 C 0.65319 0.8928 1.01255 0.0
C759 C 0.65268 0.9216 0.03235 0.0
C760 C 0.63175 0.94183 1.02194 0.0
C761 C 0.61186 0.93422 0.99287 0.0
C762 C 0.59138 0.95981 0.98724 0.0
C763 C 0.60508 0.98198 0.95563 0.0
C764 C 0.54962 0.93978 0.98618 0.0
C765 C 0.60233 0.9827 1.01796 0.0
C766 C 0.62557 0.97194 0.03774 0.0
C767 C 0.63758 0.98787 0.06832 0.0
C768 C 0.62516 1.01524 0.07909 0.0
C769 C 0.60129 0.02654 0.05916 0.0
C770 C 0.59023 1.01029 1.02804 0.0
H771 H 0.90871 0.25643 0.50226 0.0
H772 H 0.90365 0.22844 0.39773 0.0
H773 H 0.9445 0.19453 0.40756 0.0
H774 H 1.00324 0.25955 0.51798 0.0
H775 H 0.99133 0.23848 0.55793 0.0
H776 H 0.96665 0.26584 0.54206 0.0
H777 H 0.90519 0.21311 0.54933 0.0
H778 H 0.92965 0.18562 0.56511 0.0
H779 H 0.89971 0.17083 0.52998 0.0
H780 H 0.98208 0.15925 0.42898 0.0
H781 H 1.01092 0.12346 0.46146 0.0
H782 H 0.98677 0.16987 0.55215 0.0
C783 C 0.91632 0.24354 0.48127 0.0
C784 C 0.90315 0.24604 0.44906 0.0
C785 C 0.91415 0.22841 0.42251 0.0
C786 C 0.93721 0.20863 0.42783 0.0
C787 C 0.94892 0.20615 0.4599 0.0
C788 C 0.93877 0.22301 0.48621 0.0
C789 C 0.95215 0.21321 0.51871 0.0
C790 C 0.98 0.24624 0.53513 0.0
C791 C 0.91975 0.19458 0.54215 0.0
C792 C 0.97054 0.18758 0.50654 0.0
C793 C 0.96903 0.18437 0.47249 0.0
C794 C 0.98361 0.16166 0.45568 0.0
C795 C 0.9999 0.14145 0.47427 0.0
C796 C 1.00079 0.14367 0.50925 0.0
C797 C 0.9862 0.16734 0.52542 0.0
H798 H 0.28683 0.67298 0.20618 0.0
H799 H 0.2791 0.77776 0.22287 0.0
H800 H 0.22195 0.76032 0.19101 0.0
H801 H 0.25204 0.65924 0.12469 0.0
H802 H 0.22452 0.61274 0.12952 0.0
H803 H 0.26471 0.63221 0.15471 0.0
H804 H 0.22547 0.61203 0.20787 0.0
H805 H 0.18524 0.59205 0.18279 0.0
H806 H 0.18544 0.62454 0.21394 0.0
H807 H 0.17044 0.73535 0.152 0.0
H808 H 0.11963 0.69964 0.11619 0.0
H809 H 0.15352 0.60766 0.12889 0.0
C810 C 0.27269 0.69196 0.20375 0.0
C811 C 0.28837 0.72724 0.21646 0.0
C812 C 0.26864 0.75106 0.21261 0.0
C813 C 0.23591 0.74136 0.19461 0.0
C814 C 0.22218 0.70721 0.18118 0.0
C815 C 0.23914 0.68238 0.18627 0.0
C816 C 0.21749 0.64719 0.16935 0.0
C817 C 0.24111 0.63728 0.143 0.0
C818 C 0.20252 0.61717 0.19502 0.0
C819 C 0.18645 0.65665 0.15343 0.0
C820 C 0.19024 0.69167 0.16034 0.0
C821 C 0.16676 0.7077 0.14689 0.0
C822 C 0.13817 0.68732 0.12633 0.0
C823 C 0.13265 0.65101 0.11979 0.0
C824 C 0.15706 0.63537 0.13366 0.0
H825 H 0.24854 0.45218 0.67177 0.0
H826 H 0.28182 0.46094 0.77503 0.0
H827 H 0.34509 0.49614 0.75814 0.0
H828 H 0.32849 0.43768 0.64052 0.0
H829 H 0.33088 0.46247 0.60278 0.0
H830 H 0.28718 0.44094 0.62283 0.0
H831 H 0.27594 0.50119 0.62532 0.0
H832 H 0.31947 0.52288 0.60503 0.0
H833 H 0.30976 0.53929 0.64434 0.0
H834 H 0.40525 0.52816 0.73033 0.0
H835 H 0.45833 0.55599 0.69379 0.0
H836 H 0.3883 0.52318 0.60753 0.0
C837 C 0.26899 0.46137 0.69101 0.0
C838 C 0.25961 0.45353 0.72498 0.0
C839 C 0.28758 0.46691 0.74902 0.0
C840 C 0.32387 0.4867 0.7396 0.0
C841 C 0.33215 0.49284 0.70597 0.0
C842 C 0.30554 0.48065 0.68201 0.0
C843 C 0.32212 0.48976 0.64746 0.0
C844 C 0.31685 0.45568 0.62721 0.0
C845 C 0.30585 0.51477 0.62948 0.0
C846 C 0.36236 0.50883 0.65574 0.0
C847 C 0.36729 0.51045 0.68972 0.0
C848 C 0.40166 0.52707 0.70373 0.0
C849 C 0.4317 0.54284 0.68265 0.0
C850 C 0.42764 0.54181 0.6477 0.0
C851 C 0.39242 0.52413 0.63407 0.0
H852 H 0.79932 0.7678 0.91192 0.0
H853 H 0.77521 0.82596 0.99459 0.0
H854 H 0.82275 0.81327 1.02783 0.0
H855 H 0.82111 0.70001 0.95997 0.0
H856 H 0.85763 0.70028 0.93204 0.0
H857 H 0.81868 0.71023 0.91675 0.0
H858 H 0.86262 0.77038 0.89329 0.0
H859 H 0.90165 0.76085 0.90882 0.0
H860 H 0.89457 0.80158 0.92066 0.0
H861 H 0.87677 0.79798 0.05026 0.0
H862 H 0.93136 0.78058 0.06007 0.0
H863 H 0.92067 0.7351 0.96137 0.0
C864 C 0.80375 0.77764 0.93713 0.0
C865 C 0.7836 0.79793 0.95065 0.0
C866 C 0.79 0.80997 0.98386 0.0
C867 C 0.81709 0.80307 1.00284 0.0
C868 C 0.83735 0.78405 0.98823 0.0
C869 C 0.83075 0.77132 0.95617 0.0
C870 C 0.85758 0.7535 0.94533 0.0
C871 C 0.83755 0.71364 0.93811 0.0
C872 C 0.88045 0.77274 0.91525 0.0
C873 C 0.88088 0.75876 0.97605 0.0
C874 C 0.86866 0.77607 1.00071 0.0
C875 C 0.8864 0.78422 0.03118 0.0
C876 C 0.91733 0.77428 0.03653 0.0
C877 C 0.93033 0.75678 1.01137 0.0
C878 C 0.91169 0.74893 0.98087 0.0
H879 H 0.39341 0.82123 0.17198 0.0
H880 H 0.42945 0.84543 0.27363 0.0
H881 H 0.46361 0.90793 0.25752 0.0
H882 H 0.47827 0.87881 0.13287 0.0
H883 H 0.45489 0.89205 0.09963 0.0
H884 H 0.43433 0.84892 0.11882 0.0
H885 H 0.37566 0.86369 0.13159 0.0
H886 H 0.39614 0.90696 0.11264 0.0
H887 H 0.37938 0.90348 0.1547 0.0
H888 H 0.49093 0.96838 0.23128 0.0
H889 H 0.514 0.02186 0.1965 0.0
H890 H 0.46145 0.9597 0.11056 0.0
C891 C 0.40852 0.83963 0.19091 0.0
C892 C 0.40854 0.82819 0.22428 0.0
C893 C 0.4292 0.85321 0.24797 0.0
C894 C 0.44848 0.88891 0.23905 0.0
C895 C 0.44721 0.89935 0.2062 0.0
C896 C 0.42811 0.8754 0.18237 0.0
C897 C 0.43133 0.89368 0.14878 0.0
C898 C 0.45087 0.87739 0.12353 0.0
C899 C 0.39336 0.89184 0.13619 0.0
C900 C 0.45495 0.9318 0.15751 0.0
C901 C 0.46358 0.93431 0.19084 0.0
C902 C 0.48452 0.96662 0.20513 0.0
C903 C 0.49745 0.99704 0.18496 0.0
C904 C 0.48977 0.99543 0.15047 0.0
C905 C 0.46792 0.96212 0.13671 0.0
H906 H 0.13629 0.30216 0.73673 0.0
H907 H 0.16137 0.37885 0.65613 0.0
H908 H 0.13797 0.3297 0.61602 0.0
H909 H 0.16235 0.23632 0.69543 0.0
H910 H 0.12586 0.19843 0.71199 0.0
H911 H 0.14214 0.23951 0.73512 0.0
H912 H 0.07614 0.24145 0.73769 0.0
H913 H 0.05958 0.20019 0.71477 0.0
H914 H 0.05098 0.23909 0.69982 0.0
H915 H 0.11693 0.273 0.58415 0.0
H916 H 0.09563 0.21172 0.56221 0.0
H917 H 0.0812 0.16981 0.66252 0.0
C918 C 0.13609 0.3086 0.71071 0.0
C919 C 0.15092 0.34453 0.69964 0.0
C920 C 0.15063 0.35166 0.66526 0.0
C921 C 0.13725 0.32389 0.64224 0.0
C922 C 0.1238 0.28887 0.65381 0.0
C923 C 0.12265 0.28101 0.68721 0.0
C924 C 0.10763 0.24075 0.69265 0.0
C925 C 0.13621 0.22801 0.70981 0.0
C926 C 0.07143 0.22972 0.7124 0.0
C927 C 0.1012 0.22736 0.65708 0.0
C928 C 0.1108 0.25573 0.6352 0.0
C929 C 0.10898 0.25056 0.60104 0.0
C930 C 0.09702 0.21554 0.58881 0.0
C931 C 0.08669 0.18579 0.61055 0.0
C932 C 0.08858 0.19192 0.64524 0.0
H933 H 0.71401 0.32611 0.55349 0.0
H934 H 0.71947 0.31566 0.44664 0.0
H935 H 0.68254 0.3545 0.43967 0.0
H936 H 0.62067 0.32243 0.55664 0.0
H937 H 0.62802 0.35455 0.5897 0.0
H938 H 0.65662 0.32746 0.5864 0.0
H939 H 0.71468 0.38453 0.58519 0.0
H940 H 0.68624 0.41182 0.58843 0.0
H941 H 0.71846 0.41851 0.5546 0.0
H942 H 0.64313 0.39242 0.44407 0.0
H943 H 0.60396 0.4273 0.45964 0.0
H944 H 0.62261 0.41228 0.56362 0.0
C945 C 0.70745 0.33197 0.52862 0.0
C946 C 0.71998 0.31799 0.50061 0.0
C947 C 0.7109 0.32656 0.46849 0.0
C948 C 0.68971 0.34844 0.46426 0.0
C949 C 0.67773 0.36161 0.49235 0.0
C950 C 0.68627 0.35378 0.52392 0.0
C951 C 0.66915 0.37072 0.54993 0.0
C952 C 0.642 0.34208 0.57196 0.0
C953 C 0.69891 0.39802 0.57076 0.0
C954 C 0.64935 0.38898 0.52803 0.0
C955 C 0.65478 0.38344 0.49491 0.0
C956 C 0.63871 0.39699 0.46993 0.0
C957 C 0.61632 0.41658 0.47903 0.0
C958 C 0.61009 0.42243 0.51284 0.0
C959 C 0.62715 0.40861 0.53758 0.0
loop_
_geom_bond_atom_site_label_1
_geom_bond_atom_site_label_2
_geom_bond_distance
_geom_bond_site_symmetry_2
_ccdc_geom_bond_type
H0 C1 0.949 . S
C1 H0 0.949 . S
C1 C2 1.395 . S
C1 C3 1.391 . S
C2 C1 1.395 . S
C2 C5 1.390 . S
C3 C1 1.391 . S
C3 C7 1.387 . S
C3 C8 1.491 . S
H4 C5 0.950 . S
C5 C2 1.390 . S
C5 H4 0.950 . S
C5 C6 1.378 . S
C6 C5 1.378 . S
C6 C7 1.409 . S
C7 C3 1.387 . S
C7 C6 1.409 . S
C7 H9 0.951 . S
C8 C3 1.491 . S
C8 C10 1.382 . S
C8 C12 1.404 . S
H9 C7 0.951 . S
C10 C8 1.382 . S
C10 C11 1.390 . S
C10 H15 0.949 . S
C11 C10 1.390 . S
C11 C16 1.399 . S
C12 C8 1.404 . S
C12 H13 0.950 . S
C12 C14 1.375 . S
H13 C12 0.950 . S
C14 C12 1.375 . S
C14 C16 1.382 . S
C14 H18 0.950 . S
H15 C10 0.949 . S
C16 C11 1.399 . S
C16 C14 1.382 . S
C16 H17 0.952 . S
H17 C16 0.952 . S
H18 C14 0.950 . S
H19 C20 0.949 . S
C20 H19 0.949 . S
C20 C21 1.395 . S
C20 C22 1.391 . S
C21 C20 1.395 . S
C21 C24 1.390 . S
C22 C20 1.391 . S
C22 C26 1.387 . S
C22 C27 1.491 . S
H23 C24 0.950 . S
C24 C21 1.390 . S
C24 H23 0.950 . S
C24 C25 1.378 . S
C25 C24 1.378 . S
C25 C26 1.409 . S
C26 C22 1.387 . S
C26 C25 1.409 . S
C26 H28 0.951 . S
C27 C22 1.491 . S
C27 C29 1.382 . S
C27 C31 1.404 . S
H28 C26 0.951 . S
C29 C27 1.382 . S
C29 C30 1.390 . S
C29 H34 0.949 . S
C30 C29 1.390 . S
C30 C35 1.399 . S
C31 C27 1.404 . S
C31 H32 0.950 . S
C31 C33 1.375 . S
H32 C31 0.950 . S
C33 C31 1.375 . S
C33 C35 1.382 . S
C33 H37 0.950 . S
H34 C29 0.949 . S
C35 C30 1.399 . S
C35 C33 1.382 . S
C35 H36 0.952 . S
H36 C35 0.952 . S
H37 C33 0.950 . S
H38 C39 0.949 . S
C39 H38 0.949 . S
C39 C40 1.395 . S
C39 C41 1.391 . S
C40 C39 1.395 . S
C40 C43 1.390 . S
C41 C39 1.391 . S
C41 C45 1.387 . S
C41 C46 1.491 . S
H42 C43 0.950 . S
C43 C40 1.390 . S
C43 H42 0.950 . S
C43 C44 1.378 . S
C44 C43 1.378 . S
C44 C45 1.409 . S
C45 C41 1.387 . S
C45 C44 1.409 . S
C45 H47 0.951 . S
C46 C41 1.491 . S
C46 C48 1.382 . S
C46 C50 1.404 . S
H47 C45 0.951 . S
C48 C46 1.382 . S
C48 C49 1.390 . S
C48 H53 0.949 . S
C49 C48 1.390 . S
C49 C54 1.399 . S
C50 C46 1.404 . S
C50 H51 0.950 . S
C50 C52 1.375 . S
H51 C50 0.950 . S
C52 C50 1.375 . S
C52 C54 1.382 . S
C52 H56 0.950 . S
H53 C48 0.949 . S
C54 C49 1.399 . S
C54 C52 1.382 . S
C54 H55 0.952 . S
H55 C54 0.952 . S
H56 C52 0.950 . S
H57 C58 0.949 . S
C58 H57 0.949 . S
C58 C59 1.395 . S
C58 C60 1.391 . S
C59 C58 1.395 . S
C59 C62 1.390 . S
C60 C58 1.391 . S
C60 C64 1.387 . S
C60 C65 1.491 . S
H61 C62 0.950 . S
C62 C59 1.390 . S
C62 H61 0.950 . S
C62 C63 1.378 . S
C63 C62 1.378 . S
C63 C64 1.409 . S
C64 C60 1.387 . S
C64 C63 1.409 . S
C64 H66 0.951 . S
C65 C60 1.491 . S
C65 C67 1.382 . S
C65 C69 1.404 . S
H66 C64 0.951 . S
C67 C65 1.382 . S
C67 C68 1.390 . S
C67 H72 0.949 . S
C68 C67 1.390 . S
C68 C73 1.399 . S
C69 C65 1.404 . S
C69 H70 0.950 . S
C69 C71 1.375 . S
H70 C69 0.950 . S
C71 C69 1.375 . S
C71 C73 1.382 . S
C71 H75 0.950 . S
H72 C67 0.949 . S
C73 C68 1.399 . S
C73 C71 1.382 . S
C73 H74 0.952 . S
H74 C73 0.952 . S
H75 C71 0.950 . S
H76 C77 0.949 . S
C77 H76 0.949 . S
C77 C78 1.395 . S
C77 C79 1.391 . S
C78 C77 1.395 . S
C78 C81 1.390 . S
C79 C77 1.391 . S
C79 C83 1.387 . S
C79 C84 1.491 . S
H80 C81 0.950 . S
C81 C78 1.390 . S
C81 H80 0.950 . S
C81 C82 1.378 . S
C82 C81 1.378 . S
C82 C83 1.409 . S
C83 C79 1.387 . S
C83 C82 1.409 . S
C83 H85 0.951 . S
C84 C79 1.491 . S
C84 C86 1.382 . S
C84 C88 1.404 . S
H85 C83 0.951 . S
C86 C84 1.382 . S
C86 C87 1.390 . S
C86 H91 0.949 . S
C87 C86 1.390 . S
C87 C92 1.399 . S
C88 C84 1.404 . S
C88 H89 0.950 . S
C88 C90 1.375 . S
H89 C88 0.950 . S
C90 C88 1.375 . S
C90 C92 1.382 . S
C90 H94 0.950 . S
H91 C86 0.949 . S
C92 C87 1.399 . S
C92 C90 1.382 . S
C92 H93 0.952 . S
H93 C92 0.952 . S
H94 C90 0.950 . S
H95 C96 0.949 . S
C96 H95 0.949 . S
C96 C97 1.395 . S
C96 C98 1.391 . S
C97 C96 1.395 . S
C97 C100 1.390 . S
C98 C96 1.391 . S
C98 C102 1.387 . S
C98 C103 1.491 . S
H99 C100 0.950 . S
C100 C97 1.390 . S
C100 H99 0.950 . S
C100 C101 1.378 . S
C101 C100 1.378 . S
C101 C102 1.409 . S
C102 C98 1.387 . S
C102 C101 1.409 . S
C102 H104 0.951 . S
C103 C98 1.491 . S
C103 C105 1.382 . S
C103 C107 1.404 . S
H104 C102 0.951 . S
C105 C103 1.382 . S
C105 C106 1.390 . S
C105 H110 0.949 . S
C106 C105 1.390 . S
C106 C111 1.399 . S
C107 C103 1.404 . S
C107 H108 0.950 . S
C107 C109 1.375 . S
H108 C107 0.950 . S
C109 C107 1.375 . S
C109 C111 1.382 . S
C109 H113 0.950 . S
H110 C105 0.949 . S
C111 C106 1.399 . S
C111 C109 1.382 . S
C111 H112 0.952 . S
H112 C111 0.952 . S
H113 C109 0.950 . S
H114 C115 0.949 . S
C115 H114 0.949 . S
C115 C116 1.395 . S
C115 C117 1.391 . S
C116 C115 1.395 . S
C116 C119 1.390 . S
C117 C115 1.391 . S
C117 C121 1.387 . S
C117 C122 1.491 . S
H118 C119 0.950 . S
C119 C116 1.390 . S
C119 H118 0.950 . S
C119 C120 1.378 . S
C120 C119 1.378 . S
C120 C121 1.409 . S
C121 C117 1.387 . S
C121 C120 1.409 . S
C121 H123 0.951 . S
C122 C117 1.491 . S
C122 C124 1.382 . S
C122 C126 1.404 . S
H123 C121 0.951 . S
C124 C122 1.382 . S
C124 C125 1.390 . S
C124 H129 0.949 . S
C125 C124 1.390 . S
C125 C130 1.399 . S
C126 C122 1.404 . S
C126 H127 0.950 . S
C126 C128 1.375 . S
H127 C126 0.950 . S
C128 C126 1.375 . S
C128 C130 1.382 . S
C128 H132 0.950 . S
H129 C124 0.949 . S
C130 C125 1.399 . S
C130 C128 1.382 . S
C130 H131 0.952 . S
H131 C130 0.952 . S
H132 C128 0.950 . S
H133 C134 0.949 . S
C134 H133 0.949 . S
C134 C135 1.395 . S
C134 C136 1.391 . S
C135 C134 1.395 . S
C135 C138 1.390 . S
C136 C134 1.391 . S
C136 C140 1.387 . S
C136 C141 1.491 . S
H137 C138 0.950 . S
C138 C135 1.390 . S
C138 H137 0.950 . S
C138 C139 1.378 . S
C139 C138 1.378 . S
C139 C140 1.409 . S
C140 C136 1.387 . S
C140 C139 1.409 . S
C140 H142 0.951 . S
C141 C136 1.491 . S
C141 C143 1.382 . S
C141 C145 1.404 . S
H142 C140 0.951 . S
C143 C141 1.382 . S
C143 C144 1.390 . S
C143 H148 0.949 . S
C144 C143 1.390 . S
C144 C149 1.399 . S
C145 C141 1.404 . S
C145 H146 0.950 . S
C145 C147 1.375 . S
H146 C145 0.950 . S
C147 C145 1.375 . S
C147 C149 1.382 . S
C147 H151 0.950 . S
H148 C143 0.949 . S
C149 C144 1.399 . S
C149 C147 1.382 . S
C149 H150 0.952 . S
H150 C149 0.952 . S
H151 C147 0.950 . S
Tb152 C161 2.764 . S
Tb152 O162 2.325 . S
Tb152 O165 2.303 . S
Tb152 O169 2.322 . S
Tb152 O170 2.349 1_545 S
Tb152 O173 2.415 . S
Tb152 O174 2.399 . S
Tb153 O163 2.322 . S
Tb153 O164 2.349 1_655 S
Tb153 O166 2.415 1_545 S
Tb153 O167 2.399 . S
Tb153 O168 2.325 1_655 S
Tb153 O171 2.303 . S
Tb153 C182 2.764 1_545 S
C154 O170 1.261 1_655 S
C154 O171 1.257 1_565 S
C155 C158 1.358 . S
C155 C159 1.332 . S
C155 C161 1.504 . S
C156 C157 1.373 . S
C156 C160 1.308 . S
C157 C156 1.373 . S
C157 C158 1.429 . S
C157 H184 0.932 . S
C158 C155 1.358 . S
C158 C157 1.429 . S
C158 H185 0.930 . S
C159 C155 1.332 . S
C159 C160 1.394 . S
C159 H186 0.932 . S
C160 C156 1.308 . S
C160 C159 1.394 . S
C160 H187 0.929 . S
C161 Tb152 2.764 . S
C161 C155 1.504 . S
C161 O173 1.239 . S
C161 O174 1.263 . S
O162 Tb152 2.325 . S
O162 C172 1.236 1_455 S
O163 Tb153 2.322 . S
O163 C172 1.257 . S
O164 Tb153 2.349 1_455 S
O164 C175 1.261 . S
O165 Tb152 2.303 . S
O165 C175 1.257 . S
O166 Tb153 2.415 1_565 S
O166 C182 1.239 . S
O167 Tb153 2.399 . S
O167 C182 1.263 1_545 S
O168 Tb153 2.325 1_455 S
O168 C183 1.252 . S
O169 Tb152 2.322 . S
O169 C183 1.261 . S
O170 Tb152 2.349 1_565 S
O170 C154 1.261 1_455 S
O171 Tb153 2.303 . S
O171 C154 1.257 1_545 S
C172 O162 1.236 1_655 S
C172 O163 1.257 . S
O173 Tb152 2.415 . S
O173 C161 1.239 . S
O174 Tb152 2.399 . S
O174 C161 1.263 . S
C175 O164 1.261 . S
C175 O165 1.257 . S
C176 C179 1.358 . S
C176 C180 1.332 . S
C176 C182 1.504 . S
C177 C178 1.373 . S
C177 C181 1.308 . S
C178 C177 1.373 . S
C178 C179 1.429 . S
C178 H188 0.932 . S
C179 C176 1.358 . S
C179 C178 1.429 . S
C179 H189 0.930 1_565 S
C180 C176 1.332 . S
C180 C181 1.394 . S
C180 H190 0.932 . S
C181 C177 1.308 . S
C181 C180 1.394 . S
C181 H191 0.929 . S
C182 Tb153 2.764 1_565 S
C182 O166 1.239 . S
C182 O167 1.263 1_565 S
C182 C176 1.504 . S
C183 O168 1.252 . S
C183 O169 1.261 . S
H184 C157 0.932 . S
H185 C158 0.930 . S
H186 C159 0.932 . S
H187 C160 0.929 . S
H188 C178 0.932 . S
H189 C179 0.930 1_545 S
H190 C180 0.932 . S
H191 C181 0.929 . S
Tb192 C201 2.764 . S
Tb192 O202 2.325 . S
Tb192 O205 2.303 . S
Tb192 O209 2.322 1_545 S
Tb192 O210 2.349 . S
Tb192 O213 2.415 . S
Tb192 O214 2.399 . S
Tb193 O203 2.322 . S
Tb193 O204 2.349 . S
Tb193 O206 2.415 1_545 S
Tb193 O207 2.399 1_545 S
Tb193 O208 2.325 1_545 S
Tb193 O211 2.303 . S
Tb193 C222 2.764 1_545 S
C194 O210 1.261 . S
C194 O211 1.257 . S
C195 C198 1.358 . S
C195 C199 1.332 . S
C195 C201 1.504 . S
C196 C197 1.373 . S
C196 C200 1.308 . S
C197 C196 1.373 . S
C197 C198 1.429 . S
C197 H224 0.932 . S
C198 C195 1.358 . S
C198 C197 1.429 . S
C198 H225 0.930 . S
C199 C195 1.332 . S
C199 C200 1.394 . S
C199 H226 0.932 . S
C200 C196 1.308 . S
C200 C199 1.394 . S
C200 H227 0.929 . S
C201 Tb192 2.764 . S
C201 C195 1.504 . S
C201 O213 1.239 . S
C201 O214 1.263 . S
O202 Tb192 2.325 . S
O202 C212 1.236 . S
O203 Tb193 2.322 . S
O203 C212 1.257 . S
O204 Tb193 2.349 . S
O204 C215 1.261 . S
O205 Tb192 2.303 . S
O205 C215 1.257 . S
O206 Tb193 2.415 1_565 S
O206 C222 1.239 . S
O207 Tb193 2.399 1_565 S
O207 C222 1.263 . S
O208 Tb193 2.325 1_565 S
O208 C223 1.236 . S
O209 Tb192 2.322 1_565 S
O209 C223 1.257 . S
O210 Tb192 2.349 . S
O210 C194 1.261 . S
O211 Tb193 2.303 . S
O211 C194 1.257 . S
C212 O202 1.236 . S
C212 O203 1.257 . S
O213 Tb192 2.415 . S
O213 C201 1.239 . S
O214 Tb192 2.399 . S
O214 C201 1.263 . S
C215 O204 1.261 . S
C215 O205 1.257 . S
C216 C219 1.358 . S
C216 C220 1.332 . S
C216 C222 1.504 1_556 S
C217 C218 1.373 . S
C217 C221 1.308 . S
C218 C217 1.373 . S
C218 C219 1.429 . S
C218 H228 0.932 . S
C219 C216 1.358 . S
C219 C218 1.429 . S
C219 H229 0.930 . S
C220 C216 1.332 . S
C220 C221 1.394 . S
C220 H230 0.932 . S
C221 C217 1.308 . S
C221 C220 1.394 . S
C221 H231 0.929 . S
C222 Tb193 2.764 1_565 S
C222 O206 1.239 . S
C222 O207 1.263 . S
C222 C216 1.504 1_554 S
C223 O208 1.236 . S
C223 O209 1.257 . S
H224 C197 0.932 . S
H225 C198 0.930 . S
H226 C199 0.932 . S
H227 C200 0.929 . S
H228 C218 0.932 . S
H229 C219 0.930 . S
H230 C220 0.932 . S
H231 C221 0.929 . S
Tb232 C241 2.764 . S
Tb232 O242 2.325 . S
Tb232 O245 2.303 . S
Tb232 O249 2.322 . S
Tb232 O250 2.349 . S
Tb232 O253 2.415 . S
Tb232 O254 2.399 . S
Tb233 O243 2.322 . S
Tb233 O244 2.349 . S
Tb233 O246 2.415 . S
Tb233 O247 2.399 . S
Tb233 O248 2.325 . S
Tb233 O251 2.303 . S
Tb233 C262 2.764 . S
C234 O250 1.261 . S
C234 O251 1.257 . S
C235 C238 1.358 . S
C235 C239 1.332 . S
C235 C241 1.504 . S
C236 C237 1.373 . S
C236 C240 1.308 . S
C237 C236 1.373 . S
C237 C238 1.429 . S
C237 H264 0.932 . S
C238 C235 1.358 . S
C238 C237 1.429 . S
C238 H265 0.930 . S
C239 C235 1.332 . S
C239 C240 1.394 . S
C239 H266 0.932 . S
C240 C236 1.308 . S
C240 C239 1.394 . S
C240 H267 0.929 . S
C241 Tb232 2.764 . S
C241 C235 1.504 . S
C241 O253 1.239 . S
C241 O254 1.263 . S
O242 Tb232 2.325 . S
O242 C252 1.236 . S
O243 Tb233 2.322 . S
O243 C252 1.257 . S
O244 Tb233 2.349 . S
O244 C255 1.261 . S
O245 Tb232 2.303 . S
O245 C255 1.257 . S
O246 Tb233 2.415 . S
O246 C262 1.239 . S
O247 Tb233 2.399 . S
O247 C262 1.263 . S
O248 Tb233 2.325 . S
O248 C263 1.236 . S
O249 Tb232 2.322 . S
O249 C263 1.257 . S
O250 Tb232 2.349 . S
O250 C234 1.261 . S
O251 Tb233 2.303 . S
O251 C234 1.257 . S
C252 O242 1.236 . S
C252 O243 1.257 . S
O253 Tb232 2.415 . S
O253 C241 1.239 . S
O254 Tb232 2.399 . S
O254 C241 1.263 . S
C255 O244 1.261 . S
C255 O245 1.257 . S
C256 C259 1.358 . S
C256 C260 1.332 . S
C256 C262 1.504 . S
C257 C258 1.373 . S
C257 C261 1.308 . S
C258 C257 1.373 . S
C258 C259 1.429 . S
C258 H268 0.932 . S
C259 C256 1.358 . S
C259 C258 1.429 . S
C259 H269 0.930 . S
C260 C256 1.332 . S
C260 C261 1.394 . S
C260 H270 0.932 . S
C261 C257 1.308 . S
C261 C260 1.394 . S
C261 H271 0.929 . S
C262 Tb233 2.764 . S
C262 O246 1.239 . S
C262 O247 1.263 . S
C262 C256 1.504 . S
C263 O248 1.236 . S
C263 O249 1.257 . S
H264 C237 0.932 . S
H265 C238 0.930 . S
H266 C239 0.932 . S
H267 C240 0.929 . S
H268 C258 0.932 . S
H269 C259 0.930 . S
H270 C260 0.932 . S
H271 C261 0.929 . S
Tb272 C281 2.764 . S
Tb272 O282 2.325 1_455 S
Tb272 O285 2.303 1_556 S
Tb272 O289 2.322 1_556 S
Tb272 O290 2.349 . S
Tb272 O293 2.415 1_455 S
Tb272 O294 2.399 . S
Tb273 O283 2.322 1_455 S
Tb273 O284 2.349 . S
Tb273 O286 2.415 . S
Tb273 O287 2.399 . S
Tb273 O288 2.325 . S
Tb273 O291 2.303 1_554 S
Tb273 C302 2.764 . S
C274 O290 1.261 . S
C274 O291 1.257 . S
C275 C278 1.358 . S
C275 C279 1.332 . S
C275 C281 1.504 1_655 S
C276 C277 1.373 . S
C276 C280 1.308 . S
C277 C276 1.373 . S
C277 C278 1.429 . S
C277 H304 0.932 . S
C278 C275 1.358 . S
C278 C277 1.429 . S
C278 H305 0.930 1_655 S
C279 C275 1.332 . S
C279 C280 1.394 . S
C279 H306 0.932 . S
C280 C276 1.308 . S
C280 C279 1.394 . S
C280 H307 0.929 . S
C281 Tb272 2.764 . S
C281 C275 1.504 1_455 S
C281 O293 1.243 1_455 S
C281 O294 1.263 . S
O282 Tb272 2.325 1_655 S
O282 C292 1.236 . S
O283 Tb273 2.322 1_655 S
O283 C292 1.257 1_554 S
O284 Tb273 2.349 . S
O284 C295 1.261 . S
O285 Tb272 2.303 1_554 S
O285 C295 1.257 . S
O286 Tb273 2.415 . S
O286 C302 1.239 . S
O287 Tb273 2.399 . S
O287 C302 1.263 . S
O288 Tb273 2.325 . S
O288 C303 1.236 . S
O289 Tb272 2.322 1_554 S
O289 C303 1.257 . S
O290 Tb272 2.349 . S
O290 C274 1.261 . S
O291 Tb273 2.303 1_556 S
O291 C274 1.257 . S
C292 O282 1.236 . S
C292 O283 1.257 1_556 S
O293 Tb272 2.415 1_655 S
O293 C281 1.243 1_655 S
O294 Tb272 2.399 . S
O294 C281 1.263 . S
C295 O284 1.261 . S
C295 O285 1.257 . S
C296 C299 1.358 . S
C296 C300 1.332 . S
C296 C302 1.504 . S
C297 C298 1.373 . S
C297 C301 1.308 . S
C298 C297 1.373 . S
C298 C299 1.429 . S
C298 H308 0.932 . S
C299 C296 1.358 . S
C299 C298 1.429 . S
C299 H309 0.930 . S
C300 C296 1.332 . S
C300 C301 1.394 . S
C300 H310 0.932 . S
C301 C297 1.308 . S
C301 C300 1.394 . S
C301 H311 0.929 . S
C302 Tb273 2.764 . S
C302 O286 1.239 . S
C302 O287 1.263 . S
C302 C296 1.504 . S
C303 O288 1.236 . S
C303 O289 1.257 . S
H304 C277 0.932 . S
H305 C278 0.930 1_455 S
H306 C279 0.932 . S
H307 C280 0.929 . S
H308 C298 0.932 . S
H309 C299 0.930 . S
H310 C300 0.932 . S
H311 C301 0.929 . S
H312 C324 0.930 . S
H313 C326 0.930 . S
H314 C327 0.930 . S
H315 C331 0.959 . S
H316 C331 0.959 . S
H317 C331 0.961 . S
H318 C332 0.960 . S
H319 C332 0.961 . S
H320 C332 0.959 . S
H321 C335 0.929 . S
H322 C336 0.931 . S
H323 C338 0.930 . S
C324 H312 0.930 . S
C324 C325 1.399 . S
C324 C329 1.399 . S
C325 C324 1.399 . S
C325 C326 1.376 . S
C326 H313 0.930 . S
C326 C325 1.376 . S
C326 C327 1.388 . S
C327 H314 0.930 . S
C327 C326 1.388 . S
C327 C328 1.390 . S
C328 C327 1.390 . S
C328 C329 1.394 . S
C328 C334 1.465 . S
C329 C324 1.399 . S
C329 C328 1.394 . S
C329 C330 1.516 . S
C330 C329 1.516 . S
C330 C331 1.502 . S
C330 C332 1.561 . S
C330 C333 1.526 . S
C331 H315 0.959 . S
C331 H316 0.959 . S
C331 H317 0.961 . S
C331 C330 1.502 . S
C332 H318 0.960 . S
C332 H319 0.961 . S
C332 H320 0.959 . S
C332 C330 1.561 . S
C333 C330 1.526 . S
C333 C334 1.396 . S
C333 C338 1.390 . S
C334 C328 1.465 . S
C334 C333 1.396 . S
C334 C335 1.399 . S
C335 H321 0.929 . S
C335 C334 1.399 . S
C335 C336 1.385 . S
C336 H322 0.931 . S
C336 C335 1.385 . S
C336 C337 1.389 . S
C337 C336 1.389 . S
C337 C338 1.387 . S
C338 H323 0.930 . S
C338 C333 1.390 . S
C338 C337 1.387 . S
H339 C351 0.930 . S
H340 C353 0.930 . S
H341 C354 0.930 . S
H342 C358 0.959 . S
H343 C358 0.959 . S
H344 C358 0.961 . S
H345 C359 0.960 . S
H346 C359 0.961 . S
H347 C359 0.959 . S
H348 C362 0.929 . S
H349 C363 0.931 . S
H350 C365 0.930 . S
C351 H339 0.930 . S
C351 C352 1.399 . S
C351 C356 1.399 . S
C352 C351 1.399 . S
C352 C353 1.376 . S
C353 H340 0.930 . S
C353 C352 1.376 . S
C353 C354 1.388 . S
C354 H341 0.930 . S
C354 C353 1.388 . S
C354 C355 1.390 . S
C355 C354 1.390 . S
C355 C356 1.394 . S
C355 C361 1.465 . S
C356 C351 1.399 . S
C356 C355 1.394 . S
C356 C357 1.516 . S
C357 C356 1.516 . S
C357 C358 1.502 . S
C357 C359 1.561 . S
C357 C360 1.526 . S
C358 H342 0.959 . S
C358 H343 0.959 . S
C358 H344 0.961 . S
C358 C357 1.502 . S
C359 H345 0.960 . S
C359 H346 0.961 . S
C359 H347 0.959 . S
C359 C357 1.561 . S
C360 C357 1.526 . S
C360 C361 1.396 . S
C360 C365 1.390 . S
C361 C355 1.465 . S
C361 C360 1.396 . S
C361 C362 1.399 . S
C362 H348 0.929 . S
C362 C361 1.399 . S
C362 C363 1.385 . S
C363 H349 0.931 . S
C363 C362 1.385 . S
C363 C364 1.389 . S
C364 C363 1.389 . S
C364 C365 1.387 . S
C365 H350 0.930 . S
C365 C360 1.390 . S
C365 C364 1.387 . S
H366 C378 0.930 . S
H367 C380 0.930 . S
H368 C381 0.930 . S
H369 C385 0.959 . S
H370 C385 0.959 . S
H371 C385 0.961 . S
H372 C386 0.960 . S
H373 C386 0.961 . S
H374 C386 0.959 . S
H375 C389 0.929 . S
H376 C390 0.931 . S
H377 C392 0.930 . S
C378 H366 0.930 . S
C378 C379 1.399 . S
C378 C383 1.399 . S
C379 C378 1.399 . S
C379 C380 1.376 . S
C380 H367 0.930 . S
C380 C379 1.376 . S
C380 C381 1.388 . S
C381 H368 0.930 . S
C381 C380 1.388 . S
C381 C382 1.390 . S
C382 C381 1.390 . S
C382 C383 1.394 . S
C382 C388 1.465 . S
C383 C378 1.399 . S
C383 C382 1.394 . S
C383 C384 1.516 . S
C384 C383 1.516 . S
C384 C385 1.502 . S
C384 C386 1.561 . S
C384 C387 1.526 . S
C385 H369 0.959 . S
C385 H370 0.959 . S
C385 H371 0.961 . S
C385 C384 1.502 . S
C386 H372 0.960 . S
C386 H373 0.961 . S
C386 H374 0.959 . S
C386 C384 1.561 . S
C387 C384 1.526 . S
C387 C388 1.396 . S
C387 C392 1.390 . S
C388 C382 1.465 . S
C388 C387 1.396 . S
C388 C389 1.399 . S
C389 H375 0.929 . S
C389 C388 1.399 . S
C389 C390 1.385 . S
C390 H376 0.931 . S
C390 C389 1.385 . S
C390 C391 1.389 . S
C391 C390 1.389 . S
C391 C392 1.387 . S
C392 H377 0.930 . S
C392 C387 1.390 . S
C392 C391 1.387 . S
H393 C405 0.930 . S
H394 C407 0.930 . S
H395 C408 0.930 . S
H396 C412 0.959 . S
H397 C412 0.959 . S
H398 C412 0.961 . S
H399 C413 0.960 . S
H400 C413 0.961 . S
H401 C413 0.959 . S
H402 C416 0.929 . S
H403 C417 0.933 . S
H404 C419 0.930 . S
C405 H393 0.930 . S
C405 C406 1.399 . S
C405 C410 1.399 . S
C406 C405 1.399 . S
C406 C407 1.376 . S
C407 H394 0.930 . S
C407 C406 1.376 . S
C407 C408 1.388 . S
C408 H395 0.930 . S
C408 C407 1.388 . S
C408 C409 1.390 . S
C409 C408 1.390 . S
C409 C410 1.394 . S
C409 C415 1.465 . S
C410 C405 1.399 . S
C410 C409 1.394 . S
C410 C411 1.516 . S
C411 C410 1.516 . S
C411 C412 1.502 . S
C411 C413 1.561 . S
C411 C414 1.526 . S
C412 H396 0.959 . S
C412 H397 0.959 . S
C412 H398 0.961 . S
C412 C411 1.502 . S
C413 H399 0.960 . S
C413 H400 0.961 . S
C413 H401 0.959 . S
C413 C411 1.561 . S
C414 C411 1.526 . S
C414 C415 1.396 . S
C414 C419 1.390 . S
C415 C409 1.465 . S
C415 C414 1.396 . S
C415 C416 1.399 . S
C416 H402 0.929 . S
C416 C415 1.399 . S
C416 C417 1.385 . S
C417 H403 0.933 . S
C417 C416 1.385 . S
C417 C418 1.389 . S
C418 C417 1.389 . S
C418 C419 1.387 . S
C419 H404 0.930 . S
C419 C414 1.390 . S
C419 C418 1.387 . S
H420 C432 0.930 . S
H421 C434 0.930 . S
H422 C435 0.930 . S
H423 C439 0.959 . S
H424 C439 0.959 . S
H425 C439 0.961 . S
H426 C440 0.960 . S
H427 C440 0.961 . S
H428 C440 0.959 . S
H429 C443 0.929 . S
H430 C444 0.931 . S
H431 C446 0.930 . S
C432 H420 0.930 . S
C432 C433 1.399 . S
C432 C437 1.399 . S
C433 C432 1.399 . S
C433 C434 1.376 . S
C434 H421 0.930 . S
C434 C433 1.376 . S
C434 C435 1.388 . S
C435 H422 0.930 . S
C435 C434 1.388 . S
C435 C436 1.390 . S
C436 C435 1.390 . S
C436 C437 1.394 . S
C436 C442 1.465 . S
C437 C432 1.399 . S
C437 C436 1.394 . S
C437 C438 1.516 . S
C438 C437 1.516 . S
C438 C439 1.502 . S
C438 C440 1.561 . S
C438 C441 1.526 . S
C439 H423 0.959 . S
C439 H424 0.959 . S
C439 H425 0.961 . S
C439 C438 1.502 . S
C440 H426 0.960 . S
C440 H427 0.961 . S
C440 H428 0.959 . S
C440 C438 1.561 . S
C441 C438 1.526 . S
C441 C442 1.396 . S
C441 C446 1.390 . S
C442 C436 1.465 . S
C442 C441 1.396 . S
C442 C443 1.399 . S
C443 H429 0.929 . S
C443 C442 1.399 . S
C443 C444 1.385 . S
C444 H430 0.931 . S
C444 C443 1.385 . S
C444 C445 1.389 . S
C445 C444 1.389 . S
C445 C446 1.387 . S
C446 H431 0.930 . S
C446 C441 1.390 . S
C446 C445 1.387 . S
H447 C459 0.930 . S
H448 C461 0.930 . S
H449 C462 0.930 . S
H450 C466 0.959 . S
H451 C466 0.959 . S
H452 C466 0.961 . S
H453 C467 0.960 . S
H454 C467 0.961 . S
H455 C467 0.959 . S
H456 C470 0.929 . S
H457 C471 0.931 . S
H458 C473 0.930 . S
C459 H447 0.930 . S
C459 C460 1.399 . S
C459 C464 1.399 . S
C460 C459 1.399 . S
C460 C461 1.376 . S
C461 H448 0.930 . S
C461 C460 1.376 . S
C461 C462 1.388 . S
C462 H449 0.930 . S
C462 C461 1.388 . S
C462 C463 1.390 . S
C463 C462 1.390 . S
C463 C464 1.394 . S
C463 C469 1.465 . S
C464 C459 1.399 . S
C464 C463 1.394 . S
C464 C465 1.516 . S
C465 C464 1.516 . S
C465 C466 1.502 . S
C465 C467 1.561 . S
C465 C468 1.526 . S
C466 H450 0.959 . S
C466 H451 0.959 . S
C466 H452 0.961 . S
C466 C465 1.502 . S
C467 H453 0.960 . S
C467 H454 0.961 . S
C467 H455 0.959 . S
C467 C465 1.561 . S
C468 C465 1.526 . S
C468 C469 1.396 . S
C468 C473 1.390 . S
C469 C463 1.465 . S
C469 C468 1.396 . S
C469 C470 1.399 . S
C470 H456 0.929 . S
C470 C469 1.399 . S
C470 C471 1.385 . S
C471 H457 0.931 . S
C471 C470 1.385 . S
C471 C472 1.389 . S
C472 C471 1.389 . S
C472 C473 1.387 . S
C473 H458 0.930 . S
C473 C468 1.390 . S
C473 C472 1.387 . S
H474 C486 0.930 . S
H475 C488 0.930 . S
H476 C489 0.930 . S
H477 C493 0.959 . S
H478 C493 0.959 . S
H479 C493 0.961 . S
H480 C494 0.955 1_554 S
H481 C494 0.961 1_554 S
H482 C494 0.959 . S
H483 C497 0.929 . S
H484 C498 0.931 . S
H485 C500 0.930 1_554 S
C486 H474 0.930 . S
C486 C487 1.399 . S
C486 C491 1.399 . S
C487 C486 1.399 . S
C487 C488 1.376 . S
C488 H475 0.930 . S
C488 C487 1.376 . S
C488 C489 1.388 . S
C489 H476 0.930 . S
C489 C488 1.388 . S
C489 C490 1.390 . S
C490 C489 1.390 . S
C490 C491 1.394 . S
C490 C496 1.465 . S
C491 C486 1.399 . S
C491 C490 1.394 . S
C491 C492 1.516 . S
C492 C491 1.516 . S
C492 C493 1.502 1_556 S
C492 C494 1.561 . S
C492 C495 1.526 . S
C493 H477 0.959 . S
C493 H478 0.959 . S
C493 H479 0.961 . S
C493 C492 1.502 1_554 S
C494 H480 0.955 1_556 S
C494 H481 0.961 1_556 S
C494 H482 0.959 . S
C494 C492 1.561 . S
C495 C492 1.526 . S
C495 C496 1.396 . S
C495 C500 1.390 . S
C496 C490 1.465 . S
C496 C495 1.396 . S
C496 C497 1.399 . S
C497 H483 0.929 . S
C497 C496 1.399 . S
C497 C498 1.385 . S
C498 H484 0.931 . S
C498 C497 1.385 . S
C498 C499 1.389 . S
C499 C498 1.389 . S
C499 C500 1.387 . S
C500 H485 0.930 1_556 S
C500 C495 1.390 . S
C500 C499 1.387 . S
H501 C513 0.930 . S
H502 C515 0.930 . S
H503 C516 0.930 . S
H504 C520 0.959 . S
H505 C520 0.959 . S
H506 C520 0.961 . S
H507 C521 0.960 . S
H508 C521 0.961 . S
H509 C521 0.959 . S
H510 C524 0.929 . S
H511 C525 0.931 . S
H512 C527 0.930 . S
C513 H501 0.930 . S
C513 C514 1.399 . S
C513 C518 1.399 . S
C514 C513 1.399 . S
C514 C515 1.376 . S
C515 H502 0.930 . S
C515 C514 1.376 . S
C515 C516 1.388 . S
C516 H503 0.930 . S
C516 C515 1.388 . S
C516 C517 1.390 . S
C517 C516 1.390 . S
C517 C518 1.394 . S
C517 C523 1.465 . S
C518 C513 1.399 . S
C518 C517 1.394 . S
C518 C519 1.516 . S
C519 C518 1.516 . S
C519 C520 1.502 . S
C519 C521 1.561 . S
C519 C522 1.526 . S
C520 H504 0.959 . S
C520 H505 0.959 . S
C520 H506 0.961 . S
C520 C519 1.502 . S
C521 H507 0.960 . S
C521 H508 0.961 . S
C521 H509 0.959 . S
C521 C519 1.561 . S
C522 C519 1.526 . S
C522 C523 1.396 . S
C522 C527 1.390 . S
C523 C517 1.465 . S
C523 C522 1.396 . S
C523 C524 1.399 . S
C524 H510 0.929 . S
C524 C523 1.399 . S
C524 C525 1.385 . S
C525 H511 0.931 . S
C525 C524 1.385 . S
C525 C526 1.389 . S
C526 C525 1.389 . S
C526 C527 1.387 . S
C527 H512 0.930 . S
C527 C522 1.390 . S
C527 C526 1.387 . S
H528 C540 0.930 . S
H529 C542 0.930 . S
H530 C543 0.930 . S
H531 C547 0.959 . S
H532 C547 0.959 . S
H533 C547 0.961 . S
H534 C548 0.960 . S
H535 C548 0.961 . S
H536 C548 0.959 . S
H537 C551 0.929 . S
H538 C552 0.931 . S
H539 C554 0.930 . S
C540 H528 0.930 . S
C540 C541 1.399 . S
C540 C545 1.399 . S
C541 C540 1.399 . S
C541 C542 1.376 . S
C542 H529 0.930 . S
C542 C541 1.376 . S
C542 C543 1.388 . S
C543 H530 0.930 . S
C543 C542 1.388 . S
C543 C544 1.390 . S
C544 C543 1.390 . S
C544 C545 1.394 . S
C544 C550 1.465 . S
C545 C540 1.399 . S
C545 C544 1.394 . S
C545 C546 1.516 . S
C546 C545 1.516 . S
C546 C547 1.502 . S
C546 C548 1.561 . S
C546 C549 1.526 . S
C547 H531 0.959 . S
C547 H532 0.959 . S
C547 H533 0.961 . S
C547 C546 1.502 . S
C548 H534 0.960 . S
C548 H535 0.961 . S
C548 H536 0.959 . S
C548 C546 1.561 . S
C549 C546 1.526 . S
C549 C550 1.396 . S
C549 C554 1.390 . S
C550 C544 1.465 . S
C550 C549 1.396 . S
C550 C551 1.399 . S
C551 H537 0.929 . S
C551 C550 1.399 . S
C551 C552 1.385 . S
C552 H538 0.931 . S
C552 C551 1.385 . S
C552 C553 1.389 . S
C553 C552 1.389 . S
C553 C554 1.387 . S
C554 H539 0.930 . S
C554 C549 1.390 . S
C554 C553 1.387 . S
H555 C567 0.930 . S
H556 C569 0.930 . S
H557 C570 0.930 . S
H558 C574 0.959 . S
H559 C574 0.959 . S
H560 C574 0.961 . S
H561 C575 0.960 . S
H562 C575 0.961 . S
H563 C575 0.959 . S
H564 C578 0.929 . S
H565 C579 0.931 . S
H566 C581 0.930 1_556 S
C567 H555 0.930 . S
C567 C568 1.399 . S
C567 C572 1.399 . S
C568 C567 1.399 . S
C568 C569 1.376 1_556 S
C569 H556 0.930 . S
C569 C568 1.376 1_554 S
C569 C570 1.388 . S
C570 H557 0.930 . S
C570 C569 1.388 . S
C570 C571 1.390 . S
C571 C570 1.390 . S
C571 C572 1.394 1_554 S
C571 C577 1.465 . S
C572 C567 1.399 . S
C572 C571 1.394 1_556 S
C572 C573 1.516 . S
C573 C572 1.516 . S
C573 C574 1.502 . S
C573 C575 1.561 . S
C573 C576 1.526 . S
C574 H558 0.959 . S
C574 H559 0.959 . S
C574 H560 0.961 . S
C574 C573 1.502 . S
C575 H561 0.960 . S
C575 H562 0.961 . S
C575 H563 0.959 . S
C575 C573 1.561 . S
C576 C573 1.526 . S
C576 C577 1.396 1_556 S
C576 C581 1.390 1_556 S
C577 C571 1.465 . S
C577 C576 1.396 1_554 S
C577 C578 1.399 . S
C578 H564 0.929 . S
C578 C577 1.399 . S
C578 C579 1.385 . S
C579 H565 0.931 . S
C579 C578 1.385 . S
C579 C580 1.389 . S
C580 C579 1.389 . S
C580 C581 1.387 . S
C581 H566 0.930 1_554 S
C581 C576 1.390 1_554 S
C581 C580 1.387 . S
H582 C594 0.930 . S
H583 C596 0.930 . S
H584 C597 0.930 . S
H585 C601 0.959 . S
H586 C601 0.959 . S
H587 C601 0.961 . S
H588 C602 0.960 . S
H589 C602 0.961 . S
H590 C602 0.959 . S
H591 C605 0.929 . S
H592 C606 0.931 . S
H593 C608 0.930 . S
C594 H582 0.930 . S
C594 C595 1.399 . S
C594 C599 1.399 . S
C595 C594 1.399 . S
C595 C596 1.376 . S
C596 H583 0.930 . S
C596 C595 1.376 . S
C596 C597 1.388 . S
C597 H584 0.930 . S
C597 C596 1.388 . S
C597 C598 1.390 . S
C598 C597 1.390 . S
C598 C599 1.394 . S
C598 C604 1.465 . S
C599 C594 1.399 . S
C599 C598 1.394 . S
C599 C600 1.516 . S
C600 C599 1.516 . S
C600 C601 1.502 . S
C600 C602 1.561 . S
C600 C603 1.526 . S
C601 H585 0.959 . S
C601 H586 0.959 . S
C601 H587 0.961 . S
C601 C600 1.502 . S
C602 H588 0.960 . S
C602 H589 0.961 . S
C602 H590 0.959 . S
C602 C600 1.561 . S
C603 C600 1.526 . S
C603 C604 1.396 . S
C603 C608 1.390 . S
C604 C598 1.465 . S
C604 C603 1.396 . S
C604 C605 1.399 . S
C605 H591 0.929 . S
C605 C604 1.399 . S
C605 C606 1.385 . S
C606 H592 0.931 . S
C606 C605 1.385 . S
C606 C607 1.389 . S
C607 C606 1.389 . S
C607 C608 1.387 . S
C608 H593 0.930 . S
C608 C603 1.390 . S
C608 C607 1.387 . S
H609 C621 0.930 . S
H610 C623 0.930 . S
H611 C624 0.930 . S
H612 C628 0.959 . S
H613 C628 0.959 . S
H614 C628 0.961 . S
H615 C629 0.960 . S
H616 C629 0.961 . S
H617 C629 0.959 . S
H618 C632 0.929 . S
H619 C633 0.931 . S
H620 C635 0.930 . S
C621 H609 0.930 . S
C621 C622 1.399 . S
C621 C626 1.399 . S
C622 C621 1.399 . S
C622 C623 1.376 . S
C623 H610 0.930 . S
C623 C622 1.376 . S
C623 C624 1.388 . S
C624 H611 0.930 . S
C624 C623 1.388 . S
C624 C625 1.390 . S
C625 C624 1.390 . S
C625 C626 1.394 . S
C625 C631 1.465 . S
C626 C621 1.399 . S
C626 C625 1.394 . S
C626 C627 1.516 . S
C627 C626 1.516 . S
C627 C628 1.502 . S
C627 C629 1.561 . S
C627 C630 1.526 . S
C628 H612 0.959 . S
C628 H613 0.959 . S
C628 H614 0.961 . S
C628 C627 1.502 . S
C629 H615 0.960 . S
C629 H616 0.961 . S
C629 H617 0.959 . S
C629 C627 1.561 . S
C630 C627 1.526 . S
C630 C631 1.396 . S
C630 C635 1.390 . S
C631 C625 1.465 . S
C631 C630 1.396 . S
C631 C632 1.399 . S
C632 H618 0.929 . S
C632 C631 1.399 . S
C632 C633 1.385 . S
C633 H619 0.931 . S
C633 C632 1.385 . S
C633 C634 1.389 . S
C634 C633 1.389 . S
C634 C635 1.387 . S
C635 H620 0.930 . S
C635 C630 1.390 . S
C635 C634 1.387 . S
H636 C648 0.930 . S
H637 C650 0.930 . S
H638 C651 0.930 . S
H639 C655 0.959 . S
H640 C655 0.959 . S
H641 C655 0.961 . S
H642 C656 0.960 . S
H643 C656 0.961 . S
H644 C656 0.959 . S
H645 C659 0.929 . S
H646 C660 0.931 . S
H647 C662 0.930 . S
C648 H636 0.930 . S
C648 C649 1.399 . S
C648 C653 1.399 . S
C649 C648 1.399 . S
C649 C650 1.376 . S
C650 H637 0.930 . S
C650 C649 1.376 . S
C650 C651 1.388 . S
C651 H638 0.930 . S
C651 C650 1.388 . S
C651 C652 1.390 . S
C652 C651 1.390 . S
C652 C653 1.394 . S
C652 C658 1.465 . S
C653 C648 1.399 . S
C653 C652 1.394 . S
C653 C654 1.516 . S
C654 C653 1.516 . S
C654 C655 1.502 . S
C654 C656 1.561 . S
C654 C657 1.526 . S
C655 H639 0.959 . S
C655 H640 0.959 . S
C655 H641 0.961 . S
C655 C654 1.502 . S
C656 H642 0.960 . S
C656 H643 0.961 . S
C656 H644 0.959 . S
C656 C654 1.561 . S
C657 C654 1.526 . S
C657 C658 1.396 . S
C657 C662 1.390 . S
C658 C652 1.465 . S
C658 C657 1.396 . S
C658 C659 1.399 . S
C659 H645 0.929 . S
C659 C658 1.399 . S
C659 C660 1.385 . S
C660 H646 0.931 . S
C660 C659 1.385 . S
C660 C661 1.389 . S
C661 C660 1.389 . S
C661 C662 1.387 . S
C662 H647 0.930 . S
C662 C657 1.390 . S
C662 C661 1.387 . S
H663 C675 0.930 . S
H664 C677 0.930 . S
H665 C678 0.930 . S
H666 C682 0.959 . S
H667 C682 0.959 . S
H668 C682 0.961 . S
H669 C683 0.960 . S
H670 C683 0.961 . S
H671 C683 0.959 . S
H672 C686 0.929 . S
H673 C687 0.931 . S
H674 C689 0.930 . S
C675 H663 0.930 . S
C675 C676 1.399 . S
C675 C680 1.399 . S
C676 C675 1.399 . S
C676 C677 1.376 . S
C677 H664 0.930 . S
C677 C676 1.376 . S
C677 C678 1.388 . S
C678 H665 0.930 . S
C678 C677 1.388 . S
C678 C679 1.390 . S
C679 C678 1.390 . S
C679 C680 1.394 . S
C679 C685 1.465 . S
C680 C675 1.399 . S
C680 C679 1.394 . S
C680 C681 1.516 . S
C681 C680 1.516 . S
C681 C682 1.502 . S
C681 C683 1.561 . S
C681 C684 1.526 . S
C682 H666 0.959 . S
C682 H667 0.959 . S
C682 H668 0.961 . S
C682 C681 1.502 . S
C683 H669 0.960 . S
C683 H670 0.961 . S
C683 H671 0.959 . S
C683 C681 1.561 . S
C684 C681 1.526 . S
C684 C685 1.396 . S
C684 C689 1.390 . S
C685 C679 1.465 . S
C685 C684 1.396 . S
C685 C686 1.399 . S
C686 H672 0.929 . S
C686 C685 1.399 . S
C686 C687 1.385 . S
C687 H673 0.931 . S
C687 C686 1.385 . S
C687 C688 1.389 . S
C688 C687 1.389 . S
C688 C689 1.387 . S
C689 H674 0.930 . S
C689 C684 1.390 . S
C689 C688 1.387 . S
H690 C702 0.930 . S
H691 C704 0.930 . S
H692 C705 0.930 . S
H693 C709 0.959 . S
H694 C709 0.959 . S
H695 C709 0.961 . S
H696 C710 0.960 . S
H697 C710 0.961 . S
H698 C710 0.959 . S
H699 C713 0.929 . S
H700 C714 0.931 . S
H701 C716 0.930 . S
C702 H690 0.930 . S
C702 C703 1.399 . S
C702 C707 1.399 . S
C703 C702 1.399 . S
C703 C704 1.376 . S
C704 H691 0.930 . S
C704 C703 1.376 . S
C704 C705 1.388 . S
C705 H692 0.930 . S
C705 C704 1.388 . S
C705 C706 1.390 . S
C706 C705 1.390 . S
C706 C707 1.394 . S
C706 C712 1.465 . S
C707 C702 1.399 . S
C707 C706 1.394 . S
C707 C708 1.516 . S
C708 C707 1.516 . S
C708 C709 1.502 . S
C708 C710 1.561 . S
C708 C711 1.526 . S
C709 H693 0.959 . S
C709 H694 0.959 . S
C709 H695 0.961 . S
C709 C708 1.502 . S
C710 H696 0.960 . S
C710 H697 0.961 . S
C710 H698 0.959 . S
C710 C708 1.561 . S
C711 C708 1.526 . S
C711 C712 1.396 . S
C711 C716 1.390 . S
C712 C706 1.465 . S
C712 C711 1.396 . S
C712 C713 1.399 . S
C713 H699 0.929 . S
C713 C712 1.399 . S
C713 C714 1.385 . S
C714 H700 0.931 . S
C714 C713 1.385 . S
C714 C715 1.389 . S
C715 C714 1.389 . S
C715 C716 1.387 . S
C716 H701 0.930 . S
C716 C711 1.390 . S
C716 C715 1.387 . S
H717 C729 0.930 . S
H718 C731 0.930 . S
H719 C732 0.930 . S
H720 C736 0.959 . S
H721 C736 0.959 . S
H722 C736 0.961 . S
H723 C737 0.960 . S
H724 C737 0.961 . S
H725 C737 0.959 . S
H726 C740 0.929 . S
H727 C741 0.931 . S
H728 C743 0.930 . S
C729 H717 0.930 . S
C729 C730 1.399 . S
C729 C734 1.399 . S
C730 C729 1.399 . S
C730 C731 1.376 . S
C731 H718 0.930 . S
C731 C730 1.376 . S
C731 C732 1.388 . S
C732 H719 0.930 . S
C732 C731 1.388 . S
C732 C733 1.390 . S
C733 C732 1.390 . S
C733 C734 1.394 . S
C733 C739 1.465 . S
C734 C729 1.399 . S
C734 C733 1.394 . S
C734 C735 1.516 . S
C735 C734 1.516 . S
C735 C736 1.502 . S
C735 C737 1.561 . S
C735 C738 1.526 . S
C736 H720 0.959 . S
C736 H721 0.959 . S
C736 H722 0.961 . S
C736 C735 1.502 . S
C737 H723 0.960 . S
C737 H724 0.961 . S
C737 H725 0.959 . S
C737 C735 1.561 . S
C738 C735 1.526 . S
C738 C739 1.396 . S
C738 C743 1.390 . S
C739 C733 1.465 . S
C739 C738 1.396 . S
C739 C740 1.399 . S
C740 H726 0.929 . S
C740 C739 1.399 . S
C740 C741 1.385 . S
C741 H727 0.931 . S
C741 C740 1.385 . S
C741 C742 1.389 . S
C742 C741 1.389 . S
C742 C743 1.387 . S
C743 H728 0.930 . S
C743 C738 1.390 . S
C743 C742 1.387 . S
H744 C756 0.930 . S
H745 C758 0.930 . S
H746 C759 0.930 . S
H747 C763 0.959 . S
H748 C763 0.959 . S
H749 C763 0.961 . S
H750 C764 0.960 . S
H751 C764 0.961 . S
H752 C764 0.959 1_554 S
H753 C767 0.929 . S
H754 C768 0.931 . S
H755 C770 0.930 . S
C756 H744 0.930 . S
C756 C757 1.399 . S
C756 C761 1.399 . S
C757 C756 1.399 . S
C757 C758 1.376 . S
C758 H745 0.930 . S
C758 C757 1.376 . S
C758 C759 1.388 1_556 S
C759 H746 0.930 . S
C759 C758 1.388 1_554 S
C759 C760 1.390 . S
C760 C759 1.390 . S
C760 C761 1.394 1_554 S
C760 C766 1.465 . S
C761 C756 1.399 . S
C761 C760 1.394 1_556 S
C761 C762 1.516 . S
C762 C761 1.516 . S
C762 C763 1.502 . S
C762 C764 1.561 . S
C762 C765 1.526 1_556 S
C763 H747 0.959 . S
C763 H748 0.959 . S
C763 H749 0.961 . S
C763 C762 1.502 . S
C764 H750 0.960 . S
C764 H751 0.961 . S
C764 H752 0.959 1_556 S
C764 C762 1.561 . S
C765 C762 1.526 1_554 S
C765 C766 1.396 . S
C765 C770 1.390 . S
C766 C760 1.465 . S
C766 C765 1.396 . S
C766 C767 1.399 . S
C767 H753 0.929 . S
C767 C766 1.399 . S
C767 C768 1.385 . S
C768 H754 0.931 . S
C768 C767 1.385 . S
C768 C769 1.389 . S
C769 C768 1.389 . S
C769 C770 1.387 . S
C770 H755 0.930 . S
C770 C765 1.390 . S
C770 C769 1.387 . S
H771 C783 0.930 . S
H772 C785 0.930 . S
H773 C786 0.930 . S
H774 C790 0.959 1_455 S
H775 C790 0.959 . S
H776 C790 0.961 . S
H777 C791 0.960 . S
H778 C791 0.961 . S
H779 C791 0.959 . S
H780 C794 0.929 . S
H781 C795 0.931 . S
H782 C797 0.930 . S
C783 H771 0.930 . S
C783 C784 1.399 . S
C783 C788 1.399 . S
C784 C783 1.399 . S
C784 C785 1.376 . S
C785 H772 0.930 . S
C785 C784 1.376 . S
C785 C786 1.388 . S
C786 H773 0.930 . S
C786 C785 1.388 . S
C786 C787 1.390 . S
C787 C786 1.390 . S
C787 C788 1.394 . S
C787 C793 1.465 . S
C788 C783 1.399 . S
C788 C787 1.394 . S
C788 C789 1.516 . S
C789 C788 1.516 . S
C789 C790 1.502 . S
C789 C791 1.561 . S
C789 C792 1.526 . S
C790 H774 0.959 1_655 S
C790 H775 0.959 . S
C790 H776 0.961 . S
C790 C789 1.502 . S
C791 H777 0.960 . S
C791 H778 0.961 . S
C791 H779 0.959 . S
C791 C789 1.561 . S
C792 C789 1.526 . S
C792 C793 1.396 . S
C792 C797 1.390 . S
C793 C787 1.465 . S
C793 C792 1.396 . S
C793 C794 1.399 . S
C794 H780 0.929 . S
C794 C793 1.399 . S
C794 C795 1.385 . S
C795 H781 0.931 . S
C795 C794 1.385 . S
C795 C796 1.389 . S
C796 C795 1.389 . S
C796 C797 1.387 . S
C797 H782 0.930 . S
C797 C792 1.390 . S
C797 C796 1.387 . S
H798 C810 0.930 . S
H799 C812 0.930 . S
H800 C813 0.930 . S
H801 C817 0.959 . S
H802 C817 0.959 . S
H803 C817 0.961 . S
H804 C818 0.960 . S
H805 C818 0.961 . S
H806 C818 0.959 . S
H807 C821 0.929 . S
H808 C822 0.931 . S
H809 C824 0.930 . S
C810 H798 0.930 . S
C810 C811 1.399 . S
C810 C815 1.399 . S
C811 C810 1.399 . S
C811 C812 1.376 . S
C812 H799 0.930 . S
C812 C811 1.376 . S
C812 C813 1.388 . S
C813 H800 0.930 . S
C813 C812 1.388 . S
C813 C814 1.390 . S
C814 C813 1.390 . S
C814 C815 1.394 . S
C814 C820 1.465 . S
C815 C810 1.399 . S
C815 C814 1.394 . S
C815 C816 1.516 . S
C816 C815 1.516 . S
C816 C817 1.502 . S
C816 C818 1.561 . S
C816 C819 1.526 . S
C817 H801 0.959 . S
C817 H802 0.959 . S
C817 H803 0.961 . S
C817 C816 1.502 . S
C818 H804 0.960 . S
C818 H805 0.961 . S
C818 H806 0.959 . S
C818 C816 1.561 . S
C819 C816 1.526 . S
C819 C820 1.396 . S
C819 C824 1.390 . S
C820 C814 1.465 . S
C820 C819 1.396 . S
C820 C821 1.399 . S
C821 H807 0.929 . S
C821 C820 1.399 . S
C821 C822 1.385 . S
C822 H808 0.931 . S
C822 C821 1.385 . S
C822 C823 1.389 . S
C823 C822 1.389 . S
C823 C824 1.387 . S
C824 H809 0.930 . S
C824 C819 1.390 . S
C824 C823 1.387 . S
H825 C837 0.930 . S
H826 C839 0.930 . S
H827 C840 0.930 . S
H828 C844 0.959 . S
H829 C844 0.959 . S
H830 C844 0.961 . S
H831 C845 0.960 . S
H832 C845 0.961 . S
H833 C845 0.959 . S
H834 C848 0.929 . S
H835 C849 0.931 . S
H836 C851 0.930 . S
C837 H825 0.930 . S
C837 C838 1.399 . S
C837 C842 1.399 . S
C838 C837 1.399 . S
C838 C839 1.376 . S
C839 H826 0.930 . S
C839 C838 1.376 . S
C839 C840 1.388 . S
C840 H827 0.930 . S
C840 C839 1.388 . S
C840 C841 1.390 . S
C841 C840 1.390 . S
C841 C842 1.394 . S
C841 C847 1.465 . S
C842 C837 1.399 . S
C842 C841 1.394 . S
C842 C843 1.516 . S
C843 C842 1.516 . S
C843 C844 1.502 . S
C843 C845 1.561 . S
C843 C846 1.526 . S
C844 H828 0.959 . S
C844 H829 0.959 . S
C844 H830 0.961 . S
C844 C843 1.502 . S
C845 H831 0.960 . S
C845 H832 0.961 . S
C845 H833 0.959 . S
C845 C843 1.561 . S
C846 C843 1.526 . S
C846 C847 1.396 . S
C846 C851 1.390 . S
C847 C841 1.465 . S
C847 C846 1.396 . S
C847 C848 1.399 . S
C848 H834 0.929 . S
C848 C847 1.399 . S
C848 C849 1.385 . S
C849 H835 0.931 . S
C849 C848 1.385 . S
C849 C850 1.389 . S
C850 C849 1.389 . S
C850 C851 1.387 . S
C851 H836 0.930 . S
C851 C846 1.390 . S
C851 C850 1.387 . S
H852 C864 0.930 . S
H853 C866 0.930 . S
H854 C867 0.930 . S
H855 C871 0.959 . S
H856 C871 0.959 . S
H857 C871 0.961 . S
H858 C872 0.960 . S
H859 C872 0.961 . S
H860 C872 0.959 . S
H861 C875 0.929 . S
H862 C876 0.931 . S
H863 C878 0.930 . S
C864 H852 0.930 . S
C864 C865 1.399 . S
C864 C869 1.399 . S
C865 C864 1.399 . S
C865 C866 1.376 . S
C866 H853 0.930 . S
C866 C865 1.376 . S
C866 C867 1.388 . S
C867 H854 0.930 . S
C867 C866 1.388 . S
C867 C868 1.390 . S
C868 C867 1.390 . S
C868 C869 1.394 . S
C868 C874 1.465 . S
C869 C864 1.399 . S
C869 C868 1.394 . S
C869 C870 1.516 . S
C870 C869 1.516 . S
C870 C871 1.502 . S
C870 C872 1.561 . S
C870 C873 1.526 . S
C871 H855 0.959 . S
C871 H856 0.959 . S
C871 H857 0.961 . S
C871 C870 1.502 . S
C872 H858 0.960 . S
C872 H859 0.961 . S
C872 H860 0.959 . S
C872 C870 1.561 . S
C873 C870 1.526 . S
C873 C874 1.396 . S
C873 C878 1.390 . S
C874 C868 1.465 . S
C874 C873 1.396 . S
C874 C875 1.399 . S
C875 H861 0.929 . S
C875 C874 1.399 . S
C875 C876 1.385 . S
C876 H862 0.931 . S
C876 C875 1.385 . S
C876 C877 1.389 . S
C877 C876 1.389 . S
C877 C878 1.387 . S
C878 H863 0.930 . S
C878 C873 1.390 . S
C878 C877 1.387 . S
H879 C891 0.930 . S
H880 C893 0.930 . S
H881 C894 0.930 . S
H882 C898 0.959 . S
H883 C898 0.959 . S
H884 C898 0.961 . S
H885 C899 0.960 . S
H886 C899 0.961 . S
H887 C899 0.959 . S
H888 C902 0.929 . S
H889 C903 0.931 . S
H890 C905 0.930 . S
C891 H879 0.930 . S
C891 C892 1.399 . S
C891 C896 1.399 . S
C892 C891 1.399 . S
C892 C893 1.376 . S
C893 H880 0.930 . S
C893 C892 1.376 . S
C893 C894 1.388 . S
C894 H881 0.930 . S
C894 C893 1.388 . S
C894 C895 1.390 . S
C895 C894 1.390 . S
C895 C896 1.394 . S
C895 C901 1.465 . S
C896 C891 1.399 . S
C896 C895 1.394 . S
C896 C897 1.516 . S
C897 C896 1.516 . S
C897 C898 1.502 . S
C897 C899 1.561 . S
C897 C900 1.526 . S
C898 H882 0.959 . S
C898 H883 0.959 . S
C898 H884 0.961 . S
C898 C897 1.502 . S
C899 H885 0.960 . S
C899 H886 0.961 . S
C899 H887 0.959 . S
C899 C897 1.561 . S
C900 C897 1.526 . S
C900 C901 1.396 . S
C900 C905 1.390 . S
C901 C895 1.465 . S
C901 C900 1.396 . S
C901 C902 1.399 . S
C902 H888 0.929 . S
C902 C901 1.399 . S
C902 C903 1.385 . S
C903 H889 0.931 . S
C903 C902 1.385 . S
C903 C904 1.389 . S
C904 C903 1.389 . S
C904 C905 1.387 . S
C905 H890 0.930 . S
C905 C900 1.390 . S
C905 C904 1.387 . S
H906 C918 0.930 . S
H907 C920 0.930 . S
H908 C921 0.930 . S
H909 C925 0.959 . S
H910 C925 0.959 . S
H911 C925 0.961 . S
H912 C926 0.960 . S
H913 C926 0.961 . S
H914 C926 0.959 . S
H915 C929 0.929 . S
H916 C930 0.931 . S
H917 C932 0.930 . S
C918 H906 0.930 . S
C918 C919 1.399 . S
C918 C923 1.399 . S
C919 C918 1.399 . S
C919 C920 1.376 . S
C920 H907 0.930 . S
C920 C919 1.376 . S
C920 C921 1.388 . S
C921 H908 0.930 . S
C921 C920 1.388 . S
C921 C922 1.390 . S
C922 C921 1.390 . S
C922 C923 1.394 . S
C922 C928 1.465 . S
C923 C918 1.399 . S
C923 C922 1.394 . S
C923 C924 1.516 . S
C924 C923 1.516 . S
C924 C925 1.502 . S
C924 C926 1.561 . S
C924 C927 1.526 . S
C925 H909 0.959 . S
C925 H910 0.959 . S
C925 H911 0.961 . S
C925 C924 1.502 . S
C926 H912 0.960 . S
C926 H913 0.961 . S
C926 H914 0.959 . S
C926 C924 1.561 . S
C927 C924 1.526 . S
C927 C928 1.396 . S
C927 C932 1.390 . S
C928 C922 1.465 . S
C928 C927 1.396 . S
C928 C929 1.399 . S
C929 H915 0.929 . S
C929 C928 1.399 . S
C929 C930 1.385 . S
C930 H916 0.931 . S
C930 C929 1.385 . S
C930 C931 1.389 . S
C931 C930 1.389 . S
C931 C932 1.387 . S
C932 H917 0.930 . S
C932 C927 1.390 . S
C932 C931 1.387 . S
H933 C945 0.930 . S
H934 C947 0.930 . S
H935 C948 0.930 . S
H936 C952 0.959 . S
H937 C952 0.959 . S
H938 C952 0.961 . S
H939 C953 0.960 . S
H940 C953 0.961 . S
H941 C953 0.959 . S
H942 C956 0.929 . S
H943 C957 0.931 . S
H944 C959 0.930 . S
C945 H933 0.930 . S
C945 C946 1.399 . S
C945 C950 1.399 . S
C946 C945 1.399 . S
C946 C947 1.376 . S
C947 H934 0.930 . S
C947 C946 1.376 . S
C947 C948 1.388 . S
C948 H935 0.930 . S
C948 C947 1.388 . S
C948 C949 1.390 . S
C949 C948 1.390 . S
C949 C950 1.394 . S
C949 C955 1.465 . S
C950 C945 1.399 . S
C950 C949 1.394 . S
C950 C951 1.516 . S
C951 C950 1.516 . S
C951 C952 1.502 . S
C951 C953 1.561 . S
C951 C954 1.526 . S
C952 H936 0.959 . S
C952 H937 0.959 . S
C952 H938 0.961 . S
C952 C951 1.502 . S
C953 H939 0.960 . S
C953 H940 0.961 . S
C953 H941 0.959 . S
C953 C951 1.561 . S
C954 C951 1.526 . S
C954 C955 1.396 . S
C954 C959 1.390 . S
C955 C949 1.465 . S
C955 C954 1.396 . S
C955 C956 1.399 . S
C956 H942 0.929 . S
C956 C955 1.399 . S
C956 C957 1.385 . S
C957 H943 0.931 . S
C957 C956 1.385 . S
C957 C958 1.389 . S
C958 C957 1.389 . S
C958 C959 1.387 . S
C959 H944 0.930 . S
C959 C954 1.390 . S
C959 C958 1.387 . S
C325 C6 1.024 . S
C337 C156 1.058 . S
C352 C21 1.493 . S
C364 C217 1.552 . S
C391 C255 1.942 . S
C379 C49 1.898 . S
C406 C68 2.053 . S
C418 C295 2.177 1_655 S
C445 C215 2.090 . S
C433 C2 2.082 . S
C472 C183 1.631 1_565 S
C460 C30 1.561 . S
C499 C292 1.670 . S
C487 C40 1.677 . S
C526 C252 1.634 . S
C514 C63 1.643 . S
C541 C11 1.031 . S
C553 C297 1.078 . S
C580 C212 2.690 . S
C568 C44 2.692 . S
C595 C59 1.738 . S
C607 C154 1.732 . S
C622 C25 1.784 . S
C634 C257 1.834 . S
C661 C177 1.246 . S
C649 C82 1.244 . S
C676 C101 1.247 . S
C688 C196 1.233 . S
C703 C125 2.307 . S
C715 C234 2.314 . S
C730 C144 1.787 . S
C742 C274 1.819 . S
C757 C87 1.040 . S
C769 C194 1.006 1_565 S
C796 C172 2.653 . S
C784 C97 2.532 . S
C823 C303 1.476 . S
C811 C120 1.533 . S
C850 C263 1.824 . S
C838 C135 1.833 . S
C865 C78 1.523 . S
C877 C276 1.614 . S
C904 C223 1.956 . S
C892 C116 1.932 . S
C931 C175 2.434 . S
C919 C139 2.479 . S
C946 C106 1.142 . S
C958 C236 1.340 . S
