# Generated by pormake.
# Topology apo, (3,6)-cn, num edge types: 1
# Building blocks:
#     Node 0, Type 0, BuildingBlock: INOVEN_clean_linker_0, # of connection points: 3
#     Node 1, Type 0, BuildingBlock: INOVEN_clean_linker_0, # of connection points: 3
#     Node 2, Type 0, BuildingBlock: INOVEN_clean_linker_0, # of connection points: 3
#     Node 3, Type 0, BuildingBlock: INOVEN_clean_linker_0, # of connection points: 3
#     Node 4, Type 0, BuildingBlock: INOVEN_clean_linker_0, # of connection points: 3
#     Node 5, Type 0, BuildingBlock: INOVEN_clean_linker_0, # of connection points: 3
#     Node 6, Type 0, BuildingBlock: INOVEN_clean_linker_0, # of connection points: 3
#     Node 7, Type 0, BuildingBlock: INOVEN_clean_linker_0, # of connection points: 3
#     Node 8, Type 1, BuildingBlock: KUMJIN_clean_sbu_1, # of connection points: 6
#     Node 9, Type 1, BuildingBlock: KUMJIN_clean_sbu_1, # of connection points: 6
#     Node 10, Type 1, BuildingBlock: KUMJIN_clean_sbu_1, # of connection points: 6
#     Node 11, Type 1, BuildingBlock: KUMJIN_clean_sbu_1, # of connection points: 6
#     Edge 12, Type (0, 1), None
#     Edge 13, Type (0, 1), None
#     Edge 14, Type (0, 1), None
#     Edge 15, Type (0, 1), None
#     Edge 16, Type (0, 1), None
#     Edge 17, Type (0, 1), None
#     Edge 18, Type (0, 1), None
#     Edge 19, Type (0, 1), None
#     Edge 20, Type (0, 1), None
#     Edge 21, Type (0, 1), None
#     Edge 22, Type (0, 1), None
#     Edge 23, Type (0, 1), None
#     Edge 24, Type (0, 1), None
#     Edge 25, Type (0, 1), None
#     Edge 26, Type (0, 1), None
#     Edge 27, Type (0, 1), None
#     Edge 28, Type (0, 1), None
#     Edge 29, Type (0, 1), None
#     Edge 30, Type (0, 1), None
#     Edge 31, Type (0, 1), None
#     Edge 32, Type (0, 1), None
#     Edge 33, Type (0, 1), None
#     Edge 34, Type (0, 1), None
#     Edge 35, Type (0, 1), None
# Relax obj value: 0.035
# Max RMSD: 0.294
# Mean RMSD: 0.196
data_MOF--net-apo--node1-KUMJIN_clean_sbu_1--node2-INOVEN_clean_linker_0--edge1-none
_symmetry_space_group_name_H-M    P1
_symmetry_Int_Tables_number       1
_symmetry_cell_setting            triclinic
loop_
_symmetry_equiv_pos_as_xyz
'x, y, z'
_cell_length_a     12.390593
_cell_length_b     18.532227
_cell_length_c     26.62581
_cell_angle_alpha  89.424401
_cell_angle_beta   90.294361
_cell_angle_gamma 90.591655
loop_
_atom_site_label
_atom_site_type_symbol
_atom_site_fract_x
_atom_site_fract_y
_atom_site_fract_z
_atom_type_partial_charge
H0 H 0.25225 0.358 0.45172 0.0
H1 H 0.42467 0.53634 0.38335 0.0
H2 H 0.32254 0.35738 0.29431 0.0
N3 N 0.22416 0.28338 0.36899 0.0
N4 N 0.24506 0.23841 0.33599 0.0
C5 C 0.2916 0.38309 0.41969 0.0
C6 C 0.34634 0.4499 0.42454 0.0
C7 C 0.28532 0.34841 0.37327 0.0
C8 C 0.33199 0.38176 0.33083 0.0
C9 C 0.38329 0.44934 0.33486 0.0
C10 C 0.38931 0.48295 0.3814 0.0
H11 H 0.33679 0.16412 0.96406 0.0
H12 H 0.11788 -0.01277 0.93588 0.0
H13 H 0.2002 0.13515 0.8166 0.0
N14 N 0.33861 0.21693 0.87133 0.0
N15 N 0.32737 0.24157 0.82791 0.0
C16 C 0.28213 0.13571 0.93903 0.0
C17 C 0.22378 0.07522 0.95668 0.0
C18 C 0.27384 0.15807 0.88872 0.0
C19 C 0.2066 0.11902 0.85569 0.0
C20 C 0.1499 0.05776 0.8725 0.0
C21 C 0.15778 0.03636 0.92318 0.0
H22 H 0.66708 0.17911 0.62296 0.0
H23 H 0.85299 0.98428 0.63672 0.0
H24 H 0.7701 0.1061 0.76744 0.0
N25 N 0.66652 0.20596 0.72249 0.0
N26 N 0.62384 0.25676 0.69945 0.0
C27 C 0.70876 0.13955 0.646 0.0
C28 C 0.75923 0.081 0.62336 0.0
C29 C 0.71209 0.14712 0.69806 0.0
C30 C 0.76441 0.09689 0.72762 0.0
C31 C 0.81343 0.03759 0.70645 0.0
C32 C 0.81338 0.02977 0.65369 0.0
H33 H 0.86004 0.30122 0.09801 0.0
H34 H 0.64793 0.47844 0.11918 0.0
H35 H 0.73683 0.34396 0.24583 0.0
N36 N 0.87128 0.25664 0.19198 0.0
N37 N 0.89111 0.24808 0.2376 0.0
C38 C 0.80909 0.3321 0.12263 0.0
C39 C 0.75101 0.39058 0.10316 0.0
C40 C 0.80602 0.31502 0.17408 0.0
C41 C 0.74163 0.35762 0.20644 0.0
C42 C 0.68319 0.41746 0.18728 0.0
C43 C 0.68854 0.43204 0.13523 0.0
H44 H 0.83513 0.68226 0.59948 0.0
H45 H 0.62798 0.49736 0.62375 0.0
H46 H 0.69405 0.64346 0.7446 0.0
N47 N 0.82728 0.73296 0.69217 0.0
N48 N 0.82443 0.75049 0.73732 0.0
C49 C 0.78311 0.65039 0.62387 0.0
C50 C 0.7304 0.58851 0.60509 0.0
C51 C 0.77107 0.67064 0.67423 0.0
C52 C 0.7066 0.6274 0.70625 0.0
C53 C 0.65612 0.56449 0.68852 0.0
C54 C 0.66625 0.54621 0.63759 0.0
H55 H 0.83167 0.86861 0.27672 0.0
H56 H 0.8779 0.0233 0.15767 0.0
H57 H 0.72663 0.81778 0.12693 0.0
N58 N 0.73855 0.76772 0.22386 0.0
N59 N 0.67996 0.72529 0.19965 0.0
C60 C 0.82493 0.8831 0.23746 0.0
C61 C 0.86069 0.9511 0.2213 0.0
C62 C 0.77836 0.83413 0.20389 0.0
C63 C 0.76615 0.85413 0.15298 0.0
C64 C 0.80182 0.92255 0.13612 0.0
C65 C 0.85032 0.97053 0.1704 0.0
H66 H 0.37632 0.80042 0.46898 0.0
H67 H 0.18588 -0.00999 0.44741 0.0
H68 H 0.25593 0.85344 0.32167 0.0
N69 N 0.38101 0.75928 0.37532 0.0
N70 N 0.3727 0.73998 0.33084 0.0
C71 C 0.33007 0.83557 0.4444 0.0
C72 C 0.27846 0.89589 0.46407 0.0
C73 C 0.32348 0.82007 0.39325 0.0
C74 C 0.26333 0.86611 0.36097 0.0
C75 C 0.21416 0.92878 0.37967 0.0
C76 C 0.22207 0.94233 0.4317 0.0
H77 H 0.33468 0.63722 0.78062 0.0
H78 H 0.38495 0.49488 0.90736 0.0
H79 H 0.24058 0.70077 0.92791 0.0
N80 N 0.22782 0.73381 0.82955 0.0
N81 N 0.17111 0.77397 0.85533 0.0
C82 C 0.33365 0.62688 0.82057 0.0
C83 C 0.37097 0.56132 0.84007 0.0
C84 C 0.28528 0.67656 0.85171 0.0
C85 C 0.28012 0.66303 0.90335 0.0
C86 C 0.31812 0.59827 0.92323 0.0
C87 C 0.36294 0.54696 0.89183 0.0
Eu88 Eu 0.14209 0.05949 0.23529 0.0
C89 C 0.70409 0.03226 0.34966 0.0
N90 N 0.76074 0.09368 0.33851 0.0
C91 C 0.59674 0.15691 0.3217 0.0
C92 C 0.59049 0.03078 0.34591 0.0
C93 C 0.70933 0.15553 0.32467 0.0
C94 C 0.53707 0.09416 0.33193 0.0
C95 C 0.70114 0.91063 0.38434 0.0
C96 C 0.75951 0.9724 0.36835 0.0
C97 C 0.58875 0.90766 0.37785 0.0
C98 C 0.53353 0.9675 0.35868 0.0
Eu99 Eu 0.94621 0.09097 0.35729 0.0
N100 N 0.86874 0.97675 0.37485 0.0
C101 C 0.75631 0.85552 0.40951 0.0
C102 C 0.92153 0.92477 0.4016 0.0
C103 C 0.86635 0.86368 0.41947 0.0
H104 H 0.7548 0.20463 0.31811 0.0
H105 H 0.90885 0.8228 0.44085 0.0
H106 H 0.24573 0.89279 0.23873 0.0
H107 H 0.34698 0.31894 0.20808 0.0
H108 H 1.00455 0.93202 0.41197 0.0
H109 H 0.71396 0.80784 0.42318 0.0
H110 H 0.18906 0.23652 0.21805 0.0
H111 H 0.55598 0.20647 0.31179 0.0
H112 H 0.54363 0.86024 0.38953 0.0
H113 H 0.44644 0.96529 0.3555 0.0
H114 H 0.42452 0.83487 0.23651 0.0
H115 H 0.44976 0.09557 0.32979 0.0
H116 H 0.52931 0.27029 0.19873 0.0
N117 N 0.30959 -0.00057 0.23269 0.0
C118 C 0.39841 0.04095 0.22405 0.0
C119 C 0.41828 0.89292 0.23328 0.0
C120 C 0.50139 0.0099 0.22003 0.0
C121 C 0.31756 0.92604 0.23564 0.0
C122 C 0.51069 0.93513 0.22572 0.0
N123 N 0.28569 0.14267 0.22227 0.0
C124 C 0.26963 0.21491 0.21566 0.0
C125 C 0.47651 0.15939 0.20846 0.0
C126 C 0.38608 0.11464 0.21826 0.0
C127 C 0.46153 0.23381 0.20461 0.0
C128 C 0.35797 0.26157 0.20902 0.0
H129 H 0.58838 0.90944 0.22354 0.0
H130 H 0.67097 0.03164 0.20772 0.0
H131 H 0.64956 0.1623 0.19673 0.0
O132 O 0.10991 0.0933 0.15695 0.0
O133 O 0.21678 0.12913 0.29608 0.0
O134 O 0.0801 0.17545 0.3464 0.0
O135 O 0.13602 0.98145 0.17444 0.0
O136 O 1.00201 0.1431 0.22793 0.0
O137 O 0.96034 0.18807 0.30689 0.0
O138 O 0.96452 0.0784 0.43885 0.0
O139 O 0.87208 0.04401 0.28511 0.0
O140 O 0.02002 0.98313 0.26575 0.0
O141 O 0.86792 0.16484 0.40901 0.0
O142 O 0.10683 0.03507 0.36924 0.0
O143 O 0.14798 0.97207 0.29745 0.0
C144 C 0.17888 0.17691 0.32751 0.0
C145 C 0.20157 0.02334 0.09563 0.0
C146 C 0.24738 0.04548 1.00729 0.0
C147 C 0.34454 0.00861 1.0145 0.0
C148 C 0.29923 0.98588 0.10134 0.0
C149 C 0.36986 0.97876 0.0612 0.0
C150 C 0.17543 0.05271 0.04793 0.0
C151 C 0.95421 0.19059 0.25772 0.0
C152 C 0.12625 0.02935 0.13877 0.0
C153 C 0.59144 0.05426 0.21024 0.0
C154 C 0.57907 0.12874 0.20397 0.0
C155 C 0.9202 -0.00273 0.25672 0.0
C156 C 0.8079 0.1071 0.48418 0.0
C157 C 0.74629 0.07425 0.56847 0.0
C158 C 0.64126 0.06479 0.54948 0.0
C159 C 0.70099 0.10013 0.46684 0.0
C160 C 0.83037 0.09388 0.53544 0.0
C161 C 0.61902 0.07709 0.49891 0.0
C162 C 0.15408 0.98108 0.34669 0.0
C163 C 0.89531 0.12838 0.4491 0.0
H164 H 0.40036 0.00226 0.98367 0.0
H165 H 0.32107 0.96098 0.13659 0.0
H166 H 0.44423 0.9494 0.06628 0.0
H167 H 0.1 0.08088 0.04245 0.0
H168 H 0.57503 0.05283 0.5746 0.0
H169 H 0.67961 0.11431 0.42888 0.0
H170 H 0.91126 0.10273 0.54998 0.0
H171 H 0.53707 0.07191 0.48497 0.0
Eu172 Eu 0.38126 0.41494 0.7061 0.0
C173 C 0.8624 0.38262 0.82976 0.0
N174 N 0.77025 0.34211 0.82905 0.0
C175 C 0.87422 0.23402 0.83775 0.0
C176 C 0.96443 0.34984 0.83507 0.0
C177 C 0.77465 0.2688 0.83459 0.0
C178 C 0.96945 0.27464 0.83792 0.0
C179 C 0.94921 0.50065 0.831 0.0
C180 C 0.855 0.45732 0.82716 0.0
C181 C 0.0504 0.46809 0.83676 0.0
C182 C 0.05807 0.39289 0.83835 0.0
Eu183 Eu 0.60689 0.40762 0.82804 0.0
N184 N 0.75587 0.48788 0.82331 0.0
C185 C 0.93912 0.57564 0.82878 0.0
C186 C 0.74529 0.56104 0.82516 0.0
C187 C 0.83683 0.60576 0.82516 0.0
H188 H 0.70122 0.23708 0.83695 0.0
H189 H 0.82861 0.66341 0.82244 0.0
H190 H 0.21063 0.55372 0.72122 0.0
H191 H 0.29626 0.13151 0.6685 0.0
H192 H 0.66568 0.58452 0.82515 0.0
H193 H 1.00965 0.6107 0.83004 0.0
H194 H 0.41142 0.23995 0.67996 0.0
H195 H 0.87808 0.17605 0.84108 0.0
H196 H 0.12332 0.50064 0.83962 0.0
H197 H 0.13683 0.36852 0.84242 0.0
H198 H 1.01442 0.57384 0.71841 0.0
H199 H 0.04626 0.2475 0.84129 0.0
H200 H 0.09887 0.13912 0.68102 0.0
N201 N 0.19655 0.43958 0.71725 0.0
C202 C 0.12885 0.38155 0.71259 0.0
C203 C 0.0455 0.51949 0.71734 0.0
C204 C 0.0158 0.3907 0.71146 0.0
C205 C 0.1567 0.50785 0.71969 0.0
C206 C 0.9747 0.46069 0.71347 0.0
N207 N 0.28141 0.3064 0.70152 0.0
C208 C 0.32585 0.24298 0.68669 0.0
C209 C 0.10344 0.25296 0.6983 0.0
C210 C 0.17229 0.31326 0.7051 0.0
C211 C 0.1493 0.18643 0.68679 0.0
C212 C 0.26073 0.18181 0.67992 0.0
H213 H 0.88851 0.46999 0.71181 0.0
H214 H 0.86047 0.33619 0.70662 0.0
H215 H 0.93722 0.21563 0.6958 0.0
O216 O 0.44244 0.39636 0.6299 0.0
O217 O 0.35445 0.33058 0.76771 0.0
O218 O 0.48141 0.31716 0.83299 0.0
O219 O 0.29034 0.45041 0.6412 0.0
O220 O 0.54985 0.37104 0.70321 0.0
O221 O 0.60329 0.31408 0.77577 0.0
O222 O 0.5883 0.47335 0.89543 0.0
O223 O 0.64304 0.47893 0.75757 0.0
O224 O 0.48744 0.51398 0.71316 0.0
O225 O 0.63043 0.3608 0.90273 0.0
O226 O 0.43513 0.44308 0.82292 0.0
O227 O 0.37656 0.51 0.75814 0.0
C228 C 0.39098 0.29938 0.80908 0.0
C229 C 0.37648 0.47449 0.5651 0.0
C230 C 0.35862 0.48523 0.47427 0.0
C231 C 0.35899 0.56106 0.47895 0.0
C232 C 0.37893 0.54986 0.56921 0.0
C233 C 0.37068 0.59292 0.52608 0.0
C234 C 0.36978 0.44272 0.51786 0.0
C235 C 0.58336 0.31394 0.72729 0.0
C236 C 0.35981 0.42777 0.60887 0.0
C237 C 0.9474 0.33021 0.70664 0.0
C238 C 0.9911 0.26149 0.70058 0.0
C239 C 0.5919 0.51752 0.72244 0.0
C240 C 0.69642 0.43731 0.96588 0.0
C241 C 0.76632 0.41597 0.0508 0.0
C242 C 0.85727 0.4585 0.03928 0.0
C243 C 0.78669 0.48126 0.95577 0.0
C244 C 0.68586 0.40533 1.01393 0.0
C245 C 0.86685 0.49122 0.99204 0.0
C246 C 0.40516 0.50529 0.8055 0.0
C247 C 0.61608 0.42118 0.9262 0.0
H248 H 0.34822 0.59606 0.44658 0.0
H249 H 0.38291 0.57513 0.60571 0.0
H250 H 0.37058 0.65111 0.52926 0.0
H251 H 0.36967 0.38436 0.51552 0.0
H252 H 0.91908 0.46813 0.06743 0.0
H253 H 0.79561 0.50807 0.91999 0.0
H254 H 0.61531 0.37255 1.02267 0.0
H255 H 0.93591 0.52514 0.98349 0.0
Eu256 Eu 0.09953 0.91632 0.73068 0.0
C257 C 0.62367 0.92815 0.86344 0.0
N258 N 0.71015 0.97157 0.85417 0.0
C259 C 0.59803 0.076 0.85744 0.0
C260 C 0.51966 0.95716 0.86904 0.0
C261 C 0.69958 0.04459 0.85266 0.0
C262 C 0.50765 0.03197 0.86559 0.0
C263 C 0.55386 0.80933 0.88498 0.0
C264 C 0.64079 0.85541 0.8718 0.0
C265 C 0.44913 0.83732 0.88771 0.0
C266 C 0.43198 0.9111 0.87975 0.0
Eu267 Eu 0.8811 0.91728 0.8548 0.0
N268 N 0.74365 0.83105 0.87155 0.0
C269 C 0.57578 0.73758 0.89799 0.0
C270 C 0.76609 0.76256 0.88731 0.0
C271 C 0.68257 0.71447 0.90003 0.0
H272 H 0.77063 0.07818 0.84971 0.0
H273 H 0.70069 0.66003 0.91225 0.0
H274 H 0.09196 0.74833 0.68927 0.0
H275 H 0.44946 0.09475 0.75465 0.0
H276 H 0.84909 0.74544 0.89052 0.0
H277 H 0.51157 0.70055 0.90866 0.0
H278 H 0.25569 0.06285 0.74904 0.0
H279 H 0.5896 0.13399 0.85594 0.0
H280 H 0.38167 0.80315 0.89829 0.0
H281 H 0.3513 0.93235 0.88362 0.0
H282 H 0.21973 0.65223 0.66673 0.0
H283 H 0.42929 0.0561 0.86976 0.0
H284 H 0.58628 -0.00114 0.75025 0.0
N285 N 0.21421 0.81772 0.71808 0.0
C286 C 0.3213 0.82895 0.7261 0.0
C287 C 0.24908 0.70077 0.68463 0.0
C288 C 0.39676 0.77494 0.71494 0.0
C289 C 0.17713 0.75521 0.69721 0.0
C290 C 0.35928 0.71026 0.69408 0.0
N291 N 0.28231 0.95003 0.7454 0.0
C292 C 0.31493 0.02056 0.74915 0.0
C293 C 0.46813 0.91282 0.74303 0.0
C294 C 0.35644 0.89701 0.7405 0.0
C295 C 0.5014 0.98458 0.74897 0.0
C296 C 0.42446 0.03881 0.7515 0.0
H297 H 0.41491 0.66806 0.68407 0.0
H298 H 0.56627 0.74776 0.7141 0.0
H299 H 0.62904 0.86858 0.73862 0.0
O300 O 0.13544 -0.00414 0.67154 0.0
O301 O 0.14577 0.97696 0.80256 0.0
O302 O 0.9847 0.014 0.83612 0.0
O303 O 0.08359 0.88932 0.65076 0.0
O304 O 0.97659 0.00098 0.74289 0.0
O305 O 0.8194 0.96334 0.77982 0.0
O306 O 0.88998 0.87903 0.93321 0.0
O307 O 0.88664 0.8174 0.80564 0.0
O308 O 0.94075 0.85089 0.72428 0.0
O309 O 0.8965 -0.00679 0.91674 0.0
O310 O 0.04676 0.86583 0.86147 0.0
O311 O 0.09256 0.82198 0.78325 0.0
C312 C 0.09034 0.0127 0.83628 0.0
C313 C 0.21797 0.94444 0.59998 0.0
C314 C 0.29195 0.91399 0.5178 0.0
C315 C 0.39672 0.92078 0.53758 0.0
C316 C 0.32396 0.95449 0.61768 0.0
C317 C 0.41228 0.94081 0.58729 0.0
C318 C 0.20224 0.92523 0.54931 0.0
C319 C 0.87255 -0.0102 0.74054 0.0
C320 C 0.12541 0.95004 0.63499 0.0
C321 C 0.50741 0.7888 0.72189 0.0
C322 C 0.54311 0.85764 0.73588 0.0
C323 C 0.88238 0.81098 0.75616 0.0
C324 C 0.81806 0.95748 0.99473 0.0
C325 C 0.77659 0.94746 0.08443 0.0
C326 C 0.6843 -0.01072 0.07654 0.0
C327 C 0.72493 -0.0008 0.98801 0.0
C328 C 0.84352 0.93138 0.04337 0.0
C329 C 0.65876 0.01489 0.02859 0.0
C330 C 0.1058 0.82563 0.83204 0.0
C331 C 0.89094 0.94371 0.95187 0.0
H332 H 0.46666 0.91202 0.51422 0.0
H333 H 0.33938 0.97286 0.65503 0.0
H334 H 0.49314 0.94601 0.60244 0.0
H335 H 0.12106 0.91809 0.53468 0.0
H336 H 0.632 0.0022 0.10758 0.0
H337 H 0.70373 0.02074 0.95163 0.0
H338 H 0.91563 0.89973 0.04938 0.0
H339 H 0.58783 0.04762 1.02287 0.0
Eu340 Eu 0.40465 0.58358 0.19945 0.0
C341 C 0.88959 0.51733 0.32453 0.0
N342 N 0.79089 0.48486 0.32539 0.0
C343 C 0.87381 0.36879 0.33367 0.0
C344 C 0.98474 0.47603 0.3263 0.0
C345 C 0.78193 0.41184 0.33236 0.0
C346 C 0.97566 0.40083 0.32945 0.0
C347 C 0.99735 0.62701 0.32951 0.0
C348 C 0.89578 0.59207 0.326 0.0
C349 C 0.09211 0.58616 0.32948 0.0
C350 C 0.08568 0.51091 0.32746 0.0
Eu351 Eu 0.64027 0.5625 0.32526 0.0
N352 N 0.80283 0.63046 0.32658 0.0
C353 C 1.00085 0.7021 0.33305 0.0
C354 C 0.80567 0.70357 0.33225 0.0
C355 C 0.9048 0.74041 0.33374 0.0
H356 H 0.70341 0.38654 0.33673 0.0
H357 H 0.90806 0.79832 0.33535 0.0
H358 H 0.28478 0.74485 0.21369 0.0
H359 H 0.22026 0.33719 0.12893 0.0
H360 H 0.73109 0.73329 0.33397 0.0
H361 H 0.07721 0.73105 0.335 0.0
H362 H 0.36984 0.42269 0.14916 0.0
H363 H 0.86598 0.31104 0.33862 0.0
H364 H 0.17073 0.61223 0.3314 0.0
H365 H 0.15913 0.48008 0.32824 0.0
H366 H 0.10094 0.79383 0.22032 0.0
H367 H 0.04674 0.36732 0.3308 0.0
H368 H 0.03277 0.36796 0.15034 0.0
N369 N 0.23148 0.63556 0.2089 0.0
C370 C 0.14536 0.58989 0.20499 0.0
C371 C 0.11239 0.73634 0.21637 0.0
C372 C 0.03885 0.61604 0.20687 0.0
C373 C 0.21636 0.70823 0.21333 0.0
C374 C 0.02326 0.69001 0.21326 0.0
N375 N 0.26686 0.49819 0.18339 0.0
C376 C 0.28769 0.4356 0.15898 0.0
C377 C 0.0762 0.47228 0.18077 0.0
C378 C 0.16364 0.51877 0.19191 0.0
C379 C 0.09765 0.40501 0.1598 0.0
C380 C 0.20351 0.38754 0.14746 0.0
H381 H 0.94282 0.71202 0.21476 0.0
H382 H 0.86922 0.58719 0.20169 0.0
H383 H 0.90255 0.46153 0.17893 0.0
O384 O 0.4599 0.56313 0.12301 0.0
O385 O 0.34933 0.49221 0.2506 0.0
O386 O 0.48838 0.53884 0.28617 0.0
O387 O 0.37259 0.66017 0.13855 0.0
O388 O 0.55358 0.51175 0.19355 0.0
O389 O 0.62943 0.4676 0.26908 0.0
O390 O 0.62312 0.60649 0.40091 0.0
O391 O 0.6962 0.63234 0.25908 0.0
O392 O 0.53093 0.66224 0.22836 0.0
O393 O 0.6242 0.49123 0.39131 0.0
O394 O 0.51425 0.65335 0.33495 0.0
O395 O 0.3936 0.66054 0.26585 0.0
C396 C 0.41022 0.49179 0.28986 0.0
C397 C 0.33257 0.60098 0.06322 0.0
C398 C 0.29295 0.58154 0.97538 0.0
C399 C 0.18603 0.56299 0.98727 0.0
C400 C 0.22365 0.58689 0.07408 0.0
C401 C 0.15157 0.56595 0.03673 0.0
C402 C 0.36726 0.59866 1.01339 0.0
C403 C 0.61942 0.4684 0.21912 0.0
C404 C 0.40871 0.61797 0.10392 0.0
C405 C 0.95152 0.56835 0.19967 0.0
C406 C 0.97033 0.49657 0.18689 0.0
C407 C 0.63619 0.66326 0.22382 0.0
C408 C 0.70472 0.53828 0.46617 0.0
C409 C 0.75505 0.56255 0.55382 0.0
C410 C 0.85798 0.53494 0.54466 0.0
C411 C 0.8081 0.51014 0.45854 0.0
C412 C 0.67817 0.5641 0.51436 0.0
C413 C 0.88397 0.50863 0.49741 0.0
C414 C 0.42834 0.68037 0.31088 0.0
C415 C 0.62714 0.54393 0.42352 0.0
H416 H 0.12804 0.55079 0.95786 0.0
H417 H 0.19332 0.59395 0.11109 0.0
H418 H 0.06818 0.55504 0.04606 0.0
H419 H 0.44969 0.61347 1.00398 0.0
H420 H 0.91806 0.53308 0.57437 0.0
H421 H 0.83093 0.48952 0.42251 0.0
H422 H 0.59919 0.58637 0.52093 0.0
H423 H 0.96347 0.48705 0.49082 0.0
loop_
_geom_bond_atom_site_label_1
_geom_bond_atom_site_label_2
_geom_bond_distance
_geom_bond_site_symmetry_2
_ccdc_geom_bond_type
H0 C5 0.929 . S
H1 C10 0.931 . S
H2 C8 0.930 . S
N3 N4 1.234 . S
N3 C7 1.453 . S
N4 N3 1.234 . S
C5 H0 0.929 . S
C5 C6 1.373 . S
C5 C7 1.368 . S
C6 C5 1.373 . S
C6 C10 1.397 . S
C7 N3 1.453 . S
C7 C5 1.368 . S
C7 C8 1.373 . S
C8 H2 0.930 . S
C8 C7 1.373 . S
C8 C9 1.371 . S
C9 C8 1.371 . S
C9 C10 1.383 . S
C10 H1 0.931 . S
C10 C6 1.397 . S
C10 C9 1.383 . S
H11 C16 0.929 . S
H12 C21 0.931 . S
H13 C19 0.930 . S
N14 N15 1.234 . S
N14 C18 1.453 . S
N15 N14 1.234 . S
C16 H11 0.929 . S
C16 C17 1.373 . S
C16 C18 1.368 . S
C17 C16 1.373 . S
C17 C21 1.397 . S
C18 N14 1.453 . S
C18 C16 1.368 . S
C18 C19 1.373 . S
C19 H13 0.930 . S
C19 C18 1.373 . S
C19 C20 1.371 . S
C20 C19 1.371 . S
C20 C21 1.383 . S
C21 H12 0.931 . S
C21 C17 1.397 . S
C21 C20 1.383 . S
H22 C27 0.929 . S
H23 C32 0.931 . S
H24 C30 0.930 . S
N25 N26 1.234 . S
N25 C29 1.453 . S
N26 N25 1.234 . S
C27 H22 0.929 . S
C27 C28 1.373 . S
C27 C29 1.368 . S
C28 C27 1.373 . S
C28 C32 1.397 . S
C29 N25 1.453 . S
C29 C27 1.368 . S
C29 C30 1.373 . S
C30 H24 0.930 . S
C30 C29 1.373 . S
C30 C31 1.371 . S
C31 C30 1.371 . S
C31 C32 1.383 . S
C32 H23 0.931 . S
C32 C28 1.397 . S
C32 C31 1.383 . S
H33 C38 0.929 . S
H34 C43 0.931 . S
H35 C41 0.930 . S
N36 N37 1.234 . S
N36 C40 1.453 . S
N37 N36 1.234 . S
C38 H33 0.929 . S
C38 C39 1.373 . S
C38 C40 1.368 . S
C39 C38 1.373 . S
C39 C43 1.397 . S
C40 N36 1.453 . S
C40 C38 1.368 . S
C40 C41 1.373 . S
C41 H35 0.930 . S
C41 C40 1.373 . S
C41 C42 1.371 . S
C42 C41 1.371 . S
C42 C43 1.383 . S
C43 H34 0.931 . S
C43 C39 1.397 . S
C43 C42 1.383 . S
H44 C49 0.929 . S
H45 C54 0.931 . S
H46 C52 0.930 . S
N47 N48 1.234 . S
N47 C51 1.453 . S
N48 N47 1.234 . S
C49 H44 0.929 . S
C49 C50 1.373 . S
C49 C51 1.368 . S
C50 C49 1.373 . S
C50 C54 1.397 . S
C51 N47 1.453 . S
C51 C49 1.368 . S
C51 C52 1.373 . S
C52 H46 0.930 . S
C52 C51 1.373 . S
C52 C53 1.371 . S
C53 C52 1.371 . S
C53 C54 1.383 . S
C54 H45 0.931 . S
C54 C50 1.397 . S
C54 C53 1.383 . S
H55 C60 0.929 . S
H56 C65 0.931 . S
H57 C63 0.930 . S
N58 N59 1.234 . S
N58 C62 1.453 . S
N59 N58 1.234 . S
C60 H55 0.929 . S
C60 C61 1.373 . S
C60 C62 1.368 . S
C61 C60 1.373 . S
C61 C65 1.397 . S
C62 N58 1.453 . S
C62 C60 1.368 . S
C62 C63 1.373 . S
C63 H57 0.930 . S
C63 C62 1.373 . S
C63 C64 1.371 . S
C64 C63 1.371 . S
C64 C65 1.383 . S
C65 H56 0.931 . S
C65 C61 1.397 . S
C65 C64 1.383 . S
H66 C71 0.929 . S
H67 C76 0.931 . S
H68 C74 0.930 . S
N69 N70 1.234 . S
N69 C73 1.453 . S
N70 N69 1.234 . S
C71 H66 0.929 . S
C71 C72 1.373 . S
C71 C73 1.368 . S
C72 C71 1.373 . S
C72 C76 1.397 . S
C73 N69 1.453 . S
C73 C71 1.368 . S
C73 C74 1.373 . S
C74 H68 0.930 . S
C74 C73 1.373 . S
C74 C75 1.371 . S
C75 C74 1.371 . S
C75 C76 1.383 . S
C76 H67 0.931 . S
C76 C72 1.397 . S
C76 C75 1.383 . S
H77 C82 0.929 . S
H78 C87 0.931 . S
H79 C85 0.930 . S
N80 N81 1.234 . S
N80 C84 1.453 . S
N81 N80 1.234 . S
C82 H77 0.929 . S
C82 C83 1.373 . S
C82 C84 1.368 . S
C83 C82 1.373 . S
C83 C87 1.397 . S
C84 N80 1.453 . S
C84 C82 1.368 . S
C84 C85 1.373 . S
C85 H79 0.930 . S
C85 C84 1.373 . S
C85 C86 1.371 . S
C86 C85 1.371 . S
C86 C87 1.383 . S
C87 H78 0.931 . S
C87 C83 1.397 . S
C87 C86 1.383 . S
Eu88 N117 2.600 . S
Eu88 N123 2.562 . S
Eu88 O132 2.462 . S
Eu88 O133 2.373 . S
Eu88 O135 2.432 . S
Eu88 O136 2.291 . S
Eu88 O140 2.332 1_455 S
Eu88 O143 2.372 1_545 S
Eu88 C152 2.787 . S
C89 N90 1.365 . S
C89 C92 1.405 . S
C89 C96 1.448 1_545 S
N90 C89 1.365 . S
N90 C93 1.319 . S
N90 Eu99 2.600 . S
C91 C93 1.397 . S
C91 C94 1.367 . S
C91 H111 0.931 . S
C92 C89 1.405 . S
C92 C94 1.403 . S
C92 C98 1.439 1_545 S
C93 N90 1.319 . S
C93 C91 1.397 . S
C93 H104 0.930 . S
C94 C91 1.367 . S
C94 C92 1.403 . S
C94 H115 0.929 . S
C95 C96 1.430 . S
C95 C97 1.387 . S
C95 C101 1.404 . S
C96 C89 1.448 1_565 S
C96 C95 1.430 . S
C96 N100 1.351 . S
C97 C95 1.387 . S
C97 C98 1.374 . S
C97 H112 0.931 . S
C98 C92 1.439 1_565 S
C98 C97 1.374 . S
C98 H113 0.931 . S
Eu99 N90 2.600 . S
Eu99 N100 2.562 1_545 S
Eu99 O134 2.335 1_655 S
Eu99 O137 2.372 . S
Eu99 O138 2.462 . S
Eu99 O139 2.373 . S
Eu99 O141 2.432 . S
Eu99 O142 2.291 1_655 S
Eu99 C163 2.787 . S
N100 C96 1.351 . S
N100 Eu99 2.562 1_565 S
N100 C102 1.325 . S
C101 C95 1.404 . S
C101 C103 1.366 . S
C101 H109 0.930 . S
C102 N100 1.325 . S
C102 C103 1.416 . S
C102 H108 0.929 . S
C103 C101 1.366 . S
C103 C102 1.416 . S
C103 H105 0.930 . S
H104 C93 0.930 . S
H105 C103 0.930 . S
H106 C121 0.930 1_565 S
H107 C128 0.930 . S
H108 C102 0.929 . S
H109 C101 0.930 . S
H110 C124 0.929 . S
H111 C91 0.931 . S
H112 C97 0.931 . S
H113 C98 0.931 . S
H114 C119 0.931 1_565 S
H115 C94 0.929 . S
H116 C127 0.930 . S
N117 Eu88 2.600 . S
N117 C118 1.365 . S
N117 C121 1.319 . S
C118 N117 1.365 . S
C118 C120 1.405 . S
C118 C126 1.448 . S
C119 H114 0.931 1_545 S
C119 C121 1.397 . S
C119 C122 1.367 . S
C120 C118 1.405 . S
C120 C122 1.403 . S
C120 C153 1.439 . S
C121 H106 0.930 1_545 S
C121 N117 1.319 . S
C121 C119 1.397 . S
C122 C119 1.367 . S
C122 C120 1.403 . S
C122 H129 0.929 . S
N123 Eu88 2.562 . S
N123 C124 1.325 . S
N123 C126 1.351 . S
C124 H110 0.929 . S
C124 N123 1.325 . S
C124 C128 1.416 . S
C125 C126 1.430 . S
C125 C127 1.404 . S
C125 C154 1.387 . S
C126 C118 1.448 . S
C126 N123 1.351 . S
C126 C125 1.430 . S
C127 H116 0.930 . S
C127 C125 1.404 . S
C127 C128 1.366 . S
C128 H107 0.930 . S
C128 C124 1.416 . S
C128 C127 1.366 . S
H129 C122 0.929 . S
H130 C153 0.931 . S
H131 C154 0.931 . S
O132 Eu88 2.462 . S
O132 C152 1.252 . S
O133 Eu88 2.373 . S
O133 C144 1.249 . S
O134 Eu99 2.335 1_455 S
O134 C144 1.264 . S
O135 Eu88 2.432 . S
O135 C152 1.268 . S
O136 Eu88 2.291 . S
O136 C151 1.255 1_455 S
O137 Eu99 2.372 . S
O137 C151 1.257 . S
O138 Eu99 2.462 . S
O138 C163 1.252 . S
O139 Eu99 2.373 . S
O139 C155 1.249 1_545 S
O140 Eu88 2.332 1_655 S
O140 C155 1.268 1_545 S
O141 Eu99 2.432 . S
O141 C163 1.268 . S
O142 Eu99 2.291 1_455 S
O142 C162 1.255 1_545 S
O143 Eu88 2.372 1_565 S
O143 C162 1.257 . S
C144 O133 1.249 . S
C144 O134 1.264 . S
C145 C148 1.382 1_545 S
C145 C150 1.390 . S
C145 C152 1.506 . S
C146 C147 1.398 . S
C146 C150 1.392 1_556 S
C147 C146 1.398 . S
C147 C149 1.372 1_546 S
C147 H164 0.931 1_545 S
C148 C145 1.382 1_565 S
C148 C149 1.390 . S
C148 H165 0.931 . S
C149 C147 1.372 1_564 S
C149 C148 1.390 . S
C149 H166 0.929 1_554 S
C150 C145 1.390 . S
C150 C146 1.392 1_554 S
C150 H167 0.930 . S
C151 O136 1.255 1_655 S
C151 O137 1.257 . S
C152 Eu88 2.787 . S
C152 O132 1.252 . S
C152 O135 1.268 . S
C152 C145 1.506 . S
C153 C120 1.439 . S
C153 H130 0.931 . S
C153 C154 1.374 . S
C154 C125 1.387 . S
C154 H131 0.931 . S
C154 C153 1.374 . S
C155 O139 1.249 1_565 S
C155 O140 1.268 1_565 S
C156 C159 1.382 . S
C156 C160 1.390 . S
C156 C163 1.506 . S
C157 C158 1.398 . S
C157 C160 1.392 . S
C158 C157 1.398 . S
C158 C161 1.372 . S
C158 H168 0.931 . S
C159 C156 1.382 . S
C159 C161 1.390 . S
C159 H169 0.931 . S
C160 C156 1.390 . S
C160 C157 1.392 . S
C160 H170 0.930 . S
C161 C158 1.372 . S
C161 C159 1.390 . S
C161 H171 0.929 . S
C162 O142 1.255 1_565 S
C162 O143 1.257 . S
C163 Eu99 2.787 . S
C163 O138 1.252 . S
C163 O141 1.268 . S
C163 C156 1.506 . S
H164 C147 0.931 1_565 S
H165 C148 0.931 . S
H166 C149 0.929 1_556 S
H167 C150 0.930 . S
H168 C158 0.931 . S
H169 C159 0.931 . S
H170 C160 0.930 . S
H171 C161 0.929 . S
Eu172 N201 2.600 . S
Eu172 N207 2.562 . S
Eu172 O216 2.462 . S
Eu172 O217 2.373 . S
Eu172 O219 2.432 . S
Eu172 O220 2.291 . S
Eu172 O224 2.335 . S
Eu172 O227 2.372 . S
Eu172 C236 2.787 . S
C173 N174 1.365 . S
C173 C176 1.405 1_655 S
C173 C180 1.448 . S
N174 C173 1.365 . S
N174 C177 1.319 . S
N174 Eu183 2.600 . S
C175 C177 1.397 . S
C175 C178 1.367 1_655 S
C175 H195 0.931 1_655 S
C176 C173 1.405 1_455 S
C176 C178 1.403 . S
C176 C182 1.439 . S
C177 N174 1.319 . S
C177 C175 1.397 . S
C177 H188 0.930 . S
C178 C175 1.367 1_455 S
C178 C176 1.403 . S
C178 H199 0.929 . S
C179 C180 1.430 . S
C179 C181 1.387 1_655 S
C179 C185 1.404 . S
C180 C173 1.448 . S
C180 C179 1.430 . S
C180 N184 1.351 . S
C181 C179 1.387 1_455 S
C181 C182 1.374 . S
C181 H196 0.931 . S
C182 C176 1.439 . S
C182 C181 1.374 . S
C182 H197 0.931 . S
Eu183 N174 2.600 . S
Eu183 N184 2.562 . S
Eu183 O218 2.335 . S
Eu183 O221 2.372 . S
Eu183 O222 2.462 . S
Eu183 O223 2.373 . S
Eu183 O225 2.432 . S
Eu183 O226 2.291 . S
Eu183 C247 2.787 . S
N184 C180 1.351 . S
N184 Eu183 2.562 . S
N184 C186 1.325 . S
C185 C179 1.404 . S
C185 C187 1.366 . S
C185 H193 0.930 . S
C186 N184 1.325 . S
C186 C187 1.416 . S
C186 H192 0.929 . S
C187 C185 1.366 . S
C187 C186 1.416 . S
C187 H189 0.930 . S
H188 C177 0.930 . S
H189 C187 0.930 . S
H190 C205 0.930 . S
H191 C212 0.930 . S
H192 C186 0.929 . S
H193 C185 0.930 . S
H194 C208 0.929 . S
H195 C175 0.931 1_455 S
H196 C181 0.931 . S
H197 C182 0.931 . S
H198 C203 0.932 . S
H199 C178 0.929 . S
H200 C211 0.930 . S
N201 Eu172 2.600 . S
N201 C202 1.365 . S
N201 C205 1.319 . S
C202 N201 1.365 . S
C202 C204 1.405 . S
C202 C210 1.448 . S
C203 H198 0.932 . S
C203 C205 1.397 . S
C203 C206 1.367 1_455 S
C204 C202 1.405 . S
C204 C206 1.403 1_455 S
C204 C237 1.439 1_455 S
C205 H190 0.930 . S
C205 N201 1.319 . S
C205 C203 1.397 . S
C206 C203 1.367 1_655 S
C206 C204 1.403 1_655 S
C206 H213 0.929 . S
N207 Eu172 2.562 . S
N207 C208 1.325 . S
N207 C210 1.351 . S
C208 H194 0.929 . S
C208 N207 1.325 . S
C208 C212 1.416 . S
C209 C210 1.430 . S
C209 C211 1.404 . S
C209 C238 1.387 . S
C210 C202 1.448 . S
C210 N207 1.351 . S
C210 C209 1.430 . S
C211 H200 0.930 . S
C211 C209 1.404 . S
C211 C212 1.366 . S
C212 H191 0.930 . S
C212 C208 1.416 . S
C212 C211 1.366 . S
H213 C206 0.929 . S
H214 C237 0.931 . S
H215 C238 0.931 1_655 S
O216 Eu172 2.462 . S
O216 C236 1.252 . S
O217 Eu172 2.373 . S
O217 C228 1.249 . S
O218 Eu183 2.335 . S
O218 C228 1.264 . S
O219 Eu172 2.432 . S
O219 C236 1.268 . S
O220 Eu172 2.291 . S
O220 C235 1.255 . S
O221 Eu183 2.372 . S
O221 C235 1.257 . S
O222 Eu183 2.462 . S
O222 C247 1.252 . S
O223 Eu183 2.373 . S
O223 C239 1.249 . S
O224 Eu172 2.335 . S
O224 C239 1.264 . S
O225 Eu183 2.432 . S
O225 C247 1.268 . S
O226 Eu183 2.291 . S
O226 C246 1.255 . S
O227 Eu172 2.372 . S
O227 C246 1.257 . S
C228 O217 1.249 . S
C228 O218 1.264 . S
C229 C232 1.382 . S
C229 C234 1.390 . S
C229 C236 1.506 . S
C230 C231 1.398 . S
C230 C234 1.392 . S
C231 C230 1.398 . S
C231 C233 1.372 . S
C231 H248 0.931 . S
C232 C229 1.382 . S
C232 C233 1.390 . S
C232 H249 0.931 . S
C233 C231 1.372 . S
C233 C232 1.390 . S
C233 H250 0.929 . S
C234 C229 1.390 . S
C234 C230 1.392 . S
C234 H251 0.930 . S
C235 O220 1.255 . S
C235 O221 1.257 . S
C236 Eu172 2.787 . S
C236 O216 1.252 . S
C236 O219 1.268 . S
C236 C229 1.506 . S
C237 C204 1.439 1_655 S
C237 H214 0.931 . S
C237 C238 1.374 1_655 S
C238 C209 1.387 . S
C238 H215 0.931 1_455 S
C238 C237 1.374 1_455 S
C239 O223 1.249 . S
C239 O224 1.264 . S
C240 C243 1.382 . S
C240 C244 1.390 . S
C240 C247 1.506 . S
C241 C242 1.398 . S
C241 C244 1.392 1_554 S
C242 C241 1.398 . S
C242 C245 1.372 . S
C242 H252 0.931 . S
C243 C240 1.382 . S
C243 C245 1.390 1_556 S
C243 H253 0.931 . S
C244 C240 1.390 . S
C244 C241 1.392 1_556 S
C244 H254 0.930 . S
C245 C242 1.372 . S
C245 C243 1.390 1_554 S
C245 H255 0.929 . S
C246 O226 1.255 . S
C246 O227 1.257 . S
C247 Eu183 2.787 . S
C247 O222 1.252 . S
C247 O225 1.268 . S
C247 C240 1.506 . S
H248 C231 0.931 . S
H249 C232 0.931 . S
H250 C233 0.929 . S
H251 C234 0.930 . S
H252 C242 0.931 . S
H253 C243 0.931 . S
H254 C244 0.930 . S
H255 C245 0.929 . S
Eu256 N285 2.600 . S
Eu256 N291 2.562 1_565 S
Eu256 O300 2.462 . S
Eu256 O301 2.373 . S
Eu256 O303 2.432 . S
Eu256 O304 2.291 1_455 S
Eu256 O308 2.335 1_455 S
Eu256 O311 2.372 . S
Eu256 C320 2.787 . S
C257 N258 1.365 . S
C257 C260 1.405 . S
C257 C264 1.448 . S
N258 C257 1.365 . S
N258 C261 1.319 . S
N258 Eu267 2.600 . S
C259 C261 1.397 . S
C259 C262 1.367 . S
C259 H279 0.931 1_565 S
C260 C257 1.405 . S
C260 C262 1.403 . S
C260 C266 1.439 . S
C261 N258 1.319 . S
C261 C259 1.397 . S
C261 H272 0.930 1_565 S
C262 C259 1.367 . S
C262 C260 1.403 . S
C262 H283 0.929 . S
C263 C264 1.430 . S
C263 C265 1.387 . S
C263 C269 1.404 . S
C264 C257 1.448 . S
C264 C263 1.430 . S
C264 N268 1.351 . S
C265 C263 1.387 . S
C265 C266 1.374 . S
C265 H280 0.931 . S
C266 C260 1.439 . S
C266 C265 1.374 . S
C266 H281 0.931 . S
Eu267 N258 2.600 . S
Eu267 N268 2.562 . S
Eu267 O302 2.335 1_655 S
Eu267 O305 2.372 1_565 S
Eu267 O306 2.462 . S
Eu267 O307 2.373 . S
Eu267 O309 2.432 . S
Eu267 O310 2.291 1_655 S
Eu267 C331 2.787 . S
N268 C264 1.351 . S
N268 Eu267 2.562 . S
N268 C270 1.325 . S
C269 C263 1.404 . S
C269 C271 1.366 . S
C269 H277 0.930 . S
C270 N268 1.325 . S
C270 C271 1.416 . S
C270 H276 0.929 . S
C271 C269 1.366 . S
C271 C270 1.416 . S
C271 H273 0.930 . S
H272 C261 0.930 1_545 S
H273 C271 0.930 . S
H274 C289 0.930 . S
H275 C296 0.930 . S
H276 C270 0.929 . S
H277 C269 0.930 . S
H278 C292 0.929 . S
H279 C259 0.931 1_545 S
H280 C265 0.931 . S
H281 C266 0.931 . S
H282 C287 0.931 . S
H283 C262 0.929 . S
H284 C295 0.930 . S
N285 Eu256 2.600 . S
N285 C286 1.365 . S
N285 C289 1.319 . S
C286 N285 1.365 . S
C286 C288 1.405 . S
C286 C294 1.448 1_565 S
C287 H282 0.931 . S
C287 C289 1.397 . S
C287 C290 1.367 . S
C288 C286 1.405 . S
C288 C290 1.403 . S
C288 C321 1.439 1_565 S
C289 H274 0.930 . S
C289 N285 1.319 . S
C289 C287 1.397 . S
C290 C287 1.367 . S
C290 C288 1.403 . S
C290 H297 0.929 . S
N291 Eu256 2.562 1_545 S
N291 C292 1.325 . S
N291 C294 1.351 . S
C292 H278 0.929 . S
C292 N291 1.325 . S
C292 C296 1.416 . S
C293 C294 1.430 . S
C293 C295 1.404 . S
C293 C322 1.387 . S
C294 C286 1.448 1_545 S
C294 N291 1.351 . S
C294 C293 1.430 . S
C295 H284 0.930 . S
C295 C293 1.404 . S
C295 C296 1.366 . S
C296 H275 0.930 . S
C296 C292 1.416 . S
C296 C295 1.366 . S
H297 C290 0.929 . S
H298 C321 0.931 . S
H299 C322 0.931 . S
O300 Eu256 2.462 . S
O300 C320 1.252 . S
O301 Eu256 2.373 . S
O301 C312 1.249 1_565 S
O302 Eu267 2.335 1_455 S
O302 C312 1.264 1_565 S
O303 Eu256 2.432 . S
O303 C320 1.268 . S
O304 Eu256 2.291 1_655 S
O304 C319 1.255 1_565 S
O305 Eu267 2.372 1_545 S
O305 C319 1.257 . S
O306 Eu267 2.462 . S
O306 C331 1.252 . S
O307 Eu267 2.373 . S
O307 C323 1.249 . S
O308 Eu256 2.335 1_655 S
O308 C323 1.264 . S
O309 Eu267 2.432 . S
O309 C331 1.268 . S
O310 Eu267 2.291 1_455 S
O310 C330 1.255 . S
O311 Eu256 2.372 . S
O311 C330 1.257 . S
C312 O301 1.249 1_545 S
C312 O302 1.264 1_545 S
C313 C316 1.382 . S
C313 C318 1.390 . S
C313 C320 1.506 . S
C314 C315 1.398 . S
C314 C318 1.392 . S
C315 C314 1.398 . S
C315 C317 1.372 . S
C315 H332 0.931 . S
C316 C313 1.382 . S
C316 C317 1.390 . S
C316 H333 0.931 . S
C317 C315 1.372 . S
C317 C316 1.390 . S
C317 H334 0.929 . S
C318 C313 1.390 . S
C318 C314 1.392 . S
C318 H335 0.930 . S
C319 O304 1.255 1_545 S
C319 O305 1.257 . S
C320 Eu256 2.787 . S
C320 O300 1.252 . S
C320 O303 1.268 . S
C320 C313 1.506 . S
C321 C288 1.439 1_545 S
C321 H298 0.931 . S
C321 C322 1.374 . S
C322 C293 1.387 . S
C322 H299 0.931 . S
C322 C321 1.374 . S
C323 O307 1.249 . S
C323 O308 1.264 . S
C324 C327 1.382 1_565 S
C324 C328 1.390 . S
C324 C331 1.506 . S
C325 C326 1.398 . S
C325 C328 1.392 1_554 S
C326 C325 1.398 . S
C326 C329 1.372 1_565 S
C326 H336 0.931 1_565 S
C327 C324 1.382 1_545 S
C327 C329 1.390 1_556 S
C327 H337 0.931 . S
C328 C324 1.390 . S
C328 C325 1.392 1_556 S
C328 H338 0.930 . S
C329 C326 1.372 1_545 S
C329 C327 1.390 1_554 S
C329 H339 0.929 . S
C330 O310 1.255 . S
C330 O311 1.257 . S
C331 Eu267 2.787 . S
C331 O306 1.252 . S
C331 O309 1.268 . S
C331 C324 1.506 . S
H332 C315 0.931 . S
H333 C316 0.931 . S
H334 C317 0.929 . S
H335 C318 0.930 . S
H336 C326 0.931 1_545 S
H337 C327 0.931 . S
H338 C328 0.930 . S
H339 C329 0.929 . S
Eu340 N369 2.600 . S
Eu340 N375 2.562 . S
Eu340 O384 2.462 . S
Eu340 O385 2.373 . S
Eu340 O387 2.432 . S
Eu340 O388 2.291 . S
Eu340 O392 2.335 . S
Eu340 O395 2.372 . S
Eu340 C404 2.787 . S
C341 N342 1.365 . S
C341 C344 1.405 . S
C341 C348 1.448 . S
N342 C341 1.365 . S
N342 C345 1.319 . S
N342 Eu351 2.600 . S
C343 C345 1.397 . S
C343 C346 1.367 1_655 S
C343 H363 0.931 1_655 S
C344 C341 1.405 . S
C344 C346 1.403 1_655 S
C344 C350 1.439 1_655 S
C345 N342 1.319 . S
C345 C343 1.397 . S
C345 H356 0.930 . S
C346 C343 1.367 1_455 S
C346 C344 1.403 1_455 S
C346 H367 0.929 . S
C347 C348 1.430 . S
C347 C349 1.387 . S
C347 C353 1.404 . S
C348 C341 1.448 . S
C348 C347 1.430 . S
C348 N352 1.351 . S
C349 C347 1.387 . S
C349 C350 1.374 1_655 S
C349 H364 0.931 1_655 S
C350 C344 1.439 1_455 S
C350 C349 1.374 1_455 S
C350 H365 0.931 . S
Eu351 N342 2.600 . S
Eu351 N352 2.562 . S
Eu351 O386 2.335 . S
Eu351 O389 2.372 . S
Eu351 O390 2.462 . S
Eu351 O391 2.373 . S
Eu351 O393 2.432 . S
Eu351 O394 2.291 . S
Eu351 C415 2.787 . S
N352 C348 1.351 . S
N352 Eu351 2.562 . S
N352 C354 1.325 . S
C353 C347 1.404 . S
C353 C355 1.366 . S
C353 H361 0.930 . S
C354 N352 1.325 . S
C354 C355 1.416 . S
C354 H360 0.929 . S
C355 C353 1.366 . S
C355 C354 1.416 . S
C355 H357 0.930 . S
H356 C345 0.930 . S
H357 C355 0.930 . S
H358 C373 0.930 . S
H359 C380 0.930 . S
H360 C354 0.929 . S
H361 C353 0.930 . S
H362 C376 0.929 . S
H363 C343 0.931 1_455 S
H364 C349 0.931 1_455 S
H365 C350 0.931 . S
H366 C371 0.931 1_655 S
H367 C346 0.929 . S
H368 C379 0.930 . S
N369 Eu340 2.600 . S
N369 C370 1.365 . S
N369 C373 1.319 . S
C370 N369 1.365 . S
C370 C372 1.405 . S
C370 C378 1.448 . S
C371 H366 0.931 1_455 S
C371 C373 1.397 . S
C371 C374 1.367 1_455 S
C372 C370 1.405 . S
C372 C374 1.403 1_455 S
C372 C405 1.439 1_455 S
C373 H358 0.930 . S
C373 N369 1.319 . S
C373 C371 1.397 . S
C374 C371 1.367 1_655 S
C374 C372 1.403 1_655 S
C374 H381 0.929 . S
N375 Eu340 2.562 . S
N375 C376 1.325 . S
N375 C378 1.351 . S
C376 H362 0.929 . S
C376 N375 1.325 . S
C376 C380 1.416 . S
C377 C378 1.430 . S
C377 C379 1.404 . S
C377 C406 1.394 . S
C378 C370 1.448 . S
C378 N375 1.351 . S
C378 C377 1.430 . S
C379 H368 0.930 . S
C379 C377 1.404 . S
C379 C380 1.366 . S
C380 H359 0.930 . S
C380 C376 1.416 . S
C380 C379 1.366 . S
H381 C374 0.929 . S
H382 C405 0.931 . S
H383 C406 0.927 1_655 S
O384 Eu340 2.462 . S
O384 C404 1.252 . S
O385 Eu340 2.373 . S
O385 C396 1.249 . S
O386 Eu351 2.335 . S
O386 C396 1.264 . S
O387 Eu340 2.432 . S
O387 C404 1.268 . S
O388 Eu340 2.291 . S
O388 C403 1.255 . S
O389 Eu351 2.372 . S
O389 C403 1.257 . S
O390 Eu351 2.462 . S
O390 C415 1.252 . S
O391 Eu351 2.373 . S
O391 C407 1.249 . S
O392 Eu340 2.335 . S
O392 C407 1.264 . S
O393 Eu351 2.432 . S
O393 C415 1.268 . S
O394 Eu351 2.291 . S
O394 C414 1.255 . S
O395 Eu340 2.372 . S
O395 C414 1.257 . S
C396 O385 1.249 . S
C396 O386 1.264 . S
C397 C400 1.382 . S
C397 C402 1.390 . S
C397 C404 1.506 . S
C398 C399 1.398 . S
C398 C402 1.392 1_556 S
C399 C398 1.398 . S
C399 C401 1.372 . S
C399 H416 0.931 . S
C400 C397 1.382 . S
C400 C401 1.390 1_554 S
C400 H417 0.931 . S
C401 C399 1.372 . S
C401 C400 1.390 1_556 S
C401 H418 0.929 . S
C402 C397 1.390 . S
C402 C398 1.392 1_554 S
C402 H419 0.930 . S
C403 O388 1.255 . S
C403 O389 1.257 . S
C404 Eu340 2.787 . S
C404 O384 1.252 . S
C404 O387 1.268 . S
C404 C397 1.506 . S
C405 C372 1.439 1_655 S
C405 H382 0.931 . S
C405 C406 1.371 1_655 S
C406 C377 1.394 . S
C406 H383 0.927 1_455 S
C406 C405 1.371 1_455 S
C407 O391 1.249 . S
C407 O392 1.264 . S
C408 C411 1.382 . S
C408 C412 1.390 . S
C408 C415 1.506 . S
C409 C410 1.398 . S
C409 C412 1.392 . S
C410 C409 1.398 . S
C410 C413 1.372 . S
C410 H420 0.931 . S
C411 C408 1.382 . S
C411 C413 1.390 . S
C411 H421 0.931 . S
C412 C408 1.390 . S
C412 C409 1.392 . S
C412 H422 0.930 . S
C413 C410 1.372 . S
C413 C411 1.390 . S
C413 H423 0.929 . S
C414 O394 1.255 . S
C414 O395 1.257 . S
C415 Eu351 2.787 . S
C415 O390 1.252 . S
C415 O393 1.268 . S
C415 C408 1.506 . S
H416 C399 0.931 . S
H417 C400 0.931 . S
H418 C401 0.929 . S
H419 C402 0.930 . S
H420 C410 0.931 . S
H421 C411 0.931 . S
H422 C412 0.930 . S
H423 C413 0.929 . S
C75 C162 1.871 . S
C246 C83 1.889 . S
C239 C53 1.799 . S
C61 C155 1.795 . S
C319 C31 1.892 . S
C403 C42 1.923 . S
C9 C396 1.815 . S
C20 C312 1.868 . S
C146 C17 1.470 . S
C230 C6 1.558 . S
C241 C39 1.254 . S
C157 C28 1.277 . S
C325 C64 1.612 . S
C50 C409 1.610 . S
C398 C86 1.324 . S
C72 C314 1.351 . S
C144 N4 1.526 . S
C228 N15 1.573 . S
N26 C235 1.382 . S
C151 N37 1.436 . S
C323 N48 1.576 . S
N59 C407 1.585 . S
N70 C414 1.502 . S
N81 C330 1.596 . S
