# Generated by pormake.
# Topology ssb, (4,4)-cn, num edge types: 1
# Building blocks:
#     Node 0, Type 0, BuildingBlock: NAHDIM_clean_linker_0, # of connection points: 4
#     Node 1, Type 0, BuildingBlock: NAHDIM_clean_linker_0, # of connection points: 4
#     Node 2, Type 0, BuildingBlock: NAHDIM_clean_linker_0, # of connection points: 4
#     Node 3, Type 0, BuildingBlock: NAHDIM_clean_linker_0, # of connection points: 4
#     Node 4, Type 0, BuildingBlock: NAHDIM_clean_linker_0, # of connection points: 4
#     Node 5, Type 0, BuildingBlock: NAHDIM_clean_linker_0, # of connection points: 4
#     Node 6, Type 0, BuildingBlock: NAHDIM_clean_linker_0, # of connection points: 4
#     Node 7, Type 0, BuildingBlock: NAHDIM_clean_linker_0, # of connection points: 4
#     Node 8, Type 1, BuildingBlock: KOZSID_clean_sbu_0, # of connection points: 4
#     Node 9, Type 1, BuildingBlock: KOZSID_clean_sbu_0, # of connection points: 4
#     Node 10, Type 1, BuildingBlock: KOZSID_clean_sbu_0, # of connection points: 4
#     Node 11, Type 1, BuildingBlock: KOZSID_clean_sbu_0, # of connection points: 4
#     Node 12, Type 1, BuildingBlock: KOZSID_clean_sbu_0, # of connection points: 4
#     Node 13, Type 1, BuildingBlock: KOZSID_clean_sbu_0, # of connection points: 4
#     Node 14, Type 1, BuildingBlock: KOZSID_clean_sbu_0, # of connection points: 4
#     Node 15, Type 1, BuildingBlock: KOZSID_clean_sbu_0, # of connection points: 4
#     Edge 16, Type (0, 1), BuildingBlock: XIVTED_clean_linker_0, # of connection points: 2
#     Edge 17, Type (0, 1), BuildingBlock: XIVTED_clean_linker_0, # of connection points: 2
#     Edge 18, Type (0, 1), BuildingBlock: XIVTED_clean_linker_0, # of connection points: 2
#     Edge 19, Type (0, 1), BuildingBlock: XIVTED_clean_linker_0, # of connection points: 2
#     Edge 20, Type (0, 1), BuildingBlock: XIVTED_clean_linker_0, # of connection points: 2
#     Edge 21, Type (0, 1), BuildingBlock: XIVTED_clean_linker_0, # of connection points: 2
#     Edge 22, Type (0, 1), BuildingBlock: XIVTED_clean_linker_0, # of connection points: 2
#     Edge 23, Type (0, 1), BuildingBlock: XIVTED_clean_linker_0, # of connection points: 2
#     Edge 24, Type (0, 1), BuildingBlock: XIVTED_clean_linker_0, # of connection points: 2
#     Edge 25, Type (0, 1), BuildingBlock: XIVTED_clean_linker_0, # of connection points: 2
#     Edge 26, Type (0, 1), BuildingBlock: XIVTED_clean_linker_0, # of connection points: 2
#     Edge 27, Type (0, 1), BuildingBlock: XIVTED_clean_linker_0, # of connection points: 2
#     Edge 28, Type (0, 1), BuildingBlock: XIVTED_clean_linker_0, # of connection points: 2
#     Edge 29, Type (0, 1), BuildingBlock: XIVTED_clean_linker_0, # of connection points: 2
#     Edge 30, Type (0, 1), BuildingBlock: XIVTED_clean_linker_0, # of connection points: 2
#     Edge 31, Type (0, 1), BuildingBlock: XIVTED_clean_linker_0, # of connection points: 2
#     Edge 32, Type (0, 1), BuildingBlock: XIVTED_clean_linker_0, # of connection points: 2
#     Edge 33, Type (0, 1), BuildingBlock: XIVTED_clean_linker_0, # of connection points: 2
#     Edge 34, Type (0, 1), BuildingBlock: XIVTED_clean_linker_0, # of connection points: 2
#     Edge 35, Type (0, 1), BuildingBlock: XIVTED_clean_linker_0, # of connection points: 2
#     Edge 36, Type (0, 1), BuildingBlock: XIVTED_clean_linker_0, # of connection points: 2
#     Edge 37, Type (0, 1), BuildingBlock: XIVTED_clean_linker_0, # of connection points: 2
#     Edge 38, Type (0, 1), BuildingBlock: XIVTED_clean_linker_0, # of connection points: 2
#     Edge 39, Type (0, 1), BuildingBlock: XIVTED_clean_linker_0, # of connection points: 2
#     Edge 40, Type (0, 1), BuildingBlock: XIVTED_clean_linker_0, # of connection points: 2
#     Edge 41, Type (0, 1), BuildingBlock: XIVTED_clean_linker_0, # of connection points: 2
#     Edge 42, Type (0, 1), BuildingBlock: XIVTED_clean_linker_0, # of connection points: 2
#     Edge 43, Type (0, 1), BuildingBlock: XIVTED_clean_linker_0, # of connection points: 2
#     Edge 44, Type (0, 1), BuildingBlock: XIVTED_clean_linker_0, # of connection points: 2
#     Edge 45, Type (0, 1), BuildingBlock: XIVTED_clean_linker_0, # of connection points: 2
#     Edge 46, Type (0, 1), BuildingBlock: XIVTED_clean_linker_0, # of connection points: 2
#     Edge 47, Type (0, 1), BuildingBlock: XIVTED_clean_linker_0, # of connection points: 2
# Relax obj value: 0.004
# Max RMSD: 0.052
# Mean RMSD: 0.032
data_MOF--net-ssb--node1-KOZSID_clean_sbu_0--node2-NAHDIM_clean_linker_0--edge1-XIVTED_clean_linker_0
_symmetry_space_group_name_H-M    P1
_symmetry_Int_Tables_number       1
_symmetry_cell_setting            triclinic
loop_
_symmetry_equiv_pos_as_xyz
'x, y, z'
_cell_length_a     72.331467
_cell_length_b     72.176168
_cell_length_c     52.792686
_cell_angle_alpha  91.93681
_cell_angle_beta   94.023144
_cell_angle_gamma 90.0197
loop_
_atom_site_label
_atom_site_type_symbol
_atom_site_fract_x
_atom_site_fract_y
_atom_site_fract_z
_atom_type_partial_charge
C0 C 0.25996 0.14024 0.34577 0.0
C1 C 0.28106 0.13764 0.34897 0.0
C2 C 0.29188 0.16962 0.34361 0.0
C3 C 0.29889 0.1856 0.35658 0.0
C4 C 0.3009 0.20225 0.34399 0.0
C5 C 0.29573 0.20288 0.3177 0.0
C6 C 0.289 0.18668 0.30428 0.0
C7 C 0.28721 0.1702 0.31731 0.0
C8 C 0.30828 0.21923 0.3588 0.0
C9 C 0.2835 0.18685 0.27617 0.0
C10 C 0.38589 0.28784 0.20751 0.0
C11 C 0.37841 0.26799 0.2071 0.0
C12 C 0.36426 0.25486 0.24306 0.0
C13 C 0.35047 0.24414 0.22944 0.0
C14 C 0.33471 0.2384 0.24115 0.0
C15 C 0.33275 0.24354 0.26692 0.0
C16 C 0.34719 0.25333 0.28107 0.0
C17 C 0.36289 0.2587 0.26895 0.0
C18 C 0.31985 0.22741 0.22577 0.0
C19 C 0.34568 0.25874 0.3087 0.0
C20 C 0.25081 0.33134 0.20932 0.0
C21 C 0.2469 0.31278 0.20172 0.0
C22 C 0.24788 0.2987 0.21943 0.0
C23 C 0.25296 0.30316 0.24528 0.0
C24 C 0.25696 0.32176 0.25303 0.0
C25 C 0.2558 0.33561 0.23491 0.0
C26 C 0.24341 0.27899 0.21053 0.0
C27 C 0.26247 0.32696 0.28043 0.0
C28 C 0.16923 0.22985 0.36541 0.0
C29 C 0.17145 0.25093 0.3676 0.0
C30 C 0.18712 0.26157 0.33149 0.0
C31 C 0.18809 0.25525 0.30635 0.0
C32 C 0.2041 0.25807 0.29343 0.0
C33 C 0.21927 0.26784 0.30593 0.0
C34 C 0.218 0.27502 0.33102 0.0
C35 C 0.2019 0.2718 0.34358 0.0
C36 C 0.20495 0.25037 0.26662 0.0
C37 C 0.23371 0.28601 0.34456 0.0
C38 C 0.29698 0.22053 0.30421 0.0
C39 C 0.31334 0.22431 0.2927 0.0
C40 C 0.31499 0.24014 0.27845 0.0
C41 C 0.29987 0.25248 0.27522 0.0
C42 C 0.30088 0.26824 0.26036 0.0
C43 C 0.28575 0.27999 0.25667 0.0
C44 C 0.26917 0.27668 0.26816 0.0
C45 C 0.2536 0.28833 0.26416 0.0
C46 C 0.23766 0.28519 0.27689 0.0
C47 C 0.23658 0.27029 0.29295 0.0
C48 C 0.25165 0.25791 0.29615 0.0
C49 C 0.25065 0.24221 0.31111 0.0
C50 C 0.26544 0.22993 0.31374 0.0
C51 C 0.28192 0.23303 0.30186 0.0
C52 C 0.28332 0.24894 0.28707 0.0
C53 C 0.26807 0.26123 0.28389 0.0
C54 C 0.26284 0.33735 0.15324 0.0
C55 C 0.24589 0.34421 0.16671 0.0
O56 O 0.2897 0.15416 0.35723 0.0
O57 O 0.17162 0.25789 0.34346 0.0
O58 O 0.25 0.34547 0.19278 0.0
O59 O 0.37888 0.26192 0.23177 0.0
H60 H 0.28628 0.13294 0.3305 0.0
H61 H 0.2562 0.1505 0.33113 0.0
H62 H 0.25453 0.14523 0.36396 0.0
H63 H 0.25307 0.12691 0.33965 0.0
H64 H 0.30259 0.18504 0.3768 0.0
H65 H 0.28202 0.15796 0.30679 0.0
H66 H 0.3207 0.22453 0.35011 0.0
H67 H 0.31207 0.21638 0.37905 0.0
H68 H 0.29767 0.23035 0.35791 0.0
H69 H 0.27868 0.17306 0.26837 0.0
H70 H 0.29547 0.1913 0.26576 0.0
H71 H 0.27221 0.19706 0.27256 0.0
H72 H 0.36388 0.2687 0.19866 0.0
H73 H 0.38587 0.29292 0.18787 0.0
H74 H 0.40022 0.28864 0.21655 0.0
H75 H 0.37693 0.29712 0.21855 0.0
H76 H 0.35189 0.24043 0.20963 0.0
H77 H 0.37381 0.26666 0.27938 0.0
H78 H 0.31585 0.21514 0.2363 0.0
H79 H 0.32439 0.22267 0.20696 0.0
H80 H 0.30732 0.23615 0.22268 0.0
H81 H 0.35827 0.26605 0.31716 0.0
H82 H 0.34342 0.24617 0.31967 0.0
H83 H 0.33351 0.26792 0.31066 0.0
H84 H 0.23415 0.33441 0.16224 0.0
H85 H 0.24306 0.30907 0.18205 0.0
H86 H 0.25882 0.34991 0.24067 0.0
H87 H 0.25579 0.27014 0.21414 0.0
H88 H 0.23898 0.27788 0.18995 0.0
H89 H 0.23218 0.27343 0.22143 0.0
H90 H 0.26599 0.34191 0.28323 0.0
H91 H 0.27462 0.31862 0.28721 0.0
H92 H 0.25092 0.32372 0.29235 0.0
H93 H 0.18474 0.25398 0.3789 0.0
H94 H 0.16921 0.22395 0.38458 0.0
H95 H 0.18098 0.22368 0.35563 0.0
H96 H 0.15609 0.22598 0.35431 0.0
H97 H 0.17643 0.24765 0.2971 0.0
H98 H 0.2008 0.27741 0.36269 0.0
H99 H 0.21707 0.24101 0.26549 0.0
H100 H 0.20688 0.26189 0.25362 0.0
H101 H 0.19221 0.24257 0.25987 0.0
H102 H 0.23016 0.29154 0.3635 0.0
H103 H 0.23744 0.29777 0.33286 0.0
H104 H 0.24613 0.27705 0.34711 0.0
H105 H 0.32488 0.21474 0.29467 0.0
H106 H 0.3133 0.27158 0.25113 0.0
H107 H 0.28724 0.29177 0.24481 0.0
H108 H 0.2258 0.29427 0.27392 0.0
H109 H 0.23833 0.23913 0.32073 0.0
H110 H 0.26381 0.21801 0.3253 0.0
H111 H 0.25958 0.33649 0.13234 0.0
H112 H 0.26698 0.32333 0.1595 0.0
H113 H 0.2748 0.34689 0.15757 0.0
C114 C 0.68796 0.19947 0.11283 0.0
C115 C 0.67364 0.20044 0.13296 0.0
C116 C 0.68806 0.21867 0.16946 0.0
C117 C 0.68646 0.2349 0.18433 0.0
C118 C 0.69806 0.23831 0.20644 0.0
C119 C 0.71198 0.22532 0.21349 0.0
C120 C 0.7138 0.2089 0.19845 0.0
C121 C 0.70173 0.20565 0.17675 0.0
C122 C 0.69542 0.2558 0.22225 0.0
C123 C 0.72854 0.19478 0.20529 0.0
C124 C 0.67747 0.17865 0.36878 0.0
C125 C 0.69513 0.16966 0.35987 0.0
C126 C 0.71585 0.1921 0.34453 0.0
C127 C 0.72624 0.18351 0.32616 0.0
C128 C 0.73215 0.19354 0.30587 0.0
C129 C 0.72719 0.21245 0.3038 0.0
C130 C 0.71682 0.22117 0.32262 0.0
C131 C 0.71151 0.21089 0.34304 0.0
C132 C 0.7434 0.18383 0.28644 0.0
C133 C 0.71101 0.24119 0.32086 0.0
C134 C 0.82591 0.28314 0.35305 0.0
C135 C 0.83136 0.26955 0.33543 0.0
C136 C 0.82087 0.2662 0.31233 0.0
C137 C 0.80476 0.27681 0.30664 0.0
C138 C 0.79978 0.29114 0.3238 0.0
C139 C 0.81054 0.2942 0.34676 0.0
C140 C 0.82685 0.25116 0.29412 0.0
C141 C 0.78288 0.30293 0.31811 0.0
C142 C 0.78528 0.30471 0.10156 0.0
C143 C 0.78501 0.31492 0.12741 0.0
C144 C 0.79674 0.30215 0.16758 0.0
C145 C 0.80736 0.28725 0.1764 0.0
C146 C 0.80447 0.27957 0.19987 0.0
C147 C 0.79089 0.28734 0.21506 0.0
C148 C 0.78103 0.30329 0.20702 0.0
C149 C 0.784 0.3105 0.18328 0.0
C150 C 0.81541 0.26273 0.20801 0.0
C151 C 0.76691 0.31231 0.22314 0.0
C152 C 0.7246 0.22887 0.23661 0.0
C153 C 0.72077 0.22002 0.2588 0.0
C154 C 0.732 0.22276 0.28127 0.0
C155 C 0.74737 0.23495 0.28188 0.0
C156 C 0.75888 0.23818 0.30418 0.0
C157 C 0.77373 0.25051 0.30469 0.0
C158 C 0.77781 0.25988 0.2828 0.0
C159 C 0.7928 0.27253 0.28314 0.0
C160 C 0.79664 0.28137 0.26092 0.0
C161 C 0.78592 0.27789 0.23819 0.0
C162 C 0.77078 0.2654 0.23753 0.0
C163 C 0.75974 0.26154 0.21495 0.0
C164 C 0.74468 0.24953 0.21457 0.0
C165 C 0.7401 0.24083 0.23672 0.0
C166 C 0.75135 0.24409 0.25953 0.0
C167 C 0.76665 0.25647 0.25996 0.0
C168 C 0.82964 0.27009 0.41361 0.0
C169 C 0.84223 0.27226 0.39173 0.0
O170 O 0.67629 0.21632 0.1483 0.0
O171 O 0.79893 0.30792 0.14376 0.0
O172 O 0.83525 0.28604 0.37608 0.0
O173 O 0.70965 0.18221 0.36355 0.0
H174 H 0.67526 0.18792 0.14465 0.0
H175 H 0.70216 0.19809 0.12194 0.0
H176 H 0.68761 0.21219 0.10155 0.0
H177 H 0.68519 0.18722 0.09979 0.0
H178 H 0.67589 0.24487 0.17863 0.0
H179 H 0.70325 0.193 0.16556 0.0
H180 H 0.69458 0.25245 0.24252 0.0
H181 H 0.68271 0.26343 0.21578 0.0
H182 H 0.70755 0.26508 0.22108 0.0
H183 H 0.7297 0.18395 0.19002 0.0
H184 H 0.72511 0.18791 0.22285 0.0
H185 H 0.74222 0.20167 0.20918 0.0
H186 H 0.69262 0.16583 0.33925 0.0
H187 H 0.66558 0.16888 0.36575 0.0
H188 H 0.67414 0.19121 0.35775 0.0
H189 H 0.67931 0.1828 0.38928 0.0
H190 H 0.7296 0.16894 0.32771 0.0
H191 H 0.70348 0.21732 0.35751 0.0
H192 H 0.75554 0.19244 0.28252 0.0
H193 H 0.73473 0.18183 0.26838 0.0
H194 H 0.74838 0.17005 0.29271 0.0
H195 H 0.70182 0.24548 0.33599 0.0
H196 H 0.70364 0.24349 0.30206 0.0
H197 H 0.72347 0.25023 0.32252 0.0
H198 H 0.84199 0.25851 0.38151 0.0
H199 H 0.84381 0.26159 0.33963 0.0
H200 H 0.80667 0.3049 0.36026 0.0
H201 H 0.81571 0.24057 0.29092 0.0
H202 H 0.83981 0.24423 0.30122 0.0
H203 H 0.82906 0.25716 0.27548 0.0
H204 H 0.7813 0.31401 0.33291 0.0
H205 H 0.77029 0.29404 0.31675 0.0
H206 H 0.78375 0.30943 0.29946 0.0
H207 H 0.77112 0.3121 0.13436 0.0
H208 H 0.77431 0.31021 0.08805 0.0
H209 H 0.78259 0.28971 0.10373 0.0
H210 H 0.79896 0.30624 0.0935 0.0
H211 H 0.81739 0.28113 0.16431 0.0
H212 H 0.77628 0.32253 0.17693 0.0
H213 H 0.8058 0.25107 0.21073 0.0
H214 H 0.82324 0.26581 0.22651 0.0
H215 H 0.82534 0.25824 0.19391 0.0
H216 H 0.7622 0.3259 0.21583 0.0
H217 H 0.7728 0.31439 0.24304 0.0
H218 H 0.75467 0.30307 0.22343 0.0
H219 H 0.7089 0.2108 0.25855 0.0
H220 H 0.75645 0.23131 0.32157 0.0
H221 H 0.78199 0.25257 0.32247 0.0
H222 H 0.80818 0.29101 0.2613 0.0
H223 H 0.76254 0.26782 0.19728 0.0
H224 H 0.73666 0.24717 0.19665 0.0
H225 H 0.83562 0.25993 0.42723 0.0
H226 H 0.81582 0.26492 0.40596 0.0
H227 H 0.8276 0.28355 0.42385 0.0
C228 C 0.6833 0.86601 0.32924 0.0
C229 C 0.69743 0.86167 0.35125 0.0
C230 C 0.717 0.8391 0.33076 0.0
C231 C 0.71072 0.82264 0.34078 0.0
C232 C 0.71252 0.80556 0.32772 0.0
C233 C 0.72077 0.80494 0.3042 0.0
C234 C 0.72805 0.82136 0.29478 0.0
C235 C 0.72627 0.83823 0.30842 0.0
C236 C 0.70509 0.78823 0.33864 0.0
C237 C 0.73696 0.8212 0.26978 0.0
C238 C 0.61459 0.80028 0.2283 0.0
C239 C 0.62427 0.7929 0.20513 0.0
C240 C 0.64805 0.77097 0.21816 0.0
C241 C 0.66345 0.77809 0.20698 0.0
C242 C 0.68137 0.77596 0.2184 0.0
C243 C 0.68386 0.76645 0.24139 0.0
C244 C 0.6685 0.7579 0.25148 0.0
C245 C 0.65072 0.76014 0.23953 0.0
C246 C 0.69751 0.78483 0.20678 0.0
C247 C 0.67073 0.74745 0.27575 0.0
C248 C 0.76384 0.6738 0.19477 0.0
C249 C 0.76633 0.69209 0.18718 0.0
C250 C 0.76577 0.70712 0.20469 0.0
C251 C 0.76236 0.70388 0.23023 0.0
C252 C 0.75969 0.68554 0.2379 0.0
C253 C 0.76056 0.67074 0.22006 0.0
C254 C 0.76903 0.72648 0.19593 0.0
C255 C 0.75601 0.68158 0.26498 0.0
C256 C 0.85324 0.7831 0.36992 0.0
C257 C 0.8489 0.76269 0.36335 0.0
C258 C 0.83124 0.75362 0.3235 0.0
C259 C 0.82763 0.7598 0.29889 0.0
C260 C 0.81144 0.75447 0.28433 0.0
C261 C 0.79869 0.74247 0.29468 0.0
C262 C 0.8028 0.73525 0.319 0.0
C263 C 0.81913 0.74081 0.33315 0.0
C264 C 0.80765 0.76211 0.25823 0.0
C265 C 0.78968 0.72205 0.33024 0.0
C266 C 0.71993 0.7876 0.28821 0.0
C267 C 0.70354 0.78402 0.27333 0.0
C268 C 0.70162 0.7684 0.25703 0.0
C269 C 0.71649 0.75582 0.25538 0.0
C270 C 0.71512 0.74005 0.239 0.0
C271 C 0.73007 0.72802 0.23711 0.0
C272 C 0.74694 0.73136 0.25149 0.0
C273 C 0.76245 0.71962 0.2491 0.0
C274 C 0.77895 0.72335 0.26381 0.0
C275 C 0.7805 0.73862 0.28079 0.0
C276 C 0.76522 0.75057 0.28338 0.0
C277 C 0.76641 0.76615 0.3002 0.0
C278 C 0.75154 0.77819 0.30202 0.0
C279 C 0.73492 0.77514 0.28708 0.0
C280 C 0.73323 0.75926 0.27044 0.0
C281 C 0.74843 0.74698 0.26855 0.0
C282 C 0.74739 0.66353 0.13877 0.0
C283 C 0.76607 0.65869 0.15249 0.0
O284 O 0.71404 0.856 0.34188 0.0
O285 O 0.84654 0.76029 0.33716 0.0
O286 O 0.76449 0.65876 0.17854 0.0
O287 O 0.63053 0.77502 0.2093 0.0
H288 H 0.69147 0.85045 0.36207 0.0
H289 H 0.68008 0.85323 0.31743 0.0
H290 H 0.68884 0.87658 0.31694 0.0
H291 H 0.67019 0.8712 0.33667 0.0
H292 H 0.70436 0.82304 0.35873 0.0
H293 H 0.73134 0.85097 0.30108 0.0
H294 H 0.69258 0.78343 0.32685 0.0
H295 H 0.70126 0.79058 0.35851 0.0
H296 H 0.71554 0.77698 0.33817 0.0
H297 H 0.74197 0.83515 0.26512 0.0
H298 H 0.72684 0.81617 0.25428 0.0
H299 H 0.74887 0.81149 0.2704 0.0
H300 H 0.63607 0.80252 0.20296 0.0
H301 H 0.60884 0.81431 0.22479 0.0
H302 H 0.62475 0.80133 0.24508 0.0
H303 H 0.60322 0.79088 0.23286 0.0
H304 H 0.66137 0.7858 0.18976 0.0
H305 H 0.63873 0.7544 0.24769 0.0
H306 H 0.70913 0.77483 0.20578 0.0
H307 H 0.70258 0.79687 0.21899 0.0
H308 H 0.69367 0.78974 0.1874 0.0
H309 H 0.65791 0.73982 0.27951 0.0
H310 H 0.6742 0.75736 0.29193 0.0
H311 H 0.68235 0.73744 0.27487 0.0
H312 H 0.77672 0.66895 0.14797 0.0
H313 H 0.76884 0.69485 0.16772 0.0
H314 H 0.75864 0.65663 0.2258 0.0
H315 H 0.75632 0.73489 0.19773 0.0
H316 H 0.77273 0.72658 0.17587 0.0
H317 H 0.78034 0.73329 0.20817 0.0
H318 H 0.75269 0.66675 0.26744 0.0
H319 H 0.74432 0.69022 0.27109 0.0
H320 H 0.76843 0.68536 0.27768 0.0
H321 H 0.83596 0.75945 0.37253 0.0
H322 H 0.85516 0.78545 0.39086 0.0
H323 H 0.84155 0.79186 0.36262 0.0
H324 H 0.86602 0.78748 0.36121 0.0
H325 H 0.83728 0.76936 0.29143 0.0
H326 H 0.82233 0.73515 0.35167 0.0
H327 H 0.79515 0.77104 0.25803 0.0
H328 H 0.80476 0.75059 0.24404 0.0
H329 H 0.81945 0.77042 0.25234 0.0
H330 H 0.79525 0.71701 0.3489 0.0
H331 H 0.78685 0.70995 0.31699 0.0
H332 H 0.77626 0.72911 0.33278 0.0
H333 H 0.69212 0.79373 0.27421 0.0
H334 H 0.70251 0.73692 0.22736 0.0
H335 H 0.7283 0.71612 0.22411 0.0
H336 H 0.79087 0.71446 0.26163 0.0
H337 H 0.77891 0.76929 0.31206 0.0
H338 H 0.75325 0.79002 0.31516 0.0
H339 H 0.7486 0.66347 0.1179 0.0
H340 H 0.74285 0.67755 0.14492 0.0
H341 H 0.73659 0.65336 0.14304 0.0
C342 C 0.32647 0.82317 0.12165 0.0
C343 C 0.33914 0.81018 0.1373 0.0
C344 C 0.32052 0.7898 0.16043 0.0
C345 C 0.3283 0.77886 0.17972 0.0
C346 C 0.31831 0.77483 0.20076 0.0
C347 C 0.30017 0.78191 0.2023 0.0
C348 C 0.29223 0.79284 0.18259 0.0
C349 C 0.30245 0.79646 0.16169 0.0
C350 C 0.32708 0.76298 0.22129 0.0
C351 C 0.27294 0.8007 0.18358 0.0
C352 C 0.2784 0.87892 0.35669 0.0
C353 C 0.27433 0.86496 0.33589 0.0
C354 C 0.28411 0.8348 0.31969 0.0
C355 C 0.26905 0.83293 0.3014 0.0
C356 C 0.26767 0.8177 0.28421 0.0
C357 C 0.28134 0.80366 0.28573 0.0
C358 C 0.29622 0.80517 0.30459 0.0
C359 C 0.29745 0.8208 0.32127 0.0
C360 C 0.25173 0.81691 0.26407 0.0
C361 C 0.31093 0.79041 0.30688 0.0
C362 C 0.17936 0.73522 0.3123 0.0
C363 C 0.18098 0.75002 0.29586 0.0
C364 C 0.19497 0.75023 0.27879 0.0
C365 C 0.20804 0.73565 0.27858 0.0
C366 C 0.20673 0.72092 0.29539 0.0
C367 C 0.19232 0.72086 0.31192 0.0
C368 C 0.19561 0.76605 0.26081 0.0
C369 C 0.22048 0.70521 0.29579 0.0
C370 C 0.23221 0.69666 0.07999 0.0
C371 C 0.2308 0.68691 0.1051 0.0
C372 C 0.21894 0.70105 0.14323 0.0
C373 C 0.20944 0.71693 0.15061 0.0
C374 C 0.21246 0.72477 0.17522 0.0
C375 C 0.22498 0.71615 0.19297 0.0
C376 C 0.23345 0.69921 0.18622 0.0
C377 C 0.23041 0.69185 0.16134 0.0
C378 C 0.20287 0.74266 0.18192 0.0
C379 C 0.24633 0.68934 0.20499 0.0
C380 C 0.2894 0.77794 0.22445 0.0
C381 C 0.29171 0.78986 0.24585 0.0
C382 C 0.28062 0.78824 0.26633 0.0
C383 C 0.26725 0.7739 0.26594 0.0
C384 C 0.25621 0.77153 0.28648 0.0
C385 C 0.24191 0.75852 0.28492 0.0
C386 C 0.23806 0.7475 0.26268 0.0
C387 C 0.2225 0.7355 0.25991 0.0
C388 C 0.2191 0.72477 0.2375 0.0
C389 C 0.23064 0.72593 0.21747 0.0
C390 C 0.24621 0.73787 0.21985 0.0
C391 C 0.25798 0.73952 0.1999 0.0
C392 C 0.27253 0.75217 0.20173 0.0
C393 C 0.27569 0.76393 0.22336 0.0
C394 C 0.26447 0.76202 0.24409 0.0
C395 C 0.24977 0.74888 0.24239 0.0
C396 C 0.1592 0.76313 0.34981 0.0
C397 C 0.15175 0.74712 0.33217 0.0
O398 O 0.33033 0.79341 0.14026 0.0
O399 O 0.21705 0.69524 0.11846 0.0
O400 O 0.16562 0.7342 0.32863 0.0
O401 O 0.28629 0.84995 0.33574 0.0
H402 H 0.34263 0.81703 0.1563 0.0
H403 H 0.31471 0.82777 0.13267 0.0
H404 H 0.32096 0.81609 0.10368 0.0
H405 H 0.3342 0.8358 0.11703 0.0
H406 H 0.34222 0.77358 0.17829 0.0
H407 H 0.2963 0.80437 0.14624 0.0
H408 H 0.32841 0.77112 0.23955 0.0
H409 H 0.34102 0.75791 0.21679 0.0
H410 H 0.31803 0.75087 0.22398 0.0
H411 H 0.26931 0.80997 0.16762 0.0
H412 H 0.27172 0.80863 0.20177 0.0
H413 H 0.26269 0.78921 0.18278 0.0
H414 H 0.27107 0.87084 0.31683 0.0
H415 H 0.2815 0.89221 0.3471 0.0
H416 H 0.29323 0.87656 0.36405 0.0
H417 H 0.25421 0.87648 0.38064 0.0
H418 H 0.25839 0.84343 0.3001 0.0
H419 H 0.30895 0.82224 0.33549 0.0
H420 H 0.24183 0.80594 0.26851 0.0
H421 H 0.25678 0.81339 0.24512 0.0
H422 H 0.24409 0.83024 0.26293 0.0
H423 H 0.32019 0.79238 0.32447 0.0
H424 H 0.3195 0.79078 0.29026 0.0
H425 H 0.30441 0.77647 0.30677 0.0
H426 H 0.14671 0.75272 0.31359 0.0
H427 H 0.17137 0.76147 0.29596 0.0
H428 H 0.19109 0.70954 0.32467 0.0
H429 H 0.20763 0.77514 0.26673 0.0
H430 H 0.18286 0.77463 0.2606 0.0
H431 H 0.19742 0.76072 0.24117 0.0
H432 H 0.21877 0.69587 0.31177 0.0
H433 H 0.23484 0.71079 0.29735 0.0
H434 H 0.21864 0.69694 0.27767 0.0
H435 H 0.24462 0.68887 0.1156 0.0
H436 H 0.24268 0.6897 0.06854 0.0
H437 H 0.2366 0.71129 0.08393 0.0
H438 H 0.21865 0.6967 0.06874 0.0
H439 H 0.20032 0.72368 0.13661 0.0
H440 H 0.23719 0.67909 0.156 0.0
H441 H 0.21334 0.75353 0.18775 0.0
H442 H 0.19435 0.74059 0.19828 0.0
H443 H 0.19375 0.74773 0.16582 0.0
H444 H 0.24987 0.67519 0.19796 0.0
H445 H 0.2399 0.68831 0.22339 0.0
H446 H 0.25934 0.69745 0.20859 0.0
H447 H 0.30159 0.80118 0.24596 0.0
H448 H 0.25831 0.77996 0.3038 0.0
H449 H 0.23363 0.75748 0.30113 0.0
H450 H 0.20683 0.71606 0.23513 0.0
H451 H 0.25595 0.73122 0.18247 0.0
H452 H 0.28101 0.75293 0.18568 0.0
H453 H 0.14808 0.77342 0.35282 0.0
H454 H 0.17072 0.77032 0.34133 0.0
H455 H 0.16449 0.75791 0.36851 0.0
C456 C 0.18208 0.73459 0.60521 0.0
C457 C 0.17118 0.72206 0.62174 0.0
C458 C 0.18411 0.73016 0.66527 0.0
C459 C 0.18051 0.73996 0.68762 0.0
C460 C 0.19373 0.74114 0.70832 0.0
C461 C 0.21098 0.73217 0.70658 0.0
C462 C 0.21471 0.72204 0.68412 0.0
C463 C 0.20125 0.72116 0.6636 0.0
C464 C 0.1893 0.75207 0.73201 0.0
C465 C 0.23298 0.71225 0.68179 0.0
C466 C 0.23631 0.63194 0.85361 0.0
C467 C 0.24098 0.6449 0.83389 0.0
C468 C 0.2353 0.67657 0.82046 0.0
C469 C 0.24478 0.67451 0.79814 0.0
C470 C 0.24568 0.6891 0.78138 0.0
C471 C 0.23662 0.70601 0.78668 0.0
C472 C 0.22681 0.70807 0.80888 0.0
C473 C 0.22647 0.69336 0.82562 0.0
C474 C 0.25625 0.68639 0.75787 0.0
C475 C 0.21662 0.72575 0.8148 0.0
C476 C 0.32068 0.78519 0.85263 0.0
C477 C 0.3278 0.77597 0.83157 0.0
C478 C 0.31765 0.77519 0.80791 0.0
C479 C 0.30015 0.78392 0.80528 0.0
C480 C 0.29354 0.79422 0.82604 0.0
C481 C 0.304 0.79483 0.84946 0.0
C482 C 0.32531 0.76453 0.78592 0.0
C483 C 0.27508 0.80397 0.82374 0.0
C484 C 0.27668 0.82898 0.62105 0.0
C485 C 0.27496 0.84464 0.64109 0.0
C486 C 0.28511 0.8301 0.68036 0.0
C487 C 0.29769 0.8157 0.68466 0.0
C488 C 0.29534 0.80306 0.7038 0.0
C489 C 0.28038 0.80534 0.71955 0.0
C490 C 0.26803 0.82041 0.71588 0.0
C491 C 0.27041 0.83251 0.69604 0.0
C492 C 0.30881 0.78721 0.70707 0.0
C493 C 0.25238 0.82375 0.73291 0.0
C494 C 0.22511 0.73356 0.72828 0.0
C495 C 0.2247 0.72037 0.747 0.0
C496 C 0.23709 0.72128 0.76854 0.0
C497 C 0.24999 0.73606 0.77189 0.0
C498 C 0.2623 0.73775 0.79365 0.0
C499 C 0.27468 0.75254 0.79697 0.0
C500 C 0.27556 0.76596 0.77835 0.0
C501 C 0.28809 0.78104 0.78158 0.0
C502 C 0.2891 0.79376 0.76233 0.0
C503 C 0.27777 0.79194 0.7398 0.0
C504 C 0.26471 0.77728 0.73657 0.0
C505 C 0.25277 0.77523 0.71444 0.0
C506 C 0.23968 0.76104 0.71177 0.0
C507 C 0.23838 0.74801 0.73079 0.0
C508 C 0.25066 0.74943 0.75288 0.0
C509 C 0.26364 0.76425 0.75595 0.0
C510 C 0.33089 0.76406 0.91029 0.0
C511 C 0.33947 0.7702 0.88622 0.0
O512 O 0.17065 0.72993 0.64598 0.0
O513 O 0.28774 0.84181 0.6614 0.0
O514 O 0.32939 0.78491 0.87625 0.0
O515 O 0.23434 0.66277 0.8373 0.0
H516 H 0.17778 0.70816 0.62267 0.0
H517 H 0.19656 0.73634 0.61337 0.0
H518 H 0.17554 0.74849 0.60401 0.0
H519 H 0.18251 0.72834 0.58574 0.0
H520 H 0.16725 0.74683 0.68872 0.0
H521 H 0.20429 0.71349 0.64645 0.0
H522 H 0.19024 0.7429 0.74853 0.0
H523 H 0.17523 0.75827 0.73032 0.0
H524 H 0.19965 0.76335 0.736 0.0
H525 H 0.2337 0.70476 0.66316 0.0
H526 H 0.23515 0.70218 0.69715 0.0
H527 H 0.24448 0.72249 0.68419 0.0
H528 H 0.25564 0.64418 0.82865 0.0
H529 H 0.21687 0.61172 0.83258 0.0
H530 H 0.23242 0.64077 0.8705 0.0
H531 H 0.25002 0.62741 0.86294 0.0
H532 H 0.25156 0.66159 0.79363 0.0
H533 H 0.21911 0.69484 0.84276 0.0
H534 H 0.24641 0.68642 0.74076 0.0
H535 H 0.26405 0.67313 0.75773 0.0
H536 H 0.26616 0.69801 0.75646 0.0
H537 H 0.20855 0.72467 0.83184 0.0
H538 H 0.20702 0.72929 0.79834 0.0
H539 H 0.22669 0.73732 0.81817 0.0
H540 H 0.33855 0.75785 0.87295 0.0
H541 H 0.34118 0.76924 0.83362 0.0
H542 H 0.29883 0.80222 0.8657 0.0
H543 H 0.31619 0.75247 0.78038 0.0
H544 H 0.33958 0.7594 0.79061 0.0
H545 H 0.32546 0.77347 0.76923 0.0
H546 H 0.27237 0.81226 0.8412 0.0
H547 H 0.26382 0.79356 0.82 0.0
H548 H 0.27455 0.81328 0.80739 0.0
H549 H 0.26063 0.84449 0.64752 0.0
H550 H 0.2663 0.83063 0.60476 0.0
H551 H 0.27415 0.81539 0.62946 0.0
H552 H 0.2908 0.82888 0.61398 0.0
H553 H 0.30912 0.81416 0.67256 0.0
H554 H 0.26101 0.84404 0.69303 0.0
H555 H 0.30119 0.77389 0.70768 0.0
H556 H 0.31718 0.78921 0.7254 0.0
H557 H 0.3184 0.78619 0.69153 0.0
H558 H 0.24559 0.83736 0.72972 0.0
H559 H 0.25758 0.82319 0.75317 0.0
H560 H 0.24178 0.81269 0.72922 0.0
H561 H 0.21463 0.70918 0.74471 0.0
H562 H 0.26236 0.72778 0.80852 0.0
H563 H 0.28364 0.75322 0.81429 0.0
H564 H 0.29893 0.80515 0.76487 0.0
H565 H 0.25326 0.7847 0.69904 0.0
H566 H 0.23068 0.76033 0.69449 0.0
H567 H 0.33916 0.75268 0.91909 0.0
H568 H 0.31659 0.75885 0.90535 0.0
H569 H 0.33012 0.77578 0.92436 0.0
C570 C 0.26615 0.37623 0.84015 0.0
C571 C 0.24525 0.37595 0.84335 0.0
C572 C 0.23639 0.34298 0.83796 0.0
C573 C 0.2304 0.32767 0.85068 0.0
C574 C 0.22656 0.31067 0.83776 0.0
C575 C 0.22899 0.30894 0.81144 0.0
C576 C 0.23501 0.32437 0.79836 0.0
C577 C 0.23859 0.34127 0.81172 0.0
C578 C 0.21999 0.29452 0.85222 0.0
C579 C 0.23772 0.32293 0.77028 0.0
C580 C 0.11405 0.30293 0.74973 0.0
C581 C 0.1232 0.2956 0.72611 0.0
C582 C 0.1476 0.27419 0.73839 0.0
C583 C 0.16244 0.28026 0.72511 0.0
C584 C 0.18079 0.27824 0.73513 0.0
C585 C 0.18429 0.2701 0.75902 0.0
C586 C 0.16935 0.26296 0.77169 0.0
C587 C 0.15113 0.2649 0.76099 0.0
C588 C 0.19638 0.28556 0.72074 0.0
C589 C 0.17256 0.25417 0.79714 0.0
C590 C 0.24034 0.16158 0.73477 0.0
C591 C 0.24909 0.17493 0.72091 0.0
C592 C 0.25492 0.19193 0.73248 0.0
C593 C 0.25213 0.19551 0.75843 0.0
C594 C 0.24429 0.18168 0.77275 0.0
C595 C 0.23856 0.16483 0.76069 0.0
C596 C 0.26365 0.20625 0.71688 0.0
C597 C 0.24153 0.18491 0.80062 0.0
C598 C 0.35772 0.27759 0.85832 0.0
C599 C 0.35491 0.25699 0.86294 0.0
C600 C 0.33392 0.24345 0.82917 0.0
C601 C 0.33018 0.24625 0.80327 0.0
C602 C 0.3124 0.24303 0.7915 0.0
C603 C 0.29816 0.23651 0.80599 0.0
C604 C 0.3021 0.23281 0.83196 0.0
C605 C 0.31997 0.23628 0.84328 0.0
C606 C 0.30871 0.24693 0.76371 0.0
C607 C 0.28736 0.22538 0.84778 0.0
C608 C 0.22526 0.29097 0.79762 0.0
C609 C 0.2077 0.28812 0.78541 0.0
C610 C 0.20311 0.27147 0.77217 0.0
C611 C 0.21634 0.25705 0.7714 0.0
C612 C 0.21216 0.24 0.75867 0.0
C613 C 0.22525 0.22586 0.75835 0.0
C614 C 0.24311 0.22833 0.77044 0.0
C615 C 0.25649 0.21404 0.77031 0.0
C616 C 0.27423 0.21709 0.782 0.0
C617 C 0.27901 0.23409 0.79416 0.0
C618 C 0.26571 0.24843 0.79495 0.0
C619 C 0.26996 0.2656 0.80738 0.0
C620 C 0.25674 0.27955 0.8083 0.0
C621 C 0.2388 0.27692 0.79666 0.0
C622 C 0.23427 0.25983 0.7837 0.0
C623 C 0.24771 0.24553 0.78301 0.0
C624 C 0.20919 0.13236 0.69614 0.0
C625 C 0.22795 0.1423 0.69841 0.0
O626 O 0.23998 0.35892 0.85187 0.0
O627 O 0.35114 0.24751 0.83986 0.0
O628 O 0.23331 0.14552 0.72389 0.0
O629 O 0.12982 0.27782 0.73017 0.0
H630 H 0.2376 0.37871 0.82483 0.0
H631 H 0.26987 0.36556 0.82579 0.0
H632 H 0.27406 0.37338 0.85841 0.0
H633 H 0.2704 0.38998 0.83365 0.0
H634 H 0.22872 0.32912 0.87089 0.0
H635 H 0.24322 0.35294 0.80151 0.0
H636 H 0.20667 0.28914 0.84309 0.0
H637 H 0.21801 0.29836 0.8724 0.0
H638 H 0.23025 0.28311 0.85161 0.0
H639 H 0.24334 0.33593 0.76309 0.0
H640 H 0.22426 0.31972 0.75964 0.0
H641 H 0.24735 0.31139 0.76627 0.0
H642 H 0.13485 0.30527 0.72327 0.0
H643 H 0.10827 0.31699 0.74652 0.0
H644 H 0.10276 0.29354 0.75462 0.0
H645 H 0.12452 0.30391 0.76616 0.0
H646 H 0.15961 0.28697 0.7072 0.0
H647 H 0.13953 0.26005 0.7709 0.0
H648 H 0.20776 0.27526 0.72028 0.0
H649 H 0.2021 0.29835 0.73062 0.0
H650 H 0.19169 0.28893 0.70094 0.0
H651 H 0.15957 0.2486 0.80404 0.0
H652 H 0.17853 0.26461 0.81136 0.0
H653 H 0.18272 0.24272 0.79583 0.0
H654 H 0.22564 0.1556 0.68858 0.0
H655 H 0.25134 0.1722 0.70107 0.0
H656 H 0.23212 0.1543 0.77132 0.0
H657 H 0.25484 0.21884 0.71613 0.0
H658 H 0.26548 0.20111 0.69714 0.0
H659 H 0.27739 0.21042 0.72602 0.0
H660 H 0.23601 0.17245 0.80934 0.0
H661 H 0.23172 0.19656 0.80307 0.0
H662 H 0.2549 0.18892 0.81099 0.0
H663 H 0.34303 0.25609 0.87513 0.0
H664 H 0.36113 0.28533 0.87661 0.0
H665 H 0.34476 0.28344 0.8493 0.0
H666 H 0.36905 0.27964 0.84551 0.0
H667 H 0.34114 0.25147 0.79244 0.0
H668 H 0.32305 0.23322 0.86307 0.0
H669 H 0.29772 0.2576 0.7614 0.0
H670 H 0.30357 0.23416 0.75319 0.0
H671 H 0.32129 0.25189 0.75504 0.0
H672 H 0.29282 0.22248 0.86744 0.0
H673 H 0.28139 0.21241 0.83869 0.0
H674 H 0.27593 0.23559 0.84873 0.0
H675 H 0.19746 0.29908 0.78612 0.0
H676 H 0.19867 0.23738 0.749 0.0
H677 H 0.2212 0.21297 0.74841 0.0
H678 H 0.28442 0.20606 0.7817 0.0
H679 H 0.28354 0.26844 0.81666 0.0
H680 H 0.26079 0.29244 0.81823 0.0
H681 H 0.2099 0.11913 0.70634 0.0
H682 H 0.20471 0.12938 0.67584 0.0
H683 H 0.19858 0.14132 0.70457 0.0
C684 C 0.81935 0.29063 0.62101 0.0
C685 C 0.83461 0.29543 0.64191 0.0
C686 C 0.82346 0.28267 0.68083 0.0
C687 C 0.82696 0.26947 0.6993 0.0
C688 C 0.81591 0.26831 0.72001 0.0
C689 C 0.80065 0.28041 0.72189 0.0
C690 C 0.79704 0.29389 0.70332 0.0
C691 C 0.80859 0.29503 0.68317 0.0
C692 C 0.82048 0.25408 0.73977 0.0
C693 C 0.78094 0.30711 0.70469 0.0
C694 C 0.78521 0.38773 0.86256 0.0
C695 C 0.78164 0.37346 0.84199 0.0
C696 C 0.78429 0.34029 0.8329 0.0
C697 C 0.77143 0.34009 0.81162 0.0
C698 C 0.76884 0.32417 0.79581 0.0
C699 C 0.77941 0.30811 0.80119 0.0
C700 C 0.79197 0.30805 0.82297 0.0
C701 C 0.79415 0.32414 0.83866 0.0
C702 C 0.75502 0.32463 0.77303 0.0
C703 C 0.80332 0.29109 0.82932 0.0
C704 C 0.67681 0.24085 0.83205 0.0
C705 C 0.67775 0.25401 0.81308 0.0
C706 C 0.69191 0.25334 0.79623 0.0
C707 C 0.70583 0.23962 0.79883 0.0
C708 C 0.7051 0.2265 0.81806 0.0
C709 C 0.69048 0.2272 0.83426 0.0
C710 C 0.69183 0.26726 0.77547 0.0
C711 C 0.71973 0.21174 0.82146 0.0
C712 C 0.72323 0.18869 0.61541 0.0
C713 C 0.72754 0.17455 0.636 0.0
C714 C 0.71918 0.18871 0.67573 0.0
C715 C 0.708 0.20418 0.67937 0.0
C716 C 0.71159 0.21642 0.70035 0.0
C717 C 0.72632 0.21261 0.71855 0.0
C718 C 0.73718 0.19646 0.71541 0.0
C719 C 0.73363 0.1848 0.69376 0.0
C720 C 0.69972 0.2335 0.70288 0.0
C721 C 0.75253 0.19153 0.73484 0.0
C722 C 0.78826 0.27885 0.74301 0.0
C723 C 0.7902 0.29192 0.76316 0.0
C724 C 0.77824 0.29202 0.78283 0.0
C725 C 0.76437 0.27822 0.7831 0.0
C726 C 0.75243 0.2776 0.80295 0.0
C727 C 0.73835 0.26439 0.8025 0.0
C728 C 0.73555 0.25146 0.78205 0.0
C729 C 0.72065 0.23866 0.78071 0.0
C730 C 0.71852 0.22576 0.76035 0.0
C731 C 0.73042 0.22569 0.74061 0.0
C732 C 0.74507 0.23874 0.74123 0.0
C733 C 0.75681 0.23962 0.72118 0.0
C734 C 0.77103 0.25263 0.7218 0.0
C735 C 0.77402 0.26536 0.74244 0.0
C736 C 0.76219 0.26492 0.76271 0.0
C737 C 0.74772 0.25156 0.76214 0.0
C738 C 0.65772 0.27092 0.86676 0.0
C739 C 0.64952 0.25413 0.85134 0.0
O740 O 0.83462 0.28279 0.66112 0.0
O741 O 0.71549 0.17741 0.65502 0.0
O742 O 0.66307 0.24075 0.84846 0.0
O743 O 0.78767 0.35579 0.84795 0.0
H744 H 0.83211 0.30964 0.64977 0.0
H745 H 0.80545 0.29172 0.62854 0.0
H746 H 0.82099 0.27625 0.61333 0.0
H747 H 0.81987 0.3004 0.60525 0.0
H748 H 0.83849 0.26005 0.69746 0.0
H749 H 0.80572 0.30549 0.66927 0.0
H750 H 0.82072 0.26064 0.75912 0.0
H751 H 0.83407 0.24734 0.73729 0.0
H752 H 0.80959 0.24319 0.73844 0.0
H753 H 0.77833 0.31479 0.68691 0.0
H754 H 0.78398 0.31734 0.7206 0.0
H755 H 0.76811 0.29954 0.70848 0.0
H756 H 0.78486 0.37764 0.82263 0.0
H757 H 0.795 0.39791 0.85472 0.0
H758 H 0.79602 0.38194 0.87665 0.0
H759 H 0.75676 0.39545 0.87344 0.0
H760 H 0.76344 0.35236 0.80708 0.0
H761 H 0.80393 0.32432 0.8552 0.0
H762 H 0.76224 0.32215 0.75537 0.0
H763 H 0.74761 0.33808 0.77174 0.0
H764 H 0.74465 0.31338 0.77399 0.0
H765 H 0.81159 0.29282 0.84779 0.0
H766 H 0.81289 0.28816 0.81414 0.0
H767 H 0.79407 0.27886 0.83004 0.0
H768 H 0.64392 0.25861 0.83238 0.0
H769 H 0.66749 0.26481 0.81101 0.0
H770 H 0.68973 0.21712 0.84891 0.0
H771 H 0.70339 0.27725 0.7797 0.0
H772 H 0.67867 0.27519 0.77368 0.0
H773 H 0.69396 0.26019 0.75689 0.0
H774 H 0.71834 0.20388 0.83897 0.0
H775 H 0.73375 0.2181 0.82231 0.0
H776 H 0.7186 0.20185 0.80485 0.0
H777 H 0.74216 0.17663 0.64373 0.0
H778 H 0.73313 0.18737 0.6003 0.0
H779 H 0.72448 0.20298 0.62387 0.0
H780 H 0.70889 0.18668 0.60673 0.0
H781 H 0.69673 0.20687 0.66537 0.0
H782 H 0.74194 0.1725 0.691 0.0
H783 H 0.70856 0.24598 0.70684 0.0
H784 H 0.69093 0.23207 0.71911 0.0
H785 H 0.69052 0.23569 0.68549 0.0
H786 H 0.75768 0.1772 0.73165 0.0
H787 H 0.74766 0.19286 0.75431 0.0
H788 H 0.7643 0.20128 0.73383 0.0
H789 H 0.80075 0.30261 0.76301 0.0
H790 H 0.75382 0.28736 0.819 0.0
H791 H 0.72955 0.26456 0.81828 0.0
H792 H 0.70696 0.21611 0.75934 0.0
H793 H 0.75511 0.23033 0.70466 0.0
H794 H 0.77956 0.25266 0.70575 0.0
H795 H 0.64693 0.28168 0.86912 0.0
H796 H 0.6691 0.27717 0.85685 0.0
H797 H 0.66337 0.26672 0.88583 0.0
C798 C 0.7506 0.64234 0.81904 0.0
C799 C 0.77103 0.64383 0.82891 0.0
C800 C 0.77886 0.6768 0.82465 0.0
C801 C 0.78362 0.69324 0.83827 0.0
C802 C 0.78755 0.70949 0.8258 0.0
C803 C 0.78626 0.70936 0.79892 0.0
C804 C 0.78148 0.69278 0.78495 0.0
C805 C 0.77799 0.67661 0.79793 0.0
C806 C 0.79306 0.72678 0.8414 0.0
C807 C 0.77999 0.69214 0.75627 0.0
C808 C 0.90478 0.71401 0.74381 0.0
C809 C 0.89101 0.721 0.72298 0.0
C810 C 0.86679 0.74126 0.73717 0.0
C811 C 0.85144 0.73463 0.72184 0.0
C812 C 0.83345 0.73662 0.72989 0.0
C813 C 0.83084 0.74528 0.75383 0.0
C814 C 0.84626 0.75277 0.76875 0.0
C815 C 0.86407 0.7509 0.75998 0.0
C816 C 0.81728 0.72892 0.71317 0.0
C817 C 0.844 0.76207 0.79436 0.0
C818 C 0.77772 0.85782 0.73417 0.0
C819 C 0.77079 0.84428 0.71621 0.0
C820 C 0.76505 0.82689 0.72396 0.0
C821 C 0.76644 0.82296 0.75011 0.0
C822 C 0.77291 0.8368 0.76823 0.0
C823 C 0.77825 0.85414 0.75998 0.0
C824 C 0.75761 0.81266 0.70425 0.0
C825 C 0.77439 0.83318 0.79629 0.0
C826 C 0.6593 0.7421 0.81937 0.0
C827 C 0.66547 0.76058 0.8323 0.0
C828 C 0.68475 0.77758 0.80535 0.0
C829 C 0.68681 0.77665 0.77925 0.0
C830 C 0.70417 0.77956 0.76971 0.0
C831 C 0.71963 0.78398 0.78679 0.0
C832 C 0.7173 0.78608 0.81315 0.0
C833 C 0.69986 0.78275 0.82216 0.0
C834 C 0.70613 0.77738 0.74151 0.0
C835 C 0.73332 0.79145 0.83181 0.0
C836 C 0.79005 0.72658 0.78551 0.0
C837 C 0.80748 0.7286 0.77609 0.0
C838 C 0.81231 0.74476 0.76423 0.0
C839 C 0.79962 0.75964 0.76232 0.0
C840 C 0.80427 0.77641 0.75153 0.0
C841 C 0.79182 0.79114 0.75044 0.0
C842 C 0.77405 0.78947 0.75945 0.0
C843 C 0.76133 0.80438 0.75865 0.0
C844 C 0.7437 0.80211 0.7674 0.0
C845 C 0.7384 0.78536 0.77729 0.0
C846 C 0.75101 0.77039 0.77863 0.0
C847 C 0.74618 0.75339 0.78869 0.0
C848 C 0.7589 0.73899 0.79084 0.0
C849 C 0.77687 0.74094 0.78273 0.0
C850 C 0.7818 0.75767 0.77155 0.0
C851 C 0.76892 0.7725 0.76977 0.0
C852 C 0.80868 0.89075 0.71082 0.0
C853 C 0.79172 0.87831 0.70486 0.0
O854 O 0.77512 0.66167 0.83814 0.0
O855 O 0.66806 0.7734 0.81388 0.0
O856 O 0.78394 0.87456 0.72739 0.0
O857 O 0.88434 0.73818 0.73058 0.0
H858 H 0.77996 0.64013 0.81317 0.0
H859 H 0.7476 0.65162 0.80296 0.0
H860 H 0.74136 0.6463 0.83427 0.0
H861 H 0.7473 0.62791 0.81218 0.0
H862 H 0.78434 0.69326 0.85885 0.0
H863 H 0.77446 0.66402 0.787 0.0
H864 H 0.80583 0.73288 0.83458 0.0
H865 H 0.79553 0.72402 0.86193 0.0
H866 H 0.78189 0.73726 0.83915 0.0
H867 H 0.77409 0.67882 0.74821 0.0
H868 H 0.79398 0.69395 0.7493 0.0
H869 H 0.77118 0.70369 0.74904 0.0
H870 H 0.87959 0.71057 0.72057 0.0
H871 H 0.91037 0.70027 0.73807 0.0
H872 H 0.91648 0.72392 0.74772 0.0
H873 H 0.89768 0.71246 0.76161 0.0
H874 H 0.85358 0.72771 0.70375 0.0
H875 H 0.87606 0.75618 0.77147 0.0
H876 H 0.80602 0.73935 0.71142 0.0
H877 H 0.81165 0.71657 0.72202 0.0
H878 H 0.8213 0.72475 0.69387 0.0
H879 H 0.85738 0.76721 0.80361 0.0
H880 H 0.83784 0.75214 0.80703 0.0
H881 H 0.83432 0.77394 0.79225 0.0
H882 H 0.79683 0.86528 0.69584 0.0
H883 H 0.76974 0.8473 0.69621 0.0
H884 H 0.78337 0.86479 0.77367 0.0
H885 H 0.76712 0.8006 0.70393 0.0
H886 H 0.7561 0.81831 0.6849 0.0
H887 H 0.7439 0.80752 0.70927 0.0
H888 H 0.78067 0.84503 0.80781 0.0
H889 H 0.7829 0.82062 0.79996 0.0
H890 H 0.76038 0.83049 0.80272 0.0
H891 H 0.67868 0.75805 0.84379 0.0
H892 H 0.65723 0.73158 0.83382 0.0
H893 H 0.67013 0.73692 0.807 0.0
H894 H 0.64616 0.74378 0.80746 0.0
H895 H 0.67492 0.77293 0.76644 0.0
H896 H 0.698 0.78412 0.84233 0.0
H897 H 0.71659 0.76655 0.73776 0.0
H898 H 0.71117 0.79057 0.73421 0.0
H899 H 0.69284 0.7735 0.73082 0.0
H900 H 0.72875 0.7948 0.85109 0.0
H901 H 0.74073 0.80363 0.82509 0.0
H902 H 0.74333 0.77982 0.83319 0.0
H903 H 0.81745 0.71742 0.77803 0.0
H904 H 0.8177 0.77843 0.74417 0.0
H905 H 0.79628 0.80383 0.74233 0.0
H906 H 0.73406 0.81364 0.76686 0.0
H907 H 0.73256 0.75106 0.79528 0.0
H908 H 0.75445 0.7263 0.79897 0.0
H909 H 0.81535 0.8938 0.69309 0.0
H910 H 0.81895 0.88363 0.72373 0.0
H911 H 0.8047 0.90402 0.72025 0.0
C912 C 0.02914 0.31622 0.55722 0.0
C913 C 0.0349 0.33401 0.56499 0.0
C914 C 0.03058 0.34525 0.545 0.0
C915 C 0.02226 0.33383 0.52624 0.0
N916 N 0.02086 0.31616 0.53338 0.0
Co917 Co 0.0095 0.29535 0.51227 0.0
N918 N 0.99659 0.31254 0.48863 0.0
C919 C 0.00099 0.33038 0.48557 0.0
C920 C 0.98911 0.33873 0.46797 0.0
C921 C 0.97649 0.32525 0.45959 0.0
C922 C 0.9814 0.30945 0.47267 0.0
N923 N 0.99801 0.27466 0.49114 0.0
C924 C 0.98254 0.27472 0.47518 0.0
C925 C 0.97864 0.25703 0.46505 0.0
C926 C 0.99241 0.24568 0.47478 0.0
C927 C 0.00381 0.25697 0.49044 0.0
N928 N 0.0226 0.27798 0.53556 0.0
C929 C 0.02604 0.25998 0.53011 0.0
C930 C 0.03623 0.25152 0.5493 0.0
C931 C 0.0396 0.26509 0.56782 0.0
C932 C 0.03118 0.28117 0.55891 0.0
N933 N 0.98825 0.2957 0.53304 0.0
C934 C 0.95634 0.29583 0.56017 0.0
C935 C 0.96585 0.27929 0.55535 0.0
C936 C 0.98168 0.27952 0.5417 0.0
C937 C 0.96348 0.31236 0.55155 0.0
C938 C 0.97948 0.31201 0.53822 0.0
N939 N 0.03081 0.29494 0.49145 0.0
C940 C 0.04367 0.28967 0.451 0.0
C941 C 0.06171 0.29073 0.46263 0.0
C942 C 0.06384 0.2949 0.48879 0.0
C943 C 0.04831 0.29675 0.50281 0.0
C944 C 0.02843 0.292 0.4657 0.0
H945 H 0.05057 0.29922 0.523 0.0
H946 H 0.01471 0.29087 0.45634 0.0
H947 H 0.98846 0.26654 0.53785 0.0
H948 H 0.98454 0.32491 0.53167 0.0
C949 C 0.01338 0.33957 0.50335 0.0
C950 C 0.03352 0.29951 0.57173 0.0
C951 C 0.97197 0.29152 0.46891 0.0
C952 C 0.01739 0.25099 0.50851 0.0
H953 H 0.04182 0.33839 0.58304 0.0
H954 H 0.03279 0.36006 0.54449 0.0
H955 H 0.98895 0.35314 0.46292 0.0
H956 H 0.96492 0.32688 0.44569 0.0
H957 H 0.96703 0.25262 0.45228 0.0
H958 H 0.99334 0.2308 0.47193 0.0
H959 H 0.04041 0.23714 0.54998 0.0
H960 H 0.04775 0.26337 0.58556 0.0
H961 H 0.96114 0.2662 0.56203 0.0
H962 H 0.95655 0.32548 0.55448 0.0
H963 H 0.04123 0.28643 0.43088 0.0
H964 H 0.07743 0.29645 0.49861 0.0
C965 C 0.69726 0.03575 0.55332 0.0
C966 C 0.68083 0.04128 0.56338 0.0
C967 C 0.66801 0.02768 0.55661 0.0
C968 C 0.67719 0.01475 0.54258 0.0
N969 N 0.69497 0.01941 0.5401 0.0
Co970 Co 0.71282 0.0056 0.51974 0.0
N971 N 0.69259 0.99166 0.50015 0.0
C972 C 0.67497 0.99016 0.50661 0.0
C973 C 0.66397 0.9798 0.48927 0.0
C974 C 0.67545 0.97416 0.47097 0.0
C975 C 0.69294 0.9813 0.47831 0.0
N976 N 0.73083 0.99181 0.4996 0.0
C977 C 0.72803 0.98113 0.47807 0.0
C978 C 0.74459 0.97337 0.47108 0.0
C979 C 0.75808 0.97915 0.4891 0.0
C980 C 0.74911 0.9901 0.50605 0.0
N981 N 0.73294 0.01953 0.53941 0.0
C982 C 0.75088 0.0146 0.54214 0.0
C983 C 0.76148 0.027 0.5572 0.0
C984 C 0.7494 0.04055 0.56435 0.0
C985 C 0.73209 0.03563 0.55309 0.0
N986 N 0.71452 0.98625 0.54485 0.0
C987 C 0.72254 0.95872 0.5801 0.0
C988 C 0.72142 0.97741 0.58802 0.0
C989 C 0.71723 0.99091 0.57016 0.0
C990 C 0.71823 0.95406 0.55437 0.0
C991 C 0.71435 0.96798 0.53712 0.0
N992 N 0.71129 0.02498 0.49475 0.0
C993 C 0.72648 0.04729 0.4704 0.0
C994 C 0.70933 0.05462 0.46187 0.0
C995 C 0.69317 0.04651 0.46965 0.0
C996 C 0.69445 0.03178 0.48616 0.0
C997 C 0.72715 0.03239 0.48663 0.0
H998 H 0.6818 0.02615 0.49237 0.0
H999 H 0.74054 0.02708 0.49299 0.0
H1000 H 0.717 0.00522 0.57672 0.0
H1001 H 0.71191 0.96392 0.51738 0.0
C1002 C 0.66872 0.0007 0.527 0.0
C1003 C 0.71496 0.04582 0.55702 0.0
C1004 C 0.7098 0.97586 0.46595 0.0
C1005 C 0.75762 0.00047 0.52655 0.0
H1006 H 0.67812 0.05392 0.57403 0.0
H1007 H 0.65344 0.02785 0.56008 0.0
H1008 H 0.64929 0.97702 0.48957 0.0
H1009 H 0.67151 0.96538 0.45445 0.0
H1010 H 0.74663 0.964 0.45508 0.0
H1011 H 0.77271 0.97589 0.48964 0.0
H1012 H 0.77632 0.0267 0.56154 0.0
H1013 H 0.7529 0.05262 0.57646 0.0
H1014 H 0.72465 0.98178 0.60765 0.0
H1015 H 0.71836 0.93979 0.54739 0.0
H1016 H 0.7393 0.05301 0.46458 0.0
H1017 H 0.67963 0.05185 0.46365 0.0
C1018 C 0.0349 0.73222 0.5291 0.0
C1019 C 0.04342 0.74915 0.53557 0.0
C1020 C 0.0326 0.76245 0.52443 0.0
C1021 C 0.01826 0.75296 0.51161 0.0
N1022 N 0.01911 0.73437 0.51409 0.0
Co1023 Co 0.00211 0.71527 0.49647 0.0
N1024 N 0.98655 0.73492 0.47945 0.0
C1025 C 0.98873 0.75351 0.48249 0.0
C1026 C 0.97546 0.76352 0.46924 0.0
C1027 C 0.96397 0.75058 0.45713 0.0
C1028 C 0.97103 0.73333 0.46362 0.0
N1029 N 0.98552 0.69615 0.4781 0.0
C1030 C 0.97039 0.69824 0.46178 0.0
C1031 C 0.96306 0.68129 0.45289 0.0
C1032 C 0.97386 0.66797 0.46414 0.0
C1033 C 0.98715 0.67752 0.4791 0.0
N1034 N 0.01724 0.69566 0.51423 0.0
C1035 C 0.01412 0.67716 0.51283 0.0
C1036 C 0.02662 0.66722 0.52757 0.0
C1037 C 0.03854 0.68011 0.53893 0.0
C1038 C 0.03268 0.69723 0.53024 0.0
N1039 N 0.98576 0.71643 0.52519 0.0
C1040 C 0.96293 0.71827 0.56643 0.0
C1041 C 0.96652 0.70134 0.55408 0.0
C1042 C 0.97784 0.70075 0.53365 0.0
C1043 C 0.97083 0.73425 0.55755 0.0
C1044 C 0.98211 0.73302 0.53718 0.0
N1045 N 0.01858 0.71417 0.46788 0.0
C1046 C 0.04015 0.69743 0.44254 0.0
C1047 C 0.04492 0.71372 0.431 0.0
C1048 C 0.03581 0.73004 0.43753 0.0
C1049 C 0.02287 0.72997 0.45585 0.0
C1050 C 0.02683 0.69792 0.46057 0.0
H1051 H 0.01686 0.74301 0.46034 0.0
H1052 H 0.02366 0.68504 0.46861 0.0
H1053 H 0.98004 0.68743 0.52511 0.0
H1054 H 0.98771 0.74573 0.53153 0.0
C1055 C 0.00381 0.76114 0.49713 0.0
C1056 C 0.04263 0.71446 0.53701 0.0
C1057 C 0.96232 0.71591 0.45451 0.0
C1058 C 0.00036 0.66946 0.49581 0.0
H1059 H 0.05628 0.75172 0.54685 0.0
H1060 H 0.03503 0.77727 0.52526 0.0
H1061 H 0.97429 0.77845 0.46843 0.0
H1062 H 0.95175 0.75355 0.44495 0.0
H1063 H 0.95101 0.67883 0.43986 0.0
H1064 H 0.97201 0.6531 0.4621 0.0
H1065 H 0.02728 0.65233 0.52929 0.0
H1066 H 0.05044 0.67721 0.55177 0.0
H1067 H 0.96092 0.6885 0.56037 0.0
H1068 H 0.96823 0.74777 0.56611 0.0
H1069 H 0.04668 0.68439 0.43775 0.0
H1070 H 0.03914 0.74305 0.42921 0.0
C1071 C 0.31236 0.97523 0.55571 0.0
C1072 C 0.32952 0.96832 0.56423 0.0
C1073 C 0.34255 0.98084 0.55784 0.0
C1074 C 0.33271 0.99454 0.54555 0.0
N1075 N 0.31433 0.99135 0.54374 0.0
Co1076 Co 0.29515 0.00684 0.52602 0.0
N1077 N 0.31382 0.0193 0.50667 0.0
C1078 C 0.33224 0.01962 0.51251 0.0
C1079 C 0.34172 0.02971 0.49603 0.0
C1080 C 0.3284 0.03632 0.47893 0.0
C1081 C 0.31147 0.02987 0.48596 0.0
N1082 N 0.27584 0.02226 0.50841 0.0
C1083 C 0.27661 0.03233 0.48734 0.0
C1084 C 0.25984 0.04118 0.48165 0.0
C1085 C 0.24841 0.03682 0.50021 0.0
C1086 C 0.25871 0.02551 0.51606 0.0
N1087 N 0.27654 0.99454 0.54556 0.0
C1088 C 0.25958 0.00106 0.54991 0.0
C1089 C 0.25 0.98971 0.56476 0.0
C1090 C 0.26171 0.9752 0.5701 0.0
C1091 C 0.27779 0.97849 0.55803 0.0
N1092 N 0.2985 0.02597 0.55307 0.0
C1093 C 0.29588 0.05306 0.59192 0.0
C1094 C 0.29591 0.05797 0.56641 0.0
C1095 C 0.29757 0.04429 0.5474 0.0
C1096 C 0.299 0.03439 0.59755 0.0
C1097 C 0.30002 0.02109 0.57791 0.0
N1098 N 0.29159 0.98768 0.49916 0.0
C1099 C 0.27095 0.96834 0.47218 0.0
C1100 C 0.28602 0.95903 0.46246 0.0
C1101 C 0.30397 0.96444 0.47133 0.0
C1102 C 0.30646 0.97894 0.4895 0.0
C1103 C 0.27402 0.9825 0.49058 0.0
H1104 H 0.3204 0.98295 0.49592 0.0
H1105 H 0.26214 0.98912 0.4981 0.0
H1106 H 0.29699 0.04851 0.52799 0.0
H1107 H 0.30114 0.00675 0.58286 0.0
C1108 C 0.34025 0.00825 0.53122 0.0
C1109 C 0.29439 0.96684 0.56014 0.0
C1110 C 0.29349 0.03562 0.47419 0.0
C1111 C 0.25208 0.01582 0.5361 0.0
H1112 H 0.33246 0.95553 0.57378 0.0
H1113 H 0.35746 0.97954 0.56058 0.0
H1114 H 0.35656 0.03166 0.49604 0.0
H1115 H 0.33085 0.04515 0.46332 0.0
H1116 H 0.25637 0.0502 0.46606 0.0
H1117 H 0.23416 0.04108 0.50163 0.0
H1118 H 0.23593 0.99138 0.57021 0.0
H1119 H 0.25878 0.96358 0.58163 0.0
H1120 H 0.29358 0.0721 0.56077 0.0
H1121 H 0.29987 0.02986 0.61692 0.0
H1122 H 0.25684 0.96444 0.466 0.0
H1123 H 0.31597 0.95764 0.4641 0.0
C1124 C 0.53205 0.81156 0.03565 0.0
C1125 C 0.53843 0.8289 0.04457 0.0
C1126 C 0.53126 0.84145 0.02782 0.0
C1127 C 0.52088 0.83115 0.00977 0.0
N1128 N 0.5209 0.81276 0.01403 0.0
Co1129 Co 0.50757 0.79282 0.99256 0.0
N1130 N 0.49556 0.8115 0.96945 0.0
C1131 C 0.49802 0.8301 0.97071 0.0
C1132 C 0.48684 0.83934 0.9533 0.0
C1133 C 0.47625 0.82587 0.9406 0.0
C1134 C 0.48166 0.80919 0.95107 0.0
N1135 N 0.49459 0.77289 0.97067 0.0
C1136 C 0.48119 0.77432 0.9516 0.0
C1137 C 0.47537 0.757 0.94188 0.0
C1138 C 0.48527 0.74421 0.95556 0.0
C1139 C 0.49648 0.75436 0.97282 0.0
N1140 N 0.51895 0.77412 0.01619 0.0
C1141 C 0.51684 0.75548 0.01423 0.0
C1142 C 0.52628 0.74622 0.03328 0.0
C1143 C 0.53486 0.75974 0.04846 0.0
C1144 C 0.53007 0.77658 0.03779 0.0
N1145 N 0.48607 0.79472 0.01369 0.0
C1146 C 0.45479 0.79746 0.04244 0.0
C1147 C 0.46126 0.7802 0.0342 0.0
C1148 C 0.47684 0.77915 0.02002 0.0
C1149 C 0.46434 0.81331 0.03619 0.0
C1150 C 0.47981 0.81165 0.02187 0.0
N1151 N 0.52925 0.79091 0.97123 0.0
C1152 C 0.55336 0.77259 0.95305 0.0
C1153 C 0.56041 0.78813 0.94199 0.0
C1154 C 0.55155 0.80508 0.94559 0.0
C1155 C 0.5362 0.80617 0.96027 0.0
C1156 C 0.5379 0.77426 0.96732 0.0
H1157 H 0.53035 0.81955 0.96249 0.0
H1158 H 0.53331 0.7618 0.97492 0.0
H1159 H 0.48115 0.76561 0.01428 0.0
H1160 H 0.4864 0.82423 0.01743 0.0
C1161 C 0.50998 0.83849 0.98963 0.0
C1162 C 0.5368 0.79444 0.04855 0.0
C1163 C 0.47245 0.79166 0.94398 0.0
C1164 C 0.50659 0.74701 0.9936 0.0
H1165 H 0.5472 0.83221 0.06157 0.0
H1166 H 0.5331 0.85634 0.02896 0.0
H1167 H 0.48598 0.85415 0.95083 0.0
H1168 H 0.46539 0.82807 0.92583 0.0
H1169 H 0.46455 0.75379 0.92723 0.0
H1170 H 0.48365 0.72929 0.95412 0.0
H1171 H 0.52705 0.7314 0.03565 0.0
H1172 H 0.54383 0.7574 0.06532 0.0
H1173 H 0.45447 0.76751 0.03886 0.0
H1174 H 0.45972 0.82701 0.0419 0.0
H1175 H 0.5596 0.75908 0.95045 0.0
H1176 H 0.55662 0.81754 0.93749 0.0
C1177 C 0.20271 0.54162 0.05231 0.0
C1178 C 0.18533 0.54708 0.05927 0.0
C1179 C 0.17281 0.5354 0.04649 0.0
C1180 C 0.18323 0.52347 0.03264 0.0
N1181 N 0.20168 0.52663 0.03613 0.0
Co1182 Co 0.2219 0.51286 0.01954 0.0
N1183 N 0.2034 0.49753 0.99777 0.0
C1184 C 0.18471 0.49839 0.99771 0.0
C1185 C 0.17567 0.48624 0.98058 0.0
C1186 C 0.18939 0.47706 0.96895 0.0
C1187 C 0.20608 0.4842 0.97971 0.0
N1188 N 0.24217 0.49895 0.00315 0.0
C1189 C 0.24115 0.4853 0.98485 0.0
C1190 C 0.25864 0.47943 0.97877 0.0
C1191 C 0.27115 0.4896 0.99394 0.0
C1192 C 0.26066 0.50109 0.00828 0.0
N1193 N 0.24038 0.52846 0.04098 0.0
C1194 C 0.25909 0.5273 0.04156 0.0
C1195 C 0.26811 0.54065 0.05674 0.0
C1196 C 0.2544 0.55122 0.06613 0.0
C1197 C 0.23767 0.54356 0.05624 0.0
N1198 N 0.2222 0.49399 0.04629 0.0
C1199 C 0.22338 0.46461 0.0804 0.0
C1200 C 0.23947 0.4741 0.07539 0.0
C1201 C 0.23856 0.4886 0.05854 0.0
C1202 C 0.20657 0.47059 0.06885 0.0
C1203 C 0.20628 0.48524 0.05214 0.0
N1204 N 0.22166 0.53149 0.99277 0.0
C1205 C 0.23826 0.55043 0.96504 0.0
C1206 C 0.22169 0.5563 0.95266 0.0
C1207 C 0.20504 0.55004 0.96135 0.0
C1208 C 0.20534 0.53774 0.98133 0.0
C1209 C 0.23792 0.53816 0.98483 0.0
H1210 H 0.19224 0.53327 0.98701 0.0
H1211 H 0.25103 0.53413 0.99328 0.0
H1212 H 0.2514 0.4949 0.05537 0.0
H1213 H 0.19304 0.48899 0.04393 0.0
C1214 C 0.17606 0.51047 0.01437 0.0
C1215 C 0.21963 0.55176 0.06041 0.0
C1216 C 0.22406 0.47749 0.97265 0.0
C1217 C 0.26779 0.5144 0.02611 0.0
H1218 H 0.18205 0.55866 0.07172 0.0
H1219 H 0.15786 0.53599 0.04652 0.0
H1220 H 0.16087 0.4842 0.97711 0.0
H1221 H 0.18735 0.46621 0.95437 0.0
H1222 H 0.26203 0.46893 0.96474 0.0
H1223 H 0.28611 0.48883 0.99431 0.0
H1224 H 0.28291 0.54289 0.05981 0.0
H1225 H 0.25665 0.56351 0.0782 0.0
H1226 H 0.25289 0.46996 0.08369 0.0
H1227 H 0.19365 0.46392 0.07251 0.0
H1228 H 0.25152 0.55523 0.95947 0.0
H1229 H 0.19183 0.55418 0.95237 0.0
C1230 C 0.47535 0.23378 0.98497 0.0
C1231 C 0.4679 0.25153 0.98439 0.0
C1232 C 0.47511 0.26097 0.00578 0.0
C1233 C 0.48656 0.24856 0.0182 0.0
N1234 N 0.48722 0.23198 0.00575 0.0
Co1235 Co 0.50155 0.2101 0.01766 0.0
N1236 N 0.51749 0.2257 0.04182 0.0
C1237 C 0.51344 0.24275 0.05088 0.0
C1238 C 0.52712 0.24996 0.06774 0.0
C1239 C 0.54056 0.23655 0.06936 0.0
C1240 C 0.5343 0.22192 0.05325 0.0
N1241 N 0.51592 0.18833 0.02981 0.0
C1242 C 0.53305 0.18772 0.04187 0.0
C1243 C 0.53846 0.16952 0.04574 0.0
C1244 C 0.524 0.15847 0.03618 0.0
C1245 C 0.51068 0.17046 0.02679 0.0
N1246 N 0.48551 0.19443 0.9936 0.0
C1247 C 0.48356 0.1759 0.99428 0.0
C1248 C 0.47128 0.1688 0.97543 0.0
C1249 C 0.46493 0.18383 0.96227 0.0
C1250 C 0.47367 0.19933 0.97395 0.0
N1251 N 0.51893 0.21353 0.99155 0.0
C1252 C 0.5457 0.21864 0.95668 0.0
C1253 C 0.53877 0.20091 0.96057 0.0
C1254 C 0.52524 0.19868 0.97791 0.0
C1255 C 0.53874 0.23375 0.9703 0.0
C1256 C 0.52548 0.2309 0.98769 0.0
N1257 N 0.48424 0.20687 0.04402 0.0
C1258 C 0.47908 0.2044 0.08828 0.0
C1259 C 0.46031 0.20889 0.08349 0.0
C1260 C 0.45357 0.21084 0.05815 0.0
C1261 C 0.46569 0.20957 0.03875 0.0
C1262 C 0.49079 0.20355 0.06835 0.0
H1263 H 0.46014 0.21176 0.01963 0.0
H1264 H 0.50532 0.20102 0.07285 0.0
H1265 H 0.5201 0.18492 0.98056 0.0
H1266 H 0.52078 0.24275 0.99837 0.0
C1267 C 0.49857 0.25264 0.03965 0.0
C1268 C 0.46888 0.21847 0.96753 0.0
C1269 C 0.54396 0.2042 0.05053 0.0
C1270 C 0.49521 0.16549 0.0106 0.0
H1271 H 0.45786 0.25693 0.97037 0.0
H1272 H 0.47253 0.27525 0.01137 0.0
H1273 H 0.52764 0.2636 0.07694 0.0
H1274 H 0.55343 0.2374 0.0811 0.0
H1275 H 0.55151 0.16462 0.05422 0.0
H1276 H 0.52371 0.14347 0.0349 0.0
H1277 H 0.46769 0.15439 0.97135 0.0
H1278 H 0.45475 0.18346 0.94621 0.0
H1279 H 0.5437 0.1889 0.95022 0.0
H1280 H 0.54387 0.24766 0.96805 0.0
H1281 H 0.48489 0.20218 0.10739 0.0
H1282 H 0.43925 0.21438 0.05329 0.0
C1283 C 0.77194 0.52589 0.06062 0.0
C1284 C 0.75493 0.53139 0.06899 0.0
C1285 C 0.74174 0.52096 0.05544 0.0
C1286 C 0.75135 0.50977 0.03957 0.0
N1287 N 0.76994 0.51226 0.04232 0.0
Co1288 Co 0.78906 0.49924 0.02247 0.0
N1289 N 0.76941 0.48574 0.00028 0.0
C1290 C 0.75083 0.48742 0.00116 0.0
C1291 C 0.74085 0.47652 0.9834 0.0
C1292 C 0.75379 0.46725 0.97037 0.0
C1293 C 0.77102 0.47305 0.98105 0.0
N1294 N 0.80818 0.48579 0.00309 0.0
C1295 C 0.8061 0.47266 0.9841 0.0
C1296 C 0.82305 0.46635 0.9766 0.0
C1297 C 0.83637 0.47573 0.9915 0.0
C1298 C 0.82682 0.48716 0.00719 0.0
N1299 N 0.80864 0.51324 0.04413 0.0
C1300 C 0.82722 0.5119 0.0429 0.0
C1301 C 0.83711 0.5239 0.05935 0.0
C1302 C 0.82407 0.53376 0.07151 0.0
C1303 C 0.80693 0.52717 0.06169 0.0
N1304 N 0.78977 0.47875 0.04677 0.0
C1305 C 0.79107 0.44667 0.07595 0.0
C1306 C 0.8072 0.45657 0.07218 0.0
C1307 C 0.80623 0.47246 0.05773 0.0
C1308 C 0.7742 0.45373 0.06603 0.0
C1309 C 0.77387 0.46969 0.05183 0.0
N1310 N 0.78836 0.51957 0.99805 0.0
C1311 C 0.80399 0.53985 0.97084 0.0
C1312 C 0.78722 0.54812 0.96287 0.0
C1313 C 0.77106 0.54194 0.97293 0.0
C1314 C 0.77193 0.52774 0.99027 0.0
C1315 C 0.80426 0.52579 0.98842 0.0
H1316 H 0.7591 0.52356 0.99702 0.0
H1317 H 0.81748 0.52015 0.99394 0.0
H1318 H 0.81905 0.47915 0.05528 0.0
H1319 H 0.76058 0.4741 0.04459 0.0
C1320 C 0.74319 0.49844 0.01995 0.0
C1321 C 0.78944 0.5349 0.06924 0.0
C1322 C 0.78842 0.46563 0.97277 0.0
C1323 C 0.83491 0.49954 0.02564 0.0
H1324 H 0.75217 0.54226 0.0828 0.0
H1325 H 0.72687 0.52201 0.05625 0.0
H1326 H 0.72593 0.47518 0.9806 0.0
H1327 H 0.75088 0.45713 0.95501 0.0
H1328 H 0.82551 0.45597 0.96193 0.0
H1329 H 0.85124 0.47436 0.99098 0.0
H1330 H 0.85201 0.52553 0.06186 0.0
H1331 H 0.82683 0.54475 0.08574 0.0
H1332 H 0.82059 0.45198 0.08003 0.0
H1333 H 0.76126 0.44661 0.06827 0.0
H1334 H 0.8169 0.54435 0.96378 0.0
H1335 H 0.7577 0.54778 0.9671 0.0
H1336 H 0.17017 0.25774 0.41868 0.0
H1337 H 0.06732 0.29842 0.41277 0.0
H1338 H 0.1368 0.2623 0.34818 0.0
H1339 H 0.09384 0.27328 0.479 0.0
H1340 H 0.09432 0.29023 0.38924 0.0
H1341 H 0.14397 0.26896 0.44175 0.0
C1342 C 0.1574 0.26136 0.40807 0.0
C1343 C 0.15575 0.25939 0.3815 0.0
C1344 C 0.09417 0.28663 0.40898 0.0
C1345 C 0.12568 0.27199 0.4077 0.0
C1346 C 0.07874 0.2912 0.42242 0.0
C1347 C 0.07821 0.28661 0.44803 0.0
C1348 C 0.10927 0.2776 0.4213 0.0
C1349 C 0.09365 0.27752 0.45953 0.0
C1350 C 0.14244 0.26766 0.42121 0.0
C1351 C 0.13876 0.26393 0.36865 0.0
N1352 N 0.10851 0.27337 0.44611 0.0
N1353 N 0.12438 0.27008 0.38188 0.0
H1354 H 0.71564 0.16555 0.40576 0.0
H1355 H 0.68647 0.05982 0.41915 0.0
H1356 H 0.68327 0.13434 0.34728 0.0
H1357 H 0.72971 0.08664 0.4676 0.0
H1358 H 0.68413 0.08745 0.39349 0.0
H1359 H 0.72018 0.13721 0.42963 0.0
C1360 C 0.70973 0.15267 0.39777 0.0
C1361 C 0.6994 0.15219 0.37422 0.0
C1362 C 0.69421 0.08726 0.40965 0.0
C1363 C 0.70408 0.11984 0.40176 0.0
C1364 C 0.69547 0.07154 0.42436 0.0
C1365 C 0.70828 0.07096 0.44553 0.0
C1366 C 0.70567 0.10262 0.41633 0.0
C1367 C 0.71975 0.08646 0.4513 0.0
C1368 C 0.71227 0.13651 0.41143 0.0
C1369 C 0.6916 0.13522 0.36514 0.0
N1370 N 0.71808 0.10171 0.43689 0.0
N1371 N 0.69405 0.11975 0.37894 0.0
H1372 H 0.88206 0.75465 0.34267 0.0
H1373 H 0.92745 0.71194 0.46967 0.0
H1374 H 0.85163 0.74435 0.40816 0.0
H1375 H 0.95751 0.7221 0.40395 0.0
H1376 H 0.89839 0.71902 0.44512 0.0
H1377 H 0.90867 0.7384 0.36236 0.0
C1378 C 0.88088 0.74863 0.36101 0.0
C1379 C 0.86457 0.75067 0.37373 0.0
C1380 C 0.91128 0.71939 0.43588 0.0
C1381 C 0.89512 0.73245 0.3967 0.0
C1382 C 0.92778 0.71525 0.44984 0.0
C1383 C 0.94467 0.71652 0.43864 0.0
C1384 C 0.91184 0.72499 0.41068 0.0
C1385 C 0.94462 0.721 0.41306 0.0
C1386 C 0.89609 0.73942 0.3723 0.0
C1387 C 0.86391 0.74293 0.39767 0.0
N1388 N 0.92844 0.7253 0.39998 0.0
N1389 N 0.87902 0.73428 0.40847 0.0
H1390 H 0.27668 0.84179 0.38515 0.0
H1391 H 0.26315 0.95895 0.41922 0.0
H1392 H 0.24024 0.88849 0.32918 0.0
H1393 H 0.30138 0.92428 0.46239 0.0
H1394 H 0.2561 0.93293 0.38933 0.0
H1395 H 0.28622 0.87343 0.41891 0.0
C1396 C 0.27078 0.85536 0.38197 0.0
C1397 C 0.25952 0.86218 0.35079 0.0
C1398 C 0.26611 0.93101 0.40523 0.0
C1399 C 0.26971 0.89766 0.39257 0.0
C1400 C 0.27009 0.94584 0.42232 0.0
C1401 C 0.28279 0.9437 0.44331 0.0
C1402 C 0.2747 0.91386 0.40935 0.0
C1403 C 0.29156 0.92648 0.44633 0.0
C1404 C 0.27751 0.87511 0.40164 0.0
C1405 C 0.24776 0.88479 0.34672 0.0
N1406 N 0.2872 0.91209 0.42963 0.0
N1407 N 0.25565 0.9006 0.36735 0.0
H1408 H 0.15838 0.69671 0.58473 0.0
H1409 H 0.05238 0.72774 0.58507 0.0
H1410 H 0.1397 0.74237 0.63121 0.0
H1411 H 0.07452 0.6998 0.52049 0.0
H1412 H 0.08357 0.72859 0.60669 0.0
H1413 H 0.1268 0.69335 0.56478 0.0
C1414 C 0.14759 0.70586 0.59091 0.0
C1415 C 0.15159 0.71954 0.61004 0.0
C1416 C 0.08159 0.72222 0.58782 0.0
C1417 C 0.11562 0.71584 0.58737 0.0
C1418 C 0.06387 0.72171 0.5756 0.0
C1419 C 0.06112 0.71389 0.55099 0.0
C1420 C 0.09653 0.71459 0.57545 0.0
C1421 C 0.07626 0.70604 0.53945 0.0
C1422 C 0.12965 0.70399 0.57949 0.0
C1423 C 0.1372 0.73134 0.61698 0.0
N1424 N 0.09339 0.70659 0.55179 0.0
N1425 N 0.11984 0.72913 0.60577 0.0
H1426 H 0.2452 0.14916 0.65481 0.0
H1427 H 0.27734 0.04665 0.63458 0.0
H1428 H 0.24324 0.10918 0.71344 0.0
H1429 H 0.30169 0.09111 0.59506 0.0
H1430 H 0.26509 0.06933 0.66374 0.0
H1431 H 0.26583 0.12847 0.6322 0.0
C1432 C 0.24931 0.13612 0.66305 0.0
C1433 C 0.24237 0.13074 0.68585 0.0
C1434 C 0.27334 0.07411 0.64889 0.0
C1435 C 0.26569 0.107 0.66005 0.0
C1436 C 0.28055 0.0611 0.63221 0.0
C1437 C 0.29057 0.0668 0.61192 0.0
C1438 C 0.2757 0.09305 0.64506 0.0
C1439 C 0.29366 0.08594 0.60984 0.0
C1440 C 0.26111 0.12437 0.65021 0.0
C1441 C 0.24815 0.11373 0.69577 0.0
N1442 N 0.28597 0.09839 0.62591 0.0
N1443 N 0.25925 0.10234 0.68262 0.0
H1444 H 0.85317 0.26552 0.62228 0.0
H1445 H 0.94384 0.32213 0.5939 0.0
H1446 H 0.85865 0.32452 0.63675 0.0
H1447 H 0.92882 0.26941 0.55692 0.0
H1448 H 0.91461 0.32204 0.61447 0.0
H1449 H 0.88307 0.2654 0.60323 0.0
C1450 C 0.8607 0.27843 0.62145 0.0
C1451 C 0.85338 0.29507 0.63094 0.0
C1452 C 0.91777 0.3105 0.60186 0.0
C1453 C 0.88764 0.29501 0.60946 0.0
C1454 C 0.93442 0.31057 0.58999 0.0
C1455 C 0.93888 0.29577 0.57354 0.0
C1456 C 0.90555 0.29545 0.59751 0.0
C1457 C 0.92621 0.28099 0.56973 0.0
C1458 C 0.87773 0.27836 0.61057 0.0
C1459 C 0.86377 0.3114 0.6296 0.0
N1460 N 0.91016 0.2812 0.58164 0.0
N1461 N 0.8804 0.31096 0.61908 0.0
H1462 H 0.76565 0.90497 0.71553 0.0
H1463 H 0.74499 0.92913 0.57024 0.0
H1464 H 0.78721 0.87377 0.65311 0.0
H1465 H 0.71681 0.95582 0.63102 0.0
H1466 H 0.75883 0.90748 0.60022 0.0
H1467 H 0.74617 0.92259 0.6851 0.0
C1468 C 0.766 0.90161 0.69542 0.0
C1469 C 0.77788 0.88775 0.68678 0.0
C1470 C 0.74949 0.91795 0.60701 0.0
C1471 C 0.75601 0.90811 0.65188 0.0
C1472 C 0.74141 0.93029 0.5898 0.0
C1473 C 0.72967 0.94445 0.59802 0.0
C1474 C 0.74605 0.91982 0.6328 0.0
C1475 C 0.726 0.94538 0.62383 0.0
C1476 C 0.75495 0.9117 0.67806 0.0
C1477 C 0.77811 0.88421 0.66053 0.0
N1478 N 0.73429 0.93334 0.64034 0.0
N1479 N 0.76744 0.89439 0.64402 0.0
H1480 H 0.91677 0.74656 0.70998 0.0
H1481 H 0.93146 0.69832 0.57391 0.0
H1482 H 0.88658 0.69811 0.68031 0.0
H1483 H 0.96777 0.74055 0.6096 0.0
H1484 H 0.91296 0.6999 0.61091 0.0
H1485 H 0.93345 0.74674 0.67117 0.0
C1486 C 0.91353 0.7361 0.69513 0.0
C1487 C 0.90023 0.72236 0.69826 0.0
C1488 C 0.92496 0.70885 0.6106 0.0
C1489 C 0.91934 0.72234 0.65398 0.0
C1490 C 0.93561 0.70788 0.58953 0.0
C1491 C 0.95127 0.71928 0.58858 0.0
C1492 C 0.92994 0.72135 0.6309 0.0
C1493 C 0.9557 0.73166 0.60925 0.0
C1494 C 0.9231 0.73614 0.67306 0.0
C1495 C 0.89667 0.709 0.67858 0.0
N1496 N 0.94513 0.73234 0.62953 0.0
N1497 N 0.90618 0.70931 0.65729 0.0
H1498 H 0.25174 0.86285 0.60735 0.0
H1499 H 0.30961 0.95599 0.60634 0.0
H1500 H 0.30547 0.86862 0.64797 0.0
H1501 H 0.27493 0.93666 0.5411 0.0
H1502 H 0.30547 0.92608 0.62601 0.0
H1503 H 0.25696 0.89224 0.58692 0.0
C1504 C 0.26457 0.87035 0.61207 0.0
C1505 C 0.27808 0.86327 0.62952 0.0
C1506 C 0.29898 0.92831 0.60725 0.0
C1507 C 0.28405 0.89691 0.60644 0.0
C1508 C 0.30147 0.94526 0.59595 0.0
C1509 C 0.29311 0.94845 0.57172 0.0
C1510 C 0.28753 0.91475 0.59457 0.0
C1511 C 0.28189 0.9345 0.55959 0.0
C1512 C 0.26755 0.88703 0.60035 0.0
C1513 C 0.29453 0.87354 0.63487 0.0
N1514 N 0.27933 0.91826 0.5712 0.0
N1515 N 0.29697 0.88991 0.62353 0.0
H1516 H 0.09064 0.27567 0.71646 0.0
H1517 H 0.06899 0.31248 0.57674 0.0
H1518 H 0.12508 0.31564 0.68302 0.0
H1519 H 0.02689 0.28845 0.61932 0.0
H1520 H 0.09074 0.31166 0.61435 0.0
H1521 H 0.06816 0.27755 0.67958 0.0
C1522 C 0.09346 0.28481 0.70134 0.0
C1523 C 0.10967 0.29562 0.70288 0.0
C1524 C 0.07669 0.30678 0.61562 0.0
C1525 C 0.08418 0.29773 0.66065 0.0
C1526 C 0.06426 0.30739 0.59425 0.0
C1527 C 0.04606 0.30094 0.59526 0.0
C1528 C 0.07099 0.29925 0.638 0.0
C1529 C 0.04075 0.29384 0.61806 0.0
C1530 C 0.08063 0.28592 0.68038 0.0
C1531 C 0.11275 0.30711 0.68265 0.0
N1532 N 0.05321 0.29308 0.63855 0.0
N1533 N 0.10015 0.30783 0.66237 0.0
H1534 H 0.74966 0.15739 0.60246 0.0
H1535 H 0.70516 0.05722 0.6043 0.0
H1536 H 0.70144 0.147 0.64376 0.0
H1537 H 0.72876 0.07688 0.53744 0.0
H1538 H 0.70789 0.08859 0.62364 0.0
H1539 H 0.74652 0.12617 0.58282 0.0
C1540 C 0.73845 0.14855 0.60742 0.0
C1541 C 0.72579 0.15493 0.62473 0.0
C1542 C 0.7123 0.08606 0.60465 0.0
C1543 C 0.72237 0.11915 0.60273 0.0
C1544 C 0.71061 0.06826 0.59356 0.0
C1545 C 0.71612 0.06475 0.56893 0.0
C1546 C 0.72017 0.10022 0.59133 0.0
C1547 C 0.72401 0.07923 0.55629 0.0
C1548 C 0.73667 0.1308 0.59619 0.0
C1549 C 0.71159 0.1428 0.63061 0.0
N1550 N 0.72588 0.09638 0.56767 0.0
N1551 N 0.71035 0.12545 0.61976 0.0
H1552 H 0.8742 0.25507 0.37868 0.0
H1553 H 0.94008 0.30445 0.48719 0.0
H1554 H 0.85534 0.30042 0.42551 0.0
H1555 H 0.9612 0.27706 0.42149 0.0
H1556 H 0.90853 0.30171 0.46679 0.0
H1557 H 0.906 0.26134 0.39573 0.0
C1558 C 0.87675 0.26631 0.39261 0.0
C1559 C 0.86201 0.27685 0.40126 0.0
C1560 C 0.92007 0.29633 0.45683 0.0
C1561 C 0.89835 0.28411 0.42084 0.0
C1562 C 0.93799 0.29784 0.46847 0.0
C1563 C 0.95303 0.29047 0.45623 0.0
C1564 C 0.91728 0.28728 0.43287 0.0
C1565 C 0.9498 0.28234 0.43184 0.0
C1566 C 0.89489 0.26993 0.40225 0.0
C1567 C 0.86618 0.29156 0.41888 0.0
N1568 N 0.93223 0.28073 0.42106 0.0
N1569 N 0.88393 0.29458 0.42838 0.0
H1570 H 0.68762 0.86664 0.40027 0.0
H1571 H 0.71593 0.97381 0.41519 0.0
H1572 H 0.71417 0.89502 0.34198 0.0
H1573 H 0.70188 0.94055 0.47731 0.0
H1574 H 0.71405 0.94585 0.38695 0.0
H1575 H 0.69135 0.89433 0.42792 0.0
C1576 C 0.69435 0.8787 0.39336 0.0
C1577 C 0.70064 0.87852 0.36883 0.0
C1578 C 0.71138 0.9447 0.40676 0.0
C1579 C 0.70477 0.91044 0.40031 0.0
C1580 C 0.7124 0.9606 0.42274 0.0
C1581 C 0.70877 0.95936 0.44834 0.0
C1582 C 0.70665 0.92758 0.41659 0.0
C1583 C 0.70449 0.94201 0.45753 0.0
C1584 C 0.69647 0.89452 0.40914 0.0
C1585 C 0.70915 0.89461 0.3608 0.0
N1586 N 0.70343 0.92683 0.44164 0.0
N1587 N 0.71089 0.90998 0.37645 0.0
H1588 H 0.11483 0.75137 0.3183 0.0
H1589 H 0.0794 0.69793 0.43612 0.0
H1590 H 0.15155 0.72313 0.37205 0.0
H1591 H 0.04453 0.73082 0.38558 0.0
H1592 H 0.10525 0.70269 0.40935 0.0
H1593 H 0.08835 0.7398 0.33922 0.0
C1594 C 0.11729 0.74247 0.33431 0.0
C1595 C 0.13541 0.73809 0.34335 0.0
C1596 C 0.09188 0.70869 0.40397 0.0
C1597 C 0.1051 0.72507 0.36781 0.0
C1598 C 0.0771 0.70586 0.41913 0.0
C1599 C 0.05986 0.71416 0.41317 0.0
C1600 C 0.08934 0.71982 0.38268 0.0
C1601 C 0.05767 0.72443 0.39108 0.0
C1602 C 0.10216 0.73592 0.34632 0.0
C1603 C 0.13779 0.7267 0.36438 0.0
N1604 N 0.07226 0.72707 0.37676 0.0
N1605 N 0.12281 0.72067 0.37603 0.0
H1606 H 0.28332 0.14087 0.40137 0.0
H1607 H 0.29459 0.03176 0.42254 0.0
H1608 H 0.28764 0.10056 0.33993 0.0
H1609 H 0.29198 0.07277 0.48332 0.0
H1610 H 0.2933 0.0567 0.3918 0.0
H1611 H 0.28777 0.11615 0.43172 0.0
C1612 C 0.28552 0.12684 0.39431 0.0
C1613 C 0.28549 0.12281 0.36811 0.0
C1614 C 0.29304 0.06026 0.41186 0.0
C1615 C 0.29014 0.0943 0.40271 0.0
C1616 C 0.29376 0.04606 0.42929 0.0
C1617 C 0.29319 0.05037 0.45526 0.0
C1618 C 0.29176 0.07883 0.42061 0.0
C1619 C 0.29228 0.06901 0.46332 0.0
C1620 C 0.28796 0.1127 0.41162 0.0
C1621 C 0.28789 0.10429 0.35998 0.0
N1622 N 0.29151 0.08256 0.44606 0.0
N1623 N 0.29008 0.09072 0.3772 0.0
H1624 H 0.66474 0.75581 0.88345 0.0
H1625 H 0.5655 0.80317 0.89597 0.0
H1626 H 0.63311 0.7799 0.8206 0.0
H1627 H 0.59257 0.7693 0.95322 0.0
H1628 H 0.59202 0.79862 0.86999 0.0
H1629 H 0.64019 0.7644 0.91115 0.0
C1630 C 0.65273 0.76316 0.8756 0.0
C1631 C 0.65108 0.76742 0.84982 0.0
C1632 C 0.59217 0.79225 0.88829 0.0
C1633 C 0.62278 0.77703 0.88124 0.0
C1634 C 0.57711 0.79493 0.90317 0.0
C1635 C 0.57679 0.78648 0.92668 0.0
C1636 C 0.60707 0.78116 0.8971 0.0
C1637 C 0.59212 0.77583 0.93503 0.0
C1638 C 0.63868 0.76798 0.89136 0.0
C1639 C 0.63505 0.77664 0.84046 0.0
N1640 N 0.60661 0.77345 0.92024 0.0
N1641 N 0.62151 0.78113 0.85617 0.0
H1642 H 0.19795 0.64853 0.83562 0.0
H1643 H 0.2451 0.55422 0.91422 0.0
H1644 H 0.2536 0.60906 0.81012 0.0
H1645 H 0.1989 0.58575 0.94007 0.0
H1646 H 0.24607 0.57429 0.87819 0.0
H1647 H 0.19573 0.62331 0.8769 0.0
C1648 C 0.20659 0.63633 0.83714 0.0
C1649 C 0.22823 0.6333 0.82019 0.0
C1650 C 0.23572 0.57685 0.89173 0.0
C1651 C 0.22318 0.60351 0.86704 0.0
C1652 C 0.23522 0.56545 0.91244 0.0
C1653 C 0.22199 0.56837 0.93039 0.0
C1654 C 0.22287 0.59127 0.88879 0.0
C1655 C 0.20926 0.58291 0.92664 0.0
C1656 C 0.20614 0.62142 0.86331 0.0
C1657 C 0.24166 0.61142 0.82104 0.0
N1658 N 0.21004 0.59388 0.90624 0.0
N1659 N 0.2386 0.5997 0.84619 0.0
H1660 H 0.38983 0.25157 0.8458 0.0
H1661 H 0.43315 0.21351 0.97795 0.0
H1662 H 0.35875 0.24446 0.91159 0.0
H1663 H 0.46676 0.23119 0.91904 0.0
H1664 H 0.40523 0.22102 0.95138 0.0
H1665 H 0.41773 0.24055 0.86989 0.0
C1666 C 0.38888 0.24757 0.86526 0.0
C1667 C 0.37198 0.24899 0.87677 0.0
C1668 C 0.41867 0.22316 0.94411 0.0
C1669 C 0.40372 0.23635 0.90434 0.0
C1670 C 0.43454 0.2188 0.95921 0.0
C1671 C 0.4521 0.22167 0.95044 0.0
C1672 C 0.42039 0.2305 0.92007 0.0
C1673 C 0.45336 0.22873 0.92624 0.0
C1674 C 0.40478 0.24133 0.87899 0.0
C1675 C 0.37148 0.2436 0.902 0.0
N1676 N 0.43767 0.23295 0.91183 0.0
N1677 N 0.3871 0.23755 0.91492 0.0
H1678 H 0.76013 0.40531 0.81928 0.0
H1679 H 0.78851 0.42836 0.97919 0.0
H1680 H 0.76447 0.35665 0.88886 0.0
H1681 H 0.78621 0.46925 0.92155 0.0
H1682 H 0.7829 0.40391 0.94591 0.0
H1683 H 0.77171 0.43184 0.85942 0.0
C1684 C 0.76158 0.4015 0.83896 0.0
C1685 C 0.76375 0.3771 0.84886 0.0
C1686 C 0.78389 0.41819 0.94052 0.0
C1687 C 0.77552 0.40932 0.89481 0.0
C1688 C 0.78716 0.43206 0.95943 0.0
C1689 C 0.78784 0.45066 0.95285 0.0
C1690 C 0.78118 0.42313 0.91505 0.0
C1691 C 0.78583 0.45497 0.92716 0.0
C1692 C 0.77001 0.41738 0.86349 0.0
C1693 C 0.76445 0.37083 0.88285 0.0
N1694 N 0.78243 0.44129 0.90913 0.0
N1695 N 0.772 0.38776 0.90204 0.0
H1696 H 0.64535 0.17544 0.13752 0.0
H1697 H 0.57468 0.22037 0.03419 0.0
H1698 H 0.65744 0.22601 0.10055 0.0
H1699 H 0.55677 0.18564 0.09263 0.0
H1700 H 0.60643 0.21951 0.05404 0.0
H1701 H 0.61389 0.17586 0.11711 0.0
C1702 C 0.64141 0.18658 0.12502 0.0
C1703 C 0.65412 0.20058 0.12047 0.0
C1704 C 0.59558 0.21195 0.06238 0.0
C1705 C 0.61822 0.20108 0.09699 0.0
C1706 C 0.57756 0.21236 0.05101 0.0
C1707 C 0.56333 0.20265 0.06147 0.0
C1708 C 0.59932 0.2017 0.08429 0.0
C1709 C 0.56755 0.19281 0.08358 0.0
C1710 C 0.62346 0.18683 0.11344 0.0
C1711 C 0.64819 0.21479 0.10427 0.0
N1712 N 0.58521 0.19246 0.09418 0.0
N1713 N 0.63072 0.2146 0.09296 0.0
H1714 H 0.75796 0.62395 0.16989 0.0
H1715 H 0.79774 0.56883 0.05226 0.0
H1716 H 0.78724 0.65054 0.1126 0.0
H1717 H 0.78065 0.54177 0.11826 0.0
H1718 H 0.79442 0.59898 0.07431 0.0
H1719 H 0.76619 0.59371 0.15158 0.0
C1720 C 0.7664 0.62342 0.15373 0.0
C1721 C 0.77227 0.63979 0.14305 0.0
C1722 C 0.79154 0.58647 0.08411 0.0
C1723 C 0.78129 0.60524 0.12157 0.0
C1724 C 0.79347 0.56933 0.07154 0.0
C1725 C 0.78926 0.55298 0.08348 0.0
C1726 C 0.78519 0.58721 0.10869 0.0
C1727 C 0.78383 0.55419 0.10844 0.0
C1728 C 0.77105 0.60616 0.14324 0.0
C1729 C 0.78271 0.63825 0.12165 0.0
N1730 N 0.78173 0.57105 0.12016 0.0
N1731 N 0.78682 0.62131 0.11155 0.0
H1732 H 0.34492 0.78673 0.09627 0.0
H1733 H 0.44938 0.8203 0.08382 0.0
H1734 H 0.37313 0.8268 0.14771 0.0
H1735 H 0.42221 0.77797 0.03486 0.0
H1736 H 0.42161 0.82283 0.10752 0.0
H1737 H 0.3732 0.78306 0.07374 0.0
C1738 C 0.35717 0.79457 0.10299 0.0
C1739 C 0.35682 0.80683 0.12417 0.0
C1740 C 0.42173 0.81295 0.09163 0.0
C1741 C 0.38911 0.80301 0.09821 0.0
C1742 C 0.43754 0.81158 0.078 0.0
C1743 C 0.43812 0.79892 0.05729 0.0
C1744 C 0.4063 0.80164 0.08448 0.0
C1745 C 0.42246 0.78777 0.05086 0.0
C1746 C 0.37328 0.79254 0.09008 0.0
C1747 C 0.37293 0.81699 0.13172 0.0
N1748 N 0.40719 0.78943 0.06434 0.0
N1749 N 0.38841 0.81486 0.11876 0.0
H1750 H 0.21815 0.35215 0.13057 0.0
H1751 H 0.24509 0.45941 0.12443 0.0
H1752 H 0.26111 0.37868 0.17977 0.0
H1753 H 0.20423 0.43187 0.07272 0.0
H1754 H 0.24896 0.43083 0.14775 0.0
H1755 H 0.21067 0.38204 0.11201 0.0
C1756 C 0.22581 0.36435 0.13772 0.0
C1757 C 0.24008 0.36298 0.15699 0.0
C1758 C 0.23904 0.43108 0.13142 0.0
C1759 C 0.23187 0.39722 0.1355 0.0
C1760 C 0.23687 0.44738 0.11803 0.0
C1761 C 0.22443 0.44803 0.09642 0.0
C1762 C 0.22874 0.41525 0.12314 0.0
C1763 C 0.21389 0.4321 0.08934 0.0
C1764 C 0.2216 0.3814 0.12706 0.0
C1765 C 0.24983 0.37917 0.1652 0.0
N1766 N 0.21639 0.41634 0.10253 0.0
N1767 N 0.24558 0.3956 0.15437 0.0
H1768 H 0.36803 0.25061 0.16113 0.0
H1769 H 0.47042 0.22554 0.12996 0.0
H1770 H 0.41458 0.25676 0.21644 0.0
H1771 H 0.4227 0.20291 0.08555 0.0
H1772 H 0.45023 0.23628 0.16224 0.0
H1773 H 0.38756 0.23269 0.13328 0.0
C1774 C 0.38232 0.248 0.1675 0.0
C1775 C 0.38977 0.25528 0.191 0.0
C1776 C 0.4442 0.22876 0.14558 0.0
C1777 C 0.41223 0.23502 0.1592 0.0
C1778 C 0.45577 0.22245 0.12712 0.0
C1779 C 0.44833 0.21334 0.10472 0.0
C1780 C 0.42497 0.22628 0.14156 0.0
C1781 C 0.42908 0.21022 0.10214 0.0
C1782 C 0.39345 0.23775 0.15164 0.0
C1783 C 0.40836 0.25149 0.19838 0.0
N1784 N 0.41805 0.21689 0.12015 0.0
N1785 N 0.41902 0.24181 0.1824 0.0
H1786 H 0.8164 0.33361 0.11576 0.0
H1787 H 0.76651 0.43246 0.10788 0.0
H1788 H 0.75956 0.34284 0.13247 0.0
H1789 H 0.81729 0.41935 0.07278 0.0
H1790 H 0.76622 0.40119 0.12419 0.0
H1791 H 0.81937 0.36662 0.10725 0.0
C1792 C 0.80462 0.34266 0.11789 0.0
C1793 C 0.78768 0.33552 0.12468 0.0
C1794 C 0.77749 0.40524 0.11309 0.0
C1795 C 0.79095 0.37319 0.11501 0.0
C1796 C 0.77764 0.42307 0.10367 0.0
C1797 C 0.79183 0.42855 0.08864 0.0
C1798 C 0.79167 0.39278 0.10759 0.0
C1799 C 0.80613 0.41587 0.0844 0.0
C1800 C 0.8063 0.36145 0.11299 0.0
C1801 C 0.77284 0.3478 0.12721 0.0
N1802 N 0.80561 0.39856 0.09367 0.0
N1803 N 0.7748 0.36603 0.12228 0.0
H1804 H 0.62876 0.81108 0.16106 0.0
H1805 H 0.52852 0.78589 0.09636 0.0
H1806 H 0.59086 0.77465 0.19487 0.0
H1807 H 0.57341 0.8039 0.05359 0.0
H1808 H 0.54989 0.78525 0.1346 0.0
H1809 H 0.60747 0.81186 0.12297 0.0
C1810 C 0.61593 0.80329 0.16047 0.0
C1811 C 0.61142 0.79301 0.18129 0.0
C1812 C 0.55505 0.78936 0.11686 0.0
C1813 C 0.58701 0.79392 0.1379 0.0
C1814 C 0.54289 0.7898 0.09519 0.0
C1815 C 0.54933 0.79497 0.07204 0.0
C1816 C 0.5737 0.79437 0.11533 0.0
C1817 C 0.568 0.79992 0.07124 0.0
C1818 C 0.60382 0.80371 0.13874 0.0
C1819 C 0.59471 0.78299 0.17941 0.0
N1820 N 0.57957 0.79956 0.09264 0.0
N1821 N 0.58303 0.78382 0.15817 0.0
H1822 H 0.20106 0.6701 0.07757 0.0
H1823 H 0.23077 0.56643 0.10756 0.0
H1824 H 0.25087 0.65732 0.12342 0.0
H1825 H 0.20531 0.58107 0.03474 0.0
H1826 H 0.23154 0.59944 0.12085 0.0
H1827 H 0.19598 0.63682 0.0687 0.0
C1828 C 0.2109 0.6603 0.08576 0.0
C1829 C 0.22668 0.66647 0.10072 0.0
C1830 C 0.22567 0.59536 0.10205 0.0
C1831 C 0.22055 0.62858 0.09145 0.0
C1832 C 0.22525 0.57664 0.0945 0.0
C1833 C 0.21841 0.57127 0.06987 0.0
C1834 C 0.2187 0.6086 0.08504 0.0
C1835 C 0.21093 0.58482 0.05378 0.0
C1836 C 0.20795 0.64139 0.08078 0.0
C1837 C 0.23869 0.65316 0.1115 0.0
N1838 N 0.21132 0.60295 0.06161 0.0
N1839 N 0.2354 0.63482 0.10664 0.0
H1840 H 0.37038 0.75528 0.86597 0.0
H1841 H 0.44215 0.80413 0.96673 0.0
H1842 H 0.35401 0.79821 0.9186 0.0
H1843 H 0.4589 0.77937 0.8966 0.0
H1844 H 0.40964 0.80154 0.95027 0.0
H1845 H 0.40291 0.76306 0.87743 0.0
C1846 C 0.37365 0.76638 0.87988 0.0
C1847 C 0.35952 0.77585 0.89177 0.0
C1848 C 0.42042 0.79683 0.93837 0.0
C1849 C 0.39662 0.78476 0.90504 0.0
C1850 C 0.43889 0.7983 0.94775 0.0
C1851 C 0.45301 0.79164 0.93307 0.0
C1852 C 0.41612 0.78843 0.91428 0.0
C1853 C 0.44827 0.78431 0.90858 0.0
C1854 C 0.39219 0.77086 0.88634 0.0
C1855 C 0.36451 0.79031 0.9094 0.0
N1856 N 0.43015 0.78262 0.90005 0.0
N1857 N 0.38267 0.79415 0.91578 0.0
H1858 H 0.23069 0.41054 0.83443 0.0
H1859 H 0.23281 0.44164 0.98183 0.0
H1860 H 0.2496 0.37555 0.89557 0.0
H1861 H 0.21797 0.47839 0.92116 0.0
H1862 H 0.23672 0.41643 0.95039 0.0
H1863 H 0.2239 0.43498 0.86575 0.0
C1864 C 0.23325 0.40798 0.85447 0.0
C1865 C 0.24042 0.39092 0.86246 0.0
C1866 C 0.23252 0.42996 0.94389 0.0
C1867 C 0.23292 0.4188 0.89834 0.0
C1868 C 0.23025 0.44425 0.9618 0.0
C1869 C 0.22512 0.46192 0.95384 0.0
C1870 C 0.22964 0.43344 0.91786 0.0
C1871 C 0.22195 0.46484 0.92783 0.0
C1872 C 0.22942 0.42191 0.87232 0.0
C1873 C 0.24381 0.3884 0.88863 0.0
N1874 N 0.22433 0.45072 0.91068 0.0
N1875 N 0.24 0.40217 0.90562 0.0
H1876 H 0.61287 0.26294 0.84404 0.0
H1877 H 0.57811 0.19939 0.95281 0.0
H1878 H 0.64982 0.2285 0.88955 0.0
H1879 H 0.54661 0.2446 0.9204 0.0
H1880 H 0.60315 0.20616 0.92538 0.0
H1881 H 0.58707 0.25265 0.86756 0.0
C1882 C 0.61548 0.25298 0.85875 0.0
C1883 C 0.63345 0.24632 0.86453 0.0
C1884 C 0.59071 0.21451 0.9242 0.0
C1885 C 0.60401 0.23469 0.89188 0.0
C1886 C 0.57639 0.21058 0.93969 0.0
C1887 C 0.56033 0.22152 0.93891 0.0
C1888 C 0.58882 0.22934 0.90765 0.0
C1889 C 0.55886 0.23597 0.92178 0.0
C1890 C 0.60077 0.24718 0.87226 0.0
C1891 C 0.63613 0.23373 0.88418 0.0
N1892 N 0.57291 0.23945 0.90685 0.0
N1893 N 0.62155 0.2283 0.89715 0.0
H1894 H 0.76038 0.64631 0.87796 0.0
H1895 H 0.80532 0.54945 0.91904 0.0
H1896 H 0.7901 0.61077 0.82766 0.0
H1897 H 0.76733 0.58039 0.96358 0.0
H1898 H 0.80274 0.57337 0.8872 0.0
H1899 H 0.76548 0.62378 0.91134 0.0
C1900 C 0.7681 0.63381 0.87405 0.0
C1901 C 0.77493 0.63045 0.85008 0.0
C1902 C 0.79501 0.57494 0.90397 0.0
C1903 C 0.78073 0.60455 0.88809 0.0
C1904 C 0.79656 0.56136 0.92222 0.0
C1905 C 0.78645 0.56289 0.94394 0.0
C1906 C 0.78335 0.59023 0.90753 0.0
C1907 C 0.77517 0.57853 0.94695 0.0
C1908 C 0.77097 0.62094 0.89305 0.0
C1909 C 0.78471 0.61395 0.84592 0.0
N1910 N 0.77392 0.59157 0.92896 0.0
N1911 N 0.78733 0.60162 0.86474 0.0
loop_
_geom_bond_atom_site_label_1
_geom_bond_atom_site_label_2
_geom_bond_distance
_geom_bond_site_symmetry_2
_ccdc_geom_bond_type
C0 C1 1.560 . S
C0 H61 0.959 . S
C0 H62 0.959 . S
C0 H63 0.960 . S
C1 C0 1.560 . S
C1 O56 1.426 . S
C1 H60 0.980 . S
C2 C3 1.407 . S
C2 C7 1.418 . S
C2 O56 1.334 . S
C3 C2 1.407 . S
C3 C4 1.360 . S
C3 H64 0.929 . S
C4 C3 1.360 . S
C4 C5 1.401 . S
C4 C8 1.527 . S
C5 C4 1.401 . S
C5 C6 1.405 . S
C5 C38 1.587 . S
C6 C5 1.405 . S
C6 C7 1.332 . S
C6 C9 1.496 . S
C7 C2 1.418 . S
C7 C6 1.332 . S
C7 H65 0.929 . S
C8 C4 1.527 . S
C8 H66 0.959 . S
C8 H67 0.961 . S
C8 H68 0.961 . S
C9 C6 1.496 . S
C9 H69 0.960 . S
C9 H70 0.960 . S
C9 H71 0.961 . S
C10 C11 1.517 . S
C10 H73 0.961 . S
C10 H74 0.960 . S
C10 H75 0.959 . S
C11 C10 1.517 . S
C11 O59 1.468 . S
C11 H72 0.980 . S
C12 C13 1.349 . S
C12 C17 1.367 . S
C12 O59 1.408 . S
C13 C12 1.349 . S
C13 C14 1.407 . S
C13 H76 0.930 . S
C14 C13 1.407 . S
C14 C15 1.449 . S
C14 C18 1.535 . S
C15 C14 1.449 . S
C15 C16 1.384 . S
C15 C40 1.553 . S
C16 C15 1.384 . S
C16 C17 1.364 . S
C16 C19 1.450 . S
C17 C12 1.367 . S
C17 C16 1.364 . S
C17 H77 0.931 . S
C18 C14 1.535 . S
C18 H78 0.959 . S
C18 H79 0.961 . S
C18 H80 0.959 . S
C19 C16 1.450 . S
C19 H81 0.960 . S
C19 H82 0.960 . S
C19 H83 0.960 . S
C20 C21 1.309 . S
C20 C25 1.304 . S
C20 O58 1.435 . S
C21 C20 1.309 . S
C21 C22 1.476 . S
C21 H85 0.930 . S
C22 C21 1.476 . S
C22 C23 1.400 . S
C22 C26 1.567 . S
C23 C22 1.400 . S
C23 C24 1.373 . S
C23 C45 1.432 . S
C24 C23 1.373 . S
C24 C25 1.339 . S
C24 C27 1.530 . S
C25 C20 1.304 . S
C25 C24 1.339 . S
C25 H86 0.930 . S
C26 C22 1.567 . S
C26 H87 0.961 . S
C26 H88 0.960 . S
C26 H89 0.958 . S
C27 C24 1.530 . S
C27 H90 0.961 . S
C27 H91 0.960 . S
C27 H92 0.960 . S
C28 C29 1.530 . S
C28 H94 0.961 . S
C28 H95 0.961 . S
C28 H96 0.959 . S
C29 C28 1.530 . S
C29 O57 1.412 . S
C29 H93 0.980 . S
C30 C31 1.288 . S
C30 C35 1.377 . S
C30 O57 1.393 . S
C31 C30 1.288 . S
C31 C32 1.369 . S
C31 H97 0.932 . S
C32 C31 1.369 . S
C32 C33 1.398 . S
C32 C36 1.527 . S
C33 C32 1.398 . S
C33 C34 1.380 . S
C33 C47 1.497 . S
C34 C33 1.380 . S
C34 C35 1.383 . S
C34 C37 1.603 . S
C35 C30 1.377 . S
C35 C34 1.383 . S
C35 H98 0.929 . S
C36 C32 1.527 . S
C36 H99 0.961 . S
C36 H100 0.959 . S
C36 H101 0.959 . S
C37 C34 1.603 . S
C37 H102 0.960 . S
C37 H103 0.962 . S
C37 H104 0.961 . S
C38 C5 1.587 . S
C38 C39 1.360 . S
C38 C51 1.412 . S
C39 C38 1.360 . S
C39 C40 1.365 . S
C39 H105 0.929 . S
C40 C15 1.553 . S
C40 C39 1.365 . S
C40 C41 1.404 . S
C41 C40 1.404 . S
C41 C42 1.395 . S
C41 C52 1.451 . S
C42 C41 1.395 . S
C42 C43 1.322 . S
C42 H106 0.930 . S
C43 C42 1.322 . S
C43 C44 1.459 . S
C43 H107 0.929 . S
C44 C43 1.459 . S
C44 C45 1.445 . S
C44 C53 1.395 . S
C45 C23 1.432 . S
C45 C44 1.445 . S
C45 C46 1.370 . S
C46 C45 1.370 . S
C46 C47 1.438 . S
C46 H108 0.930 . S
C47 C33 1.497 . S
C47 C46 1.438 . S
C47 C48 1.360 . S
C48 C47 1.360 . S
C48 C49 1.401 . S
C48 C53 1.446 . S
C49 C48 1.401 . S
C49 C50 1.347 . S
C49 H109 0.929 . S
C50 C49 1.347 . S
C50 C51 1.455 . S
C50 H110 0.930 . S
C51 C38 1.412 . S
C51 C50 1.455 . S
C51 C52 1.331 . S
C52 C41 1.451 . S
C52 C51 1.331 . S
C52 C53 1.497 . S
C53 C44 1.395 . S
C53 C48 1.446 . S
C53 C52 1.497 . S
C54 C55 1.582 . S
C54 H111 0.962 . S
C54 H112 0.959 . S
C54 H113 0.958 . S
C55 C54 1.582 . S
C55 O58 1.458 . S
C55 H84 0.980 . S
O56 C1 1.426 . S
O56 C2 1.334 . S
O57 C29 1.412 . S
O57 C30 1.393 . S
O58 C20 1.435 . S
O58 C55 1.458 . S
O59 C11 1.468 . S
O59 C12 1.408 . S
H60 C1 0.980 . S
H61 C0 0.959 . S
H62 C0 0.959 . S
H63 C0 0.960 . S
H64 C3 0.929 . S
H65 C7 0.929 . S
H66 C8 0.959 . S
H67 C8 0.961 . S
H68 C8 0.961 . S
H69 C9 0.960 . S
H70 C9 0.960 . S
H71 C9 0.961 . S
H72 C11 0.980 . S
H73 C10 0.961 . S
H74 C10 0.960 . S
H75 C10 0.959 . S
H76 C13 0.930 . S
H77 C17 0.931 . S
H78 C18 0.959 . S
H79 C18 0.961 . S
H80 C18 0.959 . S
H81 C19 0.960 . S
H82 C19 0.960 . S
H83 C19 0.960 . S
H84 C55 0.980 . S
H85 C21 0.930 . S
H86 C25 0.930 . S
H87 C26 0.961 . S
H88 C26 0.960 . S
H89 C26 0.958 . S
H90 C27 0.961 . S
H91 C27 0.960 . S
H92 C27 0.960 . S
H93 C29 0.980 . S
H94 C28 0.961 . S
H95 C28 0.961 . S
H96 C28 0.959 . S
H97 C31 0.932 . S
H98 C35 0.929 . S
H99 C36 0.961 . S
H100 C36 0.959 . S
H101 C36 0.959 . S
H102 C37 0.960 . S
H103 C37 0.962 . S
H104 C37 0.961 . S
H105 C39 0.929 . S
H106 C42 0.930 . S
H107 C43 0.929 . S
H108 C46 0.930 . S
H109 C49 0.929 . S
H110 C50 0.930 . S
H111 C54 0.962 . S
H112 C54 0.959 . S
H113 C54 0.958 . S
C114 C115 1.560 . S
C114 H175 0.959 . S
C114 H176 0.959 . S
C114 H177 0.960 . S
C115 C114 1.560 . S
C115 O170 1.426 . S
C115 H174 0.980 . S
C116 C117 1.407 . S
C116 C121 1.418 . S
C116 O170 1.334 . S
C117 C116 1.407 . S
C117 C118 1.360 . S
C117 H178 0.929 . S
C118 C117 1.360 . S
C118 C119 1.401 . S
C118 C122 1.527 . S
C119 C118 1.401 . S
C119 C120 1.405 . S
C119 C152 1.587 . S
C120 C119 1.405 . S
C120 C121 1.332 . S
C120 C123 1.496 . S
C121 C116 1.418 . S
C121 C120 1.332 . S
C121 H179 0.929 . S
C122 C118 1.527 . S
C122 H180 0.959 . S
C122 H181 0.961 . S
C122 H182 0.961 . S
C123 C120 1.496 . S
C123 H183 0.960 . S
C123 H184 0.960 . S
C123 H185 0.961 . S
C124 C125 1.517 . S
C124 H187 0.961 . S
C124 H188 0.960 . S
C124 H189 0.959 . S
C125 C124 1.517 . S
C125 O173 1.468 . S
C125 H186 0.980 . S
C126 C127 1.349 . S
C126 C131 1.367 . S
C126 O173 1.408 . S
C127 C126 1.349 . S
C127 C128 1.407 . S
C127 H190 0.930 . S
C128 C127 1.407 . S
C128 C129 1.449 . S
C128 C132 1.535 . S
C129 C128 1.449 . S
C129 C130 1.384 . S
C129 C154 1.553 . S
C130 C129 1.384 . S
C130 C131 1.364 . S
C130 C133 1.450 . S
C131 C126 1.367 . S
C131 C130 1.364 . S
C131 H191 0.931 . S
C132 C128 1.535 . S
C132 H192 0.959 . S
C132 H193 0.961 . S
C132 H194 0.959 . S
C133 C130 1.450 . S
C133 H195 0.960 . S
C133 H196 0.960 . S
C133 H197 0.960 . S
C134 C135 1.309 . S
C134 C139 1.304 . S
C134 O172 1.435 . S
C135 C134 1.309 . S
C135 C136 1.476 . S
C135 H199 0.930 . S
C136 C135 1.476 . S
C136 C137 1.400 . S
C136 C140 1.567 . S
C137 C136 1.400 . S
C137 C138 1.373 . S
C137 C159 1.432 . S
C138 C137 1.373 . S
C138 C139 1.339 . S
C138 C141 1.530 . S
C139 C134 1.304 . S
C139 C138 1.339 . S
C139 H200 0.930 . S
C140 C136 1.567 . S
C140 H201 0.961 . S
C140 H202 0.960 . S
C140 H203 0.958 . S
C141 C138 1.530 . S
C141 H204 0.961 . S
C141 H205 0.960 . S
C141 H206 0.960 . S
C142 C143 1.530 . S
C142 H208 0.961 . S
C142 H209 0.961 . S
C142 H210 0.959 . S
C143 C142 1.530 . S
C143 O171 1.412 . S
C143 H207 0.980 . S
C144 C145 1.288 . S
C144 C149 1.377 . S
C144 O171 1.393 . S
C145 C144 1.288 . S
C145 C146 1.369 . S
C145 H211 0.932 . S
C146 C145 1.369 . S
C146 C147 1.398 . S
C146 C150 1.527 . S
C147 C146 1.398 . S
C147 C148 1.380 . S
C147 C161 1.497 . S
C148 C147 1.380 . S
C148 C149 1.383 . S
C148 C151 1.603 . S
C149 C144 1.377 . S
C149 C148 1.383 . S
C149 H212 0.929 . S
C150 C146 1.527 . S
C150 H213 0.961 . S
C150 H214 0.959 . S
C150 H215 0.959 . S
C151 C148 1.603 . S
C151 H216 0.960 . S
C151 H217 0.962 . S
C151 H218 0.961 . S
C152 C119 1.587 . S
C152 C153 1.360 . S
C152 C165 1.412 . S
C153 C152 1.360 . S
C153 C154 1.365 . S
C153 H219 0.929 . S
C154 C129 1.553 . S
C154 C153 1.365 . S
C154 C155 1.404 . S
C155 C154 1.404 . S
C155 C156 1.395 . S
C155 C166 1.451 . S
C156 C155 1.395 . S
C156 C157 1.322 . S
C156 H220 0.930 . S
C157 C156 1.322 . S
C157 C158 1.459 . S
C157 H221 0.929 . S
C158 C157 1.459 . S
C158 C159 1.445 . S
C158 C167 1.395 . S
C159 C137 1.432 . S
C159 C158 1.445 . S
C159 C160 1.370 . S
C160 C159 1.370 . S
C160 C161 1.438 . S
C160 H222 0.930 . S
C161 C147 1.497 . S
C161 C160 1.438 . S
C161 C162 1.360 . S
C162 C161 1.360 . S
C162 C163 1.401 . S
C162 C167 1.446 . S
C163 C162 1.401 . S
C163 C164 1.347 . S
C163 H223 0.929 . S
C164 C163 1.347 . S
C164 C165 1.455 . S
C164 H224 0.930 . S
C165 C152 1.412 . S
C165 C164 1.455 . S
C165 C166 1.331 . S
C166 C155 1.451 . S
C166 C165 1.331 . S
C166 C167 1.497 . S
C167 C158 1.395 . S
C167 C162 1.446 . S
C167 C166 1.497 . S
C168 C169 1.582 . S
C168 H225 0.962 . S
C168 H226 0.959 . S
C168 H227 0.958 . S
C169 C168 1.582 . S
C169 O172 1.458 . S
C169 H198 0.980 . S
O170 C115 1.426 . S
O170 C116 1.334 . S
O171 C143 1.412 . S
O171 C144 1.393 . S
O172 C134 1.435 . S
O172 C169 1.458 . S
O173 C125 1.468 . S
O173 C126 1.408 . S
H174 C115 0.980 . S
H175 C114 0.959 . S
H176 C114 0.959 . S
H177 C114 0.960 . S
H178 C117 0.929 . S
H179 C121 0.929 . S
H180 C122 0.959 . S
H181 C122 0.961 . S
H182 C122 0.961 . S
H183 C123 0.960 . S
H184 C123 0.960 . S
H185 C123 0.961 . S
H186 C125 0.980 . S
H187 C124 0.961 . S
H188 C124 0.960 . S
H189 C124 0.959 . S
H190 C127 0.930 . S
H191 C131 0.931 . S
H192 C132 0.959 . S
H193 C132 0.961 . S
H194 C132 0.959 . S
H195 C133 0.960 . S
H196 C133 0.960 . S
H197 C133 0.960 . S
H198 C169 0.980 . S
H199 C135 0.930 . S
H200 C139 0.930 . S
H201 C140 0.961 . S
H202 C140 0.960 . S
H203 C140 0.958 . S
H204 C141 0.961 . S
H205 C141 0.960 . S
H206 C141 0.960 . S
H207 C143 0.980 . S
H208 C142 0.961 . S
H209 C142 0.961 . S
H210 C142 0.959 . S
H211 C145 0.932 . S
H212 C149 0.929 . S
H213 C150 0.961 . S
H214 C150 0.959 . S
H215 C150 0.959 . S
H216 C151 0.960 . S
H217 C151 0.962 . S
H218 C151 0.961 . S
H219 C153 0.929 . S
H220 C156 0.930 . S
H221 C157 0.929 . S
H222 C160 0.930 . S
H223 C163 0.929 . S
H224 C164 0.930 . S
H225 C168 0.962 . S
H226 C168 0.959 . S
H227 C168 0.958 . S
C228 C229 1.560 . S
C228 H289 0.959 . S
C228 H290 0.959 . S
C228 H291 0.960 . S
C229 C228 1.560 . S
C229 O284 1.426 . S
C229 H288 0.980 . S
C230 C231 1.407 . S
C230 C235 1.418 . S
C230 O284 1.334 . S
C231 C230 1.407 . S
C231 C232 1.360 . S
C231 H292 0.929 . S
C232 C231 1.360 . S
C232 C233 1.401 . S
C232 C236 1.527 . S
C233 C232 1.401 . S
C233 C234 1.405 . S
C233 C266 1.587 . S
C234 C233 1.405 . S
C234 C235 1.332 . S
C234 C237 1.496 . S
C235 C230 1.418 . S
C235 C234 1.332 . S
C235 H293 0.929 . S
C236 C232 1.527 . S
C236 H294 0.959 . S
C236 H295 0.961 . S
C236 H296 0.961 . S
C237 C234 1.496 . S
C237 H297 0.960 . S
C237 H298 0.960 . S
C237 H299 0.961 . S
C238 C239 1.517 . S
C238 H301 0.961 . S
C238 H302 0.960 . S
C238 H303 0.959 . S
C239 C238 1.517 . S
C239 O287 1.468 . S
C239 H300 0.980 . S
C240 C241 1.349 . S
C240 C245 1.367 . S
C240 O287 1.408 . S
C241 C240 1.349 . S
C241 C242 1.407 . S
C241 H304 0.930 . S
C242 C241 1.407 . S
C242 C243 1.449 . S
C242 C246 1.535 . S
C243 C242 1.449 . S
C243 C244 1.384 . S
C243 C268 1.553 . S
C244 C243 1.384 . S
C244 C245 1.364 . S
C244 C247 1.450 . S
C245 C240 1.367 . S
C245 C244 1.364 . S
C245 H305 0.931 . S
C246 C242 1.535 . S
C246 H306 0.959 . S
C246 H307 0.961 . S
C246 H308 0.959 . S
C247 C244 1.450 . S
C247 H309 0.960 . S
C247 H310 0.960 . S
C247 H311 0.960 . S
C248 C249 1.309 . S
C248 C253 1.304 . S
C248 O286 1.435 . S
C249 C248 1.309 . S
C249 C250 1.476 . S
C249 H313 0.930 . S
C250 C249 1.476 . S
C250 C251 1.400 . S
C250 C254 1.567 . S
C251 C250 1.400 . S
C251 C252 1.373 . S
C251 C273 1.432 . S
C252 C251 1.373 . S
C252 C253 1.339 . S
C252 C255 1.530 . S
C253 C248 1.304 . S
C253 C252 1.339 . S
C253 H314 0.930 . S
C254 C250 1.567 . S
C254 H315 0.961 . S
C254 H316 0.960 . S
C254 H317 0.958 . S
C255 C252 1.530 . S
C255 H318 0.961 . S
C255 H319 0.960 . S
C255 H320 0.960 . S
C256 C257 1.530 . S
C256 H322 0.961 . S
C256 H323 0.961 . S
C256 H324 0.959 . S
C257 C256 1.530 . S
C257 O285 1.412 . S
C257 H321 0.980 . S
C258 C259 1.288 . S
C258 C263 1.377 . S
C258 O285 1.393 . S
C259 C258 1.288 . S
C259 C260 1.369 . S
C259 H325 0.932 . S
C260 C259 1.369 . S
C260 C261 1.398 . S
C260 C264 1.527 . S
C261 C260 1.398 . S
C261 C262 1.380 . S
C261 C275 1.497 . S
C262 C261 1.380 . S
C262 C263 1.383 . S
C262 C265 1.603 . S
C263 C258 1.377 . S
C263 C262 1.383 . S
C263 H326 0.929 . S
C264 C260 1.527 . S
C264 H327 0.961 . S
C264 H328 0.959 . S
C264 H329 0.959 . S
C265 C262 1.603 . S
C265 H330 0.960 . S
C265 H331 0.962 . S
C265 H332 0.961 . S
C266 C233 1.587 . S
C266 C267 1.360 . S
C266 C279 1.412 . S
C267 C266 1.360 . S
C267 C268 1.365 . S
C267 H333 0.929 . S
C268 C243 1.553 . S
C268 C267 1.365 . S
C268 C269 1.404 . S
C269 C268 1.404 . S
C269 C270 1.395 . S
C269 C280 1.451 . S
C270 C269 1.395 . S
C270 C271 1.322 . S
C270 H334 0.930 . S
C271 C270 1.322 . S
C271 C272 1.459 . S
C271 H335 0.929 . S
C272 C271 1.459 . S
C272 C273 1.445 . S
C272 C281 1.395 . S
C273 C251 1.432 . S
C273 C272 1.445 . S
C273 C274 1.370 . S
C274 C273 1.370 . S
C274 C275 1.438 . S
C274 H336 0.930 . S
C275 C261 1.497 . S
C275 C274 1.438 . S
C275 C276 1.360 . S
C276 C275 1.360 . S
C276 C277 1.401 . S
C276 C281 1.446 . S
C277 C276 1.401 . S
C277 C278 1.347 . S
C277 H337 0.929 . S
C278 C277 1.347 . S
C278 C279 1.455 . S
C278 H338 0.930 . S
C279 C266 1.412 . S
C279 C278 1.455 . S
C279 C280 1.331 . S
C280 C269 1.451 . S
C280 C279 1.331 . S
C280 C281 1.497 . S
C281 C272 1.395 . S
C281 C276 1.446 . S
C281 C280 1.497 . S
C282 C283 1.582 . S
C282 H339 0.962 . S
C282 H340 0.959 . S
C282 H341 0.958 . S
C283 C282 1.582 . S
C283 O286 1.458 . S
C283 H312 0.980 . S
O284 C229 1.426 . S
O284 C230 1.334 . S
O285 C257 1.412 . S
O285 C258 1.393 . S
O286 C248 1.435 . S
O286 C283 1.458 . S
O287 C239 1.468 . S
O287 C240 1.408 . S
H288 C229 0.980 . S
H289 C228 0.959 . S
H290 C228 0.959 . S
H291 C228 0.960 . S
H292 C231 0.929 . S
H293 C235 0.929 . S
H294 C236 0.959 . S
H295 C236 0.961 . S
H296 C236 0.961 . S
H297 C237 0.960 . S
H298 C237 0.960 . S
H299 C237 0.961 . S
H300 C239 0.980 . S
H301 C238 0.961 . S
H302 C238 0.960 . S
H303 C238 0.959 . S
H304 C241 0.930 . S
H305 C245 0.931 . S
H306 C246 0.959 . S
H307 C246 0.961 . S
H308 C246 0.959 . S
H309 C247 0.960 . S
H310 C247 0.960 . S
H311 C247 0.960 . S
H312 C283 0.980 . S
H313 C249 0.930 . S
H314 C253 0.930 . S
H315 C254 0.961 . S
H316 C254 0.960 . S
H317 C254 0.958 . S
H318 C255 0.961 . S
H319 C255 0.960 . S
H320 C255 0.960 . S
H321 C257 0.980 . S
H322 C256 0.961 . S
H323 C256 0.961 . S
H324 C256 0.959 . S
H325 C259 0.932 . S
H326 C263 0.929 . S
H327 C264 0.961 . S
H328 C264 0.959 . S
H329 C264 0.959 . S
H330 C265 0.960 . S
H331 C265 0.962 . S
H332 C265 0.961 . S
H333 C267 0.929 . S
H334 C270 0.930 . S
H335 C271 0.929 . S
H336 C274 0.930 . S
H337 C277 0.929 . S
H338 C278 0.930 . S
H339 C282 0.962 . S
H340 C282 0.959 . S
H341 C282 0.958 . S
C342 C343 1.560 . S
C342 H403 0.959 . S
C342 H404 0.959 . S
C342 H405 0.960 . S
C343 C342 1.560 . S
C343 O398 1.426 . S
C343 H402 0.980 . S
C344 C345 1.407 . S
C344 C349 1.418 . S
C344 O398 1.334 . S
C345 C344 1.407 . S
C345 C346 1.360 . S
C345 H406 0.929 . S
C346 C345 1.360 . S
C346 C347 1.401 . S
C346 C350 1.527 . S
C347 C346 1.401 . S
C347 C348 1.405 . S
C347 C380 1.587 . S
C348 C347 1.405 . S
C348 C349 1.332 . S
C348 C351 1.496 . S
C349 C344 1.418 . S
C349 C348 1.332 . S
C349 H407 0.929 . S
C350 C346 1.527 . S
C350 H408 0.959 . S
C350 H409 0.961 . S
C350 H410 0.961 . S
C351 C348 1.496 . S
C351 H411 0.960 . S
C351 H412 0.960 . S
C351 H413 0.961 . S
C352 C353 1.517 . S
C352 H415 0.961 . S
C352 H416 0.960 . S
C352 H417 0.959 . S
C353 C352 1.517 . S
C353 O401 1.468 . S
C353 H414 0.980 . S
C354 C355 1.349 . S
C354 C359 1.367 . S
C354 O401 1.408 . S
C355 C354 1.349 . S
C355 C356 1.407 . S
C355 H418 0.930 . S
C356 C355 1.407 . S
C356 C357 1.449 . S
C356 C360 1.535 . S
C357 C356 1.449 . S
C357 C358 1.384 . S
C357 C382 1.553 . S
C358 C357 1.384 . S
C358 C359 1.364 . S
C358 C361 1.450 . S
C359 C354 1.367 . S
C359 C358 1.364 . S
C359 H419 0.931 . S
C360 C356 1.535 . S
C360 H420 0.959 . S
C360 H421 0.961 . S
C360 H422 0.959 . S
C361 C358 1.450 . S
C361 H423 0.960 . S
C361 H424 0.960 . S
C361 H425 0.960 . S
C362 C363 1.309 . S
C362 C367 1.304 . S
C362 O400 1.435 . S
C363 C362 1.309 . S
C363 C364 1.476 . S
C363 H427 0.930 . S
C364 C363 1.476 . S
C364 C365 1.400 . S
C364 C368 1.567 . S
C365 C364 1.400 . S
C365 C366 1.373 . S
C365 C387 1.432 . S
C366 C365 1.373 . S
C366 C367 1.339 . S
C366 C369 1.530 . S
C367 C362 1.304 . S
C367 C366 1.339 . S
C367 H428 0.930 . S
C368 C364 1.567 . S
C368 H429 0.961 . S
C368 H430 0.960 . S
C368 H431 0.958 . S
C369 C366 1.530 . S
C369 H432 0.961 . S
C369 H433 0.960 . S
C369 H434 0.960 . S
C370 C371 1.530 . S
C370 H436 0.961 . S
C370 H437 0.961 . S
C370 H438 0.959 . S
C371 C370 1.530 . S
C371 O399 1.412 . S
C371 H435 0.980 . S
C372 C373 1.288 . S
C372 C377 1.377 . S
C372 O399 1.393 . S
C373 C372 1.288 . S
C373 C374 1.369 . S
C373 H439 0.932 . S
C374 C373 1.369 . S
C374 C375 1.398 . S
C374 C378 1.527 . S
C375 C374 1.398 . S
C375 C376 1.380 . S
C375 C389 1.497 . S
C376 C375 1.380 . S
C376 C377 1.383 . S
C376 C379 1.603 . S
C377 C372 1.377 . S
C377 C376 1.383 . S
C377 H440 0.929 . S
C378 C374 1.527 . S
C378 H441 0.961 . S
C378 H442 0.959 . S
C378 H443 0.959 . S
C379 C376 1.603 . S
C379 H444 0.960 . S
C379 H445 0.962 . S
C379 H446 0.961 . S
C380 C347 1.587 . S
C380 C381 1.360 . S
C380 C393 1.412 . S
C381 C380 1.360 . S
C381 C382 1.365 . S
C381 H447 0.929 . S
C382 C357 1.553 . S
C382 C381 1.365 . S
C382 C383 1.404 . S
C383 C382 1.404 . S
C383 C384 1.395 . S
C383 C394 1.451 . S
C384 C383 1.395 . S
C384 C385 1.322 . S
C384 H448 0.930 . S
C385 C384 1.322 . S
C385 C386 1.459 . S
C385 H449 0.929 . S
C386 C385 1.459 . S
C386 C387 1.445 . S
C386 C395 1.395 . S
C387 C365 1.432 . S
C387 C386 1.445 . S
C387 C388 1.370 . S
C388 C387 1.370 . S
C388 C389 1.438 . S
C388 H450 0.930 . S
C389 C375 1.497 . S
C389 C388 1.438 . S
C389 C390 1.360 . S
C390 C389 1.360 . S
C390 C391 1.401 . S
C390 C395 1.446 . S
C391 C390 1.401 . S
C391 C392 1.347 . S
C391 H451 0.929 . S
C392 C391 1.347 . S
C392 C393 1.455 . S
C392 H452 0.930 . S
C393 C380 1.412 . S
C393 C392 1.455 . S
C393 C394 1.331 . S
C394 C383 1.451 . S
C394 C393 1.331 . S
C394 C395 1.497 . S
C395 C386 1.395 . S
C395 C390 1.446 . S
C395 C394 1.497 . S
C396 C397 1.582 . S
C396 H453 0.962 . S
C396 H454 0.959 . S
C396 H455 0.958 . S
C397 C396 1.582 . S
C397 O400 1.458 . S
C397 H426 0.980 . S
O398 C343 1.426 . S
O398 C344 1.334 . S
O399 C371 1.412 . S
O399 C372 1.393 . S
O400 C362 1.435 . S
O400 C397 1.458 . S
O401 C353 1.468 . S
O401 C354 1.408 . S
H402 C343 0.980 . S
H403 C342 0.959 . S
H404 C342 0.959 . S
H405 C342 0.960 . S
H406 C345 0.929 . S
H407 C349 0.929 . S
H408 C350 0.959 . S
H409 C350 0.961 . S
H410 C350 0.961 . S
H411 C351 0.960 . S
H412 C351 0.960 . S
H413 C351 0.961 . S
H414 C353 0.980 . S
H415 C352 0.961 . S
H416 C352 0.960 . S
H417 C352 0.959 . S
H418 C355 0.930 . S
H419 C359 0.931 . S
H420 C360 0.959 . S
H421 C360 0.961 . S
H422 C360 0.959 . S
H423 C361 0.960 . S
H424 C361 0.960 . S
H425 C361 0.960 . S
H426 C397 0.980 . S
H427 C363 0.930 . S
H428 C367 0.930 . S
H429 C368 0.961 . S
H430 C368 0.960 . S
H431 C368 0.958 . S
H432 C369 0.961 . S
H433 C369 0.960 . S
H434 C369 0.960 . S
H435 C371 0.980 . S
H436 C370 0.961 . S
H437 C370 0.961 . S
H438 C370 0.959 . S
H439 C373 0.932 . S
H440 C377 0.929 . S
H441 C378 0.961 . S
H442 C378 0.959 . S
H443 C378 0.959 . S
H444 C379 0.960 . S
H445 C379 0.962 . S
H446 C379 0.961 . S
H447 C381 0.929 . S
H448 C384 0.930 . S
H449 C385 0.929 . S
H450 C388 0.930 . S
H451 C391 0.929 . S
H452 C392 0.930 . S
H453 C396 0.962 . S
H454 C396 0.959 . S
H455 C396 0.958 . S
C456 C457 1.560 . S
C456 H517 0.959 . S
C456 H518 0.959 . S
C456 H519 0.960 . S
C457 C456 1.560 . S
C457 O512 1.426 . S
C457 H516 0.980 . S
C458 C459 1.407 . S
C458 C463 1.418 . S
C458 O512 1.334 . S
C459 C458 1.407 . S
C459 C460 1.360 . S
C459 H520 0.929 . S
C460 C459 1.360 . S
C460 C461 1.401 . S
C460 C464 1.527 . S
C461 C460 1.401 . S
C461 C462 1.405 . S
C461 C494 1.587 . S
C462 C461 1.405 . S
C462 C463 1.332 . S
C462 C465 1.496 . S
C463 C458 1.418 . S
C463 C462 1.332 . S
C463 H521 0.929 . S
C464 C460 1.527 . S
C464 H522 0.959 . S
C464 H523 0.961 . S
C464 H524 0.961 . S
C465 C462 1.496 . S
C465 H525 0.960 . S
C465 H526 0.960 . S
C465 H527 0.961 . S
C466 C467 1.517 . S
C466 H529 0.961 . S
C466 H530 0.960 . S
C466 H531 0.959 . S
C467 C466 1.517 . S
C467 O515 1.468 . S
C467 H528 0.980 . S
C468 C469 1.349 . S
C468 C473 1.367 . S
C468 O515 1.408 . S
C469 C468 1.349 . S
C469 C470 1.407 . S
C469 H532 0.930 . S
C470 C469 1.407 . S
C470 C471 1.449 . S
C470 C474 1.535 . S
C471 C470 1.449 . S
C471 C472 1.384 . S
C471 C496 1.553 . S
C472 C471 1.384 . S
C472 C473 1.364 . S
C472 C475 1.450 . S
C473 C468 1.367 . S
C473 C472 1.364 . S
C473 H533 0.931 . S
C474 C470 1.535 . S
C474 H534 0.959 . S
C474 H535 0.961 . S
C474 H536 0.959 . S
C475 C472 1.450 . S
C475 H537 0.960 . S
C475 H538 0.960 . S
C475 H539 0.960 . S
C476 C477 1.309 . S
C476 C481 1.304 . S
C476 O514 1.435 . S
C477 C476 1.309 . S
C477 C478 1.476 . S
C477 H541 0.930 . S
C478 C477 1.476 . S
C478 C479 1.400 . S
C478 C482 1.567 . S
C479 C478 1.400 . S
C479 C480 1.373 . S
C479 C501 1.432 . S
C480 C479 1.373 . S
C480 C481 1.339 . S
C480 C483 1.530 . S
C481 C476 1.304 . S
C481 C480 1.339 . S
C481 H542 0.930 . S
C482 C478 1.567 . S
C482 H543 0.961 . S
C482 H544 0.960 . S
C482 H545 0.958 . S
C483 C480 1.530 . S
C483 H546 0.961 . S
C483 H547 0.960 . S
C483 H548 0.960 . S
C484 C485 1.530 . S
C484 H550 0.961 . S
C484 H551 0.961 . S
C484 H552 0.959 . S
C485 C484 1.530 . S
C485 O513 1.412 . S
C485 H549 0.980 . S
C486 C487 1.288 . S
C486 C491 1.377 . S
C486 O513 1.393 . S
C487 C486 1.288 . S
C487 C488 1.369 . S
C487 H553 0.932 . S
C488 C487 1.369 . S
C488 C489 1.398 . S
C488 C492 1.527 . S
C489 C488 1.398 . S
C489 C490 1.380 . S
C489 C503 1.497 . S
C490 C489 1.380 . S
C490 C491 1.383 . S
C490 C493 1.603 . S
C491 C486 1.377 . S
C491 C490 1.383 . S
C491 H554 0.929 . S
C492 C488 1.527 . S
C492 H555 0.961 . S
C492 H556 0.959 . S
C492 H557 0.959 . S
C493 C490 1.603 . S
C493 H558 0.960 . S
C493 H559 0.962 . S
C493 H560 0.961 . S
C494 C461 1.587 . S
C494 C495 1.360 . S
C494 C507 1.412 . S
C495 C494 1.360 . S
C495 C496 1.365 . S
C495 H561 0.929 . S
C496 C471 1.553 . S
C496 C495 1.365 . S
C496 C497 1.404 . S
C497 C496 1.404 . S
C497 C498 1.395 . S
C497 C508 1.451 . S
C498 C497 1.395 . S
C498 C499 1.322 . S
C498 H562 0.930 . S
C499 C498 1.322 . S
C499 C500 1.459 . S
C499 H563 0.929 . S
C500 C499 1.459 . S
C500 C501 1.445 . S
C500 C509 1.395 . S
C501 C479 1.432 . S
C501 C500 1.445 . S
C501 C502 1.370 . S
C502 C501 1.370 . S
C502 C503 1.438 . S
C502 H564 0.930 . S
C503 C489 1.497 . S
C503 C502 1.438 . S
C503 C504 1.360 . S
C504 C503 1.360 . S
C504 C505 1.401 . S
C504 C509 1.446 . S
C505 C504 1.401 . S
C505 C506 1.347 . S
C505 H565 0.929 . S
C506 C505 1.347 . S
C506 C507 1.455 . S
C506 H566 0.930 . S
C507 C494 1.412 . S
C507 C506 1.455 . S
C507 C508 1.331 . S
C508 C497 1.451 . S
C508 C507 1.331 . S
C508 C509 1.497 . S
C509 C500 1.395 . S
C509 C504 1.446 . S
C509 C508 1.497 . S
C510 C511 1.582 . S
C510 H567 0.962 . S
C510 H568 0.959 . S
C510 H569 0.958 . S
C511 C510 1.582 . S
C511 O514 1.458 . S
C511 H540 0.980 . S
O512 C457 1.426 . S
O512 C458 1.334 . S
O513 C485 1.412 . S
O513 C486 1.393 . S
O514 C476 1.435 . S
O514 C511 1.458 . S
O515 C467 1.468 . S
O515 C468 1.408 . S
H516 C457 0.980 . S
H517 C456 0.959 . S
H518 C456 0.959 . S
H519 C456 0.960 . S
H520 C459 0.929 . S
H521 C463 0.929 . S
H522 C464 0.959 . S
H523 C464 0.961 . S
H524 C464 0.961 . S
H525 C465 0.960 . S
H526 C465 0.960 . S
H527 C465 0.961 . S
H528 C467 0.980 . S
H529 C466 0.961 . S
H530 C466 0.960 . S
H531 C466 0.959 . S
H532 C469 0.930 . S
H533 C473 0.931 . S
H534 C474 0.959 . S
H535 C474 0.961 . S
H536 C474 0.959 . S
H537 C475 0.960 . S
H538 C475 0.960 . S
H539 C475 0.960 . S
H540 C511 0.980 . S
H541 C477 0.930 . S
H542 C481 0.930 . S
H543 C482 0.961 . S
H544 C482 0.960 . S
H545 C482 0.958 . S
H546 C483 0.961 . S
H547 C483 0.960 . S
H548 C483 0.960 . S
H549 C485 0.980 . S
H550 C484 0.961 . S
H551 C484 0.961 . S
H552 C484 0.959 . S
H553 C487 0.932 . S
H554 C491 0.929 . S
H555 C492 0.961 . S
H556 C492 0.959 . S
H557 C492 0.959 . S
H558 C493 0.960 . S
H559 C493 0.962 . S
H560 C493 0.961 . S
H561 C495 0.929 . S
H562 C498 0.930 . S
H563 C499 0.929 . S
H564 C502 0.930 . S
H565 C505 0.929 . S
H566 C506 0.930 . S
H567 C510 0.962 . S
H568 C510 0.959 . S
H569 C510 0.958 . S
C570 C571 1.560 . S
C570 H631 0.959 . S
C570 H632 0.959 . S
C570 H633 0.960 . S
C571 C570 1.560 . S
C571 O626 1.426 . S
C571 H630 0.980 . S
C572 C573 1.407 . S
C572 C577 1.418 . S
C572 O626 1.334 . S
C573 C572 1.407 . S
C573 C574 1.360 . S
C573 H634 0.929 . S
C574 C573 1.360 . S
C574 C575 1.401 . S
C574 C578 1.527 . S
C575 C574 1.401 . S
C575 C576 1.405 . S
C575 C608 1.587 . S
C576 C575 1.405 . S
C576 C577 1.332 . S
C576 C579 1.496 . S
C577 C572 1.418 . S
C577 C576 1.332 . S
C577 H635 0.929 . S
C578 C574 1.527 . S
C578 H636 0.959 . S
C578 H637 0.961 . S
C578 H638 0.961 . S
C579 C576 1.496 . S
C579 H639 0.960 . S
C579 H640 0.960 . S
C579 H641 0.961 . S
C580 C581 1.517 . S
C580 H643 0.961 . S
C580 H644 0.960 . S
C580 H645 0.959 . S
C581 C580 1.517 . S
C581 O629 1.468 . S
C581 H642 0.980 . S
C582 C583 1.349 . S
C582 C587 1.367 . S
C582 O629 1.408 . S
C583 C582 1.349 . S
C583 C584 1.407 . S
C583 H646 0.930 . S
C584 C583 1.407 . S
C584 C585 1.449 . S
C584 C588 1.535 . S
C585 C584 1.449 . S
C585 C586 1.384 . S
C585 C610 1.553 . S
C586 C585 1.384 . S
C586 C587 1.364 . S
C586 C589 1.450 . S
C587 C582 1.367 . S
C587 C586 1.364 . S
C587 H647 0.931 . S
C588 C584 1.535 . S
C588 H648 0.959 . S
C588 H649 0.961 . S
C588 H650 0.959 . S
C589 C586 1.450 . S
C589 H651 0.960 . S
C589 H652 0.960 . S
C589 H653 0.960 . S
C590 C591 1.309 . S
C590 C595 1.304 . S
C590 O628 1.435 . S
C591 C590 1.309 . S
C591 C592 1.476 . S
C591 H655 0.930 . S
C592 C591 1.476 . S
C592 C593 1.400 . S
C592 C596 1.567 . S
C593 C592 1.400 . S
C593 C594 1.373 . S
C593 C615 1.432 . S
C594 C593 1.373 . S
C594 C595 1.339 . S
C594 C597 1.530 . S
C595 C590 1.304 . S
C595 C594 1.339 . S
C595 H656 0.930 . S
C596 C592 1.567 . S
C596 H657 0.961 . S
C596 H658 0.960 . S
C596 H659 0.958 . S
C597 C594 1.530 . S
C597 H660 0.961 . S
C597 H661 0.960 . S
C597 H662 0.960 . S
C598 C599 1.530 . S
C598 H664 0.961 . S
C598 H665 0.961 . S
C598 H666 0.959 . S
C599 C598 1.530 . S
C599 O627 1.412 . S
C599 H663 0.980 . S
C600 C601 1.288 . S
C600 C605 1.377 . S
C600 O627 1.393 . S
C601 C600 1.288 . S
C601 C602 1.369 . S
C601 H667 0.932 . S
C602 C601 1.369 . S
C602 C603 1.398 . S
C602 C606 1.527 . S
C603 C602 1.398 . S
C603 C604 1.380 . S
C603 C617 1.497 . S
C604 C603 1.380 . S
C604 C605 1.383 . S
C604 C607 1.603 . S
C605 C600 1.377 . S
C605 C604 1.383 . S
C605 H668 0.929 . S
C606 C602 1.527 . S
C606 H669 0.961 . S
C606 H670 0.959 . S
C606 H671 0.959 . S
C607 C604 1.603 . S
C607 H672 0.960 . S
C607 H673 0.962 . S
C607 H674 0.961 . S
C608 C575 1.587 . S
C608 C609 1.360 . S
C608 C621 1.412 . S
C609 C608 1.360 . S
C609 C610 1.365 . S
C609 H675 0.929 . S
C610 C585 1.553 . S
C610 C609 1.365 . S
C610 C611 1.404 . S
C611 C610 1.404 . S
C611 C612 1.395 . S
C611 C622 1.451 . S
C612 C611 1.395 . S
C612 C613 1.322 . S
C612 H676 0.930 . S
C613 C612 1.322 . S
C613 C614 1.459 . S
C613 H677 0.929 . S
C614 C613 1.459 . S
C614 C615 1.445 . S
C614 C623 1.395 . S
C615 C593 1.432 . S
C615 C614 1.445 . S
C615 C616 1.370 . S
C616 C615 1.370 . S
C616 C617 1.438 . S
C616 H678 0.930 . S
C617 C603 1.497 . S
C617 C616 1.438 . S
C617 C618 1.360 . S
C618 C617 1.360 . S
C618 C619 1.401 . S
C618 C623 1.446 . S
C619 C618 1.401 . S
C619 C620 1.347 . S
C619 H679 0.929 . S
C620 C619 1.347 . S
C620 C621 1.455 . S
C620 H680 0.930 . S
C621 C608 1.412 . S
C621 C620 1.455 . S
C621 C622 1.331 . S
C622 C611 1.451 . S
C622 C621 1.331 . S
C622 C623 1.497 . S
C623 C614 1.395 . S
C623 C618 1.446 . S
C623 C622 1.497 . S
C624 C625 1.582 . S
C624 H681 0.962 . S
C624 H682 0.959 . S
C624 H683 0.958 . S
C625 C624 1.582 . S
C625 O628 1.458 . S
C625 H654 0.980 . S
O626 C571 1.426 . S
O626 C572 1.334 . S
O627 C599 1.412 . S
O627 C600 1.393 . S
O628 C590 1.435 . S
O628 C625 1.458 . S
O629 C581 1.468 . S
O629 C582 1.408 . S
H630 C571 0.980 . S
H631 C570 0.959 . S
H632 C570 0.959 . S
H633 C570 0.960 . S
H634 C573 0.929 . S
H635 C577 0.929 . S
H636 C578 0.959 . S
H637 C578 0.961 . S
H638 C578 0.961 . S
H639 C579 0.960 . S
H640 C579 0.960 . S
H641 C579 0.961 . S
H642 C581 0.980 . S
H643 C580 0.961 . S
H644 C580 0.960 . S
H645 C580 0.959 . S
H646 C583 0.930 . S
H647 C587 0.931 . S
H648 C588 0.959 . S
H649 C588 0.961 . S
H650 C588 0.959 . S
H651 C589 0.960 . S
H652 C589 0.960 . S
H653 C589 0.960 . S
H654 C625 0.980 . S
H655 C591 0.930 . S
H656 C595 0.930 . S
H657 C596 0.961 . S
H658 C596 0.960 . S
H659 C596 0.958 . S
H660 C597 0.961 . S
H661 C597 0.960 . S
H662 C597 0.960 . S
H663 C599 0.980 . S
H664 C598 0.961 . S
H665 C598 0.961 . S
H666 C598 0.959 . S
H667 C601 0.932 . S
H668 C605 0.929 . S
H669 C606 0.961 . S
H670 C606 0.959 . S
H671 C606 0.959 . S
H672 C607 0.960 . S
H673 C607 0.962 . S
H674 C607 0.961 . S
H675 C609 0.929 . S
H676 C612 0.930 . S
H677 C613 0.929 . S
H678 C616 0.930 . S
H679 C619 0.929 . S
H680 C620 0.930 . S
H681 C624 0.962 . S
H682 C624 0.959 . S
H683 C624 0.958 . S
C684 C685 1.560 . S
C684 H745 0.959 . S
C684 H746 0.959 . S
C684 H747 0.960 . S
C685 C684 1.560 . S
C685 O740 1.426 . S
C685 H744 0.980 . S
C686 C687 1.407 . S
C686 C691 1.418 . S
C686 O740 1.334 . S
C687 C686 1.407 . S
C687 C688 1.360 . S
C687 H748 0.929 . S
C688 C687 1.360 . S
C688 C689 1.401 . S
C688 C692 1.527 . S
C689 C688 1.401 . S
C689 C690 1.405 . S
C689 C722 1.587 . S
C690 C689 1.405 . S
C690 C691 1.332 . S
C690 C693 1.496 . S
C691 C686 1.418 . S
C691 C690 1.332 . S
C691 H749 0.929 . S
C692 C688 1.527 . S
C692 H750 0.959 . S
C692 H751 0.961 . S
C692 H752 0.961 . S
C693 C690 1.496 . S
C693 H753 0.960 . S
C693 H754 0.960 . S
C693 H755 0.961 . S
C694 C695 1.517 . S
C694 H757 0.961 . S
C694 H758 0.960 . S
C694 H759 0.959 . S
C695 C694 1.517 . S
C695 O743 1.468 . S
C695 H756 0.980 . S
C696 C697 1.349 . S
C696 C701 1.367 . S
C696 O743 1.408 . S
C697 C696 1.349 . S
C697 C698 1.407 . S
C697 H760 0.930 . S
C698 C697 1.407 . S
C698 C699 1.449 . S
C698 C702 1.535 . S
C699 C698 1.449 . S
C699 C700 1.384 . S
C699 C724 1.553 . S
C700 C699 1.384 . S
C700 C701 1.364 . S
C700 C703 1.450 . S
C701 C696 1.367 . S
C701 C700 1.364 . S
C701 H761 0.931 . S
C702 C698 1.535 . S
C702 H762 0.959 . S
C702 H763 0.961 . S
C702 H764 0.959 . S
C703 C700 1.450 . S
C703 H765 0.960 . S
C703 H766 0.960 . S
C703 H767 0.960 . S
C704 C705 1.309 . S
C704 C709 1.304 . S
C704 O742 1.435 . S
C705 C704 1.309 . S
C705 C706 1.476 . S
C705 H769 0.930 . S
C706 C705 1.476 . S
C706 C707 1.400 . S
C706 C710 1.567 . S
C707 C706 1.400 . S
C707 C708 1.373 . S
C707 C729 1.432 . S
C708 C707 1.373 . S
C708 C709 1.339 . S
C708 C711 1.530 . S
C709 C704 1.304 . S
C709 C708 1.339 . S
C709 H770 0.930 . S
C710 C706 1.567 . S
C710 H771 0.961 . S
C710 H772 0.960 . S
C710 H773 0.958 . S
C711 C708 1.530 . S
C711 H774 0.961 . S
C711 H775 0.960 . S
C711 H776 0.960 . S
C712 C713 1.530 . S
C712 H778 0.961 . S
C712 H779 0.961 . S
C712 H780 0.959 . S
C713 C712 1.530 . S
C713 O741 1.412 . S
C713 H777 0.980 . S
C714 C715 1.288 . S
C714 C719 1.377 . S
C714 O741 1.393 . S
C715 C714 1.288 . S
C715 C716 1.369 . S
C715 H781 0.932 . S
C716 C715 1.369 . S
C716 C717 1.398 . S
C716 C720 1.527 . S
C717 C716 1.398 . S
C717 C718 1.380 . S
C717 C731 1.497 . S
C718 C717 1.380 . S
C718 C719 1.383 . S
C718 C721 1.603 . S
C719 C714 1.377 . S
C719 C718 1.383 . S
C719 H782 0.929 . S
C720 C716 1.527 . S
C720 H783 0.961 . S
C720 H784 0.959 . S
C720 H785 0.959 . S
C721 C718 1.603 . S
C721 H786 0.960 . S
C721 H787 0.962 . S
C721 H788 0.961 . S
C722 C689 1.587 . S
C722 C723 1.360 . S
C722 C735 1.412 . S
C723 C722 1.360 . S
C723 C724 1.365 . S
C723 H789 0.929 . S
C724 C699 1.553 . S
C724 C723 1.365 . S
C724 C725 1.404 . S
C725 C724 1.404 . S
C725 C726 1.395 . S
C725 C736 1.451 . S
C726 C725 1.395 . S
C726 C727 1.322 . S
C726 H790 0.930 . S
C727 C726 1.322 . S
C727 C728 1.459 . S
C727 H791 0.929 . S
C728 C727 1.459 . S
C728 C729 1.445 . S
C728 C737 1.395 . S
C729 C707 1.432 . S
C729 C728 1.445 . S
C729 C730 1.370 . S
C730 C729 1.370 . S
C730 C731 1.438 . S
C730 H792 0.930 . S
C731 C717 1.497 . S
C731 C730 1.438 . S
C731 C732 1.360 . S
C732 C731 1.360 . S
C732 C733 1.401 . S
C732 C737 1.446 . S
C733 C732 1.401 . S
C733 C734 1.347 . S
C733 H793 0.929 . S
C734 C733 1.347 . S
C734 C735 1.455 . S
C734 H794 0.930 . S
C735 C722 1.412 . S
C735 C734 1.455 . S
C735 C736 1.331 . S
C736 C725 1.451 . S
C736 C735 1.331 . S
C736 C737 1.497 . S
C737 C728 1.395 . S
C737 C732 1.446 . S
C737 C736 1.497 . S
C738 C739 1.582 . S
C738 H795 0.962 . S
C738 H796 0.959 . S
C738 H797 0.958 . S
C739 C738 1.582 . S
C739 O742 1.458 . S
C739 H768 0.980 . S
O740 C685 1.426 . S
O740 C686 1.334 . S
O741 C713 1.412 . S
O741 C714 1.393 . S
O742 C704 1.435 . S
O742 C739 1.458 . S
O743 C695 1.468 . S
O743 C696 1.408 . S
H744 C685 0.980 . S
H745 C684 0.959 . S
H746 C684 0.959 . S
H747 C684 0.960 . S
H748 C687 0.929 . S
H749 C691 0.929 . S
H750 C692 0.959 . S
H751 C692 0.961 . S
H752 C692 0.961 . S
H753 C693 0.960 . S
H754 C693 0.960 . S
H755 C693 0.961 . S
H756 C695 0.980 . S
H757 C694 0.961 . S
H758 C694 0.960 . S
H759 C694 0.959 . S
H760 C697 0.930 . S
H761 C701 0.931 . S
H762 C702 0.959 . S
H763 C702 0.961 . S
H764 C702 0.959 . S
H765 C703 0.960 . S
H766 C703 0.960 . S
H767 C703 0.960 . S
H768 C739 0.980 . S
H769 C705 0.930 . S
H770 C709 0.930 . S
H771 C710 0.961 . S
H772 C710 0.960 . S
H773 C710 0.958 . S
H774 C711 0.961 . S
H775 C711 0.960 . S
H776 C711 0.960 . S
H777 C713 0.980 . S
H778 C712 0.961 . S
H779 C712 0.961 . S
H780 C712 0.959 . S
H781 C715 0.932 . S
H782 C719 0.929 . S
H783 C720 0.961 . S
H784 C720 0.959 . S
H785 C720 0.959 . S
H786 C721 0.960 . S
H787 C721 0.962 . S
H788 C721 0.961 . S
H789 C723 0.929 . S
H790 C726 0.930 . S
H791 C727 0.929 . S
H792 C730 0.930 . S
H793 C733 0.929 . S
H794 C734 0.930 . S
H795 C738 0.962 . S
H796 C738 0.959 . S
H797 C738 0.958 . S
C798 C799 1.560 . S
C798 H859 0.959 . S
C798 H860 0.959 . S
C798 H861 0.960 . S
C799 C798 1.560 . S
C799 O854 1.426 . S
C799 H858 0.980 . S
C800 C801 1.407 . S
C800 C805 1.418 . S
C800 O854 1.334 . S
C801 C800 1.407 . S
C801 C802 1.360 . S
C801 H862 0.929 . S
C802 C801 1.360 . S
C802 C803 1.401 . S
C802 C806 1.527 . S
C803 C802 1.401 . S
C803 C804 1.405 . S
C803 C836 1.587 . S
C804 C803 1.405 . S
C804 C805 1.332 . S
C804 C807 1.496 . S
C805 C800 1.418 . S
C805 C804 1.332 . S
C805 H863 0.929 . S
C806 C802 1.527 . S
C806 H864 0.959 . S
C806 H865 0.961 . S
C806 H866 0.961 . S
C807 C804 1.496 . S
C807 H867 0.960 . S
C807 H868 0.960 . S
C807 H869 0.961 . S
C808 C809 1.517 . S
C808 H871 0.961 . S
C808 H872 0.960 . S
C808 H873 0.959 . S
C809 C808 1.517 . S
C809 O857 1.468 . S
C809 H870 0.980 . S
C810 C811 1.349 . S
C810 C815 1.367 . S
C810 O857 1.408 . S
C811 C810 1.349 . S
C811 C812 1.407 . S
C811 H874 0.930 . S
C812 C811 1.407 . S
C812 C813 1.449 . S
C812 C816 1.535 . S
C813 C812 1.449 . S
C813 C814 1.384 . S
C813 C838 1.553 . S
C814 C813 1.384 . S
C814 C815 1.364 . S
C814 C817 1.450 . S
C815 C810 1.367 . S
C815 C814 1.364 . S
C815 H875 0.931 . S
C816 C812 1.535 . S
C816 H876 0.959 . S
C816 H877 0.961 . S
C816 H878 0.959 . S
C817 C814 1.450 . S
C817 H879 0.960 . S
C817 H880 0.960 . S
C817 H881 0.960 . S
C818 C819 1.309 . S
C818 C823 1.304 . S
C818 O856 1.435 . S
C819 C818 1.309 . S
C819 C820 1.476 . S
C819 H883 0.930 . S
C820 C819 1.476 . S
C820 C821 1.400 . S
C820 C824 1.567 . S
C821 C820 1.400 . S
C821 C822 1.373 . S
C821 C843 1.432 . S
C822 C821 1.373 . S
C822 C823 1.339 . S
C822 C825 1.530 . S
C823 C818 1.304 . S
C823 C822 1.339 . S
C823 H884 0.930 . S
C824 C820 1.567 . S
C824 H885 0.961 . S
C824 H886 0.960 . S
C824 H887 0.958 . S
C825 C822 1.530 . S
C825 H888 0.961 . S
C825 H889 0.960 . S
C825 H890 0.960 . S
C826 C827 1.530 . S
C826 H892 0.961 . S
C826 H893 0.961 . S
C826 H894 0.959 . S
C827 C826 1.530 . S
C827 O855 1.412 . S
C827 H891 0.980 . S
C828 C829 1.288 . S
C828 C833 1.377 . S
C828 O855 1.393 . S
C829 C828 1.288 . S
C829 C830 1.369 . S
C829 H895 0.932 . S
C830 C829 1.369 . S
C830 C831 1.398 . S
C830 C834 1.527 . S
C831 C830 1.398 . S
C831 C832 1.380 . S
C831 C845 1.497 . S
C832 C831 1.380 . S
C832 C833 1.383 . S
C832 C835 1.603 . S
C833 C828 1.377 . S
C833 C832 1.383 . S
C833 H896 0.929 . S
C834 C830 1.527 . S
C834 H897 0.961 . S
C834 H898 0.959 . S
C834 H899 0.959 . S
C835 C832 1.603 . S
C835 H900 0.960 . S
C835 H901 0.962 . S
C835 H902 0.961 . S
C836 C803 1.587 . S
C836 C837 1.360 . S
C836 C849 1.412 . S
C837 C836 1.360 . S
C837 C838 1.365 . S
C837 H903 0.929 . S
C838 C813 1.553 . S
C838 C837 1.365 . S
C838 C839 1.404 . S
C839 C838 1.404 . S
C839 C840 1.395 . S
C839 C850 1.451 . S
C840 C839 1.395 . S
C840 C841 1.322 . S
C840 H904 0.930 . S
C841 C840 1.322 . S
C841 C842 1.459 . S
C841 H905 0.929 . S
C842 C841 1.459 . S
C842 C843 1.445 . S
C842 C851 1.395 . S
C843 C821 1.432 . S
C843 C842 1.445 . S
C843 C844 1.370 . S
C844 C843 1.370 . S
C844 C845 1.438 . S
C844 H906 0.930 . S
C845 C831 1.497 . S
C845 C844 1.438 . S
C845 C846 1.360 . S
C846 C845 1.360 . S
C846 C847 1.401 . S
C846 C851 1.446 . S
C847 C846 1.401 . S
C847 C848 1.347 . S
C847 H907 0.929 . S
C848 C847 1.347 . S
C848 C849 1.455 . S
C848 H908 0.930 . S
C849 C836 1.412 . S
C849 C848 1.455 . S
C849 C850 1.331 . S
C850 C839 1.451 . S
C850 C849 1.331 . S
C850 C851 1.497 . S
C851 C842 1.395 . S
C851 C846 1.446 . S
C851 C850 1.497 . S
C852 C853 1.582 . S
C852 H909 0.962 . S
C852 H910 0.959 . S
C852 H911 0.958 . S
C853 C852 1.582 . S
C853 O856 1.458 . S
C853 H882 0.980 . S
O854 C799 1.426 . S
O854 C800 1.334 . S
O855 C827 1.412 . S
O855 C828 1.393 . S
O856 C818 1.435 . S
O856 C853 1.458 . S
O857 C809 1.468 . S
O857 C810 1.408 . S
H858 C799 0.980 . S
H859 C798 0.959 . S
H860 C798 0.959 . S
H861 C798 0.960 . S
H862 C801 0.929 . S
H863 C805 0.929 . S
H864 C806 0.959 . S
H865 C806 0.961 . S
H866 C806 0.961 . S
H867 C807 0.960 . S
H868 C807 0.960 . S
H869 C807 0.961 . S
H870 C809 0.980 . S
H871 C808 0.961 . S
H872 C808 0.960 . S
H873 C808 0.959 . S
H874 C811 0.930 . S
H875 C815 0.931 . S
H876 C816 0.959 . S
H877 C816 0.961 . S
H878 C816 0.959 . S
H879 C817 0.960 . S
H880 C817 0.960 . S
H881 C817 0.960 . S
H882 C853 0.980 . S
H883 C819 0.930 . S
H884 C823 0.930 . S
H885 C824 0.961 . S
H886 C824 0.960 . S
H887 C824 0.958 . S
H888 C825 0.961 . S
H889 C825 0.960 . S
H890 C825 0.960 . S
H891 C827 0.980 . S
H892 C826 0.961 . S
H893 C826 0.961 . S
H894 C826 0.959 . S
H895 C829 0.932 . S
H896 C833 0.929 . S
H897 C834 0.961 . S
H898 C834 0.959 . S
H899 C834 0.959 . S
H900 C835 0.960 . S
H901 C835 0.962 . S
H902 C835 0.961 . S
H903 C837 0.929 . S
H904 C840 0.930 . S
H905 C841 0.929 . S
H906 C844 0.930 . S
H907 C847 0.929 . S
H908 C848 0.930 . S
H909 C852 0.962 . S
H910 C852 0.959 . S
H911 C852 0.958 . S
C912 C913 1.443 . S
C912 N916 1.376 . S
C912 C950 1.389 . S
C913 C912 1.443 . S
C913 C914 1.340 . S
C913 H953 0.951 . S
C914 C913 1.340 . S
C914 C915 1.439 . S
C914 H954 0.950 . S
C915 C914 1.439 . S
C915 N916 1.374 . S
C915 C949 1.395 . S
N916 C912 1.376 . S
N916 C915 1.374 . S
N916 Co917 2.008 . S
Co917 N916 2.008 . S
Co917 N918 1.995 1_455 S
Co917 N923 2.008 1_455 S
Co917 N928 1.995 . S
Co917 N933 2.282 1_455 S
Co917 N939 2.282 . S
N918 Co917 1.995 1_655 S
N918 C919 1.376 . S
N918 C922 1.383 . S
C919 N918 1.376 . S
C919 C920 1.446 . S
C919 C949 1.391 1_655 S
C920 C919 1.446 . S
C920 C921 1.339 . S
C920 H955 0.949 . S
C921 C920 1.339 . S
C921 C922 1.439 . S
C921 H956 0.950 . S
C922 N918 1.383 . S
C922 C921 1.439 . S
C922 C951 1.392 . S
N923 Co917 2.008 1_655 S
N923 C924 1.376 . S
N923 C927 1.374 . S
C924 N923 1.376 . S
C924 C925 1.443 . S
C924 C951 1.389 . S
C925 C924 1.443 . S
C925 C926 1.340 . S
C925 H957 0.951 . S
C926 C925 1.340 . S
C926 C927 1.439 . S
C926 H958 0.950 . S
C927 N923 1.374 . S
C927 C926 1.439 . S
C927 C952 1.395 1_655 S
N928 Co917 1.995 . S
N928 C929 1.376 . S
N928 C932 1.383 . S
C929 N928 1.376 . S
C929 C930 1.446 . S
C929 C952 1.391 . S
C930 C929 1.446 . S
C930 C931 1.339 . S
C930 H959 0.949 . S
C931 C930 1.339 . S
C931 C932 1.439 . S
C931 H960 0.950 . S
C932 N928 1.383 . S
C932 C931 1.439 . S
C932 C950 1.392 . S
N933 Co917 2.282 1_655 S
N933 C936 1.332 . S
N933 C938 1.332 . S
C934 C935 1.386 . S
C934 C937 1.388 . S
C935 C934 1.386 . S
C935 C936 1.382 . S
C935 H961 0.950 . S
C936 N933 1.332 . S
C936 C935 1.382 . S
C936 H947 0.952 . S
C937 C934 1.388 . S
C937 C938 1.382 . S
C937 H962 0.950 . S
C938 N933 1.332 . S
C938 C937 1.382 . S
C938 H948 0.948 . S
N939 Co917 2.282 . S
N939 C943 1.332 . S
N939 C944 1.332 . S
C940 C941 1.388 . S
C940 C944 1.382 . S
C940 H963 0.950 . S
C941 C940 1.388 . S
C941 C942 1.386 . S
C942 C941 1.386 . S
C942 C943 1.382 . S
C942 H964 0.950 . S
C943 N939 1.332 . S
C943 C942 1.382 . S
C943 H945 0.952 . S
C944 N939 1.332 . S
C944 C940 1.382 . S
C944 H946 0.948 . S
H945 C943 0.952 . S
H946 C944 0.948 . S
H947 C936 0.952 . S
H948 C938 0.948 . S
C949 C915 1.395 . S
C949 C919 1.391 1_455 S
C950 C912 1.389 . S
C950 C932 1.392 . S
C951 C922 1.392 . S
C951 C924 1.389 . S
C952 C927 1.395 1_455 S
C952 C929 1.391 . S
H953 C913 0.951 . S
H954 C914 0.950 . S
H955 C920 0.949 . S
H956 C921 0.950 . S
H957 C925 0.951 . S
H958 C926 0.950 . S
H959 C930 0.949 . S
H960 C931 0.950 . S
H961 C935 0.950 . S
H962 C937 0.950 . S
H963 C940 0.950 . S
H964 C942 0.950 . S
C965 C966 1.443 . S
C965 N969 1.376 . S
C965 C1003 1.389 . S
C966 C965 1.443 . S
C966 C967 1.340 . S
C966 H1006 0.951 . S
C967 C966 1.340 . S
C967 C968 1.439 . S
C967 H1007 0.950 . S
C968 C967 1.439 . S
C968 N969 1.374 . S
C968 C1002 1.395 . S
N969 C965 1.376 . S
N969 C968 1.374 . S
N969 Co970 2.008 . S
Co970 N969 2.008 . S
Co970 N971 1.995 1_545 S
Co970 N976 2.008 1_545 S
Co970 N981 1.995 . S
Co970 N986 2.282 1_545 S
Co970 N992 2.282 . S
N971 Co970 1.995 1_565 S
N971 C972 1.376 . S
N971 C975 1.383 . S
C972 N971 1.376 . S
C972 C973 1.446 . S
C972 C1002 1.391 1_565 S
C973 C972 1.446 . S
C973 C974 1.339 . S
C973 H1008 0.949 . S
C974 C973 1.339 . S
C974 C975 1.439 . S
C974 H1009 0.950 . S
C975 N971 1.383 . S
C975 C974 1.439 . S
C975 C1004 1.392 . S
N976 Co970 2.008 1_565 S
N976 C977 1.376 . S
N976 C980 1.374 . S
C977 N976 1.376 . S
C977 C978 1.443 . S
C977 C1004 1.389 . S
C978 C977 1.443 . S
C978 C979 1.340 . S
C978 H1010 0.951 . S
C979 C978 1.340 . S
C979 C980 1.439 . S
C979 H1011 0.950 . S
C980 N976 1.374 . S
C980 C979 1.439 . S
C980 C1005 1.395 1_565 S
N981 Co970 1.995 . S
N981 C982 1.376 . S
N981 C985 1.383 . S
C982 N981 1.376 . S
C982 C983 1.446 . S
C982 C1005 1.391 . S
C983 C982 1.446 . S
C983 C984 1.339 . S
C983 H1012 0.949 . S
C984 C983 1.339 . S
C984 C985 1.439 . S
C984 H1013 0.950 . S
C985 N981 1.383 . S
C985 C984 1.439 . S
C985 C1003 1.392 . S
N986 Co970 2.282 1_565 S
N986 C989 1.332 . S
N986 C991 1.332 . S
C987 C988 1.386 . S
C987 C990 1.388 . S
C988 C987 1.386 . S
C988 C989 1.382 . S
C988 H1014 0.950 . S
C989 N986 1.332 . S
C989 C988 1.382 . S
C989 H1000 0.952 . S
C990 C987 1.388 . S
C990 C991 1.382 . S
C990 H1015 0.950 . S
C991 N986 1.332 . S
C991 C990 1.382 . S
C991 H1001 0.948 . S
N992 Co970 2.282 . S
N992 C996 1.332 . S
N992 C997 1.332 . S
C993 C994 1.388 . S
C993 C997 1.382 . S
C993 H1016 0.950 . S
C994 C993 1.388 . S
C994 C995 1.386 . S
C995 C994 1.386 . S
C995 C996 1.382 . S
C995 H1017 0.950 . S
C996 N992 1.332 . S
C996 C995 1.382 . S
C996 H998 0.952 . S
C997 N992 1.332 . S
C997 C993 1.382 . S
C997 H999 0.948 . S
H998 C996 0.952 . S
H999 C997 0.948 . S
H1000 C989 0.952 . S
H1001 C991 0.948 . S
C1002 C968 1.395 . S
C1002 C972 1.391 1_545 S
C1003 C965 1.389 . S
C1003 C985 1.392 . S
C1004 C975 1.392 . S
C1004 C977 1.389 . S
C1005 C980 1.395 1_545 S
C1005 C982 1.391 . S
H1006 C966 0.951 . S
H1007 C967 0.950 . S
H1008 C973 0.949 . S
H1009 C974 0.950 . S
H1010 C978 0.951 . S
H1011 C979 0.950 . S
H1012 C983 0.949 . S
H1013 C984 0.950 . S
H1014 C988 0.950 . S
H1015 C990 0.950 . S
H1016 C993 0.950 . S
H1017 C995 0.950 . S
C1018 C1019 1.443 . S
C1018 N1022 1.376 . S
C1018 C1056 1.389 . S
C1019 C1018 1.443 . S
C1019 C1020 1.340 . S
C1019 H1059 0.951 . S
C1020 C1019 1.340 . S
C1020 C1021 1.439 . S
C1020 H1060 0.950 . S
C1021 C1020 1.439 . S
C1021 N1022 1.374 . S
C1021 C1055 1.395 . S
N1022 C1018 1.376 . S
N1022 C1021 1.374 . S
N1022 Co1023 2.008 . S
Co1023 N1022 2.008 . S
Co1023 N1024 1.995 1_455 S
Co1023 N1029 2.008 1_455 S
Co1023 N1034 1.995 . S
Co1023 N1039 2.282 1_455 S
Co1023 N1045 2.282 . S
N1024 Co1023 1.995 1_655 S
N1024 C1025 1.376 . S
N1024 C1028 1.383 . S
C1025 N1024 1.376 . S
C1025 C1026 1.446 . S
C1025 C1055 1.391 1_655 S
C1026 C1025 1.446 . S
C1026 C1027 1.339 . S
C1026 H1061 0.949 . S
C1027 C1026 1.339 . S
C1027 C1028 1.439 . S
C1027 H1062 0.950 . S
C1028 N1024 1.383 . S
C1028 C1027 1.439 . S
C1028 C1057 1.392 . S
N1029 Co1023 2.008 1_655 S
N1029 C1030 1.376 . S
N1029 C1033 1.374 . S
C1030 N1029 1.376 . S
C1030 C1031 1.443 . S
C1030 C1057 1.389 . S
C1031 C1030 1.443 . S
C1031 C1032 1.340 . S
C1031 H1063 0.951 . S
C1032 C1031 1.340 . S
C1032 C1033 1.439 . S
C1032 H1064 0.950 . S
C1033 N1029 1.374 . S
C1033 C1032 1.439 . S
C1033 C1058 1.360 1_655 S
N1034 Co1023 1.995 . S
N1034 C1035 1.376 . S
N1034 C1038 1.383 . S
C1035 N1034 1.376 . S
C1035 C1036 1.446 . S
C1035 C1058 1.429 . S
C1036 C1035 1.446 . S
C1036 C1037 1.339 . S
C1036 H1065 0.949 . S
C1037 C1036 1.339 . S
C1037 C1038 1.439 . S
C1037 H1066 0.950 . S
C1038 N1034 1.383 . S
C1038 C1037 1.439 . S
C1038 C1056 1.392 . S
N1039 Co1023 2.282 1_655 S
N1039 C1042 1.332 . S
N1039 C1044 1.332 . S
C1040 C1041 1.386 . S
C1040 C1043 1.388 . S
C1041 C1040 1.386 . S
C1041 C1042 1.382 . S
C1041 H1067 0.950 . S
C1042 N1039 1.332 . S
C1042 C1041 1.382 . S
C1042 H1053 0.952 . S
C1043 C1040 1.388 . S
C1043 C1044 1.382 . S
C1043 H1068 0.950 . S
C1044 N1039 1.332 . S
C1044 C1043 1.382 . S
C1044 H1054 0.948 . S
N1045 Co1023 2.282 . S
N1045 C1049 1.332 . S
N1045 C1050 1.332 . S
C1046 C1047 1.388 . S
C1046 C1050 1.382 . S
C1046 H1069 0.950 . S
C1047 C1046 1.388 . S
C1047 C1048 1.386 . S
C1048 C1047 1.386 . S
C1048 C1049 1.382 . S
C1048 H1070 0.950 . S
C1049 N1045 1.332 . S
C1049 C1048 1.382 . S
C1049 H1051 0.952 . S
C1050 N1045 1.332 . S
C1050 C1046 1.382 . S
C1050 H1052 0.948 . S
H1051 C1049 0.952 . S
H1052 C1050 0.948 . S
H1053 C1042 0.952 . S
H1054 C1044 0.948 . S
C1055 C1021 1.395 . S
C1055 C1025 1.391 1_455 S
C1056 C1018 1.389 . S
C1056 C1038 1.392 . S
C1057 C1028 1.392 . S
C1057 C1030 1.389 . S
C1058 C1033 1.360 1_455 S
C1058 C1035 1.429 . S
H1059 C1019 0.951 . S
H1060 C1020 0.950 . S
H1061 C1026 0.949 . S
H1062 C1027 0.950 . S
H1063 C1031 0.951 . S
H1064 C1032 0.950 . S
H1065 C1036 0.949 . S
H1066 C1037 0.950 . S
H1067 C1041 0.950 . S
H1068 C1043 0.950 . S
H1069 C1046 0.950 . S
H1070 C1048 0.950 . S
C1071 C1072 1.443 . S
C1071 N1075 1.376 . S
C1071 C1109 1.389 . S
C1072 C1071 1.443 . S
C1072 C1073 1.340 . S
C1072 H1112 0.951 . S
C1073 C1072 1.340 . S
C1073 C1074 1.439 . S
C1073 H1113 0.950 . S
C1074 C1073 1.439 . S
C1074 N1075 1.374 . S
C1074 C1108 1.395 1_565 S
N1075 C1071 1.376 . S
N1075 C1074 1.374 . S
N1075 Co1076 2.008 1_565 S
Co1076 N1075 2.008 1_545 S
Co1076 N1077 1.995 . S
Co1076 N1082 2.008 . S
Co1076 N1087 1.995 1_545 S
Co1076 N1092 2.282 . S
Co1076 N1098 2.282 1_545 S
N1077 Co1076 1.995 . S
N1077 C1078 1.376 . S
N1077 C1081 1.383 . S
C1078 N1077 1.376 . S
C1078 C1079 1.446 . S
C1078 C1108 1.391 . S
C1079 C1078 1.446 . S
C1079 C1080 1.339 . S
C1079 H1114 0.949 . S
C1080 C1079 1.339 . S
C1080 C1081 1.439 . S
C1080 H1115 0.950 . S
C1081 N1077 1.383 . S
C1081 C1080 1.439 . S
C1081 C1110 1.392 . S
N1082 Co1076 2.008 . S
N1082 C1083 1.376 . S
N1082 C1086 1.374 . S
C1083 N1082 1.376 . S
C1083 C1084 1.443 . S
C1083 C1110 1.389 . S
C1084 C1083 1.443 . S
C1084 C1085 1.340 . S
C1084 H1116 0.951 . S
C1085 C1084 1.340 . S
C1085 C1086 1.439 . S
C1085 H1117 0.950 . S
C1086 N1082 1.374 . S
C1086 C1085 1.439 . S
C1086 C1111 1.395 . S
N1087 Co1076 1.995 1_565 S
N1087 C1088 1.376 . S
N1087 C1091 1.383 . S
C1088 N1087 1.376 . S
C1088 C1089 1.446 . S
C1088 C1111 1.391 1_565 S
C1089 C1088 1.446 . S
C1089 C1090 1.339 . S
C1089 H1118 0.949 . S
C1090 C1089 1.339 . S
C1090 C1091 1.439 . S
C1090 H1119 0.950 . S
C1091 N1087 1.383 . S
C1091 C1090 1.439 . S
C1091 C1109 1.392 . S
N1092 Co1076 2.282 . S
N1092 C1095 1.332 . S
N1092 C1097 1.332 . S
C1093 C1094 1.386 . S
C1093 C1096 1.388 . S
C1094 C1093 1.386 . S
C1094 C1095 1.382 . S
C1094 H1120 0.950 . S
C1095 N1092 1.332 . S
C1095 C1094 1.382 . S
C1095 H1106 0.952 . S
C1096 C1093 1.388 . S
C1096 C1097 1.382 . S
C1096 H1121 0.950 . S
C1097 N1092 1.332 . S
C1097 C1096 1.382 . S
C1097 H1107 0.948 . S
N1098 Co1076 2.282 1_565 S
N1098 C1102 1.332 . S
N1098 C1103 1.332 . S
C1099 C1100 1.388 . S
C1099 C1103 1.382 . S
C1099 H1122 0.950 . S
C1100 C1099 1.388 . S
C1100 C1101 1.386 . S
C1101 C1100 1.386 . S
C1101 C1102 1.382 . S
C1101 H1123 0.950 . S
C1102 N1098 1.332 . S
C1102 C1101 1.382 . S
C1102 H1104 0.952 . S
C1103 N1098 1.332 . S
C1103 C1099 1.382 . S
C1103 H1105 0.948 . S
H1104 C1102 0.952 . S
H1105 C1103 0.948 . S
H1106 C1095 0.952 . S
H1107 C1097 0.948 . S
C1108 C1074 1.395 1_545 S
C1108 C1078 1.391 . S
C1109 C1071 1.389 . S
C1109 C1091 1.392 . S
C1110 C1081 1.392 . S
C1110 C1083 1.389 . S
C1111 C1086 1.395 . S
C1111 C1088 1.391 1_545 S
H1112 C1072 0.951 . S
H1113 C1073 0.950 . S
H1114 C1079 0.949 . S
H1115 C1080 0.950 . S
H1116 C1084 0.951 . S
H1117 C1085 0.950 . S
H1118 C1089 0.949 . S
H1119 C1090 0.950 . S
H1120 C1094 0.950 . S
H1121 C1096 0.950 . S
H1122 C1099 0.950 . S
H1123 C1101 0.950 . S
C1124 C1125 1.443 . S
C1124 N1128 1.376 . S
C1124 C1162 1.389 . S
C1125 C1124 1.443 . S
C1125 C1126 1.340 . S
C1125 H1165 0.951 . S
C1126 C1125 1.340 . S
C1126 C1127 1.439 . S
C1126 H1166 0.950 . S
C1127 C1126 1.439 . S
C1127 N1128 1.374 . S
C1127 C1161 1.369 1_554 S
N1128 C1124 1.376 . S
N1128 C1127 1.374 . S
N1128 Co1129 2.020 . S
Co1129 N1128 2.020 . S
Co1129 N1130 1.981 1_554 S
Co1129 N1135 1.997 1_554 S
Co1129 N1140 2.009 . S
Co1129 N1145 2.302 . S
Co1129 N1151 2.264 1_554 S
N1130 Co1129 1.981 1_556 S
N1130 C1131 1.376 . S
N1130 C1134 1.383 . S
C1131 N1130 1.376 . S
C1131 C1132 1.446 . S
C1131 C1161 1.416 . S
C1132 C1131 1.446 . S
C1132 C1133 1.339 . S
C1132 H1167 0.949 . S
C1133 C1132 1.339 . S
C1133 C1134 1.439 . S
C1133 H1168 0.950 . S
C1134 N1130 1.383 . S
C1134 C1133 1.439 . S
C1134 C1163 1.392 . S
N1135 Co1129 1.997 1_556 S
N1135 C1136 1.376 . S
N1135 C1139 1.374 . S
C1136 N1135 1.376 . S
C1136 C1137 1.443 . S
C1136 C1163 1.389 . S
C1137 C1136 1.443 . S
C1137 C1138 1.340 . S
C1137 H1169 0.951 . S
C1138 C1137 1.340 . S
C1138 C1139 1.439 . S
C1138 H1170 0.950 . S
C1139 N1135 1.374 . S
C1139 C1138 1.439 . S
C1139 C1164 1.395 1_556 S
N1140 Co1129 2.009 . S
N1140 C1141 1.376 . S
N1140 C1144 1.383 . S
C1141 N1140 1.376 . S
C1141 C1142 1.446 . S
C1141 C1164 1.391 . S
C1142 C1141 1.446 . S
C1142 C1143 1.339 . S
C1142 H1171 0.949 . S
C1143 C1142 1.339 . S
C1143 C1144 1.439 . S
C1143 H1172 0.950 . S
C1144 N1140 1.383 . S
C1144 C1143 1.439 . S
C1144 C1162 1.392 . S
N1145 Co1129 2.302 . S
N1145 C1148 1.332 . S
N1145 C1150 1.332 . S
C1146 C1147 1.386 . S
C1146 C1149 1.388 . S
C1147 C1146 1.386 . S
C1147 C1148 1.382 . S
C1147 H1173 0.950 . S
C1148 N1145 1.332 . S
C1148 C1147 1.382 . S
C1148 H1159 0.952 . S
C1149 C1146 1.388 . S
C1149 C1150 1.382 . S
C1149 H1174 0.950 . S
C1150 N1145 1.332 . S
C1150 C1149 1.382 . S
C1150 H1160 0.948 . S
N1151 Co1129 2.264 1_556 S
N1151 C1155 1.332 . S
N1151 C1156 1.332 . S
C1152 C1153 1.388 . S
C1152 C1156 1.382 . S
C1152 H1175 0.950 . S
C1153 C1152 1.388 . S
C1153 C1154 1.386 . S
C1154 C1153 1.386 . S
C1154 C1155 1.382 . S
C1154 H1176 0.950 . S
C1155 N1151 1.332 . S
C1155 C1154 1.382 . S
C1155 H1157 0.952 . S
C1156 N1151 1.332 . S
C1156 C1152 1.382 . S
C1156 H1158 0.948 . S
H1157 C1155 0.952 . S
H1158 C1156 0.948 . S
H1159 C1148 0.952 . S
H1160 C1150 0.948 . S
C1161 C1127 1.369 1_556 S
C1161 C1131 1.416 . S
C1162 C1124 1.389 . S
C1162 C1144 1.392 . S
C1163 C1134 1.392 . S
C1163 C1136 1.389 . S
C1164 C1139 1.395 1_554 S
C1164 C1141 1.391 . S
H1165 C1125 0.951 . S
H1166 C1126 0.950 . S
H1167 C1132 0.949 . S
H1168 C1133 0.950 . S
H1169 C1137 0.951 . S
H1170 C1138 0.950 . S
H1171 C1142 0.949 . S
H1172 C1143 0.950 . S
H1173 C1147 0.950 . S
H1174 C1149 0.950 . S
H1175 C1152 0.950 . S
H1176 C1154 0.950 . S
C1177 C1178 1.443 . S
C1177 N1181 1.376 . S
C1177 C1215 1.389 . S
C1178 C1177 1.443 . S
C1178 C1179 1.340 . S
C1178 H1218 0.951 . S
C1179 C1178 1.340 . S
C1179 C1180 1.439 . S
C1179 H1219 0.950 . S
C1180 C1179 1.439 . S
C1180 N1181 1.374 . S
C1180 C1214 1.395 . S
N1181 C1177 1.376 . S
N1181 C1180 1.374 . S
N1181 Co1182 2.008 . S
Co1182 N1181 2.008 . S
Co1182 N1183 1.995 1_554 S
Co1182 N1188 2.022 . S
Co1182 N1193 1.995 . S
Co1182 N1198 2.282 . S
Co1182 N1204 2.282 1_554 S
N1183 Co1182 1.995 1_556 S
N1183 C1184 1.376 . S
N1183 C1187 1.383 . S
C1184 N1183 1.376 . S
C1184 C1185 1.446 . S
C1184 C1214 1.391 1_556 S
C1185 C1184 1.446 . S
C1185 C1186 1.339 . S
C1185 H1220 0.949 . S
C1186 C1185 1.339 . S
C1186 C1187 1.439 . S
C1186 H1221 0.950 . S
C1187 N1183 1.383 . S
C1187 C1186 1.439 . S
C1187 C1216 1.392 . S
N1188 Co1182 2.022 . S
N1188 C1189 1.358 1_554 S
N1188 C1192 1.381 . S
C1189 N1188 1.358 1_556 S
C1189 C1190 1.443 . S
C1189 C1216 1.389 . S
C1190 C1189 1.443 . S
C1190 C1191 1.340 . S
C1190 H1222 0.951 . S
C1191 C1190 1.340 . S
C1191 C1192 1.439 1_556 S
C1191 H1223 0.950 . S
C1192 N1188 1.381 . S
C1192 C1191 1.439 1_554 S
C1192 C1217 1.395 . S
N1193 Co1182 1.995 . S
N1193 C1194 1.376 . S
N1193 C1197 1.383 . S
C1194 N1193 1.376 . S
C1194 C1195 1.446 . S
C1194 C1217 1.391 . S
C1195 C1194 1.446 . S
C1195 C1196 1.339 . S
C1195 H1224 0.949 . S
C1196 C1195 1.339 . S
C1196 C1197 1.439 . S
C1196 H1225 0.950 . S
C1197 N1193 1.383 . S
C1197 C1196 1.439 . S
C1197 C1215 1.392 . S
N1198 Co1182 2.282 . S
N1198 C1201 1.332 . S
N1198 C1203 1.332 . S
C1199 C1200 1.386 . S
C1199 C1202 1.388 . S
C1200 C1199 1.386 . S
C1200 C1201 1.382 . S
C1200 H1226 0.950 . S
C1201 N1198 1.332 . S
C1201 C1200 1.382 . S
C1201 H1212 0.952 . S
C1202 C1199 1.388 . S
C1202 C1203 1.382 . S
C1202 H1227 0.950 . S
C1203 N1198 1.332 . S
C1203 C1202 1.382 . S
C1203 H1213 0.948 . S
N1204 Co1182 2.282 1_556 S
N1204 C1208 1.332 . S
N1204 C1209 1.332 . S
C1205 C1206 1.388 . S
C1205 C1209 1.382 . S
C1205 H1228 0.950 . S
C1206 C1205 1.388 . S
C1206 C1207 1.386 . S
C1207 C1206 1.386 . S
C1207 C1208 1.382 . S
C1207 H1229 0.950 . S
C1208 N1204 1.332 . S
C1208 C1207 1.382 . S
C1208 H1210 0.952 . S
C1209 N1204 1.332 . S
C1209 C1205 1.382 . S
C1209 H1211 0.948 . S
H1210 C1208 0.952 . S
H1211 C1209 0.948 . S
H1212 C1201 0.952 . S
H1213 C1203 0.948 . S
C1214 C1180 1.395 . S
C1214 C1184 1.391 1_554 S
C1215 C1177 1.389 . S
C1215 C1197 1.392 . S
C1216 C1187 1.392 . S
C1216 C1189 1.389 . S
C1217 C1192 1.395 . S
C1217 C1194 1.391 . S
H1218 C1178 0.951 . S
H1219 C1179 0.950 . S
H1220 C1185 0.949 . S
H1221 C1186 0.950 . S
H1222 C1190 0.951 . S
H1223 C1191 0.950 . S
H1224 C1195 0.949 . S
H1225 C1196 0.950 . S
H1226 C1200 0.950 . S
H1227 C1202 0.950 . S
H1228 C1205 0.950 . S
H1229 C1207 0.950 . S
C1230 C1231 1.443 . S
C1230 N1234 1.367 1_556 S
C1230 C1268 1.389 . S
C1231 C1230 1.443 . S
C1231 C1232 1.340 . S
C1231 H1271 0.951 . S
C1232 C1231 1.340 . S
C1232 C1233 1.439 1_556 S
C1232 H1272 0.950 . S
C1233 C1232 1.439 1_554 S
C1233 N1234 1.378 . S
C1233 C1267 1.395 . S
N1234 C1230 1.367 1_554 S
N1234 C1233 1.378 . S
N1234 Co1235 2.015 . S
Co1235 N1234 2.015 . S
Co1235 N1236 1.995 . S
Co1235 N1241 2.008 . S
Co1235 N1246 1.995 1_554 S
Co1235 N1251 2.282 1_554 S
Co1235 N1257 2.282 . S
N1236 Co1235 1.995 . S
N1236 C1237 1.376 . S
N1236 C1240 1.383 . S
C1237 N1236 1.376 . S
C1237 C1238 1.446 . S
C1237 C1267 1.391 . S
C1238 C1237 1.446 . S
C1238 C1239 1.339 . S
C1238 H1273 0.949 . S
C1239 C1238 1.339 . S
C1239 C1240 1.439 . S
C1239 H1274 0.950 . S
C1240 N1236 1.383 . S
C1240 C1239 1.439 . S
C1240 C1269 1.392 . S
N1241 Co1235 2.008 . S
N1241 C1242 1.376 . S
N1241 C1245 1.374 . S
C1242 N1241 1.376 . S
C1242 C1243 1.443 . S
C1242 C1269 1.389 . S
C1243 C1242 1.443 . S
C1243 C1244 1.340 . S
C1243 H1275 0.951 . S
C1244 C1243 1.340 . S
C1244 C1245 1.439 . S
C1244 H1276 0.950 . S
C1245 N1241 1.374 . S
C1245 C1244 1.439 . S
C1245 C1270 1.395 . S
N1246 Co1235 1.995 1_556 S
N1246 C1247 1.376 . S
N1246 C1250 1.383 . S
C1247 N1246 1.376 . S
C1247 C1248 1.446 . S
C1247 C1270 1.391 1_556 S
C1248 C1247 1.446 . S
C1248 C1249 1.339 . S
C1248 H1277 0.949 . S
C1249 C1248 1.339 . S
C1249 C1250 1.439 . S
C1249 H1278 0.950 . S
C1250 N1246 1.383 . S
C1250 C1249 1.439 . S
C1250 C1268 1.392 . S
N1251 Co1235 2.282 1_556 S
N1251 C1254 1.332 . S
N1251 C1256 1.332 . S
C1252 C1253 1.386 . S
C1252 C1255 1.388 . S
C1253 C1252 1.386 . S
C1253 C1254 1.382 . S
C1253 H1279 0.950 . S
C1254 N1251 1.332 . S
C1254 C1253 1.382 . S
C1254 H1265 0.952 . S
C1255 C1252 1.388 . S
C1255 C1256 1.382 . S
C1255 H1280 0.950 . S
C1256 N1251 1.332 . S
C1256 C1255 1.382 . S
C1256 H1266 0.948 . S
N1257 Co1235 2.282 . S
N1257 C1261 1.332 . S
N1257 C1262 1.332 . S
C1258 C1259 1.388 . S
C1258 C1262 1.382 . S
C1258 H1281 0.950 . S
C1259 C1258 1.388 . S
C1259 C1260 1.386 . S
C1260 C1259 1.386 . S
C1260 C1261 1.382 . S
C1260 H1282 0.950 . S
C1261 N1257 1.332 . S
C1261 C1260 1.382 . S
C1261 H1263 0.952 . S
C1262 N1257 1.332 . S
C1262 C1258 1.382 . S
C1262 H1264 0.948 . S
H1263 C1261 0.952 . S
H1264 C1262 0.948 . S
H1265 C1254 0.952 . S
H1266 C1256 0.948 . S
C1267 C1233 1.395 . S
C1267 C1237 1.391 . S
C1268 C1230 1.389 . S
C1268 C1250 1.392 . S
C1269 C1240 1.392 . S
C1269 C1242 1.389 . S
C1270 C1245 1.395 . S
C1270 C1247 1.391 1_554 S
H1271 C1231 0.951 . S
H1272 C1232 0.950 . S
H1273 C1238 0.949 . S
H1274 C1239 0.950 . S
H1275 C1243 0.951 . S
H1276 C1244 0.950 . S
H1277 C1248 0.949 . S
H1278 C1249 0.950 . S
H1279 C1253 0.950 . S
H1280 C1255 0.950 . S
H1281 C1258 0.950 . S
H1282 C1260 0.950 . S
C1283 C1284 1.443 . S
C1283 N1287 1.376 . S
C1283 C1321 1.389 . S
C1284 C1283 1.443 . S
C1284 C1285 1.340 . S
C1284 H1324 0.951 . S
C1285 C1284 1.340 . S
C1285 C1286 1.439 . S
C1285 H1325 0.950 . S
C1286 C1285 1.439 . S
C1286 N1287 1.374 . S
C1286 C1320 1.395 . S
N1287 C1283 1.376 . S
N1287 C1286 1.374 . S
N1287 Co1288 2.008 . S
Co1288 N1287 2.008 . S
Co1288 N1289 1.995 1_554 S
Co1288 N1294 2.008 . S
Co1288 N1299 1.995 . S
Co1288 N1304 2.282 . S
Co1288 N1310 2.282 1_554 S
N1289 Co1288 1.995 1_556 S
N1289 C1290 1.376 . S
N1289 C1293 1.383 . S
C1290 N1289 1.376 . S
C1290 C1291 1.446 . S
C1290 C1320 1.391 1_556 S
C1291 C1290 1.446 . S
C1291 C1292 1.339 . S
C1291 H1326 0.949 . S
C1292 C1291 1.339 . S
C1292 C1293 1.439 . S
C1292 H1327 0.950 . S
C1293 N1289 1.383 . S
C1293 C1292 1.439 . S
C1293 C1322 1.392 . S
N1294 Co1288 2.008 . S
N1294 C1295 1.376 1_554 S
N1294 C1298 1.374 . S
C1295 N1294 1.376 1_556 S
C1295 C1296 1.443 . S
C1295 C1322 1.389 . S
C1296 C1295 1.443 . S
C1296 C1297 1.340 . S
C1296 H1328 0.951 . S
C1297 C1296 1.340 . S
C1297 C1298 1.439 1_556 S
C1297 H1329 0.950 . S
C1298 N1294 1.374 . S
C1298 C1297 1.439 1_554 S
C1298 C1323 1.395 . S
N1299 Co1288 1.995 . S
N1299 C1300 1.376 . S
N1299 C1303 1.383 . S
C1300 N1299 1.376 . S
C1300 C1301 1.446 . S
C1300 C1323 1.391 . S
C1301 C1300 1.446 . S
C1301 C1302 1.339 . S
C1301 H1330 0.949 . S
C1302 C1301 1.339 . S
C1302 C1303 1.439 . S
C1302 H1331 0.950 . S
C1303 N1299 1.383 . S
C1303 C1302 1.439 . S
C1303 C1321 1.392 . S
N1304 Co1288 2.282 . S
N1304 C1307 1.332 . S
N1304 C1309 1.332 . S
C1305 C1306 1.386 . S
C1305 C1308 1.388 . S
C1306 C1305 1.386 . S
C1306 C1307 1.382 . S
C1306 H1332 0.950 . S
C1307 N1304 1.332 . S
C1307 C1306 1.382 . S
C1307 H1318 0.952 . S
C1308 C1305 1.388 . S
C1308 C1309 1.382 . S
C1308 H1333 0.950 . S
C1309 N1304 1.332 . S
C1309 C1308 1.382 . S
C1309 H1319 0.948 . S
N1310 Co1288 2.282 1_556 S
N1310 C1314 1.332 . S
N1310 C1315 1.332 . S
C1311 C1312 1.388 . S
C1311 C1315 1.382 . S
C1311 H1334 0.950 . S
C1312 C1311 1.388 . S
C1312 C1313 1.386 . S
C1313 C1312 1.386 . S
C1313 C1314 1.382 . S
C1313 H1335 0.950 . S
C1314 N1310 1.332 . S
C1314 C1313 1.382 . S
C1314 H1316 0.952 . S
C1315 N1310 1.332 . S
C1315 C1311 1.382 . S
C1315 H1317 0.948 . S
H1316 C1314 0.952 . S
H1317 C1315 0.948 . S
H1318 C1307 0.952 . S
H1319 C1309 0.948 . S
C1320 C1286 1.395 . S
C1320 C1290 1.391 1_554 S
C1321 C1283 1.389 . S
C1321 C1303 1.392 . S
C1322 C1293 1.392 . S
C1322 C1295 1.389 . S
C1323 C1298 1.395 . S
C1323 C1300 1.391 . S
H1324 C1284 0.951 . S
H1325 C1285 0.950 . S
H1326 C1291 0.949 . S
H1327 C1292 0.950 . S
H1328 C1296 0.951 . S
H1329 C1297 0.950 . S
H1330 C1301 0.949 . S
H1331 C1302 0.950 . S
H1332 C1306 0.950 . S
H1333 C1308 0.950 . S
H1334 C1311 0.950 . S
H1335 C1313 0.950 . S
H1336 C1342 0.930 . S
H1337 C1346 0.930 . S
H1338 C1351 0.929 . S
H1339 C1349 0.929 . S
H1340 C1344 0.929 . S
H1341 C1350 0.929 . S
C1342 H1336 0.930 . S
C1342 C1343 1.367 . S
C1342 C1350 1.378 . S
C1343 C1342 1.367 . S
C1343 C1351 1.433 . S
C1344 H1340 0.929 . S
C1344 C1346 1.378 . S
C1344 C1348 1.350 . S
C1345 C1348 1.463 . S
C1345 C1350 1.350 . S
C1345 N1353 1.427 . S
C1346 H1337 0.930 . S
C1346 C1344 1.378 . S
C1346 C1347 1.367 . S
C1347 C1346 1.367 . S
C1347 C1349 1.433 . S
C1348 C1344 1.350 . S
C1348 C1345 1.463 . S
C1348 N1352 1.427 . S
C1349 H1339 0.929 . S
C1349 C1347 1.433 . S
C1349 N1352 1.384 . S
C1350 H1341 0.929 . S
C1350 C1342 1.378 . S
C1350 C1345 1.350 . S
C1351 H1338 0.929 . S
C1351 C1343 1.433 . S
C1351 N1353 1.384 . S
N1352 C1348 1.427 . S
N1352 C1349 1.384 . S
N1353 C1345 1.427 . S
N1353 C1351 1.384 . S
H1354 C1360 0.930 . S
H1355 C1364 0.930 . S
H1356 C1369 0.929 . S
H1357 C1367 0.929 . S
H1358 C1362 0.929 . S
H1359 C1368 0.929 . S
C1360 H1354 0.930 . S
C1360 C1361 1.367 . S
C1360 C1368 1.378 . S
C1361 C1360 1.367 . S
C1361 C1369 1.433 . S
C1362 H1358 0.929 . S
C1362 C1364 1.378 . S
C1362 C1366 1.350 . S
C1363 C1366 1.463 . S
C1363 C1368 1.350 . S
C1363 N1371 1.427 . S
C1364 H1355 0.930 . S
C1364 C1362 1.378 . S
C1364 C1365 1.367 . S
C1365 C1364 1.367 . S
C1365 C1367 1.433 . S
C1366 C1362 1.350 . S
C1366 C1363 1.463 . S
C1366 N1370 1.427 . S
C1367 H1357 0.929 . S
C1367 C1365 1.433 . S
C1367 N1370 1.384 . S
C1368 H1359 0.929 . S
C1368 C1360 1.378 . S
C1368 C1363 1.350 . S
C1369 H1356 0.929 . S
C1369 C1361 1.433 . S
C1369 N1371 1.384 . S
N1370 C1366 1.427 . S
N1370 C1367 1.384 . S
N1371 C1363 1.427 . S
N1371 C1369 1.384 . S
H1372 C1378 0.930 . S
H1373 C1382 0.930 . S
H1374 C1387 0.929 . S
H1375 C1385 0.929 . S
H1376 C1380 0.929 . S
H1377 C1386 0.929 . S
C1378 H1372 0.930 . S
C1378 C1379 1.367 . S
C1378 C1386 1.378 . S
C1379 C1378 1.367 . S
C1379 C1387 1.433 . S
C1380 H1376 0.929 . S
C1380 C1382 1.378 . S
C1380 C1384 1.350 . S
C1381 C1384 1.463 . S
C1381 C1386 1.350 . S
C1381 N1389 1.427 . S
C1382 H1373 0.930 . S
C1382 C1380 1.378 . S
C1382 C1383 1.367 . S
C1383 C1382 1.367 . S
C1383 C1385 1.433 . S
C1384 C1380 1.350 . S
C1384 C1381 1.463 . S
C1384 N1388 1.427 . S
C1385 H1375 0.929 . S
C1385 C1383 1.433 . S
C1385 N1388 1.384 . S
C1386 H1377 0.929 . S
C1386 C1378 1.378 . S
C1386 C1381 1.350 . S
C1387 H1374 0.929 . S
C1387 C1379 1.433 . S
C1387 N1389 1.384 . S
N1388 C1384 1.427 . S
N1388 C1385 1.384 . S
N1389 C1381 1.427 . S
N1389 C1387 1.384 . S
H1390 C1396 0.930 . S
H1391 C1400 0.930 . S
H1392 C1405 0.929 . S
H1393 C1403 0.929 . S
H1394 C1398 0.929 . S
H1395 C1404 0.929 . S
C1396 H1390 0.930 . S
C1396 C1397 1.367 . S
C1396 C1404 1.378 . S
C1397 C1396 1.367 . S
C1397 C1405 1.433 . S
C1398 H1394 0.929 . S
C1398 C1400 1.378 . S
C1398 C1402 1.350 . S
C1399 C1402 1.463 . S
C1399 C1404 1.350 . S
C1399 N1407 1.427 . S
C1400 H1391 0.930 . S
C1400 C1398 1.378 . S
C1400 C1401 1.367 . S
C1401 C1400 1.367 . S
C1401 C1403 1.433 . S
C1402 C1398 1.350 . S
C1402 C1399 1.463 . S
C1402 N1406 1.427 . S
C1403 H1393 0.929 . S
C1403 C1401 1.433 . S
C1403 N1406 1.384 . S
C1404 H1395 0.929 . S
C1404 C1396 1.378 . S
C1404 C1399 1.350 . S
C1405 H1392 0.929 . S
C1405 C1397 1.433 . S
C1405 N1407 1.384 . S
N1406 C1402 1.427 . S
N1406 C1403 1.384 . S
N1407 C1399 1.427 . S
N1407 C1405 1.384 . S
H1408 C1414 0.930 . S
H1409 C1418 0.930 . S
H1410 C1423 0.929 . S
H1411 C1421 0.929 . S
H1412 C1416 0.929 . S
H1413 C1422 0.929 . S
C1414 H1408 0.930 . S
C1414 C1415 1.367 . S
C1414 C1422 1.378 . S
C1415 C1414 1.367 . S
C1415 C1423 1.433 . S
C1416 H1412 0.929 . S
C1416 C1418 1.378 . S
C1416 C1420 1.350 . S
C1417 C1420 1.463 . S
C1417 C1422 1.350 . S
C1417 N1425 1.427 . S
C1418 H1409 0.930 . S
C1418 C1416 1.378 . S
C1418 C1419 1.367 . S
C1419 C1418 1.367 . S
C1419 C1421 1.433 . S
C1420 C1416 1.350 . S
C1420 C1417 1.463 . S
C1420 N1424 1.427 . S
C1421 H1411 0.929 . S
C1421 C1419 1.433 . S
C1421 N1424 1.384 . S
C1422 H1413 0.929 . S
C1422 C1414 1.378 . S
C1422 C1417 1.350 . S
C1423 H1410 0.929 . S
C1423 C1415 1.433 . S
C1423 N1425 1.384 . S
N1424 C1420 1.427 . S
N1424 C1421 1.384 . S
N1425 C1417 1.427 . S
N1425 C1423 1.384 . S
H1426 C1432 0.930 . S
H1427 C1436 0.930 . S
H1428 C1441 0.929 . S
H1429 C1439 0.929 . S
H1430 C1434 0.929 . S
H1431 C1440 0.929 . S
C1432 H1426 0.930 . S
C1432 C1433 1.367 . S
C1432 C1440 1.378 . S
C1433 C1432 1.367 . S
C1433 C1441 1.433 . S
C1434 H1430 0.929 . S
C1434 C1436 1.378 . S
C1434 C1438 1.350 . S
C1435 C1438 1.463 . S
C1435 C1440 1.350 . S
C1435 N1443 1.427 . S
C1436 H1427 0.930 . S
C1436 C1434 1.378 . S
C1436 C1437 1.367 . S
C1437 C1436 1.367 . S
C1437 C1439 1.433 . S
C1438 C1434 1.350 . S
C1438 C1435 1.463 . S
C1438 N1442 1.427 . S
C1439 H1429 0.929 . S
C1439 C1437 1.433 . S
C1439 N1442 1.384 . S
C1440 H1431 0.929 . S
C1440 C1432 1.378 . S
C1440 C1435 1.350 . S
C1441 H1428 0.929 . S
C1441 C1433 1.433 . S
C1441 N1443 1.384 . S
N1442 C1438 1.427 . S
N1442 C1439 1.384 . S
N1443 C1435 1.427 . S
N1443 C1441 1.384 . S
H1444 C1450 0.930 . S
H1445 C1454 0.930 . S
H1446 C1459 0.929 . S
H1447 C1457 0.929 . S
H1448 C1452 0.929 . S
H1449 C1458 0.929 . S
C1450 H1444 0.930 . S
C1450 C1451 1.367 . S
C1450 C1458 1.378 . S
C1451 C1450 1.367 . S
C1451 C1459 1.433 . S
C1452 H1448 0.929 . S
C1452 C1454 1.378 . S
C1452 C1456 1.350 . S
C1453 C1456 1.463 . S
C1453 C1458 1.350 . S
C1453 N1461 1.427 . S
C1454 H1445 0.930 . S
C1454 C1452 1.378 . S
C1454 C1455 1.367 . S
C1455 C1454 1.367 . S
C1455 C1457 1.433 . S
C1456 C1452 1.350 . S
C1456 C1453 1.463 . S
C1456 N1460 1.427 . S
C1457 H1447 0.929 . S
C1457 C1455 1.433 . S
C1457 N1460 1.384 . S
C1458 H1449 0.929 . S
C1458 C1450 1.378 . S
C1458 C1453 1.350 . S
C1459 H1446 0.929 . S
C1459 C1451 1.433 . S
C1459 N1461 1.384 . S
N1460 C1456 1.427 . S
N1460 C1457 1.384 . S
N1461 C1453 1.427 . S
N1461 C1459 1.384 . S
H1462 C1468 0.930 . S
H1463 C1472 0.930 . S
H1464 C1477 0.929 . S
H1465 C1475 0.929 . S
H1466 C1470 0.929 . S
H1467 C1476 0.929 . S
C1468 H1462 0.930 . S
C1468 C1469 1.367 . S
C1468 C1476 1.378 . S
C1469 C1468 1.367 . S
C1469 C1477 1.433 . S
C1470 H1466 0.929 . S
C1470 C1472 1.378 . S
C1470 C1474 1.350 . S
C1471 C1474 1.463 . S
C1471 C1476 1.350 . S
C1471 N1479 1.427 . S
C1472 H1463 0.930 . S
C1472 C1470 1.378 . S
C1472 C1473 1.367 . S
C1473 C1472 1.367 . S
C1473 C1475 1.433 . S
C1474 C1470 1.350 . S
C1474 C1471 1.463 . S
C1474 N1478 1.427 . S
C1475 H1465 0.929 . S
C1475 C1473 1.433 . S
C1475 N1478 1.384 . S
C1476 H1467 0.929 . S
C1476 C1468 1.378 . S
C1476 C1471 1.350 . S
C1477 H1464 0.929 . S
C1477 C1469 1.433 . S
C1477 N1479 1.384 . S
N1478 C1474 1.427 . S
N1478 C1475 1.384 . S
N1479 C1471 1.427 . S
N1479 C1477 1.384 . S
H1480 C1486 0.930 . S
H1481 C1490 0.930 . S
H1482 C1495 0.929 . S
H1483 C1493 0.929 . S
H1484 C1488 0.929 . S
H1485 C1494 0.929 . S
C1486 H1480 0.930 . S
C1486 C1487 1.367 . S
C1486 C1494 1.378 . S
C1487 C1486 1.367 . S
C1487 C1495 1.433 . S
C1488 H1484 0.929 . S
C1488 C1490 1.378 . S
C1488 C1492 1.350 . S
C1489 C1492 1.463 . S
C1489 C1494 1.350 . S
C1489 N1497 1.427 . S
C1490 H1481 0.930 . S
C1490 C1488 1.378 . S
C1490 C1491 1.367 . S
C1491 C1490 1.367 . S
C1491 C1493 1.433 . S
C1492 C1488 1.350 . S
C1492 C1489 1.463 . S
C1492 N1496 1.427 . S
C1493 H1483 0.929 . S
C1493 C1491 1.433 . S
C1493 N1496 1.384 . S
C1494 H1485 0.929 . S
C1494 C1486 1.378 . S
C1494 C1489 1.350 . S
C1495 H1482 0.929 . S
C1495 C1487 1.433 . S
C1495 N1497 1.384 . S
N1496 C1492 1.427 . S
N1496 C1493 1.384 . S
N1497 C1489 1.427 . S
N1497 C1495 1.384 . S
H1498 C1504 0.930 . S
H1499 C1508 0.930 . S
H1500 C1513 0.929 . S
H1501 C1511 0.929 . S
H1502 C1506 0.929 . S
H1503 C1512 0.929 . S
C1504 H1498 0.930 . S
C1504 C1505 1.367 . S
C1504 C1512 1.378 . S
C1505 C1504 1.367 . S
C1505 C1513 1.433 . S
C1506 H1502 0.929 . S
C1506 C1508 1.378 . S
C1506 C1510 1.350 . S
C1507 C1510 1.463 . S
C1507 C1512 1.350 . S
C1507 N1515 1.427 . S
C1508 H1499 0.930 . S
C1508 C1506 1.378 . S
C1508 C1509 1.367 . S
C1509 C1508 1.367 . S
C1509 C1511 1.433 . S
C1510 C1506 1.350 . S
C1510 C1507 1.463 . S
C1510 N1514 1.427 . S
C1511 H1501 0.929 . S
C1511 C1509 1.433 . S
C1511 N1514 1.384 . S
C1512 H1503 0.929 . S
C1512 C1504 1.378 . S
C1512 C1507 1.350 . S
C1513 H1500 0.929 . S
C1513 C1505 1.433 . S
C1513 N1515 1.384 . S
N1514 C1510 1.427 . S
N1514 C1511 1.384 . S
N1515 C1507 1.427 . S
N1515 C1513 1.384 . S
H1516 C1522 0.930 . S
H1517 C1526 0.930 . S
H1518 C1531 0.929 . S
H1519 C1529 0.929 . S
H1520 C1524 0.929 . S
H1521 C1530 0.929 . S
C1522 H1516 0.930 . S
C1522 C1523 1.367 . S
C1522 C1530 1.378 . S
C1523 C1522 1.367 . S
C1523 C1531 1.433 . S
C1524 H1520 0.929 . S
C1524 C1526 1.378 . S
C1524 C1528 1.350 . S
C1525 C1528 1.463 . S
C1525 C1530 1.350 . S
C1525 N1533 1.427 . S
C1526 H1517 0.930 . S
C1526 C1524 1.378 . S
C1526 C1527 1.367 . S
C1527 C1526 1.367 . S
C1527 C1529 1.433 . S
C1528 C1524 1.350 . S
C1528 C1525 1.463 . S
C1528 N1532 1.427 . S
C1529 H1519 0.929 . S
C1529 C1527 1.433 . S
C1529 N1532 1.384 . S
C1530 H1521 0.929 . S
C1530 C1522 1.378 . S
C1530 C1525 1.350 . S
C1531 H1518 0.929 . S
C1531 C1523 1.433 . S
C1531 N1533 1.384 . S
N1532 C1528 1.427 . S
N1532 C1529 1.384 . S
N1533 C1525 1.427 . S
N1533 C1531 1.384 . S
H1534 C1540 0.930 . S
H1535 C1544 0.930 . S
H1536 C1549 0.929 . S
H1537 C1547 0.929 . S
H1538 C1542 0.929 . S
H1539 C1548 0.929 . S
C1540 H1534 0.930 . S
C1540 C1541 1.367 . S
C1540 C1548 1.378 . S
C1541 C1540 1.367 . S
C1541 C1549 1.433 . S
C1542 H1538 0.929 . S
C1542 C1544 1.378 . S
C1542 C1546 1.350 . S
C1543 C1546 1.463 . S
C1543 C1548 1.350 . S
C1543 N1551 1.427 . S
C1544 H1535 0.930 . S
C1544 C1542 1.378 . S
C1544 C1545 1.367 . S
C1545 C1544 1.367 . S
C1545 C1547 1.433 . S
C1546 C1542 1.350 . S
C1546 C1543 1.463 . S
C1546 N1550 1.427 . S
C1547 H1537 0.929 . S
C1547 C1545 1.433 . S
C1547 N1550 1.384 . S
C1548 H1539 0.929 . S
C1548 C1540 1.378 . S
C1548 C1543 1.350 . S
C1549 H1536 0.929 . S
C1549 C1541 1.433 . S
C1549 N1551 1.384 . S
N1550 C1546 1.427 . S
N1550 C1547 1.384 . S
N1551 C1543 1.427 . S
N1551 C1549 1.384 . S
H1552 C1558 0.930 . S
H1553 C1562 0.930 . S
H1554 C1567 0.929 . S
H1555 C1565 0.929 . S
H1556 C1560 0.929 . S
H1557 C1566 0.929 . S
C1558 H1552 0.930 . S
C1558 C1559 1.367 . S
C1558 C1566 1.378 . S
C1559 C1558 1.367 . S
C1559 C1567 1.433 . S
C1560 H1556 0.929 . S
C1560 C1562 1.378 . S
C1560 C1564 1.350 . S
C1561 C1564 1.463 . S
C1561 C1566 1.350 . S
C1561 N1569 1.427 . S
C1562 H1553 0.930 . S
C1562 C1560 1.378 . S
C1562 C1563 1.367 . S
C1563 C1562 1.367 . S
C1563 C1565 1.433 . S
C1564 C1560 1.350 . S
C1564 C1561 1.463 . S
C1564 N1568 1.427 . S
C1565 H1555 0.929 . S
C1565 C1563 1.433 . S
C1565 N1568 1.384 . S
C1566 H1557 0.929 . S
C1566 C1558 1.378 . S
C1566 C1561 1.350 . S
C1567 H1554 0.929 . S
C1567 C1559 1.433 . S
C1567 N1569 1.384 . S
N1568 C1564 1.427 . S
N1568 C1565 1.384 . S
N1569 C1561 1.427 . S
N1569 C1567 1.384 . S
H1570 C1576 0.930 . S
H1571 C1580 0.930 . S
H1572 C1585 0.929 . S
H1573 C1583 0.929 . S
H1574 C1578 0.929 . S
H1575 C1584 0.929 . S
C1576 H1570 0.930 . S
C1576 C1577 1.367 . S
C1576 C1584 1.378 . S
C1577 C1576 1.367 . S
C1577 C1585 1.433 . S
C1578 H1574 0.929 . S
C1578 C1580 1.378 . S
C1578 C1582 1.350 . S
C1579 C1582 1.463 . S
C1579 C1584 1.350 . S
C1579 N1587 1.427 . S
C1580 H1571 0.930 . S
C1580 C1578 1.378 . S
C1580 C1581 1.367 . S
C1581 C1580 1.367 . S
C1581 C1583 1.433 . S
C1582 C1578 1.350 . S
C1582 C1579 1.463 . S
C1582 N1586 1.427 . S
C1583 H1573 0.929 . S
C1583 C1581 1.433 . S
C1583 N1586 1.384 . S
C1584 H1575 0.929 . S
C1584 C1576 1.378 . S
C1584 C1579 1.350 . S
C1585 H1572 0.929 . S
C1585 C1577 1.433 . S
C1585 N1587 1.384 . S
N1586 C1582 1.427 . S
N1586 C1583 1.384 . S
N1587 C1579 1.427 . S
N1587 C1585 1.384 . S
H1588 C1594 0.930 . S
H1589 C1598 0.930 . S
H1590 C1603 0.929 . S
H1591 C1601 0.929 . S
H1592 C1596 0.929 . S
H1593 C1602 0.929 . S
C1594 H1588 0.930 . S
C1594 C1595 1.367 . S
C1594 C1602 1.378 . S
C1595 C1594 1.367 . S
C1595 C1603 1.433 . S
C1596 H1592 0.929 . S
C1596 C1598 1.378 . S
C1596 C1600 1.350 . S
C1597 C1600 1.463 . S
C1597 C1602 1.350 . S
C1597 N1605 1.427 . S
C1598 H1589 0.930 . S
C1598 C1596 1.378 . S
C1598 C1599 1.367 . S
C1599 C1598 1.367 . S
C1599 C1601 1.433 . S
C1600 C1596 1.350 . S
C1600 C1597 1.463 . S
C1600 N1604 1.427 . S
C1601 H1591 0.929 . S
C1601 C1599 1.433 . S
C1601 N1604 1.384 . S
C1602 H1593 0.929 . S
C1602 C1594 1.378 . S
C1602 C1597 1.350 . S
C1603 H1590 0.929 . S
C1603 C1595 1.433 . S
C1603 N1605 1.384 . S
N1604 C1600 1.427 . S
N1604 C1601 1.384 . S
N1605 C1597 1.427 . S
N1605 C1603 1.384 . S
H1606 C1612 0.930 . S
H1607 C1616 0.930 . S
H1608 C1621 0.929 . S
H1609 C1619 0.929 . S
H1610 C1614 0.929 . S
H1611 C1620 0.929 . S
C1612 H1606 0.930 . S
C1612 C1613 1.367 . S
C1612 C1620 1.378 . S
C1613 C1612 1.367 . S
C1613 C1621 1.433 . S
C1614 H1610 0.929 . S
C1614 C1616 1.378 . S
C1614 C1618 1.350 . S
C1615 C1618 1.463 . S
C1615 C1620 1.350 . S
C1615 N1623 1.427 . S
C1616 H1607 0.930 . S
C1616 C1614 1.378 . S
C1616 C1617 1.367 . S
C1617 C1616 1.367 . S
C1617 C1619 1.433 . S
C1618 C1614 1.350 . S
C1618 C1615 1.463 . S
C1618 N1622 1.427 . S
C1619 H1609 0.929 . S
C1619 C1617 1.433 . S
C1619 N1622 1.384 . S
C1620 H1611 0.929 . S
C1620 C1612 1.378 . S
C1620 C1615 1.350 . S
C1621 H1608 0.929 . S
C1621 C1613 1.433 . S
C1621 N1623 1.384 . S
N1622 C1618 1.427 . S
N1622 C1619 1.384 . S
N1623 C1615 1.427 . S
N1623 C1621 1.384 . S
H1624 C1630 0.930 . S
H1625 C1634 0.930 . S
H1626 C1639 0.929 . S
H1627 C1637 0.929 . S
H1628 C1632 0.929 . S
H1629 C1638 0.929 . S
C1630 H1624 0.930 . S
C1630 C1631 1.367 . S
C1630 C1638 1.378 . S
C1631 C1630 1.367 . S
C1631 C1639 1.433 . S
C1632 H1628 0.929 . S
C1632 C1634 1.378 . S
C1632 C1636 1.350 . S
C1633 C1636 1.463 . S
C1633 C1638 1.350 . S
C1633 N1641 1.427 . S
C1634 H1625 0.930 . S
C1634 C1632 1.378 . S
C1634 C1635 1.367 . S
C1635 C1634 1.367 . S
C1635 C1637 1.433 . S
C1636 C1632 1.350 . S
C1636 C1633 1.463 . S
C1636 N1640 1.427 . S
C1637 H1627 0.929 . S
C1637 C1635 1.433 . S
C1637 N1640 1.384 . S
C1638 H1629 0.929 . S
C1638 C1630 1.378 . S
C1638 C1633 1.350 . S
C1639 H1626 0.929 . S
C1639 C1631 1.433 . S
C1639 N1641 1.384 . S
N1640 C1636 1.427 . S
N1640 C1637 1.384 . S
N1641 C1633 1.427 . S
N1641 C1639 1.384 . S
H1642 C1648 0.930 . S
H1643 C1652 0.930 . S
H1644 C1657 0.929 . S
H1645 C1655 0.929 . S
H1646 C1650 0.929 . S
H1647 C1656 0.929 . S
C1648 H1642 0.930 . S
C1648 C1649 1.367 . S
C1648 C1656 1.378 . S
C1649 C1648 1.367 . S
C1649 C1657 1.433 . S
C1650 H1646 0.929 . S
C1650 C1652 1.378 . S
C1650 C1654 1.350 . S
C1651 C1654 1.463 . S
C1651 C1656 1.350 . S
C1651 N1659 1.427 . S
C1652 H1643 0.930 . S
C1652 C1650 1.378 . S
C1652 C1653 1.367 . S
C1653 C1652 1.367 . S
C1653 C1655 1.433 . S
C1654 C1650 1.350 . S
C1654 C1651 1.463 . S
C1654 N1658 1.427 . S
C1655 H1645 0.929 . S
C1655 C1653 1.433 . S
C1655 N1658 1.384 . S
C1656 H1647 0.929 . S
C1656 C1648 1.378 . S
C1656 C1651 1.350 . S
C1657 H1644 0.929 . S
C1657 C1649 1.433 . S
C1657 N1659 1.384 . S
N1658 C1654 1.427 . S
N1658 C1655 1.384 . S
N1659 C1651 1.427 . S
N1659 C1657 1.384 . S
H1660 C1666 0.930 . S
H1661 C1670 0.930 . S
H1662 C1675 0.929 . S
H1663 C1673 0.929 . S
H1664 C1668 0.929 . S
H1665 C1674 0.929 . S
C1666 H1660 0.930 . S
C1666 C1667 1.367 . S
C1666 C1674 1.378 . S
C1667 C1666 1.367 . S
C1667 C1675 1.433 . S
C1668 H1664 0.929 . S
C1668 C1670 1.378 . S
C1668 C1672 1.350 . S
C1669 C1672 1.463 . S
C1669 C1674 1.350 . S
C1669 N1677 1.427 . S
C1670 H1661 0.930 . S
C1670 C1668 1.378 . S
C1670 C1671 1.367 . S
C1671 C1670 1.367 . S
C1671 C1673 1.433 . S
C1672 C1668 1.350 . S
C1672 C1669 1.463 . S
C1672 N1676 1.427 . S
C1673 H1663 0.929 . S
C1673 C1671 1.433 . S
C1673 N1676 1.384 . S
C1674 H1665 0.929 . S
C1674 C1666 1.378 . S
C1674 C1669 1.350 . S
C1675 H1662 0.929 . S
C1675 C1667 1.433 . S
C1675 N1677 1.384 . S
N1676 C1672 1.427 . S
N1676 C1673 1.384 . S
N1677 C1669 1.427 . S
N1677 C1675 1.384 . S
H1678 C1684 0.930 . S
H1679 C1688 0.930 . S
H1680 C1693 0.929 . S
H1681 C1691 0.929 . S
H1682 C1686 0.929 . S
H1683 C1692 0.929 . S
C1684 H1678 0.930 . S
C1684 C1685 1.367 . S
C1684 C1692 1.378 . S
C1685 C1684 1.367 . S
C1685 C1693 1.433 . S
C1686 H1682 0.929 . S
C1686 C1688 1.378 . S
C1686 C1690 1.350 . S
C1687 C1690 1.463 . S
C1687 C1692 1.350 . S
C1687 N1695 1.427 . S
C1688 H1679 0.930 . S
C1688 C1686 1.378 . S
C1688 C1689 1.367 . S
C1689 C1688 1.367 . S
C1689 C1691 1.433 . S
C1690 C1686 1.350 . S
C1690 C1687 1.463 . S
C1690 N1694 1.427 . S
C1691 H1681 0.929 . S
C1691 C1689 1.433 . S
C1691 N1694 1.384 . S
C1692 H1683 0.929 . S
C1692 C1684 1.378 . S
C1692 C1687 1.350 . S
C1693 H1680 0.929 . S
C1693 C1685 1.433 . S
C1693 N1695 1.384 . S
N1694 C1690 1.427 . S
N1694 C1691 1.384 . S
N1695 C1687 1.427 . S
N1695 C1693 1.384 . S
H1696 C1702 0.930 . S
H1697 C1706 0.930 . S
H1698 C1711 0.929 . S
H1699 C1709 0.929 . S
H1700 C1704 0.929 . S
H1701 C1710 0.929 . S
C1702 H1696 0.930 . S
C1702 C1703 1.367 . S
C1702 C1710 1.378 . S
C1703 C1702 1.367 . S
C1703 C1711 1.433 . S
C1704 H1700 0.929 . S
C1704 C1706 1.378 . S
C1704 C1708 1.350 . S
C1705 C1708 1.463 . S
C1705 C1710 1.350 . S
C1705 N1713 1.427 . S
C1706 H1697 0.930 . S
C1706 C1704 1.378 . S
C1706 C1707 1.367 . S
C1707 C1706 1.367 . S
C1707 C1709 1.433 . S
C1708 C1704 1.350 . S
C1708 C1705 1.463 . S
C1708 N1712 1.427 . S
C1709 H1699 0.929 . S
C1709 C1707 1.433 . S
C1709 N1712 1.384 . S
C1710 H1701 0.929 . S
C1710 C1702 1.378 . S
C1710 C1705 1.350 . S
C1711 H1698 0.929 . S
C1711 C1703 1.433 . S
C1711 N1713 1.384 . S
N1712 C1708 1.427 . S
N1712 C1709 1.384 . S
N1713 C1705 1.427 . S
N1713 C1711 1.384 . S
H1714 C1720 0.930 . S
H1715 C1724 0.930 . S
H1716 C1729 0.929 . S
H1717 C1727 0.929 . S
H1718 C1722 0.929 . S
H1719 C1728 0.929 . S
C1720 H1714 0.930 . S
C1720 C1721 1.367 . S
C1720 C1728 1.378 . S
C1721 C1720 1.367 . S
C1721 C1729 1.433 . S
C1722 H1718 0.929 . S
C1722 C1724 1.378 . S
C1722 C1726 1.350 . S
C1723 C1726 1.463 . S
C1723 C1728 1.350 . S
C1723 N1731 1.427 . S
C1724 H1715 0.930 . S
C1724 C1722 1.378 . S
C1724 C1725 1.367 . S
C1725 C1724 1.367 . S
C1725 C1727 1.433 . S
C1726 C1722 1.350 . S
C1726 C1723 1.463 . S
C1726 N1730 1.427 . S
C1727 H1717 0.929 . S
C1727 C1725 1.433 . S
C1727 N1730 1.384 . S
C1728 H1719 0.929 . S
C1728 C1720 1.378 . S
C1728 C1723 1.350 . S
C1729 H1716 0.929 . S
C1729 C1721 1.433 . S
C1729 N1731 1.384 . S
N1730 C1726 1.427 . S
N1730 C1727 1.384 . S
N1731 C1723 1.427 . S
N1731 C1729 1.384 . S
H1732 C1738 0.930 . S
H1733 C1742 0.930 . S
H1734 C1747 0.929 . S
H1735 C1745 0.929 . S
H1736 C1740 0.929 . S
H1737 C1746 0.929 . S
C1738 H1732 0.930 . S
C1738 C1739 1.367 . S
C1738 C1746 1.378 . S
C1739 C1738 1.367 . S
C1739 C1747 1.433 . S
C1740 H1736 0.929 . S
C1740 C1742 1.378 . S
C1740 C1744 1.350 . S
C1741 C1744 1.463 . S
C1741 C1746 1.350 . S
C1741 N1749 1.427 . S
C1742 H1733 0.930 . S
C1742 C1740 1.378 . S
C1742 C1743 1.367 . S
C1743 C1742 1.367 . S
C1743 C1745 1.433 . S
C1744 C1740 1.350 . S
C1744 C1741 1.463 . S
C1744 N1748 1.427 . S
C1745 H1735 0.929 . S
C1745 C1743 1.433 . S
C1745 N1748 1.384 . S
C1746 H1737 0.929 . S
C1746 C1738 1.378 . S
C1746 C1741 1.350 . S
C1747 H1734 0.929 . S
C1747 C1739 1.433 . S
C1747 N1749 1.384 . S
N1748 C1744 1.427 . S
N1748 C1745 1.384 . S
N1749 C1741 1.427 . S
N1749 C1747 1.384 . S
H1750 C1756 0.930 . S
H1751 C1760 0.930 . S
H1752 C1765 0.929 . S
H1753 C1763 0.929 . S
H1754 C1758 0.929 . S
H1755 C1764 0.929 . S
C1756 H1750 0.930 . S
C1756 C1757 1.367 . S
C1756 C1764 1.378 . S
C1757 C1756 1.367 . S
C1757 C1765 1.433 . S
C1758 H1754 0.929 . S
C1758 C1760 1.378 . S
C1758 C1762 1.350 . S
C1759 C1762 1.463 . S
C1759 C1764 1.350 . S
C1759 N1767 1.427 . S
C1760 H1751 0.930 . S
C1760 C1758 1.378 . S
C1760 C1761 1.367 . S
C1761 C1760 1.367 . S
C1761 C1763 1.433 . S
C1762 C1758 1.350 . S
C1762 C1759 1.463 . S
C1762 N1766 1.427 . S
C1763 H1753 0.929 . S
C1763 C1761 1.433 . S
C1763 N1766 1.384 . S
C1764 H1755 0.929 . S
C1764 C1756 1.378 . S
C1764 C1759 1.350 . S
C1765 H1752 0.929 . S
C1765 C1757 1.433 . S
C1765 N1767 1.384 . S
N1766 C1762 1.427 . S
N1766 C1763 1.384 . S
N1767 C1759 1.427 . S
N1767 C1765 1.384 . S
H1768 C1774 0.930 . S
H1769 C1778 0.930 . S
H1770 C1783 0.929 . S
H1771 C1781 0.929 . S
H1772 C1776 0.929 . S
H1773 C1782 0.929 . S
C1774 H1768 0.930 . S
C1774 C1775 1.367 . S
C1774 C1782 1.378 . S
C1775 C1774 1.367 . S
C1775 C1783 1.433 . S
C1776 H1772 0.929 . S
C1776 C1778 1.378 . S
C1776 C1780 1.350 . S
C1777 C1780 1.463 . S
C1777 C1782 1.350 . S
C1777 N1785 1.427 . S
C1778 H1769 0.930 . S
C1778 C1776 1.378 . S
C1778 C1779 1.367 . S
C1779 C1778 1.367 . S
C1779 C1781 1.433 . S
C1780 C1776 1.350 . S
C1780 C1777 1.463 . S
C1780 N1784 1.427 . S
C1781 H1771 0.929 . S
C1781 C1779 1.433 . S
C1781 N1784 1.384 . S
C1782 H1773 0.929 . S
C1782 C1774 1.378 . S
C1782 C1777 1.350 . S
C1783 H1770 0.929 . S
C1783 C1775 1.433 . S
C1783 N1785 1.384 . S
N1784 C1780 1.427 . S
N1784 C1781 1.384 . S
N1785 C1777 1.427 . S
N1785 C1783 1.384 . S
H1786 C1792 0.930 . S
H1787 C1796 0.930 . S
H1788 C1801 0.929 . S
H1789 C1799 0.929 . S
H1790 C1794 0.929 . S
H1791 C1800 0.929 . S
C1792 H1786 0.930 . S
C1792 C1793 1.367 . S
C1792 C1800 1.378 . S
C1793 C1792 1.367 . S
C1793 C1801 1.433 . S
C1794 H1790 0.929 . S
C1794 C1796 1.378 . S
C1794 C1798 1.350 . S
C1795 C1798 1.463 . S
C1795 C1800 1.350 . S
C1795 N1803 1.427 . S
C1796 H1787 0.930 . S
C1796 C1794 1.378 . S
C1796 C1797 1.367 . S
C1797 C1796 1.367 . S
C1797 C1799 1.433 . S
C1798 C1794 1.350 . S
C1798 C1795 1.463 . S
C1798 N1802 1.427 . S
C1799 H1789 0.929 . S
C1799 C1797 1.433 . S
C1799 N1802 1.384 . S
C1800 H1791 0.929 . S
C1800 C1792 1.378 . S
C1800 C1795 1.350 . S
C1801 H1788 0.929 . S
C1801 C1793 1.433 . S
C1801 N1803 1.384 . S
N1802 C1798 1.427 . S
N1802 C1799 1.384 . S
N1803 C1795 1.427 . S
N1803 C1801 1.384 . S
H1804 C1810 0.930 . S
H1805 C1814 0.930 . S
H1806 C1819 0.929 . S
H1807 C1817 0.929 . S
H1808 C1812 0.929 . S
H1809 C1818 0.929 . S
C1810 H1804 0.930 . S
C1810 C1811 1.367 . S
C1810 C1818 1.378 . S
C1811 C1810 1.367 . S
C1811 C1819 1.433 . S
C1812 H1808 0.929 . S
C1812 C1814 1.378 . S
C1812 C1816 1.350 . S
C1813 C1816 1.463 . S
C1813 C1818 1.350 . S
C1813 N1821 1.427 . S
C1814 H1805 0.930 . S
C1814 C1812 1.378 . S
C1814 C1815 1.367 . S
C1815 C1814 1.367 . S
C1815 C1817 1.433 . S
C1816 C1812 1.350 . S
C1816 C1813 1.463 . S
C1816 N1820 1.427 . S
C1817 H1807 0.929 . S
C1817 C1815 1.433 . S
C1817 N1820 1.384 . S
C1818 H1809 0.929 . S
C1818 C1810 1.378 . S
C1818 C1813 1.350 . S
C1819 H1806 0.929 . S
C1819 C1811 1.433 . S
C1819 N1821 1.384 . S
N1820 C1816 1.427 . S
N1820 C1817 1.384 . S
N1821 C1813 1.427 . S
N1821 C1819 1.384 . S
H1822 C1828 0.930 . S
H1823 C1832 0.930 . S
H1824 C1837 0.929 . S
H1825 C1835 0.929 . S
H1826 C1830 0.929 . S
H1827 C1836 0.929 . S
C1828 H1822 0.930 . S
C1828 C1829 1.367 . S
C1828 C1836 1.378 . S
C1829 C1828 1.367 . S
C1829 C1837 1.433 . S
C1830 H1826 0.929 . S
C1830 C1832 1.378 . S
C1830 C1834 1.350 . S
C1831 C1834 1.463 . S
C1831 C1836 1.350 . S
C1831 N1839 1.427 . S
C1832 H1823 0.930 . S
C1832 C1830 1.378 . S
C1832 C1833 1.367 . S
C1833 C1832 1.367 . S
C1833 C1835 1.433 . S
C1834 C1830 1.350 . S
C1834 C1831 1.463 . S
C1834 N1838 1.427 . S
C1835 H1825 0.929 . S
C1835 C1833 1.433 . S
C1835 N1838 1.384 . S
C1836 H1827 0.929 . S
C1836 C1828 1.378 . S
C1836 C1831 1.350 . S
C1837 H1824 0.929 . S
C1837 C1829 1.433 . S
C1837 N1839 1.384 . S
N1838 C1834 1.427 . S
N1838 C1835 1.384 . S
N1839 C1831 1.427 . S
N1839 C1837 1.384 . S
H1840 C1846 0.930 . S
H1841 C1850 0.930 . S
H1842 C1855 0.929 . S
H1843 C1853 0.929 . S
H1844 C1848 0.929 . S
H1845 C1854 0.929 . S
C1846 H1840 0.930 . S
C1846 C1847 1.367 . S
C1846 C1854 1.378 . S
C1847 C1846 1.367 . S
C1847 C1855 1.433 . S
C1848 H1844 0.929 . S
C1848 C1850 1.378 . S
C1848 C1852 1.350 . S
C1849 C1852 1.463 . S
C1849 C1854 1.350 . S
C1849 N1857 1.427 . S
C1850 H1841 0.930 . S
C1850 C1848 1.378 . S
C1850 C1851 1.367 . S
C1851 C1850 1.367 . S
C1851 C1853 1.433 . S
C1852 C1848 1.350 . S
C1852 C1849 1.463 . S
C1852 N1856 1.427 . S
C1853 H1843 0.929 . S
C1853 C1851 1.433 . S
C1853 N1856 1.384 . S
C1854 H1845 0.929 . S
C1854 C1846 1.378 . S
C1854 C1849 1.350 . S
C1855 H1842 0.929 . S
C1855 C1847 1.433 . S
C1855 N1857 1.384 . S
N1856 C1852 1.427 . S
N1856 C1853 1.384 . S
N1857 C1849 1.427 . S
N1857 C1855 1.384 . S
H1858 C1864 0.930 . S
H1859 C1868 0.930 . S
H1860 C1873 0.929 . S
H1861 C1871 0.929 . S
H1862 C1866 0.929 . S
H1863 C1872 0.929 . S
C1864 H1858 0.930 . S
C1864 C1865 1.367 . S
C1864 C1872 1.378 . S
C1865 C1864 1.367 . S
C1865 C1873 1.433 . S
C1866 H1862 0.929 . S
C1866 C1868 1.378 . S
C1866 C1870 1.350 . S
C1867 C1870 1.463 . S
C1867 C1872 1.350 . S
C1867 N1875 1.427 . S
C1868 H1859 0.930 . S
C1868 C1866 1.378 . S
C1868 C1869 1.367 . S
C1869 C1868 1.367 . S
C1869 C1871 1.433 . S
C1870 C1866 1.350 . S
C1870 C1867 1.463 . S
C1870 N1874 1.427 . S
C1871 H1861 0.929 . S
C1871 C1869 1.433 . S
C1871 N1874 1.384 . S
C1872 H1863 0.929 . S
C1872 C1864 1.378 . S
C1872 C1867 1.350 . S
C1873 H1860 0.929 . S
C1873 C1865 1.433 . S
C1873 N1875 1.384 . S
N1874 C1870 1.427 . S
N1874 C1871 1.384 . S
N1875 C1867 1.427 . S
N1875 C1873 1.384 . S
H1876 C1882 0.930 . S
H1877 C1886 0.930 . S
H1878 C1891 0.929 . S
H1879 C1889 0.929 . S
H1880 C1884 0.929 . S
H1881 C1890 0.929 . S
C1882 H1876 0.930 . S
C1882 C1883 1.367 . S
C1882 C1890 1.378 . S
C1883 C1882 1.367 . S
C1883 C1891 1.433 . S
C1884 H1880 0.929 . S
C1884 C1886 1.378 . S
C1884 C1888 1.350 . S
C1885 C1888 1.463 . S
C1885 C1890 1.350 . S
C1885 N1893 1.427 . S
C1886 H1877 0.930 . S
C1886 C1884 1.378 . S
C1886 C1887 1.367 . S
C1887 C1886 1.367 . S
C1887 C1889 1.433 . S
C1888 C1884 1.350 . S
C1888 C1885 1.463 . S
C1888 N1892 1.427 . S
C1889 H1879 0.929 . S
C1889 C1887 1.433 . S
C1889 N1892 1.384 . S
C1890 H1881 0.929 . S
C1890 C1882 1.378 . S
C1890 C1885 1.350 . S
C1891 H1878 0.929 . S
C1891 C1883 1.433 . S
C1891 N1893 1.384 . S
N1892 C1888 1.427 . S
N1892 C1889 1.384 . S
N1893 C1885 1.427 . S
N1893 C1891 1.384 . S
H1894 C1900 0.930 . S
H1895 C1904 0.930 . S
H1896 C1909 0.929 . S
H1897 C1907 0.929 . S
H1898 C1902 0.929 . S
H1899 C1908 0.929 . S
C1900 H1894 0.930 . S
C1900 C1901 1.367 . S
C1900 C1908 1.378 . S
C1901 C1900 1.367 . S
C1901 C1909 1.433 . S
C1902 H1898 0.929 . S
C1902 C1904 1.378 . S
C1902 C1906 1.350 . S
C1903 C1906 1.463 . S
C1903 C1908 1.350 . S
C1903 N1911 1.427 . S
C1904 H1895 0.930 . S
C1904 C1902 1.378 . S
C1904 C1905 1.367 . S
C1905 C1904 1.367 . S
C1905 C1907 1.433 . S
C1906 C1902 1.350 . S
C1906 C1903 1.463 . S
C1906 N1910 1.427 . S
C1907 H1897 0.929 . S
C1907 C1905 1.433 . S
C1907 N1910 1.384 . S
C1908 H1899 0.929 . S
C1908 C1900 1.378 . S
C1908 C1903 1.350 . S
C1909 H1896 0.929 . S
C1909 C1901 1.433 . S
C1909 N1911 1.384 . S
N1910 C1906 1.427 . S
N1910 C1907 1.384 . S
N1911 C1903 1.427 . S
N1911 C1909 1.384 . S
C1347 C941 1.457 . S
C1343 C29 1.193 . S
C1365 C994 1.497 . S
C1361 C125 0.808 . S
C1383 C1057 1.558 . S
C1379 C257 1.250 . S
C1401 C1100 1.422 . S
C1397 C353 0.762 . S
C1415 C457 1.145 . S
C1419 C1056 1.508 . S
C1437 C1093 1.510 . S
C1433 C625 1.213 . S
C1455 C934 1.439 . S
C1451 C685 1.136 . S
C1473 C987 1.379 . S
C1469 C853 1.089 . S
C1491 C1040 1.657 . S
C1487 C809 1.075 . S
C1509 C1109 1.769 . S
C1505 C485 1.471 . S
C1527 C950 1.753 . S
C1523 C581 1.120 . S
C1545 C1003 1.686 . S
C1541 C713 1.372 . S
C1563 C951 1.721 . S
C1559 C169 1.260 . S
C1581 C1004 1.738 . S
C1577 C229 1.360 . S
C1599 C1047 1.638 . S
C1595 C397 1.195 . S
C1617 C1110 1.647 . S
C1613 C1 1.298 . S
C1635 C1153 1.427 . S
C1631 C827 1.133 . S
C1649 C467 1.048 . S
C1653 C1206 1.851 . S
C1667 C599 1.317 . S
C1671 C1268 1.583 . S
C1685 C695 1.067 . S
C1689 C1322 1.833 . S
C1703 C115 1.132 . S
C1707 C1269 1.476 . S
C1721 C283 1.534 . S
C1725 C1321 1.920 . S
C1739 C343 1.133 . S
C1743 C1146 1.466 . S
C1761 C1199 1.746 . S
C1757 C55 1.400 . S
C1779 C1259 1.607 . S
C1775 C11 1.070 . S
C1793 C143 1.095 . S
C1797 C1305 1.311 . S
C1811 C239 1.168 . S
C1815 C1162 1.795 . S
C1829 C371 1.064 . S
C1833 C1215 1.292 . S
C1851 C1163 1.663 . S
C1847 C511 1.214 . S
C1869 C1216 1.359 . S
C1865 C571 1.017 . S
C1883 C739 1.234 . S
C1887 C1252 1.672 . S
C1905 C1312 1.209 . S
C1901 C799 0.987 . S
