# Generated by pormake.
# Topology cml, (3,6)-cn, num edge types: 1
# Building blocks:
#     Node 0, Type 0, BuildingBlock: VETTIZ_charged_linker_0, # of connection points: 3
#     Node 1, Type 0, BuildingBlock: VETTIZ_charged_linker_0, # of connection points: 3
#     Node 2, Type 0, BuildingBlock: VETTIZ_charged_linker_0, # of connection points: 3
#     Node 3, Type 0, BuildingBlock: VETTIZ_charged_linker_0, # of connection points: 3
#     Node 4, Type 0, BuildingBlock: VETTIZ_charged_linker_0, # of connection points: 3
#     Node 5, Type 0, BuildingBlock: VETTIZ_charged_linker_0, # of connection points: 3
#     Node 6, Type 0, BuildingBlock: VETTIZ_charged_linker_0, # of connection points: 3
#     Node 7, Type 0, BuildingBlock: VETTIZ_charged_linker_0, # of connection points: 3
#     Node 8, Type 1, BuildingBlock: IZENUY_clean_sbu_0, # of connection points: 6
#     Node 9, Type 1, BuildingBlock: IZENUY_clean_sbu_0, # of connection points: 6
#     Node 10, Type 1, BuildingBlock: IZENUY_clean_sbu_0, # of connection points: 6
#     Node 11, Type 1, BuildingBlock: IZENUY_clean_sbu_0, # of connection points: 6
#     Edge 12, Type (0, 1), BuildingBlock: KIFKEQ_clean_linker_1, # of connection points: 2
#     Edge 13, Type (0, 1), BuildingBlock: KIFKEQ_clean_linker_1, # of connection points: 2
#     Edge 14, Type (0, 1), BuildingBlock: KIFKEQ_clean_linker_1, # of connection points: 2
#     Edge 15, Type (0, 1), BuildingBlock: KIFKEQ_clean_linker_1, # of connection points: 2
#     Edge 16, Type (0, 1), BuildingBlock: KIFKEQ_clean_linker_1, # of connection points: 2
#     Edge 17, Type (0, 1), BuildingBlock: KIFKEQ_clean_linker_1, # of connection points: 2
#     Edge 18, Type (0, 1), BuildingBlock: KIFKEQ_clean_linker_1, # of connection points: 2
#     Edge 19, Type (0, 1), BuildingBlock: KIFKEQ_clean_linker_1, # of connection points: 2
#     Edge 20, Type (0, 1), BuildingBlock: KIFKEQ_clean_linker_1, # of connection points: 2
#     Edge 21, Type (0, 1), BuildingBlock: KIFKEQ_clean_linker_1, # of connection points: 2
#     Edge 22, Type (0, 1), BuildingBlock: KIFKEQ_clean_linker_1, # of connection points: 2
#     Edge 23, Type (0, 1), BuildingBlock: KIFKEQ_clean_linker_1, # of connection points: 2
#     Edge 24, Type (0, 1), BuildingBlock: KIFKEQ_clean_linker_1, # of connection points: 2
#     Edge 25, Type (0, 1), BuildingBlock: KIFKEQ_clean_linker_1, # of connection points: 2
#     Edge 26, Type (0, 1), BuildingBlock: KIFKEQ_clean_linker_1, # of connection points: 2
#     Edge 27, Type (0, 1), BuildingBlock: KIFKEQ_clean_linker_1, # of connection points: 2
#     Edge 28, Type (0, 1), BuildingBlock: KIFKEQ_clean_linker_1, # of connection points: 2
#     Edge 29, Type (0, 1), BuildingBlock: KIFKEQ_clean_linker_1, # of connection points: 2
#     Edge 30, Type (0, 1), BuildingBlock: KIFKEQ_clean_linker_1, # of connection points: 2
#     Edge 31, Type (0, 1), BuildingBlock: KIFKEQ_clean_linker_1, # of connection points: 2
#     Edge 32, Type (0, 1), BuildingBlock: KIFKEQ_clean_linker_1, # of connection points: 2
#     Edge 33, Type (0, 1), BuildingBlock: KIFKEQ_clean_linker_1, # of connection points: 2
#     Edge 34, Type (0, 1), BuildingBlock: KIFKEQ_clean_linker_1, # of connection points: 2
#     Edge 35, Type (0, 1), BuildingBlock: KIFKEQ_clean_linker_1, # of connection points: 2
# Relax obj value: 0.059
# Max RMSD: 0.074
# Mean RMSD: 0.071
data_MOF--net-cml--node1-IZENUY_clean_sbu_0--node2-VETTIZ_charged_linker_0--edge1-KIFKEQ_clean_linker_1
_symmetry_space_group_name_H-M    P1
_symmetry_Int_Tables_number       1
_symmetry_cell_setting            triclinic
loop_
_symmetry_equiv_pos_as_xyz
'x, y, z'
_cell_length_a     43.468221
_cell_length_b     50.638115
_cell_length_c     47.226328
_cell_angle_alpha  90.015142
_cell_angle_beta   89.89501
_cell_angle_gamma 90.317308
loop_
_atom_site_label
_atom_site_type_symbol
_atom_site_fract_x
_atom_site_fract_y
_atom_site_fract_z
_atom_type_partial_charge
C0 C 0.31212 0.35508 0.1036 0.0
C1 C 0.33208 0.37142 0.11921 0.0
C2 C 0.34291 0.39511 0.10704 0.0
C3 C 0.31534 0.38539 0.06378 0.0
C4 C 0.30377 0.36263 0.07608 0.0
C5 C 0.28189 0.34824 0.05671 0.0
H6 H 0.21853 0.33493 0.92678 0.0
C7 C 0.30345 0.38698 0.03458 0.0
C8 C 0.28359 0.36545 0.03033 0.0
H9 H 0.19815 0.2905 0.00307 0.0
H10 H 0.23453 0.31672 0.0289 0.0
H11 H 0.21535 0.39137 0.95856 0.0
H12 H 0.29209 0.34179 0.93631 0.0
H13 H 0.30188 0.3747 0.92826 0.0
H14 H 0.27005 0.35918 0.91023 0.0
H15 H 0.22782 0.38717 0.92259 0.0
H16 H 0.24499 0.41169 0.94539 0.0
C17 C 0.24939 0.3485 0.0704 0.0
C18 C 0.29479 0.32027 0.05126 0.0
C19 C 0.34334 0.459 0.96941 0.0
C20 C 0.33928 0.46455 0.94049 0.0
C21 C 0.31899 0.44853 0.92462 0.0
C22 C 0.30352 0.4271 0.93727 0.0
C23 C 0.30836 0.42159 0.96613 0.0
C24 C 0.32798 0.43752 0.98163 0.0
C25 C 0.33115 0.42855 0.01177 0.0
C26 C 0.31004 0.40463 0.012 0.0
C27 C 0.29666 0.40061 0.98526 0.0
C28 C 0.31915 0.45081 0.03141 0.0
C29 C 0.36526 0.42094 0.01663 0.0
C30 C 0.22157 0.33087 0.94909 0.0
C31 C 0.20549 0.31006 0.96253 0.0
C32 C 0.21068 0.30568 0.99168 0.0
C33 C 0.23162 0.32121 0.0069 0.0
C34 C 0.2474 0.34175 0.99315 0.0
C35 C 0.24195 0.3466 0.96483 0.0
C36 C 0.25945 0.37042 0.95429 0.0
C37 C 0.27623 0.37897 0.98099 0.0
C38 C 0.26943 0.36177 0.00353 0.0
C39 C 0.23588 0.39132 0.94446 0.0
C40 C 0.28199 0.36129 0.93089 0.0
H41 H 0.34407 0.42026 0.07132 0.0
H42 H 0.30311 0.33698 0.11269 0.0
H43 H 0.3198 0.32133 0.04628 0.0
H44 H 0.28395 0.31027 0.03307 0.0
H45 H 0.29184 0.30755 0.07025 0.0
H46 H 0.24699 0.36472 0.08613 0.0
H47 H 0.24438 0.32966 0.08158 0.0
H48 H 0.23102 0.35224 0.0547 0.0
H49 H 0.35828 0.47111 0.98244 0.0
H50 H 0.31557 0.4522 0.90226 0.0
H51 H 0.28866 0.41548 0.92403 0.0
H52 H 0.30044 0.46215 0.02103 0.0
H53 H 0.3378 0.465 0.03686 0.0
H54 H 0.30866 0.44315 0.05113 0.0
H55 H 0.37502 0.41124 0.9975 0.0
H56 H 0.36839 0.40645 0.0338 0.0
H57 H 0.37956 0.43868 0.02121 0.0
H58 H 0.35842 0.40791 0.1187 0.0
C59 C 0.3347 0.40215 0.07946 0.0
C60 C 0.79836 0.66252 0.45651 0.0
C61 C 0.80884 0.6867 0.46779 0.0
C62 C 0.79878 0.69434 0.49497 0.0
C63 C 0.76757 0.6547 0.49874 0.0
C64 C 0.77766 0.64696 0.47224 0.0
C65 C 0.76318 0.62122 0.46304 0.0
H66 H 0.65629 0.5256 0.48745 0.0
C67 C 0.74529 0.63477 0.50909 0.0
C68 C 0.74251 0.61506 0.48822 0.0
H69 H 0.71691 0.53224 0.41529 0.0
H70 H 0.74185 0.57049 0.43653 0.0
H71 H 0.70893 0.53675 0.53399 0.0
H72 H 0.64092 0.58459 0.49324 0.0
H73 H 0.64252 0.59567 0.52837 0.0
H74 H 0.6315 0.56193 0.52116 0.0
H75 H 0.66895 0.53538 0.54335 0.0
H76 H 0.69515 0.55832 0.5601 0.0
C77 C 0.78895 0.60052 0.45953 0.0
C78 C 0.74446 0.62637 0.43577 0.0
C79 C 0.69154 0.64781 0.60416 0.0
C80 C 0.66767 0.63377 0.61762 0.0
C81 C 0.65583 0.61074 0.60497 0.0
C82 C 0.66739 0.60176 0.5791 0.0
C83 C 0.69083 0.61615 0.56547 0.0
C84 C 0.70256 0.63876 0.57794 0.0
C85 C 0.72637 0.65204 0.5595 0.0
C86 C 0.7273 0.63337 0.53424 0.0
C87 C 0.70649 0.61244 0.538 0.0
C88 C 0.75725 0.65238 0.57576 0.0
C89 C 0.71423 0.67976 0.55132 0.0
C90 C 0.67504 0.53525 0.4763 0.0
C91 C 0.68452 0.52621 0.44963 0.0
C92 C 0.7093 0.53896 0.43591 0.0
C93 C 0.72353 0.56122 0.44818 0.0
C94 C 0.71291 0.57067 0.47448 0.0
C95 C 0.68952 0.55723 0.48829 0.0
C96 C 0.68142 0.56939 0.51624 0.0
C97 C 0.70337 0.5927 0.5169 0.0
C98 C 0.7216 0.59366 0.49231 0.0
C99 C 0.68869 0.549 0.53979 0.0
C100 C 0.64731 0.57826 0.515 0.0
H101 H 0.77161 0.68547 0.531 0.0
H102 H 0.80552 0.65616 0.43563 0.0
H103 H 0.73149 0.64518 0.43756 0.0
H104 H 0.72697 0.61104 0.43156 0.0
H105 H 0.75986 0.62795 0.41704 0.0
H106 H 0.80716 0.60337 0.4758 0.0
H107 H 0.80002 0.60213 0.43838 0.0
H108 H 0.78064 0.58008 0.46266 0.0
H109 H 0.70068 0.66579 0.61339 0.0
H110 H 0.63744 0.59973 0.61514 0.0
H111 H 0.65724 0.58414 0.57057 0.0
H112 H 0.76075 0.63336 0.58707 0.0
H113 H 0.75769 0.66843 0.59179 0.0
H114 H 0.77743 0.65456 0.56172 0.0
H115 H 0.68865 0.67993 0.55036 0.0
H116 H 0.72164 0.68607 0.52996 0.0
H117 H 0.72143 0.69492 0.567 0.0
H118 H 0.80689 0.71262 0.50433 0.0
C119 C 0.77837 0.67848 0.51049 0.0
C120 C 0.69847 0.47005 0.95645 0.0
C121 C 0.67725 0.48764 0.96881 0.0
C122 C 0.66643 0.48231 0.99644 0.0
C123 C 0.69649 0.44224 0.99832 0.0
C124 C 0.70754 0.44747 0.97147 0.0
C125 C 0.72849 0.42594 0.96094 0.0
H126 H 0.79798 0.30827 0.98401 0.0
C127 C 0.70899 0.4166 0.00757 0.0
C128 C 0.72768 0.40681 0.98577 0.0
H129 H 0.80436 0.35827 0.90987 0.0
H130 H 0.7701 0.38955 0.93147 0.0
H131 H 0.79927 0.35562 0.03163 0.0
H132 H 0.72549 0.31341 0.99037 0.0
H133 H 0.71388 0.31926 0.02542 0.0
H134 H 0.7471 0.29891 0.01866 0.0
H135 H 0.79214 0.32094 0.03657 0.0
H136 H 0.77217 0.34527 0.05724 0.0
C137 C 0.76093 0.43805 0.95649 0.0
C138 C 0.71403 0.41376 0.93392 0.0
C139 C 0.67846 0.38055 0.10376 0.0
C140 C 0.68355 0.35642 0.11749 0.0
C141 C 0.70168 0.33711 0.1041 0.0
C142 C 0.71494 0.342 0.07741 0.0
C143 C 0.7095 0.36629 0.06382 0.0
C144 C 0.69123 0.38491 0.07697 0.0
C145 C 0.68592 0.40875 0.0588 0.0
C146 C 0.70455 0.40173 0.03272 0.0
C147 C 0.71859 0.37699 0.0358 0.0
C148 C 0.69944 0.43312 0.07435 0.0
C149 C 0.65095 0.41046 0.05234 0.0
C150 C 0.79184 0.32581 0.97225 0.0
C151 C 0.80429 0.33074 0.94516 0.0
C152 C 0.79575 0.35409 0.93093 0.0
C153 C 0.77561 0.37222 0.94345 0.0
C154 C 0.76355 0.36704 0.97051 0.0
C155 C 0.77156 0.34407 0.9844 0.0
C156 C 0.75593 0.34157 0.01277 0.0
C157 C 0.73779 0.3671 0.01386 0.0
C158 C 0.74233 0.38194 0.98902 0.0
C159 C 0.78104 0.34064 0.03593 0.0
C160 C 0.73459 0.31695 0.01206 0.0
H161 H 0.66665 0.45701 0.032 0.0
H162 H 0.70756 0.4735 0.93542 0.0
H163 H 0.68849 0.41323 0.93556 0.0
H164 H 0.72071 0.393 0.9305 0.0
H165 H 0.72015 0.42547 0.91483 0.0
H166 H 0.76626 0.45275 0.97332 0.0
H167 H 0.76255 0.44834 0.93577 0.0
H168 H 0.77948 0.42332 0.9579 0.0
H169 H 0.66398 0.39545 0.11333 0.0
H170 H 0.70566 0.31831 0.11437 0.0
H171 H 0.72868 0.32665 0.06829 0.0
H172 H 0.72162 0.42811 0.08474 0.0
H173 H 0.68347 0.44021 0.09106 0.0
H174 H 0.70496 0.44968 0.05998 0.0
H175 H 0.63967 0.39069 0.05337 0.0
H176 H 0.64618 0.41748 0.03062 0.0
H177 H 0.63902 0.42344 0.06776 0.0
H178 H 0.64961 0.49496 0.00644 0.0
C179 C 0.67605 0.45991 0.01123 0.0
C180 C 0.22085 0.66939 0.4516 0.0
C181 C 0.20699 0.69119 0.46481 0.0
C182 C 0.21575 0.69795 0.49262 0.0
C183 C 0.25106 0.66114 0.49387 0.0
C184 C 0.24258 0.6546 0.46655 0.0
C185 C 0.25866 0.63024 0.45607 0.0
H186 H 0.35631 0.52933 0.48159 0.0
C187 C 0.27339 0.64131 0.50377 0.0
C188 C 0.27776 0.62302 0.48178 0.0
H189 H 0.30811 0.54672 0.40388 0.0
H190 H 0.28494 0.58497 0.42574 0.0
H191 H 0.37632 0.58909 0.49401 0.0
H192 H 0.30092 0.54115 0.52367 0.0
H193 H 0.3126 0.56062 0.5525 0.0
H194 H 0.33923 0.53742 0.53709 0.0
H195 H 0.38116 0.56226 0.5184 0.0
H196 H 0.37229 0.59511 0.53044 0.0
C197 C 0.27903 0.63809 0.43042 0.0
C198 C 0.23393 0.60897 0.44947 0.0
C199 C 0.32028 0.64918 0.60221 0.0
C200 C 0.34009 0.63274 0.61762 0.0
C201 C 0.35028 0.60898 0.60531 0.0
C202 C 0.34128 0.60182 0.57793 0.0
C203 C 0.3217 0.61849 0.56262 0.0
C204 C 0.31113 0.64152 0.57491 0.0
C205 C 0.28912 0.65596 0.55589 0.0
C206 C 0.28912 0.63822 0.5299 0.0
C207 C 0.30845 0.61646 0.53393 0.0
C208 C 0.30295 0.68353 0.54937 0.0
C209 C 0.2572 0.65661 0.57063 0.0
C210 C 0.34044 0.54118 0.4694 0.0
C211 C 0.33383 0.53492 0.44105 0.0
C212 C 0.31363 0.55122 0.42573 0.0
C213 C 0.30017 0.57337 0.43849 0.0
C214 C 0.30714 0.57943 0.46684 0.0
C215 C 0.32707 0.56347 0.48174 0.0
C216 C 0.33273 0.57337 0.5113 0.0
C217 C 0.31282 0.59788 0.51177 0.0
C218 C 0.29776 0.60126 0.48575 0.0
C219 C 0.36741 0.58021 0.51398 0.0
C220 C 0.32104 0.5521 0.53241 0.0
H221 H 0.24343 0.68927 0.52826 0.0
H222 H 0.21436 0.66357 0.43035 0.0
H223 H 0.21528 0.60931 0.46564 0.0
H224 H 0.24296 0.58867 0.45006 0.0
H225 H 0.22324 0.61247 0.42847 0.0
H226 H 0.28813 0.65855 0.4328 0.0
H227 H 0.26575 0.6373 0.41036 0.0
H228 H 0.29972 0.62567 0.42832 0.0
H229 H 0.3118 0.66737 0.61134 0.0
H230 H 0.36573 0.59612 0.61676 0.0
H231 H 0.35006 0.5836 0.56973 0.0
H232 H 0.32804 0.68203 0.54494 0.0
H233 H 0.29995 0.69711 0.56763 0.0
H234 H 0.29296 0.69278 0.53037 0.0
H235 H 0.25402 0.63945 0.58509 0.0
H236 H 0.23793 0.65499 0.55547 0.0
H237 H 0.25441 0.67483 0.58346 0.0
H238 H 0.20564 0.71485 0.5031 0.0
C239 C 0.23775 0.68311 0.50717 0.0
C240 C 0.82504 0.85036 0.09805 0.0
C241 C 0.84966 0.86363 0.1113 0.0
C242 C 0.86013 0.88781 0.09998 0.0
C243 C 0.82308 0.88464 0.06203 0.0
C244 C 0.81225 0.86117 0.07332 0.0
C245 C 0.78681 0.84942 0.0556 0.0
H246 H 0.7007 0.85359 0.9359 0.0
C247 C 0.80575 0.8902 0.03589 0.0
C248 C 0.78436 0.86972 0.03192 0.0
H249 H 0.6979 0.79541 0.00283 0.0
H250 H 0.73632 0.81982 0.02891 0.0
H251 H 0.70156 0.90316 0.97687 0.0
H252 H 0.77607 0.86243 0.93559 0.0
H253 H 0.78086 0.89672 0.93072 0.0
H254 H 0.74722 0.88058 0.91674 0.0
H255 H 0.70988 0.9079 0.93998 0.0
H256 H 0.72894 0.9271 0.96708 0.0
C257 C 0.75721 0.84823 0.07387 0.0
C258 C 0.79781 0.82226 0.04452 0.0
C259 C 0.83503 0.97017 0.97704 0.0
C260 C 0.82416 0.98047 0.95139 0.0
C261 C 0.79866 0.96839 0.9382 0.0
C262 C 0.78499 0.94566 0.94991 0.0
C263 C 0.79688 0.93503 0.97515 0.0
C264 C 0.82106 0.94768 0.98853 0.0
C265 C 0.83042 0.93413 0.01539 0.0
C266 C 0.80817 0.91098 0.01585 0.0
C267 C 0.78879 0.91137 0.99211 0.0
C268 C 0.82475 0.95342 0.04038 0.0
C269 C 0.86428 0.92506 0.01196 0.0
C270 C 0.70862 0.84605 0.95606 0.0
C271 C 0.69645 0.82249 0.96726 0.0
C272 C 0.70684 0.81359 0.99384 0.0
C273 C 0.72927 0.82772 0.00889 0.0
C274 C 0.74148 0.85109 0.99733 0.0
C275 C 0.73086 0.86009 0.9715 0.0
C276 C 0.74567 0.88585 0.96305 0.0
C277 C 0.76734 0.8905 0.98777 0.0
C278 C 0.76497 0.86992 0.00768 0.0
C279 C 0.72035 0.90721 0.96141 0.0
C280 C 0.76332 0.88141 0.93497 0.0
H281 H 0.85627 0.91674 0.06806 0.0
H282 H 0.81651 0.83176 0.10632 0.0
H283 H 0.82252 0.82319 0.03835 0.0
H284 H 0.78565 0.81572 0.02527 0.0
H285 H 0.79529 0.80681 0.06106 0.0
H286 H 0.75619 0.86522 0.08879 0.0
H287 H 0.75628 0.82983 0.08666 0.0
H288 H 0.73599 0.84976 0.06114 0.0
H289 H 0.85437 0.97927 0.98781 0.0
H290 H 0.78999 0.97602 0.91834 0.0
H291 H 0.76606 0.93697 0.93863 0.0
H292 H 0.80498 0.96667 0.03597 0.0
H293 H 0.84521 0.96612 0.04429 0.0
H294 H 0.81834 0.94316 0.06021 0.0
H295 H 0.86903 0.91888 0.98977 0.0
H296 H 0.86988 0.90755 0.02485 0.0
H297 H 0.8806 0.94126 0.01726 0.0
H298 H 0.87864 0.89866 0.11011 0.0
C299 C 0.84699 0.89837 0.07557 0.0
C300 C 0.28749 0.17103 0.44836 0.0
C301 C 0.29858 0.19504 0.45952 0.0
C302 C 0.28847 0.20311 0.48655 0.0
C303 C 0.25736 0.16345 0.49104 0.0
C304 C 0.26688 0.15566 0.46438 0.0
C305 C 0.2524 0.12984 0.45556 0.0
H306 H 0.1603 0.02543 0.48812 0.0
C307 C 0.23659 0.1428 0.50243 0.0
C308 C 0.23362 0.12298 0.48175 0.0
H309 H 0.2047 0.04223 0.40819 0.0
H310 H 0.2275 0.08189 0.42794 0.0
H311 H 0.21642 0.04173 0.52834 0.0
H312 H 0.13764 0.08417 0.49816 0.0
H313 H 0.14197 0.09195 0.53416 0.0
H314 H 0.13506 0.05818 0.52391 0.0
H315 H 0.17885 0.03699 0.54333 0.0
H316 H 0.20477 0.06223 0.5563 0.0
C317 C 0.27839 0.10965 0.45029 0.0
C318 C 0.23172 0.135 0.42945 0.0
C319 C 0.19031 0.15275 0.60113 0.0
C320 C 0.17226 0.13575 0.61794 0.0
C321 C 0.1641 0.11067 0.60733 0.0
C322 C 0.17332 0.10271 0.58026 0.0
C323 C 0.19105 0.11993 0.56351 0.0
C324 C 0.19975 0.14429 0.57416 0.0
C325 C 0.22012 0.15922 0.55381 0.0
C326 C 0.22136 0.14012 0.52895 0.0
C327 C 0.20399 0.11731 0.5347 0.0
C328 C 0.25205 0.16301 0.56789 0.0
C329 C 0.20379 0.18527 0.54584 0.0
C330 C 0.17533 0.03745 0.47504 0.0
C331 C 0.18093 0.03065 0.44667 0.0
C332 C 0.20003 0.04714 0.4301 0.0
C333 C 0.21319 0.07015 0.4416 0.0
C334 C 0.20686 0.07698 0.46988 0.0
C335 C 0.18816 0.06072 0.48604 0.0
C336 C 0.18252 0.07171 0.51514 0.0
C337 C 0.20078 0.09732 0.5138 0.0
C338 C 0.21526 0.10023 0.48736 0.0
C339 C 0.19606 0.05221 0.53709 0.0
C340 C 0.14751 0.07668 0.51832 0.0
H341 H 0.26138 0.19469 0.52279 0.0
H342 H 0.29446 0.16447 0.42749 0.0
H343 H 0.22244 0.15544 0.42968 0.0
H344 H 0.21109 0.12214 0.42902 0.0
H345 H 0.24476 0.1325 0.40939 0.0
H346 H 0.29596 0.11091 0.46734 0.0
H347 H 0.29014 0.11357 0.42979 0.0
H348 H 0.27017 0.08901 0.4504 0.0
H349 H 0.19723 0.172 0.60894 0.0
H350 H 0.15003 0.09734 0.61985 0.0
H351 H 0.16609 0.08348 0.57339 0.0
H352 H 0.25742 0.14631 0.58234 0.0
H353 H 0.2529 0.18146 0.58059 0.0
H354 H 0.27115 0.16317 0.55242 0.0
H355 H 0.17869 0.18187 0.54293 0.0
H356 H 0.21191 0.19364 0.52557 0.0
H357 H 0.2067 0.20034 0.56274 0.0
H358 H 0.29686 0.22136 0.49576 0.0
C359 C 0.26801 0.18748 0.50233 0.0
C360 C 0.17639 0.95345 0.94288 0.0
C361 C 0.15316 0.96996 0.95371 0.0
C362 C 0.14427 0.96719 0.98229 0.0
C363 C 0.17947 0.93084 0.98821 0.0
C364 C 0.18919 0.93402 0.96053 0.0
C365 C 0.21365 0.91428 0.95268 0.0
H366 H 0.29784 0.80687 0.98901 0.0
C367 C 0.19621 0.90841 1.00065 0.0
C368 C 0.21655 0.89867 0.98011 0.0
H369 H 0.29954 0.84979 0.9099 0.0
H370 H 0.26244 0.88074 0.92831 0.0
H371 H 0.29898 0.8572 0.02856 0.0
H372 H 0.22306 0.80981 0.99859 0.0
H373 H 0.21836 0.81523 0.03517 0.0
H374 H 0.25161 0.79771 0.0227 0.0
H375 H 0.2903 0.82544 0.04351 0.0
H376 H 0.27212 0.85515 0.0563 0.0
C377 C 0.24358 0.92964 0.94554 0.0
C378 C 0.20117 0.89704 0.92814 0.0
C379 C 0.16704 0.87683 0.099 0.0
C380 C 0.17772 0.85639 0.11638 0.0
C381 C 0.20273 0.84101 0.10724 0.0
C382 C 0.21614 0.84533 0.08053 0.0
C383 C 0.20451 0.86537 0.06294 0.0
C384 C 0.18083 0.88108 0.07263 0.0
C385 C 0.17207 0.90206 0.05175 0.0
C386 C 0.19384 0.896 0.02751 0.0
C387 C 0.21255 0.87433 0.03398 0.0
C388 C 0.17888 0.92942 0.06528 0.0
C389 C 0.13796 0.89744 0.04343 0.0
C390 C 0.28999 0.82279 0.97557 0.0
C391 C 0.30147 0.82577 0.9479 0.0
C392 C 0.29117 0.84714 0.93134 0.0
C393 C 0.26951 0.86502 0.94202 0.0
C394 C 0.25798 0.86159 0.9696 0.0
C395 C 0.26848 0.84089 0.98597 0.0
C396 C 0.25423 0.84061 0.01501 0.0
C397 C 0.23322 0.86438 0.01329 0.0
C398 C 0.23532 0.87653 0.98655 0.0
C399 C 0.2801 0.84461 0.03717 0.0
C400 C 0.23593 0.81447 0.01834 0.0
H401 H 0.14908 0.94667 0.02088 0.0
H402 H 0.18387 0.95516 0.92107 0.0
H403 H 0.17648 0.89207 0.93164 0.0
H404 H 0.21288 0.87787 0.92626 0.0
H405 H 0.20302 0.90762 0.90759 0.0
H406 H 0.2459 0.94755 0.95904 0.0
H407 H 0.24374 0.93619 0.92309 0.0
H408 H 0.26455 0.91809 0.94978 0.0
H409 H 0.14819 0.88925 0.1058 0.0
H410 H 0.21131 0.82519 0.12044 0.0
H411 H 0.23476 0.83269 0.07446 0.0
H412 H 0.19734 0.92818 0.08152 0.0
H413 H 0.15813 0.93755 0.07585 0.0
H414 H 0.18768 0.94397 0.04972 0.0
H415 H 0.133 0.87597 0.04103 0.0
H416 H 0.13182 0.90622 0.02286 0.0
H417 H 0.12219 0.90527 0.05991 0.0
H418 H 0.12711 0.98009 0.99145 0.0
C419 C 0.15723 0.94782 0.99949 0.0
C420 C 0.7143 0.16534 0.44595 0.0
C421 C 0.70247 0.18861 0.45812 0.0
C422 C 0.71382 0.19671 0.48479 0.0
C423 C 0.74726 0.15869 0.48678 0.0
C424 C 0.73679 0.15095 0.46043 0.0
C425 C 0.75301 0.12668 0.44979 0.0
H426 H 0.86121 0.03306 0.47122 0.0
C427 C 0.77073 0.13963 0.49608 0.0
C428 C 0.7744 0.12089 0.47437 0.0
H429 H 0.80631 0.04483 0.39608 0.0
H430 H 0.77949 0.08077 0.41918 0.0
H431 H 0.87736 0.09077 0.48032 0.0
H432 H 0.80614 0.0425 0.51675 0.0
H433 H 0.82103 0.06198 0.54434 0.0
H434 H 0.84601 0.03941 0.52588 0.0
H435 H 0.88487 0.06819 0.50869 0.0
H436 H 0.87348 0.10188 0.51526 0.0
C437 C 0.77093 0.1342 0.42253 0.0
C438 C 0.72884 0.10448 0.44565 0.0
C439 C 0.82219 0.15009 0.59242 0.0
C440 C 0.84604 0.13608 0.6056 0.0
C441 C 0.85836 0.11369 0.5922 0.0
C442 C 0.84743 0.10543 0.56584 0.0
C443 C 0.82415 0.11992 0.55244 0.0
C444 C 0.8118 0.14178 0.56571 0.0
C445 C 0.78812 0.15524 0.54755 0.0
C446 C 0.78822 0.13767 0.5214 0.0
C447 C 0.80932 0.11706 0.52453 0.0
C448 C 0.79968 0.18362 0.54091 0.0
C449 C 0.75691 0.15404 0.56334 0.0
C450 C 0.84356 0.04343 0.45956 0.0
C451 C 0.83624 0.03634 0.43161 0.0
C452 C 0.81245 0.04993 0.41762 0.0
C453 C 0.7971 0.07092 0.43099 0.0
C454 C 0.80572 0.07842 0.45859 0.0
C455 C 0.82838 0.06447 0.47242 0.0
C456 C 0.83533 0.07529 0.50128 0.0
C457 C 0.81339 0.09837 0.50251 0.0
C458 C 0.79599 0.10015 0.47757 0.0
C459 C 0.86952 0.08439 0.50171 0.0
C460 C 0.82698 0.05376 0.52338 0.0
H461 H 0.74337 0.18909 0.51938 0.0
H462 H 0.70623 0.15827 0.42564 0.0
H463 H 0.71207 0.10431 0.46348 0.0
H464 H 0.73905 0.08458 0.44543 0.0
H465 H 0.71574 0.10739 0.42573 0.0
H466 H 0.77948 0.15493 0.42359 0.0
H467 H 0.75605 0.13247 0.40351 0.0
H468 H 0.7918 0.12223 0.41935 0.0
H469 H 0.81263 0.16756 0.60224 0.0
H470 H 0.87665 0.10263 0.60218 0.0
H471 H 0.85791 0.08829 0.55675 0.0
H472 H 0.82526 0.18475 0.54107 0.0
H473 H 0.79106 0.19801 0.55676 0.0
H474 H 0.79318 0.1903 0.51946 0.0
H475 H 0.75322 0.13417 0.57283 0.0
H476 H 0.73702 0.15725 0.54931 0.0
H477 H 0.7562 0.16878 0.58076 0.0
H478 H 0.70605 0.21486 0.4945 0.0
C479 C 0.73585 0.18182 0.4992 0.0
Fe480 Fe 0.00594 0.81198 0.32483 0.0
Fe481 Fe 0.00569 0.84551 0.37929 0.0
O482 O 0.00748 0.84326 0.34185 0.0
Fe483 Fe 0.01086 0.87232 0.32122 0.0
O484 O 0.98907 0.85923 0.29122 0.0
O485 O 0.97129 0.82076 0.30534 0.0
O486 O 0.98086 0.79642 0.35146 0.0
C487 C 0.96339 0.80612 0.37021 0.0
C488 C 0.05026 0.84033 0.29245 0.0
O489 O 0.96874 0.82871 0.38039 0.0
C490 C 0.0491 0.88358 0.36829 0.0
O491 O 0.0404 0.80114 0.34298 0.0
O492 O 0.02668 0.81475 0.38542 0.0
O493 O 0.04712 0.86148 0.30623 0.0
O494 O 0.03086 0.8217 0.29506 0.0
C495 C 0.9689 0.88834 0.36074 0.0
O496 O 0.04254 0.86259 0.38137 0.0
O497 O 0.03333 0.89093 0.34729 0.0
C498 C 0.04423 0.80147 0.36947 0.0
O499 O 0.98449 0.87673 0.37961 0.0
O500 O 0.97482 0.88509 0.33482 0.0
C501 C 0.96965 0.84061 0.28924 0.0
Fe502 Fe 0.99735 0.16059 0.8756 0.0
Fe503 Fe 0.99793 0.132 0.81856 0.0
O504 O 0.99895 0.16174 0.83817 0.0
Fe505 Fe 1.00159 0.19256 0.82034 0.0
O506 O 0.02427 0.2089 0.84818 0.0
O507 O 0.03438 0.17706 0.87839 0.0
O508 O 0.01814 0.12928 0.87864 0.0
C509 C 0.03584 0.11728 0.86168 0.0
C510 C 0.95996 0.20453 0.86198 0.0
O511 O 0.03283 0.12002 0.83527 0.0
C512 C 0.9605 0.16274 0.78615 0.0
O513 O 0.96021 0.14377 0.87534 0.0
O514 O 0.97353 0.11414 0.84378 0.0
O515 O 0.96562 0.20374 0.83577 0.0
O516 O 0.97623 0.1917 0.87939 0.0
C517 C 0.04145 0.16306 0.78863 0.0
O518 O 0.963 0.14193 0.80063 0.0
O519 O 0.97929 0.18174 0.78936 0.0
C520 C 0.95547 0.12201 0.863 0.0
O521 O 0.02215 0.1443 0.78973 0.0
O522 O 0.03784 0.18356 0.8035 0.0
C523 C 0.04072 0.19923 0.86766 0.0
Fe524 Fe 0.50376 0.31597 0.32086 0.0
Fe525 Fe 0.50528 0.3478 0.37639 0.0
O526 O 0.50509 0.34671 0.33888 0.0
Fe527 Fe 0.50622 0.37656 0.31945 0.0
O528 O 0.48359 0.36411 0.28976 0.0
O529 O 0.46824 0.32458 0.30271 0.0
O530 O 0.47954 0.2995 0.34774 0.0
C531 C 0.46258 0.30878 0.36722 0.0
C532 C 0.54592 0.34662 0.28826 0.0
O533 O 0.46848 0.33093 0.37826 0.0
C534 C 0.54713 0.38675 0.36481 0.0
O535 O 0.53914 0.30513 0.33759 0.0
O536 O 0.52616 0.31672 0.38082 0.0
O537 O 0.54195 0.36745 0.30245 0.0
O538 O 0.52774 0.32707 0.29087 0.0
C539 C 0.46637 0.39031 0.36149 0.0
O540 O 0.54233 0.3649 0.377 0.0
O541 O 0.52921 0.39463 0.34554 0.0
C542 C 0.54314 0.30395 0.36398 0.0
O543 O 0.48404 0.37898 0.37893 0.0
O544 O 0.47041 0.38761 0.33519 0.0
C545 C 0.46471 0.34513 0.288 0.0
Fe546 Fe 0.50251 0.66109 0.88134 0.0
Fe547 Fe 0.50692 0.6316 0.82484 0.0
O548 O 0.50407 0.66162 0.84386 0.0
Fe549 Fe 0.50291 0.69209 0.82528 0.0
O550 O 0.53753 0.70397 0.84285 0.0
O551 O 0.52344 0.69226 0.88585 0.0
O552 O 0.5395 0.64456 0.88377 0.0
C553 C 0.54543 0.62273 0.87216 0.0
C554 C 0.46026 0.6996 0.87012 0.0
O555 O 0.52911 0.61428 0.85194 0.0
C556 C 0.46581 0.66159 0.79166 0.0
O557 O 0.48128 0.62967 0.88349 0.0
O558 O 0.47079 0.61949 0.83929 0.0
O559 O 0.47798 0.7086 0.85108 0.0
O560 O 0.46555 0.67766 0.88177 0.0
C561 C 0.54671 0.66225 0.7943 0.0
O562 O 0.48517 0.6432 0.79423 0.0
O563 O 0.46813 0.68234 0.80637 0.0
C564 C 0.46538 0.6171 0.86543 0.0
O565 O 0.54326 0.64169 0.8091 0.0
O566 O 0.52767 0.68104 0.79606 0.0
C567 C 0.54117 0.7049 0.86936 0.0
H568 H 0.1913 0.25759 0.97086 0.0
H569 H 0.16825 0.32425 0.91787 0.0
H570 H 0.15183 0.23154 0.94808 0.0
H571 H 0.13127 0.29717 0.89273 0.0
H572 H 0.04304 0.25265 0.87347 0.0
H573 H 0.08326 0.27902 0.89555 0.0
H574 H 0.13646 0.20815 0.90948 0.0
H575 H 0.09488 0.18182 0.88936 0.0
C576 C 0.17799 0.26676 0.95424 0.0
C577 C 0.18294 0.29333 0.94665 0.0
C578 C 0.15562 0.2515 0.94063 0.0
C579 C 0.13803 0.26205 0.9184 0.0
C580 C 0.14372 0.28835 0.91012 0.0
C581 C 0.16555 0.30385 0.92426 0.0
C582 C 0.06339 0.24281 0.8813 0.0
C583 C 0.06584 0.21523 0.87989 0.0
C584 C 0.08668 0.25794 0.89378 0.0
C585 C 0.11343 0.24591 0.90445 0.0
C586 C 0.11604 0.21824 0.90227 0.0
C587 C 0.09232 0.20307 0.89051 0.0
H588 H 0.80499 0.74009 0.46076 0.0
H589 H 0.86027 0.67282 0.4378 0.0
H590 H 0.84045 0.7692 0.43557 0.0
H591 H 0.89627 0.70197 0.41307 0.0
H592 H 0.94204 0.75837 0.35116 0.0
H593 H 0.90334 0.72987 0.3729 0.0
H594 H 0.89082 0.7871 0.43979 0.0
H595 H 0.92875 0.81594 0.41757 0.0
C596 C 0.82488 0.73155 0.45045 0.0
C597 C 0.82994 0.70417 0.45141 0.0
C598 C 0.84528 0.74825 0.43605 0.0
C599 C 0.87143 0.73804 0.42239 0.0
C600 C 0.87619 0.71055 0.42298 0.0
C601 C 0.85561 0.69381 0.43722 0.0
C602 C 0.93088 0.76496 0.37041 0.0
C603 C 0.9386 0.78945 0.38263 0.0
C604 C 0.90881 0.74851 0.383 0.0
C605 C 0.89399 0.75604 0.40823 0.0
C606 C 0.90139 0.78075 0.42017 0.0
C607 C 0.9233 0.79728 0.40748 0.0
H608 H 0.85488 0.34187 0.91219 0.0
H609 H 0.80352 0.27648 0.94788 0.0
H610 H 0.8908 0.31093 0.89074 0.0
H611 H 0.84011 0.24569 0.92708 0.0
H612 H 0.93446 0.20453 0.9148 0.0
H613 H 0.89598 0.23457 0.93385 0.0
H614 H 0.89205 0.27497 0.85347 0.0
H615 H 0.93064 0.24484 0.83425 0.0
C616 C 0.85099 0.32093 0.91527 0.0
C617 C 0.82618 0.31177 0.93185 0.0
C618 C 0.87168 0.3032 0.903 0.0
C619 C 0.86829 0.27589 0.90724 0.0
C620 C 0.84351 0.26666 0.92371 0.0
C621 C 0.82262 0.28436 0.93574 0.0
C622 C 0.92537 0.21977 0.90112 0.0
C623 C 0.93575 0.22234 0.87302 0.0
C624 C 0.90317 0.23687 0.91201 0.0
C625 C 0.89102 0.25715 0.89517 0.0
C626 C 0.9012 0.25966 0.86701 0.0
C627 C 0.92317 0.24232 0.85598 0.0
H628 H 0.15179 0.70723 0.48581 0.0
H629 H 0.20787 0.70954 0.41031 0.0
H630 H 0.11239 0.73293 0.462 0.0
H631 H 0.16874 0.73591 0.38652 0.0
H632 H 0.07871 0.76244 0.34467 0.0
H633 H 0.11768 0.73492 0.3671 0.0
H634 H 0.10404 0.77667 0.44594 0.0
H635 H 0.06461 0.8034 0.4239 0.0
C636 C 0.15579 0.71349 0.46417 0.0
C637 C 0.18298 0.70656 0.44998 0.0
C638 C 0.13325 0.72827 0.45051 0.0
C639 C 0.13746 0.73672 0.42239 0.0
C640 C 0.16455 0.72949 0.40806 0.0
C641 C 0.18702 0.71447 0.42169 0.0
C642 C 0.08403 0.76567 0.3668 0.0
C643 C 0.06836 0.78496 0.38255 0.0
C644 C 0.10649 0.75 0.37963 0.0
C645 C 0.11389 0.75344 0.40841 0.0
C646 C 0.09848 0.77304 0.42393 0.0
C647 C 0.07594 0.7885 0.41122 0.0
H648 H 0.69727 0.80818 0.91138 0.0
H649 H 0.64268 0.80216 0.98754 0.0
H650 H 0.66021 0.78015 0.88642 0.0
H651 H 0.60519 0.77495 0.9626 0.0
H652 H 0.56403 0.7025 0.9227 0.0
H653 H 0.6014 0.7315 0.94489 0.0
H654 H 0.60912 0.77644 0.86736 0.0
H655 H 0.57219 0.74655 0.84469 0.0
C656 C 0.67709 0.80114 0.92264 0.0
C657 C 0.67298 0.80708 0.95147 0.0
C658 C 0.65581 0.78515 0.90834 0.0
C659 C 0.62984 0.77497 0.92255 0.0
C660 C 0.62531 0.7818 0.95115 0.0
C661 C 0.6467 0.79749 0.96546 0.0
C662 C 0.57366 0.71857 0.91032 0.0
C663 C 0.5649 0.72236 0.88199 0.0
C664 C 0.595 0.73535 0.92313 0.0
C665 C 0.60797 0.75664 0.90812 0.0
C666 C 0.59972 0.76017 0.87954 0.0
C667 C 0.57848 0.74311 0.86656 0.0
H668 H 0.29791 0.24855 0.45205 0.0
H669 H 0.34989 0.1789 0.43079 0.0
H670 H 0.33605 0.27603 0.42806 0.0
H671 H 0.3885 0.20637 0.40727 0.0
H672 H 0.44029 0.2615 0.34737 0.0
H673 H 0.39934 0.23425 0.36757 0.0
H674 H 0.38727 0.29131 0.4347 0.0
H675 H 0.4274 0.31884 0.41407 0.0
C676 C 0.31759 0.23913 0.44232 0.0
C677 C 0.32097 0.21157 0.44345 0.0
C678 C 0.33954 0.25489 0.42863 0.0
C679 C 0.36559 0.24351 0.41589 0.0
C680 C 0.36859 0.21584 0.41651 0.0
C681 C 0.34648 0.20006 0.43004 0.0
C682 C 0.42881 0.26827 0.36638 0.0
C683 C 0.43722 0.29238 0.37909 0.0
C684 C 0.40541 0.25256 0.37807 0.0
C685 C 0.38992 0.2605 0.40282 0.0
C686 C 0.39826 0.28471 0.41537 0.0
C687 C 0.42149 0.30047 0.40362 0.0
H688 H 0.30016 0.77188 0.95176 0.0
H689 H 0.35397 0.83658 0.9181 0.0
H690 H 0.33711 0.74052 0.93245 0.0
H691 H 0.39128 0.8054 0.89934 0.0
H692 H 0.4367 0.74356 0.84513 0.0
H693 H 0.39753 0.7731 0.86342 0.0
H694 H 0.38827 0.72431 0.93808 0.0
H695 H 0.42688 0.69419 0.91924 0.0
C696 C 0.32005 0.77939 0.94044 0.0
C697 C 0.32411 0.80669 0.93636 0.0
C698 C 0.34129 0.76143 0.92942 0.0
C699 C 0.3672 0.77035 0.91422 0.0
C700 C 0.3713 0.79772 0.91039 0.0
C701 C 0.34996 0.81565 0.92121 0.0
C702 C 0.42623 0.73903 0.8654 0.0
C703 C 0.43508 0.71657 0.88079 0.0
C704 C 0.40387 0.75611 0.876 0.0
C705 C 0.38992 0.75133 0.90241 0.0
C706 C 0.39829 0.72852 0.91755 0.0
C707 C 0.42053 0.71128 0.90681 0.0
H708 H 0.65552 0.21732 0.48168 0.0
H709 H 0.69479 0.19606 0.40066 0.0
H710 H 0.61845 0.24488 0.45812 0.0
H711 H 0.65533 0.22144 0.37683 0.0
H712 H 0.59996 0.29151 0.34317 0.0
H713 H 0.63851 0.2633 0.36525 0.0
H714 H 0.5741 0.2449 0.43255 0.0
H715 H 0.53692 0.27453 0.4115 0.0
C716 C 0.65629 0.21839 0.4588 0.0
C717 C 0.67856 0.20448 0.44324 0.0
C718 C 0.63441 0.23387 0.44513 0.0
C719 C 0.63346 0.23538 0.41539 0.0
C720 C 0.65544 0.22115 0.39975 0.0
C721 C 0.67784 0.20612 0.41348 0.0
C722 C 0.59425 0.28133 0.36268 0.0
C723 C 0.56571 0.28538 0.37584 0.0
C724 C 0.61622 0.265 0.37531 0.0
C725 C 0.60976 0.25189 0.40101 0.0
C726 C 0.58053 0.25524 0.41336 0.0
C727 C 0.559 0.27207 0.40116 0.0
H728 H 0.31937 0.50032 0.90067 0.0
H729 H 0.39908 0.47868 0.94989 0.0
H730 H 0.34793 0.53806 0.88121 0.0
H731 H 0.42705 0.51646 0.93103 0.0
H732 H 0.45407 0.60208 0.91994 0.0
H733 H 0.42223 0.56559 0.93645 0.0
H734 H 0.39531 0.54848 0.85042 0.0
H735 H 0.42731 0.58525 0.83363 0.0
C736 C 0.34299 0.50344 0.90716 0.0
C737 C 0.35677 0.48666 0.92717 0.0
C738 C 0.35928 0.52507 0.89607 0.0
C739 C 0.38953 0.5304 0.90495 0.0
C740 C 0.40352 0.5132 0.92429 0.0
C741 C 0.38742 0.49157 0.93515 0.0
C742 C 0.44123 0.59075 0.90446 0.0
C743 C 0.44355 0.59647 0.8754 0.0
C744 C 0.4231 0.56973 0.91395 0.0
C745 C 0.40662 0.55399 0.89469 0.0
C746 C 0.40777 0.56032 0.86573 0.0
C747 C 0.42617 0.58131 0.85615 0.0
H748 H 0.70597 0.47963 0.42741 0.0
H749 H 0.62315 0.5246 0.44085 0.0
H750 H 0.67516 0.44378 0.40606 0.0
H751 H 0.59273 0.48929 0.41941 0.0
H752 H 0.55624 0.43767 0.34838 0.0
H753 H 0.59187 0.46993 0.36777 0.0
H754 H 0.62825 0.41113 0.42446 0.0
H755 H 0.59198 0.37832 0.40518 0.0
C756 C 0.68128 0.48186 0.42561 0.0
C757 C 0.66685 0.50479 0.43571 0.0
C758 C 0.66371 0.46136 0.41367 0.0
C759 C 0.63164 0.46386 0.41114 0.0
C760 C 0.61743 0.48693 0.42101 0.0
C761 C 0.63479 0.50707 0.43331 0.0
C762 C 0.57188 0.43135 0.36484 0.0
C763 C 0.57093 0.40538 0.37546 0.0
C764 C 0.59229 0.44993 0.37593 0.0
C765 C 0.6126 0.44304 0.39768 0.0
C766 C 0.61281 0.41686 0.40759 0.0
C767 C 0.59198 0.39818 0.39667 0.0
H768 H 0.66079 0.53665 0.9888 0.0
H769 H 0.66479 0.49049 0.91186 0.0
H770 H 0.63213 0.57053 0.96412 0.0
H771 H 0.63862 0.52544 0.88661 0.0
H772 H 0.55239 0.57023 0.86217 0.0
H773 H 0.58824 0.54009 0.88382 0.0
H774 H 0.62885 0.60476 0.93081 0.0
H775 H 0.59154 0.63496 0.90989 0.0
C776 C 0.65595 0.53382 0.96652 0.0
C777 C 0.66458 0.51041 0.95259 0.0
C778 C 0.63989 0.55357 0.95219 0.0
C779 C 0.63249 0.55066 0.92338 0.0
C780 C 0.6431 0.52812 0.90898 0.0
C781 C 0.65867 0.50817 0.92342 0.0
C782 C 0.56907 0.57815 0.87698 0.0
C783 C 0.56896 0.60503 0.8844 0.0
C784 C 0.58995 0.56081 0.88926 0.0
C785 C 0.61174 0.56986 0.90904 0.0
C786 C 0.61216 0.59694 0.91598 0.0
C787 C 0.59087 0.61431 0.90391 0.0
H788 H 0.36145 0.53282 0.38907 0.0
H789 H 0.34026 0.48522 0.46244 0.0
H790 H 0.39054 0.49631 0.36878 0.0
H791 H 0.36873 0.44849 0.442 0.0
H792 H 0.45635 0.40496 0.41629 0.0
H793 H 0.42154 0.43842 0.43395 0.0
H794 H 0.38897 0.45242 0.34889 0.0
H795 H 0.42466 0.41925 0.33097 0.0
C796 C 0.36252 0.51436 0.40059 0.0
C797 C 0.34884 0.51193 0.42744 0.0
C798 C 0.37913 0.49339 0.38895 0.0
C799 C 0.38223 0.46951 0.40386 0.0
C800 C 0.36739 0.46679 0.43021 0.0
C801 C 0.35101 0.48779 0.44191 0.0
C802 C 0.44168 0.41502 0.40129 0.0
C803 C 0.44349 0.40951 0.37216 0.0
C804 C 0.42149 0.43412 0.41148 0.0
C805 C 0.40237 0.44814 0.39287 0.0
C806 C 0.40365 0.44224 0.36377 0.0
C807 C 0.424 0.42313 0.35352 0.0
H808 H 0.88531 0.98357 0.94111 0.0
H809 H 0.80084 0.02696 0.93086 0.0
H810 H 0.9139 0.0195 0.91867 0.0
H811 H 0.82981 0.06338 0.90849 0.0
H812 H 0.91181 0.13003 0.90461 0.0
H813 H 0.87692 0.09679 0.92514 0.0
H814 H 0.91144 0.03863 0.86658 0.0
H815 H 0.94571 0.07136 0.84589 0.0
C816 C 0.87292 1.00091 0.93418 0.0
C817 C 0.84092 1.00256 0.9377 0.0
C818 C 0.88924 0.02138 0.92125 0.0
C819 C 0.87399 0.04411 0.91187 0.0
C820 C 0.84202 0.04604 0.91568 0.0
C821 C 0.82551 0.02524 0.92824 0.0
C822 C 0.91162 0.11024 0.8959 0.0
C823 C 0.93185 0.10332 0.87383 0.0
C824 C 0.8916 0.09132 0.90756 0.0
C825 C 0.89182 0.06518 0.89755 0.0
C826 C 0.91109 0.0586 0.87483 0.0
C827 C 0.9307 0.07744 0.86299 0.0
H828 H 0.14802 0.02853 0.39778 0.0
H829 H 0.17827 0.9803 0.46751 0.0
H830 H 0.11886 0.99146 0.37885 0.0
H831 H 0.15036 0.94251 0.44794 0.0
H832 H 0.0671 0.89069 0.42334 0.0
H833 H 0.10121 0.92501 0.44174 0.0
H834 H 0.12 0.95112 0.35618 0.0
H835 H 0.0845 0.91786 0.3382 0.0
C836 C 0.14894 0.00974 0.4087 0.0
C837 C 0.16541 0.00728 0.43407 0.0
C838 C 0.13232 0.98834 0.3978 0.0
C839 C 0.13216 0.96372 0.41173 0.0
C840 C 0.14937 0.96117 0.43683 0.0
C841 C 0.16557 0.98276 0.44798 0.0
C842 C 0.07883 0.90363 0.40853 0.0
C843 C 0.07293 0.90179 0.37938 0.0
C844 C 0.09853 0.9233 0.41904 0.0
C845 C 0.11324 0.94126 0.40055 0.0
C846 C 0.10848 0.93831 0.37123 0.0
C847 C 0.08833 0.91905 0.36083 0.0
H848 H 0.09193 0.98044 0.95188 0.0
H849 H 0.17862 0.0043 0.91473 0.0
H850 H 0.06627 0.01647 0.92767 0.0
H851 H 0.15244 0.04038 0.88979 0.0
H852 H 0.0767 0.08556 0.83275 0.0
H853 H 0.1072 0.04913 0.85221 0.0
H854 H 0.07255 0.06662 0.93577 0.0
H855 H 0.0425 0.10273 0.91679 0.0
C856 C 0.10552 0.99335 0.93845 0.0
C857 C 0.13745 0.98986 0.93574 0.0
C858 C 0.09078 0.01394 0.92453 0.0
C859 C 0.10749 0.03145 0.90728 0.0
C860 C 0.13909 0.02714 0.90305 0.0
C861 C 0.154 0.0065 0.91725 0.0
C862 C 0.07586 0.08176 0.85531 0.0
C863 C 0.05681 0.09689 0.87313 0.0
C864 C 0.09338 0.06099 0.8664 0.0
C865 C 0.09182 0.05488 0.89539 0.0
C866 C 0.07377 0.07064 0.91326 0.0
C867 C 0.05661 0.09142 0.90233 0.0
H868 H 0.81559 0.99642 0.39665 0.0
H869 H 0.89815 0.02918 0.43391 0.0
H870 H 0.84587 0.95978 0.3772 0.0
H871 H 0.92779 0.9925 0.4153 0.0
H872 H 0.95878 0.90704 0.414 0.0
H873 H 0.92506 0.94275 0.42836 0.0
H874 H 0.89377 0.95143 0.34222 0.0
H875 H 0.92791 0.9155 0.32747 0.0
C876 C 0.84014 0.99598 0.40041 0.0
C877 C 0.85436 0.01541 0.4173 0.0
C878 C 0.85739 0.97503 0.38936 0.0
C879 C 0.88899 0.97317 0.39523 0.0
C880 C 0.90333 0.9932 0.41099 0.0
C881 C 0.88629 0.01414 0.42173 0.0
C882 C 0.94462 0.91633 0.39804 0.0
C883 C 0.94632 0.90858 0.3695 0.0
C884 C 0.92538 0.93686 0.4063 0.0
C885 C 0.90713 0.94997 0.38632 0.0
C886 C 0.90767 0.94158 0.35799 0.0
C887 C 0.92728 0.92114 0.34958 0.0
H888 H 0.32968 0.40054 0.16744 0.0
H889 H 0.35942 0.32531 0.13481 0.0
H890 H 0.35586 0.39164 0.21204 0.0
H891 H 0.38667 0.31663 0.17913 0.0
H892 H 0.426 0.30568 0.26842 0.0
H893 H 0.38732 0.30941 0.23081 0.0
H894 H 0.40986 0.3922 0.2216 0.0
H895 H 0.4474 0.38869 0.25896 0.0
C896 C 0.3415 0.38192 0.17006 0.0
C897 C 0.34292 0.36374 0.14769 0.0
C898 C 0.35661 0.37684 0.19549 0.0
C899 C 0.37394 0.35367 0.19892 0.0
C900 C 0.37346 0.3346 0.17724 0.0
C901 C 0.35795 0.33958 0.15184 0.0
C902 C 0.42235 0.32469 0.2585 0.0
C903 C 0.43996 0.34683 0.26656 0.0
C904 C 0.40031 0.3268 0.23693 0.0
C905 C 0.39534 0.35114 0.2233 0.0
C906 C 0.41254 0.37326 0.23194 0.0
C907 C 0.43444 0.37115 0.25324 0.0
H908 H 0.6091 0.64962 0.62552 0.0
H909 H 0.69494 0.6384 0.66942 0.0
H910 H 0.5838 0.66043 0.67025 0.0
H911 H 0.66948 0.64887 0.71462 0.0
H912 H 0.59334 0.62699 0.78475 0.0
H913 H 0.62654 0.62435 0.743 0.0
H914 H 0.58522 0.69508 0.70961 0.0
H915 H 0.55217 0.69793 0.7512 0.0
C916 C 0.62257 0.64989 0.6448 0.0
C917 C 0.65384 0.6433 0.64423 0.0
C918 C 0.60819 0.65615 0.67034 0.0
C919 C 0.62472 0.6555 0.69587 0.0
C920 C 0.65625 0.64945 0.69522 0.0
C921 C 0.67081 0.64364 0.66948 0.0
C922 C 0.59168 0.64222 0.76873 0.0
C923 C 0.5698 0.66246 0.77116 0.0
C924 C 0.61083 0.64079 0.74493 0.0
C925 C 0.60824 0.65941 0.72302 0.0
C926 C 0.58747 0.68034 0.7261 0.0
C927 C 0.5686 0.68196 0.74998 0.0
H928 H 0.68997 0.385 0.16576 0.0
H929 H 0.64306 0.3172 0.131 0.0
H930 H 0.66067 0.3805 0.20958 0.0
H931 H 0.61223 0.31337 0.17409 0.0
H932 H 0.57022 0.30379 0.26094 0.0
H933 H 0.60765 0.30374 0.22236 0.0
H934 H 0.61124 0.38909 0.22525 0.0
H935 H 0.57528 0.38893 0.26452 0.0
C936 C 0.67344 0.36901 0.1677 0.0
C937 C 0.66868 0.35144 0.14515 0.0
C938 C 0.65637 0.36654 0.19266 0.0
C939 C 0.63357 0.34683 0.19538 0.0
C940 C 0.62975 0.32861 0.17306 0.0
C941 C 0.64731 0.3308 0.14828 0.0
C942 C 0.57929 0.3225 0.25344 0.0
C943 C 0.56974 0.34635 0.26577 0.0
C944 C 0.60063 0.3225 0.23119 0.0
C945 C 0.61259 0.34641 0.22047 0.0
C946 C 0.60321 0.37021 0.23318 0.0
C947 C 0.58231 0.37017 0.25566 0.0
H948 H 0.36675 0.6792 0.63425 0.0
H949 H 0.33811 0.60281 0.66531 0.0
H950 H 0.3926 0.68816 0.67931 0.0
H951 H 0.36292 0.61194 0.71054 0.0
H952 H 0.45151 0.61764 0.76159 0.0
H953 H 0.41631 0.61314 0.7224 0.0
H954 H 0.39068 0.69509 0.73098 0.0
H955 H 0.42701 0.69985 0.77043 0.0
C956 C 0.36531 0.66466 0.65103 0.0
C957 C 0.35093 0.64016 0.64625 0.0
C958 C 0.38001 0.6698 0.67685 0.0
C959 C 0.38031 0.65057 0.69836 0.0
C960 C 0.36382 0.6269 0.69417 0.0
C961 C 0.34951 0.62168 0.66834 0.0
C962 C 0.43835 0.63477 0.75535 0.0
C963 C 0.44232 0.65918 0.76907 0.0
C964 C 0.41782 0.63209 0.73296 0.0
C965 C 0.40044 0.65369 0.72361 0.0
C966 C 0.40386 0.67809 0.7376 0.0
C967 C 0.42454 0.68079 0.76025 0.0
H968 H 0.91098 0.8584 0.11949 0.0
H969 H 0.82339 0.84463 0.16033 0.0
H970 H 0.9374 0.84897 0.16376 0.0
H971 H 0.85019 0.83489 0.205 0.0
H972 H 0.92812 0.80214 0.27194 0.0
H973 H 0.89654 0.80266 0.22865 0.0
H974 H 0.93125 0.88045 0.20881 0.0
H975 H 0.96207 0.88032 0.25142 0.0
C976 C 0.89741 0.85292 0.13787 0.0
C977 C 0.86514 0.85277 0.13667 0.0
C978 C 0.91253 0.84745 0.16314 0.0
C979 C 0.89575 0.8416 0.18778 0.0
C980 C 0.86357 0.83933 0.18621 0.0
C981 C 0.84831 0.8449 0.16073 0.0
C982 C 0.92869 0.81943 0.25844 0.0
C983 C 0.94801 0.84102 0.26498 0.0
C984 C 0.91064 0.8197 0.23378 0.0
C985 C 0.91198 0.84142 0.21529 0.0
C986 C 0.93025 0.86328 0.22248 0.0
C987 C 0.94789 0.86315 0.247 0.0
H988 H 0.1774 0.10877 0.66741 0.0
H989 H 0.14147 0.18082 0.6321 0.0
H990 H 0.15171 0.11814 0.7122 0.0
H991 H 0.1148 0.18995 0.67675 0.0
H992 H 0.07767 0.20316 0.76657 0.0
H993 H 0.1155 0.19948 0.72807 0.0
H994 H 0.09824 0.11544 0.72391 0.0
H995 H 0.06151 0.11898 0.76215 0.0
C996 C 0.16424 0.12679 0.66942 0.0
C997 C 0.16103 0.14389 0.64626 0.0
C998 C 0.14943 0.13214 0.69501 0.0
C999 C 0.13066 0.15453 0.6979 0.0
C1000 C 0.12917 0.1726 0.6753 0.0
C1001 C 0.14434 0.16736 0.64971 0.0
C1002 C 0.0824 0.1839 0.75764 0.0
C1003 C 0.06642 0.1614 0.76729 0.0
C1004 C 0.1039 0.18181 0.73551 0.0
C1005 C 0.11001 0.15715 0.72293 0.0
C1006 C 0.09462 0.13468 0.73333 0.0
C1007 C 0.07322 0.13677 0.75516 0.0
H1008 H 0.20257 0.85311 0.1695 0.0
H1009 H 0.11686 0.84725 0.1239 0.0
H1010 H 0.17475 0.84659 0.2144 0.0
H1011 H 0.08926 0.84044 0.1684 0.0
H1012 H 0.05346 0.80437 0.24948 0.0
H1013 H 0.08714 0.80555 0.20819 0.0
H1014 H 0.13302 0.87463 0.24149 0.0
H1015 H 0.09912 0.87372 0.28293 0.0
C1016 C 0.17788 0.8501 0.16913 0.0
C1017 C 0.16176 0.85073 0.14339 0.0
C1018 C 0.16201 0.84652 0.19471 0.0
C1019 C 0.12991 0.84293 0.19478 0.0
C1020 C 0.11403 0.84289 0.16892 0.0
C1021 C 0.12975 0.84694 0.14352 0.0
C1022 C 0.07099 0.81962 0.2483 0.0
C1023 C 0.07336 0.83914 0.26938 0.0
C1024 C 0.09019 0.8203 0.22459 0.0
C1025 C 0.11248 0.84028 0.22161 0.0
C1026 C 0.11608 0.85895 0.24337 0.0
C1027 C 0.09657 0.8585 0.26698 0.0
H1028 H 0.90515 0.14996 0.6154 0.0
H1029 H 0.81695 0.14171 0.65655 0.0
H1030 H 0.92908 0.16037 0.66082 0.0
H1031 H 0.84104 0.15181 0.70245 0.0
H1032 H 0.91307 0.12839 0.77512 0.0
H1033 H 0.88165 0.12617 0.73228 0.0
H1034 H 0.92755 0.19564 0.69978 0.0
H1035 H 0.95885 0.19808 0.7425 0.0
C1036 C 0.89089 0.15072 0.63423 0.0
C1037 C 0.85933 0.14506 0.63268 0.0
C1038 C 0.9045 0.15679 0.66014 0.0
C1039 C 0.88687 0.15691 0.6851 0.0
C1040 C 0.85509 0.15179 0.68348 0.0
C1041 C 0.84133 0.14616 0.65735 0.0
C1042 C 0.91614 0.14343 0.75903 0.0
C1043 C 0.93874 0.16321 0.76207 0.0
C1044 C 0.898 0.14225 0.73462 0.0
C1045 C 0.90237 0.16064 0.71271 0.0
C1046 C 0.92393 0.18111 0.7163 0.0
C1047 C 0.94178 0.18249 0.7408 0.0
loop_
_geom_bond_atom_site_label_1
_geom_bond_atom_site_label_2
_geom_bond_distance
_geom_bond_site_symmetry_2
_ccdc_geom_bond_type
C0 C1 1.391 . S
C0 C4 1.391 . S
C0 H42 0.948 . S
C1 C0 1.391 . S
C1 C2 1.391 . S
C2 C1 1.391 . S
C2 H58 0.947 . S
C2 C59 1.392 . S
C3 C4 1.391 . S
C3 C7 1.397 . S
C3 C59 1.419 . S
C4 C0 1.391 . S
C4 C3 1.391 . S
C4 C5 1.399 . S
C5 C4 1.399 . S
C5 C8 1.396 . S
C5 C17 1.453 . S
C5 C18 1.684 . S
H6 C30 0.948 . S
C7 C3 1.397 . S
C7 C8 1.394 . S
C7 C26 1.723 . S
C8 C5 1.396 . S
C8 C7 1.394 . S
C8 C38 1.723 . S
H9 C32 0.947 1_554 S
H10 C33 0.948 . S
H11 C39 0.982 . S
H12 C40 0.979 . S
H13 C40 0.980 . S
H14 C40 0.983 . S
H15 C39 0.979 . S
H16 C39 0.977 . S
C17 C5 1.453 . S
C17 H46 0.982 . S
C17 H47 0.979 . S
C17 H48 0.977 . S
C18 C5 1.684 . S
C18 H43 0.979 . S
C18 H44 0.980 . S
C18 H45 0.983 . S
C19 C20 1.391 . S
C19 C24 1.391 . S
C19 H49 0.948 . S
C20 C19 1.391 . S
C20 C21 1.391 . S
C21 C20 1.391 . S
C21 C22 1.392 . S
C21 H50 0.947 . S
C22 C21 1.392 . S
C22 C23 1.419 . S
C22 H51 0.948 . S
C23 C22 1.419 . S
C23 C24 1.391 . S
C23 C27 1.397 . S
C24 C19 1.391 . S
C24 C23 1.391 . S
C24 C25 1.399 1_556 S
C25 C24 1.399 1_554 S
C25 C26 1.396 . S
C25 C28 1.453 . S
C25 C29 1.684 . S
C26 C7 1.723 . S
C26 C25 1.396 . S
C26 C27 1.394 1_554 S
C27 C23 1.397 . S
C27 C26 1.394 1_556 S
C27 C37 1.723 . S
C28 C25 1.453 . S
C28 H52 0.982 . S
C28 H53 0.979 . S
C28 H54 0.977 . S
C29 C25 1.684 . S
C29 H55 0.979 . S
C29 H56 0.980 . S
C29 H57 0.983 . S
C30 H6 0.948 . S
C30 C31 1.391 . S
C30 C35 1.391 . S
C31 C30 1.391 . S
C31 C32 1.391 . S
C32 H9 0.947 1_556 S
C32 C31 1.391 . S
C32 C33 1.392 1_556 S
C33 H10 0.948 . S
C33 C32 1.392 1_554 S
C33 C34 1.419 1_554 S
C34 C33 1.419 1_556 S
C34 C35 1.391 . S
C34 C38 1.397 1_556 S
C35 C30 1.391 . S
C35 C34 1.391 . S
C35 C36 1.399 . S
C36 C35 1.399 . S
C36 C37 1.396 . S
C36 C39 1.453 . S
C36 C40 1.684 . S
C37 C27 1.723 . S
C37 C36 1.396 . S
C37 C38 1.394 1_556 S
C38 C8 1.723 . S
C38 C34 1.397 1_554 S
C38 C37 1.394 1_554 S
C39 H11 0.982 . S
C39 H15 0.979 . S
C39 H16 0.977 . S
C39 C36 1.453 . S
C40 H12 0.979 . S
C40 H13 0.980 . S
C40 H14 0.983 . S
C40 C36 1.684 . S
H41 C59 0.948 . S
H42 C0 0.948 . S
H43 C18 0.979 . S
H44 C18 0.980 . S
H45 C18 0.983 . S
H46 C17 0.982 . S
H47 C17 0.979 . S
H48 C17 0.977 . S
H49 C19 0.948 . S
H50 C21 0.947 . S
H51 C22 0.948 . S
H52 C28 0.982 . S
H53 C28 0.979 . S
H54 C28 0.977 . S
H55 C29 0.979 . S
H56 C29 0.980 . S
H57 C29 0.983 . S
H58 C2 0.947 . S
C59 C2 1.392 . S
C59 C3 1.419 . S
C59 H41 0.948 . S
C60 C61 1.391 . S
C60 C64 1.391 . S
C60 H102 0.948 . S
C61 C60 1.391 . S
C61 C62 1.391 . S
C62 C61 1.391 . S
C62 H118 0.947 . S
C62 C119 1.392 . S
C63 C64 1.391 . S
C63 C67 1.397 . S
C63 C119 1.419 . S
C64 C60 1.391 . S
C64 C63 1.391 . S
C64 C65 1.399 . S
C65 C64 1.399 . S
C65 C68 1.396 . S
C65 C77 1.453 . S
C65 C78 1.684 . S
H66 C90 0.948 . S
C67 C63 1.397 . S
C67 C68 1.394 . S
C67 C86 1.723 . S
C68 C65 1.396 . S
C68 C67 1.394 . S
C68 C98 1.723 . S
H69 C92 0.947 . S
H70 C93 0.948 . S
H71 C99 0.982 . S
H72 C100 0.979 . S
H73 C100 0.980 . S
H74 C100 0.983 . S
H75 C99 0.979 . S
H76 C99 0.977 . S
C77 C65 1.453 . S
C77 H106 0.982 . S
C77 H107 0.979 . S
C77 H108 0.977 . S
C78 C65 1.684 . S
C78 H103 0.979 . S
C78 H104 0.980 . S
C78 H105 0.983 . S
C79 C80 1.391 . S
C79 C84 1.391 . S
C79 H109 0.948 . S
C80 C79 1.391 . S
C80 C81 1.391 . S
C81 C80 1.391 . S
C81 C82 1.392 . S
C81 H110 0.947 . S
C82 C81 1.392 . S
C82 C83 1.419 . S
C82 H111 0.948 . S
C83 C82 1.419 . S
C83 C84 1.391 . S
C83 C87 1.397 . S
C84 C79 1.391 . S
C84 C83 1.391 . S
C84 C85 1.399 . S
C85 C84 1.399 . S
C85 C86 1.396 . S
C85 C88 1.453 . S
C85 C89 1.684 . S
C86 C67 1.723 . S
C86 C85 1.396 . S
C86 C87 1.394 . S
C87 C83 1.397 . S
C87 C86 1.394 . S
C87 C97 1.723 . S
C88 C85 1.453 . S
C88 H112 0.982 . S
C88 H113 0.979 . S
C88 H114 0.977 . S
C89 C85 1.684 . S
C89 H115 0.979 . S
C89 H116 0.980 . S
C89 H117 0.983 . S
C90 H66 0.948 . S
C90 C91 1.391 . S
C90 C95 1.391 . S
C91 C90 1.391 . S
C91 C92 1.391 . S
C92 H69 0.947 . S
C92 C91 1.391 . S
C92 C93 1.392 . S
C93 H70 0.948 . S
C93 C92 1.392 . S
C93 C94 1.419 . S
C94 C93 1.419 . S
C94 C95 1.391 . S
C94 C98 1.397 . S
C95 C90 1.391 . S
C95 C94 1.391 . S
C95 C96 1.399 . S
C96 C95 1.399 . S
C96 C97 1.396 . S
C96 C99 1.453 . S
C96 C100 1.684 . S
C97 C87 1.723 . S
C97 C96 1.396 . S
C97 C98 1.394 . S
C98 C68 1.723 . S
C98 C94 1.397 . S
C98 C97 1.394 . S
C99 H71 0.982 . S
C99 H75 0.979 . S
C99 H76 0.977 . S
C99 C96 1.453 . S
C100 H72 0.979 . S
C100 H73 0.980 . S
C100 H74 0.983 . S
C100 C96 1.684 . S
H101 C119 0.948 . S
H102 C60 0.948 . S
H103 C78 0.979 . S
H104 C78 0.980 . S
H105 C78 0.983 . S
H106 C77 0.982 . S
H107 C77 0.979 . S
H108 C77 0.977 . S
H109 C79 0.948 . S
H110 C81 0.947 . S
H111 C82 0.948 . S
H112 C88 0.982 . S
H113 C88 0.979 . S
H114 C88 0.977 . S
H115 C89 0.979 . S
H116 C89 0.980 . S
H117 C89 0.983 . S
H118 C62 0.947 . S
C119 C62 1.392 . S
C119 C63 1.419 . S
C119 H101 0.948 . S
C120 C121 1.391 . S
C120 C124 1.391 . S
C120 H162 0.948 . S
C121 C120 1.391 . S
C121 C122 1.391 . S
C122 C121 1.391 . S
C122 H178 0.947 . S
C122 C179 1.392 . S
C123 C124 1.391 . S
C123 C127 1.397 . S
C123 C179 1.419 . S
C124 C120 1.391 . S
C124 C123 1.391 . S
C124 C125 1.399 . S
C125 C124 1.399 . S
C125 C128 1.396 . S
C125 C137 1.453 . S
C125 C138 1.684 . S
H126 C150 0.948 . S
C127 C123 1.397 . S
C127 C128 1.394 . S
C127 C146 1.723 1_556 S
C128 C125 1.396 . S
C128 C127 1.394 . S
C128 C158 1.723 . S
H129 C152 0.947 . S
H130 C153 0.948 . S
H131 C159 0.982 . S
H132 C160 0.979 . S
H133 C160 0.980 . S
H134 C160 0.983 . S
H135 C159 0.979 . S
H136 C159 0.977 . S
C137 C125 1.453 . S
C137 H166 0.982 . S
C137 H167 0.979 . S
C137 H168 0.977 . S
C138 C125 1.684 . S
C138 H163 0.979 . S
C138 H164 0.980 . S
C138 H165 0.983 . S
C139 C140 1.391 . S
C139 C144 1.391 . S
C139 H169 0.948 . S
C140 C139 1.391 . S
C140 C141 1.391 . S
C141 C140 1.391 . S
C141 C142 1.392 . S
C141 H170 0.947 . S
C142 C141 1.392 . S
C142 C143 1.419 . S
C142 H171 0.948 . S
C143 C142 1.419 . S
C143 C144 1.391 . S
C143 C147 1.397 . S
C144 C139 1.391 . S
C144 C143 1.391 . S
C144 C145 1.399 . S
C145 C144 1.399 . S
C145 C146 1.396 . S
C145 C148 1.453 . S
C145 C149 1.684 . S
C146 C127 1.723 1_554 S
C146 C145 1.396 . S
C146 C147 1.394 . S
C147 C143 1.397 . S
C147 C146 1.394 . S
C147 C157 1.723 . S
C148 C145 1.453 . S
C148 H172 0.982 . S
C148 H173 0.979 . S
C148 H174 0.977 . S
C149 C145 1.684 . S
C149 H175 0.979 . S
C149 H176 0.980 . S
C149 H177 0.983 . S
C150 H126 0.948 . S
C150 C151 1.391 . S
C150 C155 1.391 . S
C151 C150 1.391 . S
C151 C152 1.391 . S
C152 H129 0.947 . S
C152 C151 1.391 . S
C152 C153 1.392 . S
C153 H130 0.948 . S
C153 C152 1.392 . S
C153 C154 1.419 . S
C154 C153 1.419 . S
C154 C155 1.391 . S
C154 C158 1.397 . S
C155 C150 1.391 . S
C155 C154 1.391 . S
C155 C156 1.399 1_556 S
C156 C155 1.399 1_554 S
C156 C157 1.396 . S
C156 C159 1.453 . S
C156 C160 1.684 . S
C157 C147 1.723 . S
C157 C156 1.396 . S
C157 C158 1.394 1_554 S
C158 C128 1.723 . S
C158 C154 1.397 . S
C158 C157 1.394 1_556 S
C159 H131 0.982 . S
C159 H135 0.979 . S
C159 H136 0.977 . S
C159 C156 1.453 . S
C160 H132 0.979 . S
C160 H133 0.980 . S
C160 H134 0.983 . S
C160 C156 1.684 . S
H161 C179 0.948 1_554 S
H162 C120 0.948 . S
H163 C138 0.979 . S
H164 C138 0.980 . S
H165 C138 0.983 . S
H166 C137 0.982 . S
H167 C137 0.979 . S
H168 C137 0.977 . S
H169 C139 0.948 . S
H170 C141 0.947 . S
H171 C142 0.948 . S
H172 C148 0.982 . S
H173 C148 0.979 . S
H174 C148 0.977 . S
H175 C149 0.979 . S
H176 C149 0.980 . S
H177 C149 0.983 . S
H178 C122 0.947 . S
C179 C122 1.392 . S
C179 C123 1.419 . S
C179 H161 0.948 1_556 S
C180 C181 1.391 . S
C180 C184 1.391 . S
C180 H222 0.948 . S
C181 C180 1.391 . S
C181 C182 1.391 . S
C182 C181 1.391 . S
C182 H238 0.947 . S
C182 C239 1.392 . S
C183 C184 1.391 . S
C183 C187 1.397 . S
C183 C239 1.419 . S
C184 C180 1.391 . S
C184 C183 1.391 . S
C184 C185 1.399 . S
C185 C184 1.399 . S
C185 C188 1.396 . S
C185 C197 1.453 . S
C185 C198 1.684 . S
H186 C210 0.948 . S
C187 C183 1.397 . S
C187 C188 1.394 . S
C187 C206 1.723 . S
C188 C185 1.396 . S
C188 C187 1.394 . S
C188 C218 1.723 . S
H189 C212 0.947 . S
H190 C213 0.948 . S
H191 C219 0.982 . S
H192 C220 0.979 . S
H193 C220 0.980 . S
H194 C220 0.983 . S
H195 C219 0.979 . S
H196 C219 0.977 . S
C197 C185 1.453 . S
C197 H226 0.982 . S
C197 H227 0.979 . S
C197 H228 0.977 . S
C198 C185 1.684 . S
C198 H223 0.979 . S
C198 H224 0.980 . S
C198 H225 0.983 . S
C199 C200 1.391 . S
C199 C204 1.391 . S
C199 H229 0.948 . S
C200 C199 1.391 . S
C200 C201 1.391 . S
C201 C200 1.391 . S
C201 C202 1.392 . S
C201 H230 0.947 . S
C202 C201 1.392 . S
C202 C203 1.419 . S
C202 H231 0.948 . S
C203 C202 1.419 . S
C203 C204 1.391 . S
C203 C207 1.397 . S
C204 C199 1.391 . S
C204 C203 1.391 . S
C204 C205 1.399 . S
C205 C204 1.399 . S
C205 C206 1.396 . S
C205 C208 1.453 . S
C205 C209 1.684 . S
C206 C187 1.723 . S
C206 C205 1.396 . S
C206 C207 1.394 . S
C207 C203 1.397 . S
C207 C206 1.394 . S
C207 C217 1.723 . S
C208 C205 1.453 . S
C208 H232 0.982 . S
C208 H233 0.979 . S
C208 H234 0.977 . S
C209 C205 1.684 . S
C209 H235 0.979 . S
C209 H236 0.980 . S
C209 H237 0.983 . S
C210 H186 0.948 . S
C210 C211 1.391 . S
C210 C215 1.391 . S
C211 C210 1.391 . S
C211 C212 1.391 . S
C212 H189 0.947 . S
C212 C211 1.391 . S
C212 C213 1.392 . S
C213 H190 0.948 . S
C213 C212 1.392 . S
C213 C214 1.419 . S
C214 C213 1.419 . S
C214 C215 1.391 . S
C214 C218 1.397 . S
C215 C210 1.391 . S
C215 C214 1.391 . S
C215 C216 1.399 . S
C216 C215 1.399 . S
C216 C217 1.396 . S
C216 C219 1.453 . S
C216 C220 1.684 . S
C217 C207 1.723 . S
C217 C216 1.396 . S
C217 C218 1.394 . S
C218 C188 1.723 . S
C218 C214 1.397 . S
C218 C217 1.394 . S
C219 H191 0.982 . S
C219 H195 0.979 . S
C219 H196 0.977 . S
C219 C216 1.453 . S
C220 H192 0.979 . S
C220 H193 0.980 . S
C220 H194 0.983 . S
C220 C216 1.684 . S
H221 C239 0.948 . S
H222 C180 0.948 . S
H223 C198 0.979 . S
H224 C198 0.980 . S
H225 C198 0.983 . S
H226 C197 0.982 . S
H227 C197 0.979 . S
H228 C197 0.977 . S
H229 C199 0.948 . S
H230 C201 0.947 . S
H231 C202 0.948 . S
H232 C208 0.982 . S
H233 C208 0.979 . S
H234 C208 0.977 . S
H235 C209 0.979 . S
H236 C209 0.980 . S
H237 C209 0.983 . S
H238 C182 0.947 . S
C239 C182 1.392 . S
C239 C183 1.419 . S
C239 H221 0.948 . S
C240 C241 1.391 . S
C240 C244 1.391 . S
C240 H282 0.948 . S
C241 C240 1.391 . S
C241 C242 1.391 . S
C242 C241 1.391 . S
C242 H298 0.947 . S
C242 C299 1.392 . S
C243 C244 1.391 . S
C243 C247 1.397 . S
C243 C299 1.419 . S
C244 C240 1.391 . S
C244 C243 1.391 . S
C244 C245 1.399 . S
C245 C244 1.399 . S
C245 C248 1.396 . S
C245 C257 1.453 . S
C245 C258 1.684 . S
H246 C270 0.948 . S
C247 C243 1.397 . S
C247 C248 1.394 . S
C247 C266 1.723 . S
C248 C245 1.396 . S
C248 C247 1.394 . S
C248 C278 1.723 . S
H249 C272 0.947 1_554 S
H250 C273 0.948 . S
H251 C279 0.982 . S
H252 C280 0.979 . S
H253 C280 0.980 . S
H254 C280 0.983 . S
H255 C279 0.979 . S
H256 C279 0.977 . S
C257 C245 1.453 . S
C257 H286 0.982 . S
C257 H287 0.979 . S
C257 H288 0.977 . S
C258 C245 1.684 . S
C258 H283 0.979 . S
C258 H284 0.980 . S
C258 H285 0.983 . S
C259 C260 1.391 . S
C259 C264 1.391 . S
C259 H289 0.948 . S
C260 C259 1.391 . S
C260 C261 1.391 . S
C261 C260 1.391 . S
C261 C262 1.392 . S
C261 H290 0.947 . S
C262 C261 1.392 . S
C262 C263 1.419 . S
C262 H291 0.948 . S
C263 C262 1.419 . S
C263 C264 1.391 . S
C263 C267 1.397 . S
C264 C259 1.391 . S
C264 C263 1.391 . S
C264 C265 1.399 1_556 S
C265 C264 1.399 1_554 S
C265 C266 1.396 . S
C265 C268 1.453 . S
C265 C269 1.684 . S
C266 C247 1.723 . S
C266 C265 1.396 . S
C266 C267 1.394 1_554 S
C267 C263 1.397 . S
C267 C266 1.394 1_556 S
C267 C277 1.723 . S
C268 C265 1.453 . S
C268 H292 0.982 . S
C268 H293 0.979 . S
C268 H294 0.977 . S
C269 C265 1.684 . S
C269 H295 0.979 . S
C269 H296 0.980 . S
C269 H297 0.983 . S
C270 H246 0.948 . S
C270 C271 1.391 . S
C270 C275 1.391 . S
C271 C270 1.391 . S
C271 C272 1.391 . S
C272 H249 0.947 1_556 S
C272 C271 1.391 . S
C272 C273 1.392 1_556 S
C273 H250 0.948 . S
C273 C272 1.392 1_554 S
C273 C274 1.419 1_554 S
C274 C273 1.419 1_556 S
C274 C275 1.391 . S
C274 C278 1.397 1_556 S
C275 C270 1.391 . S
C275 C274 1.391 . S
C275 C276 1.399 . S
C276 C275 1.399 . S
C276 C277 1.396 . S
C276 C279 1.453 . S
C276 C280 1.684 . S
C277 C267 1.723 . S
C277 C276 1.396 . S
C277 C278 1.394 1_556 S
C278 C248 1.723 . S
C278 C274 1.397 1_554 S
C278 C277 1.394 1_554 S
C279 H251 0.982 . S
C279 H255 0.979 . S
C279 H256 0.977 . S
C279 C276 1.453 . S
C280 H252 0.979 . S
C280 H253 0.980 . S
C280 H254 0.983 . S
C280 C276 1.684 . S
H281 C299 0.948 . S
H282 C240 0.948 . S
H283 C258 0.979 . S
H284 C258 0.980 . S
H285 C258 0.983 . S
H286 C257 0.982 . S
H287 C257 0.979 . S
H288 C257 0.977 . S
H289 C259 0.948 . S
H290 C261 0.947 . S
H291 C262 0.948 . S
H292 C268 0.982 . S
H293 C268 0.979 . S
H294 C268 0.977 . S
H295 C269 0.979 . S
H296 C269 0.980 . S
H297 C269 0.983 . S
H298 C242 0.947 . S
C299 C242 1.392 . S
C299 C243 1.419 . S
C299 H281 0.948 . S
C300 C301 1.391 . S
C300 C304 1.391 . S
C300 H342 0.948 . S
C301 C300 1.391 . S
C301 C302 1.391 . S
C302 C301 1.391 . S
C302 H358 0.947 . S
C302 C359 1.392 . S
C303 C304 1.391 . S
C303 C307 1.397 . S
C303 C359 1.419 . S
C304 C300 1.391 . S
C304 C303 1.391 . S
C304 C305 1.399 . S
C305 C304 1.399 . S
C305 C308 1.396 . S
C305 C317 1.453 . S
C305 C318 1.684 . S
H306 C330 0.948 . S
C307 C303 1.397 . S
C307 C308 1.394 . S
C307 C326 1.723 . S
C308 C305 1.396 . S
C308 C307 1.394 . S
C308 C338 1.723 . S
H309 C332 0.947 . S
H310 C333 0.948 . S
H311 C339 0.982 . S
H312 C340 0.979 . S
H313 C340 0.980 . S
H314 C340 0.983 . S
H315 C339 0.979 . S
H316 C339 0.977 . S
C317 C305 1.453 . S
C317 H346 0.982 . S
C317 H347 0.979 . S
C317 H348 0.977 . S
C318 C305 1.684 . S
C318 H343 0.979 . S
C318 H344 0.980 . S
C318 H345 0.983 . S
C319 C320 1.391 . S
C319 C324 1.391 . S
C319 H349 0.948 . S
C320 C319 1.391 . S
C320 C321 1.391 . S
C321 C320 1.391 . S
C321 C322 1.392 . S
C321 H350 0.947 . S
C322 C321 1.392 . S
C322 C323 1.419 . S
C322 H351 0.948 . S
C323 C322 1.419 . S
C323 C324 1.391 . S
C323 C327 1.397 . S
C324 C319 1.391 . S
C324 C323 1.391 . S
C324 C325 1.399 . S
C325 C324 1.399 . S
C325 C326 1.396 . S
C325 C328 1.453 . S
C325 C329 1.684 . S
C326 C307 1.723 . S
C326 C325 1.396 . S
C326 C327 1.394 . S
C327 C323 1.397 . S
C327 C326 1.394 . S
C327 C337 1.723 . S
C328 C325 1.453 . S
C328 H352 0.982 . S
C328 H353 0.979 . S
C328 H354 0.977 . S
C329 C325 1.684 . S
C329 H355 0.979 . S
C329 H356 0.980 . S
C329 H357 0.983 . S
C330 H306 0.948 . S
C330 C331 1.391 . S
C330 C335 1.391 . S
C331 C330 1.391 . S
C331 C332 1.391 . S
C332 H309 0.947 . S
C332 C331 1.391 . S
C332 C333 1.392 . S
C333 H310 0.948 . S
C333 C332 1.392 . S
C333 C334 1.419 . S
C334 C333 1.419 . S
C334 C335 1.391 . S
C334 C338 1.397 . S
C335 C330 1.391 . S
C335 C334 1.391 . S
C335 C336 1.399 . S
C336 C335 1.399 . S
C336 C337 1.396 . S
C336 C339 1.453 . S
C336 C340 1.684 . S
C337 C327 1.723 . S
C337 C336 1.396 . S
C337 C338 1.394 . S
C338 C308 1.723 . S
C338 C334 1.397 . S
C338 C337 1.394 . S
C339 H311 0.982 . S
C339 H315 0.979 . S
C339 H316 0.977 . S
C339 C336 1.453 . S
C340 H312 0.979 . S
C340 H313 0.980 . S
C340 H314 0.983 . S
C340 C336 1.684 . S
H341 C359 0.948 . S
H342 C300 0.948 . S
H343 C318 0.979 . S
H344 C318 0.980 . S
H345 C318 0.983 . S
H346 C317 0.982 . S
H347 C317 0.979 . S
H348 C317 0.977 . S
H349 C319 0.948 . S
H350 C321 0.947 . S
H351 C322 0.948 . S
H352 C328 0.982 . S
H353 C328 0.979 . S
H354 C328 0.977 . S
H355 C329 0.979 . S
H356 C329 0.980 . S
H357 C329 0.983 . S
H358 C302 0.947 . S
C359 C302 1.392 . S
C359 C303 1.419 . S
C359 H341 0.948 . S
C360 C361 1.391 . S
C360 C364 1.391 . S
C360 H402 0.948 . S
C361 C360 1.391 . S
C361 C362 1.391 . S
C362 C361 1.391 . S
C362 H418 0.947 . S
C362 C419 1.392 . S
C363 C364 1.391 . S
C363 C367 1.397 . S
C363 C419 1.419 . S
C364 C360 1.391 . S
C364 C363 1.391 . S
C364 C365 1.399 . S
C365 C364 1.399 . S
C365 C368 1.396 . S
C365 C377 1.453 . S
C365 C378 1.684 . S
H366 C390 0.948 . S
C367 C363 1.397 . S
C367 C368 1.394 . S
C367 C386 1.723 1_556 S
C368 C365 1.396 . S
C368 C367 1.394 . S
C368 C398 1.723 . S
H369 C392 0.947 . S
H370 C393 0.948 . S
H371 C399 0.982 . S
H372 C400 0.979 . S
H373 C400 0.980 . S
H374 C400 0.983 . S
H375 C399 0.979 . S
H376 C399 0.977 . S
C377 C365 1.453 . S
C377 H406 0.982 . S
C377 H407 0.979 . S
C377 H408 0.977 . S
C378 C365 1.684 . S
C378 H403 0.979 . S
C378 H404 0.980 . S
C378 H405 0.983 . S
C379 C380 1.391 . S
C379 C384 1.391 . S
C379 H409 0.948 . S
C380 C379 1.391 . S
C380 C381 1.391 . S
C381 C380 1.391 . S
C381 C382 1.392 . S
C381 H410 0.947 . S
C382 C381 1.392 . S
C382 C383 1.419 . S
C382 H411 0.948 . S
C383 C382 1.419 . S
C383 C384 1.391 . S
C383 C387 1.397 . S
C384 C379 1.391 . S
C384 C383 1.391 . S
C384 C385 1.399 . S
C385 C384 1.399 . S
C385 C386 1.396 . S
C385 C388 1.453 . S
C385 C389 1.684 . S
C386 C367 1.723 1_554 S
C386 C385 1.396 . S
C386 C387 1.394 . S
C387 C383 1.397 . S
C387 C386 1.394 . S
C387 C397 1.723 . S
C388 C385 1.453 . S
C388 H412 0.982 . S
C388 H413 0.979 . S
C388 H414 0.977 . S
C389 C385 1.684 . S
C389 H415 0.979 . S
C389 H416 0.980 . S
C389 H417 0.983 . S
C390 H366 0.948 . S
C390 C391 1.391 . S
C390 C395 1.391 . S
C391 C390 1.391 . S
C391 C392 1.391 . S
C392 H369 0.947 . S
C392 C391 1.391 . S
C392 C393 1.392 . S
C393 H370 0.948 . S
C393 C392 1.392 . S
C393 C394 1.419 . S
C394 C393 1.419 . S
C394 C395 1.391 . S
C394 C398 1.397 . S
C395 C390 1.391 . S
C395 C394 1.391 . S
C395 C396 1.399 1_556 S
C396 C395 1.399 1_554 S
C396 C397 1.396 . S
C396 C399 1.453 . S
C396 C400 1.684 . S
C397 C387 1.723 . S
C397 C396 1.396 . S
C397 C398 1.394 1_554 S
C398 C368 1.723 . S
C398 C394 1.397 . S
C398 C397 1.394 1_556 S
C399 H371 0.982 . S
C399 H375 0.979 . S
C399 H376 0.977 . S
C399 C396 1.453 . S
C400 H372 0.979 . S
C400 H373 0.980 . S
C400 H374 0.983 . S
C400 C396 1.684 . S
H401 C419 0.948 1_554 S
H402 C360 0.948 . S
H403 C378 0.979 . S
H404 C378 0.980 . S
H405 C378 0.983 . S
H406 C377 0.982 . S
H407 C377 0.979 . S
H408 C377 0.977 . S
H409 C379 0.948 . S
H410 C381 0.947 . S
H411 C382 0.948 . S
H412 C388 0.982 . S
H413 C388 0.979 . S
H414 C388 0.977 . S
H415 C389 0.979 . S
H416 C389 0.980 . S
H417 C389 0.983 . S
H418 C362 0.947 . S
C419 C362 1.392 . S
C419 C363 1.419 . S
C419 H401 0.948 1_556 S
C420 C421 1.391 . S
C420 C424 1.391 . S
C420 H462 0.948 . S
C421 C420 1.391 . S
C421 C422 1.391 . S
C422 C421 1.391 . S
C422 H478 0.947 . S
C422 C479 1.392 . S
C423 C424 1.391 . S
C423 C427 1.397 . S
C423 C479 1.419 . S
C424 C420 1.391 . S
C424 C423 1.391 . S
C424 C425 1.399 . S
C425 C424 1.399 . S
C425 C428 1.396 . S
C425 C437 1.453 . S
C425 C438 1.684 . S
H426 C450 0.948 . S
C427 C423 1.397 . S
C427 C428 1.394 . S
C427 C446 1.723 . S
C428 C425 1.396 . S
C428 C427 1.394 . S
C428 C458 1.723 . S
H429 C452 0.947 . S
H430 C453 0.948 . S
H431 C459 0.982 . S
H432 C460 0.979 . S
H433 C460 0.980 . S
H434 C460 0.983 . S
H435 C459 0.979 . S
H436 C459 0.977 . S
C437 C425 1.453 . S
C437 H466 0.982 . S
C437 H467 0.979 . S
C437 H468 0.977 . S
C438 C425 1.684 . S
C438 H463 0.979 . S
C438 H464 0.980 . S
C438 H465 0.983 . S
C439 C440 1.391 . S
C439 C444 1.391 . S
C439 H469 0.948 . S
C440 C439 1.391 . S
C440 C441 1.391 . S
C441 C440 1.391 . S
C441 C442 1.392 . S
C441 H470 0.947 . S
C442 C441 1.392 . S
C442 C443 1.419 . S
C442 H471 0.948 . S
C443 C442 1.419 . S
C443 C444 1.391 . S
C443 C447 1.397 . S
C444 C439 1.391 . S
C444 C443 1.391 . S
C444 C445 1.399 . S
C445 C444 1.399 . S
C445 C446 1.396 . S
C445 C448 1.453 . S
C445 C449 1.684 . S
C446 C427 1.723 . S
C446 C445 1.396 . S
C446 C447 1.394 . S
C447 C443 1.397 . S
C447 C446 1.394 . S
C447 C457 1.723 . S
C448 C445 1.453 . S
C448 H472 0.982 . S
C448 H473 0.979 . S
C448 H474 0.977 . S
C449 C445 1.684 . S
C449 H475 0.979 . S
C449 H476 0.980 . S
C449 H477 0.983 . S
C450 H426 0.948 . S
C450 C451 1.391 . S
C450 C455 1.391 . S
C451 C450 1.391 . S
C451 C452 1.391 . S
C452 H429 0.947 . S
C452 C451 1.391 . S
C452 C453 1.392 . S
C453 H430 0.948 . S
C453 C452 1.392 . S
C453 C454 1.419 . S
C454 C453 1.419 . S
C454 C455 1.391 . S
C454 C458 1.397 . S
C455 C450 1.391 . S
C455 C454 1.391 . S
C455 C456 1.399 . S
C456 C455 1.399 . S
C456 C457 1.396 . S
C456 C459 1.453 . S
C456 C460 1.684 . S
C457 C447 1.723 . S
C457 C456 1.396 . S
C457 C458 1.394 . S
C458 C428 1.723 . S
C458 C454 1.397 . S
C458 C457 1.394 . S
C459 H431 0.982 . S
C459 H435 0.979 . S
C459 H436 0.977 . S
C459 C456 1.453 . S
C460 H432 0.979 . S
C460 H433 0.980 . S
C460 H434 0.983 . S
C460 C456 1.684 . S
H461 C479 0.948 . S
H462 C420 0.948 . S
H463 C438 0.979 . S
H464 C438 0.980 . S
H465 C438 0.983 . S
H466 C437 0.982 . S
H467 C437 0.979 . S
H468 C437 0.977 . S
H469 C439 0.948 . S
H470 C441 0.947 . S
H471 C442 0.948 . S
H472 C448 0.982 . S
H473 C448 0.979 . S
H474 C448 0.977 . S
H475 C449 0.979 . S
H476 C449 0.980 . S
H477 C449 0.983 . S
H478 C422 0.947 . S
C479 C422 1.392 . S
C479 C423 1.419 . S
C479 H461 0.948 . S
Fe480 O482 1.918 . S
Fe480 O485 1.997 1_455 S
Fe480 O486 2.002 1_455 S
Fe480 O491 1.976 . S
Fe480 O494 1.996 . S
Fe481 O482 1.918 . S
Fe481 O489 1.997 1_455 S
Fe481 O492 1.996 . S
Fe481 O496 1.976 . S
Fe481 O499 2.002 1_455 S
O482 Fe480 1.918 . S
O482 Fe481 1.918 . S
O482 Fe483 1.918 . S
Fe483 O482 1.918 . S
Fe483 O484 2.002 1_455 S
Fe483 O493 1.976 . S
Fe483 O497 1.996 . S
Fe483 O500 1.997 1_455 S
O484 Fe483 2.002 1_655 S
O484 C501 1.295 . S
O485 Fe480 1.997 1_655 S
O485 C501 1.235 . S
O486 Fe480 2.002 1_655 S
O486 C487 1.295 . S
C487 O486 1.295 . S
C487 O489 1.235 . S
C488 O493 1.287 . S
C488 O494 1.255 . S
O489 Fe481 1.997 1_655 S
O489 C487 1.235 . S
C490 O496 1.287 . S
C490 O497 1.255 . S
O491 Fe480 1.976 . S
O491 C498 1.287 . S
O492 Fe481 1.996 . S
O492 C498 1.255 . S
O493 Fe483 1.976 . S
O493 C488 1.287 . S
O494 Fe480 1.996 . S
O494 C488 1.255 . S
C495 O499 1.295 . S
C495 O500 1.235 . S
O496 Fe481 1.976 . S
O496 C490 1.287 . S
O497 Fe483 1.996 . S
O497 C490 1.255 . S
C498 O491 1.287 . S
C498 O492 1.255 . S
O499 Fe481 2.002 1_655 S
O499 C495 1.295 . S
O500 Fe483 1.997 1_655 S
O500 C495 1.235 . S
C501 O484 1.295 . S
C501 O485 1.235 . S
Fe502 O504 1.919 . S
Fe502 O507 1.976 1_655 S
Fe502 O508 1.982 1_655 S
Fe502 O513 1.996 . S
Fe502 O516 2.016 . S
Fe503 O504 1.919 . S
Fe503 O511 1.976 1_655 S
Fe503 O514 2.016 . S
Fe503 O518 1.996 . S
Fe503 O521 1.982 1_655 S
O504 Fe502 1.919 . S
O504 Fe503 1.919 . S
O504 Fe505 1.919 . S
Fe505 O504 1.919 . S
Fe505 O506 1.983 1_655 S
Fe505 O515 1.996 . S
Fe505 O519 2.015 . S
Fe505 O522 1.977 1_655 S
O506 Fe505 1.983 1_455 S
O506 C523 1.295 . S
O507 Fe502 1.976 1_455 S
O507 C523 1.235 . S
O508 Fe502 1.982 1_455 S
O508 C509 1.295 . S
C509 O508 1.295 . S
C509 O511 1.235 . S
C510 O515 1.287 . S
C510 O516 1.255 . S
O511 Fe503 1.976 1_455 S
O511 C509 1.235 . S
C512 O518 1.287 . S
C512 O519 1.255 . S
O513 Fe502 1.996 . S
O513 C520 1.287 . S
O514 Fe503 2.016 . S
O514 C520 1.255 . S
O515 Fe505 1.996 . S
O515 C510 1.287 . S
O516 Fe502 2.016 . S
O516 C510 1.255 . S
C517 O521 1.295 . S
C517 O522 1.235 . S
O518 Fe503 1.996 . S
O518 C512 1.287 . S
O519 Fe505 2.015 . S
O519 C512 1.255 . S
C520 O513 1.287 . S
C520 O514 1.255 . S
O521 Fe503 1.982 1_455 S
O521 C517 1.295 . S
O522 Fe505 1.977 1_455 S
O522 C517 1.235 . S
C523 O506 1.295 . S
C523 O507 1.235 . S
Fe524 O526 1.918 . S
Fe524 O529 1.997 . S
Fe524 O530 2.002 . S
Fe524 O535 1.976 . S
Fe524 O538 1.996 . S
Fe525 O526 1.918 . S
Fe525 O533 1.997 . S
Fe525 O536 1.996 . S
Fe525 O540 1.976 . S
Fe525 O543 2.002 . S
O526 Fe524 1.918 . S
O526 Fe525 1.918 . S
O526 Fe527 1.918 . S
Fe527 O526 1.918 . S
Fe527 O528 2.002 . S
Fe527 O537 1.976 . S
Fe527 O541 1.996 . S
Fe527 O544 1.997 . S
O528 Fe527 2.002 . S
O528 C545 1.295 . S
O529 Fe524 1.997 . S
O529 C545 1.235 . S
O530 Fe524 2.002 . S
O530 C531 1.295 . S
C531 O530 1.295 . S
C531 O533 1.235 . S
C532 O537 1.287 . S
C532 O538 1.255 . S
O533 Fe525 1.997 . S
O533 C531 1.235 . S
C534 O540 1.287 . S
C534 O541 1.255 . S
O535 Fe524 1.976 . S
O535 C542 1.287 . S
O536 Fe525 1.996 . S
O536 C542 1.255 . S
O537 Fe527 1.976 . S
O537 C532 1.287 . S
O538 Fe524 1.996 . S
O538 C532 1.255 . S
C539 O543 1.295 . S
C539 O544 1.235 . S
O540 Fe525 1.976 . S
O540 C534 1.287 . S
O541 Fe527 1.996 . S
O541 C534 1.255 . S
C542 O535 1.287 . S
C542 O536 1.255 . S
O543 Fe525 2.002 . S
O543 C539 1.295 . S
O544 Fe527 1.997 . S
O544 C539 1.235 . S
C545 O528 1.295 . S
C545 O529 1.235 . S
Fe546 O548 1.918 . S
Fe546 O551 1.997 . S
Fe546 O552 2.002 . S
Fe546 O557 1.976 . S
Fe546 O560 1.996 . S
Fe547 O548 1.918 . S
Fe547 O555 1.997 . S
Fe547 O558 1.996 . S
Fe547 O562 1.976 . S
Fe547 O565 2.002 . S
O548 Fe546 1.918 . S
O548 Fe547 1.918 . S
O548 Fe549 1.918 . S
Fe549 O548 1.918 . S
Fe549 O550 2.002 . S
Fe549 O559 1.976 . S
Fe549 O563 1.996 . S
Fe549 O566 1.997 . S
O550 Fe549 2.002 . S
O550 C567 1.295 . S
O551 Fe546 1.997 . S
O551 C567 1.235 . S
O552 Fe546 2.002 . S
O552 C553 1.295 . S
C553 O552 1.295 . S
C553 O555 1.235 . S
C554 O559 1.287 . S
C554 O560 1.255 . S
O555 Fe547 1.997 . S
O555 C553 1.235 . S
C556 O562 1.287 . S
C556 O563 1.255 . S
O557 Fe546 1.976 . S
O557 C564 1.287 . S
O558 Fe547 1.996 . S
O558 C564 1.255 . S
O559 Fe549 1.976 . S
O559 C554 1.287 . S
O560 Fe546 1.996 . S
O560 C554 1.255 . S
C561 O565 1.295 . S
C561 O566 1.235 . S
O562 Fe547 1.976 . S
O562 C556 1.287 . S
O563 Fe549 1.996 . S
O563 C556 1.255 . S
C564 O557 1.287 . S
C564 O558 1.255 . S
O565 Fe547 2.002 . S
O565 C561 1.295 . S
O566 Fe549 1.997 . S
O566 C561 1.235 . S
C567 O550 1.295 . S
C567 O551 1.235 . S
H568 C576 0.950 . S
H569 C581 0.950 . S
H570 C578 0.950 . S
H571 C580 0.950 . S
H572 C582 0.950 . S
H573 C584 0.950 . S
H574 C586 0.950 . S
H575 C587 0.950 . S
C576 H568 0.950 . S
C576 C577 1.386 . S
C576 C578 1.391 . S
C577 C576 1.386 . S
C577 C581 1.393 . S
C578 H570 0.950 . S
C578 C576 1.391 . S
C578 C579 1.400 . S
C579 C578 1.400 . S
C579 C580 1.398 . S
C579 C585 1.491 . S
C580 H571 0.950 . S
C580 C579 1.398 . S
C580 C581 1.391 . S
C581 H569 0.950 . S
C581 C577 1.393 . S
C581 C580 1.391 . S
C582 H572 0.950 . S
C582 C583 1.386 . S
C582 C584 1.391 . S
C583 C582 1.386 . S
C583 C587 1.393 . S
C584 H573 0.950 . S
C584 C582 1.391 . S
C584 C585 1.400 . S
C585 C579 1.491 . S
C585 C584 1.400 . S
C585 C586 1.398 . S
C586 H574 0.950 . S
C586 C585 1.398 . S
C586 C587 1.391 . S
C587 H575 0.950 . S
C587 C583 1.393 . S
C587 C586 1.391 . S
H588 C596 0.950 . S
H589 C601 0.950 . S
H590 C598 0.950 . S
H591 C600 0.950 . S
H592 C602 0.950 . S
H593 C604 0.950 . S
H594 C606 0.950 . S
H595 C607 0.950 . S
C596 H588 0.950 . S
C596 C597 1.386 . S
C596 C598 1.391 . S
C597 C596 1.386 . S
C597 C601 1.393 . S
C598 H590 0.950 . S
C598 C596 1.391 . S
C598 C599 1.400 . S
C599 C598 1.400 . S
C599 C600 1.398 . S
C599 C605 1.491 . S
C600 H591 0.950 . S
C600 C599 1.398 . S
C600 C601 1.391 . S
C601 H589 0.950 . S
C601 C597 1.393 . S
C601 C600 1.391 . S
C602 H592 0.950 . S
C602 C603 1.386 . S
C602 C604 1.391 . S
C603 C602 1.386 . S
C603 C607 1.393 . S
C604 H593 0.950 . S
C604 C602 1.391 . S
C604 C605 1.400 . S
C605 C599 1.491 . S
C605 C604 1.400 . S
C605 C606 1.398 . S
C606 H594 0.950 . S
C606 C605 1.398 . S
C606 C607 1.391 . S
C607 H595 0.950 . S
C607 C603 1.393 . S
C607 C606 1.391 . S
H608 C616 0.950 . S
H609 C621 0.950 . S
H610 C618 0.950 . S
H611 C620 0.950 . S
H612 C622 0.950 . S
H613 C624 0.950 . S
H614 C626 0.950 . S
H615 C627 0.950 . S
C616 H608 0.950 . S
C616 C617 1.386 . S
C616 C618 1.391 . S
C617 C616 1.386 . S
C617 C621 1.393 . S
C618 H610 0.950 . S
C618 C616 1.391 . S
C618 C619 1.400 . S
C619 C618 1.400 . S
C619 C620 1.398 . S
C619 C625 1.491 . S
C620 H611 0.950 . S
C620 C619 1.398 . S
C620 C621 1.391 . S
C621 H609 0.950 . S
C621 C617 1.393 . S
C621 C620 1.391 . S
C622 H612 0.950 . S
C622 C623 1.386 . S
C622 C624 1.391 . S
C623 C622 1.386 . S
C623 C627 1.393 . S
C624 H613 0.950 . S
C624 C622 1.391 . S
C624 C625 1.400 . S
C625 C619 1.491 . S
C625 C624 1.400 . S
C625 C626 1.398 . S
C626 H614 0.950 . S
C626 C625 1.398 . S
C626 C627 1.391 . S
C627 H615 0.950 . S
C627 C623 1.393 . S
C627 C626 1.391 . S
H628 C636 0.950 . S
H629 C641 0.950 . S
H630 C638 0.950 . S
H631 C640 0.950 . S
H632 C642 0.950 . S
H633 C644 0.950 . S
H634 C646 0.950 . S
H635 C647 0.950 . S
C636 H628 0.950 . S
C636 C637 1.386 . S
C636 C638 1.391 . S
C637 C636 1.386 . S
C637 C641 1.393 . S
C638 H630 0.950 . S
C638 C636 1.391 . S
C638 C639 1.400 . S
C639 C638 1.400 . S
C639 C640 1.398 . S
C639 C645 1.491 . S
C640 H631 0.950 . S
C640 C639 1.398 . S
C640 C641 1.391 . S
C641 H629 0.950 . S
C641 C637 1.393 . S
C641 C640 1.391 . S
C642 H632 0.950 . S
C642 C643 1.386 . S
C642 C644 1.391 . S
C643 C642 1.386 . S
C643 C647 1.393 . S
C644 H633 0.950 . S
C644 C642 1.391 . S
C644 C645 1.400 . S
C645 C639 1.491 . S
C645 C644 1.400 . S
C645 C646 1.398 . S
C646 H634 0.950 . S
C646 C645 1.398 . S
C646 C647 1.391 . S
C647 H635 0.950 . S
C647 C643 1.393 . S
C647 C646 1.391 . S
H648 C656 0.950 . S
H649 C661 0.950 . S
H650 C658 0.950 . S
H651 C660 0.950 . S
H652 C662 0.950 . S
H653 C664 0.950 . S
H654 C666 0.950 . S
H655 C667 0.950 . S
C656 H648 0.950 . S
C656 C657 1.386 . S
C656 C658 1.391 . S
C657 C656 1.386 . S
C657 C661 1.393 . S
C658 H650 0.950 . S
C658 C656 1.391 . S
C658 C659 1.400 . S
C659 C658 1.400 . S
C659 C660 1.398 . S
C659 C665 1.491 . S
C660 H651 0.950 . S
C660 C659 1.398 . S
C660 C661 1.391 . S
C661 H649 0.950 . S
C661 C657 1.393 . S
C661 C660 1.391 . S
C662 H652 0.950 . S
C662 C663 1.386 . S
C662 C664 1.391 . S
C663 C662 1.386 . S
C663 C667 1.393 . S
C664 H653 0.950 . S
C664 C662 1.391 . S
C664 C665 1.400 . S
C665 C659 1.491 . S
C665 C664 1.400 . S
C665 C666 1.398 . S
C666 H654 0.950 . S
C666 C665 1.398 . S
C666 C667 1.391 . S
C667 H655 0.950 . S
C667 C663 1.393 . S
C667 C666 1.391 . S
H668 C676 0.950 . S
H669 C681 0.950 . S
H670 C678 0.950 . S
H671 C680 0.950 . S
H672 C682 0.950 . S
H673 C684 0.950 . S
H674 C686 0.950 . S
H675 C687 0.950 . S
C676 H668 0.950 . S
C676 C677 1.386 . S
C676 C678 1.391 . S
C677 C676 1.386 . S
C677 C681 1.393 . S
C678 H670 0.950 . S
C678 C676 1.391 . S
C678 C679 1.400 . S
C679 C678 1.400 . S
C679 C680 1.398 . S
C679 C685 1.491 . S
C680 H671 0.950 . S
C680 C679 1.398 . S
C680 C681 1.391 . S
C681 H669 0.950 . S
C681 C677 1.393 . S
C681 C680 1.391 . S
C682 H672 0.950 . S
C682 C683 1.386 . S
C682 C684 1.391 . S
C683 C682 1.386 . S
C683 C687 1.393 . S
C684 H673 0.950 . S
C684 C682 1.391 . S
C684 C685 1.400 . S
C685 C679 1.491 . S
C685 C684 1.400 . S
C685 C686 1.398 . S
C686 H674 0.950 . S
C686 C685 1.398 . S
C686 C687 1.391 . S
C687 H675 0.950 . S
C687 C683 1.393 . S
C687 C686 1.391 . S
H688 C696 0.950 . S
H689 C701 0.950 . S
H690 C698 0.950 . S
H691 C700 0.950 . S
H692 C702 0.950 . S
H693 C704 0.950 . S
H694 C706 0.950 . S
H695 C707 0.950 . S
C696 H688 0.950 . S
C696 C697 1.386 . S
C696 C698 1.391 . S
C697 C696 1.386 . S
C697 C701 1.393 . S
C698 H690 0.950 . S
C698 C696 1.391 . S
C698 C699 1.400 . S
C699 C698 1.400 . S
C699 C700 1.398 . S
C699 C705 1.491 . S
C700 H691 0.950 . S
C700 C699 1.398 . S
C700 C701 1.391 . S
C701 H689 0.950 . S
C701 C697 1.393 . S
C701 C700 1.391 . S
C702 H692 0.950 . S
C702 C703 1.386 . S
C702 C704 1.391 . S
C703 C702 1.386 . S
C703 C707 1.393 . S
C704 H693 0.950 . S
C704 C702 1.391 . S
C704 C705 1.400 . S
C705 C699 1.491 . S
C705 C704 1.400 . S
C705 C706 1.398 . S
C706 H694 0.950 . S
C706 C705 1.398 . S
C706 C707 1.391 . S
C707 H695 0.950 . S
C707 C703 1.393 . S
C707 C706 1.391 . S
H708 C716 0.950 . S
H709 C721 0.950 . S
H710 C718 0.950 . S
H711 C720 0.950 . S
H712 C722 0.950 . S
H713 C724 0.950 . S
H714 C726 0.950 . S
H715 C727 0.950 . S
C716 H708 0.950 . S
C716 C717 1.386 . S
C716 C718 1.391 . S
C717 C716 1.386 . S
C717 C721 1.393 . S
C718 H710 0.950 . S
C718 C716 1.391 . S
C718 C719 1.400 . S
C719 C718 1.400 . S
C719 C720 1.398 . S
C719 C725 1.491 . S
C720 H711 0.950 . S
C720 C719 1.398 . S
C720 C721 1.391 . S
C721 H709 0.950 . S
C721 C717 1.393 . S
C721 C720 1.391 . S
C722 H712 0.950 . S
C722 C723 1.386 . S
C722 C724 1.391 . S
C723 C722 1.386 . S
C723 C727 1.393 . S
C724 H713 0.950 . S
C724 C722 1.391 . S
C724 C725 1.400 . S
C725 C719 1.491 . S
C725 C724 1.400 . S
C725 C726 1.398 . S
C726 H714 0.950 . S
C726 C725 1.398 . S
C726 C727 1.391 . S
C727 H715 0.950 . S
C727 C723 1.393 . S
C727 C726 1.391 . S
H728 C736 0.950 . S
H729 C741 0.950 . S
H730 C738 0.950 . S
H731 C740 0.950 . S
H732 C742 0.950 . S
H733 C744 0.950 . S
H734 C746 0.950 . S
H735 C747 0.950 . S
C736 H728 0.950 . S
C736 C737 1.386 . S
C736 C738 1.391 . S
C737 C736 1.386 . S
C737 C741 1.393 . S
C738 H730 0.950 . S
C738 C736 1.391 . S
C738 C739 1.400 . S
C739 C738 1.400 . S
C739 C740 1.398 . S
C739 C745 1.491 . S
C740 H731 0.950 . S
C740 C739 1.398 . S
C740 C741 1.391 . S
C741 H729 0.950 . S
C741 C737 1.393 . S
C741 C740 1.391 . S
C742 H732 0.950 . S
C742 C743 1.386 . S
C742 C744 1.391 . S
C743 C742 1.386 . S
C743 C747 1.393 . S
C744 H733 0.950 . S
C744 C742 1.391 . S
C744 C745 1.400 . S
C745 C739 1.491 . S
C745 C744 1.400 . S
C745 C746 1.398 . S
C746 H734 0.950 . S
C746 C745 1.398 . S
C746 C747 1.391 . S
C747 H735 0.950 . S
C747 C743 1.393 . S
C747 C746 1.391 . S
H748 C756 0.950 . S
H749 C761 0.950 . S
H750 C758 0.950 . S
H751 C760 0.950 . S
H752 C762 0.950 . S
H753 C764 0.950 . S
H754 C766 0.950 . S
H755 C767 0.950 . S
C756 H748 0.950 . S
C756 C757 1.386 . S
C756 C758 1.391 . S
C757 C756 1.386 . S
C757 C761 1.393 . S
C758 H750 0.950 . S
C758 C756 1.391 . S
C758 C759 1.400 . S
C759 C758 1.400 . S
C759 C760 1.398 . S
C759 C765 1.491 . S
C760 H751 0.950 . S
C760 C759 1.398 . S
C760 C761 1.391 . S
C761 H749 0.950 . S
C761 C757 1.393 . S
C761 C760 1.391 . S
C762 H752 0.950 . S
C762 C763 1.386 . S
C762 C764 1.391 . S
C763 C762 1.386 . S
C763 C767 1.393 . S
C764 H753 0.950 . S
C764 C762 1.391 . S
C764 C765 1.400 . S
C765 C759 1.491 . S
C765 C764 1.400 . S
C765 C766 1.398 . S
C766 H754 0.950 . S
C766 C765 1.398 . S
C766 C767 1.391 . S
C767 H755 0.950 . S
C767 C763 1.393 . S
C767 C766 1.391 . S
H768 C776 0.950 . S
H769 C781 0.950 . S
H770 C778 0.950 . S
H771 C780 0.950 . S
H772 C782 0.950 . S
H773 C784 0.950 . S
H774 C786 0.950 . S
H775 C787 0.950 . S
C776 H768 0.950 . S
C776 C777 1.386 . S
C776 C778 1.391 . S
C777 C776 1.386 . S
C777 C781 1.393 . S
C778 H770 0.950 . S
C778 C776 1.391 . S
C778 C779 1.400 . S
C779 C778 1.400 . S
C779 C780 1.398 . S
C779 C785 1.491 . S
C780 H771 0.950 . S
C780 C779 1.398 . S
C780 C781 1.391 . S
C781 H769 0.950 . S
C781 C777 1.393 . S
C781 C780 1.391 . S
C782 H772 0.950 . S
C782 C783 1.386 . S
C782 C784 1.391 . S
C783 C782 1.386 . S
C783 C787 1.393 . S
C784 H773 0.950 . S
C784 C782 1.391 . S
C784 C785 1.400 . S
C785 C779 1.491 . S
C785 C784 1.400 . S
C785 C786 1.398 . S
C786 H774 0.950 . S
C786 C785 1.398 . S
C786 C787 1.391 . S
C787 H775 0.950 . S
C787 C783 1.393 . S
C787 C786 1.391 . S
H788 C796 0.950 . S
H789 C801 0.950 . S
H790 C798 0.950 . S
H791 C800 0.950 . S
H792 C802 0.950 . S
H793 C804 0.950 . S
H794 C806 0.950 . S
H795 C807 0.950 . S
C796 H788 0.950 . S
C796 C797 1.386 . S
C796 C798 1.391 . S
C797 C796 1.386 . S
C797 C801 1.393 . S
C798 H790 0.950 . S
C798 C796 1.391 . S
C798 C799 1.400 . S
C799 C798 1.400 . S
C799 C800 1.398 . S
C799 C805 1.491 . S
C800 H791 0.950 . S
C800 C799 1.398 . S
C800 C801 1.391 . S
C801 H789 0.950 . S
C801 C797 1.393 . S
C801 C800 1.391 . S
C802 H792 0.950 . S
C802 C803 1.386 . S
C802 C804 1.391 . S
C803 C802 1.386 . S
C803 C807 1.393 . S
C804 H793 0.950 . S
C804 C802 1.391 . S
C804 C805 1.400 . S
C805 C799 1.491 . S
C805 C804 1.400 . S
C805 C806 1.398 . S
C806 H794 0.950 . S
C806 C805 1.398 . S
C806 C807 1.391 . S
C807 H795 0.950 . S
C807 C803 1.393 . S
C807 C806 1.391 . S
H808 C816 0.950 . S
H809 C821 0.950 . S
H810 C818 0.950 . S
H811 C820 0.950 . S
H812 C822 0.950 . S
H813 C824 0.950 . S
H814 C826 0.950 . S
H815 C827 0.950 . S
C816 H808 0.950 . S
C816 C817 1.386 1_565 S
C816 C818 1.391 1_565 S
C817 C816 1.386 1_545 S
C817 C821 1.393 . S
C818 H810 0.950 . S
C818 C816 1.391 1_545 S
C818 C819 1.400 . S
C819 C818 1.400 . S
C819 C820 1.398 . S
C819 C825 1.491 . S
C820 H811 0.950 . S
C820 C819 1.398 . S
C820 C821 1.391 . S
C821 H809 0.950 . S
C821 C817 1.393 . S
C821 C820 1.391 . S
C822 H812 0.950 . S
C822 C823 1.386 . S
C822 C824 1.391 . S
C823 C822 1.386 . S
C823 C827 1.393 . S
C824 H813 0.950 . S
C824 C822 1.391 . S
C824 C825 1.400 . S
C825 C819 1.491 . S
C825 C824 1.400 . S
C825 C826 1.398 . S
C826 H814 0.950 . S
C826 C825 1.398 . S
C826 C827 1.391 . S
C827 H815 0.950 . S
C827 C823 1.393 . S
C827 C826 1.391 . S
H828 C836 0.961 . S
H829 C841 0.950 . S
H830 C838 0.950 . S
H831 C840 0.950 . S
H832 C842 0.950 . S
H833 C844 0.950 . S
H834 C846 0.950 . S
H835 C847 0.950 . S
C836 H828 0.961 . S
C836 C837 1.386 . S
C836 C838 1.391 . S
C837 C836 1.386 . S
C837 C841 1.393 . S
C838 H830 0.950 . S
C838 C836 1.391 . S
C838 C839 1.400 . S
C839 C838 1.400 . S
C839 C840 1.398 . S
C839 C845 1.491 . S
C840 H831 0.950 . S
C840 C839 1.398 . S
C840 C841 1.391 . S
C841 H829 0.950 . S
C841 C837 1.393 . S
C841 C840 1.391 . S
C842 H832 0.950 . S
C842 C843 1.386 . S
C842 C844 1.391 . S
C843 C842 1.386 . S
C843 C847 1.393 . S
C844 H833 0.950 . S
C844 C842 1.391 . S
C844 C845 1.400 . S
C845 C839 1.491 . S
C845 C844 1.400 . S
C845 C846 1.398 . S
C846 H834 0.950 . S
C846 C845 1.398 . S
C846 C847 1.391 . S
C847 H835 0.950 . S
C847 C843 1.393 . S
C847 C846 1.391 . S
H848 C856 0.948 . S
H849 C861 0.950 . S
H850 C858 0.950 . S
H851 C860 0.950 . S
H852 C862 0.950 . S
H853 C864 0.950 . S
H854 C866 0.950 . S
H855 C867 0.950 . S
C856 H848 0.948 . S
C856 C857 1.386 . S
C856 C858 1.391 . S
C857 C856 1.386 . S
C857 C861 1.393 . S
C858 H850 0.950 . S
C858 C856 1.391 . S
C858 C859 1.400 . S
C859 C858 1.400 . S
C859 C860 1.398 . S
C859 C865 1.491 . S
C860 H851 0.950 . S
C860 C859 1.398 . S
C860 C861 1.391 . S
C861 H849 0.950 . S
C861 C857 1.393 . S
C861 C860 1.391 . S
C862 H852 0.950 . S
C862 C863 1.386 . S
C862 C864 1.391 . S
C863 C862 1.386 . S
C863 C867 1.393 . S
C864 H853 0.950 . S
C864 C862 1.391 . S
C864 C865 1.400 . S
C865 C859 1.491 . S
C865 C864 1.400 . S
C865 C866 1.398 . S
C866 H854 0.950 . S
C866 C865 1.398 . S
C866 C867 1.391 . S
C867 H855 0.950 . S
C867 C863 1.393 . S
C867 C866 1.391 . S
H868 C876 0.950 . S
H869 C881 0.950 1_545 S
H870 C878 0.950 . S
H871 C880 0.950 . S
H872 C882 0.950 . S
H873 C884 0.950 . S
H874 C886 0.950 . S
H875 C887 0.950 . S
C876 H868 0.950 . S
C876 C877 1.386 . S
C876 C878 1.391 . S
C877 C876 1.386 . S
C877 C881 1.393 . S
C878 H870 0.950 . S
C878 C876 1.391 . S
C878 C879 1.400 . S
C879 C878 1.400 . S
C879 C880 1.398 . S
C879 C885 1.491 . S
C880 H871 0.950 . S
C880 C879 1.398 . S
C880 C881 1.391 . S
C881 H869 0.950 1_565 S
C881 C877 1.393 . S
C881 C880 1.391 . S
C882 H872 0.950 . S
C882 C883 1.386 . S
C882 C884 1.391 . S
C883 C882 1.386 . S
C883 C887 1.393 . S
C884 H873 0.950 . S
C884 C882 1.391 . S
C884 C885 1.400 . S
C885 C879 1.491 . S
C885 C884 1.400 . S
C885 C886 1.398 . S
C886 H874 0.950 . S
C886 C885 1.398 . S
C886 C887 1.391 . S
C887 H875 0.950 . S
C887 C883 1.393 . S
C887 C886 1.391 . S
H888 C896 0.950 . S
H889 C901 0.950 . S
H890 C898 0.950 . S
H891 C900 0.950 . S
H892 C902 0.950 . S
H893 C904 0.950 . S
H894 C906 0.950 . S
H895 C907 0.950 . S
C896 H888 0.950 . S
C896 C897 1.386 . S
C896 C898 1.391 . S
C897 C896 1.386 . S
C897 C901 1.393 . S
C898 H890 0.950 . S
C898 C896 1.391 . S
C898 C899 1.400 . S
C899 C898 1.400 . S
C899 C900 1.398 . S
C899 C905 1.491 . S
C900 H891 0.950 . S
C900 C899 1.398 . S
C900 C901 1.391 . S
C901 H889 0.950 . S
C901 C897 1.393 . S
C901 C900 1.391 . S
C902 H892 0.950 . S
C902 C903 1.386 . S
C902 C904 1.391 . S
C903 C902 1.386 . S
C903 C907 1.393 . S
C904 H893 0.950 . S
C904 C902 1.391 . S
C904 C905 1.400 . S
C905 C899 1.491 . S
C905 C904 1.400 . S
C905 C906 1.398 . S
C906 H894 0.950 . S
C906 C905 1.398 . S
C906 C907 1.391 . S
C907 H895 0.950 . S
C907 C903 1.393 . S
C907 C906 1.391 . S
H908 C916 0.950 . S
H909 C921 0.950 . S
H910 C918 0.950 . S
H911 C920 0.950 . S
H912 C922 0.950 . S
H913 C924 0.950 . S
H914 C926 0.950 . S
H915 C927 0.950 . S
C916 H908 0.950 . S
C916 C917 1.386 . S
C916 C918 1.391 . S
C917 C916 1.386 . S
C917 C921 1.393 . S
C918 H910 0.950 . S
C918 C916 1.391 . S
C918 C919 1.400 . S
C919 C918 1.400 . S
C919 C920 1.398 . S
C919 C925 1.491 . S
C920 H911 0.950 . S
C920 C919 1.398 . S
C920 C921 1.391 . S
C921 H909 0.950 . S
C921 C917 1.393 . S
C921 C920 1.391 . S
C922 H912 0.950 . S
C922 C923 1.386 . S
C922 C924 1.391 . S
C923 C922 1.386 . S
C923 C927 1.393 . S
C924 H913 0.950 . S
C924 C922 1.391 . S
C924 C925 1.400 . S
C925 C919 1.491 . S
C925 C924 1.400 . S
C925 C926 1.398 . S
C926 H914 0.950 . S
C926 C925 1.398 . S
C926 C927 1.391 . S
C927 H915 0.950 . S
C927 C923 1.393 . S
C927 C926 1.391 . S
H928 C936 0.950 . S
H929 C941 0.950 . S
H930 C938 0.950 . S
H931 C940 0.950 . S
H932 C942 0.950 . S
H933 C944 0.950 . S
H934 C946 0.950 . S
H935 C947 0.950 . S
C936 H928 0.950 . S
C936 C937 1.386 . S
C936 C938 1.391 . S
C937 C936 1.386 . S
C937 C941 1.393 . S
C938 H930 0.950 . S
C938 C936 1.391 . S
C938 C939 1.400 . S
C939 C938 1.400 . S
C939 C940 1.398 . S
C939 C945 1.491 . S
C940 H931 0.950 . S
C940 C939 1.398 . S
C940 C941 1.391 . S
C941 H929 0.950 . S
C941 C937 1.393 . S
C941 C940 1.391 . S
C942 H932 0.950 . S
C942 C943 1.386 . S
C942 C944 1.391 . S
C943 C942 1.386 . S
C943 C947 1.393 . S
C944 H933 0.950 . S
C944 C942 1.391 . S
C944 C945 1.400 . S
C945 C939 1.491 . S
C945 C944 1.400 . S
C945 C946 1.398 . S
C946 H934 0.950 . S
C946 C945 1.398 . S
C946 C947 1.391 . S
C947 H935 0.950 . S
C947 C943 1.393 . S
C947 C946 1.391 . S
H948 C956 0.950 . S
H949 C961 0.950 . S
H950 C958 0.950 . S
H951 C960 0.950 . S
H952 C962 0.950 . S
H953 C964 0.950 . S
H954 C966 0.950 . S
H955 C967 0.950 . S
C956 H948 0.950 . S
C956 C957 1.386 . S
C956 C958 1.391 . S
C957 C956 1.386 . S
C957 C961 1.393 . S
C958 H950 0.950 . S
C958 C956 1.391 . S
C958 C959 1.400 . S
C959 C958 1.400 . S
C959 C960 1.398 . S
C959 C965 1.491 . S
C960 H951 0.950 . S
C960 C959 1.398 . S
C960 C961 1.391 . S
C961 H949 0.950 . S
C961 C957 1.393 . S
C961 C960 1.391 . S
C962 H952 0.950 . S
C962 C963 1.386 . S
C962 C964 1.391 . S
C963 C962 1.386 . S
C963 C967 1.393 . S
C964 H953 0.950 . S
C964 C962 1.391 . S
C964 C965 1.400 . S
C965 C959 1.491 . S
C965 C964 1.400 . S
C965 C966 1.398 . S
C966 H954 0.950 . S
C966 C965 1.398 . S
C966 C967 1.391 . S
C967 H955 0.950 . S
C967 C963 1.393 . S
C967 C966 1.391 . S
H968 C976 0.950 . S
H969 C981 0.950 . S
H970 C978 0.950 . S
H971 C980 0.950 . S
H972 C982 0.950 . S
H973 C984 0.950 . S
H974 C986 0.950 . S
H975 C987 0.950 . S
C976 H968 0.950 . S
C976 C977 1.386 . S
C976 C978 1.391 . S
C977 C976 1.386 . S
C977 C981 1.393 . S
C978 H970 0.950 . S
C978 C976 1.391 . S
C978 C979 1.400 . S
C979 C978 1.400 . S
C979 C980 1.398 . S
C979 C985 1.491 . S
C980 H971 0.950 . S
C980 C979 1.398 . S
C980 C981 1.391 . S
C981 H969 0.950 . S
C981 C977 1.393 . S
C981 C980 1.391 . S
C982 H972 0.950 . S
C982 C983 1.386 . S
C982 C984 1.391 . S
C983 C982 1.386 . S
C983 C987 1.393 . S
C984 H973 0.950 . S
C984 C982 1.391 . S
C984 C985 1.400 . S
C985 C979 1.491 . S
C985 C984 1.400 . S
C985 C986 1.398 . S
C986 H974 0.950 . S
C986 C985 1.398 . S
C986 C987 1.391 . S
C987 H975 0.950 . S
C987 C983 1.393 . S
C987 C986 1.391 . S
H988 C996 0.950 . S
H989 C1001 0.950 . S
H990 C998 0.950 . S
H991 C1000 0.950 . S
H992 C1002 0.950 . S
H993 C1004 0.950 . S
H994 C1006 0.950 . S
H995 C1007 0.950 . S
C996 H988 0.950 . S
C996 C997 1.386 . S
C996 C998 1.391 . S
C997 C996 1.386 . S
C997 C1001 1.393 . S
C998 H990 0.950 . S
C998 C996 1.391 . S
C998 C999 1.400 . S
C999 C998 1.400 . S
C999 C1000 1.398 . S
C999 C1005 1.491 . S
C1000 H991 0.950 . S
C1000 C999 1.398 . S
C1000 C1001 1.391 . S
C1001 H989 0.950 . S
C1001 C997 1.393 . S
C1001 C1000 1.391 . S
C1002 H992 0.950 . S
C1002 C1003 1.386 . S
C1002 C1004 1.391 . S
C1003 C1002 1.386 . S
C1003 C1007 1.393 . S
C1004 H993 0.950 . S
C1004 C1002 1.391 . S
C1004 C1005 1.400 . S
C1005 C999 1.491 . S
C1005 C1004 1.400 . S
C1005 C1006 1.398 . S
C1006 H994 0.950 . S
C1006 C1005 1.398 . S
C1006 C1007 1.391 . S
C1007 H995 0.950 . S
C1007 C1003 1.393 . S
C1007 C1006 1.391 . S
H1008 C1016 0.950 . S
H1009 C1021 0.950 . S
H1010 C1018 0.950 . S
H1011 C1020 0.950 . S
H1012 C1022 0.950 . S
H1013 C1024 0.950 . S
H1014 C1026 0.950 . S
H1015 C1027 0.950 . S
C1016 H1008 0.950 . S
C1016 C1017 1.386 . S
C1016 C1018 1.391 . S
C1017 C1016 1.386 . S
C1017 C1021 1.393 . S
C1018 H1010 0.950 . S
C1018 C1016 1.391 . S
C1018 C1019 1.400 . S
C1019 C1018 1.400 . S
C1019 C1020 1.398 . S
C1019 C1025 1.491 . S
C1020 H1011 0.950 . S
C1020 C1019 1.398 . S
C1020 C1021 1.391 . S
C1021 H1009 0.950 . S
C1021 C1017 1.393 . S
C1021 C1020 1.391 . S
C1022 H1012 0.950 . S
C1022 C1023 1.386 . S
C1022 C1024 1.391 . S
C1023 C1022 1.386 . S
C1023 C1027 1.393 . S
C1024 H1013 0.950 . S
C1024 C1022 1.391 . S
C1024 C1025 1.400 . S
C1025 C1019 1.491 . S
C1025 C1024 1.400 . S
C1025 C1026 1.398 . S
C1026 H1014 0.950 . S
C1026 C1025 1.398 . S
C1026 C1027 1.391 . S
C1027 H1015 0.950 . S
C1027 C1023 1.393 . S
C1027 C1026 1.391 . S
H1028 C1036 0.950 . S
H1029 C1041 0.950 . S
H1030 C1038 0.950 . S
H1031 C1040 0.950 . S
H1032 C1042 0.950 . S
H1033 C1044 0.950 . S
H1034 C1046 0.950 . S
H1035 C1047 0.950 . S
C1036 H1028 0.950 . S
C1036 C1037 1.386 . S
C1036 C1038 1.391 . S
C1037 C1036 1.386 . S
C1037 C1041 1.393 . S
C1038 H1030 0.950 . S
C1038 C1036 1.391 . S
C1038 C1039 1.400 . S
C1039 C1038 1.400 . S
C1039 C1040 1.398 . S
C1039 C1045 1.491 . S
C1040 H1031 0.950 . S
C1040 C1039 1.398 . S
C1040 C1041 1.391 . S
C1041 H1029 0.950 . S
C1041 C1037 1.393 . S
C1041 C1040 1.391 . S
C1042 H1032 0.950 . S
C1042 C1043 1.386 . S
C1042 C1044 1.391 . S
C1043 C1042 1.386 . S
C1043 C1047 1.393 . S
C1044 H1033 0.950 . S
C1044 C1042 1.391 . S
C1044 C1045 1.400 . S
C1045 C1039 1.491 . S
C1045 C1044 1.400 . S
C1045 C1046 1.398 . S
C1046 H1034 0.950 . S
C1046 C1045 1.398 . S
C1046 C1047 1.391 . S
C1047 H1035 0.950 . S
C1047 C1043 1.393 . S
C1047 C1046 1.391 . S
C577 C31 1.525 . S
C583 C523 1.545 . S
C603 C487 1.545 . S
C597 C61 1.524 . S
C623 C510 1.534 . S
C617 C151 1.494 . S
C643 C498 1.525 . S
C637 C181 1.523 . S
C663 C567 1.539 . S
C657 C271 1.510 . S
C683 C531 1.542 . S
C677 C301 1.514 . S
C697 C391 1.470 . S
C703 C554 1.522 . S
C723 C542 1.528 . S
C717 C421 1.522 . S
C737 C20 1.503 . S
C743 C564 1.527 . S
C763 C534 1.527 . S
C757 C91 1.499 . S
C777 C121 1.472 . S
C783 C553 1.556 . S
C797 C211 1.563 . S
C803 C539 1.561 . S
C823 C520 1.528 . S
C817 C260 1.495 1_545 S
C837 C331 1.506 1_565 S
C843 C490 1.526 . S
C863 C509 1.554 . S
C857 C361 1.473 1_545 S
C883 C495 1.557 . S
C877 C451 1.561 1_565 S
C903 C545 1.528 . S
C897 C1 1.465 . S
C923 C561 1.536 . S
C917 C80 1.443 . S
C937 C140 1.458 . S
C943 C532 1.505 . S
C963 C556 1.504 . S
C957 C200 1.468 . S
C983 C501 1.530 . S
C977 C241 1.459 . S
C997 C320 1.467 . S
C1003 C517 1.525 . S
C1017 C380 1.475 . S
C1023 C488 1.508 . S
C1037 C440 1.470 . S
C1043 C512 1.502 . S
