# Generated by pormake.
# Topology ftw, (4,12)-cn, num edge types: 1
# Building blocks:
#     Node 0, Type 0, BuildingBlock: NAHDIM_clean_linker_0, # of connection points: 4
#     Node 1, Type 0, BuildingBlock: NAHDIM_clean_linker_0, # of connection points: 4
#     Node 2, Type 0, BuildingBlock: NAHDIM_clean_linker_0, # of connection points: 4
#     Node 3, Type 1, BuildingBlock: EZIPEK_clean_sbu_0, # of connection points: 12
#     Edge 4, Type (0, 1), BuildingBlock: KIFKEQ_clean_linker_1, # of connection points: 2
#     Edge 5, Type (0, 1), BuildingBlock: KIFKEQ_clean_linker_1, # of connection points: 2
#     Edge 6, Type (0, 1), BuildingBlock: KIFKEQ_clean_linker_1, # of connection points: 2
#     Edge 7, Type (0, 1), BuildingBlock: KIFKEQ_clean_linker_1, # of connection points: 2
#     Edge 8, Type (0, 1), BuildingBlock: KIFKEQ_clean_linker_1, # of connection points: 2
#     Edge 9, Type (0, 1), BuildingBlock: KIFKEQ_clean_linker_1, # of connection points: 2
#     Edge 10, Type (0, 1), BuildingBlock: KIFKEQ_clean_linker_1, # of connection points: 2
#     Edge 11, Type (0, 1), BuildingBlock: KIFKEQ_clean_linker_1, # of connection points: 2
#     Edge 12, Type (0, 1), BuildingBlock: KIFKEQ_clean_linker_1, # of connection points: 2
#     Edge 13, Type (0, 1), BuildingBlock: KIFKEQ_clean_linker_1, # of connection points: 2
#     Edge 14, Type (0, 1), BuildingBlock: KIFKEQ_clean_linker_1, # of connection points: 2
#     Edge 15, Type (0, 1), BuildingBlock: KIFKEQ_clean_linker_1, # of connection points: 2
# Relax obj value: 0.006
# Max RMSD: 0.061
# Mean RMSD: 0.048
data_MOF--net-ftw--node1-EZIPEK_clean_sbu_0--node2-NAHDIM_clean_linker_0--edge1-KIFKEQ_clean_linker_1
_symmetry_space_group_name_H-M    P1
_symmetry_Int_Tables_number       1
_symmetry_cell_setting            triclinic
loop_
_symmetry_equiv_pos_as_xyz
'x, y, z'
_cell_length_a     33.48598
_cell_length_b     32.924475
_cell_length_c     32.408848
_cell_angle_alpha  90.42334
_cell_angle_beta   89.512764
_cell_angle_gamma 89.57334
loop_
_atom_site_label
_atom_site_type_symbol
_atom_site_fract_x
_atom_site_fract_y
_atom_site_fract_z
_atom_type_partial_charge
C0 C 0.12369 0.69834 0.31725 0.0
C1 C 0.08545 0.6875 0.2938 0.0
C2 C 0.04512 0.64538 0.3406 0.0
C3 C 0.00839 0.64328 0.36114 0.0
C4 C 0.9971 0.6083 0.38263 0.0
C5 C 0.024 0.57502 0.38479 0.0
C6 C 0.06113 0.57667 0.36374 0.0
C7 C 0.07114 0.61163 0.34144 0.0
C8 C 0.95661 0.60723 0.4034 0.0
C9 C 0.09053 0.54175 0.36537 0.0
C10 C 0.88512 0.27908 0.34731 0.0
C11 C 0.92683 0.29533 0.33744 0.0
C12 C 0.93952 0.36774 0.34694 0.0
C13 C 0.97899 0.36645 0.36104 0.0
C14 C 0.99546 0.40001 0.38165 0.0
C15 C 0.9716 0.4351 0.38893 0.0
C16 C 0.93202 0.43659 0.37396 0.0
C17 C 0.91677 0.40305 0.35252 0.0
C18 C 0.03829 0.39796 0.39561 0.0
C19 C 0.90565 0.47344 0.38096 0.0
C20 C 0.95451 0.37124 0.65714 0.0
C21 C 0.99455 0.37399 0.64426 0.0
C22 C 0.00791 0.4078 0.62206 0.0
C23 C 0.98071 0.43947 0.61281 0.0
C24 C 0.94078 0.43749 0.62726 0.0
C25 C 0.92833 0.40348 0.64964 0.0
C26 C 0.05094 0.40951 0.60802 0.0
C27 C 0.91114 0.47097 0.61839 0.0
C28 C 0.06632 0.75069 0.61469 0.0
C29 C 0.04257 0.73024 0.64932 0.0
C30 C 0.04891 0.65632 0.64337 0.0
C31 C 0.07862 0.6273 0.63506 0.0
C32 C 0.06922 0.58961 0.61723 0.0
C33 C 0.02902 0.58087 0.60777 0.0
C34 C 0.99857 0.60921 0.61821 0.0
C35 C 0.00877 0.64646 0.63637 0.0
C36 C 0.10227 0.55964 0.60734 0.0
C37 C 0.95526 0.60041 0.60949 0.0
C38 C 0.01375 0.53909 0.41016 0.0
C39 C -0.0001 0.50429 0.39008 0.0
C40 C 0.98777 0.47022 0.41232 0.0
C41 C 0.98946 0.47073 0.45597 0.0
C42 C 0.97654 0.43747 0.47946 0.0
C43 C 0.97824 0.43834 0.52236 0.0
C44 C 0.99248 0.47269 0.54351 0.0
C45 C 0.99375 0.47416 0.58714 0.0
C46 C 0.00677 0.50933 0.6072 0.0
C47 C 0.01885 0.54325 0.5848 0.0
C48 C 0.01884 0.54198 0.54116 0.0
C49 C 0.03162 0.57531 0.51774 0.0
C50 C 0.03073 0.57413 0.47487 0.0
C51 C 0.01633 0.53987 0.45371 0.0
C52 C 0.00391 0.50566 0.47667 0.0
C53 C 0.0053 0.50668 0.52047 0.0
C54 C 0.91519 0.2742 0.65489 0.0
C55 C 0.95162 0.2982 0.66907 0.0
O56 O 0.05424 0.68064 0.32111 0.0
O57 O 0.06004 0.6931 0.65849 0.0
O58 O 0.94021 0.33809 0.67688 0.0
O59 O 0.92283 0.3359 0.32691 0.0
H60 H 0.0918 0.6596 0.27518 0.0
H61 H 0.13535 0.67152 0.33391 0.0
H62 H 0.11794 0.72269 0.34046 0.0
H63 H 0.14728 0.70841 0.29536 0.0
H64 H 0.98838 0.66928 0.36014 0.0
H65 H 0.09957 0.61241 0.32548 0.0
H66 H 0.94173 0.57781 0.39713 0.0
H67 H 0.93682 0.63229 0.39295 0.0
H68 H 0.96026 0.61015 0.43729 0.0
H69 H 0.11939 0.54896 0.35006 0.0
H70 H 0.07761 0.51474 0.3499 0.0
H71 H 0.09633 0.53352 0.39796 0.0
H72 H 0.9451 0.29188 0.36578 0.0
H73 H 0.88674 0.24729 0.35844 0.0
H74 H 0.86594 0.28021 0.31951 0.0
H75 H 0.87093 0.29793 0.37202 0.0
H76 H 0.99707 0.33954 0.35536 0.0
H77 H 0.88653 0.40384 0.34087 0.0
H78 H 0.05449 0.42566 0.38587 0.0
H79 H 0.05425 0.37082 0.38303 0.0
H80 H 0.03913 0.39678 0.4298 0.0
H81 H 0.87439 0.46811 0.3712 0.0
H82 H 0.91766 0.49939 0.36319 0.0
H83 H 0.90556 0.48225 0.41411 0.0
H84 H 0.97356 0.29632 0.64309 0.0
H85 H 0.01542 0.34989 0.65163 0.0
H86 H 0.89767 0.40133 0.66037 0.0
H87 H 0.05234 0.40935 0.57377 0.0
H88 H 0.06886 0.38349 0.61955 0.0
H89 H 0.06464 0.43823 0.61889 0.0
H90 H 0.88082 0.46419 0.63058 0.0
H91 H 0.90923 0.47578 0.58458 0.0
H92 H 0.92149 0.49978 0.63255 0.0
H93 H 0.01187 0.72665 0.63725 0.0
H94 H 0.05433 0.78168 0.60892 0.0
H95 H 0.06366 0.73258 0.5858 0.0
H96 H 0.0985 0.75272 0.62234 0.0
H97 H 0.10942 0.63478 0.6415 0.0
H98 H 0.98521 0.66752 0.64517 0.0
H99 H 0.1049 0.55572 0.57337 0.0
H100 H 0.09502 0.52953 0.62056 0.0
H101 H 0.13155 0.56966 0.61945 0.0
H102 H 0.93515 0.62585 0.619 0.0
H103 H 0.94609 0.57264 0.62618 0.0
H104 H 0.9513 0.5945 0.576 0.0
H105 H 0.99787 0.50397 0.35667 0.0
H106 H 0.96493 0.41035 0.46496 0.0
H107 H 0.96793 0.41182 0.53874 0.0
H108 H 0.00685 0.51055 0.64067 0.0
H109 H 0.04251 0.60275 0.53224 0.0
H110 H 0.04117 0.60064 0.45856 0.0
H111 H 0.92353 0.24194 0.64895 0.0
H112 H 0.90361 0.28728 0.6258 0.0
H113 H 0.89094 0.2755 0.67849 0.0
C114 C 0.73964 0.10264 0.64131 0.0
C115 C 0.72148 0.07769 0.67643 0.0
C116 C 0.67114 0.0344 0.64309 0.0
C117 C 0.66241 0.9946 0.63118 0.0
C118 C 0.62643 0.98518 0.61153 0.0
C119 C 0.5985 0.01652 0.60364 0.0
C120 C 0.60682 0.05684 0.61599 0.0
C121 C 0.64309 0.06545 0.63548 0.0
C122 C 0.61847 0.94188 0.59867 0.0
C123 C 0.57754 0.09092 0.60807 0.0
C124 C 0.38399 0.91763 0.76061 0.0
C125 C 0.36981 0.95479 0.73652 0.0
C126 C 0.39492 0.95584 0.66658 0.0
C127 C 0.40477 0.99672 0.66114 0.0
C128 C 0.43529 0.00784 0.63364 0.0
C129 C 0.45663 0.97726 0.61158 0.0
C130 C 0.44596 0.93598 0.61631 0.0
C131 C 0.41465 0.92587 0.64335 0.0
C132 C 0.44521 0.05218 0.62874 0.0
C133 C 0.4683 0.90252 0.59369 0.0
C134 C 0.36714 0.97856 0.35441 0.0
C135 C 0.37961 0.01851 0.3624 0.0
C136 C 0.41695 0.02603 0.38005 0.0
C137 C 0.44267 0.99305 0.38894 0.0
C138 C 0.43123 0.95301 0.37858 0.0
C139 C 0.39354 0.94633 0.36133 0.0
C140 C 0.42872 0.06921 0.38975 0.0
C141 C 0.4584 0.91726 0.38673 0.0
C142 C 0.74663 0.09572 0.35365 0.0
C143 C 0.72591 0.06082 0.33117 0.0
C144 C 0.65366 0.05872 0.33939 0.0
C145 C 0.62349 0.08646 0.34993 0.0
C146 C 0.58919 0.07397 0.37135 0.0
C147 C 0.58474 0.03249 0.38145 0.0
C148 C 0.61414 0.00388 0.36864 0.0
C149 C 0.6484 0.01733 0.34772 0.0
C150 C 0.55823 0.10523 0.38414 0.0
C151 C 0.60974 0.95929 0.37788 0.0
C152 C 0.56115 0.00742 0.58119 0.0
C153 C 0.52753 0.99626 0.60413 0.0
C154 C 0.49111 0.98839 0.58495 0.0
C155 C 0.48804 0.99159 0.54159 0.0
C156 C 0.45175 0.98466 0.52134 0.0
C157 C 0.44919 0.98744 0.47863 0.0
C158 C 0.4828 0.99748 0.45451 0.0
C159 C 0.48054 0.00031 0.41106 0.0
C160 C 0.51425 0.01115 0.38805 0.0
C161 C 0.55046 0.0195 0.40736 0.0
C162 C 0.55345 0.01645 0.45075 0.0
C163 C 0.58946 0.02458 0.47115 0.0
C164 C 0.59212 0.02148 0.51381 0.0
C165 C 0.55879 0.0104 0.53779 0.0
C166 C 0.52213 0.00233 0.51793 0.0
C167 C 0.51949 0.00529 0.47436 0.0
C168 C 0.27324 0.9701 0.38396 0.0
C169 C 0.29511 0.99062 0.34809 0.0
O170 O 0.70696 0.04123 0.66132 0.0
O171 O 0.68741 0.07278 0.32123 0.0
O172 O 0.33039 0.96984 0.33944 0.0
O173 O 0.36728 0.94472 0.69503 0.0
H174 H 0.69685 0.0955 0.69128 0.0
H175 H 0.71652 0.11021 0.61821 0.0
H176 H 0.76398 0.08534 0.62544 0.0
H177 H 0.75186 0.13154 0.6536 0.0
H178 H 0.68415 0.97085 0.63713 0.0
H179 H 0.64925 0.09651 0.64417 0.0
H180 H 0.59025 0.93138 0.61317 0.0
H181 H 0.64304 0.92089 0.60747 0.0
H182 H 0.6146 0.94025 0.5647 0.0
H183 H 0.58772 0.12043 0.62089 0.0
H184 H 0.54807 0.08358 0.62197 0.0
H185 H 0.57321 0.09423 0.57433 0.0
H186 H 0.3926 0.97884 0.74142 0.0
H187 H 0.38579 0.92501 0.79406 0.0
H188 H 0.4142 0.90824 0.74957 0.0
H189 H 0.36339 0.89169 0.75622 0.0
H190 H 0.3887 0.01983 0.67871 0.0
H191 H 0.40652 0.89439 0.64774 0.0
H192 H 0.44735 0.05998 0.59552 0.0
H193 H 0.47471 0.05824 0.64279 0.0
H194 H 0.42261 0.07235 0.64382 0.0
H195 H 0.45837 0.87184 0.60325 0.0
H196 H 0.50085 0.90514 0.59934 0.0
H197 H 0.46362 0.90554 0.55999 0.0
H198 H 0.30062 0.02225 0.35845 0.0
H199 H 0.3607 0.04403 0.35469 0.0
H200 H 0.38406 0.9157 0.35413 0.0
H201 H 0.43614 0.07219 0.42296 0.0
H202 H 0.4047 0.09141 0.38243 0.0
H203 H 0.45586 0.07706 0.3717 0.0
H204 H 0.44668 0.88854 0.37351 0.0
H205 H 0.46183 0.91347 0.42053 0.0
H206 H 0.48854 0.92289 0.37349 0.0
H207 H 0.72562 0.03477 0.35289 0.0
H208 H 0.77769 0.08687 0.36168 0.0
H209 H 0.73016 0.10314 0.38266 0.0
H210 H 0.74741 0.12336 0.33419 0.0
H211 H 0.62761 0.11823 0.34262 0.0
H212 H 0.67103 0.99556 0.33793 0.0
H213 H 0.55387 0.10464 0.41814 0.0
H214 H 0.5292 0.0977 0.36981 0.0
H215 H 0.56669 0.13645 0.37492 0.0
H216 H 0.63337 0.9405 0.36263 0.0
H217 H 0.58007 0.94851 0.36759 0.0
H218 H 0.61137 0.9546 0.41172 0.0
H219 H 0.52966 0.99397 0.63743 0.0
H220 H 0.4249 0.97691 0.53828 0.0
H221 H 0.42047 0.98164 0.46479 0.0
H222 H 0.51215 0.01361 0.35477 0.0
H223 H 0.61609 0.03338 0.45439 0.0
H224 H 0.62067 0.02796 0.52774 0.0
H225 H 0.24367 0.9848 0.38945 0.0
H226 H 0.29111 0.9732 0.41252 0.0
H227 H 0.26896 0.93721 0.3778 0.0
C228 C 0.65206 0.77003 0.94226 0.0
C229 C 0.67501 0.74647 0.97514 0.0
C230 C 0.65093 0.67785 0.97195 0.0
C231 C 0.64087 0.6689 0.01289 0.0
C232 C 0.60974 0.64203 0.02197 0.0
C233 C 0.58809 0.62412 0.9893 0.0
C234 C 0.59909 0.63219 0.94788 0.0
C235 C 0.63089 0.65862 0.93974 0.0
C236 C 0.59942 0.63349 0.06645 0.0
C237 C 0.57652 0.61387 0.9123 0.0
C238 C 0.28005 0.64939 0.07023 0.0
C239 C 0.301 0.67413 0.03676 0.0
C240 C 0.37312 0.6635 0.04096 0.0
C241 C 0.3817 0.64878 0.00107 0.0
C242 C 0.41719 0.62714 0.99276 0.0
C243 C 0.44464 0.62026 0.02498 0.0
C244 C 0.43652 0.63603 0.06493 0.0
C245 C 0.40098 0.65786 0.07226 0.0
C246 C 0.42548 0.61175 0.94953 0.0
C247 C 0.46531 0.62962 0.09987 0.0
C248 C 0.3843 0.35367 0.04619 0.0
C249 C 0.39123 0.36743 0.00589 0.0
C250 C 0.42521 0.3904 0.99644 0.0
C251 C 0.45274 0.39971 0.02796 0.0
C252 C 0.44639 0.3848 0.06832 0.0
C253 C 0.41237 0.36154 0.07678 0.0
C254 C 0.43171 0.40477 0.9528 0.0
C255 C 0.47535 0.39384 0.10253 0.0
C256 C 0.76109 0.38217 0.93281 0.0
C257 C 0.73988 0.3571 0.96582 0.0
C258 C 0.66727 0.36474 0.96471 0.0
C259 C 0.63801 0.37231 0.93528 0.0
C260 C 0.60211 0.39199 0.94617 0.0
C261 C 0.59522 0.40361 0.98775 0.0
C262 C 0.6239 0.3942 0.01808 0.0
C263 C 0.65968 0.37472 0.00625 0.0
C264 C 0.57187 0.40106 0.91317 0.0
C265 C 0.61689 0.40518 0.06285 0.0
C266 C 0.5527 0.59871 0.99857 0.0
C267 C 0.51652 0.61864 0.00713 0.0
C268 C 0.48202 0.59693 0.01674 0.0
C269 C 0.4834 0.55401 0.01795 0.0
C270 C 0.44939 0.5312 0.02808 0.0
C271 C 0.45094 0.48895 0.02865 0.0
C272 C 0.48652 0.46786 0.01894 0.0
C273 C 0.48824 0.42489 0.01867 0.0
C274 C 0.52408 0.40493 0.00879 0.0
C275 C 0.55853 0.42672 0.99919 0.0
C276 C 0.55752 0.46967 0.99955 0.0
C277 C 0.59177 0.49251 0.99037 0.0
C278 C 0.5904 0.53475 0.99048 0.0
C279 C 0.55461 0.5558 0.99919 0.0
C280 C 0.51977 0.53339 0.00881 0.0
C281 C 0.52129 0.49028 0.00919 0.0
C282 C 0.29251 0.36622 0.08029 0.0
C283 C 0.31259 0.34226 0.04509 0.0
O284 O 0.67886 0.70614 0.96309 0.0
O285 O 0.70207 0.34712 0.95207 0.0
O286 O 0.35127 0.33213 0.05624 0.0
O287 O 0.33895 0.68429 0.04999 0.0
H288 H 0.65744 0.74886 0.00444 0.0
H289 H 0.62161 0.75732 0.93893 0.0
H290 H 0.66763 0.76787 0.91189 0.0
H291 H 0.64907 0.80253 0.95135 0.0
H292 H 0.65716 0.68335 0.03766 0.0
H293 H 0.63916 0.66569 0.90822 0.0
H294 H 0.56996 0.6474 0.07411 0.0
H295 H 0.62196 0.64591 0.08801 0.0
H296 H 0.59697 0.60024 0.07135 0.0
H297 H 0.5877 0.6246 0.88194 0.0
H298 H 0.54428 0.62164 0.9152 0.0
H299 H 0.57926 0.58027 0.9131 0.0
H300 H 0.30242 0.65481 0.0085 0.0
H301 H 0.24948 0.64107 0.06027 0.0
H302 H 0.27799 0.66694 0.0996 0.0
H303 H 0.29715 0.62096 0.07589 0.0
H304 H 0.36119 0.65479 0.97618 0.0
H305 H 0.39438 0.67001 0.10275 0.0
H306 H 0.45474 0.62327 0.93847 0.0
H307 H 0.40199 0.62114 0.92749 0.0
H308 H 0.42738 0.57807 0.94961 0.0
H309 H 0.45361 0.64189 0.12966 0.0
H310 H 0.49398 0.6448 0.0926 0.0
H311 H 0.47174 0.5967 0.10342 0.0
H312 H 0.31253 0.36225 0.01756 0.0
H313 H 0.37045 0.35978 0.98168 0.0
H314 H 0.40702 0.35018 0.10762 0.0
H315 H 0.43106 0.43847 0.95221 0.0
H316 H 0.40865 0.39317 0.93137 0.0
H317 H 0.4616 0.39473 0.94145 0.0
H318 H 0.46532 0.38138 0.13262 0.0
H319 H 0.47908 0.42719 0.10583 0.0
H320 H 0.50506 0.38061 0.09463 0.0
H321 H 0.73826 0.37631 0.99417 0.0
H322 H 0.79157 0.39039 0.94313 0.0
H323 H 0.74402 0.41066 0.92732 0.0
H324 H 0.76339 0.36495 0.90325 0.0
H325 H 0.64388 0.3637 0.90345 0.0
H326 H 0.68141 0.36703 0.02953 0.0
H327 H 0.56645 0.43433 0.91169 0.0
H328 H 0.54302 0.38653 0.92109 0.0
H329 H 0.58177 0.39004 0.88223 0.0
H330 H 0.64125 0.39405 0.08299 0.0
H331 H 0.58816 0.39219 0.07366 0.0
H332 H 0.61454 0.4387 0.06621 0.0
H333 H 0.51521 0.65157 0.00633 0.0
H334 H 0.42115 0.54578 0.03563 0.0
H335 H 0.42381 0.47301 0.03661 0.0
H336 H 0.5251 0.37198 0.00828 0.0
H337 H 0.62009 0.47798 0.98304 0.0
H338 H 0.61772 0.55072 0.98333 0.0
H339 H 0.2921 0.34817 0.10913 0.0
H340 H 0.26135 0.37442 0.07201 0.0
H341 H 0.30918 0.3947 0.08613 0.0
C342 C 0.0255 0.11766 0.90399 0.0
C343 C 0.01446 0.10923 0.10384 0.0
C344 C 0.02408 0.92155 0.89371 0.0
C345 C 0.01901 0.91215 0.09293 0.0
C346 C 0.11391 0.91341 0.99923 0.0
C347 C 0.11952 0.11086 0.00824 0.0
C348 C 0.92015 0.92135 0.99231 0.0
C349 C 0.9268 0.11772 0.99932 0.0
C350 C 0.91941 0.01538 0.09552 0.0
C351 C 0.11202 0.00683 0.10325 0.0
C352 C 0.92894 0.025 0.89571 0.0
C353 C 0.12273 0.01444 0.90398 0.0
Eu354 Eu 0.02261 0.09209 0.00306 0.0
O355 O 0.05531 0.04894 0.03972 0.0
O356 O 0.98834 0.05384 0.96324 0.0
Eu357 Eu 0.09606 0.01299 0.00273 0.0
Eu358 Eu 0.94516 0.01853 0.99635 0.0
O359 O 0.05922 0.05201 0.96569 0.0
O360 O 0.98463 0.05107 0.0362 0.0
Eu361 Eu 0.02479 0.01862 0.92122 0.0
Eu362 Eu 0.01679 0.01174 0.077 0.0
O363 O 0.05675 0.97976 0.96255 0.0
O364 O 0.05252 0.97685 0.03439 0.0
O365 O 0.9819 0.9787 0.03262 0.0
O366 O 0.98544 0.98233 0.95862 0.0
Eu367 Eu 0.01779 0.93864 0.99449 0.0
O368 O 0.02367 0.12875 0.94374 0.0
O369 O 0.01664 0.12335 0.06537 0.0
O370 O 0.0198 0.90725 0.93192 0.0
O371 O 0.01897 0.90189 0.05303 0.0
O372 O 0.12732 0.95143 0.00285 0.0
O373 O 0.1311 0.0719 0.00708 0.0
O374 O 0.90985 0.96056 0.99319 0.0
O375 O 0.91337 0.07967 0.99705 0.0
O376 O 0.95674 0.01145 0.10903 0.0
O377 O 0.07348 0.00718 0.11395 0.0
O378 O 0.96744 0.02326 0.88448 0.0
O379 O 0.08561 0.01665 0.88924 0.0
O380 O 0.95758 0.90689 0.99243 0.0
O381 O 0.07573 0.90287 0.99487 0.0
O382 O 0.96508 0.12832 0.00181 0.0
O383 O 0.08179 0.12406 0.00724 0.0
O384 O 0.01534 0.07015 0.11462 0.0
O385 O 0.017 0.95 0.10804 0.0
O386 O 0.0272 0.0795 0.88994 0.0
O387 O 0.02653 0.96062 0.88351 0.0
O388 O 0.13238 0.01308 0.9438 0.0
O389 O 0.12649 0.00941 0.06487 0.0
O390 O 0.91506 0.02332 0.9344 0.0
O391 O 0.90886 0.01902 0.05602 0.0
H392 H 0.94659 0.31849 0.25696 0.0
H393 H 0.95108 0.21623 0.33957 0.0
H394 H 0.97406 0.27644 0.20176 0.0
H395 H 0.97539 0.17315 0.28355 0.0
H396 H 0.04044 0.1056 0.1834 0.0
H397 H 0.02578 0.1533 0.23945 0.0
H398 H 0.95611 0.22668 0.15582 0.0
H399 H 0.97323 0.18044 0.09965 0.0
C400 C 0.95329 0.28697 0.26342 0.0
C401 C 0.94623 0.27063 0.3028 0.0
C402 C 0.96871 0.26259 0.23146 0.0
C403 C 0.97662 0.221 0.23766 0.0
C404 C 0.97038 0.20503 0.27737 0.0
C405 C 0.95591 0.22963 0.30953 0.0
C406 C 0.02245 0.13229 0.17708 0.0
C407 C 0.00804 0.13938 0.13723 0.0
C408 C 0.01368 0.15954 0.20927 0.0
C409 C 0.98934 0.19396 0.20261 0.0
C410 C 0.97557 0.20118 0.16234 0.0
C411 C 0.98519 0.17448 0.13 0.0
H412 H 0.73133 0.10229 0.25792 0.0
H413 H 0.77327 0.99369 0.31802 0.0
H414 H 0.77476 0.08722 0.19868 0.0
H415 H 0.81591 0.97797 0.25852 0.0
H416 H 0.92673 0.99998 0.17778 0.0
H417 H 0.87646 0.00737 0.23146 0.0
H418 H 0.78897 0.04102 0.14043 0.0
H419 H 0.83983 0.03449 0.08618 0.0
C420 C 0.74927 0.07478 0.25801 0.0
C421 C 0.74895 0.04913 0.2925 0.0
C422 C 0.77397 0.06602 0.22406 0.0
C423 C 0.79894 0.03149 0.22397 0.0
C424 C 0.79746 0.00511 0.25787 0.0
C425 C 0.77287 0.01393 0.29183 0.0
C426 C 0.89679 0.00876 0.16892 0.0
C427 C 0.8875 0.0169 0.12752 0.0
C428 C 0.86779 0.01264 0.19982 0.0
C429 C 0.82866 0.02471 0.19026 0.0
C430 C 0.81898 0.03201 0.14881 0.0
C431 C 0.84808 0.02802 0.11771 0.0
H432 H 0.06141 0.68003 0.21359 0.0
H433 H 0.07827 0.77039 0.30896 0.0
H434 H 0.0406 0.73293 0.16621 0.0
H435 H 0.06043 0.82362 0.26094 0.0
H436 H 0.99808 0.91043 0.17497 0.0
H437 H 0.01015 0.85567 0.22377 0.0
H438 H 0.06709 0.78477 0.12663 0.0
H439 H 0.05321 0.83832 0.07791 0.0
C440 C 0.06139 0.71131 0.22419 0.0
C441 C 0.07306 0.72103 0.26458 0.0
C442 C 0.04964 0.74176 0.19697 0.0
C443 C 0.04947 0.78286 0.20931 0.0
C444 C 0.05992 0.79242 0.25019 0.0
C445 C 0.07094 0.76185 0.27765 0.0
C446 C 0.0128 0.88291 0.16409 0.0
C447 C 0.02438 0.87861 0.12254 0.0
C448 C 0.02003 0.85158 0.19211 0.0
C449 C 0.03968 0.81557 0.17933 0.0
C450 C 0.05107 0.81146 0.13762 0.0
C451 C 0.04324 0.84238 0.10958 0.0
H452 H 0.27528 0.0568 0.30145 0.0
H453 H 0.26008 0.92675 0.30662 0.0
H454 H 0.23364 0.0593 0.23987 0.0
H455 H 0.21758 0.92953 0.24572 0.0
H456 H 0.1008 0.96893 0.17661 0.0
H457 H 0.14761 0.96354 0.23365 0.0
H458 H 0.23511 0.03054 0.1638 0.0
H459 H 0.18837 0.03559 0.10619 0.0
C460 C 0.26288 0.02882 0.28955 0.0
C461 C 0.26993 0.99176 0.3096 0.0
C462 C 0.23934 0.03024 0.25422 0.0
C463 C 0.22222 0.99466 0.23843 0.0
C464 C 0.23006 0.95744 0.25773 0.0
C465 C 0.25415 0.95591 0.29265 0.0
C466 C 0.13004 0.98247 0.17337 0.0
C467 C 0.14093 0.00285 0.13708 0.0
C468 C 0.15687 0.9791 0.20586 0.0
C469 C 0.19484 0.99662 0.20298 0.0
C470 C 0.20588 0.01691 0.1667 0.0
C471 C 0.17927 0.01963 0.13379 0.0
H472 H 0.10468 0.76379 0.69342 0.0
H473 H 0.97613 0.75361 0.69374 0.0
H474 H 0.10054 0.80855 0.75385 0.0
H475 H 0.97222 0.79744 0.75498 0.0
H476 H 0.99211 0.84534 0.88982 0.0
H477 H 0.99712 0.79664 0.83235 0.0
H478 H 0.06887 0.88157 0.76381 0.0
H479 H 0.0635 0.93039 0.82065 0.0
C480 C 0.07557 0.77126 0.70623 0.0
C481 C 0.04061 0.75631 0.68797 0.0
C482 C 0.07325 0.79666 0.7409 0.0
C483 C 0.03605 0.80662 0.7587 0.0
C484 C 0.00125 0.79017 0.74175 0.0
C485 C 0.0035 0.76535 0.70663 0.0
C486 C 0.009 0.85351 0.8625 0.0
C487 C 0.02724 0.8917 0.85959 0.0
C488 C 0.01172 0.82576 0.82966 0.0
C489 C 0.03346 0.83544 0.79385 0.0
C490 C 0.05218 0.87333 0.79124 0.0
C491 C 0.04882 0.90133 0.82363 0.0
H492 H 0.35356 0.02487 0.77965 0.0
H493 H 0.29625 0.91807 0.73077 0.0
H494 H 0.29148 0.04506 0.81404 0.0
H495 H 0.2342 0.93753 0.76637 0.0
H496 H 0.12095 0.99517 0.82117 0.0
H497 H 0.17822 0.98601 0.77439 0.0
H498 H 0.25783 0.01802 0.87349 0.0
H499 H 0.20129 0.02798 0.9195 0.0
C500 C 0.32749 0.00596 0.77589 0.0
C501 C 0.32981 0.96973 0.75283 0.0
C502 C 0.29198 0.01737 0.79578 0.0
C503 C 0.25803 0.9926 0.79347 0.0
C504 C 0.2597 0.95743 0.76858 0.0
C505 C 0.29525 0.94614 0.74841 0.0
C506 C 0.15067 0.00086 0.8327 0.0
C507 C 0.1565 0.01212 0.87416 0.0
C508 C 0.18347 0.99533 0.80599 0.0
C509 C 0.22261 0.00134 0.82017 0.0
C510 C 0.22814 0.01374 0.86128 0.0
C511 C 0.19559 0.01907 0.88787 0.0
H512 H 0.91969 0.29617 0.74756 0.0
H513 H 0.02301 0.2577 0.6766 0.0
H514 H 0.94372 0.25767 0.80661 0.0
H515 H 0.04795 0.22044 0.73596 0.0
H516 H 0.04041 0.10978 0.82144 0.0
H517 H 0.02777 0.15883 0.76787 0.0
H518 H 0.99301 0.24808 0.86006 0.0
H519 H 0.00461 0.19816 0.91423 0.0
C520 C 0.94797 0.28013 0.74497 0.0
C521 C 0.96926 0.2795 0.7074 0.0
C522 C 0.96193 0.25832 0.77885 0.0
C523 C 0.9976 0.23559 0.77593 0.0
C524 C 0.01998 0.23696 0.73902 0.0
C525 C 0.00585 0.25848 0.70508 0.0
C526 C 0.03047 0.13994 0.83056 0.0
C527 C 0.02316 0.1498 0.87226 0.0
C528 C 0.02356 0.16831 0.79969 0.0
C529 C 0.00927 0.20746 0.80956 0.0
C530 C 0.00357 0.21801 0.85138 0.0
C531 C 0.01054 0.1895 0.88244 0.0
H532 H 0.72953 0.11315 0.75276 0.0
H533 H 0.78452 0.02363 0.6721 0.0
H534 H 0.78009 0.09967 0.80481 0.0
H535 H 0.83498 0.00971 0.72439 0.0
H536 H 0.94165 0.03028 0.81199 0.0
H537 H 0.89209 0.04272 0.75872 0.0
H538 H 0.79869 0.04435 0.85144 0.0
H539 H 0.84785 0.03252 0.9047 0.0
C540 C 0.75231 0.09039 0.74633 0.0
C541 C 0.75276 0.069 0.70867 0.0
C542 C 0.78117 0.08256 0.77614 0.0
C543 C 0.81134 0.05339 0.76882 0.0
C544 C 0.81225 0.0325 0.73084 0.0
C545 C 0.78326 0.04024 0.70106 0.0
C546 C 0.91055 0.0331 0.82107 0.0
C547 C 0.8989 0.03046 0.86278 0.0
C548 C 0.88214 0.04008 0.79047 0.0
C549 C 0.84152 0.04473 0.80092 0.0
C550 C 0.82983 0.04153 0.84247 0.0
C551 C 0.85812 0.03445 0.873 0.0
H552 H 0.26165 0.32899 0.98086 0.0
H553 H 0.30943 0.27078 0.08884 0.0
H554 H 0.21848 0.27085 0.96881 0.0
H555 H 0.2656 0.21268 0.07728 0.0
H556 H 0.19968 0.10141 0.02464 0.0
H557 H 0.24987 0.15483 0.03035 0.0
H558 H 0.15962 0.24521 0.00421 0.0
H559 H 0.11 0.1925 0.99786 0.0
C560 C 0.26325 0.30348 0.00171 0.0
C561 C 0.28909 0.30427 0.03559 0.0
C562 C 0.23835 0.2703 0.99501 0.0
C563 C 0.23844 0.23725 0.02225 0.0
C564 C 0.26515 0.23745 0.05549 0.0
C565 C 0.29012 0.27072 0.06219 0.0
C566 C 0.19065 0.13266 0.01983 0.0
C567 C 0.15072 0.14254 0.01086 0.0
C568 C 0.21936 0.16325 0.02332 0.0
C569 C 0.20876 0.20423 0.01753 0.0
C570 C 0.16896 0.21393 0.0082 0.0
C571 C 0.14036 0.18357 0.00493 0.0
H572 H 0.29713 0.74569 0.08142 0.0
H573 H 0.24965 0.68743 0.97286 0.0
H574 H 0.25403 0.80469 0.06971 0.0
H575 H 0.20696 0.74651 0.96075 0.0
H576 H 0.1009 0.83218 0.98755 0.0
H577 H 0.14823 0.77655 0.99442 0.0
H578 H 0.24174 0.86186 0.02223 0.0
H579 H 0.19415 0.91797 0.01599 0.0
C580 C 0.27799 0.74588 0.05465 0.0
C581 C 0.27711 0.71221 0.02773 0.0
C582 C 0.2534 0.77966 0.04787 0.0
C583 C 0.22708 0.78028 0.01429 0.0
C584 C 0.22663 0.74681 0.98711 0.0
C585 C 0.25126 0.71311 0.99384 0.0
C586 C 0.13155 0.83933 0.99493 0.0
C587 C 0.14357 0.87975 0.00126 0.0
C588 C 0.15879 0.80731 0.99861 0.0
C589 C 0.19878 0.81476 0.00878 0.0
C590 C 0.21103 0.85513 0.0147 0.0
C591 C 0.18376 0.88729 0.01086 0.0
H592 H 0.74461 0.28666 0.91968 0.0
H593 H 0.78975 0.34238 0.03069 0.0
H594 H 0.78749 0.22745 0.93085 0.0
H595 H 0.83222 0.28299 0.0423 0.0
H596 H 0.93923 0.19841 0.0145 0.0
H597 H 0.89166 0.25405 0.00904 0.0
H598 H 0.79902 0.16921 0.97681 0.0
H599 H 0.8469 0.1132 0.98148 0.0
C600 C 0.76318 0.28584 0.94687 0.0
C601 C 0.76356 0.31889 0.97458 0.0
C602 C 0.78763 0.25194 0.95335 0.0
C603 C 0.81324 0.25054 0.98747 0.0
C604 C 0.8131 0.28333 0.01552 0.0
C605 C 0.78862 0.31719 0.00906 0.0
C606 C 0.90873 0.19142 0.00634 0.0
C607 C 0.89702 0.15122 0.99821 0.0
C608 C 0.88134 0.22339 0.00356 0.0
C609 C 0.84156 0.21605 0.99253 0.0
C610 C 0.82959 0.17585 0.985 0.0
C611 C 0.85699 0.14374 0.98794 0.0
H612 H 0.74232 0.74132 0.9254 0.0
H613 H 0.69835 0.79535 0.03888 0.0
H614 H 0.80429 0.77998 0.9318 0.0
H615 H 0.76018 0.83325 0.04569 0.0
H616 H 0.84153 0.93718 0.00813 0.0
H617 H 0.786 0.89067 0.00632 0.0
H618 H 0.86628 0.79201 0.97401 0.0
H619 H 0.92268 0.83912 0.97527 0.0
C620 C 0.74635 0.76073 0.95215 0.0
C621 C 0.7156 0.76525 0.98173 0.0
C622 C 0.78179 0.78275 0.95588 0.0
C623 C 0.78694 0.80991 0.98906 0.0
C624 C 0.75686 0.813 0.01946 0.0
C625 C 0.72156 0.7911 0.01574 0.0
C626 C 0.84767 0.90563 0.00059 0.0
C627 C 0.88674 0.892 0.99175 0.0
C628 C 0.81571 0.87883 -5e-05 0.0
C629 C 0.82176 0.83758 0.99039 0.0
C630 C 0.86073 0.8237 0.9814 0.0
C631 C 0.893 0.85063 0.98232 0.0
loop_
_geom_bond_atom_site_label_1
_geom_bond_atom_site_label_2
_geom_bond_distance
_geom_bond_site_symmetry_2
_ccdc_geom_bond_type
C0 C1 1.560 . S
C0 H61 0.959 . S
C0 H62 0.959 . S
C0 H63 0.960 . S
C1 C0 1.560 . S
C1 O56 1.426 . S
C1 H60 0.980 . S
C2 C3 1.407 . S
C2 C7 1.418 . S
C2 O56 1.334 . S
C3 C2 1.407 . S
C3 C4 1.360 1_455 S
C3 H64 0.929 1_455 S
C4 C3 1.360 1_655 S
C4 C5 1.401 1_655 S
C4 C8 1.527 . S
C5 C4 1.401 1_455 S
C5 C6 1.405 . S
C5 C38 1.587 . S
C6 C5 1.405 . S
C6 C7 1.332 . S
C6 C9 1.496 . S
C7 C2 1.418 . S
C7 C6 1.332 . S
C7 H65 0.929 . S
C8 C4 1.527 . S
C8 H66 0.959 . S
C8 H67 0.961 . S
C8 H68 0.961 . S
C9 C6 1.496 . S
C9 H69 0.960 . S
C9 H70 0.960 . S
C9 H71 0.961 . S
C10 C11 1.517 . S
C10 H73 0.961 1_655 S
C10 H74 0.960 . S
C10 H75 0.959 . S
C11 C10 1.517 . S
C11 O59 1.468 . S
C11 H72 0.980 1_655 S
C12 C13 1.349 1_655 S
C12 C17 1.367 . S
C12 O59 1.408 . S
C13 C12 1.349 1_455 S
C13 C14 1.407 . S
C13 H76 0.930 . S
C14 C13 1.407 . S
C14 C15 1.449 1_455 S
C14 C18 1.535 . S
C15 C14 1.449 1_655 S
C15 C16 1.384 . S
C15 C40 1.553 . S
C16 C15 1.384 . S
C16 C17 1.364 . S
C16 C19 1.450 . S
C17 C12 1.367 . S
C17 C16 1.364 . S
C17 H77 0.931 . S
C18 C14 1.535 . S
C18 H78 0.959 . S
C18 H79 0.961 . S
C18 H80 0.959 . S
C19 C16 1.450 . S
C19 H81 0.960 . S
C19 H82 0.960 . S
C19 H83 0.960 . S
C20 C21 1.309 1_655 S
C20 C25 1.304 . S
C20 O58 1.435 . S
C21 C20 1.309 1_455 S
C21 C22 1.476 . S
C21 H85 0.930 . S
C22 C21 1.476 . S
C22 C23 1.400 1_455 S
C22 C26 1.567 . S
C23 C22 1.400 1_655 S
C23 C24 1.373 . S
C23 C45 1.432 . S
C24 C23 1.373 . S
C24 C25 1.339 . S
C24 C27 1.530 . S
C25 C20 1.304 . S
C25 C24 1.339 . S
C25 H86 0.930 . S
C26 C22 1.567 . S
C26 H87 0.961 . S
C26 H88 0.960 . S
C26 H89 0.958 . S
C27 C24 1.530 . S
C27 H90 0.961 . S
C27 H91 0.960 . S
C27 H92 0.960 . S
C28 C29 1.530 . S
C28 H94 0.961 . S
C28 H95 0.961 . S
C28 H96 0.959 . S
C29 C28 1.530 . S
C29 O57 1.412 . S
C29 H93 0.980 . S
C30 C31 1.288 . S
C30 C35 1.377 . S
C30 O57 1.393 . S
C31 C30 1.288 . S
C31 C32 1.369 . S
C31 H97 0.932 . S
C32 C31 1.369 . S
C32 C33 1.398 . S
C32 C36 1.527 . S
C33 C32 1.398 . S
C33 C34 1.380 1_455 S
C33 C47 1.497 . S
C34 C33 1.380 1_655 S
C34 C35 1.383 1_655 S
C34 C37 1.603 . S
C35 C30 1.377 . S
C35 C34 1.383 1_455 S
C35 H98 0.929 1_455 S
C36 C32 1.527 . S
C36 H99 0.961 . S
C36 H100 0.959 . S
C36 H101 0.959 . S
C37 C34 1.603 . S
C37 H102 0.960 . S
C37 H103 0.962 . S
C37 H104 0.961 . S
C38 C5 1.587 . S
C38 C39 1.360 1_455 S
C38 C51 1.412 . S
C39 C38 1.360 1_655 S
C39 C40 1.365 . S
C39 H105 0.929 . S
C40 C15 1.553 . S
C40 C39 1.365 . S
C40 C41 1.404 . S
C41 C40 1.404 . S
C41 C42 1.395 . S
C41 C52 1.451 . S
C42 C41 1.395 . S
C42 C43 1.322 . S
C42 H106 0.930 . S
C43 C42 1.322 . S
C43 C44 1.459 . S
C43 H107 0.929 . S
C44 C43 1.459 . S
C44 C45 1.445 . S
C44 C53 1.395 . S
C45 C23 1.432 . S
C45 C44 1.445 . S
C45 C46 1.370 1_655 S
C46 C45 1.370 1_455 S
C46 C47 1.438 . S
C46 H108 0.930 . S
C47 C33 1.497 . S
C47 C46 1.438 . S
C47 C48 1.360 . S
C48 C47 1.360 . S
C48 C49 1.401 . S
C48 C53 1.446 1_455 S
C49 C48 1.401 . S
C49 C50 1.347 . S
C49 H109 0.929 . S
C50 C49 1.347 . S
C50 C51 1.455 . S
C50 H110 0.930 . S
C51 C38 1.412 . S
C51 C50 1.455 . S
C51 C52 1.331 1_455 S
C52 C41 1.451 . S
C52 C51 1.331 1_655 S
C52 C53 1.497 . S
C53 C44 1.395 . S
C53 C48 1.446 1_655 S
C53 C52 1.497 . S
C54 C55 1.582 1_655 S
C54 H111 0.962 1_655 S
C54 H112 0.959 . S
C54 H113 0.958 . S
C55 C54 1.582 1_455 S
C55 O58 1.458 1_455 S
C55 H84 0.980 . S
O56 C1 1.426 . S
O56 C2 1.334 . S
O57 C29 1.412 . S
O57 C30 1.393 . S
O58 C20 1.435 . S
O58 C55 1.458 1_655 S
O59 C11 1.468 . S
O59 C12 1.408 . S
H60 C1 0.980 . S
H61 C0 0.959 . S
H62 C0 0.959 . S
H63 C0 0.960 . S
H64 C3 0.929 1_655 S
H65 C7 0.929 . S
H66 C8 0.959 . S
H67 C8 0.961 . S
H68 C8 0.961 . S
H69 C9 0.960 . S
H70 C9 0.960 . S
H71 C9 0.961 . S
H72 C11 0.980 1_455 S
H73 C10 0.961 1_455 S
H74 C10 0.960 . S
H75 C10 0.959 . S
H76 C13 0.930 . S
H77 C17 0.931 . S
H78 C18 0.959 . S
H79 C18 0.961 . S
H80 C18 0.959 . S
H81 C19 0.960 . S
H82 C19 0.960 . S
H83 C19 0.960 . S
H84 C55 0.980 . S
H85 C21 0.930 . S
H86 C25 0.930 . S
H87 C26 0.961 . S
H88 C26 0.960 . S
H89 C26 0.958 . S
H90 C27 0.961 . S
H91 C27 0.960 . S
H92 C27 0.960 . S
H93 C29 0.980 . S
H94 C28 0.961 . S
H95 C28 0.961 . S
H96 C28 0.959 . S
H97 C31 0.932 . S
H98 C35 0.929 1_655 S
H99 C36 0.961 . S
H100 C36 0.959 . S
H101 C36 0.959 . S
H102 C37 0.960 . S
H103 C37 0.962 . S
H104 C37 0.961 . S
H105 C39 0.929 . S
H106 C42 0.930 . S
H107 C43 0.929 . S
H108 C46 0.930 . S
H109 C49 0.929 . S
H110 C50 0.930 . S
H111 C54 0.962 1_455 S
H112 C54 0.959 . S
H113 C54 0.958 . S
C114 C115 1.560 . S
C114 H175 0.959 . S
C114 H176 0.959 . S
C114 H177 0.960 . S
C115 C114 1.560 . S
C115 O170 1.426 . S
C115 H174 0.980 . S
C116 C117 1.407 1_545 S
C116 C121 1.418 . S
C116 O170 1.334 . S
C117 C116 1.407 1_565 S
C117 C118 1.360 . S
C117 H178 0.929 . S
C118 C117 1.360 . S
C118 C119 1.401 1_565 S
C118 C122 1.527 . S
C119 C118 1.401 1_545 S
C119 C120 1.405 . S
C119 C152 1.587 1_545 S
C120 C119 1.405 . S
C120 C121 1.332 . S
C120 C123 1.496 . S
C121 C116 1.418 . S
C121 C120 1.332 . S
C121 H179 0.929 . S
C122 C118 1.527 . S
C122 H180 0.959 . S
C122 H181 0.961 . S
C122 H182 0.961 . S
C123 C120 1.496 . S
C123 H183 0.960 . S
C123 H184 0.960 . S
C123 H185 0.961 . S
C124 C125 1.517 . S
C124 H187 0.961 1_565 S
C124 H188 0.960 . S
C124 H189 0.959 . S
C125 C124 1.517 . S
C125 O173 1.468 . S
C125 H186 0.980 1_565 S
C126 C127 1.349 1_565 S
C126 C131 1.367 . S
C126 O173 1.408 . S
C127 C126 1.349 1_545 S
C127 C128 1.407 . S
C127 H190 0.930 . S
C128 C127 1.407 . S
C128 C129 1.449 1_545 S
C128 C132 1.535 . S
C129 C128 1.449 1_565 S
C129 C130 1.384 . S
C129 C154 1.553 . S
C130 C129 1.384 . S
C130 C131 1.364 . S
C130 C133 1.450 . S
C131 C126 1.367 . S
C131 C130 1.364 . S
C131 H191 0.931 . S
C132 C128 1.535 . S
C132 H192 0.959 . S
C132 H193 0.961 . S
C132 H194 0.959 . S
C133 C130 1.450 . S
C133 H195 0.960 . S
C133 H196 0.960 . S
C133 H197 0.960 . S
C134 C135 1.309 1_565 S
C134 C139 1.304 . S
C134 O172 1.435 . S
C135 C134 1.309 1_545 S
C135 C136 1.476 . S
C135 H199 0.930 . S
C136 C135 1.476 . S
C136 C137 1.400 1_545 S
C136 C140 1.567 . S
C137 C136 1.400 1_565 S
C137 C138 1.373 . S
C137 C159 1.432 . S
C138 C137 1.373 . S
C138 C139 1.339 . S
C138 C141 1.530 . S
C139 C134 1.304 . S
C139 C138 1.339 . S
C139 H200 0.930 . S
C140 C136 1.567 . S
C140 H201 0.961 . S
C140 H202 0.960 . S
C140 H203 0.958 . S
C141 C138 1.530 . S
C141 H204 0.961 . S
C141 H205 0.960 . S
C141 H206 0.960 . S
C142 C143 1.530 . S
C142 H208 0.961 . S
C142 H209 0.961 . S
C142 H210 0.959 . S
C143 C142 1.530 . S
C143 O171 1.412 . S
C143 H207 0.980 . S
C144 C145 1.288 . S
C144 C149 1.377 1_545 S
C144 O171 1.393 . S
C145 C144 1.288 . S
C145 C146 1.369 . S
C145 H211 0.932 . S
C146 C145 1.369 . S
C146 C147 1.398 . S
C146 C150 1.527 . S
C147 C146 1.398 . S
C147 C148 1.380 1_545 S
C147 C161 1.497 . S
C148 C147 1.380 1_565 S
C148 C149 1.383 . S
C148 C151 1.603 . S
C149 C144 1.377 1_565 S
C149 C148 1.383 . S
C149 H212 0.929 . S
C150 C146 1.527 . S
C150 H213 0.961 . S
C150 H214 0.959 . S
C150 H215 0.959 . S
C151 C148 1.603 . S
C151 H216 0.960 . S
C151 H217 0.962 . S
C151 H218 0.961 . S
C152 C119 1.587 1_565 S
C152 C153 1.360 . S
C152 C165 1.412 . S
C153 C152 1.360 . S
C153 C154 1.365 . S
C153 H219 0.929 . S
C154 C129 1.553 . S
C154 C153 1.365 . S
C154 C155 1.404 . S
C155 C154 1.404 . S
C155 C156 1.395 . S
C155 C166 1.451 . S
C156 C155 1.395 . S
C156 C157 1.322 . S
C156 H220 0.930 . S
C157 C156 1.322 . S
C157 C158 1.459 . S
C157 H221 0.929 . S
C158 C157 1.459 . S
C158 C159 1.445 . S
C158 C167 1.395 . S
C159 C137 1.432 . S
C159 C158 1.445 . S
C159 C160 1.370 . S
C160 C159 1.370 . S
C160 C161 1.437 1_565 S
C160 H222 0.930 1_565 S
C161 C147 1.497 . S
C161 C160 1.437 1_545 S
C161 C162 1.363 . S
C162 C161 1.363 . S
C162 C163 1.405 . S
C162 C167 1.440 1_545 S
C163 C162 1.405 . S
C163 C164 1.347 . S
C163 H223 0.929 . S
C164 C163 1.347 . S
C164 C165 1.455 1_545 S
C164 H224 0.930 . S
C165 C152 1.412 . S
C165 C164 1.455 1_565 S
C165 C166 1.331 . S
C166 C155 1.451 . S
C166 C165 1.331 . S
C166 C167 1.497 . S
C167 C158 1.395 . S
C167 C162 1.440 1_565 S
C167 C166 1.497 . S
C168 C169 1.582 1_565 S
C168 H225 0.962 . S
C168 H226 0.959 . S
C168 H227 0.958 . S
C169 C168 1.582 1_545 S
C169 O172 1.458 1_545 S
C169 H198 0.980 . S
O170 C115 1.426 . S
O170 C116 1.334 . S
O171 C143 1.412 . S
O171 C144 1.393 . S
O172 C134 1.435 . S
O172 C169 1.458 1_565 S
O173 C125 1.468 . S
O173 C126 1.408 . S
H174 C115 0.980 . S
H175 C114 0.959 . S
H176 C114 0.959 . S
H177 C114 0.960 . S
H178 C117 0.929 . S
H179 C121 0.929 . S
H180 C122 0.959 . S
H181 C122 0.961 . S
H182 C122 0.961 . S
H183 C123 0.960 . S
H184 C123 0.960 . S
H185 C123 0.961 . S
H186 C125 0.980 1_545 S
H187 C124 0.961 1_545 S
H188 C124 0.960 . S
H189 C124 0.959 . S
H190 C127 0.930 . S
H191 C131 0.931 . S
H192 C132 0.959 . S
H193 C132 0.961 . S
H194 C132 0.959 . S
H195 C133 0.960 . S
H196 C133 0.960 . S
H197 C133 0.960 . S
H198 C169 0.980 . S
H199 C135 0.930 . S
H200 C139 0.930 . S
H201 C140 0.961 . S
H202 C140 0.960 . S
H203 C140 0.958 . S
H204 C141 0.961 . S
H205 C141 0.960 . S
H206 C141 0.960 . S
H207 C143 0.980 . S
H208 C142 0.961 . S
H209 C142 0.961 . S
H210 C142 0.959 . S
H211 C145 0.932 . S
H212 C149 0.929 . S
H213 C150 0.961 . S
H214 C150 0.959 . S
H215 C150 0.959 . S
H216 C151 0.960 . S
H217 C151 0.962 . S
H218 C151 0.961 . S
H219 C153 0.929 . S
H220 C156 0.930 . S
H221 C157 0.929 . S
H222 C160 0.930 1_545 S
H223 C163 0.929 . S
H224 C164 0.930 . S
H225 C168 0.962 . S
H226 C168 0.959 . S
H227 C168 0.958 . S
C228 C229 1.560 . S
C228 H289 0.959 . S
C228 H290 0.959 . S
C228 H291 0.960 . S
C229 C228 1.560 . S
C229 O284 1.426 . S
C229 H288 0.980 . S
C230 C231 1.407 1_556 S
C230 C235 1.418 . S
C230 O284 1.334 . S
C231 C230 1.407 1_554 S
C231 C232 1.360 . S
C231 H292 0.929 . S
C232 C231 1.360 . S
C232 C233 1.401 . S
C232 C236 1.527 . S
C233 C232 1.401 . S
C233 C234 1.405 1_554 S
C233 C266 1.587 . S
C234 C233 1.405 1_556 S
C234 C235 1.332 . S
C234 C237 1.496 . S
C235 C230 1.418 . S
C235 C234 1.332 . S
C235 H293 0.929 . S
C236 C232 1.527 . S
C236 H294 0.959 . S
C236 H295 0.961 . S
C236 H296 0.961 . S
C237 C234 1.496 . S
C237 H297 0.960 . S
C237 H298 0.960 . S
C237 H299 0.961 . S
C238 C239 1.517 . S
C238 H301 0.961 . S
C238 H302 0.960 . S
C238 H303 0.959 . S
C239 C238 1.517 . S
C239 O287 1.468 . S
C239 H300 0.980 . S
C240 C241 1.349 . S
C240 C245 1.367 . S
C240 O287 1.408 . S
C241 C240 1.349 . S
C241 C242 1.407 . S
C241 H304 0.930 1_554 S
C242 C241 1.407 . S
C242 C243 1.449 . S
C242 C246 1.535 1_554 S
C243 C242 1.449 . S
C243 C244 1.384 . S
C243 C268 1.553 . S
C244 C243 1.384 . S
C244 C245 1.364 . S
C244 C247 1.450 . S
C245 C240 1.367 . S
C245 C244 1.364 . S
C245 H305 0.931 . S
C246 C242 1.535 1_556 S
C246 H306 0.959 . S
C246 H307 0.961 . S
C246 H308 0.959 . S
C247 C244 1.450 . S
C247 H309 0.960 . S
C247 H310 0.960 . S
C247 H311 0.960 . S
C248 C249 1.288 1_554 S
C248 C253 1.304 . S
C248 O286 1.435 . S
C249 C248 1.288 1_556 S
C249 C250 1.479 . S
C249 H313 0.946 . S
C250 C249 1.479 . S
C250 C251 1.400 1_556 S
C250 C254 1.567 . S
C251 C250 1.400 1_554 S
C251 C252 1.373 . S
C251 C273 1.432 . S
C252 C251 1.373 . S
C252 C253 1.339 . S
C252 C255 1.530 . S
C253 C248 1.304 . S
C253 C252 1.339 . S
C253 H314 0.930 . S
C254 C250 1.567 . S
C254 H315 0.961 . S
C254 H316 0.960 . S
C254 H317 0.958 . S
C255 C252 1.530 . S
C255 H318 0.961 . S
C255 H319 0.960 . S
C255 H320 0.960 . S
C256 C257 1.530 . S
C256 H322 0.961 . S
C256 H323 0.961 . S
C256 H324 0.959 . S
C257 C256 1.530 . S
C257 O285 1.412 . S
C257 H321 0.980 1_556 S
C258 C259 1.288 . S
C258 C263 1.377 1_556 S
C258 O285 1.393 . S
C259 C258 1.288 . S
C259 C260 1.369 . S
C259 H325 0.932 . S
C260 C259 1.369 . S
C260 C261 1.426 . S
C260 C264 1.527 . S
C261 C260 1.426 . S
C261 C262 1.359 1_556 S
C261 C275 1.492 1_556 S
C262 C261 1.359 1_554 S
C262 C263 1.383 . S
C262 C265 1.603 . S
C263 C258 1.377 1_554 S
C263 C262 1.383 . S
C263 H326 0.929 . S
C264 C260 1.527 . S
C264 H327 0.961 . S
C264 H328 0.959 . S
C264 H329 0.959 . S
C265 C262 1.603 . S
C265 H330 0.960 . S
C265 H331 0.962 . S
C265 H332 0.961 . S
C266 C233 1.587 . S
C266 C267 1.360 . S
C266 C279 1.412 . S
C267 C266 1.360 . S
C267 C268 1.365 . S
C267 H333 0.929 . S
C268 C243 1.553 . S
C268 C267 1.365 . S
C268 C269 1.404 . S
C269 C268 1.404 . S
C269 C270 1.395 . S
C269 C280 1.451 . S
C270 C269 1.395 . S
C270 C271 1.322 . S
C270 H334 0.930 . S
C271 C270 1.322 . S
C271 C272 1.459 . S
C271 H335 0.929 . S
C272 C271 1.459 . S
C272 C273 1.445 . S
C272 C281 1.395 . S
C273 C251 1.432 . S
C273 C272 1.445 . S
C273 C274 1.370 . S
C274 C273 1.370 . S
C274 C275 1.438 . S
C274 H336 0.930 . S
C275 C261 1.492 1_554 S
C275 C274 1.438 . S
C275 C276 1.360 . S
C276 C275 1.360 . S
C276 C277 1.401 . S
C276 C281 1.446 . S
C277 C276 1.401 . S
C277 C278 1.347 . S
C277 H337 0.929 . S
C278 C277 1.347 . S
C278 C279 1.455 . S
C278 H338 0.930 . S
C279 C266 1.412 . S
C279 C278 1.455 . S
C279 C280 1.331 . S
C280 C269 1.451 . S
C280 C279 1.331 . S
C280 C281 1.497 . S
C281 C272 1.395 . S
C281 C276 1.446 . S
C281 C280 1.497 . S
C282 C283 1.582 . S
C282 H339 0.962 . S
C282 H340 0.959 . S
C282 H341 0.958 . S
C283 C282 1.582 . S
C283 O286 1.458 . S
C283 H312 0.980 . S
O284 C229 1.426 . S
O284 C230 1.334 . S
O285 C257 1.412 . S
O285 C258 1.393 . S
O286 C248 1.435 . S
O286 C283 1.458 . S
O287 C239 1.468 . S
O287 C240 1.408 . S
H288 C229 0.980 . S
H289 C228 0.959 . S
H290 C228 0.959 . S
H291 C228 0.960 . S
H292 C231 0.929 . S
H293 C235 0.929 . S
H294 C236 0.959 . S
H295 C236 0.961 . S
H296 C236 0.961 . S
H297 C237 0.960 . S
H298 C237 0.960 . S
H299 C237 0.961 . S
H300 C239 0.980 . S
H301 C238 0.961 . S
H302 C238 0.960 . S
H303 C238 0.959 . S
H304 C241 0.930 1_556 S
H305 C245 0.931 . S
H306 C246 0.959 . S
H307 C246 0.961 . S
H308 C246 0.959 . S
H309 C247 0.960 . S
H310 C247 0.960 . S
H311 C247 0.960 . S
H312 C283 0.980 . S
H313 C249 0.946 . S
H314 C253 0.930 . S
H315 C254 0.961 . S
H316 C254 0.960 . S
H317 C254 0.958 . S
H318 C255 0.961 . S
H319 C255 0.960 . S
H320 C255 0.960 . S
H321 C257 0.980 1_554 S
H322 C256 0.961 . S
H323 C256 0.961 . S
H324 C256 0.959 . S
H325 C259 0.932 . S
H326 C263 0.929 . S
H327 C264 0.961 . S
H328 C264 0.959 . S
H329 C264 0.959 . S
H330 C265 0.960 . S
H331 C265 0.962 . S
H332 C265 0.961 . S
H333 C267 0.929 . S
H334 C270 0.930 . S
H335 C271 0.929 . S
H336 C274 0.930 . S
H337 C277 0.929 . S
H338 C278 0.930 . S
H339 C282 0.962 . S
H340 C282 0.959 . S
H341 C282 0.958 . S
C342 O368 1.283 . S
C342 O386 1.283 . S
C343 O369 1.283 . S
C343 O384 1.283 . S
C344 O370 1.283 . S
C344 O387 1.283 . S
C345 O371 1.283 . S
C345 O385 1.283 . S
C346 O372 1.283 . S
C346 O381 1.283 . S
C347 O373 1.283 1_554 S
C347 O383 1.283 . S
C348 O374 1.283 . S
C348 O380 1.283 1_554 S
C349 O375 1.283 . S
C349 O382 1.283 . S
C350 O376 1.283 . S
C350 O391 1.283 . S
C351 O377 1.283 . S
C351 O389 1.283 . S
C352 O378 1.283 . S
C352 O390 1.283 . S
C353 O379 1.283 . S
C353 O388 1.283 . S
Eu354 O355 2.376 . S
Eu354 O356 2.364 1_454 S
Eu354 O359 2.364 1_554 S
Eu354 O360 2.376 1_455 S
Eu354 O368 2.353 1_554 S
Eu354 O369 2.373 . S
Eu354 O382 2.363 1_455 S
Eu354 O383 2.363 . S
O355 Eu354 2.376 . S
O355 Eu357 2.368 1_554 S
O355 Eu362 2.370 . S
O356 Eu354 2.364 1_656 S
O356 Eu358 2.364 1_556 S
O356 Eu361 2.370 1_655 S
Eu357 O355 2.368 1_556 S
Eu357 O359 2.372 . S
Eu357 O363 2.372 1_545 S
Eu357 O364 2.368 1_546 S
Eu357 O372 2.363 1_545 S
Eu357 O373 2.363 . S
Eu357 O388 2.367 . S
Eu357 O389 2.359 1_556 S
Eu358 O356 2.364 1_554 S
Eu358 O360 2.376 . S
Eu358 O365 2.376 1_545 S
Eu358 O366 2.364 1_544 S
Eu358 O374 2.363 1_545 S
Eu358 O375 2.363 . S
Eu358 O390 2.353 1_554 S
Eu358 O391 2.373 . S
O359 Eu354 2.364 1_556 S
O359 Eu357 2.372 . S
O359 Eu361 2.370 . S
O360 Eu354 2.376 1_655 S
O360 Eu358 2.376 . S
O360 Eu362 2.370 1_655 S
Eu361 O356 2.370 1_455 S
Eu361 O359 2.370 . S
Eu361 O363 2.370 1_545 S
Eu361 O366 2.370 1_445 S
Eu361 O378 2.363 1_455 S
Eu361 O379 2.363 . S
Eu361 O386 2.363 . S
Eu361 O387 2.363 1_545 S
Eu362 O355 2.370 . S
Eu362 O360 2.370 1_455 S
Eu362 O364 2.370 1_545 S
Eu362 O365 2.370 1_445 S
Eu362 O376 2.363 1_455 S
Eu362 O377 2.363 . S
Eu362 O384 2.363 . S
Eu362 O385 2.363 1_545 S
O363 Eu357 2.372 1_565 S
O363 Eu361 2.370 1_565 S
O363 Eu367 2.373 . S
O364 Eu357 2.368 1_564 S
O364 Eu362 2.370 1_565 S
O364 Eu367 2.368 1_554 S
O365 Eu358 2.376 1_565 S
O365 Eu362 2.370 1_665 S
O365 Eu367 2.368 1_654 S
O366 Eu358 2.364 1_566 S
O366 Eu361 2.370 1_665 S
O366 Eu367 2.373 1_655 S
Eu367 O363 2.373 . S
Eu367 O364 2.368 1_556 S
Eu367 O365 2.368 1_456 S
Eu367 O366 2.373 1_455 S
Eu367 O370 2.367 . S
Eu367 O371 2.359 1_556 S
Eu367 O380 2.363 1_455 S
Eu367 O381 2.363 . S
O368 C342 1.283 . S
O368 Eu354 2.353 1_556 S
O369 C343 1.283 . S
O369 Eu354 2.373 . S
O370 C344 1.283 . S
O370 Eu367 2.367 . S
O371 C345 1.283 . S
O371 Eu367 2.359 1_554 S
O372 C346 1.283 . S
O372 Eu357 2.363 1_565 S
O373 C347 1.283 1_556 S
O373 Eu357 2.363 . S
O374 C348 1.283 . S
O374 Eu358 2.363 1_565 S
O375 C349 1.283 . S
O375 Eu358 2.363 . S
O376 C350 1.283 . S
O376 Eu362 2.363 1_655 S
O377 C351 1.283 . S
O377 Eu362 2.363 . S
O378 C352 1.283 . S
O378 Eu361 2.363 1_655 S
O379 C353 1.283 . S
O379 Eu361 2.363 . S
O380 C348 1.283 1_556 S
O380 Eu367 2.363 1_655 S
O381 C346 1.283 . S
O381 Eu367 2.363 . S
O382 C349 1.283 . S
O382 Eu354 2.363 1_655 S
O383 C347 1.283 . S
O383 Eu354 2.363 . S
O384 C343 1.283 . S
O384 Eu362 2.363 . S
O385 C345 1.283 . S
O385 Eu362 2.363 1_565 S
O386 C342 1.283 . S
O386 Eu361 2.363 . S
O387 C344 1.283 . S
O387 Eu361 2.363 1_565 S
O388 C353 1.283 . S
O388 Eu357 2.367 . S
O389 C351 1.283 . S
O389 Eu357 2.359 1_554 S
O390 C352 1.283 . S
O390 Eu358 2.353 1_556 S
O391 C350 1.283 . S
O391 Eu358 2.373 . S
H392 C400 0.950 . S
H393 C405 0.950 . S
H394 C402 0.961 . S
H395 C404 0.950 . S
H396 C406 0.950 . S
H397 C408 0.950 . S
H398 C410 0.950 . S
H399 C411 0.955 . S
C400 H392 0.950 . S
C400 C401 1.386 1_655 S
C400 C402 1.392 . S
C401 C400 1.386 1_455 S
C401 C405 1.393 . S
C402 H394 0.961 . S
C402 C400 1.392 . S
C402 C403 1.390 1_655 S
C403 C402 1.390 1_455 S
C403 C404 1.398 . S
C403 C409 1.491 . S
C404 H395 0.950 . S
C404 C403 1.398 . S
C404 C405 1.391 . S
C405 H393 0.950 . S
C405 C401 1.393 . S
C405 C404 1.391 . S
C406 H396 0.950 . S
C406 C407 1.386 . S
C406 C408 1.391 . S
C407 C406 1.386 . S
C407 C411 1.387 1_455 S
C408 H397 0.950 . S
C408 C406 1.391 . S
C408 C409 1.400 . S
C409 C403 1.491 . S
C409 C408 1.400 . S
C409 C410 1.398 1_455 S
C410 H398 0.950 . S
C410 C409 1.398 1_655 S
C410 C411 1.391 . S
C411 H399 0.955 . S
C411 C407 1.387 1_655 S
C411 C410 1.391 . S
H412 C420 0.950 . S
H413 C425 0.950 . S
H414 C422 0.950 . S
H415 C424 0.950 . S
H416 C426 0.950 . S
H417 C428 0.950 . S
H418 C430 0.950 . S
H419 C431 0.950 . S
C420 H412 0.950 . S
C420 C421 1.386 . S
C420 C422 1.391 . S
C421 C420 1.386 . S
C421 C425 1.393 1_545 S
C422 H414 0.950 . S
C422 C420 1.391 . S
C422 C423 1.400 . S
C423 C422 1.400 . S
C423 C424 1.398 1_545 S
C423 C429 1.491 . S
C424 H415 0.950 . S
C424 C423 1.398 1_565 S
C424 C425 1.391 . S
C425 H413 0.950 . S
C425 C421 1.393 1_565 S
C425 C424 1.391 . S
C426 H416 0.950 . S
C426 C427 1.386 1_565 S
C426 C428 1.391 . S
C427 C426 1.386 1_545 S
C427 C431 1.393 . S
C428 H417 0.950 . S
C428 C426 1.391 . S
C428 C429 1.400 1_565 S
C429 C423 1.491 . S
C429 C428 1.400 1_545 S
C429 C430 1.398 . S
C430 H418 0.950 . S
C430 C429 1.398 . S
C430 C431 1.391 . S
C431 H419 0.950 . S
C431 C427 1.393 . S
C431 C430 1.391 . S
H432 C440 0.950 . S
H433 C445 0.950 . S
H434 C442 0.950 . S
H435 C444 0.950 . S
H436 C446 0.950 . S
H437 C448 0.950 . S
H438 C450 0.950 . S
H439 C451 0.950 . S
C440 H432 0.950 . S
C440 C441 1.386 . S
C440 C442 1.391 . S
C441 C440 1.386 . S
C441 C445 1.393 . S
C442 H434 0.950 . S
C442 C440 1.391 . S
C442 C443 1.400 . S
C443 C442 1.400 . S
C443 C444 1.398 . S
C443 C449 1.491 . S
C444 H435 0.950 . S
C444 C443 1.398 . S
C444 C445 1.391 . S
C445 H433 0.950 . S
C445 C441 1.393 . S
C445 C444 1.391 . S
C446 H436 0.950 . S
C446 C447 1.386 . S
C446 C448 1.391 . S
C447 C446 1.386 . S
C447 C451 1.393 . S
C448 H437 0.950 . S
C448 C446 1.391 . S
C448 C449 1.400 . S
C449 C443 1.491 . S
C449 C448 1.400 . S
C449 C450 1.398 . S
C450 H438 0.950 . S
C450 C449 1.398 . S
C450 C451 1.391 . S
C451 H439 0.950 . S
C451 C447 1.393 . S
C451 C450 1.391 . S
H452 C460 0.950 . S
H453 C465 0.950 . S
H454 C462 0.950 . S
H455 C464 0.950 . S
H456 C466 0.950 . S
H457 C468 0.950 . S
H458 C470 0.950 . S
H459 C471 0.950 . S
C460 H452 0.950 . S
C460 C461 1.386 . S
C460 C462 1.391 . S
C461 C460 1.386 . S
C461 C465 1.393 1_545 S
C462 H454 0.950 . S
C462 C460 1.391 . S
C462 C463 1.400 . S
C463 C462 1.400 . S
C463 C464 1.398 1_545 S
C463 C469 1.491 . S
C464 H455 0.950 . S
C464 C463 1.398 1_565 S
C464 C465 1.391 . S
C465 H453 0.950 . S
C465 C461 1.393 1_565 S
C465 C464 1.391 . S
C466 H456 0.950 . S
C466 C467 1.386 1_565 S
C466 C468 1.391 . S
C467 C466 1.386 1_545 S
C467 C471 1.393 . S
C468 H457 0.950 . S
C468 C466 1.391 . S
C468 C469 1.400 1_565 S
C469 C463 1.491 . S
C469 C468 1.400 1_545 S
C469 C470 1.398 . S
C470 H458 0.950 . S
C470 C469 1.398 . S
C470 C471 1.391 . S
C471 H459 0.950 . S
C471 C467 1.393 . S
C471 C470 1.391 . S
H472 C480 0.950 . S
H473 C485 0.950 . S
H474 C482 0.950 . S
H475 C484 0.950 . S
H476 C486 0.950 . S
H477 C488 0.950 . S
H478 C490 0.950 . S
H479 C491 0.950 . S
C480 H472 0.950 . S
C480 C481 1.386 . S
C480 C482 1.391 . S
C481 C480 1.386 . S
C481 C485 1.393 1_455 S
C482 H474 0.950 . S
C482 C480 1.391 . S
C482 C483 1.400 . S
C483 C482 1.400 . S
C483 C484 1.398 1_455 S
C483 C489 1.491 . S
C484 H475 0.950 . S
C484 C483 1.398 1_655 S
C484 C485 1.391 . S
C485 H473 0.950 . S
C485 C481 1.393 1_655 S
C485 C484 1.391 . S
C486 H476 0.950 . S
C486 C487 1.386 1_655 S
C486 C488 1.391 . S
C487 C486 1.386 1_455 S
C487 C491 1.393 . S
C488 H477 0.950 . S
C488 C486 1.391 . S
C488 C489 1.400 1_655 S
C489 C483 1.491 . S
C489 C488 1.400 1_455 S
C489 C490 1.398 . S
C490 H478 0.950 . S
C490 C489 1.398 . S
C490 C491 1.391 . S
C491 H479 0.950 . S
C491 C487 1.393 . S
C491 C490 1.391 . S
H492 C500 0.950 . S
H493 C505 0.950 . S
H494 C502 0.950 . S
H495 C504 0.950 . S
H496 C506 0.950 . S
H497 C508 0.950 . S
H498 C510 0.950 . S
H499 C511 0.950 . S
C500 H492 0.950 . S
C500 C501 1.386 . S
C500 C502 1.391 . S
C501 C500 1.386 . S
C501 C505 1.393 1_545 S
C502 H494 0.950 . S
C502 C500 1.391 . S
C502 C503 1.400 . S
C503 C502 1.400 . S
C503 C504 1.398 1_545 S
C503 C509 1.491 . S
C504 H495 0.950 . S
C504 C503 1.398 1_565 S
C504 C505 1.391 . S
C505 H493 0.950 . S
C505 C501 1.393 1_565 S
C505 C504 1.391 . S
C506 H496 0.950 . S
C506 C507 1.386 1_565 S
C506 C508 1.391 . S
C507 C506 1.386 1_545 S
C507 C511 1.393 . S
C508 H497 0.950 . S
C508 C506 1.391 . S
C508 C509 1.400 1_565 S
C509 C503 1.491 . S
C509 C508 1.400 1_545 S
C509 C510 1.398 . S
C510 H498 0.950 . S
C510 C509 1.398 . S
C510 C511 1.391 . S
C511 H499 0.950 . S
C511 C507 1.393 . S
C511 C510 1.391 . S
H512 C520 0.950 1_655 S
H513 C525 0.950 . S
H514 C522 0.950 1_655 S
H515 C524 0.950 . S
H516 C526 0.950 . S
H517 C528 0.950 . S
H518 C530 0.950 1_655 S
H519 C531 0.950 1_655 S
C520 H512 0.950 1_455 S
C520 C521 1.386 . S
C520 C522 1.391 . S
C521 C520 1.386 . S
C521 C525 1.393 . S
C522 H514 0.950 1_455 S
C522 C520 1.391 . S
C522 C523 1.400 . S
C523 C522 1.400 . S
C523 C524 1.398 . S
C523 C529 1.491 . S
C524 H515 0.950 . S
C524 C523 1.398 . S
C524 C525 1.391 . S
C525 H513 0.950 . S
C525 C521 1.393 . S
C525 C524 1.391 . S
C526 H516 0.950 . S
C526 C527 1.386 . S
C526 C528 1.391 . S
C527 C526 1.386 . S
C527 C531 1.393 . S
C528 H517 0.950 . S
C528 C526 1.391 . S
C528 C529 1.400 . S
C529 C523 1.491 . S
C529 C528 1.400 . S
C529 C530 1.398 . S
C530 H518 0.950 1_455 S
C530 C529 1.398 . S
C530 C531 1.391 . S
C531 H519 0.950 1_455 S
C531 C527 1.393 . S
C531 C530 1.391 . S
H532 C540 0.950 . S
H533 C545 0.950 . S
H534 C542 0.950 . S
H535 C544 0.950 . S
H536 C546 0.950 . S
H537 C548 0.950 . S
H538 C550 0.950 . S
H539 C551 0.950 . S
C540 H532 0.950 . S
C540 C541 1.386 1_565 S
C540 C542 1.391 . S
C541 C540 1.386 1_545 S
C541 C545 1.393 . S
C542 H534 0.950 . S
C542 C540 1.391 . S
C542 C543 1.400 1_565 S
C543 C542 1.400 1_545 S
C543 C544 1.398 . S
C543 C549 1.491 . S
C544 H535 0.950 . S
C544 C543 1.398 . S
C544 C545 1.391 . S
C545 H533 0.950 . S
C545 C541 1.393 . S
C545 C544 1.391 . S
C546 H536 0.950 . S
C546 C547 1.386 . S
C546 C548 1.391 . S
C547 C546 1.386 . S
C547 C551 1.393 1_545 S
C548 H537 0.950 . S
C548 C546 1.391 . S
C548 C549 1.400 . S
C549 C543 1.491 . S
C549 C548 1.400 . S
C549 C550 1.398 1_545 S
C550 H538 0.950 . S
C550 C549 1.398 1_565 S
C550 C551 1.391 . S
C551 H539 0.950 . S
C551 C547 1.393 1_565 S
C551 C550 1.391 . S
H552 C560 0.950 . S
H553 C565 0.950 . S
H554 C562 0.950 . S
H555 C564 0.950 . S
H556 C566 0.950 . S
H557 C568 0.951 . S
H558 C570 0.950 . S
H559 C571 0.950 . S
C560 H552 0.950 . S
C560 C561 1.386 . S
C560 C562 1.391 . S
C561 C560 1.386 . S
C561 C565 1.393 . S
C562 H554 0.950 . S
C562 C560 1.391 . S
C562 C563 1.400 . S
C563 C562 1.400 . S
C563 C564 1.398 . S
C563 C569 1.491 . S
C564 H555 0.950 . S
C564 C563 1.398 . S
C564 C565 1.391 . S
C565 H553 0.950 . S
C565 C561 1.393 . S
C565 C564 1.391 . S
C566 H556 0.950 . S
C566 C567 1.387 . S
C566 C568 1.392 . S
C567 C566 1.387 . S
C567 C571 1.392 1_554 S
C568 H557 0.951 . S
C568 C566 1.392 . S
C568 C569 1.399 1_554 S
C569 C563 1.491 . S
C569 C568 1.399 1_556 S
C569 C570 1.398 . S
C570 H558 0.950 . S
C570 C569 1.398 . S
C570 C571 1.391 . S
C571 H559 0.950 . S
C571 C567 1.392 1_556 S
C571 C570 1.391 . S
H572 C580 0.950 . S
H573 C585 0.950 . S
H574 C582 0.950 . S
H575 C584 0.950 . S
H576 C586 0.950 . S
H577 C588 0.950 . S
H578 C590 0.950 . S
H579 C591 0.950 . S
C580 H572 0.950 . S
C580 C581 1.386 . S
C580 C582 1.391 . S
C581 C580 1.386 . S
C581 C585 1.393 1_554 S
C582 H574 0.950 . S
C582 C580 1.391 . S
C582 C583 1.400 . S
C583 C582 1.400 . S
C583 C584 1.398 1_554 S
C583 C589 1.491 . S
C584 H575 0.950 . S
C584 C583 1.398 1_556 S
C584 C585 1.391 . S
C585 H573 0.950 . S
C585 C581 1.393 1_556 S
C585 C584 1.391 . S
C586 H576 0.950 . S
C586 C587 1.386 1_556 S
C586 C588 1.391 . S
C587 C586 1.386 1_554 S
C587 C591 1.393 . S
C588 H577 0.950 . S
C588 C586 1.391 . S
C588 C589 1.400 1_556 S
C589 C583 1.491 . S
C589 C588 1.400 1_554 S
C589 C590 1.398 . S
C590 H578 0.950 . S
C590 C589 1.398 . S
C590 C591 1.391 . S
C591 H579 0.950 . S
C591 C587 1.393 . S
C591 C590 1.391 . S
H592 C600 0.950 . S
H593 C605 0.950 . S
H594 C602 0.950 . S
H595 C604 0.950 . S
H596 C606 0.950 . S
H597 C608 0.950 . S
H598 C610 0.950 . S
H599 C611 0.950 . S
C600 H592 0.950 . S
C600 C601 1.386 1_556 S
C600 C602 1.391 . S
C601 C600 1.386 1_554 S
C601 C605 1.393 . S
C602 H594 0.950 . S
C602 C600 1.391 . S
C602 C603 1.400 1_556 S
C603 C602 1.400 1_554 S
C603 C604 1.398 . S
C603 C609 1.491 . S
C604 H595 0.950 . S
C604 C603 1.398 . S
C604 C605 1.391 . S
C605 H593 0.950 . S
C605 C601 1.393 . S
C605 C604 1.391 . S
C606 H596 0.950 . S
C606 C607 1.386 . S
C606 C608 1.391 . S
C607 C606 1.386 . S
C607 C611 1.393 1_554 S
C608 H597 0.950 . S
C608 C606 1.391 . S
C608 C609 1.400 . S
C609 C603 1.491 . S
C609 C608 1.400 . S
C609 C610 1.398 1_554 S
C610 H598 0.950 . S
C610 C609 1.398 1_556 S
C610 C611 1.391 . S
C611 H599 0.950 . S
C611 C607 1.393 1_556 S
C611 C610 1.391 . S
H612 C620 0.950 . S
H613 C625 0.950 . S
H614 C622 0.950 . S
H615 C624 0.950 . S
H616 C626 0.950 . S
H617 C628 0.950 . S
H618 C630 0.950 . S
H619 C631 0.950 . S
C620 H612 0.950 . S
C620 C621 1.386 . S
C620 C622 1.391 . S
C621 C620 1.386 . S
C621 C625 1.393 1_556 S
C622 H614 0.950 . S
C622 C620 1.391 . S
C622 C623 1.400 . S
C623 C622 1.400 . S
C623 C624 1.398 1_556 S
C623 C629 1.491 . S
C624 H615 0.950 . S
C624 C623 1.398 1_554 S
C624 C625 1.391 . S
C625 H613 0.950 . S
C625 C621 1.393 1_554 S
C625 C624 1.391 . S
C626 H616 0.950 . S
C626 C627 1.393 . S
C626 C628 1.391 . S
C627 C626 1.393 . S
C627 C631 1.385 1_554 S
C628 H617 0.950 . S
C628 C626 1.391 . S
C628 C629 1.400 1_554 S
C629 C623 1.491 . S
C629 C628 1.400 1_556 S
C629 C630 1.398 . S
C630 H618 0.950 . S
C630 C629 1.398 . S
C630 C631 1.391 . S
C631 H619 0.950 . S
C631 C627 1.385 1_556 S
C631 C630 1.391 . S
C407 C343 1.502 . S
C401 C11 0.875 1_455 S
C427 C350 1.478 . S
C421 C143 1.174 . S
C447 C345 1.267 . S
C441 C1 1.000 . S
C467 C351 1.609 . S
C461 C169 1.228 . S
C481 C29 1.128 . S
C487 C344 1.383 . S
C507 C353 1.593 . S
C501 C125 0.963 1_545 S
C521 C55 1.114 . S
C527 C342 1.519 . S
C541 C115 1.079 . S
C547 C352 1.361 . S
C561 C283 1.323 1_556 S
C567 C347 1.710 . S
C581 C239 1.006 . S
C587 C346 1.693 1_554 S
C607 C349 1.574 . S
C601 C257 1.264 1_554 S
C627 C348 1.457 . S
C621 C229 1.077 . S
