# Generated by pormake.
# Topology hwx, (6,3)-cn, num edge types: 1
# Building blocks:
#     Node 0, Type 0, BuildingBlock: OJICUG_clean_sbu_0, # of connection points: 6
#     Node 1, Type 0, BuildingBlock: OJICUG_clean_sbu_0, # of connection points: 6
#     Node 2, Type 0, BuildingBlock: OJICUG_clean_sbu_0, # of connection points: 6
#     Node 3, Type 0, BuildingBlock: OJICUG_clean_sbu_0, # of connection points: 6
#     Node 4, Type 1, BuildingBlock: BETDAH_clean_linker_0, # of connection points: 3
#     Node 5, Type 1, BuildingBlock: BETDAH_clean_linker_0, # of connection points: 3
#     Node 6, Type 1, BuildingBlock: BETDAH_clean_linker_0, # of connection points: 3
#     Node 7, Type 1, BuildingBlock: BETDAH_clean_linker_0, # of connection points: 3
#     Node 8, Type 1, BuildingBlock: BETDAH_clean_linker_0, # of connection points: 3
#     Node 9, Type 1, BuildingBlock: BETDAH_clean_linker_0, # of connection points: 3
#     Node 10, Type 1, BuildingBlock: BETDAH_clean_linker_0, # of connection points: 3
#     Node 11, Type 1, BuildingBlock: BETDAH_clean_linker_0, # of connection points: 3
#     Edge 12, Type (0, 1), BuildingBlock: AJUNOK_clean_linker_0, # of connection points: 2
#     Edge 13, Type (0, 1), BuildingBlock: AJUNOK_clean_linker_0, # of connection points: 2
#     Edge 14, Type (0, 1), BuildingBlock: AJUNOK_clean_linker_0, # of connection points: 2
#     Edge 15, Type (0, 1), BuildingBlock: AJUNOK_clean_linker_0, # of connection points: 2
#     Edge 16, Type (0, 1), BuildingBlock: AJUNOK_clean_linker_0, # of connection points: 2
#     Edge 17, Type (0, 1), BuildingBlock: AJUNOK_clean_linker_0, # of connection points: 2
#     Edge 18, Type (0, 1), BuildingBlock: AJUNOK_clean_linker_0, # of connection points: 2
#     Edge 19, Type (0, 1), BuildingBlock: AJUNOK_clean_linker_0, # of connection points: 2
#     Edge 20, Type (0, 1), BuildingBlock: AJUNOK_clean_linker_0, # of connection points: 2
#     Edge 21, Type (0, 1), BuildingBlock: AJUNOK_clean_linker_0, # of connection points: 2
#     Edge 22, Type (0, 1), BuildingBlock: AJUNOK_clean_linker_0, # of connection points: 2
#     Edge 23, Type (0, 1), BuildingBlock: AJUNOK_clean_linker_0, # of connection points: 2
#     Edge 24, Type (0, 1), BuildingBlock: AJUNOK_clean_linker_0, # of connection points: 2
#     Edge 25, Type (0, 1), BuildingBlock: AJUNOK_clean_linker_0, # of connection points: 2
#     Edge 26, Type (0, 1), BuildingBlock: AJUNOK_clean_linker_0, # of connection points: 2
#     Edge 27, Type (0, 1), BuildingBlock: AJUNOK_clean_linker_0, # of connection points: 2
#     Edge 28, Type (0, 1), BuildingBlock: AJUNOK_clean_linker_0, # of connection points: 2
#     Edge 29, Type (0, 1), BuildingBlock: AJUNOK_clean_linker_0, # of connection points: 2
#     Edge 30, Type (0, 1), BuildingBlock: AJUNOK_clean_linker_0, # of connection points: 2
#     Edge 31, Type (0, 1), BuildingBlock: AJUNOK_clean_linker_0, # of connection points: 2
#     Edge 32, Type (0, 1), BuildingBlock: AJUNOK_clean_linker_0, # of connection points: 2
#     Edge 33, Type (0, 1), BuildingBlock: AJUNOK_clean_linker_0, # of connection points: 2
#     Edge 34, Type (0, 1), BuildingBlock: AJUNOK_clean_linker_0, # of connection points: 2
#     Edge 35, Type (0, 1), BuildingBlock: AJUNOK_clean_linker_0, # of connection points: 2
# Relax obj value: 0.008
# Max RMSD: 0.039
# Mean RMSD: 0.038
data_MOF--net-hwx--node1-OJICUG_clean_sbu_0--node2-BETDAH_clean_linker_0--edge1-AJUNOK_clean_linker_0
_symmetry_space_group_name_H-M    P1
_symmetry_Int_Tables_number       1
_symmetry_cell_setting            triclinic
loop_
_symmetry_equiv_pos_as_xyz
'x, y, z'
_cell_length_a     38.998969
_cell_length_b     39.152954
_cell_length_c     15.177753
_cell_angle_alpha  92.434044
_cell_angle_beta   92.177455
_cell_angle_gamma 89.975426
loop_
_atom_site_label
_atom_site_type_symbol
_atom_site_fract_x
_atom_site_fract_y
_atom_site_fract_z
_atom_type_partial_charge
Sc0 Sc 0.23763 0.24445 0.09726 0.0
Sc1 Sc 0.18424 0.18432 0.97855 0.0
Sc2 Sc 0.24089 0.2356 0.86675 0.0
O3 O 0.22091 0.22142 0.981 0.0
C4 C 0.23414 0.30763 0.96992 0.0
C5 C 0.15742 0.2384 0.12448 0.0
C6 C 0.16098 0.22663 0.81285 0.0
C7 C 0.22907 0.16655 0.14823 0.0
C8 C 0.30748 0.23508 -0.00318 0.0
C9 C 0.23561 0.15464 0.83548 0.0
O10 O 0.23712 0.29498 0.0456 0.0
O11 O 0.1537 0.21215 0.07274 0.0
O12 O 0.19123 0.23701 0.80017 0.0
O13 O 0.23924 0.19709 0.16435 0.0
O14 O 0.29266 0.23612 0.92092 0.0
O15 O 0.21044 0.15164 0.88533 0.0
O16 O 0.29107 0.23664 0.06781 0.0
O17 O 0.2105 0.15728 0.08102 0.0
O18 O 0.24973 0.18325 0.82328 0.0
O19 O 0.18594 0.25392 0.13753 0.0
O20 O 0.23412 0.28926 0.89886 0.0
O21 O 0.154 0.20776 0.87583 0.0
Sc22 Sc 0.27174 0.73269 0.39339 0.0
Sc23 Sc 0.33373 0.68378 0.50712 0.0
Sc24 Sc 0.27645 0.73706 0.62488 0.0
O25 O 0.29397 0.71781 0.50851 0.0
C26 C 0.27365 0.80303 0.5089 0.0
C27 C 0.35183 0.73216 0.35213 0.0
C28 C 0.35761 0.7355 0.66555 0.0
C29 C 0.28494 0.65347 0.34911 0.0
C30 C 0.20616 0.72583 0.51147 0.0
C31 C 0.28926 0.65801 0.66272 0.0
O32 O 0.27229 0.78586 0.43586 0.0
O33 O 0.36051 0.71154 0.41147 0.0
O34 O 0.32768 0.74715 0.67853 0.0
O35 O 0.26859 0.68116 0.33831 0.0
O36 O 0.22327 0.72943 0.58427 0.0
O37 O 0.31098 0.65278 0.60325 0.0
O38 O 0.22019 0.72613 0.4372 0.0
O39 O 0.30948 0.65082 0.40582 0.0
O40 O 0.27532 0.68693 0.67827 0.0
O41 O 0.32086 0.74116 0.33739 0.0
O42 O 0.27501 0.78915 0.58319 0.0
O43 O 0.36345 0.71216 0.60752 0.0
Sc44 Sc 0.77279 0.77438 0.8896 0.0
Sc45 Sc 0.83271 0.82824 0.00942 0.0
Sc46 Sc 0.7783 0.77396 0.12055 0.0
O47 O 0.79465 0.79221 0.00645 0.0
C48 C 0.7073 0.78036 0.00895 0.0
C49 C 0.78206 0.85388 0.85666 0.0
C50 C 0.78736 0.85387 0.16937 0.0
C51 C 0.85259 0.77841 0.84769 0.0
C52 C 0.77787 0.70597 -0.00317 0.0
C53 C 0.85925 0.77996 0.16125 0.0
O54 O 0.72099 0.78011 0.93416 0.0
O55 O 0.80619 0.85886 0.91427 0.0
O56 O 0.77427 0.82466 0.18011 0.0
O57 O 0.82233 0.76676 0.83322 0.0
O58 O 0.78023 0.72159 0.072 0.0
O59 O 0.86428 0.80237 0.1051 0.0
O60 O 0.77455 0.72156 0.92524 0.0
O61 O 0.86012 0.80105 0.90785 0.0
O62 O 0.82983 0.76744 0.17351 0.0
O63 O 0.76794 0.82494 0.84054 0.0
O64 O 0.72485 0.77801 0.08075 0.0
O65 O 0.80921 0.8592 0.11141 0.0
Sc66 Sc 0.74266 0.27217 0.62727 0.0
Sc67 Sc 0.6835 0.32439 0.51387 0.0
Sc68 Sc 0.73276 0.26369 0.39616 0.0
O69 O 0.71962 0.28676 0.51243 0.0
C70 C 0.80573 0.27273 0.49853 0.0
C71 C 0.73748 0.35333 0.66148 0.0
C72 C 0.72498 0.34177 0.34651 0.0
C73 C 0.66394 0.28086 0.67683 0.0
C74 C 0.73277 0.20023 0.52155 0.0
C75 C 0.65205 0.27196 0.36492 0.0
O76 O 0.79337 0.27362 0.57505 0.0
O77 O 0.71248 0.35661 0.60672 0.0
O78 O 0.7348 0.31125 0.33099 0.0
O79 O 0.69398 0.26886 0.68954 0.0
O80 O 0.73151 0.2133 0.44637 0.0
O81 O 0.64979 0.29738 0.41922 0.0
O82 O 0.73678 0.21825 0.59287 0.0
O83 O 0.65618 0.30151 0.61686 0.0
O84 O 0.68005 0.25617 0.35209 0.0
O85 O 0.75122 0.32448 0.67584 0.0
O86 O 0.78695 0.26928 0.42828 0.0
O87 O 0.70732 0.35103 0.41179 0.0
H88 H 0.27982 0.59242 0.00014 0.0
H89 H 0.21969 0.51566 0.1177 0.0
H90 H 0.22094 0.52046 0.83505 0.0
C91 C 0.26377 0.56974 -0.00675 0.0
C92 C 0.25261 0.55761 0.90911 0.0
C93 C 0.25187 0.55498 0.06866 0.0
C94 C 0.22973 0.52671 0.05968 0.0
C95 C 0.21954 0.51349 0.97521 0.0
C96 C 0.23041 0.52944 0.90001 0.0
N97 N 0.19556 0.48643 0.9658 0.0
C98 C 0.20604 0.45256 0.96575 0.0
H99 H 0.91599 0.76501 0.50491 0.0
H100 H 0.99845 0.71276 0.37577 0.0
H101 H 0.99005 0.70887 0.65734 0.0
C102 C 0.9396 0.75034 0.5087 0.0
C103 C 0.95164 0.73895 0.5901 0.0
C104 C 0.95615 0.74091 0.43129 0.0
C105 C 0.98603 0.72095 0.43573 0.0
C106 C 0.99878 0.71008 0.51784 0.0
C107 C 0.98116 0.7186 0.59471 0.0
N108 N 0.0269 0.68734 0.52247 0.0
C109 C 0.06044 0.69832 0.5145 0.0
H110 H 0.77097 0.40318 -0.00444 0.0
H111 H 0.76098 0.50492 0.90025 0.0
H112 H 0.73817 0.48519 0.16816 0.0
C113 C 0.76602 0.43021 0.00738 0.0
C114 C 0.75456 0.44146 0.08967 0.0
C115 C 0.76712 0.45237 0.93739 0.0
C116 C 0.76081 0.48751 0.95383 0.0
C117 C 0.7514 0.4994 0.03853 0.0
C118 C 0.74769 0.47619 0.10511 0.0
N119 N 0.74114 0.53357 0.05668 0.0
C120 C 0.75533 0.56219 0.02144 0.0
H121 H 0.09973 0.24587 0.45815 0.0
H122 H 0.01923 0.289 0.61347 0.0
H123 H 0.01547 0.29754 0.33119 0.0
C124 C 0.07504 0.25858 0.46203 0.0
C125 C 0.0587 0.26982 0.38514 0.0
C126 C 0.06117 0.26549 0.54442 0.0
C127 C 0.02966 0.28264 0.54967 0.0
C128 C 0.01279 0.29366 0.47238 0.0
C129 C 0.02762 0.28764 0.39022 0.0
N130 N 0.98357 0.31485 0.4783 0.0
C131 C 0.9507 0.30158 0.48231 0.0
H132 H 0.77457 0.91577 0.51832 0.0
H133 H 0.71693 0.99079 0.37647 0.0
H134 H 0.71401 0.99002 0.65959 0.0
C135 C 0.75858 0.93848 0.51856 0.0
C136 C 0.74627 0.95177 0.59824 0.0
C137 C 0.74798 0.9522 0.43849 0.0
C138 C 0.72594 0.98053 0.43837 0.0
C139 C 0.71459 0.99486 0.51854 0.0
C140 C 0.72425 0.98005 0.59828 0.0
N141 N 0.691 0.02221 0.51854 0.0
C142 C 0.70223 0.05586 0.52226 0.0
H143 H 0.59823 0.265 0.02162 0.0
H144 H 0.51134 0.21339 0.12135 0.0
H145 H 0.52527 0.21453 0.84128 0.0
C146 C 0.5743 0.2511 0.00974 0.0
C147 C 0.56344 0.24185 0.92332 0.0
C148 C 0.55598 0.24056 0.08125 0.0
C149 C 0.52539 0.22202 0.06619 0.0
C150 C 0.51393 0.21322 0.97922 0.0
C151 C 0.53347 0.22241 0.9081 0.0
N152 N 0.48428 0.19287 0.96255 0.0
C153 C 0.45187 0.20437 0.98422 0.0
H154 H 0.27284 0.10269 0.51022 0.0
H155 H 0.25095 1.00322 0.60458 0.0
H156 H 0.23306 0.02354 0.33085 0.0
C157 C 0.26528 0.07626 0.49731 0.0
C158 C 0.25314 0.06592 0.41252 0.0
C159 C 0.26341 0.05442 0.5678 0.0
C160 C 0.25348 0.02013 0.55052 0.0
C161 C 0.24399 0.0087 0.46375 0.0
C162 C 0.24302 0.03187 0.39589 0.0
N163 N 0.23082 0.97543 0.44454 0.0
C164 C 0.24532 0.94585 0.47671 0.0
H165 H 0.41035 0.75763 0.00667 0.0
H166 H 0.50033 0.79978 0.89712 0.0
H167 H 0.49045 0.80055 0.17921 0.0
C168 C 0.43542 0.76959 0.01607 0.0
C169 C 0.44841 0.77752 0.10144 0.0
C170 C 0.45378 0.77754 0.94241 0.0
C171 C 0.48631 0.79281 0.95396 0.0
C172 C 0.49967 0.80091 0.03984 0.0
C173 C 0.48057 0.79339 0.1133 0.0
N174 N 0.53013 0.82036 0.05325 0.0
C175 C 0.56223 0.80787 0.03185 0.0
C176 C 0.10274 0.22534 0.1971 0.0
C177 C 0.12798 0.2494 0.17775 0.0
C178 C 0.07794 0.23317 0.25925 0.0
C179 C 0.07708 0.26551 0.30253 0.0
H180 H 0.10344 0.19954 0.1685 0.0
H181 H 0.0607 0.2132 0.27757 0.0
S182 S 0.13405 0.33893 0.26779 0.0
N183 N 0.14816 0.30806 0.20099 0.0
N184 N 0.10124 0.32259 0.31743 0.0
C185 C 0.10038 0.29054 0.27936 0.0
C186 C 0.12591 0.28254 0.21694 0.0
C187 C 0.24609 0.62803 0.74882 0.0
C188 C 0.27943 0.62925 0.71662 0.0
C189 C 0.23676 0.60277 0.80598 0.0
C190 C 0.26054 0.57814 0.8335 0.0
H191 H 0.22726 0.64717 0.73123 0.0
H192 H 0.21134 0.60357 0.83246 0.0
S193 S 0.3505 0.56924 0.76683 0.0
N194 N 0.33579 0.60255 0.71383 0.0
N195 N 0.31823 0.55561 0.82353 0.0
C196 C 0.29352 0.57829 0.79997 0.0
C197 C 0.30296 0.60369 0.74069 0.0
C198 C 0.88883 0.73529 0.24862 0.0
C199 C 0.88852 0.76868 0.21773 0.0
C200 C 0.91348 0.7253 0.31191 0.0
C201 C 0.93846 0.74841 0.34691 0.0
H202 H 0.86909 0.71712 0.22622 0.0
H203 H 0.91158 0.70007 0.33807 0.0
S204 S 0.95009 0.83801 0.28549 0.0
N205 N 0.91681 0.82419 0.22338 0.0
N206 N 0.96259 0.80538 0.34431 0.0
C207 C 0.93958 0.78124 0.31376 0.0
C208 C 0.91476 0.79137 0.24841 0.0
C209 C 0.78063 0.38314 0.76479 0.0
C210 C 0.74939 0.38402 0.71533 0.0
C211 C 0.7892 0.40888 0.82886 0.0
C212 C 0.76656 0.43611 0.84713 0.0
H213 H 0.79769 0.36144 0.75774 0.0
H214 H 0.81205 0.40563 0.87054 0.0
S215 S 0.68492 0.45397 0.72451 0.0
N216 N 0.69861 0.41773 0.67881 0.0
N217 N 0.71426 0.4652 0.80145 0.0
C218 C 0.73728 0.43938 0.79134 0.0
C219 C 0.72869 0.41342 0.72525 0.0
C220 C 0.61945 0.22901 0.26834 0.0
C221 C 0.62172 0.2622 0.30765 0.0
C222 C 0.595 0.22097 0.20069 0.0
C223 C 0.57213 0.24587 0.1699 0.0
H224 H 0.63787 0.20958 0.28668 0.0
H225 H 0.59573 0.19591 0.16761 0.0
S226 S 0.56494 0.33538 0.25514 0.0
N227 N 0.59665 0.31925 0.31547 0.0
N228 N 0.55124 0.30394 0.18677 0.0
C229 C 0.57243 0.27833 0.21227 0.0
C230 C 0.59706 0.28653 0.28182 0.0
C231 C 0.22417 0.09672 0.76425 0.0
C232 C 0.2472 0.12391 0.78429 0.0
C233 C 0.23183 0.07074 0.70167 0.0
C234 C 0.26285 0.07095 0.65741 0.0
H235 H 0.19892 0.09687 0.79163 0.0
H236 H 0.21188 0.05249 0.6814 0.0
S237 S 0.33534 0.1311 0.70294 0.0
N238 N 0.30495 0.14564 0.76746 0.0
N239 N 0.31928 0.09659 0.65021 0.0
C240 C 0.28776 0.09543 0.68518 0.0
C241 C 0.27989 0.12209 0.74819 0.0
C242 C 0.36971 0.77137 0.2364 0.0
C243 C 0.37867 0.74607 0.29646 0.0
C244 C 0.39328 0.78298 0.17737 0.0
C245 C 0.42684 0.77001 0.17616 0.0
H246 H 0.34396 0.78173 0.23296 0.0
H247 H 0.38481 0.80141 0.12987 0.0
S248 S 0.46465 0.70584 0.32334 0.0
N249 N 0.4247 0.71015 0.35447 0.0
N250 N 0.46883 0.73226 0.24243 0.0
C251 C 0.43692 0.74618 0.23842 0.0
C252 C 0.41287 0.73414 0.29875 0.0
C253 C 0.79563 0.90601 0.7756 0.0
C254 C 0.77113 0.88257 0.80227 0.0
C255 C 0.78686 0.93032 0.71346 0.0
C256 C 0.75318 0.93251 0.67813 0.0
H257 H 0.82216 0.90426 0.7988 0.0
H258 H 0.80683 0.94642 0.68977 0.0
S259 S 0.67882 0.87984 0.73379 0.0
N260 N 0.71124 0.86494 0.79394 0.0
N261 N 0.69476 0.91117 0.67828 0.0
C262 C 0.72801 0.91081 0.70849 0.0
C263 C 0.737 0.88566 0.77038 0.0
C264 C 0.90832 0.78717 0.77509 0.0
C265 C 0.88011 0.76593 0.78989 0.0
C266 C 0.93292 0.77736 0.71392 0.0
C267 C 0.9305 0.74573 0.66715 0.0
H268 H 0.91059 0.81223 0.80788 0.0
H269 H 0.95314 0.79516 0.70043 0.0
S270 S 0.864 0.67938 0.68714 0.0
N271 N 0.85284 0.71067 0.75666 0.0
N272 N 0.89937 0.69241 0.64227 0.0
C273 C 0.90358 0.72357 0.68423 0.0
C274 C 0.87831 0.73361 0.74557 0.0
C275 C 0.75005 0.39728 0.30693 0.0
C276 C 0.7322 0.3671 0.28164 0.0
C277 C 0.75725 0.42142 0.24451 0.0
C278 C 0.74629 0.4162 0.15556 0.0
H279 H 0.75896 0.40193 0.37487 0.0
H280 H 0.77181 0.44406 0.26568 0.0
S281 S 0.69425 0.34313 0.06048 0.0
N282 N 0.70158 0.33415 0.16481 0.0
N283 N 0.71338 0.38013 0.04807 0.0
C284 C 0.72709 0.3866 0.13083 0.0
C285 C 0.72049 0.36185 0.19384 0.0
C286 C 0.13836 0.26629 0.70029 0.0
C287 C 0.13294 0.23784 0.75184 0.0
C288 C 0.11377 0.27633 0.63732 0.0
C289 C 0.08271 0.25846 0.62347 0.0
H290 H 0.16214 0.28061 0.70714 0.0
H291 H 0.11962 0.2975 0.59662 0.0
S292 S 0.05461 0.18361 0.74298 0.0
N293 N 0.09302 0.19295 0.78718 0.0
N294 N 0.04684 0.21211 0.66752 0.0
C295 C 0.07607 0.23099 0.67652 0.0
C296 C 0.10117 0.22063 0.74111 0.0
C297 C 0.24197 0.61967 0.25548 0.0
C298 C 0.27589 0.62366 0.28956 0.0
C299 C 0.23362 0.59467 0.18935 0.0
C300 C 0.25897 0.57313 0.15444 0.0
H301 H 0.22197 0.63684 0.27771 0.0
H302 H 0.20768 0.59376 0.16111 0.0
S303 S 0.3509 0.57137 0.22421 0.0
N304 N 0.33446 0.60216 0.28732 0.0
N305 N 0.31866 0.55582 0.16111 0.0
C306 C 0.29251 0.57558 0.19077 0.0
C307 C 0.30099 0.60066 0.25904 0.0
C308 C 0.38323 0.78063 0.76932 0.0
C309 C 0.38657 0.74889 0.72331 0.0
C310 C 0.40768 0.79172 0.83412 0.0
C311 C 0.43637 0.77154 0.8553 0.0
H312 H 0.36077 0.79639 0.75813 0.0
H313 H 0.40285 0.81509 0.87247 0.0
S314 S 0.45917 0.68818 0.74956 0.0
N315 N 0.42275 0.69882 0.69874 0.0
N316 N 0.46832 0.71983 0.82208 0.0
C317 C 0.4414 0.74102 0.80609 0.0
C318 C 0.4166 0.72966 0.73957 0.0
C319 C 0.74292 0.88362 0.25812 0.0
C320 C 0.77662 0.88272 0.22801 0.0
C321 C 0.73291 0.90849 0.32102 0.0
C322 C 0.75634 0.93304 0.35656 0.0
H323 H 0.72439 0.86437 0.23472 0.0
H324 H 0.70728 0.90727 0.34591 0.0
S325 S 0.84698 0.94279 0.29805 0.0
N326 N 0.83289 0.90976 0.23555 0.0
N327 N 0.81408 0.95593 0.35598 0.0
C328 C 0.78963 0.93333 0.32489 0.0
C329 C 0.79976 0.90834 0.2598 0.0
C330 C 0.61394 0.29432 0.76999 0.0
C331 C 0.63662 0.27002 0.73402 0.0
C332 C 0.58911 0.28477 0.82872 0.0
C333 C 0.58557 0.25051 0.85096 0.0
H334 H 0.61626 0.32104 0.75525 0.0
H335 H 0.57313 0.30435 0.85864 0.0
S336 S 0.63659 0.17687 0.76881 0.0
N337 N 0.65283 0.2101 0.72123 0.0
N338 N 0.60545 0.19211 0.82994 0.0
C339 C 0.60706 0.22582 0.81262 0.0
C340 C 0.63281 0.2356 0.75446 0.0
C341 C 0.25115 0.1098 0.19344 0.0
C342 C 0.23608 0.14146 0.21554 0.0
C343 C 0.25691 0.08543 0.25755 0.0
C344 C 0.24716 0.09183 0.34507 0.0
H345 H 0.25878 0.10404 0.12655 0.0
H346 H 0.26918 0.06154 0.23867 0.0
S347 S 0.20235 0.16938 0.43162 0.0
N348 N 0.20952 0.17728 0.32796 0.0
N349 N 0.21841 0.13102 0.44739 0.0
C350 C 0.2309 0.12311 0.36659 0.0
C351 C 0.22586 0.14806 0.30203 0.0
C352 C 0.23448 0.36667 0.04158 0.0
C353 C 0.22891 0.34521 0.96522 0.0
C354 C 0.22765 0.40185 0.04087 0.0
C355 C 0.21498 0.41678 0.96398 0.0
H356 H 0.24385 0.35622 0.10288 0.0
H357 H 0.23181 0.41734 0.10121 0.0
S358 S 0.19583 0.37308 0.74671 0.0
N359 N 0.20992 0.34239 0.81002 0.0
N360 N 0.19722 0.4085 0.80986 0.0
C361 C 0.20967 0.39616 0.88707 0.0
C362 C 0.21665 0.36035 0.88735 0.0
C363 C 0.14997 0.7084 0.43589 0.0
C364 C 0.16834 0.72047 0.51295 0.0
C365 C 0.11456 0.70188 0.43617 0.0
C366 C 0.09628 0.70745 0.51318 0.0
H367 H 0.16309 0.70328 0.3751 0.0
H368 H 0.10155 0.69196 0.37611 0.0
S369 S 0.13082 0.74022 0.73095 0.0
N370 N 0.16444 0.73879 0.66792 0.0
N371 N 0.09801 0.72642 0.66725 0.0
C372 C 0.11378 0.72005 0.58994 0.0
C373 C 0.14981 0.7266 0.59015 0.0
C374 C 0.78831 0.65055 0.0692 0.0
C375 C 0.77692 0.66799 -0.00581 0.0
C376 C 0.78325 0.61532 0.07456 0.0
C377 C 0.76672 0.59627 0.00524 0.0
H378 H 0.80015 0.66437 0.12578 0.0
H379 H 0.79084 0.60325 0.13524 0.0
S380 S 0.73464 0.62816 0.79157 0.0
N381 N 0.75051 0.6624 0.84597 0.0
N382 N 0.74085 0.59606 0.85756 0.0
C383 C 0.75684 0.6126 0.9281 0.0
C384 C 0.7621 0.64854 0.92208 0.0
C385 C 0.86509 0.27858 0.56834 0.0
C386 C 0.84348 0.27739 0.49142 0.0
C387 C 0.90033 0.28542 0.56467 0.0
C388 C 0.91522 0.29123 0.48411 0.0
H389 H 0.85469 0.27479 0.63236 0.0
H390 H 0.91584 0.2869 0.6255 0.0
S391 S 0.87143 0.2903 0.26347 0.0
N392 N 0.8407 0.28199 0.33139 0.0
N393 N 0.90689 0.29481 0.32586 0.0
C394 C 0.89455 0.28942 0.40667 0.0
C395 C 0.85867 0.28246 0.40994 0.0
C396 C 0.72363 0.14266 0.44543 0.0
C397 C 0.72756 0.16261 0.52497 0.0
C398 C 0.71608 0.10769 0.44532 0.0
C399 C 0.71227 0.09132 0.52453 0.0
H400 H 0.72579 0.15418 0.38225 0.0
H401 H 0.71265 0.0935 0.38271 0.0
S402 S 0.72135 0.13022 0.75066 0.0
N403 N 0.72811 0.16217 0.68577 0.0
N404 N 0.71387 0.0963 0.68428 0.0
C405 C 0.71684 0.11024 0.60445 0.0
C406 C 0.72455 0.14594 0.60501 0.0
C407 C 0.36429 0.23744 0.92619 0.0
C408 C 0.34534 0.2303 0.00062 0.0
C409 C 0.39935 0.22998 0.9231 0.0
C410 C 0.41678 0.2151 -0.00591 0.0
H411 H 0.35184 0.24829 0.86883 0.0
H412 H 0.4127 0.23508 0.86367 0.0
S413 S 0.38034 0.19224 0.20534 0.0
N414 N 0.34758 0.20829 0.14859 0.0
N415 N 0.41367 0.19426 0.14169 0.0
C416 C 0.39884 0.20867 0.06985 0.0
C417 C 0.36304 0.21636 0.07348 0.0
C418 C 0.25459 0.85959 0.57372 0.0
C419 C 0.27127 0.84078 0.50663 0.0
C420 C 0.24763 0.89459 0.56623 0.0
C421 C 0.25768 0.91184 0.49229 0.0
H422 H 0.24526 0.84686 0.63012 0.0
H423 H 0.23314 0.90785 0.6167 0.0
S424 S 0.30559 0.87575 0.30415 0.0
N425 N 0.30023 0.84311 0.36771 0.0
N426 N 0.28727 0.90882 0.35457 0.0
C427 C 0.27602 0.894 0.42754 0.0
C428 C 0.28283 0.85843 0.4345 0.0
C429 C 0.65039 0.79806 0.94151 0.0
C430 C 0.66942 0.78467 0.01313 0.0
C431 C 0.61505 0.80461 0.94653 0.0
C432 C 0.59756 0.79765 0.02282 0.0
H433 H 0.66301 0.80451 0.88206 0.0
H434 H 0.60155 0.81592 0.89128 0.0
S435 S 0.63406 0.76059 0.22603 0.0
N436 N 0.66696 0.7632 0.16128 0.0
N437 N 0.60074 0.77562 0.1696 0.0
C438 C 0.61571 0.7834 0.09353 0.0
C439 C 0.65162 0.77686 0.08898 0.0
loop_
_geom_bond_atom_site_label_1
_geom_bond_atom_site_label_2
_geom_bond_distance
_geom_bond_site_symmetry_2
_ccdc_geom_bond_type
Sc0 O3 2.025 . S
Sc0 O10 2.105 . S
Sc0 O13 2.105 . S
Sc0 O16 2.105 . S
Sc0 O19 2.105 . S
Sc1 O3 2.025 . S
Sc1 O11 2.105 . S
Sc1 O15 2.105 1_554 S
Sc1 O17 2.105 . S
Sc1 O21 2.105 1_554 S
Sc2 O3 2.025 1_556 S
Sc2 O12 2.105 . S
Sc2 O14 2.105 . S
Sc2 O18 2.105 . S
Sc2 O20 2.105 . S
O3 Sc0 2.025 . S
O3 Sc1 2.025 . S
O3 Sc2 2.025 1_554 S
C4 O10 1.268 . S
C4 O20 1.268 1_554 S
C5 O11 1.268 . S
C5 O19 1.268 . S
C6 O12 1.268 . S
C6 O21 1.268 . S
C7 O13 1.268 . S
C7 O17 1.268 . S
C8 O14 1.268 1_554 S
C8 O16 1.268 . S
C9 O15 1.268 . S
C9 O18 1.268 . S
O10 Sc0 2.105 . S
O10 C4 1.268 . S
O11 Sc1 2.105 . S
O11 C5 1.268 . S
O12 Sc2 2.105 . S
O12 C6 1.268 . S
O13 Sc0 2.105 . S
O13 C7 1.268 . S
O14 Sc2 2.105 . S
O14 C8 1.268 1_556 S
O15 Sc1 2.105 1_556 S
O15 C9 1.268 . S
O16 Sc0 2.105 . S
O16 C8 1.268 . S
O17 Sc1 2.105 . S
O17 C7 1.268 . S
O18 Sc2 2.105 . S
O18 C9 1.268 . S
O19 Sc0 2.105 . S
O19 C5 1.268 . S
O20 Sc2 2.105 . S
O20 C4 1.268 1_556 S
O21 Sc1 2.105 1_556 S
O21 C6 1.268 . S
Sc22 O25 2.025 . S
Sc22 O32 2.105 . S
Sc22 O35 2.105 . S
Sc22 O38 2.105 . S
Sc22 O41 2.105 . S
Sc23 O25 2.025 . S
Sc23 O33 2.105 . S
Sc23 O37 2.105 . S
Sc23 O39 2.105 . S
Sc23 O43 2.105 . S
Sc24 O25 2.025 . S
Sc24 O34 2.105 . S
Sc24 O36 2.105 . S
Sc24 O40 2.105 . S
Sc24 O42 2.105 . S
O25 Sc22 2.025 . S
O25 Sc23 2.025 . S
O25 Sc24 2.025 . S
C26 O32 1.268 . S
C26 O42 1.268 . S
C27 O33 1.268 . S
C27 O41 1.268 . S
C28 O34 1.268 . S
C28 O43 1.268 . S
C29 O35 1.268 . S
C29 O39 1.268 . S
C30 O36 1.268 . S
C30 O38 1.268 . S
C31 O37 1.268 . S
C31 O40 1.268 . S
O32 Sc22 2.105 . S
O32 C26 1.268 . S
O33 Sc23 2.105 . S
O33 C27 1.268 . S
O34 Sc24 2.105 . S
O34 C28 1.268 . S
O35 Sc22 2.105 . S
O35 C29 1.268 . S
O36 Sc24 2.105 . S
O36 C30 1.268 . S
O37 Sc23 2.105 . S
O37 C31 1.268 . S
O38 Sc22 2.105 . S
O38 C30 1.268 . S
O39 Sc23 2.105 . S
O39 C29 1.268 . S
O40 Sc24 2.105 . S
O40 C31 1.268 . S
O41 Sc22 2.105 . S
O41 C27 1.268 . S
O42 Sc24 2.105 . S
O42 C26 1.268 . S
O43 Sc23 2.105 . S
O43 C28 1.268 . S
Sc44 O47 2.025 1_556 S
Sc44 O54 2.105 . S
Sc44 O57 2.105 . S
Sc44 O60 2.105 . S
Sc44 O63 2.105 . S
Sc45 O47 2.025 . S
Sc45 O55 2.105 1_554 S
Sc45 O59 2.105 . S
Sc45 O61 2.105 1_554 S
Sc45 O65 2.105 . S
Sc46 O47 2.025 . S
Sc46 O56 2.105 . S
Sc46 O58 2.105 . S
Sc46 O62 2.105 . S
Sc46 O64 2.105 . S
O47 Sc44 2.025 1_554 S
O47 Sc45 2.025 . S
O47 Sc46 2.025 . S
C48 O54 1.268 1_554 S
C48 O64 1.268 . S
C49 O55 1.268 . S
C49 O63 1.268 . S
C50 O56 1.268 . S
C50 O65 1.268 . S
C51 O57 1.268 . S
C51 O61 1.268 . S
C52 O58 1.268 . S
C52 O60 1.268 1_554 S
C53 O59 1.268 . S
C53 O62 1.268 . S
O54 Sc44 2.105 . S
O54 C48 1.268 1_556 S
O55 Sc45 2.105 1_556 S
O55 C49 1.268 . S
O56 Sc46 2.105 . S
O56 C50 1.268 . S
O57 Sc44 2.105 . S
O57 C51 1.268 . S
O58 Sc46 2.105 . S
O58 C52 1.268 . S
O59 Sc45 2.105 . S
O59 C53 1.268 . S
O60 Sc44 2.105 . S
O60 C52 1.268 1_556 S
O61 Sc45 2.105 1_556 S
O61 C51 1.268 . S
O62 Sc46 2.105 . S
O62 C53 1.268 . S
O63 Sc44 2.105 . S
O63 C49 1.268 . S
O64 Sc46 2.105 . S
O64 C48 1.268 . S
O65 Sc45 2.105 . S
O65 C50 1.268 . S
Sc66 O69 2.025 . S
Sc66 O76 2.105 . S
Sc66 O79 2.105 . S
Sc66 O82 2.105 . S
Sc66 O85 2.105 . S
Sc67 O69 2.025 . S
Sc67 O77 2.105 . S
Sc67 O81 2.105 . S
Sc67 O83 2.105 . S
Sc67 O87 2.105 . S
Sc68 O69 2.025 . S
Sc68 O78 2.105 . S
Sc68 O80 2.105 . S
Sc68 O84 2.105 . S
Sc68 O86 2.105 . S
O69 Sc66 2.025 . S
O69 Sc67 2.025 . S
O69 Sc68 2.025 . S
C70 O76 1.268 . S
C70 O86 1.268 . S
C71 O77 1.268 . S
C71 O85 1.268 . S
C72 O78 1.268 . S
C72 O87 1.268 . S
C73 O79 1.268 . S
C73 O83 1.268 . S
C74 O80 1.268 . S
C74 O82 1.268 . S
C75 O81 1.268 . S
C75 O84 1.268 . S
O76 Sc66 2.105 . S
O76 C70 1.268 . S
O77 Sc67 2.105 . S
O77 C71 1.268 . S
O78 Sc68 2.105 . S
O78 C72 1.268 . S
O79 Sc66 2.105 . S
O79 C73 1.268 . S
O80 Sc68 2.105 . S
O80 C74 1.268 . S
O81 Sc67 2.105 . S
O81 C75 1.268 . S
O82 Sc66 2.105 . S
O82 C74 1.268 . S
O83 Sc67 2.105 . S
O83 C73 1.268 . S
O84 Sc68 2.105 . S
O84 C75 1.268 . S
O85 Sc66 2.105 . S
O85 C71 1.268 . S
O86 Sc68 2.105 . S
O86 C70 1.268 . S
O87 Sc67 2.105 . S
O87 C72 1.268 . S
H88 C91 0.929 . S
H89 C94 0.929 . S
H90 C96 0.930 . S
C91 H88 0.929 . S
C91 C92 1.398 1_554 S
C91 C93 1.396 . S
C92 C91 1.398 1_556 S
C92 C96 1.407 . S
C93 C91 1.396 . S
C93 C94 1.394 . S
C94 H89 0.929 . S
C94 C93 1.394 . S
C94 C95 1.382 1_554 S
C95 C94 1.382 1_556 S
C95 C96 1.392 . S
C95 N97 1.420 . S
C96 H90 0.930 . S
C96 C92 1.407 . S
C96 C95 1.392 . S
N97 C95 1.420 . S
N97 C98 1.244 1_556 S
C98 N97 1.244 1_554 S
H99 C102 0.929 . S
H100 C105 0.929 . S
H101 C107 0.930 . S
C102 H99 0.929 . S
C102 C103 1.398 . S
C102 C104 1.396 . S
C103 C102 1.398 . S
C103 C107 1.407 . S
C104 C102 1.396 . S
C104 C105 1.394 . S
C105 H100 0.929 . S
C105 C104 1.394 . S
C105 C106 1.369 1_655 S
C106 C105 1.369 1_455 S
C106 C107 1.373 1_455 S
C106 N108 1.453 . S
C107 H101 0.930 . S
C107 C103 1.407 . S
C107 C106 1.373 1_655 S
N108 C106 1.453 . S
N108 C109 1.244 . S
C109 N108 1.244 . S
H110 C113 0.929 . S
H111 C116 0.929 . S
H112 C118 0.930 . S
C113 H110 0.929 . S
C113 C114 1.398 . S
C113 C115 1.396 1_554 S
C114 C113 1.398 . S
C114 C118 1.407 . S
C115 C113 1.396 1_556 S
C115 C116 1.394 . S
C116 H111 0.929 . S
C116 C115 1.394 . S
C116 C117 1.382 1_556 S
C117 C116 1.382 1_554 S
C117 C118 1.392 . S
C117 N119 1.420 . S
C118 H112 0.930 . S
C118 C114 1.407 . S
C118 C117 1.392 . S
N119 C117 1.420 . S
N119 C120 1.244 . S
C120 N119 1.244 . S
H121 C124 0.929 . S
H122 C127 0.929 . S
H123 C129 0.930 . S
C124 H121 0.929 . S
C124 C125 1.398 . S
C124 C126 1.396 . S
C125 C124 1.398 . S
C125 C129 1.407 . S
C126 C124 1.396 . S
C126 C127 1.394 . S
C127 H122 0.929 . S
C127 C126 1.394 . S
C127 C128 1.382 . S
C128 C127 1.382 . S
C128 C129 1.392 . S
C128 N130 1.420 1_455 S
C129 H123 0.930 . S
C129 C125 1.407 . S
C129 C128 1.392 . S
N130 C128 1.420 1_655 S
N130 C131 1.244 . S
C131 N130 1.244 . S
H132 C135 0.929 . S
H133 C138 0.929 . S
H134 C140 0.930 . S
C135 H132 0.929 . S
C135 C136 1.398 . S
C135 C137 1.396 . S
C136 C135 1.398 . S
C136 C140 1.407 . S
C137 C135 1.396 . S
C137 C138 1.394 . S
C138 H133 0.929 . S
C138 C137 1.394 . S
C138 C139 1.382 . S
C139 C138 1.382 . S
C139 C140 1.392 . S
C139 N141 1.420 1_565 S
C140 H134 0.930 . S
C140 C136 1.407 . S
C140 C139 1.392 . S
N141 C139 1.420 1_545 S
N141 C142 1.244 . S
C142 N141 1.244 . S
H143 C146 0.929 . S
H144 C149 0.929 . S
H145 C151 0.930 . S
C146 H143 0.929 . S
C146 C147 1.398 1_554 S
C146 C148 1.396 . S
C147 C146 1.398 1_556 S
C147 C151 1.407 . S
C148 C146 1.396 . S
C148 C149 1.394 . S
C149 H144 0.929 . S
C149 C148 1.394 . S
C149 C150 1.382 1_554 S
C150 C149 1.382 1_556 S
C150 C151 1.392 . S
C150 N152 1.420 . S
C151 H145 0.930 . S
C151 C147 1.407 . S
C151 C150 1.392 . S
N152 C150 1.420 . S
N152 C153 1.244 1_556 S
C153 N152 1.244 1_554 S
H154 C157 0.929 . S
H155 C160 0.929 . S
H156 C162 0.930 . S
C157 H154 0.929 . S
C157 C158 1.398 . S
C157 C159 1.396 . S
C158 C157 1.398 . S
C158 C162 1.407 . S
C159 C157 1.396 . S
C159 C160 1.394 . S
C160 H155 0.929 . S
C160 C159 1.394 . S
C160 C161 1.373 1_545 S
C161 C160 1.373 1_565 S
C161 C162 1.379 1_565 S
C161 N163 1.441 . S
C162 H156 0.930 . S
C162 C158 1.407 . S
C162 C161 1.379 1_545 S
N163 C161 1.441 . S
N163 C164 1.244 . S
C164 N163 1.244 . S
H165 C168 0.929 . S
H166 C171 0.929 . S
H167 C173 0.930 . S
C168 H165 0.929 . S
C168 C169 1.398 . S
C168 C170 1.396 1_554 S
C169 C168 1.398 . S
C169 C173 1.407 . S
C170 C168 1.396 1_556 S
C170 C171 1.394 . S
C171 H166 0.929 . S
C171 C170 1.394 . S
C171 C172 1.382 1_556 S
C172 C171 1.382 1_554 S
C172 C173 1.392 . S
C172 N174 1.420 . S
C173 H167 0.930 . S
C173 C169 1.407 . S
C173 C172 1.392 . S
N174 C172 1.420 . S
N174 C175 1.244 . S
C175 N174 1.244 . S
C176 C177 1.369 . S
C176 C178 1.419 . S
C176 H180 0.930 . S
C177 C176 1.369 . S
C177 C186 1.429 . S
C178 C176 1.419 . S
C178 C179 1.363 . S
C178 H181 0.929 . S
C179 C178 1.363 . S
C179 C185 1.428 . S
H180 C176 0.930 . S
H181 C178 0.929 . S
S182 N183 1.613 . S
S182 N184 1.610 . S
N183 S182 1.613 . S
N183 C186 1.350 . S
N184 S182 1.610 . S
N184 C185 1.351 . S
C185 C179 1.428 . S
C185 N184 1.351 . S
C185 C186 1.434 . S
C186 C177 1.429 . S
C186 N183 1.350 . S
C186 C185 1.434 . S
C187 C188 1.369 . S
C187 C189 1.419 . S
C187 H191 0.930 . S
C188 C187 1.369 . S
C188 C197 1.429 . S
C189 C187 1.419 . S
C189 C190 1.363 . S
C189 H192 0.929 . S
C190 C189 1.363 . S
C190 C196 1.428 . S
H191 C187 0.930 . S
H192 C189 0.929 . S
S193 N194 1.613 . S
S193 N195 1.610 . S
N194 S193 1.613 . S
N194 C197 1.350 . S
N195 S193 1.610 . S
N195 C196 1.351 . S
C196 C190 1.428 . S
C196 N195 1.351 . S
C196 C197 1.434 . S
C197 C188 1.429 . S
C197 N194 1.350 . S
C197 C196 1.434 . S
C198 C199 1.369 . S
C198 C200 1.419 . S
C198 H202 0.930 . S
C199 C198 1.369 . S
C199 C208 1.429 . S
C200 C198 1.419 . S
C200 C201 1.363 . S
C200 H203 0.929 . S
C201 C200 1.363 . S
C201 C207 1.428 . S
H202 C198 0.930 . S
H203 C200 0.929 . S
S204 N205 1.613 . S
S204 N206 1.610 . S
N205 S204 1.613 . S
N205 C208 1.350 . S
N206 S204 1.610 . S
N206 C207 1.351 . S
C207 C201 1.428 . S
C207 N206 1.351 . S
C207 C208 1.434 . S
C208 C199 1.429 . S
C208 N205 1.350 . S
C208 C207 1.434 . S
C209 C210 1.369 . S
C209 C211 1.419 . S
C209 H213 0.930 . S
C210 C209 1.369 . S
C210 C219 1.429 . S
C211 C209 1.419 . S
C211 C212 1.363 . S
C211 H214 0.929 . S
C212 C211 1.363 . S
C212 C218 1.428 . S
H213 C209 0.930 . S
H214 C211 0.929 . S
S215 N216 1.613 . S
S215 N217 1.610 . S
N216 S215 1.613 . S
N216 C219 1.350 . S
N217 S215 1.610 . S
N217 C218 1.351 . S
C218 C212 1.428 . S
C218 N217 1.351 . S
C218 C219 1.434 . S
C219 C210 1.429 . S
C219 N216 1.350 . S
C219 C218 1.434 . S
C220 C221 1.369 . S
C220 C222 1.419 . S
C220 H224 0.930 . S
C221 C220 1.369 . S
C221 C230 1.429 . S
C222 C220 1.419 . S
C222 C223 1.363 . S
C222 H225 0.929 . S
C223 C222 1.363 . S
C223 C229 1.428 . S
H224 C220 0.930 . S
H225 C222 0.929 . S
S226 N227 1.613 . S
S226 N228 1.610 . S
N227 S226 1.613 . S
N227 C230 1.350 . S
N228 S226 1.610 . S
N228 C229 1.351 . S
C229 C223 1.428 . S
C229 N228 1.351 . S
C229 C230 1.434 . S
C230 C221 1.429 . S
C230 N227 1.350 . S
C230 C229 1.434 . S
C231 C232 1.369 . S
C231 C233 1.419 . S
C231 H235 0.930 . S
C232 C231 1.369 . S
C232 C241 1.429 . S
C233 C231 1.419 . S
C233 C234 1.363 . S
C233 H236 0.929 . S
C234 C233 1.363 . S
C234 C240 1.428 . S
H235 C231 0.930 . S
H236 C233 0.929 . S
S237 N238 1.613 . S
S237 N239 1.610 . S
N238 S237 1.613 . S
N238 C241 1.350 . S
N239 S237 1.610 . S
N239 C240 1.351 . S
C240 C234 1.428 . S
C240 N239 1.351 . S
C240 C241 1.434 . S
C241 C232 1.429 . S
C241 N238 1.350 . S
C241 C240 1.434 . S
C242 C243 1.369 . S
C242 C244 1.419 . S
C242 H246 0.930 . S
C243 C242 1.369 . S
C243 C252 1.429 . S
C244 C242 1.419 . S
C244 C245 1.363 . S
C244 H247 0.929 . S
C245 C244 1.363 . S
C245 C251 1.428 . S
H246 C242 0.930 . S
H247 C244 0.929 . S
S248 N249 1.613 . S
S248 N250 1.610 . S
N249 S248 1.613 . S
N249 C252 1.350 . S
N250 S248 1.610 . S
N250 C251 1.351 . S
C251 C245 1.428 . S
C251 N250 1.351 . S
C251 C252 1.434 . S
C252 C243 1.429 . S
C252 N249 1.350 . S
C252 C251 1.434 . S
C253 C254 1.369 . S
C253 C255 1.419 . S
C253 H257 0.930 . S
C254 C253 1.369 . S
C254 C263 1.429 . S
C255 C253 1.419 . S
C255 C256 1.363 . S
C255 H258 0.929 . S
C256 C255 1.363 . S
C256 C262 1.428 . S
H257 C253 0.930 . S
H258 C255 0.929 . S
S259 N260 1.613 . S
S259 N261 1.610 . S
N260 S259 1.613 . S
N260 C263 1.350 . S
N261 S259 1.610 . S
N261 C262 1.351 . S
C262 C256 1.428 . S
C262 N261 1.351 . S
C262 C263 1.434 . S
C263 C254 1.429 . S
C263 N260 1.350 . S
C263 C262 1.434 . S
C264 C265 1.369 . S
C264 C266 1.419 . S
C264 H268 0.930 . S
C265 C264 1.369 . S
C265 C274 1.429 . S
C266 C264 1.419 . S
C266 C267 1.363 . S
C266 H269 0.929 . S
C267 C266 1.363 . S
C267 C273 1.428 . S
H268 C264 0.930 . S
H269 C266 0.929 . S
S270 N271 1.613 . S
S270 N272 1.610 . S
N271 S270 1.613 . S
N271 C274 1.350 . S
N272 S270 1.610 . S
N272 C273 1.351 . S
C273 C267 1.428 . S
C273 N272 1.351 . S
C273 C274 1.434 . S
C274 C265 1.429 . S
C274 N271 1.350 . S
C274 C273 1.434 . S
C275 C276 1.369 . S
C275 C277 1.419 . S
C275 H279 0.930 . S
C276 C275 1.369 . S
C276 C285 1.429 . S
C277 C275 1.419 . S
C277 C278 1.363 . S
C277 H280 0.929 . S
C278 C277 1.363 . S
C278 C284 1.428 . S
H279 C275 0.930 . S
H280 C277 0.929 . S
S281 N282 1.613 . S
S281 N283 1.610 . S
N282 S281 1.613 . S
N282 C285 1.350 . S
N283 S281 1.610 . S
N283 C284 1.351 . S
C284 C278 1.428 . S
C284 N283 1.351 . S
C284 C285 1.434 . S
C285 C276 1.429 . S
C285 N282 1.350 . S
C285 C284 1.434 . S
C286 C287 1.369 . S
C286 C288 1.419 . S
C286 H290 0.930 . S
C287 C286 1.369 . S
C287 C296 1.429 . S
C288 C286 1.419 . S
C288 C289 1.363 . S
C288 H291 0.929 . S
C289 C288 1.363 . S
C289 C295 1.428 . S
H290 C286 0.930 . S
H291 C288 0.929 . S
S292 N293 1.613 . S
S292 N294 1.610 . S
N293 S292 1.613 . S
N293 C296 1.350 . S
N294 S292 1.610 . S
N294 C295 1.351 . S
C295 C289 1.428 . S
C295 N294 1.351 . S
C295 C296 1.434 . S
C296 C287 1.429 . S
C296 N293 1.350 . S
C296 C295 1.434 . S
C297 C298 1.369 . S
C297 C299 1.419 . S
C297 H301 0.930 . S
C298 C297 1.369 . S
C298 C307 1.429 . S
C299 C297 1.419 . S
C299 C300 1.363 . S
C299 H302 0.929 . S
C300 C299 1.363 . S
C300 C306 1.428 . S
H301 C297 0.930 . S
H302 C299 0.929 . S
S303 N304 1.613 . S
S303 N305 1.610 . S
N304 S303 1.613 . S
N304 C307 1.350 . S
N305 S303 1.610 . S
N305 C306 1.351 . S
C306 C300 1.428 . S
C306 N305 1.351 . S
C306 C307 1.434 . S
C307 C298 1.429 . S
C307 N304 1.350 . S
C307 C306 1.434 . S
C308 C309 1.369 . S
C308 C310 1.419 . S
C308 H312 0.930 . S
C309 C308 1.369 . S
C309 C318 1.429 . S
C310 C308 1.419 . S
C310 C311 1.363 . S
C310 H313 0.929 . S
C311 C310 1.363 . S
C311 C317 1.428 . S
H312 C308 0.930 . S
H313 C310 0.929 . S
S314 N315 1.613 . S
S314 N316 1.610 . S
N315 S314 1.613 . S
N315 C318 1.350 . S
N316 S314 1.610 . S
N316 C317 1.351 . S
C317 C311 1.428 . S
C317 N316 1.351 . S
C317 C318 1.434 . S
C318 C309 1.429 . S
C318 N315 1.350 . S
C318 C317 1.434 . S
C319 C320 1.369 . S
C319 C321 1.419 . S
C319 H323 0.930 . S
C320 C319 1.369 . S
C320 C329 1.429 . S
C321 C319 1.419 . S
C321 C322 1.363 . S
C321 H324 0.929 . S
C322 C321 1.363 . S
C322 C328 1.428 . S
H323 C319 0.930 . S
H324 C321 0.929 . S
S325 N326 1.613 . S
S325 N327 1.610 . S
N326 S325 1.613 . S
N326 C329 1.350 . S
N327 S325 1.610 . S
N327 C328 1.351 . S
C328 C322 1.428 . S
C328 N327 1.351 . S
C328 C329 1.434 . S
C329 C320 1.429 . S
C329 N326 1.350 . S
C329 C328 1.434 . S
C330 C331 1.369 . S
C330 C332 1.419 . S
C330 H334 0.930 . S
C331 C330 1.369 . S
C331 C340 1.429 . S
C332 C330 1.419 . S
C332 C333 1.363 . S
C332 H335 0.929 . S
C333 C332 1.363 . S
C333 C339 1.428 . S
H334 C330 0.930 . S
H335 C332 0.929 . S
S336 N337 1.613 . S
S336 N338 1.610 . S
N337 S336 1.613 . S
N337 C340 1.350 . S
N338 S336 1.610 . S
N338 C339 1.351 . S
C339 C333 1.428 . S
C339 N338 1.351 . S
C339 C340 1.434 . S
C340 C331 1.429 . S
C340 N337 1.350 . S
C340 C339 1.434 . S
C341 C342 1.369 . S
C341 C343 1.419 . S
C341 H345 0.930 . S
C342 C341 1.369 . S
C342 C351 1.429 . S
C343 C341 1.419 . S
C343 C344 1.363 . S
C343 H346 0.929 . S
C344 C343 1.363 . S
C344 C350 1.428 . S
H345 C341 0.930 . S
H346 C343 0.929 . S
S347 N348 1.613 . S
S347 N349 1.610 . S
N348 S347 1.613 . S
N348 C351 1.350 . S
N349 S347 1.610 . S
N349 C350 1.351 . S
C350 C344 1.428 . S
C350 N349 1.351 . S
C350 C351 1.434 . S
C351 C342 1.429 . S
C351 N348 1.350 . S
C351 C350 1.434 . S
C352 C353 1.369 . S
C352 C354 1.419 . S
C352 H356 0.930 . S
C353 C352 1.369 . S
C353 C362 1.429 1_554 S
C354 C352 1.419 . S
C354 C355 1.363 . S
C354 H357 0.929 . S
C355 C354 1.363 . S
C355 C361 1.428 1_554 S
H356 C352 0.930 . S
H357 C354 0.929 . S
S358 N359 1.613 . S
S358 N360 1.610 . S
N359 S358 1.613 . S
N359 C362 1.350 . S
N360 S358 1.610 . S
N360 C361 1.351 . S
C361 C355 1.428 1_556 S
C361 N360 1.351 . S
C361 C362 1.434 . S
C362 C353 1.429 1_556 S
C362 N359 1.350 . S
C362 C361 1.434 . S
C363 C364 1.369 . S
C363 C365 1.419 . S
C363 H367 0.930 . S
C364 C363 1.369 . S
C364 C373 1.429 . S
C365 C363 1.419 . S
C365 C366 1.363 . S
C365 H368 0.929 . S
C366 C365 1.363 . S
C366 C372 1.428 . S
H367 C363 0.930 . S
H368 C365 0.929 . S
S369 N370 1.613 . S
S369 N371 1.610 . S
N370 S369 1.613 . S
N370 C373 1.350 . S
N371 S369 1.610 . S
N371 C372 1.351 . S
C372 C366 1.428 . S
C372 N371 1.351 . S
C372 C373 1.434 . S
C373 C364 1.429 . S
C373 N370 1.350 . S
C373 C372 1.434 . S
C374 C375 1.369 . S
C374 C376 1.419 . S
C374 H378 0.930 . S
C375 C374 1.369 . S
C375 C384 1.429 1_554 S
C376 C374 1.419 . S
C376 C377 1.363 . S
C376 H379 0.929 . S
C377 C376 1.363 . S
C377 C383 1.428 1_554 S
H378 C374 0.930 . S
H379 C376 0.929 . S
S380 N381 1.613 . S
S380 N382 1.610 . S
N381 S380 1.613 . S
N381 C384 1.350 . S
N382 S380 1.610 . S
N382 C383 1.351 . S
C383 C377 1.428 1_556 S
C383 N382 1.351 . S
C383 C384 1.434 . S
C384 C375 1.429 1_556 S
C384 N381 1.350 . S
C384 C383 1.434 . S
C385 C386 1.369 . S
C385 C387 1.419 . S
C385 H389 0.930 . S
C386 C385 1.369 . S
C386 C395 1.429 . S
C387 C385 1.419 . S
C387 C388 1.363 . S
C387 H390 0.929 . S
C388 C387 1.363 . S
C388 C394 1.428 . S
H389 C385 0.930 . S
H390 C387 0.929 . S
S391 N392 1.613 . S
S391 N393 1.610 . S
N392 S391 1.613 . S
N392 C395 1.350 . S
N393 S391 1.610 . S
N393 C394 1.351 . S
C394 C388 1.428 . S
C394 N393 1.351 . S
C394 C395 1.434 . S
C395 C386 1.429 . S
C395 N392 1.350 . S
C395 C394 1.434 . S
C396 C397 1.369 . S
C396 C398 1.419 . S
C396 H400 0.930 . S
C397 C396 1.369 . S
C397 C406 1.429 . S
C398 C396 1.419 . S
C398 C399 1.363 . S
C398 H401 0.929 . S
C399 C398 1.363 . S
C399 C405 1.428 . S
H400 C396 0.930 . S
H401 C398 0.929 . S
S402 N403 1.613 . S
S402 N404 1.610 . S
N403 S402 1.613 . S
N403 C406 1.350 . S
N404 S402 1.610 . S
N404 C405 1.351 . S
C405 C399 1.428 . S
C405 N404 1.351 . S
C405 C406 1.434 . S
C406 C397 1.429 . S
C406 N403 1.350 . S
C406 C405 1.434 . S
C407 C408 1.369 1_556 S
C407 C409 1.419 . S
C407 H411 0.930 . S
C408 C407 1.369 1_554 S
C408 C417 1.429 . S
C409 C407 1.419 . S
C409 C410 1.363 1_556 S
C409 H412 0.929 . S
C410 C409 1.363 1_554 S
C410 C416 1.428 . S
H411 C407 0.930 . S
H412 C409 0.929 . S
S413 N414 1.613 . S
S413 N415 1.610 . S
N414 S413 1.613 . S
N414 C417 1.350 . S
N415 S413 1.610 . S
N415 C416 1.351 . S
C416 C410 1.428 . S
C416 N415 1.351 . S
C416 C417 1.434 . S
C417 C408 1.429 . S
C417 N414 1.350 . S
C417 C416 1.434 . S
C418 C419 1.369 . S
C418 C420 1.419 . S
C418 H422 0.930 . S
C419 C418 1.369 . S
C419 C428 1.429 . S
C420 C418 1.419 . S
C420 C421 1.363 . S
C420 H423 0.929 . S
C421 C420 1.363 . S
C421 C427 1.428 . S
H422 C418 0.930 . S
H423 C420 0.929 . S
S424 N425 1.613 . S
S424 N426 1.610 . S
N425 S424 1.613 . S
N425 C428 1.350 . S
N426 S424 1.610 . S
N426 C427 1.351 . S
C427 C421 1.428 . S
C427 N426 1.351 . S
C427 C428 1.434 . S
C428 C419 1.429 . S
C428 N425 1.350 . S
C428 C427 1.434 . S
C429 C430 1.369 1_556 S
C429 C431 1.419 . S
C429 H433 0.930 . S
C430 C429 1.369 1_554 S
C430 C439 1.429 . S
C431 C429 1.419 . S
C431 C432 1.363 1_556 S
C431 H434 0.929 . S
C432 C431 1.363 1_554 S
C432 C438 1.428 . S
H433 C429 0.930 . S
H434 C431 0.929 . S
S435 N436 1.613 . S
S435 N437 1.610 . S
N436 S435 1.613 . S
N436 C439 1.350 . S
N437 S435 1.610 . S
N437 C438 1.351 . S
C438 C432 1.428 . S
C438 N437 1.351 . S
C438 C439 1.434 . S
C439 C430 1.429 . S
C439 N436 1.350 . S
C439 C438 1.434 . S
C177 C5 1.455 . S
C179 C125 1.467 . S
C188 C31 1.472 . S
C190 C92 1.479 . S
C201 C104 1.475 . S
C199 C53 1.497 . S
C210 C71 1.481 . S
C212 C115 1.465 . S
C223 C148 1.466 . S
C221 C75 1.481 . S
C234 C159 1.476 . S
C232 C9 1.498 . S
C245 C169 1.481 . S
C243 C27 1.475 . S
C256 C136 1.466 . S
C254 C49 1.454 . S
C265 C51 1.458 . S
C267 C103 1.462 . S
C276 C72 1.471 . S
C278 C114 1.470 . S
C287 C6 1.497 . S
C289 C126 1.479 . S
C300 C93 1.465 . S
C298 C29 1.478 . S
C309 C28 1.478 . S
C311 C170 1.467 . S
C322 C137 1.478 . S
C320 C50 1.497 . S
C333 C147 1.474 . S
C331 C73 1.475 . S
C342 C7 1.453 . S
C344 C158 1.459 . S
C355 C98 1.510 . S
C353 C4 1.509 . S
C366 C109 1.512 . S
C364 C30 1.505 . S
C375 C52 1.506 . S
C377 C120 1.512 . S
C386 C70 1.509 . S
C388 C131 1.509 . S
C399 C142 1.509 . S
C397 C74 1.509 . S
C408 C8 1.509 . S
C410 C153 1.513 . S
C419 C26 1.509 . S
C421 C164 1.514 . S
C430 C48 1.507 . S
C432 C175 1.509 . S
