# Generated by pormake.
# Topology anh, (6,3)-cn, num edge types: 1
# Building blocks:
#     Node 0, Type 0, BuildingBlock: CUWYAW_clean_sbu_0, # of connection points: 6
#     Node 1, Type 0, BuildingBlock: CUWYAW_clean_sbu_0, # of connection points: 6
#     Node 2, Type 0, BuildingBlock: CUWYAW_clean_sbu_0, # of connection points: 6
#     Node 3, Type 1, BuildingBlock: VETTIZ_charged_linker_0, # of connection points: 3
#     Node 4, Type 1, BuildingBlock: VETTIZ_charged_linker_0, # of connection points: 3
#     Node 5, Type 1, BuildingBlock: VETTIZ_charged_linker_0, # of connection points: 3
#     Node 6, Type 1, BuildingBlock: VETTIZ_charged_linker_0, # of connection points: 3
#     Node 7, Type 1, BuildingBlock: VETTIZ_charged_linker_0, # of connection points: 3
#     Node 8, Type 1, BuildingBlock: VETTIZ_charged_linker_0, # of connection points: 3
#     Edge 9, Type (0, 1), BuildingBlock: XIVTED_clean_linker_0, # of connection points: 2
#     Edge 10, Type (0, 1), BuildingBlock: XIVTED_clean_linker_0, # of connection points: 2
#     Edge 11, Type (0, 1), BuildingBlock: XIVTED_clean_linker_0, # of connection points: 2
#     Edge 12, Type (0, 1), BuildingBlock: XIVTED_clean_linker_0, # of connection points: 2
#     Edge 13, Type (0, 1), BuildingBlock: XIVTED_clean_linker_0, # of connection points: 2
#     Edge 14, Type (0, 1), BuildingBlock: XIVTED_clean_linker_0, # of connection points: 2
#     Edge 15, Type (0, 1), BuildingBlock: XIVTED_clean_linker_0, # of connection points: 2
#     Edge 16, Type (0, 1), BuildingBlock: XIVTED_clean_linker_0, # of connection points: 2
#     Edge 17, Type (0, 1), BuildingBlock: XIVTED_clean_linker_0, # of connection points: 2
#     Edge 18, Type (0, 1), BuildingBlock: XIVTED_clean_linker_0, # of connection points: 2
#     Edge 19, Type (0, 1), BuildingBlock: XIVTED_clean_linker_0, # of connection points: 2
#     Edge 20, Type (0, 1), BuildingBlock: XIVTED_clean_linker_0, # of connection points: 2
#     Edge 21, Type (0, 1), BuildingBlock: XIVTED_clean_linker_0, # of connection points: 2
#     Edge 22, Type (0, 1), BuildingBlock: XIVTED_clean_linker_0, # of connection points: 2
#     Edge 23, Type (0, 1), BuildingBlock: XIVTED_clean_linker_0, # of connection points: 2
#     Edge 24, Type (0, 1), BuildingBlock: XIVTED_clean_linker_0, # of connection points: 2
#     Edge 25, Type (0, 1), BuildingBlock: XIVTED_clean_linker_0, # of connection points: 2
#     Edge 26, Type (0, 1), BuildingBlock: XIVTED_clean_linker_0, # of connection points: 2
# Relax obj value: 0.246
# Max RMSD: 0.187
# Mean RMSD: 0.158
data_MOF--net-anh--node1-CUWYAW_clean_sbu_0--node2-VETTIZ_charged_linker_0--edge1-XIVTED_clean_linker_0
_symmetry_space_group_name_H-M    P1
_symmetry_Int_Tables_number       1
_symmetry_cell_setting            triclinic
loop_
_symmetry_equiv_pos_as_xyz
'x, y, z'
_cell_length_a     38.021245
_cell_length_b     38.031113
_cell_length_c     67.412511
_cell_angle_alpha  89.86128
_cell_angle_beta   90.0188
_cell_angle_gamma 120.43245
loop_
_atom_site_label
_atom_site_type_symbol
_atom_site_fract_x
_atom_site_fract_y
_atom_site_fract_z
_atom_type_partial_charge
C0 C 1.011 0.43087 0.14977 0.0
Eu1 Eu 0.06549 0.50423 0.15983 0.0
C2 C 0.96655 0.41345 0.15215 0.0
C3 C 0.95023 0.41124 0.17114 0.0
C4 C 0.91191 0.40711 0.1733 0.0
C5 C 0.88888 0.40488 0.15657 0.0
C6 C 0.90343 0.4034 0.13762 0.0
C7 C 0.9421 0.40781 0.13543 0.0
C8 C 0.0802 0.52799 0.19862 0.0
C9 C 1.00807 0.55033 0.15959 0.0
C10 C 0.15796 0.66412 0.17472 0.0
Eu11 Eu 0.10721 0.59029 0.1633 0.0
C12 C 0.20202 0.69104 0.17183 0.0
C13 C 0.22061 0.69198 0.15365 0.0
C14 C 0.26254 0.71784 0.15109 0.0
C15 C 0.28654 0.7425 0.16678 0.0
C16 C 0.26801 0.74053 0.18513 0.0
C17 C 0.22603 0.71507 0.1876 0.0
C18 C 0.09002 0.5651 0.12551 0.0
C19 C 0.16547 0.54544 0.15709 0.0
O20 O 1.02814 0.46077 0.13696 0.0
O21 O 1.03233 0.43888 0.1661 0.0
O22 O 0.08416 0.49895 0.19097 0.0
O23 O 0.06796 0.54333 0.18548 0.0
O24 O 1.01067 0.51712 0.15582 0.0
O25 O 1.04249 0.5837 0.16516 0.0
O26 O 0.14731 0.63221 0.18599 0.0
O27 O 0.13527 0.65567 0.15886 0.0
O28 O 0.08673 0.59506 0.13247 0.0
O29 O 0.10393 0.55133 0.13839 0.0
O30 O 0.16379 0.57936 0.16072 0.0
O31 O 0.12977 0.51072 0.15509 0.0
H32 H 0.96802 0.41538 0.18439 0.0
H33 H 0.90086 0.40707 0.18811 0.0
H34 H 0.88607 0.40135 0.12449 0.0
H35 H 0.95402 0.40967 0.12062 0.0
H36 H 0.20272 0.67299 0.14137 0.0
H37 H 0.27619 0.71879 0.13685 0.0
H38 H 0.28579 0.75969 0.19738 0.0
H39 H 0.21226 0.71439 0.20177 0.0
C40 C 0.52122 0.13418 0.48828 0.0
Eu41 Eu 0.54752 0.08448 0.49616 0.0
C42 C 0.54403 0.17677 0.48141 0.0
C43 C 0.53859 0.20634 0.49101 0.0
C44 C 0.56667 0.24775 0.48811 0.0
C45 C 0.60057 0.25991 0.47568 0.0
C46 C 0.60406 0.23049 0.46481 0.0
C47 C 0.57601 0.18916 0.46765 0.0
C48 C 0.55641 0.06288 0.53369 0.0
C49 C 0.65114 0.14333 0.49378 0.0
C50 C 0.62196 0.99681 0.50297 0.0
Eu51 Eu 0.59332 0.04479 0.49607 0.0
C52 C 0.61001 0.95488 0.49767 0.0
C53 C 0.64045 0.94589 0.49308 0.0
C54 C 0.63005 0.90627 0.48809 0.0
C55 C 0.58891 0.8749 0.48756 0.0
C56 C 0.55833 0.88432 0.49155 0.0
C57 C 0.56881 0.92407 0.49655 0.0
C58 C 0.5821 0.06586 0.45942 0.0
C59 C 0.48964 0.98472 0.49227 0.0
O60 O 0.51859 0.10674 0.47577 0.0
O61 O 0.5303 0.12822 0.50619 0.0
O62 O 0.52277 0.05834 0.5264 0.0
O63 O 0.58461 0.07865 0.52074 0.0
O64 O 0.61488 0.13977 0.48984 0.0
O65 O 0.65051 0.10955 0.49955 0.0
O66 O 0.5983 1.00161 0.51543 0.0
O67 O 0.63402 1.02251 0.48818 0.0
O68 O 0.61642 0.07 0.46525 0.0
O69 O 0.55542 0.04965 0.47271 0.0
O70 O 0.52609 0.98719 0.49363 0.0
O71 O 0.48953 1.01975 0.49263 0.0
H72 H 0.51428 0.1974 0.50174 0.0
H73 H 0.56358 0.27009 0.4967 0.0
H74 H 0.62981 0.23941 0.455 0.0
H75 H 0.58099 0.16698 0.46004 0.0
H76 H 0.67236 0.96942 0.49371 0.0
H77 H 0.65442 0.89993 0.48554 0.0
H78 H 0.52641 0.86081 0.49123 0.0
H79 H 0.54477 0.93047 0.49984 0.0
C80 C 0.72614 0.61369 0.81875 0.0
Eu81 Eu 0.65172 0.5923 0.82779 0.0
C82 C 0.74372 0.58676 0.81833 0.0
C83 C 0.75342 0.5743 0.83615 0.0
C84 C 0.76041 0.54169 0.83634 0.0
C85 C 0.75809 0.52092 0.81873 0.0
C86 C 0.75122 0.53508 0.80072 0.0
C87 C 0.74417 0.56775 0.80052 0.0
C88 C 0.62532 0.58445 0.86608 0.0
C89 C 0.60582 0.48816 0.82736 0.0
C90 C 0.49195 0.52342 0.84026 0.0
Eu91 Eu 0.5665 0.5473 0.83025 0.0
C92 C 0.46738 0.543 0.83795 0.0
C93 C 0.46733 0.56186 0.81997 0.0
C94 C 0.44402 0.58056 0.81802 0.0
C95 C 0.42113 0.5814 0.83412 0.0
C96 C 0.42232 0.56372 0.85227 0.0
C97 C 0.44517 0.54454 0.85414 0.0
C98 C 0.59328 0.55384 0.79287 0.0
C99 C 0.61145 0.65091 0.82403 0.0
O100 O 0.69817 0.60574 0.80538 0.0
O101 O 0.71582 0.62065 0.83618 0.0
O102 O 0.65314 0.61835 0.85813 0.0
O103 O 0.61182 0.55594 0.85339 0.0
O104 O 0.63966 0.52451 0.82454 0.0
O105 O 0.5719 0.4887 0.8318 0.0
O106 O 0.52244 0.54123 0.85269 0.0
O107 O 0.50161 0.51184 0.82393 0.0
O108 O 0.56389 0.52026 0.8002 0.0
O109 O 0.60626 0.58258 0.80521 0.0
O110 O 0.57755 0.61517 0.82818 0.0
O111 O 0.64583 0.64986 0.82187 0.0
H112 H 0.75368 0.58837 0.85013 0.0
H113 H 0.76685 0.53218 0.85037 0.0
H114 H 0.74952 0.51981 0.78691 0.0
H115 H 0.73686 0.57667 0.78654 0.0
H116 H 0.485 0.56187 0.80737 0.0
H117 H 0.4435 0.59397 0.8039 0.0
H118 H 0.40434 0.56337 0.86481 0.0
H119 H 0.44525 0.53062 0.86817 0.0
C120 C 0.6123 0.2564 0.19616 0.0
C121 C 0.62685 0.29396 0.2059 0.0
C122 C 0.6152 0.29367 0.22583 0.0
C123 C 0.58249 0.21996 0.2268 0.0
C124 C 0.59043 0.22009 0.20681 0.0
C125 C 0.57674 0.17819 0.19897 0.0
H126 H 0.4966 0.97733 0.21634 0.0
C127 C 0.56427 0.17755 0.23403 0.0
C128 C 0.56032 0.15295 0.21769 0.0
H129 H 0.53461 0.0407 0.16006 0.0
H130 H 0.55498 0.10453 0.1765 0.0
H131 H 0.57663 0.04894 0.24161 0.0
H132 H 0.45235 1.01788 0.23204 0.0
H133 H 0.46422 1.03659 0.25637 0.0
H134 H 0.46526 0.99108 0.24983 0.0
H135 H 0.53337 1.00345 0.25113 0.0
H136 H 0.55598 0.05063 0.26465 0.0
C137 C 0.6146 0.17757 0.19081 0.0
C138 C 0.54266 0.16755 0.1835 0.0
C139 C 0.54908 0.14716 0.3081 0.0
C140 C 0.53473 0.11071 0.3189 0.0
C141 C 0.51734 0.07338 0.30865 0.0
C142 C 0.51604 0.07243 0.28793 0.0
C143 C 0.53237 0.10918 0.27729 0.0
C144 C 0.54721 0.14563 0.28732 0.0
C145 C 0.56139 0.1813 0.27336 0.0
C146 C 0.55438 0.1603 0.25337 0.0
C147 C 0.5381 0.1182 0.25587 0.0
C148 C 0.60719 0.21135 0.27734 0.0
C149 C 0.53379 0.2 0.27624 0.0
C150 C 0.51035 1.00502 0.20755 0.0
C151 C 0.51423 1.0039 0.18684 0.0
C152 C 0.53111 0.04067 0.17601 0.0
C153 C 0.54276 0.07767 0.18558 0.0
C154 C 0.53756 0.07797 0.20623 0.0
C155 C 0.52206 0.04209 0.21686 0.0
C156 C 0.51838 0.04794 0.23864 0.0
C157 C 0.53344 0.09325 0.2393 0.0
C158 C 0.54474 0.11063 0.22033 0.0
C159 C 0.54729 1.03703 0.24976 0.0
C160 C 0.47283 1.02192 0.24471 0.0
H161 H 0.58672 0.25862 0.25167 0.0
H162 H 0.62065 0.2549 0.18098 0.0
H163 H 0.52376 0.18113 0.18766 0.0
H164 H 0.52075 0.13446 0.18248 0.0
H165 H 0.55573 0.17944 0.16858 0.0
H166 H 0.64214 0.19737 0.19986 0.0
H167 H 0.62129 0.18884 0.17527 0.0
H168 H 0.61149 0.14712 0.19148 0.0
H169 H 0.56192 0.17617 0.31567 0.0
H170 H 0.50617 0.04494 0.31667 0.0
H171 H 0.50321 0.04312 0.28101 0.0
H172 H 0.62412 0.19464 0.27838 0.0
H173 H 0.61148 0.22783 0.29154 0.0
H174 H 0.62223 0.23414 0.26548 0.0
H175 H 0.50289 0.17679 0.28161 0.0
H176 H 0.52818 0.21142 0.26218 0.0
H177 H 0.54702 0.22512 0.28727 0.0
H178 H 0.62497 0.32199 0.23363 0.0
C179 C 0.59312 0.25685 0.23633 0.0
C180 C 0.67845 0.67065 0.52526 0.0
C181 C 0.65154 0.68253 0.53266 0.0
C182 C 0.64693 0.68399 0.55331 0.0
C183 C 0.69272 0.65833 0.55881 0.0
C184 C 0.69846 0.65836 0.53858 0.0
C185 C 0.72604 0.6422 0.53323 0.0
H186 H 0.76492 0.49857 0.55179 0.0
C187 C 0.71403 0.63965 0.56847 0.0
C188 C 0.73412 0.63056 0.55372 0.0
H189 H 0.80074 0.57803 0.50044 0.0
H190 H 0.7931 0.6277 0.51958 0.0
H191 H 0.82188 0.58565 0.58233 0.0
H192 H 0.69433 0.50424 0.56922 0.0
H193 H 0.702 0.51176 0.59513 0.0
H194 H 0.72544 0.48816 0.58192 0.0
H195 H 0.79368 0.5359 0.59334 0.0
H196 H 0.79344 0.57939 0.60393 0.0
C197 C 0.76529 0.6768 0.52332 0.0
C198 C 0.70177 0.60459 0.51968 0.0
C199 C 0.68882 0.60467 0.64141 0.0
C200 C 0.69417 0.57814 0.65394 0.0
C201 C 0.71282 0.55711 0.64606 0.0
C202 C 0.72538 0.56226 0.6261 0.0
C203 C 0.71865 0.58816 0.61378 0.0
C204 C 0.70036 0.60853 0.62154 0.0
C205 C 0.69209 0.63194 0.60614 0.0
C206 C 0.71152 0.62507 0.58809 0.0
C207 C 0.72694 0.59932 0.59255 0.0
C208 C 0.71452 0.67749 0.61211 0.0
C209 C 0.64499 0.61211 0.60408 0.0
C210 C 0.77208 0.527 0.54471 0.0
C211 C 0.7806 0.53317 0.52417 0.0
C212 C 0.79175 0.57153 0.51587 0.0
C213 C 0.78667 0.59987 0.52672 0.0
C214 C 0.7701 0.58931 0.5458 0.0
C215 C 0.76768 0.55616 0.55538 0.0
C216 C 0.75554 0.55446 0.57687 0.0
C217 C 0.74589 0.58876 0.57741 0.0
C218 C 0.75256 0.60734 0.55868 0.0
C219 C 0.79281 0.56404 0.58993 0.0
C220 C 0.71738 0.51241 0.58116 0.0
H221 H 0.66334 0.67455 0.58195 0.0
H222 H 0.68303 0.67004 0.50944 0.0
H223 H 0.67374 0.58097 0.52734 0.0
H224 H 0.71939 0.59023 0.5152 0.0
H225 H 0.69246 0.61325 0.50574 0.0
H226 H 0.76609 0.70645 0.52312 0.0
H227 H 0.76796 0.66947 0.50765 0.0
H228 H 0.79315 0.68264 0.53145 0.0
H229 H 0.67538 0.62203 0.64677 0.0
H230 H 0.7169 0.53594 0.65514 0.0
H231 H 0.73877 0.54504 0.62086 0.0
H232 H 0.74589 0.68739 0.61741 0.0
H233 H 0.69809 0.6829 0.62425 0.0
H234 H 0.71828 0.69782 0.59954 0.0
H235 H 0.62801 0.58177 0.61146 0.0
H236 H 0.63482 0.60594 0.58842 0.0
H237 H 0.63407 0.63148 0.61083 0.0
H238 H 0.62744 0.69448 0.55934 0.0
C239 C 0.66777 0.67243 0.56642 0.0
C240 C 0.12967 0.51646 0.85909 0.0
C241 C 0.16798 0.54445 0.86715 0.0
C242 C 0.17174 0.54936 0.88794 0.0
C243 C 0.10038 0.49895 0.89211 0.0
C244 C 0.09655 0.49386 0.8718 0.0
C245 C 1.0543 0.46144 0.86573 0.0
H246 H 0.8583 0.37409 0.88598 0.0
C247 C 0.06024 0.47165 0.9011 0.0
C248 C 1.03306 0.44935 0.88583 0.0
H249 H 0.9148 0.3644 0.83199 0.0
H250 H 0.97876 0.39081 0.84925 0.0
H251 H 0.90868 0.33575 0.91247 0.0
H252 H 0.92386 0.45506 0.90368 0.0
H253 H 0.92796 0.44685 0.92921 0.0
H254 H 0.88106 0.41429 0.91648 0.0
H255 H 0.8785 0.35189 0.92578 0.0
H256 H 0.92797 0.36303 0.93463 0.0
C257 C 0.05662 0.42589 0.85577 0.0
C258 C 1.03664 0.4815 0.85208 0.0
C259 C 1.0421 0.47839 0.97506 0.0
C260 C 1.00789 0.46167 0.98755 0.0
C261 C 0.96871 0.43771 0.9793 0.0
C262 C 0.96388 0.42978 0.95882 0.0
C263 C 0.9986 0.44654 0.94653 0.0
C264 C 1.0368 0.47071 0.95474 0.0
C265 C 0.07013 0.48786 0.93948 0.0
C266 C 1.04598 0.46803 0.92084 0.0
C267 C 1.00414 0.44392 0.92498 0.0
C268 C 0.10031 0.47299 0.94434 0.0
C269 C 0.08959 0.535 0.93921 0.0
C270 C 0.88388 0.37659 0.87777 0.0
C271 C 0.88189 0.37012 0.85704 0.0
C272 C 0.91593 0.37202 0.84753 0.0
C273 C 0.95313 0.38747 0.85747 0.0
C274 C 0.95599 0.40022 0.87715 0.0
C275 C 0.92118 0.39094 0.88757 0.0
C276 C 0.93 0.40143 0.90927 0.0
C277 C 0.97631 0.42259 0.90939 0.0
C278 C 0.99116 0.42318 0.89026 0.0
C279 C 0.91015 0.36113 0.92131 0.0
C280 C 0.91482 0.43083 0.91512 0.0
H281 H 0.14332 0.53173 0.91605 0.0
H282 H 0.12558 0.51166 0.84324 0.0
H283 H 1.03731 0.50776 0.85968 0.0
H284 H 1.00486 0.46045 0.84766 0.0
H285 H 1.05477 0.49293 0.8382 0.0
H286 H 0.08668 0.42816 0.85811 0.0
H287 H 1.0518 0.42531 0.83949 0.0
H288 H 1.03395 0.39586 0.86213 0.0
H289 H 0.07248 0.49783 0.98096 0.0
H290 H 0.94194 0.42483 0.98872 0.0
H291 H 0.9334 0.41139 0.95328 0.0
H292 H 0.08353 0.44045 0.94907 0.0
H293 H 0.12116 0.49108 0.95659 0.0
H294 H 0.11874 0.47421 0.93141 0.0
H295 H 0.06849 0.54455 0.94527 0.0
H296 H 0.09654 0.54786 0.92403 0.0
H297 H 0.11788 0.55017 0.94825 0.0
H298 H 0.20096 0.56954 0.89475 0.0
C299 C 0.13823 0.5269 0.9004 0.0
C300 C 0.96196 0.45483 0.47594 0.0
C301 C 0.92796 0.42078 0.46547 0.0
C302 C 0.93154 0.42265 0.44467 0.0
C303 C 0.99769 0.48741 0.44466 0.0
C304 C 0.99661 0.48819 0.46513 0.0
C305 C 1.03589 0.52843 0.47223 0.0
H306 H 0.22284 0.70575 0.43908 0.0
C307 C 1.0359 0.52461 0.43687 0.0
C308 C 0.05991 0.55028 0.4528 0.0
H309 H 0.18607 0.68644 0.50032 0.0
H310 H 0.12269 0.62172 0.49127 0.0
H311 H 0.19606 0.61498 0.42769 0.0
H312 H 0.13853 0.68691 0.42437 0.0
H313 H 0.12236 0.65675 0.40301 0.0
H314 H 0.1761 0.69224 0.40666 0.0
H315 H 0.21094 0.65592 0.41028 0.0
H316 H 0.17201 0.60437 0.40448 0.0
C317 C 0.06184 0.51769 0.48557 0.0
C318 C 1.02318 0.55548 0.48331 0.0
C319 C 1.05431 0.53456 0.36117 0.0
C320 C 0.08408 0.56384 0.34826 0.0
C321 C 0.11761 0.59837 0.35684 0.0
C322 C 0.12154 0.60363 0.37755 0.0
C323 C 0.09139 0.57439 0.3903 0.0
C324 C 0.05846 0.54069 0.38195 0.0
C325 C 1.02895 0.51321 0.39759 0.0
C326 C 1.04943 0.53568 0.4168 0.0
C327 C 0.08622 0.5715 0.41248 0.0
C328 C 1.02696 0.47147 0.39622 0.0
C329 C 0.98779 0.51164 0.394 0.0
C330 C 0.20212 0.68807 0.45093 0.0
C331 C 0.21185 0.70286 0.47061 0.0
C332 C 0.18119 0.67736 0.4849 0.0
C333 C 0.14409 0.63941 0.47969 0.0
C334 C 0.13543 0.62563 0.45969 0.0
C335 C 0.16497 0.65129 0.44598 0.0
C336 C 0.1521 0.63659 0.42525 0.0
C337 C 0.11114 0.59758 0.42811 0.0
C338 C 0.09937 0.58878 0.44846 0.0
C339 C 0.1844 0.6277 0.41627 0.0
C340 C 0.14724 0.66972 0.41408 0.0
H341 H 0.9638 0.45179 0.41879 0.0
H342 H 0.96129 0.45585 0.49196 0.0
H343 H 1.00403 0.56274 0.47361 0.0
H344 H 1.05036 0.5846 0.48787 0.0
H345 H 1.00528 0.53971 0.49681 0.0
H346 H 0.0706 0.49781 0.47749 0.0
H347 H 1.04454 0.50122 0.49909 0.0
H348 H 0.09017 0.54571 0.49022 0.0
H349 H 1.0279 0.50773 0.35525 0.0
H350 H 0.1414 0.62123 0.34748 0.0
H351 H 0.14827 0.63045 0.38277 0.0
H352 H 0.05669 0.47536 0.39134 0.0
H353 H 1.00349 0.45099 0.38539 0.0
H354 H 1.02106 0.45572 0.41069 0.0
H355 H 0.99258 0.54032 0.38705 0.0
H356 H 0.97125 0.50911 0.40792 0.0
H357 H 0.96762 0.48613 0.384 0.0
H358 H 0.9077 0.39863 0.43584 0.0
C359 C 0.96505 0.45444 0.43457 0.0
C360 C 0.60747 0.9602 0.80942 0.0
C361 C 0.60909 0.92761 0.79847 0.0
C362 C 0.61019 0.93212 0.77769 0.0
C363 C 0.60692 0.99554 0.77864 0.0
C364 C 0.60698 0.99439 0.79912 0.0
C365 C 0.6072 1.0338 0.80677 0.0
H366 H 0.59082 0.20801 0.77535 0.0
C367 C 0.6048 1.03234 0.77138 0.0
C368 C 0.60533 0.05669 0.78766 0.0
H369 H 0.62103 0.19554 0.83537 0.0
H370 H 0.61905 0.13085 0.82631 0.0
H371 H 0.6554 0.19246 0.75803 0.0
H372 H 0.5267 0.11549 0.76657 0.0
H373 H 0.53651 0.10212 0.74322 0.0
H374 H 0.54818 0.15379 0.74756 0.0
H375 H 0.61884 0.19458 0.74205 0.0
H376 H 0.639 0.16158 0.73697 0.0
C377 C 0.64681 0.06077 0.81824 0.0
C378 C 0.56985 1.02158 0.81997 0.0
C379 C 0.593 0.04389 0.69584 0.0
C380 C 0.5856 0.06984 0.68371 0.0
C381 C 0.58159 0.10077 0.69305 0.0
C382 C 0.58485 0.10593 0.71373 0.0
C383 C 0.59213 0.07986 0.72575 0.0
C384 C 0.5956 0.0492 0.71672 0.0
C385 C 0.60079 1.02294 0.73189 0.0
C386 C 0.60096 0.04339 0.75151 0.0
C387 C 0.59641 0.07715 0.74779 0.0
C388 C 0.64258 1.02625 0.72792 0.0
C389 C 0.56317 0.9792 0.73018 0.0
C390 C 0.59657 0.19186 0.78697 0.0
C391 C 0.60537 0.20865 0.80631 0.0
C392 C 0.61383 0.18495 0.82022 0.0
C393 C 0.61261 0.14696 0.815 0.0
C394 C 0.60385 0.13122 0.79529 0.0
C395 C 0.59696 0.1553 0.78193 0.0
C396 C 0.59252 0.13962 0.76127 0.0
C397 C 0.59728 0.10237 0.7637 0.0
C398 C 0.60283 0.09445 0.78385 0.0
C399 C 0.62788 0.17364 0.74877 0.0
C400 C 0.54894 0.12734 0.75408 0.0
H401 H 0.60978 0.96384 0.75225 0.0
H402 H 0.6073 0.95951 0.82546 0.0
H403 H 0.5413 1.00181 0.81161 0.0
H404 H 0.56925 0.04907 0.82502 0.0
H405 H 0.57047 1.00451 0.83324 0.0
H406 H 0.67373 0.06932 0.80863 0.0
H407 H 0.64882 0.04433 0.83145 0.0
H408 H 0.64825 0.08919 0.82331 0.0
H409 H 0.59557 1.01931 0.6893 0.0
H410 H 0.5761 0.12139 0.68425 0.0
H411 H 0.58145 0.13027 0.71947 0.0
H412 H 0.6653 0.05711 0.72229 0.0
H413 H 0.63984 1.00373 0.71666 0.0
H414 H 0.65667 1.0225 0.74152 0.0
H415 H 0.53589 0.97973 0.72461 0.0
H416 H 0.55327 0.96342 0.74466 0.0
H417 H 0.56913 0.96018 0.71979 0.0
H418 H 0.61158 0.90958 0.76845 0.0
C419 C 0.609 0.96451 0.76808 0.0
C420 C 0.69587 0.54771 0.14339 0.0
C421 C 0.72885 0.54598 0.13283 0.0
C422 C 0.72504 0.54453 0.11203 0.0
C423 C 0.66149 0.54761 0.1122 0.0
C424 C 0.66202 0.54804 0.13267 0.0
C425 C 0.62239 0.54806 0.13983 0.0
H426 H 0.44877 0.56305 0.106 0.0
C427 C 0.62489 0.54947 0.10446 0.0
C428 C 0.60009 0.54947 0.12041 0.0
H429 H 0.46061 0.5359 0.16672 0.0
H430 H 0.52543 0.53757 0.15831 0.0
H431 H 0.54191 0.62723 0.09721 0.0
H432 H 0.46562 0.49812 0.08971 0.0
H433 H 0.49664 0.51459 0.06863 0.0
H434 H 0.46305 0.53414 0.07346 0.0
H435 H 0.50388 0.60506 0.07818 0.0
H436 H 0.5556 0.6165 0.07415 0.0
C437 C 0.63426 0.58573 0.15265 0.0
C438 C 0.59502 0.50875 0.15151 0.0
C439 C 0.61546 0.55752 0.02872 0.0
C440 C 0.59016 0.56449 0.01594 0.0
C441 C 0.55927 0.56961 0.0246 0.0
C442 C 0.55336 0.56744 0.04528 0.0
C443 C 0.57876 0.56036 0.05794 0.0
C444 C 0.60953 0.55618 0.04951 0.0
C445 C 0.63534 0.55173 0.06514 0.0
C446 C 0.61438 0.55253 0.0844 0.0
C447 C 0.58077 0.55702 0.08011 0.0
C448 C 0.67916 0.58929 0.06329 0.0
C449 C 0.63207 0.50974 0.06199 0.0
C450 C 0.46479 0.55792 0.11791 0.0
C451 C 0.44774 0.55004 0.13724 0.0
C452 C 0.47134 0.54236 0.15154 0.0
C453 C 0.50942 0.5434 0.14671 0.0
C454 C 0.52542 0.55122 0.12702 0.0
C455 C 0.50154 0.55746 0.11326 0.0
C456 C 0.51781 0.56127 0.09272 0.0
C457 C 0.55508 0.5567 0.09569 0.0
C458 C 0.56247 0.55187 0.11604 0.0
C459 C 0.53023 0.60453 0.08496 0.0
C460 C 0.48422 0.52556 0.08032 0.0
H461 H 0.69406 0.54417 0.08625 0.0
H462 H 0.69603 0.54809 0.15943 0.0
H463 H 0.58675 0.48159 0.14218 0.0
H464 H 0.56645 0.50746 0.15623 0.0
H465 H 0.61104 0.50706 0.16495 0.0
H466 H 0.65431 0.61405 0.14414 0.0
H467 H 0.65092 0.58543 0.16614 0.0
H468 H 0.60664 0.5865 0.15734 0.0
H469 H 0.64006 0.55425 0.02271 0.0
H470 H 0.5392 0.57492 0.01527 0.0
H471 H 0.52899 0.57137 0.05056 0.0
H472 H 0.67889 0.61611 0.05682 0.0
H473 H 0.69867 0.58262 0.0536 0.0
H474 H 0.69428 0.60034 0.07782 0.0
H475 H 0.60132 0.48677 0.0564 0.0
H476 H 0.63547 0.49631 0.07592 0.0
H477 H 0.65485 0.51191 0.05101 0.0
H478 H 0.74786 0.54293 0.10308 0.0
C479 C 0.6929 0.54539 0.10204 0.0
H480 H 0.24476 0.61089 0.14722 0.0
H481 H 0.37877 0.49804 0.16176 0.0
H482 H 0.18606 0.48312 0.16111 0.0
H483 H 0.41819 0.60054 0.12254 0.0
H484 H 0.3131 0.49625 0.16633 0.0
H485 H 0.30999 0.612 0.1428 0.0
C486 C 0.24503 0.58283 0.1495 0.0
C487 C 0.20784 0.54676 0.15459 0.0
C488 C 0.33602 0.51939 0.15675 0.0
C489 C 0.28618 0.54817 0.14982 0.0
C490 C 0.3744 0.52064 0.15416 0.0
C491 C 0.40611 0.54953 0.14159 0.0
C492 C 0.32783 0.54799 0.14727 0.0
C493 C 0.39606 0.57725 0.13232 0.0
C494 C 0.28305 0.58355 0.14687 0.0
C495 C 0.21255 0.51199 0.15713 0.0
N496 N 0.35918 0.576 0.13546 0.0
N497 N 0.24995 0.51374 0.15499 0.0
H498 H 0.73245 0.1661 0.50444 0.0
H499 H 0.84674 0.39937 0.45941 0.0
H500 H 0.66815 0.21842 0.47648 0.0
H501 H 0.91363 0.35153 0.48907 0.0
H502 H 0.78271 0.33535 0.46649 0.0
H503 H 0.79715 0.23149 0.49976 0.0
C504 C 0.73133 0.19107 0.49734 0.0
C505 C 0.69286 0.18512 0.49111 0.0
C506 C 0.81109 0.33859 0.47178 0.0
C507 C 0.77009 0.26321 0.48538 0.0
C508 C 0.84838 0.37603 0.4679 0.0
C509 C 0.88736 0.38327 0.47405 0.0
C510 C 0.81081 0.30563 0.48179 0.0
C511 C 0.88544 0.3495 0.48438 0.0
C512 C 0.76904 0.22909 0.49465 0.0
C513 C 0.6957 0.22023 0.4819 0.0
N514 N 0.84877 0.31315 0.48775 0.0
N515 N 0.73255 0.25659 0.47938 0.0
H516 H 0.67309 0.72882 0.81061 0.0
H517 H 0.5529 0.8579 0.82189 0.0
H518 H 0.54904 0.67107 0.83109 0.0
H519 H 0.66738 0.90419 0.79161 0.0
H520 H 0.55235 0.79313 0.82816 0.0
H521 H 0.67277 0.79312 0.80621 0.0
C522 C 0.64552 0.72908 0.81431 0.0
C523 C 0.61106 0.69244 0.82135 0.0
C524 C 0.57805 0.81753 0.82037 0.0
C525 C 0.61066 0.76988 0.81631 0.0
C526 C 0.57868 0.85549 0.81695 0.0
C527 C 0.61089 0.88901 0.80651 0.0
C528 C 0.60992 0.81125 0.81348 0.0
C529 C 0.64202 0.88097 0.80008 0.0
C530 C 0.64541 0.76665 0.81173 0.0
C531 C 0.57678 0.69718 0.82563 0.0
N532 N 0.64077 0.84427 0.80366 0.0
N533 N 0.57762 0.73414 0.82318 0.0
H534 H 0.98582 0.60944 0.16979 0.0
H535 H 0.74971 0.48554 0.12802 0.0
H536 H 0.93178 0.49076 0.14325 0.0
H537 H 0.80019 0.60365 0.15485 0.0
H538 H 0.81387 0.48641 0.13476 0.0
H539 H 0.92037 0.60802 0.16551 0.0
C540 C 0.96052 0.58277 0.16309 0.0
C541 C 0.96617 0.54998 0.15715 0.0
C542 C 0.81125 0.51217 0.13948 0.0
C543 C 0.88774 0.54822 0.15189 0.0
C544 C 0.77368 0.51154 0.13579 0.0
C545 C 0.76699 0.54393 0.14125 0.0
C546 C 0.84506 0.54601 0.14857 0.0
C547 C 0.80164 0.57695 0.15071 0.0
C548 C 0.9224 0.58203 0.16062 0.0
C549 C 0.93046 0.51692 0.14845 0.0
N550 N 0.83809 0.57706 0.15389 0.0
N551 N 0.89406 0.51705 0.14616 0.0
H552 H 0.47611 0.90809 0.47886 0.0
H553 H 0.22929 0.76821 0.49732 0.0
H554 H 0.40681 0.96165 0.49947 0.0
H555 H 0.29138 0.7351 0.45461 0.0
H556 H 0.29351 0.83399 0.50247 0.0
H557 H 0.4117 0.84263 0.47413 0.0
C558 C 0.44767 0.90657 0.48258 0.0
C559 C 0.44866 0.94229 0.48966 0.0
C560 C 0.29339 0.81241 0.49199 0.0
C561 C 0.3717 0.86394 0.48444 0.0
C562 C 0.25614 0.77403 0.48907 0.0
C563 C 0.25305 0.74419 0.47533 0.0
C564 C 0.32988 0.82231 0.48164 0.0
C565 C 0.29053 0.75586 0.46528 0.0
C566 C 0.41023 0.86849 0.47976 0.0
C567 C 0.40915 0.93623 0.49394 0.0
N568 N 0.32629 0.7927 0.46871 0.0
N569 N 0.3734 0.89876 0.4915 0.0
H570 H 0.54094 0.40789 0.81947 0.0
H571 H 0.6604 0.27931 0.82904 0.0
H572 H 0.67027 0.47016 0.82926 0.0
H573 H 0.55176 0.23601 0.79403 0.0
H574 H 0.66171 0.34469 0.83387 0.0
H575 H 0.54115 0.34348 0.81484 0.0
C576 C 0.56963 0.40855 0.82084 0.0
C577 C 0.60568 0.44643 0.8249 0.0
C578 C 0.63731 0.32095 0.82519 0.0
C579 C 0.60596 0.36911 0.81979 0.0
C580 C 0.63634 0.28276 0.82247 0.0
C581 C 0.6058 0.25005 0.81099 0.0
C582 C 0.60681 0.3279 0.81699 0.0
C583 C 0.57629 0.25892 0.80296 0.0
C584 C 0.56969 0.371 0.81808 0.0
C585 C 0.64138 0.44299 0.82619 0.0
N586 N 0.57735 0.29562 0.80624 0.0
N587 N 0.64046 0.40602 0.82392 0.0
H588 H 0.5337 0.8092 0.50918 0.0
H589 H 0.57086 0.65964 0.53358 0.0
H590 H 0.62227 0.84323 0.46221 0.0
H591 H 0.68189 0.73343 0.50066 0.0
H592 H 0.53816 0.6903 0.51486 0.0
H593 H 0.53407 0.74642 0.51377 0.0
C594 C 0.55205 0.80268 0.49924 0.0
C595 C 0.57901 0.83208 0.48573 0.0
C596 C 0.56966 0.69992 0.51169 0.0
C597 C 0.58012 0.75999 0.49103 0.0
C598 C 0.58824 0.68225 0.52232 0.0
C599 C 0.62947 0.69516 0.51909 0.0
C600 C 0.59297 0.73145 0.49815 0.0
C601 C 0.65023 0.72321 0.50384 0.0
C602 C 0.55232 0.7665 0.50188 0.0
C603 C 0.60209 0.82192 0.4733 0.0
N604 N 0.63198 0.74107 0.49421 0.0
N605 N 0.60301 0.7872 0.47664 0.0
H606 H 0.72436 0.45773 0.84533 0.0
H607 H 0.88719 0.39924 0.81902 0.0
H608 H 0.80162 0.5008 0.79352 0.0
H609 H 0.80114 0.34307 0.86724 0.0
H610 H 0.84324 0.4204 0.80438 0.0
H611 H 0.73993 0.40323 0.84904 0.0
C612 C 0.74431 0.45546 0.83461 0.0
C613 C 0.76262 0.48448 0.81939 0.0
C614 C 0.83346 0.40278 0.81799 0.0
C615 C 0.78065 0.42223 0.82357 0.0
C616 C 0.85854 0.39004 0.8264 0.0
C617 C 0.84908 0.37058 0.84505 0.0
C618 C 0.79912 0.39708 0.82845 0.0
C619 C 0.81107 0.3599 0.85344 0.0
C620 C 0.75292 0.42411 0.83664 0.0
C621 C 0.78723 0.47939 0.8056 0.0
N622 N 0.78808 0.37442 0.84541 0.0
N623 N 0.79619 0.44938 0.80826 0.0
H624 H 0.35119 0.75761 0.19035 0.0
H625 H 0.47005 0.98093 0.15238 0.0
H626 H 0.32039 0.7972 0.13647 0.0
H627 H 0.51589 0.93534 0.19825 0.0
H628 H 0.42492 0.91137 0.14129 0.0
H629 H 0.4194 0.8179 0.18908 0.0
C630 C 0.35919 0.77867 0.17804 0.0
C631 C 0.33004 0.77306 0.16374 0.0
C632 C 0.44551 0.91654 0.15349 0.0
C633 C 0.40754 0.84232 0.1623 0.0
C634 C 0.47159 0.95643 0.15977 0.0
C635 C 0.49588 0.9639 0.17669 0.0
C636 C 0.44321 0.88396 0.16444 0.0
C637 C 0.4965 0.93081 0.1856 0.0
C638 C 0.39813 0.81301 0.17724 0.0
C639 C 0.34197 0.8007 0.14788 0.0
N640 N 0.46973 0.89217 0.1797 0.0
N641 N 0.37955 0.83471 0.14784 0.0
H642 H 0.67787 0.28461 0.48711 0.0
H643 H 0.74078 0.51819 0.48885 0.0
H644 H 0.60091 0.33054 0.46738 0.0
H645 H 0.79005 0.46627 0.5296 0.0
H646 H 0.70507 0.45352 0.47154 0.0
H647 H 0.73275 0.35451 0.49356 0.0
C648 C 0.67307 0.30959 0.48357 0.0
C649 C 0.63514 0.30209 0.47659 0.0
C650 C 0.72441 0.45657 0.484 0.0
C651 C 0.69715 0.38165 0.48418 0.0
C652 C 0.74535 0.4937 0.49382 0.0
C653 C 0.76827 0.4977 0.51093 0.0
C654 C 0.72628 0.42308 0.49128 0.0
C655 C 0.77217 0.46436 0.51671 0.0
C656 C 0.70417 0.34932 0.48743 0.0
C657 C 0.62982 0.33526 0.47278 0.0
N658 N 0.75085 0.42815 0.50706 0.0
N659 N 0.6605 0.37373 0.47672 0.0
H660 H 0.41087 0.63356 0.85797 0.0
H661 H 0.18514 0.51478 0.83368 0.0
H662 H 0.36498 0.56152 0.80482 0.0
H663 H 0.23553 0.62122 0.87129 0.0
H664 H 0.25109 0.5414 0.81802 0.0
H665 H 0.35065 0.64085 0.85881 0.0
C666 C 0.38856 0.62026 0.84617 0.0
C667 C 0.39216 0.59605 0.83161 0.0
C668 C 0.24762 0.55953 0.82937 0.0
C669 C 0.32303 0.6034 0.83265 0.0
C670 C 0.20966 0.54434 0.83834 0.0
C671 C 0.2049 0.56504 0.85439 0.0
C672 C 0.28133 0.59501 0.83687 0.0
C673 C 0.23819 0.60323 0.85962 0.0
C674 C 0.35427 0.62451 0.84658 0.0
C675 C 0.36297 0.58 0.81645 0.0
N676 N 0.27534 0.61644 0.85129 0.0
N677 N 0.32896 0.58298 0.81767 0.0
H678 H 0.87607 0.45543 0.18026 0.0
H679 H 0.69312 0.35736 0.22407 0.0
H680 H 0.81484 0.35666 0.1386 0.0
H681 H 0.63845 0.31658 0.16627 0.0
H682 H 0.75756 0.40248 0.20841 0.0
H683 H 0.81057 0.44875 0.18886 0.0
C684 C 0.84876 0.43239 0.17287 0.0
C685 C 0.85055 0.40548 0.15924 0.0
C686 C 0.7313 0.38498 0.199 0.0
C687 C 0.77558 0.39701 0.16939 0.0
C688 C 0.694 0.35898 0.20803 0.0
C689 C 0.66033 0.33165 0.19656 0.0
C690 C 0.73519 0.38318 0.17835 0.0
C691 C 0.66404 0.33563 0.17579 0.0
C692 C 0.81144 0.42862 0.1778 0.0
C693 C 0.81463 0.37741 0.14949 0.0
N694 N 0.70122 0.35964 0.16735 0.0
N695 N 0.77838 0.37329 0.15508 0.0
H696 H 0.10269 0.50863 0.10718 0.0
H697 H 0.97051 0.4913 0.01131 0.0
H698 H 1.04474 0.58016 0.0992 0.0
H699 H 0.05947 0.45285 0.01231 0.0
H700 H 0.98762 0.51373 0.0459 0.0
H701 H 0.07809 0.47837 0.07441 0.0
C702 C 0.08483 0.51797 0.09848 0.0
C703 C 0.07602 0.54716 0.10573 0.0
C704 C 1.00312 0.50007 0.03856 0.0
C705 C 1.0474 0.51243 0.06849 0.0
C706 C 0.99312 0.48699 0.01895 0.0
C707 C 1.0138 0.47046 0.00902 0.0
C708 C 1.03363 0.49608 0.04829 0.0
C709 C 1.04313 0.46582 0.01945 0.0
C710 C 0.07077 0.5007 0.07984 0.0
C711 C 1.05252 0.55803 0.09401 0.0
N712 N 1.05226 0.47866 0.03852 0.0
N713 N 1.03894 0.54061 0.07594 0.0
H714 H 0.50881 0.04657 0.4433 0.0
H715 H 0.6041 0.15859 0.34002 0.0
H716 H 0.6378 0.10991 0.43063 0.0
H717 H 0.47861 0.06322 0.34697 0.0
H718 H 0.61559 0.15221 0.3753 0.0
H719 H 0.49619 0.063 0.40988 0.0
C720 C 0.53447 0.06406 0.43347 0.0
C721 C 0.57435 0.07654 0.43955 0.0
C722 C 0.58546 0.133 0.36912 0.0
C723 C 0.56023 0.09574 0.40151 0.0
C724 C 0.5788 0.13688 0.34908 0.0
C725 C 0.5404 0.11123 0.34062 0.0
C726 C 0.55337 0.10355 0.38077 0.0
C727 C 0.50875 0.08327 0.35292 0.0
C728 C 0.52726 0.0734 0.41444 0.0
C729 C 0.60656 0.09935 0.42636 0.0
N730 N 0.51596 0.08006 0.37239 0.0
N731 N 0.5988 0.10821 0.4079 0.0
H732 H 0.59899 0.49514 0.77277 0.0
H733 H 0.62776 0.58042 0.6686 0.0
H734 H 0.62737 0.61999 0.76832 0.0
H735 H 0.72565 0.5612 0.68733 0.0
H736 H 0.60738 0.57672 0.70312 0.0
H737 H 0.62684 0.50056 0.73917 0.0
C738 C 0.61104 0.5236 0.76467 0.0
C739 C 0.61076 0.55715 0.77308 0.0
C740 C 0.6333 0.57337 0.69951 0.0
C741 C 0.64161 0.56307 0.73505 0.0
C742 C 0.64536 0.57582 0.67985 0.0
C743 C 0.67938 0.57222 0.67487 0.0
C744 C 0.6543 0.56579 0.71431 0.0
C745 C 0.69926 0.56407 0.69029 0.0
C746 C 0.62709 0.52667 0.74571 0.0
C747 C 0.62707 0.59352 0.76222 0.0
N748 N 0.68626 0.56088 0.70938 0.0
N749 N 0.64118 0.59533 0.7435 0.0
H750 H 0.62522 0.0757 0.55462 0.0
H751 H 0.52541 0.06805 0.66071 0.0
H752 H 0.50076 0.04608 0.56303 0.0
H753 H 0.63444 0.06057 0.65597 0.0
H754 H 0.51917 0.06463 0.62462 0.0
H755 H 0.63262 0.07462 0.59104 0.0
C756 C 0.59947 0.06888 0.56405 0.0
C757 C 0.56233 0.06113 0.55562 0.0
C758 C 0.54445 0.06354 0.63137 0.0
C759 C 0.57071 0.06023 0.59736 0.0
C760 C 0.54809 0.06562 0.65207 0.0
C761 C 0.58056 0.06469 0.66155 0.0
C762 C 0.57377 0.0611 0.61967 0.0
C763 C 0.60876 0.06114 0.64938 0.0
C764 C 0.60369 0.0682 0.58485 0.0
C765 C 0.53004 0.05239 0.56869 0.0
N766 N 0.60497 0.05988 0.62913 0.0
N767 N 0.53507 0.05249 0.58871 0.0
H768 H 0.59312 0.514 0.88887 0.0
H769 H 0.59409 0.62313 0.99069 0.0
H770 H 0.64083 0.64338 0.89342 0.0
H771 H 0.59914 0.51248 0.99047 0.0
H772 H 0.60143 0.62688 0.95449 0.0
H773 H 0.5851 0.50843 0.9253 0.0
C774 C 0.6016 0.54116 0.89748 0.0
C775 C 0.61774 0.57926 0.888 0.0
C776 C 0.60099 0.60177 0.96232 0.0
C777 C 0.60825 0.57303 0.92973 0.0
C778 C 0.59666 0.59952 0.98303 0.0
C779 C 0.59604 0.56746 -0.00622 0.0
C780 C 0.60391 0.57129 0.95196 0.0
C781 C 0.59978 0.53793 0.98289 0.0
C782 C 0.59725 0.538 0.91829 0.0
C783 C 0.62838 0.61341 0.90001 0.0
N784 N 0.60317 0.54033 0.96264 0.0
N785 N 0.62322 0.60946 0.9201 0.0
H786 H 0.08146 0.47916 0.22803 0.0
H787 H 0.09899 0.62144 0.31938 0.0
H788 H 0.0775 0.58947 0.21958 0.0
H789 H 0.06223 0.49464 0.32615 0.0
H790 H 0.09678 0.61326 0.28318 0.0
H791 H 0.08027 0.4873 0.26394 0.0
C792 C 0.08037 0.50522 0.2337 0.0
C793 C 0.07948 0.53362 0.22061 0.0
C794 C 0.08902 0.58718 0.29257 0.0
C795 C 0.07854 0.5434 0.26218 0.0
C796 C 0.09046 0.59183 0.3133 0.0
C797 C 0.08086 0.5587 0.32603 0.0
C798 C 0.07858 0.54923 0.28428 0.0
C799 C 0.0696 0.52103 0.31709 0.0
C800 C 0.07955 0.50975 0.2543 0.0
C801 C 0.07808 0.56672 0.22903 0.0
N802 N 0.06916 0.51747 0.2969 0.0
N803 N 0.07794 0.57084 0.24922 0.0
loop_
_geom_bond_atom_site_label_1
_geom_bond_atom_site_label_2
_geom_bond_distance
_geom_bond_site_symmetry_2
_ccdc_geom_bond_type
C0 Eu1 2.818 1_655 S
C0 C2 1.500 . S
C0 O20 1.257 . S
C0 O21 1.260 . S
Eu1 C0 2.818 1_455 S
Eu1 O20 2.456 1_455 S
Eu1 O21 2.466 1_455 S
Eu1 O22 2.430 . S
Eu1 O23 2.673 . S
Eu1 O24 2.372 1_455 S
Eu1 O29 2.352 . S
Eu1 O31 2.397 . S
C2 C0 1.500 . S
C2 C3 1.377 . S
C2 C7 1.377 . S
C3 C2 1.377 . S
C3 C4 1.395 . S
C3 H32 0.931 . S
C4 C3 1.395 . S
C4 C5 1.383 . S
C4 H33 0.931 . S
C5 C4 1.383 . S
C5 C6 1.394 . S
C6 C5 1.394 . S
C6 C7 1.378 . S
C6 H34 0.931 . S
C7 C2 1.377 . S
C7 C6 1.378 . S
C7 H35 0.931 . S
C8 O22 1.259 . S
C8 O23 1.270 . S
C9 O24 1.251 . S
C9 O25 1.251 . S
C10 Eu11 2.835 . S
C10 C12 1.500 . S
C10 O26 1.257 . S
C10 O27 1.260 . S
Eu11 C10 2.835 . S
Eu11 O23 2.355 . S
Eu11 O25 2.374 1_455 S
Eu11 O26 2.473 . S
Eu11 O27 2.480 . S
Eu11 O28 2.430 . S
Eu11 O29 2.670 . S
Eu11 O30 2.394 . S
C12 C10 1.500 . S
C12 C13 1.377 . S
C12 C17 1.377 . S
C13 C12 1.377 . S
C13 C14 1.395 . S
C13 H36 0.931 . S
C14 C13 1.395 . S
C14 C15 1.383 . S
C14 H37 0.931 . S
C15 C14 1.383 . S
C15 C16 1.394 . S
C16 C15 1.394 . S
C16 C17 1.378 . S
C16 H38 0.931 . S
C17 C12 1.377 . S
C17 C16 1.378 . S
C17 H39 0.931 . S
C18 O28 1.259 . S
C18 O29 1.270 . S
C19 O30 1.251 . S
C19 O31 1.251 . S
O20 C0 1.257 . S
O20 Eu1 2.456 1_655 S
O21 C0 1.260 . S
O21 Eu1 2.466 1_655 S
O22 Eu1 2.430 . S
O22 C8 1.259 . S
O23 Eu1 2.673 . S
O23 C8 1.270 . S
O23 Eu11 2.355 . S
O24 Eu1 2.372 1_655 S
O24 C9 1.251 . S
O25 C9 1.251 . S
O25 Eu11 2.374 1_655 S
O26 C10 1.257 . S
O26 Eu11 2.473 . S
O27 C10 1.260 . S
O27 Eu11 2.480 . S
O28 Eu11 2.430 . S
O28 C18 1.259 . S
O29 Eu1 2.352 . S
O29 Eu11 2.670 . S
O29 C18 1.270 . S
O30 Eu11 2.394 . S
O30 C19 1.251 . S
O31 Eu1 2.397 . S
O31 C19 1.251 . S
H32 C3 0.931 . S
H33 C4 0.931 . S
H34 C6 0.931 . S
H35 C7 0.931 . S
H36 C13 0.931 . S
H37 C14 0.931 . S
H38 C16 0.931 . S
H39 C17 0.931 . S
C40 Eu41 2.835 . S
C40 C42 1.500 . S
C40 O60 1.257 . S
C40 O61 1.260 . S
Eu41 C40 2.835 . S
Eu41 O60 2.473 . S
Eu41 O61 2.480 . S
Eu41 O62 2.430 . S
Eu41 O63 2.670 . S
Eu41 O64 2.394 . S
Eu41 O69 2.355 . S
Eu41 O71 2.374 1_545 S
C42 C40 1.500 . S
C42 C43 1.377 . S
C42 C47 1.377 . S
C43 C42 1.377 . S
C43 C44 1.395 . S
C43 H72 0.931 . S
C44 C43 1.395 . S
C44 C45 1.383 . S
C44 H73 0.931 . S
C45 C44 1.383 . S
C45 C46 1.394 . S
C46 C45 1.394 . S
C46 C47 1.378 . S
C46 H74 0.931 . S
C47 C42 1.377 . S
C47 C46 1.378 . S
C47 H75 0.931 . S
C48 O62 1.259 . S
C48 O63 1.270 . S
C49 O64 1.251 . S
C49 O65 1.251 . S
C50 Eu51 2.835 1_565 S
C50 C52 1.500 . S
C50 O66 1.257 . S
C50 O67 1.260 . S
Eu51 C50 2.835 1_545 S
Eu51 O63 2.355 . S
Eu51 O65 2.374 . S
Eu51 O66 2.473 1_545 S
Eu51 O67 2.480 1_545 S
Eu51 O68 2.430 . S
Eu51 O69 2.670 . S
Eu51 O70 2.394 1_545 S
C52 C50 1.500 . S
C52 C53 1.377 . S
C52 C57 1.377 . S
C53 C52 1.377 . S
C53 C54 1.395 . S
C53 H76 0.931 . S
C54 C53 1.395 . S
C54 C55 1.383 . S
C54 H77 0.931 . S
C55 C54 1.383 . S
C55 C56 1.394 . S
C56 C55 1.394 . S
C56 C57 1.378 . S
C56 H78 0.931 . S
C57 C52 1.377 . S
C57 C56 1.378 . S
C57 H79 0.931 . S
C58 O68 1.259 . S
C58 O69 1.270 . S
C59 O70 1.251 . S
C59 O71 1.251 . S
O60 C40 1.257 . S
O60 Eu41 2.473 . S
O61 C40 1.260 . S
O61 Eu41 2.480 . S
O62 Eu41 2.430 . S
O62 C48 1.259 . S
O63 Eu41 2.670 . S
O63 C48 1.270 . S
O63 Eu51 2.355 . S
O64 Eu41 2.394 . S
O64 C49 1.251 . S
O65 C49 1.251 . S
O65 Eu51 2.374 . S
O66 C50 1.257 . S
O66 Eu51 2.473 1_565 S
O67 C50 1.260 . S
O67 Eu51 2.480 1_565 S
O68 Eu51 2.430 . S
O68 C58 1.259 . S
O69 Eu41 2.355 . S
O69 Eu51 2.670 . S
O69 C58 1.270 . S
O70 Eu51 2.394 1_565 S
O70 C59 1.251 . S
O71 Eu41 2.374 1_565 S
O71 C59 1.251 . S
H72 C43 0.931 . S
H73 C44 0.931 . S
H74 C46 0.931 . S
H75 C47 0.931 . S
H76 C53 0.931 . S
H77 C54 0.931 . S
H78 C56 0.931 . S
H79 C57 0.931 . S
C80 Eu81 2.835 . S
C80 C82 1.500 . S
C80 O100 1.257 . S
C80 O101 1.260 . S
Eu81 C80 2.835 . S
Eu81 O100 2.473 . S
Eu81 O101 2.480 . S
Eu81 O102 2.430 . S
Eu81 O103 2.670 . S
Eu81 O104 2.394 . S
Eu81 O109 2.355 . S
Eu81 O111 2.374 . S
C82 C80 1.500 . S
C82 C83 1.377 . S
C82 C87 1.377 . S
C83 C82 1.377 . S
C83 C84 1.395 . S
C83 H112 0.931 . S
C84 C83 1.395 . S
C84 C85 1.383 . S
C84 H113 0.931 . S
C85 C84 1.383 . S
C85 C86 1.394 . S
C86 C85 1.394 . S
C86 C87 1.378 . S
C86 H114 0.931 . S
C87 C82 1.377 . S
C87 C86 1.378 . S
C87 H115 0.931 . S
C88 O102 1.259 . S
C88 O103 1.270 . S
C89 O104 1.251 . S
C89 O105 1.251 . S
C90 Eu91 2.835 . S
C90 C92 1.500 . S
C90 O106 1.257 . S
C90 O107 1.260 . S
Eu91 C90 2.835 . S
Eu91 O103 2.355 . S
Eu91 O105 2.374 . S
Eu91 O106 2.473 . S
Eu91 O107 2.480 . S
Eu91 O108 2.430 . S
Eu91 O109 2.670 . S
Eu91 O110 2.394 . S
C92 C90 1.500 . S
C92 C93 1.377 . S
C92 C97 1.377 . S
C93 C92 1.377 . S
C93 C94 1.395 . S
C93 H116 0.931 . S
C94 C93 1.395 . S
C94 C95 1.383 . S
C94 H117 0.931 . S
C95 C94 1.383 . S
C95 C96 1.394 . S
C96 C95 1.394 . S
C96 C97 1.378 . S
C96 H118 0.931 . S
C97 C92 1.377 . S
C97 C96 1.378 . S
C97 H119 0.931 . S
C98 O108 1.259 . S
C98 O109 1.270 . S
C99 O110 1.251 . S
C99 O111 1.251 . S
O100 C80 1.257 . S
O100 Eu81 2.473 . S
O101 C80 1.260 . S
O101 Eu81 2.480 . S
O102 Eu81 2.430 . S
O102 C88 1.259 . S
O103 Eu81 2.670 . S
O103 C88 1.270 . S
O103 Eu91 2.355 . S
O104 Eu81 2.394 . S
O104 C89 1.251 . S
O105 C89 1.251 . S
O105 Eu91 2.374 . S
O106 C90 1.257 . S
O106 Eu91 2.473 . S
O107 C90 1.260 . S
O107 Eu91 2.480 . S
O108 Eu91 2.430 . S
O108 C98 1.259 . S
O109 Eu81 2.355 . S
O109 Eu91 2.670 . S
O109 C98 1.270 . S
O110 Eu91 2.394 . S
O110 C99 1.251 . S
O111 Eu81 2.374 . S
O111 C99 1.251 . S
H112 C83 0.931 . S
H113 C84 0.931 . S
H114 C86 0.931 . S
H115 C87 0.931 . S
H116 C93 0.931 . S
H117 C94 0.931 . S
H118 C96 0.931 . S
H119 C97 0.931 . S
C120 C121 1.391 . S
C120 C124 1.391 . S
C120 H162 0.948 . S
C121 C120 1.391 . S
C121 C122 1.391 . S
C122 C121 1.391 . S
C122 H178 0.947 . S
C122 C179 1.392 . S
C123 C124 1.391 . S
C123 C127 1.397 . S
C123 C179 1.419 . S
C124 C120 1.391 . S
C124 C123 1.391 . S
C124 C125 1.399 . S
C125 C124 1.399 . S
C125 C128 1.396 . S
C125 C137 1.453 . S
C125 C138 1.684 . S
H126 C150 0.948 . S
C127 C123 1.397 . S
C127 C128 1.394 . S
C127 C146 1.723 . S
C128 C125 1.396 . S
C128 C127 1.394 . S
C128 C158 1.723 . S
H129 C152 0.947 . S
H130 C153 0.946 1_545 S
H131 C159 0.982 . S
H132 C160 0.979 . S
H133 C160 0.980 . S
H134 C160 0.983 . S
H135 C159 0.979 . S
H136 C159 0.977 . S
C137 C125 1.453 . S
C137 H166 0.982 . S
C137 H167 0.979 . S
C137 H168 0.977 . S
C138 C125 1.684 . S
C138 H163 0.979 . S
C138 H164 0.980 . S
C138 H165 0.983 . S
C139 C140 1.391 . S
C139 C144 1.391 . S
C139 H169 0.948 . S
C140 C139 1.391 . S
C140 C141 1.391 . S
C141 C140 1.391 . S
C141 C142 1.392 . S
C141 H170 0.947 1_545 S
C142 C141 1.392 . S
C142 C143 1.419 . S
C142 H171 0.948 1_545 S
C143 C142 1.419 . S
C143 C144 1.391 . S
C143 C147 1.397 . S
C144 C139 1.391 . S
C144 C143 1.391 . S
C144 C145 1.399 . S
C145 C144 1.399 . S
C145 C146 1.396 . S
C145 C148 1.453 . S
C145 C149 1.684 . S
C146 C127 1.723 . S
C146 C145 1.396 . S
C146 C147 1.394 . S
C147 C143 1.397 . S
C147 C146 1.394 . S
C147 C157 1.723 . S
C148 C145 1.453 . S
C148 H172 0.982 . S
C148 H173 0.979 . S
C148 H174 0.977 . S
C149 C145 1.684 . S
C149 H175 0.979 . S
C149 H176 0.980 . S
C149 H177 0.983 . S
C150 H126 0.948 . S
C150 C151 1.391 . S
C150 C155 1.391 . S
C151 C150 1.391 . S
C151 C152 1.391 . S
C152 H129 0.947 . S
C152 C151 1.391 . S
C152 C153 1.394 . S
C153 H130 0.946 1_565 S
C153 C152 1.394 . S
C153 C154 1.419 1_565 S
C154 C153 1.419 1_545 S
C154 C155 1.390 1_545 S
C154 C158 1.398 . S
C155 C150 1.391 . S
C155 C154 1.390 1_565 S
C155 C156 1.399 . S
C156 C155 1.399 . S
C156 C157 1.396 1_565 S
C156 C159 1.453 . S
C156 C160 1.684 . S
C157 C147 1.723 . S
C157 C156 1.396 1_545 S
C157 C158 1.394 . S
C158 C128 1.723 . S
C158 C154 1.398 . S
C158 C157 1.394 . S
C159 H131 0.982 . S
C159 H135 0.979 . S
C159 H136 0.977 . S
C159 C156 1.453 . S
C160 H132 0.979 . S
C160 H133 0.980 . S
C160 H134 0.983 . S
C160 C156 1.684 . S
H161 C179 0.948 . S
H162 C120 0.948 . S
H163 C138 0.979 . S
H164 C138 0.980 . S
H165 C138 0.983 . S
H166 C137 0.982 . S
H167 C137 0.979 . S
H168 C137 0.977 . S
H169 C139 0.948 . S
H170 C141 0.947 1_565 S
H171 C142 0.948 1_565 S
H172 C148 0.982 . S
H173 C148 0.979 . S
H174 C148 0.977 . S
H175 C149 0.979 . S
H176 C149 0.980 . S
H177 C149 0.983 . S
H178 C122 0.947 . S
C179 C122 1.392 . S
C179 C123 1.419 . S
C179 H161 0.948 . S
C180 C181 1.391 . S
C180 C184 1.391 . S
C180 H222 0.948 . S
C181 C180 1.391 . S
C181 C182 1.391 . S
C182 C181 1.391 . S
C182 H238 0.947 . S
C182 C239 1.392 . S
C183 C184 1.391 . S
C183 C187 1.397 . S
C183 C239 1.419 . S
C184 C180 1.391 . S
C184 C183 1.391 . S
C184 C185 1.399 . S
C185 C184 1.399 . S
C185 C188 1.396 . S
C185 C197 1.453 . S
C185 C198 1.684 . S
H186 C210 0.948 . S
C187 C183 1.397 . S
C187 C188 1.394 . S
C187 C206 1.723 . S
C188 C185 1.396 . S
C188 C187 1.394 . S
C188 C218 1.723 . S
H189 C212 0.947 . S
H190 C213 0.948 . S
H191 C219 0.982 . S
H192 C220 0.979 . S
H193 C220 0.980 . S
H194 C220 0.983 . S
H195 C219 0.979 . S
H196 C219 0.977 . S
C197 C185 1.453 . S
C197 H226 0.982 . S
C197 H227 0.979 . S
C197 H228 0.977 . S
C198 C185 1.684 . S
C198 H223 0.979 . S
C198 H224 0.980 . S
C198 H225 0.983 . S
C199 C200 1.391 . S
C199 C204 1.391 . S
C199 H229 0.948 . S
C200 C199 1.391 . S
C200 C201 1.391 . S
C201 C200 1.391 . S
C201 C202 1.392 . S
C201 H230 0.947 . S
C202 C201 1.392 . S
C202 C203 1.419 . S
C202 H231 0.948 . S
C203 C202 1.419 . S
C203 C204 1.391 . S
C203 C207 1.397 . S
C204 C199 1.391 . S
C204 C203 1.391 . S
C204 C205 1.399 . S
C205 C204 1.399 . S
C205 C206 1.396 . S
C205 C208 1.453 . S
C205 C209 1.684 . S
C206 C187 1.723 . S
C206 C205 1.396 . S
C206 C207 1.394 . S
C207 C203 1.397 . S
C207 C206 1.394 . S
C207 C217 1.723 . S
C208 C205 1.453 . S
C208 H232 0.982 . S
C208 H233 0.979 . S
C208 H234 0.977 . S
C209 C205 1.684 . S
C209 H235 0.979 . S
C209 H236 0.980 . S
C209 H237 0.983 . S
C210 H186 0.948 . S
C210 C211 1.391 . S
C210 C215 1.391 . S
C211 C210 1.391 . S
C211 C212 1.391 . S
C212 H189 0.947 . S
C212 C211 1.391 . S
C212 C213 1.392 . S
C213 H190 0.948 . S
C213 C212 1.392 . S
C213 C214 1.419 . S
C214 C213 1.419 . S
C214 C215 1.391 . S
C214 C218 1.397 . S
C215 C210 1.391 . S
C215 C214 1.391 . S
C215 C216 1.399 . S
C216 C215 1.399 . S
C216 C217 1.396 . S
C216 C219 1.453 . S
C216 C220 1.684 . S
C217 C207 1.723 . S
C217 C216 1.396 . S
C217 C218 1.394 . S
C218 C188 1.723 . S
C218 C214 1.397 . S
C218 C217 1.394 . S
C219 H191 0.982 . S
C219 H195 0.979 . S
C219 H196 0.977 . S
C219 C216 1.453 . S
C220 H192 0.979 . S
C220 H193 0.980 . S
C220 H194 0.983 . S
C220 C216 1.684 . S
H221 C239 0.948 . S
H222 C180 0.948 . S
H223 C198 0.979 . S
H224 C198 0.980 . S
H225 C198 0.983 . S
H226 C197 0.982 . S
H227 C197 0.979 . S
H228 C197 0.977 . S
H229 C199 0.948 . S
H230 C201 0.947 . S
H231 C202 0.948 . S
H232 C208 0.982 . S
H233 C208 0.979 . S
H234 C208 0.977 . S
H235 C209 0.979 . S
H236 C209 0.980 . S
H237 C209 0.983 . S
H238 C182 0.947 . S
C239 C182 1.392 . S
C239 C183 1.419 . S
C239 H221 0.948 . S
C240 C241 1.391 . S
C240 C244 1.391 . S
C240 H282 0.948 . S
C241 C240 1.391 . S
C241 C242 1.391 . S
C242 C241 1.391 . S
C242 H298 0.947 . S
C242 C299 1.392 . S
C243 C244 1.391 . S
C243 C247 1.397 . S
C243 C299 1.419 . S
C244 C240 1.391 . S
C244 C243 1.391 . S
C244 C245 1.399 . S
C245 C244 1.399 . S
C245 C248 1.396 . S
C245 C257 1.453 . S
C245 C258 1.684 . S
H246 C270 0.948 . S
C247 C243 1.397 . S
C247 C248 1.394 . S
C247 C266 1.723 . S
C248 C245 1.396 . S
C248 C247 1.394 . S
C248 C278 1.723 1_455 S
H249 C272 0.947 . S
H250 C273 0.948 . S
H251 C279 0.982 . S
H252 C280 0.979 . S
H253 C280 0.980 . S
H254 C280 0.983 . S
H255 C279 0.979 . S
H256 C279 0.977 . S
C257 C245 1.453 . S
C257 H286 0.982 . S
C257 H287 0.979 . S
C257 H288 0.977 1_455 S
C258 C245 1.684 . S
C258 H283 0.979 . S
C258 H284 0.980 . S
C258 H285 0.983 . S
C259 C260 1.391 . S
C259 C264 1.391 . S
C259 H289 0.948 . S
C260 C259 1.391 . S
C260 C261 1.391 1_455 S
C261 C260 1.391 1_655 S
C261 C262 1.392 . S
C261 H290 0.947 . S
C262 C261 1.392 . S
C262 C263 1.419 . S
C262 H291 0.948 . S
C263 C262 1.419 . S
C263 C264 1.391 1_655 S
C263 C267 1.395 1_655 S
C264 C259 1.391 . S
C264 C263 1.391 1_455 S
C264 C265 1.399 . S
C265 C264 1.399 . S
C265 C266 1.396 . S
C265 C268 1.453 . S
C265 C269 1.684 . S
C266 C247 1.723 . S
C266 C265 1.396 . S
C266 C267 1.407 . S
C267 C263 1.395 1_455 S
C267 C266 1.407 . S
C267 C277 1.713 1_455 S
C268 C265 1.453 . S
C268 H292 0.982 . S
C268 H293 0.979 . S
C268 H294 0.977 . S
C269 C265 1.684 . S
C269 H295 0.979 . S
C269 H296 0.980 . S
C269 H297 0.983 . S
C270 H246 0.948 . S
C270 C271 1.391 . S
C270 C275 1.391 . S
C271 C270 1.391 . S
C271 C272 1.391 . S
C272 H249 0.947 . S
C272 C271 1.391 . S
C272 C273 1.392 . S
C273 H250 0.948 . S
C273 C272 1.392 . S
C273 C274 1.419 . S
C274 C273 1.419 . S
C274 C275 1.391 . S
C274 C278 1.397 . S
C275 C270 1.391 . S
C275 C274 1.391 . S
C275 C276 1.399 . S
C276 C275 1.399 . S
C276 C277 1.396 . S
C276 C279 1.453 . S
C276 C280 1.684 . S
C277 C267 1.713 1_655 S
C277 C276 1.396 . S
C277 C278 1.394 . S
C278 C248 1.723 1_655 S
C278 C274 1.397 . S
C278 C277 1.394 . S
C279 H251 0.982 . S
C279 H255 0.979 . S
C279 H256 0.977 . S
C279 C276 1.453 . S
C280 H252 0.979 . S
C280 H253 0.980 . S
C280 H254 0.983 . S
C280 C276 1.684 . S
H281 C299 0.948 . S
H282 C240 0.948 . S
H283 C258 0.979 . S
H284 C258 0.980 . S
H285 C258 0.983 . S
H286 C257 0.982 . S
H287 C257 0.979 . S
H288 C257 0.977 1_655 S
H289 C259 0.948 . S
H290 C261 0.947 . S
H291 C262 0.948 . S
H292 C268 0.982 . S
H293 C268 0.979 . S
H294 C268 0.977 . S
H295 C269 0.979 . S
H296 C269 0.980 . S
H297 C269 0.983 . S
H298 C242 0.947 . S
C299 C242 1.392 . S
C299 C243 1.419 . S
C299 H281 0.948 . S
C300 C301 1.391 . S
C300 C304 1.391 . S
C300 H342 0.948 . S
C301 C300 1.391 . S
C301 C302 1.391 . S
C302 C301 1.391 . S
C302 H358 0.947 . S
C302 C359 1.392 . S
C303 C304 1.391 . S
C303 C307 1.397 1_655 S
C303 C359 1.419 . S
C304 C300 1.391 . S
C304 C303 1.391 . S
C304 C305 1.399 1_655 S
C305 C304 1.399 1_455 S
C305 C308 1.396 . S
C305 C317 1.453 . S
C305 C318 1.684 . S
H306 C330 0.948 . S
C307 C303 1.397 1_455 S
C307 C308 1.394 . S
C307 C326 1.723 . S
C308 C305 1.396 . S
C308 C307 1.394 . S
C308 C338 1.723 . S
H309 C332 0.947 . S
H310 C333 0.948 . S
H311 C339 0.982 . S
H312 C340 0.979 . S
H313 C340 0.980 . S
H314 C340 0.983 . S
H315 C339 0.979 . S
H316 C339 0.977 . S
C317 C305 1.453 . S
C317 H346 0.982 . S
C317 H347 0.979 . S
C317 H348 0.977 . S
C318 C305 1.684 . S
C318 H343 0.979 . S
C318 H344 0.980 . S
C318 H345 0.983 . S
C319 C320 1.391 . S
C319 C324 1.391 . S
C319 H349 0.948 . S
C320 C319 1.391 . S
C320 C321 1.391 . S
C321 C320 1.391 . S
C321 C322 1.392 . S
C321 H350 0.947 . S
C322 C321 1.392 . S
C322 C323 1.419 . S
C322 H351 0.948 . S
C323 C322 1.419 . S
C323 C324 1.391 . S
C323 C327 1.397 . S
C324 C319 1.391 . S
C324 C323 1.391 . S
C324 C325 1.399 . S
C325 C324 1.399 . S
C325 C326 1.396 . S
C325 C328 1.453 1_455 S
C325 C329 1.684 1_455 S
C326 C307 1.723 . S
C326 C325 1.396 . S
C326 C327 1.394 . S
C327 C323 1.397 . S
C327 C326 1.394 . S
C327 C337 1.723 . S
C328 C325 1.453 1_655 S
C328 H352 0.982 1_655 S
C328 H353 0.979 . S
C328 H354 0.977 . S
C329 C325 1.684 1_655 S
C329 H355 0.979 . S
C329 H356 0.980 . S
C329 H357 0.983 . S
C330 H306 0.948 . S
C330 C331 1.391 . S
C330 C335 1.391 . S
C331 C330 1.391 . S
C331 C332 1.391 . S
C332 H309 0.947 . S
C332 C331 1.391 . S
C332 C333 1.392 . S
C333 H310 0.948 . S
C333 C332 1.392 . S
C333 C334 1.419 . S
C334 C333 1.419 . S
C334 C335 1.391 . S
C334 C338 1.397 . S
C335 C330 1.391 . S
C335 C334 1.391 . S
C335 C336 1.399 . S
C336 C335 1.399 . S
C336 C337 1.396 . S
C336 C339 1.453 . S
C336 C340 1.684 . S
C337 C327 1.723 . S
C337 C336 1.396 . S
C337 C338 1.394 . S
C338 C308 1.723 . S
C338 C334 1.397 . S
C338 C337 1.394 . S
C339 H311 0.982 . S
C339 H315 0.979 . S
C339 H316 0.977 . S
C339 C336 1.453 . S
C340 H312 0.979 . S
C340 H313 0.980 . S
C340 H314 0.983 . S
C340 C336 1.684 . S
H341 C359 0.948 . S
H342 C300 0.948 . S
H343 C318 0.979 . S
H344 C318 0.980 . S
H345 C318 0.983 . S
H346 C317 0.982 . S
H347 C317 0.979 . S
H348 C317 0.977 . S
H349 C319 0.948 . S
H350 C321 0.947 . S
H351 C322 0.948 . S
H352 C328 0.982 1_455 S
H353 C328 0.979 . S
H354 C328 0.977 . S
H355 C329 0.979 . S
H356 C329 0.980 . S
H357 C329 0.983 . S
H358 C302 0.947 . S
C359 C302 1.392 . S
C359 C303 1.419 . S
C359 H341 0.948 . S
C360 C361 1.391 . S
C360 C364 1.391 . S
C360 H402 0.948 . S
C361 C360 1.391 . S
C361 C362 1.391 . S
C362 C361 1.391 . S
C362 H418 0.947 . S
C362 C419 1.392 . S
C363 C364 1.391 . S
C363 C367 1.397 . S
C363 C419 1.419 . S
C364 C360 1.391 . S
C364 C363 1.391 . S
C364 C365 1.399 . S
C365 C364 1.399 . S
C365 C368 1.396 . S
C365 C377 1.453 . S
C365 C378 1.684 . S
H366 C390 0.948 . S
C367 C363 1.397 . S
C367 C368 1.394 . S
C367 C386 1.723 . S
C368 C365 1.396 . S
C368 C367 1.394 . S
C368 C398 1.723 1_565 S
H369 C392 0.947 . S
H370 C393 0.948 . S
H371 C399 0.982 . S
H372 C400 0.979 . S
H373 C400 0.980 . S
H374 C400 0.983 . S
H375 C399 0.979 . S
H376 C399 0.977 . S
C377 C365 1.453 . S
C377 H406 0.982 1_565 S
C377 H407 0.979 . S
C377 H408 0.977 1_565 S
C378 C365 1.684 . S
C378 H403 0.979 . S
C378 H404 0.980 . S
C378 H405 0.983 . S
C379 C380 1.391 1_565 S
C379 C384 1.391 . S
C379 H409 0.948 . S
C380 C379 1.391 1_545 S
C380 C381 1.391 . S
C381 C380 1.391 . S
C381 C382 1.392 . S
C381 H410 0.947 . S
C382 C381 1.392 . S
C382 C383 1.419 . S
C382 H411 0.948 . S
C383 C382 1.419 . S
C383 C384 1.391 1_545 S
C383 C387 1.397 . S
C384 C379 1.391 . S
C384 C383 1.391 1_565 S
C384 C385 1.399 . S
C385 C384 1.399 . S
C385 C386 1.396 . S
C385 C388 1.453 . S
C385 C389 1.684 . S
C386 C367 1.723 . S
C386 C385 1.396 . S
C386 C387 1.394 1_565 S
C387 C383 1.397 . S
C387 C386 1.394 1_545 S
C387 C397 1.723 . S
C388 C385 1.453 . S
C388 H412 0.982 . S
C388 H413 0.979 . S
C388 H414 0.977 . S
C389 C385 1.684 . S
C389 H415 0.979 . S
C389 H416 0.980 . S
C389 H417 0.983 . S
C390 H366 0.948 . S
C390 C391 1.391 . S
C390 C395 1.391 . S
C391 C390 1.391 . S
C391 C392 1.391 . S
C392 H369 0.947 . S
C392 C391 1.391 . S
C392 C393 1.392 . S
C393 H370 0.948 . S
C393 C392 1.392 . S
C393 C394 1.419 . S
C394 C393 1.419 . S
C394 C395 1.391 . S
C394 C398 1.397 . S
C395 C390 1.391 . S
C395 C394 1.391 . S
C395 C396 1.399 . S
C396 C395 1.399 . S
C396 C397 1.396 . S
C396 C399 1.453 . S
C396 C400 1.684 . S
C397 C387 1.723 . S
C397 C396 1.396 . S
C397 C398 1.394 . S
C398 C368 1.723 1_545 S
C398 C394 1.397 . S
C398 C397 1.394 . S
C399 H371 0.982 . S
C399 H375 0.979 . S
C399 H376 0.977 . S
C399 C396 1.453 . S
C400 H372 0.979 . S
C400 H373 0.980 . S
C400 H374 0.983 . S
C400 C396 1.684 . S
H401 C419 0.948 . S
H402 C360 0.948 . S
H403 C378 0.979 . S
H404 C378 0.980 . S
H405 C378 0.983 . S
H406 C377 0.982 1_545 S
H407 C377 0.979 . S
H408 C377 0.977 1_545 S
H409 C379 0.948 . S
H410 C381 0.947 . S
H411 C382 0.948 . S
H412 C388 0.982 . S
H413 C388 0.979 . S
H414 C388 0.977 . S
H415 C389 0.979 . S
H416 C389 0.980 . S
H417 C389 0.983 . S
H418 C362 0.947 . S
C419 C362 1.392 . S
C419 C363 1.419 . S
C419 H401 0.948 . S
C420 C421 1.391 . S
C420 C424 1.391 . S
C420 H462 0.948 . S
C421 C420 1.391 . S
C421 C422 1.391 . S
C422 C421 1.391 . S
C422 H478 0.947 . S
C422 C479 1.392 . S
C423 C424 1.391 . S
C423 C427 1.397 . S
C423 C479 1.419 . S
C424 C420 1.391 . S
C424 C423 1.391 . S
C424 C425 1.399 . S
C425 C424 1.399 . S
C425 C428 1.396 . S
C425 C437 1.453 . S
C425 C438 1.684 . S
H426 C450 0.948 . S
C427 C423 1.397 . S
C427 C428 1.394 . S
C427 C446 1.723 . S
C428 C425 1.396 . S
C428 C427 1.394 . S
C428 C458 1.723 . S
H429 C452 0.947 . S
H430 C453 0.948 . S
H431 C459 0.982 . S
H432 C460 0.979 . S
H433 C460 0.980 . S
H434 C460 0.983 . S
H435 C459 0.979 . S
H436 C459 0.977 . S
C437 C425 1.453 . S
C437 H466 0.982 . S
C437 H467 0.979 . S
C437 H468 0.977 . S
C438 C425 1.684 . S
C438 H463 0.979 . S
C438 H464 0.980 . S
C438 H465 0.983 . S
C439 C440 1.391 . S
C439 C444 1.391 . S
C439 H469 0.948 . S
C440 C439 1.391 . S
C440 C441 1.391 . S
C441 C440 1.391 . S
C441 C442 1.392 . S
C441 H470 0.947 . S
C442 C441 1.392 . S
C442 C443 1.419 . S
C442 H471 0.948 . S
C443 C442 1.419 . S
C443 C444 1.391 . S
C443 C447 1.397 . S
C444 C439 1.391 . S
C444 C443 1.391 . S
C444 C445 1.399 . S
C445 C444 1.399 . S
C445 C446 1.396 . S
C445 C448 1.453 . S
C445 C449 1.684 . S
C446 C427 1.723 . S
C446 C445 1.396 . S
C446 C447 1.394 . S
C447 C443 1.397 . S
C447 C446 1.394 . S
C447 C457 1.723 . S
C448 C445 1.453 . S
C448 H472 0.982 . S
C448 H473 0.979 . S
C448 H474 0.977 . S
C449 C445 1.684 . S
C449 H475 0.979 . S
C449 H476 0.980 . S
C449 H477 0.983 . S
C450 H426 0.948 . S
C450 C451 1.391 . S
C450 C455 1.391 . S
C451 C450 1.391 . S
C451 C452 1.391 . S
C452 H429 0.947 . S
C452 C451 1.391 . S
C452 C453 1.392 . S
C453 H430 0.948 . S
C453 C452 1.392 . S
C453 C454 1.419 . S
C454 C453 1.419 . S
C454 C455 1.391 . S
C454 C458 1.397 . S
C455 C450 1.391 . S
C455 C454 1.391 . S
C455 C456 1.399 . S
C456 C455 1.399 . S
C456 C457 1.396 . S
C456 C459 1.453 . S
C456 C460 1.684 . S
C457 C447 1.723 . S
C457 C456 1.396 . S
C457 C458 1.394 . S
C458 C428 1.723 . S
C458 C454 1.397 . S
C458 C457 1.394 . S
C459 H431 0.982 . S
C459 H435 0.979 . S
C459 H436 0.977 . S
C459 C456 1.453 . S
C460 H432 0.979 . S
C460 H433 0.980 . S
C460 H434 0.983 . S
C460 C456 1.684 . S
H461 C479 0.948 . S
H462 C420 0.948 . S
H463 C438 0.979 . S
H464 C438 0.980 . S
H465 C438 0.983 . S
H466 C437 0.982 . S
H467 C437 0.979 . S
H468 C437 0.977 . S
H469 C439 0.948 . S
H470 C441 0.947 . S
H471 C442 0.948 . S
H472 C448 0.982 . S
H473 C448 0.979 . S
H474 C448 0.977 . S
H475 C449 0.979 . S
H476 C449 0.980 . S
H477 C449 0.983 . S
H478 C422 0.947 . S
C479 C422 1.392 . S
C479 C423 1.419 . S
C479 H461 0.948 . S
H480 C486 0.930 . S
H481 C490 0.930 . S
H482 C495 0.929 . S
H483 C493 0.929 . S
H484 C488 0.929 . S
H485 C494 0.929 . S
C486 H480 0.930 . S
C486 C487 1.367 . S
C486 C494 1.378 . S
C487 C486 1.367 . S
C487 C495 1.433 . S
C488 H484 0.929 . S
C488 C490 1.378 . S
C488 C492 1.350 . S
C489 C492 1.463 . S
C489 C494 1.350 . S
C489 N497 1.427 . S
C490 H481 0.930 . S
C490 C488 1.378 . S
C490 C491 1.367 . S
C491 C490 1.367 . S
C491 C493 1.433 . S
C492 C488 1.350 . S
C492 C489 1.463 . S
C492 N496 1.427 . S
C493 H483 0.929 . S
C493 C491 1.433 . S
C493 N496 1.384 . S
C494 H485 0.929 . S
C494 C486 1.378 . S
C494 C489 1.350 . S
C495 H482 0.929 . S
C495 C487 1.433 . S
C495 N497 1.384 . S
N496 C492 1.427 . S
N496 C493 1.384 . S
N497 C489 1.427 . S
N497 C495 1.384 . S
H498 C504 0.930 . S
H499 C508 0.930 . S
H500 C513 0.929 . S
H501 C511 0.929 . S
H502 C506 0.929 . S
H503 C512 0.929 . S
C504 H498 0.930 . S
C504 C505 1.367 . S
C504 C512 1.378 . S
C505 C504 1.367 . S
C505 C513 1.433 . S
C506 H502 0.929 . S
C506 C508 1.378 . S
C506 C510 1.350 . S
C507 C510 1.463 . S
C507 C512 1.350 . S
C507 N515 1.427 . S
C508 H499 0.930 . S
C508 C506 1.378 . S
C508 C509 1.367 . S
C509 C508 1.367 . S
C509 C511 1.433 . S
C510 C506 1.350 . S
C510 C507 1.463 . S
C510 N514 1.427 . S
C511 H501 0.929 . S
C511 C509 1.433 . S
C511 N514 1.384 . S
C512 H503 0.929 . S
C512 C504 1.378 . S
C512 C507 1.350 . S
C513 H500 0.929 . S
C513 C505 1.433 . S
C513 N515 1.384 . S
N514 C510 1.427 . S
N514 C511 1.384 . S
N515 C507 1.427 . S
N515 C513 1.384 . S
H516 C522 0.930 . S
H517 C526 0.930 . S
H518 C531 0.929 . S
H519 C529 0.929 . S
H520 C524 0.929 . S
H521 C530 0.929 . S
C522 H516 0.930 . S
C522 C523 1.367 . S
C522 C530 1.378 . S
C523 C522 1.367 . S
C523 C531 1.433 . S
C524 H520 0.929 . S
C524 C526 1.378 . S
C524 C528 1.350 . S
C525 C528 1.463 . S
C525 C530 1.350 . S
C525 N533 1.427 . S
C526 H517 0.930 . S
C526 C524 1.378 . S
C526 C527 1.367 . S
C527 C526 1.367 . S
C527 C529 1.433 . S
C528 C524 1.350 . S
C528 C525 1.463 . S
C528 N532 1.427 . S
C529 H519 0.929 . S
C529 C527 1.433 . S
C529 N532 1.384 . S
C530 H521 0.929 . S
C530 C522 1.378 . S
C530 C525 1.350 . S
C531 H518 0.929 . S
C531 C523 1.433 . S
C531 N533 1.384 . S
N532 C528 1.427 . S
N532 C529 1.384 . S
N533 C525 1.427 . S
N533 C531 1.384 . S
H534 C540 0.930 . S
H535 C544 0.930 . S
H536 C549 0.929 . S
H537 C547 0.929 . S
H538 C542 0.929 . S
H539 C548 0.929 . S
C540 H534 0.930 . S
C540 C541 1.367 . S
C540 C548 1.378 . S
C541 C540 1.367 . S
C541 C549 1.433 . S
C542 H538 0.929 . S
C542 C544 1.378 . S
C542 C546 1.350 . S
C543 C546 1.463 . S
C543 C548 1.350 . S
C543 N551 1.427 . S
C544 H535 0.930 . S
C544 C542 1.378 . S
C544 C545 1.367 . S
C545 C544 1.367 . S
C545 C547 1.433 . S
C546 C542 1.350 . S
C546 C543 1.463 . S
C546 N550 1.427 . S
C547 H537 0.929 . S
C547 C545 1.433 . S
C547 N550 1.384 . S
C548 H539 0.929 . S
C548 C540 1.378 . S
C548 C543 1.350 . S
C549 H536 0.929 . S
C549 C541 1.433 . S
C549 N551 1.384 . S
N550 C546 1.427 . S
N550 C547 1.384 . S
N551 C543 1.427 . S
N551 C549 1.384 . S
H552 C558 0.930 . S
H553 C562 0.930 . S
H554 C567 0.929 . S
H555 C565 0.929 . S
H556 C560 0.929 . S
H557 C566 0.929 . S
C558 H552 0.930 . S
C558 C559 1.367 . S
C558 C566 1.378 . S
C559 C558 1.367 . S
C559 C567 1.433 . S
C560 H556 0.929 . S
C560 C562 1.378 . S
C560 C564 1.350 . S
C561 C564 1.463 . S
C561 C566 1.350 . S
C561 N569 1.427 . S
C562 H553 0.930 . S
C562 C560 1.378 . S
C562 C563 1.367 . S
C563 C562 1.367 . S
C563 C565 1.433 . S
C564 C560 1.350 . S
C564 C561 1.463 . S
C564 N568 1.427 . S
C565 H555 0.929 . S
C565 C563 1.433 . S
C565 N568 1.384 . S
C566 H557 0.929 . S
C566 C558 1.378 . S
C566 C561 1.350 . S
C567 H554 0.929 . S
C567 C559 1.433 . S
C567 N569 1.384 . S
N568 C564 1.427 . S
N568 C565 1.384 . S
N569 C561 1.427 . S
N569 C567 1.384 . S
H570 C576 0.930 . S
H571 C580 0.930 . S
H572 C585 0.929 . S
H573 C583 0.929 . S
H574 C578 0.929 . S
H575 C584 0.929 . S
C576 H570 0.930 . S
C576 C577 1.367 . S
C576 C584 1.378 . S
C577 C576 1.367 . S
C577 C585 1.433 . S
C578 H574 0.929 . S
C578 C580 1.378 . S
C578 C582 1.350 . S
C579 C582 1.463 . S
C579 C584 1.350 . S
C579 N587 1.427 . S
C580 H571 0.930 . S
C580 C578 1.378 . S
C580 C581 1.367 . S
C581 C580 1.367 . S
C581 C583 1.433 . S
C582 C578 1.350 . S
C582 C579 1.463 . S
C582 N586 1.427 . S
C583 H573 0.929 . S
C583 C581 1.433 . S
C583 N586 1.384 . S
C584 H575 0.929 . S
C584 C576 1.378 . S
C584 C579 1.350 . S
C585 H572 0.929 . S
C585 C577 1.433 . S
C585 N587 1.384 . S
N586 C582 1.427 . S
N586 C583 1.384 . S
N587 C579 1.427 . S
N587 C585 1.384 . S
H588 C594 0.930 . S
H589 C598 0.930 . S
H590 C603 0.929 . S
H591 C601 0.929 . S
H592 C596 0.929 . S
H593 C602 0.929 . S
C594 H588 0.930 . S
C594 C595 1.367 . S
C594 C602 1.378 . S
C595 C594 1.367 . S
C595 C603 1.433 . S
C596 H592 0.929 . S
C596 C598 1.378 . S
C596 C600 1.350 . S
C597 C600 1.463 . S
C597 C602 1.350 . S
C597 N605 1.427 . S
C598 H589 0.930 . S
C598 C596 1.378 . S
C598 C599 1.367 . S
C599 C598 1.367 . S
C599 C601 1.433 . S
C600 C596 1.350 . S
C600 C597 1.463 . S
C600 N604 1.427 . S
C601 H591 0.929 . S
C601 C599 1.433 . S
C601 N604 1.384 . S
C602 H593 0.929 . S
C602 C594 1.378 . S
C602 C597 1.350 . S
C603 H590 0.929 . S
C603 C595 1.433 . S
C603 N605 1.384 . S
N604 C600 1.427 . S
N604 C601 1.384 . S
N605 C597 1.427 . S
N605 C603 1.384 . S
H606 C612 0.930 . S
H607 C616 0.930 . S
H608 C621 0.929 . S
H609 C619 0.929 . S
H610 C614 0.929 . S
H611 C620 0.929 . S
C612 H606 0.930 . S
C612 C613 1.367 . S
C612 C620 1.378 . S
C613 C612 1.367 . S
C613 C621 1.433 . S
C614 H610 0.929 . S
C614 C616 1.378 . S
C614 C618 1.350 . S
C615 C618 1.463 . S
C615 C620 1.350 . S
C615 N623 1.427 . S
C616 H607 0.930 . S
C616 C614 1.378 . S
C616 C617 1.367 . S
C617 C616 1.367 . S
C617 C619 1.433 . S
C618 C614 1.350 . S
C618 C615 1.463 . S
C618 N622 1.427 . S
C619 H609 0.929 . S
C619 C617 1.433 . S
C619 N622 1.384 . S
C620 H611 0.929 . S
C620 C612 1.378 . S
C620 C615 1.350 . S
C621 H608 0.929 . S
C621 C613 1.433 . S
C621 N623 1.384 . S
N622 C618 1.427 . S
N622 C619 1.384 . S
N623 C615 1.427 . S
N623 C621 1.384 . S
H624 C630 0.930 . S
H625 C634 0.930 . S
H626 C639 0.929 . S
H627 C637 0.929 . S
H628 C632 0.929 . S
H629 C638 0.929 . S
C630 H624 0.930 . S
C630 C631 1.367 . S
C630 C638 1.378 . S
C631 C630 1.367 . S
C631 C639 1.433 . S
C632 H628 0.929 . S
C632 C634 1.378 . S
C632 C636 1.350 . S
C633 C636 1.463 . S
C633 C638 1.350 . S
C633 N641 1.427 . S
C634 H625 0.930 . S
C634 C632 1.378 . S
C634 C635 1.367 . S
C635 C634 1.367 . S
C635 C637 1.433 . S
C636 C632 1.350 . S
C636 C633 1.463 . S
C636 N640 1.427 . S
C637 H627 0.929 . S
C637 C635 1.433 . S
C637 N640 1.384 . S
C638 H629 0.929 . S
C638 C630 1.378 . S
C638 C633 1.350 . S
C639 H626 0.929 . S
C639 C631 1.433 . S
C639 N641 1.384 . S
N640 C636 1.427 . S
N640 C637 1.384 . S
N641 C633 1.427 . S
N641 C639 1.384 . S
H642 C648 0.930 . S
H643 C652 0.930 . S
H644 C657 0.929 . S
H645 C655 0.929 . S
H646 C650 0.929 . S
H647 C656 0.929 . S
C648 H642 0.930 . S
C648 C649 1.367 . S
C648 C656 1.378 . S
C649 C648 1.367 . S
C649 C657 1.433 . S
C650 H646 0.929 . S
C650 C652 1.378 . S
C650 C654 1.350 . S
C651 C654 1.463 . S
C651 C656 1.350 . S
C651 N659 1.427 . S
C652 H643 0.930 . S
C652 C650 1.378 . S
C652 C653 1.367 . S
C653 C652 1.367 . S
C653 C655 1.433 . S
C654 C650 1.350 . S
C654 C651 1.463 . S
C654 N658 1.427 . S
C655 H645 0.929 . S
C655 C653 1.433 . S
C655 N658 1.384 . S
C656 H647 0.929 . S
C656 C648 1.378 . S
C656 C651 1.350 . S
C657 H644 0.929 . S
C657 C649 1.433 . S
C657 N659 1.384 . S
N658 C654 1.427 . S
N658 C655 1.384 . S
N659 C651 1.427 . S
N659 C657 1.384 . S
H660 C666 0.930 . S
H661 C670 0.930 . S
H662 C675 0.929 . S
H663 C673 0.929 . S
H664 C668 0.929 . S
H665 C674 0.929 . S
C666 H660 0.930 . S
C666 C667 1.367 . S
C666 C674 1.378 . S
C667 C666 1.367 . S
C667 C675 1.433 . S
C668 H664 0.929 . S
C668 C670 1.378 . S
C668 C672 1.350 . S
C669 C672 1.463 . S
C669 C674 1.350 . S
C669 N677 1.427 . S
C670 H661 0.930 . S
C670 C668 1.378 . S
C670 C671 1.367 . S
C671 C670 1.367 . S
C671 C673 1.433 . S
C672 C668 1.350 . S
C672 C669 1.463 . S
C672 N676 1.427 . S
C673 H663 0.929 . S
C673 C671 1.433 . S
C673 N676 1.384 . S
C674 H665 0.929 . S
C674 C666 1.378 . S
C674 C669 1.350 . S
C675 H662 0.929 . S
C675 C667 1.433 . S
C675 N677 1.384 . S
N676 C672 1.427 . S
N676 C673 1.384 . S
N677 C669 1.427 . S
N677 C675 1.384 . S
H678 C684 0.930 . S
H679 C688 0.930 . S
H680 C693 0.929 . S
H681 C691 0.929 . S
H682 C686 0.929 . S
H683 C692 0.929 . S
C684 H678 0.930 . S
C684 C685 1.367 . S
C684 C692 1.378 . S
C685 C684 1.367 . S
C685 C693 1.433 . S
C686 H682 0.929 . S
C686 C688 1.378 . S
C686 C690 1.350 . S
C687 C690 1.463 . S
C687 C692 1.350 . S
C687 N695 1.427 . S
C688 H679 0.930 . S
C688 C686 1.378 . S
C688 C689 1.367 . S
C689 C688 1.367 . S
C689 C691 1.433 . S
C690 C686 1.350 . S
C690 C687 1.463 . S
C690 N694 1.427 . S
C691 H681 0.929 . S
C691 C689 1.433 . S
C691 N694 1.384 . S
C692 H683 0.929 . S
C692 C684 1.378 . S
C692 C687 1.350 . S
C693 H680 0.929 . S
C693 C685 1.433 . S
C693 N695 1.384 . S
N694 C690 1.427 . S
N694 C691 1.384 . S
N695 C687 1.427 . S
N695 C693 1.384 . S
H696 C702 0.930 . S
H697 C706 0.930 . S
H698 C711 0.929 1_655 S
H699 C709 0.929 . S
H700 C704 0.929 . S
H701 C710 0.929 . S
C702 H696 0.930 . S
C702 C703 1.367 . S
C702 C710 1.378 . S
C703 C702 1.367 . S
C703 C711 1.433 . S
C704 H700 0.929 . S
C704 C706 1.378 . S
C704 C708 1.350 1_655 S
C705 C708 1.463 . S
C705 C710 1.350 . S
C705 N713 1.427 . S
C706 H697 0.930 . S
C706 C704 1.378 . S
C706 C707 1.367 1_655 S
C707 C706 1.367 1_455 S
C707 C709 1.433 . S
C708 C704 1.350 1_455 S
C708 C705 1.463 . S
C708 N712 1.427 . S
C709 H699 0.929 . S
C709 C707 1.433 . S
C709 N712 1.384 . S
C710 H701 0.929 . S
C710 C702 1.378 . S
C710 C705 1.350 . S
C711 H698 0.929 1_455 S
C711 C703 1.433 . S
C711 N713 1.384 . S
N712 C708 1.427 . S
N712 C709 1.384 . S
N713 C705 1.427 . S
N713 C711 1.384 . S
H714 C720 0.930 . S
H715 C724 0.930 . S
H716 C729 0.929 . S
H717 C727 0.929 . S
H718 C722 0.929 . S
H719 C728 0.929 . S
C720 H714 0.930 . S
C720 C721 1.367 . S
C720 C728 1.378 . S
C721 C720 1.367 . S
C721 C729 1.433 . S
C722 H718 0.929 . S
C722 C724 1.378 . S
C722 C726 1.350 . S
C723 C726 1.463 . S
C723 C728 1.350 . S
C723 N731 1.427 . S
C724 H715 0.930 . S
C724 C722 1.378 . S
C724 C725 1.367 . S
C725 C724 1.367 . S
C725 C727 1.433 . S
C726 C722 1.350 . S
C726 C723 1.463 . S
C726 N730 1.427 . S
C727 H717 0.929 . S
C727 C725 1.433 . S
C727 N730 1.384 . S
C728 H719 0.929 . S
C728 C720 1.378 . S
C728 C723 1.350 . S
C729 H716 0.929 . S
C729 C721 1.433 . S
C729 N731 1.384 . S
N730 C726 1.427 . S
N730 C727 1.384 . S
N731 C723 1.427 . S
N731 C729 1.384 . S
H732 C738 0.930 . S
H733 C742 0.930 . S
H734 C747 0.929 . S
H735 C745 0.929 . S
H736 C740 0.929 . S
H737 C746 0.929 . S
C738 H732 0.930 . S
C738 C739 1.367 . S
C738 C746 1.378 . S
C739 C738 1.367 . S
C739 C747 1.433 . S
C740 H736 0.929 . S
C740 C742 1.378 . S
C740 C744 1.350 . S
C741 C744 1.463 . S
C741 C746 1.350 . S
C741 N749 1.427 . S
C742 H733 0.930 . S
C742 C740 1.378 . S
C742 C743 1.367 . S
C743 C742 1.367 . S
C743 C745 1.433 . S
C744 C740 1.350 . S
C744 C741 1.463 . S
C744 N748 1.427 . S
C745 H735 0.929 . S
C745 C743 1.433 . S
C745 N748 1.384 . S
C746 H737 0.929 . S
C746 C738 1.378 . S
C746 C741 1.350 . S
C747 H734 0.929 . S
C747 C739 1.433 . S
C747 N749 1.384 . S
N748 C744 1.427 . S
N748 C745 1.384 . S
N749 C741 1.427 . S
N749 C747 1.384 . S
H750 C756 0.948 . S
H751 C760 0.930 . S
H752 C765 0.929 . S
H753 C763 0.929 . S
H754 C758 0.929 . S
H755 C764 0.929 . S
C756 H750 0.948 . S
C756 C757 1.349 1_565 S
C756 C764 1.378 . S
C757 C756 1.349 1_545 S
C757 C765 1.433 . S
C758 H754 0.929 . S
C758 C760 1.378 . S
C758 C762 1.350 . S
C759 C762 1.463 . S
C759 C764 1.350 1_545 S
C759 N767 1.427 . S
C760 H751 0.930 . S
C760 C758 1.378 . S
C760 C761 1.367 . S
C761 C760 1.367 . S
C761 C763 1.433 1_545 S
C762 C758 1.350 . S
C762 C759 1.463 . S
C762 N766 1.427 1_545 S
C763 H753 0.929 . S
C763 C761 1.433 1_565 S
C763 N766 1.384 . S
C764 H755 0.929 . S
C764 C756 1.378 . S
C764 C759 1.350 1_565 S
C765 H752 0.929 . S
C765 C757 1.433 . S
C765 N767 1.384 . S
N766 C762 1.427 1_565 S
N766 C763 1.384 . S
N767 C759 1.427 . S
N767 C765 1.384 . S
H768 C774 0.930 . S
H769 C778 0.930 . S
H770 C783 0.929 . S
H771 C781 0.929 . S
H772 C776 0.929 . S
H773 C782 0.929 . S
C774 H768 0.930 . S
C774 C775 1.367 . S
C774 C782 1.378 . S
C775 C774 1.367 . S
C775 C783 1.433 . S
C776 H772 0.929 . S
C776 C778 1.378 . S
C776 C780 1.350 . S
C777 C780 1.463 . S
C777 C782 1.350 . S
C777 N785 1.427 . S
C778 H769 0.930 . S
C778 C776 1.378 . S
C778 C779 1.367 . S
C779 C778 1.367 . S
C779 C781 1.433 . S
C780 C776 1.350 . S
C780 C777 1.463 . S
C780 N784 1.427 . S
C781 H771 0.929 . S
C781 C779 1.433 . S
C781 N784 1.384 . S
C782 H773 0.929 . S
C782 C774 1.378 . S
C782 C777 1.350 . S
C783 H770 0.929 . S
C783 C775 1.433 . S
C783 N785 1.384 . S
N784 C780 1.427 . S
N784 C781 1.384 . S
N785 C777 1.427 . S
N785 C783 1.384 . S
H786 C792 0.930 . S
H787 C796 0.930 . S
H788 C801 0.929 . S
H789 C799 0.929 . S
H790 C794 0.929 . S
H791 C800 0.929 . S
C792 H786 0.930 . S
C792 C793 1.367 . S
C792 C800 1.378 . S
C793 C792 1.367 . S
C793 C801 1.433 . S
C794 H790 0.929 . S
C794 C796 1.378 . S
C794 C798 1.350 . S
C795 C798 1.463 . S
C795 C800 1.350 . S
C795 N803 1.427 . S
C796 H787 0.930 . S
C796 C794 1.378 . S
C796 C797 1.367 . S
C797 C796 1.367 . S
C797 C799 1.433 . S
C798 C794 1.350 . S
C798 C795 1.463 . S
C798 N802 1.427 . S
C799 H789 0.929 . S
C799 C797 1.433 . S
C799 N802 1.384 . S
C800 H791 0.929 . S
C800 C792 1.378 . S
C800 C795 1.350 . S
C801 H788 0.929 . S
C801 C793 1.433 . S
C801 N803 1.384 . S
N802 C798 1.427 . S
N802 C799 1.384 . S
N803 C795 1.427 . S
N803 C801 1.384 . S
C487 C19 2.989 . S
C491 C451 3.000 . S
C505 C49 3.080 . S
C509 C301 2.907 . S
C523 C99 2.991 . S
C527 C361 2.829 . S
C541 C9 3.082 . S
C545 C421 2.915 . S
C563 C331 2.999 . S
C559 C59 2.990 . S
C581 C391 3.075 . S
C577 C89 3.081 . S
C595 C55 0.378 . S
C599 C181 0.508 . S
C613 C85 0.444 . S
C617 C271 0.368 . S
C631 C15 0.389 . S
C635 C151 0.352 . S
C653 C211 0.347 . S
C649 C45 0.407 . S
C671 C241 0.530 . S
C667 C95 0.404 . S
C685 C5 0.446 . S
C689 C121 0.365 . S
C707 C260 1.040 1_554 S
C703 C18 1.058 . S
C721 C58 1.058 . S
C725 C140 1.069 . S
C739 C98 1.058 . S
C743 C200 1.050 . S
C761 C380 1.767 . S
C757 C48 1.720 . S
C779 C440 1.772 1_556 S
C775 C88 1.714 . S
C793 C8 1.708 . S
C797 C320 1.770 . S
