# Generated by pormake.
# Topology pto, (3,4)-cn, num edge types: 1
# Building blocks:
#     Node 0, Type 0, BuildingBlock: WUSLED_clean_sbu_0, # of connection points: 3
#     Node 1, Type 0, BuildingBlock: WUSLED_clean_sbu_0, # of connection points: 3
#     Node 2, Type 0, BuildingBlock: WUSLED_clean_sbu_0, # of connection points: 3
#     Node 3, Type 0, BuildingBlock: WUSLED_clean_sbu_0, # of connection points: 3
#     Node 4, Type 0, BuildingBlock: WUSLED_clean_sbu_0, # of connection points: 3
#     Node 5, Type 0, BuildingBlock: WUSLED_clean_sbu_0, # of connection points: 3
#     Node 6, Type 0, BuildingBlock: WUSLED_clean_sbu_0, # of connection points: 3
#     Node 7, Type 0, BuildingBlock: WUSLED_clean_sbu_0, # of connection points: 3
#     Node 8, Type 1, BuildingBlock: KUFVIS_clean_linker_0, # of connection points: 4
#     Node 9, Type 1, BuildingBlock: KUFVIS_clean_linker_0, # of connection points: 4
#     Node 10, Type 1, BuildingBlock: KUFVIS_clean_linker_0, # of connection points: 4
#     Node 11, Type 1, BuildingBlock: KUFVIS_clean_linker_0, # of connection points: 4
#     Node 12, Type 1, BuildingBlock: KUFVIS_clean_linker_0, # of connection points: 4
#     Node 13, Type 1, BuildingBlock: KUFVIS_clean_linker_0, # of connection points: 4
#     Edge 14, Type (0, 1), BuildingBlock: XIVTED_clean_linker_0, # of connection points: 2
#     Edge 15, Type (0, 1), BuildingBlock: XIVTED_clean_linker_0, # of connection points: 2
#     Edge 16, Type (0, 1), BuildingBlock: XIVTED_clean_linker_0, # of connection points: 2
#     Edge 17, Type (0, 1), BuildingBlock: XIVTED_clean_linker_0, # of connection points: 2
#     Edge 18, Type (0, 1), BuildingBlock: XIVTED_clean_linker_0, # of connection points: 2
#     Edge 19, Type (0, 1), BuildingBlock: XIVTED_clean_linker_0, # of connection points: 2
#     Edge 20, Type (0, 1), BuildingBlock: XIVTED_clean_linker_0, # of connection points: 2
#     Edge 21, Type (0, 1), BuildingBlock: XIVTED_clean_linker_0, # of connection points: 2
#     Edge 22, Type (0, 1), BuildingBlock: XIVTED_clean_linker_0, # of connection points: 2
#     Edge 23, Type (0, 1), BuildingBlock: XIVTED_clean_linker_0, # of connection points: 2
#     Edge 24, Type (0, 1), BuildingBlock: XIVTED_clean_linker_0, # of connection points: 2
#     Edge 25, Type (0, 1), BuildingBlock: XIVTED_clean_linker_0, # of connection points: 2
#     Edge 26, Type (0, 1), BuildingBlock: XIVTED_clean_linker_0, # of connection points: 2
#     Edge 27, Type (0, 1), BuildingBlock: XIVTED_clean_linker_0, # of connection points: 2
#     Edge 28, Type (0, 1), BuildingBlock: XIVTED_clean_linker_0, # of connection points: 2
#     Edge 29, Type (0, 1), BuildingBlock: XIVTED_clean_linker_0, # of connection points: 2
#     Edge 30, Type (0, 1), BuildingBlock: XIVTED_clean_linker_0, # of connection points: 2
#     Edge 31, Type (0, 1), BuildingBlock: XIVTED_clean_linker_0, # of connection points: 2
#     Edge 32, Type (0, 1), BuildingBlock: XIVTED_clean_linker_0, # of connection points: 2
#     Edge 33, Type (0, 1), BuildingBlock: XIVTED_clean_linker_0, # of connection points: 2
#     Edge 34, Type (0, 1), BuildingBlock: XIVTED_clean_linker_0, # of connection points: 2
#     Edge 35, Type (0, 1), BuildingBlock: XIVTED_clean_linker_0, # of connection points: 2
#     Edge 36, Type (0, 1), BuildingBlock: XIVTED_clean_linker_0, # of connection points: 2
#     Edge 37, Type (0, 1), BuildingBlock: XIVTED_clean_linker_0, # of connection points: 2
# Relax obj value: 0.002
# Max RMSD: 0.051
# Mean RMSD: 0.028
data_MOF--net-pto--node1-WUSLED_clean_sbu_0--node2-KUFVIS_clean_linker_0--edge1-XIVTED_clean_linker_0
_symmetry_space_group_name_H-M    P1
_symmetry_Int_Tables_number       1
_symmetry_cell_setting            triclinic
loop_
_symmetry_equiv_pos_as_xyz
'x, y, z'
_cell_length_a     40.553271
_cell_length_b     65.057116
_cell_length_c     52.989096
_cell_angle_alpha  89.435114
_cell_angle_beta   90.758559
_cell_angle_gamma 90.465453
loop_
_atom_site_label
_atom_site_type_symbol
_atom_site_fract_x
_atom_site_fract_y
_atom_site_fract_z
_atom_type_partial_charge
C0 C 0.17985 0.2333 0.35105 0.0
C1 C 0.19457 0.21682 0.33865 0.0
C2 C 0.17625 0.19307 0.37167 0.0
C3 C 0.19281 0.19689 0.34887 0.0
C4 C 0.16142 0.20971 0.38387 0.0
C5 C 0.16322 0.22959 0.37365 0.0
U6 U 0.2098 0.27129 0.3011 0.0
O7 O 0.18568 0.29773 0.28277 0.0
O8 O 0.23132 0.30237 0.30482 0.0
C9 C 0.20739 0.31101 0.29165 0.0
C10 C 0.18218 0.25442 0.34088 0.0
C11 C 0.19419 0.33032 0.30152 0.0
C12 C 0.15373 0.34938 0.32512 0.0
C13 C 0.1672 0.3306 0.3178 0.0
C14 C 0.19457 0.36769 0.30044 0.0
C15 C 0.16698 0.36816 0.31622 0.0
C16 C 0.20799 0.34896 0.29319 0.0
C17 C 0.2594 0.25256 0.24592 0.0
C18 C 0.28226 0.27697 0.21576 0.0
C19 C 0.29017 0.24043 0.2101 0.0
C20 C 0.27223 0.23637 0.23198 0.0
C21 C 0.29563 0.26079 0.20184 0.0
C22 C 0.26427 0.27288 0.2376 0.0
C23 C 0.24139 0.24819 0.26925 0.0
O24 O 0.2119 0.26263 0.34133 0.0
O25 O 0.16621 0.25779 0.3195 0.0
O26 O 0.20943 0.25124 0.26788 0.0
O27 O 0.25507 0.25562 0.28989 0.0
H28 H 0.20752 0.21941 0.32113 0.0
H29 H 0.20424 0.18446 0.33882 0.0
H30 H 0.14898 0.20747 0.40165 0.0
H31 H 0.15186 0.24214 0.38355 0.0
H32 H 0.1323 0.34915 0.3371 0.0
H33 H 0.15616 0.31635 0.3244 0.0
H34 H 0.20573 0.38181 0.29356 0.0
H35 H 0.22888 0.34904 0.28064 0.0
H36 H 0.28569 0.2928 0.20977 0.0
H37 H 0.30049 0.22763 0.20003 0.0
H38 H 0.26871 0.22059 0.23819 0.0
H39 H 0.25435 0.28557 0.24811 0.0
C40 C 0.18317 0.82794 0.67531 0.0
C41 C 0.20338 0.84348 0.68548 0.0
C42 C 0.18539 0.86732 0.65235 0.0
C43 C 0.20453 0.86297 0.67409 0.0
C44 C 0.1646 0.85178 0.64261 0.0
C45 C 0.16356 0.83227 0.65398 0.0
U46 U 0.21028 0.79084 0.72711 0.0
O47 O 0.18409 0.76552 0.74642 0.0
O48 O 0.22916 0.7593 0.72535 0.0
C49 C 0.20439 0.75151 0.73817 0.0
C50 C 0.1832 0.80709 0.68638 0.0
C51 C 0.18923 0.73222 0.72883 0.0
C52 C 0.18381 0.70503 0.69773 0.0
C53 C 0.19641 0.72424 0.70498 0.0
C54 C 0.15635 0.70163 0.73786 0.0
C55 C 0.16381 0.6934 0.71418 0.0
C56 C 0.169 0.72076 0.7451 0.0
C57 C 0.2631 0.81036 0.78179 0.0
C58 C 0.30036 0.78955 0.80745 0.0
C59 C 0.27864 0.82112 0.82415 0.0
C60 C 0.26113 0.82444 0.80156 0.0
C61 C 0.29867 0.80368 0.82734 0.0
C62 C 0.28261 0.79278 0.785 0.0
C63 C 0.24453 0.81413 0.7581 0.0
O64 O 0.21194 0.79788 0.68649 0.0
O65 O 0.16751 0.80493 0.70781 0.0
O66 O 0.21239 0.81181 0.75953 0.0
O67 O 0.25692 0.80607 0.73767 0.0
H68 H 0.2186 0.84043 0.70204 0.0
H69 H 0.2205 0.87462 0.68226 0.0
H70 H 0.14986 0.85449 0.62573 0.0
H71 H 0.14786 0.82045 0.64586 0.0
H72 H 0.1903 0.69911 0.67944 0.0
H73 H 0.21216 0.73264 0.69207 0.0
H74 H 0.14053 0.69336 0.75083 0.0
H75 H 0.16327 0.72651 0.76364 0.0
H76 H 0.3159 0.77612 0.80895 0.0
H77 H 0.27628 0.83217 0.83915 0.0
H78 H 0.24599 0.83802 0.79954 0.0
H79 H 0.28438 0.78157 0.7701 0.0
C80 C 0.73598 0.81907 0.24778 0.0
C81 C 0.72627 0.80035 0.23695 0.0
C82 C 0.69918 0.81874 0.20222 0.0
C83 C 0.708 0.80018 0.21436 0.0
C84 C 0.70984 0.83741 0.21289 0.0
C85 C 0.72803 0.83756 0.23548 0.0
U86 U 0.78247 0.7927 0.30216 0.0
O87 O 0.82541 0.80369 0.32418 0.0
O88 O 0.77852 0.79749 0.34305 0.0
C89 C 0.80837 0.80539 0.34499 0.0
C90 C 0.75349 0.81962 0.27222 0.0
C91 C 0.8104 0.82557 0.35732 0.0
C92 C 0.79892 0.86224 0.35758 0.0
C93 C 0.79751 0.8432 0.34545 0.0
C94 C 0.82623 0.84622 0.39353 0.0
C95 C 0.81328 0.86401 0.38181 0.0
C96 C 0.8248 0.82722 0.38139 0.0
C97 C 0.79657 0.73391 0.29717 0.0
C98 C 0.83202 0.71288 0.3241 0.0
C99 C 0.79841 0.69689 0.29155 0.0
C100 C 0.78593 0.71613 0.28463 0.0
C101 C 0.82187 0.695 0.31121 0.0
C102 C 0.81949 0.73218 0.31712 0.0
C103 C 0.78421 0.75399 0.28835 0.0
O104 O 0.73847 0.81021 0.29094 0.0
O105 O 0.78522 0.8158 0.27158 0.0
O106 O 0.80669 0.76771 0.28203 0.0
O107 O 0.75979 0.7618 0.30109 0.0
H108 H 0.73226 0.78592 0.24622 0.0
H109 H 0.6999 0.78554 0.20685 0.0
H110 H 0.70394 0.85196 0.20387 0.0
H111 H 0.73552 0.85214 0.24354 0.0
H112 H 0.78901 0.8756 0.34787 0.0
H113 H 0.78627 0.84221 0.32683 0.0
H114 H 0.83695 0.84688 0.41233 0.0
H115 H 0.83469 0.81376 0.39091 0.0
H116 H 0.85029 0.71205 0.33915 0.0
H117 H 0.78964 0.68347 0.28147 0.0
H118 H 0.76817 0.71717 0.26922 0.0
H119 H 0.82805 0.74575 0.327 0.0
C120 C 0.7708 0.21174 0.70718 0.0
C121 C 0.74532 0.19784 0.70123 0.0
C122 C 0.78241 0.17794 0.67526 0.0
C123 C 0.75099 0.18117 0.68542 0.0
C124 C 0.80793 0.19197 0.68126 0.0
C125 C 0.80217 0.20872 0.69697 0.0
U126 U 0.77937 0.26797 0.72904 0.0
O127 O 0.74218 0.28837 0.74489 0.0
O128 O 0.78586 0.27996 0.7675 0.0
C129 C 0.7576 0.28972 0.76677 0.0
C130 C 0.76418 0.22881 0.72456 0.0
C131 C 0.73679 0.28755 0.78909 0.0
C132 C 0.7028 0.26721 0.81749 0.0
C133 C 0.72386 0.26846 0.79676 0.0
C134 C 0.70789 0.30404 0.82307 0.0
C135 C 0.69425 0.28507 0.83064 0.0
C136 C 0.72895 0.30524 0.8025 0.0
C137 C 0.82777 0.30918 0.69442 0.0
C138 C 0.82503 0.34289 0.67401 0.0
C139 C 0.85959 0.33804 0.71113 0.0
C140 C 0.85005 0.31736 0.71232 0.0
C141 C 0.84704 0.35115 0.69209 0.0
C142 C 0.81561 0.32214 0.67514 0.0
C143 C 0.81614 0.28751 0.69618 0.0
O144 O 0.78935 0.23556 0.73813 0.0
O145 O 0.74547 0.24365 0.71554 0.0
O146 O 0.78423 0.28469 0.69291 0.0
O147 O 0.82845 0.27637 0.71485 0.0
H148 H 0.72091 0.19989 0.70886 0.0
H149 H 0.73055 0.17098 0.6809 0.0
H150 H 0.83253 0.1899 0.67407 0.0
H151 H 0.8223 0.21922 0.70126 0.0
H152 H 0.69244 0.25241 0.82276 0.0
H153 H 0.72963 0.25464 0.78651 0.0
H154 H 0.70215 0.31801 0.83301 0.0
H155 H 0.73883 0.32009 0.79684 0.0
H156 H 0.81463 0.35251 0.65919 0.0
H157 H 0.87714 0.34369 0.72505 0.0
H158 H 0.86007 0.30786 0.72742 0.0
H159 H 0.79842 0.31628 0.66108 0.0
C160 C 0.7831 0.71853 0.7146 0.0
C161 C 0.81296 0.71993 0.70156 0.0
C162 C 0.81206 0.68285 0.69474 0.0
C163 C 0.82732 0.70225 0.69174 0.0
C164 C 0.78152 0.68172 0.70699 0.0
C165 C 0.76727 0.69937 0.71683 0.0
U166 U 0.76195 0.77626 0.72243 0.0
O167 O 0.71691 0.78966 0.73769 0.0
O168 O 0.7643 0.79435 0.75734 0.0
C169 C 0.73209 0.79627 0.75819 0.0
C170 C 0.76909 0.73631 0.72766 0.0
C171 C 0.71666 0.79102 0.78264 0.0
C172 C 0.6726 0.77515 0.80698 0.0
C173 C 0.68761 0.77913 0.78382 0.0
C174 C 0.71566 0.79451 0.82835 0.0
C175 C 0.68629 0.78289 0.82955 0.0
C176 C 0.73056 0.7986 0.80515 0.0
C177 C 0.78283 0.81786 0.67376 0.0
C178 C 0.75546 0.85094 0.66999 0.0
C179 C 0.8076 0.84566 0.64935 0.0
C180 C 0.80848 0.8255 0.65879 0.0
C181 C 0.7809 0.85856 0.6546 0.0
C182 C 0.75651 0.83082 0.6796 0.0
C183 C 0.78358 0.79627 0.68262 0.0
O184 O 0.79022 0.74986 0.73677 0.0
O185 O 0.74284 0.74471 0.71719 0.0
O186 O 0.7549 0.78671 0.6832 0.0
O187 O 0.80211 0.79256 0.70267 0.0
H188 H 0.82566 0.73456 0.69958 0.0
H189 H 0.85099 0.7037 0.68265 0.0
H190 H 0.76879 0.66714 0.70928 0.0
H191 H 0.74416 0.69797 0.72678 0.0
H192 H 0.64971 0.76647 0.80704 0.0
H193 H 0.67609 0.77311 0.76686 0.0
H194 H 0.72714 0.80052 0.84533 0.0
H195 H 0.75288 0.80785 0.80479 0.0
H196 H 0.73475 0.86055 0.67461 0.0
H197 H 0.82739 0.85095 0.63733 0.0
H198 H 0.82901 0.81576 0.65408 0.0
H199 H 0.73656 0.82532 0.69134 0.0
C200 C 0.7253 0.24771 0.25153 0.0
C201 C 0.70954 0.26613 0.24484 0.0
C202 C 0.69347 0.25192 0.20403 0.0
C203 C 0.69365 0.26818 0.2214 0.0
C204 C 0.71023 0.23372 0.21058 0.0
C205 C 0.72588 0.23163 0.23414 0.0
U206 U 0.77008 0.26847 0.30998 0.0
O207 O 0.76138 0.2618 0.35018 0.0
O208 O 0.80906 0.25438 0.33352 0.0
C209 C 0.78967 0.2523 0.35312 0.0
C210 C 0.74039 0.24481 0.27674 0.0
C211 C 0.78745 0.23152 0.36449 0.0
C212 C 0.78617 0.19422 0.36079 0.0
C213 C 0.78949 0.21376 0.3497 0.0
C214 C 0.77831 0.20994 0.40149 0.0
C215 C 0.78027 0.19209 0.3868 0.0
C216 C 0.78193 0.22943 0.39044 0.0
C217 C 0.79272 0.32677 0.30919 0.0
C218 C 0.80684 0.3494 0.34409 0.0
C219 C 0.81715 0.36039 0.3011 0.0
C220 C 0.8044 0.34175 0.29229 0.0
C221 C 0.81845 0.36455 0.32711 0.0
C222 C 0.79407 0.33066 0.33521 0.0
C223 C 0.7786 0.30762 0.29883 0.0
O224 O 0.77259 0.24708 0.27804 0.0
O225 O 0.72504 0.25355 0.29546 0.0
O226 O 0.75195 0.30025 0.30966 0.0
O227 O 0.79976 0.29332 0.29285 0.0
H228 H 0.70895 0.27881 0.25793 0.0
H229 H 0.68066 0.28231 0.21725 0.0
H230 H 0.71114 0.22101 0.19757 0.0
H231 H 0.73815 0.21735 0.23891 0.0
H232 H 0.78753 0.18079 0.34894 0.0
H233 H 0.79335 0.21498 0.32955 0.0
H234 H 0.77421 0.20884 0.42161 0.0
H235 H 0.78017 0.24292 0.40217 0.0
H236 H 0.80727 0.3521 0.36422 0.0
H237 H 0.82648 0.37142 0.28747 0.0
H238 H 0.80363 0.33902 0.27215 0.0
H239 H 0.78514 0.31929 0.3486 0.0
C240 C 0.20423 0.2331 0.66202 0.0
C241 C 0.2093 0.23163 0.636 0.0
C242 C 0.20947 0.19421 0.63913 0.0
C243 C 0.21194 0.21241 0.62466 0.0
C244 C 0.20398 0.19572 0.6652 0.0
C245 C 0.20161 0.215 0.67659 0.0
U246 U 0.22157 0.26843 0.71755 0.0
O247 O 0.24253 0.29983 0.71837 0.0
O248 O 0.19336 0.29367 0.73374 0.0
C249 C 0.21572 0.30764 0.72796 0.0
C250 C 0.20317 0.2536 0.67366 0.0
C251 C 0.20354 0.32687 0.71622 0.0
C252 C 0.16159 0.34621 0.69314 0.0
C253 C 0.17422 0.32741 0.70183 0.0
C254 C 0.20807 0.36407 0.71221 0.0
C255 C 0.17807 0.36484 0.69859 0.0
C256 C 0.22059 0.34529 0.72096 0.0
C257 C 0.26122 0.24482 0.77711 0.0
C258 C 0.28924 0.26414 0.81016 0.0
C259 C 0.27858 0.2277 0.81591 0.0
C260 C 0.26322 0.22705 0.79216 0.0
C261 C 0.29236 0.24616 0.82502 0.0
C262 C 0.27376 0.26347 0.78641 0.0
C263 C 0.24727 0.24334 0.75143 0.0
O264 O 0.18288 0.25564 0.69263 0.0
O265 O 0.23209 0.2623 0.67769 0.0
O266 O 0.26452 0.25235 0.73357 0.0
O267 O 0.21541 0.24654 0.74918 0.0
H268 H 0.21149 0.2454 0.62444 0.0
H269 H 0.21572 0.2118 0.60449 0.0
H270 H 0.20224 0.18201 0.67689 0.0
H271 H 0.19807 0.21576 0.69678 0.0
H272 H 0.13826 0.34617 0.68296 0.0
H273 H 0.1606 0.31339 0.69787 0.0
H274 H 0.22175 0.37802 0.71639 0.0
H275 H 0.2433 0.34522 0.73196 0.0
H276 H 0.29984 0.27856 0.81645 0.0
H277 H 0.28003 0.21366 0.82701 0.0
H278 H 0.25346 0.21255 0.78534 0.0
H279 H 0.27232 0.27738 0.77506 0.0
C280 C 0.18446 0.73784 0.35313 0.0
C281 C 0.17649 0.72523 0.33254 0.0
C282 C 0.1607 0.69729 0.36112 0.0
C283 C 0.16461 0.70521 0.33649 0.0
C284 C 0.16964 0.70986 0.38166 0.0
C285 C 0.18132 0.72993 0.37768 0.0
U286 U 0.22605 0.77865 0.31245 0.0
O287 O 0.21329 0.811 0.30465 0.0
O288 O 0.26115 0.8034 0.32206 0.0
C289 C 0.24082 0.81803 0.31482 0.0
C290 C 0.1959 0.75921 0.34925 0.0
C291 C 0.23769 0.83574 0.3318 0.0
C292 C 0.23975 0.85107 0.3735 0.0
C293 C 0.24081 0.83368 0.35812 0.0
C294 C 0.23164 0.87269 0.33651 0.0
C295 C 0.2354 0.87082 0.36285 0.0
C296 C 0.23284 0.85534 0.32118 0.0
C297 C 0.25937 0.76321 0.24849 0.0
C298 C 0.29822 0.78432 0.22502 0.0
C299 C 0.27298 0.75451 0.2054 0.0
C300 C 0.25544 0.75046 0.2275 0.0
C301 C 0.29489 0.77137 0.20397 0.0
C302 C 0.28053 0.78033 0.24702 0.0
C303 C 0.24208 0.7582 0.27201 0.0
O304 O 0.22805 0.76183 0.34875 0.0
O305 O 0.18024 0.76969 0.33151 0.0
O306 O 0.21322 0.7669 0.27467 0.0
O307 O 0.26044 0.75875 0.29262 0.0
H308 H 0.17897 0.73098 0.31339 0.0
H309 H 0.15762 0.69617 0.3202 0.0
H310 H 0.16756 0.70422 0.40087 0.0
H311 H 0.18768 0.73934 0.39381 0.0
H312 H 0.24224 0.84904 0.39374 0.0
H313 H 0.2444 0.8187 0.36677 0.0
H314 H 0.2286 0.88764 0.32764 0.0
H315 H 0.23052 0.85727 0.3009 0.0
H316 H 0.31518 0.79726 0.22482 0.0
H317 H 0.26938 0.7444 0.18948 0.0
H318 H 0.23905 0.73724 0.22828 0.0
H319 H 0.28383 0.79039 0.26305 0.0
H320 H -0.00687 0.45794 0.35568 0.0
H321 H 0.93802 0.51363 0.35886 0.0
H322 H 0.04342 0.51527 0.34511 0.0
H323 H 0.0417 0.54494 0.36479 0.0
H324 H -0.01228 0.60094 0.35828 0.0
H325 H 0.93887 0.54431 0.34055 0.0
C326 C -0.00759 0.47461 0.35509 0.0
C327 C 0.02156 0.4856 0.35107 0.0
C328 C 0.96223 0.48459 0.35721 0.0
C329 C 0.96144 0.5062 0.35611 0.0
C330 C -0.00927 0.51792 0.35236 0.0
C331 C 0.02067 0.50714 0.34906 0.0
C332 C -0.00975 0.54114 0.35279 0.0
C333 C 0.01885 0.55256 0.35992 0.0
C334 C 0.01796 0.57408 0.36175 0.0
C335 C -0.01161 0.58431 0.35699 0.0
C336 C 0.95992 0.57364 0.34968 0.0
C337 C 0.96097 0.55218 0.34698 0.0
H338 H -0.00331 0.59755 0.66992 0.0
H339 H 0.05032 0.54235 0.68417 0.0
H340 H 0.94532 0.54006 0.66667 0.0
H341 H 0.9465 0.50991 0.68421 0.0
H342 H -1e-05 0.45426 0.67563 0.0
H343 H 0.05157 0.51154 0.66864 0.0
C344 C -0.0029 0.58088 0.67088 0.0
C345 C 0.96765 0.56981 0.66827 0.0
C346 C 0.02684 0.571 0.67616 0.0
C347 C 0.02721 0.54951 0.67901 0.0
C348 C -0.00192 0.5376 0.67514 0.0
C349 C 0.96824 0.54824 0.66993 0.0
C350 C -0.00113 0.51435 0.67611 0.0
C351 C 0.96969 0.50262 0.68027 0.0
C352 C 0.97017 0.48107 0.67957 0.0
C353 C -0.00024 0.47095 0.67565 0.0
C354 C 0.0291 0.4819 0.67231 0.0
C355 C 0.02868 0.50351 0.67229 0.0
H356 H 0.19732 0.09946 0.50428 0.0
H357 H 0.21817 0.04445 0.54618 0.0
H358 H 0.18919 0.04144 0.4671 0.0
H359 H 0.2207 1.01311 0.46854 0.0
H360 H 0.22054 0.95726 0.51211 0.0
H361 H 0.19358 1.01335 0.54749 0.0
C362 C 0.19892 0.08281 0.50502 0.0
C363 C 0.1925 0.07151 0.48323 0.0
C364 C 0.20783 0.07311 0.52766 0.0
C365 C 0.2102 0.05159 0.52863 0.0
C366 C 0.20368 0.03961 0.50686 0.0
C367 C 0.19482 0.04995 0.48408 0.0
C368 C 0.20699 1.01655 0.50792 0.0
C369 C 0.21623 1.00534 0.48632 0.0
C370 C 0.22103 0.98395 0.48777 0.0
C371 C 0.21701 0.97376 0.51089 0.0
C372 C 0.20742 0.98432 0.53234 0.0
C373 C 0.20177 1.00555 0.53078 0.0
H374 H 0.49375 0.80395 0.10447 0.0
H375 H 0.54661 0.80151 0.03509 0.0
H376 H 0.44459 0.78153 0.03819 0.0
H377 H 0.44389 0.79431 0.99873 0.0
H378 H 0.49465 0.77506 0.9329 0.0
H379 H 0.54771 0.77936 1.00316 0.0
C380 C 0.49414 0.80073 0.08443 0.0
C381 C 0.46562 0.79315 0.07254 0.0
C382 C 0.52356 0.8032 0.07117 0.0
C383 C 0.52405 0.79872 0.04529 0.0
C384 C 0.49548 0.79121 0.03272 0.0
C385 C 0.46657 0.78798 0.04692 0.0
C386 C 0.49557 0.78685 1.00496 0.0
C387 C 0.46634 0.78887 0.99032 0.0
C388 C 0.46578 0.78404 0.96459 0.0
C389 C 0.49483 0.7779 0.95305 0.0
C390 C 0.52454 0.77682 0.96672 0.0
C391 C 0.52475 0.78095 0.9927 0.0
H392 H 0.78232 0.09714 0.52114 0.0
H393 H 0.79905 0.04034 0.56053 0.0
H394 H 0.77294 0.04075 0.48078 0.0
H395 H 0.80087 1.01128 0.48106 0.0
H396 H 0.79107 0.954 0.52088 0.0
H397 H 0.7736 1.00993 0.56007 0.0
C398 C 0.78354 0.08048 0.52106 0.0
C399 C 0.77745 0.07008 0.49854 0.0
C400 C 0.79108 0.06987 0.54342 0.0
C401 C 0.79231 0.04827 0.5432 0.0
C402 C 0.78599 0.03718 0.52067 0.0
C403 C 0.77861 0.0485 0.49829 0.0
C404 C 0.78709 1.014 0.52057 0.0
C405 C 0.79492 1.00314 0.49833 0.0
C406 C 0.79627 0.98154 0.49845 0.0
C407 C 0.78994 0.97067 0.52074 0.0
C408 C 0.78218 0.98088 0.54287 0.0
C409 C 0.78052 1.00243 0.54281 0.0
H410 H 0.49832 0.27192 0.10209 0.0
H411 H 0.545 0.25981 0.03201 0.0
H412 H 0.44079 0.27397 0.03365 0.0
H413 H 0.43972 0.25573 0.99826 0.0
H414 H 0.48703 0.26314 0.927 0.0
H415 H 0.54173 0.27595 0.99475 0.0
C416 C 0.49666 0.27085 0.08169 0.0
C417 C 0.46609 0.27296 0.06939 0.0
C418 C 0.52498 0.26637 0.06817 0.0
C419 C 0.52292 0.264 0.04194 0.0
C420 C 0.49273 0.26703 0.0288 0.0
C421 C 0.46432 0.2714 0.04296 0.0
C422 C 0.49104 0.26584 1.00052 0.0
C423 C 0.46151 0.26004 0.98783 0.0
C424 C 0.4601 0.25921 0.96139 0.0
C425 C 0.48818 0.26396 0.94744 0.0
C426 C 0.51767 0.26973 0.95944 0.0
C427 C 0.51901 0.27075 0.98587 0.0
H428 H 0.15652 0.40159 0.28513 0.0
H429 H 0.05052 0.46131 0.38663 0.0
H430 H 0.14169 0.38031 0.36157 0.0
H431 H 0.06045 0.48172 0.30953 0.0
H432 H 0.09158 0.43476 0.37953 0.0
H433 H 0.12842 0.43352 0.29515 0.0
C434 C 0.14774 0.40371 0.30413 0.0
C435 C 0.15137 0.38811 0.3225 0.0
C436 C 0.08535 0.44524 0.36424 0.0
C437 C 0.11881 0.4247 0.33402 0.0
C438 C 0.06216 0.46052 0.36838 0.0
C439 C 0.05229 0.4737 0.34864 0.0
C440 C 0.09848 0.44292 0.34004 0.0
C441 C 0.0677 0.47194 0.32526 0.0
C442 C 0.13155 0.42195 0.30979 0.0
C443 C 0.13902 0.39171 0.34668 0.0
N444 N 0.08973 0.4566 0.32147 0.0
N445 N 0.12319 0.40954 0.35168 0.0
H446 H 0.14054 0.68134 0.66762 0.0
H447 H 0.06714 0.57441 0.71791 0.0
H448 H 0.15633 0.65857 0.74359 0.0
H449 H 0.05289 0.59792 0.6423 0.0
H450 H 0.10706 0.60229 0.72605 0.0
H451 H 0.11516 0.6485 0.6565 0.0
C452 C 0.13907 0.66937 0.68192 0.0
C453 C 0.15032 0.67291 0.70668 0.0
C454 C 0.0957 0.60111 0.70751 0.0
C455 C 0.1207 0.63517 0.69411 0.0
C456 C 0.07323 0.58508 0.70282 0.0
C457 C 0.05674 0.58399 0.67945 0.0
C458 C 0.10152 0.61608 0.68869 0.0
C459 C 0.06505 0.59834 0.66061 0.0
C460 C 0.12439 0.6506 0.67557 0.0
C461 C 0.14735 0.65677 0.72441 0.0
N462 N 0.08652 0.61391 0.66572 0.0
N463 N 0.13259 0.63871 0.71785 0.0
H464 H 0.83658 0.67897 0.35821 0.0
H465 H 0.92701 0.57974 0.30479 0.0
H466 H 0.84018 0.66432 0.27904 0.0
H467 H 0.92647 0.59643 0.38323 0.0
H468 H 0.88753 0.60739 0.29552 0.0
H469 H 0.86307 0.64624 0.36819 0.0
C470 C 0.84292 0.66889 0.3429 0.0
C471 C 0.83634 0.67457 0.31772 0.0
C472 C 0.89549 0.60472 0.31486 0.0
C473 C 0.86651 0.63682 0.32905 0.0
C474 C 0.91767 0.58879 0.32015 0.0
C475 C 0.92978 0.58583 0.34479 0.0
C476 C 0.88561 0.61777 0.33437 0.0
C477 C 0.91753 0.59823 0.36399 0.0
C478 C 0.85784 0.65009 0.34863 0.0
C479 C 0.84454 0.66059 0.29874 0.0
N480 N 0.89645 0.61378 0.35835 0.0
N481 N 0.85941 0.64249 0.30477 0.0
H482 H 0.85818 0.37772 0.73146 0.0
H483 H 0.92949 0.4671 0.64247 0.0
H484 H 0.85951 0.37509 0.65009 0.0
H485 H 0.94586 0.46441 0.72285 0.0
H486 H 0.89194 0.43749 0.64576 0.0
H487 H 0.8798 0.41285 0.72924 0.0
C488 C 0.86295 0.38449 0.7131 0.0
C489 C 0.85744 0.3732 0.69093 0.0
C490 C 0.90305 0.44367 0.66279 0.0
C491 C 0.88167 0.41369 0.6883 0.0
C492 C 0.92407 0.46072 0.66093 0.0
C493 C 0.94026 0.46827 0.68248 0.0
C494 C 0.89855 0.434 0.68635 0.0
C495 C 0.93333 0.45916 0.7059 0.0
C496 C 0.87506 0.40464 0.71187 0.0
C497 C 0.86322 0.38311 0.6677 0.0
N498 N 0.91326 0.44233 0.70721 0.0
N499 N 0.87526 0.40268 0.66701 0.0
H500 H 0.12459 0.17407 0.39585 0.0
H501 H 0.23123 0.07734 0.44203 0.0
H502 H 0.22514 0.16389 0.37367 0.0
H503 H 0.13731 0.09353 0.47279 0.0
H504 H 0.22471 0.10468 0.41003 0.0
H505 H 0.12475 0.14092 0.41785 0.0
C506 C 0.14672 0.16487 0.39554 0.0
C507 C 0.17506 0.17202 0.38314 0.0
C508 C 0.20515 0.10193 0.42339 0.0
C509 C 0.17524 0.13375 0.40815 0.0
C510 C 0.2087 0.08617 0.4414 0.0
C511 C 0.18461 0.08314 0.45982 0.0
C512 C 0.17736 0.11473 0.42396 0.0
C513 C 0.15625 0.09531 0.45869 0.0
C514 C 0.1467 0.14585 0.408 0.0
C515 C 0.20267 0.15907 0.38288 0.0
N516 N 0.15355 0.11069 0.44126 0.0
N517 N 0.20217 0.14068 0.3954 0.0
H518 H 0.31247 0.76721 0.85189 0.0
H519 H 0.4271 0.81806 0.95877 0.0
H520 H 0.32996 0.83265 0.85695 0.0
H521 H 0.43648 0.75537 0.93446 0.0
H522 H 0.3818 0.82281 0.92802 0.0
H523 H 0.34887 0.76198 0.8884 0.0
C524 C 0.3239 0.78051 0.86061 0.0
C525 C 0.3184 0.80041 0.85096 0.0
C526 C 0.39354 0.80796 0.92967 0.0
C527 C 0.35957 0.79447 0.89325 0.0
C528 C 0.41913 0.80521 0.94729 0.0
C529 C 0.43547 0.78633 0.94898 0.0
C530 C 0.3841 0.79162 0.91393 0.0
C531 C 0.42454 0.7702 0.93356 0.0
C532 C 0.34452 0.77748 0.88158 0.0
C533 C 0.3332 0.81704 0.8637 0.0
N534 N 0.39959 0.77321 0.91662 0.0
N535 N 0.35322 0.81368 0.88409 0.0
H536 H 0.8632 0.88005 0.41135 0.0
H537 H 0.7598 0.97777 0.45491 0.0
H538 H 0.76575 0.89406 0.38265 0.0
H539 H 0.84914 0.95701 0.49147 0.0
H540 H 0.76647 0.95125 0.42261 0.0
H541 H 0.86275 0.91174 0.4356 0.0
C542 C 0.84167 0.88977 0.41011 0.0
C543 C 0.81429 0.88414 0.39513 0.0
C544 C 0.78496 0.95277 0.43742 0.0
C545 C 0.81381 0.92077 0.42275 0.0
C546 C 0.78134 0.96803 0.45563 0.0
C547 C 0.80407 0.96956 0.4757 0.0
C548 C 0.81151 0.93901 0.43938 0.0
C549 C 0.8312 0.95633 0.47617 0.0
C550 C 0.84153 0.90797 0.42387 0.0
C551 C 0.78749 0.89773 0.39383 0.0
N552 N 0.83403 0.94153 0.45843 0.0
N553 N 0.78781 0.9153 0.40761 0.0
H554 H 0.64313 0.31112 0.83879 0.0
H555 H 0.57961 0.25342 0.96345 0.0
H556 H 0.69024 0.25707 0.8698 0.0
H557 H 0.52155 0.29647 0.91973 0.0
H558 H 0.62507 0.25827 0.93364 0.0
H559 H 0.60289 0.30943 0.87255 0.0
C560 C 0.64519 0.29898 0.85286 0.0
C561 C 0.6701 0.2842 0.85146 0.0
C562 C 0.60247 0.26677 0.93074 0.0
C563 C 0.62385 0.2821 0.89016 0.0
C564 C 0.57672 0.26414 0.94781 0.0
C565 C 0.54686 0.27449 0.94388 0.0
C566 C 0.59833 0.28001 0.90983 0.0
C567 C 0.54413 0.28808 0.92326 0.0
C568 C 0.62208 0.29797 0.87206 0.0
C569 C 0.67122 0.26865 0.87003 0.0
N570 N 0.56948 0.2904 0.90698 0.0
N571 N 0.64841 0.268 0.88864 0.0
H572 H 0.24142 0.89 0.64361 0.0
H573 H 0.15057 0.97471 0.55723 0.0
H574 H 0.13614 0.89081 0.63072 0.0
H575 H 0.25567 0.96583 0.55995 0.0
H576 H 0.14434 0.94841 0.59059 0.0
H577 H 0.24645 0.92191 0.61932 0.0
C578 C 0.21927 0.89702 0.63598 0.0
C579 C 0.18831 0.88758 0.63913 0.0
C580 C 0.16882 0.9525 0.58422 0.0
C581 C 0.19398 0.92415 0.61094 0.0
C582 C 0.17235 0.96764 0.56543 0.0
C583 C 0.20367 0.97244 0.55608 0.0
C584 C 0.19685 0.9422 0.59363 0.0
C585 C 0.23114 0.96259 0.56685 0.0
C586 C 0.22219 0.91521 0.62196 0.0
C587 C 0.16056 0.89734 0.62845 0.0
N588 N 0.22709 0.94785 0.58492 0.0
N589 N 0.16406 0.91502 0.61475 0.0
H590 H 0.70026 0.79252 0.16172 0.0
H591 H 0.53157 0.83545 0.10327 0.0
H592 H 0.64819 0.84468 0.19068 0.0
H593 H 0.58388 0.78459 0.07159 0.0
H594 H 0.57783 0.84151 0.13228 0.0
H595 H 0.66126 0.79128 0.12608 0.0
C596 C 0.68073 0.80376 0.16056 0.0
C597 C 0.67744 0.81866 0.17936 0.0
C598 C 0.57949 0.82918 0.11879 0.0
C599 C 0.63285 0.81742 0.1385 0.0
C600 C 0.55311 0.82576 0.1022 0.0
C601 C 0.55385 0.8094 0.08519 0.0
C602 C 0.60675 0.81598 0.11863 0.0
C603 C 0.58241 0.79739 0.08441 0.0
C604 C 0.6586 0.80313 0.14011 0.0
C605 C 0.65197 0.83304 0.17659 0.0
N606 N 0.60756 0.80073 0.10118 0.0
N607 N 0.63057 0.83195 0.15671 0.0
H608 H 0.82144 0.17694 0.63326 0.0
H609 H 0.76169 0.06524 0.5896 0.0
H610 H 0.75672 0.13854 0.67783 0.0
H611 H 0.83254 0.10262 0.54975 0.0
H612 H 0.76322 0.09007 0.6243 0.0
H613 H 0.829 0.1485 0.60445 0.0
C614 C 0.80908 0.16247 0.63722 0.0
C615 C 0.78827 0.16029 0.65808 0.0
C616 C 0.77881 0.09267 0.60813 0.0
C617 C 0.79643 0.12752 0.62463 0.0
C618 C 0.77814 0.0784 0.58846 0.0
C619 C 0.7968 0.082 0.56672 0.0
C620 C 0.79823 0.11062 0.60594 0.0
C621 C 0.81748 0.09941 0.56606 0.0
C622 C 0.81329 0.1462 0.62061 0.0
C623 C 0.77252 0.14115 0.66179 0.0
N624 N 0.81736 0.11314 0.58519 0.0
N625 N 0.77675 0.12558 0.64517 0.0
H626 H 0.29606 0.24045 0.15662 0.0
H627 H 0.45664 0.29969 0.10809 0.0
H628 H 0.34257 0.29094 0.19596 0.0
H629 H 0.40785 0.25155 0.0661 0.0
H630 H 0.4114 0.2992 0.13808 0.0
H631 H 0.33346 0.24627 0.12136 0.0
C632 C 0.31406 0.2528 0.15781 0.0
C633 C 0.31632 0.26512 0.1794 0.0
C634 C 0.41029 0.28892 0.12214 0.0
C635 C 0.3591 0.27195 0.13901 0.0
C636 C 0.4361 0.28922 0.10501 0.0
C637 C 0.4361 0.27551 0.08474 0.0
C638 C 0.38438 0.27464 0.11917 0.0
C639 C 0.40875 0.2624 0.08146 0.0
C640 C 0.33527 0.2562 0.1376 0.0
C641 C 0.33974 0.28114 0.17968 0.0
N642 N 0.38419 0.26208 0.09872 0.0
N643 N 0.36037 0.28397 0.15992 0.0
H644 H 0.84802 0.67674 0.65176 0.0
H645 H 0.91265 0.56644 0.69738 0.0
H646 H 0.81464 0.64536 0.719 0.0
H647 H 0.95276 0.60056 0.63461 0.0
H648 H 0.86863 0.5919 0.70042 0.0
H649 H 0.8795 0.64628 0.64083 0.0
C650 C 0.84717 0.66344 0.66419 0.0
C651 C 0.82884 0.66377 0.68649 0.0
C652 C 0.88669 0.59361 0.68566 0.0
C653 C 0.86469 0.62867 0.67394 0.0
C654 C 0.91156 0.57894 0.68375 0.0
C655 C 0.93647 0.58152 0.66586 0.0
C656 C 0.88681 0.61095 0.66957 0.0
C657 C 0.93415 0.59814 0.64883 0.0
C658 C 0.865 0.64598 0.65784 0.0
C659 C 0.82817 0.64584 0.70154 0.0
N660 N 0.91008 0.61236 0.65132 0.0
N661 N 0.84606 0.62914 0.69512 0.0
H662 H 0.85804 0.37122 0.36886 0.0
H663 H 0.90704 0.4854 0.32687 0.0
H664 H 0.81187 0.40325 0.3062 0.0
H665 H 0.94981 0.45363 0.39094 0.0
H666 H 0.8655 0.45791 0.32311 0.0
H667 H 0.88567 0.40316 0.381 0.0
C668 C 0.85328 0.38501 0.35784 0.0
C669 C 0.83286 0.38437 0.33624 0.0
C670 C 0.88354 0.45715 0.33833 0.0
C671 C 0.86498 0.42112 0.34987 0.0
C672 C 0.907 0.47297 0.34063 0.0
C673 C 0.93199 0.47167 0.35911 0.0
C674 C 0.88525 0.43993 0.35458 0.0
C675 C 0.93109 0.4551 0.37628 0.0
C676 C 0.86924 0.40327 0.36472 0.0
C677 C 0.828 0.40282 0.32263 0.0
N678 N 0.90848 0.43975 0.37337 0.0
N679 N 0.84418 0.42033 0.3295 0.0
H680 H 0.1777 0.40061 0.72581 0.0
H681 H 0.04378 0.45388 0.63647 0.0
H682 H 0.14386 0.37514 0.65504 0.0
H683 H 0.0827 0.48179 0.70405 0.0
H684 H 0.08636 0.42754 0.63963 0.0
H685 H 0.14901 0.43246 0.7154 0.0
C686 C 0.16471 0.40178 0.70787 0.0
C687 C 0.16306 0.38498 0.69139 0.0
C688 C 0.08615 0.43964 0.6535 0.0
C689 C 0.12954 0.4215 0.67954 0.0
C690 C 0.06202 0.45477 0.65156 0.0
C691 C 0.05986 0.46998 0.67002 0.0
C692 C 0.10796 0.43951 0.67433 0.0
C693 C 0.08377 0.47038 0.68935 0.0
C694 C 0.14815 0.42 0.70201 0.0
C695 C 0.14532 0.38745 0.66861 0.0
N696 N 0.10651 0.45514 0.69127 0.0
N697 N 0.12906 0.40525 0.66349 0.0
H698 H 0.11794 0.68505 0.39825 0.0
H699 H 0.07548 0.5769 0.33546 0.0
H700 H 0.16905 0.6619 0.33358 0.0
H701 H 0.02641 0.60102 0.40027 0.0
H702 H 0.11637 0.60489 0.33851 0.0
H703 H 0.09042 0.65191 0.40302 0.0
C704 C 0.12384 0.67293 0.38524 0.0
C705 C 0.1458 0.67647 0.36534 0.0
C706 C 0.0971 0.6038 0.35241 0.0
C707 C 0.11355 0.6383 0.37044 0.0
C708 C 0.07403 0.58769 0.35084 0.0
C709 C 0.04759 0.58674 0.36761 0.0
C710 C 0.09351 0.61902 0.37085 0.0
C711 C 0.04643 0.60128 0.38695 0.0
C712 C 0.10788 0.65396 0.3879 0.0
C713 C 0.15184 0.6601 0.34889 0.0
N714 N 0.06875 0.61694 0.38784 0.0
N715 N 0.1356 0.64183 0.35167 0.0
H716 H 0.83037 0.88741 0.65006 0.0
H717 H 0.72804 0.95803 0.55455 0.0
H718 H 0.72724 0.87746 0.63283 0.0
H719 H 0.82542 0.97386 0.58162 0.0
H720 H 0.72522 0.93042 0.58627 0.0
H721 H 0.82783 0.9205 0.6278 0.0
C722 C 0.80714 0.89223 0.6417 0.0
C723 C 0.77905 0.87953 0.64314 0.0
C724 C 0.74694 0.9402 0.58574 0.0
C725 C 0.77592 0.91748 0.61761 0.0
C726 C 0.74837 0.95605 0.5678 0.0
C727 C 0.7768 0.96831 0.56583 0.0
C728 C 0.77449 0.9363 0.60142 0.0
C729 C 0.8029 0.96488 0.5829 0.0
C730 C 0.80564 0.9112 0.62912 0.0
C731 C 0.74948 0.88675 0.63229 0.0
N732 N 0.80133 0.94899 0.59976 0.0
N733 N 0.7488 0.9051 0.61975 0.0
H734 H 0.68583 0.28591 0.17316 0.0
H735 H 0.55788 0.23086 0.0787 0.0
H736 H 0.65767 0.2219 0.17942 0.0
H737 H 0.5619 0.29627 0.09029 0.0
H738 H 0.60439 0.22669 0.10857 0.0
H739 H 0.64983 0.28921 0.13603 0.0
C740 C 0.67221 0.27252 0.16675 0.0
C741 C 0.67454 0.25366 0.17979 0.0
C742 C 0.59544 0.24198 0.10423 0.0
C743 C 0.63375 0.2573 0.13689 0.0
C744 C 0.56919 0.24434 0.08711 0.0
C745 C 0.55641 0.26392 0.08213 0.0
C746 C 0.60894 0.25936 0.11624 0.0
C747 C 0.57133 0.28095 0.09368 0.0
C748 C 0.65182 0.27441 0.14544 0.0
C749 C 0.65694 0.23673 0.17002 0.0
N750 N 0.59676 0.27828 0.11031 0.0
N751 N 0.63714 0.23899 0.14928 0.0
H752 H 0.1723 0.15908 0.64638 0.0
H753 H 0.25845 0.10013 0.53336 0.0
H754 H 0.25461 0.18287 0.60407 0.0
H755 H 0.17217 0.07679 0.57087 0.0
H756 H 0.26278 0.12765 0.56431 0.0
H757 H 0.17647 0.12652 0.62372 0.0
C758 C 0.19147 0.15738 0.63254 0.0
C759 C 0.21289 0.17384 0.62689 0.0
C760 C 0.24319 0.11636 0.56614 0.0
C761 C 0.21777 0.13663 0.6009 0.0
C762 C 0.24094 0.10055 0.54861 0.0
C763 C 0.21505 0.0862 0.54974 0.0
C764 C 0.21902 0.11806 0.58476 0.0
C765 C 0.19267 0.0875 0.5696 0.0
C766 C 0.19377 0.13881 0.61956 0.0
C767 C 0.23715 0.17078 0.60868 0.0
N768 N 0.19488 0.10336 0.58618 0.0
N769 N 0.2388 0.15264 0.5963 0.0
H770 H 0.31236 0.80833 0.1821 0.0
H771 H 0.42693 0.75859 0.07726 0.0
H772 H 0.32386 0.74284 0.1735 0.0
H773 H 0.43588 0.82132 0.10211 0.0
H774 H 0.38088 0.7534 0.10642 0.0
H775 H 0.34981 0.81404 0.14699 0.0
C776 C 0.32269 0.79513 0.17286 0.0
C777 C 0.31518 0.77505 0.18109 0.0
C778 C 0.39274 0.76835 0.10528 0.0
C779 C 0.35775 0.78154 0.1405 0.0
C780 C 0.4188 0.77134 0.08856 0.0
C781 C 0.43526 0.79036 0.08748 0.0
C782 C 0.38297 0.78457 0.12075 0.0
C783 C 0.424 0.80636 0.1026 0.0
C784 C 0.34394 0.79842 0.1527 0.0
C785 C 0.32869 0.75858 0.16781 0.0
N786 N 0.39864 0.80309 0.11867 0.0
N787 N 0.34946 0.76219 0.14828 0.0
H788 H 0.81657 0.15712 0.37951 0.0
H789 H 0.72548 0.09533 0.49011 0.0
H790 H 0.73406 0.17993 0.42115 0.0
H791 H 0.81497 0.07443 0.45624 0.0
H792 H 0.72213 0.12299 0.45865 0.0
H793 H 0.81105 0.124 0.4017 0.0
C794 C 0.79706 0.15509 0.3931 0.0
C795 C 0.776 0.17143 0.39871 0.0
C796 C 0.74221 0.11216 0.4577 0.0
C797 C 0.76952 0.13358 0.42412 0.0
C798 C 0.74389 0.09625 0.47549 0.0
C799 C 0.77047 0.08261 0.47564 0.0
C800 C 0.76756 0.11466 0.44009 0.0
C801 C 0.79395 0.08457 0.45655 0.0
C802 C 0.79399 0.13621 0.4058 0.0
C803 C 0.75126 0.16793 0.41657 0.0
N804 N 0.79224 0.10053 0.43973 0.0
N805 N 0.74883 0.14949 0.42868 0.0
H806 H 0.29402 0.2757 0.862 0.0
H807 H 0.44918 0.22576 0.93227 0.0
H808 H 0.33554 0.21711 0.84269 0.0
H809 H 0.40288 0.28094 0.95797 0.0
H810 H 0.40367 0.22056 0.90225 0.0
H811 H 0.33012 0.27671 0.89942 0.0
C812 C 0.31056 0.263 0.86568 0.0
C813 C 0.31182 0.24635 0.84904 0.0
C814 C 0.40302 0.23363 0.91471 0.0
C815 C 0.35306 0.24735 0.89192 0.0
C816 C 0.42889 0.2365 0.93192 0.0
C817 C 0.42951 0.25372 0.94756 0.0
C818 C 0.3779 0.24835 0.91275 0.0
C819 C 0.40298 0.26738 0.9463 0.0
C820 C 0.331 0.26352 0.88715 0.0
C821 C 0.3334 0.23018 0.85503 0.0
N822 N 0.37841 0.26458 0.92888 0.0
N823 N 0.3533 0.23119 0.87579 0.0
H824 H 0.19551 0.9048 0.35906 0.0
H825 H 0.27168 0.95707 0.48318 0.0
H826 H 0.27564 0.87946 0.40347 0.0
H827 H 0.18822 0.98177 0.44224 0.0
H828 H 0.27788 0.93112 0.45064 0.0
H829 H 0.19602 0.93506 0.3862 0.0
C830 C 0.21337 0.90564 0.37441 0.0
C831 C 0.23543 0.88943 0.37906 0.0
C832 C 0.25844 0.94234 0.4485 0.0
C833 C 0.23609 0.92409 0.41026 0.0
C834 C 0.25505 0.95724 0.46701 0.0
C835 C 0.2293 0.9715 0.46542 0.0
C836 C 0.23574 0.94151 0.42828 0.0
C837 C 0.20848 0.97109 0.44408 0.0
C838 C 0.21358 0.92292 0.38993 0.0
C839 C 0.25778 0.89135 0.39939 0.0
N840 N 0.21186 0.95614 0.42648 0.0
N841 N 0.25747 0.90829 0.41421 0.0
H842 H 0.68024 0.80991 0.8688 0.0
H843 H 0.53798 0.7457 0.93427 0.0
H844 H 0.65275 0.74847 0.84615 0.0
H845 H 0.58031 0.80057 0.96664 0.0
H846 H 0.58325 0.74473 0.90427 0.0
H847 H 0.64749 0.80546 0.90675 0.0
C848 C 0.6678 0.79534 0.87195 0.0
C849 C 0.66905 0.77963 0.85397 0.0
C850 C 0.58308 0.75677 0.91823 0.0
C851 C 0.63083 0.7746 0.89735 0.0
C852 C 0.5573 0.75728 0.93538 0.0
C853 C 0.5554 0.7733 0.95281 0.0
C854 C 0.60681 0.77263 0.91819 0.0
C855 C 0.58098 0.78793 0.95353 0.0
C856 C 0.64894 0.79285 0.89364 0.0
C857 C 0.65192 0.76122 0.85909 0.0
N858 N 0.60534 0.78746 0.93614 0.0
N859 N 0.63325 0.75931 0.88011 0.0
loop_
_geom_bond_atom_site_label_1
_geom_bond_atom_site_label_2
_geom_bond_distance
_geom_bond_site_symmetry_2
_ccdc_geom_bond_type
C0 C1 1.264 . S
C0 C5 1.479 . S
C0 C10 1.465 . S
C1 C0 1.264 . S
C1 C3 1.339 . S
C1 H28 0.931 . S
C2 C3 1.395 . S
C2 C4 1.320 . S
C3 C1 1.339 . S
C3 C2 1.395 . S
C3 H29 0.929 . S
C4 C2 1.320 . S
C4 C5 1.405 . S
C4 H30 0.930 . S
C5 C0 1.479 . S
C5 C4 1.405 . S
C5 H31 0.931 . S
U6 O7 2.454 . S
U6 O8 2.458 . S
U6 C9 2.984 . S
U6 C10 2.847 . S
U6 C23 2.882 . S
U6 O24 2.441 . S
U6 O25 2.420 . S
U6 O26 2.455 . S
U6 O27 2.449 . S
O7 U6 2.454 . S
O7 C9 1.353 . S
O8 U6 2.458 . S
O8 C9 1.286 . S
C9 U6 2.984 . S
C9 O7 1.353 . S
C9 O8 1.286 . S
C9 C11 1.363 . S
C10 C0 1.465 . S
C10 U6 2.847 . S
C10 O24 1.249 . S
C10 O25 1.202 . S
C11 C9 1.363 . S
C11 C13 1.408 . S
C11 C16 1.342 . S
C12 C13 1.310 . S
C12 C15 1.461 . S
C12 H32 0.932 . S
C13 C11 1.408 . S
C13 C12 1.310 . S
C13 H33 0.930 . S
C14 C15 1.474 . S
C14 C16 1.285 . S
C14 H34 0.929 . S
C15 C12 1.461 . S
C15 C14 1.474 . S
C16 C11 1.342 . S
C16 C14 1.285 . S
C16 H35 0.930 . S
C17 C20 1.424 . S
C17 C22 1.245 . S
C17 C23 1.428 . S
C18 C21 1.260 . S
C18 C22 1.477 . S
C18 H36 0.932 . S
C19 C20 1.384 . S
C19 C21 1.479 . S
C19 H37 0.929 . S
C20 C17 1.424 . S
C20 C19 1.384 . S
C20 H38 0.928 . S
C21 C18 1.260 . S
C21 C19 1.479 . S
C22 C17 1.245 . S
C22 C18 1.477 . S
C22 H39 0.932 . S
C23 U6 2.882 . S
C23 C17 1.428 . S
C23 O26 1.301 . S
C23 O27 1.282 . S
O24 U6 2.441 . S
O24 C10 1.249 . S
O25 U6 2.420 . S
O25 C10 1.202 . S
O26 U6 2.455 . S
O26 C23 1.301 . S
O27 U6 2.449 . S
O27 C23 1.282 . S
H28 C1 0.931 . S
H29 C3 0.929 . S
H30 C4 0.930 . S
H31 C5 0.931 . S
H32 C12 0.932 . S
H33 C13 0.930 . S
H34 C14 0.929 . S
H35 C16 0.930 . S
H36 C18 0.932 . S
H37 C19 0.929 . S
H38 C20 0.928 . S
H39 C22 0.932 . S
C40 C41 1.264 . S
C40 C45 1.479 . S
C40 C50 1.465 . S
C41 C40 1.264 . S
C41 C43 1.339 . S
C41 H68 0.931 . S
C42 C43 1.395 . S
C42 C44 1.320 . S
C43 C41 1.339 . S
C43 C42 1.395 . S
C43 H69 0.929 . S
C44 C42 1.320 . S
C44 C45 1.405 . S
C44 H70 0.930 . S
C45 C40 1.479 . S
C45 C44 1.405 . S
C45 H71 0.931 . S
U46 O47 2.454 . S
U46 O48 2.458 . S
U46 C49 2.984 . S
U46 C50 2.847 . S
U46 C63 2.882 . S
U46 O64 2.441 . S
U46 O65 2.420 . S
U46 O66 2.455 . S
U46 O67 2.449 . S
O47 U46 2.454 . S
O47 C49 1.353 . S
O48 U46 2.458 . S
O48 C49 1.286 . S
C49 U46 2.984 . S
C49 O47 1.353 . S
C49 O48 1.286 . S
C49 C51 1.363 . S
C50 C40 1.465 . S
C50 U46 2.847 . S
C50 O64 1.249 . S
C50 O65 1.202 . S
C51 C49 1.363 . S
C51 C53 1.408 . S
C51 C56 1.342 . S
C52 C53 1.310 . S
C52 C55 1.461 . S
C52 H72 0.932 . S
C53 C51 1.408 . S
C53 C52 1.310 . S
C53 H73 0.930 . S
C54 C55 1.474 . S
C54 C56 1.285 . S
C54 H74 0.929 . S
C55 C52 1.461 . S
C55 C54 1.474 . S
C56 C51 1.342 . S
C56 C54 1.285 . S
C56 H75 0.930 . S
C57 C60 1.424 . S
C57 C62 1.245 . S
C57 C63 1.428 . S
C58 C61 1.260 . S
C58 C62 1.477 . S
C58 H76 0.932 . S
C59 C60 1.384 . S
C59 C61 1.479 . S
C59 H77 0.929 . S
C60 C57 1.424 . S
C60 C59 1.384 . S
C60 H78 0.928 . S
C61 C58 1.260 . S
C61 C59 1.479 . S
C62 C57 1.245 . S
C62 C58 1.477 . S
C62 H79 0.932 . S
C63 U46 2.882 . S
C63 C57 1.428 . S
C63 O66 1.301 . S
C63 O67 1.282 . S
O64 U46 2.441 . S
O64 C50 1.249 . S
O65 U46 2.420 . S
O65 C50 1.202 . S
O66 U46 2.455 . S
O66 C63 1.301 . S
O67 U46 2.449 . S
O67 C63 1.282 . S
H68 C41 0.931 . S
H69 C43 0.929 . S
H70 C44 0.930 . S
H71 C45 0.931 . S
H72 C52 0.932 . S
H73 C53 0.930 . S
H74 C54 0.929 . S
H75 C56 0.930 . S
H76 C58 0.932 . S
H77 C59 0.929 . S
H78 C60 0.928 . S
H79 C62 0.932 . S
C80 C81 1.264 . S
C80 C85 1.479 . S
C80 C90 1.465 . S
C81 C80 1.264 . S
C81 C83 1.339 . S
C81 H108 0.931 . S
C82 C83 1.395 . S
C82 C84 1.320 . S
C83 C81 1.339 . S
C83 C82 1.395 . S
C83 H109 0.929 . S
C84 C82 1.320 . S
C84 C85 1.405 . S
C84 H110 0.930 . S
C85 C80 1.479 . S
C85 C84 1.405 . S
C85 H111 0.931 . S
U86 O87 2.454 . S
U86 O88 2.458 . S
U86 C89 2.984 . S
U86 C90 2.847 . S
U86 C103 2.882 . S
U86 O104 2.441 . S
U86 O105 2.420 . S
U86 O106 2.455 . S
U86 O107 2.449 . S
O87 U86 2.454 . S
O87 C89 1.353 . S
O88 U86 2.458 . S
O88 C89 1.286 . S
C89 U86 2.984 . S
C89 O87 1.353 . S
C89 O88 1.286 . S
C89 C91 1.363 . S
C90 C80 1.465 . S
C90 U86 2.847 . S
C90 O104 1.249 . S
C90 O105 1.202 . S
C91 C89 1.363 . S
C91 C93 1.408 . S
C91 C96 1.342 . S
C92 C93 1.310 . S
C92 C95 1.461 . S
C92 H112 0.932 . S
C93 C91 1.408 . S
C93 C92 1.310 . S
C93 H113 0.930 . S
C94 C95 1.474 . S
C94 C96 1.285 . S
C94 H114 0.929 . S
C95 C92 1.461 . S
C95 C94 1.474 . S
C96 C91 1.342 . S
C96 C94 1.285 . S
C96 H115 0.930 . S
C97 C100 1.424 . S
C97 C102 1.245 . S
C97 C103 1.428 . S
C98 C101 1.260 . S
C98 C102 1.477 . S
C98 H116 0.932 . S
C99 C100 1.384 . S
C99 C101 1.479 . S
C99 H117 0.929 . S
C100 C97 1.424 . S
C100 C99 1.384 . S
C100 H118 0.928 . S
C101 C98 1.260 . S
C101 C99 1.479 . S
C102 C97 1.245 . S
C102 C98 1.477 . S
C102 H119 0.932 . S
C103 U86 2.882 . S
C103 C97 1.428 . S
C103 O106 1.301 . S
C103 O107 1.282 . S
O104 U86 2.441 . S
O104 C90 1.249 . S
O105 U86 2.420 . S
O105 C90 1.202 . S
O106 U86 2.455 . S
O106 C103 1.301 . S
O107 U86 2.449 . S
O107 C103 1.282 . S
H108 C81 0.931 . S
H109 C83 0.929 . S
H110 C84 0.930 . S
H111 C85 0.931 . S
H112 C92 0.932 . S
H113 C93 0.930 . S
H114 C94 0.929 . S
H115 C96 0.930 . S
H116 C98 0.932 . S
H117 C99 0.929 . S
H118 C100 0.928 . S
H119 C102 0.932 . S
C120 C121 1.264 . S
C120 C125 1.479 . S
C120 C130 1.465 . S
C121 C120 1.264 . S
C121 C123 1.339 . S
C121 H148 0.931 . S
C122 C123 1.395 . S
C122 C124 1.320 . S
C123 C121 1.339 . S
C123 C122 1.395 . S
C123 H149 0.929 . S
C124 C122 1.320 . S
C124 C125 1.405 . S
C124 H150 0.930 . S
C125 C120 1.479 . S
C125 C124 1.405 . S
C125 H151 0.931 . S
U126 O127 2.454 . S
U126 O128 2.458 . S
U126 C129 2.984 . S
U126 C130 2.847 . S
U126 C143 2.882 . S
U126 O144 2.441 . S
U126 O145 2.420 . S
U126 O146 2.455 . S
U126 O147 2.449 . S
O127 U126 2.454 . S
O127 C129 1.353 . S
O128 U126 2.458 . S
O128 C129 1.286 . S
C129 U126 2.984 . S
C129 O127 1.353 . S
C129 O128 1.286 . S
C129 C131 1.363 . S
C130 C120 1.465 . S
C130 U126 2.847 . S
C130 O144 1.249 . S
C130 O145 1.202 . S
C131 C129 1.363 . S
C131 C133 1.408 . S
C131 C136 1.342 . S
C132 C133 1.310 . S
C132 C135 1.461 . S
C132 H152 0.932 . S
C133 C131 1.408 . S
C133 C132 1.310 . S
C133 H153 0.930 . S
C134 C135 1.474 . S
C134 C136 1.285 . S
C134 H154 0.929 . S
C135 C132 1.461 . S
C135 C134 1.474 . S
C136 C131 1.342 . S
C136 C134 1.285 . S
C136 H155 0.930 . S
C137 C140 1.424 . S
C137 C142 1.245 . S
C137 C143 1.428 . S
C138 C141 1.260 . S
C138 C142 1.477 . S
C138 H156 0.932 . S
C139 C140 1.384 . S
C139 C141 1.479 . S
C139 H157 0.929 . S
C140 C137 1.424 . S
C140 C139 1.384 . S
C140 H158 0.928 . S
C141 C138 1.260 . S
C141 C139 1.479 . S
C142 C137 1.245 . S
C142 C138 1.477 . S
C142 H159 0.932 . S
C143 U126 2.882 . S
C143 C137 1.428 . S
C143 O146 1.301 . S
C143 O147 1.282 . S
O144 U126 2.441 . S
O144 C130 1.249 . S
O145 U126 2.420 . S
O145 C130 1.202 . S
O146 U126 2.455 . S
O146 C143 1.301 . S
O147 U126 2.449 . S
O147 C143 1.282 . S
H148 C121 0.931 . S
H149 C123 0.929 . S
H150 C124 0.930 . S
H151 C125 0.931 . S
H152 C132 0.932 . S
H153 C133 0.930 . S
H154 C134 0.929 . S
H155 C136 0.930 . S
H156 C138 0.932 . S
H157 C139 0.929 . S
H158 C140 0.928 . S
H159 C142 0.932 . S
C160 C161 1.264 . S
C160 C165 1.479 . S
C160 C170 1.465 . S
C161 C160 1.264 . S
C161 C163 1.339 . S
C161 H188 0.931 . S
C162 C163 1.395 . S
C162 C164 1.320 . S
C163 C161 1.339 . S
C163 C162 1.395 . S
C163 H189 0.929 . S
C164 C162 1.320 . S
C164 C165 1.405 . S
C164 H190 0.930 . S
C165 C160 1.479 . S
C165 C164 1.405 . S
C165 H191 0.931 . S
U166 O167 2.454 . S
U166 O168 2.458 . S
U166 C169 2.984 . S
U166 C170 2.847 . S
U166 C183 2.882 . S
U166 O184 2.441 . S
U166 O185 2.420 . S
U166 O186 2.455 . S
U166 O187 2.449 . S
O167 U166 2.454 . S
O167 C169 1.353 . S
O168 U166 2.458 . S
O168 C169 1.286 . S
C169 U166 2.984 . S
C169 O167 1.353 . S
C169 O168 1.286 . S
C169 C171 1.363 . S
C170 C160 1.465 . S
C170 U166 2.847 . S
C170 O184 1.249 . S
C170 O185 1.202 . S
C171 C169 1.363 . S
C171 C173 1.408 . S
C171 C176 1.342 . S
C172 C173 1.310 . S
C172 C175 1.461 . S
C172 H192 0.932 . S
C173 C171 1.408 . S
C173 C172 1.310 . S
C173 H193 0.930 . S
C174 C175 1.474 . S
C174 C176 1.285 . S
C174 H194 0.929 . S
C175 C172 1.461 . S
C175 C174 1.474 . S
C176 C171 1.342 . S
C176 C174 1.285 . S
C176 H195 0.930 . S
C177 C180 1.424 . S
C177 C182 1.245 . S
C177 C183 1.428 . S
C178 C181 1.260 . S
C178 C182 1.477 . S
C178 H196 0.932 . S
C179 C180 1.384 . S
C179 C181 1.479 . S
C179 H197 0.929 . S
C180 C177 1.424 . S
C180 C179 1.384 . S
C180 H198 0.928 . S
C181 C178 1.260 . S
C181 C179 1.479 . S
C182 C177 1.245 . S
C182 C178 1.477 . S
C182 H199 0.932 . S
C183 U166 2.882 . S
C183 C177 1.428 . S
C183 O186 1.301 . S
C183 O187 1.282 . S
O184 U166 2.441 . S
O184 C170 1.249 . S
O185 U166 2.420 . S
O185 C170 1.202 . S
O186 U166 2.455 . S
O186 C183 1.301 . S
O187 U166 2.449 . S
O187 C183 1.282 . S
H188 C161 0.931 . S
H189 C163 0.929 . S
H190 C164 0.930 . S
H191 C165 0.931 . S
H192 C172 0.932 . S
H193 C173 0.930 . S
H194 C174 0.929 . S
H195 C176 0.930 . S
H196 C178 0.932 . S
H197 C179 0.929 . S
H198 C180 0.928 . S
H199 C182 0.932 . S
C200 C201 1.264 . S
C200 C205 1.479 . S
C200 C210 1.465 . S
C201 C200 1.264 . S
C201 C203 1.339 . S
C201 H228 0.931 . S
C202 C203 1.395 . S
C202 C204 1.320 . S
C203 C201 1.339 . S
C203 C202 1.395 . S
C203 H229 0.929 . S
C204 C202 1.320 . S
C204 C205 1.405 . S
C204 H230 0.930 . S
C205 C200 1.479 . S
C205 C204 1.405 . S
C205 H231 0.931 . S
U206 O207 2.454 . S
U206 O208 2.458 . S
U206 C209 2.984 . S
U206 C210 2.847 . S
U206 C223 2.882 . S
U206 O224 2.441 . S
U206 O225 2.420 . S
U206 O226 2.455 . S
U206 O227 2.449 . S
O207 U206 2.454 . S
O207 C209 1.353 . S
O208 U206 2.458 . S
O208 C209 1.286 . S
C209 U206 2.984 . S
C209 O207 1.353 . S
C209 O208 1.286 . S
C209 C211 1.363 . S
C210 C200 1.465 . S
C210 U206 2.847 . S
C210 O224 1.249 . S
C210 O225 1.202 . S
C211 C209 1.363 . S
C211 C213 1.408 . S
C211 C216 1.342 . S
C212 C213 1.310 . S
C212 C215 1.461 . S
C212 H232 0.932 . S
C213 C211 1.408 . S
C213 C212 1.310 . S
C213 H233 0.930 . S
C214 C215 1.474 . S
C214 C216 1.285 . S
C214 H234 0.929 . S
C215 C212 1.461 . S
C215 C214 1.474 . S
C216 C211 1.342 . S
C216 C214 1.285 . S
C216 H235 0.930 . S
C217 C220 1.424 . S
C217 C222 1.245 . S
C217 C223 1.428 . S
C218 C221 1.260 . S
C218 C222 1.477 . S
C218 H236 0.932 . S
C219 C220 1.384 . S
C219 C221 1.479 . S
C219 H237 0.929 . S
C220 C217 1.424 . S
C220 C219 1.384 . S
C220 H238 0.928 . S
C221 C218 1.260 . S
C221 C219 1.479 . S
C222 C217 1.245 . S
C222 C218 1.477 . S
C222 H239 0.932 . S
C223 U206 2.882 . S
C223 C217 1.428 . S
C223 O226 1.301 . S
C223 O227 1.282 . S
O224 U206 2.441 . S
O224 C210 1.249 . S
O225 U206 2.420 . S
O225 C210 1.202 . S
O226 U206 2.455 . S
O226 C223 1.301 . S
O227 U206 2.449 . S
O227 C223 1.282 . S
H228 C201 0.931 . S
H229 C203 0.929 . S
H230 C204 0.930 . S
H231 C205 0.931 . S
H232 C212 0.932 . S
H233 C213 0.930 . S
H234 C214 0.929 . S
H235 C216 0.930 . S
H236 C218 0.932 . S
H237 C219 0.929 . S
H238 C220 0.928 . S
H239 C222 0.932 . S
C240 C241 1.264 . S
C240 C245 1.479 . S
C240 C250 1.465 . S
C241 C240 1.264 . S
C241 C243 1.339 . S
C241 H268 0.931 . S
C242 C243 1.395 . S
C242 C244 1.320 . S
C243 C241 1.339 . S
C243 C242 1.395 . S
C243 H269 0.929 . S
C244 C242 1.320 . S
C244 C245 1.405 . S
C244 H270 0.930 . S
C245 C240 1.479 . S
C245 C244 1.405 . S
C245 H271 0.931 . S
U246 O247 2.454 . S
U246 O248 2.458 . S
U246 C249 2.984 . S
U246 C250 2.847 . S
U246 C263 2.882 . S
U246 O264 2.441 . S
U246 O265 2.420 . S
U246 O266 2.455 . S
U246 O267 2.449 . S
O247 U246 2.454 . S
O247 C249 1.353 . S
O248 U246 2.458 . S
O248 C249 1.286 . S
C249 U246 2.984 . S
C249 O247 1.353 . S
C249 O248 1.286 . S
C249 C251 1.363 . S
C250 C240 1.465 . S
C250 U246 2.847 . S
C250 O264 1.249 . S
C250 O265 1.202 . S
C251 C249 1.363 . S
C251 C253 1.408 . S
C251 C256 1.342 . S
C252 C253 1.310 . S
C252 C255 1.461 . S
C252 H272 0.932 . S
C253 C251 1.408 . S
C253 C252 1.310 . S
C253 H273 0.930 . S
C254 C255 1.474 . S
C254 C256 1.285 . S
C254 H274 0.929 . S
C255 C252 1.461 . S
C255 C254 1.474 . S
C256 C251 1.342 . S
C256 C254 1.285 . S
C256 H275 0.930 . S
C257 C260 1.424 . S
C257 C262 1.245 . S
C257 C263 1.428 . S
C258 C261 1.260 . S
C258 C262 1.477 . S
C258 H276 0.932 . S
C259 C260 1.384 . S
C259 C261 1.479 . S
C259 H277 0.929 . S
C260 C257 1.424 . S
C260 C259 1.384 . S
C260 H278 0.928 . S
C261 C258 1.260 . S
C261 C259 1.479 . S
C262 C257 1.245 . S
C262 C258 1.477 . S
C262 H279 0.932 . S
C263 U246 2.882 . S
C263 C257 1.428 . S
C263 O266 1.301 . S
C263 O267 1.282 . S
O264 U246 2.441 . S
O264 C250 1.249 . S
O265 U246 2.420 . S
O265 C250 1.202 . S
O266 U246 2.455 . S
O266 C263 1.301 . S
O267 U246 2.449 . S
O267 C263 1.282 . S
H268 C241 0.931 . S
H269 C243 0.929 . S
H270 C244 0.930 . S
H271 C245 0.931 . S
H272 C252 0.932 . S
H273 C253 0.930 . S
H274 C254 0.929 . S
H275 C256 0.930 . S
H276 C258 0.932 . S
H277 C259 0.929 . S
H278 C260 0.928 . S
H279 C262 0.932 . S
C280 C281 1.264 . S
C280 C285 1.479 . S
C280 C290 1.465 . S
C281 C280 1.264 . S
C281 C283 1.339 . S
C281 H308 0.931 . S
C282 C283 1.395 . S
C282 C284 1.320 . S
C283 C281 1.339 . S
C283 C282 1.395 . S
C283 H309 0.929 . S
C284 C282 1.320 . S
C284 C285 1.405 . S
C284 H310 0.930 . S
C285 C280 1.479 . S
C285 C284 1.405 . S
C285 H311 0.931 . S
U286 O287 2.454 . S
U286 O288 2.458 . S
U286 C289 2.984 . S
U286 C290 2.847 . S
U286 C303 2.882 . S
U286 O304 2.441 . S
U286 O305 2.420 . S
U286 O306 2.455 . S
U286 O307 2.449 . S
O287 U286 2.454 . S
O287 C289 1.353 . S
O288 U286 2.458 . S
O288 C289 1.286 . S
C289 U286 2.984 . S
C289 O287 1.353 . S
C289 O288 1.286 . S
C289 C291 1.363 . S
C290 C280 1.465 . S
C290 U286 2.847 . S
C290 O304 1.249 . S
C290 O305 1.202 . S
C291 C289 1.363 . S
C291 C293 1.408 . S
C291 C296 1.342 . S
C292 C293 1.310 . S
C292 C295 1.461 . S
C292 H312 0.932 . S
C293 C291 1.408 . S
C293 C292 1.310 . S
C293 H313 0.930 . S
C294 C295 1.474 . S
C294 C296 1.285 . S
C294 H314 0.929 . S
C295 C292 1.461 . S
C295 C294 1.474 . S
C296 C291 1.342 . S
C296 C294 1.285 . S
C296 H315 0.930 . S
C297 C300 1.424 . S
C297 C302 1.245 . S
C297 C303 1.428 . S
C298 C301 1.260 . S
C298 C302 1.477 . S
C298 H316 0.932 . S
C299 C300 1.384 . S
C299 C301 1.479 . S
C299 H317 0.929 . S
C300 C297 1.424 . S
C300 C299 1.384 . S
C300 H318 0.928 . S
C301 C298 1.260 . S
C301 C299 1.479 . S
C302 C297 1.245 . S
C302 C298 1.477 . S
C302 H319 0.932 . S
C303 U286 2.882 . S
C303 C297 1.428 . S
C303 O306 1.301 . S
C303 O307 1.282 . S
O304 U286 2.441 . S
O304 C290 1.249 . S
O305 U286 2.420 . S
O305 C290 1.202 . S
O306 U286 2.455 . S
O306 C303 1.301 . S
O307 U286 2.449 . S
O307 C303 1.282 . S
H308 C281 0.931 . S
H309 C283 0.929 . S
H310 C284 0.930 . S
H311 C285 0.931 . S
H312 C292 0.932 . S
H313 C293 0.930 . S
H314 C294 0.929 . S
H315 C296 0.930 . S
H316 C298 0.932 . S
H317 C299 0.929 . S
H318 C300 0.928 . S
H319 C302 0.932 . S
H320 C326 0.930 . S
H321 C329 0.931 . S
H322 C331 0.931 . S
H323 C333 0.930 . S
H324 C335 0.930 . S
H325 C337 0.931 . S
C326 H320 0.930 . S
C326 C327 1.380 . S
C326 C328 1.394 1_455 S
C327 C326 1.380 . S
C327 C331 1.382 . S
C328 C326 1.394 1_655 S
C328 C329 1.400 . S
C329 H321 0.931 . S
C329 C328 1.400 . S
C329 C330 1.375 1_655 S
C330 C329 1.375 1_455 S
C330 C331 1.415 . S
C330 C332 1.501 . S
C331 H322 0.931 . S
C331 C327 1.382 . S
C331 C330 1.415 . S
C332 C330 1.501 . S
C332 C333 1.384 . S
C332 C337 1.408 1_455 S
C333 H323 0.930 . S
C333 C332 1.384 . S
C333 C334 1.389 . S
C334 C333 1.389 . S
C334 C335 1.405 . S
C335 H324 0.930 . S
C335 C334 1.405 . S
C335 C336 1.364 1_455 S
C336 C335 1.364 1_655 S
C336 C337 1.400 . S
C337 H325 0.931 . S
C337 C332 1.408 1_655 S
C337 C336 1.400 . S
H338 C344 0.930 . S
H339 C347 0.931 . S
H340 C349 0.931 . S
H341 C351 0.930 . S
H342 C353 0.930 . S
H343 C355 0.931 . S
C344 H338 0.930 . S
C344 C345 1.380 1_455 S
C344 C346 1.394 . S
C345 C344 1.380 1_655 S
C345 C349 1.382 . S
C346 C344 1.394 . S
C346 C347 1.400 . S
C347 H339 0.931 . S
C347 C346 1.400 . S
C347 C348 1.375 . S
C348 C347 1.375 . S
C348 C349 1.415 1_455 S
C348 C350 1.501 . S
C349 H340 0.931 . S
C349 C345 1.382 . S
C349 C348 1.415 1_655 S
C350 C348 1.501 . S
C350 C351 1.384 1_455 S
C350 C355 1.408 . S
C351 H341 0.930 . S
C351 C350 1.384 1_655 S
C351 C352 1.389 . S
C352 C351 1.389 . S
C352 C353 1.405 1_655 S
C353 H342 0.930 . S
C353 C352 1.405 1_455 S
C353 C354 1.364 . S
C354 C353 1.364 . S
C354 C355 1.400 . S
C355 H343 0.931 . S
C355 C350 1.408 . S
C355 C354 1.400 . S
H356 C362 0.930 . S
H357 C365 0.931 . S
H358 C367 0.931 . S
H359 C369 0.930 . S
H360 C371 0.930 . S
H361 C373 0.931 . S
C362 H356 0.930 . S
C362 C363 1.380 . S
C362 C364 1.394 . S
C363 C362 1.380 . S
C363 C367 1.382 . S
C364 C362 1.394 . S
C364 C365 1.400 . S
C365 H357 0.931 . S
C365 C364 1.400 . S
C365 C366 1.375 . S
C366 C365 1.375 . S
C366 C367 1.415 . S
C366 C368 1.501 1_545 S
C367 H358 0.931 . S
C367 C363 1.382 . S
C367 C366 1.415 . S
C368 C366 1.501 1_565 S
C368 C369 1.384 . S
C368 C373 1.408 . S
C369 H359 0.930 . S
C369 C368 1.384 . S
C369 C370 1.389 . S
C370 C369 1.389 . S
C370 C371 1.405 . S
C371 H360 0.930 . S
C371 C370 1.405 . S
C371 C372 1.364 . S
C372 C371 1.364 . S
C372 C373 1.400 . S
C373 H361 0.931 . S
C373 C368 1.408 . S
C373 C372 1.400 . S
H374 C380 0.930 . S
H375 C383 0.931 . S
H376 C385 0.931 . S
H377 C387 0.930 . S
H378 C389 0.930 . S
H379 C391 0.931 . S
C380 H374 0.930 . S
C380 C381 1.380 . S
C380 C382 1.394 . S
C381 C380 1.380 . S
C381 C385 1.382 . S
C382 C380 1.394 . S
C382 C383 1.400 . S
C383 H375 0.931 . S
C383 C382 1.400 . S
C383 C384 1.375 . S
C384 C383 1.375 . S
C384 C385 1.415 . S
C384 C386 1.501 1_554 S
C385 H376 0.931 . S
C385 C381 1.382 . S
C385 C384 1.415 . S
C386 C384 1.501 1_556 S
C386 C387 1.384 . S
C386 C391 1.408 . S
C387 H377 0.930 . S
C387 C386 1.384 . S
C387 C388 1.389 . S
C388 C387 1.389 . S
C388 C389 1.405 . S
C389 H378 0.930 . S
C389 C388 1.405 . S
C389 C390 1.364 . S
C390 C389 1.364 . S
C390 C391 1.400 . S
C391 H379 0.931 . S
C391 C386 1.408 . S
C391 C390 1.400 . S
H392 C398 0.930 . S
H393 C401 0.931 . S
H394 C403 0.931 . S
H395 C405 0.930 . S
H396 C407 0.930 . S
H397 C409 0.931 . S
C398 H392 0.930 . S
C398 C399 1.380 . S
C398 C400 1.394 . S
C399 C398 1.380 . S
C399 C403 1.382 . S
C400 C398 1.394 . S
C400 C401 1.400 . S
C401 H393 0.931 . S
C401 C400 1.400 . S
C401 C402 1.375 . S
C402 C401 1.375 . S
C402 C403 1.415 . S
C402 C404 1.501 1_545 S
C403 H394 0.931 . S
C403 C399 1.382 . S
C403 C402 1.415 . S
C404 C402 1.501 1_565 S
C404 C405 1.384 . S
C404 C409 1.408 . S
C405 H395 0.930 . S
C405 C404 1.384 . S
C405 C406 1.389 . S
C406 C405 1.389 . S
C406 C407 1.405 . S
C407 H396 0.930 . S
C407 C406 1.405 . S
C407 C408 1.364 . S
C408 C407 1.364 . S
C408 C409 1.400 . S
C409 H397 0.931 . S
C409 C404 1.408 . S
C409 C408 1.400 . S
H410 C416 0.930 . S
H411 C419 0.931 . S
H412 C421 0.931 . S
H413 C423 0.930 . S
H414 C425 0.930 . S
H415 C427 0.931 . S
C416 H410 0.930 . S
C416 C417 1.380 . S
C416 C418 1.394 . S
C417 C416 1.380 . S
C417 C421 1.382 . S
C418 C416 1.394 . S
C418 C419 1.400 . S
C419 H411 0.931 . S
C419 C418 1.400 . S
C419 C420 1.375 . S
C420 C419 1.375 . S
C420 C421 1.415 . S
C420 C422 1.501 1_554 S
C421 H412 0.931 . S
C421 C417 1.382 . S
C421 C420 1.415 . S
C422 C420 1.501 1_556 S
C422 C423 1.384 . S
C422 C427 1.408 . S
C423 H413 0.930 . S
C423 C422 1.384 . S
C423 C424 1.389 . S
C424 C423 1.389 . S
C424 C425 1.405 . S
C425 H414 0.930 . S
C425 C424 1.405 . S
C425 C426 1.364 . S
C426 C425 1.364 . S
C426 C427 1.400 . S
C427 H415 0.931 . S
C427 C422 1.408 . S
C427 C426 1.400 . S
H428 C434 0.930 . S
H429 C438 0.930 . S
H430 C443 0.929 . S
H431 C441 0.929 . S
H432 C436 0.929 . S
H433 C442 0.929 . S
C434 H428 0.930 . S
C434 C435 1.367 . S
C434 C442 1.378 . S
C435 C434 1.367 . S
C435 C443 1.433 . S
C436 H432 0.929 . S
C436 C438 1.378 . S
C436 C440 1.350 . S
C437 C440 1.463 . S
C437 C442 1.350 . S
C437 N445 1.427 . S
C438 H429 0.930 . S
C438 C436 1.378 . S
C438 C439 1.367 . S
C439 C438 1.367 . S
C439 C441 1.433 . S
C440 C436 1.350 . S
C440 C437 1.463 . S
C440 N444 1.427 . S
C441 H431 0.929 . S
C441 C439 1.433 . S
C441 N444 1.384 . S
C442 H433 0.929 . S
C442 C434 1.378 . S
C442 C437 1.350 . S
C443 H430 0.929 . S
C443 C435 1.433 . S
C443 N445 1.384 . S
N444 C440 1.427 . S
N444 C441 1.384 . S
N445 C437 1.427 . S
N445 C443 1.384 . S
H446 C452 0.930 . S
H447 C456 0.930 . S
H448 C461 0.929 . S
H449 C459 0.929 . S
H450 C454 0.929 . S
H451 C460 0.929 . S
C452 H446 0.930 . S
C452 C453 1.367 . S
C452 C460 1.378 . S
C453 C452 1.367 . S
C453 C461 1.433 . S
C454 H450 0.929 . S
C454 C456 1.378 . S
C454 C458 1.350 . S
C455 C458 1.463 . S
C455 C460 1.350 . S
C455 N463 1.427 . S
C456 H447 0.930 . S
C456 C454 1.378 . S
C456 C457 1.367 . S
C457 C456 1.367 . S
C457 C459 1.433 . S
C458 C454 1.350 . S
C458 C455 1.463 . S
C458 N462 1.427 . S
C459 H449 0.929 . S
C459 C457 1.433 . S
C459 N462 1.384 . S
C460 H451 0.929 . S
C460 C452 1.378 . S
C460 C455 1.350 . S
C461 H448 0.929 . S
C461 C453 1.433 . S
C461 N463 1.384 . S
N462 C458 1.427 . S
N462 C459 1.384 . S
N463 C455 1.427 . S
N463 C461 1.384 . S
H464 C470 0.930 . S
H465 C474 0.930 . S
H466 C479 0.929 . S
H467 C477 0.929 . S
H468 C472 0.929 . S
H469 C478 0.929 . S
C470 H464 0.930 . S
C470 C471 1.367 . S
C470 C478 1.378 . S
C471 C470 1.367 . S
C471 C479 1.433 . S
C472 H468 0.929 . S
C472 C474 1.378 . S
C472 C476 1.350 . S
C473 C476 1.463 . S
C473 C478 1.350 . S
C473 N481 1.427 . S
C474 H465 0.930 . S
C474 C472 1.378 . S
C474 C475 1.367 . S
C475 C474 1.367 . S
C475 C477 1.433 . S
C476 C472 1.350 . S
C476 C473 1.463 . S
C476 N480 1.427 . S
C477 H467 0.929 . S
C477 C475 1.433 . S
C477 N480 1.384 . S
C478 H469 0.929 . S
C478 C470 1.378 . S
C478 C473 1.350 . S
C479 H466 0.929 . S
C479 C471 1.433 . S
C479 N481 1.384 . S
N480 C476 1.427 . S
N480 C477 1.384 . S
N481 C473 1.427 . S
N481 C479 1.384 . S
H482 C488 0.930 . S
H483 C492 0.930 . S
H484 C497 0.929 . S
H485 C495 0.929 . S
H486 C490 0.929 . S
H487 C496 0.929 . S
C488 H482 0.930 . S
C488 C489 1.367 . S
C488 C496 1.378 . S
C489 C488 1.367 . S
C489 C497 1.433 . S
C490 H486 0.929 . S
C490 C492 1.378 . S
C490 C494 1.350 . S
C491 C494 1.463 . S
C491 C496 1.350 . S
C491 N499 1.427 . S
C492 H483 0.930 . S
C492 C490 1.378 . S
C492 C493 1.367 . S
C493 C492 1.367 . S
C493 C495 1.433 . S
C494 C490 1.350 . S
C494 C491 1.463 . S
C494 N498 1.427 . S
C495 H485 0.929 . S
C495 C493 1.433 . S
C495 N498 1.384 . S
C496 H487 0.929 . S
C496 C488 1.378 . S
C496 C491 1.350 . S
C497 H484 0.929 . S
C497 C489 1.433 . S
C497 N499 1.384 . S
N498 C494 1.427 . S
N498 C495 1.384 . S
N499 C491 1.427 . S
N499 C497 1.384 . S
H500 C506 0.930 . S
H501 C510 0.930 . S
H502 C515 0.929 . S
H503 C513 0.929 . S
H504 C508 0.929 . S
H505 C514 0.929 . S
C506 H500 0.930 . S
C506 C507 1.367 . S
C506 C514 1.378 . S
C507 C506 1.367 . S
C507 C515 1.433 . S
C508 H504 0.929 . S
C508 C510 1.378 . S
C508 C512 1.350 . S
C509 C512 1.463 . S
C509 C514 1.350 . S
C509 N517 1.427 . S
C510 H501 0.930 . S
C510 C508 1.378 . S
C510 C511 1.367 . S
C511 C510 1.367 . S
C511 C513 1.433 . S
C512 C508 1.350 . S
C512 C509 1.463 . S
C512 N516 1.427 . S
C513 H503 0.929 . S
C513 C511 1.433 . S
C513 N516 1.384 . S
C514 H505 0.929 . S
C514 C506 1.378 . S
C514 C509 1.350 . S
C515 H502 0.929 . S
C515 C507 1.433 . S
C515 N517 1.384 . S
N516 C512 1.427 . S
N516 C513 1.384 . S
N517 C509 1.427 . S
N517 C515 1.384 . S
H518 C524 0.930 . S
H519 C528 0.930 . S
H520 C533 0.929 . S
H521 C531 0.929 . S
H522 C526 0.929 . S
H523 C532 0.929 . S
C524 H518 0.930 . S
C524 C525 1.367 . S
C524 C532 1.378 . S
C525 C524 1.367 . S
C525 C533 1.433 . S
C526 H522 0.929 . S
C526 C528 1.378 . S
C526 C530 1.350 . S
C527 C530 1.463 . S
C527 C532 1.350 . S
C527 N535 1.427 . S
C528 H519 0.930 . S
C528 C526 1.378 . S
C528 C529 1.367 . S
C529 C528 1.367 . S
C529 C531 1.433 . S
C530 C526 1.350 . S
C530 C527 1.463 . S
C530 N534 1.427 . S
C531 H521 0.929 . S
C531 C529 1.433 . S
C531 N534 1.384 . S
C532 H523 0.929 . S
C532 C524 1.378 . S
C532 C527 1.350 . S
C533 H520 0.929 . S
C533 C525 1.433 . S
C533 N535 1.384 . S
N534 C530 1.427 . S
N534 C531 1.384 . S
N535 C527 1.427 . S
N535 C533 1.384 . S
H536 C542 0.930 . S
H537 C546 0.930 . S
H538 C551 0.929 . S
H539 C549 0.929 . S
H540 C544 0.929 . S
H541 C550 0.929 . S
C542 H536 0.930 . S
C542 C543 1.367 . S
C542 C550 1.378 . S
C543 C542 1.367 . S
C543 C551 1.433 . S
C544 H540 0.929 . S
C544 C546 1.378 . S
C544 C548 1.350 . S
C545 C548 1.463 . S
C545 C550 1.350 . S
C545 N553 1.427 . S
C546 H537 0.930 . S
C546 C544 1.378 . S
C546 C547 1.367 . S
C547 C546 1.367 . S
C547 C549 1.433 . S
C548 C544 1.350 . S
C548 C545 1.463 . S
C548 N552 1.427 . S
C549 H539 0.929 . S
C549 C547 1.433 . S
C549 N552 1.384 . S
C550 H541 0.929 . S
C550 C542 1.378 . S
C550 C545 1.350 . S
C551 H538 0.929 . S
C551 C543 1.433 . S
C551 N553 1.384 . S
N552 C548 1.427 . S
N552 C549 1.384 . S
N553 C545 1.427 . S
N553 C551 1.384 . S
H554 C560 0.930 . S
H555 C564 0.930 . S
H556 C569 0.929 . S
H557 C567 0.929 . S
H558 C562 0.929 . S
H559 C568 0.929 . S
C560 H554 0.930 . S
C560 C561 1.367 . S
C560 C568 1.378 . S
C561 C560 1.367 . S
C561 C569 1.433 . S
C562 H558 0.929 . S
C562 C564 1.378 . S
C562 C566 1.350 . S
C563 C566 1.463 . S
C563 C568 1.350 . S
C563 N571 1.427 . S
C564 H555 0.930 . S
C564 C562 1.378 . S
C564 C565 1.367 . S
C565 C564 1.367 . S
C565 C567 1.433 . S
C566 C562 1.350 . S
C566 C563 1.463 . S
C566 N570 1.427 . S
C567 H557 0.929 . S
C567 C565 1.433 . S
C567 N570 1.384 . S
C568 H559 0.929 . S
C568 C560 1.378 . S
C568 C563 1.350 . S
C569 H556 0.929 . S
C569 C561 1.433 . S
C569 N571 1.384 . S
N570 C566 1.427 . S
N570 C567 1.384 . S
N571 C563 1.427 . S
N571 C569 1.384 . S
H572 C578 0.930 . S
H573 C582 0.930 . S
H574 C587 0.929 . S
H575 C585 0.929 . S
H576 C580 0.929 . S
H577 C586 0.929 . S
C578 H572 0.930 . S
C578 C579 1.367 . S
C578 C586 1.378 . S
C579 C578 1.367 . S
C579 C587 1.433 . S
C580 H576 0.929 . S
C580 C582 1.378 . S
C580 C584 1.350 . S
C581 C584 1.463 . S
C581 C586 1.350 . S
C581 N589 1.427 . S
C582 H573 0.930 . S
C582 C580 1.378 . S
C582 C583 1.367 . S
C583 C582 1.367 . S
C583 C585 1.433 . S
C584 C580 1.350 . S
C584 C581 1.463 . S
C584 N588 1.427 . S
C585 H575 0.929 . S
C585 C583 1.433 . S
C585 N588 1.384 . S
C586 H577 0.929 . S
C586 C578 1.378 . S
C586 C581 1.350 . S
C587 H574 0.929 . S
C587 C579 1.433 . S
C587 N589 1.384 . S
N588 C584 1.427 . S
N588 C585 1.384 . S
N589 C581 1.427 . S
N589 C587 1.384 . S
H590 C596 0.930 . S
H591 C600 0.930 . S
H592 C605 0.929 . S
H593 C603 0.929 . S
H594 C598 0.929 . S
H595 C604 0.929 . S
C596 H590 0.930 . S
C596 C597 1.367 . S
C596 C604 1.378 . S
C597 C596 1.367 . S
C597 C605 1.433 . S
C598 H594 0.929 . S
C598 C600 1.378 . S
C598 C602 1.350 . S
C599 C602 1.463 . S
C599 C604 1.350 . S
C599 N607 1.427 . S
C600 H591 0.930 . S
C600 C598 1.378 . S
C600 C601 1.367 . S
C601 C600 1.367 . S
C601 C603 1.433 . S
C602 C598 1.350 . S
C602 C599 1.463 . S
C602 N606 1.427 . S
C603 H593 0.929 . S
C603 C601 1.433 . S
C603 N606 1.384 . S
C604 H595 0.929 . S
C604 C596 1.378 . S
C604 C599 1.350 . S
C605 H592 0.929 . S
C605 C597 1.433 . S
C605 N607 1.384 . S
N606 C602 1.427 . S
N606 C603 1.384 . S
N607 C599 1.427 . S
N607 C605 1.384 . S
H608 C614 0.930 . S
H609 C618 0.930 . S
H610 C623 0.929 . S
H611 C621 0.929 . S
H612 C616 0.929 . S
H613 C622 0.929 . S
C614 H608 0.930 . S
C614 C615 1.367 . S
C614 C622 1.378 . S
C615 C614 1.367 . S
C615 C623 1.433 . S
C616 H612 0.929 . S
C616 C618 1.378 . S
C616 C620 1.350 . S
C617 C620 1.463 . S
C617 C622 1.350 . S
C617 N625 1.427 . S
C618 H609 0.930 . S
C618 C616 1.378 . S
C618 C619 1.367 . S
C619 C618 1.367 . S
C619 C621 1.433 . S
C620 C616 1.350 . S
C620 C617 1.463 . S
C620 N624 1.427 . S
C621 H611 0.929 . S
C621 C619 1.433 . S
C621 N624 1.384 . S
C622 H613 0.929 . S
C622 C614 1.378 . S
C622 C617 1.350 . S
C623 H610 0.929 . S
C623 C615 1.433 . S
C623 N625 1.384 . S
N624 C620 1.427 . S
N624 C621 1.384 . S
N625 C617 1.427 . S
N625 C623 1.384 . S
H626 C632 0.930 . S
H627 C636 0.930 . S
H628 C641 0.929 . S
H629 C639 0.929 . S
H630 C634 0.929 . S
H631 C640 0.929 . S
C632 H626 0.930 . S
C632 C633 1.367 . S
C632 C640 1.378 . S
C633 C632 1.367 . S
C633 C641 1.433 . S
C634 H630 0.929 . S
C634 C636 1.378 . S
C634 C638 1.350 . S
C635 C638 1.463 . S
C635 C640 1.350 . S
C635 N643 1.427 . S
C636 H627 0.930 . S
C636 C634 1.378 . S
C636 C637 1.367 . S
C637 C636 1.367 . S
C637 C639 1.433 . S
C638 C634 1.350 . S
C638 C635 1.463 . S
C638 N642 1.427 . S
C639 H629 0.929 . S
C639 C637 1.433 . S
C639 N642 1.384 . S
C640 H631 0.929 . S
C640 C632 1.378 . S
C640 C635 1.350 . S
C641 H628 0.929 . S
C641 C633 1.433 . S
C641 N643 1.384 . S
N642 C638 1.427 . S
N642 C639 1.384 . S
N643 C635 1.427 . S
N643 C641 1.384 . S
H644 C650 0.930 . S
H645 C654 0.930 . S
H646 C659 0.929 . S
H647 C657 0.929 . S
H648 C652 0.929 . S
H649 C658 0.929 . S
C650 H644 0.930 . S
C650 C651 1.367 . S
C650 C658 1.378 . S
C651 C650 1.367 . S
C651 C659 1.433 . S
C652 H648 0.929 . S
C652 C654 1.378 . S
C652 C656 1.350 . S
C653 C656 1.463 . S
C653 C658 1.350 . S
C653 N661 1.427 . S
C654 H645 0.930 . S
C654 C652 1.378 . S
C654 C655 1.367 . S
C655 C654 1.367 . S
C655 C657 1.433 . S
C656 C652 1.350 . S
C656 C653 1.463 . S
C656 N660 1.427 . S
C657 H647 0.929 . S
C657 C655 1.433 . S
C657 N660 1.384 . S
C658 H649 0.929 . S
C658 C650 1.378 . S
C658 C653 1.350 . S
C659 H646 0.929 . S
C659 C651 1.433 . S
C659 N661 1.384 . S
N660 C656 1.427 . S
N660 C657 1.384 . S
N661 C653 1.427 . S
N661 C659 1.384 . S
H662 C668 0.930 . S
H663 C672 0.930 . S
H664 C677 0.929 . S
H665 C675 0.929 . S
H666 C670 0.929 . S
H667 C676 0.929 . S
C668 H662 0.930 . S
C668 C669 1.367 . S
C668 C676 1.378 . S
C669 C668 1.367 . S
C669 C677 1.433 . S
C670 H666 0.929 . S
C670 C672 1.378 . S
C670 C674 1.350 . S
C671 C674 1.463 . S
C671 C676 1.350 . S
C671 N679 1.427 . S
C672 H663 0.930 . S
C672 C670 1.378 . S
C672 C673 1.367 . S
C673 C672 1.367 . S
C673 C675 1.433 . S
C674 C670 1.350 . S
C674 C671 1.463 . S
C674 N678 1.427 . S
C675 H665 0.929 . S
C675 C673 1.433 . S
C675 N678 1.384 . S
C676 H667 0.929 . S
C676 C668 1.378 . S
C676 C671 1.350 . S
C677 H664 0.929 . S
C677 C669 1.433 . S
C677 N679 1.384 . S
N678 C674 1.427 . S
N678 C675 1.384 . S
N679 C671 1.427 . S
N679 C677 1.384 . S
H680 C686 0.930 . S
H681 C690 0.930 . S
H682 C695 0.929 . S
H683 C693 0.929 . S
H684 C688 0.929 . S
H685 C694 0.929 . S
C686 H680 0.930 . S
C686 C687 1.367 . S
C686 C694 1.378 . S
C687 C686 1.367 . S
C687 C695 1.433 . S
C688 H684 0.929 . S
C688 C690 1.378 . S
C688 C692 1.350 . S
C689 C692 1.463 . S
C689 C694 1.350 . S
C689 N697 1.427 . S
C690 H681 0.930 . S
C690 C688 1.378 . S
C690 C691 1.367 . S
C691 C690 1.367 . S
C691 C693 1.433 . S
C692 C688 1.350 . S
C692 C689 1.463 . S
C692 N696 1.427 . S
C693 H683 0.929 . S
C693 C691 1.433 . S
C693 N696 1.384 . S
C694 H685 0.929 . S
C694 C686 1.378 . S
C694 C689 1.350 . S
C695 H682 0.929 . S
C695 C687 1.433 . S
C695 N697 1.384 . S
N696 C692 1.427 . S
N696 C693 1.384 . S
N697 C689 1.427 . S
N697 C695 1.384 . S
H698 C704 0.930 . S
H699 C708 0.930 . S
H700 C713 0.929 . S
H701 C711 0.929 . S
H702 C706 0.929 . S
H703 C712 0.929 . S
C704 H698 0.930 . S
C704 C705 1.367 . S
C704 C712 1.378 . S
C705 C704 1.367 . S
C705 C713 1.433 . S
C706 H702 0.929 . S
C706 C708 1.378 . S
C706 C710 1.350 . S
C707 C710 1.463 . S
C707 C712 1.350 . S
C707 N715 1.427 . S
C708 H699 0.930 . S
C708 C706 1.378 . S
C708 C709 1.367 . S
C709 C708 1.367 . S
C709 C711 1.433 . S
C710 C706 1.350 . S
C710 C707 1.463 . S
C710 N714 1.427 . S
C711 H701 0.929 . S
C711 C709 1.433 . S
C711 N714 1.384 . S
C712 H703 0.929 . S
C712 C704 1.378 . S
C712 C707 1.350 . S
C713 H700 0.929 . S
C713 C705 1.433 . S
C713 N715 1.384 . S
N714 C710 1.427 . S
N714 C711 1.384 . S
N715 C707 1.427 . S
N715 C713 1.384 . S
H716 C722 0.930 . S
H717 C726 0.930 . S
H718 C731 0.929 . S
H719 C729 0.929 . S
H720 C724 0.929 . S
H721 C730 0.929 . S
C722 H716 0.930 . S
C722 C723 1.367 . S
C722 C730 1.378 . S
C723 C722 1.367 . S
C723 C731 1.433 . S
C724 H720 0.929 . S
C724 C726 1.378 . S
C724 C728 1.350 . S
C725 C728 1.463 . S
C725 C730 1.350 . S
C725 N733 1.427 . S
C726 H717 0.930 . S
C726 C724 1.378 . S
C726 C727 1.367 . S
C727 C726 1.367 . S
C727 C729 1.433 . S
C728 C724 1.350 . S
C728 C725 1.463 . S
C728 N732 1.427 . S
C729 H719 0.929 . S
C729 C727 1.433 . S
C729 N732 1.384 . S
C730 H721 0.929 . S
C730 C722 1.378 . S
C730 C725 1.350 . S
C731 H718 0.929 . S
C731 C723 1.433 . S
C731 N733 1.384 . S
N732 C728 1.427 . S
N732 C729 1.384 . S
N733 C725 1.427 . S
N733 C731 1.384 . S
H734 C740 0.930 . S
H735 C744 0.930 . S
H736 C749 0.929 . S
H737 C747 0.929 . S
H738 C742 0.929 . S
H739 C748 0.929 . S
C740 H734 0.930 . S
C740 C741 1.367 . S
C740 C748 1.378 . S
C741 C740 1.367 . S
C741 C749 1.433 . S
C742 H738 0.929 . S
C742 C744 1.378 . S
C742 C746 1.350 . S
C743 C746 1.463 . S
C743 C748 1.350 . S
C743 N751 1.427 . S
C744 H735 0.930 . S
C744 C742 1.378 . S
C744 C745 1.367 . S
C745 C744 1.367 . S
C745 C747 1.433 . S
C746 C742 1.350 . S
C746 C743 1.463 . S
C746 N750 1.427 . S
C747 H737 0.929 . S
C747 C745 1.433 . S
C747 N750 1.384 . S
C748 H739 0.929 . S
C748 C740 1.378 . S
C748 C743 1.350 . S
C749 H736 0.929 . S
C749 C741 1.433 . S
C749 N751 1.384 . S
N750 C746 1.427 . S
N750 C747 1.384 . S
N751 C743 1.427 . S
N751 C749 1.384 . S
H752 C758 0.930 . S
H753 C762 0.930 . S
H754 C767 0.929 . S
H755 C765 0.929 . S
H756 C760 0.929 . S
H757 C766 0.929 . S
C758 H752 0.930 . S
C758 C759 1.367 . S
C758 C766 1.378 . S
C759 C758 1.367 . S
C759 C767 1.433 . S
C760 H756 0.929 . S
C760 C762 1.378 . S
C760 C764 1.350 . S
C761 C764 1.463 . S
C761 C766 1.350 . S
C761 N769 1.427 . S
C762 H753 0.930 . S
C762 C760 1.378 . S
C762 C763 1.367 . S
C763 C762 1.367 . S
C763 C765 1.433 . S
C764 C760 1.350 . S
C764 C761 1.463 . S
C764 N768 1.427 . S
C765 H755 0.929 . S
C765 C763 1.433 . S
C765 N768 1.384 . S
C766 H757 0.929 . S
C766 C758 1.378 . S
C766 C761 1.350 . S
C767 H754 0.929 . S
C767 C759 1.433 . S
C767 N769 1.384 . S
N768 C764 1.427 . S
N768 C765 1.384 . S
N769 C761 1.427 . S
N769 C767 1.384 . S
H770 C776 0.930 . S
H771 C780 0.930 . S
H772 C785 0.929 . S
H773 C783 0.929 . S
H774 C778 0.929 . S
H775 C784 0.929 . S
C776 H770 0.930 . S
C776 C777 1.367 . S
C776 C784 1.378 . S
C777 C776 1.367 . S
C777 C785 1.433 . S
C778 H774 0.929 . S
C778 C780 1.378 . S
C778 C782 1.350 . S
C779 C782 1.463 . S
C779 C784 1.350 . S
C779 N787 1.427 . S
C780 H771 0.930 . S
C780 C778 1.378 . S
C780 C781 1.367 . S
C781 C780 1.367 . S
C781 C783 1.433 . S
C782 C778 1.350 . S
C782 C779 1.463 . S
C782 N786 1.427 . S
C783 H773 0.929 . S
C783 C781 1.433 . S
C783 N786 1.384 . S
C784 H775 0.929 . S
C784 C776 1.378 . S
C784 C779 1.350 . S
C785 H772 0.929 . S
C785 C777 1.433 . S
C785 N787 1.384 . S
N786 C782 1.427 . S
N786 C783 1.384 . S
N787 C779 1.427 . S
N787 C785 1.384 . S
H788 C794 0.930 . S
H789 C798 0.930 . S
H790 C803 0.929 . S
H791 C801 0.929 . S
H792 C796 0.929 . S
H793 C802 0.929 . S
C794 H788 0.930 . S
C794 C795 1.367 . S
C794 C802 1.378 . S
C795 C794 1.367 . S
C795 C803 1.433 . S
C796 H792 0.929 . S
C796 C798 1.378 . S
C796 C800 1.350 . S
C797 C800 1.463 . S
C797 C802 1.350 . S
C797 N805 1.427 . S
C798 H789 0.930 . S
C798 C796 1.378 . S
C798 C799 1.367 . S
C799 C798 1.367 . S
C799 C801 1.433 . S
C800 C796 1.350 . S
C800 C797 1.463 . S
C800 N804 1.427 . S
C801 H791 0.929 . S
C801 C799 1.433 . S
C801 N804 1.384 . S
C802 H793 0.929 . S
C802 C794 1.378 . S
C802 C797 1.350 . S
C803 H790 0.929 . S
C803 C795 1.433 . S
C803 N805 1.384 . S
N804 C800 1.427 . S
N804 C801 1.384 . S
N805 C797 1.427 . S
N805 C803 1.384 . S
H806 C812 0.930 . S
H807 C816 0.930 . S
H808 C821 0.929 . S
H809 C819 0.929 . S
H810 C814 0.929 . S
H811 C820 0.929 . S
C812 H806 0.930 . S
C812 C813 1.367 . S
C812 C820 1.378 . S
C813 C812 1.367 . S
C813 C821 1.433 . S
C814 H810 0.929 . S
C814 C816 1.378 . S
C814 C818 1.350 . S
C815 C818 1.463 . S
C815 C820 1.350 . S
C815 N823 1.427 . S
C816 H807 0.930 . S
C816 C814 1.378 . S
C816 C817 1.367 . S
C817 C816 1.367 . S
C817 C819 1.433 . S
C818 C814 1.350 . S
C818 C815 1.463 . S
C818 N822 1.427 . S
C819 H809 0.929 . S
C819 C817 1.433 . S
C819 N822 1.384 . S
C820 H811 0.929 . S
C820 C812 1.378 . S
C820 C815 1.350 . S
C821 H808 0.929 . S
C821 C813 1.433 . S
C821 N823 1.384 . S
N822 C818 1.427 . S
N822 C819 1.384 . S
N823 C815 1.427 . S
N823 C821 1.384 . S
H824 C830 0.930 . S
H825 C834 0.930 . S
H826 C839 0.929 . S
H827 C837 0.929 . S
H828 C832 0.929 . S
H829 C838 0.929 . S
C830 H824 0.930 . S
C830 C831 1.367 . S
C830 C838 1.378 . S
C831 C830 1.367 . S
C831 C839 1.433 . S
C832 H828 0.929 . S
C832 C834 1.378 . S
C832 C836 1.350 . S
C833 C836 1.463 . S
C833 C838 1.350 . S
C833 N841 1.427 . S
C834 H825 0.930 . S
C834 C832 1.378 . S
C834 C835 1.367 . S
C835 C834 1.367 . S
C835 C837 1.433 . S
C836 C832 1.350 . S
C836 C833 1.463 . S
C836 N840 1.427 . S
C837 H827 0.929 . S
C837 C835 1.433 . S
C837 N840 1.384 . S
C838 H829 0.929 . S
C838 C830 1.378 . S
C838 C833 1.350 . S
C839 H826 0.929 . S
C839 C831 1.433 . S
C839 N841 1.384 . S
N840 C836 1.427 . S
N840 C837 1.384 . S
N841 C833 1.427 . S
N841 C839 1.384 . S
H842 C848 0.930 . S
H843 C852 0.930 . S
H844 C857 0.929 . S
H845 C855 0.929 . S
H846 C850 0.929 . S
H847 C856 0.929 . S
C848 H842 0.930 . S
C848 C849 1.367 . S
C848 C856 1.378 . S
C849 C848 1.367 . S
C849 C857 1.433 . S
C850 H846 0.929 . S
C850 C852 1.378 . S
C850 C854 1.350 . S
C851 C854 1.463 . S
C851 C856 1.350 . S
C851 N859 1.427 . S
C852 H843 0.930 . S
C852 C850 1.378 . S
C852 C853 1.367 . S
C853 C852 1.367 . S
C853 C855 1.433 . S
C854 C850 1.350 . S
C854 C851 1.463 . S
C854 N858 1.427 . S
C855 H845 0.929 . S
C855 C853 1.433 . S
C855 N858 1.384 . S
C856 H847 0.929 . S
C856 C848 1.378 . S
C856 C851 1.350 . S
C857 H844 0.929 . S
C857 C849 1.433 . S
C857 N859 1.384 . S
N858 C854 1.427 . S
N858 C855 1.384 . S
N859 C851 1.427 . S
N859 C857 1.384 . S
C439 C327 1.538 . S
C435 C15 1.579 . S
C457 C346 1.545 . S
C453 C55 1.585 . S
C475 C336 1.587 . S
C471 C101 1.611 . S
C493 C352 1.612 . S
C489 C141 1.662 . S
C511 C363 1.520 . S
C507 C2 1.546 . S
C529 C388 1.476 . S
C525 C61 1.521 . S
C543 C95 1.651 . S
C547 C406 1.573 . S
C565 C426 1.483 . S
C561 C135 1.544 . S
C583 C372 1.506 . S
C579 C42 1.540 . S
C597 C82 1.522 . S
C601 C382 1.485 . S
C619 C400 1.580 . S
C615 C122 1.667 . S
C637 C417 1.474 . S
C633 C21 1.519 . S
C651 C162 1.696 . S
C655 C345 1.621 . S
C673 C328 1.609 . S
C669 C221 1.664 . S
C687 C255 1.633 . S
C691 C354 1.564 . S
C705 C282 1.593 . S
C709 C334 1.572 . S
C727 C408 1.611 . S
C723 C181 1.747 . S
C745 C418 1.490 . S
C741 C202 1.564 . S
C763 C364 1.544 . S
C759 C242 1.614 . S
C777 C301 1.535 . S
C781 C381 1.481 . S
C799 C399 1.599 . S
C795 C215 1.710 . S
C817 C424 1.494 . S
C813 C261 1.568 . S
C835 C370 1.542 . S
C831 C295 1.616 . S
C849 C175 1.562 . S
C853 C390 1.485 . S
