# Generated by pormake.
# Topology llk, (3,12)-cn, num edge types: 1
# Building blocks:
#     Node 0, Type 0, BuildingBlock: QEWDON_clean_linker_0, # of connection points: 3
#     Node 1, Type 0, BuildingBlock: QEWDON_clean_linker_0, # of connection points: 3
#     Node 2, Type 0, BuildingBlock: QEWDON_clean_linker_0, # of connection points: 3
#     Node 3, Type 0, BuildingBlock: QEWDON_clean_linker_0, # of connection points: 3
#     Node 4, Type 0, BuildingBlock: QEWDON_clean_linker_0, # of connection points: 3
#     Node 5, Type 0, BuildingBlock: QEWDON_clean_linker_0, # of connection points: 3
#     Node 6, Type 0, BuildingBlock: QEWDON_clean_linker_0, # of connection points: 3
#     Node 7, Type 0, BuildingBlock: QEWDON_clean_linker_0, # of connection points: 3
#     Node 8, Type 0, BuildingBlock: QEWDON_clean_linker_0, # of connection points: 3
#     Node 9, Type 0, BuildingBlock: QEWDON_clean_linker_0, # of connection points: 3
#     Node 10, Type 0, BuildingBlock: QEWDON_clean_linker_0, # of connection points: 3
#     Node 11, Type 0, BuildingBlock: QEWDON_clean_linker_0, # of connection points: 3
#     Node 12, Type 0, BuildingBlock: QEWDON_clean_linker_0, # of connection points: 3
#     Node 13, Type 0, BuildingBlock: QEWDON_clean_linker_0, # of connection points: 3
#     Node 14, Type 0, BuildingBlock: QEWDON_clean_linker_0, # of connection points: 3
#     Node 15, Type 0, BuildingBlock: QEWDON_clean_linker_0, # of connection points: 3
#     Node 16, Type 0, BuildingBlock: QEWDON_clean_linker_0, # of connection points: 3
#     Node 17, Type 0, BuildingBlock: QEWDON_clean_linker_0, # of connection points: 3
#     Node 18, Type 0, BuildingBlock: QEWDON_clean_linker_0, # of connection points: 3
#     Node 19, Type 0, BuildingBlock: QEWDON_clean_linker_0, # of connection points: 3
#     Node 20, Type 0, BuildingBlock: QEWDON_clean_linker_0, # of connection points: 3
#     Node 21, Type 0, BuildingBlock: QEWDON_clean_linker_0, # of connection points: 3
#     Node 22, Type 0, BuildingBlock: QEWDON_clean_linker_0, # of connection points: 3
#     Node 23, Type 0, BuildingBlock: QEWDON_clean_linker_0, # of connection points: 3
#     Node 24, Type 1, BuildingBlock: QEWDON_clean_sbu_0, # of connection points: 12
#     Node 25, Type 1, BuildingBlock: QEWDON_clean_sbu_0, # of connection points: 12
#     Node 26, Type 1, BuildingBlock: QEWDON_clean_sbu_0, # of connection points: 12
#     Node 27, Type 1, BuildingBlock: QEWDON_clean_sbu_0, # of connection points: 12
#     Node 28, Type 1, BuildingBlock: QEWDON_clean_sbu_0, # of connection points: 12
#     Node 29, Type 1, BuildingBlock: QEWDON_clean_sbu_0, # of connection points: 12
#     Edge 30, Type (0, 1), None
#     Edge 31, Type (0, 1), None
#     Edge 32, Type (0, 1), None
#     Edge 33, Type (0, 1), None
#     Edge 34, Type (0, 1), None
#     Edge 35, Type (0, 1), None
#     Edge 36, Type (0, 1), None
#     Edge 37, Type (0, 1), None
#     Edge 38, Type (0, 1), None
#     Edge 39, Type (0, 1), None
#     Edge 40, Type (0, 1), None
#     Edge 41, Type (0, 1), None
#     Edge 42, Type (0, 1), None
#     Edge 43, Type (0, 1), None
#     Edge 44, Type (0, 1), None
#     Edge 45, Type (0, 1), None
#     Edge 46, Type (0, 1), None
#     Edge 47, Type (0, 1), None
#     Edge 48, Type (0, 1), None
#     Edge 49, Type (0, 1), None
#     Edge 50, Type (0, 1), None
#     Edge 51, Type (0, 1), None
#     Edge 52, Type (0, 1), None
#     Edge 53, Type (0, 1), None
#     Edge 54, Type (0, 1), None
#     Edge 55, Type (0, 1), None
#     Edge 56, Type (0, 1), None
#     Edge 57, Type (0, 1), None
#     Edge 58, Type (0, 1), None
#     Edge 59, Type (0, 1), None
#     Edge 60, Type (0, 1), None
#     Edge 61, Type (0, 1), None
#     Edge 62, Type (0, 1), None
#     Edge 63, Type (0, 1), None
#     Edge 64, Type (0, 1), None
#     Edge 65, Type (0, 1), None
#     Edge 66, Type (0, 1), None
#     Edge 67, Type (0, 1), None
#     Edge 68, Type (0, 1), None
#     Edge 69, Type (0, 1), None
#     Edge 70, Type (0, 1), None
#     Edge 71, Type (0, 1), None
#     Edge 72, Type (0, 1), None
#     Edge 73, Type (0, 1), None
#     Edge 74, Type (0, 1), None
#     Edge 75, Type (0, 1), None
#     Edge 76, Type (0, 1), None
#     Edge 77, Type (0, 1), None
#     Edge 78, Type (0, 1), None
#     Edge 79, Type (0, 1), None
#     Edge 80, Type (0, 1), None
#     Edge 81, Type (0, 1), None
#     Edge 82, Type (0, 1), None
#     Edge 83, Type (0, 1), None
#     Edge 84, Type (0, 1), None
#     Edge 85, Type (0, 1), None
#     Edge 86, Type (0, 1), None
#     Edge 87, Type (0, 1), None
#     Edge 88, Type (0, 1), None
#     Edge 89, Type (0, 1), None
#     Edge 90, Type (0, 1), None
#     Edge 91, Type (0, 1), None
#     Edge 92, Type (0, 1), None
#     Edge 93, Type (0, 1), None
#     Edge 94, Type (0, 1), None
#     Edge 95, Type (0, 1), None
#     Edge 96, Type (0, 1), None
#     Edge 97, Type (0, 1), None
#     Edge 98, Type (0, 1), None
#     Edge 99, Type (0, 1), None
#     Edge 100, Type (0, 1), None
#     Edge 101, Type (0, 1), None
# Relax obj value: 0.133
# Max RMSD: 0.260
# Mean RMSD: 0.204
data_MOF--net-llk--node1-QEWDON_clean_sbu_0--node2-QEWDON_clean_linker_0--edge1-none
_symmetry_space_group_name_H-M    P1
_symmetry_Int_Tables_number       1
_symmetry_cell_setting            triclinic
loop_
_symmetry_equiv_pos_as_xyz
'x, y, z'
_cell_length_a     26.013755
_cell_length_b     25.498263
_cell_length_c     25.1714
_cell_angle_alpha  90.204092
_cell_angle_beta   89.923135
_cell_angle_gamma 89.45263
loop_
_atom_site_label
_atom_site_type_symbol
_atom_site_fract_x
_atom_site_fract_y
_atom_site_fract_z
_atom_type_partial_charge
H0 H 0.03096 0.38548 0.29162 0.0
C1 C 0.03377 0.34901 0.31341 0.0
C2 C 0.02633 0.3494 0.36879 0.0
C3 C 0.0385 0.30175 0.2849 0.0
H4 H 0.01693 0.30022 0.43807 0.0
C5 C 0.02555 0.30113 0.39593 0.0
C6 C 0.03344 0.25364 0.36807 0.0
C7 C 0.04019 0.25432 0.31283 0.0
C8 C 0.03223 0.30223 0.2262 0.0
H9 H 0.04268 0.21754 0.29113 0.0
C10 C 0.05603 0.34104 0.19532 0.0
C11 C 0.04168 0.34889 0.14208 0.0
C12 C -0.00367 0.26882 0.202 0.0
H13 H 0.97671 0.2391 0.22479 0.0
C14 C 0.98267 0.27582 0.14888 0.0
H15 H 0.08359 0.36703 0.21368 0.0
C16 C 0.0042 0.31638 0.11943 0.0
H17 H -0.00875 0.32248 0.07906 0.0
H18 H 0.95393 0.25089 0.13102 0.0
H19 H 0.69419 0.11039 0.31164 0.0
C20 C 0.67858 0.09408 0.27522 0.0
C21 C 0.63102 0.06972 0.27676 0.0
C22 C 0.70901 0.09157 0.22954 0.0
H23 H 0.57526 0.02526 0.23273 0.0
C24 C 0.61107 0.04658 0.23088 0.0
C25 C 0.63925 0.04862 0.18331 0.0
C26 C 0.68823 0.07125 0.18271 0.0
C27 C 0.76436 0.10228 0.23425 0.0
H28 H 0.71192 0.06834 0.14731 0.0
C29 C 0.79063 0.08519 0.2799 0.0
C30 C 0.84089 0.10062 0.28892 0.0
C31 C 0.79083 0.13052 0.19525 0.0
H32 H 0.77129 0.14385 0.15981 0.0
C33 C 0.84233 0.14355 0.20311 0.0
H34 H 0.77143 0.06167 0.30963 0.0
C35 C 0.86709 0.12944 0.25017 0.0
H36 H 0.90664 0.14095 0.25636 0.0
H37 H 0.8627 0.16598 0.17354 0.0
H38 H 0.97255 0.74435 0.34514 0.0
C39 C 0.98707 0.72582 0.30927 0.0
C40 C 0.00329 0.67268 0.31071 0.0
C41 C 0.98764 0.75403 0.26108 0.0
H42 H 0.02788 0.60603 0.26363 0.0
C43 C 0.01766 0.64739 0.26341 0.0
C44 C 0.0171 0.67492 0.21547 0.0
C45 C 0.00477 0.7281 0.21489 0.0
C46 C 0.9684 0.80932 0.25653 0.0
H47 H 0.00819 0.74904 0.17766 0.0
C48 C 0.97563 0.84723 0.29701 0.0
C49 C 0.96138 0.90005 0.28804 0.0
C50 C 0.94396 0.82502 0.20901 0.0
H51 H 0.93502 0.79699 0.17805 0.0
C52 C 0.9309 0.87715 0.20008 0.0
H53 H -0.00641 0.83636 0.33423 0.0
C54 C 0.94015 0.91453 0.23891 0.0
H55 H 0.929 0.95482 0.23102 0.0
H56 H 0.91322 0.8886 0.16293 0.0
H57 H 0.25657 0.98595 0.31775 0.0
C58 C 0.27851 0.99324 0.28189 0.0
C59 C 0.33067 0.00348 0.28634 0.0
C60 C 0.25467 0.99122 0.23182 0.0
H61 H 0.40072 0.01977 0.24345 0.0
C62 C 0.36005 0.01143 0.24 0.0
C63 C 0.33671 0.00965 0.18944 0.0
C64 C 0.28403 0.99838 0.18583 0.0
C65 C 0.19854 0.98358 0.22911 0.0
H66 H 0.26509 0.99793 0.1475 0.0
C67 C 0.16766 0.00897 0.26693 0.0
C68 C 0.11761 0.99237 0.27659 0.0
C69 C 0.17637 0.94675 0.19466 0.0
H70 H 0.19937 0.92685 0.16472 0.0
C71 C 0.12477 0.93293 0.20126 0.0
H72 H 0.18464 0.03804 0.29298 0.0
C73 C 0.09594 0.9542 0.24337 0.0
H74 H 0.05748 0.9402 0.25055 0.0
H75 H 0.10799 0.90357 0.17559 0.0
H76 H 0.95845 0.66105 0.70628 0.0
C77 C 0.9699 0.69934 0.69262 0.0
C78 C 0.98834 0.70334 0.64055 0.0
C79 C 0.97305 0.74204 0.72829 0.0
H80 H 0.01945 0.75626 0.58163 0.0
C81 C 0.00339 0.75305 0.62122 0.0
C82 C 0.0004 0.79788 0.65414 0.0
C83 C 0.9865 0.79137 0.70761 0.0
C84 C 0.96828 0.73416 0.7874 0.0
H85 H -0.00984 0.82477 0.73374 0.0
C86 C 0.97512 0.6839 0.81028 0.0
C87 C 0.96945 0.67633 0.86505 0.0
C88 C 0.95828 0.77684 0.8221 0.0
H89 H 0.95089 0.81599 0.80759 0.0
C90 C 0.95645 0.76969 0.87701 0.0
H91 H 0.9831 0.64967 0.78615 0.0
C92 C 0.96091 0.71957 0.89839 0.0
H93 H 0.95543 0.71423 0.94071 0.0
H94 H 0.94935 0.80295 0.90293 0.0
H95 H 0.30186 0.9748 0.72067 0.0
C96 C 0.31824 0.97482 0.76023 0.0
C97 C 0.37164 0.97323 0.76433 0.0
C98 C 0.28709 0.98413 0.80503 0.0
H99 H 0.4364 0.98443 0.81558 0.0
C100 C 0.39498 0.9801 0.81343 0.0
C101 C 0.36448 0.98944 0.85834 0.0
C102 C 0.31084 0.98928 0.8547 0.0
C103 C 0.23257 1.00007 0.797 0.0
H104 H 0.28825 0.99878 0.88969 0.0
C105 C 0.20621 0.98166 0.75207 0.0
C106 C 0.16365 0.009 0.73306 0.0
C107 C 0.21039 0.04132 0.82712 0.0
H108 H 0.22952 0.05751 0.8615 0.0
C109 C 0.16474 0.06538 0.81055 0.0
H110 H 0.22141 0.9492 0.72879 0.0
C111 C 0.14227 0.05045 0.76266 0.0
H112 H 0.1089 0.07179 0.7482 0.0
H113 H 0.14849 0.09768 0.83323 0.0
H114 H 0.02069 0.30937 0.6565 0.0
C115 C 0.01825 0.32411 0.69684 0.0
C116 C 0.02833 0.37731 0.70658 0.0
C117 C 0.00244 0.29102 0.7386 0.0
H118 H 0.03061 0.43857 0.76519 0.0
C119 C 0.02325 0.39736 0.75807 0.0
C120 C 0.00728 0.36588 0.80009 0.0
C121 C -0.0022 0.31252 0.79045 0.0
C122 C 0.98766 0.23527 0.72783 0.0
H123 H 0.98613 0.28817 0.82339 0.0
C124 C 0.01184 0.20488 0.68745 0.0
C125 C -0.00353 0.15281 0.67756 0.0
C126 C 0.94815 0.21206 0.75786 0.0
H127 H 0.92727 0.23403 0.7879 0.0
C128 C 0.9346 0.15997 0.74953 0.0
H129 H 0.04269 0.22123 0.66403 0.0
C130 C 0.95896 0.13045 0.71013 0.0
H131 H 0.9499 0.08936 0.70641 0.0
H132 H 0.90526 0.14226 0.774 0.0
H133 H 0.67566 0.07476 0.73686 0.0
C134 C 0.71223 0.05806 0.72435 0.0
C135 C 0.71728 0.03894 0.67258 0.0
C136 C 0.75292 0.05342 0.76067 0.0
H137 H 0.76835 0.00483 0.61485 0.0
C138 C 0.76395 0.01744 0.65585 0.0
C139 C 0.80655 0.01812 0.68988 0.0
C140 C 0.80111 0.03551 0.74239 0.0
C141 C 0.74282 0.06146 0.81801 0.0
H142 H 0.83412 0.03429 0.76857 0.0
C143 C 0.69563 0.04478 0.83906 0.0
C144 C 0.68739 0.04399 0.89362 0.0
C145 C 0.78111 0.07946 0.85282 0.0
H146 H 0.81752 0.09342 0.83787 0.0
C147 C 0.77336 0.07733 0.90767 0.0
H148 H 0.66627 0.02854 0.81347 0.0
C149 C 0.72737 0.05783 0.92798 0.0
H150 H 0.72343 0.05223 0.97041 0.0
H151 H 0.80376 0.08895 0.93443 0.0
H152 H 0.27069 0.3636 0.03317 0.0
C153 C 0.2901 0.32614 0.02793 0.0
C154 C 0.34381 0.3246 0.02785 0.0
C155 C 0.26168 0.27964 0.02315 0.0
H156 H 0.41153 0.27572 0.02282 0.0
C157 C 0.36979 0.27689 0.02291 0.0
C158 C 0.34238 0.23059 0.01824 0.0
C159 C 0.2884 0.23149 0.01876 0.0
C160 C 0.20454 0.28234 0.02186 0.0
H161 H 0.26762 0.19506 0.01474 0.0
C162 C 0.17995 0.32471 -0.00344 0.0
C163 C 0.12623 0.3298 -0.00364 0.0
C164 C 0.17421 0.244 0.04641 0.0
H165 H 0.19182 0.21134 0.06714 0.0
C166 C 0.12055 0.24802 0.04507 0.0
H167 H 0.20281 0.35383 0.97638 0.0
C168 C 0.0966 0.29043 0.0198 0.0
H169 H 0.05509 0.29263 0.01899 0.0
H170 H 0.09743 0.21834 0.06398 0.0
H171 H 0.2417 0.69398 0.01154 0.0
C172 C 0.26066 0.73109 0.01686 0.0
C173 C 0.3138 0.73119 0.00999 0.0
C174 C 0.23314 0.77864 0.02687 0.0
H175 H 0.3814 0.7783 0.00481 0.0
C176 C 0.34008 0.77833 0.01136 0.0
C177 C 0.31429 0.82554 0.02071 0.0
C178 C 0.26135 0.82587 0.03045 0.0
C179 C 0.17542 0.77923 0.02669 0.0
H180 H 0.24276 0.86304 0.03903 0.0
C181 C 0.14821 0.73195 0.03189 0.0
C182 C 0.09817 0.72791 0.01248 0.0
C183 C 0.14732 0.8248 0.01238 0.0
H184 H 0.16548 0.86237 0.00751 0.0
C185 C 0.09514 0.82188 -0.00015 0.0
H186 H 0.16723 0.69639 0.04477 0.0
C187 C 0.07115 0.77331 -0.00233 0.0
H188 H 0.03253 0.7708 0.98189 0.0
H189 H 0.0744 0.85681 0.98761 0.0
H190 H 0.71233 0.29973 0.00107 0.0
C191 C 0.74729 0.32244 -0.00014 0.0
C192 C 0.74185 0.37648 0.00261 0.0
C193 C 0.79589 0.29788 0.00109 0.0
H194 H 0.77956 0.44985 0.01195 0.0
C195 C 0.78494 0.40789 0.00695 0.0
C196 C 0.83406 0.3848 0.01064 0.0
C197 C 0.83963 0.32973 0.00681 0.0
C198 C 0.79774 0.23945 0.00513 0.0
H199 H 0.87746 0.31204 0.01047 0.0
C200 C 0.75602 0.21061 0.98521 0.0
C201 C 0.74201 0.16373 0.00926 0.0
C202 C 0.83312 0.21369 0.03862 0.0
H203 H 0.86626 0.23374 0.05441 0.0
C204 C 0.8235 0.1625 0.05572 0.0
H205 H 0.72982 0.22824 0.95683 0.0
C206 C 0.77667 0.13875 0.04366 0.0
H207 H 0.76712 0.10163 0.06183 0.0
H208 H 0.85052 0.14284 0.08168 0.0
H209 H 0.71165 0.72989 0.9665 0.0
C210 C 0.74511 0.70834 0.98067 0.0
C211 C 0.73826 0.65885 0.0016 0.0
C212 C 0.79297 0.7329 0.98399 0.0
H213 H 0.77561 0.59042 0.0341 0.0
C214 C 0.78097 0.6295 0.01823 0.0
C215 C 0.8304 0.65124 0.01605 0.0
C216 C 0.83625 0.70391 0.00057 0.0
C217 C 0.79314 0.79037 0.97811 0.0
H218 H 0.87329 0.72272 0.00406 0.0
C219 C 0.7524 0.81838 0.00158 0.0
C220 C 0.74041 0.86873 0.98523 0.0
C221 C 0.8267 0.81622 0.94357 0.0
H222 H 0.858 0.79509 0.92469 0.0
C223 C 0.81742 0.86898 0.93071 0.0
H224 H 0.72657 0.79906 0.02904 0.0
C225 C 0.7735 0.89493 0.95039 0.0
H226 H 0.76454 0.93437 0.93718 0.0
H227 H 0.84265 0.8888 0.90325 0.0
H228 H 0.5047 0.87465 0.77349 0.0
C229 C 0.51359 0.83684 0.79099 0.0
C230 C 0.52215 0.8343 0.84572 0.0
C231 C 0.51123 0.79084 0.75998 0.0
H232 H 0.53216 0.78417 0.91299 0.0
C233 C 0.52947 0.78572 0.86996 0.0
C234 C 0.52242 0.73935 0.8411 0.0
C235 C 0.51451 0.74181 0.78589 0.0
C236 C 0.49943 0.79505 0.70209 0.0
H237 H 0.50908 0.70569 0.76392 0.0
C238 C 0.51824 0.83763 0.67234 0.0
C239 C 0.5034 0.84536 0.61917 0.0
C240 C 0.46681 0.75896 0.67692 0.0
H241 H 0.45055 0.72642 0.69851 0.0
C242 C 0.45315 0.76554 0.6237 0.0
H243 H 0.54401 0.86531 0.69087 0.0
C244 C 0.47103 0.80848 0.59502 0.0
H245 H 0.45916 0.81295 0.55405 0.0
H246 H 0.42779 0.73769 0.60484 0.0
H247 H 0.25074 0.57178 0.84232 0.0
C248 C 0.23734 0.5644 0.80228 0.0
C249 C 0.18458 0.55839 0.79411 0.0
C250 C 0.27245 0.56032 0.7595 0.0
H251 H 0.12528 0.54381 0.73738 0.0
C252 C 0.16625 0.54931 0.74334 0.0
C253 C 0.20008 0.54552 0.70033 0.0
C254 C 0.25318 0.55112 0.70788 0.0
C255 C 0.32871 0.56401 0.77001 0.0
H256 H 0.27892 0.54753 0.67416 0.0
C257 C 0.34891 0.54428 0.81784 0.0
C258 C 0.40067 0.55128 0.83153 0.0
C259 C 0.36218 0.58856 0.73411 0.0
H260 H 0.34801 0.60466 0.69712 0.0
C261 C 0.41435 0.59378 0.74644 0.0
H262 H 0.32401 0.52365 0.845 0.0
C263 C 0.43356 0.57549 0.79493 0.0
H264 H 0.47393 0.58061 0.80382 0.0
H265 H 0.43983 0.61288 0.71868 0.0
H266 H 0.46855 0.22089 0.86011 0.0
C267 C 0.47285 0.20355 0.82091 0.0
C268 C 0.49419 0.15345 0.81668 0.0
C269 C 0.46427 0.23423 0.77555 0.0
H270 H 0.52024 0.09302 0.76249 0.0
C271 C 0.50075 0.13066 0.76606 0.0
C272 C 0.48693 0.1586 0.71981 0.0
C273 C 0.46979 0.211 0.72493 0.0
C274 C 0.45744 0.29187 0.78242 0.0
H275 H 0.46518 0.2348 0.68961 0.0
C276 C 0.48583 0.31817 0.82196 0.0
C277 C 0.47612 0.37098 0.83408 0.0
C278 C 0.42213 0.32064 0.75174 0.0
H279 H 0.40016 0.30169 0.72074 0.0
C280 C 0.4137 0.37398 0.76226 0.0
H281 H 0.51446 0.29698 0.84486 0.0
C282 C 0.43973 0.39881 0.80383 0.0
H283 H 0.43167 0.43976 0.81206 0.0
H284 H 0.38603 0.39589 0.73889 0.0
H285 H 0.73191 0.49069 0.85145 0.0
C286 C 0.75559 0.49928 0.81711 0.0
C287 C 0.80858 0.50023 0.82311 0.0
C288 C 0.73318 0.50706 0.76686 0.0
H289 H 0.88166 0.50993 0.7838 0.0
C290 C 0.84018 0.50984 0.77915 0.0
C291 C 0.81879 0.51766 0.72895 0.0
C292 C 0.76505 0.51552 0.72247 0.0
C293 C 0.6765 0.5048 0.76289 0.0
H294 H 0.74827 0.5203 0.68337 0.0
C295 C 0.64745 0.53007 0.80237 0.0
C296 C 0.59656 0.51593 0.81205 0.0
C297 C 0.65197 0.47019 0.7278 0.0
H298 H 0.67365 0.44985 0.69714 0.0
C299 C 0.59977 0.45869 0.73495 0.0
H300 H 0.66643 0.55661 0.82969 0.0
C301 C 0.5725 0.48012 0.77808 0.0
H302 H 0.5333 0.46822 0.78541 0.0
H303 H 0.58123 0.43092 0.70879 0.0
H304 H 0.47583 0.19311 0.23623 0.0
C305 C 0.48683 0.23159 0.22291 0.0
C306 C 0.50318 0.2364 0.17024 0.0
C307 C 0.48825 0.27487 0.25819 0.0
H308 H 0.52713 0.28942 0.109 0.0
C309 C 0.51429 0.28584 0.14989 0.0
C310 C 0.51392 0.33001 0.18271 0.0
C311 C 0.50269 0.32433 0.23711 0.0
C312 C 0.4773 0.26748 0.31668 0.0
H313 H 0.50777 0.35805 0.26265 0.0
C314 C 0.47865 0.217 0.34058 0.0
C315 C 0.46366 0.20983 0.39369 0.0
C316 C 0.46348 0.31062 0.34923 0.0
H317 H 0.4603 0.34989 0.33355 0.0
C318 C 0.45172 0.3037 0.40291 0.0
H319 H 0.48948 0.18236 0.31828 0.0
C320 C 0.4511 0.25359 0.42485 0.0
H321 H 0.43946 0.24873 0.46583 0.0
H322 H 0.44117 0.33727 0.42715 0.0
H323 H 0.77933 0.50153 0.19181 0.0
C324 C 0.79124 0.50087 0.23272 0.0
C325 C 0.84386 0.50737 0.24162 0.0
C326 C 0.75594 0.49552 0.27551 0.0
H327 H 0.90349 0.51492 0.29912 0.0
C328 C 0.86261 0.50915 0.29277 0.0
C329 C 0.82955 0.50397 0.33589 0.0
C330 C 0.77665 0.49675 0.32789 0.0
C331 C 0.69849 0.49191 0.26525 0.0
H332 H 0.75295 0.49279 0.36278 0.0
C333 C 0.67867 0.48966 0.21275 0.0
C334 C 0.62615 0.49647 0.20238 0.0
C335 C 0.66216 0.49534 0.30715 0.0
H336 H 0.67335 0.49748 0.34827 0.0
C337 C 0.6094 0.49827 0.29681 0.0
H338 H 0.70323 0.48682 0.17841 0.0
C339 C 0.5915 0.50011 0.24473 0.0
H340 H 0.551 0.50739 0.2375 0.0
H341 H 0.58244 0.50213 0.32943 0.0
H342 H 0.51184 0.81912 0.16965 0.0
C343 C 0.52118 0.8346 0.20831 0.0
C344 C 0.51574 0.88882 0.21559 0.0
C345 C 0.53414 0.80061 0.25036 0.0
H346 H 0.51719 0.95209 0.27152 0.0
C347 C 0.52386 0.91041 0.26558 0.0
C348 C 0.53304 0.87793 0.30935 0.0
C349 C 0.53897 0.82321 0.30184 0.0
C350 C 0.53578 0.74204 0.23997 0.0
H351 H 0.54595 0.79904 0.33632 0.0
C352 C 0.54014 0.72211 0.18724 0.0
C353 C 0.52794 0.66999 0.17493 0.0
C354 C 0.52647 0.70565 0.28091 0.0
H355 H 0.52231 0.71789 0.32182 0.0
C356 C 0.5191 0.65254 0.26921 0.0
H357 H 0.54906 0.74744 0.15427 0.0
C358 C 0.51813 0.63511 0.21653 0.0
H359 H 0.50678 0.59516 0.20809 0.0
H360 H 0.51062 0.6254 0.30096 0.0
H361 H 0.22546 0.612 0.19321 0.0
C362 C 0.26121 0.59665 0.17688 0.0
C363 C 0.26135 0.57579 0.12552 0.0
C364 C 0.30342 0.58857 0.21055 0.0
H365 H 0.30675 0.53755 0.06508 0.0
C366 C 0.30681 0.55518 0.10438 0.0
C367 C 0.3514 0.55375 0.13561 0.0
C368 C 0.34945 0.56887 0.18906 0.0
C369 C 0.29471 0.58754 0.26857 0.0
H370 H 0.38222 0.56101 0.21449 0.0
C371 C 0.24865 0.5661 0.2876 0.0
C372 C 0.24077 0.5591 0.3416 0.0
C373 C 0.33293 0.60222 0.30498 0.0
H374 H 0.36886 0.61858 0.29136 0.0
C375 C 0.32502 0.59522 0.35946 0.0
H376 H 0.21946 0.55221 0.2604 0.0
C377 C 0.27926 0.57333 0.37781 0.0
H378 H 0.27365 0.5681 0.42013 0.0
H379 H 0.35451 0.60642 0.38747 0.0
H380 H 0.79546 0.86401 0.50338 0.0
C381 C 0.81245 0.82509 0.50419 0.0
C382 C 0.86595 0.82082 0.50868 0.0
C383 C 0.78078 0.78071 0.50547 0.0
H384 H 0.92956 0.7672 0.52212 0.0
C385 C 0.88848 0.77089 0.51579 0.0
C386 C 0.8573 0.72585 0.51599 0.0
C387 C 0.80397 0.731 0.51004 0.0
C388 C 0.72372 0.78738 0.50654 0.0
H389 H 0.78061 0.69606 0.51067 0.0
C390 C 0.70061 0.83107 0.48197 0.0
C391 C 0.64827 0.84256 0.48906 0.0
C392 C 0.69231 0.75308 0.53568 0.0
H393 H 0.70843 0.71968 0.55641 0.0
C394 C 0.6395 0.76267 0.54018 0.0
H395 H 0.72351 0.85707 0.45786 0.0
C396 C 0.61751 0.80733 0.51732 0.0
H397 H 0.57683 0.81479 0.52279 0.0
H398 H 0.61577 0.73617 0.56282 0.0
H399 H 0.80646 0.18069 0.48358 0.0
C400 C 0.82397 0.21836 0.49143 0.0
C401 C 0.87383 0.21995 0.51269 0.0
C402 C 0.79553 0.26467 0.48285 0.0
H403 H 0.93308 0.27133 0.54385 0.0
C404 C 0.89551 0.26953 0.52546 0.0
C405 C 0.86802 0.31664 0.51419 0.0
C406 C 0.81836 0.31306 0.49304 0.0
C407 C 0.74057 0.26333 0.46689 0.0
H408 H 0.79584 0.34858 0.48726 0.0
C409 C 0.70682 0.22741 0.49044 0.0
C410 C 0.6548 0.22665 0.47591 0.0
C411 C 0.72099 0.29958 0.42979 0.0
H412 H 0.74594 0.32777 0.41096 0.0
C413 C 0.669 0.29944 0.41609 0.0
H414 H 0.72112 0.19931 0.51922 0.0
C415 C 0.6361 0.26272 0.43848 0.0
H416 H 0.59616 0.26211 0.42627 0.0
H417 H 0.65437 0.32733 0.38738 0.0
H418 H 0.15378 0.82639 0.50531 0.0
C419 C 0.19233 0.84138 0.50985 0.0
C420 C 0.20133 0.89523 0.50109 0.0
C421 C 0.23292 0.80722 0.52515 0.0
H422 H 0.25822 0.9561 0.50291 0.0
C423 C 0.25112 0.91465 0.50832 0.0
C424 C 0.29162 0.88194 0.52435 0.0
C425 C 0.28257 0.82833 0.53181 0.0
C426 C 0.22407 0.74997 0.53551 0.0
H427 H 0.31463 0.8032 0.54272 0.0
C428 C 0.18755 0.72074 0.50633 0.0
C429 C 0.18096 0.66673 0.51614 0.0
C430 C 0.25335 0.72364 0.57459 0.0
H431 H 0.28057 0.74439 0.59919 0.0
C432 C 0.24827 0.66985 0.58252 0.0
H433 H 0.16475 0.73949 0.47572 0.0
C434 C 0.21287 0.64149 0.55296 0.0
H435 H 0.21139 0.59938 0.55769 0.0
H436 H 0.27218 0.64996 0.61147 0.0
H437 H 0.18874 0.2152 0.4899 0.0
C438 C 0.22163 0.19263 0.50337 0.0
C439 C 0.21677 0.13785 0.50742 0.0
C440 C 0.26862 0.21748 0.51462 0.0
H441 H 0.25622 0.0644 0.52026 0.0
C442 C 0.25965 0.10677 0.51927 0.0
C443 C 0.30704 0.13005 0.5293 0.0
C444 C 0.31093 0.18505 0.52924 0.0
C445 C 0.2742 0.27628 0.50957 0.0
H446 H 0.34719 0.20186 0.54103 0.0
C447 C 0.2314 0.31156 0.51155 0.0
C448 C 0.23841 0.36627 0.50661 0.0
C449 C 0.32331 0.29783 0.50109 0.0
H450 H 0.35693 0.27331 0.49597 0.0
C451 C 0.33026 0.35176 0.49781 0.0
H452 H 0.19277 0.2973 0.51718 0.0
C453 C 0.28838 0.38576 0.50108 0.0
H454 H 0.29502 0.42741 0.4966 0.0
H455 H 0.36836 0.3673 0.49157 0.0
Zn456 Zn 0.92647 0.00828 0.4037 0.0
Zn457 Zn 0.93893 0.12932 0.42116 0.0
O458 O 0.98083 0.06498 0.41015 0.0
H459 H 0.00833 0.06494 0.38443 0.0
C460 C 0.89523 0.87026 0.51211 0.0
O461 O 0.88227 0.90912 0.48055 0.0
Zn462 Zn 0.10446 0.06003 0.58849 0.0
Zn463 Zn 0.08615 0.93299 0.60147 0.0
O464 O 0.05577 0.99967 0.56852 0.0
H465 H 0.01989 1.0022 0.559 0.0
Zn466 Zn 0.92179 0.95965 0.58213 0.0
O467 O 0.9177 0.02662 0.53499 0.0
Zn468 Zn 0.9219 0.08103 0.5944 0.0
H469 H 0.89844 0.02982 0.50236 0.0
Zn470 Zn 0.0662 0.97396 0.43947 0.0
O471 O 0.05888 0.05025 0.46834 0.0
H472 H 0.03539 0.06388 0.49484 0.0
Zn473 Zn 0.09042 0.09587 0.41244 0.0
C474 C 0.16017 0.93221 0.48336 0.0
O475 O 0.17207 0.98042 0.47015 0.0
O476 O 0.8757 0.04007 0.34966 0.0
O477 O 0.88499 0.12566 0.36559 0.0
O478 O 0.11845 0.95794 0.67116 0.0
O479 O 0.15283 0.03361 0.64429 0.0
O480 O 0.86757 0.97151 0.63994 0.0
O481 O 0.87839 0.05661 0.65453 0.0
C482 C 0.02258 0.20304 0.39313 0.0
O483 O 0.07843 0.97201 0.35819 0.0
O484 O 0.10196 0.05464 0.34434 0.0
O485 O 0.05209 0.8572 0.60207 0.0
C486 C 0.86624 0.08795 0.33891 0.0
O487 O 0.94907 0.93455 0.37526 0.0
C488 C 0.02202 0.11923 0.63713 0.0
O489 O 0.91792 0.88111 0.55531 0.0
C490 C 0.14523 0.99864 0.67955 0.0
O491 O 0.11384 0.91796 0.47756 0.0
C492 C 0.89765 0.1692 0.52934 0.0
O493 O 0.97607 0.19367 0.40387 0.0
O494 O 0.05751 0.16768 0.3958 0.0
C495 C 0.85686 0.01342 0.66521 0.0
O496 O 0.07042 0.11866 0.63235 0.0
O497 O -0.00324 0.08737 0.60889 0.0
C498 C 0.16941 0.11307 0.48934 0.0
O499 O 0.89342 0.15434 0.577 0.0
O500 O 0.91715 0.13624 0.49684 0.0
C501 C 0.09445 0.00799 0.32756 0.0
O502 O 0.15834 0.1169 0.44045 0.0
O503 O 0.13826 0.09028 0.52084 0.0
C504 C 0.0171 0.85105 0.63679 0.0
O505 O 0.00154 0.89252 0.66376 0.0
C506 C 0.96634 0.94143 0.32866 0.0
O507 O 0.97414 0.98978 0.31286 0.0
Zn508 Zn 0.42371 0.09326 0.07548 0.0
Zn509 Zn 0.43309 0.10512 0.94713 0.0
O510 O 0.45296 0.05948 0.00943 0.0
H511 H 0.47513 0.02899 0.00878 0.0
C512 C 0.51704 0.18969 0.13875 0.0
O513 O 0.49108 0.14599 0.14293 0.0
Zn514 Zn 0.59608 0.92431 0.9533 0.0
Zn515 Zn 0.61364 0.93458 0.07017 0.0
O516 O 0.56907 0.96618 0.0145 0.0
H517 H 0.55769 1.00228 0.01441 0.0
Zn518 Zn 0.58584 0.13253 0.06208 0.0
O519 O 0.54442 0.13384 -0.00459 0.0
Zn520 Zn 0.5971 0.11744 0.93998 0.0
H521 H 0.51651 0.15895 0.99244 0.0
Zn522 Zn 0.4336 0.9279 0.07049 0.0
O523 O 0.47864 0.91976 0.00492 0.0
H524 H 0.462 0.92355 0.03898 0.0
Zn525 Zn 0.42796 0.92175 0.94781 0.0
C526 C 0.49438 0.921 0.17226 0.0
O527 O 0.49596 0.97246 0.17359 0.0
O528 O 0.3771 0.15568 0.05792 0.0
O529 O 0.39441 0.16973 0.9721 0.0
O530 O 0.68504 0.92027 0.0384 0.0
O531 O 0.65002 0.8717 0.97516 0.0
O532 O 0.66445 0.13557 0.04792 0.0
O533 O 0.66521 0.14944 0.96045 0.0
C534 C 0.38748 0.01868 0.90118 0.0
O535 O 0.36421 0.89033 0.06062 0.0
O536 O 0.3661 0.88203 0.97268 0.0
O537 O 0.61128 0.9713 0.14188 0.0
C538 C 0.37126 0.18164 0.0153 0.0
O539 O 0.40503 0.05269 0.1442 0.0
C540 C 0.6427 0.01656 0.91423 0.0
O541 O 0.55748 0.19105 0.11044 0.0
C542 C 0.68965 0.88958 -0.00111 0.0
O543 O 0.47059 0.89796 0.13521 0.0
C544 C 0.52145 0.13302 0.86366 0.0
O545 O 0.38667 0.06809 0.89865 0.0
O546 O 0.41432 0.99662 0.93635 0.0
C547 C 0.68821 0.14699 0.00524 0.0
O548 O 0.64192 0.96736 0.90987 0.0
O549 O 0.60618 0.04022 0.93782 0.0
C550 C 0.50467 0.87744 0.87963 0.0
O551 O 0.56994 0.13792 0.86697 0.0
O552 O 0.4978 0.11924 0.90545 0.0
C553 C 0.34524 0.87294 0.01755 0.0
O554 O 0.45655 0.88491 0.88391 0.0
O555 O 0.53452 0.90012 0.91201 0.0
C556 C 0.62288 0.0191 0.13672 0.0
O557 O 0.63233 0.03733 0.08903 0.0
C558 C 0.36498 0.02488 0.14082 0.0
O559 O 0.34368 0.0187 0.09391 0.0
Zn560 Zn 0.92102 0.42737 0.92474 0.0
Zn561 Zn 0.89656 0.55225 0.94263 0.0
O562 O 0.95345 0.49724 0.94394 0.0
H563 H -0.01079 0.50225 0.95247 0.0
C564 C 0.87673 0.41797 0.02838 0.0
O565 O 0.87218 0.4692 0.02495 0.0
Zn566 Zn 0.10313 0.61008 0.092 0.0
Zn567 Zn 0.12483 0.48498 0.08794 0.0
O568 O 0.07069 0.54012 0.10231 0.0
H569 H 0.04393 0.53257 0.12769 0.0
Zn570 Zn 0.93905 0.45705 0.10794 0.0
O571 O 0.95849 0.52578 0.07434 0.0
Zn572 Zn 0.93812 0.58444 0.12342 0.0
H573 H 0.98091 0.52949 0.04406 0.0
Zn574 Zn 0.10622 0.48421 0.9246 0.0
O575 O 0.08238 0.5454 0.969 0.0
H576 H 0.0628 0.54008 0.00105 0.0
Zn577 Zn 0.06753 0.59969 0.91307 0.0
C578 C 0.1022 0.37678 0.97231 0.0
O579 O 0.05244 0.37925 0.96383 0.0
O580 O 0.86538 0.45153 0.87406 0.0
O581 O 0.83181 0.52388 0.91013 0.0
O582 O 0.1977 0.51686 0.0978 0.0
O583 O 0.17899 0.60248 0.10017 0.0
O584 O 0.89017 0.47087 0.17041 0.0
O585 O 0.89956 0.55642 0.18721 0.0
C586 C 0.95857 0.62368 0.88504 0.0
O587 O 0.151 0.50993 0.86423 0.0
O588 O 0.11705 0.58948 0.85013 0.0
O589 O 0.10481 0.41458 0.1248 0.0
C590 C 0.83252 0.4886 0.87411 0.0
O591 O 0.96213 0.37085 0.8825 0.0
C592 C 0.03425 0.64988 0.1664 0.0
O593 O 0.91025 0.39916 0.0596 0.0
C594 C 0.21132 0.56476 0.10183 0.0
O595 O 0.13018 0.41558 0.96029 0.0
C596 C 0.87303 0.62174 0.03997 0.0
O597 O 0.91241 0.61289 0.89554 0.0
O598 O -0.00672 0.5914 0.89908 0.0
C599 C 0.87982 0.5119 0.19735 0.0
O600 O 0.07987 0.65698 0.15082 0.0
O601 O 0.00531 0.62067 0.13881 0.0
C602 C 0.08192 0.67695 0.99197 0.0
O603 O 0.88703 0.63268 0.08695 0.0
O604 O 0.89395 0.58274 0.01668 0.0
C605 C 0.14949 0.553 0.83905 0.0
O606 O 0.07434 0.67244 0.94247 0.0
O607 O 0.08465 0.63536 0.01927 0.0
C608 C 0.06236 0.39367 0.11183 0.0
O609 O 0.03482 0.41505 0.0738 0.0
C610 C -0.00553 0.3915 0.85141 0.0
O611 O 0.00556 0.44122 0.85856 0.0
Zn612 Zn 0.40233 0.47876 0.99099 0.0
Zn613 Zn 0.45249 0.43342 0.08838 0.0
O614 O 0.4744 0.4737 0.02333 0.0
H615 H 0.4997 0.50101 0.02179 0.0
C616 C 0.50188 0.3957 0.88007 0.0
O617 O 0.47796 0.43237 0.90739 0.0
Zn618 Zn 0.60012 0.59769 0.07516 0.0
Zn619 Zn 0.59035 0.59819 0.9578 0.0
O620 O 0.58503 0.54407 0.01757 0.0
H621 H 0.5991 0.50905 0.0138 0.0
Zn622 Zn 0.58304 0.41189 0.96243 0.0
O623 O 0.55074 0.4003 0.03438 0.0
Zn624 Zn 0.60413 0.41641 0.09069 0.0
H625 H 0.52397 0.3745 0.03778 0.0
Zn626 Zn 0.42904 0.63754 0.92849 0.0
O627 O 0.4732 0.61876 0.99171 0.0
H628 H 0.50438 0.5982 0.98904 0.0
Zn629 Zn 0.42739 0.62058 0.05525 0.0
C630 C 0.5099 0.69195 0.87144 0.0
O631 O 0.53372 0.68312 0.91656 0.0
O632 O 0.3601 0.41268 0.00645 0.0
O633 O 0.41253 0.37228 0.06349 0.0
O634 O 0.66074 0.63046 0.96491 0.0
O635 O 0.66642 0.63314 0.05305 0.0
O636 O 0.66148 0.40223 0.96959 0.0
O637 O 0.67292 0.3992 0.05792 0.0
C638 C 0.39581 0.52533 0.1154 0.0
O639 O 0.36758 0.68104 0.95555 0.0
O640 O 0.35971 0.65791 0.04042 0.0
O641 O 0.58119 0.57849 0.87865 0.0
C642 C 0.37327 0.37256 0.03333 0.0
O643 O 0.38877 0.51006 0.91551 0.0
C644 C 0.61138 0.51877 0.151 0.0
O645 O 0.54596 0.37975 0.89545 0.0
C646 C 0.68594 0.6394 0.00698 0.0
O647 O 0.46561 0.67258 0.86461 0.0
C648 C 0.53844 0.37728 0.16152 0.0
O649 O 0.4028 0.47796 0.12911 0.0
O650 O 0.42441 0.54555 0.08041 0.0
C651 C 0.69023 0.39748 0.01035 0.0
O652 O 0.61238 0.56793 0.14647 0.0
O653 O 0.60318 0.49174 0.10955 0.0
C654 C 0.50762 0.6581 0.12147 0.0
O655 O 0.58701 0.37582 0.15685 0.0
O656 O 0.51478 0.40869 0.13053 0.0
C657 C 0.34425 0.6836 -0.0 0.0
O658 O 0.45942 0.6616 0.11516 0.0
O659 O 0.53367 0.63654 0.08439 0.0
C660 C 0.57422 0.53174 0.86322 0.0
O661 O 0.56608 0.4955 0.89893 0.0
C662 C 0.41916 0.53381 0.88432 0.0
O663 O 0.46623 0.54347 0.89975 0.0
Zn664 Zn 0.94382 0.46948 0.45403 0.0
Zn665 Zn 0.92186 0.59488 0.43606 0.0
O666 O 0.97456 0.54366 0.46347 0.0
H667 H -0.00439 0.55424 0.49303 0.0
C668 C 0.88691 0.37077 0.52573 0.0
O669 O 0.86882 0.40999 0.49745 0.0
Zn670 Zn 0.09381 0.58898 0.58157 0.0
Zn671 Zn 0.10257 0.46511 0.59058 0.0
O672 O 0.05024 0.52499 0.5806 0.0
H673 H 0.01329 0.52176 0.58012 0.0
Zn674 Zn 0.91065 0.4629 0.59405 0.0
O675 O 0.90542 0.5304 0.54756 0.0
Zn676 Zn 0.90855 0.59078 0.6014 0.0
H677 H 0.88588 0.53192 0.51497 0.0
Zn678 Zn 0.135 0.4602 0.42543 0.0
O679 O 0.08489 0.5166 0.44917 0.0
H680 H 0.07262 0.51643 0.48522 0.0
Zn681 Zn 0.0997 0.57957 0.40079 0.0
C682 C 0.19489 0.40381 0.50097 0.0
O683 O 0.20192 0.4531 0.5144 0.0
O684 O 0.88201 0.47269 0.40321 0.0
O685 O 0.86262 0.55762 0.4012 0.0
O686 O 0.16415 0.49123 0.63574 0.0
O687 O 0.15173 0.57735 0.63112 0.0
O688 O 0.86528 0.47885 0.65907 0.0
O689 O 0.86993 0.56617 0.6682 0.0
C690 C -0.00524 0.64086 0.35858 0.0
O691 O 0.19475 0.50137 0.39555 0.0
O692 O 0.14959 0.55564 0.34401 0.0
O693 O 0.07137 0.39883 0.6255 0.0
C694 C 0.85348 0.51042 0.38781 0.0
O695 O 0.98714 0.40045 0.4388 0.0
C696 C 0.00934 0.65484 0.61594 0.0
O697 O 0.91021 0.38184 0.56861 0.0
C698 C 0.17626 0.53784 0.64872 0.0
O699 O 0.15958 0.39374 0.46774 0.0
C700 C 0.87856 0.67394 0.52936 0.0
O701 O 0.94944 0.63954 0.37715 0.0
O702 O 0.03027 0.61376 0.38069 0.0
C703 C 0.85314 0.52138 0.68288 0.0
O704 O 0.05739 0.65296 0.60825 0.0
O705 O 0.98344 0.61315 0.60768 0.0
C706 C 0.14422 0.63485 0.4855 0.0
O707 O 0.87508 0.6577 0.57678 0.0
O708 O 0.89533 0.64327 0.49335 0.0
C709 C 0.19254 0.5365 0.36 0.0
O710 O 0.14413 0.63563 0.43545 0.0
O711 O 0.11416 0.60299 0.50773 0.0
C712 C 0.04356 0.41379 0.66421 0.0
O713 O 0.03549 0.46433 0.67098 0.0
C714 C 0.01187 0.39984 0.39519 0.0
O715 O 0.01544 0.44395 0.36866 0.0
Zn716 Zn 0.43377 0.94909 0.41061 0.0
Zn717 Zn 0.39224 0.06692 0.43357 0.0
O718 O 0.45774 0.0226 0.4277 0.0
H719 H 0.48665 0.03176 0.40568 0.0
C720 C 0.34181 0.90535 0.53777 0.0
O721 O 0.35294 0.95273 0.52128 0.0
Zn722 Zn 0.59042 0.11919 0.59546 0.0
Zn723 Zn 0.58659 0.99121 0.5777 0.0
O724 O 0.54812 0.06197 0.56502 0.0
H725 H 0.51543 0.0684 0.54801 0.0
Zn726 Zn 0.42539 0.93027 0.60921 0.0
O727 O 0.44447 1.00003 0.57533 0.0
Zn728 Zn 0.42387 0.05723 0.62649 0.0
H729 H 0.4527 0.004 0.53815 0.0
Zn730 Zn 0.62854 1.00136 0.43243 0.0
O731 O 0.56622 0.0327 0.46716 0.0
H732 H 0.53985 0.00969 0.48029 0.0
Zn733 Zn 0.55733 0.10068 0.42763 0.0
C734 C 0.62712 0.89273 0.46943 0.0
O735 O 0.57739 0.90098 0.46803 0.0
O736 O 0.38822 0.96681 0.34743 0.0
O737 O 0.34532 0.03903 0.37329 0.0
O738 O 0.65706 1.00202 0.61351 0.0
O739 O 0.65038 0.08708 0.63338 0.0
O740 O 0.41035 0.93741 0.68854 0.0
O741 O 0.40262 0.02445 0.69536 0.0
C742 C 0.45064 0.15711 0.41316 0.0
O743 O 0.63395 0.02213 0.35498 0.0
O744 O 0.58111 0.09135 0.35168 0.0
O745 O 0.55153 0.92457 0.6109 0.0
C746 C 0.35516 1.00278 0.33902 0.0
O747 O 0.48385 0.88876 0.38613 0.0
C748 C 0.50704 0.14013 0.66803 0.0
O749 O 0.36997 0.88433 0.57301 0.0
C750 C 0.6736 0.04308 0.63643 0.0
O751 O 0.65716 0.9295 0.45639 0.0
C752 C 0.35032 0.0968 0.54664 0.0
O753 O 0.40407 0.14339 0.4146 0.0
O754 O 0.48395 0.12247 0.42454 0.0
C755 C 0.40061 0.97863 0.71535 0.0
O756 O 0.55119 0.15582 0.65406 0.0
O757 O 0.48496 0.10575 0.63921 0.0
C758 C 0.6218 0.18405 0.49421 0.0
O759 O 0.36231 0.09678 0.5957 0.0
O760 O 0.37726 0.06955 0.51404 0.0
C761 C 0.61095 0.05817 0.32921 0.0
O762 O 0.59943 0.15727 0.45875 0.0
O763 O 0.6204 0.17221 0.54339 0.0
C764 C 0.52093 0.89215 0.5894 0.0
O765 O 0.50367 0.90133 0.54132 0.0
C766 C 0.52471 0.90176 0.3621 0.0
O767 O 0.54201 0.94941 0.36986 0.0
loop_
_geom_bond_atom_site_label_1
_geom_bond_atom_site_label_2
_geom_bond_distance
_geom_bond_site_symmetry_2
_ccdc_geom_bond_type
H0 C1 0.949 . S
C1 H0 0.949 . S
C1 C2 1.395 . S
C1 C3 1.391 . S
C2 C1 1.395 . S
C2 C5 1.390 . S
C3 C1 1.391 . S
C3 C7 1.387 . S
C3 C8 1.491 . S
H4 C5 0.950 . S
C5 C2 1.390 . S
C5 H4 0.950 . S
C5 C6 1.378 . S
C6 C5 1.378 . S
C6 C7 1.409 . S
C7 C3 1.387 . S
C7 C6 1.409 . S
C7 H9 0.951 . S
C8 C3 1.491 . S
C8 C10 1.382 . S
C8 C12 1.404 1_455 S
H9 C7 0.951 . S
C10 C8 1.382 . S
C10 C11 1.390 . S
C10 H15 0.949 . S
C11 C10 1.390 . S
C11 C16 1.399 1_455 S
C12 C8 1.404 1_655 S
C12 H13 0.950 . S
C12 C14 1.375 . S
H13 C12 0.950 . S
C14 C12 1.375 . S
C14 C16 1.382 . S
C14 H18 0.950 . S
H15 C10 0.949 . S
C16 C11 1.399 1_655 S
C16 C14 1.382 . S
C16 H17 0.952 . S
H17 C16 0.952 . S
H18 C14 0.950 . S
H19 C20 0.949 . S
C20 H19 0.949 . S
C20 C21 1.395 . S
C20 C22 1.391 . S
C21 C20 1.395 . S
C21 C24 1.390 . S
C22 C20 1.391 . S
C22 C26 1.387 . S
C22 C27 1.491 . S
H23 C24 0.950 . S
C24 C21 1.390 . S
C24 H23 0.950 . S
C24 C25 1.378 . S
C25 C24 1.378 . S
C25 C26 1.409 . S
C26 C22 1.387 . S
C26 C25 1.409 . S
C26 H28 0.951 . S
C27 C22 1.491 . S
C27 C29 1.382 . S
C27 C31 1.404 . S
H28 C26 0.951 . S
C29 C27 1.382 . S
C29 C30 1.390 . S
C29 H34 0.949 . S
C30 C29 1.390 . S
C30 C35 1.399 . S
C31 C27 1.404 . S
C31 H32 0.950 . S
C31 C33 1.375 . S
H32 C31 0.950 . S
C33 C31 1.375 . S
C33 C35 1.382 . S
C33 H37 0.950 . S
H34 C29 0.949 . S
C35 C30 1.399 . S
C35 C33 1.382 . S
C35 H36 0.952 . S
H36 C35 0.952 . S
H37 C33 0.950 . S
H38 C39 0.949 . S
C39 H38 0.949 . S
C39 C40 1.395 . S
C39 C41 1.391 . S
C40 C39 1.395 . S
C40 C43 1.390 . S
C41 C39 1.391 . S
C41 C45 1.387 . S
C41 C46 1.493 . S
H42 C43 0.950 . S
C43 C40 1.390 . S
C43 H42 0.950 . S
C43 C44 1.378 . S
C44 C43 1.378 . S
C44 C45 1.409 . S
C45 C41 1.387 . S
C45 C44 1.409 . S
C45 H47 0.951 . S
C46 C41 1.493 . S
C46 C48 1.387 . S
C46 C50 1.397 1_455 S
H47 C45 0.951 . S
C48 C46 1.387 . S
C48 C49 1.390 . S
C48 H53 0.949 . S
C49 C48 1.390 . S
C49 C54 1.399 1_455 S
C50 C46 1.397 1_655 S
C50 H51 0.950 . S
C50 C52 1.375 . S
H51 C50 0.950 . S
C52 C50 1.375 . S
C52 C54 1.382 . S
C52 H56 0.950 . S
H53 C48 0.949 . S
C54 C49 1.399 1_655 S
C54 C52 1.382 . S
C54 H55 0.952 . S
H55 C54 0.952 . S
H56 C52 0.950 . S
H57 C58 0.949 . S
C58 H57 0.949 . S
C58 C59 1.395 1_565 S
C58 C60 1.391 . S
C59 C58 1.395 1_545 S
C59 C62 1.390 . S
C60 C58 1.391 . S
C60 C64 1.387 . S
C60 C65 1.491 . S
H61 C62 0.950 . S
C62 C59 1.390 . S
C62 H61 0.950 . S
C62 C63 1.378 . S
C63 C62 1.378 . S
C63 C64 1.409 1_545 S
C64 C60 1.387 . S
C64 C63 1.409 1_565 S
C64 H66 0.951 . S
C65 C60 1.491 . S
C65 C67 1.385 . S
C65 C69 1.404 . S
H66 C64 0.951 . S
C67 C65 1.385 . S
C67 C68 1.391 . S
C67 H72 0.943 1_565 S
C68 C67 1.391 . S
C68 C73 1.399 . S
C69 C65 1.404 . S
C69 H70 0.950 . S
C69 C71 1.375 . S
H70 C69 0.950 . S
C71 C69 1.375 . S
C71 C73 1.382 . S
C71 H75 0.950 . S
H72 C67 0.943 1_545 S
C73 C68 1.399 . S
C73 C71 1.382 . S
C73 H74 0.952 . S
H74 C73 0.952 . S
H75 C71 0.950 . S
H76 C77 0.949 . S
C77 H76 0.949 . S
C77 C78 1.393 1_655 S
C77 C79 1.391 . S
C78 C77 1.393 1_455 S
C78 C81 1.391 . S
C79 C77 1.391 . S
C79 C83 1.387 . S
C79 C84 1.491 . S
H80 C81 0.950 . S
C81 C78 1.391 . S
C81 H80 0.950 . S
C81 C82 1.379 . S
C82 C81 1.379 . S
C82 C83 1.406 1_455 S
C83 C79 1.387 . S
C83 C82 1.406 1_655 S
C83 H85 0.951 . S
C84 C79 1.491 . S
C84 C86 1.382 . S
C84 C88 1.404 . S
H85 C83 0.951 . S
C86 C84 1.382 . S
C86 C87 1.390 . S
C86 H91 0.949 1_655 S
C87 C86 1.390 . S
C87 C92 1.399 . S
C88 C84 1.404 . S
C88 H89 0.950 . S
C88 C90 1.375 . S
H89 C88 0.950 . S
C90 C88 1.375 . S
C90 C92 1.382 . S
C90 H94 0.950 . S
H91 C86 0.949 1_455 S
C92 C87 1.399 . S
C92 C90 1.382 . S
C92 H93 0.952 . S
H93 C92 0.952 . S
H94 C90 0.950 . S
H95 C96 0.949 . S
C96 H95 0.949 . S
C96 C97 1.395 . S
C96 C98 1.391 . S
C97 C96 1.395 . S
C97 C100 1.390 . S
C98 C96 1.391 . S
C98 C102 1.387 . S
C98 C103 1.491 . S
H99 C100 0.950 1_565 S
C100 C97 1.390 . S
C100 H99 0.950 1_545 S
C100 C101 1.378 . S
C101 C100 1.378 . S
C101 C102 1.409 . S
C102 C98 1.387 . S
C102 C101 1.409 . S
C102 H104 0.951 . S
C103 C98 1.491 . S
C103 C105 1.382 . S
C103 C107 1.404 . S
H104 C102 0.951 . S
C105 C103 1.382 . S
C105 C106 1.390 . S
C105 H110 0.949 1_545 S
C106 C105 1.390 . S
C106 C111 1.399 . S
C107 C103 1.404 . S
C107 H108 0.950 . S
C107 C109 1.375 . S
H108 C107 0.950 . S
C109 C107 1.375 . S
C109 C111 1.382 . S
C109 H113 0.950 . S
H110 C105 0.949 1_565 S
C111 C106 1.399 . S
C111 C109 1.382 . S
C111 H112 0.952 . S
H112 C111 0.952 . S
H113 C109 0.950 . S
H114 C115 0.949 . S
C115 H114 0.949 . S
C115 C116 1.395 . S
C115 C117 1.391 . S
C116 C115 1.395 . S
C116 C119 1.390 . S
C117 C115 1.391 . S
C117 C121 1.387 . S
C117 C122 1.491 1_455 S
H118 C119 0.950 . S
C119 C116 1.390 . S
C119 H118 0.950 . S
C119 C120 1.378 . S
C120 C119 1.378 . S
C120 C121 1.409 . S
C121 C117 1.387 . S
C121 C120 1.409 . S
C121 H123 0.951 . S
C122 C117 1.491 1_655 S
C122 C124 1.382 1_655 S
C122 C126 1.404 . S
H123 C121 0.951 . S
C124 C122 1.382 1_455 S
C124 C125 1.390 . S
C124 H129 0.949 . S
C125 C124 1.390 . S
C125 C130 1.399 1_455 S
C126 C122 1.404 . S
C126 H127 0.950 . S
C126 C128 1.375 . S
H127 C126 0.950 . S
C128 C126 1.375 . S
C128 C130 1.382 . S
C128 H132 0.950 . S
H129 C124 0.949 . S
C130 C125 1.399 1_655 S
C130 C128 1.382 . S
C130 H131 0.952 . S
H131 C130 0.952 . S
H132 C128 0.950 . S
H133 C134 0.949 . S
C134 H133 0.949 . S
C134 C135 1.395 . S
C134 C136 1.391 . S
C135 C134 1.395 . S
C135 C138 1.390 . S
C136 C134 1.391 . S
C136 C140 1.387 . S
C136 C141 1.491 . S
H137 C138 0.950 . S
C138 C135 1.390 . S
C138 H137 0.950 . S
C138 C139 1.378 . S
C139 C138 1.378 . S
C139 C140 1.409 . S
C140 C136 1.387 . S
C140 C139 1.409 . S
C140 H142 0.951 . S
C141 C136 1.491 . S
C141 C143 1.382 . S
C141 C145 1.404 . S
H142 C140 0.951 . S
C143 C141 1.382 . S
C143 C144 1.390 . S
C143 H148 0.949 . S
C144 C143 1.390 . S
C144 C149 1.399 . S
C145 C141 1.404 . S
C145 H146 0.950 . S
C145 C147 1.375 . S
H146 C145 0.950 . S
C147 C145 1.375 . S
C147 C149 1.382 . S
C147 H151 0.950 . S
H148 C143 0.949 . S
C149 C144 1.399 . S
C149 C147 1.382 . S
C149 H150 0.952 . S
H150 C149 0.952 . S
H151 C147 0.950 . S
H152 C153 0.949 . S
C153 H152 0.949 . S
C153 C154 1.395 . S
C153 C155 1.391 . S
C154 C153 1.395 . S
C154 C157 1.390 . S
C155 C153 1.391 . S
C155 C159 1.387 . S
C155 C160 1.491 . S
H156 C157 0.950 . S
C157 C154 1.390 . S
C157 H156 0.950 . S
C157 C158 1.378 . S
C158 C157 1.378 . S
C158 C159 1.409 . S
C159 C155 1.387 . S
C159 C158 1.409 . S
C159 H161 0.951 . S
C160 C155 1.491 . S
C160 C162 1.382 . S
C160 C164 1.404 . S
H161 C159 0.951 . S
C162 C160 1.382 . S
C162 C163 1.390 . S
C162 H167 0.940 1_554 S
C163 C162 1.390 . S
C163 C168 1.399 . S
C164 C160 1.404 . S
C164 H165 0.950 . S
C164 C166 1.375 . S
H165 C164 0.950 . S
C166 C164 1.375 . S
C166 C168 1.382 . S
C166 H170 0.950 . S
H167 C162 0.940 1_556 S
C168 C163 1.399 . S
C168 C166 1.382 . S
C168 H169 0.952 . S
H169 C168 0.952 . S
H170 C166 0.950 . S
H171 C172 0.949 . S
C172 H171 0.949 . S
C172 C173 1.395 . S
C172 C174 1.391 . S
C173 C172 1.395 . S
C173 C176 1.390 . S
C174 C172 1.391 . S
C174 C178 1.387 . S
C174 C179 1.491 1_554 S
H175 C176 0.950 . S
C176 C173 1.390 . S
C176 H175 0.950 . S
C176 C177 1.378 . S
C177 C176 1.378 . S
C177 C178 1.409 . S
C178 C174 1.387 . S
C178 C177 1.409 . S
C178 H180 0.951 . S
C179 C174 1.491 1_556 S
C179 C181 1.382 1_556 S
C179 C183 1.404 . S
H180 C178 0.951 . S
C181 C179 1.382 1_554 S
C181 C182 1.390 . S
C181 H186 0.949 . S
C182 C181 1.390 . S
C182 C187 1.397 1_554 S
C183 C179 1.404 . S
C183 H184 0.950 . S
C183 C185 1.375 . S
H184 C183 0.950 . S
C185 C183 1.375 . S
C185 C187 1.382 . S
C185 H189 0.950 . S
H186 C181 0.949 . S
C187 C182 1.397 1_556 S
C187 C185 1.382 . S
C187 H188 0.952 . S
H188 C187 0.952 . S
H189 C185 0.950 . S
H190 C191 0.949 . S
C191 H190 0.949 . S
C191 C192 1.395 . S
C191 C193 1.391 . S
C192 C191 1.395 . S
C192 C195 1.390 . S
C193 C191 1.391 . S
C193 C197 1.387 . S
C193 C198 1.491 . S
H194 C195 0.950 1_556 S
C195 C192 1.390 . S
C195 H194 0.950 1_554 S
C195 C196 1.378 . S
C196 C195 1.378 . S
C196 C197 1.409 . S
C197 C193 1.387 . S
C197 C196 1.409 . S
C197 H199 0.951 . S
C198 C193 1.491 . S
C198 C200 1.382 . S
C198 C202 1.404 . S
H199 C197 0.951 . S
C200 C198 1.382 . S
C200 C201 1.390 . S
C200 H205 0.949 1_554 S
C201 C200 1.390 . S
C201 C206 1.399 . S
C202 C198 1.404 . S
C202 H203 0.950 . S
C202 C204 1.375 . S
H203 C202 0.950 . S
C204 C202 1.375 . S
C204 C206 1.382 . S
C204 H208 0.950 . S
H205 C200 0.949 1_556 S
C206 C201 1.399 . S
C206 C204 1.382 . S
C206 H207 0.952 . S
H207 C206 0.952 . S
H208 C204 0.950 . S
H209 C210 0.949 . S
C210 H209 0.949 . S
C210 C211 1.395 . S
C210 C212 1.391 1_554 S
C211 C210 1.395 . S
C211 C214 1.390 . S
C212 C210 1.391 1_556 S
C212 C216 1.388 . S
C212 C217 1.491 . S
H213 C214 0.950 . S
C214 C211 1.390 . S
C214 H213 0.950 . S
C214 C215 1.378 . S
C215 C214 1.378 . S
C215 C216 1.408 1_554 S
C216 C212 1.388 . S
C216 C215 1.408 1_556 S
C216 H218 0.952 . S
C217 C212 1.491 . S
C217 C219 1.382 1_556 S
C217 C221 1.404 . S
H218 C216 0.952 . S
C219 C217 1.382 1_554 S
C219 C220 1.386 1_554 S
C219 H224 0.949 . S
C220 C219 1.386 1_556 S
C220 C225 1.413 . S
C221 C217 1.404 . S
C221 H222 0.950 . S
C221 C223 1.375 . S
H222 C221 0.950 . S
C223 C221 1.375 . S
C223 C225 1.382 . S
C223 H227 0.950 . S
H224 C219 0.949 . S
C225 C220 1.413 . S
C225 C223 1.382 . S
C225 H226 0.952 . S
H226 C225 0.952 . S
H227 C223 0.950 . S
H228 C229 0.949 . S
C229 H228 0.949 . S
C229 C230 1.395 . S
C229 C231 1.391 . S
C230 C229 1.395 . S
C230 C233 1.390 . S
C231 C229 1.391 . S
C231 C235 1.387 . S
C231 C236 1.491 . S
H232 C233 0.950 . S
C233 C230 1.390 . S
C233 H232 0.950 . S
C233 C234 1.378 . S
C234 C233 1.378 . S
C234 C235 1.409 . S
C235 C231 1.387 . S
C235 C234 1.409 . S
C235 H237 0.951 . S
C236 C231 1.491 . S
C236 C238 1.382 . S
C236 C240 1.404 . S
H237 C235 0.951 . S
C238 C236 1.382 . S
C238 C239 1.390 . S
C238 H243 0.949 . S
C239 C238 1.390 . S
C239 C244 1.399 . S
C240 C236 1.404 . S
C240 H241 0.950 . S
C240 C242 1.375 . S
H241 C240 0.950 . S
C242 C240 1.375 . S
C242 C244 1.382 . S
C242 H246 0.950 . S
H243 C238 0.949 . S
C244 C239 1.399 . S
C244 C242 1.382 . S
C244 H245 0.952 . S
H245 C244 0.952 . S
H246 C242 0.950 . S
H247 C248 0.949 . S
C248 H247 0.949 . S
C248 C249 1.395 . S
C248 C250 1.391 . S
C249 C248 1.395 . S
C249 C252 1.390 . S
C250 C248 1.391 . S
C250 C254 1.387 . S
C250 C255 1.491 . S
H251 C252 0.950 . S
C252 C249 1.390 . S
C252 H251 0.950 . S
C252 C253 1.378 . S
C253 C252 1.378 . S
C253 C254 1.409 . S
C254 C250 1.387 . S
C254 C253 1.409 . S
C254 H256 0.951 . S
C255 C250 1.491 . S
C255 C257 1.382 . S
C255 C259 1.404 . S
H256 C254 0.951 . S
C257 C255 1.382 . S
C257 C258 1.390 . S
C257 H262 0.949 . S
C258 C257 1.390 . S
C258 C263 1.399 . S
C259 C255 1.404 . S
C259 H260 0.950 . S
C259 C261 1.375 . S
H260 C259 0.950 . S
C261 C259 1.375 . S
C261 C263 1.382 . S
C261 H265 0.950 . S
H262 C257 0.949 . S
C263 C258 1.399 . S
C263 C261 1.382 . S
C263 H264 0.952 . S
H264 C263 0.952 . S
H265 C261 0.950 . S
H266 C267 0.949 . S
C267 H266 0.949 . S
C267 C268 1.395 . S
C267 C269 1.391 . S
C268 C267 1.395 . S
C268 C271 1.390 . S
C269 C267 1.391 . S
C269 C273 1.387 . S
C269 C274 1.491 . S
H270 C271 0.950 . S
C271 C268 1.390 . S
C271 H270 0.950 . S
C271 C272 1.378 . S
C272 C271 1.378 . S
C272 C273 1.409 . S
C273 C269 1.387 . S
C273 C272 1.409 . S
C273 H275 0.951 . S
C274 C269 1.491 . S
C274 C276 1.382 . S
C274 C278 1.404 . S
H275 C273 0.951 . S
C276 C274 1.382 . S
C276 C277 1.390 . S
C276 H281 0.949 . S
C277 C276 1.390 . S
C277 C282 1.399 . S
C278 C274 1.404 . S
C278 H279 0.950 . S
C278 C280 1.375 . S
H279 C278 0.950 . S
C280 C278 1.375 . S
C280 C282 1.382 . S
C280 H284 0.950 . S
H281 C276 0.949 . S
C282 C277 1.399 . S
C282 C280 1.382 . S
C282 H283 0.952 . S
H283 C282 0.952 . S
H284 C280 0.950 . S
H285 C286 0.949 . S
C286 H285 0.949 . S
C286 C287 1.395 . S
C286 C288 1.391 . S
C287 C286 1.395 . S
C287 C290 1.390 . S
C288 C286 1.391 . S
C288 C292 1.387 . S
C288 C293 1.491 . S
H289 C290 0.950 . S
C290 C287 1.390 . S
C290 H289 0.950 . S
C290 C291 1.378 . S
C291 C290 1.378 . S
C291 C292 1.409 . S
C292 C288 1.387 . S
C292 C291 1.409 . S
C292 H294 0.951 . S
C293 C288 1.491 . S
C293 C295 1.382 . S
C293 C297 1.404 . S
H294 C292 0.951 . S
C295 C293 1.382 . S
C295 C296 1.390 . S
C295 H300 0.949 . S
C296 C295 1.390 . S
C296 C301 1.399 . S
C297 C293 1.404 . S
C297 H298 0.950 . S
C297 C299 1.375 . S
H298 C297 0.950 . S
C299 C297 1.375 . S
C299 C301 1.382 . S
C299 H303 0.950 . S
H300 C295 0.949 . S
C301 C296 1.399 . S
C301 C299 1.382 . S
C301 H302 0.952 . S
H302 C301 0.952 . S
H303 C299 0.950 . S
H304 C305 0.949 . S
C305 H304 0.949 . S
C305 C306 1.395 . S
C305 C307 1.391 . S
C306 C305 1.395 . S
C306 C309 1.390 . S
C307 C305 1.391 . S
C307 C311 1.387 . S
C307 C312 1.491 . S
H308 C309 0.950 . S
C309 C306 1.390 . S
C309 H308 0.950 . S
C309 C310 1.378 . S
C310 C309 1.378 . S
C310 C311 1.409 . S
C311 C307 1.387 . S
C311 C310 1.409 . S
C311 H313 0.951 . S
C312 C307 1.491 . S
C312 C314 1.382 . S
C312 C316 1.404 . S
H313 C311 0.951 . S
C314 C312 1.382 . S
C314 C315 1.390 . S
C314 H319 0.949 . S
C315 C314 1.390 . S
C315 C320 1.399 . S
C316 C312 1.404 . S
C316 H317 0.950 . S
C316 C318 1.375 . S
H317 C316 0.950 . S
C318 C316 1.375 . S
C318 C320 1.382 . S
C318 H322 0.950 . S
H319 C314 0.949 . S
C320 C315 1.399 . S
C320 C318 1.382 . S
C320 H321 0.952 . S
H321 C320 0.952 . S
H322 C318 0.950 . S
H323 C324 0.949 . S
C324 H323 0.949 . S
C324 C325 1.395 . S
C324 C326 1.391 . S
C325 C324 1.395 . S
C325 C328 1.390 . S
C326 C324 1.391 . S
C326 C330 1.387 . S
C326 C331 1.491 . S
H327 C328 0.950 . S
C328 C325 1.390 . S
C328 H327 0.950 . S
C328 C329 1.378 . S
C329 C328 1.378 . S
C329 C330 1.409 . S
C330 C326 1.387 . S
C330 C329 1.409 . S
C330 H332 0.951 . S
C331 C326 1.491 . S
C331 C333 1.382 . S
C331 C335 1.404 . S
H332 C330 0.951 . S
C333 C331 1.382 . S
C333 C334 1.390 . S
C333 H338 0.949 . S
C334 C333 1.390 . S
C334 C339 1.399 . S
C335 C331 1.404 . S
C335 H336 0.950 . S
C335 C337 1.375 . S
H336 C335 0.950 . S
C337 C335 1.375 . S
C337 C339 1.382 . S
C337 H341 0.950 . S
H338 C333 0.949 . S
C339 C334 1.399 . S
C339 C337 1.382 . S
C339 H340 0.952 . S
H340 C339 0.952 . S
H341 C337 0.950 . S
H342 C343 0.949 . S
C343 H342 0.949 . S
C343 C344 1.395 . S
C343 C345 1.391 . S
C344 C343 1.395 . S
C344 C347 1.390 . S
C345 C343 1.391 . S
C345 C349 1.387 . S
C345 C350 1.491 . S
H346 C347 0.950 . S
C347 C344 1.390 . S
C347 H346 0.950 . S
C347 C348 1.378 . S
C348 C347 1.378 . S
C348 C349 1.409 . S
C349 C345 1.387 . S
C349 C348 1.409 . S
C349 H351 0.951 . S
C350 C345 1.491 . S
C350 C352 1.382 . S
C350 C354 1.404 . S
H351 C349 0.951 . S
C352 C350 1.382 . S
C352 C353 1.390 . S
C352 H357 0.949 . S
C353 C352 1.390 . S
C353 C358 1.399 . S
C354 C350 1.404 . S
C354 H355 0.950 . S
C354 C356 1.375 . S
H355 C354 0.950 . S
C356 C354 1.375 . S
C356 C358 1.382 . S
C356 H360 0.950 . S
H357 C352 0.949 . S
C358 C353 1.399 . S
C358 C356 1.382 . S
C358 H359 0.952 . S
H359 C358 0.952 . S
H360 C356 0.950 . S
H361 C362 0.949 . S
C362 H361 0.949 . S
C362 C363 1.395 . S
C362 C364 1.391 . S
C363 C362 1.395 . S
C363 C366 1.390 . S
C364 C362 1.391 . S
C364 C368 1.387 . S
C364 C369 1.491 . S
H365 C366 0.950 . S
C366 C363 1.390 . S
C366 H365 0.950 . S
C366 C367 1.378 . S
C367 C366 1.378 . S
C367 C368 1.409 . S
C368 C364 1.387 . S
C368 C367 1.409 . S
C368 H370 0.951 . S
C369 C364 1.491 . S
C369 C371 1.382 . S
C369 C373 1.404 . S
H370 C368 0.951 . S
C371 C369 1.382 . S
C371 C372 1.390 . S
C371 H376 0.949 . S
C372 C371 1.390 . S
C372 C377 1.399 . S
C373 C369 1.404 . S
C373 H374 0.950 . S
C373 C375 1.375 . S
H374 C373 0.950 . S
C375 C373 1.375 . S
C375 C377 1.382 . S
C375 H379 0.950 . S
H376 C371 0.949 . S
C377 C372 1.399 . S
C377 C375 1.382 . S
C377 H378 0.952 . S
H378 C377 0.952 . S
H379 C375 0.950 . S
H380 C381 0.949 . S
C381 H380 0.949 . S
C381 C382 1.395 . S
C381 C383 1.391 . S
C382 C381 1.395 . S
C382 C385 1.390 . S
C383 C381 1.391 . S
C383 C387 1.387 . S
C383 C388 1.491 . S
H384 C385 0.950 . S
C385 C382 1.390 . S
C385 H384 0.950 . S
C385 C386 1.378 . S
C386 C385 1.378 . S
C386 C387 1.409 . S
C387 C383 1.387 . S
C387 C386 1.409 . S
C387 H389 0.951 . S
C388 C383 1.491 . S
C388 C390 1.382 . S
C388 C392 1.404 . S
H389 C387 0.951 . S
C390 C388 1.382 . S
C390 C391 1.390 . S
C390 H395 0.949 . S
C391 C390 1.390 . S
C391 C396 1.399 . S
C392 C388 1.404 . S
C392 H393 0.950 . S
C392 C394 1.375 . S
H393 C392 0.950 . S
C394 C392 1.375 . S
C394 C396 1.382 . S
C394 H398 0.950 . S
H395 C390 0.949 . S
C396 C391 1.399 . S
C396 C394 1.382 . S
C396 H397 0.952 . S
H397 C396 0.952 . S
H398 C394 0.950 . S
H399 C400 0.949 . S
C400 H399 0.949 . S
C400 C401 1.395 . S
C400 C402 1.391 . S
C401 C400 1.395 . S
C401 C404 1.390 . S
C402 C400 1.391 . S
C402 C406 1.387 . S
C402 C407 1.491 . S
H403 C404 0.950 . S
C404 C401 1.390 . S
C404 H403 0.950 . S
C404 C405 1.378 . S
C405 C404 1.378 . S
C405 C406 1.409 . S
C406 C402 1.387 . S
C406 C405 1.409 . S
C406 H408 0.951 . S
C407 C402 1.491 . S
C407 C409 1.382 . S
C407 C411 1.404 . S
H408 C406 0.951 . S
C409 C407 1.382 . S
C409 C410 1.390 . S
C409 H414 0.949 . S
C410 C409 1.390 . S
C410 C415 1.399 . S
C411 C407 1.404 . S
C411 H412 0.950 . S
C411 C413 1.375 . S
H412 C411 0.950 . S
C413 C411 1.375 . S
C413 C415 1.382 . S
C413 H417 0.950 . S
H414 C409 0.949 . S
C415 C410 1.399 . S
C415 C413 1.382 . S
C415 H416 0.952 . S
H416 C415 0.952 . S
H417 C413 0.950 . S
H418 C419 0.949 . S
C419 H418 0.949 . S
C419 C420 1.395 . S
C419 C421 1.391 . S
C420 C419 1.395 . S
C420 C423 1.390 . S
C421 C419 1.391 . S
C421 C425 1.387 . S
C421 C426 1.491 . S
H422 C423 0.950 . S
C423 C420 1.390 . S
C423 H422 0.950 . S
C423 C424 1.378 . S
C424 C423 1.378 . S
C424 C425 1.409 . S
C425 C421 1.387 . S
C425 C424 1.409 . S
C425 H427 0.951 . S
C426 C421 1.491 . S
C426 C428 1.382 . S
C426 C430 1.404 . S
H427 C425 0.951 . S
C428 C426 1.382 . S
C428 C429 1.390 . S
C428 H433 0.949 . S
C429 C428 1.390 . S
C429 C434 1.399 . S
C430 C426 1.404 . S
C430 H431 0.950 . S
C430 C432 1.375 . S
H431 C430 0.950 . S
C432 C430 1.375 . S
C432 C434 1.382 . S
C432 H436 0.950 . S
H433 C428 0.949 . S
C434 C429 1.399 . S
C434 C432 1.382 . S
C434 H435 0.952 . S
H435 C434 0.952 . S
H436 C432 0.950 . S
H437 C438 0.949 . S
C438 H437 0.949 . S
C438 C439 1.395 . S
C438 C440 1.391 . S
C439 C438 1.395 . S
C439 C442 1.390 . S
C440 C438 1.391 . S
C440 C444 1.387 . S
C440 C445 1.491 . S
H441 C442 0.950 . S
C442 C439 1.390 . S
C442 H441 0.950 . S
C442 C443 1.378 . S
C443 C442 1.378 . S
C443 C444 1.409 . S
C444 C440 1.387 . S
C444 C443 1.409 . S
C444 H446 0.951 . S
C445 C440 1.491 . S
C445 C447 1.382 . S
C445 C449 1.404 . S
H446 C444 0.951 . S
C447 C445 1.382 . S
C447 C448 1.390 . S
C447 H452 0.949 . S
C448 C447 1.390 . S
C448 C453 1.399 . S
C449 C445 1.404 . S
C449 H450 0.950 . S
C449 C451 1.375 . S
H450 C449 0.950 . S
C451 C449 1.375 . S
C451 C453 1.382 . S
C451 H455 0.950 . S
H452 C447 0.949 . S
C453 C448 1.399 . S
C453 C451 1.382 . S
C453 H454 0.952 . S
H454 C453 0.952 . S
H455 C451 0.950 . S
Zn456 O458 1.933 1_565 S
Zn456 O476 1.985 . S
Zn456 O487 1.955 . S
Zn457 O458 1.911 . S
Zn457 O477 1.970 . S
Zn457 O493 1.945 . S
Zn457 O500 1.981 . S
O458 Zn456 1.933 1_545 S
O458 Zn457 1.911 . S
O458 H459 0.841 1_655 S
H459 O458 0.841 1_455 S
C460 O461 1.246 . S
C460 O489 1.276 . S
O461 C460 1.246 . S
Zn462 O464 1.911 . S
Zn462 O479 1.970 . S
Zn462 O496 1.945 . S
Zn462 O503 1.981 . S
Zn463 O464 1.933 1_565 S
Zn463 O478 1.985 . S
Zn463 O485 1.955 . S
O464 Zn462 1.911 . S
O464 Zn463 1.933 1_545 S
O464 H465 0.841 . S
H465 O464 0.841 . S
Zn466 O467 1.933 1_565 S
Zn466 O480 1.985 . S
Zn466 O489 1.955 . S
O467 Zn466 1.933 1_545 S
O467 Zn468 1.911 . S
O467 H469 0.841 . S
Zn468 O467 1.911 . S
Zn468 O481 1.970 . S
Zn468 O497 1.967 1_655 S
Zn468 O499 1.945 . S
H469 O467 0.841 . S
Zn470 O471 1.933 1_565 S
Zn470 O483 1.985 . S
Zn470 O491 1.955 . S
O471 Zn470 1.933 1_545 S
O471 H472 0.841 . S
O471 Zn473 1.911 . S
H472 O471 0.841 . S
Zn473 O471 1.911 . S
Zn473 O484 1.970 . S
Zn473 O494 1.981 . S
Zn473 O502 1.945 . S
C474 O475 1.246 . S
C474 O491 1.276 . S
O475 C474 1.246 . S
O476 Zn456 1.985 . S
O476 C486 1.245 1_565 S
O477 Zn457 1.970 . S
O477 C486 1.263 . S
O478 Zn463 1.985 . S
O478 C490 1.245 1_565 S
O479 Zn462 1.970 . S
O479 C490 1.263 . S
O480 Zn466 1.985 . S
O480 C495 1.245 1_565 S
O481 Zn468 1.970 . S
O481 C495 1.263 . S
C482 O493 1.262 1_455 S
C482 O494 1.245 . S
O483 Zn470 1.985 . S
O483 C501 1.245 1_565 S
O484 Zn473 1.970 . S
O484 C501 1.263 . S
O485 Zn463 1.955 . S
O485 C504 1.276 . S
C486 O476 1.245 1_545 S
C486 O477 1.263 . S
O487 Zn456 1.955 . S
O487 C506 1.276 1_655 S
C488 O496 1.262 . S
C488 O497 1.255 . S
O489 C460 1.276 . S
O489 Zn466 1.955 . S
C490 O478 1.245 1_545 S
C490 O479 1.263 . S
O491 Zn470 1.955 . S
O491 C474 1.276 . S
C492 O499 1.262 . S
C492 O500 1.245 . S
O493 Zn457 1.945 . S
O493 C482 1.262 1_655 S
O494 Zn473 1.981 . S
O494 C482 1.245 . S
C495 O480 1.245 1_545 S
C495 O481 1.263 . S
O496 Zn462 1.945 . S
O496 C488 1.262 . S
O497 Zn468 1.967 1_455 S
O497 C488 1.255 . S
C498 O502 1.262 . S
C498 O503 1.245 . S
O499 Zn468 1.945 . S
O499 C492 1.262 . S
O500 Zn457 1.981 . S
O500 C492 1.245 . S
C501 O483 1.245 1_545 S
C501 O484 1.263 . S
O502 Zn473 1.945 . S
O502 C498 1.262 . S
O503 Zn462 1.981 . S
O503 C498 1.245 . S
C504 O485 1.276 . S
C504 O505 1.246 1_455 S
O505 C504 1.246 1_655 S
C506 O487 1.276 1_455 S
C506 O507 1.246 . S
O507 C506 1.246 . S
Zn508 O510 1.933 . S
Zn508 O528 1.985 . S
Zn508 O539 1.955 . S
Zn509 O510 1.911 1_556 S
Zn509 O529 1.970 . S
Zn509 O545 1.945 . S
Zn509 O552 1.981 . S
O510 Zn508 1.933 . S
O510 Zn509 1.911 1_554 S
O510 H511 0.841 . S
H511 O510 0.841 . S
C512 O513 1.246 . S
C512 O541 1.276 . S
O513 C512 1.246 . S
Zn514 O516 1.911 1_556 S
Zn514 O531 1.970 . S
Zn514 O548 1.945 . S
Zn514 O555 1.981 . S
Zn515 O516 1.933 . S
Zn515 O530 1.985 . S
Zn515 O537 1.955 . S
O516 Zn514 1.911 1_554 S
O516 Zn515 1.933 . S
O516 H517 0.841 1_565 S
H517 O516 0.841 1_545 S
Zn518 O519 1.933 . S
Zn518 O532 1.985 . S
Zn518 O541 1.955 . S
O519 Zn518 1.933 . S
O519 Zn520 1.911 1_554 S
O519 H521 0.841 . S
Zn520 O519 1.911 1_556 S
Zn520 O533 1.970 . S
Zn520 O549 1.981 . S
Zn520 O551 1.945 . S
H521 O519 0.841 . S
Zn522 O523 1.933 . S
Zn522 O535 1.985 . S
Zn522 O543 1.955 . S
O523 Zn522 1.933 . S
O523 H524 0.841 . S
O523 Zn525 1.911 1_554 S
H524 O523 0.841 . S
Zn525 O523 1.911 1_556 S
Zn525 O536 1.970 . S
Zn525 O546 1.981 . S
Zn525 O554 1.945 . S
C526 O527 1.246 . S
C526 O543 1.276 . S
O527 C526 1.246 . S
O528 Zn508 1.985 . S
O528 C538 1.245 . S
O529 Zn509 1.970 . S
O529 C538 1.263 1_556 S
O530 Zn515 1.985 . S
O530 C542 1.245 . S
O531 Zn514 1.970 . S
O531 C542 1.263 1_556 S
O532 Zn518 1.985 . S
O532 C547 1.245 . S
O533 Zn520 1.970 . S
O533 C547 1.263 1_556 S
C534 O545 1.262 . S
C534 O546 1.245 1_545 S
O535 Zn522 1.985 . S
O535 C553 1.245 . S
O536 Zn525 1.970 . S
O536 C553 1.263 1_556 S
O537 Zn515 1.955 . S
O537 C556 1.276 1_565 S
C538 O528 1.245 . S
C538 O529 1.263 1_554 S
O539 Zn508 1.955 . S
O539 C558 1.276 . S
C540 O548 1.262 1_545 S
C540 O549 1.245 . S
O541 C512 1.276 . S
O541 Zn518 1.955 . S
C542 O530 1.245 . S
C542 O531 1.263 1_554 S
O543 Zn522 1.955 . S
O543 C526 1.276 . S
C544 O551 1.262 . S
C544 O552 1.245 . S
O545 Zn509 1.945 . S
O545 C534 1.262 . S
O546 Zn525 1.981 . S
O546 C534 1.245 1_565 S
C547 O532 1.245 . S
C547 O533 1.263 1_554 S
O548 Zn514 1.945 . S
O548 C540 1.262 1_565 S
O549 Zn520 1.981 . S
O549 C540 1.245 . S
C550 O554 1.262 . S
C550 O555 1.245 . S
O551 Zn520 1.945 . S
O551 C544 1.262 . S
O552 Zn509 1.981 . S
O552 C544 1.245 . S
C553 O535 1.245 . S
C553 O536 1.263 1_554 S
O554 Zn525 1.945 . S
O554 C550 1.262 . S
O555 Zn514 1.981 . S
O555 C550 1.245 . S
C556 O537 1.276 1_545 S
C556 O557 1.246 . S
O557 C556 1.246 . S
C558 O539 1.276 . S
C558 O559 1.246 1_545 S
O559 C558 1.246 1_565 S
Zn560 O562 1.933 . S
Zn560 O580 1.985 . S
Zn560 O591 1.955 . S
Zn561 O562 1.911 . S
Zn561 O581 1.970 . S
Zn561 O597 1.945 . S
Zn561 O604 1.981 . S
O562 Zn560 1.933 . S
O562 Zn561 1.911 . S
O562 H563 0.841 1_655 S
H563 O562 0.841 1_455 S
C564 O565 1.246 1_554 S
C564 O593 1.276 . S
O565 C564 1.246 1_556 S
Zn566 O568 1.911 . S
Zn566 O583 1.970 . S
Zn566 O600 1.945 . S
Zn566 O607 1.981 . S
Zn567 O568 1.933 . S
Zn567 O582 1.985 . S
Zn567 O589 1.955 . S
O568 Zn566 1.911 . S
O568 Zn567 1.933 . S
O568 H569 0.841 . S
H569 O568 0.841 . S
Zn570 O571 1.933 . S
Zn570 O584 1.985 . S
Zn570 O593 1.955 . S
O571 Zn570 1.933 . S
O571 Zn572 1.911 . S
O571 H573 0.841 . S
Zn572 O571 1.911 . S
Zn572 O585 1.970 . S
Zn572 O601 1.981 . S
Zn572 O603 1.945 . S
H573 O571 0.841 . S
Zn574 O575 1.933 . S
Zn574 O587 1.985 . S
Zn574 O595 1.955 . S
O575 Zn574 1.933 . S
O575 H576 0.841 . S
O575 Zn577 1.911 . S
H576 O575 0.841 . S
Zn577 O575 1.911 . S
Zn577 O588 1.970 . S
Zn577 O598 1.981 . S
Zn577 O606 1.945 . S
C578 O579 1.246 . S
C578 O595 1.276 1_554 S
O579 C578 1.246 . S
O580 Zn560 1.985 . S
O580 C590 1.245 . S
O581 Zn561 1.970 . S
O581 C590 1.263 . S
O582 Zn567 1.985 . S
O582 C594 1.245 . S
O583 Zn566 1.970 . S
O583 C594 1.263 . S
O584 Zn570 1.985 . S
O584 C599 1.245 . S
O585 Zn572 1.970 . S
O585 C599 1.263 . S
C586 O597 1.262 1_455 S
C586 O598 1.245 . S
O587 Zn574 1.985 . S
O587 C605 1.245 . S
O588 Zn577 1.970 . S
O588 C605 1.263 . S
O589 Zn567 1.955 . S
O589 C608 1.276 . S
C590 O580 1.245 . S
C590 O581 1.263 . S
O591 Zn560 1.955 . S
O591 C610 1.276 1_655 S
C592 O600 1.262 . S
C592 O601 1.245 1_455 S
O593 C564 1.276 . S
O593 Zn570 1.955 . S
C594 O582 1.245 . S
C594 O583 1.263 . S
O595 Zn574 1.955 . S
O595 C578 1.276 1_556 S
C596 O603 1.262 . S
C596 O604 1.245 1_554 S
O597 Zn561 1.945 . S
O597 C586 1.262 1_655 S
O598 Zn577 1.981 . S
O598 C586 1.245 . S
C599 O584 1.245 . S
C599 O585 1.263 . S
O600 Zn566 1.945 . S
O600 C592 1.262 . S
O601 Zn572 1.981 . S
O601 C592 1.245 1_655 S
C602 O606 1.262 1_554 S
C602 O607 1.245 . S
O603 Zn572 1.945 . S
O603 C596 1.262 . S
O604 Zn561 1.981 . S
O604 C596 1.245 1_556 S
C605 O587 1.245 . S
C605 O588 1.263 . S
O606 Zn577 1.945 . S
O606 C602 1.262 1_556 S
O607 Zn566 1.981 . S
O607 C602 1.245 . S
C608 O589 1.276 . S
C608 O609 1.246 1_455 S
O609 C608 1.246 1_655 S
C610 O591 1.276 1_455 S
C610 O611 1.246 . S
O611 C610 1.246 . S
Zn612 O614 1.933 1_556 S
Zn612 O632 1.985 . S
Zn612 O643 1.955 . S
Zn613 O614 1.911 . S
Zn613 O633 1.970 . S
Zn613 O649 1.945 . S
Zn613 O656 1.981 . S
O614 Zn612 1.933 1_554 S
O614 Zn613 1.911 . S
O614 H615 0.841 . S
H615 O614 0.841 . S
C616 O617 1.246 . S
C616 O645 1.276 . S
O617 C616 1.246 . S
Zn618 O620 1.911 . S
Zn618 O635 1.970 . S
Zn618 O652 1.945 . S
Zn618 O659 1.981 . S
Zn619 O620 1.933 1_556 S
Zn619 O634 1.985 . S
Zn619 O641 1.955 . S
O620 Zn618 1.911 . S
O620 Zn619 1.933 1_554 S
O620 H621 0.841 . S
H621 O620 0.841 . S
Zn622 O623 1.933 1_556 S
Zn622 O636 1.985 . S
Zn622 O645 1.955 . S
O623 Zn622 1.933 1_554 S
O623 Zn624 1.911 . S
O623 H625 0.841 . S
Zn624 O623 1.911 . S
Zn624 O637 1.970 . S
Zn624 O653 1.981 . S
Zn624 O655 1.945 . S
H625 O623 0.841 . S
Zn626 O627 1.933 1_556 S
Zn626 O639 1.985 . S
Zn626 O647 1.955 . S
O627 Zn626 1.933 1_554 S
O627 H628 0.841 . S
O627 Zn629 1.911 . S
H628 O627 0.841 . S
Zn629 O627 1.911 . S
Zn629 O640 1.970 . S
Zn629 O650 1.981 . S
Zn629 O658 1.945 . S
C630 O631 1.246 . S
C630 O647 1.276 . S
O631 C630 1.246 . S
O632 Zn612 1.985 . S
O632 C642 1.245 1_556 S
O633 Zn613 1.970 . S
O633 C642 1.263 . S
O634 Zn619 1.985 . S
O634 C646 1.245 1_556 S
O635 Zn618 1.970 . S
O635 C646 1.263 . S
O636 Zn622 1.985 . S
O636 C651 1.245 1_556 S
O637 Zn624 1.970 . S
O637 C651 1.263 . S
C638 O649 1.262 . S
C638 O650 1.245 . S
O639 Zn626 1.985 . S
O639 C657 1.245 1_556 S
O640 Zn629 1.970 . S
O640 C657 1.263 . S
O641 Zn619 1.955 . S
O641 C660 1.276 . S
C642 O632 1.245 1_554 S
C642 O633 1.263 . S
O643 Zn612 1.955 . S
O643 C662 1.276 . S
C644 O652 1.262 . S
C644 O653 1.245 . S
O645 C616 1.276 . S
O645 Zn622 1.955 . S
C646 O634 1.245 1_554 S
C646 O635 1.263 . S
O647 Zn626 1.955 . S
O647 C630 1.276 . S
C648 O655 1.262 . S
C648 O656 1.245 . S
O649 Zn613 1.945 . S
O649 C638 1.262 . S
O650 Zn629 1.981 . S
O650 C638 1.245 . S
C651 O636 1.245 1_554 S
C651 O637 1.263 . S
O652 Zn618 1.945 . S
O652 C644 1.262 . S
O653 Zn624 1.981 . S
O653 C644 1.245 . S
C654 O658 1.262 . S
C654 O659 1.245 . S
O655 Zn624 1.945 . S
O655 C648 1.262 . S
O656 Zn613 1.981 . S
O656 C648 1.245 . S
C657 O639 1.245 1_554 S
C657 O640 1.263 . S
O658 Zn629 1.945 . S
O658 C654 1.262 . S
O659 Zn618 1.981 . S
O659 C654 1.245 . S
C660 O641 1.276 . S
C660 O661 1.246 . S
O661 C660 1.246 . S
C662 O643 1.276 . S
C662 O663 1.246 . S
O663 C662 1.246 . S
Zn664 O666 1.933 . S
Zn664 O684 1.985 . S
Zn664 O695 1.955 . S
Zn665 O666 1.911 . S
Zn665 O685 1.970 . S
Zn665 O701 1.945 . S
Zn665 O708 1.981 . S
O666 Zn664 1.933 . S
O666 Zn665 1.911 . S
O666 H667 0.841 1_655 S
H667 O666 0.841 1_455 S
C668 O669 1.246 . S
C668 O697 1.276 . S
O669 C668 1.246 . S
Zn670 O672 1.911 . S
Zn670 O687 1.970 . S
Zn670 O704 1.945 . S
Zn670 O711 1.981 . S
Zn671 O672 1.933 . S
Zn671 O686 1.985 . S
Zn671 O693 1.955 . S
O672 Zn670 1.911 . S
O672 Zn671 1.933 . S
O672 H673 0.841 . S
H673 O672 0.841 . S
Zn674 O675 1.933 . S
Zn674 O688 1.985 . S
Zn674 O697 1.955 . S
O675 Zn674 1.933 . S
O675 Zn676 1.911 . S
O675 H677 0.841 . S
Zn676 O675 1.911 . S
Zn676 O689 1.970 . S
Zn676 O705 1.981 . S
Zn676 O707 1.945 . S
H677 O675 0.841 . S
Zn678 O679 1.933 . S
Zn678 O691 1.985 . S
Zn678 O699 1.955 . S
O679 Zn678 1.933 . S
O679 H680 0.841 . S
O679 Zn681 1.911 . S
H680 O679 0.841 . S
Zn681 O679 1.911 . S
Zn681 O692 1.970 . S
Zn681 O702 1.981 . S
Zn681 O710 1.945 . S
C682 O683 1.246 . S
C682 O699 1.276 . S
O683 C682 1.246 . S
O684 Zn664 1.985 . S
O684 C694 1.245 . S
O685 Zn665 1.970 . S
O685 C694 1.263 . S
O686 Zn671 1.985 . S
O686 C698 1.245 . S
O687 Zn670 1.970 . S
O687 C698 1.263 . S
O688 Zn674 1.985 . S
O688 C703 1.245 . S
O689 Zn676 1.970 . S
O689 C703 1.263 . S
C690 O701 1.262 1_455 S
C690 O702 1.245 . S
O691 Zn678 1.985 . S
O691 C709 1.245 . S
O692 Zn681 1.970 . S
O692 C709 1.263 . S
O693 Zn671 1.955 . S
O693 C712 1.276 . S
C694 O684 1.245 . S
C694 O685 1.263 . S
O695 Zn664 1.955 . S
O695 C714 1.276 1_655 S
C696 O704 1.262 . S
C696 O705 1.245 1_455 S
O697 C668 1.276 . S
O697 Zn674 1.955 . S
C698 O686 1.245 . S
C698 O687 1.263 . S
O699 Zn678 1.955 . S
O699 C682 1.276 . S
C700 O707 1.262 . S
C700 O708 1.245 . S
O701 Zn665 1.945 . S
O701 C690 1.262 1_655 S
O702 Zn681 1.981 . S
O702 C690 1.245 . S
C703 O688 1.245 . S
C703 O689 1.263 . S
O704 Zn670 1.945 . S
O704 C696 1.262 . S
O705 Zn676 1.981 . S
O705 C696 1.245 1_655 S
C706 O710 1.262 . S
C706 O711 1.245 . S
O707 Zn676 1.945 . S
O707 C700 1.262 . S
O708 Zn665 1.981 . S
O708 C700 1.245 . S
C709 O691 1.245 . S
C709 O692 1.263 . S
O710 Zn681 1.945 . S
O710 C706 1.262 . S
O711 Zn670 1.981 . S
O711 C706 1.245 . S
C712 O693 1.276 . S
C712 O713 1.246 1_455 S
O713 C712 1.246 1_655 S
C714 O695 1.276 1_455 S
C714 O715 1.246 . S
O715 C714 1.246 . S
Zn716 O718 1.933 1_565 S
Zn716 O736 1.985 . S
Zn716 O747 1.955 . S
Zn717 O718 1.911 . S
Zn717 O737 1.970 . S
Zn717 O753 1.945 . S
Zn717 O760 1.981 . S
O718 Zn716 1.933 1_545 S
O718 Zn717 1.911 . S
O718 H719 0.841 . S
H719 O718 0.841 . S
C720 O721 1.246 . S
C720 O749 1.276 . S
O721 C720 1.246 . S
Zn722 O724 1.911 . S
Zn722 O739 1.970 . S
Zn722 O756 1.945 . S
Zn722 O763 1.981 . S
Zn723 O724 1.933 1_565 S
Zn723 O738 1.985 . S
Zn723 O745 1.955 . S
O724 Zn722 1.911 . S
O724 Zn723 1.933 1_545 S
O724 H725 0.841 . S
H725 O724 0.841 . S
Zn726 O727 1.933 1_565 S
Zn726 O740 1.985 . S
Zn726 O749 1.955 . S
O727 Zn726 1.933 1_545 S
O727 Zn728 1.911 . S
O727 H729 0.841 . S
Zn728 O727 1.911 . S
Zn728 O741 1.970 . S
Zn728 O757 1.981 . S
Zn728 O759 1.945 . S
H729 O727 0.841 . S
Zn730 O731 1.933 1_565 S
Zn730 O743 1.985 . S
Zn730 O751 1.955 . S
O731 Zn730 1.933 1_545 S
O731 H732 0.841 . S
O731 Zn733 1.911 . S
H732 O731 0.841 . S
Zn733 O731 1.911 . S
Zn733 O744 1.970 . S
Zn733 O754 1.981 . S
Zn733 O762 1.945 . S
C734 O735 1.246 . S
C734 O751 1.276 . S
O735 C734 1.246 . S
O736 Zn716 1.985 . S
O736 C746 1.245 1_565 S
O737 Zn717 1.970 . S
O737 C746 1.263 . S
O738 Zn723 1.985 . S
O738 C750 1.245 1_565 S
O739 Zn722 1.970 . S
O739 C750 1.263 . S
O740 Zn726 1.985 . S
O740 C755 1.245 1_565 S
O741 Zn728 1.970 . S
O741 C755 1.263 . S
C742 O753 1.262 . S
C742 O754 1.245 . S
O743 Zn730 1.985 . S
O743 C761 1.245 1_565 S
O744 Zn733 1.970 . S
O744 C761 1.263 . S
O745 Zn723 1.955 . S
O745 C764 1.276 . S
C746 O736 1.245 1_545 S
C746 O737 1.263 . S
O747 Zn716 1.955 . S
O747 C766 1.276 . S
C748 O756 1.262 . S
C748 O757 1.245 . S
O749 C720 1.276 . S
O749 Zn726 1.955 . S
C750 O738 1.245 1_545 S
C750 O739 1.263 . S
O751 Zn730 1.955 . S
O751 C734 1.276 . S
C752 O759 1.262 . S
C752 O760 1.245 . S
O753 Zn717 1.945 . S
O753 C742 1.262 . S
O754 Zn733 1.981 . S
O754 C742 1.245 . S
C755 O740 1.245 1_545 S
C755 O741 1.263 . S
O756 Zn722 1.945 . S
O756 C748 1.262 . S
O757 Zn728 1.981 . S
O757 C748 1.245 . S
C758 O762 1.262 . S
C758 O763 1.245 . S
O759 Zn728 1.945 . S
O759 C752 1.262 . S
O760 Zn717 1.981 . S
O760 C752 1.245 . S
C761 O743 1.245 1_545 S
C761 O744 1.263 . S
O762 Zn733 1.945 . S
O762 C758 1.262 . S
O763 Zn722 1.981 . S
O763 C758 1.245 . S
C764 O745 1.276 . S
C764 O765 1.246 . S
O765 C764 1.246 . S
C766 O747 1.276 . S
C766 O767 1.246 . S
O767 C766 1.246 . S
C498 C439 2.110 . S
C401 C492 2.429 . S
C460 C382 2.549 . S
C420 C474 2.448 . S
C512 C306 2.862 . S
C599 C325 2.033 . S
C344 C526 2.693 . S
C594 C363 2.027 . S
C230 C550 2.904 . S
C605 C249 1.974 . S
C268 C544 2.878 . S
C287 C590 1.806 . S
C646 C211 1.999 . S
C173 C657 2.262 . S
C154 C642 1.925 . S
C651 C192 2.257 . S
C78 C696 2.462 . S
C97 C755 1.735 . S
C116 C712 2.405 . S
C135 C750 1.767 . S
C714 C2 2.537 . S
C761 C21 1.415 . S
C40 C690 2.404 . S
C746 C59 2.190 . S
C482 C6 1.651 . S
C30 C486 1.855 . S
C49 C506 2.090 . S
C68 C501 1.725 1_565 S
C82 C504 1.687 . S
C490 C106 1.830 . S
C125 C488 1.985 . S
C495 C139 1.372 . S
C558 C63 1.447 . S
C11 C608 2.004 . S
C556 C25 1.118 . S
C592 C44 1.898 . S
C101 C534 1.306 . S
C610 C120 1.647 . S
C540 C144 2.194 . S
C586 C87 2.194 1_455 S
C578 C163 2.102 . S
C182 C602 2.073 . S
C538 C158 1.206 . S
C564 C196 1.394 . S
C220 C542 2.055 1_556 S
C215 C596 1.498 . S
C553 C177 1.429 . S
C547 C201 2.184 . S
C630 C234 1.937 . S
C662 C258 2.211 . S
C277 C616 2.363 . S
C660 C296 1.991 . S
C648 C310 1.888 . S
C334 C644 2.310 . S
C353 C654 2.271 . S
C638 C367 1.491 . S
C703 C291 1.386 . S
C239 C764 2.173 . S
C698 C253 0.965 . S
C748 C272 1.667 . S
C694 C329 1.018 . S
C348 C766 1.434 . S
C709 C372 2.225 . S
C742 C315 2.333 . S
C734 C391 2.038 . S
C410 C758 1.979 . S
C700 C386 1.758 . S
C424 C720 2.233 . S
C682 C448 1.925 . S
C752 C443 1.878 . S
C668 C405 1.729 . S
C429 C706 2.013 . S
