# Generated by pormake.
# Topology nom, (4,4)-cn, num edge types: 1
# Building blocks:
#     Node 0, Type 0, BuildingBlock: GIZVER_clean_linker_0, # of connection points: 4
#     Node 1, Type 0, BuildingBlock: GIZVER_clean_linker_0, # of connection points: 4
#     Node 2, Type 0, BuildingBlock: GIZVER_clean_linker_0, # of connection points: 4
#     Node 3, Type 0, BuildingBlock: GIZVER_clean_linker_0, # of connection points: 4
#     Node 4, Type 0, BuildingBlock: GIZVER_clean_linker_0, # of connection points: 4
#     Node 5, Type 0, BuildingBlock: GIZVER_clean_linker_0, # of connection points: 4
#     Node 6, Type 1, BuildingBlock: QUQFOY_clean_sbu_1, # of connection points: 4
#     Node 7, Type 1, BuildingBlock: QUQFOY_clean_sbu_1, # of connection points: 4
#     Node 8, Type 1, BuildingBlock: QUQFOY_clean_sbu_1, # of connection points: 4
#     Node 9, Type 1, BuildingBlock: QUQFOY_clean_sbu_1, # of connection points: 4
#     Node 10, Type 1, BuildingBlock: QUQFOY_clean_sbu_1, # of connection points: 4
#     Node 11, Type 1, BuildingBlock: QUQFOY_clean_sbu_1, # of connection points: 4
#     Edge 12, Type (0, 1), BuildingBlock: XUDNAN_clean_linker_2, # of connection points: 2
#     Edge 13, Type (0, 1), BuildingBlock: XUDNAN_clean_linker_2, # of connection points: 2
#     Edge 14, Type (0, 1), BuildingBlock: XUDNAN_clean_linker_2, # of connection points: 2
#     Edge 15, Type (0, 1), BuildingBlock: XUDNAN_clean_linker_2, # of connection points: 2
#     Edge 16, Type (0, 1), BuildingBlock: XUDNAN_clean_linker_2, # of connection points: 2
#     Edge 17, Type (0, 1), BuildingBlock: XUDNAN_clean_linker_2, # of connection points: 2
#     Edge 18, Type (0, 1), BuildingBlock: XUDNAN_clean_linker_2, # of connection points: 2
#     Edge 19, Type (0, 1), BuildingBlock: XUDNAN_clean_linker_2, # of connection points: 2
#     Edge 20, Type (0, 1), BuildingBlock: XUDNAN_clean_linker_2, # of connection points: 2
#     Edge 21, Type (0, 1), BuildingBlock: XUDNAN_clean_linker_2, # of connection points: 2
#     Edge 22, Type (0, 1), BuildingBlock: XUDNAN_clean_linker_2, # of connection points: 2
#     Edge 23, Type (0, 1), BuildingBlock: XUDNAN_clean_linker_2, # of connection points: 2
#     Edge 24, Type (0, 1), BuildingBlock: XUDNAN_clean_linker_2, # of connection points: 2
#     Edge 25, Type (0, 1), BuildingBlock: XUDNAN_clean_linker_2, # of connection points: 2
#     Edge 26, Type (0, 1), BuildingBlock: XUDNAN_clean_linker_2, # of connection points: 2
#     Edge 27, Type (0, 1), BuildingBlock: XUDNAN_clean_linker_2, # of connection points: 2
#     Edge 28, Type (0, 1), BuildingBlock: XUDNAN_clean_linker_2, # of connection points: 2
#     Edge 29, Type (0, 1), BuildingBlock: XUDNAN_clean_linker_2, # of connection points: 2
#     Edge 30, Type (0, 1), BuildingBlock: XUDNAN_clean_linker_2, # of connection points: 2
#     Edge 31, Type (0, 1), BuildingBlock: XUDNAN_clean_linker_2, # of connection points: 2
#     Edge 32, Type (0, 1), BuildingBlock: XUDNAN_clean_linker_2, # of connection points: 2
#     Edge 33, Type (0, 1), BuildingBlock: XUDNAN_clean_linker_2, # of connection points: 2
#     Edge 34, Type (0, 1), BuildingBlock: XUDNAN_clean_linker_2, # of connection points: 2
#     Edge 35, Type (0, 1), BuildingBlock: XUDNAN_clean_linker_2, # of connection points: 2
# Relax obj value: 0.004
# Max RMSD: 0.085
# Mean RMSD: 0.077
data_MOF--net-nom--node1-QUQFOY_clean_sbu_1--node2-GIZVER_clean_linker_0--edge1-XUDNAN_clean_linker_2
_symmetry_space_group_name_H-M    P1
_symmetry_Int_Tables_number       1
_symmetry_cell_setting            triclinic
loop_
_symmetry_equiv_pos_as_xyz
'x, y, z'
_cell_length_a     48.117184
_cell_length_b     48.098401
_cell_length_c     44.369984
_cell_angle_alpha  90.187812
_cell_angle_beta   90.147052
_cell_angle_gamma 119.98872
loop_
_atom_site_label
_atom_site_type_symbol
_atom_site_fract_x
_atom_site_fract_y
_atom_site_fract_z
_atom_type_partial_charge
H0 H 0.99086 0.57975 0.34742 0.0
H1 H 1.01326 0.55868 0.25927 0.0
H2 H 0.92418 0.49299 0.30072 0.0
H3 H 0.03642 0.62017 0.32222 0.0
H4 H 0.03454 0.61724 0.28213 0.0
H5 H 0.06157 0.58877 0.3497 0.0
H6 H 0.15026 0.61054 0.30817 0.0
H7 H 0.07926 0.62033 0.25737 0.0
C8 C 0.98482 0.56346 0.32846 0.0
C9 C 0.95496 0.53476 0.32772 0.0
C10 C 1.00622 0.57212 0.30398 0.0
C11 C 0.99775 0.55157 0.27881 0.0
C12 C 0.96858 0.52254 0.27833 0.0
C13 C 0.94764 0.51431 0.30272 0.0
C14 C 0.03581 0.60504 0.30292 0.0
C15 C 0.06649 0.60363 0.30313 0.0
C16 C 0.07654 0.59549 0.3298 0.0
C17 C 0.10638 0.59707 0.33105 0.0
C18 C 0.12638 0.60729 0.30585 0.0
C19 C 0.11724 0.61608 0.27907 0.0
C20 C 0.08678 0.61353 0.27773 0.0
H21 H 0.44585 0.99061 0.52768 0.0
H22 H 0.46728 1.00976 0.43321 0.0
H23 H 0.43888 0.91664 0.46829 0.0
H24 H 0.45442 0.04013 0.50819 0.0
H25 H 0.44396 0.03844 0.46952 0.0
H26 H 0.50771 0.07714 0.52468 0.0
H27 H 0.57923 0.13632 0.45991 0.0
H28 H 0.48547 0.06543 0.43014 0.0
C29 C 0.44937 0.9831 0.50565 0.0
C30 C 0.44249 0.95123 0.50127 0.0
C31 C 0.45905 1.00478 0.48127 0.0
C32 C 0.46163 0.99406 0.4524 0.0
C33 C 0.45514 0.96247 0.44785 0.0
C34 C 0.44611 0.9416 0.47239 0.0
C35 C 0.46157 0.03733 0.48504 0.0
C36 C 0.49468 0.06515 0.47799 0.0
C37 C 0.51579 0.08316 0.50165 0.0
C38 C 0.54574 0.11044 0.49539 0.0
C39 C 0.55555 0.1167 0.46523 0.0
C40 C 0.53348 0.10223 0.44171 0.0
C41 C 0.50304 0.07609 0.4481 0.0
H42 H 0.44684 0.48198 0.58773 0.0
H43 H 0.45043 0.46629 0.68292 0.0
H44 H 0.44756 0.54932 0.6516 0.0
H45 H 0.43787 0.43076 0.60512 0.0
H46 H 0.42876 0.42099 0.64391 0.0
H47 H 0.49439 0.45568 0.5872 0.0
H48 H 0.55514 0.4326 0.63909 0.0
H49 H 0.46833 0.42125 0.67817 0.0
C50 C 0.44887 0.49013 0.61085 0.0
C51 C 0.44879 0.51874 0.61708 0.0
C52 C 0.45019 0.4714 0.63463 0.0
C53 C 0.45074 0.4813 0.66461 0.0
C54 C 0.44996 0.50953 0.67098 0.0
C55 C 0.44981 0.52836 0.64702 0.0
C56 C 0.44695 0.43901 0.62842 0.0
C57 C 0.47842 0.4396 0.63264 0.0
C58 C 0.49998 0.44846 0.60844 0.0
C59 C 0.52799 0.44655 0.61118 0.0
C60 C 0.53453 0.43604 0.63818 0.0
C61 C 0.51328 0.42661 0.66257 0.0
C62 C 0.48531 0.42891 0.65978 0.0
H63 H 0.98726 0.45798 0.76845 0.0
H64 H 1.00697 0.45939 0.86335 0.0
H65 H 0.92142 0.4581 0.8333 0.0
H66 H 0.02428 0.44073 0.78752 0.0
H67 H 0.03138 0.44036 0.82679 0.0
H68 H 0.05611 0.48841 0.75757 0.0
H69 H 0.14865 0.55446 0.79405 0.0
H70 H 0.0733 0.48885 0.85276 0.0
C71 C 0.98151 0.46005 0.79166 0.0
C72 C 0.95296 0.46007 0.79824 0.0
C73 C 1.00159 0.46061 0.81518 0.0
C74 C 0.99252 0.46073 0.84525 0.0
C75 C 0.96352 0.45969 0.85199 0.0
C76 C 0.94463 0.4606 0.82836 0.0
C77 C 0.02923 0.45508 0.80861 0.0
C78 C 0.06089 0.48597 0.80567 0.0
C79 C 0.07169 0.49906 0.77697 0.0
C80 C 0.10325 0.52413 0.77286 0.0
C81 C 0.1237 0.53682 0.79788 0.0
C82 C 0.11345 0.5245 0.82698 0.0
C83 C 0.08158 0.4993 0.83072 0.0
H84 H 0.61479 0.05999 0.01238 0.0
H85 H 0.60712 0.04426 0.91627 0.0
H86 H 0.6118 0.12904 0.95365 0.0
H87 H 0.62877 0.02147 -0.0127 0.0
H88 H 0.62184 1.01314 0.94793 0.0
H89 H 0.58142 1.0028 0.02225 0.0
H90 H 0.49982 0.91288 -0.00274 0.0
H91 H 0.57353 0.96654 0.93219 0.0
C92 C 0.61186 0.06698 -0.01006 0.0
C93 C 0.6117 0.09587 -0.01408 0.0
C94 C 0.60931 0.04773 0.96483 0.0
C95 C 0.60773 0.05828 0.93571 0.0
C96 C 0.60872 0.08766 0.93149 0.0
C97 C 0.60971 0.10571 0.95674 0.0
C98 C 0.61178 0.01782 0.96862 0.0
C99 C 0.5796 0.98892 0.97575 0.0
C100 C 0.56772 0.9849 0.00521 0.0
C101 C 0.53949 0.95696 0.01333 0.0
C102 C 0.52205 0.93396 -0.00894 0.0
C103 C 0.53441 0.93609 0.96193 0.0
C104 C 0.56305 0.9643 0.95423 0.0
H105 H 0.62852 0.56494 0.11079 0.0
H106 H 0.58032 0.56066 0.19334 0.0
H107 H 0.59398 0.48224 0.16778 0.0
H108 H 0.62619 0.61063 0.12646 0.0
H109 H 0.6239 0.61357 0.16621 0.0
H110 H 0.57747 0.59378 0.09456 0.0
H111 H 0.514 0.62446 0.12927 0.0
H112 H 0.57816 0.61345 0.1893 0.0
C113 C 0.61504 0.55133 0.13019 0.0
C114 C 0.61254 0.52144 0.13652 0.0
C115 C 0.60247 0.56511 0.15021 0.0
C116 C 0.58792 0.54905 0.177 0.0
C117 C 0.58596 0.51969 0.18411 0.0
C118 C 0.59617 0.50519 0.1627 0.0
C119 C 0.61013 0.59943 0.14612 0.0
C120 C 0.58052 0.60253 0.14245 0.0
C121 C 0.56753 0.60008 0.11355 0.0
C122 C 0.54316 0.60755 0.1088 0.0
C123 C 0.5312 0.6166 0.13342 0.0
C124 C 0.54328 0.61867 0.16271 0.0
C125 C 0.56791 0.61127 0.16706 0.0
O126 O 0.61179 0.37887 0.42942 0.0
Cd127 Cd 0.61803 0.36509 0.38687 0.0
Cd128 Cd 0.67969 0.42163 0.39512 0.0
O129 O 0.66141 0.41818 0.43742 0.0
O130 O 0.58294 0.31951 0.38202 0.0
O131 O 0.63441 0.33428 0.38008 0.0
C132 C 0.60475 0.31161 0.37901 0.0
C133 C 0.73634 0.44818 0.39346 0.0
C134 C 0.63268 0.4009 0.44626 0.0
C135 C 0.63222 0.42048 0.34794 0.0
O136 O 0.65847 0.43548 0.36254 0.0
O137 O 0.61305 0.39079 0.35232 0.0
O138 O 0.72109 0.46288 0.40021 0.0
O139 O 0.71949 0.41792 0.38743 0.0
O140 O 0.2587 0.60974 0.58487 0.0
Cd141 Cd 0.28845 0.62745 0.54817 0.0
Cd142 Cd 0.27507 0.67763 0.55884 0.0
O143 O 0.2525 0.65096 0.59667 0.0
O144 O 0.30119 0.59405 0.54274 0.0
O145 O 0.33643 0.6449 0.55149 0.0
C146 C 0.33057 0.61591 0.54708 0.0
C147 C 0.30816 0.7335 0.56353 0.0
C148 C 0.2469 0.62262 0.60168 0.0
C149 C 0.24952 0.63836 0.50156 0.0
O150 O 0.25004 0.65988 0.51871 0.0
O151 O 0.26525 0.62449 0.50842 0.0
O152 O 0.2774 0.71985 0.56561 0.0
O153 O 0.32045 0.71532 0.55901 0.0
O154 O 0.67675 0.25393 0.7519 0.0
Cd155 Cd 0.68789 0.28825 0.71896 0.0
Cd156 Cd 0.62392 0.27023 0.73214 0.0
O157 O 0.63061 0.2476 0.76814 0.0
O158 O 0.73485 0.30526 0.71307 0.0
O159 O 0.71523 0.33566 0.72839 0.0
C160 C 0.73992 0.33298 0.72175 0.0
C161 C 0.59751 0.2997 0.73824 0.0
C162 C 0.65325 0.24133 0.77006 0.0
C163 C 0.63853 0.25278 0.67148 0.0
O164 O 0.61735 0.24724 0.69122 0.0
O165 O 0.66812 0.27164 0.67691 0.0
O166 O 0.58234 0.26882 0.73968 0.0
O167 O 0.62818 0.31416 0.73416 0.0
O168 O 0.45262 0.65919 0.91056 0.0
Cd169 Cd 0.42948 0.66806 0.87614 0.0
Cd170 Cd 0.37835 0.61712 0.90097 0.0
O171 O 0.40959 0.62665 0.93671 0.0
O172 O 0.45903 0.71307 0.86278 0.0
O173 O 0.41279 0.69781 0.88582 0.0
C174 C 0.43915 0.72051 0.87459 0.0
C175 C 0.32437 0.60236 0.90794 0.0
C176 C 0.43997 0.64271 0.93409 0.0
C177 C 0.40243 0.6082 0.84096 0.0
O178 O 0.38592 0.59524 0.8644 0.0
O179 O 0.41926 0.63858 0.83911 0.0
O180 O 0.33525 0.58379 0.91572 0.0
O181 O 0.34461 0.63035 0.89752 0.0
O182 O 0.80343 0.36882 0.03668 0.0
Cd183 Cd 0.77514 0.35648 0.07445 0.0
Cd184 Cd 0.78434 0.41703 0.06462 0.0
O185 O 0.80484 0.414 0.02489 0.0
O186 O 0.76107 0.30994 0.07859 0.0
O187 O 0.72702 0.32742 0.07152 0.0
C188 C 0.73196 0.30353 0.07453 0.0
C189 C 0.74632 0.43369 0.06513 0.0
C190 C 0.81254 0.39279 0.01938 0.0
C191 C 0.81592 0.40728 0.11919 0.0
O192 O 0.81344 0.42716 0.10213 0.0
O193 O 0.80009 0.37733 0.11354 0.0
O194 O 0.77598 0.45348 0.05908 0.0
O195 O 0.73792 0.40412 0.07046 0.0
O196 O 0.46085 0.81346 0.20826 0.0
Cd197 Cd 0.44123 0.78252 0.24401 0.0
Cd198 Cd 0.38636 0.78062 0.21966 0.0
O199 O 0.41659 0.80365 0.18424 0.0
O200 O 0.47654 0.77459 0.25675 0.0
O201 O 0.43024 0.73627 0.23879 0.0
C202 C 0.45888 0.74513 0.24837 0.0
C203 C 0.33138 0.74604 0.21 0.0
C204 C 0.44702 0.81786 0.18584 0.0
C205 C 0.41356 0.81455 0.27985 0.0
O206 O 0.39523 0.80906 0.25725 0.0
O207 O 0.43199 0.80272 0.28106 0.0
O208 O 0.34505 0.77641 0.20528 0.0
O209 O 0.34922 0.73474 0.21925 0.0
H210 H 0.16453 0.60309 0.26143 0.0
H211 H 0.12674 0.66657 0.24298 0.0
H212 H 0.17458 0.70096 0.21296 0.0
H213 H 0.23789 0.66259 0.28005 0.0
H214 H 0.26041 0.64494 0.26516 0.0
H215 H 0.21951 0.6196 0.27646 0.0
H216 H 0.20507 0.59357 0.22333 0.0
H217 H 0.24619 0.6187 0.21187 0.0
H218 H 0.21422 0.61865 0.19055 0.0
H219 H 0.23036 0.73438 0.19456 0.0
H220 H 0.28921 0.76444 0.19043 0.0
H221 H 0.2935 0.68244 0.2252 0.0
C222 C 0.16584 0.62378 0.25047 0.0
C223 C 0.14162 0.63196 0.25479 0.0
C224 C 0.14439 0.65917 0.23972 0.0
C225 C 0.17172 0.67907 0.22266 0.0
C226 C 0.19616 0.67155 0.22083 0.0
C227 C 0.19339 0.64439 0.23421 0.0
C228 C 0.22502 0.6446 0.23362 0.0
C229 C 0.23636 0.64285 0.26572 0.0
C230 C 0.22246 0.61725 0.21364 0.0
C231 C 0.2465 0.67699 0.2194 0.0
C232 C 0.22914 0.69166 0.21131 0.0
C233 C 0.24408 0.72287 0.20024 0.0
C234 C 0.27761 0.73981 0.19809 0.0
C235 C 0.29602 0.72578 0.20745 0.0
C236 C 0.28009 0.69364 0.21744 0.0
H237 H 0.50057 0.13025 0.42202 0.0
H238 H 0.58364 0.12112 0.40262 0.0
H239 H 0.6077 0.17202 0.37444 0.0
H240 H 0.50414 0.17858 0.35018 0.0
H241 H 0.49213 0.20213 0.37253 0.0
H242 H 0.47692 0.16039 0.38122 0.0
H243 H 0.49759 0.1766 0.43592 0.0
H244 H 0.51395 0.2183 0.42742 0.0
H245 H 0.53961 0.20436 0.44253 0.0
H246 H 0.62921 0.23001 0.36281 0.0
H247 H 0.6433 0.28701 0.36277 0.0
H248 H 0.54627 0.25893 0.3898 0.0
C249 C 0.52264 0.13775 0.40982 0.0
C250 C 0.53996 0.12148 0.41391 0.0
C251 C 0.56968 0.13284 0.39905 0.0
C252 C 0.58364 0.16196 0.38327 0.0
C253 C 0.56734 0.17915 0.38218 0.0
C254 C 0.53698 0.16698 0.39433 0.0
C255 C 0.52684 0.19219 0.39482 0.0
C256 C 0.49832 0.18276 0.3734 0.0
C257 C 0.51908 0.1982 0.42708 0.0
C258 C 0.55696 0.22096 0.38306 0.0
C259 C 0.57989 0.21291 0.37539 0.0
C260 C 0.61106 0.23636 0.36774 0.0
C261 C 0.61895 0.26873 0.36801 0.0
C262 C 0.5958 0.2774 0.37595 0.0
C263 C 0.5643 0.25303 0.38295 0.0
H264 H 0.39404 0.49731 0.58472 0.0
H265 H 0.48708 0.58103 0.60062 0.0
H266 H 0.46891 0.61512 0.57573 0.0
H267 H 0.37382 0.52592 0.51126 0.0
H268 H 0.3325 0.50844 0.52261 0.0
H269 H 0.35554 0.48987 0.53357 0.0
H270 H 0.34155 0.49264 0.5894 0.0
H271 H 0.31917 0.51181 0.57884 0.0
H272 H 0.35157 0.53094 0.60574 0.0
H273 H 0.43725 0.64115 0.56014 0.0
H274 H 0.39575 0.65644 0.55218 0.0
H275 H 0.32295 0.55573 0.54684 0.0
C276 C 0.41109 0.52249 0.58116 0.0
C277 C 0.4422 0.53651 0.59366 0.0
C278 C 0.46346 0.56985 0.59033 0.0
C279 C 0.45325 0.58936 0.57639 0.0
C280 C 0.42171 0.57513 0.56585 0.0
C281 C 0.40108 0.5423 0.56759 0.0
C282 C 0.36718 0.53354 0.55886 0.0
C283 C 0.35665 0.51324 0.52984 0.0
C284 C 0.34351 0.51624 0.58475 0.0
C285 C 0.37161 0.56659 0.5535 0.0
C286 C 0.40329 0.59026 0.55715 0.0
C287 C 0.41252 0.62278 0.55642 0.0
C288 C 0.38877 0.63126 0.55205 0.0
C289 C 0.35614 0.60732 0.54863 0.0
C290 C 0.34774 0.57464 0.54882 0.0
H291 H 0.92332 0.40714 0.76254 0.0
H292 H 0.92422 0.49516 0.78515 0.0
H293 H 0.87162 0.47475 0.76 0.0
H294 H 0.87551 0.38926 0.68854 0.0
H295 H 0.85435 0.34695 0.69683 0.0
H296 H 0.89537 0.3718 0.70906 0.0
H297 H 0.87819 0.35241 0.76378 0.0
H298 H 0.83714 0.32815 0.752 0.0
H299 H 0.84744 0.35788 0.78123 0.0
H300 H 0.81457 0.44042 0.74317 0.0
H301 H 0.7594 0.39647 0.73242 0.0
H302 H 0.79544 0.33056 0.72065 0.0
C303 C 0.91328 0.4228 0.7605 0.0
C304 C 0.92807 0.45301 0.77504 0.0
C305 C 0.91352 0.47228 0.77346 0.0
C306 C 0.88359 0.46078 0.75936 0.0
C307 C 0.86861 0.43003 0.7468 0.0
C308 C 0.88326 0.41151 0.74671 0.0
C309 C 0.86039 0.37773 0.73561 0.0
C310 C 0.8721 0.37105 0.70572 0.0
C311 C 0.85551 0.3526 0.75959 0.0
C312 C 0.83018 0.37964 0.731 0.0
C313 C 0.83548 0.4101 0.73714 0.0
C314 C 0.81034 0.41671 0.7375 0.0
C315 C 0.77904 0.39156 0.73154 0.0
C316 C 0.77313 0.36016 0.7254 0.0
C317 C 0.79923 0.35444 0.72466 0.0
H318 H 0.50152 0.87223 0.97829 0.0
H319 H 0.53338 0.9332 0.89903 0.0
H320 H 0.50995 0.88452 0.86683 0.0
H321 H 0.51295 0.81103 0.95346 0.0
H322 H 0.47704 0.77944 0.97041 0.0
H323 H 0.49653 0.81905 -0.01333 0.0
H324 H 0.44371 0.82081 0.98239 0.0
H325 H 0.42389 0.78106 0.9662 0.0
H326 H 0.42378 0.81365 0.94637 0.0
H327 H 0.48727 0.82758 0.84405 0.0
H328 H 0.46383 0.76932 0.83328 0.0
H329 H 0.43931 0.74822 0.92742 0.0
C330 C 0.50275 0.87603 0.95422 0.0
C331 C 0.51915 0.90719 0.94153 0.0
C332 C 0.52133 0.90989 0.90965 0.0
C333 C 0.50779 0.8823 0.89109 0.0
C334 C 0.49144 0.85215 0.90466 0.0
C335 C 0.48843 0.84909 0.93555 0.0
C336 C 0.4697 0.81434 0.94506 0.0
C337 C 0.49029 0.80547 0.96506 0.0
C338 C 0.43841 0.80705 0.96094 0.0
C339 C 0.46307 0.79799 0.91468 0.0
C340 C 0.47612 0.82003 0.89155 0.0
C341 C 0.47614 0.81021 0.86189 0.0
C342 C 0.46277 0.77717 0.85595 0.0
C343 C 0.44886 0.75448 0.8794 0.0
C344 C 0.44859 0.76507 0.90893 0.0
H345 H 0.64034 0.48673 0.15701 0.0
H346 H 0.6268 0.52829 0.07527 0.0
H347 H 0.65846 0.50916 0.04719 0.0
H348 H 0.71762 0.50163 0.14452 0.0
H349 H 0.71059 0.46385 0.15944 0.0
H350 H 0.68736 0.48122 0.17284 0.0
H351 H 0.6348 0.42924 0.15858 0.0
H352 H 0.65781 0.41152 0.14526 0.0
H353 H 0.6292 0.41382 0.12061 0.0
H354 H 0.69599 0.48876 0.0294 0.0
H355 H 0.7312 0.46513 0.02282 0.0
H356 H 0.71188 0.43042 0.11456 0.0
C357 C 0.64275 0.49109 0.13302 0.0
C358 C 0.63035 0.50888 0.11851 0.0
C359 C 0.63609 0.51507 0.08721 0.0
C360 C 0.65388 0.50405 0.07097 0.0
C361 C 0.66525 0.48629 0.08615 0.0
C362 C 0.65936 0.47944 0.1164 0.0
C363 C 0.67367 0.45965 0.12772 0.0
C364 C 0.6988 0.47768 0.15259 0.0
C365 C 0.64729 0.4266 0.13868 0.0
C366 C 0.68914 0.45676 0.0992 0.0
C367 C 0.68446 0.47262 0.07548 0.0
C368 C 0.6991 0.47564 0.04762 0.0
C369 C 0.71901 0.4622 0.04406 0.0
C370 C 0.72337 0.44533 0.06795 0.0
C371 C 0.70799 0.44232 0.09569 0.0
H372 H 0.453 0.90146 0.51417 0.0
H373 H 0.39388 0.94237 0.53928 0.0
H374 H 0.35721 0.89254 0.56613 0.0
H375 H 0.39187 0.83004 0.49303 0.0
H376 H 0.40809 0.80548 0.5058 0.0
H377 H 0.43466 0.84676 0.4963 0.0
H378 H 0.46077 0.85769 0.54933 0.0
H379 H 0.43461 0.81615 0.55893 0.0
H380 H 0.43584 0.84744 0.58235 0.0
H381 H 0.32108 0.83518 0.58008 0.0
H382 H 0.29003 0.7761 0.58263 0.0
H383 H 0.37121 0.77116 0.54663 0.0
C384 C 0.433 0.90039 0.52631 0.0
C385 C 0.42644 0.92597 0.52468 0.0
C386 C 0.39985 0.92349 0.54064 0.0
C387 C 0.3787 0.89508 0.55579 0.0
C388 C 0.38459 0.86947 0.555 0.0
C389 C 0.41142 0.87204 0.54106 0.0
C390 C 0.40999 0.83982 0.53958 0.0
C391 C 0.41121 0.82997 0.50674 0.0
C392 C 0.4369 0.84031 0.5587 0.0
C393 C 0.37741 0.81837 0.55349 0.0
C394 C 0.36342 0.83604 0.56274 0.0
C395 C 0.33212 0.82123 0.5736 0.0
C396 C 0.31459 0.78759 0.57479 0.0
C397 C 0.32826 0.76898 0.56503 0.0
C398 C 0.36031 0.78472 0.5548 0.0
H399 H 0.57043 0.44159 0.6897 0.0
H400 H 0.4686 0.37223 0.69168 0.0
H401 H 0.4797 0.33599 0.72191 0.0
H402 H 0.59234 0.38851 0.67125 0.0
H403 H 0.62947 0.40569 0.69221 0.0
H404 H 0.61375 0.43076 0.68029 0.0
H405 H 0.61429 0.44898 0.73537 0.0
H406 H 0.63062 0.4243 0.74756 0.0
H407 H 0.5943 0.41932 0.76426 0.0
H408 H 0.50205 0.30245 0.74081 0.0
H409 H 0.53325 0.27499 0.74735 0.0
H410 H 0.62108 0.36422 0.72939 0.0
C411 C 0.55033 0.41927 0.69746 0.0
C412 C 0.51862 0.40983 0.68824 0.0
C413 C 0.49303 0.38039 0.69882 0.0
C414 C 0.49917 0.35949 0.7159 0.0
C415 C 0.53098 0.3684 0.72235 0.0
C416 C 0.55617 0.39785 0.71375 0.0
C417 C 0.58821 0.39953 0.71855 0.0
C418 C 0.60701 0.40651 0.68881 0.0
C419 C 0.60802 0.42451 0.74289 0.0
C420 C 0.57708 0.36579 0.72947 0.0
C421 C 0.54404 0.34853 0.73235 0.0
C422 C 0.52795 0.31596 0.73931 0.0
C423 C 0.54593 0.30051 0.74284 0.0
C424 C 0.57967 0.31747 0.73899 0.0
C425 C 0.59541 0.35072 0.73296 0.0
H426 H 0.16569 0.58468 0.83735 0.0
H427 H 0.11792 0.48725 0.87167 0.0
H428 H 0.16434 0.50116 0.90447 0.0
H429 H 0.23695 0.58859 0.82687 0.0
H430 H 0.26217 0.6304 0.83648 0.0
H431 H 0.22226 0.61626 0.82245 0.0
H432 H 0.20876 0.63863 0.86995 0.0
H433 H 0.24889 0.65313 0.8841 0.0
H434 H 0.21479 0.62685 0.90682 0.0
H435 H 0.21918 0.52172 0.92567 0.0
H436 H 0.27762 0.54678 0.93292 0.0
H437 H 0.2918 0.62978 0.88213 0.0
C438 C 0.16455 0.5664 0.8523 0.0
C439 C 0.13783 0.5348 0.85178 0.0
C440 C 0.13753 0.5118 0.8719 0.0
C441 C 0.16402 0.51945 0.89059 0.0
C442 C 0.19071 0.55022 0.88904 0.0
C443 C 0.19109 0.57344 0.87053 0.0
C444 C 0.2243 0.60293 0.86938 0.0
C445 C 0.23716 0.60992 0.83688 0.0
C446 C 0.22417 0.63212 0.88341 0.0
C447 C 0.24295 0.59203 0.88886 0.0
C448 C 0.22293 0.56189 0.90063 0.0
C449 C 0.23496 0.54557 0.9171 0.0
C450 C 0.26827 0.56001 0.92102 0.0
C451 C 0.28934 0.59035 0.90824 0.0
C452 C 0.27633 0.60686 0.89267 0.0
H453 H 0.66554 0.12521 0.0205 0.0
H454 H 0.57468 0.12075 0.00444 0.0
H455 H 0.593 0.1704 0.03434 0.0
H456 H 0.68276 0.16588 0.09846 0.0
H457 H 0.72479 0.18979 0.0896 0.0
H458 H 0.70146 0.14973 0.07441 0.0
H459 H 0.71899 0.17231 0.02059 0.0
H460 H 0.74181 0.21235 0.0354 0.0
H461 H 0.71119 0.2032 0.00737 0.0
H462 H 0.62505 0.22585 0.05567 0.0
H463 H 0.66728 0.28113 0.06863 0.0
H464 H 0.73766 0.2499 0.07075 0.0
C465 C 0.64893 0.13374 0.02486 0.0
C466 C 0.61846 0.11886 0.01093 0.0
C467 C 0.59783 0.13151 0.01562 0.0
C468 C 0.60811 0.15974 0.03248 0.0
C469 C 0.63905 0.17495 0.04459 0.0
C470 C 0.65902 0.1621 0.04142 0.0
C471 C 0.69261 0.18536 0.05264 0.0
C472 C 0.70089 0.17189 0.08044 0.0
C473 C 0.71759 0.1938 0.0275 0.0
C474 C 0.68891 0.2139 0.06098 0.0
C475 C 0.65772 0.20727 0.05674 0.0
C476 C 0.64935 0.23105 0.05986 0.0
C477 C 0.67353 0.26244 0.0671 0.0
C478 C 0.70572 0.26982 0.07097 0.0
C479 C 0.71318 0.24495 0.06852 0.0
H480 H 0.48282 0.60983 0.17229 0.0
H481 H 0.58007 0.66068 0.20775 0.0
H482 H 0.56511 0.69209 0.24104 0.0
H483 H 0.4763 0.67637 0.16372 0.0
H484 H 0.4344 0.6582 0.17317 0.0
H485 H 0.44983 0.6339 0.15814 0.0
H486 H 0.42862 0.59664 0.20462 0.0
H487 H 0.41287 0.62077 0.21978 0.0
H488 H 0.44007 0.61359 0.24196 0.0
H489 H 0.54294 0.72471 0.26329 0.0
H490 H 0.51575 0.75584 0.27237 0.0
H491 H 0.43368 0.68628 0.22028 0.0
C492 C 0.50085 0.62703 0.18756 0.0
C493 C 0.53269 0.63258 0.1873 0.0
C494 C 0.55538 0.65533 0.20779 0.0
C495 C 0.54712 0.6735 0.22674 0.0
C496 C 0.51604 0.66865 0.2251 0.0
C497 C 0.49316 0.64577 0.20616 0.0
C498 C 0.46294 0.64825 0.20543 0.0
C499 C 0.45546 0.65457 0.17322 0.0
C500 C 0.43444 0.61801 0.21875 0.0
C501 C 0.47294 0.67711 0.22578 0.0
C502 C 0.50338 0.68805 0.23745 0.0
C503 C 0.51887 0.71598 0.25477 0.0
C504 C 0.50323 0.73358 0.25973 0.0
C505 C 0.47247 0.72342 0.2472 0.0
C506 C 0.45689 0.69435 0.23065 0.0
H507 H 0.90807 0.47596 0.34879 0.0
H508 H 0.94161 0.57805 0.35534 0.0
H509 H 0.89155 0.56604 0.38081 0.0
H510 H 0.83386 0.45615 0.32413 0.0
H511 H 0.81217 0.41804 0.34296 0.0
H512 H 0.85367 0.43388 0.33349 0.0
H513 H 0.8674 0.4302 0.38928 0.0
H514 H 0.82573 0.41378 0.39895 0.0
H515 H 0.85612 0.44903 0.41822 0.0
H516 H 0.83472 0.5435 0.39657 0.0
H517 H 0.77606 0.51239 0.40229 0.0
H518 H 0.77703 0.42471 0.38098 0.0
C519 C 0.90532 0.49591 0.35623 0.0
C520 C 0.92905 0.52803 0.34991 0.0
C521 C 0.92436 0.55328 0.36032 0.0
C522 C 0.89575 0.54666 0.37466 0.0
C523 C 0.87199 0.5147 0.37845 0.0
C524 C 0.87656 0.48969 0.36976 0.0
C525 C 0.84572 0.45766 0.37214 0.0
C526 C 0.83579 0.44045 0.34135 0.0
C527 C 0.84894 0.43641 0.39608 0.0
C528 C 0.82272 0.46868 0.38223 0.0
C529 C 0.83856 0.5016 0.38643 0.0
C530 C 0.82218 0.51767 0.39386 0.0
C531 C 0.78877 0.49974 0.39691 0.0
C532 C 0.77188 0.46605 0.3921 0.0
C533 C 0.78925 0.45036 0.38503 0.0
H534 H 0.12227 0.6332 0.38224 0.0
H535 H 0.12267 0.55154 0.34134 0.0
H536 H 0.15755 0.55167 0.38243 0.0
H537 H 0.20201 0.67426 0.40097 0.0
H538 H 0.19826 0.69035 0.4365 0.0
H539 H 0.16859 0.68058 0.40745 0.0
H540 H 0.12339 0.64292 0.44377 0.0
H541 H 0.15281 0.65322 0.47328 0.0
H542 H 0.12654 0.61174 0.46319 0.0
H543 H 0.19812 0.56549 0.42299 0.0
H544 H 0.23766 0.58822 0.46424 0.0
H545 H 0.2117 0.6617 0.47909 0.0
C546 C 0.12852 0.61448 0.38287 0.0
C547 C 0.11931 0.59183 0.35924 0.0
C548 C 0.12902 0.56853 0.35976 0.0
C549 C 0.14895 0.5686 0.38284 0.0
C550 C 0.15889 0.59217 0.40514 0.0
C551 C 0.14862 0.61437 0.40569 0.0
C552 C 0.16504 0.63878 0.43076 0.0
C553 C 0.18463 0.673 0.41815 0.0
C554 C 0.14048 0.63651 0.45414 0.0
C555 C 0.18674 0.62732 0.44364 0.0
C556 C 0.18271 0.60037 0.42856 0.0
C557 C 0.20113 0.58627 0.43533 0.0
C558 C 0.22375 0.59958 0.45867 0.0
C559 C 0.22781 0.62675 0.47503 0.0
C560 C 0.20915 0.64088 0.46713 0.0
H561 H 0.54908 0.10419 0.55797 0.0
H562 H 0.58245 0.17574 0.48668 0.0
H563 H 0.61251 0.2178 0.52332 0.0
H564 H 0.53368 0.1532 0.6084 0.0
H565 H 0.54482 0.14001 0.64197 0.0
H566 H 0.52914 0.11368 0.60975 0.0
H567 H 0.57975 0.10772 0.60902 0.0
H568 H 0.59558 0.13402 0.64127 0.0
H569 H 0.61889 0.14315 0.60726 0.0
H570 H 0.63972 0.25315 0.56677 0.0
H571 H 0.65655 0.28021 0.61644 0.0
H572 H 0.59918 0.18876 0.66089 0.0
C573 C 0.56282 0.12856 0.54987 0.0
C574 C 0.56437 0.13573 0.51873 0.0
C575 C 0.58225 0.1685 0.50976 0.0
C576 C 0.59921 0.19306 0.53059 0.0
C577 C 0.59737 0.18508 0.56075 0.0
C578 C 0.57914 0.15383 0.57061 0.0
C579 C 0.57884 0.15262 0.60479 0.0
C580 C 0.54458 0.13908 0.61693 0.0
C581 C 0.59419 0.13323 0.61625 0.0
C582 C 0.59963 0.18805 0.61227 0.0
C583 C 0.61059 0.20619 0.58642 0.0
C584 C 0.63109 0.23933 0.58727 0.0
C585 C 0.64053 0.25448 0.61543 0.0
C586 C 0.62873 0.23653 0.64214 0.0
C587 C 0.60802 0.20295 0.64059 0.0
H588 H 0.47668 0.56885 0.69788 0.0
H589 H 0.40883 0.46804 0.71319 0.0
H590 H 0.39057 0.48229 0.75959 0.0
H591 H 0.49482 0.59379 0.77809 0.0
H592 H 0.49661 0.63151 0.77093 0.0
H593 H 0.50778 0.61276 0.74187 0.0
H594 H 0.46644 0.6149 0.70581 0.0
H595 H 0.45457 0.63293 0.73492 0.0
H596 H 0.42496 0.5963 0.71691 0.0
H597 H 0.37513 0.5079 0.80066 0.0
H598 H 0.36729 0.54269 0.83646 0.0
H599 H 0.44359 0.62697 0.79282 0.0
C600 C 0.4585 0.5497 0.71138 0.0
C601 C 0.44429 0.51731 0.70195 0.0
C602 C 0.42053 0.49295 0.72021 0.0
C603 C 0.40974 0.50085 0.74645 0.0
C604 C 0.42304 0.53316 0.75413 0.0
C605 C 0.44725 0.55717 0.73739 0.0
C606 C 0.45599 0.59011 0.74927 0.0
C607 C 0.49087 0.6081 0.76073 0.0
C608 C 0.45013 0.6097 0.72529 0.0
C609 C 0.43244 0.58089 0.77495 0.0
C610 C 0.41377 0.54794 0.77747 0.0
C611 C 0.38984 0.53373 0.79912 0.0
C612 C 0.38545 0.55372 0.81922 0.0
C613 C 0.40479 0.58759 0.81746 0.0
C614 C 0.4283 0.60121 0.79472 0.0
H615 H 0.93067 0.48394 0.88268 0.0
H616 H 0.9621 0.41381 0.88897 0.0
H617 H 0.92773 0.39004 0.93336 0.0
H618 H 0.92195 0.49213 0.9653 0.0
H619 H 0.8867 0.49563 0.95976 0.0
H620 H 0.91743 0.51 0.93134 0.0
H621 H 0.87465 0.47416 0.89172 0.0
H622 H 0.84395 0.45903 0.92011 0.0
H623 H 0.85082 0.43154 0.89801 0.0
H624 H 0.8846 0.3691 0.97195 0.0
H625 H 0.84108 0.35705 0.00776 0.0
H626 H 0.83714 0.44061 0.97669 0.0
C627 C 0.93101 0.46417 0.89397 0.0
C628 C 0.94929 0.45092 0.8825 0.0
C629 C 0.94888 0.42485 0.89769 0.0
C630 C 0.92912 0.41092 0.92273 0.0
C631 C 0.91014 0.42349 0.93243 0.0
C632 C 0.91139 0.44996 0.91898 0.0
C633 C 0.88727 0.45768 0.93285 0.0
C634 C 0.90436 0.49083 0.94824 0.0
C635 C 0.86273 0.45546 0.90926 0.0
C636 C 0.87178 0.43096 0.95573 0.0
C637 C 0.88529 0.41149 0.95501 0.0
C638 C 0.87416 0.38446 0.97309 0.0
C639 C 0.8492 0.37767 -0.00682 0.0
C640 C 0.8357 0.39794 -0.00484 0.0
C641 C 0.84696 0.42469 0.97582 0.0
H642 H 0.47971 0.92493 0.03954 0.0
H643 H 0.58133 0.96672 0.05933 0.0
H644 H 0.56826 0.93885 0.10794 0.0
H645 H 0.45124 0.92 0.11939 0.0
H646 H 0.41601 0.88164 0.11205 0.0
H647 H 0.43323 0.91085 0.08236 0.0
H648 H 0.43716 0.8686 0.04907 0.0
H649 H 0.42088 0.83955 0.07884 0.0
H650 H 0.45922 0.84997 0.06275 0.0
H651 H 0.54495 0.89917 0.1494 0.0
H652 H 0.51246 0.85507 0.18436 0.0
H653 H 0.42593 0.83661 0.13648 0.0
C654 C 0.49923 0.92903 0.0545 0.0
C655 C 0.53155 0.94813 0.04551 0.0
C656 C 0.55637 0.95282 0.0658 0.0
C657 C 0.54919 0.93676 0.09342 0.0
C658 C 0.51712 0.91622 0.10049 0.0
C659 C 0.49247 0.91274 0.08191 0.0
C660 C 0.46023 0.88659 0.09313 0.0
C661 C 0.43892 0.90062 0.10229 0.0
C662 C 0.44341 0.8596 0.06955 0.0
C663 C 0.47074 0.87521 0.12032 0.0
C664 C 0.5036 0.89279 0.1243 0.0
C665 C 0.51912 0.88562 0.14689 0.0
C666 C 0.50045 0.86031 0.16646 0.0
C667 C 0.46661 0.84236 0.16323 0.0
C668 C 0.45171 0.84987 0.13964 0.0
H669 H 0.55688 0.45713 0.20473 0.0
H670 H 0.60734 0.5564 0.23529 0.0
H671 H 0.61705 0.53939 0.2841 0.0
H672 H 0.52651 0.41819 0.28201 0.0
H673 H 0.53429 0.38629 0.27236 0.0
H674 H 0.52216 0.40443 0.24353 0.0
H675 H 0.57262 0.41652 0.21282 0.0
H676 H 0.58555 0.39945 0.2418 0.0
H677 H 0.61176 0.44015 0.22976 0.0
H678 H 0.63447 0.51533 0.3229 0.0
H679 H 0.65111 0.48363 0.35354 0.0
H680 H 0.59136 0.39936 0.2988 0.0
C681 C 0.56892 0.47517 0.22207 0.0
C682 C 0.58139 0.50818 0.21584 0.0
C683 C 0.59691 0.53093 0.23931 0.0
C684 C 0.6029 0.52152 0.26723 0.0
C685 C 0.59304 0.48926 0.27151 0.0
C686 C 0.57567 0.4662 0.24992 0.0
C687 C 0.57198 0.43399 0.25848 0.0
C688 C 0.53663 0.40926 0.26446 0.0
C689 C 0.58634 0.42185 0.23428 0.0
C690 C 0.59158 0.44308 0.28733 0.0
C691 C 0.60317 0.47502 0.29451 0.0
C692 C 0.62477 0.49007 0.31808 0.0
C693 C 0.63443 0.47194 0.33508 0.0
C694 C 0.62244 0.43902 0.32857 0.0
C695 C 0.60051 0.42436 0.30451 0.0
H696 H 0.47768 0.92329 0.42841 0.0
H697 H 0.42461 0.96945 0.39896 0.0
H698 H 0.4094 0.9373 0.35209 0.0
H699 H 0.50514 0.91428 0.35243 0.0
H700 H 0.50037 0.87567 0.3617 0.0
H701 H 0.51068 0.90558 0.39075 0.0
H702 H 0.46143 0.86488 0.42157 0.0
H703 H 0.45049 0.8351 0.39236 0.0
H704 H 0.42203 0.84668 0.40471 0.0
H705 H 0.3938 0.89525 0.31238 0.0
H706 H 0.38503 0.85133 0.27808 0.0
H707 H 0.44845 0.83214 0.33297 0.0
C708 C 0.46361 0.92725 0.41167 0.0
C709 C 0.45249 0.94901 0.41718 0.0
C710 C 0.43389 0.95338 0.39494 0.0
C711 C 0.42485 0.93497 0.36841 0.0
C712 C 0.43486 0.91256 0.36442 0.0
C713 C 0.45439 0.90908 0.3851 0.0
C714 C 0.46047 0.88216 0.37609 0.0
C715 C 0.49629 0.89521 0.36986 0.0
C716 C 0.44785 0.85565 0.40011 0.0
C717 C 0.44073 0.87058 0.34741 0.0
C718 C 0.42609 0.88841 0.3412 0.0
C719 C 0.40553 0.88145 0.31671 0.0
C720 C 0.40051 0.85621 0.29749 0.0
C721 C 0.41613 0.83826 0.30271 0.0
C722 C 0.43623 0.84542 0.32827 0.0
H723 H 0.50984 0.413 0.55846 0.0
H724 H 0.59242 0.48652 0.60688 0.0
H725 H 0.62849 0.48266 0.5696 0.0
H726 H 0.54166 0.36422 0.54326 0.0
H727 H 0.5247 0.35175 0.50605 0.0
H728 H 0.50488 0.36342 0.53345 0.0
H729 H 0.50667 0.40641 0.4972 0.0
H730 H 0.52558 0.39418 0.46926 0.0
H731 H 0.54443 0.4356 0.48102 0.0
H732 H 0.65529 0.46645 0.53091 0.0
H733 H 0.67157 0.44399 0.48906 0.0
H734 H 0.57133 0.37996 0.46621 0.0
C735 C 0.53546 0.42923 0.56035 0.0
C736 C 0.54851 0.45051 0.58505 0.0
C737 C 0.58216 0.47053 0.5877 0.0
C738 C 0.60274 0.46829 0.56682 0.0
C739 C 0.58919 0.4459 0.54353 0.0
C740 C 0.55634 0.42712 0.53982 0.0
C741 C 0.54806 0.40361 0.51393 0.0
C742 C 0.52868 0.36869 0.52484 0.0
C743 C 0.53013 0.41037 0.48886 0.0
C744 C 0.58137 0.41177 0.50402 0.0
C745 C 0.60471 0.4362 0.52141 0.0
C746 C 0.63725 0.44756 0.51689 0.0
C747 C 0.64623 0.43444 0.4932 0.0
C748 C 0.62275 0.41018 0.47431 0.0
C749 C 0.58988 0.39829 0.48032 0.0
H750 H 0.14168 0.585 0.75107 0.0
H751 H 0.0975 0.48429 0.72653 0.0
H752 H 0.12846 0.49904 0.67932 0.0
H753 H 0.14618 0.61552 0.67315 0.0
H754 H 0.18437 0.65099 0.68033 0.0
H755 H 0.15603 0.63264 0.71053 0.0
H756 H 0.19937 0.6285 0.74177 0.0
H757 H 0.22766 0.64625 0.71151 0.0
H758 H 0.21846 0.60766 0.72612 0.0
H759 H 0.16912 0.52371 0.63891 0.0
H760 H 0.21166 0.55749 0.60314 0.0
H761 H 0.2286 0.64286 0.65226 0.0
C762 C 0.13797 0.56617 0.73534 0.0
C763 C 0.11701 0.53353 0.74227 0.0
C764 C 0.11294 0.50946 0.72137 0.0
C765 C 0.13065 0.51759 0.69465 0.0
C766 C 0.15199 0.54989 0.68903 0.0
C767 C 0.15526 0.57389 0.70841 0.0
C768 C 0.18073 0.60666 0.69745 0.0
C769 C 0.16594 0.62769 0.68991 0.0
C770 C 0.20817 0.62322 0.72059 0.0
C771 C 0.19179 0.5972 0.66927 0.0
C772 C 0.175 0.56431 0.66503 0.0
C773 C 0.18208 0.54954 0.64166 0.0
C774 C 0.20651 0.56895 0.62164 0.0
C775 C 0.22338 0.60281 0.62488 0.0
C776 C 0.21593 0.61706 0.6491 0.0
H777 H 0.58025 0.11972 0.90737 0.0
H778 H 0.65062 0.09078 0.88848 0.0
H779 H 0.66816 0.1254 0.84354 0.0
H780 H 0.56145 0.12811 0.82743 0.0
H781 H 0.55775 0.16272 0.83627 0.0
H782 H 0.5476 0.13194 0.86409 0.0
H783 H 0.58746 0.17497 0.90153 0.0
H784 H 0.5983 0.20577 0.87367 0.0
H785 H 0.62888 0.19979 0.89088 0.0
H786 H 0.68323 0.16873 0.80535 0.0
H787 H 0.69028 0.2129 0.7723 0.0
H788 H 0.61017 0.21384 0.81622 0.0
C789 C 0.59873 0.12002 0.89328 0.0
C790 C 0.61393 0.10242 0.90127 0.0
C791 C 0.63821 0.10356 0.88245 0.0
C792 C 0.64855 0.1234 0.85705 0.0
C793 C 0.63415 0.14166 0.85068 0.0
C794 C 0.60933 0.13968 0.86789 0.0
C795 C 0.59922 0.16321 0.85728 0.0
C796 C 0.56444 0.14543 0.84556 0.0
C797 C 0.60375 0.18736 0.88233 0.0
C798 C 0.62281 0.17933 0.83192 0.0
C799 C 0.64273 0.16655 0.82848 0.0
C800 C 0.66745 0.17859 0.80749 0.0
C801 C 0.67143 0.20389 0.78901 0.0
C802 C 0.65072 0.21679 0.7916 0.0
C803 C 0.62627 0.2044 0.81355 0.0
H804 H 0.48197 0.58744 0.08884 0.0
H805 H 0.5812 0.63526 0.05964 0.0
H806 H 0.56516 0.64794 0.01103 0.0
H807 H 0.44515 0.55493 0.01444 0.0
H808 H 0.41219 0.56182 0.02144 0.0
H809 H 0.4311 0.55333 0.05237 0.0
H810 H 0.44162 0.60585 0.07885 0.0
H811 H 0.42325 0.6148 0.04782 0.0
H812 H 0.46364 0.64349 0.0593 0.0
H813 H 0.53942 0.66051 0.96821 0.0
H814 H 0.50493 0.6676 0.93159 0.0
H815 H 0.42228 0.61194 -0.01119 0.0
C816 C 0.50022 0.60005 0.07197 0.0
C817 C 0.53281 0.6102 0.07794 0.0
C818 C 0.55602 0.62672 0.05536 0.0
C819 C 0.54718 0.63429 0.02779 0.0
C820 C 0.51504 0.625 0.02314 0.0
C821 C 0.49183 0.60782 0.0444 0.0
C822 C 0.45921 0.60197 0.03436 0.0
C823 C 0.43552 0.56586 0.03041 0.0
C824 C 0.44618 0.61746 0.05639 0.0
C825 C 0.46782 0.61906 0.00435 0.0
C826 C 0.50014 0.63217 -0.00167 0.0
C827 C 0.514 0.65003 0.97248 0.0
C828 C 0.4942 0.65408 0.95191 0.0
C829 C 0.46083 0.64027 0.95725 0.0
C830 C 0.44763 0.62271 -0.01601 0.0
H831 H 0.95164 0.53872 0.22592 0.0
H832 H 0.95442 0.4607 0.27144 0.0
H833 H 0.91798 0.42258 0.23285 0.0
H834 H 0.87203 0.49891 0.21236 0.0
H835 H 0.87265 0.51533 0.17574 0.0
H836 H 0.90463 0.5379 0.20215 0.0
H837 H 0.9468 0.54201 0.16356 0.0
H838 H 0.91505 0.52032 0.13653 0.0
H839 H 0.94215 0.50601 0.1461 0.0
H840 H 0.87446 0.39219 0.19513 0.0
H841 H 0.83118 0.37193 0.15708 0.0
H842 H 0.85563 0.46986 0.13677 0.0
C843 C 0.94597 0.51392 0.22664 0.0
C844 C 0.95641 0.50259 0.25094 0.0
C845 C 0.94726 0.46975 0.25238 0.0
C846 C 0.92641 0.44798 0.23074 0.0
C847 C 0.915 0.45957 0.20793 0.0
C848 C 0.92491 0.49187 0.20537 0.0
C849 C 0.90644 0.4976 0.18082 0.0
C850 C 0.88785 0.51336 0.19355 0.0
C851 C 0.92895 0.51767 0.15523 0.0
C852 C 0.88387 0.46343 0.17072 0.0
C853 C 0.88935 0.44189 0.18647 0.0
C854 C 0.87034 0.40887 0.18223 0.0
C855 C 0.84559 0.39759 0.16076 0.0
C856 C 0.83997 0.41928 0.14386 0.0
C857 C 0.85931 0.45262 0.1492 0.0
loop_
_geom_bond_atom_site_label_1
_geom_bond_atom_site_label_2
_geom_bond_distance
_geom_bond_site_symmetry_2
_ccdc_geom_bond_type
H0 C8 0.930 . S
H1 C11 0.930 . S
H2 C13 0.930 . S
H3 C14 0.970 . S
H4 C14 0.970 . S
H5 C16 0.930 . S
H6 C18 0.930 . S
H7 C20 0.930 . S
C8 H0 0.930 . S
C8 C9 1.382 . S
C8 C10 1.426 . S
C9 C8 1.382 . S
C9 C13 1.389 . S
C10 C8 1.426 . S
C10 C11 1.375 . S
C10 C14 1.532 1_655 S
C11 H1 0.930 . S
C11 C10 1.375 . S
C11 C12 1.416 . S
C12 C11 1.416 . S
C12 C13 1.371 . S
C13 H2 0.930 . S
C13 C9 1.389 . S
C13 C12 1.371 . S
C14 H3 0.970 . S
C14 H4 0.970 . S
C14 C10 1.532 1_455 S
C14 C15 1.499 . S
C15 C14 1.499 . S
C15 C16 1.370 . S
C15 C20 1.415 . S
C16 H5 0.930 . S
C16 C15 1.370 . S
C16 C17 1.407 . S
C17 C16 1.407 . S
C17 C18 1.365 . S
C18 H6 0.930 . S
C18 C17 1.365 . S
C18 C19 1.393 . S
C19 C18 1.393 . S
C19 C20 1.387 . S
C20 H7 0.930 . S
C20 C15 1.415 . S
C20 C19 1.387 . S
H21 C29 0.930 . S
H22 C32 0.930 . S
H23 C34 0.930 . S
H24 C35 0.970 . S
H25 C35 0.970 . S
H26 C37 0.930 . S
H27 C39 0.930 . S
H28 C41 0.930 . S
C29 H21 0.930 . S
C29 C30 1.382 . S
C29 C31 1.426 . S
C30 C29 1.382 . S
C30 C34 1.389 . S
C31 C29 1.426 . S
C31 C32 1.375 . S
C31 C35 1.532 1_565 S
C32 H22 0.930 . S
C32 C31 1.375 . S
C32 C33 1.416 . S
C33 C32 1.416 . S
C33 C34 1.371 . S
C34 H23 0.930 . S
C34 C30 1.389 . S
C34 C33 1.371 . S
C35 H24 0.970 . S
C35 H25 0.970 . S
C35 C31 1.532 1_545 S
C35 C36 1.499 . S
C36 C35 1.499 . S
C36 C37 1.370 . S
C36 C41 1.415 . S
C37 H26 0.930 . S
C37 C36 1.370 . S
C37 C38 1.407 . S
C38 C37 1.407 . S
C38 C39 1.365 . S
C39 H27 0.930 . S
C39 C38 1.365 . S
C39 C40 1.393 . S
C40 C39 1.393 . S
C40 C41 1.387 . S
C41 H28 0.930 . S
C41 C36 1.415 . S
C41 C40 1.387 . S
H42 C50 0.930 . S
H43 C53 0.930 . S
H44 C55 0.930 . S
H45 C56 0.970 . S
H46 C56 0.970 . S
H47 C58 0.930 . S
H48 C60 0.930 . S
H49 C62 0.930 . S
C50 H42 0.930 . S
C50 C51 1.382 . S
C50 C52 1.426 . S
C51 C50 1.382 . S
C51 C55 1.389 . S
C52 C50 1.426 . S
C52 C53 1.375 . S
C52 C56 1.532 . S
C53 H43 0.930 . S
C53 C52 1.375 . S
C53 C54 1.416 . S
C54 C53 1.416 . S
C54 C55 1.371 . S
C55 H44 0.930 . S
C55 C51 1.389 . S
C55 C54 1.371 . S
C56 H45 0.970 . S
C56 H46 0.970 . S
C56 C52 1.532 . S
C56 C57 1.499 . S
C57 C56 1.499 . S
C57 C58 1.370 . S
C57 C62 1.415 . S
C58 H47 0.930 . S
C58 C57 1.370 . S
C58 C59 1.407 . S
C59 C58 1.407 . S
C59 C60 1.365 . S
C60 H48 0.930 . S
C60 C59 1.365 . S
C60 C61 1.393 . S
C61 C60 1.393 . S
C61 C62 1.387 . S
C62 H49 0.930 . S
C62 C57 1.415 . S
C62 C61 1.387 . S
H63 C71 0.930 . S
H64 C74 0.930 . S
H65 C76 0.930 . S
H66 C77 0.970 . S
H67 C77 0.970 . S
H68 C79 0.930 . S
H69 C81 0.930 . S
H70 C83 0.930 . S
C71 H63 0.930 . S
C71 C72 1.382 . S
C71 C73 1.426 . S
C72 C71 1.382 . S
C72 C76 1.389 . S
C73 C71 1.426 . S
C73 C74 1.375 . S
C73 C77 1.532 1_655 S
C74 H64 0.930 . S
C74 C73 1.375 . S
C74 C75 1.416 . S
C75 C74 1.416 . S
C75 C76 1.371 . S
C76 H65 0.930 . S
C76 C72 1.389 . S
C76 C75 1.371 . S
C77 H66 0.970 . S
C77 H67 0.970 . S
C77 C73 1.532 1_455 S
C77 C78 1.499 . S
C78 C77 1.499 . S
C78 C79 1.370 . S
C78 C83 1.415 . S
C79 H68 0.930 . S
C79 C78 1.370 . S
C79 C80 1.407 . S
C80 C79 1.407 . S
C80 C81 1.365 . S
C81 H69 0.930 . S
C81 C80 1.365 . S
C81 C82 1.393 . S
C82 C81 1.393 . S
C82 C83 1.387 . S
C83 H70 0.930 . S
C83 C78 1.415 . S
C83 C82 1.387 . S
H84 C92 0.930 . S
H85 C95 0.930 . S
H86 C97 0.930 . S
H87 C98 0.970 1_554 S
H88 C98 0.970 . S
H89 C100 0.930 . S
H90 C102 0.930 . S
H91 C104 0.930 . S
C92 H84 0.930 . S
C92 C93 1.380 1_554 S
C92 C94 1.426 1_554 S
C93 C92 1.380 1_556 S
C93 C97 1.398 . S
C94 C92 1.426 1_556 S
C94 C95 1.375 . S
C94 C98 1.532 . S
C95 H85 0.930 . S
C95 C94 1.375 . S
C95 C96 1.416 . S
C96 C95 1.416 . S
C96 C97 1.371 . S
C97 H86 0.930 . S
C97 C93 1.398 . S
C97 C96 1.371 . S
C98 H87 0.970 1_556 S
C98 H88 0.970 . S
C98 C94 1.532 . S
C98 C99 1.502 1_545 S
C99 C98 1.502 1_565 S
C99 C100 1.358 1_556 S
C99 C104 1.425 . S
C100 H89 0.930 . S
C100 C99 1.358 1_554 S
C100 C101 1.407 . S
C101 C100 1.407 . S
C101 C102 1.365 . S
C102 H90 0.930 . S
C102 C101 1.365 . S
C102 C103 1.393 1_554 S
C103 C102 1.393 1_556 S
C103 C104 1.387 . S
C104 H91 0.930 . S
C104 C99 1.425 . S
C104 C103 1.387 . S
H105 C113 0.930 . S
H106 C116 0.930 . S
H107 C118 0.930 . S
H108 C119 0.970 . S
H109 C119 0.970 . S
H110 C121 0.930 . S
H111 C123 0.930 . S
H112 C125 0.930 . S
C113 H105 0.930 . S
C113 C114 1.382 . S
C113 C115 1.426 . S
C114 C113 1.382 . S
C114 C118 1.389 . S
C115 C113 1.426 . S
C115 C116 1.375 . S
C115 C119 1.532 . S
C116 H106 0.930 . S
C116 C115 1.375 . S
C116 C117 1.416 . S
C117 C116 1.416 . S
C117 C118 1.371 . S
C118 H107 0.930 . S
C118 C114 1.389 . S
C118 C117 1.371 . S
C119 H108 0.970 . S
C119 H109 0.970 . S
C119 C115 1.532 . S
C119 C120 1.499 . S
C120 C119 1.499 . S
C120 C121 1.370 . S
C120 C125 1.415 . S
C121 H110 0.930 . S
C121 C120 1.370 . S
C121 C122 1.407 . S
C122 C121 1.407 . S
C122 C123 1.365 . S
C123 H111 0.930 . S
C123 C122 1.365 . S
C123 C124 1.393 . S
C124 C123 1.393 . S
C124 C125 1.387 . S
C125 H112 0.930 . S
C125 C120 1.415 . S
C125 C124 1.387 . S
O126 Cd127 2.223 . S
O126 C134 1.315 . S
Cd127 O126 2.223 . S
Cd127 O130 2.297 . S
Cd127 O131 2.439 . S
Cd127 O137 2.240 . S
Cd128 O129 2.240 . S
Cd128 O136 2.223 . S
Cd128 O138 2.297 . S
Cd128 O139 2.439 . S
O129 Cd128 2.240 . S
O129 C134 1.279 . S
O130 Cd127 2.297 . S
O130 C132 1.247 . S
O131 Cd127 2.439 . S
O131 C132 1.208 . S
C132 O130 1.247 . S
C132 O131 1.208 . S
C133 O138 1.247 . S
C133 O139 1.208 . S
C134 O126 1.315 . S
C134 O129 1.279 . S
C135 O136 1.315 . S
C135 O137 1.279 . S
O136 Cd128 2.223 . S
O136 C135 1.315 . S
O137 Cd127 2.240 . S
O137 C135 1.279 . S
O138 Cd128 2.297 . S
O138 C133 1.247 . S
O139 Cd128 2.439 . S
O139 C133 1.208 . S
O140 Cd141 2.223 . S
O140 C148 1.315 . S
Cd141 O140 2.223 . S
Cd141 O144 2.297 . S
Cd141 O145 2.439 . S
Cd141 O151 2.240 . S
Cd142 O143 2.240 . S
Cd142 O150 2.223 . S
Cd142 O152 2.297 . S
Cd142 O153 2.439 . S
O143 Cd142 2.240 . S
O143 C148 1.279 . S
O144 Cd141 2.297 . S
O144 C146 1.247 . S
O145 Cd141 2.439 . S
O145 C146 1.208 . S
C146 O144 1.247 . S
C146 O145 1.208 . S
C147 O152 1.247 . S
C147 O153 1.208 . S
C148 O140 1.315 . S
C148 O143 1.279 . S
C149 O150 1.315 . S
C149 O151 1.279 . S
O150 Cd142 2.223 . S
O150 C149 1.315 . S
O151 Cd141 2.240 . S
O151 C149 1.279 . S
O152 Cd142 2.297 . S
O152 C147 1.247 . S
O153 Cd142 2.439 . S
O153 C147 1.208 . S
O154 Cd155 2.223 . S
O154 C162 1.315 . S
Cd155 O154 2.223 . S
Cd155 O158 2.297 . S
Cd155 O159 2.439 . S
Cd155 O165 2.240 . S
Cd156 O157 2.240 . S
Cd156 O164 2.223 . S
Cd156 O166 2.297 . S
Cd156 O167 2.439 . S
O157 Cd156 2.240 . S
O157 C162 1.279 . S
O158 Cd155 2.297 . S
O158 C160 1.247 . S
O159 Cd155 2.439 . S
O159 C160 1.208 . S
C160 O158 1.247 . S
C160 O159 1.208 . S
C161 O166 1.247 . S
C161 O167 1.208 . S
C162 O154 1.315 . S
C162 O157 1.279 . S
C163 O164 1.315 . S
C163 O165 1.279 . S
O164 Cd156 2.223 . S
O164 C163 1.315 . S
O165 Cd155 2.240 . S
O165 C163 1.279 . S
O166 Cd156 2.297 . S
O166 C161 1.247 . S
O167 Cd156 2.439 . S
O167 C161 1.208 . S
O168 Cd169 2.223 . S
O168 C176 1.315 . S
Cd169 O168 2.223 . S
Cd169 O172 2.297 . S
Cd169 O173 2.439 . S
Cd169 O179 2.240 . S
Cd170 O171 2.240 . S
Cd170 O178 2.223 . S
Cd170 O180 2.297 . S
Cd170 O181 2.439 . S
O171 Cd170 2.240 . S
O171 C176 1.279 . S
O172 Cd169 2.297 . S
O172 C174 1.247 . S
O173 Cd169 2.439 . S
O173 C174 1.208 . S
C174 O172 1.247 . S
C174 O173 1.208 . S
C175 O180 1.247 . S
C175 O181 1.208 . S
C176 O168 1.315 . S
C176 O171 1.279 . S
C177 O178 1.315 . S
C177 O179 1.279 . S
O178 Cd170 2.223 . S
O178 C177 1.315 . S
O179 Cd169 2.240 . S
O179 C177 1.279 . S
O180 Cd170 2.297 . S
O180 C175 1.247 . S
O181 Cd170 2.439 . S
O181 C175 1.208 . S
O182 Cd183 2.223 . S
O182 C190 1.315 . S
Cd183 O182 2.223 . S
Cd183 O186 2.297 . S
Cd183 O187 2.439 . S
Cd183 O193 2.240 . S
Cd184 O185 2.240 . S
Cd184 O192 2.223 . S
Cd184 O194 2.297 . S
Cd184 O195 2.439 . S
O185 Cd184 2.240 . S
O185 C190 1.279 . S
O186 Cd183 2.297 . S
O186 C188 1.247 . S
O187 Cd183 2.439 . S
O187 C188 1.208 . S
C188 O186 1.247 . S
C188 O187 1.208 . S
C189 O194 1.247 . S
C189 O195 1.208 . S
C190 O182 1.315 . S
C190 O185 1.279 . S
C191 O192 1.315 . S
C191 O193 1.279 . S
O192 Cd184 2.223 . S
O192 C191 1.315 . S
O193 Cd183 2.240 . S
O193 C191 1.279 . S
O194 Cd184 2.297 . S
O194 C189 1.247 . S
O195 Cd184 2.439 . S
O195 C189 1.208 . S
O196 Cd197 2.223 . S
O196 C204 1.315 . S
Cd197 O196 2.223 . S
Cd197 O200 2.297 . S
Cd197 O201 2.439 . S
Cd197 O207 2.240 . S
Cd198 O199 2.240 . S
Cd198 O206 2.223 . S
Cd198 O208 2.297 . S
Cd198 O209 2.439 . S
O199 Cd198 2.240 . S
O199 C204 1.279 . S
O200 Cd197 2.297 . S
O200 C202 1.247 . S
O201 Cd197 2.439 . S
O201 C202 1.208 . S
C202 O200 1.247 . S
C202 O201 1.208 . S
C203 O208 1.247 . S
C203 O209 1.208 . S
C204 O196 1.315 . S
C204 O199 1.279 . S
C205 O206 1.315 . S
C205 O207 1.279 . S
O206 Cd198 2.223 . S
O206 C205 1.315 . S
O207 Cd197 2.240 . S
O207 C205 1.279 . S
O208 Cd198 2.297 . S
O208 C203 1.247 . S
O209 Cd198 2.439 . S
O209 C203 1.208 . S
H210 C222 0.930 . S
H211 C224 0.930 . S
H212 C225 0.930 . S
H213 C229 0.959 . S
H214 C229 0.959 . S
H215 C229 0.961 . S
H216 C230 0.960 . S
H217 C230 0.961 . S
H218 C230 0.959 . S
H219 C233 0.929 . S
H220 C234 0.931 . S
H221 C236 0.930 . S
C222 H210 0.930 . S
C222 C223 1.399 . S
C222 C227 1.399 . S
C223 C222 1.399 . S
C223 C224 1.376 . S
C224 H211 0.930 . S
C224 C223 1.376 . S
C224 C225 1.388 . S
C225 H212 0.930 . S
C225 C224 1.388 . S
C225 C226 1.390 . S
C226 C225 1.390 . S
C226 C227 1.394 . S
C226 C232 1.465 . S
C227 C222 1.399 . S
C227 C226 1.394 . S
C227 C228 1.516 . S
C228 C227 1.516 . S
C228 C229 1.502 . S
C228 C230 1.561 . S
C228 C231 1.526 . S
C229 H213 0.959 . S
C229 H214 0.959 . S
C229 H215 0.961 . S
C229 C228 1.502 . S
C230 H216 0.960 . S
C230 H217 0.961 . S
C230 H218 0.959 . S
C230 C228 1.561 . S
C231 C228 1.526 . S
C231 C232 1.396 . S
C231 C236 1.390 . S
C232 C226 1.465 . S
C232 C231 1.396 . S
C232 C233 1.399 . S
C233 H219 0.929 . S
C233 C232 1.399 . S
C233 C234 1.385 . S
C234 H220 0.931 . S
C234 C233 1.385 . S
C234 C235 1.389 . S
C235 C234 1.389 . S
C235 C236 1.387 . S
C236 H221 0.930 . S
C236 C231 1.390 . S
C236 C235 1.387 . S
H237 C249 0.930 . S
H238 C251 0.930 . S
H239 C252 0.930 . S
H240 C256 0.959 . S
H241 C256 0.959 . S
H242 C256 0.961 . S
H243 C257 0.960 . S
H244 C257 0.961 . S
H245 C257 0.959 . S
H246 C260 0.929 . S
H247 C261 0.931 . S
H248 C263 0.930 . S
C249 H237 0.930 . S
C249 C250 1.399 . S
C249 C254 1.399 . S
C250 C249 1.399 . S
C250 C251 1.376 . S
C251 H238 0.930 . S
C251 C250 1.376 . S
C251 C252 1.388 . S
C252 H239 0.930 . S
C252 C251 1.388 . S
C252 C253 1.390 . S
C253 C252 1.390 . S
C253 C254 1.394 . S
C253 C259 1.465 . S
C254 C249 1.399 . S
C254 C253 1.394 . S
C254 C255 1.516 . S
C255 C254 1.516 . S
C255 C256 1.502 . S
C255 C257 1.561 . S
C255 C258 1.526 . S
C256 H240 0.959 . S
C256 H241 0.959 . S
C256 H242 0.961 . S
C256 C255 1.502 . S
C257 H243 0.960 . S
C257 H244 0.961 . S
C257 H245 0.959 . S
C257 C255 1.561 . S
C258 C255 1.526 . S
C258 C259 1.396 . S
C258 C263 1.390 . S
C259 C253 1.465 . S
C259 C258 1.396 . S
C259 C260 1.399 . S
C260 H246 0.929 . S
C260 C259 1.399 . S
C260 C261 1.385 . S
C261 H247 0.931 . S
C261 C260 1.385 . S
C261 C262 1.389 . S
C262 C261 1.389 . S
C262 C263 1.387 . S
C263 H248 0.930 . S
C263 C258 1.390 . S
C263 C262 1.387 . S
H264 C276 0.930 . S
H265 C278 0.930 . S
H266 C279 0.930 . S
H267 C283 0.959 . S
H268 C283 0.959 . S
H269 C283 0.961 . S
H270 C284 0.960 . S
H271 C284 0.961 . S
H272 C284 0.959 . S
H273 C287 0.929 . S
H274 C288 0.931 . S
H275 C290 0.930 . S
C276 H264 0.930 . S
C276 C277 1.399 . S
C276 C281 1.399 . S
C277 C276 1.399 . S
C277 C278 1.376 . S
C278 H265 0.930 . S
C278 C277 1.376 . S
C278 C279 1.388 . S
C279 H266 0.930 . S
C279 C278 1.388 . S
C279 C280 1.390 . S
C280 C279 1.390 . S
C280 C281 1.394 . S
C280 C286 1.465 . S
C281 C276 1.399 . S
C281 C280 1.394 . S
C281 C282 1.516 . S
C282 C281 1.516 . S
C282 C283 1.502 . S
C282 C284 1.561 . S
C282 C285 1.526 . S
C283 H267 0.959 . S
C283 H268 0.959 . S
C283 H269 0.961 . S
C283 C282 1.502 . S
C284 H270 0.960 . S
C284 H271 0.961 . S
C284 H272 0.959 . S
C284 C282 1.561 . S
C285 C282 1.526 . S
C285 C286 1.396 . S
C285 C290 1.390 . S
C286 C280 1.465 . S
C286 C285 1.396 . S
C286 C287 1.399 . S
C287 H273 0.929 . S
C287 C286 1.399 . S
C287 C288 1.385 . S
C288 H274 0.931 . S
C288 C287 1.385 . S
C288 C289 1.389 . S
C289 C288 1.389 . S
C289 C290 1.387 . S
C290 H275 0.930 . S
C290 C285 1.390 . S
C290 C289 1.387 . S
H291 C303 0.930 . S
H292 C305 0.930 . S
H293 C306 0.930 . S
H294 C310 0.959 . S
H295 C310 0.959 . S
H296 C310 0.961 . S
H297 C311 0.960 . S
H298 C311 0.961 . S
H299 C311 0.959 . S
H300 C314 0.929 . S
H301 C315 0.931 . S
H302 C317 0.930 . S
C303 H291 0.930 . S
C303 C304 1.399 . S
C303 C308 1.399 . S
C304 C303 1.399 . S
C304 C305 1.376 . S
C305 H292 0.930 . S
C305 C304 1.376 . S
C305 C306 1.388 . S
C306 H293 0.930 . S
C306 C305 1.388 . S
C306 C307 1.390 . S
C307 C306 1.390 . S
C307 C308 1.394 . S
C307 C313 1.465 . S
C308 C303 1.399 . S
C308 C307 1.394 . S
C308 C309 1.516 . S
C309 C308 1.516 . S
C309 C310 1.502 . S
C309 C311 1.561 . S
C309 C312 1.526 . S
C310 H294 0.959 . S
C310 H295 0.959 . S
C310 H296 0.961 . S
C310 C309 1.502 . S
C311 H297 0.960 . S
C311 H298 0.961 . S
C311 H299 0.959 . S
C311 C309 1.561 . S
C312 C309 1.526 . S
C312 C313 1.396 . S
C312 C317 1.390 . S
C313 C307 1.465 . S
C313 C312 1.396 . S
C313 C314 1.399 . S
C314 H300 0.929 . S
C314 C313 1.399 . S
C314 C315 1.385 . S
C315 H301 0.931 . S
C315 C314 1.385 . S
C315 C316 1.389 . S
C316 C315 1.389 . S
C316 C317 1.387 . S
C317 H302 0.930 . S
C317 C312 1.390 . S
C317 C316 1.387 . S
H318 C330 0.930 1_554 S
H319 C332 0.930 . S
H320 C333 0.930 . S
H321 C337 0.959 1_556 S
H322 C337 0.959 . S
H323 C337 0.961 . S
H324 C338 0.960 . S
H325 C338 0.961 . S
H326 C338 0.946 1_556 S
H327 C341 0.929 . S
H328 C342 0.931 . S
H329 C344 0.930 . S
C330 H318 0.930 1_556 S
C330 C331 1.399 . S
C330 C335 1.399 . S
C331 C330 1.399 . S
C331 C332 1.376 . S
C332 H319 0.930 . S
C332 C331 1.376 . S
C332 C333 1.388 . S
C333 H320 0.930 . S
C333 C332 1.388 . S
C333 C334 1.390 . S
C334 C333 1.390 . S
C334 C335 1.394 . S
C334 C340 1.465 . S
C335 C330 1.399 . S
C335 C334 1.394 . S
C335 C336 1.516 . S
C336 C335 1.516 . S
C336 C337 1.502 1_556 S
C336 C338 1.561 1_556 S
C336 C339 1.526 . S
C337 H321 0.959 1_554 S
C337 H322 0.959 . S
C337 H323 0.961 . S
C337 C336 1.502 1_554 S
C338 H324 0.960 . S
C338 H325 0.961 . S
C338 H326 0.946 1_554 S
C338 C336 1.561 1_554 S
C339 C336 1.526 . S
C339 C340 1.396 . S
C339 C344 1.390 . S
C340 C334 1.465 . S
C340 C339 1.396 . S
C340 C341 1.399 . S
C341 H327 0.929 . S
C341 C340 1.399 . S
C341 C342 1.385 . S
C342 H328 0.931 . S
C342 C341 1.385 . S
C342 C343 1.389 . S
C343 C342 1.389 . S
C343 C344 1.387 . S
C344 H329 0.930 . S
C344 C339 1.390 . S
C344 C343 1.387 . S
H345 C357 0.930 . S
H346 C359 0.930 . S
H347 C360 0.930 . S
H348 C364 0.959 . S
H349 C364 0.959 . S
H350 C364 0.961 . S
H351 C365 0.960 . S
H352 C365 0.961 . S
H353 C365 0.959 . S
H354 C368 0.929 . S
H355 C369 0.931 . S
H356 C371 0.930 . S
C357 H345 0.930 . S
C357 C358 1.399 . S
C357 C362 1.399 . S
C358 C357 1.399 . S
C358 C359 1.376 . S
C359 H346 0.930 . S
C359 C358 1.376 . S
C359 C360 1.388 . S
C360 H347 0.930 . S
C360 C359 1.388 . S
C360 C361 1.390 . S
C361 C360 1.390 . S
C361 C362 1.394 . S
C361 C367 1.465 . S
C362 C357 1.399 . S
C362 C361 1.394 . S
C362 C363 1.516 . S
C363 C362 1.516 . S
C363 C364 1.502 . S
C363 C365 1.561 . S
C363 C366 1.526 . S
C364 H348 0.959 . S
C364 H349 0.959 . S
C364 H350 0.961 . S
C364 C363 1.502 . S
C365 H351 0.960 . S
C365 H352 0.961 . S
C365 H353 0.959 . S
C365 C363 1.561 . S
C366 C363 1.526 . S
C366 C367 1.396 . S
C366 C371 1.390 . S
C367 C361 1.465 . S
C367 C366 1.396 . S
C367 C368 1.399 . S
C368 H354 0.929 . S
C368 C367 1.399 . S
C368 C369 1.385 . S
C369 H355 0.931 . S
C369 C368 1.385 . S
C369 C370 1.389 . S
C370 C369 1.389 . S
C370 C371 1.387 . S
C371 H356 0.930 . S
C371 C366 1.390 . S
C371 C370 1.387 . S
H372 C384 0.930 . S
H373 C386 0.930 . S
H374 C387 0.930 . S
H375 C391 0.959 . S
H376 C391 0.959 . S
H377 C391 0.961 . S
H378 C392 0.960 . S
H379 C392 0.961 . S
H380 C392 0.959 . S
H381 C395 0.929 . S
H382 C396 0.931 . S
H383 C398 0.930 . S
C384 H372 0.930 . S
C384 C385 1.399 . S
C384 C389 1.399 . S
C385 C384 1.399 . S
C385 C386 1.376 . S
C386 H373 0.930 . S
C386 C385 1.376 . S
C386 C387 1.388 . S
C387 H374 0.930 . S
C387 C386 1.388 . S
C387 C388 1.390 . S
C388 C387 1.390 . S
C388 C389 1.394 . S
C388 C394 1.465 . S
C389 C384 1.399 . S
C389 C388 1.394 . S
C389 C390 1.516 . S
C390 C389 1.516 . S
C390 C391 1.502 . S
C390 C392 1.561 . S
C390 C393 1.526 . S
C391 H375 0.959 . S
C391 H376 0.959 . S
C391 H377 0.961 . S
C391 C390 1.502 . S
C392 H378 0.960 . S
C392 H379 0.961 . S
C392 H380 0.959 . S
C392 C390 1.561 . S
C393 C390 1.526 . S
C393 C394 1.396 . S
C393 C398 1.390 . S
C394 C388 1.465 . S
C394 C393 1.396 . S
C394 C395 1.399 . S
C395 H381 0.929 . S
C395 C394 1.399 . S
C395 C396 1.385 . S
C396 H382 0.931 . S
C396 C395 1.385 . S
C396 C397 1.389 . S
C397 C396 1.389 . S
C397 C398 1.387 . S
C398 H383 0.930 . S
C398 C393 1.390 . S
C398 C397 1.387 . S
H399 C411 0.930 . S
H400 C413 0.930 . S
H401 C414 0.930 . S
H402 C418 0.959 . S
H403 C418 0.959 . S
H404 C418 0.961 . S
H405 C419 0.960 . S
H406 C419 0.961 . S
H407 C419 0.959 . S
H408 C422 0.929 . S
H409 C423 0.931 . S
H410 C425 0.930 . S
C411 H399 0.930 . S
C411 C412 1.399 . S
C411 C416 1.399 . S
C412 C411 1.399 . S
C412 C413 1.376 . S
C413 H400 0.930 . S
C413 C412 1.376 . S
C413 C414 1.388 . S
C414 H401 0.930 . S
C414 C413 1.388 . S
C414 C415 1.390 . S
C415 C414 1.390 . S
C415 C416 1.394 . S
C415 C421 1.465 . S
C416 C411 1.399 . S
C416 C415 1.394 . S
C416 C417 1.516 . S
C417 C416 1.516 . S
C417 C418 1.502 . S
C417 C419 1.561 . S
C417 C420 1.526 . S
C418 H402 0.959 . S
C418 H403 0.959 . S
C418 H404 0.961 . S
C418 C417 1.502 . S
C419 H405 0.960 . S
C419 H406 0.961 . S
C419 H407 0.959 . S
C419 C417 1.561 . S
C420 C417 1.526 . S
C420 C421 1.396 . S
C420 C425 1.390 . S
C421 C415 1.465 . S
C421 C420 1.396 . S
C421 C422 1.399 . S
C422 H408 0.929 . S
C422 C421 1.399 . S
C422 C423 1.385 . S
C423 H409 0.931 . S
C423 C422 1.385 . S
C423 C424 1.389 . S
C424 C423 1.389 . S
C424 C425 1.387 . S
C425 H410 0.930 . S
C425 C420 1.390 . S
C425 C424 1.387 . S
H426 C438 0.930 . S
H427 C440 0.930 . S
H428 C441 0.930 . S
H429 C445 0.959 . S
H430 C445 0.959 . S
H431 C445 0.961 . S
H432 C446 0.960 . S
H433 C446 0.961 . S
H434 C446 0.959 . S
H435 C449 0.929 . S
H436 C450 0.931 . S
H437 C452 0.930 . S
C438 H426 0.930 . S
C438 C439 1.399 . S
C438 C443 1.399 . S
C439 C438 1.399 . S
C439 C440 1.376 . S
C440 H427 0.930 . S
C440 C439 1.376 . S
C440 C441 1.388 . S
C441 H428 0.930 . S
C441 C440 1.388 . S
C441 C442 1.390 . S
C442 C441 1.390 . S
C442 C443 1.394 . S
C442 C448 1.465 . S
C443 C438 1.399 . S
C443 C442 1.394 . S
C443 C444 1.516 . S
C444 C443 1.516 . S
C444 C445 1.502 . S
C444 C446 1.561 . S
C444 C447 1.526 . S
C445 H429 0.959 . S
C445 H430 0.959 . S
C445 H431 0.961 . S
C445 C444 1.502 . S
C446 H432 0.960 . S
C446 H433 0.961 . S
C446 H434 0.959 . S
C446 C444 1.561 . S
C447 C444 1.526 . S
C447 C448 1.396 . S
C447 C452 1.390 . S
C448 C442 1.465 . S
C448 C447 1.396 . S
C448 C449 1.399 . S
C449 H435 0.929 . S
C449 C448 1.399 . S
C449 C450 1.385 . S
C450 H436 0.931 . S
C450 C449 1.385 . S
C450 C451 1.389 . S
C451 C450 1.389 . S
C451 C452 1.387 . S
C452 H437 0.930 . S
C452 C447 1.390 . S
C452 C451 1.387 . S
H453 C465 0.927 1_556 S
H454 C467 0.930 . S
H455 C468 0.930 . S
H456 C472 0.959 1_554 S
H457 C472 0.959 . S
H458 C472 0.961 . S
H459 C473 0.960 . S
H460 C473 0.961 . S
H461 C473 0.959 . S
H462 C476 0.929 . S
H463 C477 0.931 . S
H464 C479 0.930 . S
C465 H453 0.927 1_554 S
C465 C466 1.400 . S
C465 C470 1.400 . S
C466 C465 1.400 . S
C466 C467 1.376 . S
C467 H454 0.930 . S
C467 C466 1.376 . S
C467 C468 1.388 . S
C468 H455 0.930 . S
C468 C467 1.388 . S
C468 C469 1.390 . S
C469 C468 1.390 . S
C469 C470 1.394 . S
C469 C475 1.465 . S
C470 C465 1.400 . S
C470 C469 1.394 . S
C470 C471 1.516 1_554 S
C471 C470 1.516 1_556 S
C471 C472 1.502 . S
C471 C473 1.561 . S
C471 C474 1.526 1_556 S
C472 H456 0.959 1_556 S
C472 H457 0.959 . S
C472 H458 0.961 . S
C472 C471 1.502 . S
C473 H459 0.960 . S
C473 H460 0.961 . S
C473 H461 0.959 . S
C473 C471 1.561 . S
C474 C471 1.526 1_554 S
C474 C475 1.396 . S
C474 C479 1.390 . S
C475 C469 1.465 . S
C475 C474 1.396 . S
C475 C476 1.399 . S
C476 H462 0.929 . S
C476 C475 1.399 . S
C476 C477 1.385 . S
C477 H463 0.931 . S
C477 C476 1.385 . S
C477 C478 1.389 . S
C478 C477 1.389 . S
C478 C479 1.387 . S
C479 H464 0.930 . S
C479 C474 1.390 . S
C479 C478 1.387 . S
H480 C492 0.930 . S
H481 C494 0.930 . S
H482 C495 0.930 . S
H483 C499 0.959 . S
H484 C499 0.959 . S
H485 C499 0.961 . S
H486 C500 0.960 . S
H487 C500 0.961 . S
H488 C500 0.959 . S
H489 C503 0.929 . S
H490 C504 0.931 . S
H491 C506 0.930 . S
C492 H480 0.930 . S
C492 C493 1.399 . S
C492 C497 1.399 . S
C493 C492 1.399 . S
C493 C494 1.376 . S
C494 H481 0.930 . S
C494 C493 1.376 . S
C494 C495 1.388 . S
C495 H482 0.930 . S
C495 C494 1.388 . S
C495 C496 1.390 . S
C496 C495 1.390 . S
C496 C497 1.394 . S
C496 C502 1.465 . S
C497 C492 1.399 . S
C497 C496 1.394 . S
C497 C498 1.516 . S
C498 C497 1.516 . S
C498 C499 1.502 . S
C498 C500 1.561 . S
C498 C501 1.526 . S
C499 H483 0.959 . S
C499 H484 0.959 . S
C499 H485 0.961 . S
C499 C498 1.502 . S
C500 H486 0.960 . S
C500 H487 0.961 . S
C500 H488 0.959 . S
C500 C498 1.561 . S
C501 C498 1.526 . S
C501 C502 1.396 . S
C501 C506 1.390 . S
C502 C496 1.465 . S
C502 C501 1.396 . S
C502 C503 1.399 . S
C503 H489 0.929 . S
C503 C502 1.399 . S
C503 C504 1.385 . S
C504 H490 0.931 . S
C504 C503 1.385 . S
C504 C505 1.389 . S
C505 C504 1.389 . S
C505 C506 1.387 . S
C506 H491 0.930 . S
C506 C501 1.390 . S
C506 C505 1.387 . S
H507 C519 0.930 . S
H508 C521 0.930 . S
H509 C522 0.930 . S
H510 C526 0.959 . S
H511 C526 0.959 . S
H512 C526 0.961 . S
H513 C527 0.960 . S
H514 C527 0.961 . S
H515 C527 0.959 . S
H516 C530 0.929 . S
H517 C531 0.931 . S
H518 C533 0.930 . S
C519 H507 0.930 . S
C519 C520 1.399 . S
C519 C524 1.399 . S
C520 C519 1.399 . S
C520 C521 1.376 . S
C521 H508 0.930 . S
C521 C520 1.376 . S
C521 C522 1.388 . S
C522 H509 0.930 . S
C522 C521 1.388 . S
C522 C523 1.390 . S
C523 C522 1.390 . S
C523 C524 1.394 . S
C523 C529 1.465 . S
C524 C519 1.399 . S
C524 C523 1.394 . S
C524 C525 1.516 . S
C525 C524 1.516 . S
C525 C526 1.502 . S
C525 C527 1.561 . S
C525 C528 1.526 . S
C526 H510 0.959 . S
C526 H511 0.959 . S
C526 H512 0.961 . S
C526 C525 1.502 . S
C527 H513 0.960 . S
C527 H514 0.961 . S
C527 H515 0.959 . S
C527 C525 1.561 . S
C528 C525 1.526 . S
C528 C529 1.396 . S
C528 C533 1.390 . S
C529 C523 1.465 . S
C529 C528 1.396 . S
C529 C530 1.399 . S
C530 H516 0.929 . S
C530 C529 1.399 . S
C530 C531 1.385 . S
C531 H517 0.931 . S
C531 C530 1.385 . S
C531 C532 1.389 . S
C532 C531 1.389 . S
C532 C533 1.387 . S
C533 H518 0.930 . S
C533 C528 1.390 . S
C533 C532 1.387 . S
H534 C546 0.930 . S
H535 C548 0.930 . S
H536 C549 0.930 . S
H537 C553 0.959 . S
H538 C553 0.959 . S
H539 C553 0.961 . S
H540 C554 0.960 . S
H541 C554 0.961 . S
H542 C554 0.959 . S
H543 C557 0.929 . S
H544 C558 0.931 . S
H545 C560 0.930 . S
C546 H534 0.930 . S
C546 C547 1.399 . S
C546 C551 1.399 . S
C547 C546 1.399 . S
C547 C548 1.376 . S
C548 H535 0.930 . S
C548 C547 1.376 . S
C548 C549 1.388 . S
C549 H536 0.930 . S
C549 C548 1.388 . S
C549 C550 1.390 . S
C550 C549 1.390 . S
C550 C551 1.394 . S
C550 C556 1.465 . S
C551 C546 1.399 . S
C551 C550 1.394 . S
C551 C552 1.516 . S
C552 C551 1.516 . S
C552 C553 1.502 . S
C552 C554 1.561 . S
C552 C555 1.526 . S
C553 H537 0.959 . S
C553 H538 0.959 . S
C553 H539 0.961 . S
C553 C552 1.502 . S
C554 H540 0.960 . S
C554 H541 0.961 . S
C554 H542 0.959 . S
C554 C552 1.561 . S
C555 C552 1.526 . S
C555 C556 1.396 . S
C555 C560 1.390 . S
C556 C550 1.465 . S
C556 C555 1.396 . S
C556 C557 1.399 . S
C557 H543 0.929 . S
C557 C556 1.399 . S
C557 C558 1.385 . S
C558 H544 0.931 . S
C558 C557 1.385 . S
C558 C559 1.389 . S
C559 C558 1.389 . S
C559 C560 1.387 . S
C560 H545 0.930 . S
C560 C555 1.390 . S
C560 C559 1.387 . S
H561 C573 0.930 . S
H562 C575 0.930 . S
H563 C576 0.930 . S
H564 C580 0.959 . S
H565 C580 0.959 . S
H566 C580 0.961 . S
H567 C581 0.960 . S
H568 C581 0.961 . S
H569 C581 0.959 . S
H570 C584 0.929 . S
H571 C585 0.931 . S
H572 C587 0.930 . S
C573 H561 0.930 . S
C573 C574 1.399 . S
C573 C578 1.399 . S
C574 C573 1.399 . S
C574 C575 1.376 . S
C575 H562 0.930 . S
C575 C574 1.376 . S
C575 C576 1.388 . S
C576 H563 0.930 . S
C576 C575 1.388 . S
C576 C577 1.390 . S
C577 C576 1.390 . S
C577 C578 1.394 . S
C577 C583 1.465 . S
C578 C573 1.399 . S
C578 C577 1.394 . S
C578 C579 1.516 . S
C579 C578 1.516 . S
C579 C580 1.502 . S
C579 C581 1.561 . S
C579 C582 1.526 . S
C580 H564 0.959 . S
C580 H565 0.959 . S
C580 H566 0.961 . S
C580 C579 1.502 . S
C581 H567 0.960 . S
C581 H568 0.961 . S
C581 H569 0.959 . S
C581 C579 1.561 . S
C582 C579 1.526 . S
C582 C583 1.396 . S
C582 C587 1.390 . S
C583 C577 1.465 . S
C583 C582 1.396 . S
C583 C584 1.399 . S
C584 H570 0.929 . S
C584 C583 1.399 . S
C584 C585 1.385 . S
C585 H571 0.931 . S
C585 C584 1.385 . S
C585 C586 1.389 . S
C586 C585 1.389 . S
C586 C587 1.387 . S
C587 H572 0.930 . S
C587 C582 1.390 . S
C587 C586 1.387 . S
H588 C600 0.930 . S
H589 C602 0.930 . S
H590 C603 0.930 . S
H591 C607 0.959 . S
H592 C607 0.959 . S
H593 C607 0.961 . S
H594 C608 0.960 . S
H595 C608 0.961 . S
H596 C608 0.959 . S
H597 C611 0.929 . S
H598 C612 0.931 . S
H599 C614 0.930 . S
C600 H588 0.930 . S
C600 C601 1.399 . S
C600 C605 1.399 . S
C601 C600 1.399 . S
C601 C602 1.376 . S
C602 H589 0.930 . S
C602 C601 1.376 . S
C602 C603 1.388 . S
C603 H590 0.930 . S
C603 C602 1.388 . S
C603 C604 1.390 . S
C604 C603 1.390 . S
C604 C605 1.394 . S
C604 C610 1.465 . S
C605 C600 1.399 . S
C605 C604 1.394 . S
C605 C606 1.516 . S
C606 C605 1.516 . S
C606 C607 1.502 . S
C606 C608 1.561 . S
C606 C609 1.526 . S
C607 H591 0.959 . S
C607 H592 0.959 . S
C607 H593 0.961 . S
C607 C606 1.502 . S
C608 H594 0.960 . S
C608 H595 0.961 . S
C608 H596 0.959 . S
C608 C606 1.561 . S
C609 C606 1.526 . S
C609 C610 1.396 . S
C609 C614 1.390 . S
C610 C604 1.465 . S
C610 C609 1.396 . S
C610 C611 1.399 . S
C611 H597 0.929 . S
C611 C610 1.399 . S
C611 C612 1.385 . S
C612 H598 0.931 . S
C612 C611 1.385 . S
C612 C613 1.389 . S
C613 C612 1.389 . S
C613 C614 1.387 . S
C614 H599 0.930 . S
C614 C609 1.390 . S
C614 C613 1.387 . S
H615 C627 0.930 . S
H616 C629 0.930 . S
H617 C630 0.930 . S
H618 C634 0.959 . S
H619 C634 0.959 . S
H620 C634 0.961 . S
H621 C635 0.960 . S
H622 C635 0.961 . S
H623 C635 0.959 . S
H624 C638 0.929 . S
H625 C639 0.931 . S
H626 C641 0.930 . S
C627 H615 0.930 . S
C627 C628 1.399 . S
C627 C632 1.399 . S
C628 C627 1.399 . S
C628 C629 1.376 . S
C629 H616 0.930 . S
C629 C628 1.376 . S
C629 C630 1.388 . S
C630 H617 0.930 . S
C630 C629 1.388 . S
C630 C631 1.390 . S
C631 C630 1.390 . S
C631 C632 1.394 . S
C631 C637 1.465 . S
C632 C627 1.399 . S
C632 C631 1.394 . S
C632 C633 1.516 . S
C633 C632 1.516 . S
C633 C634 1.502 . S
C633 C635 1.561 . S
C633 C636 1.526 . S
C634 H618 0.959 . S
C634 H619 0.959 . S
C634 H620 0.961 . S
C634 C633 1.502 . S
C635 H621 0.960 . S
C635 H622 0.961 . S
C635 H623 0.959 . S
C635 C633 1.561 . S
C636 C633 1.526 . S
C636 C637 1.396 . S
C636 C641 1.390 . S
C637 C631 1.465 . S
C637 C636 1.396 . S
C637 C638 1.399 1_556 S
C638 H624 0.929 . S
C638 C637 1.399 1_554 S
C638 C639 1.385 . S
C639 H625 0.931 . S
C639 C638 1.385 . S
C639 C640 1.389 . S
C640 C639 1.389 . S
C640 C641 1.387 1_554 S
C641 H626 0.930 . S
C641 C636 1.390 . S
C641 C640 1.387 1_556 S
H642 C654 0.930 . S
H643 C656 0.930 . S
H644 C657 0.930 . S
H645 C661 0.959 . S
H646 C661 0.959 . S
H647 C661 0.961 . S
H648 C662 0.960 . S
H649 C662 0.961 . S
H650 C662 0.959 . S
H651 C665 0.929 . S
H652 C666 0.931 . S
H653 C668 0.930 . S
C654 H642 0.930 . S
C654 C655 1.399 . S
C654 C659 1.399 . S
C655 C654 1.399 . S
C655 C656 1.376 . S
C656 H643 0.930 . S
C656 C655 1.376 . S
C656 C657 1.388 . S
C657 H644 0.930 . S
C657 C656 1.388 . S
C657 C658 1.390 . S
C658 C657 1.390 . S
C658 C659 1.394 . S
C658 C664 1.465 . S
C659 C654 1.399 . S
C659 C658 1.394 . S
C659 C660 1.516 . S
C660 C659 1.516 . S
C660 C661 1.502 . S
C660 C662 1.561 . S
C660 C663 1.526 . S
C661 H645 0.959 . S
C661 H646 0.959 . S
C661 H647 0.961 . S
C661 C660 1.502 . S
C662 H648 0.960 . S
C662 H649 0.961 . S
C662 H650 0.959 . S
C662 C660 1.561 . S
C663 C660 1.526 . S
C663 C664 1.396 . S
C663 C668 1.390 . S
C664 C658 1.465 . S
C664 C663 1.396 . S
C664 C665 1.399 . S
C665 H651 0.929 . S
C665 C664 1.399 . S
C665 C666 1.385 . S
C666 H652 0.931 . S
C666 C665 1.385 . S
C666 C667 1.389 . S
C667 C666 1.389 . S
C667 C668 1.387 . S
C668 H653 0.930 . S
C668 C663 1.390 . S
C668 C667 1.387 . S
H669 C681 0.930 . S
H670 C683 0.930 . S
H671 C684 0.930 . S
H672 C688 0.959 . S
H673 C688 0.959 . S
H674 C688 0.961 . S
H675 C689 0.960 . S
H676 C689 0.961 . S
H677 C689 0.959 . S
H678 C692 0.929 . S
H679 C693 0.931 . S
H680 C695 0.930 . S
C681 H669 0.930 . S
C681 C682 1.399 . S
C681 C686 1.399 . S
C682 C681 1.399 . S
C682 C683 1.376 . S
C683 H670 0.930 . S
C683 C682 1.376 . S
C683 C684 1.388 . S
C684 H671 0.930 . S
C684 C683 1.388 . S
C684 C685 1.390 . S
C685 C684 1.390 . S
C685 C686 1.394 . S
C685 C691 1.465 . S
C686 C681 1.399 . S
C686 C685 1.394 . S
C686 C687 1.516 . S
C687 C686 1.516 . S
C687 C688 1.502 . S
C687 C689 1.561 . S
C687 C690 1.526 . S
C688 H672 0.959 . S
C688 H673 0.959 . S
C688 H674 0.961 . S
C688 C687 1.502 . S
C689 H675 0.960 . S
C689 H676 0.961 . S
C689 H677 0.959 . S
C689 C687 1.561 . S
C690 C687 1.526 . S
C690 C691 1.396 . S
C690 C695 1.390 . S
C691 C685 1.465 . S
C691 C690 1.396 . S
C691 C692 1.399 . S
C692 H678 0.929 . S
C692 C691 1.399 . S
C692 C693 1.385 . S
C693 H679 0.931 . S
C693 C692 1.385 . S
C693 C694 1.389 . S
C694 C693 1.389 . S
C694 C695 1.387 . S
C695 H680 0.930 . S
C695 C690 1.390 . S
C695 C694 1.387 . S
H696 C708 0.930 . S
H697 C710 0.930 . S
H698 C711 0.930 . S
H699 C715 0.959 . S
H700 C715 0.959 . S
H701 C715 0.961 . S
H702 C716 0.960 . S
H703 C716 0.961 . S
H704 C716 0.959 . S
H705 C719 0.929 . S
H706 C720 0.931 . S
H707 C722 0.930 . S
C708 H696 0.930 . S
C708 C709 1.399 . S
C708 C713 1.399 . S
C709 C708 1.399 . S
C709 C710 1.376 . S
C710 H697 0.930 . S
C710 C709 1.376 . S
C710 C711 1.388 . S
C711 H698 0.930 . S
C711 C710 1.388 . S
C711 C712 1.390 . S
C712 C711 1.390 . S
C712 C713 1.394 . S
C712 C718 1.465 . S
C713 C708 1.399 . S
C713 C712 1.394 . S
C713 C714 1.516 . S
C714 C713 1.516 . S
C714 C715 1.502 . S
C714 C716 1.561 . S
C714 C717 1.526 . S
C715 H699 0.959 . S
C715 H700 0.959 . S
C715 H701 0.961 . S
C715 C714 1.502 . S
C716 H702 0.960 . S
C716 H703 0.961 . S
C716 H704 0.959 . S
C716 C714 1.561 . S
C717 C714 1.526 . S
C717 C718 1.396 . S
C717 C722 1.390 . S
C718 C712 1.465 . S
C718 C717 1.396 . S
C718 C719 1.399 . S
C719 H705 0.929 . S
C719 C718 1.399 . S
C719 C720 1.385 . S
C720 H706 0.931 . S
C720 C719 1.385 . S
C720 C721 1.389 . S
C721 C720 1.389 . S
C721 C722 1.387 . S
C722 H707 0.930 . S
C722 C717 1.390 . S
C722 C721 1.387 . S
H723 C735 0.930 . S
H724 C737 0.930 . S
H725 C738 0.930 . S
H726 C742 0.959 . S
H727 C742 0.959 . S
H728 C742 0.961 . S
H729 C743 0.960 . S
H730 C743 0.961 . S
H731 C743 0.959 . S
H732 C746 0.929 . S
H733 C747 0.931 . S
H734 C749 0.930 . S
C735 H723 0.930 . S
C735 C736 1.399 . S
C735 C740 1.399 . S
C736 C735 1.399 . S
C736 C737 1.376 . S
C737 H724 0.930 . S
C737 C736 1.376 . S
C737 C738 1.388 . S
C738 H725 0.930 . S
C738 C737 1.388 . S
C738 C739 1.390 . S
C739 C738 1.390 . S
C739 C740 1.394 . S
C739 C745 1.465 . S
C740 C735 1.399 . S
C740 C739 1.394 . S
C740 C741 1.516 . S
C741 C740 1.516 . S
C741 C742 1.502 . S
C741 C743 1.561 . S
C741 C744 1.526 . S
C742 H726 0.959 . S
C742 H727 0.959 . S
C742 H728 0.961 . S
C742 C741 1.502 . S
C743 H729 0.960 . S
C743 H730 0.961 . S
C743 H731 0.959 . S
C743 C741 1.561 . S
C744 C741 1.526 . S
C744 C745 1.396 . S
C744 C749 1.390 . S
C745 C739 1.465 . S
C745 C744 1.396 . S
C745 C746 1.399 . S
C746 H732 0.929 . S
C746 C745 1.399 . S
C746 C747 1.385 . S
C747 H733 0.931 . S
C747 C746 1.385 . S
C747 C748 1.389 . S
C748 C747 1.389 . S
C748 C749 1.387 . S
C749 H734 0.930 . S
C749 C744 1.390 . S
C749 C748 1.387 . S
H750 C762 0.930 . S
H751 C764 0.930 . S
H752 C765 0.930 . S
H753 C769 0.959 . S
H754 C769 0.959 . S
H755 C769 0.961 . S
H756 C770 0.960 . S
H757 C770 0.961 . S
H758 C770 0.959 . S
H759 C773 0.929 . S
H760 C774 0.931 . S
H761 C776 0.930 . S
C762 H750 0.930 . S
C762 C763 1.399 . S
C762 C767 1.399 . S
C763 C762 1.399 . S
C763 C764 1.376 . S
C764 H751 0.930 . S
C764 C763 1.376 . S
C764 C765 1.388 . S
C765 H752 0.930 . S
C765 C764 1.388 . S
C765 C766 1.390 . S
C766 C765 1.390 . S
C766 C767 1.394 . S
C766 C772 1.465 . S
C767 C762 1.399 . S
C767 C766 1.394 . S
C767 C768 1.516 . S
C768 C767 1.516 . S
C768 C769 1.502 . S
C768 C770 1.561 . S
C768 C771 1.526 . S
C769 H753 0.959 . S
C769 H754 0.959 . S
C769 H755 0.961 . S
C769 C768 1.502 . S
C770 H756 0.960 . S
C770 H757 0.961 . S
C770 H758 0.959 . S
C770 C768 1.561 . S
C771 C768 1.526 . S
C771 C772 1.396 . S
C771 C776 1.390 . S
C772 C766 1.465 . S
C772 C771 1.396 . S
C772 C773 1.399 . S
C773 H759 0.929 . S
C773 C772 1.399 . S
C773 C774 1.385 . S
C774 H760 0.931 . S
C774 C773 1.385 . S
C774 C775 1.389 . S
C775 C774 1.389 . S
C775 C776 1.387 . S
C776 H761 0.930 . S
C776 C771 1.390 . S
C776 C775 1.387 . S
H777 C789 0.930 . S
H778 C791 0.930 . S
H779 C792 0.930 . S
H780 C796 0.959 . S
H781 C796 0.959 . S
H782 C796 0.961 . S
H783 C797 0.960 . S
H784 C797 0.961 . S
H785 C797 0.959 . S
H786 C800 0.929 . S
H787 C801 0.931 . S
H788 C803 0.930 . S
C789 H777 0.930 . S
C789 C790 1.399 . S
C789 C794 1.399 . S
C790 C789 1.399 . S
C790 C791 1.376 . S
C791 H778 0.930 . S
C791 C790 1.376 . S
C791 C792 1.388 . S
C792 H779 0.930 . S
C792 C791 1.388 . S
C792 C793 1.390 . S
C793 C792 1.390 . S
C793 C794 1.394 . S
C793 C799 1.465 . S
C794 C789 1.399 . S
C794 C793 1.394 . S
C794 C795 1.516 . S
C795 C794 1.516 . S
C795 C796 1.502 . S
C795 C797 1.561 . S
C795 C798 1.526 . S
C796 H780 0.959 . S
C796 H781 0.959 . S
C796 H782 0.961 . S
C796 C795 1.502 . S
C797 H783 0.960 . S
C797 H784 0.961 . S
C797 H785 0.959 . S
C797 C795 1.561 . S
C798 C795 1.526 . S
C798 C799 1.396 . S
C798 C803 1.390 . S
C799 C793 1.465 . S
C799 C798 1.396 . S
C799 C800 1.399 . S
C800 H786 0.929 . S
C800 C799 1.399 . S
C800 C801 1.385 . S
C801 H787 0.931 . S
C801 C800 1.385 . S
C801 C802 1.389 . S
C802 C801 1.389 . S
C802 C803 1.387 . S
C803 H788 0.930 . S
C803 C798 1.390 . S
C803 C802 1.387 . S
H804 C816 0.930 . S
H805 C818 0.930 . S
H806 C819 0.930 . S
H807 C823 0.959 . S
H808 C823 0.959 . S
H809 C823 0.961 1_554 S
H810 C824 0.960 . S
H811 C824 0.961 . S
H812 C824 0.959 . S
H813 C827 0.929 . S
H814 C828 0.931 . S
H815 C830 0.930 . S
C816 H804 0.930 . S
C816 C817 1.399 . S
C816 C821 1.399 . S
C817 C816 1.399 . S
C817 C818 1.376 . S
C818 H805 0.930 . S
C818 C817 1.376 . S
C818 C819 1.388 . S
C819 H806 0.930 . S
C819 C818 1.388 . S
C819 C820 1.390 . S
C820 C819 1.390 . S
C820 C821 1.394 . S
C820 C826 1.465 . S
C821 C816 1.399 . S
C821 C820 1.394 . S
C821 C822 1.516 . S
C822 C821 1.516 . S
C822 C823 1.502 1_554 S
C822 C824 1.561 . S
C822 C825 1.526 . S
C823 H807 0.959 . S
C823 H808 0.959 . S
C823 H809 0.961 1_556 S
C823 C822 1.502 1_556 S
C824 H810 0.960 . S
C824 H811 0.961 . S
C824 H812 0.959 . S
C824 C822 1.561 . S
C825 C822 1.526 . S
C825 C826 1.396 . S
C825 C830 1.390 1_554 S
C826 C820 1.465 . S
C826 C825 1.396 . S
C826 C827 1.399 . S
C827 H813 0.929 . S
C827 C826 1.399 . S
C827 C828 1.385 1_554 S
C828 H814 0.931 . S
C828 C827 1.385 1_556 S
C828 C829 1.389 . S
C829 C828 1.389 . S
C829 C830 1.387 . S
C830 H815 0.930 . S
C830 C825 1.390 1_556 S
C830 C829 1.387 . S
H831 C843 0.930 . S
H832 C845 0.930 . S
H833 C846 0.930 . S
H834 C850 0.959 . S
H835 C850 0.959 . S
H836 C850 0.961 . S
H837 C851 0.960 . S
H838 C851 0.961 . S
H839 C851 0.959 . S
H840 C854 0.929 . S
H841 C855 0.931 . S
H842 C857 0.930 . S
C843 H831 0.930 . S
C843 C844 1.399 . S
C843 C848 1.399 . S
C844 C843 1.399 . S
C844 C845 1.376 . S
C845 H832 0.930 . S
C845 C844 1.376 . S
C845 C846 1.388 . S
C846 H833 0.930 . S
C846 C845 1.388 . S
C846 C847 1.390 . S
C847 C846 1.390 . S
C847 C848 1.394 . S
C847 C853 1.465 . S
C848 C843 1.399 . S
C848 C847 1.394 . S
C848 C849 1.516 . S
C849 C848 1.516 . S
C849 C850 1.502 . S
C849 C851 1.561 . S
C849 C852 1.526 . S
C850 H834 0.959 . S
C850 H835 0.959 . S
C850 H836 0.961 . S
C850 C849 1.502 . S
C851 H837 0.960 . S
C851 H838 0.961 . S
C851 H839 0.959 . S
C851 C849 1.561 . S
C852 C849 1.526 . S
C852 C853 1.396 . S
C852 C857 1.390 . S
C853 C847 1.465 . S
C853 C852 1.396 . S
C853 C854 1.399 . S
C854 H840 0.929 . S
C854 C853 1.399 . S
C854 C855 1.385 . S
C855 H841 0.931 . S
C855 C854 1.385 . S
C855 C856 1.389 . S
C856 C855 1.389 . S
C856 C857 1.387 . S
C857 H842 0.930 . S
C857 C852 1.390 . S
C857 C856 1.387 . S
C235 C203 1.469 . S
C223 C19 1.397 . S
C250 C40 1.478 . S
C262 C132 1.483 . S
C277 C51 1.479 . S
C289 C146 1.492 . S
C304 C72 1.461 . S
C316 C160 1.496 . S
C343 C174 1.473 . S
C331 C103 1.480 . S
C358 C114 1.475 . S
C370 C189 1.474 . S
C385 C30 1.380 . S
C397 C147 1.497 . S
C412 C61 1.454 . S
C424 C161 1.451 . S
C439 C82 1.383 . S
C451 C175 1.490 . S
C478 C188 1.487 . S
C466 C93 1.467 1_554 S
C505 C202 1.478 . S
C493 C124 1.391 . S
C532 C133 1.496 . S
C520 C9 1.370 . S
C547 C17 1.516 . S
C559 C149 1.543 . S
C574 C38 1.435 . S
C586 C163 1.533 . S
C613 C177 1.502 . S
C601 C54 1.436 . S
C628 C75 1.458 . S
C640 C190 1.511 . S
C667 C204 1.511 . S
C655 C101 1.474 . S
C694 C135 1.503 . S
C682 C117 1.426 . S
C721 C205 1.520 . S
C709 C33 1.422 . S
C736 C59 1.511 . S
C748 C134 1.535 . S
C775 C148 1.511 . S
C763 C80 1.465 . S
C790 C96 1.434 . S
C802 C162 1.530 . S
C817 C122 1.422 . S
C829 C176 1.509 . S
C844 C12 1.498 . S
C856 C191 1.555 . S
