# Generated by pormake.
# Topology zzz, (3,6)-cn, num edge types: 1
# Building blocks:
#     Node 0, Type 0, BuildingBlock: PAMTOO_clean_linker_0, # of connection points: 3
#     Node 1, Type 0, BuildingBlock: PAMTOO_clean_linker_0, # of connection points: 3
#     Node 2, Type 0, BuildingBlock: PAMTOO_clean_linker_0, # of connection points: 3
#     Node 3, Type 0, BuildingBlock: PAMTOO_clean_linker_0, # of connection points: 3
#     Node 4, Type 0, BuildingBlock: PAMTOO_clean_linker_0, # of connection points: 3
#     Node 5, Type 0, BuildingBlock: PAMTOO_clean_linker_0, # of connection points: 3
#     Node 6, Type 0, BuildingBlock: PAMTOO_clean_linker_0, # of connection points: 3
#     Node 7, Type 0, BuildingBlock: PAMTOO_clean_linker_0, # of connection points: 3
#     Node 8, Type 1, BuildingBlock: BETDAH_clean_sbu_0, # of connection points: 6
#     Node 9, Type 1, BuildingBlock: BETDAH_clean_sbu_0, # of connection points: 6
#     Node 10, Type 1, BuildingBlock: BETDAH_clean_sbu_0, # of connection points: 6
#     Node 11, Type 1, BuildingBlock: BETDAH_clean_sbu_0, # of connection points: 6
#     Edge 12, Type (0, 1), BuildingBlock: EZIPEK_clean_linker_0, # of connection points: 2
#     Edge 13, Type (0, 1), BuildingBlock: EZIPEK_clean_linker_0, # of connection points: 2
#     Edge 14, Type (0, 1), BuildingBlock: EZIPEK_clean_linker_0, # of connection points: 2
#     Edge 15, Type (0, 1), BuildingBlock: EZIPEK_clean_linker_0, # of connection points: 2
#     Edge 16, Type (0, 1), BuildingBlock: EZIPEK_clean_linker_0, # of connection points: 2
#     Edge 17, Type (0, 1), BuildingBlock: EZIPEK_clean_linker_0, # of connection points: 2
#     Edge 18, Type (0, 1), BuildingBlock: EZIPEK_clean_linker_0, # of connection points: 2
#     Edge 19, Type (0, 1), BuildingBlock: EZIPEK_clean_linker_0, # of connection points: 2
#     Edge 20, Type (0, 1), BuildingBlock: EZIPEK_clean_linker_0, # of connection points: 2
#     Edge 21, Type (0, 1), BuildingBlock: EZIPEK_clean_linker_0, # of connection points: 2
#     Edge 22, Type (0, 1), BuildingBlock: EZIPEK_clean_linker_0, # of connection points: 2
#     Edge 23, Type (0, 1), BuildingBlock: EZIPEK_clean_linker_0, # of connection points: 2
#     Edge 24, Type (0, 1), BuildingBlock: EZIPEK_clean_linker_0, # of connection points: 2
#     Edge 25, Type (0, 1), BuildingBlock: EZIPEK_clean_linker_0, # of connection points: 2
#     Edge 26, Type (0, 1), BuildingBlock: EZIPEK_clean_linker_0, # of connection points: 2
#     Edge 27, Type (0, 1), BuildingBlock: EZIPEK_clean_linker_0, # of connection points: 2
#     Edge 28, Type (0, 1), BuildingBlock: EZIPEK_clean_linker_0, # of connection points: 2
#     Edge 29, Type (0, 1), BuildingBlock: EZIPEK_clean_linker_0, # of connection points: 2
#     Edge 30, Type (0, 1), BuildingBlock: EZIPEK_clean_linker_0, # of connection points: 2
#     Edge 31, Type (0, 1), BuildingBlock: EZIPEK_clean_linker_0, # of connection points: 2
#     Edge 32, Type (0, 1), BuildingBlock: EZIPEK_clean_linker_0, # of connection points: 2
#     Edge 33, Type (0, 1), BuildingBlock: EZIPEK_clean_linker_0, # of connection points: 2
#     Edge 34, Type (0, 1), BuildingBlock: EZIPEK_clean_linker_0, # of connection points: 2
#     Edge 35, Type (0, 1), BuildingBlock: EZIPEK_clean_linker_0, # of connection points: 2
# Relax obj value: 0.363
# Max RMSD: 0.213
# Mean RMSD: 0.162
data_MOF--net-zzz--node1-BETDAH_clean_sbu_0--node2-PAMTOO_clean_linker_0--edge1-EZIPEK_clean_linker_0
_symmetry_space_group_name_H-M    P1
_symmetry_Int_Tables_number       1
_symmetry_cell_setting            triclinic
loop_
_symmetry_equiv_pos_as_xyz
'x, y, z'
_cell_length_a     38.334548
_cell_length_b     38.355745
_cell_length_c     10.043489
_cell_angle_alpha  90.149081
_cell_angle_beta   89.948335
_cell_angle_gamma 89.928122
loop_
_atom_site_label
_atom_site_type_symbol
_atom_site_fract_x
_atom_site_fract_y
_atom_site_fract_z
_atom_type_partial_charge
H0 H 0.82552 0.45205 0.41975 0.0
H1 H 0.72761 0.46643 0.22261 0.0
H2 H 0.76917 0.54831 0.46939 0.0
H3 H 0.67734 0.55546 0.36251 0.0
C4 C 0.68422 0.53065 0.31152 0.0
O5 O 0.72005 0.53094 0.28531 0.0
H6 H 0.67774 0.51092 0.38805 0.0
C7 C 0.80229 0.4676 0.40407 0.0
C8 C 0.8007 0.50087 0.46234 0.0
C9 C 0.77565 0.45432 0.32227 0.0
C10 C 0.74709 0.47549 0.29196 0.0
C11 C 0.7446 0.50948 0.34133 0.0
C12 C 0.77098 0.52202 0.43058 0.0
H13 H 0.08195 0.84188 0.46163 0.0
H14 H 0.07445 0.73965 0.29641 0.0
H15 H 0.99225 0.77879 0.55173 0.0
H16 H 1.01463 0.68171 0.48101 0.0
C17 C 0.02076 0.69206 0.3809 0.0
O18 O 1.01046 0.72723 0.37621 0.0
H19 H 0.04963 0.68992 0.37571 0.0
C20 C 0.06826 0.81724 0.45557 0.0
C21 C 0.03662 0.8138 0.52397 0.0
C22 C 0.08202 0.79064 0.37508 0.0
C23 C 0.06354 0.75967 0.35974 0.0
C24 C 0.03062 0.75497 0.41856 0.0
C25 C 1.0175 0.78193 0.50505 0.0
H26 H 0.68749 0.98293 0.41397 0.0
H27 H 0.78965 0.97714 0.23991 0.0
H28 H 0.77069 0.04063 0.58949 0.0
H29 H 0.83953 0.06838 0.39788 0.0
C30 C 0.8327 0.04676 0.32916 0.0
O31 O 0.8191 0.01943 0.40504 0.0
H32 H 0.81136 0.0563 0.26359 0.0
C33 C 0.71464 0.98985 0.41404 0.0
C34 C 0.72528 1.0125 0.51405 0.0
C35 C 0.73723 0.97625 0.31675 0.0
C36 C 0.77202 0.98696 0.31558 0.0
C37 C 0.78443 1.01065 0.41094 0.0
C38 C 0.76108 0.02323 0.51291 0.0
H39 H 0.57234 0.7008 0.3535 0.0
H40 H 0.56897 0.80353 0.1872 0.0
H41 H 0.50165 0.77586 0.51608 0.0
H42 H 0.47432 0.84355 0.31824 0.0
C43 C 0.49881 0.84186 0.26004 0.0
O44 O 0.52286 0.82829 0.35046 0.0
H45 H 0.4943 0.82305 0.17725 0.0
C46 C 0.56208 0.72693 0.35277 0.0
C47 C 0.53577 0.73422 0.44435 0.0
C48 C 0.57426 0.7513 0.25941 0.0
C49 C 0.56009 0.78479 0.25989 0.0
C50 C 0.53403 0.79427 0.35114 0.0
C51 C 0.52155 0.76877 0.44443 0.0
H52 H 0.19059 0.58191 0.27231 0.0
H53 H 0.297 0.57251 0.39951 0.0
H54 H 0.25824 0.50681 0.08292 0.0
H55 H 0.33976 0.47749 0.24379 0.0
C56 C 0.32866 0.49728 0.31277 0.0
O57 O 0.31462 0.52403 0.23513 0.0
H58 H 0.30746 0.48277 0.36319 0.0
C59 C 0.2159 0.56951 0.26141 0.0
C60 C 0.22013 0.54333 0.1653 0.0
C61 C 0.24341 0.58029 0.34398 0.0
C62 C 0.27587 0.56412 0.33539 0.0
C63 C 0.28148 0.53708 0.24462 0.0
C64 C 0.25365 0.52682 0.1571 0.0
H65 H 0.94698 0.20691 0.21615 0.0
H66 H 0.9443 0.31046 0.36714 0.0
H67 H 0.02677 0.27956 0.09683 0.0
H68 H 0.04673 0.33397 0.3678 0.0
C69 C 1.01899 0.34209 0.37419 0.0
O70 O 1.00206 0.33233 0.25616 0.0
H71 H 1.00854 0.32648 0.45865 0.0
C72 C 0.95813 0.23288 0.21746 0.0
C73 C 0.98791 0.23953 0.14135 0.0
C74 C 0.94212 0.25856 0.29518 0.0
C75 C 0.95664 0.29168 0.30289 0.0
C76 C 0.98791 0.29967 0.23695 0.0
C77 C 1.00343 0.27349 0.15277 0.0
H78 H 0.33382 0.97296 0.22175 0.0
H79 H 0.22784 0.97103 0.35931 0.0
H80 H 0.2667 0.0608 0.14783 0.0
H81 H 0.20642 0.07939 0.36724 0.0
C82 C 0.20236 0.05196 0.39692 0.0
O83 O 0.2112 0.03331 0.28197 0.0
H84 H 0.22119 0.04608 0.47817 0.0
C85 C 0.30846 0.98539 0.2297 0.0
C86 C 0.30375 1.01802 0.17038 0.0
C87 C 0.28166 0.96871 0.301 0.0
C88 C 0.24892 0.98459 0.31042 0.0
C89 C 0.24331 1.01824 0.26088 0.0
C90 C 0.27084 0.03503 0.18861 0.0
H91 H 0.58015 0.32576 0.02456 0.0
H92 H 0.57468 0.26451 0.3794 0.0
H93 H 0.48235 0.2858 0.15885 0.0
H94 H 0.48615 0.24543 0.48405 0.0
C95 C 0.50928 0.23052 0.44971 0.0
O96 O 0.5147 0.23704 0.31422 0.0
H97 H 0.53104 0.24153 0.50942 0.0
C98 C 0.56523 0.31324 0.10174 0.0
C99 C 0.52863 0.31465 0.097 0.0
C100 C 0.58216 0.30082 0.21537 0.0
C101 C 0.56338 0.27626 0.29261 0.0
C102 C 0.52872 0.26718 0.26225 0.0
C103 C 0.5102 0.28894 0.17161 0.0
Ho104 Ho 0.03358 0.02293 0.94008 0.0
Ho105 Ho 0.98946 0.03178 0.72778 0.0
C106 C 1.01527 0.95384 0.75953 0.0
C107 C 0.06564 1.00307 0.153 0.0
C108 C 0.08683 0.97237 0.18427 0.0
C109 C 0.0774 0.95189 0.29373 0.0
C110 C 0.09199 0.91894 0.30991 0.0
C111 C 0.11615 0.90619 0.21674 0.0
C112 C 0.12769 0.9276 0.11298 0.0
C113 C 0.11298 0.9606 0.09645 0.0
C114 C 0.07167 0.03849 0.71628 0.0
C115 C 1.00965 0.1013 0.90299 0.0
C116 C 0.95536 0.04873 0.5141 0.0
C117 C 0.9314 0.07664 0.47293 0.0
C118 C 0.94017 0.09672 0.3616 0.0
C119 C 0.92418 0.12889 0.3418 0.0
C120 C 0.89956 0.1413 0.434 0.0
C121 C 0.887 0.11904 0.53341 0.0
C122 C 0.90277 0.08657 0.55214 0.0
C123 C 0.95263 1.01851 0.96081 0.0
O124 O 0.02419 0.96537 0.87963 0.0
O125 O 1.00471 0.97683 0.67138 0.0
O126 O 0.07881 0.02514 0.06825 0.0
O127 O 0.03279 0.99647 0.12962 0.0
O128 O 0.07612 0.05197 0.83302 0.0
O129 O 0.04598 1.01751 0.72175 0.0
O130 O 0.99966 0.08944 0.78435 0.0
O131 O 0.02024 0.07862 0.9925 0.0
O132 O 0.94395 0.0266 0.60216 0.0
O133 O 0.98729 0.05867 0.53886 0.0
O134 O 0.94722 1.00391 0.84642 0.0
O135 O 0.9781 0.0391 0.94525 0.0
H136 H 0.05725 0.96051 0.3621 0.0
H137 H 0.08257 0.90249 0.3897 0.0
H138 H 0.1458 0.91771 0.0391 0.0
H139 H 0.12042 0.97582 0.01031 0.0
H140 H 0.96147 0.08899 0.29683 0.0
H141 H 0.93385 0.14564 0.26337 0.0
H142 H 0.86776 0.12817 0.6045 0.0
H143 H 0.89421 0.07051 0.63391 0.0
Ho144 Ho 0.52335 0.0553 0.9439 0.0
Ho145 Ho 0.50564 1.01352 0.72608 0.0
C146 C 0.58668 0.02874 0.75125 0.0
C147 C 0.55049 0.0708 0.1699 0.0
C148 C 0.57299 0.04559 0.23932 0.0
C149 C 0.56383 1.01007 0.23321 0.0
C150 C 0.58962 0.98455 0.22986 0.0
C151 C 0.6247 0.99383 0.2386 0.0
C152 C 0.63318 0.02863 0.27124 0.0
C153 C 0.60751 0.05453 0.26915 0.0
C154 C 0.5074 0.097 0.73089 0.0
C155 C 0.44193 0.04095 0.92557 0.0
C156 C 0.47745 0.98621 0.51703 0.0
C157 C 0.4458 0.96492 0.49588 0.0
C158 C 0.41347 0.98145 0.48061 0.0
C159 C 0.3832 0.96201 0.4689 0.0
C160 C 0.38414 0.9254 0.47486 0.0
C161 C 0.41639 0.90848 0.48797 0.0
C162 C 0.44714 0.92815 0.49695 0.0
C163 C 0.52082 0.97223 0.94218 0.0
O164 O 0.57754 0.03648 0.87508 0.0
O165 O 0.56189 0.02233 0.66368 0.0
O166 O 0.56329 0.08228 0.05761 0.0
O167 O 0.51797 0.06147 0.15759 0.0
O168 O 0.50081 0.10418 0.85459 0.0
O169 O 0.52451 0.06855 0.72702 0.0
O170 O 0.45134 0.02057 0.82408 0.0
O171 O 0.46586 0.06026 0.98345 0.0
O172 O 0.50279 0.97141 0.58272 0.0
O173 O 0.47244 1.01863 0.55387 0.0
O174 O 0.53071 0.96638 0.82081 0.0
O175 O 0.50365 1.00061 0.94174 0.0
H176 H 0.53722 1.00212 0.2137 0.0
H177 H 0.58225 0.95812 0.20938 0.0
H178 H 0.66018 0.03645 0.28224 0.0
H179 H 0.61529 0.08163 0.27497 0.0
H180 H 0.41122 1.00955 0.48122 0.0
H181 H 0.35871 0.97583 0.45801 0.0
H182 H 0.4178 0.88032 0.49323 0.0
H183 H 0.4718 0.91464 0.50771 0.0
Ho184 Ho 0.49585 0.53548 0.88159 0.0
Ho185 Ho 0.53376 0.51318 0.66449 0.0
C186 C 0.52118 0.59391 0.67173 0.0
C187 C 0.48083 0.56869 0.09611 0.0
C188 C 0.50719 0.59063 0.16053 0.0
C189 C 0.54235 0.58154 0.1405 0.0
C190 C 0.56772 0.6073 0.13211 0.0
C191 C 0.55891 0.64211 0.15274 0.0
C192 C 0.52478 0.65041 0.19532 0.0
C193 C 0.49885 0.62484 0.19713 0.0
C194 C 0.45032 0.51641 0.68034 0.0
C195 C 0.50697 0.45361 0.86989 0.0
C196 C 0.56345 0.47853 0.47594 0.0
C197 C 0.58712 0.44795 0.48433 0.0
C198 C 0.5735 0.41424 0.47036 0.0
C199 C 0.59542 0.38527 0.47396 0.0
C200 C 0.6319 0.38922 0.48428 0.0
C201 C 0.64538 0.42272 0.50698 0.0
C202 C 0.6231 0.45179 0.50925 0.0
C203 C 0.57825 0.52917 0.87401 0.0
O204 O 0.51907 0.58641 0.80007 0.0
O205 O 0.52273 0.56767 0.58679 0.0
O206 O 0.47152 0.57982 0.97888 0.0
O207 O 0.48743 0.53536 0.09541 0.0
O208 O 0.44567 0.51217 0.80716 0.0
O209 O 0.47893 0.53288 0.66645 0.0
O210 O 0.51454 0.46096 0.7449 0.0
O211 O 0.50158 0.47977 0.95269 0.0
O212 O 0.57548 0.5082 0.51982 0.0
O213 O 0.53114 0.4733 0.51215 0.0
O214 O 0.58325 0.53659 0.75031 0.0
O215 O 0.54925 0.51339 0.87993 0.0
H216 H 0.54953 0.55515 0.11426 0.0
H217 H 0.59343 0.60048 0.09885 0.0
H218 H 0.5173 0.67726 0.21288 0.0
H219 H 0.47193 0.6325 0.21256 0.0
H220 H 0.54588 0.41017 0.45374 0.0
H221 H 0.58393 0.35992 0.45613 0.0
H222 H 0.6733 0.42669 0.51351 0.0
H223 H 0.63437 0.4774 0.5233 0.0
Ho224 Ho 1.00303 0.50202 0.92787 0.0
Ho225 Ho 1.0135 0.54995 0.7339 0.0
C226 C 0.93615 0.52225 0.73775 0.0
C227 C 0.98367 0.46295 0.12587 0.0
C228 C 0.95476 0.43937 0.15834 0.0
C229 C 0.93517 0.44633 0.27321 0.0
C230 C 0.90271 0.4308 0.29047 0.0
C231 C 0.88956 0.40809 0.19315 0.0
C232 C 0.91105 0.39749 0.0873 0.0
C233 C 0.94358 0.41328 0.06947 0.0
C234 C 0.02232 0.46967 0.69253 0.0
C235 C 0.08092 0.52838 0.91792 0.0
C236 C 0.03483 0.58856 0.53891 0.0
C237 C 0.06466 0.61199 0.52317 0.0
C238 C 0.0835 0.61078 0.40389 0.0
C239 C 0.11799 0.62213 0.40157 0.0
C240 C 0.13354 0.63505 0.51823 0.0
C241 C 0.11292 0.64186 0.63033 0.0
C242 C 0.07877 0.62945 0.63397 0.0
C243 C 0.99521 0.58328 0.96796 0.0
O244 O 0.94596 0.51195 0.85871 0.0
O245 O 0.96043 0.53438 0.65789 0.0
O246 O 1.00568 0.45295 0.03457 0.0
O247 O 0.97493 0.49557 0.11242 0.0
O248 O 0.03515 0.46324 0.80874 0.0
O249 O 1.0003 0.49405 0.70693 0.0
O250 O 0.07056 0.54056 0.80065 0.0
O251 O 0.05722 0.5154 0.99831 0.0
O252 O 1.01073 0.59817 0.62277 0.0
O253 O 0.04322 0.55577 0.55245 0.0
O254 O 0.98031 0.5876 0.85369 0.0
O255 O 1.01699 0.55843 0.95508 0.0
H256 H 0.9437 0.46586 0.34423 0.0
H257 H 0.88656 0.43911 0.37326 0.0
H258 H 0.90114 0.38008 0.01116 0.0
H259 H 0.95859 0.40699 0.98136 0.0
H260 H 0.07292 0.59765 0.31718 0.0
H261 H 0.13356 0.61717 0.31338 0.0
H262 H 0.12463 0.65193 0.72069 0.0
H263 H 0.06512 0.63012 0.72768 0.0
C264 C 0.14927 0.07634 0.52825 0.0
C265 C 0.16448 0.04759 0.45658 0.0
C266 C 0.11739 1.01062 0.55569 0.0
C267 C 0.1004 0.04051 0.61087 0.0
N268 N 0.09627 0.10306 0.61193 0.0
N269 N 0.15676 0.98729 0.38842 0.0
C270 C 0.11499 0.07363 0.5834 0.0
C271 C 0.14667 1.01472 0.46607 0.0
N272 N 0.16823 0.10573 0.55524 0.0
N273 N 0.10651 0.97812 0.59154 0.0
H274 H 0.17289 0.98974 0.30644 0.0
H275 H 0.14551 0.96273 0.39253 0.0
H276 H 0.08442 0.97382 0.64885 0.0
H277 H 0.12074 0.9555 0.57263 0.0
H278 H 0.15899 0.12553 0.61733 0.0
H279 H 0.19455 0.10881 0.53311 0.0
H280 H 0.10436 0.12785 0.58281 0.0
H281 H 0.07103 0.10228 0.65087 0.0
C282 C 0.47463 0.17679 0.53201 0.0
C283 C 0.50663 0.19097 0.48496 0.0
C284 C 0.53489 0.13481 0.54516 0.0
C285 C 0.5055 0.12523 0.62402 0.0
N286 N 0.44536 0.13634 0.68064 0.0
N287 N 0.56778 0.18142 0.44095 0.0
C288 C 0.47475 0.14602 0.61322 0.0
C289 C 0.53682 0.16916 0.48865 0.0
N290 N 0.44391 0.19192 0.49466 0.0
N291 N 0.56043 0.11098 0.51907 0.0
H292 H 0.56985 0.20477 0.38925 0.0
H293 H 0.59159 0.16909 0.45796 0.0
H294 H 0.55871 0.08505 0.54773 0.0
H295 H 0.58101 0.11563 0.45376 0.0
H296 H 0.41954 0.18141 0.51658 0.0
H297 H 0.44286 0.21246 0.42692 0.0
H298 H 0.42371 0.15251 0.69192 0.0
H299 H 0.44313 0.11246 0.72945 0.0
C300 C 0.39081 0.52222 0.3599 0.0
C301 C 0.35865 0.50869 0.40886 0.0
C302 C 0.38926 0.49447 0.61795 0.0
C303 C 0.42019 0.51266 0.57895 0.0
N304 N 0.44604 0.54952 0.40816 0.0
N305 N 0.32627 0.49415 0.60741 0.0
C306 C 0.41969 0.52833 0.44904 0.0
C307 C 0.35754 0.4989 0.54511 0.0
N308 N 0.39476 0.52804 0.22666 0.0
N309 N 0.39017 0.47082 0.71928 0.0
H310 H 0.30253 0.50037 0.56269 0.0
H311 H 0.32442 0.48901 0.70913 0.0
H312 H 0.41335 0.46229 0.76257 0.0
H313 H 0.36863 0.45565 0.74488 0.0
H314 H 0.41878 0.53372 0.18348 0.0
H315 H 0.37482 0.52453 0.15759 0.0
H316 H 0.44318 0.56632 0.32756 0.0
H317 H 0.46955 0.55235 0.45717 0.0
C318 C 0.9863 0.39207 0.49052 0.0
C319 C 1.01564 0.38133 0.415 0.0
C320 C 0.04559 0.4353 0.49176 0.0
C321 C 1.01911 0.44088 0.58934 0.0
N322 N 0.96633 0.41997 0.69229 0.0
N323 N 0.07161 0.39669 0.32468 0.0
C324 C 0.98991 0.41811 0.59091 0.0
C325 C 0.04475 0.40444 0.409 0.0
N326 N 0.95447 0.37848 0.46175 0.0
N327 N 0.07133 0.45962 0.47795 0.0
H328 H 0.06969 0.377 0.25314 0.0
H329 H 0.09551 0.40951 0.3251 0.0
H330 H 0.07264 0.48187 0.53778 0.0
H331 H 0.08998 0.45911 0.40265 0.0
H332 H 0.93159 0.38615 0.50985 0.0
H333 H 0.95066 0.365 0.37308 0.0
H334 H 0.94637 0.40183 0.70472 0.0
H335 H 0.96913 0.4373 0.77151 0.0
C336 C 0.87207 0.06083 0.12828 0.0
C337 C 0.86535 0.03858 0.23957 0.0
C338 C 0.91873 1.00491 0.1761 0.0
C339 C 0.92288 0.02528 0.0586 0.0
N340 N 0.89875 0.06843 0.912 0.0
N341 N 0.89114 0.99768 0.39319 0.0
C342 C 0.89823 0.05202 0.03234 0.0
C343 C 0.89106 1.01265 0.26996 0.0
N344 N 0.85535 0.09228 0.11873 0.0
N345 N 0.94092 0.97753 0.19644 0.0
H346 H 0.87517 1.00622 0.47045 0.0
H347 H 0.90994 0.98011 0.42578 0.0
H348 H 0.96165 0.97193 0.13237 0.0
H349 H 0.9376 0.95891 0.27048 0.0
H350 H 0.86233 0.11134 0.04996 0.0
H351 H 0.83768 0.10156 0.18917 0.0
H352 H 0.8788 0.08477 0.87919 0.0
H353 H 0.91768 0.06343 0.84012 0.0
C354 C 0.54084 0.88926 0.15269 0.0
C355 C 0.50689 0.8784 0.19576 0.0
C356 C 0.48441 0.93447 0.10574 0.0
C357 C 0.51671 0.94208 0.04147 0.0
N358 N 0.57519 0.9221 0.9938 0.0
N359 N 0.44482 0.88801 0.15947 0.0
C360 C 0.5444 0.91757 0.05976 0.0
C361 C 0.47829 0.90027 0.15717 0.0
N362 N 0.57023 0.87475 0.20546 0.0
N363 N 0.45889 0.95906 0.1178 0.0
H364 H 0.43825 0.86228 0.18018 0.0
H365 H 0.42387 0.90228 0.12178 0.0
H366 H 0.46182 0.98468 0.08824 0.0
H367 H 0.43633 0.95488 0.17378 0.0
H368 H 0.59529 0.88319 0.18193 0.0
H369 H 0.57021 0.85848 0.28746 0.0
H370 H 0.59414 0.90266 0.98665 0.0
H371 H 0.58157 0.94522 0.94572 0.0
C372 C 0.65812 0.55595 0.09383 0.0
C373 C 0.6613 0.52741 0.18321 0.0
C374 C 0.61218 0.4983 0.06448 0.0
C375 C 0.60807 0.52743 0.97705 0.0
N376 N 0.63336 0.58096 0.8945 0.0
N377 N 0.6484 0.467 0.22244 0.0
C378 C 0.63339 0.55484 0.98627 0.0
C379 C 0.6402 0.49744 0.15986 0.0
N380 N 0.67756 0.58531 0.11547 0.0
N381 N 0.59018 0.47046 0.05419 0.0
H382 H 0.67033 0.46406 0.28209 0.0
H383 H 0.63561 0.44356 0.20577 0.0
H384 H 0.57565 0.46512 0.96938 0.0
H385 H 0.58652 0.45239 0.13016 0.0
H386 H 0.67292 0.60903 0.06846 0.0
H387 H 0.69733 0.58683 0.18629 0.0
H388 H 0.65415 0.59799 0.88022 0.0
H389 H 0.6127 0.58534 0.83071 0.0
C390 C 1.01736 0.67312 0.13143 0.0
C391 C 1.00627 0.66844 0.26571 0.0
C392 C 0.98693 0.60865 0.2039 0.0
C393 C 0.99846 0.61304 0.06996 0.0
N394 N 1.01617 0.65451 0.9014 0.0
N395 N 0.96776 0.63633 0.40946 0.0
C396 C 1.0111 0.64674 0.03252 0.0
C397 C 0.98737 0.63747 0.29598 0.0
N398 N 0.03426 0.70297 0.09679 0.0
N399 N 0.97507 0.57687 0.24388 0.0
H400 H 0.96449 0.65794 0.47144 0.0
H401 H 0.9511 0.6158 0.43269 0.0
H402 H 0.97174 0.55629 0.1777 0.0
H403 H 0.97051 0.57049 0.34318 0.0
H404 H 0.04937 0.70539 0.01103 0.0
H405 H 0.03278 0.7255 0.15365 0.0
H406 H 0.02051 0.67966 0.86628 0.0
H407 H 1.01334 0.63662 0.82507 0.0
C408 C 0.92475 0.2339 0.50479 0.0
C409 C 0.91329 0.24759 0.38318 0.0
C410 C 0.87492 0.19766 0.35347 0.0
C411 C 0.89561 0.17943 0.44685 0.0
N412 N 0.94174 0.1805 0.61168 0.0
N413 N 0.86814 0.2485 0.21742 0.0
C414 C 0.91998 0.1979 0.52734 0.0
C415 C 0.8843 0.23211 0.31994 0.0
N416 N 0.94359 0.25436 0.58921 0.0
N417 N 0.84836 0.18125 0.28891 0.0
H418 H 0.87506 0.2736 0.18708 0.0
H419 H 0.87506 0.2736 0.18708 0.0
H420 H 0.8409 0.15588 0.31316 0.0
H421 H 0.83348 0.19364 0.21594 0.0
H422 H 0.95209 0.24597 0.68219 0.0
H423 H 0.94757 0.28077 0.5699 0.0
H424 H 0.9633 0.1922 0.65629 0.0
H425 H 0.94001 0.15381 0.62869 0.0
C426 C 0.29515 0.93522 0.50922 0.0
C427 C 0.29 0.93521 0.36898 0.0
C428 C 0.33936 0.896 0.34012 0.0
C429 C 0.35045 0.9065 0.46774 0.0
N430 N 0.3328 0.91653 0.69194 0.0
N431 N 0.29544 0.90275 0.16627 0.0
C432 C 0.3252 0.91805 0.55962 0.0
C433 C 0.30755 0.90992 0.29087 0.0
N434 N 0.2738 0.95413 0.59065 0.0
N435 N 0.36084 0.87579 0.26439 0.0
H436 H 0.27243 0.91418 0.13149 0.0
H437 H 0.3068 0.88473 0.10186 0.0
H438 H 0.38358 0.86518 0.30449 0.0
H439 H 0.35593 0.869 0.16584 0.0
H440 H 0.27831 0.9578 0.69181 0.0
H441 H 0.25101 0.96585 0.55717 0.0
H442 H 0.31555 0.92377 0.76718 0.0
H443 H 0.35624 0.90548 0.72445 0.0
C444 C 0.63355 0.30293 0.3772 0.0
C445 C 0.61637 0.31699 0.26279 0.0
C446 C 0.65755 0.36498 0.28926 0.0
C447 C 0.65441 0.36122 0.42709 0.0
N448 N 0.65286 0.31852 0.6001 0.0
N449 N 0.61346 0.37101 0.12718 0.0
C450 C 0.64812 0.32689 0.47009 0.0
C451 C 0.63024 0.34985 0.21502 0.0
N452 N 0.63746 0.26794 0.39317 0.0
N453 N 0.67973 0.38894 0.23733 0.0
H454 H 0.5864 0.37333 0.12768 0.0
H455 H 0.62552 0.39269 0.08495 0.0
H456 H 0.69756 0.40206 0.29804 0.0
H457 H 0.68171 0.39304 0.13488 0.0
H458 H 0.65123 0.2573 0.47288 0.0
H459 H 0.63004 0.25047 0.3184 0.0
H460 H 0.64551 0.29443 0.63906 0.0
H461 H 0.66299 0.33677 0.66714 0.0
C462 C 0.22483 0.63978 0.40006 0.0
C463 C 0.23582 0.60685 0.44644 0.0
C464 C 0.18645 0.60233 0.59295 0.0
C465 C 0.1718 0.63227 0.53021 0.0
N466 N 0.18111 0.68583 0.41191 0.0
N467 N 0.23905 0.5689 0.63418 0.0
C468 C 0.19288 0.65369 0.44858 0.0
C469 C 0.22125 0.59335 0.56326 0.0
N470 N 0.243 0.65508 0.29931 0.0
N471 N 0.1663 0.57989 0.66498 0.0
H472 H 0.26431 0.56143 0.60738 0.0
H473 H 0.23016 0.55918 0.72495 0.0
H474 H 0.13989 0.58373 0.68302 0.0
H475 H 0.17532 0.55576 0.6979 0.0
H476 H 0.23485 0.67745 0.2498 0.0
H477 H 0.26634 0.64421 0.2647 0.0
H478 H 0.19577 0.70339 0.35631 0.0
H479 H 0.15737 0.69568 0.44683 0.0
C480 C 0.13935 0.81764 0.34159 0.0
C481 C 0.11109 0.79959 0.28366 0.0
C482 C 0.09928 0.84725 0.13599 0.0
C483 C 0.12232 0.86836 0.21208 0.0
N484 N 0.17057 0.87185 0.36594 0.0
N485 N 0.08434 0.78819 0.07273 0.0
C486 C 0.1453 0.8527 0.30482 0.0
C487 C 0.09915 0.81108 0.15939 0.0
N488 N 0.1574 0.80329 0.44385 0.0
N489 N 0.07467 0.86176 0.05524 0.0
H490 H 0.08478 0.76144 0.09091 0.0
H491 H 0.07553 0.79557 0.97876 0.0
H492 H 0.07256 0.88852 0.0401 0.0
H493 H 0.05461 0.84719 0.01263 0.0
H494 H 0.1526 0.77795 0.47709 0.0
H495 H 0.1526 0.77795 0.47709 0.0
H496 H 0.18709 0.86115 0.43772 0.0
H497 H 0.17523 0.89786 0.34108 0.0
C498 C 0.69814 0.92915 0.25417 0.0
C499 C 0.7222 0.95418 0.20896 0.0
C500 C 0.67614 0.98379 0.092 0.0
C501 C 0.65275 0.9701 0.18909 0.0
N502 N 0.63988 0.92328 0.34467 0.0
N503 N 0.73633 0.98544 0.0118 0.0
C504 C 0.66234 0.93908 0.25852 0.0
C505 C 0.71174 0.97388 0.09882 0.0
N506 N 0.71041 0.89952 0.31148 0.0
N507 N 0.66483 1.00857 1.00509 0.0
H508 H 0.76246 0.97827 0.02298 0.0
H509 H 0.73066 0.99984 0.92682 0.0
H510 H 0.63844 1.01497 0.99742 0.0
H511 H 0.68135 0.02283 0.94367 0.0
H512 H 0.69426 0.87941 0.34386 0.0
H513 H 0.73723 0.89471 0.31599 0.0
H514 H 0.6473 0.90304 0.40753 0.0
H515 H 0.61429 0.93145 0.35865 0.0
C516 C 0.57858 0.73076 0.03445 0.0
C517 C 0.59752 0.73924 0.14934 0.0
C518 C 0.61367 0.67883 0.17917 0.0
C519 C 0.58249 0.67053 0.10827 0.0
N520 N 0.54321 0.68591 0.93026 0.0
N521 N 0.65214 0.7262 0.25046 0.0
C522 C 0.56844 0.69551 0.01851 0.0
C523 C 0.62289 0.71473 0.18787 0.0
N524 N 0.56801 0.75662 0.95132 0.0
N525 N 0.63052 0.6544 0.25375 0.0
H526 H 0.65637 0.7529 0.26395 0.0
H527 H 0.67246 0.70981 0.2791 0.0
H528 H 0.62322 0.62831 0.2555 0.0
H529 H 0.65105 0.66032 0.31765 0.0
H530 H 0.55435 0.75215 0.86337 0.0
H531 H 0.5755 0.78242 0.9683 0.0
H532 H 0.52889 0.70363 0.87404 0.0
H533 H 0.53641 0.65978 0.91659 0.0
C534 C 0.79861 0.39436 0.31542 0.0
C535 C 0.78286 0.422 0.2447 0.0
C536 C 0.83216 0.42661 0.09957 0.0
C537 C 0.85132 0.40407 0.18508 0.0
N538 N 0.85024 0.35986 0.35584 0.0
N539 N 0.77454 0.44229 0.02184 0.0
C540 C 0.83338 0.3848 0.28413 0.0
C541 C 0.79585 0.42912 0.11748 0.0
N542 N 0.78249 0.38044 0.42315 0.0
N543 N 0.84853 0.44934 0.01642 0.0
H544 H 0.74759 0.44356 0.03551 0.0
H545 H 0.78337 0.44793 0.92619 0.0
H546 H 0.87551 0.45074 1.00713 0.0
H547 H 0.83514 0.46946 0.96894 0.0
H548 H 0.75741 0.38802 0.45212 0.0
H549 H 0.75741 0.38802 0.45212 0.0
H550 H 0.83793 0.34613 0.43219 0.0
H551 H 0.87596 0.35263 0.33496 0.0
C552 C 0.03035 0.19012 0.07171 0.0
C553 C 0.99918 0.20951 0.05 0.0
C554 C 0.97525 0.15871 0.92669 0.0
C555 C 1.00702 0.13985 0.94158 0.0
N556 N 0.06783 0.14211 1.00183 0.0
N557 N 0.94585 0.21488 0.92565 0.0
C558 C 0.0355 0.15706 1.00576 0.0
C559 C 0.97326 0.19463 0.96549 0.0
N560 N 0.05429 0.2021 0.1612 0.0
N561 N 0.94594 0.14183 0.88484 0.0
H562 H 0.94429 0.2414 0.94862 0.0
H563 H 0.92659 0.2064 0.86016 0.0
H564 H 0.94605 0.11601 0.85386 0.0
H565 H 0.92106 0.15271 0.88999 0.0
H566 H 0.07538 0.18726 0.19388 0.0
H567 H 0.05174 0.22602 0.20964 0.0
H568 H 0.09025 0.15463 0.03561 0.0
H569 H 0.07274 0.1187 0.95211 0.0
C570 C 0.34143 0.02641 0.96095 0.0
C571 C 0.33547 0.03309 0.09866 0.0
C572 C 0.39867 0.04459 0.12445 0.0
C573 C 0.40473 0.03985 0.98419 0.0
N574 N 0.37788 0.0366 0.76673 0.0
N575 N 0.35716 0.05759 0.30204 0.0
C576 C 0.37489 0.03379 0.90179 0.0
C577 C 0.36371 0.04566 0.17618 0.0
N578 N 0.31537 1.012 0.8866 0.0
N579 N 0.42605 0.04521 0.21156 0.0
H580 H 0.33207 0.058 0.3425 0.0
H581 H 0.37563 0.07041 0.36022 0.0
H582 H 0.45147 0.03871 0.18598 0.0
H583 H 0.42324 0.04786 0.31395 0.0
H584 H 0.31925 1.00247 0.79046 0.0
H585 H 0.29039 1.00772 0.9246 0.0
H586 H 0.35662 0.03518 0.70242 0.0
H587 H 0.40077 0.0446 0.71994 0.0
C588 C 0.49299 0.37211 0.09212 0.0
C589 C 0.51272 0.34582 0.02415 0.0
C590 C 0.52945 0.39029 0.85969 0.0
C591 C 0.50714 0.41585 0.91869 0.0
N592 N 0.4587 0.42502 0.06938 0.0
N593 N 0.53817 0.32885 0.81466 0.0
C594 C 0.48601 0.40487 0.02793 0.0
C595 C 0.52634 0.35458 0.89709 0.0
N596 N 0.48256 0.36723 0.22064 0.0
N597 N 0.55643 0.39991 0.77925 0.0
H598 H 0.53607 0.30253 0.83985 0.0
H599 H 0.54667 0.33383 0.7178 0.0
H600 H 0.56348 0.42575 0.76309 0.0
H601 H 0.57507 0.38205 0.74614 0.0
H602 H 0.47176 0.38721 0.27806 0.0
H603 H 0.48715 0.34443 0.27357 0.0
H604 H 0.4411 0.41685 0.14205 0.0
H605 H 0.45107 0.44762 0.01982 0.0
C606 C 0.17294 0.56431 1.00567 0.0
C607 C 0.18844 0.53598 0.07618 0.0
C608 C 0.13637 0.50067 0.01624 0.0
C609 C 0.11887 0.53062 0.96438 0.0
N610 N 0.11936 0.5931 0.93883 0.0
N611 N 0.18156 0.47784 0.16241 0.0
C612 C 0.13698 0.56299 0.96616 0.0
C613 C 0.16934 0.5042 0.08413 0.0
N614 N 0.1928 0.59281 0.97619 0.0
N615 N 0.12189 0.46849 0.9984 0.0
H616 H 0.20535 0.47917 0.21228 0.0
H617 H 0.16692 0.45582 0.18577 0.0
H618 H 0.09847 0.46473 0.94763 0.0
H619 H 0.13472 0.44537 0.02205 0.0
H620 H 0.18406 0.6131 0.91599 0.0
H621 H 0.21925 0.59424 1.00023 0.0
H622 H 0.13015 0.61776 0.95284 0.0
H623 H 0.09295 0.59366 0.91436 0.0
C624 C 0.05085 0.85959 0.69994 0.0
C625 C 0.02587 0.8455 0.60895 0.0
C626 C 0.99048 0.89905 0.64589 0.0
C627 C 1.01806 0.91531 0.71895 0.0
N628 N 0.07766 0.91126 0.79517 0.0
N629 N 0.97392 0.85597 0.47973 0.0
C630 C 0.04901 0.89548 0.74146 0.0
C631 C 0.99603 0.86624 0.57876 0.0
N632 N 0.077 0.83843 0.74507 0.0
N633 N 0.9584 0.91456 0.64277 0.0
H634 H 0.97697 0.83271 0.42731 0.0
H635 H 0.95429 0.87195 0.44207 0.0
H636 H 0.95285 0.93762 0.69387 0.0
H637 H 0.93645 0.90261 0.60207 0.0
H638 H 0.09592 0.84621 0.81305 0.0
H639 H 0.07798 0.81186 0.72271 0.0
H640 H 0.10229 0.8998 0.79687 0.0
H641 H 0.07774 0.93684 0.82971 0.0
C642 C 0.67938 0.99242 0.67724 0.0
C643 C 0.69648 0.02116 0.61532 0.0
C644 C 0.64409 0.05678 0.67078 0.0
C645 C 0.62511 0.02654 0.71048 0.0
N646 N 0.62441 0.96397 0.72675 0.0
N647 N 0.69308 0.08239 0.55864 0.0
C648 C 0.64282 0.99394 0.70754 0.0
C649 C 0.67846 0.0537 0.61472 0.0
N650 N 0.69828 0.9631 0.7041 0.0
N651 N 0.62899 0.08885 0.68204 0.0
H652 H 0.71789 0.08255 0.51585 0.0
H653 H 0.71789 0.08255 0.51585 0.0
H654 H 0.60453 0.09252 0.72549 0.0
H655 H 0.64163 0.11164 0.65229 0.0
H656 H 0.68851 0.94231 0.7593 0.0
H657 H 0.72494 0.96151 0.68338 0.0
H658 H 0.63506 0.9392 0.71362 0.0
H659 H 0.59753 0.96397 0.74159 0.0
C660 C 0.55428 0.68786 0.60811 0.0
C661 C 0.52647 0.7036 0.53566 0.0
C662 C 0.49296 0.64868 0.56861 0.0
C663 C 0.52268 0.63176 0.62437 0.0
N664 N 0.58443 0.63409 0.66061 0.0
N665 N 0.46793 0.69655 0.4484 0.0
C666 C 0.55401 0.65121 0.63541 0.0
C667 C 0.49549 0.68353 0.51737 0.0
N668 N 0.58168 0.70806 0.64778 0.0
N669 N 0.46208 0.63121 0.56001 0.0
H670 H 0.46741 0.72149 0.40722 0.0
H671 H 0.46741 0.72149 0.40722 0.0
H672 H 0.45878 0.60606 0.59725 0.0
H673 H 0.43974 0.64237 0.51857 0.0
H674 H 0.60138 0.69901 0.71028 0.0
H675 H 0.58243 0.73485 0.62967 0.0
H676 H 0.60878 0.64613 0.65982 0.0
H677 H 0.58545 0.60699 0.66287 0.0
C678 C 0.8434 0.48666 0.64937 0.0
C679 C 0.83156 0.51115 0.55245 0.0
C680 C 0.8839 0.5467 0.60664 0.0
C681 C 0.89846 0.5194 0.68607 0.0
N682 N 0.89261 0.45982 0.75977 0.0
N683 N 0.84599 0.56194 0.42204 0.0
C684 C 0.87823 0.48848 0.70162 0.0
C685 C 0.85315 0.54068 0.5273 0.0
N686 N 0.8211 0.46118 0.69146 0.0
N687 N 0.89894 0.57894 0.60879 0.0
H688 H 0.8249 0.55802 0.35852 0.0
H689 H 0.86298 0.58139 0.3901 0.0
H690 H 0.92021 0.58494 0.66931 0.0
H691 H 0.88786 0.60059 0.56265 0.0
H692 H 0.82772 0.44214 0.76045 0.0
H693 H 0.79478 0.46081 0.66497 0.0
H694 H 0.88161 0.43505 0.75359 0.0
H695 H 0.91651 0.46017 0.80789 0.0
loop_
_geom_bond_atom_site_label_1
_geom_bond_atom_site_label_2
_geom_bond_distance
_geom_bond_site_symmetry_2
_ccdc_geom_bond_type
H0 C7 0.929 . S
H1 C10 0.930 . S
H2 C12 0.929 . S
H3 C4 0.969 . S
C4 H3 0.969 . S
C4 O5 1.550 . S
C4 H6 0.973 . S
O5 C4 1.550 . S
O5 C11 1.412 . S
H6 C4 0.973 . S
C7 H0 0.929 . S
C7 C8 1.400 . S
C7 C9 1.364 . S
C8 C7 1.400 . S
C8 C12 1.377 . S
C9 C7 1.364 . S
C9 C10 1.374 . S
C10 H1 0.930 . S
C10 C9 1.374 . S
C10 C11 1.383 . S
C11 O5 1.412 . S
C11 C10 1.383 . S
C11 C12 1.394 . S
C12 H2 0.929 . S
C12 C8 1.377 . S
C12 C11 1.394 . S
H13 C20 0.928 1_655 S
H14 C23 0.931 . S
H15 C25 0.928 1_655 S
H16 C17 0.969 . S
C17 H16 0.969 . S
C17 O18 1.550 1_455 S
C17 H19 0.973 1_455 S
O18 C17 1.550 1_655 S
O18 C24 1.404 1_655 S
H19 C17 0.973 1_655 S
C20 H13 0.928 1_455 S
C20 C21 1.399 . S
C20 C22 1.364 . S
C21 C20 1.399 . S
C21 C25 1.377 . S
C22 C20 1.364 . S
C22 C23 1.374 1_455 S
C23 H14 0.931 . S
C23 C22 1.374 1_655 S
C23 C24 1.382 1_655 S
C24 O18 1.404 1_455 S
C24 C23 1.382 1_455 S
C24 C25 1.394 . S
C25 H15 0.928 1_455 S
C25 C21 1.377 . S
C25 C24 1.394 . S
H26 C33 0.928 1_565 S
H27 C36 0.931 . S
H28 C38 0.929 1_565 S
H29 C30 0.969 . S
C30 H29 0.969 . S
C30 O31 1.550 1_545 S
C30 H32 0.973 1_545 S
O31 C30 1.550 1_565 S
O31 C37 1.404 1_565 S
H32 C30 0.973 1_565 S
C33 H26 0.928 1_545 S
C33 C34 1.399 . S
C33 C35 1.364 . S
C34 C33 1.399 . S
C34 C38 1.377 . S
C35 C33 1.364 . S
C35 C36 1.374 1_545 S
C36 H27 0.931 . S
C36 C35 1.374 1_565 S
C36 C37 1.382 1_565 S
C37 O31 1.404 1_545 S
C37 C36 1.382 1_545 S
C37 C38 1.394 . S
C38 H28 0.929 1_545 S
C38 C34 1.377 . S
C38 C37 1.394 . S
H39 C46 0.929 . S
H40 C49 0.930 . S
H41 C51 0.929 . S
H42 C43 0.969 . S
C43 H42 0.969 . S
C43 O44 1.550 . S
C43 H45 0.973 . S
O44 C43 1.550 . S
O44 C50 1.412 . S
H45 C43 0.973 . S
C46 H39 0.929 . S
C46 C47 1.400 . S
C46 C48 1.364 . S
C47 C46 1.400 . S
C47 C51 1.377 . S
C48 C46 1.364 . S
C48 C49 1.374 . S
C49 H40 0.930 . S
C49 C48 1.374 . S
C49 C50 1.383 . S
C50 O44 1.412 . S
C50 C49 1.383 . S
C50 C51 1.394 . S
C51 H41 0.929 . S
C51 C47 1.377 . S
C51 C50 1.394 . S
H52 C59 0.929 . S
H53 C62 0.930 . S
H54 C64 0.929 . S
H55 C56 0.969 . S
C56 H55 0.969 . S
C56 O57 1.550 . S
C56 H58 0.973 . S
O57 C56 1.550 . S
O57 C63 1.412 . S
H58 C56 0.973 . S
C59 H52 0.929 . S
C59 C60 1.400 1_554 S
C59 C61 1.364 . S
C60 C59 1.400 1_556 S
C60 C64 1.377 . S
C61 C59 1.364 . S
C61 C62 1.374 . S
C62 H53 0.930 . S
C62 C61 1.374 . S
C62 C63 1.383 . S
C63 O57 1.412 . S
C63 C62 1.383 . S
C63 C64 1.394 1_554 S
C64 H54 0.929 . S
C64 C60 1.377 . S
C64 C63 1.394 1_556 S
H65 C72 0.928 1_655 S
H66 C75 0.930 . S
H67 C77 0.928 1_655 S
H68 C69 0.969 . S
C69 H68 0.969 . S
C69 O70 1.550 1_455 S
C69 H71 0.973 1_455 S
O70 C69 1.550 1_655 S
O70 C76 1.412 1_655 S
H71 C69 0.973 1_655 S
C72 H65 0.928 1_455 S
C72 C73 1.400 1_554 S
C72 C74 1.364 . S
C73 C72 1.400 1_556 S
C73 C77 1.377 . S
C74 C72 1.364 . S
C74 C75 1.374 1_455 S
C75 H66 0.930 . S
C75 C74 1.374 1_655 S
C75 C76 1.383 1_655 S
C76 O70 1.412 1_455 S
C76 C75 1.383 1_455 S
C76 C77 1.395 1_554 S
C77 H67 0.928 1_455 S
C77 C73 1.377 . S
C77 C76 1.395 1_556 S
H78 C85 0.928 1_565 S
H79 C88 0.930 . S
H80 C90 0.928 1_565 S
H81 C82 0.969 . S
C82 H81 0.969 . S
C82 O83 1.550 1_545 S
C82 H84 0.973 1_545 S
O83 C82 1.550 1_565 S
O83 C89 1.412 1_565 S
H84 C82 0.973 1_565 S
C85 H78 0.928 1_545 S
C85 C86 1.400 1_554 S
C85 C87 1.364 . S
C86 C85 1.400 1_556 S
C86 C90 1.377 . S
C87 C85 1.364 . S
C87 C88 1.374 1_545 S
C88 H79 0.930 . S
C88 C87 1.374 1_565 S
C88 C89 1.383 1_565 S
C89 O83 1.412 1_545 S
C89 C88 1.383 1_545 S
C89 C90 1.395 1_554 S
C90 H80 0.928 1_545 S
C90 C86 1.377 . S
C90 C89 1.395 1_556 S
H91 C98 0.929 . S
H92 C101 0.930 . S
H93 C103 0.929 . S
H94 C95 0.969 . S
C95 H94 0.969 . S
C95 O96 1.550 . S
C95 H97 0.973 . S
O96 C95 1.550 . S
O96 C102 1.412 . S
H97 C95 0.973 . S
C98 H91 0.929 . S
C98 C99 1.400 1_554 S
C98 C100 1.364 . S
C99 C98 1.400 1_556 S
C99 C103 1.377 . S
C100 C98 1.364 . S
C100 C101 1.374 . S
C101 H92 0.930 . S
C101 C100 1.374 . S
C101 C102 1.383 . S
C102 O96 1.412 . S
C102 C101 1.383 . S
C102 C103 1.394 1_554 S
C103 H93 0.929 . S
C103 C99 1.377 . S
C103 C102 1.394 1_556 S
Ho104 C107 2.811 1_556 S
Ho104 O124 2.322 . S
Ho104 O126 2.378 1_556 S
Ho104 O127 2.524 1_556 S
Ho104 O128 2.381 . S
Ho104 O129 2.669 1_565 S
Ho104 O131 2.346 1_565 S
Ho104 O135 2.305 1_455 S
Ho105 C116 2.811 . S
Ho105 O125 2.346 1_545 S
Ho105 O129 2.305 1_655 S
Ho105 O130 2.322 . S
Ho105 O132 2.378 . S
Ho105 O133 2.524 . S
Ho105 O134 2.381 . S
Ho105 O135 2.669 1_545 S
C106 O124 1.259 1_655 S
C106 O125 1.268 . S
C107 Ho104 2.811 1_554 S
C107 C108 1.488 . S
C107 O126 1.215 . S
C107 O127 1.289 . S
C108 C107 1.488 . S
C108 C109 1.348 . S
C108 C113 1.413 . S
C109 C108 1.348 . S
C109 C110 1.442 . S
C109 H136 0.930 1_455 S
C110 C109 1.442 . S
C110 C111 1.381 . S
C110 H137 0.940 . S
C111 C110 1.381 . S
C111 C112 1.321 . S
C112 C111 1.321 . S
C112 C113 1.403 . S
C112 H138 0.934 . S
C113 C108 1.413 . S
C113 C112 1.403 . S
C113 H139 0.930 . S
C114 O128 1.275 . S
C114 O129 1.256 1_565 S
C115 O130 1.259 1_455 S
C115 O131 1.268 . S
C116 Ho105 2.811 . S
C116 C117 1.488 . S
C116 O132 1.215 . S
C116 O133 1.289 . S
C117 C116 1.488 . S
C117 C118 1.348 . S
C117 C122 1.413 . S
C118 C117 1.348 . S
C118 C119 1.442 . S
C118 H140 0.930 1_655 S
C119 C118 1.442 . S
C119 C120 1.381 . S
C119 H141 0.934 . S
C120 C119 1.381 . S
C120 C121 1.321 . S
C121 C120 1.321 . S
C121 C122 1.403 . S
C121 H142 0.934 . S
C122 C117 1.413 . S
C122 C121 1.403 . S
C122 H143 0.930 . S
C123 O134 1.275 . S
C123 O135 1.256 1_545 S
O124 Ho104 2.322 . S
O124 C106 1.259 1_455 S
O125 Ho105 2.346 1_565 S
O125 C106 1.268 . S
O126 Ho104 2.378 1_554 S
O126 C107 1.215 . S
O127 Ho104 2.524 1_554 S
O127 C107 1.289 . S
O128 Ho104 2.381 . S
O128 C114 1.275 . S
O129 Ho104 2.669 1_545 S
O129 Ho105 2.305 1_455 S
O129 C114 1.256 1_545 S
O130 Ho105 2.322 . S
O130 C115 1.259 1_655 S
O131 Ho104 2.346 1_545 S
O131 C115 1.268 . S
O132 Ho105 2.378 . S
O132 C116 1.215 . S
O133 Ho105 2.524 . S
O133 C116 1.289 . S
O134 Ho105 2.381 . S
O134 C123 1.275 . S
O135 Ho104 2.305 1_655 S
O135 Ho105 2.669 1_565 S
O135 C123 1.256 1_565 S
H136 C109 0.930 1_655 S
H137 C110 0.940 . S
H138 C112 0.934 . S
H139 C113 0.930 . S
H140 C118 0.930 1_455 S
H141 C119 0.934 . S
H142 C121 0.934 . S
H143 C122 0.930 . S
Ho144 C147 2.811 1_556 S
Ho144 O164 2.322 . S
Ho144 O166 2.378 1_556 S
Ho144 O167 2.524 1_556 S
Ho144 O168 2.381 . S
Ho144 O169 2.669 . S
Ho144 O171 2.346 . S
Ho144 O175 2.305 1_545 S
Ho145 C156 2.811 . S
Ho145 O165 2.346 . S
Ho145 O169 2.305 1_565 S
Ho145 O170 2.322 . S
Ho145 O172 2.378 . S
Ho145 O173 2.524 . S
Ho145 O174 2.381 . S
Ho145 O175 2.669 . S
C146 O164 1.259 1_565 S
C146 O165 1.268 . S
C147 Ho144 2.811 1_554 S
C147 C148 1.488 . S
C147 O166 1.215 . S
C147 O167 1.289 . S
C148 C147 1.488 . S
C148 C149 1.348 . S
C148 C153 1.413 . S
C149 C148 1.348 . S
C149 C150 1.442 . S
C149 H176 0.930 1_545 S
C150 C149 1.442 . S
C150 C151 1.381 . S
C150 H177 0.931 1_545 S
C151 C150 1.381 . S
C151 C152 1.321 . S
C152 C151 1.321 . S
C152 C153 1.403 . S
C152 H178 0.934 . S
C153 C148 1.413 . S
C153 C152 1.403 . S
C153 H179 0.930 . S
C154 O168 1.275 . S
C154 O169 1.256 . S
C155 O170 1.259 1_545 S
C155 O171 1.268 . S
C156 Ho145 2.811 . S
C156 C157 1.488 . S
C156 O172 1.215 . S
C156 O173 1.289 . S
C157 C156 1.488 . S
C157 C158 1.348 . S
C157 C162 1.413 . S
C158 C157 1.348 . S
C158 C159 1.442 . S
C158 H180 0.930 1_565 S
C159 C158 1.442 . S
C159 C160 1.381 . S
C159 H181 0.931 1_565 S
C160 C159 1.381 . S
C160 C161 1.321 . S
C161 C160 1.321 . S
C161 C162 1.403 . S
C161 H182 0.934 . S
C162 C157 1.413 . S
C162 C161 1.403 . S
C162 H183 0.930 . S
C163 O174 1.275 . S
C163 O175 1.256 . S
O164 Ho144 2.322 . S
O164 C146 1.259 1_545 S
O165 Ho145 2.346 . S
O165 C146 1.268 . S
O166 Ho144 2.378 1_554 S
O166 C147 1.215 . S
O167 Ho144 2.524 1_554 S
O167 C147 1.289 . S
O168 Ho144 2.381 . S
O168 C154 1.275 . S
O169 Ho144 2.669 . S
O169 Ho145 2.305 1_545 S
O169 C154 1.256 . S
O170 Ho145 2.322 . S
O170 C155 1.259 1_565 S
O171 Ho144 2.346 . S
O171 C155 1.268 . S
O172 Ho145 2.378 . S
O172 C156 1.215 . S
O173 Ho145 2.524 . S
O173 C156 1.289 . S
O174 Ho145 2.381 . S
O174 C163 1.275 . S
O175 Ho144 2.305 1_565 S
O175 Ho145 2.669 . S
O175 C163 1.256 . S
H176 C149 0.930 1_565 S
H177 C150 0.931 1_565 S
H178 C152 0.934 . S
H179 C153 0.930 . S
H180 C158 0.930 1_545 S
H181 C159 0.931 1_545 S
H182 C161 0.934 . S
H183 C162 0.930 . S
Ho184 C187 2.811 1_556 S
Ho184 O204 2.322 . S
Ho184 O206 2.378 1_556 S
Ho184 O207 2.524 1_556 S
Ho184 O208 2.381 . S
Ho184 O209 2.669 . S
Ho184 O211 2.346 . S
Ho184 O215 2.305 . S
Ho185 C196 2.811 . S
Ho185 O205 2.346 . S
Ho185 O209 2.305 . S
Ho185 O210 2.322 . S
Ho185 O212 2.378 . S
Ho185 O213 2.524 . S
Ho185 O214 2.381 . S
Ho185 O215 2.669 . S
C186 O204 1.259 . S
C186 O205 1.268 . S
C187 Ho184 2.811 1_554 S
C187 C188 1.488 . S
C187 O206 1.215 . S
C187 O207 1.289 . S
C188 C187 1.488 . S
C188 C189 1.348 . S
C188 C193 1.413 . S
C189 C188 1.348 . S
C189 C190 1.442 . S
C189 H216 0.930 . S
C190 C189 1.442 . S
C190 C191 1.381 . S
C190 H217 0.931 . S
C191 C190 1.381 . S
C191 C192 1.321 . S
C192 C191 1.321 . S
C192 C193 1.403 . S
C192 H218 0.934 . S
C193 C188 1.413 . S
C193 C192 1.403 . S
C193 H219 0.930 . S
C194 O208 1.275 . S
C194 O209 1.256 . S
C195 O210 1.259 . S
C195 O211 1.268 . S
C196 Ho185 2.811 . S
C196 C197 1.488 . S
C196 O212 1.215 . S
C196 O213 1.289 . S
C197 C196 1.488 . S
C197 C198 1.348 . S
C197 C202 1.413 . S
C198 C197 1.348 . S
C198 C199 1.442 . S
C198 H220 0.930 . S
C199 C198 1.442 . S
C199 C200 1.381 . S
C199 H221 0.931 . S
C200 C199 1.381 . S
C200 C201 1.321 . S
C201 C200 1.321 . S
C201 C202 1.403 . S
C201 H222 0.934 . S
C202 C197 1.413 . S
C202 C201 1.403 . S
C202 H223 0.930 . S
C203 O214 1.275 . S
C203 O215 1.256 . S
O204 Ho184 2.322 . S
O204 C186 1.259 . S
O205 Ho185 2.346 . S
O205 C186 1.268 . S
O206 Ho184 2.378 1_554 S
O206 C187 1.215 . S
O207 Ho184 2.524 1_554 S
O207 C187 1.289 . S
O208 Ho184 2.381 . S
O208 C194 1.275 . S
O209 Ho184 2.669 . S
O209 Ho185 2.305 . S
O209 C194 1.256 . S
O210 Ho185 2.322 . S
O210 C195 1.259 . S
O211 Ho184 2.346 . S
O211 C195 1.268 . S
O212 Ho185 2.378 . S
O212 C196 1.215 . S
O213 Ho185 2.524 . S
O213 C196 1.289 . S
O214 Ho185 2.381 . S
O214 C203 1.275 . S
O215 Ho184 2.305 . S
O215 Ho185 2.669 . S
O215 C203 1.256 . S
H216 C189 0.930 . S
H217 C190 0.931 . S
H218 C192 0.934 . S
H219 C193 0.930 . S
H220 C198 0.930 . S
H221 C199 0.931 . S
H222 C201 0.934 . S
H223 C202 0.930 . S
Ho224 C227 2.811 1_556 S
Ho224 O244 2.322 . S
Ho224 O246 2.378 1_556 S
Ho224 O247 2.524 1_556 S
Ho224 O248 2.381 . S
Ho224 O249 2.669 1_655 S
Ho224 O251 2.346 1_655 S
Ho224 O255 2.305 . S
Ho225 C236 2.811 . S
Ho225 O245 2.346 1_455 S
Ho225 O249 2.305 . S
Ho225 O250 2.322 . S
Ho225 O252 2.378 . S
Ho225 O253 2.524 . S
Ho225 O254 2.381 . S
Ho225 O255 2.669 1_455 S
C226 O244 1.259 . S
C226 O245 1.268 . S
C227 Ho224 2.811 1_554 S
C227 C228 1.488 . S
C227 O246 1.215 . S
C227 O247 1.289 . S
C228 C227 1.488 . S
C228 C229 1.348 . S
C228 C233 1.413 . S
C229 C228 1.348 . S
C229 C230 1.442 . S
C229 H256 0.930 . S
C230 C229 1.442 . S
C230 C231 1.381 . S
C230 H257 0.931 . S
C231 C230 1.381 . S
C231 C232 1.321 . S
C232 C231 1.321 . S
C232 C233 1.403 . S
C232 H258 0.934 . S
C233 C228 1.413 . S
C233 C232 1.403 . S
C233 H259 0.930 . S
C234 O248 1.282 . S
C234 O249 1.252 1_655 S
C235 O250 1.259 . S
C235 O251 1.268 . S
C236 Ho225 2.811 . S
C236 C237 1.488 . S
C236 O252 1.215 . S
C236 O253 1.289 . S
C237 C236 1.488 . S
C237 C238 1.348 . S
C237 C242 1.413 . S
C238 C237 1.348 . S
C238 C239 1.442 . S
C238 H260 0.930 . S
C239 C238 1.442 . S
C239 C240 1.381 . S
C239 H261 0.931 . S
C240 C239 1.381 . S
C240 C241 1.321 . S
C241 C240 1.321 . S
C241 C242 1.403 . S
C241 H262 0.934 . S
C242 C237 1.413 . S
C242 C241 1.403 . S
C242 H263 0.930 . S
C243 O254 1.286 . S
C243 O255 1.250 1_455 S
O244 Ho224 2.322 . S
O244 C226 1.259 . S
O245 Ho225 2.346 1_655 S
O245 C226 1.268 . S
O246 Ho224 2.378 1_554 S
O246 C227 1.215 . S
O247 Ho224 2.524 1_554 S
O247 C227 1.289 . S
O248 Ho224 2.381 . S
O248 C234 1.282 . S
O249 Ho224 2.669 1_455 S
O249 Ho225 2.305 . S
O249 C234 1.252 1_455 S
O250 Ho225 2.322 . S
O250 C235 1.259 . S
O251 Ho224 2.346 1_455 S
O251 C235 1.268 . S
O252 Ho225 2.378 . S
O252 C236 1.215 . S
O253 Ho225 2.524 . S
O253 C236 1.289 . S
O254 Ho225 2.381 . S
O254 C243 1.286 . S
O255 Ho224 2.305 . S
O255 Ho225 2.669 1_655 S
O255 C243 1.250 1_655 S
H256 C229 0.930 . S
H257 C230 0.931 . S
H258 C232 0.934 . S
H259 C233 0.930 . S
H260 C238 0.930 . S
H261 C239 0.931 . S
H262 C241 0.934 . S
H263 C242 0.930 . S
C264 C265 1.372 . S
C264 C270 1.379 . S
C264 N272 1.356 . S
C265 C264 1.372 . S
C265 C271 1.355 1_545 S
C266 C267 1.338 1_565 S
C266 C271 1.379 . S
C266 N273 1.356 . S
C267 C266 1.338 1_545 S
C267 C270 1.388 . S
N268 C270 1.356 . S
N268 H280 0.984 . S
N268 H281 0.985 . S
N269 C271 1.356 . S
N269 H274 0.984 . S
N269 H275 0.985 . S
C270 C264 1.379 . S
C270 C267 1.388 . S
C270 N268 1.356 . S
C271 C265 1.355 1_565 S
C271 C266 1.379 . S
C271 N269 1.356 . S
N272 C264 1.356 . S
N272 H278 0.984 . S
N272 H279 0.984 . S
N273 C266 1.356 . S
N273 H276 0.984 . S
N273 H277 0.985 . S
H274 N269 0.984 . S
H275 N269 0.985 . S
H276 N273 0.984 . S
H277 N273 0.985 . S
H278 N272 0.984 . S
H279 N272 0.984 . S
H280 N268 0.984 . S
H281 N268 0.985 . S
C282 C283 1.363 . S
C282 C288 1.379 . S
C282 N290 1.356 . S
C283 C282 1.363 . S
C283 C289 1.363 . S
C284 C285 1.363 . S
C284 C289 1.379 . S
C284 N291 1.356 . S
C285 C284 1.363 . S
C285 C288 1.363 . S
N286 C288 1.356 . S
N286 H298 0.984 . S
N286 H299 0.985 . S
N287 C289 1.356 . S
N287 H292 0.984 . S
N287 H293 0.985 . S
C288 C282 1.379 . S
C288 C285 1.363 . S
C288 N286 1.356 . S
C289 C283 1.363 . S
C289 C284 1.379 . S
C289 N287 1.356 . S
N290 C282 1.356 . S
N290 H296 0.984 . S
N290 H297 0.984 . S
N291 C284 1.356 . S
N291 H294 0.984 . S
N291 H295 0.985 . S
H292 N287 0.984 . S
H293 N287 0.985 . S
H294 N291 0.984 . S
H295 N291 0.985 . S
H296 N290 0.984 . S
H297 N290 0.984 . S
H298 N286 0.984 . S
H299 N286 0.985 . S
C300 C301 1.363 . S
C300 C306 1.379 . S
C300 N308 1.356 . S
C301 C300 1.363 . S
C301 C307 1.363 . S
C302 C303 1.363 . S
C302 C307 1.379 . S
C302 N309 1.356 . S
C303 C302 1.363 . S
C303 C306 1.363 . S
N304 C306 1.356 . S
N304 H316 0.984 . S
N304 H317 0.985 . S
N305 C307 1.356 . S
N305 H310 0.984 . S
N305 H311 0.985 . S
C306 C300 1.379 . S
C306 C303 1.363 . S
C306 N304 1.356 . S
C307 C301 1.363 . S
C307 C302 1.379 . S
C307 N305 1.356 . S
N308 C300 1.356 . S
N308 H314 0.984 . S
N308 H315 0.984 . S
N309 C302 1.356 . S
N309 H312 0.984 . S
N309 H313 0.985 . S
H310 N305 0.984 . S
H311 N305 0.985 . S
H312 N309 0.984 . S
H313 N309 0.985 . S
H314 N308 0.984 . S
H315 N308 0.984 . S
H316 N304 0.984 . S
H317 N304 0.985 . S
C318 C319 1.347 1_655 S
C318 C324 1.379 . S
C318 N326 1.356 . S
C319 C318 1.347 1_455 S
C319 C325 1.380 . S
C320 C321 1.363 . S
C320 C325 1.379 . S
C320 N327 1.356 . S
C321 C320 1.363 . S
C321 C324 1.363 1_455 S
N322 C324 1.356 . S
N322 H334 0.984 . S
N322 H335 0.985 . S
N323 C325 1.356 . S
N323 H328 0.984 . S
N323 H329 0.985 . S
C324 C318 1.379 . S
C324 C321 1.363 1_655 S
C324 N322 1.356 . S
C325 C319 1.380 . S
C325 C320 1.379 . S
C325 N323 1.356 . S
N326 C318 1.356 . S
N326 H332 0.984 . S
N326 H333 0.984 . S
N327 C320 1.356 . S
N327 H330 0.984 . S
N327 H331 0.985 . S
H328 N323 0.984 . S
H329 N323 0.985 . S
H330 N327 0.984 . S
H331 N327 0.985 . S
H332 N326 0.984 . S
H333 N326 0.984 . S
H334 N322 0.984 . S
H335 N322 0.985 . S
C336 C337 1.360 1_545 S
C336 C342 1.379 . S
C336 N344 1.356 . S
C337 C336 1.360 1_565 S
C337 C343 1.366 . S
C338 C339 1.382 . S
C338 C343 1.379 . S
C338 N345 1.356 . S
C339 C338 1.382 . S
C339 C342 1.344 1_565 S
N340 C342 1.356 . S
N340 H352 0.984 . S
N340 H353 0.985 1_554 S
N341 C343 1.356 . S
N341 H346 0.984 . S
N341 H347 0.985 . S
C342 C336 1.379 . S
C342 C339 1.344 1_545 S
C342 N340 1.356 . S
C343 C337 1.366 . S
C343 C338 1.379 . S
C343 N341 1.356 . S
N344 C336 1.356 . S
N344 H350 0.984 . S
N344 H351 0.984 . S
N345 C338 1.356 . S
N345 H348 0.984 . S
N345 H349 0.985 . S
H346 N341 0.984 . S
H347 N341 0.985 . S
H348 N345 0.984 . S
H349 N345 0.985 . S
H350 N344 0.984 . S
H351 N344 0.984 . S
H352 N340 0.984 . S
H353 N340 0.985 1_556 S
C354 C355 1.363 . S
C354 C360 1.379 . S
C354 N362 1.356 . S
C355 C354 1.363 . S
C355 C361 1.363 . S
C356 C357 1.363 . S
C356 C361 1.379 . S
C356 N363 1.356 . S
C357 C356 1.363 . S
C357 C360 1.363 . S
N358 C360 1.356 . S
N358 H370 0.984 . S
N358 H371 0.985 1_554 S
N359 C361 1.356 . S
N359 H364 0.984 . S
N359 H365 0.985 . S
C360 C354 1.379 . S
C360 C357 1.363 . S
C360 N358 1.356 . S
C361 C355 1.363 . S
C361 C356 1.379 . S
C361 N359 1.356 . S
N362 C354 1.356 . S
N362 H368 0.984 . S
N362 H369 0.984 . S
N363 C356 1.356 . S
N363 H366 0.984 . S
N363 H367 0.985 . S
H364 N359 0.984 . S
H365 N359 0.985 . S
H366 N363 0.984 . S
H367 N363 0.985 . S
H368 N362 0.984 . S
H369 N362 0.984 . S
H370 N358 0.984 . S
H371 N358 0.985 1_556 S
C372 C373 1.363 . S
C372 C378 1.379 . S
C372 N380 1.356 . S
C373 C372 1.363 . S
C373 C379 1.363 . S
C374 C375 1.363 . S
C374 C379 1.379 . S
C374 N381 1.356 1_554 S
C375 C374 1.363 . S
C375 C378 1.363 . S
N376 C378 1.356 . S
N376 H388 0.984 . S
N376 H389 0.985 . S
N377 C379 1.356 . S
N377 H382 0.984 . S
N377 H383 0.985 . S
C378 C372 1.379 . S
C378 C375 1.363 . S
C378 N376 1.356 . S
C379 C373 1.363 . S
C379 C374 1.379 . S
C379 N377 1.356 . S
N380 C372 1.356 . S
N380 H386 0.984 . S
N380 H387 0.984 . S
N381 C374 1.356 1_556 S
N381 H384 0.984 . S
N381 H385 0.985 . S
H382 N377 0.984 . S
H383 N377 0.985 . S
H384 N381 0.984 . S
H385 N381 0.985 . S
H386 N380 0.984 . S
H387 N380 0.984 . S
H388 N376 0.984 . S
H389 N376 0.985 . S
C390 C391 1.379 . S
C390 C396 1.379 . S
C390 N398 1.356 . S
C391 C390 1.379 . S
C391 C397 1.348 1_655 S
C392 C393 1.363 1_455 S
C392 C397 1.379 . S
C392 N399 1.356 . S
C393 C392 1.363 1_655 S
C393 C396 1.363 . S
N394 C396 1.356 . S
N394 H406 0.984 . S
N394 H407 0.985 1_554 S
N395 C397 1.356 . S
N395 H400 0.984 . S
N395 H401 0.985 . S
C396 C390 1.379 . S
C396 C393 1.363 . S
C396 N394 1.356 . S
C397 C391 1.348 1_455 S
C397 C392 1.379 . S
C397 N395 1.356 . S
N398 C390 1.356 . S
N398 H404 0.984 . S
N398 H405 0.984 . S
N399 C392 1.356 . S
N399 H402 0.984 . S
N399 H403 0.985 . S
H400 N395 0.984 . S
H401 N395 0.985 . S
H402 N399 0.984 . S
H403 N399 0.985 . S
H404 N398 0.984 . S
H405 N398 0.984 . S
H406 N394 0.984 . S
H407 N394 0.985 1_556 S
C408 C409 1.363 1_455 S
C408 C414 1.379 1_455 S
C408 N416 1.356 . S
C409 C408 1.363 1_655 S
C409 C415 1.363 . S
C410 C411 1.363 . S
C410 C415 1.379 . S
C410 N417 1.356 . S
C411 C410 1.363 . S
C411 C414 1.363 . S
N412 C414 1.356 . S
N412 H424 0.984 . S
N412 H425 0.985 . S
N413 C415 1.356 . S
N413 H418 0.984 . S
N413 H419 0.985 1_554 S
C414 C408 1.379 1_655 S
C414 C411 1.363 . S
C414 N412 1.356 . S
C415 C409 1.363 . S
C415 C410 1.379 . S
C415 N413 1.356 . S
N416 C408 1.356 . S
N416 H422 0.984 . S
N416 H423 0.984 . S
N417 C410 1.356 . S
N417 H420 0.984 . S
N417 H421 0.985 . S
H418 N413 0.984 . S
H419 N413 0.985 1_556 S
H420 N417 0.984 . S
H421 N417 0.985 . S
H422 N416 0.984 . S
H423 N416 0.984 . S
H424 N412 0.984 . S
H425 N412 0.985 . S
C426 C427 1.363 1_545 S
C426 C432 1.379 1_545 S
C426 N434 1.356 . S
C427 C426 1.363 1_565 S
C427 C433 1.363 . S
C428 C429 1.363 . S
C428 C433 1.379 . S
C428 N435 1.356 . S
C429 C428 1.363 . S
C429 C432 1.363 . S
N430 C432 1.356 . S
N430 H442 0.984 . S
N430 H443 0.985 . S
N431 C433 1.356 . S
N431 H436 0.984 . S
N431 H437 0.985 1_554 S
C432 C426 1.379 1_565 S
C432 C429 1.363 . S
C432 N430 1.356 . S
C433 C427 1.363 . S
C433 C428 1.379 . S
C433 N431 1.356 . S
N434 C426 1.356 . S
N434 H440 0.984 . S
N434 H441 0.984 . S
N435 C428 1.356 . S
N435 H438 0.984 . S
N435 H439 0.985 . S
H436 N431 0.984 . S
H437 N431 0.985 1_556 S
H438 N435 0.984 . S
H439 N435 0.985 . S
H440 N434 0.984 . S
H441 N434 0.984 . S
H442 N430 0.984 . S
H443 N430 0.985 . S
C444 C445 1.363 . S
C444 C450 1.379 . S
C444 N452 1.356 . S
C445 C444 1.363 . S
C445 C451 1.363 . S
C446 C447 1.363 . S
C446 C451 1.379 . S
C446 N453 1.356 . S
C447 C446 1.363 . S
C447 C450 1.363 . S
N448 C450 1.356 . S
N448 H460 0.984 . S
N448 H461 0.985 . S
N449 C451 1.356 . S
N449 H454 0.984 . S
N449 H455 0.985 1_554 S
C450 C444 1.379 . S
C450 C447 1.363 . S
C450 N448 1.356 . S
C451 C445 1.363 . S
C451 C446 1.379 . S
C451 N449 1.356 . S
N452 C444 1.356 . S
N452 H458 0.984 . S
N452 H459 0.984 . S
N453 C446 1.356 . S
N453 H456 0.984 . S
N453 H457 0.985 . S
H454 N449 0.984 . S
H455 N449 0.985 1_556 S
H456 N453 0.984 . S
H457 N453 0.985 . S
H458 N452 0.984 . S
H459 N452 0.984 . S
H460 N448 0.984 . S
H461 N448 0.985 . S
C462 C463 1.363 . S
C462 C468 1.379 . S
C462 N470 1.356 . S
C463 C462 1.363 . S
C463 C469 1.363 . S
C464 C465 1.363 . S
C464 C469 1.379 . S
C464 N471 1.356 . S
C465 C464 1.363 . S
C465 C468 1.363 . S
N466 C468 1.356 . S
N466 H478 0.984 . S
N466 H479 0.985 . S
N467 C469 1.356 . S
N467 H472 0.984 . S
N467 H473 0.985 . S
C468 C462 1.379 . S
C468 C465 1.363 . S
C468 N466 1.356 . S
C469 C463 1.363 . S
C469 C464 1.379 . S
C469 N467 1.356 . S
N470 C462 1.356 . S
N470 H476 0.984 . S
N470 H477 0.984 . S
N471 C464 1.356 . S
N471 H474 0.984 . S
N471 H475 0.985 . S
H472 N467 0.984 . S
H473 N467 0.985 . S
H474 N471 0.984 . S
H475 N471 0.985 . S
H476 N470 0.984 . S
H477 N470 0.984 . S
H478 N466 0.984 . S
H479 N466 0.985 . S
C480 C481 1.363 . S
C480 C486 1.379 . S
C480 N488 1.356 . S
C481 C480 1.363 . S
C481 C487 1.363 1_455 S
C482 C483 1.363 . S
C482 C487 1.379 1_455 S
C482 N489 1.356 . S
C483 C482 1.363 . S
C483 C486 1.363 . S
N484 C486 1.356 . S
N484 H496 0.984 . S
N484 H497 0.985 . S
N485 C487 1.356 . S
N485 H490 0.984 . S
N485 H491 0.985 . S
C486 C480 1.379 . S
C486 C483 1.363 . S
C486 N484 1.356 . S
C487 C481 1.363 1_655 S
C487 C482 1.379 1_655 S
C487 N485 1.356 . S
N488 C480 1.356 . S
N488 H494 0.984 . S
N488 H495 0.984 . S
N489 C482 1.356 . S
N489 H492 0.984 . S
N489 H493 0.985 . S
H490 N485 0.984 . S
H491 N485 0.985 . S
H492 N489 0.984 . S
H493 N489 0.985 . S
H494 N488 0.984 . S
H495 N488 0.984 . S
H496 N484 0.984 . S
H497 N484 0.985 . S
C498 C499 1.363 1_565 S
C498 C504 1.379 1_565 S
C498 N506 1.356 . S
C499 C498 1.363 1_545 S
C499 C505 1.363 . S
C500 C501 1.363 . S
C500 C505 1.379 . S
C500 N507 1.356 . S
C501 C500 1.363 . S
C501 C504 1.363 . S
N502 C504 1.356 . S
N502 H514 0.984 1_545 S
N502 H515 0.985 . S
N503 C505 1.356 . S
N503 H508 0.984 . S
N503 H509 0.985 . S
C504 C498 1.379 1_545 S
C504 C501 1.363 . S
C504 N502 1.356 . S
C505 C499 1.363 . S
C505 C500 1.379 . S
C505 N503 1.356 . S
N506 C498 1.356 . S
N506 H512 0.984 . S
N506 H513 0.984 . S
N507 C500 1.356 . S
N507 H510 0.984 . S
N507 H511 0.985 . S
H508 N503 0.984 . S
H509 N503 0.985 . S
H510 N507 0.984 . S
H511 N507 0.985 . S
H512 N506 0.984 . S
H513 N506 0.984 . S
H514 N502 0.984 1_565 S
H515 N502 0.985 . S
C516 C517 1.363 . S
C516 C522 1.379 . S
C516 N524 1.356 . S
C517 C516 1.363 . S
C517 C523 1.363 . S
C518 C519 1.363 . S
C518 C523 1.379 . S
C518 N525 1.356 . S
C519 C518 1.363 . S
C519 C522 1.363 . S
N520 C522 1.356 . S
N520 H532 0.984 . S
N520 H533 0.985 . S
N521 C523 1.356 . S
N521 H526 0.984 . S
N521 H527 0.985 . S
C522 C516 1.379 . S
C522 C519 1.363 . S
C522 N520 1.356 . S
C523 C517 1.363 . S
C523 C518 1.379 . S
C523 N521 1.356 . S
N524 C516 1.356 . S
N524 H530 0.984 . S
N524 H531 0.984 . S
N525 C518 1.356 . S
N525 H528 0.984 . S
N525 H529 0.985 . S
H526 N521 0.984 . S
H527 N521 0.985 . S
H528 N525 0.984 . S
H529 N525 0.985 . S
H530 N524 0.984 . S
H531 N524 0.984 . S
H532 N520 0.984 . S
H533 N520 0.985 . S
C534 C535 1.363 . S
C534 C540 1.379 . S
C534 N542 1.356 . S
C535 C534 1.363 . S
C535 C541 1.363 . S
C536 C537 1.363 . S
C536 C541 1.379 . S
C536 N543 1.356 . S
C537 C536 1.363 . S
C537 C540 1.363 . S
N538 C540 1.356 . S
N538 H550 0.984 . S
N538 H551 0.985 . S
N539 C541 1.356 . S
N539 H544 0.984 . S
N539 H545 0.985 . S
C540 C534 1.379 . S
C540 C537 1.363 . S
C540 N538 1.356 . S
C541 C535 1.363 . S
C541 C536 1.379 . S
C541 N539 1.356 . S
N542 C534 1.356 . S
N542 H548 0.984 . S
N542 H549 0.984 . S
N543 C536 1.356 . S
N543 H546 0.984 . S
N543 H547 0.985 . S
H544 N539 0.984 . S
H545 N539 0.985 . S
H546 N543 0.984 . S
H547 N543 0.985 . S
H548 N542 0.984 . S
H549 N542 0.984 . S
H550 N538 0.984 . S
H551 N538 0.985 . S
C552 C553 1.363 . S
C552 C558 1.379 . S
C552 N560 1.356 1_556 S
C553 C552 1.363 . S
C553 C559 1.363 1_455 S
C554 C555 1.363 1_655 S
C554 C559 1.379 . S
C554 N561 1.356 . S
C555 C554 1.363 1_455 S
C555 C558 1.363 . S
N556 C558 1.356 1_554 S
N556 H568 0.984 . S
N556 H569 0.985 . S
N557 C559 1.356 . S
N557 H562 0.984 . S
N557 H563 0.985 . S
C558 C552 1.379 . S
C558 C555 1.363 . S
C558 N556 1.356 1_556 S
C559 C553 1.363 1_655 S
C559 C554 1.379 . S
C559 N557 1.356 . S
N560 C552 1.356 1_554 S
N560 H566 0.984 . S
N560 H567 0.984 1_554 S
N561 C554 1.356 . S
N561 H564 0.984 . S
N561 H565 0.985 . S
H562 N557 0.984 . S
H563 N557 0.985 . S
H564 N561 0.984 . S
H565 N561 0.985 . S
H566 N560 0.984 . S
H567 N560 0.984 1_556 S
H568 N556 0.984 . S
H569 N556 0.985 . S
C570 C571 1.363 . S
C570 C576 1.379 . S
C570 N578 1.356 1_545 S
C571 C570 1.363 . S
C571 C577 1.363 . S
C572 C573 1.363 . S
C572 C577 1.379 . S
C572 N579 1.356 1_556 S
C573 C572 1.363 . S
C573 C576 1.363 . S
N574 C576 1.356 . S
N574 H586 0.984 . S
N574 H587 0.985 . S
N575 C577 1.356 1_554 S
N575 H580 0.984 . S
N575 H581 0.985 . S
C576 C570 1.379 . S
C576 C573 1.363 . S
C576 N574 1.356 . S
C577 C571 1.363 . S
C577 C572 1.379 . S
C577 N575 1.356 1_556 S
N578 C570 1.356 1_565 S
N578 H584 0.984 . S
N578 H585 0.984 . S
N579 C572 1.356 1_554 S
N579 H582 0.984 . S
N579 H583 0.985 . S
H580 N575 0.984 . S
H581 N575 0.985 . S
H582 N579 0.984 . S
H583 N579 0.985 . S
H584 N578 0.984 . S
H585 N578 0.984 . S
H586 N574 0.984 . S
H587 N574 0.985 . S
C588 C589 1.363 . S
C588 C594 1.379 . S
C588 N596 1.356 1_556 S
C589 C588 1.363 . S
C589 C595 1.363 . S
C590 C591 1.363 . S
C590 C595 1.379 . S
C590 N597 1.356 . S
C591 C590 1.363 . S
C591 C594 1.363 . S
N592 C594 1.356 1_554 S
N592 H604 0.984 . S
N592 H605 0.985 . S
N593 C595 1.356 . S
N593 H598 0.984 . S
N593 H599 0.985 . S
C594 C588 1.379 . S
C594 C591 1.363 . S
C594 N592 1.356 1_556 S
C595 C589 1.363 . S
C595 C590 1.379 . S
C595 N593 1.356 . S
N596 C588 1.356 1_554 S
N596 H602 0.984 . S
N596 H603 0.984 1_554 S
N597 C590 1.356 . S
N597 H600 0.984 . S
N597 H601 0.985 . S
H598 N593 0.984 . S
H599 N593 0.985 . S
H600 N597 0.984 . S
H601 N597 0.985 . S
H602 N596 0.984 . S
H603 N596 0.984 1_556 S
H604 N592 0.984 . S
H605 N592 0.985 . S
C606 C607 1.363 . S
C606 C612 1.379 . S
C606 N614 1.356 1_556 S
C607 C606 1.363 . S
C607 C613 1.363 . S
C608 C609 1.363 . S
C608 C613 1.379 . S
C608 N615 1.356 . S
C609 C608 1.363 . S
C609 C612 1.363 . S
N610 C612 1.356 1_554 S
N610 H622 0.984 . S
N610 H623 0.985 . S
N611 C613 1.356 . S
N611 H616 0.984 . S
N611 H617 0.985 . S
C612 C606 1.379 . S
C612 C609 1.363 . S
C612 N610 1.356 1_556 S
C613 C607 1.363 . S
C613 C608 1.379 . S
C613 N611 1.356 . S
N614 C606 1.356 1_554 S
N614 H620 0.984 . S
N614 H621 0.984 1_554 S
N615 C608 1.356 . S
N615 H618 0.984 . S
N615 H619 0.985 . S
H616 N611 0.984 . S
H617 N611 0.985 . S
H618 N615 0.984 . S
H619 N615 0.985 . S
H620 N614 0.984 . S
H621 N614 0.984 1_556 S
H622 N610 0.984 . S
H623 N610 0.985 . S
C624 C625 1.363 1_455 S
C624 C630 1.379 . S
C624 N632 1.356 . S
C625 C624 1.363 1_655 S
C625 C631 1.363 . S
C626 C627 1.363 . S
C626 C631 1.379 . S
C626 N633 1.356 . S
C627 C626 1.363 . S
C627 C630 1.363 1_655 S
N628 C630 1.356 . S
N628 H640 0.984 . S
N628 H641 0.985 . S
N629 C631 1.356 . S
N629 H634 0.984 . S
N629 H635 0.985 1_556 S
C630 C624 1.379 . S
C630 C627 1.363 1_455 S
C630 N628 1.356 . S
C631 C625 1.363 . S
C631 C626 1.379 . S
C631 N629 1.356 . S
N632 C624 1.356 . S
N632 H638 0.984 . S
N632 H639 0.984 . S
N633 C626 1.356 . S
N633 H636 0.984 . S
N633 H637 0.985 . S
H634 N629 0.984 . S
H635 N629 0.985 1_554 S
H636 N633 0.984 . S
H637 N633 0.985 . S
H638 N632 0.984 . S
H639 N632 0.984 . S
H640 N628 0.984 . S
H641 N628 0.985 . S
C642 C643 1.363 . S
C642 C648 1.379 . S
C642 N650 1.356 . S
C643 C642 1.363 . S
C643 C649 1.363 1_565 S
C644 C645 1.363 . S
C644 C649 1.379 1_565 S
C644 N651 1.356 1_565 S
C645 C644 1.363 . S
C645 C648 1.363 . S
N646 C648 1.356 . S
N646 H658 0.984 1_556 S
N646 H659 0.985 . S
N647 C649 1.356 . S
N647 H652 0.984 . S
N647 H653 0.985 . S
C648 C642 1.379 . S
C648 C645 1.363 . S
C648 N646 1.356 . S
C649 C643 1.363 1_545 S
C649 C644 1.379 1_545 S
C649 N647 1.356 . S
N650 C642 1.356 . S
N650 H656 0.984 1_556 S
N650 H657 0.984 . S
N651 C644 1.356 1_545 S
N651 H654 0.984 1_545 S
N651 H655 0.985 . S
H652 N647 0.984 . S
H653 N647 0.985 . S
H654 N651 0.984 1_565 S
H655 N651 0.985 . S
H656 N650 0.984 1_554 S
H657 N650 0.984 . S
H658 N646 0.984 1_554 S
H659 N646 0.985 . S
C660 C661 1.363 . S
C660 C666 1.379 . S
C660 N668 1.356 . S
C661 C660 1.363 . S
C661 C667 1.363 . S
C662 C663 1.363 . S
C662 C667 1.379 . S
C662 N669 1.356 . S
C663 C662 1.363 . S
C663 C666 1.363 . S
N664 C666 1.356 . S
N664 H676 0.984 . S
N664 H677 0.985 . S
N665 C667 1.356 . S
N665 H670 0.984 . S
N665 H671 0.985 . S
C666 C660 1.379 . S
C666 C663 1.363 . S
C666 N664 1.356 . S
C667 C661 1.363 . S
C667 C662 1.379 . S
C667 N665 1.356 . S
N668 C660 1.356 . S
N668 H674 0.984 1_556 S
N668 H675 0.984 . S
N669 C662 1.356 . S
N669 H672 0.984 . S
N669 H673 0.985 . S
H670 N665 0.984 . S
H671 N665 0.985 . S
H672 N669 0.984 . S
H673 N669 0.985 . S
H674 N668 0.984 1_554 S
H675 N668 0.984 . S
H676 N664 0.984 . S
H677 N664 0.985 . S
C678 C679 1.363 . S
C678 C684 1.379 . S
C678 N686 1.356 . S
C679 C678 1.363 . S
C679 C685 1.363 . S
C680 C681 1.363 . S
C680 C685 1.379 . S
C680 N687 1.356 . S
C681 C680 1.363 . S
C681 C684 1.363 . S
N682 C684 1.356 . S
N682 H694 0.984 . S
N682 H695 0.985 . S
N683 C685 1.356 . S
N683 H688 0.984 . S
N683 H689 0.985 1_556 S
C684 C678 1.379 . S
C684 C681 1.363 . S
C684 N682 1.356 . S
C685 C679 1.363 . S
C685 C680 1.379 . S
C685 N683 1.356 . S
N686 C678 1.356 . S
N686 H692 0.984 . S
N686 H693 0.984 . S
N687 C680 1.356 . S
N687 H690 0.984 . S
N687 H691 0.985 . S
H688 N683 0.984 . S
H689 N683 0.985 1_554 S
H690 N687 0.984 . S
H691 N687 0.985 . S
H692 N686 0.984 . S
H693 N686 0.984 . S
H694 N682 0.984 . S
H695 N682 0.985 . S
C265 C82 1.755 . S
C267 C114 2.183 1_545 S
C285 C154 2.199 . S
C283 C95 1.756 . S
C303 C194 2.209 . S
C301 C56 1.768 . S
C321 C234 2.194 1_455 S
C319 C69 1.767 . S
C339 C123 2.185 1_564 S
C337 C30 1.758 1_565 S
C355 C43 1.784 . S
C357 C163 2.202 1_554 S
C373 C4 1.796 . S
C375 C203 2.208 1_554 S
C391 C17 1.767 1_655 S
C393 C243 2.194 1_654 S
C411 C120 0.835 . S
C409 C74 0.841 1_655 S
C429 C160 0.834 . S
C427 C87 0.841 1_565 S
C447 C200 0.826 . S
C445 C100 0.834 . S
C463 C61 0.835 . S
C465 C240 0.822 . S
C481 C22 0.843 . S
C483 C111 0.838 . S
C501 C151 0.834 . S
C499 C35 0.841 . S
C519 C191 0.826 . S
C517 C48 0.832 . S
C535 C9 0.833 . S
C537 C231 0.829 . S
C553 C73 2.247 . S
C555 C115 2.566 . S
C571 C86 2.214 . S
C573 C155 2.535 . S
C591 C195 2.524 . S
C589 C99 2.201 . S
C609 C235 2.558 . S
C607 C60 2.230 . S
C625 C21 2.248 1_655 S
C627 C106 2.573 . S
C645 C146 2.536 . S
C643 C34 2.214 1_565 S
C663 C186 2.524 . S
C661 C47 2.207 . S
C679 C8 2.240 . S
C681 C226 2.562 . S
