# Generated by pormake.
# Topology tsx, (6,3)-cn, num edge types: 1
# Building blocks:
#     Node 0, Type 0, BuildingBlock: VOLQOD_clean_sbu_1, # of connection points: 6
#     Node 1, Type 0, BuildingBlock: VOLQOD_clean_sbu_1, # of connection points: 6
#     Node 2, Type 1, BuildingBlock: KAKCAD_clean_linker_0, # of connection points: 3
#     Node 3, Type 1, BuildingBlock: KAKCAD_clean_linker_0, # of connection points: 3
#     Node 4, Type 1, BuildingBlock: KAKCAD_clean_linker_0, # of connection points: 3
#     Node 5, Type 1, BuildingBlock: KAKCAD_clean_linker_0, # of connection points: 3
#     Edge 6, Type (0, 1), BuildingBlock: AJUNOK_clean_linker_0, # of connection points: 2
#     Edge 7, Type (0, 1), BuildingBlock: AJUNOK_clean_linker_0, # of connection points: 2
#     Edge 8, Type (0, 1), BuildingBlock: AJUNOK_clean_linker_0, # of connection points: 2
#     Edge 9, Type (0, 1), BuildingBlock: AJUNOK_clean_linker_0, # of connection points: 2
#     Edge 10, Type (0, 1), BuildingBlock: AJUNOK_clean_linker_0, # of connection points: 2
#     Edge 11, Type (0, 1), BuildingBlock: AJUNOK_clean_linker_0, # of connection points: 2
#     Edge 12, Type (0, 1), BuildingBlock: AJUNOK_clean_linker_0, # of connection points: 2
#     Edge 13, Type (0, 1), BuildingBlock: AJUNOK_clean_linker_0, # of connection points: 2
#     Edge 14, Type (0, 1), BuildingBlock: AJUNOK_clean_linker_0, # of connection points: 2
#     Edge 15, Type (0, 1), BuildingBlock: AJUNOK_clean_linker_0, # of connection points: 2
#     Edge 16, Type (0, 1), BuildingBlock: AJUNOK_clean_linker_0, # of connection points: 2
#     Edge 17, Type (0, 1), BuildingBlock: AJUNOK_clean_linker_0, # of connection points: 2
# Relax obj value: 0.075
# Max RMSD: 0.108
# Mean RMSD: 0.083
data_MOF--net-tsx--node1-VOLQOD_clean_sbu_1--node2-KAKCAD_clean_linker_0--edge1-AJUNOK_clean_linker_0
_symmetry_space_group_name_H-M    P1
_symmetry_Int_Tables_number       1
_symmetry_cell_setting            triclinic
loop_
_symmetry_equiv_pos_as_xyz
'x, y, z'
_cell_length_a     19.91771
_cell_length_b     20.576383
_cell_length_c     39.002277
_cell_angle_alpha  90.576266
_cell_angle_beta   89.859302
_cell_angle_gamma 90.050212
loop_
_atom_site_label
_atom_site_type_symbol
_atom_site_fract_x
_atom_site_fract_y
_atom_site_fract_z
_atom_type_partial_charge
O0 O 0.04426 0.98906 0.08386 0.0
Zn1 Zn 0.06714 0.98967 0.03324 0.0
O2 O 0.98685 0.00174 0.00507 0.0
Zn3 Zn 0.97546 0.92635 0.97459 0.0
Zn4 Zn 0.90859 0.01029 0.03484 0.0
Zn5 Zn -0.00472 0.08065 0.97788 0.0
O6 O 0.9702 0.95353 0.92518 0.0
O7 O 0.99093 0.05977 0.92725 0.0
O8 O 0.11718 0.90761 0.0202 0.0
O9 O 0.05567 0.86782 0.97754 0.0
O10 O 0.89358 0.87314 0.98742 0.0
O11 O 0.84972 0.93229 0.02977 0.0
O12 O 0.85361 0.09012 0.02417 0.0
O13 O 0.13135 0.06343 0.02597 0.0
O14 O 0.91867 0.14171 0.98707 0.0
O15 O 0.0815 0.1282 0.98853 0.0
C16 C 0.98992 0.00044 0.10017 0.0
C17 C 0.97893 0.00776 0.91035 0.0
C18 C 0.84898 0.88207 0.01048 0.0
C19 C 0.10708 0.86514 0.9968 0.0
C20 C 0.86534 0.13863 0.00502 0.0
C21 C 0.13067 0.11476 0.00803 0.0
O22 O 0.93533 0.01213 0.08449 0.0
O23 O 0.56699 0.49362 0.58281 0.0
Zn24 Zn 0.59059 0.49131 0.53224 0.0
O25 O 0.51062 0.49819 0.50374 0.0
Zn26 Zn 0.49746 0.41844 0.47696 0.0
Zn27 Zn 0.43316 0.51378 0.53342 0.0
Zn28 Zn 0.52101 0.57014 0.47217 0.0
O29 O 0.49252 0.43674 0.42615 0.0
O30 O 0.52638 0.53924 0.42301 0.0
O31 O 0.64157 0.40937 0.52128 0.0
O32 O 0.5761 0.35853 0.4836 0.0
O33 O 0.41383 0.37081 0.49173 0.0
O34 O 0.3725 0.43597 0.5323 0.0
O35 O 0.37854 0.5907 0.51771 0.0
O36 O 0.65242 0.56699 0.52388 0.0
O37 O 0.44003 0.62723 0.47452 0.0
O38 O 0.60193 0.62473 0.48361 0.0
C39 C 0.51427 0.51165 0.5989 0.0
C40 C 0.50907 0.48606 0.40852 0.0
C41 C 0.36988 0.38375 0.51457 0.0
C42 C 0.62949 0.36119 0.50149 0.0
C43 C 0.38775 0.63033 0.49325 0.0
C44 C 0.65006 0.61641 0.50452 0.0
O45 O 0.46055 0.52535 0.58285 0.0
C46 C 0.98148 0.93455 0.26613 0.0
C47 C -0.00605 0.99316 0.24915 0.0
C48 C 0.98228 0.93236 0.30192 0.0
C49 C -0.00534 0.98897 0.32135 0.0
C50 C 0.00728 0.04762 0.30431 0.0
C51 C 0.00755 0.04955 0.26846 0.0
C52 C -0.00604 0.98666 0.35932 0.0
C53 C 0.03048 0.93883 0.37653 0.0
C54 C 0.02962 0.93556 0.41255 0.0
C55 C 0.99058 0.98032 0.43131 0.0
C56 C 0.95419 0.02873 0.4144 0.0
C57 C 0.95648 0.0319 0.37844 0.0
C58 C 0.91314 0.07598 0.43406 0.0
C59 C 0.86667 0.05469 0.4587 0.0
C60 C 0.91794 0.14257 0.42697 0.0
C61 C 0.87564 0.18696 0.44344 0.0
C62 C 0.82748 0.16551 0.46709 0.0
C63 C 0.07234 0.88734 0.43025 0.0
C64 C 0.07962 0.82427 0.41658 0.0
C65 C 0.11051 0.90551 0.45915 0.0
C66 C 0.15806 0.86286 0.47263 0.0
C67 C 0.16826 0.80177 0.45727 0.0
C68 C 0.12737 0.78202 0.42987 0.0
C69 C 0.82366 0.09913 0.47487 0.0
H70 H 0.97128 0.89043 0.25167 0.0
H71 H 0.97211 0.88663 0.31445 0.0
H72 H 0.01745 0.0918 0.31873 0.0
H73 H 0.01728 0.09524 0.25581 0.0
H74 H 0.06138 0.90542 0.36174 0.0
H75 H 0.92748 0.06852 0.36526 0.0
H76 H 0.98899 0.97801 0.45906 0.0
H77 H 0.86189 0.00349 0.46446 0.0
H78 H 0.95372 0.16014 0.40826 0.0
H79 H 0.8788 0.23782 0.43668 0.0
H80 H 0.04989 0.80827 0.39486 0.0
H81 H 0.10631 0.95385 0.4702 0.0
H82 H 0.78659 0.08162 0.49294 0.0
H83 H 0.13414 0.73466 0.41796 0.0
H84 H 0.18935 0.87889 0.49377 0.0
C85 C 0.98632 0.07073 0.74288 0.0
C86 C 0.97572 0.01292 0.76106 0.0
C87 C 0.98855 0.07026 0.70704 0.0
C88 C 0.98237 0.01164 0.68835 0.0
C89 C 0.97251 0.95375 0.70667 0.0
C90 C 0.96849 0.95452 0.74243 0.0
C91 C 0.98793 0.01033 0.65009 0.0
C92 C 0.0298 0.05435 0.63287 0.0
C93 C 0.03689 0.05167 0.59707 0.0
C94 C 0.00364 0.00313 0.5782 0.0
C95 C 0.96109 0.95887 0.59476 0.0
C96 C 0.95249 0.96394 0.63055 0.0
C97 C 0.92513 0.90727 0.5751 0.0
C98 C 0.89762 0.91953 0.54259 0.0
C99 C 0.91599 0.84556 0.58952 0.0
C100 C 0.87696 0.79871 0.57297 0.0
C101 C 0.84687 0.81179 0.54125 0.0
C102 C 0.07941 0.10009 0.57968 0.0
C103 C 0.0686 0.16654 0.58578 0.0
C104 C 0.1327 0.08047 0.55838 0.0
C105 C 0.17652 0.12668 0.5447 0.0
C106 C 0.16684 0.19329 0.55159 0.0
C107 C 0.11155 0.21269 0.57168 0.0
C108 C 0.85925 0.87204 0.52572 0.0
H109 H -0.00585 0.11642 0.75628 0.0
H110 H -0.00474 0.1161 0.6941 0.0
H111 H 0.96904 0.90729 0.69354 0.0
H112 H 0.96002 0.90904 0.7555 0.0
H113 H 0.05857 0.09004 0.64722 0.0
H114 H 0.91718 0.93203 0.64316 0.0
H115 H 0.01083 0.00019 0.55067 0.0
H116 H 0.90376 0.96643 0.53063 0.0
H117 H 0.93804 0.83366 0.61402 0.0
H118 H 0.86849 0.75287 0.5857 0.0
H119 H 0.02728 0.18271 0.60185 0.0
H120 H 0.14209 0.02933 0.55353 0.0
H121 H 0.83828 0.88299 0.50085 0.0
H122 H 0.10232 0.26365 0.5771 0.0
H123 H 0.21942 0.11004 0.52996 0.0
C124 C 0.52126 0.45536 0.76608 0.0
C125 C 0.51779 0.5145 0.7485 0.0
C126 C 0.51981 0.45444 0.80197 0.0
C127 C 0.51536 0.51275 0.82101 0.0
C128 C 0.51369 0.57196 0.80326 0.0
C129 C 0.51478 0.5728 0.76744 0.0
C130 C 0.51125 0.51216 0.85918 0.0
C131 C 0.54977 0.46856 0.8784 0.0
C132 C 0.54627 0.46874 0.91443 0.0
C133 C 0.50421 0.51344 0.93137 0.0
C134 C 0.46455 0.55682 0.9126 0.0
C135 C 0.46818 0.55538 0.87656 0.0
C136 C 0.41788 0.60275 0.93017 0.0
C137 C 0.37963 0.58329 0.95873 0.0
C138 C 0.40855 0.66563 0.9172 0.0
C139 C 0.35972 0.70663 0.93112 0.0
C140 C 0.31998 0.6862 0.95869 0.0
C141 C 0.58648 0.42169 0.93419 0.0
C142 C 0.58598 0.3556 0.92489 0.0
C143 C 0.62702 0.44254 0.96166 0.0
C144 C 0.66846 0.39833 0.97855 0.0
C145 C 0.66879 0.33249 0.96869 0.0
C146 C 0.62653 0.31138 0.94207 0.0
C147 C 0.33118 0.62487 0.97296 0.0
H148 H 0.52349 0.40972 0.75203 0.0
H149 H 0.52055 0.40796 0.81473 0.0
H150 H 0.5118 0.61786 0.81707 0.0
H151 H 0.5135 0.61913 0.75452 0.0
H152 H 0.58373 0.4353 0.86542 0.0
H153 H 0.43593 0.58694 0.86185 0.0
H154 H 0.50202 0.51393 0.95914 0.0
H155 H 0.38513 0.53506 0.96922 0.0
H156 H 0.43822 0.68285 0.89582 0.0
H157 H 0.35213 0.75408 0.91996 0.0
H158 H 0.55471 0.33826 0.90402 0.0
H159 H 0.62836 0.49332 0.96926 0.0
H160 H 0.30063 0.60818 0.99414 0.0
H161 H 0.62669 0.261 0.93372 0.0
H162 H 0.701 0.41563 0.99891 0.0
C163 C 0.4958 0.53619 0.24066 0.0
C164 C 0.50593 0.47834 0.25882 0.0
C165 C 0.49706 0.53615 0.2048 0.0
C166 C 0.50823 0.47818 0.1863 0.0
C167 C 0.51839 0.42033 0.20444 0.0
C168 C 0.51767 0.42048 0.24029 0.0
C169 C 0.50995 0.47792 0.1482 0.0
C170 C 0.54519 0.52613 0.13042 0.0
C171 C 0.54831 0.525 0.09447 0.0
C172 C 0.5159 0.47529 0.07609 0.0
C173 C 0.47823 0.42784 0.09333 0.0
C174 C 0.47602 0.42948 0.12946 0.0
C175 C 0.43796 0.37891 0.0739 0.0
C176 C 0.40505 0.39577 0.04334 0.0
C177 C 0.42835 0.31616 0.08699 0.0
C178 C 0.38336 0.27318 0.07142 0.0
C179 C 0.34771 0.29133 0.04198 0.0
C180 C 0.58457 0.5769 0.07626 0.0
C181 C 0.56829 0.64211 0.0828 0.0
C182 C 0.63719 0.56191 0.05353 0.0
C183 C 0.67551 0.61168 0.03907 0.0
C184 C 0.66076 0.6772 0.04656 0.0
C185 C 0.60558 0.69174 0.06786 0.0
C186 C 0.36099 0.35215 0.02736 0.0
H187 H 0.48631 0.58148 0.25421 0.0
H188 H 0.48846 0.58137 0.19153 0.0
H189 H 0.52818 0.3751 0.19089 0.0
H190 H 0.52745 0.37544 0.2535 0.0
H191 H 0.5715 0.56393 0.14456 0.0
H192 H 0.44589 0.39441 0.14319 0.0
H193 H 0.51907 0.47455 0.04834 0.0
H194 H 0.41097 0.44359 0.0324 0.0
H195 H 0.45426 0.30065 0.10987 0.0
H196 H 0.37458 0.22658 0.08331 0.0
H197 H 0.52723 0.65464 0.09989 0.0
H198 H 0.65052 0.51176 0.0482 0.0
H199 H 0.33601 0.36682 0.00406 0.0
H200 H 0.59234 0.74168 0.07374 0.0
H201 H 0.71843 0.59871 0.02336 0.0
C202 C 0.25168 0.13779 0.01882 0.0
C203 C 0.18691 0.16108 0.01173 0.0
C204 C 0.30433 0.18049 0.02665 0.0
C205 C 0.29396 0.24811 0.02832 0.0
H206 H 0.26149 0.086 0.01897 0.0
H207 H 0.35315 0.1602 0.03239 0.0
S208 S 0.13323 0.33355 0.01164 0.0
N209 N 0.11548 0.25589 0.00566 0.0
N210 N 0.2136 0.33627 0.02179 0.0
C211 C 0.22974 0.27213 0.02023 0.0
C212 C 0.1764 0.22858 0.01163 0.0
C213 C 0.16117 0.78608 0.95654 0.0
C214 C 0.15887 0.81516 0.98938 0.0
C215 C 0.21291 0.74354 0.94721 0.0
C216 C 0.26376 0.72751 0.97047 0.0
H217 H 0.12398 0.79785 0.93736 0.0
H218 H 0.21366 0.72358 0.92139 0.0
S219 S 0.27925 0.78615 0.06016 0.0
N220 N 0.211 0.82229 0.04574 0.0
N221 N 0.30782 0.74103 0.02804 0.0
C222 C 0.26111 0.75395 0.00373 0.0
C223 C 0.20882 0.79818 0.0132 0.0
C224 C 0.77008 0.82778 0.05057 0.0
C225 C 0.79862 0.8309 0.0176 0.0
C226 C 0.72534 0.77837 0.05933 0.0
C227 C 0.70632 0.73023 0.0354 0.0
H228 H 0.78377 0.86281 0.07028 0.0
H229 H 0.70675 0.77714 0.08544 0.0
S230 S 0.7622 0.71925 0.94468 0.0
N231 N 0.80258 0.78309 0.96034 0.0
N232 N 0.71644 0.69086 0.97659 0.0
C233 C 0.73311 0.73345 0.00202 0.0
C234 C 0.77961 0.78363 0.99317 0.0
C235 C 0.83415 0.25182 0.98887 0.0
C236 C 0.81443 0.19057 1.00122 0.0
C237 C 0.7866 0.2991 0.98041 0.0
C238 C 0.71756 0.28658 0.98357 0.0
H239 H 0.88675 0.26273 0.98471 0.0
H240 H 0.80389 0.34452 0.96967 0.0
S241 S 0.63923 0.13691 0.01743 0.0
N242 N 0.7207 0.12214 0.01857 0.0
N243 N 0.63148 0.21107 0.00213 0.0
C244 C 0.69704 0.22699 0.99736 0.0
C245 C 0.74545 0.17902 0.00641 0.0
C246 C 0.76727 0.64955 0.51867 0.0
C247 C 0.70223 0.66706 0.50839 0.0
C248 C 0.81519 0.69686 0.52705 0.0
C249 C 0.79957 0.76355 0.5261 0.0
H250 H 0.78079 0.5988 0.52106 0.0
H251 H 0.86422 0.68098 0.53551 0.0
S252 S 0.63657 0.83475 0.49983 0.0
N253 N 0.62543 0.7555 0.49601 0.0
N254 N 0.71462 0.84455 0.51306 0.0
C255 C 0.73547 0.78176 0.51448 0.0
C256 C 0.68698 0.73347 0.50537 0.0
C257 C 0.66113 0.24893 0.4825 0.0
C258 C 0.68007 0.30887 0.49735 0.0
C259 C 0.70892 0.20119 0.4746 0.0
C260 C 0.77744 0.21191 0.48089 0.0
H261 H 0.60914 0.23933 0.4761 0.0
H262 H 0.69247 0.15682 0.46198 0.0
S263 S 0.85326 0.35746 0.52195 0.0
N264 N 0.77223 0.37406 0.52021 0.0
N265 N 0.86184 0.28414 0.50491 0.0
C266 C 0.79695 0.27014 0.49704 0.0
C267 C 0.74829 0.31862 0.50545 0.0
C268 C 0.28757 0.33567 0.55524 0.0
C269 C 0.3167 0.33579 0.52236 0.0
C270 C 0.23909 0.28971 0.56418 0.0
C271 C 0.21699 0.24232 0.54052 0.0
H272 H 0.30341 0.37049 0.57462 0.0
H273 H 0.21973 0.29061 0.59017 0.0
S274 S 0.27321 0.22491 0.45012 0.0
N275 N 0.31794 0.28621 0.46547 0.0
N276 N 0.22511 0.20061 0.48208 0.0
C277 C 0.24456 0.24262 0.50727 0.0
C278 C 0.29471 0.28917 0.49823 0.0
C279 C 0.28333 0.69278 0.50852 0.0
C280 C 0.33452 0.67784 0.48468 0.0
C281 C 0.23017 0.73432 0.49996 0.0
C282 C 0.22599 0.76126 0.46711 0.0
H283 H 0.28398 0.67186 0.5339 0.0
H284 H 0.19131 0.74418 0.51878 0.0
S285 S 0.34732 0.74032 0.39574 0.0
N286 N 0.37798 0.69585 0.427 0.0
N287 N 0.27779 0.77301 0.41118 0.0
C288 C 0.27712 0.74796 0.44331 0.0
C289 C 0.33151 0.70651 0.45203 0.0
C290 C 0.04827 0.01504 0.1566 0.0
C291 C 0.98979 -0.00109 0.13815 0.0
C292 C 0.04904 0.01407 0.19258 0.0
C293 C 0.99184 -0.00445 0.21127 0.0
H294 H 0.09357 0.02919 0.14317 0.0
H295 H 0.09492 0.02698 0.20588 0.0
S296 S 0.82659 0.94791 0.17552 0.0
N297 N 0.87321 0.96376 0.14154 0.0
N298 N 0.87543 0.96087 0.20905 0.0
C299 C 0.9333 0.97897 0.19325 0.0
C300 C 0.93206 0.98097 0.15671 0.0
C301 C 0.00761 0.96082 0.85303 0.0
C302 C 0.97655 0.01 0.87257 0.0
C303 C 0.00736 0.96249 0.81712 0.0
C304 C 0.97468 0.01264 0.79932 0.0
H305 H 0.0336 0.92146 0.86559 0.0
H306 H 0.03386 0.92451 0.80326 0.0
S307 S 0.87981 0.14937 0.8392 0.0
N308 N 0.90989 0.10865 0.87203 0.0
N309 N 0.906 0.1102 0.80451 0.0
C310 C 0.94181 0.06126 0.81877 0.0
C311 C 0.94352 0.06027 0.85538 0.0
C312 C 0.56568 0.48252 0.65541 0.0
C313 C 0.5149 0.51468 0.63704 0.0
C314 C 0.56616 0.48246 0.69139 0.0
C315 C 0.51648 0.51532 0.71044 0.0
H316 H 0.60497 0.45628 0.64194 0.0
H317 H 0.60601 0.45687 0.70443 0.0
S318 S 0.37262 0.60727 0.67527 0.0
N319 N 0.41359 0.58063 0.64108 0.0
N320 N 0.41495 0.58043 0.70858 0.0
C321 C 0.46578 0.54809 0.69257 0.0
C322 C 0.46484 0.54774 0.65594 0.0
C323 C 0.54256 0.52877 0.351 0.0
C324 C 0.50777 0.48218 0.37043 0.0
C325 C 0.54169 0.52706 0.31507 0.0
C326 C 0.50575 0.47888 0.29699 0.0
H327 H 0.57126 0.56679 0.36361 0.0
H328 H 0.57005 0.56347 0.30132 0.0
S329 S 0.40238 0.34816 0.33543 0.0
N330 N 0.43422 0.38763 0.36868 0.0
N331 N 0.43172 0.38527 0.30118 0.0
C332 C 0.47007 0.43239 0.31601 0.0
C333 C 0.47126 0.43385 0.35266 0.0
loop_
_geom_bond_atom_site_label_1
_geom_bond_atom_site_label_2
_geom_bond_distance
_geom_bond_site_symmetry_2
_ccdc_geom_bond_type
O0 Zn1 1.953 . S
O0 C16 1.225 1_565 S
Zn1 O0 1.953 . S
Zn1 O2 1.949 1_565 S
Zn1 O8 1.919 . S
Zn1 O13 1.924 1_565 S
O2 Zn1 1.949 1_545 S
O2 Zn3 1.923 1_444 S
O2 Zn4 1.950 1_455 S
O2 Zn5 1.945 1_554 S
Zn3 O2 1.923 1_666 S
Zn3 O6 1.933 . S
Zn3 O9 1.941 1_655 S
Zn3 O10 1.965 . S
Zn4 O2 1.950 1_655 S
Zn4 O11 1.938 1_545 S
Zn4 O12 1.906 . S
Zn4 O22 1.953 . S
Zn5 O2 1.945 1_556 S
Zn5 O7 1.932 . S
Zn5 O14 1.977 1_455 S
Zn5 O15 1.910 . S
O6 Zn3 1.933 . S
O6 C17 1.226 1_665 S
O7 Zn5 1.932 . S
O7 C17 1.307 . S
O8 Zn1 1.919 . S
O8 C19 1.253 1_554 S
O9 Zn3 1.941 1_455 S
O9 C19 1.283 . S
O10 Zn3 1.965 . S
O10 C18 1.303 1_556 S
O11 Zn4 1.938 1_565 S
O11 C18 1.247 . S
O12 Zn4 1.906 . S
O12 C20 1.304 1_554 S
O13 Zn1 1.924 1_545 S
O13 C21 1.311 . S
O14 Zn5 1.977 1_655 S
O14 C20 1.272 . S
O15 Zn5 1.910 . S
O15 C21 1.231 1_556 S
C16 O0 1.225 1_545 S
C16 O22 1.298 1_455 S
C17 O6 1.226 1_445 S
C17 O7 1.307 . S
C18 O10 1.303 1_554 S
C18 O11 1.247 . S
C19 O8 1.253 1_556 S
C19 O9 1.283 . S
C20 O12 1.304 1_556 S
C20 O14 1.272 . S
C21 O13 1.311 . S
C21 O15 1.231 1_554 S
O22 Zn4 1.953 . S
O22 C16 1.298 1_655 S
O23 Zn24 1.953 . S
O23 C39 1.225 . S
Zn24 O23 1.953 . S
Zn24 O25 1.949 . S
Zn24 O31 1.919 . S
Zn24 O36 1.924 . S
O25 Zn24 1.949 . S
O25 Zn26 1.923 . S
O25 Zn27 1.950 . S
O25 Zn28 1.945 . S
Zn26 O25 1.923 . S
Zn26 O29 1.933 . S
Zn26 O32 1.941 . S
Zn26 O33 1.965 . S
Zn27 O25 1.950 . S
Zn27 O34 1.938 . S
Zn27 O35 1.906 . S
Zn27 O45 1.953 . S
Zn28 O25 1.945 . S
Zn28 O30 1.932 . S
Zn28 O37 1.977 . S
Zn28 O38 1.910 . S
O29 Zn26 1.933 . S
O29 C40 1.226 . S
O30 Zn28 1.932 . S
O30 C40 1.307 . S
O31 Zn24 1.919 . S
O31 C42 1.253 . S
O32 Zn26 1.941 . S
O32 C42 1.283 . S
O33 Zn26 1.965 . S
O33 C41 1.303 . S
O34 Zn27 1.938 . S
O34 C41 1.247 . S
O35 Zn27 1.906 . S
O35 C43 1.304 . S
O36 Zn24 1.924 . S
O36 C44 1.311 . S
O37 Zn28 1.977 . S
O37 C43 1.272 . S
O38 Zn28 1.910 . S
O38 C44 1.231 . S
C39 O23 1.225 . S
C39 O45 1.298 . S
C40 O29 1.226 . S
C40 O30 1.307 . S
C41 O33 1.303 . S
C41 O34 1.247 . S
C42 O31 1.253 . S
C42 O32 1.283 . S
C43 O35 1.304 . S
C43 O37 1.272 . S
C44 O36 1.311 . S
C44 O38 1.231 . S
O45 Zn27 1.953 . S
O45 C39 1.298 . S
C46 C47 1.394 1_455 S
C46 C48 1.397 . S
C46 H70 0.931 . S
C47 C46 1.394 1_655 S
C47 C51 1.389 1_665 S
C48 C46 1.397 . S
C48 C49 1.384 . S
C48 H71 0.930 . S
C49 C48 1.384 . S
C49 C50 1.377 1_565 S
C49 C52 1.481 . S
C50 C49 1.377 1_545 S
C50 C51 1.389 . S
C50 H72 0.929 . S
C51 C47 1.389 1_445 S
C51 C50 1.389 . S
C51 H73 0.931 . S
C52 C49 1.481 . S
C52 C53 1.394 . S
C52 C57 1.383 1_465 S
C53 C52 1.394 . S
C53 C54 1.401 . S
C53 H74 0.930 . S
C54 C53 1.401 . S
C54 C55 1.376 1_455 S
C54 C63 1.511 . S
C55 C54 1.376 1_655 S
C55 C56 1.392 1_565 S
C55 H76 0.931 . S
C56 C55 1.392 1_545 S
C56 C57 1.361 . S
C56 C58 1.500 . S
C57 C52 1.383 1_645 S
C57 C56 1.361 . S
C57 H75 0.931 . S
C58 C56 1.500 . S
C58 C59 1.371 . S
C58 C60 1.365 . S
C59 C58 1.371 . S
C59 C69 1.386 . S
C59 H77 0.931 . S
C60 C58 1.365 . S
C60 C61 1.409 . S
C60 H78 0.929 . S
C61 C60 1.409 . S
C61 C62 1.380 . S
C61 H79 0.930 . S
C62 C61 1.380 . S
C62 C69 1.357 . S
C63 C54 1.511 . S
C63 C64 1.341 . S
C63 C65 1.371 . S
C64 C63 1.341 . S
C64 C68 1.394 . S
C64 H80 0.930 . S
C65 C63 1.371 . S
C65 C66 1.392 . S
C65 H81 0.931 . S
C66 C65 1.392 . S
C66 C67 1.331 . S
C66 H84 0.932 . S
C67 C66 1.331 . S
C67 C68 1.336 . S
C68 C64 1.394 . S
C68 C67 1.336 . S
C68 H83 0.929 . S
C69 C59 1.386 . S
C69 C62 1.357 . S
C69 H82 0.928 . S
H70 C46 0.931 . S
H71 C48 0.930 . S
H72 C50 0.929 . S
H73 C51 0.931 . S
H74 C53 0.930 . S
H75 C57 0.931 . S
H76 C55 0.931 . S
H77 C59 0.931 . S
H78 C60 0.929 . S
H79 C61 0.930 . S
H80 C64 0.930 . S
H81 C65 0.931 . S
H82 C69 0.928 . S
H83 C68 0.929 . S
H84 C66 0.932 . S
C85 C86 1.386 . S
C85 C87 1.397 . S
C85 H109 0.931 . S
C86 C85 1.386 . S
C86 C90 1.397 1_545 S
C87 C85 1.397 . S
C87 C88 1.384 . S
C87 H110 0.930 . S
C88 C87 1.384 . S
C88 C89 1.377 1_545 S
C88 C91 1.481 . S
C89 C88 1.377 1_565 S
C89 C90 1.389 . S
C89 H111 0.929 . S
C90 C86 1.397 1_565 S
C90 C89 1.389 . S
C90 H112 0.931 . S
C91 C88 1.481 . S
C91 C92 1.387 . S
C91 C96 1.390 1_445 S
C92 C91 1.387 . S
C92 C93 1.401 . S
C92 H113 0.930 . S
C93 C92 1.401 . S
C93 C94 1.376 . S
C93 C102 1.511 . S
C94 C93 1.376 . S
C94 C95 1.392 1_445 S
C94 H115 0.931 . S
C95 C94 1.392 1_665 S
C95 C96 1.361 . S
C95 C97 1.500 . S
C96 C91 1.390 1_665 S
C96 C95 1.361 . S
C96 H114 0.931 . S
C97 C95 1.500 . S
C97 C98 1.371 . S
C97 C99 1.365 . S
C98 C97 1.371 . S
C98 C108 1.386 . S
C98 H116 0.931 . S
C99 C97 1.365 . S
C99 C100 1.409 . S
C99 H117 0.929 . S
C100 C99 1.409 . S
C100 C101 1.380 . S
C100 H118 0.930 . S
C101 C100 1.380 . S
C101 C108 1.357 . S
C102 C93 1.511 . S
C102 C103 1.341 . S
C102 C104 1.371 . S
C103 C102 1.341 . S
C103 C107 1.394 . S
C103 H119 0.930 . S
C104 C102 1.371 . S
C104 C105 1.392 . S
C104 H120 0.931 . S
C105 C104 1.392 . S
C105 C106 1.331 . S
C105 H123 0.932 . S
C106 C105 1.331 . S
C106 C107 1.336 . S
C107 C103 1.394 . S
C107 C106 1.336 . S
C107 H122 0.929 . S
C108 C98 1.386 . S
C108 C101 1.357 . S
C108 H121 0.928 . S
H109 C85 0.931 . S
H110 C87 0.930 . S
H111 C89 0.929 . S
H112 C90 0.931 . S
H113 C92 0.930 . S
H114 C96 0.931 . S
H115 C94 0.931 . S
H116 C98 0.931 . S
H117 C99 0.929 . S
H118 C100 0.930 . S
H119 C103 0.930 . S
H120 C104 0.931 . S
H121 C108 0.928 . S
H122 C107 0.929 . S
H123 C105 0.932 . S
C124 C125 1.386 . S
C124 C126 1.397 . S
C124 H148 0.931 . S
C125 C124 1.386 . S
C125 C129 1.397 . S
C126 C124 1.397 . S
C126 C127 1.384 . S
C126 H149 0.930 . S
C127 C126 1.384 . S
C127 C128 1.377 . S
C127 C130 1.481 . S
C128 C127 1.377 . S
C128 C129 1.389 . S
C128 H150 0.929 . S
C129 C125 1.397 . S
C129 C128 1.389 . S
C129 H151 0.931 . S
C130 C127 1.481 . S
C130 C131 1.387 . S
C130 C135 1.390 . S
C131 C130 1.387 . S
C131 C132 1.401 . S
C131 H152 0.930 . S
C132 C131 1.401 . S
C132 C133 1.376 . S
C132 C141 1.511 . S
C133 C132 1.376 . S
C133 C134 1.392 . S
C133 H154 0.931 . S
C134 C133 1.392 . S
C134 C135 1.361 . S
C134 C136 1.500 . S
C135 C130 1.390 . S
C135 C134 1.361 . S
C135 H153 0.931 . S
C136 C134 1.500 . S
C136 C137 1.371 . S
C136 C138 1.365 . S
C137 C136 1.371 . S
C137 C147 1.386 . S
C137 H155 0.931 . S
C138 C136 1.365 . S
C138 C139 1.409 . S
C138 H156 0.929 . S
C139 C138 1.409 . S
C139 C140 1.380 . S
C139 H157 0.930 . S
C140 C139 1.380 . S
C140 C147 1.357 . S
C141 C132 1.511 . S
C141 C142 1.341 . S
C141 C143 1.371 . S
C142 C141 1.341 . S
C142 C146 1.394 . S
C142 H158 0.930 . S
C143 C141 1.371 . S
C143 C144 1.392 . S
C143 H159 0.931 . S
C144 C143 1.392 . S
C144 C145 1.331 . S
C144 H162 0.901 1_556 S
C145 C144 1.331 . S
C145 C146 1.336 . S
C146 C142 1.394 . S
C146 C145 1.336 . S
C146 H161 0.929 . S
C147 C137 1.386 . S
C147 C140 1.357 . S
C147 H160 0.928 . S
H148 C124 0.931 . S
H149 C126 0.930 . S
H150 C128 0.929 . S
H151 C129 0.931 . S
H152 C131 0.930 . S
H153 C135 0.931 . S
H154 C133 0.931 . S
H155 C137 0.931 . S
H156 C138 0.929 . S
H157 C139 0.930 . S
H158 C142 0.930 . S
H159 C143 0.931 . S
H160 C147 0.928 . S
H161 C146 0.929 . S
H162 C144 0.901 1_554 S
C163 C164 1.386 . S
C163 C165 1.397 . S
C163 H187 0.931 . S
C164 C163 1.386 . S
C164 C168 1.397 . S
C165 C163 1.397 . S
C165 C166 1.384 . S
C165 H188 0.930 . S
C166 C165 1.384 . S
C166 C167 1.377 . S
C166 C169 1.481 . S
C167 C166 1.377 . S
C167 C168 1.389 . S
C167 H189 0.929 . S
C168 C164 1.397 . S
C168 C167 1.389 . S
C168 H190 0.931 . S
C169 C166 1.481 . S
C169 C170 1.387 . S
C169 C174 1.390 . S
C170 C169 1.387 . S
C170 C171 1.401 . S
C170 H191 0.930 . S
C171 C170 1.401 . S
C171 C172 1.376 . S
C171 C180 1.511 . S
C172 C171 1.376 . S
C172 C173 1.392 . S
C172 H193 0.931 . S
C173 C172 1.392 . S
C173 C174 1.361 . S
C173 C175 1.500 . S
C174 C169 1.390 . S
C174 C173 1.361 . S
C174 H192 0.931 . S
C175 C173 1.500 . S
C175 C176 1.371 . S
C175 C177 1.365 . S
C176 C175 1.371 . S
C176 C186 1.386 . S
C176 H194 0.931 . S
C177 C175 1.365 . S
C177 C178 1.409 . S
C177 H195 0.929 . S
C178 C177 1.409 . S
C178 C179 1.380 . S
C178 H196 0.930 . S
C179 C178 1.380 . S
C179 C186 1.357 . S
C180 C171 1.511 . S
C180 C181 1.341 . S
C180 C182 1.371 . S
C181 C180 1.341 . S
C181 C185 1.394 . S
C181 H197 0.930 . S
C182 C180 1.371 . S
C182 C183 1.392 . S
C182 H198 0.931 . S
C183 C182 1.392 . S
C183 C184 1.331 . S
C183 H201 0.932 . S
C184 C183 1.331 . S
C184 C185 1.336 . S
C185 C181 1.394 . S
C185 C184 1.336 . S
C185 H200 0.929 . S
C186 C176 1.386 . S
C186 C179 1.357 . S
C186 H199 0.928 . S
H187 C163 0.931 . S
H188 C165 0.930 . S
H189 C167 0.929 . S
H190 C168 0.931 . S
H191 C170 0.930 . S
H192 C174 0.931 . S
H193 C172 0.931 . S
H194 C176 0.931 . S
H195 C177 0.929 . S
H196 C178 0.930 . S
H197 C181 0.930 . S
H198 C182 0.931 . S
H199 C186 0.928 . S
H200 C185 0.929 . S
H201 C183 0.932 . S
C202 C203 1.369 . S
C202 C204 1.419 . S
C202 H206 0.930 . S
C203 C202 1.369 . S
C203 C212 1.429 . S
C204 C202 1.419 . S
C204 C205 1.363 . S
C204 H207 0.929 . S
C205 C204 1.363 . S
C205 C211 1.428 . S
H206 C202 0.930 . S
H207 C204 0.929 . S
S208 N209 1.613 1_556 S
S208 N210 1.610 1_556 S
N209 S208 1.613 1_554 S
N209 C212 1.350 . S
N210 S208 1.610 1_554 S
N210 C211 1.351 . S
C211 C205 1.428 . S
C211 N210 1.351 . S
C211 C212 1.434 . S
C212 C203 1.429 . S
C212 N209 1.350 . S
C212 C211 1.434 . S
C213 C214 1.369 . S
C213 C215 1.419 . S
C213 H217 0.930 . S
C214 C213 1.369 . S
C214 C223 1.429 1_556 S
C215 C213 1.419 . S
C215 C216 1.363 . S
C215 H218 0.929 . S
C216 C215 1.363 . S
C216 C222 1.428 1_556 S
H217 C213 0.930 . S
H218 C215 0.929 . S
S219 N220 1.613 . S
S219 N221 1.610 . S
N220 S219 1.613 . S
N220 C223 1.350 . S
N221 S219 1.610 . S
N221 C222 1.351 . S
C222 C216 1.428 1_554 S
C222 N221 1.351 . S
C222 C223 1.434 . S
C223 C214 1.429 1_554 S
C223 N220 1.350 . S
C223 C222 1.434 . S
C224 C225 1.369 . S
C224 C226 1.419 . S
C224 H228 0.930 . S
C225 C224 1.369 . S
C225 C234 1.429 1_554 S
C226 C224 1.419 . S
C226 C227 1.363 . S
C226 H229 0.929 . S
C227 C226 1.363 . S
C227 C233 1.427 1_554 S
H228 C224 0.930 . S
H229 C226 0.929 . S
S230 N231 1.613 . S
S230 N232 1.610 . S
N231 S230 1.613 . S
N231 C234 1.350 . S
N232 S230 1.610 . S
N232 C233 1.352 . S
C233 C227 1.427 1_556 S
C233 N232 1.352 . S
C233 C234 1.434 . S
C234 C225 1.429 1_556 S
C234 N231 1.350 . S
C234 C233 1.434 . S
C235 C236 1.369 . S
C235 C237 1.419 . S
C235 H239 0.930 . S
C236 C235 1.369 . S
C236 C245 1.429 . S
C237 C235 1.419 . S
C237 C238 1.363 . S
C237 H240 0.929 . S
C238 C237 1.363 . S
C238 C244 1.428 . S
H239 C235 0.930 . S
H240 C237 0.929 . S
S241 N242 1.613 . S
S241 N243 1.610 . S
N242 S241 1.613 . S
N242 C245 1.350 . S
N243 S241 1.610 . S
N243 C244 1.351 . S
C244 C238 1.428 . S
C244 N243 1.351 . S
C244 C245 1.434 . S
C245 C236 1.429 . S
C245 N242 1.350 . S
C245 C244 1.434 . S
C246 C247 1.369 . S
C246 C248 1.419 . S
C246 H250 0.930 . S
C247 C246 1.369 . S
C247 C256 1.429 . S
C248 C246 1.419 . S
C248 C249 1.363 . S
C248 H251 0.929 . S
C249 C248 1.363 . S
C249 C255 1.428 . S
H250 C246 0.930 . S
H251 C248 0.929 . S
S252 N253 1.613 . S
S252 N254 1.610 . S
N253 S252 1.613 . S
N253 C256 1.350 . S
N254 S252 1.610 . S
N254 C255 1.351 . S
C255 C249 1.428 . S
C255 N254 1.351 . S
C255 C256 1.434 . S
C256 C247 1.429 . S
C256 N253 1.350 . S
C256 C255 1.434 . S
C257 C258 1.369 . S
C257 C259 1.419 . S
C257 H261 0.930 . S
C258 C257 1.369 . S
C258 C267 1.429 . S
C259 C257 1.419 . S
C259 C260 1.363 . S
C259 H262 0.929 . S
C260 C259 1.363 . S
C260 C266 1.428 . S
H261 C257 0.930 . S
H262 C259 0.929 . S
S263 N264 1.613 . S
S263 N265 1.610 . S
N264 S263 1.613 . S
N264 C267 1.350 . S
N265 S263 1.610 . S
N265 C266 1.351 . S
C266 C260 1.428 . S
C266 N265 1.351 . S
C266 C267 1.434 . S
C267 C258 1.429 . S
C267 N264 1.350 . S
C267 C266 1.434 . S
C268 C269 1.369 . S
C268 C270 1.419 . S
C268 H272 0.930 . S
C269 C268 1.369 . S
C269 C278 1.429 . S
C270 C268 1.419 . S
C270 C271 1.363 . S
C270 H273 0.929 . S
C271 C270 1.363 . S
C271 C277 1.428 . S
H272 C268 0.930 . S
H273 C270 0.929 . S
S274 N275 1.613 . S
S274 N276 1.610 . S
N275 S274 1.613 . S
N275 C278 1.350 . S
N276 S274 1.610 . S
N276 C277 1.351 . S
C277 C271 1.428 . S
C277 N276 1.351 . S
C277 C278 1.434 . S
C278 C269 1.429 . S
C278 N275 1.350 . S
C278 C277 1.434 . S
C279 C280 1.369 . S
C279 C281 1.419 . S
C279 H283 0.930 . S
C280 C279 1.369 . S
C280 C289 1.429 . S
C281 C279 1.419 . S
C281 C282 1.363 . S
C281 H284 0.929 . S
C282 C281 1.363 . S
C282 C288 1.428 . S
H283 C279 0.930 . S
H284 C281 0.929 . S
S285 N286 1.613 . S
S285 N287 1.610 . S
N286 S285 1.613 . S
N286 C289 1.350 . S
N287 S285 1.610 . S
N287 C288 1.351 . S
C288 C282 1.428 . S
C288 N287 1.351 . S
C288 C289 1.434 . S
C289 C280 1.429 . S
C289 N286 1.350 . S
C289 C288 1.434 . S
C290 C291 1.369 . S
C290 C292 1.419 . S
C290 H294 0.930 . S
C291 C290 1.369 . S
C291 C300 1.429 1_455 S
C292 C290 1.419 . S
C292 C293 1.370 . S
C292 H295 0.929 . S
C293 C292 1.370 . S
C293 C299 1.421 1_455 S
H294 C290 0.930 . S
H295 C292 0.929 . S
S296 N297 1.613 . S
S296 N298 1.611 . S
N297 S296 1.613 . S
N297 C300 1.350 . S
N298 S296 1.611 . S
N298 C299 1.351 . S
C299 C293 1.421 1_655 S
C299 N298 1.351 . S
C299 C300 1.434 . S
C300 C291 1.429 1_655 S
C300 N297 1.350 . S
C300 C299 1.434 . S
C301 C302 1.369 1_565 S
C301 C303 1.419 . S
C301 H305 0.930 . S
C302 C301 1.369 1_545 S
C302 C311 1.429 1_455 S
C303 C301 1.419 . S
C303 C304 1.363 1_565 S
C303 H306 0.929 . S
C304 C303 1.363 1_545 S
C304 C310 1.428 1_455 S
H305 C301 0.930 . S
H306 C303 0.929 . S
S307 N308 1.613 . S
S307 N309 1.610 . S
N308 S307 1.613 . S
N308 C311 1.350 . S
N309 S307 1.610 . S
N309 C310 1.351 . S
C310 C304 1.428 1_655 S
C310 N309 1.351 . S
C310 C311 1.434 . S
C311 C302 1.429 1_655 S
C311 N308 1.350 . S
C311 C310 1.434 . S
C312 C313 1.369 . S
C312 C314 1.419 . S
C312 H316 0.930 . S
C313 C312 1.369 . S
C313 C322 1.429 . S
C314 C312 1.419 . S
C314 C315 1.363 . S
C314 H317 0.929 . S
C315 C314 1.363 . S
C315 C321 1.428 . S
H316 C312 0.930 . S
H317 C314 0.929 . S
S318 N319 1.613 . S
S318 N320 1.610 . S
N319 S318 1.613 . S
N319 C322 1.350 . S
N320 S318 1.610 . S
N320 C321 1.351 . S
C321 C315 1.428 . S
C321 N320 1.351 . S
C321 C322 1.434 . S
C322 C313 1.429 . S
C322 N319 1.350 . S
C322 C321 1.434 . S
C323 C324 1.369 . S
C323 C325 1.419 . S
C323 H327 0.930 . S
C324 C323 1.369 . S
C324 C333 1.429 . S
C325 C323 1.419 . S
C325 C326 1.363 . S
C325 H328 0.929 . S
C326 C325 1.363 . S
C326 C332 1.428 . S
H327 C323 0.930 . S
H328 C325 0.929 . S
S329 N330 1.613 . S
S329 N331 1.610 . S
N330 S329 1.613 . S
N330 C333 1.350 . S
N331 S329 1.610 . S
N331 C332 1.351 . S
C332 C326 1.428 . S
C332 N331 1.351 . S
C332 C333 1.434 . S
C333 C324 1.429 . S
C333 N330 1.350 . S
C333 C332 1.434 . S
C205 C179 1.486 . S
C203 C21 1.489 . S
C214 C19 1.478 . S
C216 C140 1.482 . S
C225 C18 1.459 . S
C227 C184 1.464 . S
C236 C20 1.484 . S
C238 C145 1.471 . S
C247 C44 1.490 . S
C249 C101 1.485 . S
C258 C42 1.483 . S
C260 C62 1.477 . S
C271 C106 1.464 . S
C269 C41 1.459 . S
C282 C67 1.471 . S
C280 C43 1.484 . S
C291 C16 1.497 . S
C293 C47 1.496 1_445 S
C302 C17 1.464 . S
C304 C86 1.465 . S
C315 C125 1.497 . S
C313 C39 1.497 . S
C324 C40 1.464 . S
C326 C164 1.466 . S
