# Generated by pormake.
# Topology zzz, (3,6)-cn, num edge types: 1
# Building blocks:
#     Node 0, Type 0, BuildingBlock: PAMTOO_clean_linker_0, # of connection points: 3
#     Node 1, Type 0, BuildingBlock: PAMTOO_clean_linker_0, # of connection points: 3
#     Node 2, Type 0, BuildingBlock: PAMTOO_clean_linker_0, # of connection points: 3
#     Node 3, Type 0, BuildingBlock: PAMTOO_clean_linker_0, # of connection points: 3
#     Node 4, Type 0, BuildingBlock: PAMTOO_clean_linker_0, # of connection points: 3
#     Node 5, Type 0, BuildingBlock: PAMTOO_clean_linker_0, # of connection points: 3
#     Node 6, Type 0, BuildingBlock: PAMTOO_clean_linker_0, # of connection points: 3
#     Node 7, Type 0, BuildingBlock: PAMTOO_clean_linker_0, # of connection points: 3
#     Node 8, Type 1, BuildingBlock: CUWYAW_clean_sbu_0, # of connection points: 6
#     Node 9, Type 1, BuildingBlock: CUWYAW_clean_sbu_0, # of connection points: 6
#     Node 10, Type 1, BuildingBlock: CUWYAW_clean_sbu_0, # of connection points: 6
#     Node 11, Type 1, BuildingBlock: CUWYAW_clean_sbu_0, # of connection points: 6
#     Edge 12, Type (0, 1), BuildingBlock: AJUNOK_clean_linker_0, # of connection points: 2
#     Edge 13, Type (0, 1), BuildingBlock: AJUNOK_clean_linker_0, # of connection points: 2
#     Edge 14, Type (0, 1), BuildingBlock: AJUNOK_clean_linker_0, # of connection points: 2
#     Edge 15, Type (0, 1), BuildingBlock: AJUNOK_clean_linker_0, # of connection points: 2
#     Edge 16, Type (0, 1), BuildingBlock: AJUNOK_clean_linker_0, # of connection points: 2
#     Edge 17, Type (0, 1), BuildingBlock: AJUNOK_clean_linker_0, # of connection points: 2
#     Edge 18, Type (0, 1), BuildingBlock: AJUNOK_clean_linker_0, # of connection points: 2
#     Edge 19, Type (0, 1), BuildingBlock: AJUNOK_clean_linker_0, # of connection points: 2
#     Edge 20, Type (0, 1), BuildingBlock: AJUNOK_clean_linker_0, # of connection points: 2
#     Edge 21, Type (0, 1), BuildingBlock: AJUNOK_clean_linker_0, # of connection points: 2
#     Edge 22, Type (0, 1), BuildingBlock: AJUNOK_clean_linker_0, # of connection points: 2
#     Edge 23, Type (0, 1), BuildingBlock: AJUNOK_clean_linker_0, # of connection points: 2
#     Edge 24, Type (0, 1), BuildingBlock: AJUNOK_clean_linker_0, # of connection points: 2
#     Edge 25, Type (0, 1), BuildingBlock: AJUNOK_clean_linker_0, # of connection points: 2
#     Edge 26, Type (0, 1), BuildingBlock: AJUNOK_clean_linker_0, # of connection points: 2
#     Edge 27, Type (0, 1), BuildingBlock: AJUNOK_clean_linker_0, # of connection points: 2
#     Edge 28, Type (0, 1), BuildingBlock: AJUNOK_clean_linker_0, # of connection points: 2
#     Edge 29, Type (0, 1), BuildingBlock: AJUNOK_clean_linker_0, # of connection points: 2
#     Edge 30, Type (0, 1), BuildingBlock: AJUNOK_clean_linker_0, # of connection points: 2
#     Edge 31, Type (0, 1), BuildingBlock: AJUNOK_clean_linker_0, # of connection points: 2
#     Edge 32, Type (0, 1), BuildingBlock: AJUNOK_clean_linker_0, # of connection points: 2
#     Edge 33, Type (0, 1), BuildingBlock: AJUNOK_clean_linker_0, # of connection points: 2
#     Edge 34, Type (0, 1), BuildingBlock: AJUNOK_clean_linker_0, # of connection points: 2
#     Edge 35, Type (0, 1), BuildingBlock: AJUNOK_clean_linker_0, # of connection points: 2
# Relax obj value: 0.351
# Max RMSD: 0.187
# Mean RMSD: 0.136
data_MOF--net-zzz--node1-CUWYAW_clean_sbu_0--node2-PAMTOO_clean_linker_0--edge1-AJUNOK_clean_linker_0
_symmetry_space_group_name_H-M    P1
_symmetry_Int_Tables_number       1
_symmetry_cell_setting            triclinic
loop_
_symmetry_equiv_pos_as_xyz
'x, y, z'
_cell_length_a     36.511688
_cell_length_b     36.602697
_cell_length_c     10.611902
_cell_angle_alpha  89.415342
_cell_angle_beta   89.711026
_cell_angle_gamma 89.58956
loop_
_atom_site_label
_atom_site_type_symbol
_atom_site_fract_x
_atom_site_fract_y
_atom_site_fract_z
_atom_type_partial_charge
H0 H 0.86113 0.48272 0.3918 0.0
H1 H 0.75694 0.50579 0.22808 0.0
H2 H 0.80012 0.57725 0.51159 0.0
H3 H 0.70228 0.58323 0.44452 0.0
C4 C 0.71018 0.5622 0.37453 0.0
O5 O 0.74661 0.56752 0.34023 0.0
H6 H 0.70671 0.53532 0.42326 0.0
C7 C 0.83586 0.49841 0.39483 0.0
C8 C 0.83356 0.52908 0.47263 0.0
C9 C 0.80784 0.48879 0.31215 0.0
C10 C 0.77749 0.5118 0.29812 0.0
C11 C 0.77446 0.54381 0.36868 0.0
C12 C 0.80231 0.55235 0.45783 0.0
H13 H 0.12383 0.86204 0.50609 0.0
H14 H 0.11536 0.76698 0.27354 0.0
H15 H 1.02205 0.80448 0.48725 0.0
H16 H 1.02141 0.71371 0.42523 0.0
C17 C 0.0462 0.71761 0.36559 0.0
O18 O 0.04712 0.75386 0.32479 0.0
H19 H 0.06996 0.7115 0.42716 0.0
C20 C 0.10869 0.83823 0.47662 0.0
C21 C 0.07189 0.83568 0.51273 0.0
C22 C 0.12455 0.81427 0.38875 0.0
C23 C 0.10384 0.78496 0.3442 0.0
C24 C 0.06719 0.78049 0.38131 0.0
C25 C 0.05089 0.80643 0.46423 0.0
H26 H 0.72167 0.97494 0.51856 0.0
H27 H 0.82511 0.96828 0.32422 0.0
H28 H 0.79515 0.06527 0.52887 0.0
H29 H 0.84826 0.08113 0.29601 0.0
C30 C 0.85288 0.05161 0.27765 0.0
O31 O 0.84785 1.0325 0.3904 0.0
H32 H 0.83201 1.04347 0.20725 0.0
C33 C 0.74835 0.98595 0.49528 0.0
C34 C 0.75566 1.02117 0.53651 0.0
C35 C 0.77186 0.96728 0.41205 0.0
C36 C 0.80615 0.98267 0.38467 0.0
C37 C 0.81502 1.01785 0.42614 0.0
C38 C 0.78921 1.03763 0.50041 0.0
H39 H 0.46449 0.74877 0.49032 0.0
H40 H 0.47351 0.85287 0.29979 0.0
H41 H 0.56578 0.80689 0.49813 0.0
H42 H 0.55394 0.83755 0.1851 0.0
C43 C 0.56218 0.8613 0.24308 0.0
O44 O 0.54192 0.86259 0.35425 0.0
H45 H 0.59134 0.85704 0.26916 0.0
C46 C 0.4794 0.77364 0.46994 0.0
C47 C 0.5158 0.77532 0.51015 0.0
C48 C 0.46378 0.80094 0.39186 0.0
C49 C 0.48483 0.83171 0.36046 0.0
C50 C 0.52156 0.83396 0.39717 0.0
C51 C 0.53718 0.80563 0.4721 0.0
H52 H 0.24309 0.62399 0.15775 0.0
H53 H 0.34981 0.61117 0.32333 0.0
H54 H 0.30775 0.52847 0.07808 0.0
H55 H 0.37697 0.49715 0.27689 0.0
C56 C 0.37038 0.5242 0.3181 0.0
O57 O 0.36482 0.54903 0.21994 0.0
H58 H 0.34456 0.52016 0.37285 0.0
C59 C 0.26892 0.60933 0.16485 0.0
C60 C 0.27218 0.57574 0.10355 0.0
C61 C 0.29642 0.62237 0.24495 0.0
C62 C 0.32859 0.60175 0.26067 0.0
C63 C 0.33298 0.56802 0.20133 0.0
C64 C 0.30458 0.55474 0.12299 0.0
H65 H 0.98023 0.24857 0.19189 0.0
H66 H 0.99598 0.35636 0.33776 0.0
H67 H 0.07403 0.31099 0.0745 0.0
H68 H 0.10759 0.38429 0.25371 0.0
C69 C 0.08139 0.37796 0.30256 0.0
O70 O 0.05527 0.37027 0.2117 0.0
H71 H 0.08724 0.35325 0.36151 0.0
C72 C 0.99546 0.27394 0.19144 0.0
C73 C 1.02776 0.27602 0.12028 0.0
C74 C 0.98411 0.30237 0.27081 0.0
C75 C 1.00445 0.33451 0.27559 0.0
C76 C 1.03675 0.33807 0.2052 0.0
C77 C 0.04884 0.30852 0.12804 0.0
H78 H 0.34627 0.97296 0.10101 0.0
H79 H 0.2422 0.97443 0.29218 0.0
H80 H 0.27659 0.06738 0.06899 0.0
H81 H 0.21248 0.09168 0.259 0.0
C82 C 0.21783 0.06462 0.30392 0.0
O83 O 0.22216 1.03906 0.20901 0.0
H84 H 0.24368 0.0677 0.35806 0.0
C85 C 0.31996 0.98598 0.11865 0.0
C86 C 0.31444 1.0214 0.0724 0.0
C87 C 0.29454 0.96892 0.19926 0.0
C88 C 0.26172 0.98714 0.22872 0.0
C89 C 0.25462 1.02234 0.18034 0.0
C90 C 0.28133 1.03975 0.10289 0.0
H91 H 0.61994 0.3677 0.1965 0.0
H92 H 0.60635 0.27009 0.41932 0.0
H93 H 0.51682 0.31222 0.19634 0.0
H94 H 0.56364 0.21805 0.27028 0.0
C95 C 0.53814 0.22443 0.32392 0.0
O96 O 0.53797 0.26061 0.36251 0.0
H97 H 0.51461 0.2207 0.25945 0.0
C98 C 0.60379 0.34404 0.2227 0.0
C99 C 0.56763 0.34243 0.17998 0.0
C100 C 0.61847 0.31797 0.30673 0.0
C101 C 0.59602 0.28956 0.35032 0.0
C102 C 0.55956 0.28698 0.31016 0.0
C103 C 0.5452 0.3136 0.22493 0.0
C104 C 0.97181 0.0869 0.56945 0.0
Eu105 Eu 1.01524 0.06058 0.74231 0.0
C106 C 0.95232 0.12174 0.55278 0.0
C107 C 0.93972 0.14191 0.6567 0.0
C108 C 0.9273 0.17791 0.63995 0.0
C109 C 0.92751 0.19404 0.51924 0.0
C110 C 0.9378 0.17268 0.41505 0.0
C111 C 0.9504 0.13704 0.43203 0.0
C112 C 0.98532 1.03757 0.96536 0.0
C113 C 0.04645 0.12916 0.90677 0.0
C114 C 0.10225 1.02156 0.13244 0.0
Eu115 Eu 0.06964 0.04385 0.92818 0.0
C116 C 0.13168 0.99513 0.15873 0.0
C117 C 0.15229 0.97989 0.06 0.0
C118 C 0.17439 0.94915 0.08197 0.0
C119 C 0.17575 0.93304 0.20267 0.0
C120 C 0.15815 0.95102 0.3035 0.0
C121 C 0.13612 0.98167 0.28134 0.0
C122 C 0.10971 0.04877 0.71089 0.0
C123 C 1.04334 0.97835 0.74175 0.0
O124 O 1.00747 0.08885 0.56268 0.0
O125 O 0.96069 0.06581 0.66146 0.0
O126 O 0.97786 1.02392 0.85647 0.0
O127 O 1.0109 0.06064 0.95248 0.0
O128 O 1.02517 0.11867 0.81347 0.0
O129 O 0.0662 0.10472 0.96892 0.0
O130 O 0.07164 1.00747 0.09159 0.0
O131 O 0.11177 0.05103 0.07009 0.0
O132 O 0.12279 1.0431 0.82175 0.0
O133 O 0.07519 0.05323 0.71617 0.0
O134 O 0.05576 0.98633 0.85551 0.0
O135 O 1.03022 1.00471 0.66926 0.0
H136 H 0.94143 0.13064 0.75131 0.0
H137 H 0.91978 0.19379 0.72177 0.0
H138 H 0.93925 0.18449 0.32113 0.0
H139 H 0.96099 0.12226 0.35166 0.0
H140 H 0.14925 0.99001 0.96447 0.0
H141 H 0.18757 0.93598 1.00263 0.0
H142 H 0.15796 0.93924 0.39753 0.0
H143 H 0.12044 0.99314 0.35856 0.0
C144 C 0.50109 1.00478 0.45611 0.0
Eu145 Eu 0.52554 1.02565 0.672 0.0
C146 C 0.47595 0.97518 0.42496 0.0
C147 C 0.46368 0.95111 0.52 0.0
C148 C 0.43353 0.92866 0.49935 0.0
C149 C 0.41548 0.92983 0.38304 0.0
C150 C 0.42993 0.9517 0.28479 0.0
C151 C 0.45969 0.97452 0.30621 0.0
C152 C 0.53953 0.97768 0.86833 0.0
C153 C 0.46049 0.05055 0.8772 0.0
C154 C 0.57291 0.06228 0.15757 0.0
Eu155 Eu 0.54678 0.06626 0.93446 0.0
C156 C 0.60236 1.03624 0.194 0.0
C157 C 0.63883 0.04422 0.16306 0.0
C158 C 0.66591 1.01742 0.17177 0.0
C159 C 0.65735 0.98138 0.20857 0.0
C160 C 0.6212 0.97381 0.24643 0.0
C161 C 0.59394 1.00088 0.23848 0.0
C162 C 0.53714 0.11646 0.74338 0.0
C163 C 0.60968 0.04787 0.72342 0.0
O164 O 0.48593 1.03121 0.52116 0.0
O165 O 0.53327 0.99476 0.49941 0.0
O166 O 0.53202 0.96703 0.75569 0.0
O167 O 0.53944 1.01177 0.86394 0.0
O168 O 0.46974 1.03611 0.76632 0.0
O169 O 0.48505 0.06379 0.95655 0.0
O170 O 0.54147 0.04737 0.12884 0.0
O171 O 0.58234 0.08849 0.07829 0.0
O172 O 0.54444 0.12517 0.85985 0.0
O173 O 0.53399 0.082 0.73866 0.0
O174 O 0.60127 0.04932 0.84518 0.0
O175 O 0.58415 0.04445 0.63538 0.0
H176 H 0.47557 0.9517 0.61312 0.0
H177 H 0.42255 0.91264 0.577 0.0
H178 H 0.41601 0.95399 0.19509 0.0
H179 H 0.46833 0.99344 0.23289 0.0
H180 H 0.64651 0.07107 0.12867 0.0
H181 H 0.69376 1.02539 0.1504 0.0
H182 H 0.61375 0.94684 0.27981 0.0
H183 H 0.56602 0.99363 0.2621 0.0
C184 C 0.61358 0.52239 0.56414 0.0
Eu185 Eu 0.57104 0.54895 0.73978 0.0
C186 C 0.63704 0.49036 0.54003 0.0
C187 C 0.66094 0.47554 0.63112 0.0
C188 C 0.68062 0.44329 0.60621 0.0
C189 C 0.67701 0.42585 0.48942 0.0
C190 C 0.65403 0.44186 0.39764 0.0
C191 C 0.63405 0.4734 0.42337 0.0
C192 C 0.60156 0.57046 0.96273 0.0
C193 C 0.54176 0.48233 0.92418 0.0
C194 C 0.47354 0.59387 0.08354 0.0
Eu195 Eu 0.51692 0.56491 0.91585 0.0
C196 C 0.45519 0.62967 0.09388 0.0
C197 C 0.41733 0.63195 0.11692 0.0
C198 C 0.40013 0.66604 0.13148 0.0
C199 C 0.42073 0.69829 0.12313 0.0
C200 C 0.45836 0.69564 0.09382 0.0
C201 C 0.4753 0.66186 0.07924 0.0
C202 C 0.48623 0.54208 0.6957 0.0
C203 C 0.54537 0.6314 0.73298 0.0
O204 O 0.5784 0.51634 0.57063 0.0
O205 O 0.62452 0.54568 0.64791 0.0
O206 O 0.61064 0.58301 0.85266 0.0
O207 O 0.57526 0.54837 0.95114 0.0
O208 O 0.55761 0.49135 0.81572 0.0
O209 O 0.52638 0.50799 0.99259 0.0
O210 O 0.50926 0.59347 0.09297 0.0
O211 O 0.46198 0.57298 0.99366 0.0
O212 O 0.4773 0.5306 0.80725 0.0
O213 O 0.5126 0.56436 0.7039 0.0
O214 O 0.53153 0.62262 0.84451 0.0
O215 O 0.55881 0.60531 0.66181 0.0
H216 H 0.66331 0.488 0.72282 0.0
H217 H 0.69723 0.43104 0.67987 0.0
H218 H 0.64931 0.42861 0.30839 0.0
H219 H 0.61541 0.4841 0.35263 0.0
H220 H 0.40129 0.60734 0.1259 0.0
H221 H 0.37112 0.66712 0.15291 0.0
H222 H 0.47549 0.71966 0.08914 0.0
H223 H 0.50446 0.66108 0.05994 0.0
C224 C 0.08302 0.6274 0.57683 0.0
Eu225 Eu 0.05618 0.57969 0.73451 0.0
C226 C 0.12083 0.64055 0.56103 0.0
C227 C 0.12909 0.67782 0.57427 0.0
C228 C 0.16508 0.69014 0.55776 0.0
C229 C 0.19329 0.66504 0.53219 0.0
C230 C 0.18504 0.62768 0.52432 0.0
C231 C 0.14934 0.61558 0.53838 0.0
C232 C 1.03657 0.60592 0.96598 0.0
C233 C 0.12715 0.549 0.89082 0.0
C234 C 1.02149 0.47805 0.07685 0.0
Eu235 Eu 0.04504 0.5228 0.90197 0.0
C236 C 0.99012 0.45363 0.09277 0.0
C237 C 0.97329 0.43765 0.98827 0.0
C238 C 0.93833 0.42262 1.00053 0.0
C239 C 0.91958 0.42453 0.11603 0.0
C240 C 0.9386 0.43616 0.22339 0.0
C241 C 0.97368 0.45061 0.21167 0.0
C242 C 0.06607 0.49497 0.67469 0.0
C243 C 0.9748 0.55145 0.72889 0.0
O244 O 0.077 0.59336 0.54732 0.0
O245 O 0.06697 0.63647 0.68185 0.0
O246 O 1.02046 0.61463 0.86136 0.0
O247 O 0.05967 0.5806 0.94546 0.0
O248 O 0.11576 0.56464 0.78511 0.0
O249 O 0.10282 0.53394 0.96646 0.0
O250 O 1.01358 0.51296 0.07401 0.0
O251 O 0.04576 0.46902 0.99189 0.0
O252 O 0.07872 0.48471 0.78309 0.0
O253 O 1.0434 0.52113 0.68988 0.0
O254 O 0.98609 0.53207 0.82799 0.0
O255 O 0.99827 0.57198 0.66674 0.0
H256 H 0.10771 0.69741 0.59611 0.0
H257 H 0.17078 0.71909 0.5629 0.0
H258 H 0.20611 0.60776 0.50165 0.0
H259 H 0.14416 0.58661 0.52987 0.0
H260 H 0.98588 0.43924 0.89572 0.0
H261 H 0.92455 0.41277 0.91772 0.0
H262 H 0.92492 0.43799 0.31401 0.0
H263 H 0.98655 0.46238 0.29353 0.0
C264 C 0.15306 0.07452 0.39256 0.0
C265 C 0.18676 0.05521 0.39552 0.0
C266 C 0.12682 0.07088 0.49053 0.0
C267 C 0.13347 0.04799 0.59551 0.0
H268 H 0.14766 0.09386 0.31686 0.0
H269 H 0.1022 0.08754 0.48731 0.0
S270 S 0.2145 0.98712 0.63832 0.0
N271 N 0.22303 1.00936 0.5054 0.0
N272 N 0.17426 1.00228 0.6876 0.0
C273 C 0.16585 1.02669 0.59456 0.0
C274 C 0.19229 1.03029 0.49513 0.0
C275 C 0.54715 0.20605 0.5566 0.0
C276 C 0.53551 0.19722 0.43423 0.0
C277 C 0.54684 0.17991 0.65537 0.0
C278 C 0.53576 0.14349 0.63604 0.0
H279 H 0.55682 0.23328 0.57647 0.0
H280 H 0.55604 0.18826 0.74751 0.0
S281 S 0.50398 0.10602 0.33266 0.0
N282 N 0.51312 0.14917 0.29945 0.0
N283 N 0.51346 0.10027 0.48356 0.0
C284 C 0.52459 0.13428 0.51398 0.0
C285 C 0.52439 0.16097 0.41379 0.0
C286 C 0.39341 0.54528 0.53129 0.0
C287 C 0.40148 0.53504 0.40649 0.0
C288 C 0.42114 0.54866 0.62227 0.0
C289 C 0.45839 0.54273 0.59244 0.0
H290 H 0.36519 0.54908 0.5606 0.0
H291 H 0.41318 0.55522 0.71795 0.0
S292 S 0.49472 0.51737 0.27885 0.0
N293 N 0.44995 0.5202 0.25743 0.0
N294 N 0.50197 0.52788 0.42761 0.0
C295 C 0.46713 0.53447 0.46679 0.0
C296 C 0.43877 0.53036 0.37419 0.0
C297 C 0.05716 0.40312 0.51034 0.0
C298 C 0.07068 0.41003 0.38782 0.0
C299 C 0.05414 0.43113 0.60024 0.0
C300 C 0.06365 0.46757 0.57119 0.0
H301 H 0.05074 0.37541 0.53921 0.0
H302 H 0.04533 0.42393 0.69489 0.0
S303 S 0.09697 0.50128 0.26193 0.0
N304 N 0.09165 0.45691 0.24094 0.0
N305 N 0.08438 0.50949 0.40862 0.0
C306 C 0.07474 0.4754 0.4471 0.0
C307 C 0.07856 0.44673 0.35584 0.0
C308 C 0.91477 0.07521 0.19896 0.0
C309 C 0.89088 0.0455 0.21879 0.0
C310 C 0.94697 0.07191 0.12521 0.0
C311 C 0.95629 1.03887 0.06562 0.0
H312 H 0.9075 0.10181 0.23543 0.0
H313 H 0.96335 0.09605 0.10827 0.0
S314 S 0.90451 0.95224 0.09226 0.0
N315 N 0.88037 0.9814 0.17725 0.0
N316 N 0.94003 0.97531 0.03764 0.0
C317 C 0.93349 1.00863 0.08873 0.0
C318 C 0.90106 1.01189 0.16516 0.0
C319 C 0.52482 0.91527 0.15318 0.0
C320 C 0.55818 0.89567 0.16091 0.0
C321 C 0.51966 0.94352 0.06309 0.0
C322 C 0.54754 0.95319 0.97726 0.0
H323 H 0.50212 0.90794 0.21396 0.0
H324 H 0.49309 0.95669 0.05636 0.0
S325 S 0.63966 0.91076 0.95602 0.0
N326 N 0.61939 0.88837 0.07265 0.0
N327 N 0.6095 0.94133 0.90558 0.0
C328 C 0.58099 0.93431 0.98478 0.0
C329 C 0.58629 0.90558 0.07568 0.0
C330 C 0.66804 0.53319 0.21211 0.0
C331 C 0.68424 0.56483 0.26134 0.0
C332 C 0.64037 0.53519 0.11955 0.0
C333 C 0.62885 0.56895 0.06776 0.0
H334 H 0.67668 0.50661 0.24636 0.0
H335 H 0.62856 0.51003 0.08615 0.0
S336 S 0.66573 0.65966 0.15128 0.0
N337 N 0.68804 0.63086 0.24469 0.0
N338 N 0.63808 0.63453 0.06557 0.0
C339 C 0.64627 0.60063 0.11085 0.0
C340 C 0.67354 0.59863 0.20809 0.0
C341 C 1.01236 0.68393 0.1915 0.0
C342 C 0.04526 0.69036 0.25638 0.0
C343 C 1.00976 0.65634 0.09967 0.0
C344 C 1.03972 0.63337 0.0699 0.0
H345 H 0.98822 0.70008 0.21326 0.0
H346 H 0.98386 0.65278 0.05212 0.0
S347 S 0.13313 0.64067 0.2043 0.0
N348 N 0.10936 0.67292 0.27645 0.0
N349 N 0.10413 0.62057 0.10873 0.0
C350 C 0.07297 0.63986 0.13268 0.0
C351 C 0.07583 0.66846 0.22413 0.0
C352 C 0.92318 0.27774 0.32609 0.0
C353 C 0.95591 0.29377 0.36654 0.0
C354 C 0.90817 0.24825 0.39321 0.0
C355 C 0.92587 0.23422 0.50109 0.0
H356 H 0.9129 0.28372 0.23245 0.0
H357 H 0.88661 0.23276 0.34925 0.0
S358 S 1.00252 0.27745 0.67048 0.0
N359 N 0.99768 0.30213 0.54062 0.0
N360 N 0.97011 0.24626 0.66605 0.0
C361 C 0.95307 0.25567 0.55678 0.0
C362 C 0.96801 0.2859 0.48907 0.0
C363 C 0.31646 0.94503 0.40096 0.0
C364 C 0.30807 0.93736 0.27484 0.0
C365 C 0.35094 0.93563 0.44935 0.0
C366 C 0.377 0.91774 0.37305 0.0
H367 H 0.29992 0.96448 0.45303 0.0
H368 H 0.35915 0.94793 0.53718 0.0
S369 S 0.35933 0.87472 0.06599 0.0
N370 N 0.32144 0.89795 0.09756 0.0
N371 N 0.38659 0.88046 0.18794 0.0
C372 C 0.36471 0.90141 0.26223 0.0
C373 C 0.32949 0.91071 0.21387 0.0
C374 C 0.65347 0.33157 0.49909 0.0
C375 C 0.65393 0.32643 0.36793 0.0
C376 C 0.67173 0.36138 0.55094 0.0
C377 C 0.68861 0.38725 0.47156 0.0
H378 H 0.63422 0.3169 0.55845 0.0
H379 H 0.66652 0.36775 0.64816 0.0
S380 S 0.71587 0.37229 0.14021 0.0
N381 N 0.68788 0.33823 0.17414 0.0
N382 N 0.71979 0.39598 0.27116 0.0
C383 C 0.69862 0.3757 0.35041 0.0
C384 C 0.68128 0.34465 0.2981 0.0
C385 C 0.28816 0.64428 0.46276 0.0
C386 C 0.28689 0.65236 0.33285 0.0
C387 C 0.2602 0.65663 0.54277 0.0
C388 C 0.23038 0.67654 0.49321 0.0
H389 H 0.30661 0.6234 0.49876 0.0
H390 H 0.25829 0.64465 0.63641 0.0
S391 S 0.22607 0.72026 0.17784 0.0
N392 N 0.26306 0.69402 0.17287 0.0
N393 N 0.20922 0.71565 0.32188 0.0
C394 C 0.23451 0.69267 0.3736 0.0
C395 C 0.26341 0.68079 0.29298 0.0
C396 C 0.152 0.83629 0.19049 0.0
C397 C 0.15729 0.82749 0.31849 0.0
C398 C 0.16541 0.86914 0.14058 0.0
C399 C 0.18456 0.89354 0.21766 0.0
H400 H 0.13197 0.82172 0.13564 0.0
H401 H 0.15509 0.87796 0.0496 0.0
S402 S 0.22241 0.87229 0.53278 0.0
N403 N 0.19555 0.83739 0.50155 0.0
N404 N 0.22091 0.89937 0.40731 0.0
C405 C 0.19839 0.8799 0.3322 0.0
C406 C 0.1848 0.8464 0.38281 0.0
C407 C 0.7241 0.92098 0.37727 0.0
C408 C 0.75551 0.93879 0.32937 0.0
C409 C 0.68961 0.93121 0.32925 0.0
C410 C 0.68743 0.95378 0.22097 0.0
H411 H 0.72491 0.90892 0.4709 0.0
H412 H 0.66566 0.92589 0.38687 0.0
S413 S 0.76427 0.97142 0.99977 0.0
N414 N 0.78396 0.95589 0.12969 0.0
N415 N 0.71968 0.97058 0.02734 0.0
C416 C 0.71932 0.9566 0.14644 0.0
C417 C 0.75393 0.94831 0.20102 0.0
C418 C 0.43319 0.79437 0.1854 0.0
C419 C 0.4305 0.79172 0.31773 0.0
C420 C 0.4205 0.76594 0.11026 0.0
C421 C 0.4063 0.73408 0.16711 0.0
H422 H 0.45072 0.81451 0.14093 0.0
H423 H 0.42873 0.76567 1.012 0.0
S424 S 0.37192 0.72699 0.49552 0.0
N425 N 0.39515 0.76557 0.49078 0.0
N426 N 0.37406 0.71031 0.35159 0.0
C427 C 0.3935 0.73689 0.29181 0.0
C428 C 0.40507 0.76661 0.3672 0.0
C429 C 0.8292 0.42586 0.27397 0.0
C430 C 0.81596 0.45907 0.22305 0.0
C431 C 0.86078 0.40942 0.22375 0.0
C432 C 0.879 0.42553 0.12035 0.0
H433 H 0.81961 0.41664 0.36565 0.0
H434 H 0.87398 0.38771 0.27725 0.0
S435 S 0.84502 0.50331 0.92548 0.0
N436 N 0.81521 0.49983 0.04213 0.0
N437 N 0.87478 0.46978 0.94822 0.0
C438 C 0.8606 0.45336 0.05266 0.0
C439 C 0.8284 0.46975 0.10351 0.0
C440 C 1.01314 0.22787 0.95963 0.0
C441 C 1.03828 0.24241 0.04626 0.0
C442 C 1.01703 0.19227 0.91074 0.0
C443 C 0.04577 0.16866 0.94866 0.0
H444 H 0.98908 0.24368 0.93392 0.0
H445 H 0.99617 0.18262 0.84726 0.0
S446 S 0.11963 0.19329 0.17217 0.0
N447 N 0.09364 0.23039 0.1651 0.0
N448 N 0.10085 0.16357 0.07624 0.0
C449 C 0.07175 0.18321 0.03282 0.0
C450 C 0.06804 0.21986 0.08076 0.0
C451 C 0.35885 1.02434 0.89112 0.0
C452 C 0.34654 1.03858 1.00689 0.0
C453 C 0.3949 1.03005 0.84684 0.0
C454 C 0.42073 0.04974 0.91741 0.0
H455 H 0.34112 1.0066 0.83811 0.0
H456 H 0.40303 1.01713 0.7596 0.0
S457 S 0.4015 0.09433 0.22469 0.0
N458 N 0.36246 0.07462 0.1884 0.0
N459 N 0.42987 0.08555 0.10698 0.0
C460 C 0.40806 0.06567 0.03068 0.0
C461 C 0.3712 0.06005 0.07482 0.0
C462 C 0.52675 0.39745 0.13523 0.0
C463 C 0.55475 0.37335 0.09619 0.0
C464 C 0.52159 0.43194 0.07589 0.0
C465 C 0.54423 0.44384 0.97511 0.0
H466 H 0.51021 0.39064 0.21705 0.0
H467 H 0.50044 0.44988 0.11216 0.0
S468 S 0.62024 0.39022 0.83453 0.0
N469 N 0.60387 0.36311 0.94587 0.0
N470 N 0.59476 0.42754 0.837 0.0
C471 C 0.57101 0.41914 0.93163 0.0
C472 C 0.57607 0.38413 0.99128 0.0
C473 C 0.22387 0.58672 0.93729 0.0
C474 C 0.23946 0.56326 0.02949 0.0
C475 C 0.18854 0.58081 0.8881 0.0
C476 C 0.16669 0.55147 0.93022 0.0
H477 H 0.2385 0.61096 0.9072 0.0
H478 H 0.17757 0.6006 0.82146 0.0
S479 S 0.19582 0.47984 0.16023 0.0
N480 N 0.23101 0.50793 0.15346 0.0
N481 N 0.1651 0.49659 0.06107 0.0
C482 C 0.18274 0.52669 0.01712 0.0
C483 C 0.21889 0.53258 0.06642 0.0
C484 C 0.07279 0.87787 0.7001 0.0
C485 C 0.05647 0.86762 0.58529 0.0
C486 C 0.06713 0.91284 0.7528 0.0
C487 C 0.04537 0.9397 0.69224 0.0
H488 H 0.09176 0.85927 0.74634 0.0
H489 H 0.08145 0.91937 0.83875 0.0
S490 S 0.9949 0.92631 0.39225 0.0
N491 N 1.0163 0.88695 0.4159 0.0
N492 N 1.00555 0.9522 0.51305 0.0
C493 C 1.02762 0.9292 0.57996 0.0
C494 C 1.03316 0.89343 0.52724 0.0
C495 C 0.71193 1.02451 0.71833 0.0
C496 C 0.72445 1.0397 0.60328 0.0
C497 C 0.67537 1.02885 0.75952 0.0
C498 C 0.64935 0.04792 0.68591 0.0
H499 H 0.72981 1.00651 0.77162 0.0
H500 H 0.6669 1.01509 0.84564 0.0
S501 S 0.66944 0.09894 0.39009 0.0
N502 N 0.70879 0.07889 0.42572 0.0
N503 N 0.64016 0.0868 0.50186 0.0
C504 C 0.66209 0.0656 0.57579 0.0
C505 C 0.69954 0.06166 0.5351 0.0
C506 C 0.51491 0.73146 0.69449 0.0
C507 C 0.53077 0.74246 0.57886 0.0
C508 C 0.52117 0.69631 0.74631 0.0
C509 C 0.54303 0.67014 0.68375 0.0
H510 H 0.49606 0.74965 0.74251 0.0
H511 H 0.50727 0.68914 0.83328 0.0
S512 S 0.59187 0.68574 0.37962 0.0
N513 N 0.57029 0.72477 0.40551 0.0
N514 N 0.58206 0.65894 0.50112 0.0
C515 C 0.56016 0.68137 0.57009 0.0
C516 C 0.55404 0.71735 0.51823 0.0
C517 C 0.88236 0.57114 0.56466 0.0
C518 C 0.86599 0.53635 0.5584 0.0
C519 C 0.91694 0.57619 0.62267 0.0
C520 C 0.93659 0.54682 0.67844 0.0
H521 H 0.86936 0.59432 0.51862 0.0
H522 H 0.92878 0.60324 0.6213 0.0
S523 S 0.90733 0.45002 0.68305 0.0
N524 N 0.87274 0.47211 0.61752 0.0
N525 N 0.9376 0.48155 0.71794 0.0
C526 C 0.92027 0.51221 0.6752 0.0
C527 C 0.88513 0.50706 0.6179 0.0
loop_
_geom_bond_atom_site_label_1
_geom_bond_atom_site_label_2
_geom_bond_distance
_geom_bond_site_symmetry_2
_ccdc_geom_bond_type
H0 C7 0.929 . S
H1 C10 0.930 . S
H2 C12 0.929 . S
H3 C4 0.969 . S
C4 H3 0.969 . S
C4 O5 1.550 . S
C4 H6 0.973 . S
O5 C4 1.550 . S
O5 C11 1.412 . S
H6 C4 0.973 . S
C7 H0 0.929 . S
C7 C8 1.400 . S
C7 C9 1.364 . S
C8 C7 1.400 . S
C8 C12 1.377 . S
C9 C7 1.364 . S
C9 C10 1.374 . S
C10 H1 0.930 . S
C10 C9 1.374 . S
C10 C11 1.383 . S
C11 O5 1.412 . S
C11 C10 1.383 . S
C11 C12 1.394 . S
C12 H2 0.929 . S
C12 C8 1.377 . S
C12 C11 1.394 . S
H13 C20 0.928 1_655 S
H14 C23 0.931 . S
H15 C25 0.928 1_655 S
H16 C17 0.969 . S
C17 H16 0.969 . S
C17 O18 1.550 1_455 S
C17 H19 0.973 1_455 S
O18 C17 1.550 1_655 S
O18 C24 1.404 1_655 S
H19 C17 0.973 1_655 S
C20 H13 0.928 1_455 S
C20 C21 1.399 . S
C20 C22 1.364 . S
C21 C20 1.399 . S
C21 C25 1.377 . S
C22 C20 1.364 . S
C22 C23 1.374 1_455 S
C23 H14 0.931 . S
C23 C22 1.374 1_655 S
C23 C24 1.382 1_655 S
C24 O18 1.404 1_455 S
C24 C23 1.382 1_455 S
C24 C25 1.394 . S
C25 H15 0.928 1_455 S
C25 C21 1.377 . S
C25 C24 1.394 . S
H26 C33 0.928 1_565 S
H27 C36 0.931 . S
H28 C38 0.929 1_565 S
H29 C30 0.969 . S
C30 H29 0.969 . S
C30 O31 1.550 1_545 S
C30 H32 0.973 1_545 S
O31 C30 1.550 1_565 S
O31 C37 1.404 1_565 S
H32 C30 0.973 1_565 S
C33 H26 0.928 1_545 S
C33 C34 1.399 . S
C33 C35 1.364 . S
C34 C33 1.399 . S
C34 C38 1.377 . S
C35 C33 1.364 . S
C35 C36 1.374 1_545 S
C36 H27 0.931 . S
C36 C35 1.374 1_565 S
C36 C37 1.382 1_565 S
C37 O31 1.404 1_545 S
C37 C36 1.382 1_545 S
C37 C38 1.394 . S
C38 H28 0.929 1_545 S
C38 C34 1.377 . S
C38 C37 1.394 . S
H39 C46 0.929 . S
H40 C49 0.930 . S
H41 C51 0.929 . S
H42 C43 0.969 . S
C43 H42 0.969 . S
C43 O44 1.550 . S
C43 H45 0.973 . S
O44 C43 1.550 . S
O44 C50 1.412 . S
H45 C43 0.973 . S
C46 H39 0.929 . S
C46 C47 1.400 . S
C46 C48 1.364 . S
C47 C46 1.400 . S
C47 C51 1.377 . S
C48 C46 1.364 . S
C48 C49 1.374 . S
C49 H40 0.930 . S
C49 C48 1.374 . S
C49 C50 1.383 . S
C50 O44 1.412 . S
C50 C49 1.383 . S
C50 C51 1.394 . S
C51 H41 0.929 . S
C51 C47 1.377 . S
C51 C50 1.394 . S
H52 C59 0.929 . S
H53 C62 0.930 . S
H54 C64 0.929 . S
H55 C56 0.969 . S
C56 H55 0.969 . S
C56 O57 1.550 . S
C56 H58 0.973 . S
O57 C56 1.550 . S
O57 C63 1.412 . S
H58 C56 0.973 . S
C59 H52 0.929 . S
C59 C60 1.400 1_554 S
C59 C61 1.364 . S
C60 C59 1.400 1_556 S
C60 C64 1.377 . S
C61 C59 1.364 . S
C61 C62 1.374 . S
C62 H53 0.930 . S
C62 C61 1.374 . S
C62 C63 1.383 . S
C63 O57 1.412 . S
C63 C62 1.383 . S
C63 C64 1.394 1_554 S
C64 H54 0.929 . S
C64 C60 1.377 . S
C64 C63 1.394 1_556 S
H65 C72 0.928 1_655 S
H66 C75 0.930 . S
H67 C77 0.928 1_655 S
H68 C69 0.969 . S
C69 H68 0.969 . S
C69 O70 1.550 1_455 S
C69 H71 0.973 1_455 S
O70 C69 1.550 1_655 S
O70 C76 1.412 1_655 S
H71 C69 0.973 1_655 S
C72 H65 0.928 1_455 S
C72 C73 1.400 1_554 S
C72 C74 1.364 . S
C73 C72 1.400 1_556 S
C73 C77 1.377 . S
C74 C72 1.364 . S
C74 C75 1.374 1_455 S
C75 H66 0.930 . S
C75 C74 1.374 1_655 S
C75 C76 1.383 1_655 S
C76 O70 1.412 1_455 S
C76 C75 1.383 1_455 S
C76 C77 1.395 1_554 S
C77 H67 0.928 1_455 S
C77 C73 1.377 . S
C77 C76 1.395 1_556 S
H78 C85 0.928 1_565 S
H79 C88 0.930 . S
H80 C90 0.928 1_565 S
H81 C82 0.969 . S
C82 H81 0.969 . S
C82 O83 1.550 1_545 S
C82 H84 0.973 1_545 S
O83 C82 1.550 1_565 S
O83 C89 1.412 1_565 S
H84 C82 0.973 1_565 S
C85 H78 0.928 1_545 S
C85 C86 1.400 1_554 S
C85 C87 1.364 . S
C86 C85 1.400 1_556 S
C86 C90 1.377 . S
C87 C85 1.364 . S
C87 C88 1.374 1_545 S
C88 H79 0.930 . S
C88 C87 1.374 1_565 S
C88 C89 1.383 1_565 S
C89 O83 1.412 1_545 S
C89 C88 1.383 1_545 S
C89 C90 1.395 1_554 S
C90 H80 0.928 1_545 S
C90 C86 1.377 . S
C90 C89 1.395 1_556 S
H91 C98 0.929 . S
H92 C101 0.930 . S
H93 C103 0.929 . S
H94 C95 0.969 . S
C95 H94 0.969 . S
C95 O96 1.550 . S
C95 H97 0.973 . S
O96 C95 1.550 . S
O96 C102 1.412 . S
H97 C95 0.973 . S
C98 H91 0.929 . S
C98 C99 1.400 1_554 S
C98 C100 1.364 . S
C99 C98 1.400 1_556 S
C99 C103 1.377 . S
C100 C98 1.364 . S
C100 C101 1.374 . S
C101 H92 0.930 . S
C101 C100 1.374 . S
C101 C102 1.383 . S
C102 O96 1.412 . S
C102 C101 1.383 . S
C102 C103 1.394 1_554 S
C103 H93 0.929 . S
C103 C99 1.377 . S
C103 C102 1.394 1_556 S
C104 Eu105 2.835 . S
C104 C106 1.500 . S
C104 O124 1.257 . S
C104 O125 1.260 . S
Eu105 C104 2.835 . S
Eu105 O124 2.473 . S
Eu105 O125 2.480 . S
Eu105 O126 2.430 . S
Eu105 O127 2.670 1_545 S
Eu105 O128 2.394 . S
Eu105 O133 2.355 1_655 S
Eu105 O135 2.374 1_545 S
C106 C104 1.500 . S
C106 C107 1.377 . S
C106 C111 1.377 . S
C107 C106 1.377 . S
C107 C108 1.395 . S
C107 H136 0.931 . S
C108 C107 1.395 . S
C108 C109 1.383 . S
C108 H137 0.931 . S
C109 C108 1.383 . S
C109 C110 1.394 . S
C110 C109 1.394 . S
C110 C111 1.378 . S
C110 H138 0.931 1_655 S
C111 C106 1.377 . S
C111 C110 1.378 . S
C111 H139 0.931 1_655 S
C112 O126 1.259 . S
C112 O127 1.270 1_545 S
C113 O128 1.251 1_455 S
C113 O129 1.251 . S
C114 Eu115 2.835 1_554 S
C114 C116 1.500 . S
C114 O130 1.257 . S
C114 O131 1.260 . S
Eu115 C114 2.835 1_556 S
Eu115 O127 2.355 1_455 S
Eu115 O129 2.374 1_565 S
Eu115 O130 2.473 1_556 S
Eu115 O131 2.480 1_556 S
Eu115 O132 2.430 . S
Eu115 O133 2.670 1_565 S
Eu115 O134 2.394 . S
C116 C114 1.500 . S
C116 C117 1.377 . S
C116 C121 1.377 . S
C117 C116 1.377 . S
C117 C118 1.395 . S
C117 H140 0.931 . S
C118 C117 1.395 . S
C118 C119 1.383 . S
C118 H141 0.931 . S
C119 C118 1.383 . S
C119 C120 1.394 . S
C120 C119 1.394 . S
C120 C121 1.378 . S
C120 H142 0.931 1_455 S
C121 C116 1.377 . S
C121 C120 1.378 . S
C121 H143 0.931 1_455 S
C122 O132 1.259 . S
C122 O133 1.270 1_565 S
C123 O134 1.251 1_655 S
C123 O135 1.251 . S
O124 C104 1.257 . S
O124 Eu105 2.473 . S
O125 C104 1.260 . S
O125 Eu105 2.480 . S
O126 Eu105 2.430 . S
O126 C112 1.259 . S
O127 Eu105 2.670 1_565 S
O127 C112 1.270 1_565 S
O127 Eu115 2.355 1_655 S
O128 Eu105 2.394 . S
O128 C113 1.251 1_655 S
O129 C113 1.251 . S
O129 Eu115 2.374 1_545 S
O130 C114 1.257 . S
O130 Eu115 2.473 1_554 S
O131 C114 1.260 . S
O131 Eu115 2.480 1_554 S
O132 Eu115 2.430 . S
O132 C122 1.259 . S
O133 Eu105 2.355 1_455 S
O133 Eu115 2.670 1_545 S
O133 C122 1.270 1_545 S
O134 Eu115 2.394 . S
O134 C123 1.251 1_455 S
O135 Eu105 2.374 1_565 S
O135 C123 1.251 . S
H136 C107 0.931 . S
H137 C108 0.931 . S
H138 C110 0.931 1_455 S
H139 C111 0.931 1_455 S
H140 C117 0.931 . S
H141 C118 0.931 . S
H142 C120 0.931 1_655 S
H143 C121 0.931 1_655 S
C144 Eu145 2.835 . S
C144 C146 1.500 . S
C144 O164 1.257 . S
C144 O165 1.260 . S
Eu145 C144 2.835 . S
Eu145 O164 2.473 . S
Eu145 O165 2.480 . S
Eu145 O166 2.430 . S
Eu145 O167 2.670 . S
Eu145 O168 2.394 . S
Eu145 O173 2.355 1_565 S
Eu145 O175 2.374 . S
C146 C144 1.500 . S
C146 C147 1.377 . S
C146 C151 1.377 . S
C147 C146 1.377 . S
C147 C148 1.395 . S
C147 H176 0.931 . S
C148 C147 1.395 . S
C148 C149 1.383 . S
C148 H177 0.931 . S
C149 C148 1.383 . S
C149 C150 1.394 . S
C150 C149 1.394 . S
C150 C151 1.378 . S
C150 H178 0.931 1_565 S
C151 C146 1.377 . S
C151 C150 1.378 . S
C151 H179 0.931 1_565 S
C152 O166 1.259 . S
C152 O167 1.270 . S
C153 O168 1.251 1_545 S
C153 O169 1.251 . S
C154 Eu155 2.835 1_554 S
C154 C156 1.500 . S
C154 O170 1.257 . S
C154 O171 1.260 . S
Eu155 C154 2.835 1_556 S
Eu155 O167 2.355 1_545 S
Eu155 O169 2.374 . S
Eu155 O170 2.473 1_556 S
Eu155 O171 2.480 1_556 S
Eu155 O172 2.430 . S
Eu155 O173 2.670 . S
Eu155 O174 2.394 . S
C156 C154 1.500 . S
C156 C157 1.377 . S
C156 C161 1.377 . S
C157 C156 1.377 . S
C157 C158 1.395 . S
C157 H180 0.931 . S
C158 C157 1.395 . S
C158 C159 1.383 . S
C158 H181 0.931 . S
C159 C158 1.383 . S
C159 C160 1.394 . S
C160 C159 1.394 . S
C160 C161 1.378 . S
C160 H182 0.931 1_545 S
C161 C156 1.377 . S
C161 C160 1.378 . S
C161 H183 0.931 1_545 S
C162 O172 1.259 . S
C162 O173 1.270 . S
C163 O174 1.251 1_565 S
C163 O175 1.251 . S
O164 C144 1.257 . S
O164 Eu145 2.473 . S
O165 C144 1.260 . S
O165 Eu145 2.480 . S
O166 Eu145 2.430 . S
O166 C152 1.259 . S
O167 Eu145 2.670 . S
O167 C152 1.270 . S
O167 Eu155 2.355 1_565 S
O168 Eu145 2.394 . S
O168 C153 1.251 1_565 S
O169 C153 1.251 . S
O169 Eu155 2.374 . S
O170 C154 1.257 . S
O170 Eu155 2.473 1_554 S
O171 C154 1.260 . S
O171 Eu155 2.480 1_554 S
O172 Eu155 2.430 . S
O172 C162 1.259 . S
O173 Eu145 2.355 1_545 S
O173 Eu155 2.670 . S
O173 C162 1.270 . S
O174 Eu155 2.394 . S
O174 C163 1.251 1_545 S
O175 Eu145 2.374 . S
O175 C163 1.251 . S
H176 C147 0.931 . S
H177 C148 0.931 . S
H178 C150 0.931 1_545 S
H179 C151 0.931 1_545 S
H180 C157 0.931 . S
H181 C158 0.931 . S
H182 C160 0.931 1_565 S
H183 C161 0.931 1_565 S
C184 Eu185 2.835 . S
C184 C186 1.500 . S
C184 O204 1.257 . S
C184 O205 1.260 . S
Eu185 C184 2.835 . S
Eu185 O204 2.473 . S
Eu185 O205 2.480 . S
Eu185 O206 2.430 . S
Eu185 O207 2.670 . S
Eu185 O208 2.394 . S
Eu185 O213 2.355 . S
Eu185 O215 2.374 . S
C186 C184 1.500 . S
C186 C187 1.377 . S
C186 C191 1.377 . S
C187 C186 1.377 . S
C187 C188 1.395 . S
C187 H216 0.931 . S
C188 C187 1.395 . S
C188 C189 1.383 . S
C188 H217 0.931 . S
C189 C188 1.383 . S
C189 C190 1.394 . S
C190 C189 1.394 . S
C190 C191 1.378 . S
C190 H218 0.931 . S
C191 C186 1.377 . S
C191 C190 1.378 . S
C191 H219 0.931 . S
C192 O206 1.259 . S
C192 O207 1.270 . S
C193 O208 1.251 . S
C193 O209 1.251 . S
C194 Eu195 2.835 1_554 S
C194 C196 1.500 . S
C194 O210 1.257 . S
C194 O211 1.260 . S
Eu195 C194 2.835 1_556 S
Eu195 O207 2.355 . S
Eu195 O209 2.374 . S
Eu195 O210 2.473 1_556 S
Eu195 O211 2.480 1_556 S
Eu195 O212 2.430 . S
Eu195 O213 2.670 . S
Eu195 O214 2.394 . S
C196 C194 1.500 . S
C196 C197 1.377 . S
C196 C201 1.377 . S
C197 C196 1.377 . S
C197 C198 1.395 . S
C197 H220 0.931 . S
C198 C197 1.395 . S
C198 C199 1.383 . S
C198 H221 0.931 . S
C199 C198 1.383 . S
C199 C200 1.394 . S
C200 C199 1.394 . S
C200 C201 1.378 . S
C200 H222 0.931 . S
C201 C196 1.377 . S
C201 C200 1.378 . S
C201 H223 0.931 . S
C202 O212 1.259 . S
C202 O213 1.270 . S
C203 O214 1.251 . S
C203 O215 1.251 . S
O204 C184 1.257 . S
O204 Eu185 2.473 . S
O205 C184 1.260 . S
O205 Eu185 2.480 . S
O206 Eu185 2.430 . S
O206 C192 1.259 . S
O207 Eu185 2.670 . S
O207 C192 1.270 . S
O207 Eu195 2.355 . S
O208 Eu185 2.394 . S
O208 C193 1.251 . S
O209 C193 1.251 . S
O209 Eu195 2.374 . S
O210 C194 1.257 . S
O210 Eu195 2.473 1_554 S
O211 C194 1.260 . S
O211 Eu195 2.480 1_554 S
O212 Eu195 2.430 . S
O212 C202 1.259 . S
O213 Eu185 2.355 . S
O213 Eu195 2.670 . S
O213 C202 1.270 . S
O214 Eu195 2.394 . S
O214 C203 1.251 . S
O215 Eu185 2.374 . S
O215 C203 1.251 . S
H216 C187 0.931 . S
H217 C188 0.931 . S
H218 C190 0.931 . S
H219 C191 0.931 . S
H220 C197 0.931 . S
H221 C198 0.931 . S
H222 C200 0.931 . S
H223 C201 0.931 . S
C224 Eu225 2.835 . S
C224 C226 1.500 . S
C224 O244 1.257 . S
C224 O245 1.260 . S
Eu225 C224 2.835 . S
Eu225 O244 2.473 . S
Eu225 O245 2.480 . S
Eu225 O246 2.430 . S
Eu225 O247 2.670 1_455 S
Eu225 O248 2.394 . S
Eu225 O253 2.355 . S
Eu225 O255 2.374 1_455 S
C226 C224 1.500 . S
C226 C227 1.377 . S
C226 C231 1.377 . S
C227 C226 1.377 . S
C227 C228 1.395 . S
C227 H256 0.931 . S
C228 C227 1.395 . S
C228 C229 1.383 . S
C228 H257 0.931 . S
C229 C228 1.383 . S
C229 C230 1.394 . S
C230 C229 1.394 . S
C230 C231 1.378 . S
C230 H258 0.931 . S
C231 C226 1.377 . S
C231 C230 1.378 . S
C231 H259 0.931 . S
C232 O246 1.263 . S
C232 O247 1.267 1_455 S
C233 O248 1.251 . S
C233 O249 1.251 . S
C234 Eu235 2.835 1_554 S
C234 C236 1.500 . S
C234 O250 1.257 . S
C234 O251 1.260 . S
Eu235 C234 2.835 1_556 S
Eu235 O247 2.355 . S
Eu235 O249 2.374 1_655 S
Eu235 O250 2.473 1_556 S
Eu235 O251 2.480 1_556 S
Eu235 O252 2.430 . S
Eu235 O253 2.670 1_655 S
Eu235 O254 2.394 . S
C236 C234 1.500 . S
C236 C237 1.377 . S
C236 C241 1.377 . S
C237 C236 1.377 . S
C237 C238 1.395 . S
C237 H260 0.931 . S
C238 C237 1.395 . S
C238 C239 1.383 . S
C238 H261 0.931 . S
C239 C238 1.383 . S
C239 C240 1.394 . S
C240 C239 1.394 . S
C240 C241 1.378 . S
C240 H262 0.931 . S
C241 C236 1.377 . S
C241 C240 1.378 . S
C241 H263 0.931 . S
C242 O252 1.259 . S
C242 O253 1.270 1_655 S
C243 O254 1.251 . S
C243 O255 1.251 . S
O244 C224 1.257 . S
O244 Eu225 2.473 . S
O245 C224 1.260 . S
O245 Eu225 2.480 . S
O246 Eu225 2.430 . S
O246 C232 1.263 . S
O247 Eu225 2.670 1_655 S
O247 C232 1.267 1_655 S
O247 Eu235 2.355 . S
O248 Eu225 2.394 . S
O248 C233 1.251 . S
O249 C233 1.251 . S
O249 Eu235 2.374 1_455 S
O250 C234 1.257 . S
O250 Eu235 2.473 1_554 S
O251 C234 1.260 . S
O251 Eu235 2.480 1_554 S
O252 Eu235 2.430 . S
O252 C242 1.259 . S
O253 Eu225 2.355 . S
O253 Eu235 2.670 1_455 S
O253 C242 1.270 1_455 S
O254 Eu235 2.394 . S
O254 C243 1.251 . S
O255 Eu225 2.374 1_655 S
O255 C243 1.251 . S
H256 C227 0.931 . S
H257 C228 0.931 . S
H258 C230 0.931 . S
H259 C231 0.931 . S
H260 C237 0.931 . S
H261 C238 0.931 . S
H262 C240 0.931 . S
H263 C241 0.931 . S
C264 C265 1.366 1_545 S
C264 C266 1.419 . S
C264 H268 0.930 . S
C265 C264 1.366 1_565 S
C265 C274 1.431 . S
C266 C264 1.419 . S
C266 C267 1.359 1_545 S
C266 H269 0.929 . S
C267 C266 1.359 1_565 S
C267 C273 1.434 . S
H268 C264 0.930 . S
H269 C266 0.929 . S
S270 N271 1.613 . S
S270 N272 1.610 . S
N271 S270 1.613 . S
N271 C274 1.350 . S
N272 S270 1.610 . S
N272 C273 1.351 . S
C273 C267 1.434 . S
C273 N272 1.351 . S
C273 C274 1.434 . S
C274 C265 1.431 . S
C274 N271 1.350 . S
C274 C273 1.434 . S
C275 C276 1.369 . S
C275 C277 1.419 . S
C275 H279 0.930 . S
C276 C275 1.369 . S
C276 C285 1.429 . S
C277 C275 1.419 . S
C277 C278 1.363 . S
C277 H280 0.929 . S
C278 C277 1.363 . S
C278 C284 1.428 . S
H279 C275 0.930 . S
H280 C277 0.929 . S
S281 N282 1.613 . S
S281 N283 1.610 . S
N282 S281 1.613 . S
N282 C285 1.350 . S
N283 S281 1.610 . S
N283 C284 1.351 . S
C284 C278 1.428 . S
C284 N283 1.351 . S
C284 C285 1.434 . S
C285 C276 1.429 . S
C285 N282 1.350 . S
C285 C284 1.434 . S
C286 C287 1.369 . S
C286 C288 1.419 . S
C286 H290 0.930 . S
C287 C286 1.369 . S
C287 C296 1.429 . S
C288 C286 1.419 . S
C288 C289 1.363 . S
C288 H291 0.929 . S
C289 C288 1.363 . S
C289 C295 1.428 . S
H290 C286 0.930 . S
H291 C288 0.929 . S
S292 N293 1.613 . S
S292 N294 1.610 . S
N293 S292 1.613 . S
N293 C296 1.350 . S
N294 S292 1.610 . S
N294 C295 1.351 . S
C295 C289 1.428 . S
C295 N294 1.351 . S
C295 C296 1.434 . S
C296 C287 1.429 . S
C296 N293 1.350 . S
C296 C295 1.434 . S
C297 C298 1.349 1_655 S
C297 C299 1.419 . S
C297 H301 0.930 . S
C298 C297 1.349 1_455 S
C298 C307 1.450 . S
C299 C297 1.419 . S
C299 C300 1.363 1_655 S
C299 H302 0.929 . S
C300 C299 1.363 1_455 S
C300 C306 1.428 . S
H301 C297 0.930 . S
H302 C299 0.929 . S
S303 N304 1.613 . S
S303 N305 1.610 . S
N304 S303 1.613 . S
N304 C307 1.350 . S
N305 S303 1.610 . S
N305 C306 1.351 . S
C306 C300 1.428 . S
C306 N305 1.351 . S
C306 C307 1.434 . S
C307 C298 1.450 . S
C307 N304 1.350 . S
C307 C306 1.434 . S
C308 C309 1.367 1_545 S
C308 C310 1.419 . S
C308 H312 0.930 . S
C309 C308 1.367 1_565 S
C309 C318 1.431 . S
C310 C308 1.419 . S
C310 C311 1.366 . S
C310 H313 0.929 . S
C311 C310 1.366 . S
C311 C317 1.425 1_545 S
H312 C308 0.930 . S
H313 C310 0.929 . S
S314 N315 1.613 . S
S314 N316 1.610 . S
N315 S314 1.613 . S
N315 C318 1.350 . S
N316 S314 1.610 . S
N316 C317 1.351 . S
C317 C311 1.425 1_565 S
C317 N316 1.351 . S
C317 C318 1.434 . S
C318 C309 1.431 . S
C318 N315 1.350 . S
C318 C317 1.434 . S
C319 C320 1.369 . S
C319 C321 1.419 . S
C319 H323 0.930 . S
C320 C319 1.369 . S
C320 C329 1.429 . S
C321 C319 1.419 . S
C321 C322 1.363 . S
C321 H324 0.929 . S
C322 C321 1.363 . S
C322 C328 1.428 . S
H323 C319 0.930 . S
H324 C321 0.929 . S
S325 N326 1.613 . S
S325 N327 1.610 . S
N326 S325 1.613 . S
N326 C329 1.350 . S
N327 S325 1.610 . S
N327 C328 1.351 . S
C328 C322 1.428 . S
C328 N327 1.351 . S
C328 C329 1.434 . S
C329 C320 1.429 . S
C329 N326 1.350 . S
C329 C328 1.434 . S
C330 C331 1.369 . S
C330 C332 1.419 . S
C330 H334 0.930 . S
C331 C330 1.369 . S
C331 C340 1.429 . S
C332 C330 1.419 . S
C332 C333 1.363 . S
C332 H335 0.929 . S
C333 C332 1.363 . S
C333 C339 1.428 . S
H334 C330 0.930 . S
H335 C332 0.929 . S
S336 N337 1.613 . S
S336 N338 1.610 . S
N337 S336 1.613 . S
N337 C340 1.350 . S
N338 S336 1.610 . S
N338 C339 1.351 . S
C339 C333 1.428 . S
C339 N338 1.351 . S
C339 C340 1.434 . S
C340 C331 1.429 . S
C340 N337 1.350 . S
C340 C339 1.434 . S
C341 C342 1.372 1_655 S
C341 C343 1.419 . S
C341 H345 0.930 . S
C342 C341 1.372 1_455 S
C342 C351 1.426 . S
C343 C341 1.419 . S
C343 C344 1.383 . S
C343 H346 0.929 . S
C344 C343 1.383 . S
C344 C350 1.408 1_655 S
H345 C341 0.930 . S
H346 C343 0.929 . S
S347 N348 1.613 . S
S347 N349 1.610 . S
N348 S347 1.613 . S
N348 C351 1.350 . S
N349 S347 1.610 . S
N349 C350 1.351 . S
C350 C344 1.408 1_455 S
C350 N349 1.351 . S
C350 C351 1.434 . S
C351 C342 1.426 . S
C351 N348 1.350 . S
C351 C350 1.434 . S
C352 C353 1.370 . S
C352 C354 1.419 . S
C352 H356 0.930 . S
C353 C352 1.370 . S
C353 C362 1.428 1_655 S
C354 C352 1.419 . S
C354 C355 1.363 . S
C354 H357 0.929 . S
C355 C354 1.363 . S
C355 C361 1.428 . S
H356 C352 0.930 . S
H357 C354 0.929 . S
S358 N359 1.613 . S
S358 N360 1.610 1_455 S
N359 S358 1.613 . S
N359 C362 1.350 . S
N360 S358 1.610 1_655 S
N360 C361 1.351 . S
C361 C355 1.428 . S
C361 N360 1.351 . S
C361 C362 1.434 1_655 S
C362 C353 1.428 1_455 S
C362 N359 1.350 . S
C362 C361 1.434 1_455 S
C363 C364 1.363 1_545 S
C363 C365 1.419 1_545 S
C363 H367 0.930 . S
C364 C363 1.363 1_565 S
C364 C373 1.451 . S
C365 C363 1.419 1_565 S
C365 C366 1.363 . S
C365 H368 0.929 . S
C366 C365 1.363 . S
C366 C372 1.428 . S
H367 C363 0.930 . S
H368 C365 0.929 . S
S369 N370 1.613 . S
S369 N371 1.610 . S
N370 S369 1.613 . S
N370 C373 1.350 . S
N371 S369 1.610 . S
N371 C372 1.351 . S
C372 C366 1.428 . S
C372 N371 1.351 . S
C372 C373 1.434 . S
C373 C364 1.451 . S
C373 N370 1.350 . S
C373 C372 1.434 . S
C374 C375 1.369 . S
C374 C376 1.419 . S
C374 H378 0.930 . S
C375 C374 1.369 . S
C375 C384 1.429 . S
C376 C374 1.419 . S
C376 C377 1.363 . S
C376 H379 0.929 . S
C377 C376 1.363 . S
C377 C383 1.428 . S
H378 C374 0.930 . S
H379 C376 0.929 . S
S380 N381 1.613 . S
S380 N382 1.610 . S
N381 S380 1.613 . S
N381 C384 1.350 . S
N382 S380 1.610 . S
N382 C383 1.351 . S
C383 C377 1.428 . S
C383 N382 1.351 . S
C383 C384 1.434 . S
C384 C375 1.429 . S
C384 N381 1.350 . S
C384 C383 1.434 . S
C385 C386 1.369 . S
C385 C387 1.419 . S
C385 H389 0.930 . S
C386 C385 1.369 . S
C386 C395 1.429 . S
C387 C385 1.419 . S
C387 C388 1.363 . S
C387 H390 0.929 . S
C388 C387 1.363 . S
C388 C394 1.428 . S
H389 C385 0.930 . S
H390 C387 0.929 . S
S391 N392 1.613 . S
S391 N393 1.610 . S
N392 S391 1.613 . S
N392 C395 1.350 . S
N393 S391 1.610 . S
N393 C394 1.351 . S
C394 C388 1.428 . S
C394 N393 1.351 . S
C394 C395 1.434 . S
C395 C386 1.429 . S
C395 N392 1.350 . S
C395 C394 1.434 . S
C396 C397 1.369 . S
C396 C398 1.429 . S
C396 H400 0.919 1_455 S
C397 C396 1.369 . S
C397 C406 1.440 . S
C398 C396 1.429 . S
C398 C399 1.363 . S
C398 H401 0.929 . S
C399 C398 1.363 . S
C399 C405 1.428 . S
H400 C396 0.919 1_655 S
H401 C398 0.929 . S
S402 N403 1.613 . S
S402 N404 1.610 . S
N403 S402 1.613 . S
N403 C406 1.350 . S
N404 S402 1.610 . S
N404 C405 1.351 . S
C405 C399 1.428 . S
C405 N404 1.351 . S
C405 C406 1.434 . S
C406 C397 1.440 . S
C406 N403 1.350 . S
C406 C405 1.434 . S
C407 C408 1.361 1_565 S
C407 C409 1.419 1_565 S
C407 H411 0.930 . S
C408 C407 1.361 1_545 S
C408 C417 1.459 . S
C409 C407 1.419 1_545 S
C409 C410 1.363 . S
C409 H412 0.929 . S
C410 C409 1.363 . S
C410 C416 1.428 . S
H411 C407 0.930 . S
H412 C409 0.929 . S
S413 N414 1.613 . S
S413 N415 1.610 . S
N414 S413 1.613 . S
N414 C417 1.350 . S
N415 S413 1.610 . S
N415 C416 1.351 . S
C416 C410 1.428 . S
C416 N415 1.351 . S
C416 C417 1.434 . S
C417 C408 1.459 . S
C417 N414 1.350 . S
C417 C416 1.434 . S
C418 C419 1.369 . S
C418 C420 1.419 . S
C418 H422 0.930 . S
C419 C418 1.369 . S
C419 C428 1.429 . S
C420 C418 1.419 . S
C420 C421 1.363 . S
C420 H423 0.929 . S
C421 C420 1.363 . S
C421 C427 1.428 . S
H422 C418 0.930 . S
H423 C420 0.929 . S
S424 N425 1.613 . S
S424 N426 1.610 . S
N425 S424 1.613 . S
N425 C428 1.350 . S
N426 S424 1.610 . S
N426 C427 1.351 . S
C427 C421 1.428 . S
C427 N426 1.351 . S
C427 C428 1.434 . S
C428 C419 1.429 . S
C428 N425 1.350 . S
C428 C427 1.434 . S
C429 C430 1.369 . S
C429 C431 1.419 . S
C429 H433 0.930 . S
C430 C429 1.369 . S
C430 C439 1.429 . S
C431 C429 1.419 . S
C431 C432 1.363 . S
C431 H434 0.929 . S
C432 C431 1.363 . S
C432 C438 1.428 . S
H433 C429 0.930 . S
H434 C431 0.929 . S
S435 N436 1.613 . S
S435 N437 1.610 . S
N436 S435 1.613 . S
N436 C439 1.350 . S
N437 S435 1.610 . S
N437 C438 1.351 . S
C438 C432 1.428 . S
C438 N437 1.351 . S
C438 C439 1.434 . S
C439 C430 1.429 . S
C439 N436 1.350 . S
C439 C438 1.434 . S
C440 C441 1.369 1_655 S
C440 C442 1.419 . S
C440 H444 0.930 1_556 S
C441 C440 1.369 1_455 S
C441 C450 1.429 . S
C442 C440 1.419 . S
C442 C443 1.363 1_655 S
C442 H445 0.929 1_556 S
C443 C442 1.363 1_455 S
C443 C449 1.428 . S
H444 C440 0.930 1_554 S
H445 C442 0.929 1_554 S
S446 N447 1.613 . S
S446 N448 1.610 . S
N447 S446 1.613 . S
N447 C450 1.350 . S
N448 S446 1.610 . S
N448 C449 1.351 . S
C449 C443 1.428 . S
C449 N448 1.351 . S
C449 C450 1.434 . S
C450 C441 1.429 . S
C450 N447 1.350 . S
C450 C449 1.434 . S
C451 C452 1.369 . S
C451 C453 1.419 . S
C451 H455 0.930 1_546 S
C452 C451 1.369 . S
C452 C461 1.429 . S
C453 C451 1.419 . S
C453 C454 1.363 . S
C453 H456 0.929 1_556 S
C454 C453 1.363 . S
C454 C460 1.428 . S
H455 C451 0.930 1_564 S
H456 C453 0.929 1_554 S
S457 N458 1.613 . S
S457 N459 1.610 . S
N458 S457 1.613 . S
N458 C461 1.350 . S
N459 S457 1.610 . S
N459 C460 1.351 . S
C460 C454 1.428 . S
C460 N459 1.351 . S
C460 C461 1.434 . S
C461 C452 1.429 . S
C461 N458 1.350 . S
C461 C460 1.434 . S
C462 C463 1.369 . S
C462 C464 1.419 . S
C462 H466 0.930 1_556 S
C463 C462 1.369 . S
C463 C472 1.429 . S
C464 C462 1.419 . S
C464 C465 1.363 . S
C464 H467 0.929 1_556 S
C465 C464 1.363 . S
C465 C471 1.428 . S
H466 C462 0.930 1_554 S
H467 C464 0.929 1_554 S
S468 N469 1.613 . S
S468 N470 1.610 . S
N469 S468 1.613 . S
N469 C472 1.350 . S
N470 S468 1.610 . S
N470 C471 1.351 . S
C471 C465 1.428 . S
C471 N470 1.351 . S
C471 C472 1.434 . S
C472 C463 1.429 . S
C472 N469 1.350 . S
C472 C471 1.434 . S
C473 C474 1.369 . S
C473 C475 1.419 . S
C473 H477 0.930 . S
C474 C473 1.369 . S
C474 C483 1.429 . S
C475 C473 1.419 . S
C475 C476 1.363 . S
C475 H478 0.929 . S
C476 C475 1.363 . S
C476 C482 1.428 . S
H477 C473 0.930 . S
H478 C475 0.929 . S
S479 N480 1.613 . S
S479 N481 1.610 . S
N480 S479 1.613 . S
N480 C483 1.350 . S
N481 S479 1.610 . S
N481 C482 1.351 . S
C482 C476 1.428 . S
C482 N481 1.351 . S
C482 C483 1.434 . S
C483 C474 1.429 . S
C483 N480 1.350 . S
C483 C482 1.434 . S
C484 C485 1.369 . S
C484 C486 1.418 . S
C484 H488 0.931 1_655 S
C485 C484 1.369 . S
C485 C494 1.429 . S
C486 C484 1.418 . S
C486 C487 1.363 . S
C486 H489 0.932 . S
C487 C486 1.363 . S
C487 C493 1.428 . S
H488 C484 0.931 1_455 S
H489 C486 0.932 . S
S490 N491 1.613 1_554 S
S490 N492 1.610 1_554 S
N491 S490 1.613 1_556 S
N491 C494 1.350 . S
N492 S490 1.610 1_556 S
N492 C493 1.351 . S
C493 C487 1.428 . S
C493 N492 1.351 . S
C493 C494 1.434 . S
C494 C485 1.429 . S
C494 N491 1.350 . S
C494 C493 1.434 . S
C495 C496 1.369 . S
C495 C497 1.419 . S
C495 H499 0.930 . S
C496 C495 1.369 . S
C496 C505 1.429 . S
C497 C495 1.419 . S
C497 C498 1.363 . S
C497 H500 0.929 . S
C498 C497 1.363 . S
C498 C504 1.428 . S
H499 C495 0.930 . S
H500 C497 0.929 . S
S501 N502 1.613 . S
S501 N503 1.604 1_545 S
N502 S501 1.613 . S
N502 C505 1.350 1_545 S
N503 S501 1.604 1_565 S
N503 C504 1.355 . S
C504 C498 1.428 . S
C504 N503 1.355 . S
C504 C505 1.434 . S
C505 C496 1.429 . S
C505 N502 1.350 1_565 S
C505 C504 1.434 . S
C506 C507 1.369 . S
C506 C508 1.419 . S
C506 H510 0.930 . S
C507 C506 1.369 . S
C507 C516 1.429 . S
C508 C506 1.419 . S
C508 C509 1.363 . S
C508 H511 0.929 . S
C509 C508 1.363 . S
C509 C515 1.428 . S
H510 C506 0.930 . S
H511 C508 0.929 . S
S512 N513 1.613 . S
S512 N514 1.610 . S
N513 S512 1.613 . S
N513 C516 1.350 . S
N514 S512 1.610 . S
N514 C515 1.351 . S
C515 C509 1.428 . S
C515 N514 1.351 . S
C515 C516 1.434 . S
C516 C507 1.429 . S
C516 N513 1.350 . S
C516 C515 1.434 . S
C517 C518 1.369 . S
C517 C519 1.419 . S
C517 H521 0.930 . S
C518 C517 1.369 . S
C518 C527 1.429 . S
C519 C517 1.419 . S
C519 C520 1.363 . S
C519 H522 0.929 . S
C520 C519 1.363 . S
C520 C526 1.428 . S
H521 C517 0.930 . S
H522 C519 0.929 . S
S523 N524 1.613 . S
S523 N525 1.610 . S
N524 S523 1.613 . S
N524 C527 1.350 . S
N525 S523 1.610 . S
N525 C526 1.351 . S
C526 C520 1.428 . S
C526 N525 1.351 . S
C526 C527 1.434 . S
C527 C518 1.429 . S
C527 N524 1.350 . S
C527 C526 1.434 . S
C265 C82 1.766 1_565 S
C267 C122 2.212 . S
C278 C162 2.233 . S
C276 C95 1.766 . S
C289 C202 2.244 . S
C287 C56 1.791 . S
C300 C242 2.225 1_455 S
C298 C69 1.785 . S
C311 C112 2.215 1_554 S
C309 C30 1.772 1_565 S
C320 C43 1.807 . S
C322 C152 2.235 1_554 S
C331 C4 1.822 . S
C333 C192 2.244 1_554 S
C342 C17 1.783 . S
C344 C232 2.224 1_654 S
C355 C109 0.762 . S
C353 C74 0.782 1_655 S
C366 C149 0.780 . S
C364 C87 0.761 1_565 S
C377 C189 0.765 . S
C375 C100 0.763 . S
C386 C61 0.761 . S
C388 C229 0.762 . S
C397 C22 0.764 . S
C399 C119 0.778 . S
C410 C159 0.780 . S
C408 C35 0.761 . S
C421 C199 0.764 . S
C419 C48 0.754 . S
C430 C9 0.772 . S
C432 C239 0.754 . S
C441 C73 2.245 . S
C443 C113 2.542 . S
C452 C86 2.202 . S
C454 C153 2.501 . S
C465 C193 2.484 . S
C463 C99 2.183 . S
C476 C233 2.532 . S
C474 C60 2.218 . S
C485 C21 2.245 1_655 S
C487 C123 2.551 . S
C498 C163 2.502 . S
C496 C34 2.192 1_565 S
C509 C203 2.486 . S
C507 C47 2.179 . S
C518 C8 2.226 . S
C520 C243 2.531 . S
