# Generated by pormake.
# Topology nom, (4,4)-cn, num edge types: 1
# Building blocks:
#     Node 0, Type 0, BuildingBlock: NAWXER_clean_linker_0, # of connection points: 4
#     Node 1, Type 0, BuildingBlock: NAWXER_clean_linker_0, # of connection points: 4
#     Node 2, Type 0, BuildingBlock: NAWXER_clean_linker_0, # of connection points: 4
#     Node 3, Type 0, BuildingBlock: NAWXER_clean_linker_0, # of connection points: 4
#     Node 4, Type 0, BuildingBlock: NAWXER_clean_linker_0, # of connection points: 4
#     Node 5, Type 0, BuildingBlock: NAWXER_clean_linker_0, # of connection points: 4
#     Node 6, Type 1, BuildingBlock: KUFVIS_clean_sbu_0, # of connection points: 4
#     Node 7, Type 1, BuildingBlock: KUFVIS_clean_sbu_0, # of connection points: 4
#     Node 8, Type 1, BuildingBlock: KUFVIS_clean_sbu_0, # of connection points: 4
#     Node 9, Type 1, BuildingBlock: KUFVIS_clean_sbu_0, # of connection points: 4
#     Node 10, Type 1, BuildingBlock: KUFVIS_clean_sbu_0, # of connection points: 4
#     Node 11, Type 1, BuildingBlock: KUFVIS_clean_sbu_0, # of connection points: 4
#     Edge 12, Type (0, 1), BuildingBlock: UVAHIK_clean_linker_0, # of connection points: 2
#     Edge 13, Type (0, 1), BuildingBlock: UVAHIK_clean_linker_0, # of connection points: 2
#     Edge 14, Type (0, 1), BuildingBlock: UVAHIK_clean_linker_0, # of connection points: 2
#     Edge 15, Type (0, 1), BuildingBlock: UVAHIK_clean_linker_0, # of connection points: 2
#     Edge 16, Type (0, 1), BuildingBlock: UVAHIK_clean_linker_0, # of connection points: 2
#     Edge 17, Type (0, 1), BuildingBlock: UVAHIK_clean_linker_0, # of connection points: 2
#     Edge 18, Type (0, 1), BuildingBlock: UVAHIK_clean_linker_0, # of connection points: 2
#     Edge 19, Type (0, 1), BuildingBlock: UVAHIK_clean_linker_0, # of connection points: 2
#     Edge 20, Type (0, 1), BuildingBlock: UVAHIK_clean_linker_0, # of connection points: 2
#     Edge 21, Type (0, 1), BuildingBlock: UVAHIK_clean_linker_0, # of connection points: 2
#     Edge 22, Type (0, 1), BuildingBlock: UVAHIK_clean_linker_0, # of connection points: 2
#     Edge 23, Type (0, 1), BuildingBlock: UVAHIK_clean_linker_0, # of connection points: 2
#     Edge 24, Type (0, 1), BuildingBlock: UVAHIK_clean_linker_0, # of connection points: 2
#     Edge 25, Type (0, 1), BuildingBlock: UVAHIK_clean_linker_0, # of connection points: 2
#     Edge 26, Type (0, 1), BuildingBlock: UVAHIK_clean_linker_0, # of connection points: 2
#     Edge 27, Type (0, 1), BuildingBlock: UVAHIK_clean_linker_0, # of connection points: 2
#     Edge 28, Type (0, 1), BuildingBlock: UVAHIK_clean_linker_0, # of connection points: 2
#     Edge 29, Type (0, 1), BuildingBlock: UVAHIK_clean_linker_0, # of connection points: 2
#     Edge 30, Type (0, 1), BuildingBlock: UVAHIK_clean_linker_0, # of connection points: 2
#     Edge 31, Type (0, 1), BuildingBlock: UVAHIK_clean_linker_0, # of connection points: 2
#     Edge 32, Type (0, 1), BuildingBlock: UVAHIK_clean_linker_0, # of connection points: 2
#     Edge 33, Type (0, 1), BuildingBlock: UVAHIK_clean_linker_0, # of connection points: 2
#     Edge 34, Type (0, 1), BuildingBlock: UVAHIK_clean_linker_0, # of connection points: 2
#     Edge 35, Type (0, 1), BuildingBlock: UVAHIK_clean_linker_0, # of connection points: 2
# Relax obj value: 0.005
# Max RMSD: 0.110
# Mean RMSD: 0.070
data_MOF--net-nom--node1-KUFVIS_clean_sbu_0--node2-NAWXER_clean_linker_0--edge1-UVAHIK_clean_linker_0
_symmetry_space_group_name_H-M    P1
_symmetry_Int_Tables_number       1
_symmetry_cell_setting            triclinic
loop_
_symmetry_equiv_pos_as_xyz
'x, y, z'
_cell_length_a     64.553361
_cell_length_b     65.228106
_cell_length_c     71.953041
_cell_angle_alpha  90.594211
_cell_angle_beta   90.676717
_cell_angle_gamma 120.01005
loop_
_atom_site_label
_atom_site_type_symbol
_atom_site_fract_x
_atom_site_fract_y
_atom_site_fract_z
_atom_type_partial_charge
C0 C 0.91836 0.50275 0.32999 0.0
C1 C 0.90767 0.48361 0.34215 0.0
C2 C 0.94217 0.51211 0.325 0.0
C3 C 0.95577 0.50237 0.33184 0.0
C4 C 0.92123 0.47375 0.34894 0.0
C5 C 0.94517 0.48321 0.34395 0.0
C6 C 0.98141 0.51335 0.32732 0.0
C7 C 0.94166 0.48074 0.27366 0.0
C8 C 0.94429 0.49732 0.26018 0.0
C9 C 0.95625 0.4879 0.28965 0.0
C10 C 0.97374 0.51177 0.29246 0.0
C11 C 0.96189 0.52122 0.26308 0.0
C12 C 0.97659 0.52831 0.27899 0.0
C13 C 0.98976 0.51949 0.30904 0.0
C14 C 0.09669 0.56381 0.31688 0.0
C15 C 0.10325 0.58257 0.30452 0.0
C16 C 0.07297 0.55028 0.32255 0.0
C17 C 0.05549 0.55545 0.31611 0.0
C18 C 0.08572 0.58782 0.29832 0.0
C19 C 0.0621 0.57433 0.30397 0.0
C20 C 0.02995 0.54041 0.32067 0.0
C21 C 0.066 0.57398 0.37569 0.0
C22 C 0.06732 0.55759 0.38743 0.0
C23 C 0.05143 0.5662 0.35969 0.0
C24 C 0.03776 0.54192 0.35536 0.0
C25 C 0.0537 0.5333 0.38301 0.0
C26 C 0.03877 0.52551 0.3672 0.0
C27 C 0.02168 0.53357 0.33888 0.0
H28 H 0.90835 0.51062 0.3244 0.0
H29 H 0.95008 0.52733 0.31607 0.0
H30 H 0.91352 0.45916 0.35849 0.0
H31 H 0.95545 0.47564 0.34959 0.0
H32 H 0.92864 0.46214 0.27171 0.0
H33 H 0.95411 0.47473 0.29966 0.0
H34 H 0.96419 0.53453 0.25316 0.0
H35 H 0.99004 0.54681 0.28088 0.0
H36 H 0.10971 0.55914 0.32172 0.0
H37 H 0.06821 0.53538 0.3315 0.0
H38 H 0.09024 0.60239 0.28905 0.0
H39 H 0.04892 0.57862 0.29879 0.0
H40 H 0.0764 0.59279 0.37883 0.0
H41 H 0.0506 0.5791 0.35081 0.0
H42 H 0.05433 0.52035 0.39195 0.0
H43 H 0.02818 0.50669 0.36412 0.0
N44 N 0.99771 0.52036 0.34156 0.0
N45 N 0.01365 0.533 0.30645 0.0
C46 C 0.43645 0.92764 0.49872 0.0
C47 C 0.44586 0.91967 0.51278 0.0
C48 C 0.44907 0.95112 0.49299 0.0
C49 C 0.47166 0.96699 0.50087 0.0
C50 C 0.46828 0.93561 0.52084 0.0
C51 C 0.48104 0.95903 0.51495 0.0
C52 C 0.4847 0.99226 0.49562 0.0
C53 C 0.47923 0.95243 0.44239 0.0
C54 C 0.46516 0.95472 0.42837 0.0
C55 C 0.48603 0.96683 0.4584 0.0
C56 C 0.47882 0.98373 0.46072 0.0
C57 C 0.45796 0.97166 0.43082 0.0
C58 C 0.4649 0.98613 0.44675 0.0
C59 C 0.48679 0.99992 0.47709 0.0
C60 C 0.55128 0.10559 0.48269 0.0
C61 C 0.53919 0.1123 0.46989 0.0
C62 C 0.54065 0.08222 0.48879 0.0
C63 C 0.51762 0.06526 0.48238 0.0
C64 C 0.51618 0.09522 0.46353 0.0
C65 C 0.5056 0.07196 0.46963 0.0
C66 C 0.5063 0.04017 0.48784 0.0
C67 C 0.51433 0.08172 0.54048 0.0
C68 C 0.52588 0.07749 0.55535 0.0
C69 C 0.50736 0.06726 0.52451 0.0
C70 C 0.51256 0.04881 0.52286 0.0
C71 C 0.53061 0.05875 0.55391 0.0
C72 C 0.52407 0.0446 0.5378 0.0
C73 C 0.50453 0.03259 0.5064 0.0
H74 H 0.41898 0.9159 0.49254 0.0
H75 H 0.44084 0.95695 0.48272 0.0
H76 H 0.47598 0.92993 0.53168 0.0
H77 H 0.49826 0.97098 0.52143 0.0
H78 H 0.48545 0.93988 0.44083 0.0
H79 H 0.49728 0.96507 0.4688 0.0
H80 H 0.44682 0.97367 0.42048 0.0
H81 H 0.45923 0.99914 0.44823 0.0
H82 H 0.56915 0.11826 0.48767 0.0
H83 H 0.55055 0.07733 0.49826 0.0
H84 H 0.50621 0.09985 0.4539 0.0
H85 H 0.48787 0.05916 0.46442 0.0
H86 H 0.51013 0.09583 0.54143 0.0
H87 H 0.4975 0.07028 0.51364 0.0
H88 H 0.53952 0.05516 0.56521 0.0
H89 H 0.52799 0.03028 0.53702 0.0
N90 N 0.49385 0.00894 0.50949 0.0
N91 N 0.4973 0.0235 0.47399 0.0
C92 C 0.54969 0.49348 0.60547 0.0
C93 C 0.53211 0.47806 0.59257 0.0
C94 C 0.54326 0.50166 0.62119 0.0
C95 C 0.51917 0.49468 0.62414 0.0
C96 C 0.50804 0.47111 0.59557 0.0
C97 C 0.50167 0.47956 0.61112 0.0
C98 C 0.51211 0.50365 0.64039 0.0
C99 C 0.53316 0.45268 0.66298 0.0
C100 C 0.55119 0.46175 0.67685 0.0
C101 C 0.52288 0.46591 0.65692 0.0
C102 C 0.53085 0.48878 0.66423 0.0
C103 C 0.55901 0.4845 0.68434 0.0
C104 C 0.54892 0.49788 0.67808 0.0
C105 C 0.51885 0.50225 0.6589 0.0
C106 C 0.45849 0.52888 0.70403 0.0
C107 C 0.47524 0.54534 0.71692 0.0
C108 C 0.46608 0.52136 0.68864 0.0
C109 C 0.49057 0.53031 0.68576 0.0
C110 C 0.49975 0.55404 0.71412 0.0
C111 C 0.50733 0.54644 0.69873 0.0
C112 C 0.49871 0.52234 0.66954 0.0
C113 C 0.46527 0.56394 0.64879 0.0
C114 C 0.445 0.55057 0.63726 0.0
C115 C 0.48083 0.55547 0.65305 0.0
C116 C 0.47618 0.53333 0.64607 0.0
C117 C 0.44104 0.52892 0.62968 0.0
C118 C 0.45648 0.52043 0.63402 0.0
C119 C 0.49158 0.52329 0.65108 0.0
H120 H 0.56837 0.49905 0.60347 0.0
H121 H 0.5571 0.51362 0.63092 0.0
H122 H 0.49419 0.45945 0.58573 0.0
H123 H 0.48301 0.47412 0.61309 0.0
H124 H 0.5264 0.43498 0.65727 0.0
H125 H 0.50819 0.45788 0.64691 0.0
H126 H 0.5729 0.49193 0.69504 0.0
H127 H 0.55512 0.5153 0.68416 0.0
H128 H 0.4395 0.52195 0.70575 0.0
H129 H 0.45281 0.50851 0.679 0.0
H130 H 0.51305 0.56647 0.72396 0.0
H131 H 0.52629 0.55331 0.69686 0.0
H132 H 0.46886 0.58071 0.65483 0.0
H133 H 0.49633 0.56613 0.66192 0.0
H134 H 0.42595 0.51845 0.62039 0.0
H135 H 0.45272 0.50347 0.62824 0.0
N136 N 0.49855 0.51388 0.63724 0.0
N137 N 0.5121 0.51192 0.67273 0.0
C138 C 0.9181 0.45662 0.81841 0.0
C139 C 0.90806 0.46277 0.80361 0.0
C140 C 0.94197 0.47143 0.82381 0.0
C141 C 0.95603 0.49315 0.81499 0.0
C142 C 0.92222 0.48409 0.79439 0.0
C143 C 0.94599 0.4992 0.80008 0.0
C144 C 0.98162 0.50868 0.82026 0.0
C145 C 0.93935 0.50128 0.87135 0.0
C146 C 0.94412 0.49026 0.88619 0.0
C147 C 0.95448 0.50932 0.85609 0.0
C148 C 0.9744 0.50609 0.85522 0.0
C149 C 0.96464 0.48795 0.88556 0.0
C150 C 0.97959 0.49579 0.87027 0.0
C151 C 0.99018 0.51353 0.8389 0.0
C152 C 0.09796 0.57349 0.8307 0.0
C153 C 0.10465 0.56101 0.84293 0.0
C154 C 0.07378 0.56497 0.82625 0.0
C155 C 0.05599 0.54364 0.83374 0.0
C156 C 0.08664 0.54044 0.85117 0.0
C157 C 0.06262 0.53188 0.84663 0.0
C158 C 0.03041 0.53291 0.82831 0.0
C159 C 0.07094 0.5373 0.7766 0.0
C160 C 0.06709 0.54913 0.76196 0.0
C161 C 0.05607 0.53027 0.792 0.0
C162 C 0.0377 0.53583 0.79335 0.0
C163 C 0.04814 0.55382 0.76294 0.0
C164 C 0.03362 0.54728 0.77853 0.0
C165 C 0.0219 0.52889 0.80966 0.0
H166 H 0.90767 0.43999 0.82542 0.0
H167 H 0.9495 0.46564 0.83469 0.0
H168 H 0.91486 0.48907 0.78283 0.0
H169 H 0.95657 0.5156 0.79281 0.0
H170 H 0.92371 0.50333 0.87134 0.0
H171 H 0.95045 0.51784 0.84491 0.0
H172 H 0.96923 0.48012 0.89693 0.0
H173 H 0.99505 0.49342 0.87008 0.0
H174 H 0.11139 0.58945 0.82417 0.0
H175 H 0.06904 0.57472 0.81667 0.0
H176 H 0.09109 0.53077 0.86106 0.0
H177 H 0.04922 0.51561 0.85284 0.0
H178 H 0.08517 0.53309 0.77595 0.0
H179 H 0.05894 0.52048 0.8028 0.0
H180 H 0.04477 0.56282 0.75175 0.0
H181 H 0.0193 0.55137 0.77909 0.0
N182 N 0.99784 0.51696 0.80642 0.0
N183 N 0.01419 0.52511 0.84212 0.0
C184 C 0.47786 0.92935 0.98275 0.0
C185 C 0.46036 0.91993 0.96848 0.0
C186 C 0.48749 0.95286 0.98869 0.0
C187 C 0.47935 0.96726 0.98084 0.0
C188 C 0.45254 0.93444 0.96037 0.0
C189 C 0.46197 0.95791 0.96649 0.0
C190 C 0.49026 0.99253 0.98646 0.0
C191 C 0.45637 0.9506 0.03767 0.0
C192 C 0.4723 0.95536 0.05274 0.0
C193 C 0.46351 0.96532 0.02223 0.0
C194 C 0.4869 0.98473 0.02139 0.0
C195 C 0.49548 0.97508 0.05204 0.0
C196 C 0.50268 0.9896 0.03655 0.0
C197 C 0.49503 0.00063 0.00519 0.0
C198 C 0.54393 0.10755 0.9978 0.0
C199 C 0.56297 0.11375 0.01052 0.0
C200 C 0.52827 0.08377 0.99297 0.0
C201 C 0.53165 0.06585 0.00055 0.0
C202 C 0.5655 0.09563 0.01872 0.0
C203 C 0.55003 0.07198 0.01379 0.0
C204 C 0.51636 0.04062 0.99499 0.0
C205 C 0.55308 0.07939 0.94323 0.0
C206 C 0.53712 0.07831 0.92925 0.0
C207 C 0.54467 0.06451 0.9585 0.0
C208 C 0.5201 0.04851 0.96026 0.0
C209 C 0.51257 0.06193 0.93089 0.0
C210 C 0.50418 0.0471 0.9462 0.0
C211 C 0.51095 0.03256 0.9763 0.0
H212 H 0.48459 0.91872 0.98896 0.0
H213 H 0.50162 0.95988 0.9992 0.0
H214 H 0.43906 0.92761 0.94934 0.0
H215 H 0.4557 0.96879 0.96001 0.0
H216 H 0.43828 0.93573 0.03796 0.0
H217 H 0.45068 0.96159 0.01104 0.0
H218 H 0.5082 0.97909 0.06338 0.0
H219 H 0.52075 0.00453 0.03634 0.0
H220 H 0.54144 0.12105 0.99126 0.0
H221 H 0.51375 0.07945 0.98317 0.0
H222 H 0.57953 0.0997 0.02896 0.0
H223 H 0.55277 0.05847 0.02006 0.0
H224 H 0.57214 0.09145 0.9422 0.0
H225 H 0.55739 0.06541 0.9689 0.0
H226 H 0.49979 0.06075 0.92045 0.0
H227 H 0.48518 0.03471 0.94719 0.0
N228 N 0.49808 0.00884 0.97279 0.0
N229 N 0.50814 0.02433 0.00864 0.0
C230 C 0.48218 0.5843 0.16247 0.0
C231 C 0.46476 0.57617 0.17623 0.0
C232 C 0.49251 0.57086 0.1571 0.0
C233 C 0.48496 0.54855 0.16487 0.0
C234 C 0.4576 0.55422 0.18439 0.0
C235 C 0.46754 0.54047 0.17869 0.0
C236 C 0.4964 0.53447 0.1597 0.0
C237 C 0.46454 0.54231 0.10606 0.0
C238 C 0.48169 0.55631 0.09297 0.0
C239 C 0.47125 0.53458 0.12187 0.0
C240 C 0.49523 0.54076 0.12486 0.0
C241 C 0.50564 0.56232 0.09596 0.0
C242 C 0.5123 0.55444 0.11168 0.0
C243 C 0.50257 0.5323 0.14128 0.0
C244 C 0.54252 0.46666 0.14715 0.0
C245 C 0.5625 0.47875 0.13574 0.0
C246 C 0.52939 0.47734 0.1527 0.0
C247 C 0.53618 0.50039 0.1471 0.0
C248 C 0.56912 0.50177 0.13012 0.0
C249 C 0.55602 0.5124 0.13566 0.0
C250 C 0.52218 0.51184 0.15218 0.0
C251 C 0.55305 0.5025 0.20562 0.0
C252 C 0.53567 0.48746 0.21819 0.0
C253 C 0.54654 0.51092 0.19012 0.0
C254 C 0.52249 0.50428 0.18676 0.0
C255 C 0.51164 0.48109 0.21487 0.0
C256 C 0.50516 0.48954 0.19938 0.0
C257 C 0.5154 0.51329 0.17052 0.0
H258 H 0.48841 0.60146 0.15633 0.0
H259 H 0.5068 0.57824 0.14718 0.0
H260 H 0.44432 0.54773 0.19516 0.0
H261 H 0.46169 0.52356 0.18515 0.0
H262 H 0.44596 0.53748 0.10415 0.0
H263 H 0.45769 0.52364 0.13167 0.0
H264 H 0.51917 0.5728 0.08598 0.0
H265 H 0.53085 0.55921 0.11363 0.0
H266 H 0.53676 0.44878 0.15149 0.0
H267 H 0.51374 0.46746 0.1611 0.0
H268 H 0.58461 0.51171 0.12156 0.0
H269 H 0.56151 0.53016 0.1311 0.0
H270 H 0.57177 0.50819 0.20795 0.0
H271 H 0.56035 0.52284 0.18087 0.0
H272 H 0.49777 0.46938 0.22416 0.0
H273 H 0.48653 0.48434 0.19712 0.0
N274 N 0.50278 0.52456 0.17357 0.0
N275 N 0.51546 0.52137 0.13831 0.0
Mn276 Mn 0.61937 0.38708 0.40865 0.0
Mn277 Mn 0.64726 0.44563 0.41873 0.0
C278 C 0.60306 0.40159 0.42985 0.0
C279 C 0.6146 0.34981 0.41415 0.0
C280 C 0.61839 0.42379 0.38311 0.0
O281 O 0.65284 0.39915 0.39877 0.0
O282 O 0.67055 0.43735 0.40823 0.0
C283 C 0.67915 0.44713 0.44927 0.0
N284 N 0.66172 0.45142 0.44297 0.0
C285 C 0.65979 0.46744 0.47276 0.0
C286 C 0.67783 0.46334 0.47954 0.0
C287 C 0.6875 0.45309 0.46775 0.0
C288 C 0.6522 0.46115 0.45422 0.0
H289 H 0.68657 0.43919 0.44026 0.0
C290 C 0.67114 0.41982 0.40057 0.0
O291 O 0.60839 0.35469 0.39829 0.0
O292 O 0.6239 0.36669 0.42661 0.0
N293 N 0.62692 0.45613 0.42912 0.0
C294 C 0.60914 0.45824 0.42059 0.0
C295 C 0.59746 0.46805 0.43052 0.0
C296 C 0.6043 0.47572 0.44904 0.0
C297 C 0.62277 0.47353 0.45748 0.0
C298 C 0.63393 0.46386 0.44683 0.0
H299 H 0.60387 0.45249 0.40633 0.0
O300 O 0.58974 0.38111 0.42178 0.0
O301 O 0.62546 0.41274 0.42541 0.0
O302 O 0.61135 0.40224 0.38695 0.0
O303 O 0.63232 0.44122 0.39379 0.0
C304 C 0.63037 0.48033 0.47609 0.0
C305 C 0.64881 0.4772 0.48375 0.0
H306 H 0.68428 0.46784 0.4938 0.0
H307 H 0.70135 0.44976 0.4729 0.0
H308 H 0.58322 0.46968 0.42391 0.0
H309 H 0.5952 0.48321 0.45665 0.0
H310 H 0.62197 0.48772 0.4847 0.0
H311 H 0.65429 0.48222 0.49814 0.0
Mn312 Mn 0.24973 0.64424 0.57296 0.0
Mn313 Mn 0.21796 0.58529 0.56426 0.0
C314 C 0.21867 0.62899 0.55126 0.0
C315 C 0.28221 0.68166 0.56731 0.0
C316 C 0.21019 0.60846 0.59798 0.0
O317 O 0.27143 0.63298 0.58376 0.0
O318 O 0.24852 0.59395 0.57759 0.0
C319 C 0.25114 0.58243 0.53767 0.0
N320 N 0.22882 0.5782 0.54181 0.0
C321 C 0.21289 0.55807 0.51245 0.0
C322 C 0.23568 0.56209 0.5079 0.0
C323 C 0.25491 0.57444 0.52054 0.0
C324 C 0.21025 0.56657 0.52968 0.0
H325 H 0.26594 0.59179 0.54738 0.0
C326 C 0.26755 0.61183 0.58427 0.0
O327 O 0.27119 0.6769 0.58303 0.0
O328 O 0.27462 0.66456 0.55507 0.0
N329 N 0.18809 0.57397 0.55124 0.0
C330 C 0.16766 0.57301 0.5572 0.0
C331 C 0.14693 0.562 0.54586 0.0
C332 C 0.14731 0.55176 0.52868 0.0
C333 C 0.16848 0.55278 0.52293 0.0
C334 C 0.18862 0.56413 0.53475 0.0
H335 H 0.16728 0.58078 0.57041 0.0
O336 O 0.22586 0.64949 0.55916 0.0
O337 O 0.22991 0.61794 0.55621 0.0
O338 O 0.22672 0.62954 0.59468 0.0
O339 O 0.20514 0.59073 0.58733 0.0
C340 C 0.1705 0.54328 0.50582 0.0
C341 C 0.19273 0.54611 0.50051 0.0
H342 H 0.23864 0.55591 0.49471 0.0
H343 H 0.27257 0.57769 0.51711 0.0
H344 H 0.13069 0.56135 0.55037 0.0
H345 H 0.1313 0.54333 0.51996 0.0
H346 H 0.15513 0.53403 0.49652 0.0
H347 H 0.19415 0.53912 0.48716 0.0
Mn348 Mn 0.62033 0.25798 0.74025 0.0
Mn349 Mn 0.64853 0.22765 0.73024 0.0
C350 C 0.60292 0.22625 0.7195 0.0
C351 C 0.61505 0.29016 0.73431 0.0
C352 C 0.62259 0.22274 0.76642 0.0
O353 O 0.65438 0.2797 0.74987 0.0
O354 O 0.6725 0.26018 0.73902 0.0
C355 C 0.67627 0.25496 0.69797 0.0
N356 N 0.66008 0.23395 0.70543 0.0
C357 C 0.65519 0.21325 0.67637 0.0
C358 C 0.67201 0.23463 0.66844 0.0
C359 C 0.68254 0.25559 0.67928 0.0
C360 C 0.64969 0.21372 0.69508 0.0
H361 H 0.68426 0.27113 0.70621 0.0
C362 C 0.67301 0.27812 0.74696 0.0
O363 O 0.60985 0.27991 0.75034 0.0
O364 O 0.62353 0.28187 0.72195 0.0
N365 N 0.62747 0.19599 0.72134 0.0
C366 C 0.61077 0.17705 0.73084 0.0
C367 C 0.59822 0.1548 0.72187 0.0
C368 C 0.60307 0.1522 0.70329 0.0
C369 C 0.62046 0.17188 0.69384 0.0
C370 C 0.63255 0.19358 0.70355 0.0
H371 H 0.60701 0.17889 0.74514 0.0
O372 O 0.58995 0.23378 0.72742 0.0
O373 O 0.62558 0.23777 0.72377 0.0
O374 O 0.61401 0.23599 0.76214 0.0
O375 O 0.63656 0.21947 0.75589 0.0
C376 C 0.62606 0.1709 0.67511 0.0
C377 C 0.64334 0.19159 0.66636 0.0
H378 H 0.67682 0.23521 0.654 0.0
H379 H 0.6954 0.27219 0.67321 0.0
H380 H 0.58481 0.13969 0.72926 0.0
H381 H 0.59325 0.13503 0.6964 0.0
H382 H 0.61697 0.15439 0.66723 0.0
H383 H 0.64722 0.19068 0.65187 0.0
Mn384 Mn 0.39336 0.64607 0.90777 0.0
Mn385 Mn 0.36453 0.5874 0.91571 0.0
C386 C 0.40893 0.6309 0.92911 0.0
C387 C 0.39853 0.68347 0.91394 0.0
C388 C 0.39381 0.60935 0.88135 0.0
O389 O 0.36008 0.63459 0.89679 0.0
O390 O 0.34166 0.59628 0.90494 0.0
C391 C 0.33246 0.58577 0.94544 0.0
N392 N 0.34981 0.58137 0.93944 0.0
C393 C 0.35069 0.5641 0.96861 0.0
C394 C 0.33273 0.56833 0.97508 0.0
C395 C 0.32364 0.57928 0.96346 0.0
C396 C 0.35881 0.57101 0.95055 0.0
H397 H 0.32542 0.59418 0.93654 0.0
C398 C 0.34152 0.61409 0.8977 0.0
O399 O 0.40481 0.67847 0.89821 0.0
O400 O 0.3891 0.66669 0.92597 0.0
N401 N 0.38448 0.57641 0.92628 0.0
C402 C 0.40241 0.57445 0.9182 0.0
C403 C 0.4138 0.56432 0.92814 0.0
C404 C 0.40647 0.55609 0.94618 0.0
C405 C 0.38777 0.55801 0.95411 0.0
C406 C 0.37705 0.56822 0.94353 0.0
H407 H 0.40804 0.58063 0.9043 0.0
O408 O 0.42263 0.6514 0.92185 0.0
O409 O 0.3866 0.62012 0.92379 0.0
O410 O 0.40127 0.6309 0.88599 0.0
O411 O 0.37955 0.59188 0.89121 0.0
C412 C 0.3795 0.55043 0.97217 0.0
C413 C 0.36104 0.55356 0.97945 0.0
H414 H 0.3259 0.56337 0.98898 0.0
H415 H 0.30985 0.58269 0.96838 0.0
H416 H 0.42821 0.56287 0.92191 0.0
H417 H 0.41539 0.54841 0.95385 0.0
H418 H 0.38744 0.54247 0.98069 0.0
H419 H 0.3551 0.54799 0.99346 0.0
Mn420 Mn 0.76171 0.40103 0.0751 0.0
Mn421 Mn 0.79423 0.37462 0.08381 0.0
C422 C 0.79327 0.41805 0.09618 0.0
C423 C 0.7285 0.40486 0.08129 0.0
C424 C 0.79911 0.40228 0.04886 0.0
O425 O 0.7407 0.36766 0.06464 0.0
O426 O 0.7623 0.35081 0.07344 0.0
C427 C 0.76559 0.34347 0.11421 0.0
N428 N 0.7869 0.36091 0.10789 0.0
C429 C 0.80637 0.36419 0.13739 0.0
C430 C 0.78467 0.34615 0.14419 0.0
C431 C 0.76418 0.33578 0.13255 0.0
C432 C 0.8067 0.37107 0.11898 0.0
H433 H 0.74978 0.33552 0.10533 0.0
C434 C 0.74361 0.34977 0.06605 0.0
O435 O 0.73914 0.41103 0.06543 0.0
O436 O 0.73696 0.39617 0.09335 0.0
N437 N 0.82546 0.3956 0.09406 0.0
C438 C 0.84477 0.4134 0.0856 0.0
C439 C 0.86665 0.42584 0.09543 0.0
C440 C 0.86849 0.41975 0.1138 0.0
C441 C 0.84844 0.40124 0.12216 0.0
C442 C 0.82718 0.38931 0.11161 0.0
H443 H 0.84349 0.41813 0.07147 0.0
O444 O 0.78523 0.43076 0.08865 0.0
O445 O 0.78241 0.39581 0.0913 0.0
O446 O 0.78443 0.40914 0.05329 0.0
O447 O 0.8034 0.38878 0.05898 0.0
C448 C 0.84863 0.39436 0.14063 0.0
C449 C 0.82759 0.3759 0.14826 0.0
H450 H 0.78348 0.34024 0.15835 0.0
H451 H 0.74733 0.32193 0.13773 0.0
H452 H 0.88205 0.44011 0.08889 0.0
H453 H 0.88536 0.42949 0.12138 0.0
H454 H 0.86477 0.40336 0.14917 0.0
H455 H 0.82788 0.37098 0.16255 0.0
Mn456 Mn 0.38028 0.7759 0.24213 0.0
Mn457 Mn 0.43942 0.80684 0.25195 0.0
C458 C 0.39509 0.80703 0.26338 0.0
C459 C 0.34282 0.74338 0.24775 0.0
C460 C 0.41694 0.81199 0.21618 0.0
O461 O 0.3926 0.75483 0.23191 0.0
O462 O 0.43076 0.77459 0.24275 0.0
C463 C 0.44132 0.77931 0.28373 0.0
N464 N 0.44569 0.80033 0.27657 0.0
C465 C 0.46234 0.82064 0.30579 0.0
C466 C 0.45828 0.79927 0.3134 0.0
C467 C 0.44765 0.77851 0.30234 0.0
C468 C 0.45575 0.82038 0.28713 0.0
H469 H 0.43294 0.76328 0.27533 0.0
C470 C 0.41304 0.75666 0.23468 0.0
O471 O 0.34751 0.75407 0.23192 0.0
O472 O 0.36001 0.75134 0.2601 0.0
N473 N 0.45003 0.83823 0.26126 0.0
C474 C 0.45148 0.85709 0.25213 0.0
C475 C 0.46107 0.8791 0.26142 0.0
C476 C 0.46919 0.88153 0.27995 0.0
C477 C 0.46769 0.86192 0.28901 0.0
C478 C 0.45817 0.84049 0.27899 0.0
H479 H 0.44531 0.85537 0.23789 0.0
O480 O 0.37425 0.79943 0.25553 0.0
O481 O 0.40632 0.79595 0.25872 0.0
O482 O 0.39519 0.7985 0.22058 0.0
O483 O 0.43469 0.81529 0.22646 0.0
C484 C 0.47489 0.86271 0.30769 0.0
C485 C 0.47216 0.84207 0.31609 0.0
H486 H 0.463 0.79854 0.32778 0.0
H487 H 0.44426 0.7619 0.30816 0.0
H488 H 0.46214 0.89415 0.25434 0.0
H489 H 0.47639 0.89849 0.28711 0.0
H490 H 0.48221 0.87902 0.31581 0.0
H491 H 0.4774 0.84281 0.33055 0.0
C492 C 0.14782 0.60358 0.30993 0.0
C493 C 0.12811 0.59643 0.29776 0.0
C494 C 0.17116 0.61747 0.30359 0.0
C495 C 0.20464 0.65927 0.26673 0.0
H496 H 0.25638 0.64912 0.28256 0.0
C497 C 0.29991 0.71563 0.23878 0.0
C498 C 0.31867 0.72376 0.252 0.0
C499 C 0.27674 0.69823 0.24336 0.0
C500 C 0.24215 0.65229 0.27812 0.0
H501 H 0.11749 0.59733 0.26919 0.0
H502 H 0.1581 0.6216 0.25819 0.0
H503 H 0.21573 0.62228 0.29273 0.0
H504 H 0.328 0.71961 0.28023 0.0
H505 H 0.28762 0.68959 0.28828 0.0
H506 H 0.23099 0.68948 0.2524 0.0
C507 C 0.15554 0.61687 0.27271 0.0
C508 C 0.21888 0.63691 0.28395 0.0
C509 C 0.13226 0.60299 0.27903 0.0
C510 C 0.31393 0.7137 0.26971 0.0
C511 C 0.29079 0.69637 0.2743 0.0
C512 C 0.22788 0.67466 0.26094 0.0
C513 C 0.17524 0.62449 0.28495 0.0
C514 C 0.19989 0.64032 0.27839 0.0
C515 C 0.27184 0.68864 0.26127 0.0
C516 C 0.24695 0.67145 0.26665 0.0
H517 H 0.14521 0.59899 0.32448 0.0
H518 H 0.18596 0.62327 0.31341 0.0
H519 H 0.19047 0.6626 0.26243 0.0
H520 H 0.30303 0.72296 0.22498 0.0
H521 H 0.26261 0.69241 0.23291 0.0
C522 C 0.54784 0.14115 0.44427 0.0
C523 C 0.55037 0.13695 0.46306 0.0
C524 C 0.55703 0.16422 0.43797 0.0
C525 C 0.59975 0.22705 0.44967 0.0
H526 H 0.55814 0.23875 0.41767 0.0
C527 C 0.61596 0.32094 0.43601 0.0
C528 C 0.61036 0.32586 0.41827 0.0
C529 C 0.61058 0.29802 0.44043 0.0
C530 C 0.57018 0.23577 0.42634 0.0
H531 H 0.56504 0.15378 0.48989 0.0
H532 H 0.58117 0.19414 0.47887 0.0
H533 H 0.54535 0.19859 0.42742 0.0
H534 H 0.59539 0.31072 0.39107 0.0
H535 H 0.58627 0.2707 0.39871 0.0
H536 H 0.62451 0.2643 0.4487 0.0
C537 C 0.57221 0.17954 0.46898 0.0
C538 C 0.56282 0.21272 0.43195 0.0
C539 C 0.56297 0.15642 0.4753 0.0
C540 C 0.59982 0.30747 0.40489 0.0
C541 C 0.59447 0.28451 0.40931 0.0
C542 C 0.60716 0.25012 0.444 0.0
C543 C 0.56904 0.18368 0.45029 0.0
C544 C 0.57743 0.20811 0.4438 0.0
C545 C 0.59951 0.27945 0.42721 0.0
C546 C 0.59236 0.25478 0.43239 0.0
H547 H 0.53868 0.12657 0.43439 0.0
H548 H 0.55469 0.16683 0.42342 0.0
H549 H 0.61156 0.22402 0.45859 0.0
H550 H 0.62405 0.33471 0.44665 0.0
H551 H 0.61443 0.29473 0.45442 0.0
C552 C 0.40301 0.54248 0.63273 0.0
C553 C 0.4277 0.5588 0.63331 0.0
C554 C 0.38664 0.54975 0.62825 0.0
C555 C 0.37787 0.60113 0.62626 0.0
H556 H 0.32771 0.56162 0.59058 0.0
C557 C 0.30993 0.62616 0.59505 0.0
C558 C 0.28632 0.6075 0.59213 0.0
C559 C 0.32794 0.6215 0.60084 0.0
C560 C 0.3414 0.5727 0.60074 0.0
H561 H 0.45448 0.59576 0.63004 0.0
H562 H 0.42567 0.60853 0.62237 0.0
H563 H 0.35777 0.55125 0.59926 0.0
H564 H 0.26294 0.56948 0.59397 0.0
H565 H 0.29405 0.56151 0.6044 0.0
H566 H 0.36122 0.62246 0.62786 0.0
C567 C 0.41911 0.59008 0.62543 0.0
C568 C 0.35866 0.56678 0.60567 0.0
C569 C 0.43558 0.58277 0.62984 0.0
C570 C 0.28097 0.58426 0.59583 0.0
C571 C 0.29887 0.57965 0.60171 0.0
C572 C 0.36045 0.60702 0.62138 0.0
C573 C 0.3945 0.57355 0.62433 0.0
C574 C 0.37692 0.58074 0.61864 0.0
C575 C 0.32266 0.59812 0.6039 0.0
C576 C 0.34183 0.59268 0.60873 0.0
H577 H 0.39628 0.52401 0.63579 0.0
H578 H 0.36774 0.53669 0.62788 0.0
H579 H 0.3917 0.61216 0.63635 0.0
H580 H 0.31468 0.64427 0.59229 0.0
H581 H 0.34611 0.63612 0.60232 0.0
C582 C 0.87831 0.43797 0.77883 0.0
C583 C 0.88319 0.44631 0.79732 0.0
C584 C 0.85515 0.42083 0.77323 0.0
C585 C 0.7922 0.39562 0.78235 0.0
H586 H 0.78497 0.33671 0.76288 0.0
C587 C 0.69888 0.31356 0.76737 0.0
C588 C 0.69663 0.29823 0.75265 0.0
C589 C 0.72141 0.33219 0.77292 0.0
C590 C 0.78659 0.35315 0.76792 0.0
H591 H 0.8678 0.44409 0.82432 0.0
H592 H 0.82694 0.41453 0.81433 0.0
H593 H 0.82457 0.36903 0.77161 0.0
H594 H 0.71611 0.29087 0.73178 0.0
H595 H 0.75501 0.32386 0.74068 0.0
H596 H 0.75445 0.38029 0.77807 0.0
C597 C 0.84112 0.42109 0.80429 0.0
C598 C 0.80932 0.37159 0.77303 0.0
C599 C 0.8644 0.43786 0.80999 0.0
C600 C 0.71727 0.3022 0.74334 0.0
C601 C 0.73967 0.32108 0.74858 0.0
C602 C 0.76946 0.37734 0.77684 0.0
C603 C 0.83642 0.41215 0.78595 0.0
C604 C 0.8123 0.39293 0.78031 0.0
C605 C 0.74216 0.33619 0.7636 0.0
C606 C 0.76632 0.3558 0.76955 0.0
H607 H 0.89257 0.44413 0.76887 0.0
H608 H 0.85187 0.41418 0.75901 0.0
H609 H 0.79416 0.41202 0.78789 0.0
H610 H 0.68328 0.31085 0.77488 0.0
H611 H 0.72254 0.34314 0.78472 0.0
C612 C 0.44403 0.87683 0.97451 0.0
C613 C 0.45088 0.89521 0.96178 0.0
C614 C 0.43616 0.8537 0.96825 0.0
C615 C 0.44184 0.82052 0.92943 0.0
H616 H 0.38666 0.7668 0.95057 0.0
C617 C 0.41 0.72463 0.90447 0.0
C618 C 0.40236 0.70734 0.91822 0.0
C619 C 0.41417 0.74737 0.90876 0.0
C620 C 0.40227 0.78158 0.94465 0.0
H621 H 0.45477 0.90384 0.93255 0.0
H622 H 0.4411 0.86333 0.92159 0.0
H623 H 0.39713 0.80689 0.96011 0.0
H624 H 0.39305 0.70026 0.94723 0.0
H625 H 0.4009 0.73995 0.95483 0.0
H626 H 0.44754 0.79536 0.91442 0.0
C627 C 0.4418 0.86686 0.9364 0.0
C628 C 0.40818 0.80453 0.95008 0.0
C629 C 0.44943 0.88996 0.94266 0.0
C630 C 0.3988 0.71316 0.93629 0.0
C631 C 0.40315 0.73591 0.94062 0.0
C632 C 0.43607 0.79757 0.92412 0.0
C633 C 0.43521 0.84853 0.94914 0.0
C634 C 0.42814 0.82422 0.94264 0.0
C635 C 0.41096 0.75335 0.92693 0.0
C636 C 0.41633 0.77779 0.9318 0.0
H637 H 0.44484 0.88037 0.98932 0.0
H638 H 0.43137 0.83996 0.97839 0.0
H639 H 0.4575 0.83538 0.92363 0.0
H640 H 0.41277 0.72062 0.89039 0.0
H641 H 0.41982 0.76022 0.8978 0.0
C642 C 0.58494 0.47037 0.11142 0.0
C643 C 0.57649 0.46754 0.12967 0.0
C644 C 0.59917 0.46092 0.10592 0.0
C645 C 0.63973 0.44191 0.12528 0.0
H646 H 0.63413 0.415 0.07589 0.0
C647 C 0.69761 0.40196 0.10336 0.0
C648 C 0.70831 0.4085 0.0859 0.0
C649 C 0.6797 0.40687 0.10837 0.0
C650 C 0.63599 0.42261 0.08968 0.0
H651 H 0.57597 0.45214 0.15635 0.0
H652 H 0.60043 0.43521 0.14663 0.0
H653 H 0.60583 0.42743 0.08542 0.0
H654 H 0.70815 0.42471 0.05978 0.0
H655 H 0.67691 0.43346 0.0686 0.0
H656 H 0.66999 0.43733 0.1295 0.0
C657 C 0.59631 0.44504 0.13665 0.0
C658 C 0.6198 0.42973 0.09515 0.0
C659 C 0.58208 0.45452 0.14216 0.0
C660 C 0.70024 0.41945 0.07333 0.0
C661 C 0.68227 0.42435 0.07835 0.0
C662 C 0.65586 0.43476 0.11983 0.0
C663 C 0.60524 0.44836 0.11852 0.0
C664 C 0.62159 0.43962 0.11297 0.0
C665 C 0.67206 0.41843 0.09604 0.0
C666 C 0.65427 0.42516 0.10194 0.0
H667 H 0.58067 0.48001 0.10138 0.0
H668 H 0.60591 0.464 0.09191 0.0
H669 H 0.6419 0.44985 0.13898 0.0
H670 H 0.70333 0.39336 0.11332 0.0
H671 H 0.67192 0.40174 0.12198 0.0
C672 C 0.42913 0.89041 0.5385 0.0
C673 C 0.43189 0.89501 0.51938 0.0
C674 C 0.41493 0.86729 0.54471 0.0
C675 C 0.38879 0.80466 0.53066 0.0
H676 H 0.341 0.79356 0.56743 0.0
C677 C 0.3106 0.71117 0.54501 0.0
C678 C 0.30185 0.7057 0.56313 0.0
C679 C 0.32816 0.73418 0.54066 0.0
C680 C 0.35451 0.79632 0.55741 0.0
H681 H 0.42254 0.87899 0.49179 0.0
H682 H 0.39781 0.83854 0.50264 0.0
H683 H 0.36886 0.83388 0.5581 0.0
H684 H 0.30513 0.7199 0.59107 0.0
H685 H 0.33627 0.75997 0.58362 0.0
H686 H 0.37462 0.7672 0.52999 0.0
C687 C 0.40661 0.85283 0.51281 0.0
C688 C 0.37043 0.81946 0.55203 0.0
C689 C 0.42059 0.87597 0.5066 0.0
C690 C 0.31143 0.72361 0.57694 0.0
C691 C 0.32917 0.74662 0.57263 0.0
C692 C 0.37303 0.78154 0.53617 0.0
C693 C 0.40343 0.84827 0.53192 0.0
C694 C 0.38753 0.82384 0.53843 0.0
C695 C 0.33758 0.75227 0.55438 0.0
C696 C 0.35545 0.77702 0.54944 0.0
H697 H 0.43749 0.90477 0.54866 0.0
H698 H 0.41291 0.86428 0.55952 0.0
H699 H 0.40201 0.80755 0.52033 0.0
H700 H 0.3035 0.6978 0.53402 0.0
H701 H 0.33384 0.73788 0.52639 0.0
C702 C 0.5631 0.44462 0.70316 0.0
C703 C 0.56104 0.44703 0.68394 0.0
C704 C 0.57095 0.42954 0.70982 0.0
C705 C 0.60426 0.39961 0.69676 0.0
H706 H 0.56618 0.35397 0.73388 0.0
C707 C 0.61385 0.31835 0.71173 0.0
C708 C 0.61101 0.31001 0.72997 0.0
C709 C 0.60938 0.33656 0.70726 0.0
C710 C 0.5773 0.36685 0.72377 0.0
H711 H 0.56624 0.43617 0.65665 0.0
H712 H 0.58013 0.40996 0.66828 0.0
H713 H 0.55589 0.3835 0.72406 0.0
H714 H 0.60162 0.31451 0.75794 0.0
H715 H 0.5943 0.34678 0.75024 0.0
H716 H 0.62576 0.38316 0.69646 0.0
C717 C 0.57564 0.41968 0.67818 0.0
C718 C 0.57134 0.38373 0.71811 0.0
C719 C 0.56753 0.43453 0.67153 0.0
C720 C 0.60387 0.32051 0.74374 0.0
C721 C 0.59955 0.33891 0.73929 0.0
C722 C 0.61037 0.3829 0.70254 0.0
C723 C 0.57718 0.41683 0.69739 0.0
C724 C 0.58454 0.40005 0.70435 0.0
C725 C 0.60214 0.34709 0.72095 0.0
C726 C 0.59673 0.36603 0.71589 0.0
H727 H 0.55804 0.4539 0.71303 0.0
H728 H 0.57211 0.42778 0.72469 0.0
H729 H 0.61497 0.4122 0.68633 0.0
H730 H 0.61918 0.31055 0.70076 0.0
H731 H 0.6111 0.34202 0.69293 0.0
C732 C 0.14735 0.59286 0.8497 0.0
C733 C 0.13022 0.5688 0.84688 0.0
C734 C 0.17107 0.59968 0.85448 0.0
C735 C 0.20572 0.57617 0.87701 0.0
H736 H 0.26101 0.62669 0.85317 0.0
C737 C 0.29867 0.58758 0.88826 0.0
C738 C 0.31834 0.61059 0.89053 0.0
C739 C 0.27641 0.58402 0.88248 0.0
C740 C 0.24576 0.61275 0.86013 0.0
H741 H 0.12497 0.53323 0.84571 0.0
H742 H 0.16602 0.54507 0.85433 0.0
H743 H 0.22074 0.61803 0.84388 0.0
H744 H 0.33005 0.64796 0.88811 0.0
H745 H 0.2909 0.64169 0.87828 0.0
H746 H 0.23038 0.57087 0.89337 0.0
C747 C 0.16105 0.55862 0.85318 0.0
C748 C 0.22274 0.6078 0.85479 0.0
C749 C 0.13751 0.55185 0.8483 0.0
C750 C 0.31529 0.62999 0.88647 0.0
C751 C 0.29287 0.62641 0.88078 0.0
C752 C 0.22861 0.5812 0.88242 0.0
C753 C 0.17799 0.58254 0.85661 0.0
C754 C 0.20251 0.58916 0.86296 0.0
C755 C 0.2731 0.60336 0.87896 0.0
C756 C 0.24891 0.59924 0.87382 0.0
H757 H 0.14229 0.60635 0.84878 0.0
H758 H 0.1838 0.61825 0.85709 0.0
H759 H 0.19046 0.56203 0.88382 0.0
H760 H 0.30039 0.5722 0.89104 0.0
H761 H 0.26174 0.56602 0.88078 0.0
C762 C 0.57316 0.15578 0.01751 0.0
C763 C 0.58051 0.13895 0.0151 0.0
C764 C 0.58979 0.17923 0.02258 0.0
C765 C 0.64797 0.21414 0.04623 0.0
H766 H 0.65152 0.26818 0.02127 0.0
C767 C 0.72831 0.30716 0.05781 0.0
C768 C 0.72423 0.32636 0.05925 0.0
C769 C 0.70995 0.28481 0.05217 0.0
C770 C 0.65054 0.25328 0.02855 0.0
H771 H 0.61132 0.13392 0.01519 0.0
H772 H 0.64007 0.17452 0.02434 0.0
H773 H 0.62051 0.22809 0.01192 0.0
H774 H 0.69759 0.33709 0.05562 0.0
H775 H 0.66535 0.29784 0.04605 0.0
H776 H 0.67768 0.23902 0.06297 0.0
C777 C 0.62142 0.16952 0.0226 0.0
C778 C 0.63282 0.23036 0.02317 0.0
C779 C 0.60491 0.14623 0.01741 0.0
C780 C 0.70138 0.32271 0.05461 0.0
C781 C 0.68291 0.30023 0.04906 0.0
C782 C 0.6655 0.23695 0.05169 0.0
C783 C 0.61402 0.18619 0.02544 0.0
C784 C 0.63165 0.21058 0.03177 0.0
C785 C 0.68693 0.28096 0.04796 0.0
C786 C 0.66729 0.25681 0.04272 0.0
H787 H 0.55449 0.15073 0.01596 0.0
H788 H 0.58362 0.19174 0.02475 0.0
H789 H 0.64717 0.19921 0.05335 0.0
H790 H 0.74573 0.30934 0.06108 0.0
H791 H 0.71385 0.27051 0.05105 0.0
C792 C 0.4452 0.60028 0.16998 0.0
C793 C 0.45526 0.59137 0.18271 0.0
C794 C 0.43817 0.61634 0.17589 0.0
C795 C 0.45533 0.66429 0.2079 0.0
H796 H 0.39143 0.65521 0.20253 0.0
C797 C 0.43337 0.73286 0.23802 0.0
C798 C 0.41647 0.7368 0.22874 0.0
C799 C 0.43673 0.71413 0.23264 0.0
C800 C 0.40948 0.65827 0.20385 0.0
H801 H 0.46566 0.59188 0.21151 0.0
H802 H 0.45404 0.62064 0.22175 0.0
H803 H 0.39924 0.62383 0.19243 0.0
H804 H 0.38991 0.72432 0.20642 0.0
H805 H 0.39661 0.69234 0.19631 0.0
H806 H 0.46617 0.69895 0.21836 0.0
C807 C 0.45125 0.61485 0.20731 0.0
C808 C 0.41383 0.64018 0.19821 0.0
C809 C 0.45777 0.5984 0.20149 0.0
C810 C 0.40299 0.72162 0.2139 0.0
C811 C 0.40674 0.70316 0.2082 0.0
C812 C 0.45116 0.68254 0.21315 0.0
C813 C 0.44162 0.6241 0.19452 0.0
C814 C 0.43674 0.64302 0.20037 0.0
C815 C 0.42371 0.69917 0.2175 0.0
C816 C 0.42812 0.67975 0.2114 0.0
H817 H 0.44312 0.59507 0.15542 0.0
H818 H 0.43089 0.62339 0.1658 0.0
H819 H 0.47324 0.66695 0.20942 0.0
H820 H 0.44384 0.74406 0.24967 0.0
H821 H 0.44945 0.71134 0.24053 0.0
C822 C 0.86619 0.45031 0.34873 0.0
C823 C 0.8827 0.47471 0.3481 0.0
C824 C 0.84241 0.44226 0.35356 0.0
C825 C 0.79826 0.46259 0.35565 0.0
H826 H 0.76414 0.41027 0.38902 0.0
C827 C 0.71391 0.44725 0.39274 0.0
C828 C 0.69443 0.42403 0.39353 0.0
C829 C 0.73591 0.45153 0.38614 0.0
C830 C 0.77336 0.4247 0.37948 0.0
H831 H 0.88756 0.50973 0.35293 0.0
H832 H 0.84637 0.49578 0.36144 0.0
H833 H 0.80471 0.42126 0.37968 0.0
H834 H 0.683 0.38702 0.38814 0.0
H835 H 0.72172 0.39461 0.37666 0.0
H836 H 0.76723 0.46639 0.35573 0.0
C837 C 0.8515 0.48282 0.35771 0.0
C838 C 0.79656 0.43099 0.37414 0.0
C839 C 0.87513 0.49083 0.35287 0.0
C840 C 0.69759 0.40513 0.38765 0.0
C841 C 0.71977 0.40944 0.38117 0.0
C842 C 0.7752 0.45638 0.36104 0.0
C843 C 0.83475 0.45847 0.35788 0.0
C844 C 0.80944 0.45033 0.36245 0.0
C845 C 0.7391 0.43271 0.38025 0.0
C846 C 0.76267 0.43768 0.37329 0.0
H847 H 0.87151 0.43748 0.34504 0.0
H848 H 0.82992 0.42338 0.35349 0.0
H849 H 0.80744 0.47718 0.34625 0.0
H850 H 0.71222 0.46226 0.39716 0.0
H851 H 0.75058 0.46963 0.38586 0.0
C852 C 0.09964 0.5585 0.40744 0.0
C853 C 0.08281 0.56575 0.40431 0.0
C854 C 0.11416 0.56599 0.42345 0.0
C855 C 0.13486 0.61024 0.46268 0.0
H856 H 0.15329 0.56743 0.48426 0.0
C857 C 0.18201 0.62412 0.53509 0.0
C858 C 0.20245 0.62174 0.53495 0.0
C859 C 0.16705 0.61787 0.51932 0.0
C860 C 0.14829 0.57953 0.47837 0.0
H861 H 0.06766 0.58625 0.41537 0.0
H862 H 0.09224 0.59858 0.44379 0.0
H863 H 0.12729 0.55488 0.45683 0.0
H864 H 0.22469 0.61336 0.51788 0.0
H865 H 0.19804 0.60147 0.49051 0.0
H866 H 0.15541 0.63449 0.48488 0.0
C867 C 0.09489 0.58775 0.43367 0.0
C868 C 0.13354 0.57248 0.46252 0.0
C869 C 0.08069 0.5806 0.41745 0.0
C870 C 0.20838 0.61421 0.51856 0.0
C871 C 0.1933 0.60765 0.5029 0.0
C872 C 0.14926 0.61708 0.47881 0.0
C873 C 0.11182 0.58051 0.43691 0.0
C874 C 0.12686 0.58784 0.45427 0.0
C875 C 0.17243 0.60929 0.50318 0.0
C876 C 0.15632 0.60186 0.48664 0.0
H877 H 0.10177 0.54726 0.39736 0.0
H878 H 0.12736 0.56051 0.42514 0.0
H879 H 0.13044 0.62273 0.45664 0.0
H880 H 0.17747 0.63049 0.54748 0.0
H881 H 0.15109 0.61936 0.51982 0.0
C882 C 0.52564 0.08181 0.58992 0.0
C883 C 0.53263 0.09233 0.57249 0.0
C884 C 0.5318 0.09582 0.60611 0.0
C885 C 0.55414 0.1581 0.6224 0.0
H886 H 0.56831 0.13581 0.66792 0.0
C887 C 0.60371 0.21833 0.68588 0.0
C888 C 0.59343 0.21023 0.70325 0.0
C889 C 0.59472 0.20359 0.67016 0.0
C890 C 0.56421 0.14213 0.65533 0.0
H891 H 0.55186 0.12557 0.55821 0.0
H892 H 0.56359 0.15009 0.58643 0.0
H893 H 0.55665 0.11093 0.63989 0.0
H894 H 0.56504 0.18118 0.71791 0.0
H895 H 0.54961 0.1548 0.69032 0.0
H896 H 0.56286 0.18979 0.63781 0.0
C897 C 0.55262 0.13109 0.58771 0.0
C898 C 0.55741 0.12786 0.63925 0.0
C899 C 0.54606 0.11708 0.57151 0.0
C900 C 0.57346 0.1875 0.70464 0.0
C901 C 0.56471 0.17252 0.68894 0.0
C902 C 0.5614 0.17252 0.63838 0.0
C903 C 0.54547 0.12068 0.60525 0.0
C904 C 0.55233 0.13567 0.62252 0.0
C905 C 0.57533 0.18046 0.67158 0.0
C906 C 0.56657 0.16469 0.65495 0.0
H907 H 0.51505 0.06274 0.59099 0.0
H908 H 0.52554 0.08711 0.61926 0.0
H909 H 0.54985 0.16456 0.60998 0.0
H910 H 0.61881 0.23606 0.6845 0.0
H911 H 0.60326 0.21009 0.65695 0.0
C912 C 0.47876 0.57711 0.73896 0.0
C913 C 0.4671 0.55314 0.73336 0.0
C914 C 0.4709 0.58439 0.75437 0.0
C915 C 0.41825 0.56516 0.78436 0.0
H916 H 0.46443 0.6117 0.81932 0.0
C917 C 0.3924 0.58065 0.85724 0.0
C918 C 0.40218 0.60416 0.86375 0.0
C919 C 0.40029 0.57557 0.84078 0.0
C920 C 0.45132 0.5989 0.80956 0.0
H921 H 0.43839 0.51796 0.73975 0.0
H922 H 0.42484 0.53057 0.7667 0.0
H923 H 0.47837 0.60061 0.79165 0.0
H924 H 0.42806 0.64077 0.85795 0.0
H925 H 0.44187 0.63179 0.82917 0.0
H926 H 0.39123 0.56315 0.80244 0.0
C927 C 0.43971 0.54386 0.75897 0.0
C928 C 0.4593 0.59256 0.7937 0.0
C929 C 0.44751 0.53661 0.74354 0.0
C930 C 0.4201 0.62247 0.85335 0.0
C931 C 0.42812 0.61734 0.83692 0.0
C932 C 0.4103 0.57142 0.80024 0.0
C933 C 0.45126 0.56785 0.76455 0.0
C934 C 0.44285 0.57543 0.781 0.0
C935 C 0.41825 0.59383 0.83045 0.0
C936 C 0.42675 0.58817 0.81311 0.0
H937 H 0.49374 0.5903 0.73125 0.0
H938 H 0.48001 0.60304 0.75814 0.0
H939 H 0.40508 0.55229 0.77468 0.0
H940 H 0.37861 0.56607 0.86485 0.0
H941 H 0.39257 0.55725 0.83628 0.0
C942 C 0.91707 0.49346 0.90959 0.0
C943 C 0.92779 0.481 0.90223 0.0
C944 C 0.90224 0.48492 0.92498 0.0
C945 C 0.89091 0.44731 0.96542 0.0
H946 H 0.82974 0.44498 0.96697 0.0
C947 C 0.82523 0.40036 0.02425 0.0
C948 C 0.8124 0.41079 0.03134 0.0
C949 C 0.83853 0.40884 0.00814 0.0
C950 C 0.84691 0.4458 0.96688 0.0
H951 H 0.93047 0.44928 0.90492 0.0
H952 H 0.90507 0.43474 0.93194 0.0
H953 H 0.85454 0.46032 0.93954 0.0
H954 H 0.8034 0.4383 0.0269 0.0
H955 H 0.82708 0.45347 0.99902 0.0
H956 H 0.88369 0.43327 0.99276 0.0
C957 C 0.90838 0.45124 0.92592 0.0
C958 C 0.86107 0.45454 0.95114 0.0
C959 C 0.92301 0.45965 0.91047 0.0
C960 C 0.81297 0.42976 0.02178 0.0
C961 C 0.82648 0.4384 0.00573 0.0
C962 C 0.8769 0.4388 0.98118 0.0
C963 C 0.89798 0.46386 0.93342 0.0
C964 C 0.88312 0.45519 0.95021 0.0
C965 C 0.83958 0.42815 0.99879 0.0
C966 C 0.85462 0.43773 0.98207 0.0
H967 H 0.92056 0.51009 0.90373 0.0
H968 H 0.8946 0.4951 0.93058 0.0
H969 H 0.90802 0.44799 0.96522 0.0
H970 H 0.82503 0.38557 0.03113 0.0
H971 H 0.84795 0.40016 0.003 0.0
C972 C 0.45297 0.91514 0.06702 0.0
C973 C 0.46491 0.9399 0.06919 0.0
C974 C 0.44713 0.90068 0.08256 0.0
C975 C 0.46362 0.90279 0.13245 0.0
H976 H 0.40478 0.84231 0.13366 0.0
C977 C 0.44532 0.83752 0.19175 0.0
C978 C 0.42193 0.82511 0.19854 0.0
C979 C 0.4502 0.85063 0.17552 0.0
C980 C 0.42121 0.85924 0.13363 0.0
H981 H 0.47923 0.96891 0.08932 0.0
H982 H 0.46861 0.94378 0.11642 0.0
H983 H 0.41324 0.86728 0.10663 0.0
H984 H 0.38528 0.81673 0.19343 0.0
H985 H 0.39389 0.84 0.16542 0.0
H986 H 0.47122 0.89521 0.15967 0.0
C987 C 0.46436 0.93546 0.10274 0.0
C988 C 0.42621 0.87344 0.118 0.0
C989 C 0.47037 0.94989 0.08722 0.0
C990 C 0.4035 0.82594 0.18857 0.0
C991 C 0.40842 0.83922 0.17242 0.0
C992 C 0.45855 0.88869 0.1481 0.0
C993 C 0.45292 0.91068 0.10063 0.0
C994 C 0.44748 0.89543 0.11722 0.0
C995 C 0.43187 0.85187 0.16574 0.0
C996 C 0.43729 0.86671 0.14891 0.0
H997 H 0.44875 0.90697 0.05328 0.0
H998 H 0.4386 0.88171 0.08037 0.0
H999 H 0.48035 0.91943 0.13226 0.0
H1000 H 0.45995 0.83716 0.19897 0.0
H1001 H 0.4684 0.85976 0.17062 0.0
C1002 C 0.5322 0.47771 0.25213 0.0
C1003 C 0.54269 0.47886 0.23487 0.0
C1004 C 0.5393 0.47033 0.26793 0.0
C1005 C 0.57069 0.43867 0.28332 0.0
H1006 H 0.57894 0.47327 0.32952 0.0
C1007 C 0.59312 0.41075 0.35371 0.0
C1008 C 0.60964 0.42906 0.36562 0.0
C1009 C 0.58442 0.41594 0.33758 0.0
C1010 C 0.57689 0.46351 0.31671 0.0
H1011 H 0.56846 0.47252 0.22064 0.0
H1012 H 0.58126 0.46021 0.24829 0.0
H1013 H 0.56489 0.4839 0.30173 0.0
H1014 H 0.63021 0.46727 0.36959 0.0
H1015 H 0.61534 0.4762 0.34148 0.0
H1016 H 0.58335 0.41872 0.29826 0.0
C1017 C 0.56735 0.46477 0.24957 0.0
C1018 C 0.56852 0.46941 0.30081 0.0
C1019 C 0.56023 0.47213 0.23376 0.0
C1020 C 0.61743 0.45266 0.36085 0.0
C1021 C 0.60877 0.45781 0.34476 0.0
C1022 C 0.57909 0.43277 0.29925 0.0
C1023 C 0.5571 0.46395 0.26689 0.0
C1024 C 0.56541 0.45714 0.28389 0.0
C1025 C 0.59202 0.43955 0.33299 0.0
C1026 C 0.58244 0.44524 0.31611 0.0
H1027 H 0.51882 0.48297 0.25354 0.0
H1028 H 0.5308 0.46962 0.28098 0.0
H1029 H 0.56826 0.42869 0.27056 0.0
H1030 H 0.58667 0.39238 0.35694 0.0
H1031 H 0.57137 0.40144 0.3289 0.0
C1032 C 0.45186 0.91575 0.41194 0.0
C1033 C 0.45817 0.9397 0.41117 0.0
C1034 C 0.44505 0.90162 0.39579 0.0
C1035 C 0.44758 0.90493 0.34428 0.0
H1036 H 0.39609 0.83977 0.34673 0.0
C1037 C 0.40398 0.84497 0.279 0.0
C1038 C 0.40202 0.82262 0.27986 0.0
C1039 C 0.41049 0.85952 0.29493 0.0
C1040 C 0.41058 0.8579 0.34587 0.0
H1041 H 0.46271 0.96766 0.39266 0.0
H1042 H 0.44999 0.94286 0.36467 0.0
H1043 H 0.40853 0.86478 0.3747 0.0
H1044 H 0.40318 0.7969 0.29795 0.0
H1045 H 0.41439 0.82219 0.32585 0.0
H1046 H 0.44927 0.89797 0.31532 0.0
C1047 C 0.45065 0.93504 0.37771 0.0
C1048 C 0.41781 0.87222 0.36191 0.0
C1049 C 0.45762 0.9492 0.39383 0.0
C1050 C 0.40526 0.8144 0.29696 0.0
C1051 C 0.41142 0.82875 0.3129 0.0
C1052 C 0.44018 0.89064 0.3282 0.0
C1053 C 0.44423 0.91105 0.37848 0.0
C1054 C 0.43648 0.89588 0.36135 0.0
C1055 C 0.41437 0.85156 0.31201 0.0
C1056 C 0.4217 0.86697 0.32888 0.0
H1057 H 0.45186 0.90777 0.42507 0.0
H1058 H 0.44056 0.88331 0.39689 0.0
H1059 H 0.46226 0.92294 0.34338 0.0
H1060 H 0.40099 0.85133 0.26597 0.0
H1061 H 0.41235 0.87692 0.29393 0.0
C1062 C 0.52649 0.44519 0.57104 0.0
C1063 C 0.53881 0.4694 0.57587 0.0
C1064 C 0.5326 0.43703 0.55516 0.0
C1065 C 0.55945 0.45538 0.50965 0.0
H1066 H 0.57102 0.4026 0.51293 0.0
C1067 C 0.60602 0.41147 0.46346 0.0
C1068 C 0.59433 0.4083 0.44624 0.0
C1069 C 0.59785 0.4176 0.47926 0.0
C1070 C 0.5678 0.41733 0.51182 0.0
H1071 H 0.56694 0.5041 0.56786 0.0
H1072 H 0.57744 0.48984 0.53988 0.0
H1073 H 0.55978 0.41641 0.54072 0.0
H1074 H 0.56418 0.40736 0.43198 0.0
H1075 H 0.55009 0.4188 0.45968 0.0
H1076 H 0.56733 0.45621 0.48073 0.0
C1077 C 0.56315 0.47721 0.54845 0.0
C1078 C 0.56126 0.42513 0.52767 0.0
C1079 C 0.55729 0.48533 0.56449 0.0
C1080 C 0.57371 0.41027 0.44512 0.0
C1081 C 0.56573 0.41681 0.46089 0.0
C1082 C 0.5656 0.44732 0.49373 0.0
C1083 C 0.55089 0.45298 0.54367 0.0
C1084 C 0.55723 0.44436 0.52676 0.0
C1085 C 0.57784 0.42067 0.47808 0.0
C1086 C 0.57006 0.42837 0.49471 0.0
H1087 H 0.51225 0.43254 0.57964 0.0
H1088 H 0.52281 0.41827 0.55172 0.0
H1089 H 0.55627 0.47014 0.50856 0.0
H1090 H 0.62162 0.40939 0.46465 0.0
H1091 H 0.60757 0.42055 0.49231 0.0
C1092 C 0.07238 0.54877 0.72765 0.0
C1093 C 0.08254 0.55622 0.74553 0.0
C1094 C 0.08696 0.55508 0.71211 0.0
C1095 C 0.14307 0.59954 0.69363 0.0
H1096 H 0.13835 0.5495 0.6612 0.0
C1097 C 0.20539 0.61897 0.63075 0.0
C1098 C 0.19598 0.60401 0.615 0.0
C1099 C 0.19223 0.61377 0.64709 0.0
C1100 C 0.13966 0.56378 0.66985 0.0
H1101 H 0.11568 0.57638 0.76129 0.0
H1102 H 0.14125 0.58808 0.73391 0.0
H1103 H 0.11376 0.53944 0.68869 0.0
H1104 H 0.16502 0.57234 0.60383 0.0
H1105 H 0.1417 0.56403 0.6317 0.0
H1106 H 0.16816 0.62399 0.6745 0.0
C1107 C 0.12205 0.57714 0.73202 0.0
C1108 C 0.12567 0.55794 0.68569 0.0
C1109 C 0.10749 0.57038 0.74762 0.0
C1110 C 0.17292 0.58414 0.61576 0.0
C1111 C 0.1596 0.57923 0.6319 0.0
C1112 C 0.15674 0.60545 0.67755 0.0
C1113 C 0.11189 0.56936 0.71417 0.0
C1114 C 0.1272 0.57574 0.69767 0.0
C1115 C 0.16917 0.59371 0.64792 0.0
C1116 C 0.15513 0.58763 0.66536 0.0
H1117 H 0.05318 0.53777 0.72573 0.0
H1118 H 0.07875 0.54896 0.69845 0.0
H1119 H 0.14442 0.61356 0.70267 0.0
H1120 H 0.2232 0.63434 0.63062 0.0
H1121 H 0.2004 0.62521 0.65916 0.0
C1122 C 0.5369 0.08504 0.89495 0.0
C1123 C 0.54609 0.09395 0.91289 0.0
C1124 C 0.54553 0.09962 0.87953 0.0
C1125 C 0.57715 0.12995 0.84859 0.0
H1126 H 0.59025 0.19479 0.85116 0.0
C1127 C 0.62449 0.19503 0.78945 0.0
C1128 C 0.61534 0.20971 0.78415 0.0
C1129 C 0.61678 0.18177 0.80561 0.0
C1130 C 0.58655 0.17668 0.85018 0.0
H1131 H 0.57131 0.12531 0.92868 0.0
H1132 H 0.58666 0.15066 0.90171 0.0
H1133 H 0.57464 0.1697 0.87827 0.0
H1134 H 0.59109 0.22218 0.79203 0.0
H1135 H 0.57749 0.19884 0.8201 0.0
H1136 H 0.58854 0.13669 0.82042 0.0
C1137 C 0.57263 0.13244 0.8996 0.0
C1138 C 0.57785 0.16238 0.86578 0.0
C1139 C 0.56402 0.11783 0.91504 0.0
C1140 C 0.59859 0.21112 0.79566 0.0
C1141 C 0.59086 0.19781 0.81183 0.0
C1142 C 0.58586 0.14423 0.83302 0.0
C1143 C 0.56355 0.12347 0.88165 0.0
C1144 C 0.57298 0.13882 0.86515 0.0
C1145 C 0.59968 0.18279 0.81689 0.0
C1146 C 0.59066 0.16777 0.83361 0.0
H1147 H 0.52325 0.06668 0.89278 0.0
H1148 H 0.53794 0.09221 0.86593 0.0
H1149 H 0.57386 0.11198 0.84768 0.0
H1150 H 0.63749 0.19355 0.78102 0.0
H1151 H 0.62425 0.17069 0.80926 0.0
C1152 C 0.45408 0.54862 0.0657 0.0
C1153 C 0.4746 0.56438 0.07611 0.0
C1154 C 0.44754 0.55614 0.04969 0.0
C1155 C 0.47134 0.60347 0.01462 0.0
H1156 H 0.40408 0.58042 0.00463 0.0
C1157 C 0.43763 0.62165 0.94524 0.0
C1158 C 0.41714 0.62383 0.94566 0.0
C1159 C 0.44515 0.61484 0.96117 0.0
C1160 C 0.42297 0.5872 0.00718 0.0
H1161 H 0.5042 0.60045 0.0781 0.0
H1162 H 0.49259 0.61374 0.05035 0.0
H1163 H 0.41606 0.56786 0.0323 0.0
H1164 H 0.38967 0.62297 0.9631 0.0
H1165 H 0.40316 0.61203 0.99108 0.0
H1166 H 0.4783 0.62347 0.98981 0.0
C1167 C 0.48181 0.59542 0.05428 0.0
C1168 C 0.42983 0.57973 0.02301 0.0
C1169 C 0.48844 0.58784 0.07022 0.0
C1170 C 0.40509 0.62057 0.96239 0.0
C1171 C 0.41281 0.61422 0.97837 0.0
C1172 C 0.46448 0.61105 0.99879 0.0
C1173 C 0.46129 0.57965 0.04381 0.0
C1174 C 0.45409 0.58771 0.02692 0.0
C1175 C 0.43271 0.61086 0.97793 0.0
C1176 C 0.44017 0.60296 0.99482 0.0
H1177 H 0.44328 0.53034 0.06975 0.0
H1178 H 0.43187 0.5434 0.0418 0.0
H1179 H 0.49019 0.60982 0.0171 0.0
H1180 H 0.44737 0.62451 0.93248 0.0
H1181 H 0.46038 0.61222 0.96018 0.0
C1182 C 0.93832 0.49994 0.22588 0.0
C1183 C 0.92887 0.48974 0.24309 0.0
C1184 C 0.92381 0.49298 0.20986 0.0
C1185 C 0.8601 0.46268 0.19442 0.0
H1186 H 0.88573 0.45737 0.14728 0.0
C1187 C 0.80128 0.4158 0.12959 0.0
C1188 C 0.80915 0.42721 0.11259 0.0
C1189 C 0.81591 0.4245 0.14547 0.0
C1190 C 0.87843 0.459 0.16032 0.0
H1191 H 0.89662 0.4642 0.25689 0.0
H1192 H 0.8716 0.45137 0.22887 0.0
H1193 H 0.91128 0.46975 0.17515 0.0
H1194 H 0.83748 0.45732 0.09881 0.0
H1195 H 0.8636 0.47242 0.12664 0.0
H1196 H 0.82706 0.45128 0.17958 0.0
C1197 C 0.89013 0.46514 0.2278 0.0
C1198 C 0.89305 0.46615 0.17629 0.0
C1199 C 0.90459 0.47226 0.24385 0.0
C1200 C 0.8314 0.44802 0.11177 0.0
C1201 C 0.84625 0.45657 0.12762 0.0
C1202 C 0.84544 0.45529 0.17849 0.0
C1203 C 0.89953 0.47548 0.21061 0.0
C1204 C 0.88406 0.46805 0.19356 0.0
C1205 C 0.83866 0.44479 0.14458 0.0
C1206 C 0.85445 0.45335 0.16131 0.0
H1207 H 0.95702 0.51321 0.2247 0.0
H1208 H 0.93162 0.50153 0.19692 0.0
H1209 H 0.85269 0.4644 0.20738 0.0
H1210 H 0.78383 0.40006 0.13056 0.0
H1211 H 0.80965 0.41504 0.15834 0.0
loop_
_geom_bond_atom_site_label_1
_geom_bond_atom_site_label_2
_geom_bond_distance
_geom_bond_site_symmetry_2
_ccdc_geom_bond_type
C0 C1 1.384 . S
C0 C2 1.384 . S
C0 H28 0.931 . S
C1 C0 1.384 . S
C1 C4 1.382 . S
C2 C0 1.384 . S
C2 C3 1.381 . S
C2 H29 0.930 . S
C3 C2 1.381 . S
C3 C5 1.381 . S
C3 C6 1.487 . S
C4 C1 1.382 . S
C4 C5 1.387 . S
C4 H30 0.930 . S
C5 C3 1.381 . S
C5 C4 1.387 . S
C5 H31 0.931 . S
C6 C3 1.487 . S
C6 C13 1.399 . S
C6 N44 1.343 . S
C7 C8 1.384 . S
C7 C9 1.384 . S
C7 H32 0.931 . S
C8 C7 1.384 . S
C8 C11 1.382 . S
C9 C7 1.384 . S
C9 C10 1.381 . S
C9 H33 0.930 . S
C10 C9 1.381 . S
C10 C12 1.381 . S
C10 C13 1.487 . S
C11 C8 1.382 . S
C11 C12 1.387 . S
C11 H34 0.930 . S
C12 C10 1.381 . S
C12 C11 1.387 . S
C12 H35 0.931 . S
C13 C6 1.399 . S
C13 C10 1.487 . S
C13 N45 1.343 1_655 S
C14 C15 1.384 . S
C14 C16 1.384 . S
C14 H36 0.931 . S
C15 C14 1.384 . S
C15 C18 1.382 . S
C16 C14 1.384 . S
C16 C17 1.381 . S
C16 H37 0.930 . S
C17 C16 1.381 . S
C17 C19 1.381 . S
C17 C20 1.487 . S
C18 C15 1.382 . S
C18 C19 1.387 . S
C18 H38 0.930 . S
C19 C17 1.381 . S
C19 C18 1.387 . S
C19 H39 0.931 . S
C20 C17 1.487 . S
C20 C27 1.399 . S
C20 N45 1.343 . S
C21 C22 1.384 . S
C21 C23 1.384 . S
C21 H40 0.931 . S
C22 C21 1.384 . S
C22 C25 1.382 . S
C23 C21 1.384 . S
C23 C24 1.381 . S
C23 H41 0.930 . S
C24 C23 1.381 . S
C24 C26 1.381 . S
C24 C27 1.487 . S
C25 C22 1.382 . S
C25 C26 1.387 . S
C25 H42 0.930 . S
C26 C24 1.381 . S
C26 C25 1.387 . S
C26 H43 0.931 . S
C27 C20 1.399 . S
C27 C24 1.487 . S
C27 N44 1.343 1_455 S
H28 C0 0.931 . S
H29 C2 0.930 . S
H30 C4 0.930 . S
H31 C5 0.931 . S
H32 C7 0.931 . S
H33 C9 0.930 . S
H34 C11 0.930 . S
H35 C12 0.931 . S
H36 C14 0.931 . S
H37 C16 0.930 . S
H38 C18 0.930 . S
H39 C19 0.931 . S
H40 C21 0.931 . S
H41 C23 0.930 . S
H42 C25 0.930 . S
H43 C26 0.931 . S
N44 C6 1.343 . S
N44 C27 1.343 1_655 S
N45 C13 1.343 1_455 S
N45 C20 1.343 . S
C46 C47 1.384 . S
C46 C48 1.384 . S
C46 H74 0.931 . S
C47 C46 1.384 . S
C47 C50 1.382 . S
C48 C46 1.384 . S
C48 C49 1.381 . S
C48 H75 0.930 . S
C49 C48 1.381 . S
C49 C51 1.381 . S
C49 C52 1.487 . S
C50 C47 1.382 . S
C50 C51 1.387 . S
C50 H76 0.930 . S
C51 C49 1.381 . S
C51 C50 1.387 . S
C51 H77 0.931 . S
C52 C49 1.487 . S
C52 C59 1.399 1_565 S
C52 N90 1.343 1_565 S
C53 C54 1.384 . S
C53 C55 1.384 . S
C53 H78 0.931 . S
C54 C53 1.384 . S
C54 C57 1.382 . S
C55 C53 1.384 . S
C55 C56 1.381 . S
C55 H79 0.930 . S
C56 C55 1.381 . S
C56 C58 1.381 . S
C56 C59 1.487 1_565 S
C57 C54 1.382 . S
C57 C58 1.387 . S
C57 H80 0.930 . S
C58 C56 1.381 . S
C58 C57 1.387 . S
C58 H81 0.931 1_565 S
C59 C52 1.399 1_545 S
C59 C56 1.487 1_545 S
C59 N91 1.343 . S
C60 C61 1.384 . S
C60 C62 1.384 . S
C60 H82 0.931 . S
C61 C60 1.384 . S
C61 C64 1.382 . S
C62 C60 1.384 . S
C62 C63 1.381 . S
C62 H83 0.930 . S
C63 C62 1.381 . S
C63 C65 1.381 . S
C63 C66 1.487 . S
C64 C61 1.382 . S
C64 C65 1.387 . S
C64 H84 0.930 . S
C65 C63 1.381 . S
C65 C64 1.387 . S
C65 H85 0.931 . S
C66 C63 1.487 . S
C66 C73 1.399 . S
C66 N91 1.343 . S
C67 C68 1.384 . S
C67 C69 1.384 . S
C67 H86 0.931 . S
C68 C67 1.384 . S
C68 C71 1.382 . S
C69 C67 1.384 . S
C69 C70 1.381 . S
C69 H87 0.930 . S
C70 C69 1.381 . S
C70 C72 1.381 . S
C70 C73 1.487 . S
C71 C68 1.382 . S
C71 C72 1.387 . S
C71 H88 0.930 . S
C72 C70 1.381 . S
C72 C71 1.387 . S
C72 H89 0.931 . S
C73 C66 1.399 . S
C73 C70 1.487 . S
C73 N90 1.343 . S
H74 C46 0.931 . S
H75 C48 0.930 . S
H76 C50 0.930 . S
H77 C51 0.931 . S
H78 C53 0.931 . S
H79 C55 0.930 . S
H80 C57 0.930 . S
H81 C58 0.931 1_545 S
H82 C60 0.931 . S
H83 C62 0.930 . S
H84 C64 0.930 . S
H85 C65 0.931 . S
H86 C67 0.931 . S
H87 C69 0.930 . S
H88 C71 0.930 . S
H89 C72 0.931 . S
N90 C52 1.343 1_545 S
N90 C73 1.343 . S
N91 C59 1.343 . S
N91 C66 1.343 . S
C92 C93 1.384 . S
C92 C94 1.384 . S
C92 H120 0.931 . S
C93 C92 1.384 . S
C93 C96 1.382 . S
C94 C92 1.384 . S
C94 C95 1.381 . S
C94 H121 0.930 . S
C95 C94 1.381 . S
C95 C97 1.381 . S
C95 C98 1.487 . S
C96 C93 1.382 . S
C96 C97 1.387 . S
C96 H122 0.930 . S
C97 C95 1.381 . S
C97 C96 1.387 . S
C97 H123 0.931 . S
C98 C95 1.487 . S
C98 C105 1.399 . S
C98 N136 1.343 . S
C99 C100 1.384 . S
C99 C101 1.384 . S
C99 H124 0.931 . S
C100 C99 1.384 . S
C100 C103 1.382 . S
C101 C99 1.384 . S
C101 C102 1.381 . S
C101 H125 0.930 . S
C102 C101 1.381 . S
C102 C104 1.381 . S
C102 C105 1.487 . S
C103 C100 1.382 . S
C103 C104 1.387 . S
C103 H126 0.930 . S
C104 C102 1.381 . S
C104 C103 1.387 . S
C104 H127 0.931 . S
C105 C98 1.399 . S
C105 C102 1.487 . S
C105 N137 1.343 . S
C106 C107 1.384 . S
C106 C108 1.384 . S
C106 H128 0.931 . S
C107 C106 1.384 . S
C107 C110 1.382 . S
C108 C106 1.384 . S
C108 C109 1.381 . S
C108 H129 0.930 . S
C109 C108 1.381 . S
C109 C111 1.381 . S
C109 C112 1.487 . S
C110 C107 1.382 . S
C110 C111 1.387 . S
C110 H130 0.930 . S
C111 C109 1.381 . S
C111 C110 1.387 . S
C111 H131 0.931 . S
C112 C109 1.487 . S
C112 C119 1.399 . S
C112 N137 1.343 . S
C113 C114 1.384 . S
C113 C115 1.384 . S
C113 H132 0.931 . S
C114 C113 1.384 . S
C114 C117 1.382 . S
C115 C113 1.384 . S
C115 C116 1.381 . S
C115 H133 0.930 . S
C116 C115 1.381 . S
C116 C118 1.381 . S
C116 C119 1.487 . S
C117 C114 1.382 . S
C117 C118 1.387 . S
C117 H134 0.930 . S
C118 C116 1.381 . S
C118 C117 1.387 . S
C118 H135 0.931 . S
C119 C112 1.399 . S
C119 C116 1.487 . S
C119 N136 1.343 . S
H120 C92 0.931 . S
H121 C94 0.930 . S
H122 C96 0.930 . S
H123 C97 0.931 . S
H124 C99 0.931 . S
H125 C101 0.930 . S
H126 C103 0.930 . S
H127 C104 0.931 . S
H128 C106 0.931 . S
H129 C108 0.930 . S
H130 C110 0.930 . S
H131 C111 0.931 . S
H132 C113 0.931 . S
H133 C115 0.930 . S
H134 C117 0.930 . S
H135 C118 0.931 . S
N136 C98 1.343 . S
N136 C119 1.343 . S
N137 C105 1.343 . S
N137 C112 1.343 . S
C138 C139 1.384 . S
C138 C140 1.384 . S
C138 H166 0.931 . S
C139 C138 1.384 . S
C139 C142 1.382 . S
C140 C138 1.384 . S
C140 C141 1.381 . S
C140 H167 0.930 . S
C141 C140 1.381 . S
C141 C143 1.381 . S
C141 C144 1.487 . S
C142 C139 1.382 . S
C142 C143 1.387 . S
C142 H168 0.930 . S
C143 C141 1.381 . S
C143 C142 1.387 . S
C143 H169 0.931 . S
C144 C141 1.487 . S
C144 C151 1.399 . S
C144 N182 1.343 . S
C145 C146 1.384 . S
C145 C147 1.384 . S
C145 H170 0.931 . S
C146 C145 1.384 . S
C146 C149 1.382 . S
C147 C145 1.384 . S
C147 C148 1.381 . S
C147 H171 0.930 . S
C148 C147 1.381 . S
C148 C150 1.381 . S
C148 C151 1.487 . S
C149 C146 1.382 . S
C149 C150 1.387 . S
C149 H172 0.930 . S
C150 C148 1.381 . S
C150 C149 1.387 . S
C150 H173 0.931 . S
C151 C144 1.399 . S
C151 C148 1.487 . S
C151 N183 1.343 1_655 S
C152 C153 1.384 . S
C152 C154 1.384 . S
C152 H174 0.931 . S
C153 C152 1.384 . S
C153 C156 1.382 . S
C154 C152 1.384 . S
C154 C155 1.381 . S
C154 H175 0.930 . S
C155 C154 1.381 . S
C155 C157 1.381 . S
C155 C158 1.487 . S
C156 C153 1.382 . S
C156 C157 1.387 . S
C156 H176 0.930 . S
C157 C155 1.381 . S
C157 C156 1.387 . S
C157 H177 0.931 . S
C158 C155 1.487 . S
C158 C165 1.399 . S
C158 N183 1.343 . S
C159 C160 1.384 . S
C159 C161 1.384 . S
C159 H178 0.931 . S
C160 C159 1.384 . S
C160 C163 1.382 . S
C161 C159 1.384 . S
C161 C162 1.381 . S
C161 H179 0.930 . S
C162 C161 1.381 . S
C162 C164 1.381 . S
C162 C165 1.487 . S
C163 C160 1.382 . S
C163 C164 1.387 . S
C163 H180 0.930 . S
C164 C162 1.381 . S
C164 C163 1.387 . S
C164 H181 0.931 . S
C165 C158 1.399 . S
C165 C162 1.487 . S
C165 N182 1.343 1_455 S
H166 C138 0.931 . S
H167 C140 0.930 . S
H168 C142 0.930 . S
H169 C143 0.931 . S
H170 C145 0.931 . S
H171 C147 0.930 . S
H172 C149 0.930 . S
H173 C150 0.931 . S
H174 C152 0.931 . S
H175 C154 0.930 . S
H176 C156 0.930 . S
H177 C157 0.931 . S
H178 C159 0.931 . S
H179 C161 0.930 . S
H180 C163 0.930 . S
H181 C164 0.931 . S
N182 C144 1.343 . S
N182 C165 1.343 1_655 S
N183 C151 1.343 1_455 S
N183 C158 1.343 . S
C184 C185 1.384 . S
C184 C186 1.384 . S
C184 H212 0.931 . S
C185 C184 1.384 . S
C185 C188 1.382 . S
C186 C184 1.384 . S
C186 C187 1.381 . S
C186 H213 0.934 . S
C187 C186 1.381 . S
C187 C189 1.381 . S
C187 C190 1.487 . S
C188 C185 1.382 . S
C188 C189 1.387 . S
C188 H214 0.930 . S
C189 C187 1.381 . S
C189 C188 1.387 . S
C189 H215 0.931 . S
C190 C187 1.487 . S
C190 C197 1.399 1_566 S
C190 N228 1.343 1_565 S
C191 C192 1.384 . S
C191 C193 1.384 . S
C191 H216 0.931 . S
C192 C191 1.384 . S
C192 C195 1.382 . S
C193 C191 1.384 . S
C193 C194 1.381 . S
C193 H217 0.930 . S
C194 C193 1.381 . S
C194 C196 1.381 . S
C194 C197 1.487 1_565 S
C195 C192 1.382 . S
C195 C196 1.387 . S
C195 H218 0.930 . S
C196 C194 1.381 . S
C196 C195 1.387 . S
C196 H219 0.931 1_565 S
C197 C190 1.399 1_544 S
C197 C194 1.487 1_545 S
C197 N229 1.343 . S
C198 C199 1.384 . S
C198 C200 1.384 1_554 S
C198 H220 0.931 1_554 S
C199 C198 1.384 . S
C199 C202 1.382 . S
C200 C198 1.384 1_556 S
C200 C201 1.381 1_556 S
C200 H221 0.930 . S
C201 C200 1.381 1_554 S
C201 C203 1.381 . S
C201 C204 1.487 1_554 S
C202 C199 1.382 . S
C202 C203 1.387 . S
C202 H222 0.930 . S
C203 C201 1.381 . S
C203 C202 1.387 . S
C203 H223 0.931 . S
C204 C201 1.487 1_556 S
C204 C211 1.399 . S
C204 N229 1.343 1_556 S
C205 C206 1.384 . S
C205 C207 1.384 . S
C205 H224 0.931 . S
C206 C205 1.384 . S
C206 C209 1.382 . S
C207 C205 1.384 . S
C207 C208 1.381 . S
C207 H225 0.930 . S
C208 C207 1.381 . S
C208 C210 1.381 . S
C208 C211 1.487 . S
C209 C206 1.382 . S
C209 C210 1.387 . S
C209 H226 0.930 . S
C210 C208 1.381 . S
C210 C209 1.387 . S
C210 H227 0.931 . S
C211 C204 1.399 . S
C211 C208 1.487 . S
C211 N228 1.343 . S
H212 C184 0.931 . S
H213 C186 0.934 . S
H214 C188 0.930 . S
H215 C189 0.931 . S
H216 C191 0.931 . S
H217 C193 0.930 . S
H218 C195 0.930 . S
H219 C196 0.931 1_545 S
H220 C198 0.931 1_556 S
H221 C200 0.930 . S
H222 C202 0.930 . S
H223 C203 0.931 . S
H224 C205 0.931 . S
H225 C207 0.930 . S
H226 C209 0.930 . S
H227 C210 0.931 . S
N228 C190 1.343 1_545 S
N228 C211 1.343 . S
N229 C197 1.343 . S
N229 C204 1.343 1_554 S
C230 C231 1.384 . S
C230 C232 1.384 . S
C230 H258 0.931 . S
C231 C230 1.384 . S
C231 C234 1.382 . S
C232 C230 1.384 . S
C232 C233 1.381 . S
C232 H259 0.930 . S
C233 C232 1.381 . S
C233 C235 1.381 . S
C233 C236 1.487 . S
C234 C231 1.382 . S
C234 C235 1.387 . S
C234 H260 0.930 . S
C235 C233 1.381 . S
C235 C234 1.387 . S
C235 H261 0.931 . S
C236 C233 1.487 . S
C236 C243 1.399 . S
C236 N274 1.343 . S
C237 C238 1.384 . S
C237 C239 1.384 . S
C237 H262 0.931 . S
C238 C237 1.384 . S
C238 C241 1.382 . S
C239 C237 1.384 . S
C239 C240 1.381 . S
C239 H263 0.930 . S
C240 C239 1.381 . S
C240 C242 1.381 . S
C240 C243 1.487 . S
C241 C238 1.382 . S
C241 C242 1.387 . S
C241 H264 0.930 . S
C242 C240 1.381 . S
C242 C241 1.387 . S
C242 H265 0.931 . S
C243 C236 1.399 . S
C243 C240 1.487 . S
C243 N275 1.343 . S
C244 C245 1.384 . S
C244 C246 1.384 . S
C244 H266 0.931 . S
C245 C244 1.384 . S
C245 C248 1.382 . S
C246 C244 1.384 . S
C246 C247 1.381 . S
C246 H267 0.930 . S
C247 C246 1.381 . S
C247 C249 1.381 . S
C247 C250 1.487 . S
C248 C245 1.382 . S
C248 C249 1.387 . S
C248 H268 0.930 . S
C249 C247 1.381 . S
C249 C248 1.387 . S
C249 H269 0.931 . S
C250 C247 1.487 . S
C250 C257 1.399 . S
C250 N275 1.343 . S
C251 C252 1.384 . S
C251 C253 1.384 . S
C251 H270 0.931 . S
C252 C251 1.384 . S
C252 C255 1.382 . S
C253 C251 1.384 . S
C253 C254 1.381 . S
C253 H271 0.930 . S
C254 C253 1.381 . S
C254 C256 1.381 . S
C254 C257 1.487 . S
C255 C252 1.382 . S
C255 C256 1.387 . S
C255 H272 0.930 . S
C256 C254 1.381 . S
C256 C255 1.387 . S
C256 H273 0.931 . S
C257 C250 1.399 . S
C257 C254 1.487 . S
C257 N274 1.343 . S
H258 C230 0.931 . S
H259 C232 0.930 . S
H260 C234 0.930 . S
H261 C235 0.931 . S
H262 C237 0.931 . S
H263 C239 0.930 . S
H264 C241 0.930 . S
H265 C242 0.931 . S
H266 C244 0.931 . S
H267 C246 0.930 . S
H268 C248 0.930 . S
H269 C249 0.931 . S
H270 C251 0.931 . S
H271 C253 0.930 . S
H272 C255 0.930 . S
H273 C256 0.931 . S
N274 C236 1.343 . S
N274 C257 1.343 . S
N275 C243 1.343 . S
N275 C250 1.343 . S
Mn276 O281 2.095 . S
Mn276 O291 2.162 . S
Mn276 O292 2.297 . S
Mn276 O300 2.385 . S
Mn276 O301 2.209 . S
Mn276 O302 2.094 . S
Mn277 O282 2.121 . S
Mn277 N284 2.257 . S
Mn277 N293 2.282 . S
Mn277 O301 2.215 . S
Mn277 O303 2.117 . S
C278 O300 1.234 . S
C278 O301 1.283 . S
C279 O291 1.281 . S
C279 O292 1.236 . S
C280 O302 1.240 . S
C280 O303 1.264 . S
O281 Mn276 2.095 . S
O281 C290 1.250 . S
O282 Mn277 2.121 . S
O282 C290 1.258 . S
C283 N284 1.326 . S
C283 C287 1.460 . S
C283 H289 0.929 . S
N284 Mn277 2.257 . S
N284 C283 1.326 . S
N284 C288 1.362 . S
C285 C286 1.258 . S
C285 C288 1.431 . S
C285 C305 1.449 . S
C286 C285 1.258 . S
C286 C287 1.477 . S
C286 H306 0.931 . S
C287 C283 1.460 . S
C287 C286 1.477 . S
C287 H307 0.930 . S
C288 N284 1.362 . S
C288 C285 1.431 . S
C288 C298 1.476 . S
H289 C283 0.929 . S
C290 O281 1.250 . S
C290 O282 1.258 . S
O291 Mn276 2.162 . S
O291 C279 1.281 . S
O292 Mn276 2.297 . S
O292 C279 1.236 . S
N293 Mn277 2.282 . S
N293 C294 1.328 . S
N293 C298 1.318 . S
C294 N293 1.328 . S
C294 C295 1.457 . S
C294 H299 0.929 . S
C295 C294 1.457 . S
C295 C296 1.291 . S
C295 H308 0.931 . S
C296 C295 1.291 . S
C296 C297 1.373 . S
C296 H309 0.929 . S
C297 C296 1.373 . S
C297 C298 1.396 . S
C297 C304 1.403 . S
C298 C288 1.476 . S
C298 N293 1.318 . S
C298 C297 1.396 . S
H299 C294 0.929 . S
O300 Mn276 2.385 . S
O300 C278 1.234 . S
O301 Mn276 2.209 . S
O301 Mn277 2.215 . S
O301 C278 1.283 . S
O302 Mn276 2.094 . S
O302 C280 1.240 . S
O303 Mn277 2.117 . S
O303 C280 1.264 . S
C304 C297 1.403 . S
C304 C305 1.399 . S
C304 H310 0.929 . S
C305 C285 1.449 . S
C305 C304 1.399 . S
C305 H311 0.930 . S
H306 C286 0.931 . S
H307 C287 0.930 . S
H308 C295 0.931 . S
H309 C296 0.929 . S
H310 C304 0.929 . S
H311 C305 0.930 . S
Mn312 O317 2.095 . S
Mn312 O327 2.162 . S
Mn312 O328 2.297 . S
Mn312 O336 2.385 . S
Mn312 O337 2.209 . S
Mn312 O338 2.094 . S
Mn313 O318 2.121 . S
Mn313 N320 2.257 . S
Mn313 N329 2.282 . S
Mn313 O337 2.215 . S
Mn313 O339 2.117 . S
C314 O336 1.234 . S
C314 O337 1.283 . S
C315 O327 1.281 . S
C315 O328 1.236 . S
C316 O338 1.240 . S
C316 O339 1.264 . S
O317 Mn312 2.095 . S
O317 C326 1.250 . S
O318 Mn313 2.121 . S
O318 C326 1.258 . S
C319 N320 1.326 . S
C319 C323 1.460 . S
C319 H325 0.929 . S
N320 Mn313 2.257 . S
N320 C319 1.326 . S
N320 C324 1.362 . S
C321 C322 1.258 . S
C321 C324 1.431 . S
C321 C341 1.449 . S
C322 C321 1.258 . S
C322 C323 1.477 . S
C322 H342 0.931 . S
C323 C319 1.460 . S
C323 C322 1.477 . S
C323 H343 0.930 . S
C324 N320 1.362 . S
C324 C321 1.431 . S
C324 C334 1.476 . S
H325 C319 0.929 . S
C326 O317 1.250 . S
C326 O318 1.258 . S
O327 Mn312 2.162 . S
O327 C315 1.281 . S
O328 Mn312 2.297 . S
O328 C315 1.236 . S
N329 Mn313 2.282 . S
N329 C330 1.328 . S
N329 C334 1.318 . S
C330 N329 1.328 . S
C330 C331 1.457 . S
C330 H335 0.929 . S
C331 C330 1.457 . S
C331 C332 1.291 . S
C331 H344 0.931 . S
C332 C331 1.291 . S
C332 C333 1.373 . S
C332 H345 0.929 . S
C333 C332 1.373 . S
C333 C334 1.396 . S
C333 C340 1.403 . S
C334 C324 1.476 . S
C334 N329 1.318 . S
C334 C333 1.396 . S
H335 C330 0.929 . S
O336 Mn312 2.385 . S
O336 C314 1.234 . S
O337 Mn312 2.209 . S
O337 Mn313 2.215 . S
O337 C314 1.283 . S
O338 Mn312 2.094 . S
O338 C316 1.240 . S
O339 Mn313 2.117 . S
O339 C316 1.264 . S
C340 C333 1.403 . S
C340 C341 1.399 . S
C340 H346 0.929 . S
C341 C321 1.449 . S
C341 C340 1.399 . S
C341 H347 0.930 . S
H342 C322 0.931 . S
H343 C323 0.930 . S
H344 C331 0.931 . S
H345 C332 0.929 . S
H346 C340 0.929 . S
H347 C341 0.930 . S
Mn348 O353 2.095 . S
Mn348 O363 2.162 . S
Mn348 O364 2.297 . S
Mn348 O372 2.385 . S
Mn348 O373 2.209 . S
Mn348 O374 2.094 . S
Mn349 O354 2.121 . S
Mn349 N356 2.257 . S
Mn349 N365 2.282 . S
Mn349 O373 2.215 . S
Mn349 O375 2.117 . S
C350 O372 1.234 . S
C350 O373 1.283 . S
C351 O363 1.281 . S
C351 O364 1.236 . S
C352 O374 1.240 . S
C352 O375 1.264 . S
O353 Mn348 2.095 . S
O353 C362 1.250 . S
O354 Mn349 2.121 . S
O354 C362 1.258 . S
C355 N356 1.326 . S
C355 C359 1.460 . S
C355 H361 0.929 . S
N356 Mn349 2.257 . S
N356 C355 1.326 . S
N356 C360 1.362 . S
C357 C358 1.258 . S
C357 C360 1.431 . S
C357 C377 1.449 . S
C358 C357 1.258 . S
C358 C359 1.477 . S
C358 H378 0.931 . S
C359 C355 1.460 . S
C359 C358 1.477 . S
C359 H379 0.930 . S
C360 N356 1.362 . S
C360 C357 1.431 . S
C360 C370 1.476 . S
H361 C355 0.929 . S
C362 O353 1.250 . S
C362 O354 1.258 . S
O363 Mn348 2.162 . S
O363 C351 1.281 . S
O364 Mn348 2.297 . S
O364 C351 1.236 . S
N365 Mn349 2.282 . S
N365 C366 1.328 . S
N365 C370 1.318 . S
C366 N365 1.328 . S
C366 C367 1.457 . S
C366 H371 0.929 . S
C367 C366 1.457 . S
C367 C368 1.291 . S
C367 H380 0.931 . S
C368 C367 1.291 . S
C368 C369 1.373 . S
C368 H381 0.929 . S
C369 C368 1.373 . S
C369 C370 1.396 . S
C369 C376 1.403 . S
C370 C360 1.476 . S
C370 N365 1.318 . S
C370 C369 1.396 . S
H371 C366 0.929 . S
O372 Mn348 2.385 . S
O372 C350 1.234 . S
O373 Mn348 2.209 . S
O373 Mn349 2.215 . S
O373 C350 1.283 . S
O374 Mn348 2.094 . S
O374 C352 1.240 . S
O375 Mn349 2.117 . S
O375 C352 1.264 . S
C376 C369 1.403 . S
C376 C377 1.399 . S
C376 H382 0.929 . S
C377 C357 1.449 . S
C377 C376 1.399 . S
C377 H383 0.930 . S
H378 C358 0.931 . S
H379 C359 0.930 . S
H380 C367 0.931 . S
H381 C368 0.929 . S
H382 C376 0.929 . S
H383 C377 0.930 . S
Mn384 O389 2.095 . S
Mn384 O399 2.162 . S
Mn384 O400 2.297 . S
Mn384 O408 2.385 . S
Mn384 O409 2.209 . S
Mn384 O410 2.094 . S
Mn385 O390 2.121 . S
Mn385 N392 2.257 . S
Mn385 N401 2.282 . S
Mn385 O409 2.215 . S
Mn385 O411 2.117 . S
C386 O408 1.234 . S
C386 O409 1.283 . S
C387 O399 1.281 . S
C387 O400 1.236 . S
C388 O410 1.240 . S
C388 O411 1.264 . S
O389 Mn384 2.095 . S
O389 C398 1.250 . S
O390 Mn385 2.121 . S
O390 C398 1.258 . S
C391 N392 1.326 . S
C391 C395 1.460 . S
C391 H397 0.929 . S
N392 Mn385 2.257 . S
N392 C391 1.326 . S
N392 C396 1.362 . S
C393 C394 1.258 . S
C393 C396 1.431 . S
C393 C413 1.449 . S
C394 C393 1.258 . S
C394 C395 1.477 . S
C394 H414 0.931 . S
C395 C391 1.460 . S
C395 C394 1.477 . S
C395 H415 0.930 . S
C396 N392 1.362 . S
C396 C393 1.431 . S
C396 C406 1.476 . S
H397 C391 0.929 . S
C398 O389 1.250 . S
C398 O390 1.258 . S
O399 Mn384 2.162 . S
O399 C387 1.281 . S
O400 Mn384 2.297 . S
O400 C387 1.236 . S
N401 Mn385 2.282 . S
N401 C402 1.328 . S
N401 C406 1.318 . S
C402 N401 1.328 . S
C402 C403 1.457 . S
C402 H407 0.929 . S
C403 C402 1.457 . S
C403 C404 1.291 . S
C403 H416 0.931 . S
C404 C403 1.291 . S
C404 C405 1.373 . S
C404 H417 0.929 . S
C405 C404 1.373 . S
C405 C406 1.396 . S
C405 C412 1.403 . S
C406 C396 1.476 . S
C406 N401 1.318 . S
C406 C405 1.396 . S
H407 C402 0.929 . S
O408 Mn384 2.385 . S
O408 C386 1.234 . S
O409 Mn384 2.209 . S
O409 Mn385 2.215 . S
O409 C386 1.283 . S
O410 Mn384 2.094 . S
O410 C388 1.240 . S
O411 Mn385 2.117 . S
O411 C388 1.264 . S
C412 C405 1.403 . S
C412 C413 1.399 . S
C412 H418 0.929 . S
C413 C393 1.449 . S
C413 C412 1.399 . S
C413 H419 0.930 . S
H414 C394 0.931 . S
H415 C395 0.930 . S
H416 C403 0.931 . S
H417 C404 0.929 . S
H418 C412 0.929 . S
H419 C413 0.930 . S
Mn420 O425 2.095 . S
Mn420 O435 2.162 . S
Mn420 O436 2.297 . S
Mn420 O444 2.385 . S
Mn420 O445 2.209 . S
Mn420 O446 2.094 . S
Mn421 O426 2.121 . S
Mn421 N428 2.257 . S
Mn421 N437 2.282 . S
Mn421 O445 2.215 . S
Mn421 O447 2.117 . S
C422 O444 1.234 . S
C422 O445 1.283 . S
C423 O435 1.281 . S
C423 O436 1.236 . S
C424 O446 1.240 . S
C424 O447 1.264 . S
O425 Mn420 2.095 . S
O425 C434 1.250 . S
O426 Mn421 2.121 . S
O426 C434 1.258 . S
C427 N428 1.326 . S
C427 C431 1.460 . S
C427 H433 0.929 . S
N428 Mn421 2.257 . S
N428 C427 1.326 . S
N428 C432 1.362 . S
C429 C430 1.258 . S
C429 C432 1.431 . S
C429 C449 1.449 . S
C430 C429 1.258 . S
C430 C431 1.477 . S
C430 H450 0.931 . S
C431 C427 1.460 . S
C431 C430 1.477 . S
C431 H451 0.930 . S
C432 N428 1.362 . S
C432 C429 1.431 . S
C432 C442 1.476 . S
H433 C427 0.929 . S
C434 O425 1.250 . S
C434 O426 1.258 . S
O435 Mn420 2.162 . S
O435 C423 1.281 . S
O436 Mn420 2.297 . S
O436 C423 1.236 . S
N437 Mn421 2.282 . S
N437 C438 1.328 . S
N437 C442 1.318 . S
C438 N437 1.328 . S
C438 C439 1.457 . S
C438 H443 0.929 . S
C439 C438 1.457 . S
C439 C440 1.291 . S
C439 H452 0.931 . S
C440 C439 1.291 . S
C440 C441 1.373 . S
C440 H453 0.929 . S
C441 C440 1.373 . S
C441 C442 1.396 . S
C441 C448 1.403 . S
C442 C432 1.476 . S
C442 N437 1.318 . S
C442 C441 1.396 . S
H443 C438 0.929 . S
O444 Mn420 2.385 . S
O444 C422 1.234 . S
O445 Mn420 2.209 . S
O445 Mn421 2.215 . S
O445 C422 1.283 . S
O446 Mn420 2.094 . S
O446 C424 1.240 . S
O447 Mn421 2.117 . S
O447 C424 1.264 . S
C448 C441 1.403 . S
C448 C449 1.399 . S
C448 H454 0.929 . S
C449 C429 1.449 . S
C449 C448 1.399 . S
C449 H455 0.930 . S
H450 C430 0.931 . S
H451 C431 0.930 . S
H452 C439 0.931 . S
H453 C440 0.929 . S
H454 C448 0.929 . S
H455 C449 0.930 . S
Mn456 O461 2.095 . S
Mn456 O471 2.162 . S
Mn456 O472 2.297 . S
Mn456 O480 2.385 . S
Mn456 O481 2.209 . S
Mn456 O482 2.094 . S
Mn457 O462 2.121 . S
Mn457 N464 2.257 . S
Mn457 N473 2.282 . S
Mn457 O481 2.215 . S
Mn457 O483 2.117 . S
C458 O480 1.234 . S
C458 O481 1.283 . S
C459 O471 1.281 . S
C459 O472 1.236 . S
C460 O482 1.240 . S
C460 O483 1.264 . S
O461 Mn456 2.095 . S
O461 C470 1.250 . S
O462 Mn457 2.121 . S
O462 C470 1.258 . S
C463 N464 1.326 . S
C463 C467 1.460 . S
C463 H469 0.929 . S
N464 Mn457 2.257 . S
N464 C463 1.326 . S
N464 C468 1.362 . S
C465 C466 1.258 . S
C465 C468 1.431 . S
C465 C485 1.449 . S
C466 C465 1.258 . S
C466 C467 1.477 . S
C466 H486 0.931 . S
C467 C463 1.460 . S
C467 C466 1.477 . S
C467 H487 0.930 . S
C468 N464 1.362 . S
C468 C465 1.431 . S
C468 C478 1.476 . S
H469 C463 0.929 . S
C470 O461 1.250 . S
C470 O462 1.258 . S
O471 Mn456 2.162 . S
O471 C459 1.281 . S
O472 Mn456 2.297 . S
O472 C459 1.236 . S
N473 Mn457 2.282 . S
N473 C474 1.328 . S
N473 C478 1.318 . S
C474 N473 1.328 . S
C474 C475 1.457 . S
C474 H479 0.929 . S
C475 C474 1.457 . S
C475 C476 1.291 . S
C475 H488 0.931 . S
C476 C475 1.291 . S
C476 C477 1.373 . S
C476 H489 0.929 . S
C477 C476 1.373 . S
C477 C478 1.396 . S
C477 C484 1.403 . S
C478 C468 1.476 . S
C478 N473 1.318 . S
C478 C477 1.396 . S
H479 C474 0.929 . S
O480 Mn456 2.385 . S
O480 C458 1.234 . S
O481 Mn456 2.209 . S
O481 Mn457 2.215 . S
O481 C458 1.283 . S
O482 Mn456 2.094 . S
O482 C460 1.240 . S
O483 Mn457 2.117 . S
O483 C460 1.264 . S
C484 C477 1.403 . S
C484 C485 1.399 . S
C484 H490 0.929 . S
C485 C465 1.449 . S
C485 C484 1.399 . S
C485 H491 0.930 . S
H486 C466 0.931 . S
H487 C467 0.930 . S
H488 C475 0.931 . S
H489 C476 0.929 . S
H490 C484 0.929 . S
H491 C485 0.930 . S
C492 C493 1.349 . S
C492 C494 1.327 . S
C492 H517 0.950 . S
C493 C492 1.349 . S
C493 C509 1.349 . S
C494 C492 1.327 . S
C494 C513 1.429 . S
C494 H518 0.950 . S
C495 C512 1.574 . S
C495 C514 1.368 . S
C495 H519 0.949 . S
H496 C500 0.949 . S
C497 C498 1.349 . S
C497 C499 1.327 . S
C497 H520 0.950 . S
C498 C497 1.349 . S
C498 C510 1.349 . S
C499 C497 1.327 . S
C499 C515 1.429 . S
C499 H521 0.950 . S
C500 H496 0.949 . S
C500 C508 1.574 . S
C500 C516 1.368 . S
H501 C509 0.950 . S
H502 C507 0.950 . S
H503 C508 0.949 . S
H504 C510 0.950 . S
H505 C511 0.950 . S
H506 C512 0.949 . S
C507 H502 0.950 . S
C507 C509 1.327 . S
C507 C513 1.429 . S
C508 C500 1.574 . S
C508 H503 0.949 . S
C508 C514 1.368 . S
C509 C493 1.349 . S
C509 H501 0.950 . S
C509 C507 1.327 . S
C510 C498 1.349 . S
C510 H504 0.950 . S
C510 C511 1.327 . S
C511 H505 0.950 . S
C511 C510 1.327 . S
C511 C515 1.429 . S
C512 C495 1.574 . S
C512 H506 0.949 . S
C512 C516 1.368 . S
C513 C494 1.429 . S
C513 C507 1.429 . S
C513 C514 1.523 . S
C514 C495 1.368 . S
C514 C508 1.368 . S
C514 C513 1.523 . S
C515 C499 1.429 . S
C515 C511 1.429 . S
C515 C516 1.523 . S
C516 C500 1.368 . S
C516 C512 1.368 . S
C516 C515 1.523 . S
H517 C492 0.950 . S
H518 C494 0.950 . S
H519 C495 0.949 . S
H520 C497 0.950 . S
H521 C499 0.950 . S
C522 C523 1.349 . S
C522 C524 1.327 . S
C522 H547 0.950 . S
C523 C522 1.349 . S
C523 C539 1.349 . S
C524 C522 1.327 . S
C524 C543 1.429 . S
C524 H548 0.950 . S
C525 C542 1.574 . S
C525 C544 1.368 . S
C525 H549 0.949 . S
H526 C530 0.949 . S
C527 C528 1.349 . S
C527 C529 1.327 . S
C527 H550 0.950 . S
C528 C527 1.349 . S
C528 C540 1.349 . S
C529 C527 1.327 . S
C529 C545 1.429 . S
C529 H551 0.950 . S
C530 H526 0.949 . S
C530 C538 1.574 . S
C530 C546 1.368 . S
H531 C539 0.950 . S
H532 C537 0.950 . S
H533 C538 0.949 . S
H534 C540 0.950 . S
H535 C541 0.950 . S
H536 C542 0.949 . S
C537 H532 0.950 . S
C537 C539 1.327 . S
C537 C543 1.429 . S
C538 C530 1.574 . S
C538 H533 0.949 . S
C538 C544 1.368 . S
C539 C523 1.349 . S
C539 H531 0.950 . S
C539 C537 1.327 . S
C540 C528 1.349 . S
C540 H534 0.950 . S
C540 C541 1.327 . S
C541 H535 0.950 . S
C541 C540 1.327 . S
C541 C545 1.429 . S
C542 C525 1.574 . S
C542 H536 0.949 . S
C542 C546 1.368 . S
C543 C524 1.429 . S
C543 C537 1.429 . S
C543 C544 1.523 . S
C544 C525 1.368 . S
C544 C538 1.368 . S
C544 C543 1.523 . S
C545 C529 1.429 . S
C545 C541 1.429 . S
C545 C546 1.523 . S
C546 C530 1.368 . S
C546 C542 1.368 . S
C546 C545 1.523 . S
H547 C522 0.950 . S
H548 C524 0.950 . S
H549 C525 0.949 . S
H550 C527 0.950 . S
H551 C529 0.950 . S
C552 C553 1.349 . S
C552 C554 1.327 . S
C552 H577 0.950 . S
C553 C552 1.349 . S
C553 C569 1.349 . S
C554 C552 1.327 . S
C554 C573 1.429 . S
C554 H578 0.950 . S
C555 C572 1.574 . S
C555 C574 1.368 . S
C555 H579 0.949 . S
H556 C560 0.949 . S
C557 C558 1.349 . S
C557 C559 1.327 . S
C557 H580 0.950 . S
C558 C557 1.349 . S
C558 C570 1.349 . S
C559 C557 1.327 . S
C559 C575 1.429 . S
C559 H581 0.950 . S
C560 H556 0.949 . S
C560 C568 1.574 . S
C560 C576 1.368 . S
H561 C569 0.950 . S
H562 C567 0.950 . S
H563 C568 0.949 . S
H564 C570 0.950 . S
H565 C571 0.950 . S
H566 C572 0.949 . S
C567 H562 0.950 . S
C567 C569 1.327 . S
C567 C573 1.429 . S
C568 C560 1.574 . S
C568 H563 0.949 . S
C568 C574 1.368 . S
C569 C553 1.349 . S
C569 H561 0.950 . S
C569 C567 1.327 . S
C570 C558 1.349 . S
C570 H564 0.950 . S
C570 C571 1.327 . S
C571 H565 0.950 . S
C571 C570 1.327 . S
C571 C575 1.429 . S
C572 C555 1.574 . S
C572 H566 0.949 . S
C572 C576 1.368 . S
C573 C554 1.429 . S
C573 C567 1.429 . S
C573 C574 1.523 . S
C574 C555 1.368 . S
C574 C568 1.368 . S
C574 C573 1.523 . S
C575 C559 1.429 . S
C575 C571 1.429 . S
C575 C576 1.523 . S
C576 C560 1.368 . S
C576 C572 1.368 . S
C576 C575 1.523 . S
H577 C552 0.950 . S
H578 C554 0.950 . S
H579 C555 0.949 . S
H580 C557 0.950 . S
H581 C559 0.950 . S
C582 C583 1.349 . S
C582 C584 1.327 . S
C582 H607 0.950 . S
C583 C582 1.349 . S
C583 C599 1.349 . S
C584 C582 1.327 . S
C584 C603 1.429 . S
C584 H608 0.950 . S
C585 C602 1.574 . S
C585 C604 1.368 . S
C585 H609 0.949 . S
H586 C590 0.949 . S
C587 C588 1.349 . S
C587 C589 1.327 . S
C587 H610 0.950 . S
C588 C587 1.349 . S
C588 C600 1.349 . S
C589 C587 1.327 . S
C589 C605 1.429 . S
C589 H611 0.950 . S
C590 H586 0.949 . S
C590 C598 1.574 . S
C590 C606 1.368 . S
H591 C599 0.950 . S
H592 C597 0.950 . S
H593 C598 0.949 . S
H594 C600 0.950 . S
H595 C601 0.950 . S
H596 C602 0.949 . S
C597 H592 0.950 . S
C597 C599 1.327 . S
C597 C603 1.429 . S
C598 C590 1.574 . S
C598 H593 0.949 . S
C598 C604 1.368 . S
C599 C583 1.349 . S
C599 H591 0.950 . S
C599 C597 1.327 . S
C600 C588 1.349 . S
C600 H594 0.950 . S
C600 C601 1.327 . S
C601 H595 0.950 . S
C601 C600 1.327 . S
C601 C605 1.429 . S
C602 C585 1.574 . S
C602 H596 0.949 . S
C602 C606 1.368 . S
C603 C584 1.429 . S
C603 C597 1.429 . S
C603 C604 1.523 . S
C604 C585 1.368 . S
C604 C598 1.368 . S
C604 C603 1.523 . S
C605 C589 1.429 . S
C605 C601 1.429 . S
C605 C606 1.523 . S
C606 C590 1.368 . S
C606 C602 1.368 . S
C606 C605 1.523 . S
H607 C582 0.950 . S
H608 C584 0.950 . S
H609 C585 0.949 . S
H610 C587 0.950 . S
H611 C589 0.950 . S
C612 C613 1.349 . S
C612 C614 1.327 . S
C612 H637 0.950 . S
C613 C612 1.349 . S
C613 C629 1.349 . S
C614 C612 1.327 . S
C614 C633 1.429 . S
C614 H638 0.950 . S
C615 C632 1.574 . S
C615 C634 1.368 . S
C615 H639 0.949 . S
H616 C620 0.949 . S
C617 C618 1.349 . S
C617 C619 1.327 . S
C617 H640 0.950 . S
C618 C617 1.349 . S
C618 C630 1.349 . S
C619 C617 1.327 . S
C619 C635 1.429 . S
C619 H641 0.950 . S
C620 H616 0.949 . S
C620 C628 1.574 . S
C620 C636 1.368 . S
H621 C629 0.950 . S
H622 C627 0.950 . S
H623 C628 0.949 . S
H624 C630 0.950 . S
H625 C631 0.950 . S
H626 C632 0.949 . S
C627 H622 0.950 . S
C627 C629 1.327 . S
C627 C633 1.429 . S
C628 C620 1.574 . S
C628 H623 0.949 . S
C628 C634 1.368 . S
C629 C613 1.349 . S
C629 H621 0.950 . S
C629 C627 1.327 . S
C630 C618 1.349 . S
C630 H624 0.950 . S
C630 C631 1.327 . S
C631 H625 0.950 . S
C631 C630 1.327 . S
C631 C635 1.429 . S
C632 C615 1.574 . S
C632 H626 0.949 . S
C632 C636 1.368 . S
C633 C614 1.429 . S
C633 C627 1.429 . S
C633 C634 1.523 . S
C634 C615 1.368 . S
C634 C628 1.368 . S
C634 C633 1.523 . S
C635 C619 1.429 . S
C635 C631 1.429 . S
C635 C636 1.523 . S
C636 C620 1.368 . S
C636 C632 1.368 . S
C636 C635 1.523 . S
H637 C612 0.950 . S
H638 C614 0.950 . S
H639 C615 0.949 . S
H640 C617 0.950 . S
H641 C619 0.950 . S
C642 C643 1.349 . S
C642 C644 1.327 . S
C642 H667 0.950 . S
C643 C642 1.349 . S
C643 C659 1.349 . S
C644 C642 1.327 . S
C644 C663 1.429 . S
C644 H668 0.950 . S
C645 C662 1.574 . S
C645 C664 1.368 . S
C645 H669 0.949 . S
H646 C650 0.949 . S
C647 C648 1.349 . S
C647 C649 1.327 . S
C647 H670 0.950 . S
C648 C647 1.349 . S
C648 C660 1.349 . S
C649 C647 1.327 . S
C649 C665 1.429 . S
C649 H671 0.950 . S
C650 H646 0.949 . S
C650 C658 1.574 . S
C650 C666 1.368 . S
H651 C659 0.950 . S
H652 C657 0.950 . S
H653 C658 0.949 . S
H654 C660 0.950 . S
H655 C661 0.950 . S
H656 C662 0.949 . S
C657 H652 0.950 . S
C657 C659 1.327 . S
C657 C663 1.429 . S
C658 C650 1.574 . S
C658 H653 0.949 . S
C658 C664 1.368 . S
C659 C643 1.349 . S
C659 H651 0.950 . S
C659 C657 1.327 . S
C660 C648 1.349 . S
C660 H654 0.950 . S
C660 C661 1.327 . S
C661 H655 0.950 . S
C661 C660 1.327 . S
C661 C665 1.429 . S
C662 C645 1.574 . S
C662 H656 0.949 . S
C662 C666 1.368 . S
C663 C644 1.429 . S
C663 C657 1.429 . S
C663 C664 1.523 . S
C664 C645 1.368 . S
C664 C658 1.368 . S
C664 C663 1.523 . S
C665 C649 1.429 . S
C665 C661 1.429 . S
C665 C666 1.523 . S
C666 C650 1.368 . S
C666 C662 1.368 . S
C666 C665 1.523 . S
H667 C642 0.950 . S
H668 C644 0.950 . S
H669 C645 0.949 . S
H670 C647 0.950 . S
H671 C649 0.950 . S
C672 C673 1.349 . S
C672 C674 1.327 . S
C672 H697 0.950 . S
C673 C672 1.349 . S
C673 C689 1.349 . S
C674 C672 1.327 . S
C674 C693 1.429 . S
C674 H698 0.950 . S
C675 C692 1.574 . S
C675 C694 1.368 . S
C675 H699 0.949 . S
H676 C680 0.949 . S
C677 C678 1.349 . S
C677 C679 1.327 . S
C677 H700 0.950 . S
C678 C677 1.349 . S
C678 C690 1.349 . S
C679 C677 1.327 . S
C679 C695 1.429 . S
C679 H701 0.950 . S
C680 H676 0.949 . S
C680 C688 1.574 . S
C680 C696 1.368 . S
H681 C689 0.950 . S
H682 C687 0.950 . S
H683 C688 0.949 . S
H684 C690 0.950 . S
H685 C691 0.950 . S
H686 C692 0.949 . S
C687 H682 0.950 . S
C687 C689 1.327 . S
C687 C693 1.429 . S
C688 C680 1.574 . S
C688 H683 0.949 . S
C688 C694 1.368 . S
C689 C673 1.349 . S
C689 H681 0.950 . S
C689 C687 1.327 . S
C690 C678 1.349 . S
C690 H684 0.950 . S
C690 C691 1.327 . S
C691 H685 0.950 . S
C691 C690 1.327 . S
C691 C695 1.429 . S
C692 C675 1.574 . S
C692 H686 0.949 . S
C692 C696 1.368 . S
C693 C674 1.429 . S
C693 C687 1.429 . S
C693 C694 1.523 . S
C694 C675 1.368 . S
C694 C688 1.368 . S
C694 C693 1.523 . S
C695 C679 1.429 . S
C695 C691 1.429 . S
C695 C696 1.523 . S
C696 C680 1.368 . S
C696 C692 1.368 . S
C696 C695 1.523 . S
H697 C672 0.950 . S
H698 C674 0.950 . S
H699 C675 0.949 . S
H700 C677 0.950 . S
H701 C679 0.950 . S
C702 C703 1.349 . S
C702 C704 1.327 . S
C702 H727 0.950 . S
C703 C702 1.349 . S
C703 C719 1.349 . S
C704 C702 1.327 . S
C704 C723 1.429 . S
C704 H728 0.950 . S
C705 C722 1.574 . S
C705 C724 1.368 . S
C705 H729 0.949 . S
H706 C710 0.949 . S
C707 C708 1.349 . S
C707 C709 1.327 . S
C707 H730 0.950 . S
C708 C707 1.349 . S
C708 C720 1.349 . S
C709 C707 1.327 . S
C709 C725 1.429 . S
C709 H731 0.950 . S
C710 H706 0.949 . S
C710 C718 1.574 . S
C710 C726 1.368 . S
H711 C719 0.950 . S
H712 C717 0.950 . S
H713 C718 0.949 . S
H714 C720 0.950 . S
H715 C721 0.950 . S
H716 C722 0.949 . S
C717 H712 0.950 . S
C717 C719 1.327 . S
C717 C723 1.429 . S
C718 C710 1.574 . S
C718 H713 0.949 . S
C718 C724 1.368 . S
C719 C703 1.349 . S
C719 H711 0.950 . S
C719 C717 1.327 . S
C720 C708 1.349 . S
C720 H714 0.950 . S
C720 C721 1.327 . S
C721 H715 0.950 . S
C721 C720 1.327 . S
C721 C725 1.429 . S
C722 C705 1.574 . S
C722 H716 0.949 . S
C722 C726 1.368 . S
C723 C704 1.429 . S
C723 C717 1.429 . S
C723 C724 1.523 . S
C724 C705 1.368 . S
C724 C718 1.368 . S
C724 C723 1.523 . S
C725 C709 1.429 . S
C725 C721 1.429 . S
C725 C726 1.523 . S
C726 C710 1.368 . S
C726 C722 1.368 . S
C726 C725 1.523 . S
H727 C702 0.950 . S
H728 C704 0.950 . S
H729 C705 0.949 . S
H730 C707 0.950 . S
H731 C709 0.950 . S
C732 C733 1.349 . S
C732 C734 1.327 . S
C732 H757 0.950 . S
C733 C732 1.349 . S
C733 C749 1.349 . S
C734 C732 1.327 . S
C734 C753 1.429 . S
C734 H758 0.950 . S
C735 C752 1.574 . S
C735 C754 1.368 . S
C735 H759 0.949 . S
H736 C740 0.949 . S
C737 C738 1.349 . S
C737 C739 1.327 . S
C737 H760 0.950 . S
C738 C737 1.349 . S
C738 C750 1.349 . S
C739 C737 1.327 . S
C739 C755 1.429 . S
C739 H761 0.950 . S
C740 H736 0.949 . S
C740 C748 1.574 . S
C740 C756 1.368 . S
H741 C749 0.950 . S
H742 C747 0.950 . S
H743 C748 0.949 . S
H744 C750 0.950 . S
H745 C751 0.950 . S
H746 C752 0.949 . S
C747 H742 0.950 . S
C747 C749 1.327 . S
C747 C753 1.429 . S
C748 C740 1.574 . S
C748 H743 0.949 . S
C748 C754 1.368 . S
C749 C733 1.349 . S
C749 H741 0.950 . S
C749 C747 1.327 . S
C750 C738 1.349 . S
C750 H744 0.950 . S
C750 C751 1.327 . S
C751 H745 0.950 . S
C751 C750 1.327 . S
C751 C755 1.429 . S
C752 C735 1.574 . S
C752 H746 0.949 . S
C752 C756 1.368 . S
C753 C734 1.429 . S
C753 C747 1.429 . S
C753 C754 1.523 . S
C754 C735 1.368 . S
C754 C748 1.368 . S
C754 C753 1.523 . S
C755 C739 1.429 . S
C755 C751 1.429 . S
C755 C756 1.523 . S
C756 C740 1.368 . S
C756 C752 1.368 . S
C756 C755 1.523 . S
H757 C732 0.950 . S
H758 C734 0.950 . S
H759 C735 0.949 . S
H760 C737 0.950 . S
H761 C739 0.950 . S
C762 C763 1.349 . S
C762 C764 1.327 . S
C762 H787 0.950 . S
C763 C762 1.349 . S
C763 C779 1.349 . S
C764 C762 1.327 . S
C764 C783 1.429 . S
C764 H788 0.950 . S
C765 C782 1.574 . S
C765 C784 1.368 . S
C765 H789 0.949 . S
H766 C770 0.949 . S
C767 C768 1.349 . S
C767 C769 1.327 . S
C767 H790 0.950 . S
C768 C767 1.349 . S
C768 C780 1.349 . S
C769 C767 1.327 . S
C769 C785 1.429 . S
C769 H791 0.950 . S
C770 H766 0.949 . S
C770 C778 1.574 . S
C770 C786 1.368 . S
H771 C779 0.950 . S
H772 C777 0.950 . S
H773 C778 0.949 . S
H774 C780 0.950 . S
H775 C781 0.950 . S
H776 C782 0.949 . S
C777 H772 0.950 . S
C777 C779 1.327 . S
C777 C783 1.429 . S
C778 C770 1.574 . S
C778 H773 0.949 . S
C778 C784 1.368 . S
C779 C763 1.349 . S
C779 H771 0.950 . S
C779 C777 1.327 . S
C780 C768 1.349 . S
C780 H774 0.950 . S
C780 C781 1.327 . S
C781 H775 0.950 . S
C781 C780 1.327 . S
C781 C785 1.429 . S
C782 C765 1.574 . S
C782 H776 0.949 . S
C782 C786 1.368 . S
C783 C764 1.429 . S
C783 C777 1.429 . S
C783 C784 1.523 . S
C784 C765 1.368 . S
C784 C778 1.368 . S
C784 C783 1.523 . S
C785 C769 1.429 . S
C785 C781 1.429 . S
C785 C786 1.523 . S
C786 C770 1.368 . S
C786 C782 1.368 . S
C786 C785 1.523 . S
H787 C762 0.950 . S
H788 C764 0.950 . S
H789 C765 0.949 . S
H790 C767 0.950 . S
H791 C769 0.950 . S
C792 C793 1.349 . S
C792 C794 1.327 . S
C792 H817 0.950 . S
C793 C792 1.349 . S
C793 C809 1.349 . S
C794 C792 1.327 . S
C794 C813 1.429 . S
C794 H818 0.950 . S
C795 C812 1.574 . S
C795 C814 1.368 . S
C795 H819 0.949 . S
H796 C800 0.949 . S
C797 C798 1.349 . S
C797 C799 1.327 . S
C797 H820 0.950 . S
C798 C797 1.349 . S
C798 C810 1.349 . S
C799 C797 1.327 . S
C799 C815 1.429 . S
C799 H821 0.950 . S
C800 H796 0.949 . S
C800 C808 1.574 . S
C800 C816 1.368 . S
H801 C809 0.950 . S
H802 C807 0.950 . S
H803 C808 0.949 . S
H804 C810 0.950 . S
H805 C811 0.950 . S
H806 C812 0.949 . S
C807 H802 0.950 . S
C807 C809 1.327 . S
C807 C813 1.429 . S
C808 C800 1.574 . S
C808 H803 0.949 . S
C808 C814 1.368 . S
C809 C793 1.349 . S
C809 H801 0.950 . S
C809 C807 1.327 . S
C810 C798 1.349 . S
C810 H804 0.950 . S
C810 C811 1.327 . S
C811 H805 0.950 . S
C811 C810 1.327 . S
C811 C815 1.429 . S
C812 C795 1.574 . S
C812 H806 0.949 . S
C812 C816 1.368 . S
C813 C794 1.429 . S
C813 C807 1.429 . S
C813 C814 1.523 . S
C814 C795 1.368 . S
C814 C808 1.368 . S
C814 C813 1.523 . S
C815 C799 1.429 . S
C815 C811 1.429 . S
C815 C816 1.523 . S
C816 C800 1.368 . S
C816 C812 1.368 . S
C816 C815 1.523 . S
H817 C792 0.950 . S
H818 C794 0.950 . S
H819 C795 0.949 . S
H820 C797 0.950 . S
H821 C799 0.950 . S
C822 C823 1.349 . S
C822 C824 1.327 . S
C822 H847 0.950 . S
C823 C822 1.349 . S
C823 C839 1.349 . S
C824 C822 1.327 . S
C824 C843 1.429 . S
C824 H848 0.950 . S
C825 C842 1.574 . S
C825 C844 1.368 . S
C825 H849 0.949 . S
H826 C830 0.949 . S
C827 C828 1.349 . S
C827 C829 1.327 . S
C827 H850 0.950 . S
C828 C827 1.349 . S
C828 C840 1.349 . S
C829 C827 1.327 . S
C829 C845 1.429 . S
C829 H851 0.950 . S
C830 H826 0.949 . S
C830 C838 1.574 . S
C830 C846 1.368 . S
H831 C839 0.950 . S
H832 C837 0.950 . S
H833 C838 0.949 . S
H834 C840 0.950 . S
H835 C841 0.950 . S
H836 C842 0.949 . S
C837 H832 0.950 . S
C837 C839 1.327 . S
C837 C843 1.429 . S
C838 C830 1.574 . S
C838 H833 0.949 . S
C838 C844 1.368 . S
C839 C823 1.349 . S
C839 H831 0.950 . S
C839 C837 1.327 . S
C840 C828 1.349 . S
C840 H834 0.950 . S
C840 C841 1.327 . S
C841 H835 0.950 . S
C841 C840 1.327 . S
C841 C845 1.429 . S
C842 C825 1.574 . S
C842 H836 0.949 . S
C842 C846 1.368 . S
C843 C824 1.429 . S
C843 C837 1.429 . S
C843 C844 1.523 . S
C844 C825 1.368 . S
C844 C838 1.368 . S
C844 C843 1.523 . S
C845 C829 1.429 . S
C845 C841 1.429 . S
C845 C846 1.523 . S
C846 C830 1.368 . S
C846 C842 1.368 . S
C846 C845 1.523 . S
H847 C822 0.950 . S
H848 C824 0.950 . S
H849 C825 0.949 . S
H850 C827 0.950 . S
H851 C829 0.950 . S
C852 C853 1.349 . S
C852 C854 1.327 . S
C852 H877 0.950 . S
C853 C852 1.349 . S
C853 C869 1.349 . S
C854 C852 1.327 . S
C854 C873 1.429 . S
C854 H878 0.950 . S
C855 C872 1.574 . S
C855 C874 1.368 . S
C855 H879 0.949 . S
H856 C860 0.949 . S
C857 C858 1.349 . S
C857 C859 1.327 . S
C857 H880 0.950 . S
C858 C857 1.349 . S
C858 C870 1.349 . S
C859 C857 1.327 . S
C859 C875 1.429 . S
C859 H881 0.950 . S
C860 H856 0.949 . S
C860 C868 1.574 . S
C860 C876 1.368 . S
H861 C869 0.950 . S
H862 C867 0.950 . S
H863 C868 0.949 . S
H864 C870 0.950 . S
H865 C871 0.950 . S
H866 C872 0.949 . S
C867 H862 0.950 . S
C867 C869 1.327 . S
C867 C873 1.429 . S
C868 C860 1.574 . S
C868 H863 0.949 . S
C868 C874 1.368 . S
C869 C853 1.349 . S
C869 H861 0.950 . S
C869 C867 1.327 . S
C870 C858 1.349 . S
C870 H864 0.950 . S
C870 C871 1.327 . S
C871 H865 0.950 . S
C871 C870 1.327 . S
C871 C875 1.429 . S
C872 C855 1.574 . S
C872 H866 0.949 . S
C872 C876 1.368 . S
C873 C854 1.429 . S
C873 C867 1.429 . S
C873 C874 1.523 . S
C874 C855 1.368 . S
C874 C868 1.368 . S
C874 C873 1.523 . S
C875 C859 1.429 . S
C875 C871 1.429 . S
C875 C876 1.523 . S
C876 C860 1.368 . S
C876 C872 1.368 . S
C876 C875 1.523 . S
H877 C852 0.950 . S
H878 C854 0.950 . S
H879 C855 0.949 . S
H880 C857 0.950 . S
H881 C859 0.950 . S
C882 C883 1.349 . S
C882 C884 1.327 . S
C882 H907 0.950 . S
C883 C882 1.349 . S
C883 C899 1.349 . S
C884 C882 1.327 . S
C884 C903 1.429 . S
C884 H908 0.950 . S
C885 C902 1.574 . S
C885 C904 1.368 . S
C885 H909 0.949 . S
H886 C890 0.949 . S
C887 C888 1.349 . S
C887 C889 1.327 . S
C887 H910 0.950 . S
C888 C887 1.349 . S
C888 C900 1.349 . S
C889 C887 1.327 . S
C889 C905 1.429 . S
C889 H911 0.950 . S
C890 H886 0.949 . S
C890 C898 1.574 . S
C890 C906 1.368 . S
H891 C899 0.950 . S
H892 C897 0.950 . S
H893 C898 0.949 . S
H894 C900 0.950 . S
H895 C901 0.950 . S
H896 C902 0.949 . S
C897 H892 0.950 . S
C897 C899 1.327 . S
C897 C903 1.429 . S
C898 C890 1.574 . S
C898 H893 0.949 . S
C898 C904 1.368 . S
C899 C883 1.349 . S
C899 H891 0.950 . S
C899 C897 1.327 . S
C900 C888 1.349 . S
C900 H894 0.950 . S
C900 C901 1.327 . S
C901 H895 0.950 . S
C901 C900 1.327 . S
C901 C905 1.429 . S
C902 C885 1.574 . S
C902 H896 0.949 . S
C902 C906 1.368 . S
C903 C884 1.429 . S
C903 C897 1.429 . S
C903 C904 1.523 . S
C904 C885 1.368 . S
C904 C898 1.368 . S
C904 C903 1.523 . S
C905 C889 1.429 . S
C905 C901 1.429 . S
C905 C906 1.523 . S
C906 C890 1.368 . S
C906 C902 1.368 . S
C906 C905 1.523 . S
H907 C882 0.950 . S
H908 C884 0.950 . S
H909 C885 0.949 . S
H910 C887 0.950 . S
H911 C889 0.950 . S
C912 C913 1.349 . S
C912 C914 1.327 . S
C912 H937 0.950 . S
C913 C912 1.349 . S
C913 C929 1.349 . S
C914 C912 1.327 . S
C914 C933 1.429 . S
C914 H938 0.950 . S
C915 C932 1.574 . S
C915 C934 1.368 . S
C915 H939 0.949 . S
H916 C920 0.949 . S
C917 C918 1.349 . S
C917 C919 1.327 . S
C917 H940 0.950 . S
C918 C917 1.349 . S
C918 C930 1.349 . S
C919 C917 1.327 . S
C919 C935 1.429 . S
C919 H941 0.950 . S
C920 H916 0.949 . S
C920 C928 1.574 . S
C920 C936 1.368 . S
H921 C929 0.950 . S
H922 C927 0.950 . S
H923 C928 0.949 . S
H924 C930 0.950 . S
H925 C931 0.950 . S
H926 C932 0.949 . S
C927 H922 0.950 . S
C927 C929 1.327 . S
C927 C933 1.429 . S
C928 C920 1.574 . S
C928 H923 0.949 . S
C928 C934 1.368 . S
C929 C913 1.349 . S
C929 H921 0.950 . S
C929 C927 1.327 . S
C930 C918 1.349 . S
C930 H924 0.950 . S
C930 C931 1.327 . S
C931 H925 0.950 . S
C931 C930 1.327 . S
C931 C935 1.429 . S
C932 C915 1.574 . S
C932 H926 0.949 . S
C932 C936 1.368 . S
C933 C914 1.429 . S
C933 C927 1.429 . S
C933 C934 1.523 . S
C934 C915 1.368 . S
C934 C928 1.368 . S
C934 C933 1.523 . S
C935 C919 1.429 . S
C935 C931 1.429 . S
C935 C936 1.523 . S
C936 C920 1.368 . S
C936 C932 1.368 . S
C936 C935 1.523 . S
H937 C912 0.950 . S
H938 C914 0.950 . S
H939 C915 0.949 . S
H940 C917 0.950 . S
H941 C919 0.950 . S
C942 C943 1.349 . S
C942 C944 1.327 . S
C942 H967 0.950 . S
C943 C942 1.349 . S
C943 C959 1.349 . S
C944 C942 1.327 . S
C944 C963 1.429 . S
C944 H968 0.950 . S
C945 C962 1.574 . S
C945 C964 1.368 . S
C945 H969 0.949 . S
H946 C950 0.949 . S
C947 C948 1.349 . S
C947 C949 1.327 . S
C947 H970 0.950 . S
C948 C947 1.349 . S
C948 C960 1.349 . S
C949 C947 1.327 . S
C949 C965 1.429 1_554 S
C949 H971 0.950 . S
C950 H946 0.949 . S
C950 C958 1.574 . S
C950 C966 1.368 . S
H951 C959 0.950 . S
H952 C957 0.950 . S
H953 C958 0.949 . S
H954 C960 0.950 . S
H955 C961 0.919 1_556 S
H956 C962 0.949 . S
C957 H952 0.950 . S
C957 C959 1.327 . S
C957 C963 1.429 . S
C958 C950 1.574 . S
C958 H953 0.949 . S
C958 C964 1.368 . S
C959 C943 1.349 . S
C959 H951 0.950 . S
C959 C957 1.327 . S
C960 C948 1.349 . S
C960 H954 0.950 . S
C960 C961 1.366 . S
C961 H955 0.919 1_554 S
C961 C960 1.366 . S
C961 C965 1.422 1_554 S
C962 C945 1.574 . S
C962 H956 0.949 . S
C962 C966 1.368 . S
C963 C944 1.429 . S
C963 C957 1.429 . S
C963 C964 1.523 . S
C964 C945 1.368 . S
C964 C958 1.368 . S
C964 C963 1.523 . S
C965 C949 1.429 1_556 S
C965 C961 1.422 1_556 S
C965 C966 1.523 . S
C966 C950 1.368 . S
C966 C962 1.368 . S
C966 C965 1.523 . S
H967 C942 0.950 . S
H968 C944 0.950 . S
H969 C945 0.949 . S
H970 C947 0.950 . S
H971 C949 0.950 . S
C972 C973 1.349 . S
C972 C974 1.327 . S
C972 H997 0.950 . S
C973 C972 1.349 . S
C973 C989 1.349 . S
C974 C972 1.327 . S
C974 C993 1.429 . S
C974 H998 0.950 . S
C975 C992 1.574 . S
C975 C994 1.368 . S
C975 H999 0.949 . S
H976 C980 0.949 . S
C977 C978 1.349 . S
C977 C979 1.327 . S
C977 H1000 0.950 . S
C978 C977 1.349 . S
C978 C990 1.349 . S
C979 C977 1.327 . S
C979 C995 1.429 . S
C979 H1001 0.950 . S
C980 H976 0.949 . S
C980 C988 1.574 . S
C980 C996 1.368 . S
H981 C989 0.950 . S
H982 C987 0.950 . S
H983 C988 0.949 . S
H984 C990 0.950 . S
H985 C991 0.950 . S
H986 C992 0.949 . S
C987 H982 0.950 . S
C987 C989 1.327 . S
C987 C993 1.429 . S
C988 C980 1.574 . S
C988 H983 0.949 . S
C988 C994 1.368 . S
C989 C973 1.349 . S
C989 H981 0.950 . S
C989 C987 1.327 . S
C990 C978 1.349 . S
C990 H984 0.950 . S
C990 C991 1.327 . S
C991 H985 0.950 . S
C991 C990 1.327 . S
C991 C995 1.429 . S
C992 C975 1.574 . S
C992 H986 0.949 . S
C992 C996 1.368 . S
C993 C974 1.429 . S
C993 C987 1.429 . S
C993 C994 1.523 . S
C994 C975 1.368 . S
C994 C988 1.368 . S
C994 C993 1.523 . S
C995 C979 1.429 . S
C995 C991 1.429 . S
C995 C996 1.523 . S
C996 C980 1.368 . S
C996 C992 1.368 . S
C996 C995 1.523 . S
H997 C972 0.950 . S
H998 C974 0.950 . S
H999 C975 0.949 . S
H1000 C977 0.950 . S
H1001 C979 0.950 . S
C1002 C1003 1.349 . S
C1002 C1004 1.327 . S
C1002 H1027 0.950 . S
C1003 C1002 1.349 . S
C1003 C1019 1.349 . S
C1004 C1002 1.327 . S
C1004 C1023 1.429 . S
C1004 H1028 0.950 . S
C1005 C1022 1.574 . S
C1005 C1024 1.368 . S
C1005 H1029 0.949 . S
H1006 C1010 0.949 . S
C1007 C1008 1.349 . S
C1007 C1009 1.327 . S
C1007 H1030 0.950 . S
C1008 C1007 1.349 . S
C1008 C1020 1.349 . S
C1009 C1007 1.327 . S
C1009 C1025 1.429 . S
C1009 H1031 0.950 . S
C1010 H1006 0.949 . S
C1010 C1018 1.574 . S
C1010 C1026 1.368 . S
H1011 C1019 0.950 . S
H1012 C1017 0.950 . S
H1013 C1018 0.949 . S
H1014 C1020 0.950 . S
H1015 C1021 0.950 . S
H1016 C1022 0.949 . S
C1017 H1012 0.950 . S
C1017 C1019 1.327 . S
C1017 C1023 1.429 . S
C1018 C1010 1.574 . S
C1018 H1013 0.949 . S
C1018 C1024 1.368 . S
C1019 C1003 1.349 . S
C1019 H1011 0.950 . S
C1019 C1017 1.327 . S
C1020 C1008 1.349 . S
C1020 H1014 0.950 . S
C1020 C1021 1.327 . S
C1021 H1015 0.950 . S
C1021 C1020 1.327 . S
C1021 C1025 1.429 . S
C1022 C1005 1.574 . S
C1022 H1016 0.949 . S
C1022 C1026 1.368 . S
C1023 C1004 1.429 . S
C1023 C1017 1.429 . S
C1023 C1024 1.523 . S
C1024 C1005 1.368 . S
C1024 C1018 1.368 . S
C1024 C1023 1.523 . S
C1025 C1009 1.429 . S
C1025 C1021 1.429 . S
C1025 C1026 1.523 . S
C1026 C1010 1.368 . S
C1026 C1022 1.368 . S
C1026 C1025 1.523 . S
H1027 C1002 0.950 . S
H1028 C1004 0.950 . S
H1029 C1005 0.949 . S
H1030 C1007 0.950 . S
H1031 C1009 0.950 . S
C1032 C1033 1.349 . S
C1032 C1034 1.327 . S
C1032 H1057 0.950 . S
C1033 C1032 1.349 . S
C1033 C1049 1.349 . S
C1034 C1032 1.327 . S
C1034 C1053 1.429 . S
C1034 H1058 0.950 . S
C1035 C1052 1.574 . S
C1035 C1054 1.368 . S
C1035 H1059 0.949 . S
H1036 C1040 0.949 . S
C1037 C1038 1.349 . S
C1037 C1039 1.327 . S
C1037 H1060 0.950 . S
C1038 C1037 1.349 . S
C1038 C1050 1.349 . S
C1039 C1037 1.327 . S
C1039 C1055 1.429 . S
C1039 H1061 0.950 . S
C1040 H1036 0.949 . S
C1040 C1048 1.574 . S
C1040 C1056 1.368 . S
H1041 C1049 0.950 . S
H1042 C1047 0.950 . S
H1043 C1048 0.949 . S
H1044 C1050 0.950 . S
H1045 C1051 0.950 . S
H1046 C1052 0.949 . S
C1047 H1042 0.950 . S
C1047 C1049 1.327 . S
C1047 C1053 1.429 . S
C1048 C1040 1.574 . S
C1048 H1043 0.949 . S
C1048 C1054 1.368 . S
C1049 C1033 1.349 . S
C1049 H1041 0.950 . S
C1049 C1047 1.327 . S
C1050 C1038 1.349 . S
C1050 H1044 0.950 . S
C1050 C1051 1.327 . S
C1051 H1045 0.950 . S
C1051 C1050 1.327 . S
C1051 C1055 1.429 . S
C1052 C1035 1.574 . S
C1052 H1046 0.949 . S
C1052 C1056 1.368 . S
C1053 C1034 1.429 . S
C1053 C1047 1.429 . S
C1053 C1054 1.523 . S
C1054 C1035 1.368 . S
C1054 C1048 1.368 . S
C1054 C1053 1.523 . S
C1055 C1039 1.429 . S
C1055 C1051 1.429 . S
C1055 C1056 1.523 . S
C1056 C1040 1.368 . S
C1056 C1052 1.368 . S
C1056 C1055 1.523 . S
H1057 C1032 0.950 . S
H1058 C1034 0.950 . S
H1059 C1035 0.949 . S
H1060 C1037 0.950 . S
H1061 C1039 0.950 . S
C1062 C1063 1.349 . S
C1062 C1064 1.327 . S
C1062 H1087 0.950 . S
C1063 C1062 1.349 . S
C1063 C1079 1.349 . S
C1064 C1062 1.327 . S
C1064 C1083 1.429 . S
C1064 H1088 0.950 . S
C1065 C1082 1.574 . S
C1065 C1084 1.368 . S
C1065 H1089 0.949 . S
H1066 C1070 0.949 . S
C1067 C1068 1.349 . S
C1067 C1069 1.327 . S
C1067 H1090 0.950 . S
C1068 C1067 1.349 . S
C1068 C1080 1.349 . S
C1069 C1067 1.327 . S
C1069 C1085 1.429 . S
C1069 H1091 0.950 . S
C1070 H1066 0.949 . S
C1070 C1078 1.574 . S
C1070 C1086 1.368 . S
H1071 C1079 0.950 . S
H1072 C1077 0.950 . S
H1073 C1078 0.949 . S
H1074 C1080 0.950 . S
H1075 C1081 0.950 . S
H1076 C1082 0.949 . S
C1077 H1072 0.950 . S
C1077 C1079 1.327 . S
C1077 C1083 1.429 . S
C1078 C1070 1.574 . S
C1078 H1073 0.949 . S
C1078 C1084 1.368 . S
C1079 C1063 1.349 . S
C1079 H1071 0.950 . S
C1079 C1077 1.327 . S
C1080 C1068 1.349 . S
C1080 H1074 0.950 . S
C1080 C1081 1.327 . S
C1081 H1075 0.950 . S
C1081 C1080 1.327 . S
C1081 C1085 1.429 . S
C1082 C1065 1.574 . S
C1082 H1076 0.949 . S
C1082 C1086 1.368 . S
C1083 C1064 1.429 . S
C1083 C1077 1.429 . S
C1083 C1084 1.523 . S
C1084 C1065 1.368 . S
C1084 C1078 1.368 . S
C1084 C1083 1.523 . S
C1085 C1069 1.429 . S
C1085 C1081 1.429 . S
C1085 C1086 1.523 . S
C1086 C1070 1.368 . S
C1086 C1082 1.368 . S
C1086 C1085 1.523 . S
H1087 C1062 0.950 . S
H1088 C1064 0.950 . S
H1089 C1065 0.949 . S
H1090 C1067 0.950 . S
H1091 C1069 0.950 . S
C1092 C1093 1.349 . S
C1092 C1094 1.327 . S
C1092 H1117 0.950 . S
C1093 C1092 1.349 . S
C1093 C1109 1.349 . S
C1094 C1092 1.327 . S
C1094 C1113 1.429 . S
C1094 H1118 0.950 . S
C1095 C1112 1.574 . S
C1095 C1114 1.368 . S
C1095 H1119 0.949 . S
H1096 C1100 0.949 . S
C1097 C1098 1.349 . S
C1097 C1099 1.327 . S
C1097 H1120 0.950 . S
C1098 C1097 1.349 . S
C1098 C1110 1.349 . S
C1099 C1097 1.327 . S
C1099 C1115 1.429 . S
C1099 H1121 0.950 . S
C1100 H1096 0.949 . S
C1100 C1108 1.574 . S
C1100 C1116 1.368 . S
H1101 C1109 0.950 . S
H1102 C1107 0.950 . S
H1103 C1108 0.949 . S
H1104 C1110 0.950 . S
H1105 C1111 0.950 . S
H1106 C1112 0.949 . S
C1107 H1102 0.950 . S
C1107 C1109 1.327 . S
C1107 C1113 1.429 . S
C1108 C1100 1.574 . S
C1108 H1103 0.949 . S
C1108 C1114 1.368 . S
C1109 C1093 1.349 . S
C1109 H1101 0.950 . S
C1109 C1107 1.327 . S
C1110 C1098 1.349 . S
C1110 H1104 0.950 . S
C1110 C1111 1.327 . S
C1111 H1105 0.950 . S
C1111 C1110 1.327 . S
C1111 C1115 1.429 . S
C1112 C1095 1.574 . S
C1112 H1106 0.949 . S
C1112 C1116 1.368 . S
C1113 C1094 1.429 . S
C1113 C1107 1.429 . S
C1113 C1114 1.523 . S
C1114 C1095 1.368 . S
C1114 C1108 1.368 . S
C1114 C1113 1.523 . S
C1115 C1099 1.429 . S
C1115 C1111 1.429 . S
C1115 C1116 1.523 . S
C1116 C1100 1.368 . S
C1116 C1112 1.368 . S
C1116 C1115 1.523 . S
H1117 C1092 0.950 . S
H1118 C1094 0.950 . S
H1119 C1095 0.949 . S
H1120 C1097 0.950 . S
H1121 C1099 0.950 . S
C1122 C1123 1.349 . S
C1122 C1124 1.327 . S
C1122 H1147 0.950 . S
C1123 C1122 1.349 . S
C1123 C1139 1.349 . S
C1124 C1122 1.327 . S
C1124 C1143 1.429 . S
C1124 H1148 0.950 . S
C1125 C1142 1.574 . S
C1125 C1144 1.368 . S
C1125 H1149 0.949 . S
H1126 C1130 0.949 . S
C1127 C1128 1.349 . S
C1127 C1129 1.327 . S
C1127 H1150 0.950 . S
C1128 C1127 1.349 . S
C1128 C1140 1.349 . S
C1129 C1127 1.327 . S
C1129 C1145 1.429 . S
C1129 H1151 0.950 . S
C1130 H1126 0.949 . S
C1130 C1138 1.574 . S
C1130 C1146 1.368 . S
H1131 C1139 0.950 . S
H1132 C1137 0.950 . S
H1133 C1138 0.949 . S
H1134 C1140 0.950 . S
H1135 C1141 0.950 . S
H1136 C1142 0.949 . S
C1137 H1132 0.950 . S
C1137 C1139 1.327 . S
C1137 C1143 1.429 . S
C1138 C1130 1.574 . S
C1138 H1133 0.949 . S
C1138 C1144 1.368 . S
C1139 C1123 1.349 . S
C1139 H1131 0.950 . S
C1139 C1137 1.327 . S
C1140 C1128 1.349 . S
C1140 H1134 0.950 . S
C1140 C1141 1.327 . S
C1141 H1135 0.950 . S
C1141 C1140 1.327 . S
C1141 C1145 1.429 . S
C1142 C1125 1.574 . S
C1142 H1136 0.949 . S
C1142 C1146 1.368 . S
C1143 C1124 1.429 . S
C1143 C1137 1.429 . S
C1143 C1144 1.523 . S
C1144 C1125 1.368 . S
C1144 C1138 1.368 . S
C1144 C1143 1.523 . S
C1145 C1129 1.429 . S
C1145 C1141 1.429 . S
C1145 C1146 1.523 . S
C1146 C1130 1.368 . S
C1146 C1142 1.368 . S
C1146 C1145 1.523 . S
H1147 C1122 0.950 . S
H1148 C1124 0.950 . S
H1149 C1125 0.949 . S
H1150 C1127 0.950 . S
H1151 C1129 0.950 . S
C1152 C1153 1.349 . S
C1152 C1154 1.327 . S
C1152 H1177 0.950 . S
C1153 C1152 1.349 . S
C1153 C1169 1.349 . S
C1154 C1152 1.327 . S
C1154 C1173 1.429 . S
C1154 H1178 0.950 . S
C1155 C1172 1.563 1_554 S
C1155 C1174 1.368 . S
C1155 H1179 0.949 . S
H1156 C1160 0.949 . S
C1157 C1158 1.349 . S
C1157 C1159 1.327 . S
C1157 H1180 0.950 . S
C1158 C1157 1.349 . S
C1158 C1170 1.349 . S
C1159 C1157 1.327 . S
C1159 C1175 1.429 . S
C1159 H1181 0.950 . S
C1160 H1156 0.949 . S
C1160 C1168 1.574 . S
C1160 C1176 1.368 1_554 S
H1161 C1169 0.950 . S
H1162 C1167 0.950 . S
H1163 C1168 0.949 . S
H1164 C1170 0.950 . S
H1165 C1171 0.950 . S
H1166 C1172 0.957 . S
C1167 H1162 0.950 . S
C1167 C1169 1.327 . S
C1167 C1173 1.429 . S
C1168 C1160 1.574 . S
C1168 H1163 0.949 . S
C1168 C1174 1.368 . S
C1169 C1153 1.349 . S
C1169 H1161 0.950 . S
C1169 C1167 1.327 . S
C1170 C1158 1.349 . S
C1170 H1164 0.950 . S
C1170 C1171 1.327 . S
C1171 H1165 0.950 . S
C1171 C1170 1.327 . S
C1171 C1175 1.429 . S
C1172 C1155 1.563 1_556 S
C1172 H1166 0.957 . S
C1172 C1176 1.370 . S
C1173 C1154 1.429 . S
C1173 C1167 1.429 . S
C1173 C1174 1.523 . S
C1174 C1155 1.368 . S
C1174 C1168 1.368 . S
C1174 C1173 1.523 . S
C1175 C1159 1.429 . S
C1175 C1171 1.429 . S
C1175 C1176 1.523 . S
C1176 C1160 1.368 1_556 S
C1176 C1172 1.370 . S
C1176 C1175 1.523 . S
H1177 C1152 0.950 . S
H1178 C1154 0.950 . S
H1179 C1155 0.949 . S
H1180 C1157 0.950 . S
H1181 C1159 0.950 . S
C1182 C1183 1.349 . S
C1182 C1184 1.327 . S
C1182 H1207 0.950 . S
C1183 C1182 1.349 . S
C1183 C1199 1.349 . S
C1184 C1182 1.327 . S
C1184 C1203 1.429 . S
C1184 H1208 0.950 . S
C1185 C1202 1.574 . S
C1185 C1204 1.368 . S
C1185 H1209 0.949 . S
H1186 C1190 0.949 . S
C1187 C1188 1.349 . S
C1187 C1189 1.327 . S
C1187 H1210 0.950 . S
C1188 C1187 1.349 . S
C1188 C1200 1.349 . S
C1189 C1187 1.327 . S
C1189 C1205 1.429 . S
C1189 H1211 0.950 . S
C1190 H1186 0.949 . S
C1190 C1198 1.574 . S
C1190 C1206 1.368 . S
H1191 C1199 0.950 . S
H1192 C1197 0.950 . S
H1193 C1198 0.949 . S
H1194 C1200 0.950 . S
H1195 C1201 0.950 . S
H1196 C1202 0.949 . S
C1197 H1192 0.950 . S
C1197 C1199 1.327 . S
C1197 C1203 1.429 . S
C1198 C1190 1.574 . S
C1198 H1193 0.949 . S
C1198 C1204 1.368 . S
C1199 C1183 1.349 . S
C1199 H1191 0.950 . S
C1199 C1197 1.327 . S
C1200 C1188 1.349 . S
C1200 H1194 0.950 . S
C1200 C1201 1.327 . S
C1201 H1195 0.950 . S
C1201 C1200 1.327 . S
C1201 C1205 1.429 . S
C1202 C1185 1.574 . S
C1202 H1196 0.949 . S
C1202 C1206 1.368 . S
C1203 C1184 1.429 . S
C1203 C1197 1.429 . S
C1203 C1204 1.523 . S
C1204 C1185 1.368 . S
C1204 C1198 1.368 . S
C1204 C1203 1.523 . S
C1205 C1189 1.429 . S
C1205 C1201 1.429 . S
C1205 C1206 1.523 . S
C1206 C1190 1.368 . S
C1206 C1202 1.368 . S
C1206 C1205 1.523 . S
H1207 C1182 0.950 . S
H1208 C1184 0.950 . S
H1209 C1185 0.949 . S
H1210 C1187 0.950 . S
H1211 C1189 0.950 . S
C498 C459 1.592 . S
C493 C15 1.574 . S
C523 C61 1.611 . S
C528 C279 1.631 . S
C553 C114 1.580 . S
C558 C326 1.574 . S
C583 C139 1.531 . S
C588 C362 1.512 . S
C618 C387 1.570 . S
C613 C185 1.563 . S
C643 C245 1.558 . S
C648 C423 1.576 . S
C673 C47 1.614 . S
C678 C315 1.623 . S
C703 C100 1.566 . S
C708 C351 1.573 . S
C733 C153 1.513 . S
C738 C398 1.502 . S
C768 C434 1.552 . S
C763 C199 1.559 . S
C798 C470 1.560 . S
C793 C231 1.577 . S
C828 C290 1.578 . S
C823 C1 1.594 . S
C853 C22 1.464 . S
C858 C314 1.455 . S
C883 C68 1.486 . S
C888 C350 1.478 . S
C918 C388 1.483 . S
C913 C107 1.486 . S
C943 C146 1.485 . S
C948 C424 1.481 . S
C978 C460 1.453 . S
C973 C192 1.457 . S
C1008 C280 1.437 . S
C1003 C252 1.440 . S
C1038 C458 1.455 . S
C1033 C54 1.465 . S
C1063 C93 1.461 . S
C1068 C278 1.451 . S
C1098 C316 1.460 . S
C1093 C160 1.463 . S
C1123 C206 1.483 . S
C1128 C352 1.480 . S
C1153 C238 1.511 . S
C1158 C386 1.502 . S
C1183 C8 1.491 . S
C1188 C422 1.481 . S
