# Generated by pormake.
# Topology pyr, (3,6)-cn, num edge types: 1
# Building blocks:
#     Node 0, Type 0, BuildingBlock: BETDAH_clean_linker_0, # of connection points: 3
#     Node 1, Type 0, BuildingBlock: BETDAH_clean_linker_0, # of connection points: 3
#     Node 2, Type 0, BuildingBlock: BETDAH_clean_linker_0, # of connection points: 3
#     Node 3, Type 0, BuildingBlock: BETDAH_clean_linker_0, # of connection points: 3
#     Node 4, Type 0, BuildingBlock: BETDAH_clean_linker_0, # of connection points: 3
#     Node 5, Type 0, BuildingBlock: BETDAH_clean_linker_0, # of connection points: 3
#     Node 6, Type 0, BuildingBlock: BETDAH_clean_linker_0, # of connection points: 3
#     Node 7, Type 0, BuildingBlock: BETDAH_clean_linker_0, # of connection points: 3
#     Node 8, Type 1, BuildingBlock: VOLQOD_clean_sbu_1, # of connection points: 6
#     Node 9, Type 1, BuildingBlock: VOLQOD_clean_sbu_1, # of connection points: 6
#     Node 10, Type 1, BuildingBlock: VOLQOD_clean_sbu_1, # of connection points: 6
#     Node 11, Type 1, BuildingBlock: VOLQOD_clean_sbu_1, # of connection points: 6
#     Edge 12, Type (0, 1), BuildingBlock: UVAHIK_clean_linker_0, # of connection points: 2
#     Edge 13, Type (0, 1), BuildingBlock: UVAHIK_clean_linker_0, # of connection points: 2
#     Edge 14, Type (0, 1), BuildingBlock: UVAHIK_clean_linker_0, # of connection points: 2
#     Edge 15, Type (0, 1), BuildingBlock: UVAHIK_clean_linker_0, # of connection points: 2
#     Edge 16, Type (0, 1), BuildingBlock: UVAHIK_clean_linker_0, # of connection points: 2
#     Edge 17, Type (0, 1), BuildingBlock: UVAHIK_clean_linker_0, # of connection points: 2
#     Edge 18, Type (0, 1), BuildingBlock: UVAHIK_clean_linker_0, # of connection points: 2
#     Edge 19, Type (0, 1), BuildingBlock: UVAHIK_clean_linker_0, # of connection points: 2
#     Edge 20, Type (0, 1), BuildingBlock: UVAHIK_clean_linker_0, # of connection points: 2
#     Edge 21, Type (0, 1), BuildingBlock: UVAHIK_clean_linker_0, # of connection points: 2
#     Edge 22, Type (0, 1), BuildingBlock: UVAHIK_clean_linker_0, # of connection points: 2
#     Edge 23, Type (0, 1), BuildingBlock: UVAHIK_clean_linker_0, # of connection points: 2
#     Edge 24, Type (0, 1), BuildingBlock: UVAHIK_clean_linker_0, # of connection points: 2
#     Edge 25, Type (0, 1), BuildingBlock: UVAHIK_clean_linker_0, # of connection points: 2
#     Edge 26, Type (0, 1), BuildingBlock: UVAHIK_clean_linker_0, # of connection points: 2
#     Edge 27, Type (0, 1), BuildingBlock: UVAHIK_clean_linker_0, # of connection points: 2
#     Edge 28, Type (0, 1), BuildingBlock: UVAHIK_clean_linker_0, # of connection points: 2
#     Edge 29, Type (0, 1), BuildingBlock: UVAHIK_clean_linker_0, # of connection points: 2
#     Edge 30, Type (0, 1), BuildingBlock: UVAHIK_clean_linker_0, # of connection points: 2
#     Edge 31, Type (0, 1), BuildingBlock: UVAHIK_clean_linker_0, # of connection points: 2
#     Edge 32, Type (0, 1), BuildingBlock: UVAHIK_clean_linker_0, # of connection points: 2
#     Edge 33, Type (0, 1), BuildingBlock: UVAHIK_clean_linker_0, # of connection points: 2
#     Edge 34, Type (0, 1), BuildingBlock: UVAHIK_clean_linker_0, # of connection points: 2
#     Edge 35, Type (0, 1), BuildingBlock: UVAHIK_clean_linker_0, # of connection points: 2
# Relax obj value: 0.102
# Max RMSD: 0.190
# Mean RMSD: 0.149
data_MOF--net-pry--node1-VOLQOD_clean_sbu_1--node2-BETDAH_clean_linker_0--edge1-UVAHIK_clean_linker_0
_symmetry_space_group_name_H-M    P1
_symmetry_Int_Tables_number       1
_symmetry_cell_setting            triclinic
loop_
_symmetry_equiv_pos_as_xyz
'x, y, z'
_cell_length_a     46.242247
_cell_length_b     46.941584
_cell_length_c     48.910611
_cell_angle_alpha  90.620616
_cell_angle_beta   90.742216
_cell_angle_gamma 96.480424
loop_
_atom_site_label
_atom_site_type_symbol
_atom_site_fract_x
_atom_site_fract_y
_atom_site_fract_z
_atom_type_partial_charge
H0 H 0.1689 0.1328 0.19372 0.0
H1 H 0.15204 0.18686 0.12578 0.0
H2 H 0.08899 0.17092 0.18907 0.0
C3 C 0.15533 0.14684 0.18343 0.0
C4 C 0.12839 0.15094 0.19475 0.0
C5 C 0.1642 0.15948 0.15844 0.0
C6 C 0.14564 0.17691 0.14498 0.0
C7 C 0.11841 0.18084 0.15611 0.0
C8 C 0.10994 0.16761 0.18066 0.0
N9 N 0.0982 0.19683 0.14284 0.0
C10 C 0.10508 0.21925 0.1249 0.0
H11 H 0.42518 0.86276 0.70864 0.0
H12 H 0.39172 0.94268 0.68999 0.0
H13 H 0.40884 0.88519 0.62526 0.0
C14 C 0.41781 0.87757 0.69397 0.0
C15 C 0.41816 0.87068 0.66592 0.0
C16 C 0.40867 0.90369 0.70311 0.0
C17 C 0.39844 0.92228 0.68367 0.0
C18 C 0.39858 0.91545 0.65569 0.0
C19 C 0.40887 0.89008 0.64697 0.0
N20 N 0.38994 0.93453 0.63575 0.0
C21 C 0.36343 0.94572 0.63663 0.0
H22 H 0.63969 0.39139 0.9582 0.0
H23 H 0.61987 0.47522 0.93445 0.0
H24 H 0.55092 0.40688 0.94303 0.0
C25 C 0.62399 0.40572 0.95218 0.0
C26 C 0.59425 0.39547 0.95103 0.0
C27 C 0.63353 0.43452 0.94656 0.0
C28 C 0.61293 0.45306 0.93935 0.0
C29 C 0.58324 0.44302 0.93821 0.0
C30 C 0.57393 0.41444 0.94434 0.0
N31 N 0.56264 0.46142 0.93014 0.0
C32 C 0.55949 0.46785 0.90274 0.0
H33 H 0.87946 0.66018 0.45546 0.0
H34 H 0.93713 0.64102 0.39111 0.0
H35 H 0.86744 0.57812 0.41417 0.0
C36 C 0.8859 0.64537 0.44015 0.0
C37 C 0.86992 0.61828 0.43673 0.0
C38 C 0.91006 0.65379 0.42377 0.0
C39 C 0.91839 0.63479 0.40367 0.0
C40 C 0.90325 0.60719 0.40087 0.0
C41 C 0.87931 0.59916 0.41735 0.0
N42 N 0.91203 0.5864 0.38249 0.0
C43 C 0.92439 0.59243 0.35721 0.0
H44 H 0.92718 0.89645 0.87596 0.0
H45 H 0.90001 0.92329 0.95516 0.0
H46 H 0.90169 0.98112 0.88789 0.0
C47 C 0.91967 0.91273 0.88913 0.0
C48 C 0.91482 0.93939 0.87818 0.0
C49 C 0.91485 0.90673 0.91693 0.0
C50 C 0.90355 0.9273 0.93361 0.0
C51 C 0.89856 0.95394 0.92291 0.0
C52 C 0.90464 0.96004 0.8955 0.0
N53 N 0.88996 0.97582 0.94007 0.0
C54 C 0.8626 0.97394 0.95169 0.0
H55 H 0.64789 0.09588 0.38958 0.0
H56 H 0.63809 0.11873 0.47425 0.0
H57 H 0.57272 0.13492 0.41539 0.0
C58 C 0.63603 0.10547 0.40556 0.0
C59 C 0.60932 0.11562 0.39907 0.0
C60 C 0.64695 0.10654 0.43259 0.0
C61 C 0.63026 0.11743 0.45326 0.0
C62 C 0.60379 0.12781 0.4471 0.0
C63 C 0.59338 0.12708 0.42 0.0
N64 N 0.58742 0.13771 0.46878 0.0
C65 C 0.57653 0.16407 0.46845 0.0
H66 H 0.38472 0.66981 0.11776 0.0
H67 H 0.39159 0.57966 0.12653 0.0
H68 H 0.45697 0.6419 0.16224 0.0
C69 C 0.39615 0.65256 0.12547 0.0
C70 C 0.42225 0.65922 0.14028 0.0
C71 C 0.38482 0.62399 0.12033 0.0
C72 C 0.39993 0.60188 0.13036 0.0
C73 C 0.42551 0.60822 0.14592 0.0
C74 C 0.43683 0.63695 0.1507 0.0
N75 N 0.43939 0.58537 0.15678 0.0
C76 C 0.44964 0.58605 0.18359 0.0
H77 H 0.12252 0.39619 0.59049 0.0
H78 H 0.10391 0.47941 0.61815 0.0
H79 H 0.03386 0.41297 0.60244 0.0
C80 C 0.10688 0.41068 0.59615 0.0
C81 C 0.07702 0.40084 0.59575 0.0
C82 C 0.11682 0.43908 0.60378 0.0
C83 C 0.09655 0.45758 0.61178 0.0
C84 C 0.06666 0.44801 0.6114 0.0
C85 C 0.05701 0.41996 0.60289 0.0
N86 N 0.04598 0.46619 0.61986 0.0
C87 C 0.04957 0.48162 0.64426 0.0
O88 O 0.99614 0.08253 0.55362 0.0
Zn89 Zn 0.98037 0.04094 0.54814 0.0
O90 O 0.00703 0.02075 0.5262 0.0
Zn91 Zn 0.98821 0.00875 0.49121 0.0
Zn92 Zn 0.04272 0.0461 0.51914 0.0
Zn93 Zn 0.01687 0.98725 0.54625 0.0
O94 O 0.98601 0.96586 0.48628 0.0
O95 O 0.00502 0.95076 0.52472 0.0
O96 O 0.94125 0.04021 0.52935 0.0
O97 O 0.94742 0.02014 0.48881 0.0
O98 O 0.01057 0.02659 0.45946 0.0
O99 O 0.05011 0.05007 0.47868 0.0
O100 O 0.07787 0.03179 0.5371 0.0
O101 O 0.97383 0.02306 0.58519 0.0
O102 O 0.05997 0.98992 0.5541 0.0
O103 O 0.99762 0.98462 0.58307 0.0
C104 C 0.01961 0.09723 0.54645 0.0
C105 C 0.99334 0.94568 0.50116 0.0
C106 C 0.035 0.04187 0.45749 0.0
C107 C 0.93161 0.03194 0.50573 0.0
C108 C 0.08134 0.00888 0.54989 0.0
C109 C 0.98174 0.00056 0.59596 0.0
O110 O 0.03909 0.08583 0.53338 0.0
O111 O 0.49164 0.08686 0.01627 0.0
Zn112 Zn 0.47196 0.04732 0.02463 0.0
O113 O 0.49655 0.0275 0.04947 0.0
Zn114 Zn 0.50827 0.99387 0.03074 0.0
Zn115 Zn 0.53175 0.05259 0.06024 0.0
Zn116 Zn 0.47445 0.01582 0.08222 0.0
O117 O 0.49726 0.95862 0.0527 0.0
O118 O 0.47054 0.9727 0.08668 0.0
O119 O 0.46356 0.02523 0.98898 0.0
O120 O 0.48915 0.98824 0.99355 0.0
O121 O 0.55161 0.99675 0.02552 0.0
O122 O 0.56838 0.03687 0.04755 0.0
O123 O 0.53481 0.05841 0.10124 0.0
O124 O 0.43351 0.05292 0.04204 0.0
O125 O 0.49494 0.03293 0.11617 0.0
O126 O 0.43497 0.03039 0.08164 0.0
C127 C 0.51455 0.10154 0.02571 0.0
C128 C 0.48198 0.95309 0.07387 0.0
C129 C 0.57276 0.01469 0.03363 0.0
C130 C 0.4721 0.00217 0.97965 0.0
C131 C 0.51843 0.04927 0.12076 0.0
C132 C 0.42194 0.04512 0.06465 0.0
O133 O 0.53115 0.09113 0.04304 0.0
O134 O 0.53029 0.53275 0.60418 0.0
Zn135 Zn 0.52795 0.54976 0.56673 0.0
O136 O 0.50136 0.52471 0.54304 0.0
Zn137 Zn 0.52311 0.51063 0.51286 0.0
Zn138 Zn 0.48365 0.4917 0.56357 0.0
Zn139 Zn 0.4711 0.54673 0.52861 0.0
O140 O 0.50944 0.52493 0.47694 0.0
O141 O 0.47331 0.55025 0.48748 0.0
O142 O 0.56866 0.55521 0.5516 0.0
O143 O 0.56568 0.52424 0.51671 0.0
O144 O 0.51903 0.46764 0.51083 0.0
O145 O 0.49224 0.45396 0.54665 0.0
O146 O 0.44005 0.49155 0.56461 0.0
O147 O 0.51392 0.58858 0.57195 0.0
O148 O 0.43127 0.52825 0.53868 0.0
O149 O 0.4747 0.58658 0.54509 0.0
C150 C 0.51739 0.51066 0.61556 0.0
C151 C 0.48976 0.54037 0.46985 0.0
C152 C 0.50644 0.44794 0.52559 0.0
C153 C 0.58044 0.54252 0.53224 0.0
C154 C 0.42232 0.50702 0.55354 0.0
C155 C 0.49247 0.6001 0.56209 0.0
O156 O 0.49885 0.49331 0.60247 0.0
O157 O 0.99019 0.54448 0.06363 0.0
Zn158 Zn 0.99245 0.52881 0.02526 0.0
O159 O 0.0152 0.55672 0.00219 0.0
Zn160 Zn 0.9906 0.56854 0.97272 0.0
Zn161 Zn 0.03038 0.59075 0.02401 0.0
Zn162 Zn 0.04725 0.53866 0.98618 0.0
O163 O 0.00695 0.56089 0.93585 0.0
O164 O 0.04565 0.53846 0.94488 0.0
O165 O 0.95131 0.51973 0.01057 0.0
O166 O 0.95054 0.54725 0.974 0.0
O167 O 0.98643 0.6106 0.97524 0.0
O168 O 0.01577 0.62699 0.00951 0.0
O169 O 0.07444 0.59548 0.02483 0.0
O170 O 0.01085 0.4917 0.02769 0.0
O171 O 0.08537 0.55975 0.99814 0.0
O172 O 0.04801 0.49818 0.99933 0.0
C173 C 0.00106 0.56748 0.07572 0.0
C174 C 0.02854 0.54857 0.92783 0.0
C175 C 0.99781 0.63121 0.99037 0.0
C176 C 0.93794 0.52875 0.99001 0.0
C177 C 0.09315 0.58139 0.01349 0.0
C178 C 0.03267 0.48262 0.01612 0.0
O179 O 0.01702 0.5868 0.06305 0.0
C180 C 0.13908 0.13924 0.24353 0.0
C181 C 0.11946 0.13778 0.22125 0.0
C182 C 0.1304 0.12772 0.26877 0.0
C183 C 0.06421 0.10559 0.30871 0.0
H184 H 0.11744 0.06777 0.35398 0.0
C185 C 0.02747 0.04563 0.40683 0.0
C186 C 0.04556 0.05098 0.43009 0.0
C187 C 0.03688 0.05526 0.38116 0.0
C188 C 0.10242 0.07847 0.34164 0.0
H189 H 0.07563 0.12233 0.2077 0.0
H190 H 0.06056 0.10183 0.25155 0.0
H191 H 0.13305 0.08602 0.30937 0.0
H192 H 0.08802 0.07023 0.4444 0.0
H193 H 0.10444 0.08692 0.39951 0.0
H194 H 0.03353 0.09781 0.34093 0.0
C195 C 0.08247 0.11248 0.24978 0.0
C196 C 0.11136 0.08899 0.3161 0.0
C197 C 0.0911 0.12416 0.22462 0.0
C198 C 0.0735 0.06575 0.42694 0.0
C199 C 0.08299 0.07519 0.4012 0.0
C200 C 0.05523 0.09491 0.33415 0.0
C201 C 0.10192 0.11432 0.27226 0.0
C202 C 0.09238 0.10273 0.29932 0.0
C203 C 0.06467 0.07028 0.37808 0.0
C204 C 0.07424 0.08128 0.35092 0.0
H205 H 0.16098 0.1499 0.24163 0.0
H206 H 0.14584 0.12993 0.2857 0.0
H207 H 0.04919 0.11653 0.29663 0.0
H208 H 0.00583 0.03431 0.40846 0.0
H209 H 0.0224 0.05085 0.36366 0.0
C210 C 0.39099 0.92814 0.74506 0.0
C211 C 0.4114 0.91219 0.73263 0.0
C212 C 0.39455 0.93715 0.77241 0.0
C213 C 0.43017 0.92111 0.83715 0.0
H214 H 0.42733 0.00135 0.8553 0.0
C215 C 0.47607 0.96953 0.93933 0.0
C216 C 0.46244 0.99138 0.952 0.0
C217 C 0.46741 0.95944 0.91319 0.0
C218 C 0.42769 0.97876 0.85077 0.0
H219 H 0.45182 0.89364 0.73956 0.0
H220 H 0.45734 0.90849 0.78725 0.0
H221 H 0.41577 0.98405 0.80875 0.0
H222 H 0.42866 0.01952 0.94713 0.0
H223 H 0.413 0.00139 0.90174 0.0
H224 H 0.4418 0.91555 0.87901 0.0
C225 C 0.43851 0.91386 0.77582 0.0
C226 C 0.42113 0.9689 0.82404 0.0
C227 C 0.43521 0.90521 0.74845 0.0
C228 C 0.43974 0.00277 0.93791 0.0
C229 C 0.43086 0.99245 0.9118 0.0
C230 C 0.43639 0.93086 0.8639 0.0
C231 C 0.41836 0.93008 0.78805 0.0
C232 C 0.42281 0.94008 0.81686 0.0
C233 C 0.44463 0.97067 0.89905 0.0
C234 C 0.43579 0.95994 0.87099 0.0
H235 H 0.37217 0.9336 0.73371 0.0
H236 H 0.37856 0.94945 0.78141 0.0
H237 H 0.43121 0.89869 0.83227 0.0
H238 H 0.49379 0.9604 0.94946 0.0
H239 H 0.47901 0.94313 0.9039 0.0
C240 C 0.57288 0.49514 0.8612 0.0
C241 C 0.55602 0.47259 0.87396 0.0
C242 C 0.56981 0.49922 0.83307 0.0
C243 C 0.54353 0.46123 0.76938 0.0
H244 H 0.5411 0.5379 0.74138 0.0
C245 C 0.50841 0.48226 0.65841 0.0
C246 C 0.52357 0.50547 0.64479 0.0
C247 C 0.51355 0.47798 0.6862 0.0
C248 C 0.54212 0.51638 0.74882 0.0
H249 H 0.52296 0.43656 0.86818 0.0
H250 H 0.51723 0.44373 0.81899 0.0
H251 H 0.54784 0.53115 0.7903 0.0
H252 H 0.55646 0.54207 0.6497 0.0
H253 H 0.56562 0.53437 0.69804 0.0
H254 H 0.53772 0.44645 0.72792 0.0
C255 C 0.53303 0.45812 0.83043 0.0
C256 C 0.54597 0.51252 0.77686 0.0
C257 C 0.5361 0.45412 0.85852 0.0
C258 C 0.54427 0.52405 0.65954 0.0
C259 C 0.54942 0.51975 0.68732 0.0
C260 C 0.53972 0.4651 0.74134 0.0
C261 C 0.54988 0.4807 0.81736 0.0
C262 C 0.54655 0.48489 0.78748 0.0
C263 C 0.53399 0.49678 0.70101 0.0
C264 C 0.53882 0.4927 0.73074 0.0
H265 H 0.58852 0.50946 0.87292 0.0
H266 H 0.58333 0.51659 0.82356 0.0
H267 H 0.54437 0.43971 0.77686 0.0
H268 H 0.49226 0.46756 0.64772 0.0
H269 H 0.50104 0.46027 0.69621 0.0
C270 C 0.92468 0.56904 0.31251 0.0
C271 C 0.93419 0.59255 0.3294 0.0
C272 C 0.9341 0.56795 0.28562 0.0
C273 C 0.96425 0.61225 0.22906 0.0
H274 H 0.98379 0.53924 0.20119 0.0
C275 C 0.00686 0.5968 0.1192 0.0
C276 C 0.99507 0.57176 0.10512 0.0
C277 C 0.00128 0.6006 0.14698 0.0
C278 C 0.97819 0.55973 0.20858 0.0
H279 H 0.96057 0.63359 0.33204 0.0
H280 H 0.97739 0.6318 0.28452 0.0
H281 H 0.97112 0.54393 0.24904 0.0
H282 H 0.9679 0.53124 0.10926 0.0
H283 H 0.95803 0.538 0.15746 0.0
H284 H 0.97102 0.6279 0.18836 0.0
C285 C 0.96252 0.61424 0.29205 0.0
C286 C 0.97097 0.56243 0.23601 0.0
C287 C 0.95305 0.61526 0.31914 0.0
C288 C 0.97748 0.55072 0.11944 0.0
C289 C 0.97195 0.55452 0.14716 0.0
C290 C 0.9715 0.60954 0.20151 0.0
C291 C 0.9533 0.59039 0.27508 0.0
C292 C 0.9634 0.58855 0.24647 0.0
C293 C 0.98388 0.57943 0.1613 0.0
C294 C 0.97805 0.58308 0.19087 0.0
H295 H 0.90996 0.55139 0.32015 0.0
H296 H 0.92613 0.54956 0.27298 0.0
H297 H 0.95834 0.6326 0.23648 0.0
H298 H 0.02052 0.61345 0.10883 0.0
H299 H 0.01097 0.61993 0.15734 0.0
C300 C 0.1939 0.14691 0.11799 0.0
C301 C 0.19206 0.1528 0.14617 0.0
C302 C 0.21879 0.13663 0.10732 0.0
C303 C 0.27542 0.09349 0.12762 0.0
H304 H 0.31915 0.12478 0.06566 0.0
C305 C 0.38533 0.05524 0.09973 0.0
C306 C 0.39379 0.05516 0.07225 0.0
C307 C 0.36006 0.06683 0.10739 0.0
C308 C 0.30691 0.11538 0.08267 0.0
H309 H 0.21605 0.15462 0.18474 0.0
H310 H 0.25885 0.13586 0.16623 0.0
H311 H 0.27669 0.14693 0.08095 0.0
H312 H 0.38175 0.06643 0.0311 0.0
H313 H 0.33698 0.08554 0.04426 0.0
H314 H 0.30466 0.06146 0.12912 0.0
C315 C 0.24091 0.13894 0.15251 0.0
C316 C 0.2827 0.12824 0.09149 0.0
C317 C 0.21633 0.1496 0.16308 0.0
C318 C 0.37592 0.06628 0.05249 0.0
C319 C 0.35035 0.0775 0.0601 0.0
C320 C 0.29922 0.08034 0.11856 0.0
C321 C 0.24213 0.13174 0.12467 0.0
C322 C 0.26703 0.11767 0.11432 0.0
C323 C 0.34221 0.07824 0.08772 0.0
C324 C 0.31565 0.09133 0.09622 0.0
H325 H 0.1756 0.14891 0.10438 0.0
H326 H 0.21923 0.13122 0.08575 0.0
H327 H 0.26337 0.08462 0.145 0.0
H328 H 0.39874 0.04716 0.11555 0.0
H329 H 0.35502 0.06748 0.12892 0.0
C330 C 0.31011 0.93755 0.63951 0.0
C331 C 0.3353 0.9558 0.63372 0.0
C332 C 0.28268 0.94575 0.63316 0.0
C333 C 0.2479 0.99244 0.58589 0.0
H334 H 0.18025 0.97355 0.63098 0.0
C335 C 0.13467 0.02505 0.55675 0.0
C336 C 0.11065 0.00435 0.56055 0.0
C337 C 0.16218 0.02082 0.56712 0.0
C338 C 0.1989 0.97877 0.61806 0.0
H339 H 0.35224 0.99692 0.61755 0.0
H340 H 0.30425 0.01163 0.60676 0.0
H341 H 0.22811 0.96376 0.64755 0.0
H342 H 0.09685 0.96291 0.5783 0.0
H343 H 0.14478 0.95545 0.59603 0.0
H344 H 0.2187 0.00707 0.55624 0.0
C345 C 0.30551 0.9909 0.61592 0.0
C346 C 0.22633 0.97319 0.62758 0.0
C347 C 0.33291 0.98266 0.6223 0.0
C348 C 0.11481 0.97935 0.575 0.0
C349 C 0.14229 0.97514 0.58537 0.0
C350 C 0.2205 0.99801 0.57638 0.0
C351 C 0.28008 0.97229 0.62077 0.0
C352 C 0.25113 0.97976 0.61151 0.0
C353 C 0.16631 0.99581 0.58156 0.0
C354 C 0.19562 0.99101 0.59224 0.0
H355 H 0.31167 0.91657 0.64806 0.0
H356 H 0.2636 0.93077 0.63689 0.0
H357 H 0.26645 0.99731 0.57277 0.0
H358 H 0.13226 0.04461 0.54583 0.0
H359 H 0.18016 0.0373 0.56407 0.0
C360 C 0.67408 0.47115 0.96251 0.0
C361 C 0.66493 0.44516 0.94883 0.0
C362 C 0.70372 0.48028 0.96616 0.0
C363 C 0.76643 0.48314 0.98668 0.0
H364 H 0.82092 0.47753 0.92776 0.0
C365 C 0.89107 0.50062 0.00384 0.0
C366 C 0.90699 0.51797 0.98474 0.0
C367 C 0.86162 0.49129 0.99909 0.0
C368 C 0.80594 0.47932 0.94437 0.0
H369 H 0.67958 0.40883 0.92745 0.0
H370 H 0.73135 0.42472 0.93392 0.0
H371 H 0.76907 0.46319 0.91957 0.0
H372 H 0.90445 0.53875 0.94545 0.0
H373 H 0.85319 0.52245 0.93726 0.0
H374 H 0.80325 0.49949 0.01142 0.0
C375 C 0.71562 0.43804 0.9418 0.0
C376 C 0.77631 0.4709 0.93975 0.0
C377 C 0.686 0.42883 0.9383 0.0
C378 C 0.89288 0.52544 0.96063 0.0
C379 C 0.86352 0.51596 0.95583 0.0
C380 C 0.79608 0.49138 0.99135 0.0
C381 C 0.72479 0.4637 0.95604 0.0
C382 C 0.75624 0.47281 0.96083 0.0
C383 C 0.84753 0.49895 0.97507 0.0
C384 C 0.81614 0.48962 0.97024 0.0
H385 H 0.65834 0.48408 0.97101 0.0
H386 H 0.71015 0.50031 0.97695 0.0
H387 H 0.75152 0.48455 0.00341 0.0
H388 H 0.90126 0.49445 0.0226 0.0
H389 H 0.84991 0.47794 0.01416 0.0
C390 C 0.83476 0.58182 0.46022 0.0
C391 C 0.84279 0.61037 0.45238 0.0
C392 C 0.8079 0.57391 0.47233 0.0
C393 C 0.74914 0.59879 0.51111 0.0
H394 H 0.69833 0.54209 0.46985 0.0
C395 C 0.62604 0.57678 0.53287 0.0
C396 C 0.61184 0.54929 0.52723 0.0
C397 C 0.6553 0.5836 0.52616 0.0
C398 C 0.7123 0.55746 0.48209 0.0
H399 H 0.8289 0.6531 0.45213 0.0
H400 H 0.78265 0.63933 0.47438 0.0
H401 H 0.74809 0.55474 0.45518 0.0
H402 H 0.6173 0.50692 0.51158 0.0
H403 H 0.66856 0.51815 0.50133 0.0
H404 H 0.71381 0.6011 0.5385 0.0
C405 C 0.79721 0.62318 0.47085 0.0
C406 C 0.74079 0.5648 0.4735 0.0
C407 C 0.82381 0.63102 0.45823 0.0
C408 C 0.62765 0.52842 0.51578 0.0
C409 C 0.65702 0.53499 0.5097 0.0
C410 C 0.72078 0.591 0.5201 0.0
C411 C 0.7888 0.59447 0.47743 0.0
C412 C 0.75933 0.58569 0.48777 0.0
C413 C 0.67114 0.56285 0.51422 0.0
C414 C 0.70185 0.5704 0.50555 0.0
H415 H 0.84902 0.56542 0.45669 0.0
H416 H 0.80188 0.55166 0.47747 0.0
H417 H 0.76319 0.61492 0.52245 0.0
H418 H 0.61426 0.59331 0.54156 0.0
H419 H 0.66514 0.60539 0.52961 0.0
C420 C 0.09 0.24277 0.0833 0.0
C421 C 0.10571 0.24431 0.10804 0.0
C422 C 0.08514 0.26786 0.06964 0.0
C423 C 0.10711 0.3464 0.06641 0.0
H424 H 0.02676 0.34871 0.04359 0.0
C425 C 0.06741 0.4452 0.01365 0.0
C426 C 0.04124 0.45403 0.02329 0.0
C427 C 0.07634 0.41898 0.0216 0.0
C428 C 0.04927 0.34844 0.04989 0.0
H429 H 0.12949 0.27263 0.13774 0.0
H430 H 0.12122 0.31665 0.11386 0.0
H431 H 0.04211 0.30434 0.06116 0.0
H432 H 0.00375 0.44181 0.04855 0.0
H433 H 0.01932 0.39611 0.06234 0.0
H434 H 0.11401 0.3908 0.0558 0.0
C435 C 0.11292 0.29619 0.10471 0.0
C436 C 0.05817 0.3229 0.05965 0.0
C437 C 0.1177 0.27106 0.11839 0.0
C438 C 0.02399 0.43572 0.04068 0.0
C439 C 0.03285 0.40943 0.0485 0.0
C440 C 0.09823 0.37194 0.05648 0.0
C441 C 0.09582 0.29492 0.0806 0.0
C442 C 0.08713 0.32162 0.06829 0.0
C443 C 0.05925 0.40085 0.03924 0.0
C444 C 0.06911 0.37334 0.04841 0.0
H445 H 0.08031 0.22226 0.07519 0.0
H446 H 0.07224 0.26611 0.05093 0.0
H447 H 0.1296 0.34609 0.07276 0.0
H448 H 0.08128 0.45872 1.00023 0.0
H449 H 0.09663 0.41286 0.01387 0.0
C450 C 0.59952 0.34324 0.94547 0.0
C451 C 0.5846 0.36495 0.95672 0.0
C452 C 0.59104 0.31451 0.95136 0.0
C453 C 0.53004 0.26512 0.97817 0.0
H454 H 0.59092 0.21652 0.99223 0.0
C455 C 0.54575 0.14867 0.02868 0.0
C456 C 0.52204 0.13143 0.01664 0.0
C457 C 0.55285 0.17691 0.0204 0.0
C458 C 0.57364 0.22983 0.98854 0.0
H459 H 0.54905 0.37363 0.98284 0.0
H460 H 0.53442 0.32342 0.99347 0.0
H461 H 0.60395 0.26634 0.98001 0.0
H462 H 0.48723 0.13043 0.98632 0.0
H463 H 0.49996 0.17968 0.97157 0.0
H464 H 0.49976 0.22875 0.9876 0.0
C465 C 0.55236 0.32856 0.9797 0.0
C466 C 0.5811 0.25832 0.98118 0.0
C467 C 0.56076 0.35732 0.97368 0.0
C468 C 0.50559 0.14313 0.99608 0.0
C469 C 0.51278 0.17141 0.98773 0.0
C470 C 0.52256 0.2366 0.98562 0.0
C471 C 0.56754 0.30683 0.96875 0.0
C472 C 0.55941 0.27634 0.97599 0.0
C473 C 0.53652 0.18861 0.99979 0.0
C474 C 0.5443 0.21868 0.99105 0.0
H475 H 0.61767 0.34847 0.93196 0.0
H476 H 0.60285 0.29829 0.94216 0.0
H477 H 0.51279 0.27833 0.97402 0.0
H478 H 0.5588 0.14045 0.04469 0.0
H479 H 0.57096 0.1897 0.03046 0.0
C480 C 0.93526 0.69174 0.45452 0.0
C481 C 0.92617 0.68259 0.42804 0.0
C482 C 0.94721 0.71999 0.45946 0.0
C483 C 0.94341 0.79176 0.43378 0.0
H484 H 0.00811 0.81266 0.48397 0.0
C485 C 0.98049 0.90992 0.4632 0.0
C486 C 0.98842 0.91573 0.49072 0.0
C487 C 0.97594 0.88169 0.45333 0.0
C488 C 0.98983 0.8072 0.47011 0.0
H489 H 0.9233 0.69534 0.38578 0.0
H490 H 0.94406 0.74514 0.39445 0.0
H491 H 0.99588 0.76261 0.47017 0.0
H492 H 0.99769 0.89634 0.52946 0.0
H493 H 0.98897 0.84718 0.51248 0.0
H494 H 0.93651 0.83603 0.43449 0.0
C495 C 0.94192 0.73036 0.41135 0.0
C496 C 0.98296 0.77854 0.46209 0.0
C497 C 0.93028 0.7019 0.40635 0.0
C498 C 0.99174 0.89266 0.50812 0.0
C499 C 0.98695 0.86443 0.4983 0.0
C500 C 0.9501 0.82039 0.44198 0.0
C501 C 0.95005 0.73977 0.43805 0.0
C502 C 0.95942 0.77047 0.44415 0.0
C503 C 0.97898 0.85856 0.47077 0.0
C504 C 0.97313 0.82842 0.46058 0.0
H505 H 0.93241 0.67718 0.47156 0.0
H506 H 0.95302 0.72666 0.48027 0.0
H507 H 0.92488 0.78612 0.42023 0.0
H508 H 0.97798 0.92719 0.44917 0.0
H509 H 0.97024 0.87803 0.43193 0.0
C510 C 0.44596 0.84299 0.63308 0.0
C511 C 0.42831 0.84339 0.65625 0.0
C512 C 0.45443 0.81723 0.62313 0.0
C513 C 0.4623 0.74253 0.64228 0.0
H514 H 0.45859 0.72895 0.56388 0.0
C515 C 0.46374 0.64238 0.56099 0.0
C516 C 0.48725 0.62919 0.57159 0.0
C517 C 0.45781 0.66907 0.57102 0.0
C518 C 0.45963 0.73235 0.58582 0.0
H519 H 0.40597 0.81698 0.68729 0.0
H520 H 0.42085 0.77196 0.66996 0.0
H521 H 0.44556 0.77408 0.58252 0.0
H522 H 0.52329 0.63412 0.60078 0.0
H523 H 0.51302 0.68077 0.6181 0.0
H524 H 0.4758 0.70053 0.64559 0.0
C525 C 0.42836 0.79166 0.65964 0.0
C526 C 0.45246 0.75834 0.5965 0.0
C527 C 0.41984 0.81746 0.66958 0.0
C528 C 0.50497 0.64359 0.59216 0.0
C529 C 0.49897 0.67026 0.60224 0.0
C530 C 0.46957 0.71655 0.63159 0.0
C531 C 0.44552 0.79122 0.63614 0.0
C532 C 0.45362 0.76371 0.62486 0.0
C533 C 0.4752 0.68321 0.59193 0.0
C534 C 0.46821 0.71112 0.60324 0.0
H535 H 0.45333 0.86266 0.62263 0.0
H536 H 0.4681 0.81772 0.60529 0.0
H537 H 0.46366 0.74609 0.6642 0.0
H538 H 0.44959 0.63192 0.54518 0.0
H539 H 0.43915 0.67832 0.56282 0.0
C540 C 0.90315 0.96208 0.8335 0.0
C541 C 0.92111 0.94585 0.84894 0.0
C542 C 0.90918 0.96819 0.8061 0.0
C543 C 0.96864 0.96978 0.75538 0.0
H544 H 0.90539 0.97075 0.70267 0.0
C545 C 0.98711 0.97299 0.63901 0.0
C546 C 0.97321 0.99334 0.62439 0.0
C547 C 0.98016 0.96718 0.66625 0.0
C548 C 0.92324 0.97074 0.71722 0.0
H549 H 0.95981 0.92367 0.84751 0.0
H550 H 0.96951 0.93318 0.79963 0.0
H551 H 0.8945 0.96058 0.75051 0.0
H552 H 0.94059 0.02305 0.62683 0.0
H553 H 0.92821 0.01254 0.67437 0.0
H554 H 0.99733 0.97934 0.72187 0.0
C555 C 0.95106 0.94172 0.80878 0.0
C556 C 0.91704 0.96503 0.74467 0.0
C557 C 0.9452 0.93585 0.83622 0.0
C558 C 0.95175 0.0073 0.6375 0.0
C559 C 0.94455 0.00121 0.66467 0.0
C560 C 0.97481 0.97516 0.72791 0.0
C561 C 0.93319 0.95805 0.79335 0.0
C562 C 0.93968 0.96443 0.76413 0.0
C563 C 0.95891 0.98132 0.6794 0.0
C564 C 0.95219 0.97566 0.70855 0.0
H565 H 0.88423 0.96989 0.8425 0.0
H566 H 0.89513 0.98113 0.79501 0.0
H567 H 0.98664 0.97014 0.7698 0.0
H568 H 0.00376 0.96187 0.62957 0.0
H569 H 0.99136 0.95153 0.67704 0.0
C570 C 0.61633 0.12011 0.34845 0.0
C571 C 0.59783 0.11304 0.37054 0.0
C572 C 0.60627 0.1154 0.32154 0.0
C573 C 0.55139 0.06991 0.28122 0.0
H574 H 0.5724 0.12393 0.22342 0.0
C575 C 0.5074 0.05056 0.17083 0.0
C576 C 0.52669 0.05783 0.14935 0.0
C577 C 0.51509 0.05853 0.19779 0.0
C578 C 0.56661 0.10846 0.23926 0.0
H579 H 0.55411 0.09604 0.3817 0.0
H580 H 0.53644 0.08795 0.33461 0.0
H581 H 0.58717 0.13631 0.27053 0.0
H582 H 0.5693 0.07919 0.13953 0.0
H583 H 0.58293 0.09259 0.18661 0.0
H584 H 0.53134 0.0418 0.25002 0.0
C585 C 0.5588 0.09698 0.33817 0.0
C586 C 0.575 0.11562 0.26627 0.0
C587 C 0.56881 0.10188 0.36511 0.0
C588 C 0.55386 0.07332 0.15553 0.0
C589 C 0.56161 0.08118 0.18254 0.0
C590 C 0.54313 0.06269 0.25421 0.0
C591 C 0.57753 0.10335 0.31609 0.0
C592 C 0.56757 0.09638 0.28754 0.0
C593 C 0.54233 0.07385 0.20403 0.0
C594 C 0.55072 0.08182 0.23285 0.0
H595 H 0.63874 0.12896 0.35201 0.0
H596 H 0.6213 0.12036 0.305 0.0
H597 H 0.54574 0.05442 0.29707 0.0
H598 H 0.48621 0.03881 0.16684 0.0
H599 H 0.49951 0.05291 0.21373 0.0
C600 C 0.47739 0.5682 0.22181 0.0
C601 C 0.45705 0.58578 0.21221 0.0
C602 C 0.48241 0.56592 0.24992 0.0
C603 C 0.4462 0.57356 0.31557 0.0
H604 H 0.52327 0.56985 0.34654 0.0
C605 C 0.46641 0.56591 0.43201 0.0
C606 C 0.48628 0.54712 0.44053 0.0
C607 C 0.46351 0.5724 0.40434 0.0
C608 C 0.50157 0.57058 0.33817 0.0
H609 H 0.42635 0.61518 0.22354 0.0
H610 H 0.43519 0.61147 0.27281 0.0
H611 H 0.51763 0.57853 0.29776 0.0
H612 H 0.51855 0.52028 0.42651 0.0
H613 H 0.51312 0.53121 0.37839 0.0
H614 H 0.43004 0.56514 0.3558 0.0
C615 C 0.44712 0.59925 0.25884 0.0
C616 C 0.49837 0.5756 0.31024 0.0
C617 C 0.4422 0.60156 0.23075 0.0
C618 C 0.50311 0.53494 0.42073 0.0
C619 C 0.50016 0.54137 0.39311 0.0
C620 C 0.44939 0.56846 0.34347 0.0
C621 C 0.46698 0.58109 0.26876 0.0
C622 C 0.47063 0.57699 0.29861 0.0
C623 C 0.48036 0.5602 0.38456 0.0
C624 C 0.47709 0.56671 0.35508 0.0
H625 H 0.48883 0.55571 0.20766 0.0
H626 H 0.4976 0.55153 0.25692 0.0
H627 H 0.42449 0.57406 0.30715 0.0
H628 H 0.45319 0.57577 0.44671 0.0
H629 H 0.44829 0.58724 0.39848 0.0
C630 C 0.03269 0.5141 0.67885 0.0
C631 C 0.05192 0.49461 0.67107 0.0
C632 C 0.03255 0.52395 0.70591 0.0
C633 C 0.07427 0.52837 0.77153 0.0
H634 H 0.99772 0.52702 0.80326 0.0
C635 C 0.05547 0.53004 0.8883 0.0
C636 C 0.03349 0.54572 0.89809 0.0
C637 C 0.05933 0.52659 0.86019 0.0
C638 C 0.01927 0.52797 0.79467 0.0
H639 H 0.0865 0.47044 0.68447 0.0
H640 H 0.08627 0.48743 0.73197 0.0
H641 H 0.00204 0.517 0.75472 0.0
H642 H 0.99891 0.57081 0.88589 0.0
H643 H 0.00588 0.56507 0.83703 0.0
H644 H 0.09144 0.53893 0.81173 0.0
C645 C 0.07157 0.49552 0.7173 0.0
C646 C 0.02175 0.52224 0.7668 0.0
C647 C 0.07167 0.48571 0.69022 0.0
C648 C 0.01589 0.55837 0.87912 0.0
C649 C 0.01979 0.55498 0.85106 0.0
C650 C 0.07178 0.53413 0.79948 0.0
C651 C 0.05158 0.5143 0.72559 0.0
C652 C 0.04925 0.52218 0.75492 0.0
C653 C 0.04133 0.5388 0.84125 0.0
C654 C 0.04424 0.5338 0.8114 0.0
H655 H 0.01723 0.52107 0.66422 0.0
H656 H 0.01718 0.5387 0.71156 0.0
H657 H 0.09577 0.52878 0.76293 0.0
H658 H 0.06942 0.52 0.90233 0.0
H659 H 0.07592 0.51373 0.85332 0.0
C660 C 0.81049 0.95591 0.95441 0.0
C661 C 0.83412 0.97547 0.96284 0.0
C662 C 0.78244 0.95911 0.96354 0.0
C663 C 0.73897 0.01432 0.99013 0.0
H664 H 0.68442 0.94936 0.0103 0.0
C665 C 0.62686 0.02868 0.03577 0.0
C666 C 0.60293 0.00966 0.02662 0.0
C667 C 0.65523 0.02399 0.02891 0.0
C668 C 0.6993 0.9677 0.00446 0.0
H669 H 0.84774 0.01329 0.98741 0.0
H670 H 0.79884 0.01883 0.00369 0.0
H671 H 0.73366 0.94172 0.99691 0.0
H672 H 0.59023 0.97068 0.00305 0.0
H673 H 0.63959 0.96276 0.99086 0.0
H674 H 0.70464 0.0403 0.99739 0.0
C675 C 0.80169 0.0012 0.98989 0.0
C676 C 0.72753 0.96331 0.99681 0.0
C677 C 0.82966 0.99794 0.98079 0.0
C678 C 0.60811 0.98576 0.01054 0.0
C679 C 0.63647 0.98109 0.00367 0.0
C680 C 0.71077 0.0187 0.99772 0.0
C681 C 0.77767 0.98205 0.98111 0.0
C682 C 0.74771 0.98658 0.98956 0.0
C683 C 0.66039 0.00018 0.01271 0.0
C684 C 0.69055 0.99546 0.00497 0.0
H685 H 0.81361 0.93857 0.94034 0.0
H686 H 0.7644 0.94416 0.95618 0.0
H687 H 0.75379 0.03267 0.98419 0.0
H688 H 0.62373 0.04724 0.04827 0.0
H689 H 0.67317 0.03891 0.03653 0.0
C690 C 0.69879 0.1006 0.4206 0.0
C691 C 0.67574 0.09654 0.43917 0.0
C692 C 0.72595 0.09185 0.42695 0.0
C693 C 0.76342 0.047 0.47598 0.0
H694 H 0.83252 0.09273 0.45006 0.0
C695 C 0.88071 0.0405 0.51747 0.0
C696 C 0.9017 0.03691 0.49755 0.0
C697 C 0.85269 0.04606 0.50976 0.0
C698 C 0.81337 0.07968 0.45726 0.0
H699 H 0.66341 0.07933 0.47893 0.0
H700 H 0.71104 0.06585 0.49068 0.0
H701 H 0.78464 0.1062 0.43815 0.0
H702 H 0.90981 0.03639 0.45397 0.0
H703 H 0.86099 0.04696 0.4406 0.0
H704 H 0.79263 0.02133 0.49614 0.0
C705 C 0.70799 0.07509 0.47081 0.0
C706 C 0.78586 0.08724 0.45031 0.0
C707 C 0.68067 0.08335 0.46424 0.0
C708 C 0.89407 0.03892 0.46978 0.0
C709 C 0.86624 0.04509 0.46212 0.0
C710 C 0.79098 0.03981 0.48336 0.0
C711 C 0.73108 0.07926 0.45229 0.0
C712 C 0.76045 0.07098 0.45952 0.0
C713 C 0.84534 0.04874 0.48205 0.0
C714 C 0.81616 0.05605 0.474 0.0
H715 H 0.6961 0.11101 0.40123 0.0
H716 H 0.74291 0.09498 0.41188 0.0
H717 H 0.74449 0.03356 0.48304 0.0
H718 H 0.88593 0.03898 0.53902 0.0
H719 H 0.83696 0.04894 0.52549 0.0
C720 C 0.33533 0.59648 0.11463 0.0
C721 C 0.35675 0.6176 0.10525 0.0
C722 C 0.3079 0.59238 0.10196 0.0
C723 C 0.25796 0.63093 0.0614 0.0
H724 H 0.21664 0.55524 0.04906 0.0
C725 C 0.14513 0.57262 0.00802 0.0
C726 C 0.12452 0.5887 0.01984 0.0
C727 C 0.17434 0.57718 0.01608 0.0
C728 C 0.228 0.57652 0.05213 0.0
H729 H 0.36673 0.64991 0.07435 0.0
H730 H 0.31878 0.64282 0.05235 0.0
H731 H 0.26641 0.55996 0.06705 0.0
H732 H 0.11878 0.62305 0.04862 0.0
H733 H 0.1699 0.63097 0.06274 0.0
H734 H 0.21949 0.64748 0.04652 0.0
C735 C 0.32305 0.62981 0.06978 0.0
C736 C 0.25638 0.5792 0.06269 0.0
C737 C 0.35049 0.63384 0.08237 0.0
C738 C 0.13406 0.61029 0.03911 0.0
C739 C 0.16336 0.61489 0.04714 0.0
C740 C 0.2295 0.62824 0.05097 0.0
C741 C 0.30133 0.60935 0.07971 0.0
C742 C 0.27161 0.60643 0.06754 0.0
C743 C 0.18367 0.59797 0.0361 0.0
C744 C 0.2142 0.60101 0.04631 0.0
H745 H 0.33938 0.58386 0.1324 0.0
H746 H 0.2915 0.57662 0.11023 0.0
H747 H 0.26905 0.6522 0.06521 0.0
H748 H 0.13864 0.55595 0.99297 0.0
H749 H 0.1896 0.56416 0.00687 0.0
C750 C 0.15779 0.4754 0.5899 0.0
C751 C 0.14831 0.44933 0.60255 0.0
C752 C 0.18747 0.48364 0.58622 0.0
C753 C 0.26097 0.46979 0.60945 0.0
H754 H 0.28412 0.49618 0.53726 0.0
C755 C 0.38013 0.47706 0.57448 0.0
C756 C 0.39076 0.50087 0.55889 0.0
C757 C 0.35053 0.47188 0.58038 0.0
C758 C 0.27804 0.48922 0.55764 0.0
H759 H 0.16248 0.41217 0.62246 0.0
H760 H 0.21427 0.42645 0.61589 0.0
H761 H 0.23259 0.48632 0.54769 0.0
H762 H 0.37845 0.53787 0.53718 0.0
H763 H 0.32695 0.52899 0.54774 0.0
H764 H 0.30641 0.47258 0.6194 0.0
C765 C 0.19881 0.44054 0.60883 0.0
C766 C 0.2485 0.4836 0.56362 0.0
C767 C 0.16915 0.43224 0.61238 0.0
C768 C 0.37103 0.51924 0.54914 0.0
C769 C 0.34144 0.51409 0.55511 0.0
C770 C 0.29052 0.4755 0.60351 0.0
C771 C 0.20828 0.46608 0.59527 0.0
C772 C 0.23964 0.47361 0.58952 0.0
C773 C 0.33085 0.49042 0.5709 0.0
C774 C 0.29941 0.48506 0.57746 0.0
H775 H 0.14222 0.48893 0.58198 0.0
H776 H 0.19414 0.50362 0.57598 0.0
H777 H 0.25481 0.46246 0.62971 0.0
H778 H 0.39467 0.46239 0.58224 0.0
H779 H 0.34303 0.45318 0.59221 0.0
C780 C 0.90516 0.86343 0.94694 0.0
C781 C 0.92321 0.8796 0.92852 0.0
C782 C 0.91303 0.83752 0.95704 0.0
C783 C 0.97624 0.79592 0.96565 0.0
H784 H 0.91753 0.7301 0.96608 0.0
C785 C 0.00119 0.68389 0.00206 0.0
C786 C 0.98939 0.66041 0.9858 0.0
C787 C 0.99272 0.71124 0.99778 0.0
C788 C 0.93421 0.74827 0.96602 0.0
H789 H 0.96421 0.88183 0.90715 0.0
H790 H 0.97762 0.83664 0.92429 0.0
H791 H 0.90373 0.777 0.95388 0.0
H792 H 0.95944 0.64744 0.95221 0.0
H793 H 0.94504 0.69495 0.94465 0.0
H794 H 0.00689 0.76699 0.97687 0.0
C795 C 0.95746 0.84391 0.93109 0.0
C796 C 0.92622 0.77522 0.95935 0.0
C797 C 0.94957 0.86966 0.92096 0.0
C798 C 0.96897 0.66496 0.96519 0.0
C799 C 0.96049 0.69221 0.96097 0.0
C800 C 0.98422 0.76897 0.97237 0.0
C801 C 0.93924 0.82741 0.94911 0.0
C802 C 0.94723 0.79929 0.95863 0.0
C803 C 0.9722 0.71569 0.97722 0.0
C804 C 0.96338 0.74473 0.97219 0.0
H805 H 0.8847 0.87051 0.95312 0.0
H806 H 0.89862 0.82542 0.97108 0.0
H807 H 0.9929 0.81409 0.96564 0.0
H808 H 0.0169 0.68117 0.01817 0.0
H809 H 0.002 0.72884 0.01079 0.0
C810 C 0.41702 0.71028 0.15198 0.0
C811 C 0.43461 0.68956 0.14315 0.0
C812 C 0.42646 0.73943 0.14948 0.0
C813 C 0.47017 0.78556 0.10369 0.0
H814 H 0.45772 0.84637 0.15501 0.0
C815 C 0.49758 0.90389 0.07549 0.0
C816 C 0.47862 0.92342 0.08424 0.0
C817 C 0.49501 0.87599 0.0854 0.0
C818 C 0.46104 0.82965 0.14034 0.0
H819 H 0.47643 0.68284 0.12635 0.0
H820 H 0.49296 0.73399 0.12178 0.0
H821 H 0.44951 0.79638 0.16927 0.0
H822 H 0.44209 0.92897 0.11034 0.0
H823 H 0.43681 0.87982 0.12689 0.0
H824 H 0.48032 0.8183 0.07432 0.0
C825 C 0.47188 0.72763 0.13061 0.0
C826 C 0.45655 0.80107 0.14861 0.0
C827 C 0.46256 0.69844 0.13342 0.0
C828 C 0.45705 0.91442 0.10323 0.0
C829 C 0.45421 0.8863 0.11289 0.0
C830 C 0.4743 0.81402 0.09532 0.0
C831 C 0.45352 0.74835 0.13781 0.0
C832 C 0.46092 0.77876 0.13029 0.0
C833 C 0.47312 0.8667 0.10402 0.0
C834 C 0.46962 0.83646 0.11346 0.0
H835 H 0.3954 0.70388 0.15962 0.0
H836 H 0.4118 0.75491 0.15506 0.0
H837 H 0.47311 0.76877 0.08894 0.0
H838 H 0.51473 0.91024 0.06118 0.0
H839 H 0.51038 0.86175 0.07854 0.0
C840 C 0.08047 0.35612 0.56789 0.0
C841 C 0.06702 0.37038 0.58878 0.0
C842 C 0.07269 0.32693 0.56277 0.0
C843 C 0.03872 0.26142 0.59611 0.0
H844 H 0.03928 0.22969 0.52261 0.0
C845 C 0.00496 0.14128 0.56968 0.0
C846 C 0.0239 0.12845 0.5523 0.0
C847 C 0.00851 0.17094 0.57427 0.0
C848 C 0.03918 0.23826 0.54325 0.0
H849 H 0.03427 0.3652 0.62026 0.0
H850 H 0.01995 0.3145 0.61067 0.0
H851 H 0.04729 0.28149 0.52959 0.0
H852 H 0.06152 0.13679 0.52627 0.0
H853 H 0.06754 0.18842 0.53421 0.0
H854 H 0.03043 0.21802 0.60964 0.0
C855 C 0.03699 0.32576 0.59861 0.0
C856 C 0.04383 0.26793 0.54729 0.0
C857 C 0.04492 0.35495 0.60385 0.0
C858 C 0.04655 0.14591 0.53979 0.0
C859 C 0.04989 0.17554 0.54416 0.0
C860 C 0.03381 0.23174 0.59203 0.0
C861 C 0.05106 0.3113 0.57826 0.0
C862 C 0.04408 0.27987 0.5738 0.0
C863 C 0.03085 0.18837 0.56133 0.0
C864 C 0.0344 0.21987 0.5656 0.0
H865 H 0.09729 0.36745 0.55562 0.0
H866 H 0.08423 0.31648 0.54712 0.0
H867 H 0.03919 0.2698 0.61684 0.0
H868 H 0.9873 0.12845 0.57965 0.0
H869 H 0.99345 0.18032 0.58752 0.0
C870 C 0.54229 0.19975 0.45893 0.0
C871 C 0.56735 0.19216 0.47208 0.0
C872 C 0.53295 0.22668 0.46397 0.0
C873 C 0.53968 0.28554 0.51534 0.0
H874 H 0.51397 0.33144 0.45626 0.0
C875 C 0.49799 0.3952 0.53551 0.0
C876 C 0.50913 0.41756 0.51838 0.0
C877 C 0.50194 0.36674 0.52924 0.0
C878 C 0.52112 0.31888 0.47298 0.0
H879 H 0.60258 0.20607 0.50033 0.0
H880 H 0.58661 0.25317 0.509 0.0
H881 H 0.52773 0.28368 0.44637 0.0
H882 H 0.53253 0.42734 0.48081 0.0
H883 H 0.53955 0.37791 0.47008 0.0
H884 H 0.53391 0.32094 0.54185 0.0
C885 C 0.57385 0.23846 0.49513 0.0
C886 C 0.52874 0.29142 0.46734 0.0
C887 C 0.58315 0.21166 0.49002 0.0
C888 C 0.52368 0.41071 0.49452 0.0
C889 C 0.52753 0.38229 0.48823 0.0
C890 C 0.53198 0.31291 0.52099 0.0
C891 C 0.54851 0.24623 0.48236 0.0
C892 C 0.53854 0.27463 0.48841 0.0
C893 C 0.517 0.36 0.50565 0.0
C894 C 0.52299 0.33007 0.49983 0.0
H895 H 0.52978 0.18478 0.44509 0.0
H896 H 0.51327 0.23197 0.45394 0.0
H897 H 0.54674 0.27298 0.5321 0.0
H898 H 0.48658 0.39967 0.554 0.0
H899 H 0.49327 0.35001 0.54293 0.0
loop_
_geom_bond_atom_site_label_1
_geom_bond_atom_site_label_2
_geom_bond_distance
_geom_bond_site_symmetry_2
_ccdc_geom_bond_type
H0 C3 0.929 . S
H1 C6 0.929 . S
H2 C8 0.930 . S
C3 H0 0.929 . S
C3 C4 1.398 . S
C3 C5 1.396 . S
C4 C3 1.398 . S
C4 C8 1.407 . S
C5 C3 1.396 . S
C5 C6 1.394 . S
C6 H1 0.929 . S
C6 C5 1.394 . S
C6 C7 1.382 . S
C7 C6 1.382 . S
C7 C8 1.392 . S
C7 N9 1.420 . S
C8 H2 0.930 . S
C8 C4 1.407 . S
C8 C7 1.392 . S
N9 C7 1.420 . S
N9 C10 1.244 . S
C10 N9 1.244 . S
H11 C14 0.929 . S
H12 C17 0.929 . S
H13 C19 0.930 . S
C14 H11 0.929 . S
C14 C15 1.398 . S
C14 C16 1.396 . S
C15 C14 1.398 . S
C15 C19 1.407 . S
C16 C14 1.396 . S
C16 C17 1.394 . S
C17 H12 0.929 . S
C17 C16 1.394 . S
C17 C18 1.382 . S
C18 C17 1.382 . S
C18 C19 1.392 . S
C18 N20 1.420 . S
C19 H13 0.930 . S
C19 C15 1.407 . S
C19 C18 1.392 . S
N20 C18 1.420 . S
N20 C21 1.244 . S
C21 N20 1.244 . S
H22 C25 0.929 . S
H23 C28 0.929 . S
H24 C30 0.930 . S
C25 H22 0.929 . S
C25 C26 1.398 . S
C25 C27 1.396 . S
C26 C25 1.398 . S
C26 C30 1.407 . S
C27 C25 1.396 . S
C27 C28 1.394 . S
C28 H23 0.929 . S
C28 C27 1.394 . S
C28 C29 1.382 . S
C29 C28 1.382 . S
C29 C30 1.392 . S
C29 N31 1.420 . S
C30 H24 0.930 . S
C30 C26 1.407 . S
C30 C29 1.392 . S
N31 C29 1.420 . S
N31 C32 1.244 . S
C32 N31 1.244 . S
H33 C36 0.929 . S
H34 C39 0.929 . S
H35 C41 0.930 . S
C36 H33 0.929 . S
C36 C37 1.398 . S
C36 C38 1.396 . S
C37 C36 1.398 . S
C37 C41 1.407 . S
C38 C36 1.396 . S
C38 C39 1.394 . S
C39 H34 0.929 . S
C39 C38 1.394 . S
C39 C40 1.382 . S
C40 C39 1.382 . S
C40 C41 1.392 . S
C40 N42 1.420 . S
C41 H35 0.930 . S
C41 C37 1.407 . S
C41 C40 1.392 . S
N42 C40 1.420 . S
N42 C43 1.244 . S
C43 N42 1.244 . S
H44 C47 0.929 . S
H45 C50 0.929 . S
H46 C52 0.930 1_545 S
C47 H44 0.929 . S
C47 C48 1.398 . S
C47 C49 1.396 . S
C48 C47 1.398 . S
C48 C52 1.407 . S
C49 C47 1.396 . S
C49 C50 1.394 . S
C50 H45 0.929 . S
C50 C49 1.394 . S
C50 C51 1.382 . S
C51 C50 1.382 . S
C51 C52 1.392 . S
C51 N53 1.420 . S
C52 H46 0.930 1_565 S
C52 C48 1.407 . S
C52 C51 1.392 . S
N53 C51 1.420 . S
N53 C54 1.244 . S
C54 N53 1.244 . S
H55 C58 0.929 . S
H56 C61 0.929 . S
H57 C63 0.930 . S
C58 H55 0.929 . S
C58 C59 1.398 . S
C58 C60 1.396 . S
C59 C58 1.398 . S
C59 C63 1.407 . S
C60 C58 1.396 . S
C60 C61 1.394 . S
C61 H56 0.929 . S
C61 C60 1.394 . S
C61 C62 1.382 . S
C62 C61 1.382 . S
C62 C63 1.392 . S
C62 N64 1.420 . S
C63 H57 0.930 . S
C63 C59 1.407 . S
C63 C62 1.392 . S
N64 C62 1.420 . S
N64 C65 1.244 . S
C65 N64 1.244 . S
H66 C69 0.929 . S
H67 C72 0.929 . S
H68 C74 0.930 . S
C69 H66 0.929 . S
C69 C70 1.398 . S
C69 C71 1.396 . S
C70 C69 1.398 . S
C70 C74 1.407 . S
C71 C69 1.396 . S
C71 C72 1.394 . S
C72 H67 0.929 . S
C72 C71 1.394 . S
C72 C73 1.382 . S
C73 C72 1.382 . S
C73 C74 1.392 . S
C73 N75 1.420 . S
C74 H68 0.930 . S
C74 C70 1.407 . S
C74 C73 1.392 . S
N75 C73 1.420 . S
N75 C76 1.244 . S
C76 N75 1.244 . S
H77 C80 0.929 . S
H78 C83 0.929 . S
H79 C85 0.930 . S
C80 H77 0.929 . S
C80 C81 1.398 . S
C80 C82 1.396 . S
C81 C80 1.398 . S
C81 C85 1.407 . S
C82 C80 1.396 . S
C82 C83 1.394 . S
C83 H78 0.929 . S
C83 C82 1.394 . S
C83 C84 1.382 . S
C84 C83 1.382 . S
C84 C85 1.392 . S
C84 N86 1.420 . S
C85 H79 0.930 . S
C85 C81 1.407 . S
C85 C84 1.392 . S
N86 C84 1.420 . S
N86 C87 1.244 . S
C87 N86 1.244 . S
O88 Zn89 1.960 . S
O88 C104 1.206 1_655 S
Zn89 O88 1.960 . S
Zn89 O90 1.949 1_655 S
Zn89 O96 1.919 . S
Zn89 O101 1.924 . S
O90 Zn89 1.949 1_455 S
O90 Zn91 1.923 1_455 S
O90 Zn92 1.950 . S
O90 Zn93 1.945 1_545 S
Zn91 O90 1.923 1_655 S
Zn91 O94 1.933 1_545 S
Zn91 O97 1.941 . S
Zn91 O98 1.965 1_655 S
Zn92 O90 1.950 . S
Zn92 O99 1.938 . S
Zn92 O100 1.906 . S
Zn92 O110 1.953 . S
Zn93 O90 1.945 1_565 S
Zn93 O95 1.932 1_455 S
Zn93 O102 1.977 . S
Zn93 O103 1.910 1_455 S
O94 Zn91 1.933 1_565 S
O94 C105 1.226 . S
O95 Zn93 1.932 1_655 S
O95 C105 1.307 . S
O96 Zn89 1.919 . S
O96 C107 1.253 . S
O97 Zn91 1.941 . S
O97 C107 1.283 . S
O98 Zn91 1.965 1_455 S
O98 C106 1.303 . S
O99 Zn92 1.938 . S
O99 C106 1.247 . S
O100 Zn92 1.906 . S
O100 C108 1.304 1_545 S
O101 Zn89 1.924 . S
O101 C109 1.311 . S
O102 Zn93 1.977 . S
O102 C108 1.272 . S
O103 Zn93 1.910 1_655 S
O103 C109 1.231 1_565 S
C104 O88 1.206 1_455 S
C104 O110 1.298 . S
C105 O94 1.226 . S
C105 O95 1.307 . S
C106 O98 1.303 . S
C106 O99 1.247 . S
C107 O96 1.253 . S
C107 O97 1.283 . S
C108 O100 1.304 1_565 S
C108 O102 1.272 . S
C109 O101 1.311 . S
C109 O103 1.231 1_545 S
O110 Zn92 1.953 . S
O110 C104 1.298 . S
O111 Zn112 1.953 . S
O111 C127 1.225 . S
Zn112 O111 1.953 . S
Zn112 O113 1.949 . S
Zn112 O119 1.919 1_554 S
Zn112 O124 1.924 . S
O113 Zn112 1.949 . S
O113 Zn114 1.923 1_545 S
O113 Zn115 1.950 . S
O113 Zn116 1.945 . S
Zn114 O113 1.923 1_565 S
Zn114 O117 1.933 . S
Zn114 O120 1.941 1_554 S
Zn114 O121 1.965 . S
Zn115 O113 1.950 . S
Zn115 O122 1.938 . S
Zn115 O123 1.906 . S
Zn115 O133 1.953 . S
Zn116 O113 1.945 . S
Zn116 O118 1.932 1_545 S
Zn116 O125 1.977 . S
Zn116 O126 1.910 . S
O117 Zn114 1.933 . S
O117 C128 1.226 . S
O118 Zn116 1.932 1_565 S
O118 C128 1.307 . S
O119 Zn112 1.919 1_556 S
O119 C130 1.253 1_545 S
O120 Zn114 1.941 1_556 S
O120 C130 1.283 . S
O121 Zn114 1.965 . S
O121 C129 1.303 1_565 S
O122 Zn115 1.938 . S
O122 C129 1.247 . S
O123 Zn115 1.906 . S
O123 C131 1.304 . S
O124 Zn112 1.924 . S
O124 C132 1.311 . S
O125 Zn116 1.977 . S
O125 C131 1.272 . S
O126 Zn116 1.910 . S
O126 C132 1.231 . S
C127 O111 1.225 . S
C127 O133 1.298 . S
C128 O117 1.226 . S
C128 O118 1.307 . S
C129 O121 1.303 1_545 S
C129 O122 1.247 . S
C130 O119 1.253 1_565 S
C130 O120 1.283 . S
C131 O123 1.304 . S
C131 O125 1.272 . S
C132 O124 1.311 . S
C132 O126 1.231 . S
O133 Zn115 1.953 . S
O133 C127 1.298 . S
O134 Zn135 1.953 . S
O134 C150 1.225 . S
Zn135 O134 1.953 . S
Zn135 O136 1.949 . S
Zn135 O142 1.919 . S
Zn135 O147 1.924 . S
O136 Zn135 1.949 . S
O136 Zn137 1.923 . S
O136 Zn138 1.950 . S
O136 Zn139 1.945 . S
Zn137 O136 1.923 . S
Zn137 O140 1.933 . S
Zn137 O143 1.941 . S
Zn137 O144 1.965 . S
Zn138 O136 1.950 . S
Zn138 O145 1.938 . S
Zn138 O146 1.906 . S
Zn138 O156 1.953 . S
Zn139 O136 1.945 . S
Zn139 O141 1.932 . S
Zn139 O148 1.977 . S
Zn139 O149 1.910 . S
O140 Zn137 1.933 . S
O140 C151 1.226 . S
O141 Zn139 1.932 . S
O141 C151 1.307 . S
O142 Zn135 1.919 . S
O142 C153 1.253 . S
O143 Zn137 1.941 . S
O143 C153 1.283 . S
O144 Zn137 1.965 . S
O144 C152 1.303 . S
O145 Zn138 1.938 . S
O145 C152 1.247 . S
O146 Zn138 1.906 . S
O146 C154 1.304 . S
O147 Zn135 1.924 . S
O147 C155 1.311 . S
O148 Zn139 1.977 . S
O148 C154 1.272 . S
O149 Zn139 1.910 . S
O149 C155 1.231 . S
C150 O134 1.225 . S
C150 O156 1.298 . S
C151 O140 1.226 . S
C151 O141 1.307 . S
C152 O144 1.303 . S
C152 O145 1.247 . S
C153 O142 1.253 . S
C153 O143 1.283 . S
C154 O146 1.304 . S
C154 O148 1.272 . S
C155 O147 1.311 . S
C155 O149 1.231 . S
O156 Zn138 1.953 . S
O156 C150 1.298 . S
O157 Zn158 1.953 . S
O157 C173 1.225 . S
Zn158 O157 1.953 . S
Zn158 O159 1.949 1_655 S
Zn158 O165 1.919 . S
Zn158 O170 1.924 . S
O159 Zn158 1.949 1_455 S
O159 Zn160 1.936 1_554 S
O159 Zn161 1.950 . S
O159 Zn162 1.945 1_554 S
Zn160 O159 1.936 1_556 S
Zn160 O163 1.950 . S
Zn160 O166 1.910 1_455 S
Zn160 O167 1.963 . S
Zn161 O159 1.950 . S
Zn161 O168 1.938 . S
Zn161 O169 1.906 . S
Zn161 O179 1.953 . S
Zn162 O159 1.945 1_556 S
Zn162 O164 1.932 . S
Zn162 O171 1.976 1_556 S
Zn162 O172 1.910 1_556 S
O163 Zn160 1.950 . S
O163 C174 1.226 . S
O164 Zn162 1.932 . S
O164 C174 1.307 . S
O165 Zn158 1.919 . S
O165 C176 1.253 1_554 S
O166 Zn160 1.910 1_655 S
O166 C176 1.283 . S
O167 Zn160 1.963 . S
O167 C175 1.303 . S
O168 Zn161 1.938 . S
O168 C175 1.247 1_554 S
O169 Zn161 1.906 . S
O169 C177 1.304 . S
O170 Zn158 1.924 . S
O170 C178 1.311 1_655 S
O171 Zn162 1.976 1_554 S
O171 C177 1.272 . S
O172 Zn162 1.910 1_554 S
O172 C178 1.231 . S
C173 O157 1.225 . S
C173 O179 1.298 1_655 S
C174 O163 1.226 . S
C174 O164 1.307 . S
C175 O167 1.303 . S
C175 O168 1.247 1_556 S
C176 O165 1.253 1_556 S
C176 O166 1.283 . S
C177 O169 1.304 . S
C177 O171 1.272 . S
C178 O170 1.311 1_455 S
C178 O172 1.231 . S
O179 Zn161 1.953 . S
O179 C173 1.298 1_455 S
C180 C181 1.349 . S
C180 C182 1.327 . S
C180 H205 0.950 . S
C181 C180 1.349 . S
C181 C197 1.349 . S
C182 C180 1.327 . S
C182 C201 1.429 . S
C182 H206 0.950 . S
C183 C200 1.574 . S
C183 C202 1.368 . S
C183 H207 0.949 . S
H184 C188 0.949 . S
C185 C186 1.349 . S
C185 C187 1.327 . S
C185 H208 0.950 . S
C186 C185 1.349 . S
C186 C198 1.349 . S
C187 C185 1.327 . S
C187 C203 1.429 . S
C187 H209 0.950 . S
C188 H184 0.949 . S
C188 C196 1.574 . S
C188 C204 1.368 . S
H189 C197 0.950 . S
H190 C195 0.950 . S
H191 C196 0.949 . S
H192 C198 0.950 . S
H193 C199 0.950 . S
H194 C200 0.949 . S
C195 H190 0.950 . S
C195 C197 1.327 . S
C195 C201 1.429 . S
C196 C188 1.574 . S
C196 H191 0.949 . S
C196 C202 1.368 . S
C197 C181 1.349 . S
C197 H189 0.950 . S
C197 C195 1.327 . S
C198 C186 1.349 . S
C198 H192 0.950 . S
C198 C199 1.327 . S
C199 H193 0.950 . S
C199 C198 1.327 . S
C199 C203 1.429 . S
C200 C183 1.574 . S
C200 H194 0.949 . S
C200 C204 1.368 . S
C201 C182 1.429 . S
C201 C195 1.429 . S
C201 C202 1.523 . S
C202 C183 1.368 . S
C202 C196 1.368 . S
C202 C201 1.523 . S
C203 C187 1.429 . S
C203 C199 1.429 . S
C203 C204 1.523 . S
C204 C188 1.368 . S
C204 C200 1.368 . S
C204 C203 1.523 . S
H205 C180 0.950 . S
H206 C182 0.950 . S
H207 C183 0.949 . S
H208 C185 0.950 . S
H209 C187 0.950 . S
C210 C211 1.349 . S
C210 C212 1.327 . S
C210 H235 0.950 . S
C211 C210 1.349 . S
C211 C227 1.349 . S
C212 C210 1.327 . S
C212 C231 1.429 . S
C212 H236 0.950 . S
C213 C230 1.574 . S
C213 C232 1.368 . S
C213 H237 0.949 . S
H214 C218 0.949 . S
C215 C216 1.349 . S
C215 C217 1.327 . S
C215 H238 0.950 . S
C216 C215 1.349 . S
C216 C228 1.349 . S
C217 C215 1.327 . S
C217 C233 1.429 . S
C217 H239 0.950 . S
C218 H214 0.949 . S
C218 C226 1.574 . S
C218 C234 1.368 . S
H219 C227 0.950 . S
H220 C225 0.950 . S
H221 C226 0.949 . S
H222 C228 0.950 1_545 S
H223 C229 0.950 . S
H224 C230 0.949 . S
C225 H220 0.950 . S
C225 C227 1.327 . S
C225 C231 1.429 . S
C226 C218 1.574 . S
C226 H221 0.949 . S
C226 C232 1.368 . S
C227 C211 1.349 . S
C227 H219 0.950 . S
C227 C225 1.327 . S
C228 C216 1.349 . S
C228 H222 0.950 1_565 S
C228 C229 1.327 . S
C229 H223 0.950 . S
C229 C228 1.327 . S
C229 C233 1.429 . S
C230 C213 1.574 . S
C230 H224 0.949 . S
C230 C234 1.368 . S
C231 C212 1.429 . S
C231 C225 1.429 . S
C231 C232 1.523 . S
C232 C213 1.368 . S
C232 C226 1.368 . S
C232 C231 1.523 . S
C233 C217 1.429 . S
C233 C229 1.429 . S
C233 C234 1.523 . S
C234 C218 1.368 . S
C234 C230 1.368 . S
C234 C233 1.523 . S
H235 C210 0.950 . S
H236 C212 0.950 . S
H237 C213 0.949 . S
H238 C215 0.950 . S
H239 C217 0.950 . S
C240 C241 1.349 . S
C240 C242 1.327 . S
C240 H265 0.950 . S
C241 C240 1.349 . S
C241 C257 1.349 . S
C242 C240 1.327 . S
C242 C261 1.429 . S
C242 H266 0.950 . S
C243 C260 1.574 . S
C243 C262 1.368 . S
C243 H267 0.949 . S
H244 C248 0.949 . S
C245 C246 1.349 . S
C245 C247 1.327 . S
C245 H268 0.950 . S
C246 C245 1.349 . S
C246 C258 1.349 . S
C247 C245 1.327 . S
C247 C263 1.429 . S
C247 H269 0.950 . S
C248 H244 0.949 . S
C248 C256 1.574 . S
C248 C264 1.368 . S
H249 C257 0.950 . S
H250 C255 0.950 . S
H251 C256 0.949 . S
H252 C258 0.950 . S
H253 C259 0.950 . S
H254 C260 0.949 . S
C255 H250 0.950 . S
C255 C257 1.327 . S
C255 C261 1.429 . S
C256 C248 1.574 . S
C256 H251 0.949 . S
C256 C262 1.368 . S
C257 C241 1.349 . S
C257 H249 0.950 . S
C257 C255 1.327 . S
C258 C246 1.349 . S
C258 H252 0.950 . S
C258 C259 1.327 . S
C259 H253 0.950 . S
C259 C258 1.327 . S
C259 C263 1.429 . S
C260 C243 1.574 . S
C260 H254 0.949 . S
C260 C264 1.368 . S
C261 C242 1.429 . S
C261 C255 1.429 . S
C261 C262 1.523 . S
C262 C243 1.368 . S
C262 C256 1.368 . S
C262 C261 1.523 . S
C263 C247 1.429 . S
C263 C259 1.429 . S
C263 C264 1.523 . S
C264 C248 1.368 . S
C264 C260 1.368 . S
C264 C263 1.523 . S
H265 C240 0.950 . S
H266 C242 0.950 . S
H267 C243 0.949 . S
H268 C245 0.950 . S
H269 C247 0.950 . S
C270 C271 1.349 . S
C270 C272 1.327 . S
C270 H295 0.950 . S
C271 C270 1.349 . S
C271 C287 1.349 . S
C272 C270 1.327 . S
C272 C291 1.429 . S
C272 H296 0.950 . S
C273 C290 1.574 . S
C273 C292 1.368 . S
C273 H297 0.949 . S
H274 C278 0.949 . S
C275 C276 1.349 . S
C275 C277 1.327 . S
C275 H298 0.950 1_655 S
C276 C275 1.349 . S
C276 C288 1.349 . S
C277 C275 1.327 . S
C277 C293 1.429 . S
C277 H299 0.965 . S
C278 H274 0.949 . S
C278 C286 1.574 . S
C278 C294 1.368 . S
H279 C287 0.950 . S
H280 C285 0.950 . S
H281 C286 0.949 . S
H282 C288 0.950 . S
H283 C289 0.950 . S
H284 C290 0.949 . S
C285 H280 0.950 . S
C285 C287 1.327 . S
C285 C291 1.429 . S
C286 C278 1.574 . S
C286 H281 0.949 . S
C286 C292 1.368 . S
C287 C271 1.349 . S
C287 H279 0.950 . S
C287 C285 1.327 . S
C288 C276 1.349 . S
C288 H282 0.950 . S
C288 C289 1.327 . S
C289 H283 0.950 . S
C289 C288 1.327 . S
C289 C293 1.429 . S
C290 C273 1.574 . S
C290 H284 0.949 . S
C290 C294 1.368 . S
C291 C272 1.429 . S
C291 C285 1.429 . S
C291 C292 1.523 . S
C292 C273 1.368 . S
C292 C286 1.368 . S
C292 C291 1.523 . S
C293 C277 1.429 . S
C293 C289 1.429 . S
C293 C294 1.523 . S
C294 C278 1.368 . S
C294 C290 1.368 . S
C294 C293 1.523 . S
H295 C270 0.950 . S
H296 C272 0.950 . S
H297 C273 0.949 . S
H298 C275 0.950 1_455 S
H299 C277 0.965 . S
C300 C301 1.349 . S
C300 C302 1.327 . S
C300 H325 0.950 . S
C301 C300 1.349 . S
C301 C317 1.349 . S
C302 C300 1.327 . S
C302 C321 1.429 . S
C302 H326 0.950 . S
C303 C320 1.574 . S
C303 C322 1.368 . S
C303 H327 0.949 . S
H304 C308 0.949 . S
C305 C306 1.349 . S
C305 C307 1.327 . S
C305 H328 0.950 . S
C306 C305 1.349 . S
C306 C318 1.349 . S
C307 C305 1.327 . S
C307 C323 1.429 . S
C307 H329 0.950 . S
C308 H304 0.949 . S
C308 C316 1.574 . S
C308 C324 1.368 . S
H309 C317 0.950 . S
H310 C315 0.950 . S
H311 C316 0.949 . S
H312 C318 0.950 . S
H313 C319 0.950 . S
H314 C320 0.949 . S
C315 H310 0.950 . S
C315 C317 1.327 . S
C315 C321 1.429 . S
C316 C308 1.574 . S
C316 H311 0.949 . S
C316 C322 1.368 . S
C317 C301 1.349 . S
C317 H309 0.950 . S
C317 C315 1.327 . S
C318 C306 1.349 . S
C318 H312 0.950 . S
C318 C319 1.327 . S
C319 H313 0.950 . S
C319 C318 1.327 . S
C319 C323 1.429 . S
C320 C303 1.574 . S
C320 H314 0.949 . S
C320 C324 1.368 . S
C321 C302 1.429 . S
C321 C315 1.429 . S
C321 C322 1.523 . S
C322 C303 1.368 . S
C322 C316 1.368 . S
C322 C321 1.523 . S
C323 C307 1.429 . S
C323 C319 1.429 . S
C323 C324 1.523 . S
C324 C308 1.368 . S
C324 C320 1.368 . S
C324 C323 1.523 . S
H325 C300 0.950 . S
H326 C302 0.950 . S
H327 C303 0.949 . S
H328 C305 0.950 . S
H329 C307 0.950 . S
C330 C331 1.349 . S
C330 C332 1.327 . S
C330 H355 0.950 . S
C331 C330 1.349 . S
C331 C347 1.349 . S
C332 C330 1.327 . S
C332 C351 1.429 . S
C332 H356 0.950 . S
C333 C350 1.574 . S
C333 C352 1.368 . S
C333 H357 0.949 . S
H334 C338 0.949 . S
C335 C336 1.349 . S
C335 C337 1.327 . S
C335 H358 0.950 . S
C336 C335 1.349 . S
C336 C348 1.349 . S
C337 C335 1.327 . S
C337 C353 1.429 . S
C337 H359 0.950 . S
C338 H334 0.949 . S
C338 C346 1.574 . S
C338 C354 1.368 . S
H339 C347 0.950 . S
H340 C345 0.950 . S
H341 C346 0.949 . S
H342 C348 0.950 . S
H343 C349 0.950 . S
H344 C350 0.949 . S
C345 H340 0.950 . S
C345 C347 1.327 . S
C345 C351 1.429 . S
C346 C338 1.574 . S
C346 H341 0.949 . S
C346 C352 1.368 . S
C347 C331 1.349 . S
C347 H339 0.950 . S
C347 C345 1.327 . S
C348 C336 1.349 . S
C348 H342 0.950 . S
C348 C349 1.327 . S
C349 H343 0.950 . S
C349 C348 1.327 . S
C349 C353 1.429 . S
C350 C333 1.574 . S
C350 H344 0.949 . S
C350 C354 1.368 . S
C351 C332 1.429 . S
C351 C345 1.429 . S
C351 C352 1.523 . S
C352 C333 1.368 . S
C352 C346 1.368 . S
C352 C351 1.523 . S
C353 C337 1.429 . S
C353 C349 1.429 . S
C353 C354 1.523 . S
C354 C338 1.368 . S
C354 C350 1.368 . S
C354 C353 1.523 . S
H355 C330 0.950 . S
H356 C332 0.950 . S
H357 C333 0.949 . S
H358 C335 0.950 . S
H359 C337 0.950 . S
C360 C361 1.349 . S
C360 C362 1.327 . S
C360 H385 0.950 . S
C361 C360 1.349 . S
C361 C377 1.349 . S
C362 C360 1.327 . S
C362 C381 1.429 . S
C362 H386 0.950 . S
C363 C380 1.574 . S
C363 C382 1.368 . S
C363 H387 0.949 . S
H364 C368 0.949 . S
C365 C366 1.349 . S
C365 C367 1.327 . S
C365 H388 0.946 1_556 S
C366 C365 1.349 . S
C366 C378 1.349 . S
C367 C365 1.327 . S
C367 C383 1.429 . S
C367 H389 0.950 . S
C368 H364 0.949 . S
C368 C376 1.574 . S
C368 C384 1.368 . S
H369 C377 0.950 . S
H370 C375 0.950 . S
H371 C376 0.949 . S
H372 C378 0.950 . S
H373 C379 0.950 . S
H374 C380 0.949 . S
C375 H370 0.950 . S
C375 C377 1.327 . S
C375 C381 1.429 . S
C376 C368 1.574 . S
C376 H371 0.949 . S
C376 C382 1.368 . S
C377 C361 1.349 . S
C377 H369 0.950 . S
C377 C375 1.327 . S
C378 C366 1.349 . S
C378 H372 0.950 . S
C378 C379 1.327 . S
C379 H373 0.950 . S
C379 C378 1.327 . S
C379 C383 1.429 . S
C380 C363 1.574 . S
C380 H374 0.949 . S
C380 C384 1.368 . S
C381 C362 1.429 . S
C381 C375 1.429 . S
C381 C382 1.523 . S
C382 C363 1.368 . S
C382 C376 1.368 . S
C382 C381 1.523 . S
C383 C367 1.429 . S
C383 C379 1.429 . S
C383 C384 1.523 . S
C384 C368 1.368 . S
C384 C380 1.368 . S
C384 C383 1.523 . S
H385 C360 0.950 . S
H386 C362 0.950 . S
H387 C363 0.949 . S
H388 C365 0.946 1_554 S
H389 C367 0.950 . S
C390 C391 1.349 . S
C390 C392 1.327 . S
C390 H415 0.950 . S
C391 C390 1.349 . S
C391 C407 1.349 . S
C392 C390 1.327 . S
C392 C411 1.429 . S
C392 H416 0.950 . S
C393 C410 1.574 . S
C393 C412 1.368 . S
C393 H417 0.949 . S
H394 C398 0.949 . S
C395 C396 1.349 . S
C395 C397 1.327 . S
C395 H418 0.950 . S
C396 C395 1.349 . S
C396 C408 1.349 . S
C397 C395 1.327 . S
C397 C413 1.429 . S
C397 H419 0.950 . S
C398 H394 0.949 . S
C398 C406 1.574 . S
C398 C414 1.368 . S
H399 C407 0.950 . S
H400 C405 0.950 . S
H401 C406 0.949 . S
H402 C408 0.950 . S
H403 C409 0.950 . S
H404 C410 0.949 . S
C405 H400 0.950 . S
C405 C407 1.327 . S
C405 C411 1.429 . S
C406 C398 1.574 . S
C406 H401 0.949 . S
C406 C412 1.368 . S
C407 C391 1.349 . S
C407 H399 0.950 . S
C407 C405 1.327 . S
C408 C396 1.349 . S
C408 H402 0.950 . S
C408 C409 1.327 . S
C409 H403 0.950 . S
C409 C408 1.327 . S
C409 C413 1.429 . S
C410 C393 1.574 . S
C410 H404 0.949 . S
C410 C414 1.368 . S
C411 C392 1.429 . S
C411 C405 1.429 . S
C411 C412 1.523 . S
C412 C393 1.368 . S
C412 C406 1.368 . S
C412 C411 1.523 . S
C413 C397 1.429 . S
C413 C409 1.429 . S
C413 C414 1.523 . S
C414 C398 1.368 . S
C414 C410 1.368 . S
C414 C413 1.523 . S
H415 C390 0.950 . S
H416 C392 0.950 . S
H417 C393 0.949 . S
H418 C395 0.950 . S
H419 C397 0.950 . S
C420 C421 1.349 . S
C420 C422 1.327 . S
C420 H445 0.950 . S
C421 C420 1.349 . S
C421 C437 1.349 . S
C422 C420 1.327 . S
C422 C441 1.429 . S
C422 H446 0.950 . S
C423 C440 1.574 . S
C423 C442 1.368 . S
C423 H447 0.949 . S
H424 C428 0.949 . S
C425 C426 1.349 . S
C425 C427 1.327 . S
C425 H448 0.950 . S
C426 C425 1.349 . S
C426 C438 1.349 . S
C427 C425 1.327 . S
C427 C443 1.429 . S
C427 H449 0.950 . S
C428 H424 0.949 . S
C428 C436 1.574 . S
C428 C444 1.368 . S
H429 C437 0.950 . S
H430 C435 0.950 . S
H431 C436 0.949 . S
H432 C438 0.950 . S
H433 C439 0.950 . S
H434 C440 0.949 . S
C435 H430 0.950 . S
C435 C437 1.327 . S
C435 C441 1.429 . S
C436 C428 1.574 . S
C436 H431 0.949 . S
C436 C442 1.368 . S
C437 C421 1.349 . S
C437 H429 0.950 . S
C437 C435 1.327 . S
C438 C426 1.349 . S
C438 H432 0.950 . S
C438 C439 1.327 . S
C439 H433 0.950 . S
C439 C438 1.327 . S
C439 C443 1.429 . S
C440 C423 1.574 . S
C440 H434 0.949 . S
C440 C444 1.368 . S
C441 C422 1.429 . S
C441 C435 1.429 . S
C441 C442 1.523 . S
C442 C423 1.368 . S
C442 C436 1.368 . S
C442 C441 1.523 . S
C443 C427 1.429 . S
C443 C439 1.429 . S
C443 C444 1.523 . S
C444 C428 1.368 . S
C444 C440 1.368 . S
C444 C443 1.523 . S
H445 C420 0.950 . S
H446 C422 0.950 . S
H447 C423 0.949 . S
H448 C425 0.950 . S
H449 C427 0.950 . S
C450 C451 1.349 . S
C450 C452 1.327 . S
C450 H475 0.950 . S
C451 C450 1.349 . S
C451 C467 1.349 . S
C452 C450 1.327 . S
C452 C471 1.429 . S
C452 H476 0.950 . S
C453 C470 1.574 1_556 S
C453 C472 1.368 . S
C453 H477 0.948 . S
H454 C458 0.949 . S
C455 C456 1.349 . S
C455 C457 1.327 . S
C455 H478 0.950 . S
C456 C455 1.349 . S
C456 C468 1.349 1_554 S
C457 C455 1.327 . S
C457 C473 1.429 1_554 S
C457 H479 0.950 . S
C458 H454 0.949 . S
C458 C466 1.574 . S
C458 C474 1.368 . S
H459 C467 0.950 . S
H460 C465 0.950 . S
H461 C466 0.949 . S
H462 C468 0.950 . S
H463 C469 0.950 . S
H464 C470 0.949 . S
C465 H460 0.950 . S
C465 C467 1.327 . S
C465 C471 1.429 . S
C466 C458 1.574 . S
C466 H461 0.949 . S
C466 C472 1.368 . S
C467 C451 1.349 . S
C467 H459 0.950 . S
C467 C465 1.327 . S
C468 C456 1.349 1_556 S
C468 H462 0.950 . S
C468 C469 1.327 . S
C469 H463 0.950 . S
C469 C468 1.327 . S
C469 C473 1.429 . S
C470 C453 1.574 1_554 S
C470 H464 0.949 . S
C470 C474 1.368 1_554 S
C471 C452 1.429 . S
C471 C465 1.429 . S
C471 C472 1.523 . S
C472 C453 1.368 . S
C472 C466 1.368 . S
C472 C471 1.523 . S
C473 C457 1.429 1_556 S
C473 C469 1.429 . S
C473 C474 1.523 . S
C474 C458 1.368 . S
C474 C470 1.368 1_556 S
C474 C473 1.523 . S
H475 C450 0.950 . S
H476 C452 0.950 . S
H477 C453 0.948 . S
H478 C455 0.950 . S
H479 C457 0.950 . S
C480 C481 1.349 . S
C480 C482 1.327 . S
C480 H505 0.950 . S
C481 C480 1.349 . S
C481 C497 1.349 . S
C482 C480 1.327 . S
C482 C501 1.429 . S
C482 H506 0.950 . S
C483 C500 1.574 . S
C483 C502 1.368 . S
C483 H507 0.949 . S
H484 C488 0.949 . S
C485 C486 1.349 . S
C485 C487 1.327 . S
C485 H508 0.950 . S
C486 C485 1.349 . S
C486 C498 1.349 . S
C487 C485 1.327 . S
C487 C503 1.429 . S
C487 H509 0.950 . S
C488 H484 0.949 . S
C488 C496 1.574 . S
C488 C504 1.368 . S
H489 C497 0.950 . S
H490 C495 0.950 . S
H491 C496 0.949 . S
H492 C498 0.950 . S
H493 C499 0.950 . S
H494 C500 0.949 . S
C495 H490 0.950 . S
C495 C497 1.327 . S
C495 C501 1.429 . S
C496 C488 1.574 . S
C496 H491 0.949 . S
C496 C502 1.368 . S
C497 C481 1.349 . S
C497 H489 0.950 . S
C497 C495 1.327 . S
C498 C486 1.349 . S
C498 H492 0.950 . S
C498 C499 1.327 . S
C499 H493 0.950 . S
C499 C498 1.327 . S
C499 C503 1.429 . S
C500 C483 1.574 . S
C500 H494 0.949 . S
C500 C504 1.368 . S
C501 C482 1.429 . S
C501 C495 1.429 . S
C501 C502 1.523 . S
C502 C483 1.368 . S
C502 C496 1.368 . S
C502 C501 1.523 . S
C503 C487 1.429 . S
C503 C499 1.429 . S
C503 C504 1.523 . S
C504 C488 1.368 . S
C504 C500 1.368 . S
C504 C503 1.523 . S
H505 C480 0.950 . S
H506 C482 0.950 . S
H507 C483 0.949 . S
H508 C485 0.950 . S
H509 C487 0.950 . S
C510 C511 1.349 . S
C510 C512 1.327 . S
C510 H535 0.950 . S
C511 C510 1.349 . S
C511 C527 1.349 . S
C512 C510 1.327 . S
C512 C531 1.429 . S
C512 H536 0.950 . S
C513 C530 1.574 . S
C513 C532 1.368 . S
C513 H537 0.949 . S
H514 C518 0.949 . S
C515 C516 1.349 . S
C515 C517 1.327 . S
C515 H538 0.950 . S
C516 C515 1.349 . S
C516 C528 1.349 . S
C517 C515 1.327 . S
C517 C533 1.429 . S
C517 H539 0.950 . S
C518 H514 0.949 . S
C518 C526 1.574 . S
C518 C534 1.368 . S
H519 C527 0.950 . S
H520 C525 0.950 . S
H521 C526 0.949 . S
H522 C528 0.950 . S
H523 C529 0.950 . S
H524 C530 0.949 . S
C525 H520 0.950 . S
C525 C527 1.327 . S
C525 C531 1.429 . S
C526 C518 1.574 . S
C526 H521 0.949 . S
C526 C532 1.368 . S
C527 C511 1.349 . S
C527 H519 0.950 . S
C527 C525 1.327 . S
C528 C516 1.349 . S
C528 H522 0.950 . S
C528 C529 1.327 . S
C529 H523 0.950 . S
C529 C528 1.327 . S
C529 C533 1.429 . S
C530 C513 1.574 . S
C530 H524 0.949 . S
C530 C534 1.368 . S
C531 C512 1.429 . S
C531 C525 1.429 . S
C531 C532 1.523 . S
C532 C513 1.368 . S
C532 C526 1.368 . S
C532 C531 1.523 . S
C533 C517 1.429 . S
C533 C529 1.429 . S
C533 C534 1.523 . S
C534 C518 1.368 . S
C534 C530 1.368 . S
C534 C533 1.523 . S
H535 C510 0.950 . S
H536 C512 0.950 . S
H537 C513 0.949 . S
H538 C515 0.950 . S
H539 C517 0.950 . S
C540 C541 1.349 . S
C540 C542 1.327 . S
C540 H565 0.950 . S
C541 C540 1.349 . S
C541 C557 1.349 . S
C542 C540 1.327 . S
C542 C561 1.429 . S
C542 H566 0.950 . S
C543 C560 1.574 . S
C543 C562 1.368 1_545 S
C543 H567 0.949 . S
H544 C548 0.949 . S
C545 C546 1.351 1_455 S
C545 C547 1.328 1_455 S
C545 H568 0.947 . S
C546 C545 1.351 1_655 S
C546 C558 1.349 1_545 S
C547 C545 1.328 1_655 S
C547 C563 1.429 . S
C547 H569 0.950 1_655 S
C548 H544 0.949 . S
C548 C556 1.574 . S
C548 C564 1.381 . S
H549 C557 0.950 . S
H550 C555 0.950 1_545 S
H551 C556 0.949 . S
H552 C558 0.950 . S
H553 C559 0.950 . S
H554 C560 0.949 1_455 S
C555 H550 0.950 1_565 S
C555 C557 1.327 . S
C555 C561 1.429 . S
C556 C548 1.574 . S
C556 H551 0.949 . S
C556 C562 1.368 . S
C557 C541 1.349 . S
C557 H549 0.950 . S
C557 C555 1.327 . S
C558 C546 1.349 1_565 S
C558 H552 0.950 . S
C558 C559 1.327 . S
C559 H553 0.950 . S
C559 C558 1.327 . S
C559 C563 1.429 1_565 S
C560 C543 1.574 . S
C560 H554 0.949 1_655 S
C560 C564 1.360 1_545 S
C561 C542 1.429 . S
C561 C555 1.429 . S
C561 C562 1.523 . S
C562 C543 1.368 1_565 S
C562 C556 1.368 . S
C562 C561 1.523 . S
C563 C547 1.429 . S
C563 C559 1.429 1_545 S
C563 C564 1.519 1_545 S
C564 C548 1.381 . S
C564 C560 1.360 1_565 S
C564 C563 1.519 1_565 S
H565 C540 0.950 . S
H566 C542 0.950 . S
H567 C543 0.949 . S
H568 C545 0.947 . S
H569 C547 0.950 1_455 S
C570 C571 1.349 . S
C570 C572 1.327 . S
C570 H595 0.950 . S
C571 C570 1.349 . S
C571 C587 1.349 . S
C572 C570 1.327 . S
C572 C591 1.429 . S
C572 H596 0.950 . S
C573 C590 1.574 . S
C573 C592 1.368 . S
C573 H597 0.949 . S
H574 C578 0.949 . S
C575 C576 1.349 . S
C575 C577 1.327 . S
C575 H598 0.950 . S
C576 C575 1.349 . S
C576 C588 1.349 . S
C577 C575 1.327 . S
C577 C593 1.429 . S
C577 H599 0.950 . S
C578 H574 0.949 . S
C578 C586 1.574 . S
C578 C594 1.368 . S
H579 C587 0.950 . S
H580 C585 0.950 . S
H581 C586 0.949 . S
H582 C588 0.950 . S
H583 C589 0.950 . S
H584 C590 0.949 . S
C585 H580 0.950 . S
C585 C587 1.327 . S
C585 C591 1.429 . S
C586 C578 1.574 . S
C586 H581 0.949 . S
C586 C592 1.368 . S
C587 C571 1.349 . S
C587 H579 0.950 . S
C587 C585 1.327 . S
C588 C576 1.349 . S
C588 H582 0.950 . S
C588 C589 1.327 . S
C589 H583 0.950 . S
C589 C588 1.327 . S
C589 C593 1.429 . S
C590 C573 1.574 . S
C590 H584 0.949 . S
C590 C594 1.368 . S
C591 C572 1.429 . S
C591 C585 1.429 . S
C591 C592 1.523 . S
C592 C573 1.368 . S
C592 C586 1.368 . S
C592 C591 1.523 . S
C593 C577 1.429 . S
C593 C589 1.429 . S
C593 C594 1.523 . S
C594 C578 1.368 . S
C594 C590 1.368 . S
C594 C593 1.523 . S
H595 C570 0.950 . S
H596 C572 0.950 . S
H597 C573 0.949 . S
H598 C575 0.950 . S
H599 C577 0.950 . S
C600 C601 1.349 . S
C600 C602 1.327 . S
C600 H625 0.950 . S
C601 C600 1.349 . S
C601 C617 1.349 . S
C602 C600 1.327 . S
C602 C621 1.429 . S
C602 H626 0.950 . S
C603 C620 1.574 . S
C603 C622 1.368 . S
C603 H627 0.949 . S
H604 C608 0.949 . S
C605 C606 1.349 . S
C605 C607 1.327 . S
C605 H628 0.950 . S
C606 C605 1.349 . S
C606 C618 1.349 . S
C607 C605 1.327 . S
C607 C623 1.429 . S
C607 H629 0.950 . S
C608 H604 0.949 . S
C608 C616 1.574 . S
C608 C624 1.368 . S
H609 C617 0.950 . S
H610 C615 0.950 . S
H611 C616 0.949 . S
H612 C618 0.950 . S
H613 C619 0.950 . S
H614 C620 0.949 . S
C615 H610 0.950 . S
C615 C617 1.327 . S
C615 C621 1.429 . S
C616 C608 1.574 . S
C616 H611 0.949 . S
C616 C622 1.368 . S
C617 C601 1.349 . S
C617 H609 0.950 . S
C617 C615 1.327 . S
C618 C606 1.349 . S
C618 H612 0.950 . S
C618 C619 1.327 . S
C619 H613 0.950 . S
C619 C618 1.327 . S
C619 C623 1.429 . S
C620 C603 1.574 . S
C620 H614 0.949 . S
C620 C624 1.368 . S
C621 C602 1.429 . S
C621 C615 1.429 . S
C621 C622 1.523 . S
C622 C603 1.368 . S
C622 C616 1.368 . S
C622 C621 1.523 . S
C623 C607 1.429 . S
C623 C619 1.429 . S
C623 C624 1.523 . S
C624 C608 1.368 . S
C624 C620 1.368 . S
C624 C623 1.523 . S
H625 C600 0.950 . S
H626 C602 0.950 . S
H627 C603 0.949 . S
H628 C605 0.950 . S
H629 C607 0.950 . S
C630 C631 1.349 . S
C630 C632 1.327 . S
C630 H655 0.950 . S
C631 C630 1.349 . S
C631 C647 1.349 . S
C632 C630 1.327 . S
C632 C651 1.429 . S
C632 H656 0.950 . S
C633 C650 1.574 . S
C633 C652 1.368 . S
C633 H657 0.949 . S
H634 C638 0.949 . S
C635 C636 1.349 . S
C635 C637 1.327 . S
C635 H658 0.950 . S
C636 C635 1.349 . S
C636 C648 1.349 . S
C637 C635 1.327 . S
C637 C653 1.429 . S
C637 H659 0.950 . S
C638 H634 0.949 . S
C638 C646 1.574 . S
C638 C654 1.368 . S
H639 C647 0.950 . S
H640 C645 0.950 . S
H641 C646 0.949 . S
H642 C648 0.950 . S
H643 C649 0.950 . S
H644 C650 0.949 . S
C645 H640 0.950 . S
C645 C647 1.327 . S
C645 C651 1.429 . S
C646 C638 1.574 . S
C646 H641 0.949 . S
C646 C652 1.368 . S
C647 C631 1.349 . S
C647 H639 0.950 . S
C647 C645 1.327 . S
C648 C636 1.349 . S
C648 H642 0.950 . S
C648 C649 1.327 . S
C649 H643 0.950 . S
C649 C648 1.327 . S
C649 C653 1.429 . S
C650 C633 1.574 . S
C650 H644 0.949 . S
C650 C654 1.368 . S
C651 C632 1.429 . S
C651 C645 1.429 . S
C651 C652 1.523 . S
C652 C633 1.368 . S
C652 C646 1.368 . S
C652 C651 1.523 . S
C653 C637 1.429 . S
C653 C649 1.429 . S
C653 C654 1.523 . S
C654 C638 1.368 . S
C654 C650 1.368 . S
C654 C653 1.523 . S
H655 C630 0.950 . S
H656 C632 0.950 . S
H657 C633 0.949 . S
H658 C635 0.950 . S
H659 C637 0.950 . S
C660 C661 1.349 . S
C660 C662 1.327 . S
C660 H685 0.949 1_556 S
C661 C660 1.349 . S
C661 C677 1.349 1_565 S
C662 C660 1.327 . S
C662 C681 1.429 . S
C662 H686 0.950 1_556 S
C663 C680 1.574 . S
C663 C682 1.367 1_545 S
C663 H687 0.949 . S
H664 C668 0.949 . S
C665 C666 1.349 1_556 S
C665 C667 1.327 . S
C665 H688 0.950 . S
C666 C665 1.349 1_554 S
C666 C678 1.349 . S
C667 C665 1.327 . S
C667 C683 1.429 1_556 S
C667 H689 0.950 . S
C668 H664 0.949 . S
C668 C676 1.574 . S
C668 C684 1.369 1_565 S
H669 C677 0.950 . S
H670 C675 0.950 . S
H671 C676 0.949 . S
H672 C678 0.950 1_565 S
H673 C679 0.950 . S
H674 C680 0.949 . S
C675 H670 0.950 . S
C675 C677 1.327 . S
C675 C681 1.429 1_545 S
C676 C668 1.574 . S
C676 H671 0.949 . S
C676 C682 1.369 1_554 S
C677 C661 1.349 1_545 S
C677 H669 0.950 . S
C677 C675 1.327 . S
C678 C666 1.349 . S
C678 H672 0.950 1_545 S
C678 C679 1.327 1_545 S
C679 H673 0.950 . S
C679 C678 1.327 1_565 S
C679 C683 1.429 1_565 S
C680 C663 1.574 . S
C680 H674 0.949 . S
C680 C684 1.367 1_556 S
C681 C662 1.429 . S
C681 C675 1.429 1_565 S
C681 C682 1.523 . S
C682 C663 1.367 1_565 S
C682 C676 1.369 1_556 S
C682 C681 1.523 . S
C683 C667 1.429 1_554 S
C683 C679 1.429 1_545 S
C683 C684 1.523 . S
C684 C668 1.369 1_545 S
C684 C680 1.367 1_554 S
C684 C683 1.523 . S
H685 C660 0.949 1_554 S
H686 C662 0.950 1_554 S
H687 C663 0.949 . S
H688 C665 0.950 . S
H689 C667 0.950 . S
C690 C691 1.349 . S
C690 C692 1.327 . S
C690 H715 0.950 . S
C691 C690 1.349 . S
C691 C707 1.349 . S
C692 C690 1.327 . S
C692 C711 1.429 . S
C692 H716 0.950 . S
C693 C710 1.574 . S
C693 C712 1.368 . S
C693 H717 0.949 . S
H694 C698 0.949 . S
C695 C696 1.349 . S
C695 C697 1.327 . S
C695 H718 0.950 . S
C696 C695 1.349 . S
C696 C708 1.349 . S
C697 C695 1.327 . S
C697 C713 1.429 . S
C697 H719 0.950 . S
C698 H694 0.949 . S
C698 C706 1.574 . S
C698 C714 1.368 . S
H699 C707 0.950 . S
H700 C705 0.950 . S
H701 C706 0.949 . S
H702 C708 0.950 . S
H703 C709 0.950 . S
H704 C710 0.949 . S
C705 H700 0.950 . S
C705 C707 1.327 . S
C705 C711 1.429 . S
C706 C698 1.574 . S
C706 H701 0.949 . S
C706 C712 1.368 . S
C707 C691 1.349 . S
C707 H699 0.950 . S
C707 C705 1.327 . S
C708 C696 1.349 . S
C708 H702 0.950 . S
C708 C709 1.327 . S
C709 H703 0.950 . S
C709 C708 1.327 . S
C709 C713 1.429 . S
C710 C693 1.574 . S
C710 H704 0.949 . S
C710 C714 1.368 . S
C711 C692 1.429 . S
C711 C705 1.429 . S
C711 C712 1.523 . S
C712 C693 1.368 . S
C712 C706 1.368 . S
C712 C711 1.523 . S
C713 C697 1.429 . S
C713 C709 1.429 . S
C713 C714 1.523 . S
C714 C698 1.368 . S
C714 C710 1.368 . S
C714 C713 1.523 . S
H715 C690 0.950 . S
H716 C692 0.950 . S
H717 C693 0.949 . S
H718 C695 0.950 . S
H719 C697 0.950 . S
C720 C721 1.349 . S
C720 C722 1.327 . S
C720 H745 0.950 . S
C721 C720 1.349 . S
C721 C737 1.349 . S
C722 C720 1.327 . S
C722 C741 1.429 . S
C722 H746 0.950 . S
C723 C740 1.574 . S
C723 C742 1.368 . S
C723 H747 0.949 . S
H724 C728 0.949 . S
C725 C726 1.349 . S
C725 C727 1.327 . S
C725 H748 0.950 . S
C726 C725 1.349 . S
C726 C738 1.349 . S
C727 C725 1.327 . S
C727 C743 1.429 . S
C727 H749 0.950 . S
C728 H724 0.949 . S
C728 C736 1.574 . S
C728 C744 1.368 . S
H729 C737 0.950 . S
H730 C735 0.950 . S
H731 C736 0.949 . S
H732 C738 0.950 . S
H733 C739 0.950 . S
H734 C740 0.949 . S
C735 H730 0.950 . S
C735 C737 1.327 . S
C735 C741 1.429 . S
C736 C728 1.574 . S
C736 H731 0.949 . S
C736 C742 1.368 . S
C737 C721 1.349 . S
C737 H729 0.950 . S
C737 C735 1.327 . S
C738 C726 1.349 . S
C738 H732 0.950 . S
C738 C739 1.327 . S
C739 H733 0.950 . S
C739 C738 1.327 . S
C739 C743 1.429 . S
C740 C723 1.574 . S
C740 H734 0.949 . S
C740 C744 1.368 . S
C741 C722 1.429 . S
C741 C735 1.429 . S
C741 C742 1.523 . S
C742 C723 1.368 . S
C742 C736 1.368 . S
C742 C741 1.523 . S
C743 C727 1.429 . S
C743 C739 1.429 . S
C743 C744 1.523 . S
C744 C728 1.368 . S
C744 C740 1.368 . S
C744 C743 1.523 . S
H745 C720 0.950 . S
H746 C722 0.950 . S
H747 C723 0.949 . S
H748 C725 0.950 . S
H749 C727 0.950 . S
C750 C751 1.349 . S
C750 C752 1.327 . S
C750 H775 0.950 . S
C751 C750 1.349 . S
C751 C767 1.349 . S
C752 C750 1.327 . S
C752 C771 1.429 . S
C752 H776 0.950 . S
C753 C770 1.574 . S
C753 C772 1.368 . S
C753 H777 0.949 . S
H754 C758 0.949 . S
C755 C756 1.349 . S
C755 C757 1.327 . S
C755 H778 0.950 . S
C756 C755 1.349 . S
C756 C768 1.349 . S
C757 C755 1.327 . S
C757 C773 1.429 . S
C757 H779 0.950 . S
C758 H754 0.949 . S
C758 C766 1.574 . S
C758 C774 1.368 . S
H759 C767 0.950 . S
H760 C765 0.950 . S
H761 C766 0.949 . S
H762 C768 0.950 . S
H763 C769 0.950 . S
H764 C770 0.949 . S
C765 H760 0.950 . S
C765 C767 1.327 . S
C765 C771 1.429 . S
C766 C758 1.574 . S
C766 H761 0.949 . S
C766 C772 1.368 . S
C767 C751 1.349 . S
C767 H759 0.950 . S
C767 C765 1.327 . S
C768 C756 1.349 . S
C768 H762 0.950 . S
C768 C769 1.327 . S
C769 H763 0.950 . S
C769 C768 1.327 . S
C769 C773 1.429 . S
C770 C753 1.574 . S
C770 H764 0.949 . S
C770 C774 1.368 . S
C771 C752 1.429 . S
C771 C765 1.429 . S
C771 C772 1.523 . S
C772 C753 1.368 . S
C772 C766 1.368 . S
C772 C771 1.523 . S
C773 C757 1.429 . S
C773 C769 1.429 . S
C773 C774 1.523 . S
C774 C758 1.368 . S
C774 C770 1.368 . S
C774 C773 1.523 . S
H775 C750 0.950 . S
H776 C752 0.950 . S
H777 C753 0.949 . S
H778 C755 0.950 . S
H779 C757 0.950 . S
C780 C781 1.349 . S
C780 C782 1.327 . S
C780 H805 0.950 . S
C781 C780 1.349 . S
C781 C797 1.349 . S
C782 C780 1.327 . S
C782 C801 1.429 . S
C782 H806 0.950 . S
C783 C800 1.574 . S
C783 C802 1.368 . S
C783 H807 0.949 1_655 S
H784 C788 0.949 . S
C785 C786 1.349 1_455 S
C785 C787 1.327 . S
C785 H808 0.950 . S
C786 C785 1.349 1_655 S
C786 C798 1.349 . S
C787 C785 1.327 . S
C787 C803 1.429 1_455 S
C787 H809 0.950 . S
C788 H784 0.949 . S
C788 C796 1.574 . S
C788 C804 1.368 . S
H789 C797 0.950 . S
H790 C795 0.950 . S
H791 C796 0.949 . S
H792 C798 0.950 . S
H793 C799 0.950 . S
H794 C800 0.949 1_455 S
C795 H790 0.950 . S
C795 C797 1.327 . S
C795 C801 1.429 . S
C796 C788 1.574 . S
C796 H791 0.949 . S
C796 C802 1.368 . S
C797 C781 1.349 . S
C797 H789 0.950 . S
C797 C795 1.327 . S
C798 C786 1.349 . S
C798 H792 0.950 . S
C798 C799 1.327 . S
C799 H793 0.950 . S
C799 C798 1.327 . S
C799 C803 1.429 . S
C800 C783 1.574 . S
C800 H794 0.949 1_655 S
C800 C804 1.368 . S
C801 C782 1.429 . S
C801 C795 1.429 . S
C801 C802 1.523 . S
C802 C783 1.368 . S
C802 C796 1.368 . S
C802 C801 1.523 . S
C803 C787 1.429 1_655 S
C803 C799 1.429 . S
C803 C804 1.523 . S
C804 C788 1.368 . S
C804 C800 1.368 . S
C804 C803 1.523 . S
H805 C780 0.950 . S
H806 C782 0.950 . S
H807 C783 0.949 1_455 S
H808 C785 0.950 . S
H809 C787 0.950 . S
C810 C811 1.349 . S
C810 C812 1.327 . S
C810 H835 0.950 . S
C811 C810 1.349 . S
C811 C827 1.349 . S
C812 C810 1.327 . S
C812 C831 1.429 . S
C812 H836 0.950 . S
C813 C830 1.574 . S
C813 C832 1.368 . S
C813 H837 0.949 . S
H814 C818 0.949 . S
C815 C816 1.349 . S
C815 C817 1.327 . S
C815 H838 0.950 . S
C816 C815 1.349 . S
C816 C828 1.349 . S
C817 C815 1.327 . S
C817 C833 1.429 . S
C817 H839 0.950 . S
C818 H814 0.949 . S
C818 C826 1.574 . S
C818 C834 1.368 . S
H819 C827 0.950 . S
H820 C825 0.950 . S
H821 C826 0.949 . S
H822 C828 0.950 . S
H823 C829 0.950 . S
H824 C830 0.949 . S
C825 H820 0.950 . S
C825 C827 1.327 . S
C825 C831 1.429 . S
C826 C818 1.574 . S
C826 H821 0.949 . S
C826 C832 1.368 . S
C827 C811 1.349 . S
C827 H819 0.950 . S
C827 C825 1.327 . S
C828 C816 1.349 . S
C828 H822 0.950 . S
C828 C829 1.327 . S
C829 H823 0.950 . S
C829 C828 1.327 . S
C829 C833 1.429 . S
C830 C813 1.574 . S
C830 H824 0.949 . S
C830 C834 1.368 . S
C831 C812 1.429 . S
C831 C825 1.429 . S
C831 C832 1.523 . S
C832 C813 1.368 . S
C832 C826 1.368 . S
C832 C831 1.523 . S
C833 C817 1.429 . S
C833 C829 1.429 . S
C833 C834 1.523 . S
C834 C818 1.368 . S
C834 C830 1.368 . S
C834 C833 1.523 . S
H835 C810 0.950 . S
H836 C812 0.950 . S
H837 C813 0.949 . S
H838 C815 0.950 . S
H839 C817 0.950 . S
C840 C841 1.349 . S
C840 C842 1.327 . S
C840 H865 0.950 . S
C841 C840 1.349 . S
C841 C857 1.349 . S
C842 C840 1.327 . S
C842 C861 1.429 . S
C842 H866 0.950 . S
C843 C860 1.574 . S
C843 C862 1.368 . S
C843 H867 0.949 . S
H844 C848 0.949 . S
C845 C846 1.349 . S
C845 C847 1.327 . S
C845 H868 0.950 . S
C846 C845 1.349 . S
C846 C858 1.349 . S
C847 C845 1.327 . S
C847 C863 1.429 . S
C847 H869 0.950 . S
C848 H844 0.949 . S
C848 C856 1.574 . S
C848 C864 1.368 . S
H849 C857 0.950 . S
H850 C855 0.950 . S
H851 C856 0.949 . S
H852 C858 0.950 . S
H853 C859 0.950 . S
H854 C860 0.949 . S
C855 H850 0.950 . S
C855 C857 1.327 . S
C855 C861 1.429 . S
C856 C848 1.574 . S
C856 H851 0.949 . S
C856 C862 1.368 . S
C857 C841 1.349 . S
C857 H849 0.950 . S
C857 C855 1.327 . S
C858 C846 1.349 . S
C858 H852 0.950 . S
C858 C859 1.327 . S
C859 H853 0.950 . S
C859 C858 1.327 . S
C859 C863 1.429 . S
C860 C843 1.574 . S
C860 H854 0.949 . S
C860 C864 1.368 . S
C861 C842 1.429 . S
C861 C855 1.429 . S
C861 C862 1.523 . S
C862 C843 1.368 . S
C862 C856 1.368 . S
C862 C861 1.523 . S
C863 C847 1.429 . S
C863 C859 1.429 . S
C863 C864 1.523 . S
C864 C848 1.368 . S
C864 C860 1.368 . S
C864 C863 1.523 . S
H865 C840 0.950 . S
H866 C842 0.950 . S
H867 C843 0.949 . S
H868 C845 0.950 . S
H869 C847 0.950 . S
C870 C871 1.349 . S
C870 C872 1.327 . S
C870 H895 0.950 . S
C871 C870 1.349 . S
C871 C887 1.349 . S
C872 C870 1.327 . S
C872 C891 1.429 . S
C872 H896 0.950 . S
C873 C890 1.574 . S
C873 C892 1.368 . S
C873 H897 0.949 . S
H874 C878 0.949 . S
C875 C876 1.349 . S
C875 C877 1.327 . S
C875 H898 0.950 . S
C876 C875 1.349 . S
C876 C888 1.349 . S
C877 C875 1.327 . S
C877 C893 1.429 . S
C877 H899 0.950 . S
C878 H874 0.949 . S
C878 C886 1.574 . S
C878 C894 1.368 . S
H879 C887 0.950 . S
H880 C885 0.950 . S
H881 C886 0.949 . S
H882 C888 0.950 . S
H883 C889 0.950 . S
H884 C890 0.949 . S
C885 H880 0.950 . S
C885 C887 1.327 . S
C885 C891 1.429 . S
C886 C878 1.574 . S
C886 H881 0.949 . S
C886 C892 1.368 . S
C887 C871 1.349 . S
C887 H879 0.950 . S
C887 C885 1.327 . S
C888 C876 1.349 . S
C888 H882 0.950 . S
C888 C889 1.327 . S
C889 H883 0.950 . S
C889 C888 1.327 . S
C889 C893 1.429 . S
C890 C873 1.574 . S
C890 H884 0.949 . S
C890 C894 1.368 . S
C891 C872 1.429 . S
C891 C885 1.429 . S
C891 C892 1.523 . S
C892 C873 1.368 . S
C892 C886 1.368 . S
C892 C891 1.523 . S
C893 C877 1.429 . S
C893 C889 1.429 . S
C893 C894 1.523 . S
C894 C878 1.368 . S
C894 C890 1.368 . S
C894 C893 1.523 . S
H895 C870 0.950 . S
H896 C872 0.950 . S
H897 C873 0.949 . S
H898 C875 0.950 . S
H899 C877 0.950 . S
C181 C4 1.804 . S
C186 C106 1.774 . S
C211 C16 1.982 . S
C216 C130 1.934 . S
C246 C150 0.916 . S
C241 C32 0.912 . S
C271 C43 1.244 . S
C276 C173 1.260 . S
C306 C132 2.208 . S
C301 C5 2.229 . S
C336 C108 1.424 . S
C331 C21 1.471 . S
C366 C176 1.405 . S
C361 C27 1.440 . S
C396 C153 1.386 . S
C391 C37 1.412 . S
C421 C10 1.434 . S
C426 C178 1.404 . S
C456 C127 1.728 . S
C451 C26 1.714 . S
C481 C38 1.335 . S
C486 C105 1.342 . S
C511 C15 1.572 . S
C516 C155 1.533 . S
C546 C109 1.962 . S
C541 C48 1.962 . S
C571 C59 1.673 . S
C576 C131 1.677 . S
C601 C76 1.580 . S
C606 C151 1.603 . S
C631 C87 1.370 . S
C636 C174 1.397 . S
C661 C54 1.357 . S
C666 C129 1.357 . S
C696 C107 1.947 . S
C691 C60 1.950 . S
C726 C177 1.304 . S
C721 C71 1.347 . S
C756 C154 1.266 . S
C751 C82 1.281 . S
C781 C49 2.129 . S
C786 C175 2.110 1_655 S
C816 C128 1.179 . S
C811 C70 1.171 . S
C846 C104 1.585 . S
C841 C81 1.574 . S
C871 C65 1.783 . S
C876 C152 1.762 . S
