# Generated by pormake.
# Topology zzz, (3,6)-cn, num edge types: 1
# Building blocks:
#     Node 0, Type 0, BuildingBlock: BETDIP_clean_linker_0, # of connection points: 3
#     Node 1, Type 0, BuildingBlock: BETDIP_clean_linker_0, # of connection points: 3
#     Node 2, Type 0, BuildingBlock: BETDIP_clean_linker_0, # of connection points: 3
#     Node 3, Type 0, BuildingBlock: BETDIP_clean_linker_0, # of connection points: 3
#     Node 4, Type 0, BuildingBlock: BETDIP_clean_linker_0, # of connection points: 3
#     Node 5, Type 0, BuildingBlock: BETDIP_clean_linker_0, # of connection points: 3
#     Node 6, Type 0, BuildingBlock: BETDIP_clean_linker_0, # of connection points: 3
#     Node 7, Type 0, BuildingBlock: BETDIP_clean_linker_0, # of connection points: 3
#     Node 8, Type 1, BuildingBlock: NUHQIS_clean_sbu_0, # of connection points: 6
#     Node 9, Type 1, BuildingBlock: NUHQIS_clean_sbu_0, # of connection points: 6
#     Node 10, Type 1, BuildingBlock: NUHQIS_clean_sbu_0, # of connection points: 6
#     Node 11, Type 1, BuildingBlock: NUHQIS_clean_sbu_0, # of connection points: 6
#     Edge 12, Type (0, 1), BuildingBlock: XIVTED_clean_linker_0, # of connection points: 2
#     Edge 13, Type (0, 1), BuildingBlock: XIVTED_clean_linker_0, # of connection points: 2
#     Edge 14, Type (0, 1), BuildingBlock: XIVTED_clean_linker_0, # of connection points: 2
#     Edge 15, Type (0, 1), BuildingBlock: XIVTED_clean_linker_0, # of connection points: 2
#     Edge 16, Type (0, 1), BuildingBlock: XIVTED_clean_linker_0, # of connection points: 2
#     Edge 17, Type (0, 1), BuildingBlock: XIVTED_clean_linker_0, # of connection points: 2
#     Edge 18, Type (0, 1), BuildingBlock: XIVTED_clean_linker_0, # of connection points: 2
#     Edge 19, Type (0, 1), BuildingBlock: XIVTED_clean_linker_0, # of connection points: 2
#     Edge 20, Type (0, 1), BuildingBlock: XIVTED_clean_linker_0, # of connection points: 2
#     Edge 21, Type (0, 1), BuildingBlock: XIVTED_clean_linker_0, # of connection points: 2
#     Edge 22, Type (0, 1), BuildingBlock: XIVTED_clean_linker_0, # of connection points: 2
#     Edge 23, Type (0, 1), BuildingBlock: XIVTED_clean_linker_0, # of connection points: 2
#     Edge 24, Type (0, 1), BuildingBlock: XIVTED_clean_linker_0, # of connection points: 2
#     Edge 25, Type (0, 1), BuildingBlock: XIVTED_clean_linker_0, # of connection points: 2
#     Edge 26, Type (0, 1), BuildingBlock: XIVTED_clean_linker_0, # of connection points: 2
#     Edge 27, Type (0, 1), BuildingBlock: XIVTED_clean_linker_0, # of connection points: 2
#     Edge 28, Type (0, 1), BuildingBlock: XIVTED_clean_linker_0, # of connection points: 2
#     Edge 29, Type (0, 1), BuildingBlock: XIVTED_clean_linker_0, # of connection points: 2
#     Edge 30, Type (0, 1), BuildingBlock: XIVTED_clean_linker_0, # of connection points: 2
#     Edge 31, Type (0, 1), BuildingBlock: XIVTED_clean_linker_0, # of connection points: 2
#     Edge 32, Type (0, 1), BuildingBlock: XIVTED_clean_linker_0, # of connection points: 2
#     Edge 33, Type (0, 1), BuildingBlock: XIVTED_clean_linker_0, # of connection points: 2
#     Edge 34, Type (0, 1), BuildingBlock: XIVTED_clean_linker_0, # of connection points: 2
#     Edge 35, Type (0, 1), BuildingBlock: XIVTED_clean_linker_0, # of connection points: 2
# Relax obj value: 0.253
# Max RMSD: 0.156
# Mean RMSD: 0.136
data_MOF--net-zzz--node1-NUHQIS_clean_sbu_0--node2-BETDIP_clean_linker_0--edge1-XIVTED_clean_linker_0
_symmetry_space_group_name_H-M    P1
_symmetry_Int_Tables_number       1
_symmetry_cell_setting            triclinic
loop_
_symmetry_equiv_pos_as_xyz
'x, y, z'
_cell_length_a     52.796838
_cell_length_b     52.713941
_cell_length_c     13.980596
_cell_angle_alpha  89.826019
_cell_angle_beta   89.846117
_cell_angle_gamma 89.871336
loop_
_atom_site_label
_atom_site_type_symbol
_atom_site_fract_x
_atom_site_fract_y
_atom_site_fract_z
_atom_type_partial_charge
H0 H 0.76973 0.52993 0.43054 0.0
H1 H 0.75288 0.47398 0.21514 0.0
H2 H 0.81904 0.46576 0.38969 0.0
H3 H 0.74572 0.51876 0.14184 0.0
C4 C 0.73032 0.52036 0.19336 0.0
C5 C 0.77409 0.51219 0.39523 0.0
C6 C 0.7961 0.49841 0.42101 0.0
C7 C 0.75819 0.50327 0.32112 0.0
C8 C 0.76462 0.4807 0.27322 0.0
C9 C 0.78631 0.46693 0.29854 0.0
C10 C 0.80156 0.47571 0.37324 0.0
N11 N 0.7362 0.51716 0.29231 0.0
H12 H 1.00126 0.77374 0.45713 0.0
H13 H 0.04845 0.75776 0.21188 0.0
H14 H 0.05742 0.82764 0.36508 0.0
H15 H 0.9946 0.74407 0.18442 0.0
C16 C 1.00269 0.73006 0.23277 0.0
C17 C 0.01636 0.7792 0.40876 0.0
C18 C 0.02858 0.80287 0.42011 0.0
C19 C 0.0236 0.76275 0.33336 0.0
C20 C 0.04291 0.77021 0.26989 0.0
C21 C 0.05558 0.79326 0.28263 0.0
C22 C 0.04832 0.80931 0.35766 0.0
N23 N 1.01229 0.73838 0.32264 0.0
H24 H 0.76317 1.01033 0.48619 0.0
H25 H 0.78483 0.97337 0.22327 0.0
H26 H 0.70993 0.96356 0.33619 0.0
H27 H 0.82338 0.96764 0.37414 0.0
C28 C 0.82401 0.98709 0.34805 0.0
C29 C 0.75871 0.99768 0.42776 0.0
C30 C 0.73441 0.98645 0.42218 0.0
C31 C 0.77743 0.99189 0.35807 0.0
C32 C 0.77117 0.97636 0.28019 0.0
C33 C 0.74688 0.96617 0.2719 0.0
C34 C 0.72907 0.97066 0.34445 0.0
N35 N 0.80216 1.00263 0.3619 0.0
H36 H 0.52611 0.76931 0.40904 0.0
H37 H 0.45914 0.78418 0.24126 0.0
H38 H 0.4617 0.71998 0.43026 0.0
H39 H 0.49549 0.78978 0.13181 0.0
C40 C 0.5024 0.80536 0.17538 0.0
C41 C 0.50674 0.76484 0.39022 0.0
C42 C 0.49476 0.7434 0.43119 0.0
C43 C 0.49385 0.77981 0.32148 0.0
C44 C 0.46904 0.77308 0.29478 0.0
C45 C 0.45727 0.75155 0.33345 0.0
C46 C 0.47008 0.73736 0.40317 0.0
N47 N 0.50608 0.80074 0.27516 0.0
H48 H 0.26521 0.51406 0.10837 0.0
H49 H 0.28178 0.57606 0.29939 0.0
H50 H 0.20873 0.57076 0.1675 0.0
H51 H 0.32124 0.57094 0.20623 0.0
C52 C 0.32293 0.5516 0.23284 0.0
C53 C 0.25961 0.53152 0.14327 0.0
C54 C 0.235 0.5415 0.12885 0.0
C55 C 0.27704 0.54448 0.20259 0.0
C56 C 0.2691 0.56666 0.25014 0.0
C57 C 0.2446 0.57633 0.23755 0.0
C58 C 0.22798 0.56385 0.1756 0.0
N59 N 0.30206 0.53483 0.21818 0.0
H60 H 1.00982 0.27611 0.05916 0.0
H61 H 0.06156 0.2877 0.29316 0.0
H62 H 0.06466 0.21897 0.12974 0.0
H63 H 0.01475 0.29762 0.34561 0.0
C64 C 0.01669 0.31384 0.29786 0.0
C65 C 0.02618 0.27011 0.09999 0.0
C66 C 0.0373 0.24607 0.08267 0.0
C67 C 0.03536 0.28557 0.17519 0.0
C68 C 0.05534 0.27657 0.23259 0.0
C69 C 0.06585 0.25247 0.21778 0.0
C70 C 0.05756 0.23812 0.1396 0.0
N71 N 0.02313 0.30888 0.20028 0.0
H72 H 0.26243 0.03715 0.08918 0.0
H73 H 0.24085 0.96986 0.24579 0.0
H74 H 0.30979 0.9708 0.08222 0.0
H75 H 0.1996 0.98729 0.15835 0.0
C76 C 0.20214 1.00353 0.20511 0.0
C77 C 0.26591 0.0176 0.10926 0.0
C78 C 0.28784 1.00497 0.07557 0.0
C79 C 0.24821 1.00453 0.16763 0.0
C80 C 0.25351 0.97946 0.19649 0.0
C81 C 0.27569 0.9672 0.16624 0.0
C82 C 0.29222 0.97987 0.10381 0.0
N83 N 0.22571 0.01675 0.20127 0.0
H84 H 0.50932 0.2697 0.03445 0.0
H85 H 0.46936 0.2514 0.2952 0.0
H86 H 0.45649 0.32278 0.15623 0.0
H87 H 0.52049 0.24305 0.3105 0.0
C88 C 0.51472 0.22753 0.26433 0.0
C89 C 0.49514 0.27439 0.08767 0.0
C90 C 0.48241 0.29808 0.08348 0.0
C91 C 0.49013 0.25726 0.16386 0.0
C92 C 0.47256 0.26402 0.23504 0.0
C93 C 0.4603 0.28753 0.2327 0.0
C94 C 0.46483 0.30396 0.15548 0.0
N95 N 0.50381 0.23402 0.17412 0.0
Tb96 Tb 0.0331 0.01423 0.86905 0.0
Eu97 Eu 0.99503 0.02922 0.69738 0.0
C98 C 0.05472 0.02303 0.65995 0.0
C99 C 0.01855 0.07069 0.83528 0.0
C100 C 0.08479 0.98166 0.99173 0.0
C101 C 0.10423 0.9469 0.90465 0.0
C102 C 0.09088 0.96981 0.90486 0.0
C103 C 0.09434 0.97183 0.07736 0.0
C104 C 0.10767 0.94892 0.07729 0.0
C105 C 0.11144 0.93544 0.99143 0.0
C106 C 0.06466 1.00082 0.99469 0.0
O107 O 0.99569 1.00816 0.93339 0.0
O108 O 0.9689 0.0272 0.82484 0.0
O109 O 0.99048 0.98685 0.71362 0.0
O110 O 0.02963 0.98022 0.77962 0.0
C111 C 0.97309 0.01653 0.90841 0.0
O112 O 0.96679 0.0555 0.64058 0.0
O113 O 0.98137 0.02554 0.55042 0.0
O114 O 0.03194 0.01951 0.62593 0.0
O115 O 0.05831 0.02628 0.75211 0.0
O116 O 0.02025 0.0528 0.90041 0.0
O117 O 0.01612 0.06442 0.74511 0.0
C118 C 1.00936 0.97158 0.73546 0.0
O119 O 0.06762 0.02065 0.94001 0.0
O120 O 0.04196 0.99144 0.98725 0.0
C121 C 0.98359 0.06774 0.49298 0.0
C122 C 0.01723 0.10794 0.45519 0.0
C123 C 0.99199 0.11291 0.48188 0.0
C124 C 0.97528 0.09297 0.50026 0.0
C125 C 1.00787 0.06293 0.45482 0.0
C126 C 0.02457 0.08284 0.4366 0.0
C127 C 0.9713 0.0482 0.55299 0.0
H128 H 0.10716 0.93722 0.83728 0.0
H129 H 0.0836 0.97719 0.8379 0.0
H130 H 0.08972 0.98073 0.14501 0.0
H131 H 0.11274 0.94067 0.14565 0.0
H132 H 0.98554 0.13218 0.49354 0.0
H133 H 0.95672 0.09726 0.52941 0.0
H134 H 0.01497 0.04374 0.44784 0.0
H135 H 0.04378 0.07838 0.41506 0.0
Tb136 Tb 0.51654 0.03145 0.80916 0.0
Eu137 Eu 0.49867 0.99925 0.62411 0.0
C138 C 0.50595 0.05993 0.616 0.0
C139 C 0.45716 0.0233 0.77235 0.0
C140 C 0.55844 0.03839 1.00126 0.0
C141 C 0.60427 0.03432 0.99501 0.0
C142 C 0.5824 0.04908 0.98502 0.0
C143 C 0.55702 1.01349 0.03738 0.0
C144 C 0.57875 0.99863 0.04565 0.0
C145 C 0.60257 1.00852 0.02077 0.0
C146 C 0.53587 0.04989 0.95606 0.0
O147 O 0.52344 0.99107 0.83889 0.0
O148 O 0.49048 0.97556 0.75421 0.0
O149 O 0.54106 0.99293 0.63623 0.0
O150 O 0.5506 0.0286 0.72068 0.0
C151 C 0.50683 0.97303 0.82365 0.0
O152 O 0.50005 0.96329 0.54728 0.0
O153 O 0.47955 0.99522 0.48711 0.0
O154 O 0.50928 0.03841 0.57007 0.0
O155 O 0.50297 0.06036 0.70959 0.0
O156 O 0.47552 0.03026 0.83023 0.0
O157 O 0.4617 1.01313 0.68801 0.0
C158 C 0.55772 1.00935 0.66781 0.0
O159 O 0.53977 0.05931 0.8709 0.0
O160 O 0.51532 0.03619 0.95831 0.0
C161 C 0.46195 0.95455 0.46843 0.0
C162 C 0.41854 0.92467 0.43692 0.0
C163 C 0.44149 0.91912 0.38964 0.0
C164 C 0.46301 0.93403 0.40508 0.0
C165 C 0.4396 0.95928 0.51967 0.0
C166 C 0.41809 0.94464 0.50369 0.0
C167 C 0.48413 0.97089 0.48207 0.0
H168 H 0.62239 0.04294 0.97912 0.0
H169 H 0.58412 0.06825 0.95761 0.0
H170 H 0.53891 1.00464 0.05168 0.0
H171 H 0.57652 0.97895 0.06614 0.0
H172 H 0.44269 0.90369 0.33888 0.0
H173 H 0.4803 0.92983 0.3663 0.0
H174 H 0.43855 0.9748 0.57015 0.0
H175 H 0.4008 0.94993 0.54037 0.0
Tb176 Tb 0.49984 0.53117 0.86324 0.0
Eu177 Eu 0.53075 0.51367 0.67573 0.0
C178 C 0.47204 0.52341 0.67123 0.0
C179 C 0.51148 0.47289 0.82669 0.0
C180 C 0.45508 0.5644 0.02259 0.0
C181 C 0.41945 0.58224 0.10991 0.0
C182 C 0.43566 0.56183 0.09042 0.0
C183 C 0.45742 0.58713 0.97122 0.0
C184 C 0.44149 0.60756 0.99119 0.0
C185 C 0.42259 0.60562 0.06222 0.0
C186 C 0.47276 0.54338 0.00492 0.0
O187 O 0.53856 0.52256 0.91276 0.0
O188 O 0.56053 0.52928 0.77319 0.0
O189 O 0.52835 0.5561 0.65778 0.0
O190 O 0.51113 0.56799 0.80284 0.0
C191 C 0.56002 0.527 0.86681 0.0
O192 O 0.55788 0.4891 0.60226 0.0
O193 O 0.53501 0.5154 0.52046 0.0
O194 O 0.48903 0.50588 0.65464 0.0
O195 O 0.47607 0.53983 0.73962 0.0
O196 O 0.49454 0.48983 0.8531 0.0
O197 O 0.53067 0.47956 0.77303 0.0
C198 C 0.52091 0.57367 0.71836 0.0
O199 O 0.46571 0.52739 0.93948 0.0
O200 O 0.49659 0.54953 0.99572 0.0
C201 C 0.53413 0.4723 0.47584 0.0
C202 C 0.50152 0.43012 0.4668 0.0
C203 C 0.52753 0.42678 0.48485 0.0
C204 C 0.5437 0.44768 0.48918 0.0
C205 C 0.50873 0.47526 0.44704 0.0
C206 C 0.49257 0.45443 0.44334 0.0
C207 C 0.54748 0.49398 0.51947 0.0
H208 H 0.40491 0.57987 0.16397 0.0
H209 H 0.43332 0.54421 0.12951 0.0
H210 H 0.47207 0.58934 0.91749 0.0
H211 H 0.44497 0.62526 0.95402 0.0
H212 H 0.53524 0.40812 0.49949 0.0
H213 H 0.56316 0.44477 0.51111 0.0
H214 H 0.50059 0.49391 0.43576 0.0
H215 H 0.47273 0.45771 0.42813 0.0
Tb216 Tb 1.00717 0.50296 0.87225 0.0
Eu217 Eu 0.0225 0.53924 0.69255 0.0
C218 C 0.01635 0.47906 0.66503 0.0
C219 C 0.06465 0.51811 0.84006 0.0
C220 C 0.97533 0.4533 0.0112 0.0
C221 C 0.94198 0.42958 0.93277 0.0
C222 C 0.96345 0.44497 0.9273 0.0
C223 C 0.96685 0.44446 0.10003 0.0
C224 C 0.94541 0.42906 0.10564 0.0
C225 C 0.93202 0.42244 0.02229 0.0
C226 C 0.99396 0.47384 0.00702 0.0
O227 O 0.99857 0.54202 0.91631 0.0
O228 O 0.02853 0.5621 0.82679 0.0
O229 O 0.97961 0.53986 0.701 0.0
O230 O 0.97363 0.50242 0.78121 0.0
C231 C 0.01298 0.56186 0.89985 0.0
O232 O 0.01809 0.57605 0.62311 0.0
O233 O 0.04267 0.54763 0.5599 0.0
O234 O 0.014 0.50138 0.62372 0.0
O235 O 0.01854 0.47688 0.7585 0.0
O236 O 0.04635 0.51375 0.90217 0.0
O237 O 0.05962 0.52406 0.75056 0.0
C238 C 0.96484 0.52113 0.72839 0.0
O239 O 0.01374 0.46991 0.95325 0.0
O240 O 0.98429 0.49626 0.99244 0.0
C241 C 0.056 0.58989 0.55167 0.0
C242 C 0.10082 0.61843 0.5359 0.0
C243 C 0.09072 0.61248 0.6264 0.0
C244 C 0.06857 0.59817 0.63421 0.0
C245 C 0.06489 0.59732 0.46161 0.0
C246 C 0.08711 0.61149 0.45365 0.0
C247 C 0.03544 0.57133 0.55892 0.0
H248 H 0.93228 0.4246 0.86731 0.0
H249 H 0.96984 0.45162 0.85792 0.0
H250 H 0.9758 0.45079 0.1654 0.0
H251 H 0.93816 0.42422 0.17587 0.0
H252 H 0.10061 0.61774 0.69111 0.0
H253 H 0.06194 0.59256 0.70456 0.0
H254 H 0.05544 0.59099 0.39727 0.0
H255 H 0.09445 0.61533 0.3827 0.0
H256 H 0.20244 0.03311 0.36976 0.0
H257 H 0.05416 1.01177 0.46906 0.0
H258 H 0.15347 0.98848 0.19077 0.0
H259 H 0.10537 0.03353 0.69437 0.0
H260 H 0.08978 1.00965 0.35839 0.0
H261 H 0.16669 0.03975 0.48136 0.0
C262 C 0.18413 0.02503 0.35328 0.0
C263 C 0.18087 1.01029 0.27063 0.0
C264 C 0.0933 0.01495 0.43195 0.0
C265 C 0.14004 0.0178 0.3975 0.0
C266 C 0.07288 0.01624 0.49553 0.0
C267 C 0.07663 0.02272 0.59193 0.0
C268 C 0.1179 0.02038 0.46389 0.0
C269 C 0.10151 0.02833 0.62102 0.0
C270 C 0.16381 0.02866 0.41726 0.0
C271 C 0.15681 1.00001 0.25348 0.0
N272 N 0.12118 0.02704 0.55736 0.0
N273 N 0.13742 1.004 0.31588 0.0
H274 H 0.50061 0.18125 0.18361 0.0
H275 H 0.50834 0.10821 0.68767 0.0
H276 H 0.52605 0.21524 0.44628 0.0
H277 H 0.50456 0.06771 0.42034 0.0
H278 H 0.51031 0.14809 0.59902 0.0
H279 H 0.49803 0.1399 0.26677 0.0
C280 C 0.50571 0.18001 0.25844 0.0
C281 C 0.5136 0.20173 0.30813 0.0
C282 C 0.50904 0.13051 0.55948 0.0
C283 C 0.51036 0.15474 0.40376 0.0
C284 C 0.5078 0.10764 0.61027 0.0
C285 C 0.50632 0.08441 0.56176 0.0
C286 C 0.50856 0.13042 0.4589 0.0
C287 C 0.50578 0.0851 0.46101 0.0
C288 C 0.50425 0.15644 0.30586 0.0
C289 C 0.51993 0.19901 0.4051 0.0
N290 N 0.50683 0.10769 0.41297 0.0
N291 N 0.51805 0.17613 0.44957 0.0
H292 H 0.35801 0.58468 0.29481 0.0
H293 H 0.45058 0.48732 0.55453 0.0
H294 H 0.33857 0.5054 0.31196 0.0
H295 H 0.44192 0.56511 0.64372 0.0
H296 H 0.41404 0.49269 0.44703 0.0
H297 H 0.39376 0.57703 0.40163 0.0
C298 C 0.36132 0.56558 0.32096 0.0
C299 C 0.34513 0.5457 0.29489 0.0
C300 C 0.42012 0.50848 0.49059 0.0
C301 C 0.38639 0.53674 0.41728 0.0
C302 C 0.44101 0.5055 0.55167 0.0
C303 C 0.44936 0.5258 0.60849 0.0
C304 C 0.40787 0.53212 0.48452 0.0
C305 C 0.43614 0.54889 0.60187 0.0
C306 C 0.3817 0.56127 0.38232 0.0
C307 C 0.35047 0.52131 0.33064 0.0
N308 N 0.41631 0.55147 0.5405 0.0
N309 N 0.37075 0.51747 0.38978 0.0
H310 H 0.02309 0.36205 0.21561 0.0
H311 H 0.01444 0.43006 0.72899 0.0
H312 H 1.00775 0.32407 0.48292 0.0
H313 H 0.0178 0.47353 0.46719 0.0
H314 H 0.01389 0.39125 0.63597 0.0
H315 H 0.02261 0.4031 0.30109 0.0
C316 C 0.0195 0.36233 0.29189 0.0
C317 C 0.01545 0.33956 0.34227 0.0
C318 C 0.01474 0.4092 0.59828 0.0
C319 C 0.01516 0.38625 0.4404 0.0
C320 C 0.01516 0.43154 0.65173 0.0
C321 C 0.01626 0.45533 0.60638 0.0
C322 C 0.01555 0.41027 0.4978 0.0
C323 C 0.01696 0.45569 0.50554 0.0
C324 C 0.01926 0.38574 0.34068 0.0
C325 C 1.01096 0.34109 0.44107 0.0
N326 N 0.01667 0.43353 0.45467 0.0
N327 N 1.01105 0.36384 0.48649 0.0
H328 H 0.82927 0.02742 0.22091 0.0
H329 H 0.97156 0.98864 0.07471 0.0
H330 H 0.86951 0.96365 0.34073 0.0
H331 H 0.92531 0.03784 0.8999 0.0
H332 H 0.93603 0.9836 0.18544 0.0
H333 H 0.86589 0.03595 0.11586 0.0
C334 C 0.84592 0.01546 0.22613 0.0
C335 C 0.84641 0.99484 0.28996 0.0
C336 C 0.93362 0.99553 0.12291 0.0
C337 C 0.88826 1.0044 0.17005 0.0
C338 C 0.95398 0.99846 0.0595 0.0
C339 C 0.95153 0.01359 0.9771 0.0
C340 C 0.91053 1.00798 0.10496 0.0
C341 C 0.92812 0.02583 0.96192 0.0
C342 C 0.86674 0.02021 0.16572 0.0
C343 C 0.86836 0.97978 0.29276 0.0
N344 N 0.9086 0.0228 0.02513 0.0
N345 N 0.88833 0.98485 0.23405 0.0
H346 H 0.4888 0.81683 0.99555 0.0
H347 H 0.53439 0.96137 0.98648 0.0
H348 H 0.52069 0.85144 0.24672 0.0
H349 H 0.47996 0.92964 0.79118 0.0
H350 H 0.53407 0.92125 0.07729 0.0
H351 H 0.49037 0.85759 0.91346 0.0
C352 C 0.49623 0.83308 0.03348 0.0
C353 C 0.50455 0.83068 0.12825 0.0
C354 C 0.52216 0.9232 0.01474 0.0
C355 C 0.50651 0.87784 0.03385 0.0
C356 C 0.52236 0.94608 0.96271 0.0
C357 C 0.50714 0.94906 0.8809 0.0
C358 C 0.50695 0.90297 0.98382 0.0
C359 C 0.492 0.92843 0.85359 0.0
C360 C 0.49704 0.85643 0.98653 0.0
C361 C 0.51402 0.85245 0.17368 0.0
N362 N 0.49242 0.90639 0.90435 0.0
N363 N 0.51483 0.87516 0.12591 0.0
H364 H 0.68353 0.51752 0.28678 0.0
H365 H 0.60713 0.53726 0.79476 0.0
H366 H 0.71778 0.53078 0.01101 0.0
H367 H 0.56922 0.51922 0.06018 0.0
H368 H 0.64739 0.5375 0.87842 0.0
H369 H 0.64134 0.52058 0.21156 0.0
C370 C 0.68219 0.52133 0.21081 0.0
C371 C 0.70422 0.52394 0.15499 0.0
C372 C 0.63034 0.53351 0.9189 0.0
C373 C 0.65617 0.52733 0.06856 0.0
C374 C 0.60718 0.53338 0.87088 0.0
C375 C 0.58454 0.52809 0.91999 0.0
C376 C 0.63124 0.52829 0.01751 0.0
C377 C 0.58612 0.52335 0.01906 0.0
C378 C 0.65812 0.52297 0.16782 0.0
C379 C 0.70134 0.52866 0.05681 0.0
N380 N 0.60904 0.52347 0.06446 0.0
N381 N 0.67792 0.53015 0.01704 0.0
H382 H 0.039 0.69347 0.26812 0.0
H383 H 0.97091 0.58108 0.99015 0.0
H384 H 0.96825 0.70582 0.1222 0.0
H385 H 0.05065 0.59498 0.94941 0.0
H386 H 0.96776 0.62076 0.08214 0.0
H387 H 0.04165 0.65092 0.19506 0.0
C388 C 0.02377 0.68701 0.22258 0.0
C389 C 1.00328 0.70309 0.20151 0.0
C390 C 0.98596 0.61491 0.05377 0.0
C391 C 1.00605 0.65457 0.11911 0.0
C392 C 0.98781 0.59227 1.00168 0.0
C393 C 1.01106 0.58476 0.96165 0.0
C394 C 1.00767 0.62975 0.06869 0.0
C395 C 0.03232 0.60014 0.97844 0.0
C396 C 0.02541 0.66288 0.18038 0.0
C397 C 0.9843 0.69395 0.1405 0.0
N398 N 0.03018 0.62178 0.03119 0.0
N399 N 0.98603 0.67028 0.10204 0.0
H400 H 0.10608 0.21896 0.20699 0.0
H401 H 0.02268 0.14699 0.58187 0.0
H402 H 0.05511 0.25379 0.40935 0.0
H403 H 0.05555 0.11566 0.32492 0.0
H404 H 0.05058 0.18369 0.56644 0.0
H405 H 0.10613 0.18047 0.30459 0.0
C406 C 0.09594 0.21903 0.27447 0.0
C407 C 0.07904 0.23883 0.29639 0.0
C408 C 0.05205 0.16851 0.51464 0.0
C409 C 0.07903 0.1952 0.40755 0.0
C410 C 0.03586 0.14776 0.52243 0.0
C411 C 0.0361 0.12873 0.45236 0.0
C412 C 0.06846 0.17035 0.43583 0.0
C413 C 0.05436 0.13013 0.37951 0.0
C414 C 0.09579 0.19694 0.3297 0.0
C415 C 0.06739 0.23845 0.38679 0.0
N416 N 0.06947 0.15087 0.37202 0.0
N417 N 0.06672 0.21648 0.4374 0.0
H418 H 0.2966 0.9253 0.08055 0.0
H419 H 0.37691 0.91275 0.54857 0.0
H420 H 0.27611 0.95539 0.35657 0.0
H421 H 0.40445 0.90878 0.25777 0.0
H422 H 0.33378 0.9071 0.48938 0.0
H423 H 0.32757 0.89756 0.15807 0.0
C424 C 0.29787 0.92529 0.15789 0.0
C425 C 0.28461 0.9434 0.21195 0.0
C426 C 0.34942 0.90662 0.43911 0.0
C427 C 0.32004 0.91209 0.30048 0.0
C428 C 0.37405 0.91009 0.47259 0.0
C429 C 0.39432 0.91252 0.40772 0.0
C430 C 0.34511 0.90541 0.34027 0.0
C431 C 0.38953 0.90762 0.31072 0.0
C432 C 0.31559 0.90952 0.20204 0.0
C433 C 0.28642 0.94215 0.31193 0.0
N434 N 0.36535 0.90493 0.27975 0.0
N435 N 0.3045 0.92736 0.35294 0.0
H436 H 0.41649 0.3157 0.24793 0.0
H437 H 0.50186 0.39123 0.598 0.0
H438 H 0.47727 0.2845 0.41689 0.0
H439 H 0.45993 0.41995 0.35576 0.0
H440 H 0.47659 0.35243 0.59312 0.0
H441 H 0.41396 0.35156 0.3576 0.0
C442 C 0.42842 0.3157 0.31089 0.0
C443 C 0.4483 0.29814 0.31982 0.0
C444 C 0.47251 0.36757 0.54285 0.0
C445 C 0.44574 0.33892 0.44374 0.0
C446 C 0.48722 0.38951 0.54431 0.0
C447 C 0.48378 0.40841 0.47438 0.0
C448 C 0.45431 0.36452 0.4709 0.0
C449 C 0.46365 0.40573 0.40992 0.0
C450 C 0.42707 0.33627 0.37315 0.0
C451 C 0.46245 0.29835 0.40463 0.0
N452 N 0.45003 0.38395 0.40854 0.0
N453 N 0.46166 0.31912 0.46158 0.0
H454 H 0.25103 0.58331 0.43023 0.0
H455 H 0.14187 0.60493 0.64399 0.0
H456 H 0.21529 0.61685 0.18327 0.0
H457 H 0.12071 0.65199 0.40395 0.0
H458 H 0.18555 0.60801 0.59647 0.0
H459 H 0.22335 0.60809 0.53319 0.0
C460 C 0.23773 0.59638 0.39759 0.0
C461 C 0.23463 0.59717 0.298 0.0
C462 C 0.17177 0.61847 0.55511 0.0
C463 C 0.20157 0.62429 0.41536 0.0
C464 C 0.14648 0.61678 0.58301 0.0
C465 C 0.12736 0.62744 0.52587 0.0
C466 C 0.178 0.6306 0.46839 0.0
C467 C 0.13473 0.64257 0.44792 0.0
C468 C 0.22146 0.61023 0.45666 0.0
C469 C 0.21751 0.61486 0.2599 0.0
N470 N 0.15938 0.64309 0.4199 0.0
N471 N 0.2011 0.62715 0.31855 0.0
H472 H 0.05236 0.79546 0.08771 0.0
H473 H 0.14548 0.91027 0.10744 0.0
H474 H 0.1025 0.81213 0.32193 0.0
H475 H 0.0899 0.89738 0.88701 0.0
H476 H 0.14244 0.8656 0.15303 0.0
H477 H 0.07806 0.82255 0.98364 0.0
C478 C 0.06931 0.80411 0.1163 0.0
C479 C 0.07496 0.80226 0.21395 0.0
C480 C 0.13148 0.87239 0.09277 0.0
C481 C 0.10402 0.83366 0.09652 0.0
C482 C 0.1332 0.89792 0.06678 0.0
C483 C 0.11723 0.90786 0.99576 0.0
C484 C 0.11344 0.85686 0.0481 0.0
C485 C 0.1023 0.89079 0.94341 0.0
C486 C 0.08392 0.81971 0.05709 0.0
C487 C 0.09717 0.81373 0.24741 0.0
N488 N 0.10024 0.86629 0.97242 0.0
N489 N 0.11056 0.82946 0.18939 0.0
H490 H 0.75093 0.9881 0.09629 0.0
H491 H 0.61341 0.96814 0.13912 0.0
H492 H 0.72008 0.92248 0.23851 0.0
H493 H 0.64374 1.01023 0.89913 0.0
H494 H 0.65226 0.94389 0.14662 0.0
H495 H 0.71561 0.98763 0.98545 0.0
C496 C 0.73748 0.97265 0.10089 0.0
C497 C 0.73748 0.9562 0.17991 0.0
C498 C 0.65032 0.95805 0.09081 0.0
C499 C 0.69658 0.95623 0.05655 0.0
C500 C 0.628 0.97207 0.08665 0.0
C501 C 0.62541 0.99193 0.02026 0.0
C502 C 0.67066 0.96441 0.03045 0.0
C503 C 0.64526 0.99595 0.95463 0.0
C504 C 0.71702 0.97257 0.03805 0.0
C505 C 0.71998 0.93623 0.18081 0.0
N506 N 0.66731 0.98279 0.963 0.0
N507 N 0.69943 0.93748 0.12294 0.0
H508 H 0.41679 0.7282 0.42152 0.0
H509 H 0.40619 0.64647 0.95446 0.0
H510 H 0.4456 0.74885 0.14293 0.0
H511 H 0.40795 0.61834 0.24493 0.0
H512 H 0.39842 0.68913 0.01595 0.0
H513 H 0.3912 0.69513 0.34698 0.0
C514 C 0.41702 0.72644 0.34434 0.0
C515 C 0.43429 0.74047 0.28887 0.0
C516 C 0.39967 0.67341 0.0658 0.0
C517 C 0.40501 0.70295 0.20364 0.0
C518 C 0.40435 0.64906 0.03097 0.0
C519 C 0.40907 0.62891 0.09468 0.0
C520 C 0.39949 0.67752 0.16484 0.0
C521 C 0.40511 0.63325 0.19272 0.0
C522 C 0.40239 0.70758 0.30194 0.0
C523 C 0.43309 0.73806 0.18899 0.0
N524 N 0.40118 0.65721 0.2249 0.0
N525 N 0.41931 0.71906 0.14971 0.0
H526 H 0.80474 0.42068 0.35582 0.0
H527 H 0.91284 0.38649 0.14641 0.0
H528 H 0.79052 0.46578 0.10405 0.0
H529 H 0.89066 0.4372 0.91867 0.0
H530 H 0.86877 0.38296 0.19454 0.0
H531 H 0.83425 0.39484 0.2652 0.0
C532 C 0.80735 0.42462 0.28032 0.0
C533 C 0.79594 0.44594 0.23823 0.0
C534 C 0.87322 0.39463 0.13322 0.0
C535 C 0.83053 0.41701 0.1336 0.0
C536 C 0.89857 0.39648 0.1053 0.0
C537 C 0.90563 0.41298 0.03096 0.0
C538 C 0.85491 0.40986 0.08745 0.0
C539 C 0.8863 0.42464 0.97779 0.0
C540 C 0.82446 0.40992 0.22811 0.0
C541 C 0.79934 0.44983 0.13988 0.0
N542 N 0.86196 0.42339 0.00869 0.0
N543 N 0.81688 0.43598 0.09161 0.0
H544 H 0.05197 0.23128 0.90275 0.0
H545 H 1.0085 0.0908 0.01204 0.0
H546 H 0.99995 0.21316 0.13014 0.0
H547 H 0.0281 0.11309 0.72419 0.0
H548 H 1.00787 0.13554 0.05846 0.0
H549 H 0.04474 0.189 0.83362 0.0
C550 C 0.03811 0.21885 0.93556 0.0
C551 C 0.02595 0.2261 0.02083 0.0
C552 C 1.01219 0.13069 0.98498 0.0
C553 C 0.01892 0.177 0.94596 0.0
C554 C 0.01277 0.10508 0.95853 0.0
C555 C 0.01848 0.09802 0.86405 0.0
C556 C 0.01788 0.14963 0.91721 0.0
C557 C 0.02362 0.11757 0.79786 0.0
C558 C 0.03431 0.19455 0.89702 0.0
C559 C 1.00913 0.20868 0.06289 0.0
N560 N 0.0235 0.1424 0.82587 0.0
N561 N 1.0065 0.18488 0.02628 0.0
H562 H 0.32316 0.03987 0.13093 0.0
H563 H 0.41343 1.00703 0.68418 0.0
H564 H 0.29983 0.99517 0.8898 0.0
H565 H 0.43932 0.04503 0.93872 0.0
H566 H 0.37017 1.00828 0.74721 0.0
H567 H 0.36361 0.04851 0.04955 0.0
C568 C 0.32615 0.03276 0.05916 0.0
C569 C 0.30791 0.0172 0.01626 0.0
C570 C 0.38527 0.01654 0.789 0.0
C571 C 0.35457 0.02609 0.92398 0.0
C572 C 0.41008 0.01586 0.7529 0.0
C573 C 0.43031 0.02578 0.80618 0.0
C574 C 0.38042 0.02728 0.87928 0.0
C575 C 0.42451 0.03698 0.89497 0.0
C576 C 0.34941 0.03732 0.01327 0.0
C577 C 0.31319 1.00766 0.92456 0.0
N578 N 0.40024 0.03729 0.92875 0.0
N579 N 0.33603 1.01204 0.88202 0.0
H580 H 0.44959 0.32546 0.97346 0.0
H581 H 0.54751 0.435 0.82807 0.0
H582 H 0.52892 0.31949 0.04145 0.0
H583 H 0.46831 0.44821 0.88603 0.0
H584 H 0.54187 0.39019 0.87262 0.0
H585 H 0.45727 0.36715 0.90189 0.0
C586 C 0.46881 0.33259 0.97066 0.0
C587 C 0.48862 0.31885 0.01385 0.0
C588 C 0.52575 0.40292 0.87531 0.0
C589 C 0.4975 0.36708 0.93295 0.0
C590 C 0.52891 0.42852 0.84988 0.0
C591 C 0.50838 0.44559 0.8539 0.0
C592 C 0.50175 0.39405 0.90296 0.0
C593 C 0.48475 0.43594 0.8826 0.0
C594 C 0.47311 0.35657 0.93086 0.0
C595 C 0.51312 0.32922 0.00836 0.0
N596 N 0.48208 0.4109 0.90541 0.0
N597 N 0.51684 0.3528 0.96964 0.0
H598 H 0.20073 0.50611 0.18702 0.0
H599 H 0.10755 0.53441 0.74511 0.0
H600 H 0.22206 0.55145 0.94353 0.0
H601 H 0.08345 0.50053 0.01143 0.0
H602 H 0.15119 0.53494 0.80464 0.0
H603 H 0.16 0.49702 0.11024 0.0
C604 C 0.19724 0.51325 0.1155 0.0
C605 C 0.21508 0.529 0.07049 0.0
C606 C 0.13638 0.52723 0.84981 0.0
C607 C 0.16794 0.51967 0.98357 0.0
C608 C 0.11139 0.52689 0.8158 0.0
C609 C 0.09158 0.51752 0.87331 0.0
C610 C 0.14183 0.51795 0.94198 0.0
C611 C 0.09793 0.5081 0.96449 0.0
C612 C 0.17379 0.50844 0.07231 0.0
C613 C 0.20911 0.53867 0.97952 0.0
N614 N 0.12237 0.50861 0.99584 0.0
N615 N 0.18604 0.53403 0.93945 0.0
H616 H 0.05636 0.82028 0.56983 0.0
H617 H 0.97321 0.94697 0.62741 0.0
H618 H 0.98494 0.83129 0.42778 0.0
H619 H 0.04477 0.93419 0.76823 0.0
H620 H 0.97469 0.90338 0.56653 0.0
H621 H 0.04956 0.85973 0.6583 0.0
C622 C 0.03882 0.83063 0.5597 0.0
C623 C 0.021 0.82223 0.49251 0.0
C624 C 0.98996 0.91005 0.61137 0.0
C625 C 0.01346 0.86825 0.59085 0.0
C626 C 0.98914 0.93501 0.6463 0.0
C627 C 1.00896 0.94453 0.7029 0.0
C628 C 1.01075 0.89431 0.63294 0.0
C629 C 0.02907 0.92793 0.72463 0.0
C630 C 0.03506 0.85337 0.60935 0.0
C631 C 0.99891 0.83679 0.48029 0.0
N632 N 0.02949 0.90384 0.68937 0.0
N633 N 0.9959 0.85921 0.52798 0.0
H634 H 0.71343 0.03254 0.47467 0.0
H635 H 0.58221 0.9668 0.60197 0.0
H636 H 0.70537 0.95199 0.51745 0.0
H637 H 0.59603 0.04477 0.67829 0.0
H638 H 0.62712 0.96204 0.56196 0.0
H639 H 0.6711 0.03881 0.5462 0.0
C640 C 0.70317 0.01628 0.50201 0.0
C641 C 0.71304 0.9917 0.49006 0.0
C642 C 0.62039 0.98019 0.58787 0.0
C643 C 0.66421 0.9986 0.56813 0.0
C644 C 0.59464 0.98296 0.61017 0.0
C645 C 0.58515 1.00625 0.64327 0.0
C646 C 0.63693 1.00094 0.5968 0.0
C647 C 0.60241 0.02644 0.65299 0.0
C648 C 0.67887 0.01982 0.54172 0.0
C649 C 0.69855 0.97127 0.52503 0.0
N650 N 0.62734 0.02342 0.62894 0.0
N651 N 0.67484 0.97512 0.56062 0.0
H652 H 0.48394 0.73143 0.61665 0.0
H653 H 0.54429 0.59334 0.55868 0.0
H654 H 0.53276 0.71051 0.38272 0.0
H655 H 0.5011 0.61627 0.80636 0.0
H656 H 0.54389 0.63718 0.50173 0.0
H657 H 0.49443 0.69144 0.69732 0.0
C658 C 0.49771 0.71883 0.58414 0.0
C659 C 0.50784 0.72453 0.49356 0.0
C660 C 0.53469 0.63273 0.56901 0.0
C661 C 0.51905 0.67798 0.58339 0.0
C662 C 0.53485 0.60758 0.6017 0.0
C663 C 0.52254 0.60084 0.68747 0.0
C664 C 0.52196 0.65152 0.62172 0.0
C665 C 0.51079 0.62038 0.73982 0.0
C666 C 0.50342 0.6958 0.62955 0.0
C667 C 0.52494 0.70713 0.45329 0.0
N668 N 0.51059 0.64468 0.70574 0.0
N669 N 0.52969 0.68452 0.49764 0.0
H670 H 0.82415 0.5422 0.41177 0.0
H671 H 0.92797 0.48644 0.77519 0.0
H672 H 0.81387 0.47458 0.58081 0.0
H673 H 0.93979 0.55432 0.60776 0.0
H674 H 0.88448 0.48453 0.71663 0.0
H675 H 0.86406 0.55035 0.49683 0.0
C676 C 0.82982 0.52959 0.46918 0.0
C677 C 0.81552 0.5078 0.48977 0.0
C678 C 0.89649 0.49996 0.69297 0.0
C679 C 0.86163 0.51645 0.58531 0.0
C680 C 0.92146 0.50104 0.72638 0.0
C681 C 0.93783 0.5205 0.69615 0.0
C682 C 0.88758 0.51839 0.62819 0.0
C683 C 0.92801 0.5389 0.63299 0.0
C684 C 0.85281 0.53401 0.51681 0.0
C685 C 0.82419 0.4917 0.56315 0.0
N686 N 0.90368 0.5373 0.60076 0.0
N687 N 0.84669 0.49618 0.60729 0.0
loop_
_geom_bond_atom_site_label_1
_geom_bond_atom_site_label_2
_geom_bond_distance
_geom_bond_site_symmetry_2
_ccdc_geom_bond_type
H0 C5 0.930 . S
H1 C8 0.930 . S
H2 C10 0.930 . S
H3 C4 1.016 . S
C4 H3 1.016 . S
C4 N11 1.286 . S
C5 H0 0.930 . S
C5 C6 1.397 . S
C5 C7 1.361 . S
C6 C5 1.397 . S
C6 C10 1.390 . S
C7 C5 1.361 . S
C7 C8 1.393 . S
C7 N11 1.413 . S
C8 H1 0.930 . S
C8 C7 1.393 . S
C8 C9 1.399 . S
C9 C8 1.399 . S
C9 C10 1.381 . S
C10 H2 0.930 . S
C10 C6 1.390 . S
C10 C9 1.381 . S
N11 C4 1.286 . S
N11 C7 1.413 . S
H12 C17 0.930 . S
H13 C20 0.930 . S
H14 C22 0.930 . S
H15 C16 1.029 . S
C16 H15 1.029 . S
C16 N23 1.268 1_655 S
C17 H12 0.930 . S
C17 C18 1.397 . S
C17 C19 1.361 . S
C18 C17 1.397 . S
C18 C22 1.390 1_455 S
C19 C17 1.361 . S
C19 C20 1.393 . S
C19 N23 1.413 . S
C20 H13 0.930 . S
C20 C19 1.393 . S
C20 C21 1.402 . S
C21 C20 1.402 . S
C21 C22 1.379 1_455 S
C22 H14 0.930 . S
C22 C18 1.390 1_655 S
C22 C21 1.379 1_655 S
N23 C16 1.268 1_455 S
N23 C19 1.413 . S
H24 C29 0.930 . S
H25 C32 0.930 . S
H26 C34 0.930 . S
H27 C28 1.030 . S
C28 H27 1.030 . S
C28 N35 1.268 1_565 S
C29 H24 0.930 . S
C29 C30 1.397 . S
C29 C31 1.361 . S
C30 C29 1.397 . S
C30 C34 1.390 1_545 S
C31 C29 1.361 . S
C31 C32 1.393 . S
C31 N35 1.413 . S
C32 H25 0.930 . S
C32 C31 1.393 . S
C32 C33 1.402 . S
C33 C32 1.402 . S
C33 C34 1.379 1_545 S
C34 H26 0.930 . S
C34 C30 1.390 1_565 S
C34 C33 1.379 1_565 S
N35 C28 1.268 1_545 S
N35 C31 1.413 . S
H36 C41 0.930 . S
H37 C44 0.930 . S
H38 C46 0.930 . S
H39 C40 1.016 . S
C40 H39 1.016 . S
C40 N47 1.286 . S
C41 H36 0.930 . S
C41 C42 1.397 . S
C41 C43 1.361 . S
C42 C41 1.397 . S
C42 C46 1.390 . S
C43 C41 1.361 . S
C43 C44 1.393 . S
C43 N47 1.413 . S
C44 H37 0.930 . S
C44 C43 1.393 . S
C44 C45 1.399 . S
C45 C44 1.399 . S
C45 C46 1.381 . S
C46 H38 0.930 . S
C46 C42 1.390 . S
C46 C45 1.381 . S
N47 C40 1.286 . S
N47 C43 1.413 . S
H48 C53 0.930 . S
H49 C56 0.930 . S
H50 C58 0.930 . S
H51 C52 1.016 . S
C52 H51 1.016 . S
C52 N59 1.286 . S
C53 H48 0.930 . S
C53 C54 1.397 . S
C53 C55 1.361 1_556 S
C54 C53 1.397 . S
C54 C58 1.390 1_556 S
C55 C53 1.361 1_554 S
C55 C56 1.393 . S
C55 N59 1.413 . S
C56 H49 0.930 . S
C56 C55 1.393 . S
C56 C57 1.399 . S
C57 C56 1.399 . S
C57 C58 1.381 . S
C58 H50 0.930 . S
C58 C54 1.390 1_554 S
C58 C57 1.381 . S
N59 C52 1.286 . S
N59 C55 1.413 . S
H60 C65 0.930 . S
H61 C68 0.930 . S
H62 C70 0.930 . S
H63 C64 1.026 . S
C64 H63 1.026 . S
C64 N71 1.273 1_655 S
C65 H60 0.930 . S
C65 C66 1.397 . S
C65 C67 1.361 1_556 S
C66 C65 1.397 . S
C66 C70 1.390 1_456 S
C67 C65 1.361 1_554 S
C67 C68 1.393 . S
C67 N71 1.413 . S
C68 H61 0.930 . S
C68 C67 1.393 . S
C68 C69 1.404 . S
C69 C68 1.404 . S
C69 C70 1.378 1_455 S
C70 H62 0.930 . S
C70 C66 1.390 1_654 S
C70 C69 1.378 1_655 S
N71 C64 1.273 1_455 S
N71 C67 1.413 . S
H72 C77 0.930 . S
H73 C80 0.930 . S
H74 C82 0.930 . S
H75 C76 1.026 . S
C76 H75 1.026 . S
C76 N83 1.273 1_565 S
C77 H72 0.930 . S
C77 C78 1.397 . S
C77 C79 1.361 1_556 S
C78 C77 1.397 . S
C78 C82 1.390 1_546 S
C79 C77 1.361 1_554 S
C79 C80 1.393 . S
C79 N83 1.413 . S
C80 H73 0.930 . S
C80 C79 1.393 . S
C80 C81 1.404 . S
C81 C80 1.404 . S
C81 C82 1.378 1_545 S
C82 H74 0.930 . S
C82 C78 1.390 1_564 S
C82 C81 1.378 1_565 S
N83 C76 1.273 1_545 S
N83 C79 1.413 . S
H84 C89 0.930 . S
H85 C92 0.930 . S
H86 C94 0.930 . S
H87 C88 1.016 . S
C88 H87 1.016 . S
C88 N95 1.286 . S
C89 H84 0.930 . S
C89 C90 1.397 . S
C89 C91 1.361 1_556 S
C90 C89 1.397 . S
C90 C94 1.390 1_556 S
C91 C89 1.361 1_554 S
C91 C92 1.393 . S
C91 N95 1.413 . S
C92 H85 0.930 . S
C92 C91 1.393 . S
C92 C93 1.399 . S
C93 C92 1.399 . S
C93 C94 1.381 . S
C94 H86 0.930 . S
C94 C90 1.390 1_554 S
C94 C93 1.381 . S
N95 C88 1.286 . S
N95 C91 1.413 . S
Tb96 C106 2.825 . S
Tb96 O107 2.347 1_455 S
Tb96 O110 2.366 . S
Tb96 O115 2.418 . S
Tb96 O116 2.384 1_565 S
Tb96 O119 2.479 . S
Tb96 O120 2.471 . S
Eu97 O108 2.418 . S
Eu97 O109 2.384 1_545 S
Eu97 O112 2.479 . S
Eu97 O113 2.471 . S
Eu97 O114 2.347 1_655 S
Eu97 O117 2.366 . S
Eu97 C127 2.825 . S
C98 O114 1.259 1_565 S
C98 O115 1.265 . S
C99 O116 1.255 . S
C99 O117 1.265 1_455 S
C100 C102 1.380 . S
C100 C103 1.374 . S
C100 C106 1.507 1_554 S
C101 C102 1.384 . S
C101 C105 1.387 . S
C101 H128 0.930 . S
C102 C100 1.380 . S
C102 C101 1.384 . S
C102 H129 0.931 . S
C103 C100 1.374 . S
C103 C104 1.390 . S
C103 H130 0.930 1_455 S
C104 C103 1.390 . S
C104 C105 1.391 . S
C104 H131 0.930 1_455 S
C105 C101 1.387 . S
C105 C104 1.391 . S
C106 Tb96 2.825 . S
C106 C100 1.507 1_556 S
C106 O119 1.238 . S
C106 O120 1.247 . S
O107 Tb96 2.347 1_655 S
O107 C111 1.259 1_565 S
O108 Eu97 2.418 . S
O108 C111 1.265 . S
O109 Eu97 2.384 1_565 S
O109 C118 1.255 . S
O110 Tb96 2.366 . S
O110 C118 1.265 1_455 S
C111 O107 1.259 1_545 S
C111 O108 1.265 . S
O112 Eu97 2.479 . S
O112 C127 1.238 . S
O113 Eu97 2.471 . S
O113 C127 1.247 . S
O114 Eu97 2.347 1_455 S
O114 C98 1.259 1_545 S
O115 Tb96 2.418 . S
O115 C98 1.265 . S
O116 Tb96 2.384 1_545 S
O116 C99 1.255 . S
O117 Eu97 2.366 . S
O117 C99 1.265 1_655 S
C118 O109 1.255 . S
C118 O110 1.265 1_655 S
O119 Tb96 2.479 . S
O119 C106 1.238 . S
O120 Tb96 2.471 . S
O120 C106 1.247 . S
C121 C124 1.380 . S
C121 C125 1.374 . S
C121 C127 1.507 . S
C122 C123 1.387 . S
C122 C126 1.391 . S
C123 C122 1.387 . S
C123 C124 1.384 . S
C123 H132 0.930 . S
C124 C121 1.380 . S
C124 C123 1.384 . S
C124 H133 0.931 . S
C125 C121 1.374 . S
C125 C126 1.390 . S
C125 H134 0.930 1_655 S
C126 C122 1.391 . S
C126 C125 1.390 . S
C126 H135 0.930 1_655 S
C127 Eu97 2.825 . S
C127 O112 1.238 . S
C127 O113 1.247 . S
C127 C121 1.507 . S
H128 C101 0.930 . S
H129 C102 0.931 . S
H130 C103 0.930 1_655 S
H131 C104 0.930 1_655 S
H132 C123 0.930 . S
H133 C124 0.931 . S
H134 C125 0.930 1_455 S
H135 C126 0.930 1_455 S
Tb136 C146 2.825 . S
Tb136 O147 2.347 1_545 S
Tb136 O150 2.366 . S
Tb136 O155 2.418 . S
Tb136 O156 2.384 . S
Tb136 O159 2.479 . S
Tb136 O160 2.471 . S
Eu137 O148 2.418 . S
Eu137 O149 2.384 . S
Eu137 O152 2.479 . S
Eu137 O153 2.471 . S
Eu137 O154 2.347 1_565 S
Eu137 O157 2.366 . S
Eu137 C167 2.825 . S
C138 O154 1.259 . S
C138 O155 1.265 . S
C139 O156 1.255 . S
C139 O157 1.265 1_545 S
C140 C142 1.380 . S
C140 C143 1.374 . S
C140 C146 1.507 1_554 S
C141 C142 1.384 . S
C141 C145 1.387 . S
C141 H168 0.930 . S
C142 C140 1.380 . S
C142 C141 1.384 . S
C142 H169 0.931 . S
C143 C140 1.374 . S
C143 C144 1.390 . S
C143 H170 0.930 1_545 S
C144 C143 1.390 . S
C144 C145 1.391 . S
C144 H171 0.930 1_545 S
C145 C141 1.387 . S
C145 C144 1.391 . S
C146 Tb136 2.825 . S
C146 C140 1.507 1_556 S
C146 O159 1.238 . S
C146 O160 1.247 . S
O147 Tb136 2.347 1_565 S
O147 C151 1.259 . S
O148 Eu137 2.418 . S
O148 C151 1.265 . S
O149 Eu137 2.384 . S
O149 C158 1.255 . S
O150 Tb136 2.366 . S
O150 C158 1.265 1_545 S
C151 O147 1.259 . S
C151 O148 1.265 . S
O152 Eu137 2.479 . S
O152 C167 1.238 . S
O153 Eu137 2.471 . S
O153 C167 1.247 . S
O154 Eu137 2.347 1_545 S
O154 C138 1.259 . S
O155 Tb136 2.418 . S
O155 C138 1.265 . S
O156 Tb136 2.384 . S
O156 C139 1.255 . S
O157 Eu137 2.366 . S
O157 C139 1.265 1_565 S
C158 O149 1.255 . S
C158 O150 1.265 1_565 S
O159 Tb136 2.479 . S
O159 C146 1.238 . S
O160 Tb136 2.471 . S
O160 C146 1.247 . S
C161 C164 1.380 . S
C161 C165 1.374 . S
C161 C167 1.507 . S
C162 C163 1.387 . S
C162 C166 1.391 . S
C163 C162 1.387 . S
C163 C164 1.384 . S
C163 H172 0.930 . S
C164 C161 1.380 . S
C164 C163 1.384 . S
C164 H173 0.931 . S
C165 C161 1.374 . S
C165 C166 1.390 . S
C165 H174 0.930 1_565 S
C166 C162 1.391 . S
C166 C165 1.390 . S
C166 H175 0.930 1_565 S
C167 Eu137 2.825 . S
C167 O152 1.238 . S
C167 O153 1.247 . S
C167 C161 1.507 . S
H168 C141 0.930 . S
H169 C142 0.931 . S
H170 C143 0.930 1_565 S
H171 C144 0.930 1_565 S
H172 C163 0.930 . S
H173 C164 0.931 . S
H174 C165 0.930 1_545 S
H175 C166 0.930 1_545 S
Tb176 C186 2.825 . S
Tb176 O187 2.347 . S
Tb176 O190 2.366 . S
Tb176 O195 2.418 . S
Tb176 O196 2.384 . S
Tb176 O199 2.479 . S
Tb176 O200 2.471 . S
Eu177 O188 2.418 . S
Eu177 O189 2.384 . S
Eu177 O192 2.479 . S
Eu177 O193 2.471 . S
Eu177 O194 2.347 . S
Eu177 O197 2.366 . S
Eu177 C207 2.825 . S
C178 O194 1.259 . S
C178 O195 1.265 . S
C179 O196 1.255 . S
C179 O197 1.265 . S
C180 C182 1.380 . S
C180 C183 1.374 . S
C180 C186 1.507 1_554 S
C181 C182 1.384 . S
C181 C185 1.387 . S
C181 H208 0.930 . S
C182 C180 1.380 . S
C182 C181 1.384 . S
C182 H209 0.931 . S
C183 C180 1.374 . S
C183 C184 1.390 . S
C183 H210 0.930 . S
C184 C183 1.390 . S
C184 C185 1.391 . S
C184 H211 0.930 . S
C185 C181 1.387 . S
C185 C184 1.391 . S
C186 Tb176 2.825 . S
C186 C180 1.507 1_556 S
C186 O199 1.238 . S
C186 O200 1.247 . S
O187 Tb176 2.347 . S
O187 C191 1.259 . S
O188 Eu177 2.418 . S
O188 C191 1.265 . S
O189 Eu177 2.384 . S
O189 C198 1.255 . S
O190 Tb176 2.366 . S
O190 C198 1.265 . S
C191 O187 1.259 . S
C191 O188 1.265 . S
O192 Eu177 2.479 . S
O192 C207 1.238 . S
O193 Eu177 2.471 . S
O193 C207 1.247 . S
O194 Eu177 2.347 . S
O194 C178 1.259 . S
O195 Tb176 2.418 . S
O195 C178 1.265 . S
O196 Tb176 2.384 . S
O196 C179 1.255 . S
O197 Eu177 2.366 . S
O197 C179 1.265 . S
C198 O189 1.255 . S
C198 O190 1.265 . S
O199 Tb176 2.479 . S
O199 C186 1.238 . S
O200 Tb176 2.471 . S
O200 C186 1.247 . S
C201 C204 1.380 . S
C201 C205 1.374 . S
C201 C207 1.507 . S
C202 C203 1.387 . S
C202 C206 1.391 . S
C203 C202 1.387 . S
C203 C204 1.384 . S
C203 H212 0.930 . S
C204 C201 1.380 . S
C204 C203 1.384 . S
C204 H213 0.931 . S
C205 C201 1.374 . S
C205 C206 1.390 . S
C205 H214 0.930 . S
C206 C202 1.391 . S
C206 C205 1.390 . S
C206 H215 0.930 . S
C207 Eu177 2.825 . S
C207 O192 1.238 . S
C207 O193 1.247 . S
C207 C201 1.507 . S
H208 C181 0.930 . S
H209 C182 0.931 . S
H210 C183 0.930 . S
H211 C184 0.930 . S
H212 C203 0.930 . S
H213 C204 0.931 . S
H214 C205 0.930 . S
H215 C206 0.930 . S
Tb216 C226 2.825 . S
Tb216 O227 2.347 . S
Tb216 O230 2.366 . S
Tb216 O235 2.418 . S
Tb216 O236 2.384 1_655 S
Tb216 O239 2.479 . S
Tb216 O240 2.471 . S
Eu217 O228 2.418 . S
Eu217 O229 2.384 1_455 S
Eu217 O232 2.479 . S
Eu217 O233 2.471 . S
Eu217 O234 2.347 . S
Eu217 O237 2.366 . S
Eu217 C247 2.825 . S
C218 O234 1.259 1_655 S
C218 O235 1.265 . S
C219 O236 1.255 . S
C219 O237 1.265 . S
C220 C222 1.380 . S
C220 C223 1.374 . S
C220 C226 1.507 1_554 S
C221 C222 1.384 . S
C221 C225 1.387 . S
C221 H248 0.930 . S
C222 C220 1.380 . S
C222 C221 1.384 . S
C222 H249 0.931 . S
C223 C220 1.374 . S
C223 C224 1.390 . S
C223 H250 0.930 . S
C224 C223 1.390 . S
C224 C225 1.391 . S
C224 H251 0.930 . S
C225 C221 1.387 . S
C225 C224 1.391 . S
C226 Tb216 2.825 . S
C226 C220 1.507 1_556 S
C226 O239 1.238 . S
C226 O240 1.247 . S
O227 Tb216 2.347 . S
O227 C231 1.259 1_655 S
O228 Eu217 2.418 . S
O228 C231 1.265 . S
O229 Eu217 2.384 1_655 S
O229 C238 1.255 . S
O230 Tb216 2.366 . S
O230 C238 1.265 . S
C231 O227 1.259 1_455 S
C231 O228 1.265 . S
O232 Eu217 2.479 . S
O232 C247 1.238 . S
O233 Eu217 2.471 . S
O233 C247 1.247 . S
O234 Eu217 2.347 . S
O234 C218 1.259 1_455 S
O235 Tb216 2.418 . S
O235 C218 1.265 . S
O236 Tb216 2.384 1_455 S
O236 C219 1.255 . S
O237 Eu217 2.366 . S
O237 C219 1.265 . S
C238 O229 1.255 . S
C238 O230 1.265 . S
O239 Tb216 2.479 . S
O239 C226 1.238 . S
O240 Tb216 2.471 . S
O240 C226 1.247 . S
C241 C244 1.380 . S
C241 C245 1.374 . S
C241 C247 1.507 . S
C242 C243 1.387 . S
C242 C246 1.391 . S
C243 C242 1.387 . S
C243 C244 1.384 . S
C243 H252 0.930 . S
C244 C241 1.380 . S
C244 C243 1.384 . S
C244 H253 0.931 . S
C245 C241 1.374 . S
C245 C246 1.390 . S
C245 H254 0.930 . S
C246 C242 1.391 . S
C246 C245 1.390 . S
C246 H255 0.930 . S
C247 Eu217 2.825 . S
C247 O232 1.238 . S
C247 O233 1.247 . S
C247 C241 1.507 . S
H248 C221 0.930 . S
H249 C222 0.931 . S
H250 C223 0.930 . S
H251 C224 0.930 . S
H252 C243 0.930 . S
H253 C244 0.931 . S
H254 C245 0.930 . S
H255 C246 0.930 . S
H256 C262 0.930 . S
H257 C266 0.930 . S
H258 C271 0.929 . S
H259 C269 0.929 . S
H260 C264 0.929 . S
H261 C270 0.929 . S
C262 H256 0.930 . S
C262 C263 1.378 . S
C262 C270 1.378 . S
C263 C262 1.378 . S
C263 C271 1.422 1_565 S
C264 H260 0.929 . S
C264 C266 1.378 . S
C264 C268 1.388 . S
C265 C268 1.460 1_565 S
C265 C270 1.368 . S
C265 N273 1.409 1_565 S
C266 H257 0.930 . S
C266 C264 1.378 . S
C266 C267 1.398 . S
C267 C266 1.398 . S
C267 C269 1.402 1_545 S
C268 C264 1.388 . S
C268 C265 1.460 1_545 S
C268 N272 1.389 1_545 S
C269 H259 0.929 . S
C269 C267 1.402 1_565 S
C269 N272 1.384 . S
C270 H261 0.929 . S
C270 C262 1.378 . S
C270 C265 1.368 . S
C271 H258 0.929 . S
C271 C263 1.422 1_545 S
C271 N273 1.384 . S
N272 C268 1.389 1_565 S
N272 C269 1.384 . S
N273 C265 1.409 1_545 S
N273 C271 1.384 . S
H274 C280 0.930 . S
H275 C284 0.930 . S
H276 C289 0.929 . S
H277 C287 0.929 . S
H278 C282 0.929 . S
H279 C288 0.929 . S
C280 H274 0.930 . S
C280 C281 1.367 . S
C280 C288 1.378 . S
C281 C280 1.367 . S
C281 C289 1.433 . S
C282 H278 0.929 . S
C282 C284 1.378 . S
C282 C286 1.350 . S
C283 C286 1.463 . S
C283 C288 1.350 . S
C283 N291 1.427 . S
C284 H275 0.930 . S
C284 C282 1.378 . S
C284 C285 1.367 . S
C285 C284 1.367 . S
C285 C287 1.433 . S
C286 C282 1.350 . S
C286 C283 1.463 . S
C286 N290 1.427 . S
C287 H277 0.929 . S
C287 C285 1.433 . S
C287 N290 1.384 . S
C288 H279 0.929 . S
C288 C280 1.378 . S
C288 C283 1.350 . S
C289 H276 0.929 . S
C289 C281 1.433 . S
C289 N291 1.384 . S
N290 C286 1.427 . S
N290 C287 1.384 . S
N291 C283 1.427 . S
N291 C289 1.384 . S
H292 C298 0.930 . S
H293 C302 0.930 . S
H294 C307 0.929 . S
H295 C305 0.929 . S
H296 C300 0.929 . S
H297 C306 0.929 . S
C298 H292 0.930 . S
C298 C299 1.367 . S
C298 C306 1.378 . S
C299 C298 1.367 . S
C299 C307 1.433 . S
C300 H296 0.929 . S
C300 C302 1.378 . S
C300 C304 1.350 . S
C301 C304 1.463 . S
C301 C306 1.350 . S
C301 N309 1.427 . S
C302 H293 0.930 . S
C302 C300 1.378 . S
C302 C303 1.367 . S
C303 C302 1.367 . S
C303 C305 1.433 . S
C304 C300 1.350 . S
C304 C301 1.463 . S
C304 N308 1.427 . S
C305 H295 0.929 . S
C305 C303 1.433 . S
C305 N308 1.384 . S
C306 H297 0.929 . S
C306 C298 1.378 . S
C306 C301 1.350 . S
C307 H294 0.929 . S
C307 C299 1.433 . S
C307 N309 1.384 . S
N308 C304 1.427 . S
N308 C305 1.384 . S
N309 C301 1.427 . S
N309 C307 1.384 . S
H310 C316 0.930 . S
H311 C320 0.930 . S
H312 C325 0.929 . S
H313 C323 0.931 . S
H314 C318 0.929 . S
H315 C324 0.932 . S
C316 H310 0.930 . S
C316 C317 1.366 1_655 S
C316 C324 1.379 . S
C317 C316 1.366 1_455 S
C317 C325 1.434 . S
C318 H314 0.929 . S
C318 C320 1.378 . S
C318 C322 1.352 . S
C319 C322 1.462 . S
C319 C324 1.348 1_455 S
C319 N327 1.428 . S
C320 H311 0.930 . S
C320 C318 1.378 . S
C320 C321 1.370 . S
C321 C320 1.370 . S
C321 C323 1.431 1_455 S
C322 C318 1.352 . S
C322 C319 1.462 . S
C322 N326 1.425 1_455 S
C323 H313 0.931 . S
C323 C321 1.431 1_655 S
C323 N326 1.384 . S
C324 H315 0.932 . S
C324 C316 1.379 . S
C324 C319 1.348 1_655 S
C325 H312 0.929 . S
C325 C317 1.434 . S
C325 N327 1.384 . S
N326 C322 1.425 1_655 S
N326 C323 1.384 . S
N327 C319 1.428 . S
N327 C325 1.384 . S
H328 C334 0.930 . S
H329 C338 0.930 . S
H330 C343 0.929 . S
H331 C341 0.929 . S
H332 C336 0.929 . S
H333 C342 0.929 . S
C334 H328 0.930 . S
C334 C335 1.389 . S
C334 C342 1.378 . S
C335 C334 1.389 . S
C335 C343 1.411 1_545 S
C336 H332 0.929 . S
C336 C338 1.378 1_554 S
C336 C340 1.382 . S
C337 C340 1.460 1_545 S
C337 C342 1.380 . S
C337 N345 1.397 1_545 S
C338 H329 0.930 . S
C338 C336 1.378 1_556 S
C338 C339 1.391 . S
C339 C338 1.391 . S
C339 C341 1.409 1_565 S
C340 C336 1.382 . S
C340 C337 1.460 1_565 S
C340 N344 1.395 1_565 S
C341 H331 0.929 . S
C341 C339 1.409 1_545 S
C341 N344 1.384 1_556 S
C342 H333 0.929 . S
C342 C334 1.378 . S
C342 C337 1.380 . S
C343 H330 0.929 . S
C343 C335 1.411 1_565 S
C343 N345 1.384 . S
N344 C340 1.395 1_545 S
N344 C341 1.384 1_554 S
N345 C337 1.397 1_565 S
N345 C343 1.384 . S
H346 C352 0.930 . S
H347 C356 0.930 1_556 S
H348 C361 0.929 . S
H349 C359 0.929 . S
H350 C354 0.929 . S
H351 C360 0.929 . S
C352 H346 0.930 . S
C352 C353 1.367 . S
C352 C360 1.378 . S
C353 C352 1.367 . S
C353 C361 1.433 . S
C354 H350 0.929 . S
C354 C356 1.378 . S
C354 C358 1.350 . S
C355 C358 1.463 . S
C355 C360 1.350 . S
C355 N363 1.427 . S
C356 H347 0.930 1_554 S
C356 C354 1.378 . S
C356 C357 1.367 1_554 S
C357 C356 1.367 1_556 S
C357 C359 1.433 . S
C358 C354 1.350 . S
C358 C355 1.463 . S
C358 N362 1.427 . S
C359 H349 0.929 . S
C359 C357 1.433 . S
C359 N362 1.384 1_556 S
C360 H351 0.929 . S
C360 C352 1.378 . S
C360 C355 1.350 . S
C361 H348 0.929 . S
C361 C353 1.433 . S
C361 N363 1.384 . S
N362 C358 1.427 . S
N362 C359 1.384 1_554 S
N363 C355 1.427 . S
N363 C361 1.384 . S
H364 C370 0.930 . S
H365 C374 0.930 . S
H366 C379 0.929 . S
H367 C377 0.929 . S
H368 C372 0.929 . S
H369 C378 0.929 . S
C370 H364 0.930 . S
C370 C371 1.367 . S
C370 C378 1.378 . S
C371 C370 1.367 . S
C371 C379 1.433 . S
C372 H368 0.929 . S
C372 C374 1.378 1_554 S
C372 C376 1.350 . S
C373 C376 1.463 . S
C373 C378 1.350 . S
C373 N381 1.427 . S
C374 H365 0.930 . S
C374 C372 1.378 1_556 S
C374 C375 1.367 . S
C375 C374 1.367 . S
C375 C377 1.433 1_556 S
C376 C372 1.350 . S
C376 C373 1.463 . S
C376 N380 1.427 . S
C377 H367 0.929 . S
C377 C375 1.433 1_554 S
C377 N380 1.384 . S
C378 H369 0.929 . S
C378 C370 1.378 . S
C378 C373 1.350 . S
C379 H366 0.929 . S
C379 C371 1.433 . S
C379 N381 1.384 . S
N380 C376 1.427 . S
N380 C377 1.384 . S
N381 C373 1.427 . S
N381 C379 1.384 . S
H382 C388 0.930 . S
H383 C392 0.930 . S
H384 C397 0.929 . S
H385 C395 0.929 . S
H386 C390 0.929 . S
H387 C396 0.929 . S
C388 H382 0.930 . S
C388 C389 1.368 1_455 S
C388 C396 1.378 . S
C389 C388 1.368 1_655 S
C389 C397 1.432 . S
C390 H386 0.929 . S
C390 C392 1.378 . S
C390 C394 1.367 . S
C391 C394 1.462 . S
C391 C396 1.348 1_655 S
C391 N399 1.429 . S
C392 H383 0.930 . S
C392 C390 1.378 . S
C392 C393 1.367 1_554 S
C393 C392 1.367 1_556 S
C393 C395 1.433 1_655 S
C394 C390 1.367 . S
C394 C391 1.462 . S
C394 N398 1.412 1_655 S
C395 H385 0.929 . S
C395 C393 1.433 1_455 S
C395 N398 1.384 1_556 S
C396 H387 0.929 . S
C396 C388 1.378 . S
C396 C391 1.348 1_455 S
C397 H384 0.929 . S
C397 C389 1.432 . S
C397 N399 1.384 . S
N398 C394 1.412 1_455 S
N398 C395 1.384 1_554 S
N399 C391 1.429 . S
N399 C397 1.384 . S
H400 C406 0.942 . S
H401 C410 0.930 . S
H402 C415 0.929 . S
H403 C413 0.929 . S
H404 C408 0.929 . S
H405 C414 0.929 . S
C406 H400 0.942 . S
C406 C407 1.369 . S
C406 C414 1.367 1_455 S
C407 C406 1.369 . S
C407 C415 1.433 1_455 S
C408 H404 0.929 . S
C408 C410 1.378 . S
C408 C412 1.350 . S
C409 C412 1.463 . S
C409 C414 1.350 . S
C409 N417 1.427 . S
C410 H401 0.930 . S
C410 C408 1.378 . S
C410 C411 1.367 . S
C411 C410 1.367 . S
C411 C413 1.433 . S
C412 C408 1.350 . S
C412 C409 1.463 . S
C412 N416 1.427 . S
C413 H403 0.929 . S
C413 C411 1.433 . S
C413 N416 1.384 . S
C414 H405 0.929 . S
C414 C406 1.367 1_655 S
C414 C409 1.350 . S
C415 H402 0.929 . S
C415 C407 1.433 1_655 S
C415 N417 1.384 . S
N416 C412 1.427 . S
N416 C413 1.384 . S
N417 C409 1.427 . S
N417 C415 1.384 . S
H418 C424 0.930 . S
H419 C428 0.930 . S
H420 C433 0.929 . S
H421 C431 0.929 . S
H422 C426 0.929 . S
H423 C432 0.929 . S
C424 H418 0.930 . S
C424 C425 1.367 1_565 S
C424 C432 1.378 . S
C425 C424 1.367 1_545 S
C425 C433 1.433 . S
C426 H422 0.929 . S
C426 C428 1.378 . S
C426 C430 1.350 . S
C427 C430 1.463 . S
C427 C432 1.350 . S
C427 N435 1.427 . S
C428 H419 0.930 . S
C428 C426 1.378 . S
C428 C429 1.367 . S
C429 C428 1.367 . S
C429 C431 1.433 . S
C430 C426 1.350 . S
C430 C427 1.463 . S
C430 N434 1.427 . S
C431 H421 0.929 . S
C431 C429 1.433 . S
C431 N434 1.384 . S
C432 H423 0.929 . S
C432 C424 1.378 . S
C432 C427 1.350 . S
C433 H420 0.929 . S
C433 C425 1.433 . S
C433 N435 1.384 1_545 S
N434 C430 1.427 . S
N434 C431 1.384 . S
N435 C427 1.427 . S
N435 C433 1.384 1_565 S
H436 C442 0.930 . S
H437 C446 0.930 . S
H438 C451 0.929 . S
H439 C449 0.929 . S
H440 C444 0.929 . S
H441 C450 0.929 . S
C442 H436 0.930 . S
C442 C443 1.367 . S
C442 C450 1.378 . S
C443 C442 1.367 . S
C443 C451 1.433 . S
C444 H440 0.929 . S
C444 C446 1.378 . S
C444 C448 1.350 . S
C445 C448 1.463 . S
C445 C450 1.350 . S
C445 N453 1.427 . S
C446 H437 0.930 . S
C446 C444 1.378 . S
C446 C447 1.367 . S
C447 C446 1.367 . S
C447 C449 1.433 . S
C448 C444 1.350 . S
C448 C445 1.463 . S
C448 N452 1.427 . S
C449 H439 0.929 . S
C449 C447 1.433 . S
C449 N452 1.384 . S
C450 H441 0.929 . S
C450 C442 1.378 . S
C450 C445 1.350 . S
C451 H438 0.929 . S
C451 C443 1.433 . S
C451 N453 1.384 . S
N452 C448 1.427 . S
N452 C449 1.384 . S
N453 C445 1.427 . S
N453 C451 1.384 . S
H454 C460 0.930 . S
H455 C464 0.930 . S
H456 C469 0.929 . S
H457 C467 0.929 . S
H458 C462 0.929 . S
H459 C468 0.929 . S
C460 H454 0.930 . S
C460 C461 1.367 . S
C460 C468 1.378 . S
C461 C460 1.367 . S
C461 C469 1.433 . S
C462 H458 0.929 . S
C462 C464 1.378 . S
C462 C466 1.350 . S
C463 C466 1.463 . S
C463 C468 1.350 . S
C463 N471 1.427 . S
C464 H455 0.930 . S
C464 C462 1.378 . S
C464 C465 1.367 . S
C465 C464 1.367 . S
C465 C467 1.433 . S
C466 C462 1.350 . S
C466 C463 1.463 . S
C466 N470 1.427 . S
C467 H457 0.929 . S
C467 C465 1.433 . S
C467 N470 1.384 . S
C468 H459 0.929 . S
C468 C460 1.378 . S
C468 C463 1.350 . S
C469 H456 0.929 . S
C469 C461 1.433 . S
C469 N471 1.384 . S
N470 C466 1.427 . S
N470 C467 1.384 . S
N471 C463 1.427 . S
N471 C469 1.384 . S
H472 C478 0.930 . S
H473 C482 0.930 . S
H474 C487 0.929 . S
H475 C485 0.929 1_655 S
H476 C480 0.929 . S
H477 C486 0.929 . S
C478 H472 0.930 . S
C478 C479 1.367 . S
C478 C486 1.378 . S
C479 C478 1.367 . S
C479 C487 1.433 1_655 S
C480 H476 0.929 . S
C480 C482 1.378 . S
C480 C484 1.350 . S
C481 C484 1.463 . S
C481 C486 1.350 1_455 S
C481 N489 1.427 . S
C482 H473 0.930 . S
C482 C480 1.378 . S
C482 C483 1.367 . S
C483 C482 1.367 . S
C483 C485 1.433 . S
C484 C480 1.350 . S
C484 C481 1.463 . S
C484 N488 1.427 . S
C485 H475 0.929 1_455 S
C485 C483 1.433 . S
C485 N488 1.384 . S
C486 H477 0.929 . S
C486 C478 1.378 . S
C486 C481 1.350 1_655 S
C487 H474 0.929 . S
C487 C479 1.433 1_455 S
C487 N489 1.384 . S
N488 C484 1.427 . S
N488 C485 1.384 . S
N489 C481 1.427 . S
N489 C487 1.384 . S
H490 C496 0.930 . S
H491 C500 0.930 1_565 S
H492 C505 0.929 . S
H493 C503 0.929 . S
H494 C498 0.971 . S
H495 C504 0.929 . S
C496 H490 0.930 . S
C496 C497 1.331 1_545 S
C496 C504 1.378 . S
C497 C496 1.331 1_565 S
C497 C505 1.461 . S
C498 H494 0.971 . S
C498 C500 1.368 1_565 S
C498 C502 1.319 1_565 S
C499 C502 1.463 . S
C499 C504 1.350 . S
C499 N507 1.427 1_545 S
C500 H491 0.930 1_545 S
C500 C498 1.368 1_545 S
C500 C501 1.367 . S
C501 C500 1.367 . S
C501 C503 1.433 . S
C502 C498 1.319 1_545 S
C502 C499 1.463 . S
C502 N506 1.427 . S
C503 H493 0.929 . S
C503 C501 1.433 . S
C503 N506 1.384 . S
C504 H495 0.929 . S
C504 C496 1.378 . S
C504 C499 1.350 . S
C505 H492 0.929 . S
C505 C497 1.461 . S
C505 N507 1.384 . S
N506 C502 1.427 . S
N506 C503 1.384 . S
N507 C499 1.427 1_565 S
N507 C505 1.384 . S
H508 C514 0.930 . S
H509 C518 0.930 . S
H510 C523 0.929 . S
H511 C521 0.929 . S
H512 C516 0.929 . S
H513 C522 0.929 . S
C514 H508 0.930 . S
C514 C515 1.367 . S
C514 C522 1.378 . S
C515 C514 1.367 . S
C515 C523 1.433 . S
C516 H512 0.929 . S
C516 C518 1.378 . S
C516 C520 1.350 . S
C517 C520 1.463 . S
C517 C522 1.350 . S
C517 N525 1.427 . S
C518 H509 0.930 . S
C518 C516 1.378 . S
C518 C519 1.367 . S
C519 C518 1.367 . S
C519 C521 1.433 . S
C520 C516 1.350 . S
C520 C517 1.463 . S
C520 N524 1.427 . S
C521 H511 0.929 . S
C521 C519 1.433 . S
C521 N524 1.384 . S
C522 H513 0.929 . S
C522 C514 1.378 . S
C522 C517 1.350 . S
C523 H510 0.929 . S
C523 C515 1.433 . S
C523 N525 1.384 . S
N524 C520 1.427 . S
N524 C521 1.384 . S
N525 C517 1.427 . S
N525 C523 1.384 . S
H526 C532 0.930 . S
H527 C536 0.930 . S
H528 C541 0.929 . S
H529 C539 0.929 . S
H530 C534 0.929 . S
H531 C540 0.929 . S
C532 H526 0.930 . S
C532 C533 1.367 . S
C532 C540 1.378 . S
C533 C532 1.367 . S
C533 C541 1.433 . S
C534 H530 0.929 . S
C534 C536 1.378 . S
C534 C538 1.350 . S
C535 C538 1.463 . S
C535 C540 1.350 . S
C535 N543 1.427 . S
C536 H527 0.930 . S
C536 C534 1.378 . S
C536 C537 1.367 . S
C537 C536 1.367 . S
C537 C539 1.433 . S
C538 C534 1.350 . S
C538 C535 1.463 . S
C538 N542 1.427 . S
C539 H529 0.929 . S
C539 C537 1.433 . S
C539 N542 1.384 . S
C540 H531 0.929 . S
C540 C532 1.378 . S
C540 C535 1.350 . S
C541 H528 0.929 . S
C541 C533 1.433 . S
C541 N543 1.384 . S
N542 C538 1.427 . S
N542 C539 1.384 . S
N543 C535 1.427 . S
N543 C541 1.384 . S
H544 C550 0.930 . S
H545 C554 0.930 . S
H546 C559 0.929 1_554 S
H547 C557 0.929 . S
H548 C552 0.929 . S
H549 C558 0.929 . S
C550 H544 0.930 . S
C550 C551 1.367 . S
C550 C558 1.378 . S
C551 C550 1.367 . S
C551 C559 1.433 1_455 S
C552 H548 0.929 . S
C552 C554 1.378 . S
C552 C556 1.350 1_655 S
C553 C556 1.463 . S
C553 C558 1.350 . S
C553 N561 1.427 1_455 S
C554 H545 0.930 . S
C554 C552 1.378 . S
C554 C555 1.367 1_655 S
C555 C554 1.367 1_455 S
C555 C557 1.433 . S
C556 C552 1.350 1_455 S
C556 C553 1.463 . S
C556 N560 1.427 . S
C557 H547 0.929 . S
C557 C555 1.433 . S
C557 N560 1.384 . S
C558 H549 0.929 . S
C558 C550 1.378 . S
C558 C553 1.350 . S
C559 H546 0.929 1_556 S
C559 C551 1.433 1_655 S
C559 N561 1.384 . S
N560 C556 1.427 . S
N560 C557 1.384 . S
N561 C553 1.427 1_655 S
N561 C559 1.384 . S
H562 C568 0.930 1_554 S
H563 C572 0.930 . S
H564 C577 0.930 . S
H565 C575 0.929 . S
H566 C570 0.929 . S
H567 C576 0.929 1_554 S
C568 H562 0.930 1_556 S
C568 C569 1.367 . S
C568 C576 1.378 . S
C569 C568 1.367 . S
C569 C577 1.433 1_545 S
C570 H566 0.929 . S
C570 C572 1.378 . S
C570 C574 1.350 . S
C571 C574 1.463 . S
C571 C576 1.350 . S
C571 N579 1.427 . S
C572 H563 0.930 . S
C572 C570 1.378 . S
C572 C573 1.367 . S
C573 C572 1.367 . S
C573 C575 1.433 . S
C574 C570 1.350 . S
C574 C571 1.463 . S
C574 N578 1.427 . S
C575 H565 0.929 . S
C575 C573 1.433 . S
C575 N578 1.384 . S
C576 H567 0.929 1_556 S
C576 C568 1.378 . S
C576 C571 1.350 . S
C577 H564 0.930 . S
C577 C569 1.433 1_565 S
C577 N579 1.383 1_565 S
N578 C574 1.427 . S
N578 C575 1.384 . S
N579 C571 1.427 . S
N579 C577 1.383 1_545 S
H580 C586 0.930 . S
H581 C590 0.930 . S
H582 C595 0.929 1_554 S
H583 C593 0.929 . S
H584 C588 0.929 . S
H585 C594 0.929 . S
C586 H580 0.930 . S
C586 C587 1.367 . S
C586 C594 1.378 . S
C587 C586 1.367 . S
C587 C595 1.433 . S
C588 H584 0.929 . S
C588 C590 1.378 . S
C588 C592 1.350 . S
C589 C592 1.463 . S
C589 C594 1.350 . S
C589 N597 1.427 . S
C590 H581 0.930 . S
C590 C588 1.378 . S
C590 C591 1.367 . S
C591 C590 1.367 . S
C591 C593 1.433 . S
C592 C588 1.350 . S
C592 C589 1.463 . S
C592 N596 1.427 . S
C593 H583 0.929 . S
C593 C591 1.433 . S
C593 N596 1.384 . S
C594 H585 0.929 . S
C594 C586 1.378 . S
C594 C589 1.350 . S
C595 H582 0.929 1_556 S
C595 C587 1.433 . S
C595 N597 1.384 . S
N596 C592 1.427 . S
N596 C593 1.384 . S
N597 C589 1.427 . S
N597 C595 1.384 . S
H598 C604 0.930 . S
H599 C608 0.930 . S
H600 C613 0.929 . S
H601 C611 0.929 . S
H602 C606 0.929 . S
H603 C612 0.929 . S
C604 H598 0.930 . S
C604 C605 1.367 . S
C604 C612 1.378 . S
C605 C604 1.367 . S
C605 C613 1.433 . S
C606 H602 0.929 . S
C606 C608 1.378 . S
C606 C610 1.350 . S
C607 C610 1.463 . S
C607 C612 1.350 . S
C607 N615 1.427 . S
C608 H599 0.930 . S
C608 C606 1.378 . S
C608 C609 1.367 . S
C609 C608 1.367 . S
C609 C611 1.433 . S
C610 C606 1.350 . S
C610 C607 1.463 . S
C610 N614 1.427 . S
C611 H601 0.929 . S
C611 C609 1.433 . S
C611 N614 1.384 . S
C612 H603 0.929 . S
C612 C604 1.378 . S
C612 C607 1.350 . S
C613 H600 0.929 . S
C613 C605 1.433 . S
C613 N615 1.384 . S
N614 C610 1.427 . S
N614 C611 1.384 . S
N615 C607 1.427 . S
N615 C613 1.384 . S
H616 C622 0.930 . S
H617 C626 0.930 . S
H618 C631 0.929 . S
H619 C629 0.929 . S
H620 C624 0.929 . S
H621 C630 0.929 . S
C622 H616 0.930 . S
C622 C623 1.367 1_455 S
C622 C630 1.378 . S
C623 C622 1.367 1_655 S
C623 C631 1.433 . S
C624 H620 0.929 . S
C624 C626 1.378 . S
C624 C628 1.350 . S
C625 C628 1.463 . S
C625 C630 1.350 1_655 S
C625 N633 1.427 . S
C626 H617 0.930 . S
C626 C624 1.378 . S
C626 C627 1.367 . S
C627 C626 1.367 . S
C627 C629 1.433 1_655 S
C628 C624 1.350 . S
C628 C625 1.463 . S
C628 N632 1.427 1_655 S
C629 H619 0.929 . S
C629 C627 1.433 1_455 S
C629 N632 1.384 . S
C630 H621 0.929 . S
C630 C622 1.378 . S
C630 C625 1.350 1_455 S
C631 H618 0.929 . S
C631 C623 1.433 . S
C631 N633 1.384 . S
N632 C628 1.427 1_455 S
N632 C629 1.384 . S
N633 C625 1.427 . S
N633 C631 1.384 . S
H634 C640 0.930 . S
H635 C644 0.930 . S
H636 C649 0.929 . S
H637 C647 0.929 . S
H638 C642 0.929 . S
H639 C648 0.929 . S
C640 H634 0.930 . S
C640 C641 1.329 1_545 S
C640 C648 1.378 . S
C641 C640 1.329 1_565 S
C641 C649 1.475 . S
C642 H638 0.929 . S
C642 C644 1.378 . S
C642 C646 1.350 . S
C643 C646 1.463 . S
C643 C648 1.350 1_565 S
C643 N651 1.427 . S
C644 H635 0.930 . S
C644 C642 1.378 . S
C644 C645 1.367 . S
C645 C644 1.367 . S
C645 C647 1.433 1_565 S
C646 C642 1.350 . S
C646 C643 1.463 . S
C646 N650 1.427 1_565 S
C647 H637 0.929 . S
C647 C645 1.433 1_545 S
C647 N650 1.384 . S
C648 H639 0.929 . S
C648 C640 1.378 . S
C648 C643 1.350 1_545 S
C649 H636 0.929 . S
C649 C641 1.475 . S
C649 N651 1.384 . S
N650 C646 1.427 1_545 S
N650 C647 1.384 . S
N651 C643 1.427 . S
N651 C649 1.384 . S
H652 C658 0.930 . S
H653 C662 0.930 . S
H654 C667 0.929 . S
H655 C665 0.929 . S
H656 C660 0.929 . S
H657 C666 0.929 . S
C658 H652 0.930 . S
C658 C659 1.367 . S
C658 C666 1.378 . S
C659 C658 1.367 . S
C659 C667 1.433 . S
C660 H656 0.929 . S
C660 C662 1.378 . S
C660 C664 1.350 . S
C661 C664 1.463 . S
C661 C666 1.350 . S
C661 N669 1.427 . S
C662 H653 0.930 . S
C662 C660 1.378 . S
C662 C663 1.367 . S
C663 C662 1.367 . S
C663 C665 1.433 . S
C664 C660 1.350 . S
C664 C661 1.463 . S
C664 N668 1.427 . S
C665 H655 0.929 . S
C665 C663 1.433 . S
C665 N668 1.384 . S
C666 H657 0.929 . S
C666 C658 1.378 . S
C666 C661 1.350 . S
C667 H654 0.929 . S
C667 C659 1.433 . S
C667 N669 1.384 . S
N668 C664 1.427 . S
N668 C665 1.384 . S
N669 C661 1.427 . S
N669 C667 1.384 . S
H670 C676 0.930 . S
H671 C680 0.930 . S
H672 C685 0.929 . S
H673 C683 0.929 . S
H674 C678 0.929 . S
H675 C684 0.929 . S
C676 H670 0.930 . S
C676 C677 1.367 . S
C676 C684 1.378 . S
C677 C676 1.367 . S
C677 C685 1.433 . S
C678 H674 0.929 . S
C678 C680 1.378 . S
C678 C682 1.350 . S
C679 C682 1.463 . S
C679 C684 1.350 . S
C679 N687 1.427 . S
C680 H671 0.930 . S
C680 C678 1.378 . S
C680 C681 1.367 . S
C681 C680 1.367 . S
C681 C683 1.433 . S
C682 C678 1.350 . S
C682 C679 1.463 . S
C682 N686 1.427 . S
C683 H673 0.929 . S
C683 C681 1.433 . S
C683 N686 1.384 . S
C684 H675 0.929 . S
C684 C676 1.378 . S
C684 C679 1.350 . S
C685 H672 0.929 . S
C685 C677 1.433 . S
C685 N687 1.384 . S
N686 C682 1.427 . S
N686 C683 1.384 . S
N687 C679 1.427 . S
N687 C685 1.384 . S
C263 C76 1.821 . S
C267 C98 1.982 1_545 S
C285 C138 1.996 . S
C281 C88 1.841 . S
C303 C178 2.005 . S
C299 C52 1.842 . S
C321 C218 1.990 1_455 S
C317 C64 1.840 1_455 S
C339 C111 1.987 1_565 S
C335 C28 1.831 1_545 S
C353 C40 1.829 . S
C357 C151 1.998 . S
C371 C4 1.849 . S
C375 C191 2.003 . S
C389 C16 1.824 . S
C393 C231 1.995 1_655 S
C411 C122 0.460 . S
C407 C69 0.468 . S
C429 C162 0.467 . S
C425 C81 0.478 . S
C447 C202 0.483 . S
C443 C93 0.489 . S
C461 C57 0.470 . S
C465 C242 0.461 . S
C479 C21 0.505 1_655 S
C483 C105 0.467 . S
C501 C145 0.454 . S
C497 C33 0.487 1_565 S
C519 C185 0.467 . S
C515 C45 0.488 . S
C533 C9 0.502 . S
C537 C225 0.456 . S
C551 C66 2.070 . S
C555 C99 2.311 . S
C569 C78 2.027 . S
C573 C139 2.287 . S
C591 C179 2.275 . S
C587 C90 2.028 . S
C609 C219 2.303 . S
C605 C54 2.049 . S
C623 C18 2.072 1_655 S
C627 C118 2.325 . S
C645 C158 2.291 . S
C641 C30 2.041 1_565 S
C663 C198 2.276 . S
C659 C42 2.035 . S
C677 C6 2.056 . S
C681 C238 2.306 . S
