# Generated by pormake.
# Topology ctn, (3,4)-cn, num edge types: 1
# Building blocks:
#     Node 0, Type 0, BuildingBlock: VETTIZ_charged_linker_0, # of connection points: 3
#     Node 1, Type 0, BuildingBlock: VETTIZ_charged_linker_0, # of connection points: 3
#     Node 2, Type 0, BuildingBlock: VETTIZ_charged_linker_0, # of connection points: 3
#     Node 3, Type 0, BuildingBlock: VETTIZ_charged_linker_0, # of connection points: 3
#     Node 4, Type 0, BuildingBlock: VETTIZ_charged_linker_0, # of connection points: 3
#     Node 5, Type 0, BuildingBlock: VETTIZ_charged_linker_0, # of connection points: 3
#     Node 6, Type 0, BuildingBlock: VETTIZ_charged_linker_0, # of connection points: 3
#     Node 7, Type 0, BuildingBlock: VETTIZ_charged_linker_0, # of connection points: 3
#     Node 8, Type 0, BuildingBlock: VETTIZ_charged_linker_0, # of connection points: 3
#     Node 9, Type 0, BuildingBlock: VETTIZ_charged_linker_0, # of connection points: 3
#     Node 10, Type 0, BuildingBlock: VETTIZ_charged_linker_0, # of connection points: 3
#     Node 11, Type 0, BuildingBlock: VETTIZ_charged_linker_0, # of connection points: 3
#     Node 12, Type 0, BuildingBlock: VETTIZ_charged_linker_0, # of connection points: 3
#     Node 13, Type 0, BuildingBlock: VETTIZ_charged_linker_0, # of connection points: 3
#     Node 14, Type 0, BuildingBlock: VETTIZ_charged_linker_0, # of connection points: 3
#     Node 15, Type 0, BuildingBlock: VETTIZ_charged_linker_0, # of connection points: 3
#     Node 16, Type 1, BuildingBlock: NAHDIM_clean_sbu_0, # of connection points: 4
#     Node 17, Type 1, BuildingBlock: NAHDIM_clean_sbu_0, # of connection points: 4
#     Node 18, Type 1, BuildingBlock: NAHDIM_clean_sbu_0, # of connection points: 4
#     Node 19, Type 1, BuildingBlock: NAHDIM_clean_sbu_0, # of connection points: 4
#     Node 20, Type 1, BuildingBlock: NAHDIM_clean_sbu_0, # of connection points: 4
#     Node 21, Type 1, BuildingBlock: NAHDIM_clean_sbu_0, # of connection points: 4
#     Node 22, Type 1, BuildingBlock: NAHDIM_clean_sbu_0, # of connection points: 4
#     Node 23, Type 1, BuildingBlock: NAHDIM_clean_sbu_0, # of connection points: 4
#     Node 24, Type 1, BuildingBlock: NAHDIM_clean_sbu_0, # of connection points: 4
#     Node 25, Type 1, BuildingBlock: NAHDIM_clean_sbu_0, # of connection points: 4
#     Node 26, Type 1, BuildingBlock: NAHDIM_clean_sbu_0, # of connection points: 4
#     Node 27, Type 1, BuildingBlock: NAHDIM_clean_sbu_0, # of connection points: 4
#     Edge 28, Type (0, 1), BuildingBlock: CIFDUS_clean_linker_0, # of connection points: 2
#     Edge 29, Type (0, 1), BuildingBlock: CIFDUS_clean_linker_0, # of connection points: 2
#     Edge 30, Type (0, 1), BuildingBlock: CIFDUS_clean_linker_0, # of connection points: 2
#     Edge 31, Type (0, 1), BuildingBlock: CIFDUS_clean_linker_0, # of connection points: 2
#     Edge 32, Type (0, 1), BuildingBlock: CIFDUS_clean_linker_0, # of connection points: 2
#     Edge 33, Type (0, 1), BuildingBlock: CIFDUS_clean_linker_0, # of connection points: 2
#     Edge 34, Type (0, 1), BuildingBlock: CIFDUS_clean_linker_0, # of connection points: 2
#     Edge 35, Type (0, 1), BuildingBlock: CIFDUS_clean_linker_0, # of connection points: 2
#     Edge 36, Type (0, 1), BuildingBlock: CIFDUS_clean_linker_0, # of connection points: 2
#     Edge 37, Type (0, 1), BuildingBlock: CIFDUS_clean_linker_0, # of connection points: 2
#     Edge 38, Type (0, 1), BuildingBlock: CIFDUS_clean_linker_0, # of connection points: 2
#     Edge 39, Type (0, 1), BuildingBlock: CIFDUS_clean_linker_0, # of connection points: 2
#     Edge 40, Type (0, 1), BuildingBlock: CIFDUS_clean_linker_0, # of connection points: 2
#     Edge 41, Type (0, 1), BuildingBlock: CIFDUS_clean_linker_0, # of connection points: 2
#     Edge 42, Type (0, 1), BuildingBlock: CIFDUS_clean_linker_0, # of connection points: 2
#     Edge 43, Type (0, 1), BuildingBlock: CIFDUS_clean_linker_0, # of connection points: 2
#     Edge 44, Type (0, 1), BuildingBlock: CIFDUS_clean_linker_0, # of connection points: 2
#     Edge 45, Type (0, 1), BuildingBlock: CIFDUS_clean_linker_0, # of connection points: 2
#     Edge 46, Type (0, 1), BuildingBlock: CIFDUS_clean_linker_0, # of connection points: 2
#     Edge 47, Type (0, 1), BuildingBlock: CIFDUS_clean_linker_0, # of connection points: 2
#     Edge 48, Type (0, 1), BuildingBlock: CIFDUS_clean_linker_0, # of connection points: 2
#     Edge 49, Type (0, 1), BuildingBlock: CIFDUS_clean_linker_0, # of connection points: 2
#     Edge 50, Type (0, 1), BuildingBlock: CIFDUS_clean_linker_0, # of connection points: 2
#     Edge 51, Type (0, 1), BuildingBlock: CIFDUS_clean_linker_0, # of connection points: 2
#     Edge 52, Type (0, 1), BuildingBlock: CIFDUS_clean_linker_0, # of connection points: 2
#     Edge 53, Type (0, 1), BuildingBlock: CIFDUS_clean_linker_0, # of connection points: 2
#     Edge 54, Type (0, 1), BuildingBlock: CIFDUS_clean_linker_0, # of connection points: 2
#     Edge 55, Type (0, 1), BuildingBlock: CIFDUS_clean_linker_0, # of connection points: 2
#     Edge 56, Type (0, 1), BuildingBlock: CIFDUS_clean_linker_0, # of connection points: 2
#     Edge 57, Type (0, 1), BuildingBlock: CIFDUS_clean_linker_0, # of connection points: 2
#     Edge 58, Type (0, 1), BuildingBlock: CIFDUS_clean_linker_0, # of connection points: 2
#     Edge 59, Type (0, 1), BuildingBlock: CIFDUS_clean_linker_0, # of connection points: 2
#     Edge 60, Type (0, 1), BuildingBlock: CIFDUS_clean_linker_0, # of connection points: 2
#     Edge 61, Type (0, 1), BuildingBlock: CIFDUS_clean_linker_0, # of connection points: 2
#     Edge 62, Type (0, 1), BuildingBlock: CIFDUS_clean_linker_0, # of connection points: 2
#     Edge 63, Type (0, 1), BuildingBlock: CIFDUS_clean_linker_0, # of connection points: 2
#     Edge 64, Type (0, 1), BuildingBlock: CIFDUS_clean_linker_0, # of connection points: 2
#     Edge 65, Type (0, 1), BuildingBlock: CIFDUS_clean_linker_0, # of connection points: 2
#     Edge 66, Type (0, 1), BuildingBlock: CIFDUS_clean_linker_0, # of connection points: 2
#     Edge 67, Type (0, 1), BuildingBlock: CIFDUS_clean_linker_0, # of connection points: 2
#     Edge 68, Type (0, 1), BuildingBlock: CIFDUS_clean_linker_0, # of connection points: 2
#     Edge 69, Type (0, 1), BuildingBlock: CIFDUS_clean_linker_0, # of connection points: 2
#     Edge 70, Type (0, 1), BuildingBlock: CIFDUS_clean_linker_0, # of connection points: 2
#     Edge 71, Type (0, 1), BuildingBlock: CIFDUS_clean_linker_0, # of connection points: 2
#     Edge 72, Type (0, 1), BuildingBlock: CIFDUS_clean_linker_0, # of connection points: 2
#     Edge 73, Type (0, 1), BuildingBlock: CIFDUS_clean_linker_0, # of connection points: 2
#     Edge 74, Type (0, 1), BuildingBlock: CIFDUS_clean_linker_0, # of connection points: 2
#     Edge 75, Type (0, 1), BuildingBlock: CIFDUS_clean_linker_0, # of connection points: 2
# Relax obj value: 0.002
# Max RMSD: 0.033
# Mean RMSD: 0.017
data_MOF--net-ctn--node1-NAHDIM_clean_sbu_0--node2-VETTIZ_charged_linker_0--edge1-CIFDUS_clean_linker_0
_symmetry_space_group_name_H-M    P1
_symmetry_Int_Tables_number       1
_symmetry_cell_setting            triclinic
loop_
_symmetry_equiv_pos_as_xyz
'x, y, z'
_cell_length_a     60.078825
_cell_length_b     60.414747
_cell_length_c     59.844732
_cell_angle_alpha  91.30605
_cell_angle_beta   90.009343
_cell_angle_gamma 92.128931
loop_
_atom_site_label
_atom_site_type_symbol
_atom_site_fract_x
_atom_site_fract_y
_atom_site_fract_z
_atom_type_partial_charge
C0 C 0.04355 0.10457 0.98133 0.0
C1 C 0.02612 0.11944 0.98247 0.0
C2 C 0.01076 0.11799 1.00021 0.0
C3 C 0.03037 0.08739 0.01542 0.0
C4 C 0.04523 0.0886 0.99782 0.0
C5 C 0.06226 0.07101 0.99876 0.0
H6 H 0.10535 0.98454 0.05193 0.0
C7 C 0.03674 0.06899 0.02967 0.0
C8 C 0.05525 0.05915 0.01989 0.0
H9 H 0.12721 0.01419 0.99019 0.0
H10 H 0.09777 0.04002 0.99271 0.0
H11 H 0.09541 0.03102 0.07805 0.0
H12 H 0.05256 0.98472 0.04077 0.0
H13 H 0.03793 0.99361 0.06456 0.0
H14 H 0.06309 0.9786 0.06793 0.0
H15 H 0.08826 0.00375 0.08774 0.0
H16 H 0.07059 0.02669 0.09318 0.0
C17 C 0.08556 0.0827 0.00123 0.0
C18 C 0.05942 0.05581 0.97763 0.0
C19 C 0.99485 0.05534 0.10192 0.0
C20 C 0.99663 0.03968 0.11874 0.0
C21 C 0.01245 0.02312 0.11636 0.0
C22 C 0.02666 0.02255 0.09773 0.0
C23 C 0.02495 0.03863 0.08123 0.0
C24 C 0.009 0.05445 0.08339 0.0
C25 C 0.00896 0.06979 0.06399 0.0
C26 C 0.0279 0.06097 0.05006 0.0
C27 C 0.03734 0.0428 0.06025 0.0
C28 C 0.01428 0.09363 0.07305 0.0
C29 C 0.98619 0.06672 0.05183 0.0
C30 C 0.10365 0.99648 0.03888 0.0
C31 C 0.11878 0.99738 0.02091 0.0
C32 C 0.11606 0.01335 0.0044 0.0
C33 C 0.09885 0.0283 0.00582 0.0
C34 C 0.08406 0.0274 0.02397 0.0
C35 C 0.0865 0.01164 0.04009 0.0
C36 C 0.06919 0.01333 0.05821 0.0
C37 C 0.05599 0.03264 0.05024 0.0
C38 C 0.06485 0.04081 0.03019 0.0
C39 C 0.08133 0.01885 0.08058 0.0
C40 C 0.05494 0.99143 0.05811 0.0
H41 H 1.00069 0.10198 0.02984 0.0
H42 H 0.05541 0.10512 0.9677 0.0
H43 H 0.04171 0.05452 0.97215 0.0
H44 H 0.06386 0.03853 0.98057 0.0
H45 H 0.06943 0.06234 0.96347 0.0
H46 H 0.08478 0.09763 0.0124 0.0
H47 H 0.09201 0.08819 0.98478 0.0
H48 H 0.09794 0.07228 0.00905 0.0
H49 H 0.98255 0.06799 0.10308 0.0
H50 H 0.01412 0.01089 0.12915 0.0
H51 H 0.03853 0.00971 0.09696 0.0
H52 H 0.02764 0.09365 0.08594 0.0
H53 H 0.99937 0.10083 0.08093 0.0
H54 H 0.02064 0.10494 0.06013 0.0
H55 H 0.97874 0.04978 0.05411 0.0
H56 H 0.98767 0.06829 0.03351 0.0
H57 H 0.97406 0.07872 0.05831 0.0
H58 H 0.99728 0.12938 0.00147 0.0
C59 C 0.01282 0.10211 0.01669 0.0
C60 C 0.23949 0.65025 0.23239 0.0
C61 C 0.2211 0.64322 0.2191 0.0
C62 C 0.21619 0.65518 0.19987 0.0
C63 C 0.24757 0.68061 0.20736 0.0
C64 C 0.25241 0.66896 0.22626 0.0
C65 C 0.27239 0.6789 0.23857 0.0
H66 H 0.35435 0.75912 0.24591 0.0
C67 C 0.26414 0.69916 0.2056 0.0
C68 C 0.27874 0.69833 0.22387 0.0
H69 H 0.34093 0.70568 0.29141 0.0
H70 H 0.31015 0.69217 0.26826 0.0
H71 H 0.30346 0.77134 0.23889 0.0
H72 H 0.34738 0.73004 0.20117 0.0
H73 H 0.33174 0.74428 0.18174 0.0
H74 H 0.34987 0.75972 0.20097 0.0
H75 H 0.32605 0.78247 0.22248 0.0
H76 H 0.29893 0.77631 0.21047 0.0
C77 C 0.26474 0.68664 0.2621 0.0
C78 C 0.29065 0.66147 0.2387 0.0
C79 C 0.26038 0.75107 0.14017 0.0
C80 C 0.27341 0.76972 0.13386 0.0
C81 C 0.29155 0.77691 0.14749 0.0
C82 C 0.29665 0.76572 0.16699 0.0
C83 C 0.28349 0.74708 0.17303 0.0
C84 C 0.26571 0.74007 0.1597 0.0
C85 C 0.25357 0.71996 0.16869 0.0
C86 C 0.26706 0.716 0.18958 0.0
C87 C 0.28454 0.73193 0.19204 0.0
C88 C 0.22939 0.72629 0.17433 0.0
C89 C 0.25538 0.70079 0.1512 0.0
C90 C 0.34467 0.74462 0.25102 0.0
C91 C 0.35005 0.73353 0.2706 0.0
C92 C 0.33726 0.71444 0.27633 0.0
C93 C 0.3193 0.70669 0.26293 0.0
C94 C 0.31403 0.71812 0.24353 0.0
C95 C 0.32673 0.73668 0.23783 0.0
C96 C 0.3189 0.74669 0.2166 0.0
C97 C 0.29926 0.73122 0.21055 0.0
C98 C 0.29644 0.7145 0.22636 0.0
C99 C 0.31155 0.77052 0.22218 0.0
C100 C 0.3379 0.74534 0.19914 0.0
H101 H 0.22466 0.68205 0.17908 0.0
H102 H 0.2436 0.64154 0.24738 0.0
H103 H 0.29083 0.65196 0.22256 0.0
H104 H 0.30762 0.66894 0.24046 0.0
H105 H 0.28769 0.64944 0.25224 0.0
H106 H 0.24784 0.69352 0.26137 0.0
H107 H 0.264 0.67264 0.27382 0.0
H108 H 0.27547 0.70019 0.26935 0.0
H109 H 0.24618 0.74524 0.13024 0.0
H110 H 0.30204 0.79105 0.14289 0.0
H111 H 0.3107 0.77198 0.17657 0.0
H112 H 0.22884 0.74388 0.18019 0.0
H113 H 0.2184 0.72424 0.15945 0.0
H114 H 0.22208 0.7167 0.18819 0.0
H115 H 0.27188 0.70155 0.14274 0.0
H116 H 0.25431 0.68424 0.15868 0.0
H117 H 0.24237 0.70166 0.1381 0.0
H118 H 0.20236 0.64995 0.18914 0.0
C119 C 0.22928 0.67377 0.19395 0.0
C120 C 0.98307 0.41095 0.97622 0.0
C121 C 0.97023 0.40703 0.95672 0.0
C122 C 0.9522 0.42073 0.95269 0.0
C123 C 0.9603 0.44192 0.98677 0.0
C124 C 0.97776 0.42835 0.99098 0.0
C125 C 0.98943 0.4346 0.01262 0.0
H126 H 0.99847 0.50213 0.10448 0.0
C127 C 0.95923 0.45848 0.00526 0.0
C128 C 0.97616 0.45422 0.02056 0.0
H129 H 0.0384 0.4463 0.08663 0.0
H130 H 0.01679 0.43978 0.05305 0.0
H131 H 0.95149 0.47905 0.09073 0.0
H132 H 0.99679 0.52194 0.05443 0.0
H133 H 0.9696 0.53056 0.0497 0.0
H134 H 0.9807 0.53163 0.07771 0.0
H135 H 0.95489 0.50812 0.09729 0.0
H136 H 0.93548 0.49776 0.07619 0.0
C137 C 0.98676 0.41477 0.02851 0.0
C138 C 0.01388 0.44151 0.0072 0.0
C139 C 0.90174 0.51788 0.00268 0.0
C140 C 0.89656 0.53562 0.01714 0.0
C141 C 0.90872 0.53882 0.03719 0.0
C142 C 0.92591 0.52475 0.04259 0.0
C143 C 0.93101 0.50721 0.02783 0.0
C144 C 0.91888 0.50397 0.00833 0.0
C145 C 0.9263 0.48436 0.99476 0.0
C146 C 0.94508 0.47647 0.00917 0.0
C147 C 0.94783 0.48992 0.02849 0.0
C148 C 0.90657 0.46708 0.99314 0.0
C149 C 0.93486 0.49281 0.97194 0.0
C150 C 0.00267 0.4886 0.09325 0.0
C151 C 0.02018 0.47469 0.0983 0.0
C152 C 0.02484 0.45709 0.08333 0.0
C153 C 0.01233 0.45339 0.06374 0.0
C154 C 0.99489 0.46741 0.05895 0.0
C155 C 0.99028 0.48466 0.0736 0.0
C156 C 0.97105 0.49779 0.06581 0.0
C157 C 0.96489 0.48557 0.04409 0.0
C158 C 0.97895 0.46782 0.04014 0.0
C159 C 0.9522 0.49581 0.08338 0.0
C160 C 0.97977 0.52182 0.06179 0.0
H161 H 0.93332 0.44786 0.96341 0.0
H162 H 0.9971 0.40089 0.97986 0.0
H163 H 0.01486 0.45093 0.99145 0.0
H164 H 0.02162 0.45273 0.02002 0.0
H165 H 0.02424 0.42676 0.005 0.0
H166 H 0.9704 0.40584 0.02593 0.0
H167 H 0.99997 0.40266 0.02553 0.0
H168 H 0.98685 0.41989 0.04634 0.0
H169 H 0.89248 0.51472 0.98733 0.0
H170 H 0.90516 0.55244 0.04856 0.0
H171 H 0.93463 0.52813 0.05802 0.0
H172 H 0.89576 0.46796 0.0082 0.0
H173 H 0.89597 0.4699 0.97834 0.0
H174 H 0.91207 0.44981 0.99252 0.0
H175 H 0.94427 0.50894 0.97411 0.0
H176 H 0.94668 0.48168 0.96375 0.0
H177 H 0.9208 0.49536 0.96033 0.0
H178 H 0.94167 0.41786 0.93815 0.0
C179 C 0.94723 0.4381 0.96752 0.0
C180 C 0.64962 0.80264 0.26922 0.0
C181 C 0.6341 0.78478 0.26637 0.0
C182 C 0.63706 0.76939 0.24866 0.0
C183 C 0.67084 0.78926 0.23744 0.0
C184 C 0.66787 0.80448 0.25467 0.0
C185 C 0.68637 0.82199 0.25571 0.0
H186 H 0.7837 0.86398 0.21425 0.0
C187 C 0.69171 0.79551 0.22574 0.0
C188 C 0.70096 0.81464 0.23638 0.0
H189 H 0.74544 0.88905 0.26993 0.0
H190 H 0.718 0.85929 0.26448 0.0
H191 H 0.74158 0.8522 0.18196 0.0
H192 H 0.77837 0.8127 0.22711 0.0
H193 H 0.77247 0.79627 0.20311 0.0
H194 H 0.78958 0.82129 0.20076 0.0
H195 H 0.76964 0.84438 0.17651 0.0
H196 H 0.74611 0.82656 0.16857 0.0
C197 C 0.67615 0.8447 0.25154 0.0
C198 C 0.69835 0.82043 0.27853 0.0
C199 C 0.71662 0.74864 0.1595 0.0
C200 C 0.73545 0.74962 0.14555 0.0
C201 C 0.75174 0.76676 0.14932 0.0
C202 C 0.74926 0.78261 0.16656 0.0
C203 C 0.73032 0.78135 0.18033 0.0
C204 C 0.71447 0.76449 0.17671 0.0
C205 C 0.69566 0.76539 0.19321 0.0
C206 C 0.70271 0.78569 0.20723 0.0
C207 C 0.72298 0.79504 0.19959 0.0
C208 C 0.67387 0.76895 0.1801 0.0
C209 C 0.69549 0.74391 0.20695 0.0
C210 C 0.76953 0.86294 0.22541 0.0
C211 C 0.76677 0.87897 0.24254 0.0
C212 C 0.74786 0.87713 0.25644 0.0
C213 C 0.73197 0.85975 0.25331 0.0
C214 C 0.73493 0.84393 0.2361 0.0
C215 C 0.75347 0.84568 0.22249 0.0
C216 C 0.7538 0.8274 0.20499 0.0
C217 C 0.7324 0.81443 0.21032 0.0
C218 C 0.72142 0.82418 0.22858 0.0
C219 C 0.75289 0.83802 0.18171 0.0
C220 C 0.77467 0.81368 0.20895 0.0
H221 H 0.65655 0.75926 0.22109 0.0
H222 H 0.6479 0.81463 0.28279 0.0
H223 H 0.69908 0.80289 0.28368 0.0
H224 H 0.7159 0.8265 0.27808 0.0
H225 H 0.68948 0.82966 0.29186 0.0
H226 H 0.66246 0.843 0.23902 0.0
H227 H 0.66909 0.8518 0.26716 0.0
H228 H 0.68818 0.85687 0.24442 0.0
H229 H 0.70362 0.73592 0.15701 0.0
H230 H 0.7666 0.76778 0.1391 0.0
H231 H 0.76224 0.79518 0.16855 0.0
H232 H 0.67701 0.78035 0.166 0.0
H233 H 0.66688 0.75305 0.17296 0.0
H234 H 0.66099 0.7769 0.19032 0.0
H235 H 0.7126 0.73772 0.20878 0.0
H236 H 0.68965 0.74646 0.22429 0.0
H237 H 0.6851 0.73049 0.19872 0.0
H238 H 0.62518 0.75566 0.24593 0.0
C239 C 0.65527 0.77155 0.23419 0.0
C240 C 0.03914 0.90127 0.52513 0.0
C241 C 0.02215 0.88486 0.5218 0.0
C242 C 0.0068 0.88726 0.50425 0.0
C243 C 0.02505 0.92212 0.49426 0.0
C244 C 0.0403 0.91959 0.51121 0.0
C245 C 0.05736 0.93842 0.51253 0.0
H246 H 0.09815 0.03623 0.47405 0.0
C247 C 0.03076 0.94319 0.48313 0.0
C248 C 0.04974 0.95275 0.49368 0.0
H249 H 0.12322 0.9974 0.52778 0.0
H250 H 0.09374 0.96999 0.52171 0.0
H251 H 0.04606 0.02923 0.48707 0.0
H252 H 0.08712 0.99438 0.4399 0.0
H253 H 0.06125 0.99852 0.42719 0.0
H254 H 0.07873 0.02218 0.43557 0.0
H255 H 0.05562 0.04141 0.46156 0.0
H256 H 0.0305 0.02418 0.4625 0.0
C257 C 0.05513 0.9502 0.53568 0.0
C258 C 0.08056 0.9289 0.50782 0.0
C259 C 0.9817 0.96889 0.42046 0.0
C260 C 0.98234 0.98773 0.40708 0.0
C261 C 0.99997 0.00362 0.41007 0.0
C262 C 0.01649 1.0009 0.42629 0.0
C263 C 0.01543 0.98207 0.43969 0.0
C264 C 0.99829 0.96641 0.43654 0.0
C265 C 0.99983 0.94735 0.4521 0.0
C266 C 0.02058 0.95423 0.46532 0.0
C267 C 0.02969 0.97459 0.45804 0.0
C268 C 0.97871 0.94676 0.46697 0.0
C269 C 0.00309 0.92595 0.43786 0.0
C270 C 0.09731 0.02173 0.48439 0.0
C271 C 0.11299 0.01908 0.50154 0.0
C272 C 0.11118 1.00006 0.51473 0.0
C273 C 0.09409 0.98404 0.51107 0.0
C274 C 0.0785 0.98694 0.49402 0.0
C275 C 0.0802 0.00553 0.48099 0.0
C276 C 0.06186 0.00577 0.4638 0.0
C277 C 0.04908 0.98419 0.4686 0.0
C278 C 0.05897 0.97329 0.48632 0.0
C279 C 0.04775 0.02625 0.46874 0.0
C280 C 0.07264 0.00534 0.44031 0.0
H281 H 0.99592 0.90659 0.47752 0.0
H282 H 0.05111 0.90014 0.53856 0.0
H283 H 0.07929 0.91466 0.49571 0.0
H284 H 0.09224 0.94092 0.49993 0.0
H285 H 0.08819 0.92292 0.52337 0.0
H286 H 0.03742 0.9502 0.54112 0.0
H287 H 0.06469 0.94175 0.54866 0.0
H288 H 0.0605 0.96788 0.53558 0.0
H289 H 0.96864 0.95617 0.41835 0.0
H290 H 1.0008 0.01836 0.40009 0.0
H291 H 0.02937 0.01362 0.42784 0.0
H292 H 0.97392 0.96385 0.47175 0.0
H293 H 0.96437 0.93853 0.45801 0.0
H294 H 0.98113 0.93844 0.48296 0.0
H295 H 0.01272 0.92959 0.42239 0.0
H296 H 0.01294 0.91368 0.44656 0.0
H297 H 0.98683 0.9181 0.43269 0.0
H298 H 0.99378 0.87472 0.50099 0.0
C299 C 0.00814 0.90575 0.49051 0.0
C300 C 0.27549 0.66482 0.78678 0.0
C301 C 0.27348 0.64863 0.76958 0.0
C302 C 0.25554 0.6493 0.75446 0.0
C303 C 0.24182 0.68169 0.77392 0.0
C304 C 0.25942 0.681 0.78875 0.0
C305 C 0.25835 0.69867 0.80682 0.0
H306 H 0.20526 0.78531 0.85338 0.0
C307 C 0.22774 0.70017 0.78096 0.0
C308 C 0.23727 0.71009 0.80034 0.0
H309 H 0.2653 0.75556 0.87629 0.0
H310 H 0.26337 0.72934 0.84534 0.0
H311 H 0.17875 0.73986 0.84228 0.0
H312 H 0.21773 0.78411 0.80125 0.0
H313 H 0.19398 0.7756 0.78576 0.0
H314 H 0.19076 0.7907 0.81182 0.0
H315 H 0.16852 0.76571 0.83326 0.0
H316 H 0.16497 0.74062 0.81648 0.0
C317 C 0.25592 0.68715 0.82962 0.0
C318 C 0.2793 0.71421 0.80482 0.0
C319 C 0.15884 0.71733 0.73581 0.0
C320 C 0.14219 0.73288 0.73889 0.0
C321 C 0.14366 0.74778 0.75734 0.0
C322 C 0.16134 0.74721 0.77253 0.0
C323 C 0.17777 0.73148 0.76938 0.0
C324 C 0.17634 0.71683 0.7513 0.0
C325 C 0.19495 0.7008 0.75113 0.0
C326 C 0.20792 0.70847 0.77189 0.0
C327 C 0.19778 0.72648 0.78244 0.0
C328 C 0.1846 0.67706 0.75348 0.0
C329 C 0.20869 0.70429 0.72954 0.0
C330 C 0.21788 0.77302 0.85187 0.0
C331 C 0.23549 0.77261 0.86734 0.0
C332 C 0.25173 0.75649 0.86448 0.0
C333 C 0.25051 0.74116 0.84653 0.0
C334 C 0.23285 0.74184 0.8312 0.0
C335 C 0.21691 0.75757 0.83404 0.0
C336 C 0.19932 0.75582 0.81615 0.0
C337 C 0.20731 0.73643 0.80211 0.0
C338 C 0.22696 0.72831 0.81099 0.0
C339 C 0.17661 0.75038 0.82746 0.0
C340 C 0.20024 0.77768 0.80305 0.0
H341 H 0.22654 0.66538 0.74443 0.0
H342 H 0.28891 0.66449 0.79885 0.0
H343 H 0.28357 0.71691 0.78697 0.0
H344 H 0.27693 0.73094 0.81202 0.0
H345 H 0.29394 0.707 0.81289 0.0
H346 H 0.24594 0.67131 0.82788 0.0
H347 H 0.27244 0.68324 0.83654 0.0
H348 H 0.24683 0.69703 0.84214 0.0
H349 H 0.15798 0.70548 0.72195 0.0
H350 H 0.13113 0.76002 0.75994 0.0
H351 H 0.16147 0.75901 0.78619 0.0
H352 H 0.16894 0.67721 0.7634 0.0
H353 H 0.18052 0.66938 0.73687 0.0
H354 H 0.19548 0.66606 0.76269 0.0
H355 H 0.21101 0.72226 0.72614 0.0
H356 H 0.22567 0.69805 0.73063 0.0
H357 H 0.20011 0.69627 0.71486 0.0
H358 H 0.25374 0.63704 0.74102 0.0
C359 C 0.23979 0.66578 0.75646 0.0
C360 C 0.90364 0.49781 0.4865 0.0
C361 C 0.89677 0.47886 0.47395 0.0
C362 C 0.91013 0.47159 0.45609 0.0
C363 C 0.93659 0.50228 0.46324 0.0
C364 C 0.92363 0.50906 0.48104 0.0
C365 C 0.93389 0.52879 0.49346 0.0
H366 H 0.01677 0.6072 0.50363 0.0
C367 C 0.95633 0.51761 0.46211 0.0
C368 C 0.95494 0.53301 0.47996 0.0
H369 H 0.96004 0.59616 0.54705 0.0
H370 H 0.94735 0.56521 0.52381 0.0
H371 H 0.99036 0.59851 0.45738 0.0
H372 H 0.02843 0.55616 0.49837 0.0
H373 H 0.03471 0.54942 0.47044 0.0
H374 H 0.04134 0.57701 0.48128 0.0
H375 H 0.02016 0.60096 0.45933 0.0
H376 H 0.00644 0.58228 0.43935 0.0
C377 C 0.91775 0.5481 0.49186 0.0
C378 C 0.93907 0.52186 0.51767 0.0
C379 C 0.01191 0.51038 0.39834 0.0
C380 C 0.03157 0.52245 0.39283 0.0
C381 C 0.03897 0.54017 0.40704 0.0
C382 C 0.02693 0.54593 0.42622 0.0
C383 C 0.00723 0.53386 0.43139 0.0
C384 C 1.00009 0.51632 0.41765 0.0
C385 C 0.97897 0.50517 0.42605 0.0
C386 C 0.97442 0.5192 0.44685 0.0
C387 C 0.99103 0.536 0.44983 0.0
C388 C 0.9607 0.50729 0.40806 0.0
C389 C 0.98398 0.48098 0.43183 0.0
C390 C 0.00173 0.598 0.50827 0.0
C391 C 0.98937 0.60431 0.52721 0.0
C392 C 0.96971 0.59197 0.53239 0.0
C393 C 0.96243 0.57385 0.51893 0.0
C394 C 0.97492 0.56783 0.50006 0.0
C395 C 0.99426 0.57977 0.49505 0.0
C396 C 0.00549 0.57079 0.47446 0.0
C397 C 0.98976 0.5514 0.46805 0.0
C398 C 0.97184 0.54986 0.48304 0.0
C399 C 0.00586 0.58901 0.45663 0.0
C400 C 0.02879 0.56303 0.48127 0.0
H401 H 0.93933 0.47701 0.43672 0.0
H402 H 0.89388 0.50349 0.50059 0.0
H403 H 0.94242 0.50389 0.51836 0.0
H404 H 0.95433 0.53025 0.52454 0.0
H405 H 0.92489 0.52505 0.52905 0.0
H406 H 0.91038 0.54859 0.47483 0.0
H407 H 0.90383 0.54615 0.50396 0.0
H408 H 0.92602 0.56454 0.49463 0.0
H409 H 0.00594 0.4965 0.38794 0.0
H410 H 0.0539 0.54989 0.40307 0.0
H411 H 0.03339 0.55967 0.4362 0.0
H412 H 0.96132 0.52424 0.40114 0.0
H413 H 0.96306 0.49532 0.39397 0.0
H414 H 0.94368 0.50481 0.41465 0.0
H415 H 0.00153 0.47962 0.43743 0.0
H416 H 0.97386 0.47474 0.44593 0.0
H417 H 0.98139 0.46966 0.41709 0.0
H418 H 0.90509 0.45698 0.44625 0.0
C419 C 0.92994 0.48326 0.45059 0.0
C420 C 0.78176 0.7361 0.85654 0.0
C421 C 0.76683 0.74137 0.87378 0.0
C422 C 0.75566 0.76147 0.873 0.0
C423 C 0.77447 0.77066 0.83838 0.0
C424 C 0.78537 0.75094 0.83917 0.0
C425 C 0.80127 0.74812 0.82002 0.0
H426 H 0.85008 0.78868 0.7269 0.0
C427 C 0.78233 0.78248 0.81831 0.0
C428 C 0.79809 0.76936 0.80755 0.0
H429 H 0.86128 0.72655 0.75881 0.0
H430 H 0.83373 0.73481 0.7867 0.0
H431 H 0.84745 0.81826 0.77254 0.0
H432 H 0.79726 0.78566 0.73088 0.0
H433 H 0.78652 0.81095 0.73992 0.0
H434 H 0.8114 0.81098 0.72301 0.0
H435 H 0.84051 0.82775 0.74529 0.0
H436 H 0.82555 0.83651 0.76985 0.0
C437 C 0.82512 0.74701 0.82975 0.0
C438 C 0.79338 0.72736 0.80605 0.0
C439 C 0.75134 0.85718 0.79975 0.0
C440 C 0.75559 0.87201 0.78232 0.0
C441 C 0.77142 0.86655 0.76587 0.0
C442 C 0.78281 0.84678 0.76675 0.0
C443 C 0.77841 0.83217 0.78427 0.0
C444 C 0.76289 0.83746 0.80039 0.0
C445 C 0.76045 0.81991 0.81778 0.0
C446 C 0.7769 0.80317 0.80929 0.0
C447 C 0.78739 0.81049 0.78968 0.0
C448 C 0.7676 0.8304 0.84067 0.0
C449 C 0.73617 0.81039 0.817 0.0
C450 C 0.84669 0.77695 0.74 0.0
C451 C 0.8579 0.75693 0.74065 0.0
C452 C 0.85272 0.74196 0.75778 0.0
C453 C 0.83679 0.74686 0.77406 0.0
C454 C 0.82582 0.76697 0.77328 0.0
C455 C 0.83074 0.78157 0.75638 0.0
C456 C 0.81715 0.80197 0.75806 0.0
C457 C 0.80348 0.7973 0.77891 0.0
C458 C 0.8087 0.77681 0.78776 0.0
C459 C 0.83336 0.82231 0.76147 0.0
C460 C 0.80236 0.80268 0.73687 0.0
H461 H 0.75035 0.7911 0.85576 0.0
H462 H 0.79086 0.72096 0.85683 0.0
H463 H 0.77488 0.72559 0.8058 0.0
H464 H 0.79821 0.72826 0.78828 0.0
H465 H 0.79983 0.71202 0.81313 0.0
H466 H 0.82719 0.75799 0.84485 0.0
H467 H 0.82872 0.7299 0.83471 0.0
H468 H 0.83818 0.75295 0.81813 0.0
H469 H 0.73947 0.86095 0.81279 0.0
H470 H 0.77479 0.87747 0.75207 0.0
H471 H 0.79458 0.84363 0.75369 0.0
H472 H 0.78134 0.84305 0.83863 0.0
H473 H 0.75351 0.83871 0.84893 0.0
H474 H 0.77436 0.81827 0.85216 0.0
H475 H 0.7301 0.80879 0.79945 0.0
H476 H 0.73438 0.79354 0.82366 0.0
H477 H 0.7248 0.82139 0.82629 0.0
H478 H 0.74395 0.76582 0.88599 0.0
C479 C 0.75935 0.77609 0.85539 0.0
C480 C 0.28004 0.24018 0.34779 0.0
C481 C 0.26188 0.24154 0.36256 0.0
C482 C 0.2482 0.25997 0.36154 0.0
C483 C 0.27043 0.27492 0.33127 0.0
C484 C 0.28396 0.25697 0.33233 0.0
C485 C 0.3024 0.25806 0.31532 0.0
H486 H 0.35436 0.31193 0.23082 0.0
C487 C 0.2788 0.28924 0.31318 0.0
C488 C 0.2975 0.27946 0.30372 0.0
H489 H 0.37242 0.25107 0.26166 0.0
H490 H 0.34085 0.25303 0.28627 0.0
H491 H 0.34117 0.33778 0.27706 0.0
H492 H 0.30154 0.29997 0.22856 0.0
H493 H 0.28626 0.3229 0.23712 0.0
H494 H 0.31256 0.32732 0.22301 0.0
H495 H 0.33678 0.34692 0.24911 0.0
H496 H 0.31718 0.35245 0.27109 0.0
C497 C 0.32491 0.25969 0.32804 0.0
C498 C 0.29953 0.23762 0.29932 0.0
C499 C 0.2392 0.35976 0.29677 0.0
C500 C 0.24211 0.37597 0.28048 0.0
C501 C 0.25928 0.37384 0.2646 0.0
C502 C 0.27355 0.35597 0.26519 0.0
C503 C 0.27051 0.33994 0.28173 0.0
C504 C 0.25338 0.34193 0.29698 0.0
C505 C 0.25191 0.32296 0.31277 0.0
C506 C 0.2712 0.30939 0.30475 0.0
C507 C 0.28219 0.31945 0.28669 0.0
C508 C 0.25576 0.33241 0.33681 0.0
C509 C 0.22912 0.31047 0.30908 0.0
C510 C 0.35138 0.29895 0.24276 0.0
C511 C 0.36603 0.28139 0.24437 0.0
C512 C 0.36164 0.26495 0.2603 0.0
C513 C 0.34321 0.26606 0.27453 0.0
C514 C 0.3289 0.28382 0.27294 0.0
C515 C 0.33304 0.29987 0.25722 0.0
C516 C 0.31605 0.3176 0.25814 0.0
C517 C 0.30123 0.30962 0.27713 0.0
C518 C 0.30884 0.28978 0.28567 0.0
C519 C 0.32829 0.33997 0.26402 0.0
C520 C 0.30345 0.31717 0.23554 0.0
H521 H 0.24133 0.29016 0.34617 0.0
H522 H 0.29079 0.22618 0.348 0.0
H523 H 0.28159 0.23367 0.29595 0.0
H524 H 0.30699 0.24031 0.28271 0.0
H525 H 0.30673 0.22276 0.30668 0.0
H526 H 0.32333 0.26909 0.34413 0.0
H527 H 0.3308 0.243 0.33194 0.0
H528 H 0.33809 0.2689 0.31885 0.0
H529 H 0.22587 0.36072 0.30891 0.0
H530 H 0.26181 0.38618 0.25191 0.0
H531 H 0.28641 0.35532 0.25278 0.0
H532 H 0.26869 0.34609 0.33695 0.0
H533 H 0.24024 0.33917 0.34384 0.0
H534 H 0.2621 0.32011 0.34836 0.0
H535 H 0.22343 0.31158 0.29145 0.0
H536 H 0.22983 0.2925 0.31191 0.0
H537 H 0.21604 0.31751 0.31994 0.0
H538 H 0.23435 0.26165 0.37296 0.0
C539 C 0.25237 0.27661 0.34603 0.0
C540 C 0.49903 0.91001 0.50228 0.0
C541 C 0.48735 0.90477 0.48236 0.0
C542 C 0.46981 0.91827 0.47611 0.0
C543 C 0.47641 0.942 0.50891 0.0
C544 C 0.49338 0.9286 0.51515 0.0
C545 C 0.50468 0.93671 0.53638 0.0
H546 H 0.5158 0.01455 0.61912 0.0
C547 C 0.47526 0.96035 0.52566 0.0
C548 C 0.49183 0.95729 0.54178 0.0
H549 H 0.5538 0.95573 0.6093 0.0
H550 H 0.5315 0.94517 0.57693 0.0
H551 H 0.46817 0.99091 0.60889 0.0
H552 H 0.51481 0.02786 0.5685 0.0
H553 H 0.48821 0.03586 0.56063 0.0
H554 H 0.49755 0.04088 0.58902 0.0
H555 H 0.47191 0.02046 0.61138 0.0
H556 H 0.45235 0.00754 0.59177 0.0
C557 C 0.50103 0.91877 0.55425 0.0
C558 C 0.52944 0.94236 0.53099 0.0
C559 C 0.41882 0.02061 0.51699 0.0
C560 C 0.41485 0.04011 0.52946 0.0
C561 C 0.42771 0.04508 0.54875 0.0
C562 C 0.44432 0.03104 0.55547 0.0
C563 C 0.44832 0.01178 0.54275 0.0
C564 C 0.43569 0.00678 0.52387 0.0
C565 C 0.44276 0.98579 0.51224 0.0
C566 C 0.46151 0.97898 0.52741 0.0
C567 C 0.46462 0.9943 0.54523 0.0
C568 C 0.4228 0.96883 0.51235 0.0
C569 C 0.45127 0.99174 0.48861 0.0
C570 C 0.51942 0.99946 0.60992 0.0
C571 C 0.53669 0.98603 0.61671 0.0
C572 C 0.54051 0.96629 0.60451 0.0
C573 C 0.52762 0.96027 0.58562 0.0
C574 C 0.51069 0.9741 0.57881 0.0
C575 C 0.50671 0.9932 0.59107 0.0
C576 C 0.48793 0.00581 0.58158 0.0
C577 C 0.48141 0.99126 0.56146 0.0
C578 C 0.49483 0.97277 0.55984 0.0
C579 C 0.46907 0.00645 0.59925 0.0
C580 C 0.49739 0.02889 0.57466 0.0
H581 H 0.45089 0.94648 0.48352 0.0
H582 H 0.51235 0.89984 0.50782 0.0
H583 H 0.53111 0.94988 0.51424 0.0
H584 H 0.53716 0.95478 0.54267 0.0
H585 H 0.53943 0.92725 0.53087 0.0
H586 H 0.4844 0.91022 0.55227 0.0
H587 H 0.5138 0.90598 0.55286 0.0
H588 H 0.50107 0.92572 0.57149 0.0
H589 H 0.40932 0.01645 0.50199 0.0
H590 H 0.42477 0.05983 0.5588 0.0
H591 H 0.45347 0.03583 0.5703 0.0
H592 H 0.41378 0.96968 0.52856 0.0
H593 H 0.41074 0.97221 0.49889 0.0
H594 H 0.42789 0.95151 0.51057 0.0
H595 H 0.46 0.00832 0.48884 0.0
H596 H 0.46373 0.98027 0.4821 0.0
H597 H 0.43727 0.99222 0.47652 0.0
H598 H 0.46065 0.9148 0.46077 0.0
C599 C 0.46427 0.9368 0.48928 0.0
C600 C 0.15708 0.30116 0.75912 0.0
C601 C 0.13908 0.28574 0.7567 0.0
C602 C 0.13959 0.26965 0.73928 0.0
C603 C 0.17551 0.28456 0.7271 0.0
C604 C 0.17504 0.30021 0.74428 0.0
C605 C 0.19559 0.31518 0.74483 0.0
H606 H 0.29643 0.34454 0.70218 0.0
C607 C 0.19668 0.28805 0.7148 0.0
C608 C 0.20855 0.30588 0.72522 0.0
H609 H 0.26157 0.37499 0.75735 0.0
H610 H 0.23096 0.34842 0.75259 0.0
H611 H 0.25335 0.33893 0.6705 0.0
H612 H 0.28375 0.29318 0.71437 0.0
H613 H 0.2763 0.27869 0.6895 0.0
H614 H 0.29641 0.30158 0.68859 0.0
H615 H 0.27937 0.3266 0.66403 0.0
H616 H 0.25309 0.31294 0.65674 0.0
C617 C 0.18845 0.33918 0.7408 0.0
C618 C 0.20765 0.31201 0.76738 0.0
C619 C 0.21281 0.24033 0.64611 0.0
C620 C 0.23097 0.23955 0.63132 0.0
C621 C 0.2497 0.25386 0.63532 0.0
C622 C 0.25015 0.26897 0.65349 0.0
C623 C 0.2317 0.26981 0.66789 0.0
C624 C 0.21355 0.25546 0.66421 0.0
C625 C 0.19564 0.25832 0.68148 0.0
C626 C 0.20578 0.27712 0.69583 0.0
C627 C 0.22689 0.28385 0.68777 0.0
C628 C 0.17424 0.2652 0.66941 0.0
C629 C 0.19294 0.23652 0.69455 0.0
C630 C 0.28226 0.34526 0.71333 0.0
C631 C 0.28137 0.36182 0.73019 0.0
C632 C 0.26252 0.36248 0.74415 0.0
C633 C 0.24479 0.34699 0.74139 0.0
C634 C 0.24576 0.33066 0.72436 0.0
C635 C 0.26421 0.33001 0.7106 0.0
C636 C 0.26181 0.31196 0.69287 0.0
C637 C 0.23902 0.30178 0.69846 0.0
C638 C 0.2298 0.31277 0.71699 0.0
C639 C 0.26205 0.32299 0.66974 0.0
C640 C 0.28058 0.29547 0.69626 0.0
H641 H 0.157 0.25643 0.71151 0.0
H642 H 0.15736 0.31354 0.77251 0.0
H643 H 0.20631 0.29439 0.7724 0.0
H644 H 0.22572 0.31595 0.76661 0.0
H645 H 0.20023 0.32218 0.78095 0.0
H646 H 0.17363 0.33929 0.72964 0.0
H647 H 0.18403 0.3477 0.75674 0.0
H648 H 0.20133 0.34929 0.73212 0.0
H649 H 0.19833 0.2293 0.64372 0.0
H650 H 0.26384 0.25369 0.62411 0.0
H651 H 0.2648 0.27954 0.65551 0.0
H652 H 0.17839 0.27724 0.65611 0.0
H653 H 0.16543 0.25061 0.66138 0.0
H654 H 0.16253 0.27369 0.68058 0.0
H655 H 0.20902 0.22803 0.69559 0.0
H656 H 0.18797 0.23932 0.71214 0.0
H657 H 0.18067 0.2248 0.6863 0.0
H658 H 0.12584 0.2577 0.73695 0.0
C659 C 0.15766 0.269 0.72447 0.0
C660 C 0.73691 0.16077 0.7417 0.0
C661 C 0.71696 0.1565 0.72984 0.0
C662 C 0.71209 0.16975 0.71151 0.0
C663 C 0.74711 0.19054 0.71663 0.0
C664 C 0.7516 0.17785 0.73492 0.0
C665 C 0.77329 0.1848 0.746 0.0
H666 H 0.86722 0.25021 0.74782 0.0
C667 C 0.7661 0.20652 0.7137 0.0
C668 C 0.78142 0.20329 0.73094 0.0
H669 H 0.84572 0.20144 0.79578 0.0
H670 H 0.81229 0.19327 0.77438 0.0
H671 H 0.81887 0.27142 0.74195 0.0
H672 H 0.8534 0.22175 0.70439 0.0
H673 H 0.83886 0.23698 0.6849 0.0
H674 H 0.86027 0.25074 0.7019 0.0
H675 H 0.84316 0.27757 0.72542 0.0
H676 H 0.81566 0.27677 0.71339 0.0
C677 C 0.76822 0.19344 0.77002 0.0
C678 C 0.78876 0.16486 0.74494 0.0
C679 C 0.76777 0.25798 0.6475 0.0
C680 C 0.7841 0.27297 0.63947 0.0
C681 C 0.80426 0.27636 0.65121 0.0
C682 C 0.80812 0.26499 0.6709 0.0
C683 C 0.79173 0.24988 0.67878 0.0
C684 C 0.77202 0.24646 0.66704 0.0
C685 C 0.75707 0.2289 0.67727 0.0
C686 C 0.77093 0.22256 0.69721 0.0
C687 C 0.79113 0.23504 0.69809 0.0
C688 C 0.73516 0.23968 0.68458 0.0
C689 C 0.75394 0.20951 0.66001 0.0
C690 C 0.85536 0.23767 0.7536 0.0
C691 C 0.85909 0.22647 0.77352 0.0
C692 C 0.84311 0.21046 0.78062 0.0
C693 C 0.82373 0.20569 0.76812 0.0
C694 C 0.82017 0.2171 0.74831 0.0
C695 C 0.8358 0.23284 0.74139 0.0
C696 C 0.82894 0.24365 0.72018 0.0
C697 C 0.80652 0.23195 0.71567 0.0
C698 C 0.80159 0.2163 0.73209 0.0
C699 C 0.82662 0.26871 0.72527 0.0
C700 C 0.84624 0.23823 0.70182 0.0
H701 H 0.72248 0.19607 0.69063 0.0
H702 H 0.74091 0.15114 0.75612 0.0
H703 H 0.78751 0.15626 0.72832 0.0
H704 H 0.80654 0.16972 0.74696 0.0
H705 H 0.78409 0.15259 0.75783 0.0
H706 H 0.7513 0.20027 0.77113 0.0
H707 H 0.769 0.17997 0.78229 0.0
H708 H 0.77956 0.20737 0.77543 0.0
H709 H 0.75229 0.2549 0.63847 0.0
H710 H 0.81703 0.2878 0.64507 0.0
H711 H 0.8238 0.26827 0.67912 0.0
H712 H 0.73853 0.25684 0.6912 0.0
H713 H 0.72347 0.24063 0.67028 0.0
H714 H 0.72668 0.23092 0.69835 0.0
H715 H 0.76951 0.20708 0.65034 0.0
H716 H 0.75027 0.19341 0.66781 0.0
H717 H 0.74051 0.2128 0.64789 0.0
H718 H 0.69683 0.16672 0.70209 0.0
C719 C 0.72706 0.18669 0.70482 0.0
C720 C 0.52798 0.6058 0.47873 0.0
C721 C 0.50958 0.61924 0.48218 0.0
C722 C 0.49667 0.61663 0.50165 0.0
C723 C 0.51988 0.58718 0.51353 0.0
C724 C 0.53272 0.58979 0.49454 0.0
C725 C 0.55102 0.57339 0.49325 0.0
H726 H 0.60105 0.48526 0.53718 0.0
C727 C 0.52876 0.56887 0.52633 0.0
C728 C 0.54698 0.5606 0.51459 0.0
H729 H 0.61813 0.51976 0.47662 0.0
H730 H 0.58882 0.54516 0.48357 0.0
H731 H 0.5938 0.53017 0.56744 0.0
H732 H 0.54791 0.48599 0.5312 0.0
H733 H 0.5362 0.49228 0.55742 0.0
H734 H 0.56195 0.47795 0.55607 0.0
H735 H 0.58684 0.5027 0.57666 0.0
H736 H 0.57 0.52585 0.58409 0.0
C737 C 0.57367 0.5865 0.49377 0.0
C738 C 0.54712 0.55857 0.47204 0.0
C739 C 0.49098 0.54747 0.59876 0.0
C740 C 0.4947 0.53115 0.61454 0.0
C741 C 0.51243 0.51678 0.61103 0.0
C742 C 0.52621 0.51872 0.59214 0.0
C743 C 0.5222 0.53517 0.57652 0.0
C744 C 0.50483 0.54919 0.58008 0.0
C745 C 0.50277 0.56561 0.56184 0.0
C746 C 0.52185 0.5593 0.54672 0.0
C747 C 0.5332 0.54144 0.55529 0.0
C748 C 0.50651 0.58918 0.57233 0.0
C749 C 0.47978 0.56134 0.55036 0.0
C750 C 0.59863 0.49841 0.52552 0.0
C751 C 0.6119 0.50031 0.5062 0.0
C752 C 0.60795 0.5176 0.4914 0.0
C753 C 0.59096 0.53245 0.49552 0.0
C754 C 0.57763 0.53009 0.51466 0.0
C755 C 0.58169 0.51341 0.5294 0.0
C756 C 0.56591 0.51355 0.54895 0.0
C757 C 0.5516 0.53288 0.54338 0.0
C758 C 0.55851 0.54248 0.52321 0.0
C759 C 0.57971 0.51815 0.57053 0.0
C760 C 0.55229 0.49128 0.54864 0.0
H761 H 0.49118 0.59965 0.53171 0.0
H762 H 0.53811 0.60735 0.46384 0.0
H763 H 0.52901 0.55503 0.46923 0.0
H764 H 0.55436 0.54213 0.47329 0.0
H765 H 0.55387 0.56681 0.45695 0.0
H766 H 0.57292 0.60132 0.50509 0.0
H767 H 0.5783 0.59234 0.47687 0.0
H768 H 0.58733 0.57685 0.50043 0.0
H769 H 0.47729 0.55853 0.60066 0.0
H770 H 0.51579 0.50416 0.62302 0.0
H771 H 0.53942 0.50733 0.59041 0.0
H772 H 0.51917 0.58921 0.58592 0.0
H773 H 0.49088 0.59534 0.57969 0.0
H774 H 0.5132 0.60136 0.56035 0.0
H775 H 0.47437 0.54354 0.55098 0.0
H776 H 0.48006 0.56498 0.53234 0.0
H777 H 0.46671 0.57109 0.55868 0.0
H778 H 0.48263 0.62699 0.50483 0.0
C779 C 0.50173 0.60076 0.51731 0.0
C780 C 0.53451 0.40629 0.0161 0.0
C781 C 0.51657 0.39078 0.01348 0.0
C782 C 0.49963 0.39496 0.99799 0.0
C783 C 0.51876 0.42921 0.9877 0.0
C784 C 0.53527 0.4253 0.00304 0.0
C785 C 0.55325 0.44337 0.00339 0.0
H786 H 0.5945 0.54052 0.96302 0.0
C787 C 0.52463 0.45019 0.97656 0.0
C788 C 0.54482 0.45863 0.98565 0.0
H789 H 0.62253 0.50049 0.01424 0.0
H790 H 0.59172 0.47403 0.01033 0.0
H791 H 0.54317 0.53508 0.97932 0.0
H792 H 0.58092 0.4996 0.92984 0.0
H793 H 0.55423 0.50303 0.91877 0.0
H794 H 0.57183 0.52713 0.92543 0.0
H795 H 0.55233 0.54727 0.95366 0.0
H796 H 0.52657 0.53113 0.95524 0.0
C797 C 0.55354 0.4546 0.02694 0.0
C798 C 0.57547 0.43296 0.99647 0.0
C799 C 0.47379 0.47731 0.91608 0.0
C800 C 0.47497 0.49558 0.90197 0.0
C801 C 0.49322 0.51086 0.90405 0.0
C802 C 0.50999 0.50798 0.91995 0.0
C803 C 0.50862 0.48953 0.93387 0.0
C804 C 0.49072 0.47458 0.93173 0.0
C805 C 0.49219 0.45565 0.94743 0.0
C806 C 0.51386 0.46171 0.95947 0.0
C807 C 0.52341 0.48159 0.95155 0.0
C808 C 0.47191 0.45626 0.96342 0.0
C809 C 0.49372 0.43394 0.93324 0.0
C810 C 0.5941 0.52598 0.97329 0.0
C811 C 0.61101 0.52273 0.98905 0.0
C812 C 0.6096 0.50365 0.00223 0.0
C813 C 0.59173 0.48819 0.99984 0.0
C814 C 0.57498 0.49172 0.98407 0.0
C815 C 0.57634 0.51035 0.97109 0.0
C816 C 0.55705 0.51129 0.95512 0.0
C817 C 0.54382 0.49024 0.96078 0.0
C818 C 0.55444 0.47883 0.97775 0.0
C819 C 0.54406 0.53232 0.9609 0.0
C820 C 0.56632 0.51038 0.93097 0.0
H821 H 0.48722 0.41613 0.97365 0.0
H822 H 0.54786 0.40352 0.02776 0.0
H823 H 0.57262 0.41983 0.98333 0.0
H824 H 0.58742 0.44496 0.98897 0.0
H825 H 0.58349 0.42525 0.01094 0.0
H826 H 0.53638 0.45538 0.03384 0.0
H827 H 0.5636 0.44523 0.03881 0.0
H828 H 0.55984 0.47199 0.02686 0.0
H829 H 0.4602 0.46506 0.91466 0.0
H830 H 0.49443 0.52516 0.89345 0.0
H831 H 0.52342 0.52019 0.92075 0.0
H832 H 0.46751 0.47363 0.96746 0.0
H833 H 0.45701 0.4477 0.95575 0.0
H834 H 0.47518 0.44895 0.97979 0.0
H835 H 0.50284 0.43694 0.91735 0.0
H836 H 0.50323 0.42117 0.94157 0.0
H837 H 0.4769 0.42692 0.92883 0.0
H838 H 0.48543 0.38352 0.99591 0.0
C839 C 0.50063 0.41401 0.98513 0.0
C840 C 0.76597 0.15403 0.28736 0.0
C841 C 0.76135 0.13888 0.26958 0.0
C842 C 0.74348 0.14285 0.25507 0.0
C843 C 0.73462 0.1758 0.27663 0.0
C844 C 0.75243 0.17227 0.29058 0.0
C845 C 0.75478 0.18978 0.30884 0.0
H846 H 0.71099 0.27645 0.3647 0.0
C847 C 0.72335 0.19569 0.28499 0.0
C848 C 0.73507 0.20398 0.30389 0.0
H849 H 0.77435 0.24651 0.37629 0.0
H850 H 0.76768 0.22163 0.34502 0.0
H851 H 0.68161 0.23222 0.34921 0.0
H852 H 0.72022 0.28171 0.31425 0.0
H853 H 0.69859 0.2732 0.29598 0.0
H854 H 0.69205 0.28618 0.32256 0.0
H855 H 0.67438 0.26072 0.34758 0.0
H856 H 0.66595 0.24072 0.3262 0.0
C857 C 0.75227 0.17828 0.3316 0.0
C858 C 0.77734 0.20266 0.30576 0.0
C859 C 0.65405 0.22111 0.24557 0.0
C860 C 0.64 0.23889 0.24956 0.0
C861 C 0.64408 0.25301 0.26831 0.0
C862 C 0.66191 0.24958 0.28277 0.0
C863 C 0.67597 0.23191 0.27842 0.0
C864 C 0.67192 0.21802 0.26009 0.0
C865 C 0.68878 0.20029 0.25797 0.0
C866 C 0.70385 0.2061 0.2778 0.0
C867 C 0.69613 0.22452 0.28979 0.0
C868 C 0.67638 0.17753 0.26054 0.0
C869 C 0.70116 0.20311 0.23544 0.0
C870 C 0.72366 0.26478 0.36059 0.0
C871 C 0.74306 0.26343 0.3737 0.0
C872 C 0.75883 0.24765 0.36729 0.0
C873 C 0.7551 0.23328 0.34884 0.0
C874 C 0.73558 0.23479 0.33619 0.0
C875 C 0.72053 0.25071 0.34182 0.0
C876 C 0.7018 0.25137 0.3252 0.0
C877 C 0.70774 0.23271 0.30911 0.0
C878 C 0.72732 0.22278 0.31586 0.0
C879 C 0.67966 0.24612 0.33757 0.0
C880 C 0.70299 0.27428 0.31394 0.0
H881 H 0.71677 0.1631 0.24692 0.0
H882 H 0.77949 0.15149 0.29888 0.0
H883 H 0.78284 0.20217 0.288 0.0
H884 H 0.77631 0.22052 0.31 0.0
H885 H 0.79068 0.19555 0.31591 0.0
H886 H 0.73784 0.16619 0.33121 0.0
H887 H 0.76741 0.16912 0.33558 0.0
H888 H 0.74907 0.1899 0.3456 0.0
H889 H 0.65148 0.21009 0.23119 0.0
H890 H 0.63333 0.26665 0.2719 0.0
H891 H 0.66405 0.26084 0.29678 0.0
H892 H 0.66252 0.17873 0.2728 0.0
H893 H 0.66908 0.17146 0.24438 0.0
H894 H 0.68706 0.16475 0.26721 0.0
H895 H 0.70354 0.22095 0.23147 0.0
H896 H 0.71814 0.19673 0.23563 0.0
H897 H 0.6916 0.1949 0.22147 0.0
H898 H 0.73979 0.13177 0.24096 0.0
C899 C 0.73014 0.16115 0.2585 0.0
C900 C 0.39897 0.01186 0.99102 0.0
C901 C 0.39473 0.99177 0.97926 0.0
C902 C 0.41006 0.98477 0.96301 0.0
C903 C 0.4332 0.01794 0.97008 0.0
C904 C 0.41834 0.02451 0.98635 0.0
C905 C 0.42589 0.04575 0.99807 0.0
H906 H 0.50128 0.13126 0.0093 0.0
C907 C 0.45157 0.03489 0.96932 0.0
C908 C 0.4475 0.0511 0.98584 0.0
H909 H 0.44228 0.11761 0.04888 0.0
H910 H 0.43387 0.08479 0.02658 0.0
H911 H 0.47902 0.11805 0.9616 0.0
H912 H 0.5173 0.08075 0.00746 0.0
H913 H 0.52667 0.07462 0.98028 0.0
H914 H 0.52951 0.10265 0.9912 0.0
H915 H 0.50845 0.12296 0.96534 0.0
H916 H 0.49747 0.10221 0.94573 0.0
C917 C 0.40821 0.06322 0.99392 0.0
C918 C 0.42988 0.04083 0.02307 0.0
C919 C 0.51213 0.0284 0.91053 0.0
C920 C 0.53096 0.04178 0.90519 0.0
C921 C 0.53575 0.06113 0.91822 0.0
C922 C 0.52194 0.06714 0.93608 0.0
C923 C 0.50308 0.05368 0.94106 0.0
C924 C 0.4985 0.03463 0.9284 0.0
C925 C 0.47782 0.02227 0.93612 0.0
C926 C 0.47056 0.03718 0.95531 0.0
C927 C 0.48542 0.05556 0.95816 0.0
C928 C 0.46079 0.02143 0.91665 0.0
C929 C 0.48449 0.99924 0.94423 0.0
C930 C 0.48665 0.12111 0.01327 0.0
C931 C 0.47238 0.1272 0.03087 0.0
C932 C 0.45336 0.11359 0.03523 0.0
C933 C 0.44858 0.09438 0.02234 0.0
C934 C 0.46296 0.08852 0.00487 0.0
C935 C 0.48165 0.10176 1.00058 0.0
C936 C 0.49508 0.09274 0.98141 0.0
C937 C 0.48148 0.0718 0.97512 0.0
C938 C 0.46265 0.06952 0.98888 0.0
C939 C 0.49525 0.10983 0.96249 0.0
C940 C 0.51846 0.0875 0.99034 0.0
H941 H 0.44018 0.99164 0.94563 0.0
H942 H 0.38764 0.01741 0.0039 0.0
H943 H 0.43466 0.0234 0.02528 0.0
H944 H 0.44389 0.05091 0.03041 0.0
H945 H 0.41464 0.04343 0.03316 0.0
H946 H 0.40204 0.06193 0.97639 0.0
H947 H 0.39365 0.06076 0.00515 0.0
H948 H 0.41482 0.08043 0.99603 0.0
H949 H 0.50814 0.01325 0.9011 0.0
H950 H 0.55001 0.07186 0.91435 0.0
H951 H 0.52642 0.08211 0.94525 0.0
H952 H 0.46083 0.03758 0.90808 0.0
H953 H 0.46492 0.00848 0.90401 0.0
H954 H 0.44346 0.01843 0.9222 0.0
H955 H 0.50171 0.99991 0.95113 0.0
H956 H 0.47395 0.99318 0.95811 0.0
H957 H 0.48391 0.98674 0.93032 0.0
H958 H 0.40706 0.96931 0.95378 0.0
C959 C 0.42922 0.99778 0.95829 0.0
C960 C 0.20609 0.90052 0.01344 0.0
O961 O 0.20352 0.87957 0.01863 0.0
O962 O 0.24784 0.86742 0.97627 0.0
Zn963 Zn 0.25144 0.88826 0.00336 0.0
O964 O 0.27903 0.90817 0.99987 0.0
C965 C 0.25211 0.84993 0.03215 0.0
O966 O 0.24676 0.83875 0.01373 0.0
O967 O 0.22491 0.90768 0.00634 0.0
C968 C 0.29788 0.9026 0.00712 0.0
O969 O 0.29941 0.88361 0.01717 0.0
C970 C 0.2649 0.86065 0.96594 0.0
O971 O 0.28477 0.86751 0.97284 0.0
O972 O 0.25456 0.8709 0.03159 0.0
C973 C 0.15406 0.46962 0.26081 0.0
O974 O 0.15176 0.48246 0.27862 0.0
O975 O 0.103 0.49965 0.27108 0.0
Zn976 Zn 0.1213 0.49814 0.24261 0.0
O977 O 0.13967 0.52652 0.2399 0.0
C978 C 0.09386 0.47457 0.2098 0.0
O979 O 0.09893 0.45771 0.22206 0.0
O980 O 0.14246 0.47302 0.24354 0.0
C981 C 0.13055 0.54478 0.23644 0.0
O982 O 0.10876 0.545 0.23473 0.0
C983 C 0.08186 0.50036 0.27092 0.0
O984 O 0.07132 0.49974 0.25168 0.0
O985 O 0.10148 0.49383 0.21538 0.0
C986 C 0.79154 0.61178 0.00267 0.0
O987 O 0.79017 0.6192 0.98228 0.0
O988 O 0.754 0.65242 0.9822 0.0
Zn989 Zn 0.74976 0.63465 0.01019 0.0
O990 O 0.72245 0.61431 0.00662 0.0
C991 C 0.7555 0.67535 0.03538 0.0
O992 O 0.76778 0.68037 0.01792 0.0
O993 O 0.77648 0.61638 0.01678 0.0
C994 C 0.71353 0.60509 0.02345 0.0
O995 O 0.7222 0.60915 0.04335 0.0
C996 C 0.75018 0.64511 0.96244 0.0
O997 O 0.7436 0.6243 0.95924 0.0
O998 O 0.7458 0.6563 0.03607 0.0
C999 C 0.84725 0.04105 0.25663 0.0
O1000 O 0.83709 0.02268 0.2493 0.0
O1001 O 0.90723 0.01083 0.28293 0.0
Zn1002 Zn 0.88485 0.01253 0.25793 0.0
O1003 O 0.86331 0.98603 0.25809 0.0
C1004 C 0.91423 0.02834 0.22315 0.0
O1005 O 0.91494 0.04637 0.23587 0.0
O1006 O 0.86792 0.04088 0.26124 0.0
C1007 C 0.86971 0.96654 0.25396 0.0
O1008 O 0.89097 0.96355 0.25029 0.0
C1009 C 0.90208 0.00504 0.3026 0.0
O1010 O 0.88115 1.0 0.30724 0.0
O1011 O 0.90197 0.01187 0.22896 0.0
C1012 C 0.30736 0.10826 0.50108 0.0
O1013 O 0.31189 0.12971 0.50167 0.0
O1014 O 0.2701 0.14342 0.46975 0.0
Zn1015 Zn 0.26303 0.12334 0.49549 0.0
O1016 O 0.23373 0.10657 0.48993 0.0
C1017 C 0.24597 0.15466 0.52824 0.0
O1018 O 0.22913 0.15496 0.51426 0.0
O1019 O 0.28727 0.10136 0.4984 0.0
C1020 C 0.22202 0.09887 0.50585 0.0
O1021 O 0.22908 0.10205 0.5265 0.0
C1022 C 0.2546 0.15147 0.45837 0.0
O1023 O 0.23379 0.14617 0.46327 0.0
O1024 O 0.26205 0.14219 0.52382 0.0
C1025 C 0.34215 0.53789 0.76001 0.0
O1026 O 0.33477 0.51772 0.76438 0.0
O1027 O 0.40221 0.51139 0.77529 0.0
Zn1028 Zn 0.3814 0.51403 0.74916 0.0
O1029 O 0.36081 0.48688 0.74514 0.0
C1030 C 0.41074 0.50075 0.7139 0.0
O1031 O 0.40756 0.48156 0.72347 0.0
O1032 O 0.3622 0.5409 0.75355 0.0
C1033 C 0.36412 0.46698 0.75034 0.0
O1034 O 0.38315 0.46198 0.75939 0.0
C1035 C 0.3964 0.50814 0.7954 0.0
O1036 O 0.37512 0.50591 0.80027 0.0
O1037 O 0.40079 0.51748 0.72169 0.0
C1038 C 0.71135 0.41558 0.49814 0.0
O1039 O 0.71493 0.40902 0.47741 0.0
O1040 O 0.74077 0.3674 0.48045 0.0
Zn1041 Zn 0.74787 0.38663 0.50816 0.0
O1042 O 0.77688 0.40416 0.50316 0.0
C1043 C 0.75649 0.34799 0.53582 0.0
O1044 O 0.76184 0.33834 0.51682 0.0
O1045 O 0.7233 0.40823 0.51367 0.0
C1046 C 0.79576 0.39686 0.50831 0.0
O1047 O 0.79669 0.37753 0.51782 0.0
C1048 C 0.75588 0.35682 0.47041 0.0
O1049 O 0.77643 0.35839 0.47787 0.0
O1050 O 0.75013 0.36786 0.53592 0.0
C1051 C 0.67373 0.97291 0.77339 0.0
O1052 O 0.68423 0.99058 0.76563 0.0
O1053 O 0.61512 0.00736 0.79526 0.0
Zn1054 Zn 0.63482 0.99983 0.76908 0.0
O1055 O 0.65547 0.02617 0.76256 0.0
C1056 C 0.61085 0.00509 0.72703 0.0
O1057 O 0.61856 0.02567 0.72881 0.0
O1058 O 0.65279 0.97323 0.77646 0.0
C1059 C 0.6495 0.04609 0.76461 0.0
O1060 O 0.62911 0.04998 0.77116 0.0
C1061 C 0.62371 0.01422 0.81368 0.0
O1062 O 0.64551 0.01615 0.81536 0.0
O1063 O 0.61561 0.9915 0.74208 0.0
C1064 C 0.99279 0.20821 0.89265 0.0
O1065 O 0.97518 0.20808 0.87966 0.0
O1066 O 0.97586 0.24804 0.85382 0.0
Zn1067 Zn 0.00395 0.25106 0.87241 0.0
O1068 O 0.00277 0.27839 0.89259 0.0
C1069 C 0.03843 0.2701 0.84308 0.0
O1070 O 0.02937 0.28902 0.8481 0.0
O1071 O 0.0069 0.22442 0.89207 0.0
C1072 C 0.99392 0.29608 0.88651 0.0
O1073 O 0.98578 0.29706 0.8662 0.0
C1074 C 0.95675 0.25026 0.86255 0.0
O1075 O 0.95533 0.25463 0.88411 0.0
O1076 O 0.03052 0.25241 0.85163 0.0
C1077 C 0.4925 0.72052 0.40117 0.0
O1078 O 0.47146 0.72198 0.39559 0.0
O1079 O 0.47112 0.74802 0.35511 0.0
Zn1080 Zn 0.49721 0.75923 0.374 0.0
O1081 O 0.48849 0.78573 0.39283 0.0
C1082 C 0.52681 0.78587 0.34536 0.0
O1083 O 0.51309 0.80186 0.34963 0.0
O1084 O 0.50663 0.73488 0.39409 0.0
C1085 C 0.503 0.79741 0.40371 0.0
O1086 O 0.52398 0.79207 0.40256 0.0
C1087 C 0.45743 0.76115 0.34686 0.0
O1088 O 0.46046 0.78257 0.35058 0.0
O1089 O 0.5231 0.767 0.35388 0.0
C1090 C 0.99137 0.78473 0.60286 0.0
O1091 O 0.97162 0.77568 0.60702 0.0
O1092 O 0.97659 0.75946 0.65306 0.0
Zn1093 Zn 0.00274 0.75186 0.6333 0.0
O1094 O 0.99482 0.72449 0.61467 0.0
C1095 C 0.02732 0.74145 0.67273 0.0
O1096 O 0.00703 0.73831 0.68049 0.0
O1097 O 0.00832 0.7772 0.61242 0.0
C1098 C 0.00926 0.71213 0.60593 0.0
O1099 O 0.03051 0.71699 0.60931 0.0
C1100 C 0.96087 0.74546 0.65715 0.0
O1101 O 0.96154 0.72538 0.64834 0.0
O1102 O 0.02994 0.74717 0.65254 0.0
C1103 C 0.50744 0.29244 0.10053 0.0
O1104 O 0.49818 0.27456 0.09105 0.0
O1105 O 0.47904 0.26924 0.15867 0.0
Zn1106 Zn 0.50616 0.26486 0.13942 0.0
O1107 O 0.50067 0.23814 0.11894 0.0
C1108 C 0.53419 0.24101 0.16863 0.0
O1109 O 0.51894 0.22527 0.16457 0.0
O1110 O 0.51239 0.29225 0.12119 0.0
C1111 C 0.51665 0.2284 0.10944 0.0
O1112 O 0.53719 0.23575 0.11322 0.0
C1113 C 0.46064 0.27502 0.15053 0.0
O1114 O 0.45923 0.27826 0.12895 0.0
O1115 O 0.53233 0.2597 0.15959 0.0
H1116 H 0.27268 0.79461 0.88333 0.0
H1117 H 0.20174 0.78757 0.89384 0.0
H1118 H 0.20437 0.81458 0.92484 0.0
H1119 H 0.22699 0.83981 0.94943 0.0
H1120 H 0.29807 0.84592 0.93911 0.0
H1121 H 0.29518 0.8195 0.90782 0.0
C1122 C 0.25781 0.79879 0.89254 0.0
C1123 C 0.23707 0.78901 0.88626 0.0
C1124 C 0.25945 0.81418 0.91044 0.0
C1125 C 0.21791 0.795 0.89813 0.0
C1126 C 0.2194 0.81037 0.91595 0.0
C1127 C 0.24183 0.83541 0.9403 0.0
C1128 C 0.2627 0.84487 0.94667 0.0
C1129 C 0.2401 0.82005 0.92229 0.0
C1130 C 0.28178 0.83891 0.93465 0.0
C1131 C 0.28017 0.82377 0.91671 0.0
H1132 H 0.01492 0.51316 0.35124 0.0
H1133 H 0.07663 0.51974 0.38806 0.0
H1134 H 0.09762 0.51289 0.35379 0.0
H1135 H 0.09851 0.50612 0.31315 0.0
H1136 H 0.03672 0.49999 0.27629 0.0
H1137 H 0.01576 0.50532 0.31078 0.0
C1138 C 0.03295 0.51281 0.3518 0.0
C1139 C 0.04418 0.51702 0.37217 0.0
C1140 C 0.04493 0.50899 0.332 0.0
C1141 C 0.06758 0.51681 0.37256 0.0
C1142 C 0.0796 0.51282 0.35298 0.0
C1143 C 0.08046 0.50583 0.31266 0.0
C1144 C 0.06925 0.50271 0.2921 0.0
C1145 C 0.06846 0.50909 0.33256 0.0
C1146 C 0.04583 0.50243 0.29182 0.0
C1147 C 0.03379 0.50547 0.31156 0.0
H1148 H 0.76043 0.69652 0.87195 0.0
H1149 H 0.76564 0.75229 0.91822 0.0
H1150 H 0.76104 0.72744 0.94966 0.0
H1151 H 0.75605 0.68992 0.96402 0.0
H1152 H 0.75025 0.63403 0.91787 0.0
H1153 H 0.75478 0.65887 0.88638 0.0
C1154 C 0.76065 0.70319 0.88893 0.0
C1155 C 0.76338 0.72621 0.89275 0.0
C1156 C 0.75797 0.68881 0.90694 0.0
C1157 C 0.76332 0.73467 0.91482 0.0
C1158 C 0.76083 0.72046 0.93281 0.0
C1159 C 0.75582 0.68313 0.94708 0.0
C1160 C 0.75291 0.66012 0.94332 0.0
C1161 C 0.75821 0.69751 0.92906 0.0
C1162 C 0.75246 0.65167 0.92125 0.0
C1163 C 0.75506 0.66586 0.90322 0.0
H1164 H 0.98726 0.00196 0.36438 0.0
H1165 H 0.93752 0.98015 0.41184 0.0
H1166 H 0.90837 0.98368 0.38387 0.0
H1167 H 0.89699 0.9925 0.3458 0.0
H1168 H 0.94671 0.01447 0.29831 0.0
H1169 H 0.97576 0.01157 0.32648 0.0
C1170 C 0.97001 0.99822 0.36867 0.0
C1171 C 0.96462 0.99072 0.39016 0.0
C1172 C 0.95329 1.00029 0.35249 0.0
C1173 C 0.94219 0.98565 0.39534 0.0
C1174 C 0.92548 0.98777 0.37939 0.0
C1175 C 0.91416 0.99671 0.3416 0.0
C1176 C 0.9196 0.00366 0.31993 0.0
C1177 C 0.93084 0.99495 0.35787 0.0
C1178 C 0.94199 0.00904 0.31483 0.0
C1179 C 0.95865 0.0074 0.33094 0.0
H1180 H 0.26366 0.21309 0.61594 0.0
H1181 H 0.19641 0.23158 0.60233 0.0
H1182 H 0.19497 0.20676 0.56953 0.0
H1183 H 0.21298 0.18026 0.54434 0.0
H1184 H 0.28019 0.16151 0.55803 0.0
H1185 H 0.28149 0.18602 0.59104 0.0
C1186 C 0.24874 0.21176 0.6057 0.0
C1187 C 0.23019 0.22419 0.61156 0.0
C1188 C 0.24801 0.19742 0.58686 0.0
C1189 C 0.21085 0.22204 0.59832 0.0
C1190 C 0.21005 0.20793 0.5795 0.0
C1191 C 0.22792 0.1815 0.55454 0.0
C1192 C 0.24647 0.16909 0.54863 0.0
C1193 C 0.22854 0.19558 0.57357 0.0
C1194 C 0.26564 0.17085 0.56215 0.0
C1195 C 0.26643 0.1849 0.58104 0.0
H1196 H 0.47745 0.49329 0.63276 0.0
H1197 H 0.47832 0.5645 0.64064 0.0
H1198 H 0.45194 0.56147 0.6715 0.0
H1199 H 0.42836 0.53864 0.69614 0.0
H1200 H 0.42842 0.46738 0.68906 0.0
H1201 H 0.45477 0.47042 0.65817 0.0
C1202 C 0.47212 0.50813 0.64142 0.0
C1203 C 0.47979 0.52908 0.63428 0.0
C1204 C 0.457 0.50629 0.65926 0.0
C1205 C 0.47244 0.54816 0.64554 0.0
C1206 C 0.4574 0.54646 0.66326 0.0
C1207 C 0.43407 0.52378 0.68778 0.0
C1208 C 0.42634 0.50283 0.69486 0.0
C1209 C 0.44944 0.52561 0.67016 0.0
C1210 C 0.43409 0.48373 0.68397 0.0
C1211 C 0.44918 0.48543 0.66629 0.0
H1212 H 0.75755 0.30737 0.6324 0.0
H1213 H 0.80329 0.26408 0.59961 0.0
H1214 H 0.79823 0.28305 0.5643 0.0
H1215 H 0.78121 0.31224 0.54303 0.0
H1216 H 0.73709 0.35716 0.57617 0.0
H1217 H 0.74107 0.33738 0.61111 0.0
C1218 C 0.76628 0.30216 0.61743 0.0
C1219 C 0.78064 0.2844 0.61833 0.0
C1220 C 0.76362 0.31345 0.59736 0.0
C1221 C 0.79213 0.27775 0.59908 0.0
C1222 C 0.78924 0.28857 0.57897 0.0
C1223 C 0.77237 0.31765 0.55787 0.0
C1224 C 0.75878 0.33606 0.55698 0.0
C1225 C 0.77507 0.30647 0.57794 0.0
C1226 C 0.74768 0.34304 0.57643 0.0
C1227 C 0.74992 0.33173 0.5964 0.0
H1228 H 0.55099 0.96031 0.65034 0.0
H1229 H 0.55437 0.02729 0.62668 0.0
H1230 H 0.57739 0.03904 0.65869 0.0
H1231 H 0.59664 0.03038 0.69329 0.0
H1232 H 0.59352 0.96344 0.71715 0.0
H1233 H 0.5705 0.95158 0.68509 0.0
C1234 C 0.55692 0.97743 0.65212 0.0
C1235 C 0.55091 0.9929 0.63617 0.0
C1236 C 0.57021 0.9841 0.67059 0.0
C1237 C 0.5585 0.0151 0.63886 0.0
C1238 C 0.57177 0.02182 0.6571 0.0
C1239 C 0.59096 0.01318 0.69151 0.0
C1240 C 0.59684 0.99784 0.70763 0.0
C1241 C 0.57769 0.00648 0.67308 0.0
C1242 C 0.58925 0.97563 0.70502 0.0
C1243 C 0.57609 0.96881 0.68667 0.0
H1244 H 0.86196 0.23332 0.81845 0.0
H1245 H 0.90194 0.23092 0.75865 0.0
H1246 H 0.93569 0.23845 0.78083 0.0
H1247 H 0.95385 0.24496 0.81732 0.0
H1248 H 0.91369 0.24773 0.87707 0.0
H1249 H 0.88003 0.24073 0.85481 0.0
C1250 C 0.87809 0.23433 0.81031 0.0
C1251 C 0.87948 0.23146 0.78697 0.0
C1252 C 0.89738 0.23872 0.82315 0.0
C1253 C 0.90044 0.23321 0.77658 0.0
C1254 C 0.91973 0.23742 0.78926 0.0
C1255 C 0.93774 0.24406 0.82548 0.0
C1256 C 0.93634 0.24678 0.84885 0.0
C1257 C 0.9184 0.24011 0.81257 0.0
C1258 C 0.91529 0.24571 0.85912 0.0
C1259 C 0.89601 0.24166 0.84641 0.0
H1260 H 0.45996 0.87482 0.45976 0.0
H1261 H 0.52935 0.89163 0.47252 0.0
H1262 H 0.5402 0.85989 0.44969 0.0
H1263 H 0.53014 0.8274 0.42605 0.0
H1264 H 0.46086 0.81102 0.41231 0.0
H1265 H 0.4499 0.84272 0.43529 0.0
C1266 C 0.47746 0.87169 0.45737 0.0
C1267 C 0.49377 0.88558 0.468 0.0
C1268 C 0.48365 0.85348 0.44401 0.0
C1269 C 0.51639 0.88103 0.46491 0.0
C1270 C 0.52264 0.86295 0.45172 0.0
C1271 C 0.51263 0.83073 0.42806 0.0
C1272 C 0.49637 0.81678 0.41749 0.0
C1273 C 0.50643 0.84903 0.44124 0.0
C1274 C 0.47376 0.82145 0.42025 0.0
C1275 C 0.46746 0.83959 0.43341 0.0
H1276 H 0.11789 0.25105 0.77699 0.0
H1277 H 0.11742 0.32212 0.77165 0.0
H1278 H 0.08645 0.32358 0.79802 0.0
H1279 H 0.0595 0.3047 0.82254 0.0
H1280 H 0.05994 0.23357 0.82795 0.0
H1281 H 0.0908 0.23212 0.8015 0.0
C1282 C 0.11086 0.26682 0.78145 0.0
C1283 C 0.11994 0.28644 0.77237 0.0
C1284 C 0.09307 0.26755 0.79665 0.0
C1285 C 0.11088 0.3068 0.77858 0.0
C1286 C 0.09311 0.30764 0.79359 0.0
C1287 C 0.06633 0.28887 0.81797 0.0
C1288 C 0.05737 0.26929 0.82725 0.0
C1289 C 0.08411 0.28813 0.80277 0.0
C1290 C 0.06649 0.24892 0.8211 0.0
C1291 C 0.08415 0.24806 0.80595 0.0
H1292 H 0.53671 0.6501 0.46226 0.0
H1293 H 0.46842 0.62568 0.46525 0.0
H1294 H 0.4572 0.65461 0.44024 0.0
H1295 H 0.46648 0.6875 0.41856 0.0
H1296 H 0.53463 0.71255 0.41571 0.0
H1297 H 0.5462 0.68273 0.43954 0.0
C1298 C 0.51944 0.651 0.45719 0.0
C1299 C 0.5034 0.63587 0.46565 0.0
C1300 C 0.51304 0.66787 0.44296 0.0
C1301 C 0.48103 0.63731 0.45914 0.0
C1302 C 0.4746 0.65382 0.44482 0.0
C1303 C 0.48388 0.68645 0.4231 0.0
C1304 C 0.49962 0.70231 0.41541 0.0
C1305 C 0.49041 0.66934 0.43685 0.0
C1306 C 0.52212 0.70062 0.42144 0.0
C1307 C 0.52877 0.68354 0.43506 0.0
H1308 H 0.89094 0.7844 0.72491 0.0
H1309 H 0.8635 0.71753 0.71851 0.0
H1310 H 0.89267 0.70823 0.69187 0.0
H1311 H 0.92636 0.71883 0.67099 0.0
H1312 H 0.95402 0.78565 0.67747 0.0
H1313 H 0.92423 0.79526 0.70328 0.0
C1314 C 0.89121 0.76787 0.71748 0.0
C1315 C 0.87511 0.75167 0.72374 0.0
C1316 C 0.90808 0.7626 0.70222 0.0
C1317 C 0.87586 0.73023 0.71419 0.0
C1318 C 0.89248 0.72492 0.69889 0.0
C1319 C 0.92586 0.73552 0.67798 0.0
C1320 C 0.94245 0.75146 0.67232 0.0
C1321 C 0.90877 0.74092 0.69291 0.0
C1322 C 0.94151 0.77302 0.68155 0.0
C1323 C 0.92447 0.77855 0.69633 0.0
H1324 H 0.98427 0.86537 0.53843 0.0
H1325 H 0.05581 0.86092 0.53896 0.0
H1326 H 0.0527 0.82991 0.56436 0.0
H1327 H 0.02962 0.80392 0.5864 0.0
H1328 H 0.95801 0.80776 0.58463 0.0
H1329 H 0.96124 0.83887 0.55946 0.0
C1330 C 0.99919 0.85745 0.54383 0.0
C1331 C 0.02024 0.86554 0.53677 0.0
C1332 C 0.99729 0.83946 0.55823 0.0
C1333 C 0.0394 0.85528 0.54435 0.0
C1334 C 0.03764 0.83744 0.55879 0.0
C1335 C 0.01472 0.81157 0.58052 0.0
C1336 C 0.99362 0.80352 0.58745 0.0
C1337 C 0.01666 0.82942 0.56589 0.0
C1338 C 0.97448 0.81357 0.57956 0.0
C1339 C 0.97629 0.8314 0.56517 0.0
H1340 H 0.09848 0.73421 0.74953 0.0
H1341 H 0.14315 0.73274 0.6932 0.0
H1342 H 0.11158 0.73521 0.66754 0.0
H1343 H 0.07121 0.73866 0.66129 0.0
H1344 H 0.02683 0.73905 0.71803 0.0
H1345 H 0.05832 0.73626 0.7433 0.0
C1346 C 0.10128 0.73452 0.73163 0.0
C1347 C 0.12308 0.73348 0.72325 0.0
C1348 C 0.08311 0.73579 0.71705 0.0
C1349 C 0.12648 0.73345 0.70002 0.0
C1350 C 0.10846 0.73496 0.68537 0.0
C1351 C 0.06846 0.73813 0.67918 0.0
C1352 C 0.04668 0.73918 0.68773 0.0
C1353 C 0.08669 0.73628 0.69371 0.0
C1354 C 0.04338 0.73825 0.71096 0.0
C1355 C 0.0614 0.73669 0.72547 0.0
H1356 H 0.96365 0.63558 0.54657 0.0
H1357 H 0.03194 0.6166 0.54003 0.0
H1358 H 0.04415 0.64835 0.5635 0.0
H1359 H 0.03539 0.68131 0.58625 0.0
H1360 H 0.96687 0.69945 0.59357 0.0
H1361 H 0.95483 0.66797 0.56978 0.0
C1362 C 0.98119 0.6382 0.55047 0.0
C1363 C 0.99682 0.62366 0.54152 0.0
C1364 C 0.98807 0.65632 0.5642 0.0
C1365 C 0.01954 0.62765 0.54642 0.0
C1366 C 0.02654 0.64574 0.55998 0.0
C1367 C 0.01782 0.67838 0.58266 0.0
C1368 C 0.00209 0.69277 0.5917 0.0
C1369 C 0.01095 0.66017 0.56898 0.0
C1370 C 0.97938 0.68867 0.58688 0.0
C1371 C 0.97244 0.67067 0.57324 0.0
H1372 H 0.81206 0.87751 0.24084 0.0
H1373 H 0.75876 0.92251 0.25155 0.0
H1374 H 0.78583 0.95332 0.25681 0.0
H1375 H 0.82457 0.96768 0.25759 0.0
H1376 H 0.87793 0.92285 0.24614 0.0
H1377 H 0.85089 0.89187 0.2418 0.0
C1378 C 0.80636 0.89409 0.24416 0.0
C1379 C 0.78339 0.89765 0.2458 0.0
C1380 C 0.82203 0.91179 0.24703 0.0
C1381 C 0.77633 0.91921 0.25047 0.0
C1382 C 0.7918 0.93688 0.25336 0.0
C1383 C 0.83032 0.95113 0.25423 0.0
C1384 C 0.85328 0.94765 0.25218 0.0
C1385 C 0.81468 0.93338 0.25163 0.0
C1386 C 0.86038 0.92606 0.24779 0.0
C1387 C 0.84492 0.90831 0.24528 0.0
H1388 H 0.80642 0.13504 0.27394 0.0
H1389 H 0.74592 0.09706 0.25825 0.0
H1390 H 0.76714 0.06385 0.25242 0.0
H1391 H 0.80268 0.0454 0.252 0.0
H1392 H 0.86331 0.08273 0.26863 0.0
H1393 H 0.84219 0.11626 0.27411 0.0
C1394 C 0.79786 0.11947 0.26943 0.0
C1395 C 0.77458 0.11867 0.26639 0.0
C1396 C 0.81018 0.10027 0.26629 0.0
C1397 C 0.76383 0.09833 0.2603 0.0
C1398 C 0.77594 0.07925 0.25711 0.0
C1399 C 0.81134 0.06086 0.25679 0.0
C1400 C 0.83458 0.0615 0.25985 0.0
C1401 C 0.79911 0.08003 0.26001 0.0
C1402 C 0.84544 0.08171 0.26615 0.0
C1403 C 0.83337 0.10092 0.26929 0.0
H1404 H 0.39231 0.94835 0.98962 0.0
H1405 H 0.35185 0.00476 0.97984 0.0
H1406 H 0.31814 0.98214 0.98745 0.0
H1407 H 0.30024 0.9462 0.99664 0.0
H1408 H 0.34101 0.89026 0.00826 0.0
H1409 H 0.37452 0.91277 1.00022 0.0
C1410 C 0.37607 0.95559 0.98908 0.0
C1411 C 0.37445 0.97807 0.98405 0.0
C1412 C 0.35686 0.9426 0.99385 0.0
C1413 C 0.35342 0.98746 0.98373 0.0
C1414 C 0.33418 0.97454 0.98803 0.0
C1415 C 0.31646 0.93895 0.99741 0.0
C1416 C 0.31812 0.91658 0.00294 0.0
C1417 C 0.33571 0.95208 0.99308 0.0
C1418 C 0.33927 0.90747 0.0041 0.0
C1419 C 0.35845 0.92031 0.99944 0.0
H1420 H 0.21979 0.39139 0.24485 0.0
H1421 H 0.23057 0.40267 0.31549 0.0
H1422 H 0.20449 0.43278 0.31564 0.0
H1423 H 0.17814 0.45544 0.29586 0.0
H1424 H 0.16643 0.44351 0.22536 0.0
H1425 H 0.19332 0.41418 0.22499 0.0
C1426 C 0.21656 0.40062 0.2602 0.0
C1427 C 0.22708 0.39488 0.28012 0.0
C1428 C 0.2013 0.41771 0.26022 0.0
C1429 C 0.22254 0.40673 0.29998 0.0
C1430 C 0.20767 0.42394 0.30007 0.0
C1431 C 0.18147 0.44646 0.28039 0.0
C1432 C 0.17026 0.4517 0.26068 0.0
C1433 C 0.19683 0.42948 0.28032 0.0
C1434 C 0.17476 0.43981 0.24081 0.0
C1435 C 0.19018 0.42304 0.24056 0.0
H1436 H 0.13958 0.03982 0.47089 0.0
H1437 H 0.12779 0.03569 0.54182 0.0
H1438 H 0.16004 0.06046 0.54935 0.0
H1439 H 0.19254 0.08192 0.53597 0.0
H1440 H 0.20452 0.08633 0.46506 0.0
H1441 H 0.17114 0.06308 0.45738 0.0
C1442 C 0.14389 0.04462 0.48797 0.0
C1443 C 0.13141 0.03574 0.50576 0.0
C1444 C 0.16256 0.05884 0.49221 0.0
C1445 C 0.13733 0.04198 0.52782 0.0
C1446 C 0.15573 0.0562 0.53216 0.0
C1447 C 0.18783 0.07789 0.51882 0.0
C1448 C 0.20114 0.08574 0.50115 0.0
C1449 C 0.16866 0.06446 0.5145 0.0
C1450 C 0.19465 0.08045 0.47902 0.0
C1451 C 0.17555 0.06714 0.47459 0.0
H1452 H 0.72709 0.11427 0.73899 0.0
H1453 H 0.67193 0.15773 0.73539 0.0
H1454 H 0.64622 0.12754 0.74633 0.0
H1455 H 0.63945 0.08874 0.75677 0.0
H1456 H 0.69453 0.04496 0.75909 0.0
H1457 H 0.72026 0.07535 0.74897 0.0
C1458 C 0.70945 0.11713 0.74076 0.0
C1459 C 0.7014 0.13818 0.73647 0.0
C1460 C 0.69477 0.09966 0.74684 0.0
C1461 C 0.67848 0.14161 0.73846 0.0
C1462 C 0.6638 0.12439 0.7448 0.0
C1463 C 0.65709 0.08587 0.75516 0.0
C1464 C 0.66506 0.06463 0.75876 0.0
C1465 C 0.67176 0.10334 0.74901 0.0
C1466 C 0.68795 0.06114 0.75638 0.0
C1467 C 0.70268 0.07851 0.75061 0.0
H1468 H 0.37205 0.02979 0.51687 0.0
H1469 H 0.41888 0.08498 0.52685 0.0
H1470 H 0.38997 0.11084 0.51826 0.0
H1471 H 0.35114 0.1179 0.50939 0.0
H1472 H 0.30386 0.06291 0.49999 0.0
H1473 H 0.33319 0.03689 0.5067 0.0
C1474 C 0.37594 0.04746 0.51687 0.0
C1475 C 0.39752 0.05547 0.5226 0.0
C1476 C 0.35914 0.06229 0.51214 0.0
C1477 C 0.40231 0.07843 0.52276 0.0
C1478 C 0.38581 0.09322 0.51781 0.0
C1479 C 0.34723 0.10022 0.5087 0.0
C1480 C 0.32529 0.09241 0.50427 0.0
C1481 C 0.36411 0.08536 0.51275 0.0
C1482 C 0.32058 0.06942 0.50343 0.0
C1483 C 0.33735 0.0545 0.50726 0.0
H1484 H 0.6412 0.48279 0.53533 0.0
H1485 H 0.62219 0.48145 0.46574 0.0
H1486 H 0.65129 0.4555 0.45712 0.0
H1487 H 0.68206 0.43303 0.46924 0.0
H1488 H 0.70072 0.4337 0.53893 0.0
H1489 H 0.67169 0.45979 0.54758 0.0
C1490 C 0.64328 0.47667 0.51831 0.0
C1491 C 0.62954 0.48421 0.50121 0.0
C1492 C 0.65999 0.46157 0.51346 0.0
C1493 C 0.63272 0.47627 0.4792 0.0
C1494 C 0.64928 0.4613 0.47425 0.0
C1495 C 0.67981 0.43886 0.48634 0.0
C1496 C 0.69362 0.43138 0.50338 0.0
C1497 C 0.66305 0.45386 0.49123 0.0
C1498 C 0.69037 0.43914 0.52544 0.0
C1499 C 0.67375 0.45409 0.53043 0.0
H1500 H 0.72835 0.30569 0.38128 0.0
H1501 H 0.76642 0.25511 0.41206 0.0
H1502 H 0.77448 0.27987 0.44374 0.0
H1503 H 0.77082 0.31585 0.46305 0.0
H1504 H 0.72856 0.3643 0.43522 0.0
H1505 H 0.72136 0.34 0.40238 0.0
C1506 C 0.73801 0.2997 0.39501 0.0
C1507 C 0.747 0.27842 0.39374 0.0
C1508 C 0.74175 0.31365 0.41387 0.0
C1509 C 0.75983 0.27153 0.41186 0.0
C1510 C 0.76427 0.28561 0.43027 0.0
C1511 C 0.75999 0.32101 0.44977 0.0
C1512 C 0.75039 0.34182 0.45129 0.0
C1513 C 0.75542 0.30672 0.43139 0.0
C1514 C 0.7361 0.34829 0.43429 0.0
C1515 C 0.73207 0.33445 0.41554 0.0
H1516 H 0.57633 0.04371 0.90326 0.0
H1517 H 0.51787 0.02617 0.86386 0.0
H1518 H 0.54132 0.01588 0.83225 0.0
H1519 H 0.57838 0.01209 0.81567 0.0
H1520 H 0.63688 0.02995 0.85494 0.0
H1521 H 0.61344 0.04009 0.88659 0.0
C1522 C 0.56872 0.03782 0.88769 0.0
C1523 C 0.54537 0.0357 0.88597 0.0
C1524 C 0.5823 0.032 0.86953 0.0
C1525 C 0.5358 0.0277 0.86576 0.0
C1526 C 0.54919 0.02192 0.84762 0.0
C1527 C 0.58603 0.01819 0.83115 0.0
C1528 C 0.60938 0.02024 0.83288 0.0
C1529 C 0.57246 0.02399 0.84932 0.0
C1530 C 0.61897 0.02818 0.8531 0.0
C1531 C 0.60557 0.034 0.87123 0.0
H1532 H 0.29152 0.22035 0.38829 0.0
H1533 H 0.22133 0.22313 0.3737 0.0
H1534 H 0.21298 0.19537 0.40177 0.0
H1535 H 0.22544 0.17087 0.43092 0.0
H1536 H 0.29563 0.16766 0.44541 0.0
H1537 H 0.30413 0.19477 0.41668 0.0
C1538 C 0.27442 0.21468 0.39106 0.0
C1539 C 0.25708 0.22393 0.37899 0.0
C1540 C 0.26972 0.19864 0.40721 0.0
C1541 C 0.23498 0.21657 0.38301 0.0
C1542 C 0.23019 0.20061 0.39897 0.0
C1543 C 0.24262 0.17602 0.42777 0.0
C1544 C 0.25985 0.16727 0.44037 0.0
C1545 C 0.2474 0.19166 0.41129 0.0
C1546 C 0.28202 0.17412 0.43599 0.0
C1547 C 0.28691 0.18966 0.41957 0.0
H1548 H 0.48071 0.506 0.85836 0.0
H1549 H 0.42988 0.4909 0.90714 0.0
H1550 H 0.40104 0.49357 0.87861 0.0
H1551 H 0.3903 0.49962 0.83961 0.0
H1552 H 0.44138 0.51432 0.79082 0.0
H1553 H 0.46998 0.51252 0.81954 0.0
C1554 C 0.4633 0.50356 0.86279 0.0
C1555 C 0.45745 0.49828 0.88483 0.0
C1556 C 0.44682 0.50497 0.84627 0.0
C1557 C 0.43483 0.4948 0.89024 0.0
C1558 C 0.41833 0.49638 0.87395 0.0
C1559 C 0.40768 0.50246 0.83526 0.0
C1560 C 0.41362 0.50707 0.81306 0.0
C1561 C 0.42413 0.50131 0.85187 0.0
C1562 C 0.43627 0.51069 0.80775 0.0
C1563 C 0.45268 0.50969 0.82417 0.0
H1564 H 0.7518 0.75633 0.10362 0.0
H1565 H 0.72485 0.70511 0.14608 0.0
H1566 H 0.72797 0.67784 0.11567 0.0
H1567 H 0.73859 0.66838 0.07702 0.0
H1568 H 0.76717 0.71935 0.03526 0.0
H1569 H 0.76348 0.74671 0.0655 0.0
C1570 C 0.74688 0.73916 0.10636 0.0
C1571 C 0.73802 0.73289 0.12715 0.0
C1572 C 0.74901 0.72345 0.0889 0.0
C1573 C 0.73137 0.71056 0.13017 0.0
C1574 C 0.73328 0.69488 0.11282 0.0
C1575 C 0.74397 0.68548 0.07453 0.0
C1576 C 0.75309 0.69179 0.05388 0.0
C1577 C 0.74203 0.70114 0.09209 0.0
C1578 C 0.76013 0.714 0.05098 0.0
C1579 C 0.75801 0.72969 0.06827 0.0
H1580 H 0.97212 0.00628 0.13773 0.0
H1581 H 0.9888 0.07614 0.14462 0.0
H1582 H 0.96466 0.07889 0.17734 0.0
H1583 H 0.93889 0.06147 0.20403 0.0
H1584 H 0.9214 0.99172 0.19678 0.0
H1585 H 0.9457 0.98892 0.16421 0.0
C1586 C 0.97054 0.02204 0.14652 0.0
C1587 C 0.98223 0.04097 0.13882 0.0
C1588 C 0.95643 0.02355 0.1652 0.0
C1589 C 0.97983 0.06138 0.15015 0.0
C1590 C 0.96609 0.06295 0.16889 0.0
C1591 C 0.94036 0.04565 0.19533 0.0
C1592 C 0.92836 0.02685 0.2029 0.0
C1593 C 0.95428 0.04416 0.17654 0.0
C1594 C 0.9304 0.0065 0.19131 0.0
C1595 C 0.94435 0.00485 0.1727 0.0
H1596 H 0.27367 0.81427 0.12786 0.0
H1597 H 0.2615 0.75161 0.09312 0.0
H1598 H 0.25319 0.77087 0.05886 0.0
H1599 H 0.25013 0.80545 0.03854 0.0
H1600 H 0.26301 0.86813 0.07311 0.0
H1601 H 0.27049 0.84888 0.10757 0.0
C1602 C 0.26938 0.80483 0.11275 0.0
C1603 C 0.26824 0.78153 0.11308 0.0
C1604 C 0.26477 0.816 0.09305 0.0
C1605 C 0.26226 0.76955 0.09342 0.0
C1606 C 0.25762 0.78055 0.07377 0.0
C1607 C 0.25451 0.81493 0.05361 0.0
C1608 C 0.25602 0.83821 0.05319 0.0
C1609 C 0.25888 0.80376 0.07338 0.0
C1610 C 0.26173 0.8502 0.07292 0.0
C1611 C 0.26603 0.8392 0.09265 0.0
H1612 H 0.03422 0.44381 0.12701 0.0
H1613 H 0.03634 0.5142 0.1161 0.0
H1614 H 0.05896 0.52046 0.14976 0.0
H1615 H 0.07876 0.50586 0.18192 0.0
H1616 H 0.07677 0.43535 0.19252 0.0
H1617 H 0.05371 0.42926 0.15926 0.0
C1618 C 0.03977 0.46051 0.1319 0.0
C1619 C 0.03363 0.47849 0.11899 0.0
C1620 C 0.05286 0.46398 0.1512 0.0
C1621 C 0.04063 0.50007 0.12583 0.0
C1622 C 0.05368 0.50366 0.14501 0.0
C1623 C 0.07328 0.48916 0.17697 0.0
C1624 C 0.07958 0.4711 0.18971 0.0
C1625 C 0.05996 0.48573 0.15779 0.0
C1626 C 0.07223 0.44958 0.18306 0.0
C1627 C 0.05903 0.44605 0.16401 0.0
H1628 H 0.38179 0.70978 0.29083 0.0
H1629 H 0.36042 0.77653 0.28268 0.0
H1630 H 0.39171 0.7909 0.30534 0.0
H1631 H 0.42522 0.78463 0.32733 0.0
H1632 H 0.44655 0.71789 0.33588 0.0
H1633 H 0.4151 0.70344 0.31342 0.0
C1634 C 0.38386 0.72744 0.2942 0.0
C1635 C 0.36881 0.74204 0.28498 0.0
C1636 C 0.4019 0.73563 0.30732 0.0
C1637 C 0.37192 0.76493 0.28929 0.0
C1638 C 0.38975 0.77317 0.30235 0.0
C1639 C 0.42302 0.76691 0.32431 0.0
C1640 C 0.43828 0.7524 0.33328 0.0
C1641 C 0.4049 0.75869 0.31137 0.0
C1642 C 0.43509 0.72948 0.32918 0.0
C1643 C 0.41709 0.72118 0.31633 0.0
H1644 H 0.98389 0.36552 0.96604 0.0
H1645 H 0.96817 0.40731 0.91105 0.0
H1646 H 0.97416 0.37683 0.88465 0.0
H1647 H 0.98299 0.33808 0.8771 0.0
H1648 H 1.00029 0.29662 0.93177 0.0
H1649 H 0.99501 0.32735 0.95827 0.0
C1650 C 0.9821 0.36811 0.94827 0.0
C1651 C 0.97532 0.3887 0.94065 0.0
C1652 C 0.98586 0.35055 0.93307 0.0
C1653 C 0.97286 0.39155 0.91751 0.0
C1654 C 0.97644 0.37415 0.90234 0.0
C1655 C 0.98567 0.33577 0.89481 0.0
C1656 C 0.99189 0.31503 0.90243 0.0
C1657 C 0.98272 0.35352 0.90994 0.0
C1658 C 0.9955 0.3124 0.92543 0.0
C1659 C 0.99243 0.32996 0.94061 0.0
H1660 H 0.6059 0.81599 0.28177 0.0
H1661 H 0.61975 0.74665 0.28597 0.0
H1662 H 0.58797 0.74096 0.31083 0.0
H1663 H 0.55608 0.75547 0.33101 0.0
H1664 H 0.54162 0.82471 0.32674 0.0
H1665 H 0.57386 0.83067 0.3024 0.0
C1666 C 0.60203 0.7997 0.2883 0.0
C1667 C 0.6151 0.78175 0.28197 0.0
C1668 C 0.58362 0.79651 0.30253 0.0
C1669 C 0.60977 0.76067 0.29036 0.0
C1670 C 0.59166 0.75742 0.30465 0.0
C1671 C 0.55996 0.7719 0.32481 0.0
C1672 C 0.54641 0.78961 0.33071 0.0
C1673 C 0.57841 0.77518 0.31075 0.0
C1674 C 0.55172 0.81076 0.32245 0.0
C1675 C 0.57018 0.81419 0.30854 0.0
H1676 H 0.98892 0.12876 0.95942 0.0
H1677 H 0.05832 0.14818 0.96708 0.0
H1678 H 0.05426 0.17739 0.93982 0.0
H1679 H 0.03066 0.19794 0.91452 0.0
H1680 H 0.96149 0.17754 0.90605 0.0
H1681 H 0.96575 0.14822 0.93295 0.0
C1682 C 0.00311 0.13945 0.95512 0.0
C1683 C 0.02384 0.13648 0.9653 0.0
C1684 C 1.00068 0.15602 0.93934 0.0
C1685 C 0.04222 0.15014 0.95935 0.0
C1686 C 0.03988 0.16687 0.94387 0.0
C1687 C 0.01653 0.18707 0.91856 0.0
C1688 C 0.99576 0.19002 0.90839 0.0
C1689 C 0.01915 0.17006 0.93386 0.0
C1690 C 0.97767 0.17563 0.91361 0.0
C1691 C 0.98007 0.15888 0.92903 0.0
H1692 H 0.3688 0.28892 0.19964 0.0
H1693 H 0.40814 0.27107 0.25636 0.0
H1694 H 0.44076 0.26763 0.23244 0.0
H1695 H 0.45806 0.2692 0.19542 0.0
H1696 H 0.41895 0.28715 0.13855 0.0
H1697 H 0.38642 0.29124 0.16256 0.0
C1698 C 0.38457 0.2845 0.20679 0.0
C1699 C 0.38597 0.28015 0.22974 0.0
C1700 C 0.40332 0.28254 0.19292 0.0
C1701 C 0.4065 0.27419 0.23869 0.0
C1702 C 0.4252 0.27232 0.22505 0.0
C1703 C 0.44245 0.27405 0.18824 0.0
C1704 C 0.44099 0.27782 0.16518 0.0
C1705 C 0.42378 0.27632 0.20212 0.0
C1706 C 0.42058 0.28411 0.15623 0.0
C1707 C 0.40194 0.28646 0.16995 0.0
H1708 H 0.52552 0.38623 0.05786 0.0
H1709 H 0.50483 0.34902 0.99853 0.0
H1710 H 0.50048 0.31543 0.02016 0.0
H1711 H 0.50155 0.29679 0.05594 0.0
H1712 H 0.52257 0.33352 0.11545 0.0
H1713 H 0.52805 0.36704 0.09367 0.0
C1714 C 0.52033 0.3707 0.04963 0.0
C1715 C 0.51532 0.3702 0.02664 0.0
C1716 C 0.51786 0.35137 0.06219 0.0
C1717 C 0.50841 0.34997 0.01627 0.0
C1718 C 0.50601 0.33072 0.02861 0.0
C1719 C 0.50738 0.31209 0.06419 0.0
C1720 C 0.51152 0.31263 0.08732 0.0
C1721 C 0.51046 0.33127 0.0516 0.0
C1722 C 0.5192 0.33262 0.09766 0.0
C1723 C 0.52233 0.35181 0.08522 0.0
H1724 H 0.60976 0.20857 0.23223 0.0
H1725 H 0.62823 0.27825 0.23243 0.0
H1726 H 0.59731 0.28507 0.20726 0.0
H1727 H 0.56498 0.27125 0.18527 0.0
H1728 H 0.54612 0.2016 0.18558 0.0
H1729 H 0.57731 0.19475 0.21031 0.0
C1730 C 0.60709 0.22521 0.22662 0.0
C1731 C 0.62126 0.24287 0.23417 0.0
C1732 C 0.58922 0.22902 0.21224 0.0
C1733 C 0.61742 0.26441 0.22702 0.0
C1734 C 0.59981 0.2683 0.21256 0.0
C1735 C 0.56772 0.25456 0.19069 0.0
C1736 C 0.55323 0.23697 0.18354 0.0
C1737 C 0.58558 0.25074 0.20509 0.0
C1738 C 0.55696 0.21547 0.19085 0.0
C1739 C 0.57482 0.21151 0.20499 0.0
H1740 H 0.51277 0.14291 0.04655 0.0
H1741 H 0.44289 0.15719 0.04667 0.0
H1742 H 0.45037 0.18944 0.07113 0.0
H1743 H 0.47661 0.21342 0.09281 0.0
H1744 H 0.54666 0.19996 0.09182 0.0
H1745 H 0.53926 0.16777 0.06714 0.0
C1746 C 0.4992 0.15323 0.05167 0.0
C1747 C 0.47727 0.14748 0.04487 0.0
C1748 C 0.50363 0.17191 0.06562 0.0
C1749 C 0.45988 0.16094 0.05195 0.0
C1750 C 0.46415 0.17948 0.06586 0.0
C1751 C 0.49027 0.20344 0.08722 0.0
C1752 C 0.51214 0.20905 0.09425 0.0
C1753 C 0.48593 0.18504 0.07292 0.0
C1754 C 0.52966 0.19603 0.08668 0.0
C1755 C 0.52544 0.1776 0.07257 0.0
H1756 H 0.27779 0.40625 0.73344 0.0
H1757 H 0.32599 0.35517 0.73343 0.0
H1758 H 0.35603 0.38315 0.74005 0.0
H1759 H 0.36837 0.42225 0.74651 0.0
H1760 H 0.31989 0.47316 0.74487 0.0
H1761 H 0.29017 0.44516 0.7384 0.0
C1762 C 0.29488 0.40127 0.73495 0.0
C1763 C 0.29971 0.37873 0.73314 0.0
C1764 C 0.31198 0.41741 0.73854 0.0
C1765 C 0.32193 0.37247 0.73471 0.0
C1766 C 0.33906 0.38844 0.73859 0.0
C1767 C 0.35129 0.42717 0.74479 0.0
C1768 C 0.34634 0.44974 0.7463 0.0
C1769 C 0.33426 0.41097 0.74067 0.0
C1770 C 0.32417 0.4559 0.74375 0.0
C1771 C 0.30714 0.43991 0.74007 0.0
H1772 H 0.26387 0.60462 0.76602 0.0
H1773 H 0.31897 0.65229 0.76962 0.0
H1774 H 0.34534 0.62234 0.76659 0.0
H1775 H 0.35259 0.58238 0.76281 0.0
H1776 H 0.29698 0.53501 0.76104 0.0
H1777 H 0.27101 0.56498 0.76336 0.0
C1778 C 0.28166 0.60842 0.76599 0.0
C1779 C 0.2895 0.63058 0.76784 0.0
C1780 C 0.29663 0.59115 0.76459 0.0
C1781 C 0.31258 0.63531 0.76824 0.0
C1782 C 0.32763 0.61821 0.76645 0.0
C1783 C 0.33479 0.57866 0.7629 0.0
C1784 C 0.32677 0.55647 0.76168 0.0
C1785 C 0.31984 0.59604 0.7646 0.0
C1786 C 0.30365 0.55191 0.76203 0.0
C1787 C 0.28874 0.56905 0.76331 0.0
H1788 H 0.89149 0.43522 0.48285 0.0
H1789 H 0.85541 0.49527 0.47832 0.0
H1790 H 0.82076 0.47522 0.48829 0.0
H1791 H 0.80081 0.44054 0.49839 0.0
H1792 H 0.83748 0.38094 0.50495 0.0
H1793 H 0.87178 0.40083 0.49417 0.0
C1794 C 0.87598 0.44381 0.48394 0.0
C1795 C 0.87586 0.46658 0.47972 0.0
C1796 C 0.85628 0.43228 0.49013 0.0
C1797 C 0.8558 0.47771 0.48152 0.0
C1798 C 0.83604 0.46626 0.48719 0.0
C1799 C 0.81631 0.43192 0.49745 0.0
C1800 C 0.81656 0.40928 0.5024 0.0
C1801 C 0.83608 0.44354 0.49156 0.0
C1802 C 0.83682 0.39838 0.50131 0.0
C1803 C 0.85645 0.40972 0.49508 0.0
H1804 H 0.71152 0.87841 0.79009 0.0
H1805 H 0.77274 0.91294 0.7717 0.0
H1806 H 0.75293 0.94717 0.76777 0.0
H1807 H 0.71816 0.96711 0.76864 0.0
H1808 H 0.65686 0.93281 0.78729 0.0
H1809 H 0.67685 0.89881 0.79236 0.0
C1810 C 0.72058 0.89349 0.7855 0.0
C1811 C 0.74357 0.89304 0.78106 0.0
C1812 C 0.70908 0.91317 0.7833 0.0
C1813 C 0.75498 0.9127 0.77486 0.0
C1814 C 0.74369 0.93233 0.77272 0.0
C1815 C 0.70914 0.95224 0.7739 0.0
C1816 C 0.68601 0.95254 0.77748 0.0
C1817 C 0.72071 0.93271 0.7767 0.0
C1818 C 0.67466 0.93309 0.78437 0.0
C1819 C 0.68608 0.9136 0.78725 0.0
H1820 H 0.63076 0.53768 0.02782 0.0
H1821 H 0.6342 0.54448 0.95626 0.0
H1822 H 0.66574 0.57091 0.96058 0.0
H1823 H 0.69289 0.59154 0.98462 0.0
H1824 H 0.68989 0.58395 0.05614 0.0
H1825 H 0.65787 0.55819 0.05181 0.0
C1826 C 0.63852 0.54477 0.01313 0.0
C1827 C 0.63009 0.53903 0.99174 0.0
C1828 C 0.6568 0.5598 0.01571 0.0
C1829 C 0.64013 0.54877 0.97295 0.0
C1830 C 0.65828 0.56379 0.97539 0.0
C1831 C 0.68522 0.58429 0.99928 0.0
C1832 C 0.69385 0.5897 0.02068 0.0
C1833 C 0.66681 0.56938 0.99669 0.0
C1834 C 0.68366 0.5801 0.03946 0.0
C1835 C 0.66532 0.56534 0.03702 0.0
H1836 H 0.17593 0.63852 0.21796 0.0
H1837 H 0.23499 0.60325 0.23321 0.0
H1838 H 0.21216 0.56989 0.24064 0.0
H1839 H 0.17555 0.55032 0.24123 0.0
H1840 H 0.11656 0.58564 0.22555 0.0
H1841 H 0.13928 0.61931 0.21965 0.0
C1842 C 0.18381 0.6235 0.22283 0.0
C1843 C 0.20714 0.62334 0.22489 0.0
C1844 C 0.17061 0.60435 0.22688 0.0
C1845 C 0.21706 0.60388 0.23166 0.0
C1846 C 0.20403 0.58475 0.23577 0.0
C1847 C 0.16764 0.56539 0.23657 0.0
C1848 C 0.14437 0.56538 0.23371 0.0
C1849 C 0.18081 0.58473 0.2332 0.0
C1850 C 0.13442 0.58512 0.22781 0.0
C1851 C 0.1474 0.60441 0.22442 0.0
H1852 H 0.86405 0.55151 0.04422 0.0
H1853 H 0.88872 0.55354 0.97657 0.0
H1854 H 0.85861 0.57734 0.96619 0.0
H1855 H 0.82504 0.59723 0.97615 0.0
H1856 H 0.80017 0.59514 0.04378 0.0
H1857 H 0.83068 0.57193 0.05435 0.0
C1858 C 0.86296 0.55735 0.02727 0.0
C1859 C 0.87859 0.5507 0.01119 0.0
C1860 C 0.84554 0.57102 0.02139 0.0
C1861 C 0.87675 0.55818 0.98921 0.0
C1862 C 0.8596 0.57188 0.98327 0.0
C1863 C 0.82629 0.59176 0.99322 0.0
C1864 C 0.81028 0.59794 0.00912 0.0
C1865 C 0.84383 0.57831 0.99919 0.0
C1866 C 0.81221 0.59063 0.03116 0.0
C1867 C 0.82967 0.57734 0.03725 0.0
H1868 H 0.11791 0.95298 0.02874 0.0
H1869 H 0.16188 0.00737 0.0095 0.0
H1870 H 0.19254 0.98227 0.00529 0.0
H1871 H 0.20688 0.94493 0.00674 0.0
H1872 H 0.16329 0.89039 0.0264 0.0
H1873 H 0.13259 0.91552 0.03094 0.0
C1874 C 0.13426 0.95936 0.02385 0.0
C1875 C 0.13752 0.98202 0.01931 0.0
C1876 C 0.1519 0.94481 0.02148 0.0
C1877 C 0.15878 0.98996 0.01276 0.0
C1878 C 0.17638 0.97564 0.01044 0.0
C1879 C 0.19067 0.93849 0.012 0.0
C1880 C 0.18743 0.91577 0.01615 0.0
C1881 C 0.1731 0.95302 0.01463 0.0
C1882 C 0.1663 0.90779 0.02305 0.0
C1883 C 0.1487 0.92216 0.02567 0.0
loop_
_geom_bond_atom_site_label_1
_geom_bond_atom_site_label_2
_geom_bond_distance
_geom_bond_site_symmetry_2
_ccdc_geom_bond_type
C0 C1 1.391 . S
C0 C4 1.391 . S
C0 H42 0.948 . S
C1 C0 1.391 . S
C1 C2 1.391 1_556 S
C2 C1 1.391 1_554 S
C2 H58 0.947 1_455 S
C2 C59 1.392 . S
C3 C4 1.391 1_554 S
C3 C7 1.397 . S
C3 C59 1.419 . S
C4 C0 1.391 . S
C4 C3 1.391 1_556 S
C4 C5 1.399 1_556 S
C5 C4 1.399 1_554 S
C5 C8 1.396 . S
C5 C17 1.453 . S
C5 C18 1.684 1_554 S
H6 C30 0.948 . S
C7 C3 1.397 . S
C7 C8 1.394 . S
C7 C26 1.723 . S
C8 C5 1.396 . S
C8 C7 1.394 . S
C8 C38 1.723 . S
H9 C32 0.914 1_556 S
H10 C33 0.959 . S
H11 C39 0.982 . S
H12 C40 0.979 . S
H13 C40 0.980 . S
H14 C40 0.983 . S
H15 C39 0.979 1_565 S
H16 C39 0.977 . S
C17 C5 1.453 . S
C17 H46 0.982 . S
C17 H47 0.979 1_554 S
C17 H48 0.977 . S
C18 C5 1.684 1_556 S
C18 H43 0.979 . S
C18 H44 0.980 . S
C18 H45 0.983 . S
C19 C20 1.391 . S
C19 C24 1.391 . S
C19 H49 0.948 . S
C20 C19 1.391 . S
C20 C21 1.391 . S
C21 C20 1.391 . S
C21 C22 1.392 1_655 S
C21 H50 0.947 . S
C22 C21 1.392 1_455 S
C22 C23 1.419 . S
C22 H51 0.948 . S
C23 C22 1.419 . S
C23 C24 1.391 1_455 S
C23 C27 1.397 . S
C24 C19 1.391 . S
C24 C23 1.391 1_655 S
C24 C25 1.399 . S
C25 C24 1.399 . S
C25 C26 1.396 1_655 S
C25 C28 1.453 . S
C25 C29 1.684 . S
C26 C7 1.723 . S
C26 C25 1.396 1_455 S
C26 C27 1.394 . S
C27 C23 1.397 . S
C27 C26 1.394 . S
C27 C37 1.723 . S
C28 C25 1.453 . S
C28 H52 0.982 1_655 S
C28 H53 0.979 . S
C28 H54 0.977 . S
C29 C25 1.684 . S
C29 H55 0.979 . S
C29 H56 0.980 . S
C29 H57 0.983 . S
C30 H6 0.948 . S
C30 C31 1.391 . S
C30 C35 1.391 1_565 S
C31 C30 1.391 . S
C31 C32 1.391 1_565 S
C32 H9 0.914 1_554 S
C32 C31 1.391 1_545 S
C32 C33 1.392 . S
C33 H10 0.959 . S
C33 C32 1.392 . S
C33 C34 1.419 . S
C34 C33 1.419 . S
C34 C35 1.391 . S
C34 C38 1.397 . S
C35 C30 1.391 1_545 S
C35 C34 1.391 . S
C35 C36 1.399 . S
C36 C35 1.399 . S
C36 C37 1.396 . S
C36 C39 1.453 . S
C36 C40 1.684 1_545 S
C37 C27 1.723 . S
C37 C36 1.396 . S
C37 C38 1.394 . S
C38 C8 1.723 . S
C38 C34 1.397 . S
C38 C37 1.394 . S
C39 H11 0.982 . S
C39 H15 0.979 1_545 S
C39 H16 0.977 . S
C39 C36 1.453 . S
C40 H12 0.979 . S
C40 H13 0.980 . S
C40 H14 0.983 . S
C40 C36 1.684 1_565 S
H41 C59 0.948 1_655 S
H42 C0 0.948 . S
H43 C18 0.979 . S
H44 C18 0.980 . S
H45 C18 0.983 . S
H46 C17 0.982 . S
H47 C17 0.979 1_556 S
H48 C17 0.977 . S
H49 C19 0.948 . S
H50 C21 0.947 . S
H51 C22 0.948 . S
H52 C28 0.982 1_455 S
H53 C28 0.979 . S
H54 C28 0.977 . S
H55 C29 0.979 . S
H56 C29 0.980 . S
H57 C29 0.983 . S
H58 C2 0.947 1_655 S
C59 C2 1.392 . S
C59 C3 1.419 . S
C59 H41 0.948 1_455 S
C60 C61 1.391 . S
C60 C64 1.391 . S
C60 H102 0.948 . S
C61 C60 1.391 . S
C61 C62 1.391 . S
C62 C61 1.391 . S
C62 H118 0.947 . S
C62 C119 1.392 . S
C63 C64 1.391 . S
C63 C67 1.397 . S
C63 C119 1.419 . S
C64 C60 1.391 . S
C64 C63 1.391 . S
C64 C65 1.399 . S
C65 C64 1.399 . S
C65 C68 1.396 . S
C65 C77 1.453 . S
C65 C78 1.684 . S
H66 C90 0.948 . S
C67 C63 1.397 . S
C67 C68 1.394 . S
C67 C86 1.723 . S
C68 C65 1.396 . S
C68 C67 1.394 . S
C68 C98 1.723 . S
H69 C92 0.947 . S
H70 C93 0.948 . S
H71 C99 0.982 . S
H72 C100 0.979 . S
H73 C100 0.980 . S
H74 C100 0.983 . S
H75 C99 0.979 . S
H76 C99 0.977 . S
C77 C65 1.453 . S
C77 H106 0.982 . S
C77 H107 0.979 . S
C77 H108 0.977 . S
C78 C65 1.684 . S
C78 H103 0.979 . S
C78 H104 0.980 . S
C78 H105 0.983 . S
C79 C80 1.391 . S
C79 C84 1.391 . S
C79 H109 0.948 . S
C80 C79 1.391 . S
C80 C81 1.391 . S
C81 C80 1.391 . S
C81 C82 1.392 . S
C81 H110 0.947 . S
C82 C81 1.392 . S
C82 C83 1.419 . S
C82 H111 0.948 . S
C83 C82 1.419 . S
C83 C84 1.391 . S
C83 C87 1.397 . S
C84 C79 1.391 . S
C84 C83 1.391 . S
C84 C85 1.399 . S
C85 C84 1.399 . S
C85 C86 1.396 . S
C85 C88 1.453 . S
C85 C89 1.684 . S
C86 C67 1.723 . S
C86 C85 1.396 . S
C86 C87 1.394 . S
C87 C83 1.397 . S
C87 C86 1.394 . S
C87 C97 1.723 . S
C88 C85 1.453 . S
C88 H112 0.982 . S
C88 H113 0.979 . S
C88 H114 0.977 . S
C89 C85 1.684 . S
C89 H115 0.979 . S
C89 H116 0.980 . S
C89 H117 0.983 . S
C90 H66 0.948 . S
C90 C91 1.391 . S
C90 C95 1.391 . S
C91 C90 1.391 . S
C91 C92 1.391 . S
C92 H69 0.947 . S
C92 C91 1.391 . S
C92 C93 1.392 . S
C93 H70 0.948 . S
C93 C92 1.392 . S
C93 C94 1.419 . S
C94 C93 1.419 . S
C94 C95 1.391 . S
C94 C98 1.397 . S
C95 C90 1.391 . S
C95 C94 1.391 . S
C95 C96 1.399 . S
C96 C95 1.399 . S
C96 C97 1.396 . S
C96 C99 1.453 . S
C96 C100 1.684 . S
C97 C87 1.723 . S
C97 C96 1.396 . S
C97 C98 1.394 . S
C98 C68 1.723 . S
C98 C94 1.397 . S
C98 C97 1.394 . S
C99 H71 0.982 . S
C99 H75 0.979 . S
C99 H76 0.977 . S
C99 C96 1.453 . S
C100 H72 0.979 . S
C100 H73 0.980 . S
C100 H74 0.983 . S
C100 C96 1.684 . S
H101 C119 0.948 . S
H102 C60 0.948 . S
H103 C78 0.979 . S
H104 C78 0.980 . S
H105 C78 0.983 . S
H106 C77 0.982 . S
H107 C77 0.979 . S
H108 C77 0.977 . S
H109 C79 0.948 . S
H110 C81 0.947 . S
H111 C82 0.948 . S
H112 C88 0.982 . S
H113 C88 0.979 . S
H114 C88 0.977 . S
H115 C89 0.979 . S
H116 C89 0.980 . S
H117 C89 0.983 . S
H118 C62 0.947 . S
C119 C62 1.392 . S
C119 C63 1.419 . S
C119 H101 0.948 . S
C120 C121 1.391 . S
C120 C124 1.391 1_556 S
C120 H162 0.948 1_655 S
C121 C120 1.391 . S
C121 C122 1.391 . S
C122 C121 1.391 . S
C122 H178 0.947 . S
C122 C179 1.392 . S
C123 C124 1.391 . S
C123 C127 1.397 . S
C123 C179 1.419 1_554 S
C124 C120 1.391 1_554 S
C124 C123 1.391 . S
C124 C125 1.399 . S
C125 C124 1.399 . S
C125 C128 1.396 . S
C125 C137 1.453 . S
C125 C138 1.684 1_655 S
H126 C150 0.948 . S
C127 C123 1.397 . S
C127 C128 1.394 . S
C127 C146 1.723 . S
C128 C125 1.396 . S
C128 C127 1.394 . S
C128 C158 1.723 . S
H129 C152 0.947 . S
H130 C153 0.948 . S
H131 C159 0.982 . S
H132 C160 0.979 . S
H133 C160 0.980 . S
H134 C160 0.983 . S
H135 C159 0.979 . S
H136 C159 0.977 . S
C137 C125 1.453 . S
C137 H166 0.982 . S
C137 H167 0.979 1_655 S
C137 H168 0.977 1_655 S
C138 C125 1.684 1_455 S
C138 H163 0.979 . S
C138 H164 0.980 . S
C138 H165 0.983 . S
C139 C140 1.391 . S
C139 C144 1.391 . S
C139 H169 0.948 1_554 S
C140 C139 1.391 . S
C140 C141 1.391 . S
C141 C140 1.391 . S
C141 C142 1.392 . S
C141 H170 0.947 . S
C142 C141 1.392 . S
C142 C143 1.419 . S
C142 H171 0.948 . S
C143 C142 1.419 . S
C143 C144 1.391 . S
C143 C147 1.397 . S
C144 C139 1.391 . S
C144 C143 1.391 . S
C144 C145 1.399 . S
C145 C144 1.399 . S
C145 C146 1.396 . S
C145 C148 1.453 . S
C145 C149 1.684 1_554 S
C146 C127 1.723 . S
C146 C145 1.396 . S
C146 C147 1.394 . S
C147 C143 1.397 . S
C147 C146 1.394 . S
C147 C157 1.723 . S
C148 C145 1.453 . S
C148 H172 0.982 . S
C148 H173 0.979 1_554 S
C148 H174 0.977 1_554 S
C149 C145 1.684 1_556 S
C149 H175 0.979 . S
C149 H176 0.980 . S
C149 H177 0.983 . S
C150 H126 0.948 . S
C150 C151 1.391 . S
C150 C155 1.391 1_455 S
C151 C150 1.391 . S
C151 C152 1.391 . S
C152 H129 0.947 . S
C152 C151 1.391 . S
C152 C153 1.392 . S
C153 H130 0.948 . S
C153 C152 1.392 . S
C153 C154 1.399 1_455 S
C154 C153 1.399 1_655 S
C154 C155 1.395 . S
C154 C158 1.414 . S
C155 C150 1.391 1_655 S
C155 C154 1.395 . S
C155 C156 1.399 . S
C156 C155 1.399 . S
C156 C157 1.396 . S
C156 C159 1.453 . S
C156 C160 1.684 . S
C157 C147 1.723 . S
C157 C156 1.396 . S
C157 C158 1.394 . S
C158 C128 1.723 . S
C158 C154 1.414 . S
C158 C157 1.394 . S
C159 H131 0.982 . S
C159 H135 0.979 . S
C159 H136 0.977 . S
C159 C156 1.453 . S
C160 H132 0.979 . S
C160 H133 0.980 . S
C160 H134 0.983 . S
C160 C156 1.684 . S
H161 C179 0.948 . S
H162 C120 0.948 1_455 S
H163 C138 0.979 . S
H164 C138 0.980 . S
H165 C138 0.983 . S
H166 C137 0.982 . S
H167 C137 0.979 1_455 S
H168 C137 0.977 1_455 S
H169 C139 0.948 1_556 S
H170 C141 0.947 . S
H171 C142 0.948 . S
H172 C148 0.982 . S
H173 C148 0.979 1_556 S
H174 C148 0.977 1_556 S
H175 C149 0.979 . S
H176 C149 0.980 . S
H177 C149 0.983 . S
H178 C122 0.947 . S
C179 C122 1.392 . S
C179 C123 1.419 1_556 S
C179 H161 0.948 . S
C180 C181 1.391 . S
C180 C184 1.391 . S
C180 H222 0.948 . S
C181 C180 1.391 . S
C181 C182 1.391 . S
C182 C181 1.391 . S
C182 H238 0.947 . S
C182 C239 1.392 . S
C183 C184 1.391 . S
C183 C187 1.397 . S
C183 C239 1.419 . S
C184 C180 1.391 . S
C184 C183 1.391 . S
C184 C185 1.399 . S
C185 C184 1.399 . S
C185 C188 1.396 . S
C185 C197 1.453 . S
C185 C198 1.684 . S
H186 C210 0.948 . S
C187 C183 1.397 . S
C187 C188 1.394 . S
C187 C206 1.723 . S
C188 C185 1.396 . S
C188 C187 1.394 . S
C188 C218 1.723 . S
H189 C212 0.947 . S
H190 C213 0.948 . S
H191 C219 0.982 . S
H192 C220 0.979 . S
H193 C220 0.980 . S
H194 C220 0.983 . S
H195 C219 0.979 . S
H196 C219 0.977 . S
C197 C185 1.453 . S
C197 H226 0.982 . S
C197 H227 0.979 . S
C197 H228 0.977 . S
C198 C185 1.684 . S
C198 H223 0.979 . S
C198 H224 0.980 . S
C198 H225 0.983 . S
C199 C200 1.391 . S
C199 C204 1.391 . S
C199 H229 0.948 . S
C200 C199 1.391 . S
C200 C201 1.391 . S
C201 C200 1.391 . S
C201 C202 1.392 . S
C201 H230 0.947 . S
C202 C201 1.392 . S
C202 C203 1.419 . S
C202 H231 0.948 . S
C203 C202 1.419 . S
C203 C204 1.391 . S
C203 C207 1.397 . S
C204 C199 1.391 . S
C204 C203 1.391 . S
C204 C205 1.399 . S
C205 C204 1.399 . S
C205 C206 1.396 . S
C205 C208 1.453 . S
C205 C209 1.684 . S
C206 C187 1.723 . S
C206 C205 1.396 . S
C206 C207 1.394 . S
C207 C203 1.397 . S
C207 C206 1.394 . S
C207 C217 1.723 . S
C208 C205 1.453 . S
C208 H232 0.982 . S
C208 H233 0.979 . S
C208 H234 0.977 . S
C209 C205 1.684 . S
C209 H235 0.979 . S
C209 H236 0.980 . S
C209 H237 0.983 . S
C210 H186 0.948 . S
C210 C211 1.391 . S
C210 C215 1.391 . S
C211 C210 1.391 . S
C211 C212 1.391 . S
C212 H189 0.947 . S
C212 C211 1.391 . S
C212 C213 1.392 . S
C213 H190 0.948 . S
C213 C212 1.392 . S
C213 C214 1.419 . S
C214 C213 1.419 . S
C214 C215 1.391 . S
C214 C218 1.397 . S
C215 C210 1.391 . S
C215 C214 1.391 . S
C215 C216 1.399 . S
C216 C215 1.399 . S
C216 C217 1.396 . S
C216 C219 1.453 . S
C216 C220 1.684 . S
C217 C207 1.723 . S
C217 C216 1.396 . S
C217 C218 1.394 . S
C218 C188 1.723 . S
C218 C214 1.397 . S
C218 C217 1.394 . S
C219 H191 0.982 . S
C219 H195 0.979 . S
C219 H196 0.977 . S
C219 C216 1.453 . S
C220 H192 0.979 . S
C220 H193 0.980 . S
C220 H194 0.983 . S
C220 C216 1.684 . S
H221 C239 0.948 . S
H222 C180 0.948 . S
H223 C198 0.979 . S
H224 C198 0.980 . S
H225 C198 0.983 . S
H226 C197 0.982 . S
H227 C197 0.979 . S
H228 C197 0.977 . S
H229 C199 0.948 . S
H230 C201 0.947 . S
H231 C202 0.948 . S
H232 C208 0.982 . S
H233 C208 0.979 . S
H234 C208 0.977 . S
H235 C209 0.979 . S
H236 C209 0.980 . S
H237 C209 0.983 . S
H238 C182 0.947 . S
C239 C182 1.392 . S
C239 C183 1.419 . S
C239 H221 0.948 . S
C240 C241 1.391 . S
C240 C244 1.391 . S
C240 H282 0.948 . S
C241 C240 1.391 . S
C241 C242 1.391 . S
C242 C241 1.391 . S
C242 H298 0.947 1_455 S
C242 C299 1.392 . S
C243 C244 1.391 . S
C243 C247 1.397 . S
C243 C299 1.419 . S
C244 C240 1.391 . S
C244 C243 1.391 . S
C244 C245 1.399 . S
C245 C244 1.399 . S
C245 C248 1.396 . S
C245 C257 1.453 . S
C245 C258 1.684 . S
H246 C270 0.948 . S
C247 C243 1.397 . S
C247 C248 1.394 . S
C247 C266 1.723 . S
C248 C245 1.396 . S
C248 C247 1.394 . S
C248 C278 1.723 . S
H249 C272 0.947 . S
H250 C273 0.948 . S
H251 C279 0.982 . S
H252 C280 0.979 . S
H253 C280 0.980 . S
H254 C280 0.983 . S
H255 C279 0.979 . S
H256 C279 0.977 . S
C257 C245 1.453 . S
C257 H286 0.982 . S
C257 H287 0.979 . S
C257 H288 0.977 . S
C258 C245 1.684 . S
C258 H283 0.979 . S
C258 H284 0.980 . S
C258 H285 0.983 . S
C259 C260 1.391 . S
C259 C264 1.391 . S
C259 H289 0.948 . S
C260 C259 1.391 . S
C260 C261 1.391 1_665 S
C261 C260 1.391 1_445 S
C261 C262 1.392 . S
C261 H290 0.947 . S
C262 C261 1.392 . S
C262 C263 1.419 1_545 S
C262 H291 0.948 . S
C263 C262 1.419 1_565 S
C263 C264 1.391 1_455 S
C263 C267 1.397 . S
C264 C259 1.391 . S
C264 C263 1.391 1_655 S
C264 C265 1.402 . S
C265 C264 1.402 . S
C265 C266 1.380 1_655 S
C265 C268 1.471 . S
C265 C269 1.687 . S
C266 C247 1.723 . S
C266 C265 1.380 1_455 S
C266 C267 1.394 . S
C267 C263 1.397 . S
C267 C266 1.394 . S
C267 C277 1.723 . S
C268 C265 1.471 . S
C268 H292 0.982 . S
C268 H293 0.979 . S
C268 H294 0.977 . S
C269 C265 1.687 . S
C269 H295 0.979 1_655 S
C269 H296 0.980 . S
C269 H297 0.983 . S
C270 H246 0.948 . S
C270 C271 1.391 . S
C270 C275 1.391 . S
C271 C270 1.391 . S
C271 C272 1.391 . S
C272 H249 0.947 . S
C272 C271 1.391 . S
C272 C273 1.392 1_545 S
C273 H250 0.948 . S
C273 C272 1.392 1_565 S
C273 C274 1.419 . S
C274 C273 1.419 . S
C274 C275 1.391 1_565 S
C274 C278 1.397 . S
C275 C270 1.391 . S
C275 C274 1.391 1_545 S
C275 C276 1.399 . S
C276 C275 1.399 . S
C276 C277 1.396 1_545 S
C276 C279 1.453 . S
C276 C280 1.684 . S
C277 C267 1.723 . S
C277 C276 1.396 1_565 S
C277 C278 1.394 . S
C278 C248 1.723 . S
C278 C274 1.397 . S
C278 C277 1.394 . S
C279 H251 0.982 . S
C279 H255 0.979 . S
C279 H256 0.977 . S
C279 C276 1.453 . S
C280 H252 0.979 . S
C280 H253 0.980 . S
C280 H254 0.983 . S
C280 C276 1.684 . S
H281 C299 0.946 . S
H282 C240 0.948 . S
H283 C258 0.979 . S
H284 C258 0.980 . S
H285 C258 0.983 . S
H286 C257 0.982 . S
H287 C257 0.979 . S
H288 C257 0.977 . S
H289 C259 0.948 . S
H290 C261 0.947 . S
H291 C262 0.948 . S
H292 C268 0.982 . S
H293 C268 0.979 . S
H294 C268 0.977 . S
H295 C269 0.979 1_455 S
H296 C269 0.980 . S
H297 C269 0.983 . S
H298 C242 0.947 1_655 S
C299 C242 1.392 . S
C299 C243 1.419 . S
C299 H281 0.946 . S
C300 C301 1.391 . S
C300 C304 1.391 . S
C300 H342 0.948 . S
C301 C300 1.391 . S
C301 C302 1.391 . S
C302 C301 1.391 . S
C302 H358 0.947 . S
C302 C359 1.392 . S
C303 C304 1.391 . S
C303 C307 1.397 . S
C303 C359 1.419 . S
C304 C300 1.391 . S
C304 C303 1.391 . S
C304 C305 1.399 . S
C305 C304 1.399 . S
C305 C308 1.396 . S
C305 C317 1.453 . S
C305 C318 1.684 . S
H306 C330 0.948 . S
C307 C303 1.397 . S
C307 C308 1.394 . S
C307 C326 1.723 . S
C308 C305 1.396 . S
C308 C307 1.394 . S
C308 C338 1.723 . S
H309 C332 0.947 . S
H310 C333 0.948 . S
H311 C339 0.982 . S
H312 C340 0.979 . S
H313 C340 0.980 . S
H314 C340 0.983 . S
H315 C339 0.979 . S
H316 C339 0.977 . S
C317 C305 1.453 . S
C317 H346 0.982 . S
C317 H347 0.979 . S
C317 H348 0.977 . S
C318 C305 1.684 . S
C318 H343 0.979 . S
C318 H344 0.980 . S
C318 H345 0.983 . S
C319 C320 1.391 . S
C319 C324 1.391 . S
C319 H349 0.948 . S
C320 C319 1.391 . S
C320 C321 1.391 . S
C321 C320 1.391 . S
C321 C322 1.392 . S
C321 H350 0.947 . S
C322 C321 1.392 . S
C322 C323 1.419 . S
C322 H351 0.948 . S
C323 C322 1.419 . S
C323 C324 1.391 . S
C323 C327 1.397 . S
C324 C319 1.391 . S
C324 C323 1.391 . S
C324 C325 1.399 . S
C325 C324 1.399 . S
C325 C326 1.396 . S
C325 C328 1.453 . S
C325 C329 1.684 . S
C326 C307 1.723 . S
C326 C325 1.396 . S
C326 C327 1.394 . S
C327 C323 1.397 . S
C327 C326 1.394 . S
C327 C337 1.723 . S
C328 C325 1.453 . S
C328 H352 0.982 . S
C328 H353 0.979 . S
C328 H354 0.977 . S
C329 C325 1.684 . S
C329 H355 0.979 . S
C329 H356 0.980 . S
C329 H357 0.983 . S
C330 H306 0.948 . S
C330 C331 1.391 . S
C330 C335 1.391 . S
C331 C330 1.391 . S
C331 C332 1.391 . S
C332 H309 0.947 . S
C332 C331 1.391 . S
C332 C333 1.392 . S
C333 H310 0.948 . S
C333 C332 1.392 . S
C333 C334 1.419 . S
C334 C333 1.419 . S
C334 C335 1.391 . S
C334 C338 1.397 . S
C335 C330 1.391 . S
C335 C334 1.391 . S
C335 C336 1.399 . S
C336 C335 1.399 . S
C336 C337 1.396 . S
C336 C339 1.453 . S
C336 C340 1.684 . S
C337 C327 1.723 . S
C337 C336 1.396 . S
C337 C338 1.394 . S
C338 C308 1.723 . S
C338 C334 1.397 . S
C338 C337 1.394 . S
C339 H311 0.982 . S
C339 H315 0.979 . S
C339 H316 0.977 . S
C339 C336 1.453 . S
C340 H312 0.979 . S
C340 H313 0.980 . S
C340 H314 0.983 . S
C340 C336 1.684 . S
H341 C359 0.948 . S
H342 C300 0.948 . S
H343 C318 0.979 . S
H344 C318 0.980 . S
H345 C318 0.983 . S
H346 C317 0.982 . S
H347 C317 0.979 . S
H348 C317 0.977 . S
H349 C319 0.948 . S
H350 C321 0.947 . S
H351 C322 0.948 . S
H352 C328 0.982 . S
H353 C328 0.979 . S
H354 C328 0.977 . S
H355 C329 0.979 . S
H356 C329 0.980 . S
H357 C329 0.983 . S
H358 C302 0.947 . S
C359 C302 1.392 . S
C359 C303 1.419 . S
C359 H341 0.948 . S
C360 C361 1.391 . S
C360 C364 1.391 . S
C360 H402 0.948 . S
C361 C360 1.391 . S
C361 C362 1.391 . S
C362 C361 1.391 . S
C362 H418 0.947 . S
C362 C419 1.392 . S
C363 C364 1.391 . S
C363 C367 1.397 . S
C363 C419 1.419 . S
C364 C360 1.391 . S
C364 C363 1.391 . S
C364 C365 1.399 . S
C365 C364 1.399 . S
C365 C368 1.396 . S
C365 C377 1.453 . S
C365 C378 1.684 . S
H366 C390 0.948 1_455 S
C367 C363 1.397 . S
C367 C368 1.394 . S
C367 C386 1.723 . S
C368 C365 1.396 . S
C368 C367 1.394 . S
C368 C398 1.723 . S
H369 C392 0.947 . S
H370 C393 0.948 . S
H371 C399 0.989 . S
H372 C400 0.979 . S
H373 C400 0.980 . S
H374 C400 0.983 . S
H375 C399 0.975 1_455 S
H376 C399 0.973 1_455 S
C377 C365 1.453 . S
C377 H406 0.982 . S
C377 H407 0.979 . S
C377 H408 0.977 . S
C378 C365 1.684 . S
C378 H403 0.979 . S
C378 H404 0.980 . S
C378 H405 0.983 . S
C379 C380 1.391 . S
C379 C384 1.391 1_455 S
C379 H409 0.948 . S
C380 C379 1.391 . S
C380 C381 1.391 . S
C381 C380 1.391 . S
C381 C382 1.392 . S
C381 H410 0.947 . S
C382 C381 1.392 . S
C382 C383 1.419 1_455 S
C382 H411 0.948 . S
C383 C382 1.419 1_655 S
C383 C384 1.391 . S
C383 C387 1.397 . S
C384 C379 1.391 1_655 S
C384 C383 1.391 . S
C384 C385 1.399 . S
C385 C384 1.399 . S
C385 C386 1.396 . S
C385 C388 1.453 . S
C385 C389 1.684 . S
C386 C367 1.723 . S
C386 C385 1.396 . S
C386 C387 1.394 . S
C387 C383 1.397 . S
C387 C386 1.394 . S
C387 C397 1.723 . S
C388 C385 1.453 . S
C388 H412 0.982 . S
C388 H413 0.979 . S
C388 H414 0.977 . S
C389 C385 1.684 . S
C389 H415 0.979 . S
C389 H416 0.980 . S
C389 H417 0.983 . S
C390 H366 0.948 1_655 S
C390 C391 1.391 . S
C390 C395 1.391 . S
C391 C390 1.391 . S
C391 C392 1.391 . S
C392 H369 0.947 . S
C392 C391 1.391 . S
C392 C393 1.392 . S
C393 H370 0.948 . S
C393 C392 1.392 . S
C393 C394 1.419 . S
C394 C393 1.419 . S
C394 C395 1.391 . S
C394 C398 1.397 . S
C395 C390 1.391 . S
C395 C394 1.391 . S
C395 C396 1.399 . S
C396 C395 1.399 . S
C396 C397 1.396 . S
C396 C399 1.454 . S
C396 C400 1.684 1_655 S
C397 C387 1.723 . S
C397 C396 1.396 . S
C397 C398 1.394 . S
C398 C368 1.723 . S
C398 C394 1.397 . S
C398 C397 1.394 . S
C399 H371 0.989 . S
C399 H375 0.975 1_655 S
C399 H376 0.973 1_655 S
C399 C396 1.454 . S
C400 H372 0.979 . S
C400 H373 0.980 . S
C400 H374 0.983 . S
C400 C396 1.684 1_455 S
H401 C419 0.948 . S
H402 C360 0.948 . S
H403 C378 0.979 . S
H404 C378 0.980 . S
H405 C378 0.983 . S
H406 C377 0.982 . S
H407 C377 0.979 . S
H408 C377 0.977 . S
H409 C379 0.948 . S
H410 C381 0.947 . S
H411 C382 0.948 . S
H412 C388 0.982 . S
H413 C388 0.979 . S
H414 C388 0.977 . S
H415 C389 0.979 . S
H416 C389 0.980 . S
H417 C389 0.983 . S
H418 C362 0.947 . S
C419 C362 1.392 . S
C419 C363 1.419 . S
C419 H401 0.948 . S
C420 C421 1.391 . S
C420 C424 1.391 . S
C420 H462 0.948 . S
C421 C420 1.391 . S
C421 C422 1.391 . S
C422 C421 1.391 . S
C422 H478 0.947 . S
C422 C479 1.392 . S
C423 C424 1.391 . S
C423 C427 1.397 . S
C423 C479 1.419 . S
C424 C420 1.391 . S
C424 C423 1.391 . S
C424 C425 1.399 . S
C425 C424 1.399 . S
C425 C428 1.396 . S
C425 C437 1.453 . S
C425 C438 1.684 . S
H426 C450 0.948 . S
C427 C423 1.397 . S
C427 C428 1.394 . S
C427 C446 1.723 . S
C428 C425 1.396 . S
C428 C427 1.394 . S
C428 C458 1.723 . S
H429 C452 0.947 . S
H430 C453 0.948 . S
H431 C459 0.982 . S
H432 C460 0.979 . S
H433 C460 0.980 . S
H434 C460 0.983 . S
H435 C459 0.979 . S
H436 C459 0.977 . S
C437 C425 1.453 . S
C437 H466 0.982 . S
C437 H467 0.979 . S
C437 H468 0.977 . S
C438 C425 1.684 . S
C438 H463 0.979 . S
C438 H464 0.980 . S
C438 H465 0.983 . S
C439 C440 1.391 . S
C439 C444 1.391 . S
C439 H469 0.948 . S
C440 C439 1.391 . S
C440 C441 1.391 . S
C441 C440 1.391 . S
C441 C442 1.392 . S
C441 H470 0.947 . S
C442 C441 1.392 . S
C442 C443 1.419 . S
C442 H471 0.948 . S
C443 C442 1.419 . S
C443 C444 1.391 . S
C443 C447 1.397 . S
C444 C439 1.391 . S
C444 C443 1.391 . S
C444 C445 1.399 . S
C445 C444 1.399 . S
C445 C446 1.396 . S
C445 C448 1.453 . S
C445 C449 1.684 . S
C446 C427 1.723 . S
C446 C445 1.396 . S
C446 C447 1.394 . S
C447 C443 1.397 . S
C447 C446 1.394 . S
C447 C457 1.723 . S
C448 C445 1.453 . S
C448 H472 0.982 . S
C448 H473 0.979 . S
C448 H474 0.977 . S
C449 C445 1.684 . S
C449 H475 0.979 . S
C449 H476 0.980 . S
C449 H477 0.983 . S
C450 H426 0.948 . S
C450 C451 1.391 . S
C450 C455 1.391 . S
C451 C450 1.391 . S
C451 C452 1.391 . S
C452 H429 0.947 . S
C452 C451 1.391 . S
C452 C453 1.392 . S
C453 H430 0.948 . S
C453 C452 1.392 . S
C453 C454 1.419 . S
C454 C453 1.419 . S
C454 C455 1.391 . S
C454 C458 1.397 . S
C455 C450 1.391 . S
C455 C454 1.391 . S
C455 C456 1.399 . S
C456 C455 1.399 . S
C456 C457 1.396 . S
C456 C459 1.453 . S
C456 C460 1.684 . S
C457 C447 1.723 . S
C457 C456 1.396 . S
C457 C458 1.394 . S
C458 C428 1.723 . S
C458 C454 1.397 . S
C458 C457 1.394 . S
C459 H431 0.982 . S
C459 H435 0.979 . S
C459 H436 0.977 . S
C459 C456 1.453 . S
C460 H432 0.979 . S
C460 H433 0.980 . S
C460 H434 0.983 . S
C460 C456 1.684 . S
H461 C479 0.948 . S
H462 C420 0.948 . S
H463 C438 0.979 . S
H464 C438 0.980 . S
H465 C438 0.983 . S
H466 C437 0.982 . S
H467 C437 0.979 . S
H468 C437 0.977 . S
H469 C439 0.948 . S
H470 C441 0.947 . S
H471 C442 0.948 . S
H472 C448 0.982 . S
H473 C448 0.979 . S
H474 C448 0.977 . S
H475 C449 0.979 . S
H476 C449 0.980 . S
H477 C449 0.983 . S
H478 C422 0.947 . S
C479 C422 1.392 . S
C479 C423 1.419 . S
C479 H461 0.948 . S
C480 C481 1.391 . S
C480 C484 1.391 . S
C480 H522 0.948 . S
C481 C480 1.391 . S
C481 C482 1.391 . S
C482 C481 1.391 . S
C482 H538 0.947 . S
C482 C539 1.392 . S
C483 C484 1.391 . S
C483 C487 1.397 . S
C483 C539 1.419 . S
C484 C480 1.391 . S
C484 C483 1.391 . S
C484 C485 1.399 . S
C485 C484 1.399 . S
C485 C488 1.396 . S
C485 C497 1.453 . S
C485 C498 1.684 . S
H486 C510 0.948 . S
C487 C483 1.397 . S
C487 C488 1.394 . S
C487 C506 1.723 . S
C488 C485 1.396 . S
C488 C487 1.394 . S
C488 C518 1.723 . S
H489 C512 0.947 . S
H490 C513 0.948 . S
H491 C519 0.982 . S
H492 C520 0.979 . S
H493 C520 0.980 . S
H494 C520 0.983 . S
H495 C519 0.979 . S
H496 C519 0.977 . S
C497 C485 1.453 . S
C497 H526 0.982 . S
C497 H527 0.979 . S
C497 H528 0.977 . S
C498 C485 1.684 . S
C498 H523 0.979 . S
C498 H524 0.980 . S
C498 H525 0.983 . S
C499 C500 1.391 . S
C499 C504 1.391 . S
C499 H529 0.948 . S
C500 C499 1.391 . S
C500 C501 1.391 . S
C501 C500 1.391 . S
C501 C502 1.392 . S
C501 H530 0.947 . S
C502 C501 1.392 . S
C502 C503 1.419 . S
C502 H531 0.948 . S
C503 C502 1.419 . S
C503 C504 1.391 . S
C503 C507 1.397 . S
C504 C499 1.391 . S
C504 C503 1.391 . S
C504 C505 1.399 . S
C505 C504 1.399 . S
C505 C506 1.396 . S
C505 C508 1.453 . S
C505 C509 1.684 . S
C506 C487 1.723 . S
C506 C505 1.396 . S
C506 C507 1.394 . S
C507 C503 1.397 . S
C507 C506 1.394 . S
C507 C517 1.723 . S
C508 C505 1.453 . S
C508 H532 0.982 . S
C508 H533 0.979 . S
C508 H534 0.977 . S
C509 C505 1.684 . S
C509 H535 0.979 . S
C509 H536 0.980 . S
C509 H537 0.983 . S
C510 H486 0.948 . S
C510 C511 1.391 . S
C510 C515 1.391 . S
C511 C510 1.391 . S
C511 C512 1.391 . S
C512 H489 0.947 . S
C512 C511 1.391 . S
C512 C513 1.392 . S
C513 H490 0.948 . S
C513 C512 1.392 . S
C513 C514 1.419 . S
C514 C513 1.419 . S
C514 C515 1.391 . S
C514 C518 1.397 . S
C515 C510 1.391 . S
C515 C514 1.391 . S
C515 C516 1.399 . S
C516 C515 1.399 . S
C516 C517 1.396 . S
C516 C519 1.453 . S
C516 C520 1.684 . S
C517 C507 1.723 . S
C517 C516 1.396 . S
C517 C518 1.394 . S
C518 C488 1.723 . S
C518 C514 1.397 . S
C518 C517 1.394 . S
C519 H491 0.982 . S
C519 H495 0.979 . S
C519 H496 0.977 . S
C519 C516 1.453 . S
C520 H492 0.979 . S
C520 H493 0.980 . S
C520 H494 0.983 . S
C520 C516 1.684 . S
H521 C539 0.948 . S
H522 C480 0.948 . S
H523 C498 0.979 . S
H524 C498 0.980 . S
H525 C498 0.983 . S
H526 C497 0.982 . S
H527 C497 0.979 . S
H528 C497 0.977 . S
H529 C499 0.948 . S
H530 C501 0.947 . S
H531 C502 0.948 . S
H532 C508 0.982 . S
H533 C508 0.979 . S
H534 C508 0.977 . S
H535 C509 0.979 . S
H536 C509 0.980 . S
H537 C509 0.983 . S
H538 C482 0.947 . S
C539 C482 1.392 . S
C539 C483 1.419 . S
C539 H521 0.948 . S
C540 C541 1.391 . S
C540 C544 1.391 . S
C540 H582 0.948 . S
C541 C540 1.391 . S
C541 C542 1.391 . S
C542 C541 1.391 . S
C542 H598 0.947 . S
C542 C599 1.392 . S
C543 C544 1.391 . S
C543 C547 1.397 . S
C543 C599 1.419 . S
C544 C540 1.391 . S
C544 C543 1.391 . S
C544 C545 1.399 . S
C545 C544 1.399 . S
C545 C548 1.396 . S
C545 C557 1.453 . S
C545 C558 1.684 . S
H546 C570 0.948 1_545 S
C547 C543 1.397 . S
C547 C548 1.394 . S
C547 C566 1.723 . S
C548 C545 1.396 . S
C548 C547 1.394 . S
C548 C578 1.723 . S
H549 C572 0.947 . S
H550 C573 0.948 . S
H551 C579 0.941 1_565 S
H552 C580 0.979 . S
H553 C580 0.980 . S
H554 C580 0.983 . S
H555 C579 1.005 . S
H556 C579 1.000 . S
C557 C545 1.453 . S
C557 H586 0.982 . S
C557 H587 0.979 . S
C557 H588 0.977 . S
C558 C545 1.684 . S
C558 H583 0.979 . S
C558 H584 0.980 . S
C558 H585 0.983 . S
C559 C560 1.391 . S
C559 C564 1.391 1_545 S
C559 H589 0.948 . S
C560 C559 1.391 . S
C560 C561 1.391 . S
C561 C560 1.391 . S
C561 C562 1.392 . S
C561 H590 0.947 . S
C562 C561 1.392 . S
C562 C563 1.436 . S
C562 H591 0.948 . S
C563 C562 1.436 . S
C563 C564 1.389 1_545 S
C563 C567 1.381 1_545 S
C564 C559 1.391 1_565 S
C564 C563 1.389 1_565 S
C564 C565 1.399 . S
C565 C564 1.399 . S
C565 C566 1.396 . S
C565 C568 1.453 . S
C565 C569 1.684 . S
C566 C547 1.723 . S
C566 C565 1.396 . S
C566 C567 1.394 . S
C567 C563 1.381 1_565 S
C567 C566 1.394 . S
C567 C577 1.723 . S
C568 C565 1.453 . S
C568 H592 0.982 . S
C568 H593 0.979 . S
C568 H594 0.977 . S
C569 C565 1.684 . S
C569 H595 0.979 . S
C569 H596 0.980 . S
C569 H597 0.983 . S
C570 H546 0.948 1_565 S
C570 C571 1.391 . S
C570 C575 1.391 . S
C571 C570 1.391 . S
C571 C572 1.391 . S
C572 H549 0.947 . S
C572 C571 1.391 . S
C572 C573 1.392 . S
C573 H550 0.948 . S
C573 C572 1.392 . S
C573 C574 1.419 . S
C574 C573 1.419 . S
C574 C575 1.391 . S
C574 C578 1.397 . S
C575 C570 1.391 . S
C575 C574 1.391 . S
C575 C576 1.399 . S
C576 C575 1.399 . S
C576 C577 1.396 . S
C576 C579 1.448 1_565 S
C576 C580 1.684 1_565 S
C577 C567 1.723 . S
C577 C576 1.396 . S
C577 C578 1.394 . S
C578 C548 1.723 . S
C578 C574 1.397 . S
C578 C577 1.394 . S
C579 H551 0.941 1_545 S
C579 H555 1.005 . S
C579 H556 1.000 . S
C579 C576 1.448 1_545 S
C580 H552 0.979 . S
C580 H553 0.980 . S
C580 H554 0.983 . S
C580 C576 1.684 1_545 S
H581 C599 0.948 . S
H582 C540 0.948 . S
H583 C558 0.979 . S
H584 C558 0.980 . S
H585 C558 0.983 . S
H586 C557 0.982 . S
H587 C557 0.979 . S
H588 C557 0.977 . S
H589 C559 0.948 . S
H590 C561 0.947 . S
H591 C562 0.948 . S
H592 C568 0.982 . S
H593 C568 0.979 . S
H594 C568 0.977 . S
H595 C569 0.979 . S
H596 C569 0.980 . S
H597 C569 0.983 . S
H598 C542 0.947 . S
C599 C542 1.392 . S
C599 C543 1.419 . S
C599 H581 0.948 . S
C600 C601 1.391 . S
C600 C604 1.391 . S
C600 H642 0.948 . S
C601 C600 1.391 . S
C601 C602 1.391 . S
C602 C601 1.391 . S
C602 H658 0.947 . S
C602 C659 1.392 . S
C603 C604 1.391 . S
C603 C607 1.397 . S
C603 C659 1.419 . S
C604 C600 1.391 . S
C604 C603 1.391 . S
C604 C605 1.399 . S
C605 C604 1.399 . S
C605 C608 1.396 . S
C605 C617 1.453 . S
C605 C618 1.684 . S
H606 C630 0.948 . S
C607 C603 1.397 . S
C607 C608 1.394 . S
C607 C626 1.723 . S
C608 C605 1.396 . S
C608 C607 1.394 . S
C608 C638 1.723 . S
H609 C632 0.947 . S
H610 C633 0.948 . S
H611 C639 0.982 . S
H612 C640 0.979 . S
H613 C640 0.980 . S
H614 C640 0.983 . S
H615 C639 0.979 . S
H616 C639 0.977 . S
C617 C605 1.453 . S
C617 H646 0.982 . S
C617 H647 0.979 . S
C617 H648 0.977 . S
C618 C605 1.684 . S
C618 H643 0.979 . S
C618 H644 0.980 . S
C618 H645 0.983 . S
C619 C620 1.391 . S
C619 C624 1.391 . S
C619 H649 0.948 . S
C620 C619 1.391 . S
C620 C621 1.391 . S
C621 C620 1.391 . S
C621 C622 1.392 . S
C621 H650 0.947 . S
C622 C621 1.392 . S
C622 C623 1.419 . S
C622 H651 0.948 . S
C623 C622 1.419 . S
C623 C624 1.391 . S
C623 C627 1.397 . S
C624 C619 1.391 . S
C624 C623 1.391 . S
C624 C625 1.399 . S
C625 C624 1.399 . S
C625 C626 1.396 . S
C625 C628 1.453 . S
C625 C629 1.684 . S
C626 C607 1.723 . S
C626 C625 1.396 . S
C626 C627 1.394 . S
C627 C623 1.397 . S
C627 C626 1.394 . S
C627 C637 1.723 . S
C628 C625 1.453 . S
C628 H652 0.982 . S
C628 H653 0.979 . S
C628 H654 0.977 . S
C629 C625 1.684 . S
C629 H655 0.979 . S
C629 H656 0.980 . S
C629 H657 0.983 . S
C630 H606 0.948 . S
C630 C631 1.391 . S
C630 C635 1.391 . S
C631 C630 1.391 . S
C631 C632 1.391 . S
C632 H609 0.947 . S
C632 C631 1.391 . S
C632 C633 1.392 . S
C633 H610 0.948 . S
C633 C632 1.392 . S
C633 C634 1.419 . S
C634 C633 1.419 . S
C634 C635 1.391 . S
C634 C638 1.397 . S
C635 C630 1.391 . S
C635 C634 1.391 . S
C635 C636 1.399 . S
C636 C635 1.399 . S
C636 C637 1.396 . S
C636 C639 1.453 . S
C636 C640 1.684 . S
C637 C627 1.723 . S
C637 C636 1.396 . S
C637 C638 1.394 . S
C638 C608 1.723 . S
C638 C634 1.397 . S
C638 C637 1.394 . S
C639 H611 0.982 . S
C639 H615 0.979 . S
C639 H616 0.977 . S
C639 C636 1.453 . S
C640 H612 0.979 . S
C640 H613 0.980 . S
C640 H614 0.983 . S
C640 C636 1.684 . S
H641 C659 0.948 . S
H642 C600 0.948 . S
H643 C618 0.979 . S
H644 C618 0.980 . S
H645 C618 0.983 . S
H646 C617 0.982 . S
H647 C617 0.979 . S
H648 C617 0.977 . S
H649 C619 0.948 . S
H650 C621 0.947 . S
H651 C622 0.948 . S
H652 C628 0.982 . S
H653 C628 0.979 . S
H654 C628 0.977 . S
H655 C629 0.979 . S
H656 C629 0.980 . S
H657 C629 0.983 . S
H658 C602 0.947 . S
C659 C602 1.392 . S
C659 C603 1.419 . S
C659 H641 0.948 . S
C660 C661 1.391 . S
C660 C664 1.391 . S
C660 H702 0.948 . S
C661 C660 1.391 . S
C661 C662 1.391 . S
C662 C661 1.391 . S
C662 H718 0.947 . S
C662 C719 1.392 . S
C663 C664 1.391 . S
C663 C667 1.397 . S
C663 C719 1.419 . S
C664 C660 1.391 . S
C664 C663 1.391 . S
C664 C665 1.399 . S
C665 C664 1.399 . S
C665 C668 1.396 . S
C665 C677 1.453 . S
C665 C678 1.684 . S
H666 C690 0.948 . S
C667 C663 1.397 . S
C667 C668 1.394 . S
C667 C686 1.723 . S
C668 C665 1.396 . S
C668 C667 1.394 . S
C668 C698 1.723 . S
H669 C692 0.947 . S
H670 C693 0.948 . S
H671 C699 0.982 . S
H672 C700 0.979 . S
H673 C700 0.980 . S
H674 C700 0.983 . S
H675 C699 0.979 . S
H676 C699 0.977 . S
C677 C665 1.453 . S
C677 H706 0.982 . S
C677 H707 0.979 . S
C677 H708 0.977 . S
C678 C665 1.684 . S
C678 H703 0.979 . S
C678 H704 0.980 . S
C678 H705 0.983 . S
C679 C680 1.391 . S
C679 C684 1.391 . S
C679 H709 0.948 . S
C680 C679 1.391 . S
C680 C681 1.391 . S
C681 C680 1.391 . S
C681 C682 1.392 . S
C681 H710 0.947 . S
C682 C681 1.392 . S
C682 C683 1.419 . S
C682 H711 0.948 . S
C683 C682 1.419 . S
C683 C684 1.391 . S
C683 C687 1.397 . S
C684 C679 1.391 . S
C684 C683 1.391 . S
C684 C685 1.399 . S
C685 C684 1.399 . S
C685 C686 1.396 . S
C685 C688 1.453 . S
C685 C689 1.684 . S
C686 C667 1.723 . S
C686 C685 1.396 . S
C686 C687 1.394 . S
C687 C683 1.397 . S
C687 C686 1.394 . S
C687 C697 1.723 . S
C688 C685 1.453 . S
C688 H712 0.982 . S
C688 H713 0.979 . S
C688 H714 0.977 . S
C689 C685 1.684 . S
C689 H715 0.979 . S
C689 H716 0.980 . S
C689 H717 0.983 . S
C690 H666 0.948 . S
C690 C691 1.391 . S
C690 C695 1.391 . S
C691 C690 1.391 . S
C691 C692 1.391 . S
C692 H669 0.947 . S
C692 C691 1.391 . S
C692 C693 1.392 . S
C693 H670 0.948 . S
C693 C692 1.392 . S
C693 C694 1.419 . S
C694 C693 1.419 . S
C694 C695 1.391 . S
C694 C698 1.397 . S
C695 C690 1.391 . S
C695 C694 1.391 . S
C695 C696 1.399 . S
C696 C695 1.399 . S
C696 C697 1.396 . S
C696 C699 1.453 . S
C696 C700 1.684 . S
C697 C687 1.723 . S
C697 C696 1.396 . S
C697 C698 1.394 . S
C698 C668 1.723 . S
C698 C694 1.397 . S
C698 C697 1.394 . S
C699 H671 0.982 . S
C699 H675 0.979 . S
C699 H676 0.977 . S
C699 C696 1.453 . S
C700 H672 0.979 . S
C700 H673 0.980 . S
C700 H674 0.983 . S
C700 C696 1.684 . S
H701 C719 0.948 . S
H702 C660 0.948 . S
H703 C678 0.979 . S
H704 C678 0.980 . S
H705 C678 0.983 . S
H706 C677 0.982 . S
H707 C677 0.979 . S
H708 C677 0.977 . S
H709 C679 0.948 . S
H710 C681 0.947 . S
H711 C682 0.948 . S
H712 C688 0.982 . S
H713 C688 0.979 . S
H714 C688 0.977 . S
H715 C689 0.979 . S
H716 C689 0.980 . S
H717 C689 0.983 . S
H718 C662 0.947 . S
C719 C662 1.392 . S
C719 C663 1.419 . S
C719 H701 0.948 . S
C720 C721 1.391 . S
C720 C724 1.391 . S
C720 H762 0.948 . S
C721 C720 1.391 . S
C721 C722 1.391 . S
C722 C721 1.391 . S
C722 H778 0.947 . S
C722 C779 1.392 . S
C723 C724 1.391 . S
C723 C727 1.397 . S
C723 C779 1.419 . S
C724 C720 1.391 . S
C724 C723 1.391 . S
C724 C725 1.399 . S
C725 C724 1.399 . S
C725 C728 1.396 . S
C725 C737 1.453 . S
C725 C738 1.684 . S
H726 C750 0.948 . S
C727 C723 1.397 . S
C727 C728 1.394 . S
C727 C746 1.723 . S
C728 C725 1.396 . S
C728 C727 1.394 . S
C728 C758 1.723 . S
H729 C752 0.947 . S
H730 C753 0.948 . S
H731 C759 0.982 . S
H732 C760 0.979 . S
H733 C760 0.980 . S
H734 C760 0.983 . S
H735 C759 0.979 . S
H736 C759 0.977 . S
C737 C725 1.453 . S
C737 H766 0.982 . S
C737 H767 0.979 . S
C737 H768 0.977 . S
C738 C725 1.684 . S
C738 H763 0.979 . S
C738 H764 0.980 . S
C738 H765 0.983 . S
C739 C740 1.391 . S
C739 C744 1.391 . S
C739 H769 0.948 . S
C740 C739 1.391 . S
C740 C741 1.391 . S
C741 C740 1.391 . S
C741 C742 1.392 . S
C741 H770 0.947 . S
C742 C741 1.392 . S
C742 C743 1.419 . S
C742 H771 0.948 . S
C743 C742 1.419 . S
C743 C744 1.391 . S
C743 C747 1.397 . S
C744 C739 1.391 . S
C744 C743 1.391 . S
C744 C745 1.399 . S
C745 C744 1.399 . S
C745 C746 1.396 . S
C745 C748 1.453 . S
C745 C749 1.684 . S
C746 C727 1.723 . S
C746 C745 1.396 . S
C746 C747 1.394 . S
C747 C743 1.397 . S
C747 C746 1.394 . S
C747 C757 1.723 . S
C748 C745 1.453 . S
C748 H772 0.982 . S
C748 H773 0.979 . S
C748 H774 0.977 . S
C749 C745 1.684 . S
C749 H775 0.979 . S
C749 H776 0.980 . S
C749 H777 0.983 . S
C750 H726 0.948 . S
C750 C751 1.391 . S
C750 C755 1.391 . S
C751 C750 1.391 . S
C751 C752 1.391 . S
C752 H729 0.947 . S
C752 C751 1.391 . S
C752 C753 1.392 . S
C753 H730 0.948 . S
C753 C752 1.392 . S
C753 C754 1.419 . S
C754 C753 1.419 . S
C754 C755 1.391 . S
C754 C758 1.397 . S
C755 C750 1.391 . S
C755 C754 1.391 . S
C755 C756 1.399 . S
C756 C755 1.399 . S
C756 C757 1.396 . S
C756 C759 1.453 . S
C756 C760 1.684 . S
C757 C747 1.723 . S
C757 C756 1.396 . S
C757 C758 1.394 . S
C758 C728 1.723 . S
C758 C754 1.397 . S
C758 C757 1.394 . S
C759 H731 0.982 . S
C759 H735 0.979 . S
C759 H736 0.977 . S
C759 C756 1.453 . S
C760 H732 0.979 . S
C760 H733 0.980 . S
C760 H734 0.983 . S
C760 C756 1.684 . S
H761 C779 0.948 . S
H762 C720 0.948 . S
H763 C738 0.979 . S
H764 C738 0.980 . S
H765 C738 0.983 . S
H766 C737 0.982 . S
H767 C737 0.979 . S
H768 C737 0.977 . S
H769 C739 0.948 . S
H770 C741 0.947 . S
H771 C742 0.948 . S
H772 C748 0.982 . S
H773 C748 0.979 . S
H774 C748 0.977 . S
H775 C749 0.979 . S
H776 C749 0.980 . S
H777 C749 0.983 . S
H778 C722 0.947 . S
C779 C722 1.392 . S
C779 C723 1.419 . S
C779 H761 0.948 . S
C780 C781 1.391 . S
C780 C784 1.379 1_554 S
C780 H822 0.948 . S
C781 C780 1.391 . S
C781 C782 1.391 1_554 S
C782 C781 1.391 1_556 S
C782 H838 0.947 . S
C782 C839 1.392 . S
C783 C784 1.403 . S
C783 C787 1.397 . S
C783 C839 1.419 . S
C784 C780 1.379 1_556 S
C784 C783 1.403 . S
C784 C785 1.401 . S
C785 C784 1.401 . S
C785 C788 1.396 . S
C785 C797 1.453 1_556 S
C785 C798 1.684 1_556 S
H786 C810 0.948 . S
C787 C783 1.397 . S
C787 C788 1.394 . S
C787 C806 1.723 . S
C788 C785 1.396 . S
C788 C787 1.394 . S
C788 C818 1.723 . S
H789 C812 0.947 1_554 S
H790 C813 0.948 . S
H791 C819 0.982 . S
H792 C820 0.979 . S
H793 C820 0.980 . S
H794 C820 0.983 . S
H795 C819 0.979 . S
H796 C819 0.977 . S
C797 C785 1.453 1_554 S
C797 H826 0.982 . S
C797 H827 0.979 . S
C797 H828 0.977 . S
C798 C785 1.684 1_554 S
C798 H823 0.979 1_554 S
C798 H824 0.982 . S
C798 H825 0.983 . S
C799 C800 1.391 . S
C799 C804 1.391 . S
C799 H829 0.948 . S
C800 C799 1.391 . S
C800 C801 1.391 . S
C801 C800 1.391 . S
C801 C802 1.392 . S
C801 H830 0.947 . S
C802 C801 1.392 . S
C802 C803 1.419 . S
C802 H831 0.948 . S
C803 C802 1.419 . S
C803 C804 1.391 . S
C803 C807 1.397 . S
C804 C799 1.391 . S
C804 C803 1.391 . S
C804 C805 1.399 . S
C805 C804 1.399 . S
C805 C806 1.396 . S
C805 C808 1.453 . S
C805 C809 1.684 . S
C806 C787 1.723 . S
C806 C805 1.396 . S
C806 C807 1.394 . S
C807 C803 1.397 . S
C807 C806 1.394 . S
C807 C817 1.723 . S
C808 C805 1.453 . S
C808 H832 0.982 . S
C808 H833 0.979 . S
C808 H834 0.977 . S
C809 C805 1.684 . S
C809 H835 0.979 . S
C809 H836 0.980 . S
C809 H837 0.983 . S
C810 H786 0.948 . S
C810 C811 1.391 . S
C810 C815 1.391 . S
C811 C810 1.391 . S
C811 C812 1.391 . S
C812 H789 0.947 1_556 S
C812 C811 1.391 . S
C812 C813 1.392 . S
C813 H790 0.948 . S
C813 C812 1.392 . S
C813 C814 1.419 . S
C814 C813 1.419 . S
C814 C815 1.391 . S
C814 C818 1.397 . S
C815 C810 1.391 . S
C815 C814 1.391 . S
C815 C816 1.399 . S
C816 C815 1.399 . S
C816 C817 1.396 . S
C816 C819 1.453 . S
C816 C820 1.684 . S
C817 C807 1.723 . S
C817 C816 1.396 . S
C817 C818 1.394 . S
C818 C788 1.723 . S
C818 C814 1.397 . S
C818 C817 1.394 . S
C819 H791 0.982 . S
C819 H795 0.979 . S
C819 H796 0.977 . S
C819 C816 1.453 . S
C820 H792 0.979 . S
C820 H793 0.980 . S
C820 H794 0.983 . S
C820 C816 1.684 . S
H821 C839 0.948 . S
H822 C780 0.948 . S
H823 C798 0.979 1_556 S
H824 C798 0.982 . S
H825 C798 0.983 . S
H826 C797 0.982 . S
H827 C797 0.979 . S
H828 C797 0.977 . S
H829 C799 0.948 . S
H830 C801 0.947 . S
H831 C802 0.948 . S
H832 C808 0.982 . S
H833 C808 0.979 . S
H834 C808 0.977 . S
H835 C809 0.979 . S
H836 C809 0.980 . S
H837 C809 0.983 . S
H838 C782 0.947 . S
C839 C782 1.392 . S
C839 C783 1.419 . S
C839 H821 0.948 . S
C840 C841 1.391 . S
C840 C844 1.391 . S
C840 H882 0.948 . S
C841 C840 1.391 . S
C841 C842 1.391 . S
C842 C841 1.391 . S
C842 H898 0.947 . S
C842 C899 1.392 . S
C843 C844 1.391 . S
C843 C847 1.397 . S
C843 C899 1.419 . S
C844 C840 1.391 . S
C844 C843 1.391 . S
C844 C845 1.399 . S
C845 C844 1.399 . S
C845 C848 1.396 . S
C845 C857 1.453 . S
C845 C858 1.684 . S
H846 C870 0.948 . S
C847 C843 1.397 . S
C847 C848 1.394 . S
C847 C866 1.723 . S
C848 C845 1.396 . S
C848 C847 1.394 . S
C848 C878 1.723 . S
H849 C872 0.947 . S
H850 C873 0.948 . S
H851 C879 0.982 . S
H852 C880 0.979 . S
H853 C880 0.980 . S
H854 C880 0.983 . S
H855 C879 0.979 . S
H856 C879 0.977 . S
C857 C845 1.453 . S
C857 H886 0.982 . S
C857 H887 0.979 . S
C857 H888 0.977 . S
C858 C845 1.684 . S
C858 H883 0.979 . S
C858 H884 0.980 . S
C858 H885 0.983 . S
C859 C860 1.391 . S
C859 C864 1.391 . S
C859 H889 0.948 . S
C860 C859 1.391 . S
C860 C861 1.391 . S
C861 C860 1.391 . S
C861 C862 1.392 . S
C861 H890 0.947 . S
C862 C861 1.392 . S
C862 C863 1.419 . S
C862 H891 0.948 . S
C863 C862 1.419 . S
C863 C864 1.391 . S
C863 C867 1.397 . S
C864 C859 1.391 . S
C864 C863 1.391 . S
C864 C865 1.399 . S
C865 C864 1.399 . S
C865 C866 1.396 . S
C865 C868 1.453 . S
C865 C869 1.684 . S
C866 C847 1.723 . S
C866 C865 1.396 . S
C866 C867 1.394 . S
C867 C863 1.397 . S
C867 C866 1.394 . S
C867 C877 1.723 . S
C868 C865 1.453 . S
C868 H892 0.982 . S
C868 H893 0.979 . S
C868 H894 0.977 . S
C869 C865 1.684 . S
C869 H895 0.979 . S
C869 H896 0.980 . S
C869 H897 0.983 . S
C870 H846 0.948 . S
C870 C871 1.391 . S
C870 C875 1.391 . S
C871 C870 1.391 . S
C871 C872 1.391 . S
C872 H849 0.947 . S
C872 C871 1.391 . S
C872 C873 1.392 . S
C873 H850 0.948 . S
C873 C872 1.392 . S
C873 C874 1.419 . S
C874 C873 1.419 . S
C874 C875 1.391 . S
C874 C878 1.397 . S
C875 C870 1.391 . S
C875 C874 1.391 . S
C875 C876 1.399 . S
C876 C875 1.399 . S
C876 C877 1.396 . S
C876 C879 1.453 . S
C876 C880 1.684 . S
C877 C867 1.723 . S
C877 C876 1.396 . S
C877 C878 1.394 . S
C878 C848 1.723 . S
C878 C874 1.397 . S
C878 C877 1.394 . S
C879 H851 0.982 . S
C879 H855 0.979 . S
C879 H856 0.977 . S
C879 C876 1.453 . S
C880 H852 0.979 . S
C880 H853 0.980 . S
C880 H854 0.983 . S
C880 C876 1.684 . S
H881 C899 0.948 . S
H882 C840 0.948 . S
H883 C858 0.979 . S
H884 C858 0.980 . S
H885 C858 0.983 . S
H886 C857 0.982 . S
H887 C857 0.979 . S
H888 C857 0.977 . S
H889 C859 0.948 . S
H890 C861 0.947 . S
H891 C862 0.948 . S
H892 C868 0.982 . S
H893 C868 0.979 . S
H894 C868 0.977 . S
H895 C869 0.979 . S
H896 C869 0.980 . S
H897 C869 0.983 . S
H898 C842 0.947 . S
C899 C842 1.392 . S
C899 C843 1.419 . S
C899 H881 0.948 . S
C900 C901 1.391 . S
C900 C904 1.391 1_565 S
C900 H942 0.948 1_566 S
C901 C900 1.391 . S
C901 C902 1.391 . S
C902 C901 1.391 . S
C902 H958 0.947 . S
C902 C959 1.392 . S
C903 C904 1.391 . S
C903 C907 1.397 . S
C903 C959 1.419 1_545 S
C904 C900 1.391 1_545 S
C904 C903 1.391 . S
C904 C905 1.419 . S
C905 C904 1.419 . S
C905 C908 1.427 . S
C905 C917 1.450 1_556 S
C905 C918 1.635 1_556 S
H906 C930 0.948 . S
C907 C903 1.397 . S
C907 C908 1.394 . S
C907 C926 1.723 . S
C908 C905 1.427 . S
C908 C907 1.394 . S
C908 C938 1.723 . S
H909 C932 0.947 . S
H910 C933 0.948 . S
H911 C939 0.982 . S
H912 C940 0.979 . S
H913 C940 0.980 . S
H914 C940 0.983 . S
H915 C939 0.979 . S
H916 C939 0.977 . S
C917 C905 1.450 1_554 S
C917 H946 0.982 1_554 S
C917 H947 0.979 . S
C917 H948 0.977 . S
C918 C905 1.635 1_554 S
C918 H943 0.979 . S
C918 H944 0.980 . S
C918 H945 0.983 . S
C919 C920 1.391 . S
C919 C924 1.391 . S
C919 H949 0.982 . S
C920 C919 1.391 . S
C920 C921 1.391 . S
C921 C920 1.391 . S
C921 C922 1.392 . S
C921 H950 0.947 . S
C922 C921 1.392 . S
C922 C923 1.419 . S
C922 H951 0.948 . S
C923 C922 1.419 . S
C923 C924 1.391 . S
C923 C927 1.397 . S
C924 C919 1.391 . S
C924 C923 1.391 . S
C924 C925 1.399 . S
C925 C924 1.399 . S
C925 C926 1.396 . S
C925 C928 1.453 . S
C925 C929 1.684 1_545 S
C926 C907 1.723 . S
C926 C925 1.396 . S
C926 C927 1.394 . S
C927 C923 1.397 . S
C927 C926 1.394 . S
C927 C937 1.723 . S
C928 C925 1.453 . S
C928 H952 0.982 . S
C928 H953 0.979 1_545 S
C928 H954 0.977 1_545 S
C929 C925 1.684 1_565 S
C929 H955 0.979 . S
C929 H956 0.980 . S
C929 H957 0.983 . S
C930 H906 0.948 . S
C930 C931 1.391 . S
C930 C935 1.391 1_554 S
C931 C930 1.391 . S
C931 C932 1.391 . S
C932 H909 0.947 . S
C932 C931 1.391 . S
C932 C933 1.392 . S
C933 H910 0.948 . S
C933 C932 1.392 . S
C933 C934 1.439 . S
C934 C933 1.439 . S
C934 C935 1.387 1_554 S
C934 C938 1.380 1_554 S
C935 C930 1.391 1_556 S
C935 C934 1.387 1_556 S
C935 C936 1.399 . S
C936 C935 1.399 . S
C936 C937 1.396 . S
C936 C939 1.453 . S
C936 C940 1.684 . S
C937 C927 1.723 . S
C937 C936 1.396 . S
C937 C938 1.394 . S
C938 C908 1.723 . S
C938 C934 1.380 1_556 S
C938 C937 1.394 . S
C939 H911 0.982 . S
C939 H915 0.979 . S
C939 H916 0.977 . S
C939 C936 1.453 . S
C940 H912 0.979 . S
C940 H913 0.980 . S
C940 H914 0.983 . S
C940 C936 1.684 . S
H941 C959 0.948 . S
H942 C900 0.948 1_544 S
H943 C918 0.979 . S
H944 C918 0.980 . S
H945 C918 0.983 . S
H946 C917 0.982 1_556 S
H947 C917 0.979 . S
H948 C917 0.977 . S
H949 C919 0.982 . S
H950 C921 0.947 . S
H951 C922 0.948 . S
H952 C928 0.982 . S
H953 C928 0.979 1_565 S
H954 C928 0.977 1_565 S
H955 C929 0.979 . S
H956 C929 0.980 . S
H957 C929 0.983 . S
H958 C902 0.947 . S
C959 C902 1.392 . S
C959 C903 1.419 1_565 S
C959 H941 0.948 . S
C960 O961 1.160 1_554 S
C960 O967 1.185 . S
O961 C960 1.160 1_556 S
O962 Zn963 1.899 1_556 S
O962 C970 1.284 . S
Zn963 O962 1.899 1_554 S
Zn963 O964 2.032 . S
Zn963 O967 2.086 . S
Zn963 O972 1.977 . S
O964 Zn963 2.032 . S
O964 C968 1.278 . S
C965 O966 1.203 . S
C965 O972 1.267 . S
O966 C965 1.203 . S
O967 C960 1.185 . S
O967 Zn963 2.086 . S
C968 O964 1.278 . S
C968 O969 1.211 . S
O969 C968 1.211 . S
C970 O962 1.284 . S
C970 O971 1.273 . S
O971 C970 1.273 . S
O972 Zn963 1.977 . S
O972 C965 1.267 . S
C973 O974 1.160 . S
C973 O980 1.185 . S
O974 C973 1.160 . S
O975 Zn976 1.899 . S
O975 C983 1.284 . S
Zn976 O975 1.899 . S
Zn976 O977 2.032 . S
Zn976 O980 2.086 . S
Zn976 O985 1.977 . S
O977 Zn976 2.032 . S
O977 C981 1.278 . S
C978 O979 1.203 . S
C978 O985 1.267 . S
O979 C978 1.203 . S
O980 C973 1.185 . S
O980 Zn976 2.086 . S
C981 O977 1.278 . S
C981 O982 1.211 . S
O982 C981 1.211 . S
C983 O975 1.284 . S
C983 O984 1.273 . S
O984 C983 1.273 . S
O985 Zn976 1.977 . S
O985 C978 1.267 . S
C986 O987 1.160 1_554 S
C986 O993 1.185 . S
O987 C986 1.160 1_556 S
O988 Zn989 1.899 1_556 S
O988 C996 1.284 . S
Zn989 O988 1.899 1_554 S
Zn989 O990 2.032 1_554 S
Zn989 O993 2.086 . S
Zn989 O998 1.977 . S
O990 Zn989 2.032 1_556 S
O990 C994 1.278 . S
C991 O992 1.203 . S
C991 O998 1.267 . S
O992 C991 1.203 . S
O993 C986 1.185 . S
O993 Zn989 2.086 . S
C994 O990 1.278 . S
C994 O995 1.211 1_556 S
O995 C994 1.211 1_554 S
C996 O988 1.284 . S
C996 O997 1.273 . S
O997 C996 1.273 . S
O998 Zn989 1.977 . S
O998 C991 1.267 . S
C999 O1000 1.160 . S
C999 O1006 1.185 . S
O1000 C999 1.160 . S
O1001 Zn1002 1.899 . S
O1001 C1009 1.284 . S
Zn1002 O1001 1.899 . S
Zn1002 O1003 2.032 1_545 S
Zn1002 O1006 2.086 . S
Zn1002 O1011 1.977 . S
O1003 Zn1002 2.032 1_565 S
O1003 C1007 1.278 . S
C1004 O1005 1.203 . S
C1004 O1011 1.267 . S
O1005 C1004 1.203 . S
O1006 C999 1.185 . S
O1006 Zn1002 2.086 . S
C1007 O1003 1.278 . S
C1007 O1008 1.211 . S
O1008 C1007 1.211 . S
C1009 O1001 1.284 . S
C1009 O1010 1.273 1_545 S
O1010 C1009 1.273 1_565 S
O1011 Zn1002 1.977 . S
O1011 C1004 1.267 . S
C1012 O1013 1.160 . S
C1012 O1019 1.185 . S
O1013 C1012 1.160 . S
O1014 Zn1015 1.899 . S
O1014 C1022 1.284 . S
Zn1015 O1014 1.899 . S
Zn1015 O1016 2.032 . S
Zn1015 O1019 2.086 . S
Zn1015 O1024 1.977 . S
O1016 Zn1015 2.032 . S
O1016 C1020 1.278 . S
C1017 O1018 1.203 . S
C1017 O1024 1.267 . S
O1018 C1017 1.203 . S
O1019 C1012 1.185 . S
O1019 Zn1015 2.086 . S
C1020 O1016 1.278 . S
C1020 O1021 1.211 . S
O1021 C1020 1.211 . S
C1022 O1014 1.284 . S
C1022 O1023 1.273 . S
O1023 C1022 1.273 . S
O1024 Zn1015 1.977 . S
O1024 C1017 1.267 . S
C1025 O1026 1.160 . S
C1025 O1032 1.185 . S
O1026 C1025 1.160 . S
O1027 Zn1028 1.899 . S
O1027 C1035 1.284 . S
Zn1028 O1027 1.899 . S
Zn1028 O1029 2.032 . S
Zn1028 O1032 2.086 . S
Zn1028 O1037 1.977 . S
O1029 Zn1028 2.032 . S
O1029 C1033 1.278 . S
C1030 O1031 1.203 . S
C1030 O1037 1.267 . S
O1031 C1030 1.203 . S
O1032 C1025 1.185 . S
O1032 Zn1028 2.086 . S
C1033 O1029 1.278 . S
C1033 O1034 1.211 . S
O1034 C1033 1.211 . S
C1035 O1027 1.284 . S
C1035 O1036 1.273 . S
O1036 C1035 1.273 . S
O1037 Zn1028 1.977 . S
O1037 C1030 1.267 . S
C1038 O1039 1.160 . S
C1038 O1045 1.185 . S
O1039 C1038 1.160 . S
O1040 Zn1041 1.899 . S
O1040 C1048 1.284 . S
Zn1041 O1040 1.899 . S
Zn1041 O1042 2.032 . S
Zn1041 O1045 2.086 . S
Zn1041 O1050 1.977 . S
O1042 Zn1041 2.032 . S
O1042 C1046 1.278 . S
C1043 O1044 1.203 . S
C1043 O1050 1.267 . S
O1044 C1043 1.203 . S
O1045 C1038 1.185 . S
O1045 Zn1041 2.086 . S
C1046 O1042 1.278 . S
C1046 O1047 1.211 . S
O1047 C1046 1.211 . S
C1048 O1040 1.284 . S
C1048 O1049 1.273 . S
O1049 C1048 1.273 . S
O1050 Zn1041 1.977 . S
O1050 C1043 1.267 . S
C1051 O1052 1.160 . S
C1051 O1058 1.185 . S
O1052 C1051 1.160 . S
O1053 Zn1054 1.899 . S
O1053 C1061 1.284 1_565 S
Zn1054 O1053 1.899 . S
Zn1054 O1055 2.032 1_565 S
Zn1054 O1058 2.086 . S
Zn1054 O1063 1.977 . S
O1055 Zn1054 2.032 1_545 S
O1055 C1059 1.278 . S
C1056 O1057 1.203 1_565 S
C1056 O1063 1.267 . S
O1057 C1056 1.203 1_545 S
O1058 C1051 1.185 . S
O1058 Zn1054 2.086 . S
C1059 O1055 1.278 . S
C1059 O1060 1.211 . S
O1060 C1059 1.211 . S
C1061 O1053 1.284 1_545 S
C1061 O1062 1.273 . S
O1062 C1061 1.273 . S
O1063 Zn1054 1.977 . S
O1063 C1056 1.267 . S
C1064 O1065 1.160 1_455 S
C1064 O1071 1.185 . S
O1065 C1064 1.160 1_655 S
O1066 Zn1067 1.899 1_655 S
O1066 C1074 1.284 . S
Zn1067 O1066 1.899 1_455 S
Zn1067 O1068 2.032 1_455 S
Zn1067 O1071 2.086 . S
Zn1067 O1076 1.977 . S
O1068 Zn1067 2.032 1_655 S
O1068 C1072 1.276 1_655 S
C1069 O1070 1.203 . S
C1069 O1076 1.267 . S
O1070 C1069 1.203 . S
O1071 C1064 1.185 . S
O1071 Zn1067 2.086 . S
C1072 O1068 1.276 1_455 S
C1072 O1073 1.222 . S
O1073 C1072 1.222 . S
C1074 O1066 1.284 . S
C1074 O1075 1.273 . S
O1075 C1074 1.273 . S
O1076 Zn1067 1.977 . S
O1076 C1069 1.267 . S
C1077 O1078 1.160 . S
C1077 O1084 1.185 . S
O1078 C1077 1.160 . S
O1079 Zn1080 1.899 . S
O1079 C1087 1.284 . S
Zn1080 O1079 1.899 . S
Zn1080 O1081 2.032 . S
Zn1080 O1084 2.086 . S
Zn1080 O1089 1.977 . S
O1081 Zn1080 2.032 . S
O1081 C1085 1.278 . S
C1082 O1083 1.203 . S
C1082 O1089 1.267 . S
O1083 C1082 1.203 . S
O1084 C1077 1.185 . S
O1084 Zn1080 2.086 . S
C1085 O1081 1.278 . S
C1085 O1086 1.211 . S
O1086 C1085 1.211 . S
C1087 O1079 1.284 . S
C1087 O1088 1.273 . S
O1088 C1087 1.273 . S
O1089 Zn1080 1.977 . S
O1089 C1082 1.267 . S
C1090 O1091 1.160 1_455 S
C1090 O1097 1.185 . S
O1091 C1090 1.160 1_655 S
O1092 Zn1093 1.899 1_655 S
O1092 C1100 1.284 . S
Zn1093 O1092 1.899 1_455 S
Zn1093 O1094 2.032 1_455 S
Zn1093 O1097 2.086 . S
Zn1093 O1102 1.977 . S
O1094 Zn1093 2.032 1_655 S
O1094 C1098 1.278 . S
C1095 O1096 1.203 . S
C1095 O1102 1.267 . S
O1096 C1095 1.203 . S
O1097 C1090 1.185 . S
O1097 Zn1093 2.086 . S
C1098 O1094 1.278 . S
C1098 O1099 1.210 1_655 S
O1099 C1098 1.210 1_455 S
C1100 O1092 1.284 . S
C1100 O1101 1.273 . S
O1101 C1100 1.273 . S
O1102 Zn1093 1.977 . S
O1102 C1095 1.267 . S
C1103 O1104 1.160 . S
C1103 O1110 1.185 . S
O1104 C1103 1.160 . S
O1105 Zn1106 1.899 . S
O1105 C1113 1.284 . S
Zn1106 O1105 1.899 . S
Zn1106 O1107 2.032 . S
Zn1106 O1110 2.086 . S
Zn1106 O1115 1.977 . S
O1107 Zn1106 2.032 . S
O1107 C1111 1.278 . S
C1108 O1109 1.203 . S
C1108 O1115 1.267 . S
O1109 C1108 1.203 . S
O1110 C1103 1.185 . S
O1110 Zn1106 2.086 . S
C1111 O1107 1.278 . S
C1111 O1112 1.211 . S
O1112 C1111 1.211 . S
C1113 O1105 1.284 . S
C1113 O1114 1.273 . S
O1114 C1113 1.273 . S
O1115 Zn1106 1.977 . S
O1115 C1108 1.267 . S
H1116 C1122 0.930 . S
H1117 C1125 0.930 . S
H1118 C1126 0.930 . S
H1119 C1127 0.930 . S
H1120 C1130 0.930 . S
H1121 C1131 0.930 . S
C1122 H1116 0.930 . S
C1122 C1123 1.355 . S
C1122 C1124 1.415 . S
C1123 C1122 1.355 . S
C1123 C1125 1.419 . S
C1124 C1122 1.415 . S
C1124 C1129 1.425 . S
C1124 C1131 1.409 . S
C1125 H1117 0.930 . S
C1125 C1123 1.419 . S
C1125 C1126 1.362 . S
C1126 H1118 0.930 . S
C1126 C1125 1.362 . S
C1126 C1129 1.409 . S
C1127 H1119 0.930 . S
C1127 C1128 1.355 . S
C1127 C1129 1.415 . S
C1128 C1127 1.355 . S
C1128 C1130 1.419 . S
C1129 C1124 1.425 . S
C1129 C1126 1.409 . S
C1129 C1127 1.415 . S
C1130 H1120 0.930 . S
C1130 C1128 1.419 . S
C1130 C1131 1.362 . S
C1131 H1121 0.930 . S
C1131 C1124 1.409 . S
C1131 C1130 1.362 . S
H1132 C1138 0.930 . S
H1133 C1141 0.930 . S
H1134 C1142 0.930 . S
H1135 C1143 0.930 . S
H1136 C1146 0.930 . S
H1137 C1147 0.930 . S
C1138 H1132 0.930 . S
C1138 C1139 1.355 . S
C1138 C1140 1.415 . S
C1139 C1138 1.355 . S
C1139 C1141 1.419 . S
C1140 C1138 1.415 . S
C1140 C1145 1.425 . S
C1140 C1147 1.409 . S
C1141 H1133 0.930 . S
C1141 C1139 1.419 . S
C1141 C1142 1.362 . S
C1142 H1134 0.930 . S
C1142 C1141 1.362 . S
C1142 C1145 1.409 . S
C1143 H1135 0.930 . S
C1143 C1144 1.355 . S
C1143 C1145 1.415 . S
C1144 C1143 1.355 . S
C1144 C1146 1.419 . S
C1145 C1140 1.425 . S
C1145 C1142 1.409 . S
C1145 C1143 1.415 . S
C1146 H1136 0.930 . S
C1146 C1144 1.419 . S
C1146 C1147 1.362 . S
C1147 H1137 0.930 . S
C1147 C1140 1.409 . S
C1147 C1146 1.362 . S
H1148 C1154 0.930 . S
H1149 C1157 0.930 . S
H1150 C1158 0.930 . S
H1151 C1159 0.930 . S
H1152 C1162 0.930 . S
H1153 C1163 0.930 . S
C1154 H1148 0.930 . S
C1154 C1155 1.355 . S
C1154 C1156 1.415 . S
C1155 C1154 1.355 . S
C1155 C1157 1.419 . S
C1156 C1154 1.415 . S
C1156 C1161 1.425 . S
C1156 C1163 1.409 . S
C1157 H1149 0.930 . S
C1157 C1155 1.419 . S
C1157 C1158 1.362 . S
C1158 H1150 0.930 . S
C1158 C1157 1.362 . S
C1158 C1161 1.409 . S
C1159 H1151 0.930 . S
C1159 C1160 1.355 . S
C1159 C1161 1.415 . S
C1160 C1159 1.355 . S
C1160 C1162 1.419 . S
C1161 C1156 1.425 . S
C1161 C1158 1.409 . S
C1161 C1159 1.415 . S
C1162 H1152 0.930 . S
C1162 C1160 1.419 . S
C1162 C1163 1.362 . S
C1163 H1153 0.930 . S
C1163 C1156 1.409 . S
C1163 C1162 1.362 . S
H1164 C1170 0.930 . S
H1165 C1173 0.930 . S
H1166 C1174 0.930 . S
H1167 C1175 0.930 . S
H1168 C1178 0.930 . S
H1169 C1179 0.930 . S
C1170 H1164 0.930 . S
C1170 C1171 1.355 1_545 S
C1170 C1172 1.415 . S
C1171 C1170 1.355 1_565 S
C1171 C1173 1.419 . S
C1172 C1170 1.415 . S
C1172 C1177 1.425 1_545 S
C1172 C1179 1.409 . S
C1173 H1165 0.930 . S
C1173 C1171 1.419 . S
C1173 C1174 1.362 . S
C1174 H1166 0.930 . S
C1174 C1173 1.362 . S
C1174 C1177 1.409 . S
C1175 H1167 0.930 . S
C1175 C1176 1.355 1_565 S
C1175 C1177 1.415 . S
C1176 C1175 1.355 1_545 S
C1176 C1178 1.419 . S
C1177 C1172 1.425 1_565 S
C1177 C1174 1.409 . S
C1177 C1175 1.415 . S
C1178 H1168 0.930 . S
C1178 C1176 1.419 . S
C1178 C1179 1.362 . S
C1179 H1169 0.930 . S
C1179 C1172 1.409 . S
C1179 C1178 1.362 . S
H1180 C1186 0.930 . S
H1181 C1189 0.930 . S
H1182 C1190 0.930 . S
H1183 C1191 0.930 . S
H1184 C1194 0.930 . S
H1185 C1195 0.930 . S
C1186 H1180 0.930 . S
C1186 C1187 1.355 . S
C1186 C1188 1.415 . S
C1187 C1186 1.355 . S
C1187 C1189 1.419 . S
C1188 C1186 1.415 . S
C1188 C1193 1.425 . S
C1188 C1195 1.409 . S
C1189 H1181 0.930 . S
C1189 C1187 1.419 . S
C1189 C1190 1.362 . S
C1190 H1182 0.930 . S
C1190 C1189 1.362 . S
C1190 C1193 1.409 . S
C1191 H1183 0.930 . S
C1191 C1192 1.355 . S
C1191 C1193 1.415 . S
C1192 C1191 1.355 . S
C1192 C1194 1.419 . S
C1193 C1188 1.425 . S
C1193 C1190 1.409 . S
C1193 C1191 1.415 . S
C1194 H1184 0.930 . S
C1194 C1192 1.419 . S
C1194 C1195 1.362 . S
C1195 H1185 0.930 . S
C1195 C1188 1.409 . S
C1195 C1194 1.362 . S
H1196 C1202 0.930 . S
H1197 C1205 0.930 . S
H1198 C1206 0.930 . S
H1199 C1207 0.930 . S
H1200 C1210 0.930 . S
H1201 C1211 0.930 . S
C1202 H1196 0.930 . S
C1202 C1203 1.355 . S
C1202 C1204 1.415 . S
C1203 C1202 1.355 . S
C1203 C1205 1.419 . S
C1204 C1202 1.415 . S
C1204 C1209 1.425 . S
C1204 C1211 1.409 . S
C1205 H1197 0.930 . S
C1205 C1203 1.419 . S
C1205 C1206 1.362 . S
C1206 H1198 0.930 . S
C1206 C1205 1.362 . S
C1206 C1209 1.409 . S
C1207 H1199 0.930 . S
C1207 C1208 1.355 . S
C1207 C1209 1.415 . S
C1208 C1207 1.355 . S
C1208 C1210 1.419 . S
C1209 C1204 1.425 . S
C1209 C1206 1.409 . S
C1209 C1207 1.415 . S
C1210 H1200 0.930 . S
C1210 C1208 1.419 . S
C1210 C1211 1.362 . S
C1211 H1201 0.930 . S
C1211 C1204 1.409 . S
C1211 C1210 1.362 . S
H1212 C1218 0.930 . S
H1213 C1221 0.930 . S
H1214 C1222 0.930 . S
H1215 C1223 0.930 . S
H1216 C1226 0.930 . S
H1217 C1227 0.930 . S
C1218 H1212 0.930 . S
C1218 C1219 1.355 . S
C1218 C1220 1.415 . S
C1219 C1218 1.355 . S
C1219 C1221 1.419 . S
C1220 C1218 1.415 . S
C1220 C1225 1.425 . S
C1220 C1227 1.409 . S
C1221 H1213 0.930 . S
C1221 C1219 1.419 . S
C1221 C1222 1.362 . S
C1222 H1214 0.930 . S
C1222 C1221 1.362 . S
C1222 C1225 1.409 . S
C1223 H1215 0.930 . S
C1223 C1224 1.355 . S
C1223 C1225 1.415 . S
C1224 C1223 1.355 . S
C1224 C1226 1.419 . S
C1225 C1220 1.425 . S
C1225 C1222 1.409 . S
C1225 C1223 1.415 . S
C1226 H1216 0.930 . S
C1226 C1224 1.419 . S
C1226 C1227 1.362 . S
C1227 H1217 0.930 . S
C1227 C1220 1.409 . S
C1227 C1226 1.362 . S
H1228 C1234 0.930 . S
H1229 C1237 0.930 . S
H1230 C1238 0.930 . S
H1231 C1239 0.930 . S
H1232 C1242 0.930 . S
H1233 C1243 0.930 . S
C1234 H1228 0.930 . S
C1234 C1235 1.355 . S
C1234 C1236 1.415 . S
C1235 C1234 1.355 . S
C1235 C1237 1.419 1_565 S
C1236 C1234 1.415 . S
C1236 C1241 1.421 1_565 S
C1236 C1243 1.409 . S
C1237 H1229 0.930 . S
C1237 C1235 1.419 1_545 S
C1237 C1238 1.362 . S
C1238 H1230 0.930 . S
C1238 C1237 1.362 . S
C1238 C1241 1.412 . S
C1239 H1231 0.930 . S
C1239 C1240 1.355 1_545 S
C1239 C1241 1.416 . S
C1240 C1239 1.355 1_565 S
C1240 C1242 1.419 . S
C1241 C1236 1.421 1_545 S
C1241 C1238 1.412 . S
C1241 C1239 1.416 . S
C1242 H1232 0.930 . S
C1242 C1240 1.419 . S
C1242 C1243 1.362 . S
C1243 H1233 0.930 . S
C1243 C1236 1.409 . S
C1243 C1242 1.362 . S
H1244 C1250 0.930 . S
H1245 C1253 0.930 . S
H1246 C1254 0.930 . S
H1247 C1255 0.930 . S
H1248 C1258 0.930 . S
H1249 C1259 0.930 . S
C1250 H1244 0.930 . S
C1250 C1251 1.355 . S
C1250 C1252 1.415 . S
C1251 C1250 1.355 . S
C1251 C1253 1.419 . S
C1252 C1250 1.415 . S
C1252 C1257 1.425 . S
C1252 C1259 1.409 . S
C1253 H1245 0.930 . S
C1253 C1251 1.419 . S
C1253 C1254 1.362 . S
C1254 H1246 0.930 . S
C1254 C1253 1.362 . S
C1254 C1257 1.409 . S
C1255 H1247 0.930 . S
C1255 C1256 1.355 . S
C1255 C1257 1.415 . S
C1256 C1255 1.355 . S
C1256 C1258 1.419 . S
C1257 C1252 1.425 . S
C1257 C1254 1.409 . S
C1257 C1255 1.415 . S
C1258 H1248 0.930 . S
C1258 C1256 1.419 . S
C1258 C1259 1.362 . S
C1259 H1249 0.930 . S
C1259 C1252 1.409 . S
C1259 C1258 1.362 . S
H1260 C1266 0.930 . S
H1261 C1269 0.930 . S
H1262 C1270 0.930 . S
H1263 C1271 0.930 . S
H1264 C1274 0.930 . S
H1265 C1275 0.930 . S
C1266 H1260 0.930 . S
C1266 C1267 1.355 . S
C1266 C1268 1.415 . S
C1267 C1266 1.355 . S
C1267 C1269 1.419 . S
C1268 C1266 1.415 . S
C1268 C1273 1.425 . S
C1268 C1275 1.409 . S
C1269 H1261 0.930 . S
C1269 C1267 1.419 . S
C1269 C1270 1.362 . S
C1270 H1262 0.930 . S
C1270 C1269 1.362 . S
C1270 C1273 1.409 . S
C1271 H1263 0.930 . S
C1271 C1272 1.355 . S
C1271 C1273 1.415 . S
C1272 C1271 1.355 . S
C1272 C1274 1.419 . S
C1273 C1268 1.425 . S
C1273 C1270 1.409 . S
C1273 C1271 1.415 . S
C1274 H1264 0.930 . S
C1274 C1272 1.419 . S
C1274 C1275 1.362 . S
C1275 H1265 0.930 . S
C1275 C1268 1.409 . S
C1275 C1274 1.362 . S
H1276 C1282 0.930 . S
H1277 C1285 0.930 . S
H1278 C1286 0.930 . S
H1279 C1287 0.930 . S
H1280 C1290 0.930 . S
H1281 C1291 0.930 . S
C1282 H1276 0.930 . S
C1282 C1283 1.355 . S
C1282 C1284 1.415 . S
C1283 C1282 1.355 . S
C1283 C1285 1.419 . S
C1284 C1282 1.415 . S
C1284 C1289 1.425 . S
C1284 C1291 1.409 . S
C1285 H1277 0.930 . S
C1285 C1283 1.419 . S
C1285 C1286 1.362 . S
C1286 H1278 0.930 . S
C1286 C1285 1.362 . S
C1286 C1289 1.409 . S
C1287 H1279 0.930 . S
C1287 C1288 1.355 . S
C1287 C1289 1.415 . S
C1288 C1287 1.355 . S
C1288 C1290 1.419 . S
C1289 C1284 1.425 . S
C1289 C1286 1.409 . S
C1289 C1287 1.415 . S
C1290 H1280 0.930 . S
C1290 C1288 1.419 . S
C1290 C1291 1.362 . S
C1291 H1281 0.930 . S
C1291 C1284 1.409 . S
C1291 C1290 1.362 . S
H1292 C1298 0.930 . S
H1293 C1301 0.930 . S
H1294 C1302 0.930 . S
H1295 C1303 0.930 . S
H1296 C1306 0.930 . S
H1297 C1307 0.930 . S
C1298 H1292 0.930 . S
C1298 C1299 1.355 . S
C1298 C1300 1.415 . S
C1299 C1298 1.355 . S
C1299 C1301 1.419 . S
C1300 C1298 1.415 . S
C1300 C1305 1.425 . S
C1300 C1307 1.409 . S
C1301 H1293 0.930 . S
C1301 C1299 1.419 . S
C1301 C1302 1.362 . S
C1302 H1294 0.930 . S
C1302 C1301 1.362 . S
C1302 C1305 1.409 . S
C1303 H1295 0.930 . S
C1303 C1304 1.355 . S
C1303 C1305 1.415 . S
C1304 C1303 1.355 . S
C1304 C1306 1.419 . S
C1305 C1300 1.425 . S
C1305 C1302 1.409 . S
C1305 C1303 1.415 . S
C1306 H1296 0.930 . S
C1306 C1304 1.419 . S
C1306 C1307 1.362 . S
C1307 H1297 0.930 . S
C1307 C1300 1.409 . S
C1307 C1306 1.362 . S
H1308 C1314 0.930 . S
H1309 C1317 0.930 . S
H1310 C1318 0.930 . S
H1311 C1319 0.930 . S
H1312 C1322 0.930 . S
H1313 C1323 0.930 . S
C1314 H1308 0.930 . S
C1314 C1315 1.355 . S
C1314 C1316 1.415 . S
C1315 C1314 1.355 . S
C1315 C1317 1.419 . S
C1316 C1314 1.415 . S
C1316 C1321 1.425 . S
C1316 C1323 1.409 . S
C1317 H1309 0.930 . S
C1317 C1315 1.419 . S
C1317 C1318 1.362 . S
C1318 H1310 0.930 . S
C1318 C1317 1.362 . S
C1318 C1321 1.409 . S
C1319 H1311 0.930 . S
C1319 C1320 1.355 . S
C1319 C1321 1.415 . S
C1320 C1319 1.355 . S
C1320 C1322 1.419 . S
C1321 C1316 1.425 . S
C1321 C1318 1.409 . S
C1321 C1319 1.415 . S
C1322 H1312 0.930 . S
C1322 C1320 1.419 . S
C1322 C1323 1.362 . S
C1323 H1313 0.930 . S
C1323 C1316 1.409 . S
C1323 C1322 1.362 . S
H1324 C1330 0.930 1_655 S
H1325 C1333 0.930 . S
H1326 C1334 0.930 . S
H1327 C1335 0.930 . S
H1328 C1338 0.930 . S
H1329 C1339 0.930 . S
C1330 H1324 0.930 1_455 S
C1330 C1331 1.355 . S
C1330 C1332 1.415 . S
C1331 C1330 1.355 . S
C1331 C1333 1.419 . S
C1332 C1330 1.415 . S
C1332 C1337 1.425 . S
C1332 C1339 1.409 1_455 S
C1333 H1325 0.930 . S
C1333 C1331 1.419 . S
C1333 C1334 1.362 . S
C1334 H1326 0.930 . S
C1334 C1333 1.362 . S
C1334 C1337 1.409 . S
C1335 H1327 0.930 . S
C1335 C1336 1.355 . S
C1335 C1337 1.415 . S
C1336 C1335 1.355 . S
C1336 C1338 1.419 1_455 S
C1337 C1332 1.425 . S
C1337 C1334 1.409 . S
C1337 C1335 1.415 . S
C1338 H1328 0.930 . S
C1338 C1336 1.419 1_655 S
C1338 C1339 1.362 . S
C1339 H1329 0.930 . S
C1339 C1332 1.409 1_655 S
C1339 C1338 1.362 . S
H1340 C1346 0.930 . S
H1341 C1349 0.930 . S
H1342 C1350 0.930 . S
H1343 C1351 0.930 . S
H1344 C1354 0.930 . S
H1345 C1355 0.930 . S
C1346 H1340 0.930 . S
C1346 C1347 1.355 . S
C1346 C1348 1.415 . S
C1347 C1346 1.355 . S
C1347 C1349 1.419 . S
C1348 C1346 1.415 . S
C1348 C1353 1.425 . S
C1348 C1355 1.409 . S
C1349 H1341 0.930 . S
C1349 C1347 1.419 . S
C1349 C1350 1.362 . S
C1350 H1342 0.930 . S
C1350 C1349 1.362 . S
C1350 C1353 1.409 . S
C1351 H1343 0.930 . S
C1351 C1352 1.355 . S
C1351 C1353 1.415 . S
C1352 C1351 1.355 . S
C1352 C1354 1.419 . S
C1353 C1348 1.425 . S
C1353 C1350 1.409 . S
C1353 C1351 1.415 . S
C1354 H1344 0.930 . S
C1354 C1352 1.419 . S
C1354 C1355 1.362 . S
C1355 H1345 0.930 . S
C1355 C1348 1.409 . S
C1355 C1354 1.362 . S
H1356 C1362 0.930 . S
H1357 C1365 0.930 . S
H1358 C1366 0.930 . S
H1359 C1367 0.930 . S
H1360 C1370 0.930 . S
H1361 C1371 0.930 . S
C1362 H1356 0.930 . S
C1362 C1363 1.355 . S
C1362 C1364 1.415 . S
C1363 C1362 1.355 . S
C1363 C1365 1.419 1_655 S
C1364 C1362 1.415 . S
C1364 C1369 1.410 1_655 S
C1364 C1371 1.409 . S
C1365 H1357 0.930 . S
C1365 C1363 1.419 1_455 S
C1365 C1366 1.362 . S
C1366 H1358 0.930 . S
C1366 C1365 1.362 . S
C1366 C1369 1.420 . S
C1367 H1359 0.930 . S
C1367 C1368 1.355 1_455 S
C1367 C1369 1.419 . S
C1368 C1367 1.355 1_655 S
C1368 C1370 1.419 . S
C1369 C1364 1.410 1_455 S
C1369 C1366 1.420 . S
C1369 C1367 1.419 . S
C1370 H1360 0.930 . S
C1370 C1368 1.419 . S
C1370 C1371 1.362 . S
C1371 H1361 0.930 . S
C1371 C1364 1.409 . S
C1371 C1370 1.362 . S
H1372 C1378 0.930 . S
H1373 C1381 0.930 . S
H1374 C1382 0.930 . S
H1375 C1383 0.930 . S
H1376 C1386 0.930 . S
H1377 C1387 0.930 . S
C1378 H1372 0.930 . S
C1378 C1379 1.355 . S
C1378 C1380 1.415 . S
C1379 C1378 1.355 . S
C1379 C1381 1.419 . S
C1380 C1378 1.415 . S
C1380 C1385 1.425 . S
C1380 C1387 1.409 . S
C1381 H1373 0.930 . S
C1381 C1379 1.419 . S
C1381 C1382 1.362 . S
C1382 H1374 0.930 . S
C1382 C1381 1.362 . S
C1382 C1385 1.409 . S
C1383 H1375 0.930 . S
C1383 C1384 1.355 . S
C1383 C1385 1.415 . S
C1384 C1383 1.355 . S
C1384 C1386 1.419 . S
C1385 C1380 1.425 . S
C1385 C1382 1.409 . S
C1385 C1383 1.415 . S
C1386 H1376 0.930 . S
C1386 C1384 1.419 . S
C1386 C1387 1.362 . S
C1387 H1377 0.930 . S
C1387 C1380 1.409 . S
C1387 C1386 1.362 . S
H1388 C1394 0.930 . S
H1389 C1397 0.930 . S
H1390 C1398 0.930 . S
H1391 C1399 0.930 . S
H1392 C1402 0.930 . S
H1393 C1403 0.930 . S
C1394 H1388 0.930 . S
C1394 C1395 1.355 . S
C1394 C1396 1.415 . S
C1395 C1394 1.355 . S
C1395 C1397 1.419 . S
C1396 C1394 1.415 . S
C1396 C1401 1.425 . S
C1396 C1403 1.409 . S
C1397 H1389 0.930 . S
C1397 C1395 1.419 . S
C1397 C1398 1.362 . S
C1398 H1390 0.930 . S
C1398 C1397 1.362 . S
C1398 C1401 1.409 . S
C1399 H1391 0.930 . S
C1399 C1400 1.355 . S
C1399 C1401 1.415 . S
C1400 C1399 1.355 . S
C1400 C1402 1.419 . S
C1401 C1396 1.425 . S
C1401 C1398 1.409 . S
C1401 C1399 1.415 . S
C1402 H1392 0.930 . S
C1402 C1400 1.419 . S
C1402 C1403 1.362 . S
C1403 H1393 0.930 . S
C1403 C1396 1.409 . S
C1403 C1402 1.362 . S
H1404 C1410 0.930 . S
H1405 C1413 0.980 . S
H1406 C1414 0.930 . S
H1407 C1415 0.927 1_554 S
H1408 C1418 0.930 . S
H1409 C1419 0.930 . S
C1410 H1404 0.930 . S
C1410 C1411 1.355 . S
C1410 C1412 1.415 . S
C1411 C1410 1.355 . S
C1411 C1413 1.419 . S
C1412 C1410 1.415 . S
C1412 C1417 1.425 . S
C1412 C1419 1.409 . S
C1413 H1405 0.980 . S
C1413 C1411 1.419 . S
C1413 C1414 1.362 . S
C1414 H1406 0.930 . S
C1414 C1413 1.362 . S
C1414 C1417 1.409 . S
C1415 H1407 0.927 1_556 S
C1415 C1416 1.353 1_556 S
C1415 C1417 1.419 . S
C1416 C1415 1.353 1_554 S
C1416 C1418 1.419 1_554 S
C1417 C1412 1.425 . S
C1417 C1414 1.409 . S
C1417 C1415 1.419 . S
C1418 H1408 0.930 . S
C1418 C1416 1.419 1_556 S
C1418 C1419 1.362 . S
C1419 H1409 0.930 . S
C1419 C1412 1.409 . S
C1419 C1418 1.362 . S
H1420 C1426 0.930 . S
H1421 C1429 0.930 . S
H1422 C1430 0.930 . S
H1423 C1431 0.930 . S
H1424 C1434 0.930 . S
H1425 C1435 0.930 . S
C1426 H1420 0.930 . S
C1426 C1427 1.355 . S
C1426 C1428 1.415 . S
C1427 C1426 1.355 . S
C1427 C1429 1.419 . S
C1428 C1426 1.415 . S
C1428 C1433 1.425 . S
C1428 C1435 1.409 . S
C1429 H1421 0.930 . S
C1429 C1427 1.419 . S
C1429 C1430 1.362 . S
C1430 H1422 0.930 . S
C1430 C1429 1.362 . S
C1430 C1433 1.409 . S
C1431 H1423 0.930 . S
C1431 C1432 1.355 . S
C1431 C1433 1.415 . S
C1432 C1431 1.355 . S
C1432 C1434 1.419 . S
C1433 C1428 1.425 . S
C1433 C1430 1.409 . S
C1433 C1431 1.415 . S
C1434 H1424 0.930 . S
C1434 C1432 1.419 . S
C1434 C1435 1.362 . S
C1435 H1425 0.930 . S
C1435 C1428 1.409 . S
C1435 C1434 1.362 . S
H1436 C1442 0.930 . S
H1437 C1445 0.930 . S
H1438 C1446 0.930 . S
H1439 C1447 0.930 . S
H1440 C1450 0.930 . S
H1441 C1451 0.930 . S
C1442 H1436 0.930 . S
C1442 C1443 1.355 . S
C1442 C1444 1.415 . S
C1443 C1442 1.355 . S
C1443 C1445 1.419 . S
C1444 C1442 1.415 . S
C1444 C1449 1.425 . S
C1444 C1451 1.409 . S
C1445 H1437 0.930 . S
C1445 C1443 1.419 . S
C1445 C1446 1.362 . S
C1446 H1438 0.930 . S
C1446 C1445 1.362 . S
C1446 C1449 1.409 . S
C1447 H1439 0.930 . S
C1447 C1448 1.355 . S
C1447 C1449 1.415 . S
C1448 C1447 1.355 . S
C1448 C1450 1.419 . S
C1449 C1444 1.425 . S
C1449 C1446 1.409 . S
C1449 C1447 1.415 . S
C1450 H1440 0.930 . S
C1450 C1448 1.419 . S
C1450 C1451 1.362 . S
C1451 H1441 0.930 . S
C1451 C1444 1.409 . S
C1451 C1450 1.362 . S
H1452 C1458 0.930 . S
H1453 C1461 0.930 . S
H1454 C1462 0.930 . S
H1455 C1463 0.930 . S
H1456 C1466 0.930 . S
H1457 C1467 0.930 . S
C1458 H1452 0.930 . S
C1458 C1459 1.355 . S
C1458 C1460 1.415 . S
C1459 C1458 1.355 . S
C1459 C1461 1.419 . S
C1460 C1458 1.415 . S
C1460 C1465 1.425 . S
C1460 C1467 1.409 . S
C1461 H1453 0.930 . S
C1461 C1459 1.419 . S
C1461 C1462 1.362 . S
C1462 H1454 0.930 . S
C1462 C1461 1.362 . S
C1462 C1465 1.409 . S
C1463 H1455 0.930 . S
C1463 C1464 1.355 . S
C1463 C1465 1.415 . S
C1464 C1463 1.355 . S
C1464 C1466 1.419 . S
C1465 C1460 1.425 . S
C1465 C1462 1.409 . S
C1465 C1463 1.415 . S
C1466 H1456 0.930 . S
C1466 C1464 1.419 . S
C1466 C1467 1.362 . S
C1467 H1457 0.930 . S
C1467 C1460 1.409 . S
C1467 C1466 1.362 . S
H1468 C1474 0.930 . S
H1469 C1477 0.930 . S
H1470 C1478 0.930 . S
H1471 C1479 0.930 . S
H1472 C1482 0.930 . S
H1473 C1483 0.930 . S
C1474 H1468 0.930 . S
C1474 C1475 1.355 . S
C1474 C1476 1.415 . S
C1475 C1474 1.355 . S
C1475 C1477 1.419 . S
C1476 C1474 1.415 . S
C1476 C1481 1.425 . S
C1476 C1483 1.409 . S
C1477 H1469 0.930 . S
C1477 C1475 1.419 . S
C1477 C1478 1.362 . S
C1478 H1470 0.930 . S
C1478 C1477 1.362 . S
C1478 C1481 1.409 . S
C1479 H1471 0.930 . S
C1479 C1480 1.355 . S
C1479 C1481 1.415 . S
C1480 C1479 1.355 . S
C1480 C1482 1.419 . S
C1481 C1476 1.425 . S
C1481 C1478 1.409 . S
C1481 C1479 1.415 . S
C1482 H1472 0.930 . S
C1482 C1480 1.419 . S
C1482 C1483 1.362 . S
C1483 H1473 0.930 . S
C1483 C1476 1.409 . S
C1483 C1482 1.362 . S
H1484 C1490 0.930 . S
H1485 C1493 0.930 . S
H1486 C1494 0.930 . S
H1487 C1495 0.930 . S
H1488 C1498 0.930 . S
H1489 C1499 0.930 . S
C1490 H1484 0.930 . S
C1490 C1491 1.355 . S
C1490 C1492 1.415 . S
C1491 C1490 1.355 . S
C1491 C1493 1.419 . S
C1492 C1490 1.415 . S
C1492 C1497 1.425 . S
C1492 C1499 1.409 . S
C1493 H1485 0.930 . S
C1493 C1491 1.419 . S
C1493 C1494 1.362 . S
C1494 H1486 0.930 . S
C1494 C1493 1.362 . S
C1494 C1497 1.409 . S
C1495 H1487 0.930 . S
C1495 C1496 1.355 . S
C1495 C1497 1.415 . S
C1496 C1495 1.355 . S
C1496 C1498 1.419 . S
C1497 C1492 1.425 . S
C1497 C1494 1.409 . S
C1497 C1495 1.415 . S
C1498 H1488 0.930 . S
C1498 C1496 1.419 . S
C1498 C1499 1.362 . S
C1499 H1489 0.930 . S
C1499 C1492 1.409 . S
C1499 C1498 1.362 . S
H1500 C1506 0.930 . S
H1501 C1509 0.930 . S
H1502 C1510 0.930 . S
H1503 C1511 0.930 . S
H1504 C1514 0.930 . S
H1505 C1515 0.930 . S
C1506 H1500 0.930 . S
C1506 C1507 1.355 . S
C1506 C1508 1.415 . S
C1507 C1506 1.355 . S
C1507 C1509 1.419 . S
C1508 C1506 1.415 . S
C1508 C1513 1.425 . S
C1508 C1515 1.409 . S
C1509 H1501 0.930 . S
C1509 C1507 1.419 . S
C1509 C1510 1.362 . S
C1510 H1502 0.930 . S
C1510 C1509 1.362 . S
C1510 C1513 1.409 . S
C1511 H1503 0.930 . S
C1511 C1512 1.355 . S
C1511 C1513 1.415 . S
C1512 C1511 1.355 . S
C1512 C1514 1.419 . S
C1513 C1508 1.425 . S
C1513 C1510 1.409 . S
C1513 C1511 1.415 . S
C1514 H1504 0.930 . S
C1514 C1512 1.419 . S
C1514 C1515 1.362 . S
C1515 H1505 0.930 . S
C1515 C1508 1.409 . S
C1515 C1514 1.362 . S
H1516 C1522 0.930 . S
H1517 C1525 0.930 . S
H1518 C1526 0.925 1_565 S
H1519 C1527 0.930 1_565 S
H1520 C1530 0.930 . S
H1521 C1531 0.930 . S
C1522 H1516 0.930 . S
C1522 C1523 1.355 . S
C1522 C1524 1.415 . S
C1523 C1522 1.355 . S
C1523 C1525 1.419 . S
C1524 C1522 1.415 . S
C1524 C1529 1.425 . S
C1524 C1531 1.409 . S
C1525 H1517 0.930 . S
C1525 C1523 1.419 . S
C1525 C1526 1.362 . S
C1526 H1518 0.925 1_545 S
C1526 C1525 1.362 . S
C1526 C1529 1.409 . S
C1527 H1519 0.930 1_545 S
C1527 C1528 1.355 . S
C1527 C1529 1.415 . S
C1528 C1527 1.355 . S
C1528 C1530 1.419 . S
C1529 C1524 1.425 . S
C1529 C1526 1.409 . S
C1529 C1527 1.415 . S
C1530 H1520 0.930 . S
C1530 C1528 1.419 . S
C1530 C1531 1.362 . S
C1531 H1521 0.930 . S
C1531 C1524 1.409 . S
C1531 C1530 1.362 . S
H1532 C1538 0.930 . S
H1533 C1541 0.930 . S
H1534 C1542 0.930 . S
H1535 C1543 0.930 . S
H1536 C1546 0.930 . S
H1537 C1547 0.930 . S
C1538 H1532 0.930 . S
C1538 C1539 1.355 . S
C1538 C1540 1.415 . S
C1539 C1538 1.355 . S
C1539 C1541 1.419 . S
C1540 C1538 1.415 . S
C1540 C1545 1.425 . S
C1540 C1547 1.409 . S
C1541 H1533 0.930 . S
C1541 C1539 1.419 . S
C1541 C1542 1.362 . S
C1542 H1534 0.930 . S
C1542 C1541 1.362 . S
C1542 C1545 1.409 . S
C1543 H1535 0.930 . S
C1543 C1544 1.355 . S
C1543 C1545 1.415 . S
C1544 C1543 1.355 . S
C1544 C1546 1.419 . S
C1545 C1540 1.425 . S
C1545 C1542 1.409 . S
C1545 C1543 1.415 . S
C1546 H1536 0.930 . S
C1546 C1544 1.419 . S
C1546 C1547 1.362 . S
C1547 H1537 0.930 . S
C1547 C1540 1.409 . S
C1547 C1546 1.362 . S
H1548 C1554 0.930 . S
H1549 C1557 0.930 . S
H1550 C1558 0.930 . S
H1551 C1559 0.930 . S
H1552 C1562 0.930 . S
H1553 C1563 0.930 . S
C1554 H1548 0.930 . S
C1554 C1555 1.355 . S
C1554 C1556 1.415 . S
C1555 C1554 1.355 . S
C1555 C1557 1.419 . S
C1556 C1554 1.415 . S
C1556 C1561 1.425 . S
C1556 C1563 1.409 . S
C1557 H1549 0.930 . S
C1557 C1555 1.419 . S
C1557 C1558 1.362 . S
C1558 H1550 0.930 . S
C1558 C1557 1.362 . S
C1558 C1561 1.409 . S
C1559 H1551 0.930 . S
C1559 C1560 1.355 . S
C1559 C1561 1.415 . S
C1560 C1559 1.355 . S
C1560 C1562 1.419 . S
C1561 C1556 1.425 . S
C1561 C1558 1.409 . S
C1561 C1559 1.415 . S
C1562 H1552 0.930 . S
C1562 C1560 1.419 . S
C1562 C1563 1.362 . S
C1563 H1553 0.930 . S
C1563 C1556 1.409 . S
C1563 C1562 1.362 . S
H1564 C1570 0.930 . S
H1565 C1573 0.930 . S
H1566 C1574 0.930 . S
H1567 C1575 0.930 . S
H1568 C1578 0.930 . S
H1569 C1579 0.930 . S
C1570 H1564 0.930 . S
C1570 C1571 1.355 . S
C1570 C1572 1.415 . S
C1571 C1570 1.355 . S
C1571 C1573 1.419 . S
C1572 C1570 1.415 . S
C1572 C1577 1.425 . S
C1572 C1579 1.409 . S
C1573 H1565 0.930 . S
C1573 C1571 1.419 . S
C1573 C1574 1.362 . S
C1574 H1566 0.930 . S
C1574 C1573 1.362 . S
C1574 C1577 1.409 . S
C1575 H1567 0.930 . S
C1575 C1576 1.355 . S
C1575 C1577 1.415 . S
C1576 C1575 1.355 . S
C1576 C1578 1.419 . S
C1577 C1572 1.425 . S
C1577 C1574 1.409 . S
C1577 C1575 1.415 . S
C1578 H1568 0.930 . S
C1578 C1576 1.419 . S
C1578 C1579 1.362 . S
C1579 H1569 0.930 . S
C1579 C1572 1.409 . S
C1579 C1578 1.362 . S
H1580 C1586 0.930 . S
H1581 C1589 0.930 . S
H1582 C1590 0.930 . S
H1583 C1591 0.930 . S
H1584 C1594 0.930 1_565 S
H1585 C1595 0.897 1_565 S
C1586 H1580 0.930 . S
C1586 C1587 1.355 . S
C1586 C1588 1.415 . S
C1587 C1586 1.355 . S
C1587 C1589 1.419 . S
C1588 C1586 1.415 . S
C1588 C1593 1.425 . S
C1588 C1595 1.441 . S
C1589 H1581 0.930 . S
C1589 C1587 1.419 . S
C1589 C1590 1.362 . S
C1590 H1582 0.930 . S
C1590 C1589 1.362 . S
C1590 C1593 1.409 . S
C1591 H1583 0.930 . S
C1591 C1592 1.355 . S
C1591 C1593 1.415 . S
C1592 C1591 1.355 . S
C1592 C1594 1.419 . S
C1593 C1588 1.425 . S
C1593 C1590 1.409 . S
C1593 C1591 1.415 . S
C1594 H1584 0.930 1_545 S
C1594 C1592 1.419 . S
C1594 C1595 1.365 . S
C1595 H1585 0.897 1_545 S
C1595 C1588 1.441 . S
C1595 C1594 1.365 . S
H1596 C1602 0.930 . S
H1597 C1605 0.930 . S
H1598 C1606 0.930 . S
H1599 C1607 0.930 . S
H1600 C1610 0.930 . S
H1601 C1611 0.930 . S
C1602 H1596 0.930 . S
C1602 C1603 1.355 . S
C1602 C1604 1.415 . S
C1603 C1602 1.355 . S
C1603 C1605 1.419 . S
C1604 C1602 1.415 . S
C1604 C1609 1.425 . S
C1604 C1611 1.409 . S
C1605 H1597 0.930 . S
C1605 C1603 1.419 . S
C1605 C1606 1.362 . S
C1606 H1598 0.930 . S
C1606 C1605 1.362 . S
C1606 C1609 1.409 . S
C1607 H1599 0.930 . S
C1607 C1608 1.355 . S
C1607 C1609 1.415 . S
C1608 C1607 1.355 . S
C1608 C1610 1.419 . S
C1609 C1604 1.425 . S
C1609 C1606 1.409 . S
C1609 C1607 1.415 . S
C1610 H1600 0.930 . S
C1610 C1608 1.419 . S
C1610 C1611 1.362 . S
C1611 H1601 0.930 . S
C1611 C1604 1.409 . S
C1611 C1610 1.362 . S
H1612 C1618 0.930 . S
H1613 C1621 0.930 . S
H1614 C1622 0.930 . S
H1615 C1623 0.930 . S
H1616 C1626 0.930 . S
H1617 C1627 0.930 . S
C1618 H1612 0.930 . S
C1618 C1619 1.355 . S
C1618 C1620 1.415 . S
C1619 C1618 1.355 . S
C1619 C1621 1.419 . S
C1620 C1618 1.415 . S
C1620 C1625 1.425 . S
C1620 C1627 1.409 . S
C1621 H1613 0.930 . S
C1621 C1619 1.419 . S
C1621 C1622 1.362 . S
C1622 H1614 0.930 . S
C1622 C1621 1.362 . S
C1622 C1625 1.409 . S
C1623 H1615 0.930 . S
C1623 C1624 1.355 . S
C1623 C1625 1.415 . S
C1624 C1623 1.355 . S
C1624 C1626 1.419 . S
C1625 C1620 1.425 . S
C1625 C1622 1.409 . S
C1625 C1623 1.415 . S
C1626 H1616 0.930 . S
C1626 C1624 1.419 . S
C1626 C1627 1.362 . S
C1627 H1617 0.930 . S
C1627 C1620 1.409 . S
C1627 C1626 1.362 . S
H1628 C1634 0.930 . S
H1629 C1637 0.930 . S
H1630 C1638 0.930 . S
H1631 C1639 0.930 . S
H1632 C1642 0.930 . S
H1633 C1643 0.930 . S
C1634 H1628 0.930 . S
C1634 C1635 1.355 . S
C1634 C1636 1.415 . S
C1635 C1634 1.355 . S
C1635 C1637 1.419 . S
C1636 C1634 1.415 . S
C1636 C1641 1.425 . S
C1636 C1643 1.409 . S
C1637 H1629 0.930 . S
C1637 C1635 1.419 . S
C1637 C1638 1.362 . S
C1638 H1630 0.930 . S
C1638 C1637 1.362 . S
C1638 C1641 1.409 . S
C1639 H1631 0.930 . S
C1639 C1640 1.355 . S
C1639 C1641 1.415 . S
C1640 C1639 1.355 . S
C1640 C1642 1.419 . S
C1641 C1636 1.425 . S
C1641 C1638 1.409 . S
C1641 C1639 1.415 . S
C1642 H1632 0.930 . S
C1642 C1640 1.419 . S
C1642 C1643 1.362 . S
C1643 H1633 0.930 . S
C1643 C1636 1.409 . S
C1643 C1642 1.362 . S
H1644 C1650 0.930 1_455 S
H1645 C1653 0.930 . S
H1646 C1654 0.930 . S
H1647 C1655 0.930 . S
H1648 C1658 0.930 . S
H1649 C1659 0.930 . S
C1650 H1644 0.930 1_655 S
C1650 C1651 1.355 . S
C1650 C1652 1.415 . S
C1651 C1650 1.355 . S
C1651 C1653 1.419 . S
C1652 C1650 1.415 . S
C1652 C1657 1.425 . S
C1652 C1659 1.409 1_655 S
C1653 H1645 0.930 . S
C1653 C1651 1.419 . S
C1653 C1654 1.362 . S
C1654 H1646 0.930 . S
C1654 C1653 1.362 . S
C1654 C1657 1.409 . S
C1655 H1647 0.930 . S
C1655 C1656 1.355 . S
C1655 C1657 1.415 . S
C1656 C1655 1.355 . S
C1656 C1658 1.419 1_655 S
C1657 C1652 1.425 . S
C1657 C1654 1.409 . S
C1657 C1655 1.415 . S
C1658 H1648 0.930 . S
C1658 C1656 1.419 1_455 S
C1658 C1659 1.362 . S
C1659 H1649 0.930 . S
C1659 C1652 1.409 1_455 S
C1659 C1658 1.362 . S
H1660 C1666 0.930 . S
H1661 C1669 0.930 . S
H1662 C1670 0.930 . S
H1663 C1671 0.930 . S
H1664 C1674 0.930 . S
H1665 C1675 0.930 . S
C1666 H1660 0.930 . S
C1666 C1667 1.355 . S
C1666 C1668 1.415 . S
C1667 C1666 1.355 . S
C1667 C1669 1.419 . S
C1668 C1666 1.415 . S
C1668 C1673 1.425 . S
C1668 C1675 1.409 . S
C1669 H1661 0.930 . S
C1669 C1667 1.419 . S
C1669 C1670 1.362 . S
C1670 H1662 0.930 . S
C1670 C1669 1.362 . S
C1670 C1673 1.409 . S
C1671 H1663 0.930 . S
C1671 C1672 1.355 . S
C1671 C1673 1.415 . S
C1672 C1671 1.355 . S
C1672 C1674 1.419 . S
C1673 C1668 1.425 . S
C1673 C1670 1.409 . S
C1673 C1671 1.415 . S
C1674 H1664 0.930 . S
C1674 C1672 1.419 . S
C1674 C1675 1.362 . S
C1675 H1665 0.930 . S
C1675 C1668 1.409 . S
C1675 C1674 1.362 . S
H1676 C1682 0.930 1_655 S
H1677 C1685 0.930 . S
H1678 C1686 0.930 . S
H1679 C1687 0.930 . S
H1680 C1690 0.930 . S
H1681 C1691 0.930 . S
C1682 H1676 0.930 1_455 S
C1682 C1683 1.355 . S
C1682 C1684 1.415 . S
C1683 C1682 1.355 . S
C1683 C1685 1.419 . S
C1684 C1682 1.415 . S
C1684 C1689 1.425 . S
C1684 C1691 1.409 1_455 S
C1685 H1677 0.930 . S
C1685 C1683 1.419 . S
C1685 C1686 1.362 . S
C1686 H1678 0.930 . S
C1686 C1685 1.362 . S
C1686 C1689 1.409 . S
C1687 H1679 0.930 . S
C1687 C1688 1.355 . S
C1687 C1689 1.415 . S
C1688 C1687 1.355 . S
C1688 C1690 1.419 1_455 S
C1689 C1684 1.425 . S
C1689 C1686 1.409 . S
C1689 C1687 1.415 . S
C1690 H1680 0.930 . S
C1690 C1688 1.419 1_655 S
C1690 C1691 1.362 . S
C1691 H1681 0.930 . S
C1691 C1684 1.409 1_655 S
C1691 C1690 1.362 . S
H1692 C1698 0.930 . S
H1693 C1701 0.930 . S
H1694 C1702 0.930 . S
H1695 C1703 0.930 . S
H1696 C1706 0.930 . S
H1697 C1707 0.930 . S
C1698 H1692 0.930 . S
C1698 C1699 1.355 . S
C1698 C1700 1.415 . S
C1699 C1698 1.355 . S
C1699 C1701 1.419 . S
C1700 C1698 1.415 . S
C1700 C1705 1.425 . S
C1700 C1707 1.409 . S
C1701 H1693 0.930 . S
C1701 C1699 1.419 . S
C1701 C1702 1.362 . S
C1702 H1694 0.930 . S
C1702 C1701 1.362 . S
C1702 C1705 1.409 . S
C1703 H1695 0.930 . S
C1703 C1704 1.355 . S
C1703 C1705 1.415 . S
C1704 C1703 1.355 . S
C1704 C1706 1.419 . S
C1705 C1700 1.425 . S
C1705 C1702 1.409 . S
C1705 C1703 1.415 . S
C1706 H1696 0.930 . S
C1706 C1704 1.419 . S
C1706 C1707 1.362 . S
C1707 H1697 0.930 . S
C1707 C1700 1.409 . S
C1707 C1706 1.362 . S
H1708 C1714 0.930 . S
H1709 C1717 0.930 . S
H1710 C1718 0.930 . S
H1711 C1719 0.930 . S
H1712 C1722 0.930 . S
H1713 C1723 0.930 . S
C1714 H1708 0.930 . S
C1714 C1715 1.355 . S
C1714 C1716 1.415 . S
C1715 C1714 1.355 . S
C1715 C1717 1.419 . S
C1716 C1714 1.415 . S
C1716 C1721 1.425 . S
C1716 C1723 1.409 . S
C1717 H1709 0.930 . S
C1717 C1715 1.419 . S
C1717 C1718 1.362 . S
C1718 H1710 0.930 . S
C1718 C1717 1.362 . S
C1718 C1721 1.409 . S
C1719 H1711 0.930 . S
C1719 C1720 1.355 . S
C1719 C1721 1.415 . S
C1720 C1719 1.355 . S
C1720 C1722 1.419 . S
C1721 C1716 1.425 . S
C1721 C1718 1.409 . S
C1721 C1719 1.415 . S
C1722 H1712 0.930 . S
C1722 C1720 1.419 . S
C1722 C1723 1.362 . S
C1723 H1713 0.930 . S
C1723 C1716 1.409 . S
C1723 C1722 1.362 . S
H1724 C1730 0.930 . S
H1725 C1733 0.930 . S
H1726 C1734 0.930 . S
H1727 C1735 0.930 . S
H1728 C1738 0.930 . S
H1729 C1739 0.930 . S
C1730 H1724 0.930 . S
C1730 C1731 1.355 . S
C1730 C1732 1.415 . S
C1731 C1730 1.355 . S
C1731 C1733 1.419 . S
C1732 C1730 1.415 . S
C1732 C1737 1.425 . S
C1732 C1739 1.409 . S
C1733 H1725 0.930 . S
C1733 C1731 1.419 . S
C1733 C1734 1.362 . S
C1734 H1726 0.930 . S
C1734 C1733 1.362 . S
C1734 C1737 1.409 . S
C1735 H1727 0.930 . S
C1735 C1736 1.355 . S
C1735 C1737 1.415 . S
C1736 C1735 1.355 . S
C1736 C1738 1.419 . S
C1737 C1732 1.425 . S
C1737 C1734 1.409 . S
C1737 C1735 1.415 . S
C1738 H1728 0.930 . S
C1738 C1736 1.419 . S
C1738 C1739 1.362 . S
C1739 H1729 0.930 . S
C1739 C1732 1.409 . S
C1739 C1738 1.362 . S
H1740 C1746 0.930 . S
H1741 C1749 0.930 . S
H1742 C1750 0.930 . S
H1743 C1751 0.930 . S
H1744 C1754 0.930 . S
H1745 C1755 0.930 . S
C1746 H1740 0.930 . S
C1746 C1747 1.355 . S
C1746 C1748 1.415 . S
C1747 C1746 1.355 . S
C1747 C1749 1.419 . S
C1748 C1746 1.415 . S
C1748 C1753 1.425 . S
C1748 C1755 1.409 . S
C1749 H1741 0.930 . S
C1749 C1747 1.419 . S
C1749 C1750 1.362 . S
C1750 H1742 0.930 . S
C1750 C1749 1.362 . S
C1750 C1753 1.409 . S
C1751 H1743 0.930 . S
C1751 C1752 1.355 . S
C1751 C1753 1.415 . S
C1752 C1751 1.355 . S
C1752 C1754 1.419 . S
C1753 C1748 1.425 . S
C1753 C1750 1.409 . S
C1753 C1751 1.415 . S
C1754 H1744 0.930 . S
C1754 C1752 1.419 . S
C1754 C1755 1.362 . S
C1755 H1745 0.930 . S
C1755 C1748 1.409 . S
C1755 C1754 1.362 . S
H1756 C1762 0.930 . S
H1757 C1765 0.930 . S
H1758 C1766 0.930 . S
H1759 C1767 0.930 . S
H1760 C1770 0.930 . S
H1761 C1771 0.930 . S
C1762 H1756 0.930 . S
C1762 C1763 1.355 . S
C1762 C1764 1.415 . S
C1763 C1762 1.355 . S
C1763 C1765 1.419 . S
C1764 C1762 1.415 . S
C1764 C1769 1.425 . S
C1764 C1771 1.409 . S
C1765 H1757 0.930 . S
C1765 C1763 1.419 . S
C1765 C1766 1.362 . S
C1766 H1758 0.930 . S
C1766 C1765 1.362 . S
C1766 C1769 1.409 . S
C1767 H1759 0.930 . S
C1767 C1768 1.355 . S
C1767 C1769 1.415 . S
C1768 C1767 1.355 . S
C1768 C1770 1.419 . S
C1769 C1764 1.425 . S
C1769 C1766 1.409 . S
C1769 C1767 1.415 . S
C1770 H1760 0.930 . S
C1770 C1768 1.419 . S
C1770 C1771 1.362 . S
C1771 H1761 0.930 . S
C1771 C1764 1.409 . S
C1771 C1770 1.362 . S
H1772 C1778 0.930 . S
H1773 C1781 0.930 . S
H1774 C1782 0.930 . S
H1775 C1783 0.930 . S
H1776 C1786 0.930 . S
H1777 C1787 0.930 . S
C1778 H1772 0.930 . S
C1778 C1779 1.355 . S
C1778 C1780 1.415 . S
C1779 C1778 1.355 . S
C1779 C1781 1.419 . S
C1780 C1778 1.415 . S
C1780 C1785 1.425 . S
C1780 C1787 1.409 . S
C1781 H1773 0.930 . S
C1781 C1779 1.419 . S
C1781 C1782 1.362 . S
C1782 H1774 0.930 . S
C1782 C1781 1.362 . S
C1782 C1785 1.409 . S
C1783 H1775 0.930 . S
C1783 C1784 1.355 . S
C1783 C1785 1.415 . S
C1784 C1783 1.355 . S
C1784 C1786 1.419 . S
C1785 C1780 1.425 . S
C1785 C1782 1.409 . S
C1785 C1783 1.415 . S
C1786 H1776 0.930 . S
C1786 C1784 1.419 . S
C1786 C1787 1.362 . S
C1787 H1777 0.930 . S
C1787 C1780 1.409 . S
C1787 C1786 1.362 . S
H1788 C1794 0.930 . S
H1789 C1797 0.930 . S
H1790 C1798 0.930 . S
H1791 C1799 0.930 . S
H1792 C1802 0.930 . S
H1793 C1803 0.930 . S
C1794 H1788 0.930 . S
C1794 C1795 1.355 . S
C1794 C1796 1.415 . S
C1795 C1794 1.355 . S
C1795 C1797 1.419 . S
C1796 C1794 1.415 . S
C1796 C1801 1.425 . S
C1796 C1803 1.409 . S
C1797 H1789 0.930 . S
C1797 C1795 1.419 . S
C1797 C1798 1.362 . S
C1798 H1790 0.930 . S
C1798 C1797 1.362 . S
C1798 C1801 1.409 . S
C1799 H1791 0.930 . S
C1799 C1800 1.355 . S
C1799 C1801 1.415 . S
C1800 C1799 1.355 . S
C1800 C1802 1.419 . S
C1801 C1796 1.425 . S
C1801 C1798 1.409 . S
C1801 C1799 1.415 . S
C1802 H1792 0.930 . S
C1802 C1800 1.419 . S
C1802 C1803 1.362 . S
C1803 H1793 0.930 . S
C1803 C1796 1.409 . S
C1803 C1802 1.362 . S
H1804 C1810 0.930 . S
H1805 C1813 0.930 . S
H1806 C1814 0.930 . S
H1807 C1815 0.930 . S
H1808 C1818 0.930 . S
H1809 C1819 0.930 . S
C1810 H1804 0.930 . S
C1810 C1811 1.355 . S
C1810 C1812 1.415 . S
C1811 C1810 1.355 . S
C1811 C1813 1.419 . S
C1812 C1810 1.415 . S
C1812 C1817 1.425 . S
C1812 C1819 1.409 . S
C1813 H1805 0.930 . S
C1813 C1811 1.419 . S
C1813 C1814 1.362 . S
C1814 H1806 0.930 . S
C1814 C1813 1.362 . S
C1814 C1817 1.409 . S
C1815 H1807 0.930 . S
C1815 C1816 1.355 . S
C1815 C1817 1.415 . S
C1816 C1815 1.355 . S
C1816 C1818 1.419 . S
C1817 C1812 1.425 . S
C1817 C1814 1.409 . S
C1817 C1815 1.415 . S
C1818 H1808 0.930 . S
C1818 C1816 1.419 . S
C1818 C1819 1.362 . S
C1819 H1809 0.930 . S
C1819 C1812 1.409 . S
C1819 C1818 1.362 . S
H1820 C1826 0.930 1_554 S
H1821 C1829 0.930 . S
H1822 C1830 0.930 . S
H1823 C1831 0.930 . S
H1824 C1834 0.930 . S
H1825 C1835 0.930 . S
C1826 H1820 0.930 1_556 S
C1826 C1827 1.355 . S
C1826 C1828 1.415 . S
C1827 C1826 1.355 . S
C1827 C1829 1.419 . S
C1828 C1826 1.415 . S
C1828 C1833 1.425 . S
C1828 C1835 1.409 1_556 S
C1829 H1821 0.930 . S
C1829 C1827 1.419 . S
C1829 C1830 1.362 . S
C1830 H1822 0.930 . S
C1830 C1829 1.362 . S
C1830 C1833 1.409 . S
C1831 H1823 0.930 . S
C1831 C1832 1.355 . S
C1831 C1833 1.415 . S
C1832 C1831 1.355 . S
C1832 C1834 1.419 1_556 S
C1833 C1828 1.425 . S
C1833 C1830 1.409 . S
C1833 C1831 1.415 . S
C1834 H1824 0.930 . S
C1834 C1832 1.419 1_554 S
C1834 C1835 1.362 . S
C1835 H1825 0.930 . S
C1835 C1828 1.409 1_554 S
C1835 C1834 1.362 . S
H1836 C1842 0.930 . S
H1837 C1845 0.930 . S
H1838 C1846 0.930 . S
H1839 C1847 0.930 . S
H1840 C1850 0.930 . S
H1841 C1851 0.930 . S
C1842 H1836 0.930 . S
C1842 C1843 1.355 . S
C1842 C1844 1.415 . S
C1843 C1842 1.355 . S
C1843 C1845 1.419 . S
C1844 C1842 1.415 . S
C1844 C1849 1.425 . S
C1844 C1851 1.409 . S
C1845 H1837 0.930 . S
C1845 C1843 1.419 . S
C1845 C1846 1.362 . S
C1846 H1838 0.930 . S
C1846 C1845 1.362 . S
C1846 C1849 1.409 . S
C1847 H1839 0.930 . S
C1847 C1848 1.355 . S
C1847 C1849 1.415 . S
C1848 C1847 1.355 . S
C1848 C1850 1.419 . S
C1849 C1844 1.425 . S
C1849 C1846 1.409 . S
C1849 C1847 1.415 . S
C1850 H1840 0.930 . S
C1850 C1848 1.419 . S
C1850 C1851 1.362 . S
C1851 H1841 0.930 . S
C1851 C1844 1.409 . S
C1851 C1850 1.362 . S
H1852 C1858 0.930 . S
H1853 C1861 0.930 . S
H1854 C1862 0.930 . S
H1855 C1863 0.968 . S
H1856 C1866 0.930 . S
H1857 C1867 0.930 . S
C1858 H1852 0.930 . S
C1858 C1859 1.355 . S
C1858 C1860 1.415 . S
C1859 C1858 1.355 . S
C1859 C1861 1.419 1_554 S
C1860 C1858 1.415 . S
C1860 C1865 1.425 . S
C1860 C1867 1.409 . S
C1861 H1853 0.930 . S
C1861 C1859 1.419 1_556 S
C1861 C1862 1.362 . S
C1862 H1854 0.930 . S
C1862 C1861 1.362 . S
C1862 C1865 1.409 1_556 S
C1863 H1855 0.968 . S
C1863 C1864 1.329 1_556 S
C1863 C1865 1.404 1_556 S
C1864 C1863 1.329 1_554 S
C1864 C1866 1.419 . S
C1865 C1860 1.425 . S
C1865 C1862 1.409 1_554 S
C1865 C1863 1.404 1_554 S
C1866 H1856 0.930 . S
C1866 C1864 1.419 . S
C1866 C1867 1.362 . S
C1867 H1857 0.930 . S
C1867 C1860 1.409 . S
C1867 C1866 1.362 . S
H1868 C1874 0.930 . S
H1869 C1877 0.930 1_545 S
H1870 C1878 0.930 . S
H1871 C1879 0.930 . S
H1872 C1882 0.930 . S
H1873 C1883 0.930 . S
C1874 H1868 0.930 . S
C1874 C1875 1.355 . S
C1874 C1876 1.415 . S
C1875 C1874 1.355 . S
C1875 C1877 1.419 . S
C1876 C1874 1.415 . S
C1876 C1881 1.425 . S
C1876 C1883 1.409 . S
C1877 H1869 0.930 1_565 S
C1877 C1875 1.419 . S
C1877 C1878 1.362 . S
C1878 H1870 0.930 . S
C1878 C1877 1.362 . S
C1878 C1881 1.409 . S
C1879 H1871 0.930 . S
C1879 C1880 1.355 . S
C1879 C1881 1.415 . S
C1880 C1879 1.355 . S
C1880 C1882 1.419 . S
C1881 C1876 1.425 . S
C1881 C1878 1.409 . S
C1881 C1879 1.415 . S
C1882 H1872 0.930 . S
C1882 C1880 1.419 . S
C1882 C1883 1.362 . S
C1883 H1873 0.930 . S
C1883 C1876 1.409 . S
C1883 C1882 1.362 . S
C1128 C970 1.407 . S
C1123 C331 1.425 . S
C1144 C983 1.586 . S
C1139 C380 1.572 . S
C1155 C421 1.421 . S
C1160 C996 1.441 . S
C1176 C1009 1.523 . S
C1171 C260 1.523 . S
C1192 C1017 1.485 . S
C1187 C620 1.478 . S
C1208 C1030 1.394 . S
C1203 C740 1.435 . S
C1219 C680 1.467 . S
C1224 C1043 1.502 . S
C1240 C1056 1.512 . S
C1235 C571 1.511 . S
C1251 C691 1.427 . S
C1256 C1074 1.425 . S
C1272 C1085 1.504 . S
C1267 C541 1.535 . S
C1283 C601 1.449 . S
C1288 C1069 1.455 . S
C1304 C1077 1.479 . S
C1299 C721 1.436 . S
C1315 C451 1.459 . S
C1320 C1100 1.499 . S
C1331 C241 1.500 . S
C1336 C1090 1.463 . S
C1347 C320 1.473 . S
C1352 C1095 1.448 . S
C1363 C391 1.558 . S
C1368 C1098 1.538 . S
C1379 C211 1.399 . S
C1384 C1007 1.399 . S
C1395 C841 1.398 . S
C1400 C999 1.394 . S
C1416 C968 1.511 . S
C1411 C901 1.562 . S
C1432 C973 1.494 . S
C1427 C500 1.503 . S
C1443 C271 1.481 . S
C1448 C1020 1.502 . S
C1464 C1059 1.524 . S
C1459 C661 1.487 . S
C1480 C1012 1.500 . S
C1475 C560 1.472 . S
C1496 C1038 1.469 . S
C1491 C751 1.436 . S
C1512 C1048 1.425 . S
C1507 C871 1.375 . S
C1523 C920 1.598 . S
C1528 C1061 1.580 . S
C1539 C481 1.408 . S
C1544 C1022 1.457 . S
C1560 C1035 1.525 . S
C1555 C800 1.523 . S
C1571 C200 1.485 . S
C1576 C991 1.460 . S
C1592 C1004 1.405 . S
C1587 C20 1.432 . S
C1608 C965 1.498 . S
C1603 C80 1.513 . S
C1624 C978 1.496 . S
C1619 C151 1.490 . S
C1635 C91 1.425 . S
C1640 C1087 1.444 . S
C1651 C121 1.500 . S
C1656 C1072 1.510 1_655 S
C1667 C181 1.405 . S
C1672 C1082 1.410 . S
C1683 C1 1.481 . S
C1688 C1064 1.444 . S
C1704 C1113 1.492 . S
C1699 C511 1.451 . S
C1720 C1103 1.469 . S
C1715 C781 1.465 . S
C1736 C1108 1.447 . S
C1731 C860 1.469 . S
C1747 C931 1.524 . S
C1752 C1111 1.516 . S
C1763 C631 1.422 . S
C1768 C1033 1.440 . S
C1784 C1025 1.431 . S
C1779 C301 1.424 . S
C1800 C1046 1.510 . S
C1795 C361 1.560 . S
C1816 C1051 1.471 . S
C1811 C440 1.484 . S
C1827 C811 1.514 . S
C1832 C994 1.490 . S
C1848 C981 1.495 . S
C1843 C61 1.501 . S
C1859 C140 1.491 . S
C1864 C986 1.500 . S
C1880 C960 1.417 . S
C1875 C31 1.459 . S
