# Generated by pormake.
# Topology eea, (3,6)-cn, num edge types: 1
# Building blocks:
#     Node 0, Type 0, BuildingBlock: KAKCAD_clean_linker_0, # of connection points: 3
#     Node 1, Type 0, BuildingBlock: KAKCAD_clean_linker_0, # of connection points: 3
#     Node 2, Type 0, BuildingBlock: KAKCAD_clean_linker_0, # of connection points: 3
#     Node 3, Type 0, BuildingBlock: KAKCAD_clean_linker_0, # of connection points: 3
#     Node 4, Type 0, BuildingBlock: KAKCAD_clean_linker_0, # of connection points: 3
#     Node 5, Type 0, BuildingBlock: KAKCAD_clean_linker_0, # of connection points: 3
#     Node 6, Type 0, BuildingBlock: KAKCAD_clean_linker_0, # of connection points: 3
#     Node 7, Type 0, BuildingBlock: KAKCAD_clean_linker_0, # of connection points: 3
#     Node 8, Type 0, BuildingBlock: KAKCAD_clean_linker_0, # of connection points: 3
#     Node 9, Type 0, BuildingBlock: KAKCAD_clean_linker_0, # of connection points: 3
#     Node 10, Type 0, BuildingBlock: KAKCAD_clean_linker_0, # of connection points: 3
#     Node 11, Type 0, BuildingBlock: KAKCAD_clean_linker_0, # of connection points: 3
#     Node 12, Type 0, BuildingBlock: KAKCAD_clean_linker_0, # of connection points: 3
#     Node 13, Type 0, BuildingBlock: KAKCAD_clean_linker_0, # of connection points: 3
#     Node 14, Type 0, BuildingBlock: KAKCAD_clean_linker_0, # of connection points: 3
#     Node 15, Type 0, BuildingBlock: KAKCAD_clean_linker_0, # of connection points: 3
#     Node 16, Type 0, BuildingBlock: KAKCAD_clean_linker_0, # of connection points: 3
#     Node 17, Type 0, BuildingBlock: KAKCAD_clean_linker_0, # of connection points: 3
#     Node 18, Type 1, BuildingBlock: LEVNOQ01_clean_sbu_1, # of connection points: 6
#     Node 19, Type 1, BuildingBlock: LEVNOQ01_clean_sbu_1, # of connection points: 6
#     Node 20, Type 1, BuildingBlock: LEVNOQ01_clean_sbu_1, # of connection points: 6
#     Node 21, Type 1, BuildingBlock: LEVNOQ01_clean_sbu_1, # of connection points: 6
#     Node 22, Type 1, BuildingBlock: LEVNOQ01_clean_sbu_1, # of connection points: 6
#     Node 23, Type 1, BuildingBlock: LEVNOQ01_clean_sbu_1, # of connection points: 6
#     Node 24, Type 1, BuildingBlock: LEVNOQ01_clean_sbu_1, # of connection points: 6
#     Node 25, Type 1, BuildingBlock: LEVNOQ01_clean_sbu_1, # of connection points: 6
#     Node 26, Type 1, BuildingBlock: LEVNOQ01_clean_sbu_1, # of connection points: 6
#     Edge 27, Type (0, 1), BuildingBlock: OJICUG_clean_linker_0, # of connection points: 2
#     Edge 28, Type (0, 1), BuildingBlock: OJICUG_clean_linker_0, # of connection points: 2
#     Edge 29, Type (0, 1), BuildingBlock: OJICUG_clean_linker_0, # of connection points: 2
#     Edge 30, Type (0, 1), BuildingBlock: OJICUG_clean_linker_0, # of connection points: 2
#     Edge 31, Type (0, 1), BuildingBlock: OJICUG_clean_linker_0, # of connection points: 2
#     Edge 32, Type (0, 1), BuildingBlock: OJICUG_clean_linker_0, # of connection points: 2
#     Edge 33, Type (0, 1), BuildingBlock: OJICUG_clean_linker_0, # of connection points: 2
#     Edge 34, Type (0, 1), BuildingBlock: OJICUG_clean_linker_0, # of connection points: 2
#     Edge 35, Type (0, 1), BuildingBlock: OJICUG_clean_linker_0, # of connection points: 2
#     Edge 36, Type (0, 1), BuildingBlock: OJICUG_clean_linker_0, # of connection points: 2
#     Edge 37, Type (0, 1), BuildingBlock: OJICUG_clean_linker_0, # of connection points: 2
#     Edge 38, Type (0, 1), BuildingBlock: OJICUG_clean_linker_0, # of connection points: 2
#     Edge 39, Type (0, 1), BuildingBlock: OJICUG_clean_linker_0, # of connection points: 2
#     Edge 40, Type (0, 1), BuildingBlock: OJICUG_clean_linker_0, # of connection points: 2
#     Edge 41, Type (0, 1), BuildingBlock: OJICUG_clean_linker_0, # of connection points: 2
#     Edge 42, Type (0, 1), BuildingBlock: OJICUG_clean_linker_0, # of connection points: 2
#     Edge 43, Type (0, 1), BuildingBlock: OJICUG_clean_linker_0, # of connection points: 2
#     Edge 44, Type (0, 1), BuildingBlock: OJICUG_clean_linker_0, # of connection points: 2
#     Edge 45, Type (0, 1), BuildingBlock: OJICUG_clean_linker_0, # of connection points: 2
#     Edge 46, Type (0, 1), BuildingBlock: OJICUG_clean_linker_0, # of connection points: 2
#     Edge 47, Type (0, 1), BuildingBlock: OJICUG_clean_linker_0, # of connection points: 2
#     Edge 48, Type (0, 1), BuildingBlock: OJICUG_clean_linker_0, # of connection points: 2
#     Edge 49, Type (0, 1), BuildingBlock: OJICUG_clean_linker_0, # of connection points: 2
#     Edge 50, Type (0, 1), BuildingBlock: OJICUG_clean_linker_0, # of connection points: 2
#     Edge 51, Type (0, 1), BuildingBlock: OJICUG_clean_linker_0, # of connection points: 2
#     Edge 52, Type (0, 1), BuildingBlock: OJICUG_clean_linker_0, # of connection points: 2
#     Edge 53, Type (0, 1), BuildingBlock: OJICUG_clean_linker_0, # of connection points: 2
#     Edge 54, Type (0, 1), BuildingBlock: OJICUG_clean_linker_0, # of connection points: 2
#     Edge 55, Type (0, 1), BuildingBlock: OJICUG_clean_linker_0, # of connection points: 2
#     Edge 56, Type (0, 1), BuildingBlock: OJICUG_clean_linker_0, # of connection points: 2
#     Edge 57, Type (0, 1), BuildingBlock: OJICUG_clean_linker_0, # of connection points: 2
#     Edge 58, Type (0, 1), BuildingBlock: OJICUG_clean_linker_0, # of connection points: 2
#     Edge 59, Type (0, 1), BuildingBlock: OJICUG_clean_linker_0, # of connection points: 2
#     Edge 60, Type (0, 1), BuildingBlock: OJICUG_clean_linker_0, # of connection points: 2
#     Edge 61, Type (0, 1), BuildingBlock: OJICUG_clean_linker_0, # of connection points: 2
#     Edge 62, Type (0, 1), BuildingBlock: OJICUG_clean_linker_0, # of connection points: 2
#     Edge 63, Type (0, 1), BuildingBlock: OJICUG_clean_linker_0, # of connection points: 2
#     Edge 64, Type (0, 1), BuildingBlock: OJICUG_clean_linker_0, # of connection points: 2
#     Edge 65, Type (0, 1), BuildingBlock: OJICUG_clean_linker_0, # of connection points: 2
#     Edge 66, Type (0, 1), BuildingBlock: OJICUG_clean_linker_0, # of connection points: 2
#     Edge 67, Type (0, 1), BuildingBlock: OJICUG_clean_linker_0, # of connection points: 2
#     Edge 68, Type (0, 1), BuildingBlock: OJICUG_clean_linker_0, # of connection points: 2
#     Edge 69, Type (0, 1), BuildingBlock: OJICUG_clean_linker_0, # of connection points: 2
#     Edge 70, Type (0, 1), BuildingBlock: OJICUG_clean_linker_0, # of connection points: 2
#     Edge 71, Type (0, 1), BuildingBlock: OJICUG_clean_linker_0, # of connection points: 2
#     Edge 72, Type (0, 1), BuildingBlock: OJICUG_clean_linker_0, # of connection points: 2
#     Edge 73, Type (0, 1), BuildingBlock: OJICUG_clean_linker_0, # of connection points: 2
#     Edge 74, Type (0, 1), BuildingBlock: OJICUG_clean_linker_0, # of connection points: 2
#     Edge 75, Type (0, 1), BuildingBlock: OJICUG_clean_linker_0, # of connection points: 2
#     Edge 76, Type (0, 1), BuildingBlock: OJICUG_clean_linker_0, # of connection points: 2
#     Edge 77, Type (0, 1), BuildingBlock: OJICUG_clean_linker_0, # of connection points: 2
#     Edge 78, Type (0, 1), BuildingBlock: OJICUG_clean_linker_0, # of connection points: 2
#     Edge 79, Type (0, 1), BuildingBlock: OJICUG_clean_linker_0, # of connection points: 2
#     Edge 80, Type (0, 1), BuildingBlock: OJICUG_clean_linker_0, # of connection points: 2
# Relax obj value: 0.095
# Max RMSD: 0.182
# Mean RMSD: 0.091
data_MOF--net-eea--node1-LEVNOQ01_clean_sbu_1--node2-KAKCAD_clean_linker_0--edge1-OJICUG_clean_linker_0
_symmetry_space_group_name_H-M    P1
_symmetry_Int_Tables_number       1
_symmetry_cell_setting            triclinic
loop_
_symmetry_equiv_pos_as_xyz
'x, y, z'
_cell_length_a     52.064123
_cell_length_b     51.473061
_cell_length_c     52.931467
_cell_angle_alpha  90.433809
_cell_angle_beta   90.211106
_cell_angle_gamma 120.05227
loop_
_atom_site_label
_atom_site_type_symbol
_atom_site_fract_x
_atom_site_fract_y
_atom_site_fract_z
_atom_type_partial_charge
C0 C 0.27617 0.15501 0.49927 0.0
C1 C 0.29885 0.15206 0.51083 0.0
C2 C 0.27309 0.1536 0.47321 0.0
C3 C 0.29242 0.14892 0.458 0.0
C4 C 0.31454 0.14484 0.46937 0.0
C5 C 0.31785 0.14656 0.49573 0.0
C6 C 0.28753 0.14662 0.43045 0.0
C7 C 0.28247 0.16789 0.41852 0.0
C8 C 0.26829 0.16164 0.39492 0.0
C9 C 0.26184 0.13504 0.38218 0.0
C10 C 0.26713 0.11366 0.39376 0.0
C11 C 0.28065 0.11992 0.41774 0.0
C12 C 0.25346 0.08288 0.38309 0.0
C13 C 0.22426 0.06896 0.37355 0.0
C14 C 0.26844 0.06653 0.38376 0.0
C15 C 0.25453 0.03694 0.37476 0.0
C16 C 0.22549 0.02332 0.36492 0.0
C17 C 0.25446 0.17914 0.38621 0.0
C18 C 0.23883 0.18693 0.40347 0.0
C19 C 0.25351 0.18485 0.36045 0.0
C20 C 0.23634 0.19696 0.35202 0.0
C21 C 0.21978 0.20359 0.36918 0.0
C22 C 0.22175 0.19914 0.39504 0.0
C23 C 0.2105 0.03957 0.36446 0.0
H24 H 0.26065 0.15839 0.51041 0.0
H25 H 0.25519 0.15577 0.46492 0.0
H26 H 0.32937 0.14075 0.45791 0.0
H27 H 0.33552 0.14421 0.50423 0.0
H28 H 0.28701 0.18812 0.42873 0.0
H29 H 0.28277 0.10271 0.42765 0.0
H30 H 0.2502 0.1297 0.36419 0.0
H31 H 0.21172 0.08055 0.37354 0.0
H32 H 0.29091 0.0767 0.39108 0.0
H33 H 0.26665 0.0249 0.37503 0.0
H34 H 0.23855 0.18222 0.4234 0.0
H35 H 0.26548 0.17928 0.34677 0.0
H36 H 0.18798 0.02943 0.35725 0.0
H37 H 0.20918 0.20396 0.40865 0.0
H38 H 0.23578 0.20088 0.33199 0.0
C39 C 0.81778 0.14719 0.4839 0.0
C40 C 0.8243 0.13367 0.50413 0.0
C41 C 0.82785 0.14675 0.45958 0.0
C42 C 0.84407 0.13229 0.45495 0.0
C43 C 0.85044 0.11854 0.47482 0.0
C44 C 0.84095 0.1195 0.49924 0.0
C45 C 0.85218 0.12914 0.42907 0.0
C46 C 0.8766 0.15281 0.41725 0.0
C47 C 0.88544 0.14864 0.39314 0.0
C48 C 0.86871 0.12067 0.38076 0.0
C49 C 0.84444 0.09691 0.39279 0.0
C50 C 0.8363 0.10136 0.41688 0.0
C51 C 0.82804 0.06683 0.38106 0.0
C52 C 0.81505 0.06277 0.35706 0.0
C53 C 0.82357 0.0417 0.3948 0.0
C54 C 0.80555 0.01285 0.38509 0.0
C55 C 0.79142 0.00854 0.36152 0.0
C56 C 0.91384 0.17227 0.38237 0.0
C57 C 0.92259 0.2028 0.38503 0.0
C58 C 0.93369 0.16448 0.37147 0.0
C59 C 0.96217 0.18667 0.36464 0.0
C60 C 0.97149 0.21715 0.3686 0.0
C61 C 0.95113 0.22501 0.37822 0.0
C62 C 0.79673 0.03383 0.34741 0.0
H63 H 0.80457 0.15782 0.48667 0.0
H64 H 0.82236 0.15702 0.44427 0.0
H65 H 0.86277 0.10705 0.47139 0.0
H66 H 0.84706 0.10943 0.51426 0.0
H67 H 0.88955 0.17385 0.42743 0.0
H68 H 0.81759 0.08304 0.42631 0.0
H69 H 0.87516 0.11702 0.36221 0.0
H70 H 0.81807 0.08189 0.34627 0.0
H71 H 0.83371 0.04442 0.41326 0.0
H72 H 0.80247 0.99391 0.39617 0.0
H73 H 0.90763 0.20953 0.39297 0.0
H74 H 0.92785 0.1412 0.36947 0.0
H75 H 0.78591 0.03129 0.32931 0.0
H76 H 0.95749 0.24835 0.38104 0.0
H77 H 0.97739 0.17984 0.35752 0.0
C78 C 0.86399 0.71491 0.49163 0.0
C79 C 0.83649 0.69004 0.49784 0.0
C80 C 0.8708 0.72363 0.46647 0.0
C81 C 0.85002 0.7079 0.44714 0.0
C82 C 0.82234 0.68326 0.45344 0.0
C83 C 0.81575 0.67423 0.47855 0.0
C84 C 0.85664 0.71813 0.42065 0.0
C85 C 0.88399 0.72547 0.40969 0.0
C86 C 0.89087 0.73734 0.38517 0.0
C87 C 0.87037 0.74223 0.37186 0.0
C88 C 0.84323 0.73512 0.38265 0.0
C89 C 0.83619 0.72257 0.40679 0.0
C90 C 0.82392 0.74464 0.37049 0.0
C91 C 0.83506 0.77522 0.36564 0.0
C92 C 0.79358 0.7242 0.36719 0.0
C93 C 0.77425 0.73452 0.36093 0.0
C94 C 0.78509 0.76536 0.35828 0.0
C95 C 0.92018 0.74686 0.37391 0.0
C96 C 0.94619 0.76368 0.38825 0.0
C97 C 0.9224 0.74091 0.34828 0.0
C98 C 0.95014 0.75186 0.33715 0.0
C99 C 0.97616 0.76903 0.35142 0.0
C100 C 0.9739 0.77467 0.37711 0.0
C101 C 0.81564 0.7856 0.35981 0.0
H102 H 0.88048 0.72715 0.50619 0.0
H103 H 0.89214 0.74293 0.46215 0.0
H104 H 0.80593 0.6708 0.43889 0.0
H105 H 0.79448 0.65485 0.48293 0.0
H106 H 0.89988 0.72201 0.42026 0.0
H107 H 0.81556 0.71814 0.41547 0.0
H108 H 0.87597 0.75271 0.35347 0.0
H109 H 0.85841 0.79135 0.36836 0.0
H110 H 0.78468 0.70055 0.37087 0.0
H111 H 0.7506 0.71875 0.36015 0.0
H112 H 0.94514 0.76888 0.40795 0.0
H113 H 0.90265 0.72783 0.33683 0.0
H114 H 0.82417 0.80952 0.35822 0.0
H115 H 0.99359 0.78727 0.38873 0.0
H116 H 0.95123 0.74707 0.31734 0.0
C117 C 0.1746 0.27632 0.50426 0.0
C118 C 0.17443 0.30166 0.49483 0.0
C119 C 0.16515 0.26663 0.52887 0.0
C120 C 0.15497 0.28185 0.5444 0.0
C121 C 0.15512 0.30737 0.53507 0.0
C122 C 0.16488 0.31725 0.5106 0.0
C123 C 0.14324 0.27047 0.56991 0.0
C124 C 0.15856 0.26142 0.58621 0.0
C125 C 0.1466 0.2487 0.6097 0.0
C126 C 0.1194 0.24554 0.61698 0.0
C127 C 0.10341 0.25374 0.60075 0.0
C128 C 0.11571 0.26677 0.57739 0.0
C129 C 0.07276 0.24591 0.60741 0.0
C130 C 0.05354 0.21783 0.61813 0.0
C131 C 0.06232 0.26587 0.60293 0.0
C132 C 0.03317 0.25782 0.60901 0.0
C133 C 0.01404 0.22971 0.61969 0.0
C134 C 0.16075 0.23585 0.62567 0.0
C135 C 0.1715 0.21839 0.61454 0.0
C136 C 0.16178 0.23915 0.65212 0.0
C137 C 0.1735 0.22532 0.66712 0.0
C138 C 0.18442 0.20799 0.65593 0.0
C139 C 0.18327 0.2047 0.62948 0.0
C140 C 0.02458 0.20989 0.62431 0.0
H141 H 0.18187 0.26391 0.49254 0.0
H142 H 0.16503 0.24671 0.53552 0.0
H143 H 0.14753 0.31959 0.54667 0.0
H144 H 0.16411 0.33663 0.50375 0.0
H145 H 0.1797 0.26405 0.5805 0.0
H146 H 0.10313 0.27242 0.56443 0.0
H147 H 0.1099 0.23528 0.63492 0.0
H148 H 0.06067 0.20163 0.62128 0.0
H149 H 0.0767 0.28773 0.59489 0.0
H150 H 0.02561 0.27362 0.60544 0.0
H151 H 0.17053 0.215 0.59426 0.0
H152 H 0.15369 0.25257 0.66119 0.0
H153 H 0.01017 0.18788 0.63207 0.0
H154 H 0.19221 0.19217 0.62018 0.0
H155 H 0.17422 0.22838 0.68743 0.0
C156 C 0.67043 0.84953 0.52252 0.0
C157 C 0.68248 0.8761 0.50838 0.0
C158 C 0.68341 0.84882 0.54545 0.0
C159 C 0.70843 0.87476 0.55474 0.0
C160 C 0.71933 0.90173 0.5413 0.0
C161 C 0.70654 0.90236 0.5183 0.0
C162 C 0.72507 0.87363 0.57704 0.0
C163 C 0.73337 0.85152 0.57877 0.0
C164 C 0.75471 0.85462 0.59669 0.0
C165 C 0.76716 0.87947 0.61322 0.0
C166 C 0.75899 0.90147 0.61169 0.0
C167 C 0.73699 0.89768 0.5943 0.0
C168 C 0.77647 0.93044 0.62528 0.0
C169 C 0.78568 0.93181 0.65048 0.0
C170 C 0.7851 0.95726 0.61238 0.0
C171 C 0.80135 0.98479 0.62463 0.0
C172 C 0.80986 0.98639 0.65008 0.0
C173 C 0.76711 0.83437 0.59658 0.0
C174 C 0.74915 0.80358 0.60116 0.0
C175 C 0.79794 0.84675 0.5947 0.0
C176 C 0.81092 0.82932 0.59953 0.0
C177 C 0.79331 0.79915 0.60633 0.0
C178 C 0.76221 0.78602 0.60604 0.0
C179 C 0.80228 0.95958 0.66278 0.0
H180 H 0.65209 0.8288 0.51512 0.0
H181 H 0.67452 0.82783 0.55549 0.0
H182 H 0.73882 0.92206 0.54784 0.0
H183 H 0.71621 0.92306 0.50775 0.0
H184 H 0.72515 0.83334 0.56502 0.0
H185 H 0.73046 0.9146 0.59307 0.0
H186 H 0.78462 0.88255 0.62624 0.0
H187 H 0.7795 0.91146 0.66083 0.0
H188 H 0.77912 0.95705 0.59272 0.0
H189 H 0.80602 0.00474 0.6143 0.0
H190 H 0.72531 0.79363 0.60264 0.0
H191 H 0.81216 0.87039 0.59078 0.0
H192 H 0.80854 0.96 0.68238 0.0
H193 H 0.74816 0.76283 0.61142 0.0
H194 H 0.83489 0.83986 0.59936 0.0
C195 C 0.12923 0.82408 0.50785 0.0
C196 C 0.15771 0.84043 0.49735 0.0
C197 C 0.12555 0.82232 0.53393 0.0
C198 C 0.15032 0.8364 0.55016 0.0
C199 C 0.1789 0.85015 0.53967 0.0
C200 C 0.18258 0.85238 0.51351 0.0
C201 C 0.14619 0.84118 0.57717 0.0
C202 C 0.12162 0.81959 0.59066 0.0
C203 C 0.11421 0.82691 0.61411 0.0
C204 C 0.13226 0.8555 0.62462 0.0
C205 C 0.15665 0.87732 0.61126 0.0
C206 C 0.16381 0.86985 0.58789 0.0
C207 C 0.17188 0.90903 0.61962 0.0
C208 C 0.15517 0.92196 0.62794 0.0
C209 C 0.20285 0.92701 0.61785 0.0
C210 C 0.21691 0.95724 0.62494 0.0
C211 C 0.2002 0.96985 0.63395 0.0
C212 C 0.08477 0.80725 0.6251 0.0
C213 C 0.0594 0.79859 0.61016 0.0
C214 C 0.08159 0.79937 0.65073 0.0
C215 C 0.05326 0.78249 0.6611 0.0
C216 C 0.02797 0.77419 0.64609 0.0
C217 C 0.03128 0.78239 0.6206 0.0
C218 C 0.16921 0.95207 0.63511 0.0
H219 H 0.1096 0.81354 0.49592 0.0
H220 H 0.10318 0.81162 0.54121 0.0
H221 H 0.19845 0.86068 0.55171 0.0
H222 H 0.20484 0.86481 0.50608 0.0
H223 H 0.1072 0.79764 0.58235 0.0
H224 H 0.18146 0.88736 0.57695 0.0
H225 H 0.12598 0.86146 0.64231 0.0
H226 H 0.13118 0.90886 0.62872 0.0
H227 H 0.2162 0.91757 0.61138 0.0
H228 H 0.2409 0.97045 0.62426 0.0
H229 H 0.06133 0.80492 0.59048 0.0
H230 H 0.10096 0.80617 0.66262 0.0
H231 H 0.15589 0.96143 0.64184 0.0
H232 H 0.01203 0.77576 0.60859 0.0
H233 H 0.05107 0.77608 0.68076 0.0
C234 C 0.93663 0.46682 0.844 0.0
C235 C 0.96142 0.46421 0.85058 0.0
C236 C 0.93069 0.46974 0.81893 0.0
C237 C 0.94905 0.4696 0.79972 0.0
C238 C 0.97352 0.46633 0.80603 0.0
C239 C 0.9798 0.46384 0.83134 0.0
C240 C 0.94027 0.46954 0.77321 0.0
C241 C 0.93082 0.48947 0.76547 0.0
C242 C 0.91593 0.48511 0.74232 0.0
C243 C 0.91167 0.46119 0.72652 0.0
C244 C 0.92065 0.44089 0.73421 0.0
C245 C 0.93572 0.44575 0.75729 0.0
C246 C 0.90965 0.41191 0.72064 0.0
C247 C 0.88014 0.39618 0.7118 0.0
C248 C 0.92723 0.39833 0.71871 0.0
C249 C 0.91527 0.36934 0.7087 0.0
C250 C 0.88566 0.35363 0.70026 0.0
C251 C 0.90104 0.50246 0.73602 0.0
C252 C 0.88542 0.50865 0.75459 0.0
C253 C 0.89973 0.51019 0.71087 0.0
C254 C 0.88202 0.52229 0.7042 0.0
C255 C 0.86552 0.52731 0.72255 0.0
C256 C 0.86798 0.52124 0.74792 0.0
C257 C 0.86835 0.36743 0.70159 0.0
H258 H 0.9216 0.46643 0.85827 0.0
H259 H 0.91112 0.47122 0.81451 0.0
H260 H 0.98775 0.46578 0.7914 0.0
H261 H -0.00081 0.46212 0.83586 0.0
H262 H 0.93377 0.50747 0.77808 0.0
H263 H 0.94115 0.42926 0.76413 0.0
H264 H 0.89936 0.457 0.70897 0.0
H265 H 0.86568 0.40555 0.71363 0.0
H266 H 0.95008 0.40997 0.72524 0.0
H267 H 0.92915 0.35923 0.70746 0.0
H268 H 0.88565 0.50263 0.77411 0.0
H269 H 0.91191 0.50629 0.69621 0.0
H270 H 0.84539 0.35564 0.69535 0.0
H271 H 0.85568 0.52529 0.76236 0.0
H272 H 0.8811 0.52764 0.68457 0.0
C273 C 0.50327 0.48611 0.82103 0.0
C274 C 0.49413 0.4614 0.83711 0.0
C275 C 0.51197 0.48505 0.79628 0.0
C276 C 0.51168 0.45924 0.78712 0.0
C277 C 0.50139 0.43413 0.80294 0.0
C278 C 0.49259 0.43516 0.82762 0.0
C279 C 0.52336 0.45868 0.76167 0.0
C280 C 0.54973 0.48334 0.7529 0.0
C281 C 0.56258 0.48124 0.73019 0.0
C282 C 0.54865 0.45428 0.71619 0.0
C283 C 0.52257 0.4295 0.72482 0.0
C284 C 0.50959 0.43226 0.7471 0.0
C285 C 0.50962 0.40011 0.71158 0.0
C286 C 0.50803 0.39808 0.68508 0.0
C287 C 0.49795 0.37363 0.72565 0.0
C288 C 0.48259 0.34574 0.71373 0.0
C289 C 0.4789 0.34357 0.68734 0.0
C290 C 0.59187 0.50603 0.72212 0.0
C291 C 0.59882 0.53613 0.72384 0.0
C292 C 0.61338 0.49956 0.71296 0.0
C293 C 0.64113 0.52254 0.70561 0.0
C294 C 0.64818 0.55262 0.70739 0.0
C295 C 0.62676 0.55924 0.71657 0.0
C296 C 0.49305 0.37004 0.67306 0.0
H297 H 0.50425 0.50651 0.82777 0.0
H298 H 0.51929 0.50455 0.78445 0.0
H299 H 0.50129 0.41401 0.79665 0.0
H300 H 0.48599 0.41594 0.83965 0.0
H301 H 0.56119 0.50351 0.76443 0.0
H302 H 0.48887 0.41345 0.75343 0.0
H303 H 0.5587 0.45225 0.69895 0.0
H304 H 0.51709 0.41808 0.67367 0.0
H305 H 0.49974 0.37443 0.74608 0.0
H306 H 0.47191 0.32605 0.7255 0.0
H307 H 0.58261 0.54179 0.73067 0.0
H308 H 0.60904 0.47668 0.71197 0.0
H309 H 0.49122 0.36919 0.65265 0.0
H310 H 0.63158 0.58226 0.71802 0.0
H311 H 0.65738 0.51676 0.69917 0.0
C312 C 0.53383 0.04176 0.82519 0.0
C313 C 0.50496 0.02189 0.83337 0.0
C314 C 0.53902 0.05109 0.80013 0.0
C315 C 0.51544 0.04035 0.78259 0.0
C316 C 0.48644 0.02034 0.79095 0.0
C317 C 0.48124 0.01131 0.81618 0.0
C318 C 0.52097 0.05099 0.75601 0.0
C319 C 0.54713 0.05689 0.74351 0.0
C320 C 0.55347 0.06961 0.71929 0.0
C321 C 0.53303 0.07562 0.70722 0.0
C322 C 0.50684 0.06973 0.71935 0.0
C323 C 0.50095 0.05738 0.74364 0.0
C324 C 0.48702 0.07946 0.70826 0.0
C325 C 0.4987 0.10881 0.69911 0.0
C326 C 0.45616 0.06089 0.71002 0.0
C327 C 0.43748 0.0723 0.70504 0.0
C328 C 0.44934 0.10238 0.69805 0.0
C329 C 0.58258 0.07925 0.70753 0.0
C330 C 0.6087 0.09537 0.72191 0.0
C331 C 0.58463 0.07394 0.68172 0.0
C332 C 0.61236 0.08448 0.67056 0.0
C333 C 0.63848 0.10077 0.68496 0.0
C334 C 0.63634 0.10604 0.71074 0.0
C335 C 0.4799 0.12021 0.69396 0.0
H336 H 0.55243 0.04996 0.83825 0.0
H337 H 0.56151 0.067 0.7946 0.0
H338 H 0.46779 0.01132 0.77793 0.0
H339 H 0.45888 -0.00447 0.82212 0.0
H340 H 0.5628 0.05195 0.7527 0.0
H341 H 0.4815 0.05445 0.75353 0.0
H342 H 0.53804 0.08604 0.68881 0.0
H343 H 0.52245 0.12363 0.69769 0.0
H344 H 0.44662 0.03804 0.71661 0.0
H345 H 0.41384 0.05808 0.70791 0.0
H346 H 0.6078 0.10015 0.74175 0.0
H347 H 0.5648 0.06151 0.67023 0.0
H348 H 0.48939 0.14348 0.68856 0.0
H349 H 0.65606 0.11799 0.72245 0.0
H350 H 0.61339 0.08001 0.65067 0.0
C351 C 0.85209 0.63683 0.84172 0.0
C352 C 0.84306 0.65577 0.83104 0.0
C353 C 0.84554 0.62801 0.86682 0.0
C354 C 0.83032 0.63847 0.88202 0.0
C355 C 0.82253 0.65863 0.87149 0.0
C356 C 0.82858 0.66695 0.84616 0.0
C357 C 0.8206 0.62624 0.90788 0.0
C358 C 0.83774 0.61769 0.92232 0.0
C359 C 0.82602 0.59966 0.94373 0.0
C360 C 0.79811 0.59335 0.95255 0.0
C361 C 0.78118 0.60318 0.93923 0.0
C362 C 0.79249 0.61933 0.91677 0.0
C363 C 0.7504 0.59383 0.9471 0.0
C364 C 0.73141 0.5645 0.95562 0.0
C365 C 0.73928 0.61361 0.94487 0.0
C366 C 0.70962 0.60398 0.95031 0.0
C367 C 0.69054 0.57445 0.95826 0.0
C368 C 0.84095 0.58387 0.95426 0.0
C369 C 0.85441 0.57287 0.93769 0.0
C370 C 0.84041 0.57789 0.98022 0.0
C371 C 0.853 0.56119 0.98927 0.0
C372 C 0.86641 0.55024 0.97253 0.0
C373 C 0.86722 0.55668 0.9467 0.0
C374 C 0.70184 0.55497 0.96124 0.0
H375 H 0.86293 0.62763 0.83028 0.0
H376 H 0.85128 0.61186 0.87386 0.0
H377 H 0.81123 0.66753 0.88264 0.0
H378 H 0.82155 0.68177 0.83825 0.0
H379 H 0.85979 0.62367 0.91606 0.0
H380 H 0.77847 0.62469 0.90538 0.0
H381 H 0.78892 0.57955 0.96909 0.0
H382 H 0.73902 0.54847 0.95709 0.0
H383 H 0.75344 0.63646 0.93869 0.0
H384 H 0.70156 0.61959 0.94819 0.0
H385 H 0.85465 0.57625 0.91751 0.0
H386 H 0.83029 0.58608 0.99353 0.0
H387 H 0.68754 0.53198 0.96704 0.0
H388 H 0.87804 0.54944 0.93324 0.0
H389 H 0.85197 0.55664 0.00929 0.0
C390 C 0.32572 0.19166 0.85975 0.0
C391 C 0.34202 0.19713 0.83731 0.0
C392 C 0.33869 0.19195 0.88305 0.0
C393 C 0.36778 0.19709 0.88394 0.0
C394 C 0.38394 0.20244 0.86166 0.0
C395 C 0.37124 0.20248 0.83859 0.0
C396 C 0.3833 0.20046 0.90789 0.0
C397 C 0.39052 0.1787 0.91511 0.0
C398 C 0.41273 0.1857 0.93335 0.0
C399 C 0.42692 0.2143 0.94478 0.0
C400 C 0.42046 0.23632 0.93697 0.0
C401 C 0.3979 0.22897 0.91915 0.0
C402 C 0.44072 0.26796 0.94402 0.0
C403 C 0.44917 0.27623 0.96926 0.0
C404 C 0.45313 0.28979 0.92511 0.0
C405 C 0.47318 0.31963 0.93142 0.0
C406 C 0.48118 0.32812 0.95674 0.0
C407 C 0.42468 0.1654 0.93768 0.0
C408 C 0.40593 0.13473 0.94246 0.0
C409 C 0.45554 0.17717 0.93742 0.0
C410 C 0.46758 0.15922 0.94345 0.0
C411 C 0.44903 0.12904 0.94965 0.0
C412 C 0.41807 0.11662 0.94845 0.0
C413 C 0.46912 0.30607 0.97559 0.0
H414 H 0.30311 0.18734 0.85927 0.0
H415 H 0.3262 0.18831 0.90026 0.0
H416 H 0.40665 0.20701 0.86219 0.0
H417 H 0.38417 0.20603 0.82166 0.0
H418 H 0.38079 0.15744 0.90497 0.0
H419 H 0.39356 0.24625 0.91233 0.0
H420 H 0.44479 0.2202 0.95826 0.0
H421 H 0.43993 0.25974 0.98411 0.0
H422 H 0.44751 0.28374 0.90539 0.0
H423 H 0.48215 0.3361 0.91654 0.0
H424 H 0.38206 0.12512 0.94258 0.0
H425 H 0.47049 0.20052 0.93301 0.0
H426 H 0.47419 0.312 0.99538 0.0
H427 H 0.40336 0.09339 0.95338 0.0
H428 H 0.49149 0.16917 0.94403 0.0
C429 C 0.791 0.15427 0.84331 0.0
C430 C 0.81925 0.17037 0.8324 0.0
C431 C 0.78735 0.15663 0.8691 0.0
C432 C 0.81197 0.17473 0.88464 0.0
C433 C 0.84058 0.18769 0.87423 0.0
C434 C 0.84419 0.18574 0.84827 0.0
C435 C 0.80731 0.18467 0.90975 0.0
C436 C 0.78296 0.16553 0.92478 0.0
C437 C 0.77471 0.17701 0.9454 0.0
C438 C 0.7914 0.20759 0.95148 0.0
C439 C 0.81577 0.22682 0.93673 0.0
C440 C 0.82395 0.21524 0.91631 0.0
C441 C 0.83094 0.2595 0.94092 0.0
C442 C 0.81451 0.2743 0.94242 0.0
C443 C 0.86191 0.27609 0.94303 0.0
C444 C 0.87616 0.3068 0.94812 0.0
C445 C 0.85968 0.32155 0.95092 0.0
C446 C 0.74607 0.1583 0.95792 0.0
C447 C 0.71998 0.14506 0.94333 0.0
C448 C 0.74432 0.15494 0.98428 0.0
C449 C 0.71671 0.13774 0.99578 0.0
C450 C 0.69062 0.12457 0.98107 0.0
C451 C 0.69249 0.12853 0.95481 0.0
C452 C 0.82879 0.30512 0.94723 0.0
H453 H 0.77141 0.14119 0.83169 0.0
H454 H 0.76496 0.14623 0.8763 0.0
H455 H 0.86007 0.20111 0.88586 0.0
H456 H 0.86631 0.19797 0.84051 0.0
H457 H 0.76946 0.14198 0.91975 0.0
H458 H 0.84177 0.23071 0.90424 0.0
H459 H 0.78448 0.2167 0.96685 0.0
H460 H 0.7906 0.26194 0.94016 0.0
H461 H 0.87496 0.26507 0.94177 0.0
H462 H 0.89991 0.31851 0.95138 0.0
H463 H 0.72085 0.14777 0.92301 0.0
H464 H 0.76427 0.16524 0.99584 0.0
H465 H 0.81555 0.31589 0.94901 0.0
H466 H 0.67269 0.1181 0.94305 0.0
H467 H 0.7157 0.13467 0.01605 0.0
C468 C 0.58906 0.77206 0.17891 0.0
C469 C 0.61805 0.78162 0.18769 0.0
C470 C 0.58401 0.77697 0.15401 0.0
C471 C 0.60765 0.79089 0.13717 0.0
C472 C 0.63653 0.80004 0.14543 0.0
C473 C 0.64177 0.79582 0.17058 0.0
C474 C 0.60114 0.79259 0.11046 0.0
C475 C 0.59287 0.81333 0.10257 0.0
C476 C 0.58082 0.81093 0.0783 0.0
C477 C 0.57735 0.78761 0.0621 0.0
C478 C 0.58435 0.76603 0.07029 0.0
C479 C 0.59726 0.76932 0.09423 0.0
C480 C 0.57304 0.73736 0.05619 0.0
C481 C 0.54405 0.72305 0.04615 0.0
C482 C 0.58949 0.72252 0.05501 0.0
C483 C 0.57687 0.69365 0.04457 0.0
C484 C 0.54766 0.67924 0.03506 0.0
C485 C 0.56776 0.82957 0.07078 0.0
C486 C 0.54948 0.83432 0.0875 0.0
C487 C 0.57056 0.83961 0.04582 0.0
C488 C 0.55422 0.85255 0.03736 0.0
C489 C 0.53489 0.85601 0.05369 0.0
C490 C 0.5333 0.84763 0.07904 0.0
C491 C 0.53155 0.69438 0.03563 0.0
H492 H 0.57009 0.76044 0.19112 0.0
H493 H 0.56147 0.76917 0.14765 0.0
H494 H 0.65495 0.81042 0.13245 0.0
H495 H 0.66448 0.80411 0.17659 0.0
H496 H 0.59466 0.83046 0.11569 0.0
H497 H 0.60157 0.75213 0.10129 0.0
H498 H 0.56692 0.78481 0.04375 0.0
H499 H 0.53044 0.73346 0.04735 0.0
H500 H 0.61193 0.73307 0.06247 0.0
H501 H 0.58993 0.68262 0.0439 0.0
H502 H 0.54661 0.82651 0.10678 0.0
H503 H 0.58483 0.83673 0.03263 0.0
H504 H 0.50893 0.68368 0.0286 0.0
H505 H 0.51881 0.85042 0.09202 0.0
H506 H 0.55658 0.85974 0.01789 0.0
C507 C 0.16687 0.82171 0.15598 0.0
C508 C 0.1593 0.79673 0.1714 0.0
C509 C 0.17666 0.8225 0.13128 0.0
C510 C 0.17882 0.79824 0.12164 0.0
C511 C 0.1718 0.7736 0.13723 0.0
C512 C 0.16209 0.77281 0.16181 0.0
C513 C 0.18667 0.79728 0.09501 0.0
C514 C 0.21252 0.82063 0.0843 0.0
C515 C 0.22152 0.81713 0.05999 0.0
C516 C 0.20383 0.79027 0.04636 0.0
C517 C 0.17824 0.76705 0.05721 0.0
C518 C 0.16939 0.77101 0.08104 0.0
C519 C 0.16247 0.73696 0.04574 0.0
C520 C 0.14707 0.7317 0.02282 0.0
C521 C 0.16041 0.71276 0.05941 0.0
C522 C 0.14214 0.68347 0.05091 0.0
C523 C 0.12551 0.67789 0.0286 0.0
C524 C 0.25109 0.8397 0.05033 0.0
C525 C 0.26193 0.87056 0.05387 0.0
C526 C 0.26957 0.83034 0.03904 0.0
C527 C 0.29857 0.85124 0.03232 0.0
C528 C 0.30982 0.882 0.0368 0.0
C529 C 0.29099 0.8915 0.04715 0.0
C530 C 0.12858 0.70226 0.01431 0.0
H531 H 0.16549 0.84075 0.16309 0.0
H532 H 0.18192 0.84169 0.11958 0.0
H533 H 0.17363 0.75473 0.1303 0.0
H534 H 0.15642 0.7533 0.1732 0.0
H535 H 0.22656 0.8405 0.09556 0.0
H536 H 0.14948 0.75281 0.08927 0.0
H537 H 0.21067 0.78679 0.02792 0.0
H538 H 0.1483 0.75019 0.01219 0.0
H539 H 0.17237 0.71654 0.07712 0.0
H540 H 0.1407 0.66519 0.06199 0.0
H541 H 0.2481 0.87849 0.0622 0.0
H542 H 0.26214 0.80672 0.03644 0.0
H543 H 0.11583 0.69856 -0.0029 0.0
H544 H 0.29889 0.91512 0.05044 0.0
H545 H 0.3126 0.84316 0.02469 0.0
C546 C 0.18962 0.38029 0.1639 0.0
C547 C 0.15959 0.35975 0.1688 0.0
C548 C 0.19943 0.38862 0.13914 0.0
C549 C 0.17947 0.37658 0.11867 0.0
C550 C 0.14951 0.35578 0.12356 0.0
C551 C 0.13968 0.34752 0.1483 0.0
C552 C 0.18945 0.38686 0.09246 0.0
C553 C 0.21719 0.39222 0.08374 0.0
C554 C 0.22678 0.40327 0.05926 0.0
C555 C 0.20869 0.40932 0.04358 0.0
C556 C 0.1812 0.40423 0.05212 0.0
C557 C 0.17158 0.39278 0.07635 0.0
C558 C 0.16315 0.41296 0.03686 0.0
C559 C 0.17404 0.44324 0.03106 0.0
C560 C 0.13358 0.39173 0.03125 0.0
C561 C 0.11454 0.40088 0.0215 0.0
C562 C 0.1247 0.4315 0.01748 0.0
C563 C 0.2563 0.40996 0.05037 0.0
C564 C 0.28173 0.42885 0.06471 0.0
C565 C 0.25934 0.39848 0.02709 0.0
C566 C 0.28743 0.40547 0.01849 0.0
C567 C 0.31286 0.42463 0.03277 0.0
C568 C 0.3098 0.43633 0.05587 0.0
C569 C 0.15488 0.4525 0.02154 0.0
H570 H 0.20569 0.38972 0.17918 0.0
H571 H 0.22258 0.40493 0.1361 0.0
H572 H 0.13357 0.34583 0.10822 0.0
H573 H 0.11641 0.3317 0.15137 0.0
H574 H 0.23125 0.38764 0.09585 0.0
H575 H 0.15066 0.3899 0.08305 0.0
H576 H 0.21627 0.41864 0.02497 0.0
H577 H 0.19682 0.45995 0.03547 0.0
H578 H 0.12484 0.36828 0.03567 0.0
H579 H 0.09136 0.38417 0.0189 0.0
H580 H 0.2799 0.43815 0.0826 0.0
H581 H 0.23997 0.38387 0.01573 0.0
H582 H 0.1633 0.4762 0.01852 0.0
H583 H 0.32913 0.45084 0.06733 0.0
H584 H 0.28934 0.39609 0.00068 0.0
C585 C 0.51437 0.96544 0.17688 0.0
C586 C 0.51038 0.98788 0.16594 0.0
C587 C 0.50686 0.95757 0.20198 0.0
C588 C 0.49524 0.97201 0.21684 0.0
C589 C 0.49149 0.99472 0.20604 0.0
C590 C 0.49917 0.00273 0.18081 0.0
C591 C 0.48586 0.96179 0.24305 0.0
C592 C 0.50342 0.95435 0.25794 0.0
C593 C 0.49162 0.93595 0.27905 0.0
C594 C 0.46345 0.92896 0.28759 0.0
C595 C 0.44611 0.93802 0.2739 0.0
C596 C 0.45746 0.95431 0.25145 0.0
C597 C 0.41486 0.92724 0.28117 0.0
C598 C 0.39681 0.89778 0.28993 0.0
C599 C 0.4024 0.94576 0.27822 0.0
C600 C 0.37242 0.93479 0.28319 0.0
C601 C 0.35434 0.90518 0.2914 0.0
C602 C 0.50616 0.91944 0.28861 0.0
C603 C 0.51906 0.90872 0.27119 0.0
C604 C 0.50555 0.91228 0.31427 0.0
C605 C 0.51771 0.89479 0.32221 0.0
C606 C 0.53074 0.8843 0.3046 0.0
C607 C 0.53152 0.89185 0.27909 0.0
C608 C 0.36691 0.88695 0.29516 0.0
H609 H 0.52307 0.95373 0.16594 0.0
H610 H 0.50944 0.93952 0.20957 0.0
H611 H 0.4825 0.00611 0.21703 0.0
H612 H 0.49554 0.0199 0.17271 0.0
H613 H 0.52554 0.96056 0.25162 0.0
H614 H 0.44338 0.95908 0.23954 0.0
H615 H 0.45428 0.91492 0.30401 0.0
H616 H 0.40543 0.88263 0.29191 0.0
H617 H 0.41577 0.96865 0.27184 0.0
H618 H 0.36327 0.94941 0.28045 0.0
H619 H 0.51919 0.91286 0.25115 0.0
H620 H 0.49569 0.92013 0.32815 0.0
H621 H 0.35335 0.86394 0.30122 0.0
H622 H 0.54208 0.88503 0.26503 0.0
H623 H 0.51674 0.88935 0.34203 0.0
C624 C -0.0046 0.50689 0.20112 0.0
C625 C 0.00911 0.52677 0.18097 0.0
C626 C 0.00951 0.51252 0.22459 0.0
C627 C 0.03695 0.53861 0.22847 0.0
C628 C 0.04843 0.56051 0.20956 0.0
C629 C 0.03463 0.55457 0.18585 0.0
C630 C 0.05601 0.54086 0.25001 0.0
C631 C 0.06437 0.51894 0.25294 0.0
C632 C 0.08706 0.52378 0.26997 0.0
C633 C 0.1003 0.54992 0.28494 0.0
C634 C 0.09209 0.57182 0.28229 0.0
C635 C 0.06964 0.567 0.26492 0.0
C636 C 0.10935 0.60103 0.29555 0.0
C637 C 0.11868 0.60262 0.32077 0.0
C638 C 0.11784 0.6277 0.28251 0.0
C639 C 0.13451 0.65536 0.29455 0.0
C640 C 0.14346 0.65712 0.31991 0.0
C641 C 0.09934 0.50338 0.2708 0.0
C642 C 0.08099 0.47248 0.2747 0.0
C643 C 0.13022 0.51553 0.26981 0.0
C644 C 0.14274 0.49773 0.27484 0.0
C645 C 0.12463 0.46738 0.28085 0.0
C646 C 0.09359 0.45454 0.27973 0.0
C647 C 0.13568 0.63042 0.33281 0.0
H648 H 0.97529 0.48555 0.19797 0.0
H649 H 0.0001 0.49557 0.23908 0.0
H650 H 0.06957 0.58091 0.21227 0.0
H651 H 0.04565 0.57032 0.17074 0.0
H652 H 0.05487 0.49931 0.24065 0.0
H653 H 0.06339 0.58398 0.26231 0.0
H654 H 0.11821 0.55389 0.29778 0.0
H655 H 0.11245 0.58238 0.33131 0.0
H656 H 0.11161 0.62728 0.2629 0.0
H657 H 0.13933 0.67531 0.28415 0.0
H658 H 0.05711 0.46263 0.27543 0.0
H659 H 0.14481 0.53919 0.26623 0.0
H660 H 0.1422 0.63097 0.35235 0.0
H661 H 0.07915 0.4312 0.2845 0.0
H662 H 0.16669 0.50804 0.27535 0.0
C663 C 0.48046 0.5182 0.17014 0.0
C664 C 0.51082 0.53047 0.16518 0.0
C665 C 0.47036 0.51448 0.19487 0.0
C666 C 0.49041 0.523 0.21522 0.0
C667 C 0.52075 0.53465 0.21035 0.0
C668 C 0.53086 0.53819 0.1855 0.0
C669 C 0.47991 0.52334 0.24105 0.0
C670 C 0.45288 0.4996 0.24954 0.0
C671 C 0.43949 0.50281 0.27147 0.0
C672 C 0.45415 0.52979 0.28544 0.0
C673 C 0.48156 0.55341 0.27732 0.0
C674 C 0.49444 0.54979 0.2554 0.0
C675 C 0.49532 0.58338 0.28942 0.0
C676 C 0.4784 0.59721 0.29415 0.0
C677 C 0.52609 0.59961 0.29365 0.0
C678 C 0.53979 0.62928 0.3021 0.0
C679 C 0.523 0.64333 0.30653 0.0
C680 C 0.40868 0.47957 0.27777 0.0
C681 C 0.38729 0.4666 0.2584 0.0
C682 C 0.40002 0.47108 0.30289 0.0
C683 C 0.37053 0.4499 0.30843 0.0
C684 C 0.34924 0.4369 0.28893 0.0
C685 C 0.358 0.44556 0.2639 0.0
C686 C 0.49213 0.62696 0.30268 0.0
H687 H 0.46439 0.51123 0.15484 0.0
H688 H 0.44693 0.50588 0.19804 0.0
H689 H 0.53664 0.54143 0.22577 0.0
H690 H 0.55433 0.54731 0.18215 0.0
H691 H 0.44161 0.4791 0.23837 0.0
H692 H 0.5146 0.56867 0.24825 0.0
H693 H 0.44363 0.53301 0.30186 0.0
H694 H 0.4547 0.58534 0.29053 0.0
H695 H 0.53958 0.58938 0.29021 0.0
H696 H 0.56351 0.64106 0.30562 0.0
H697 H 0.393 0.47324 0.23893 0.0
H698 H 0.41605 0.48068 0.3182 0.0
H699 H 0.4787 0.63727 0.30603 0.0
H700 H 0.34204 0.43654 0.24851 0.0
H701 H 0.36446 0.44352 0.32789 0.0
O702 O 0.52251 0.97833 0.94035 0.0
Mg703 Mg 0.53324 0.97321 0.97692 0.0
O704 O 0.49385 0.99486 0.95499 0.0
Mg705 Mg 0.49938 0.99511 -0.00039 0.0
O706 O 0.50193 0.9505 0.0036 0.0
O707 O 0.52528 0.93144 0.98075 0.0
O708 O 0.50513 0.99164 0.04413 0.0
O709 O 0.44875 0.96438 0.00306 0.0
Mg710 Mg 0.49015 0.02517 0.02937 0.0
O711 O 0.49368 0.03832 0.99313 0.0
O712 O 0.52738 0.03909 0.05324 0.0
O713 O 0.44795 0.98725 0.03807 0.0
O714 O 0.48483 0.06078 0.02599 0.0
C715 C 0.57484 0.02889 -0.00198 0.0
C716 C 0.50496 0.98802 0.93637 0.0
C717 C 0.50786 0.92913 -0.00106 0.0
C718 C 0.52033 0.01293 0.05973 0.0
C719 C 0.43471 0.96593 0.02217 0.0
C720 C 0.48834 0.05876 0.00212 0.0
O721 O 0.5742 0.00486 0.99188 0.0
O722 O 0.55081 0.0298 -0.00113 0.0
O723 O 0.01718 0.48785 0.96005 0.0
Mg724 Mg 0.00245 0.51366 0.98088 0.0
O725 O 0.97207 0.46436 0.97258 0.0
Mg726 Mg 0.9854 0.48329 0.01525 0.0
O727 O 0.02484 0.53601 0.01186 0.0
O728 O 0.03149 0.55573 0.97283 0.0
O729 O 0.99211 0.49432 0.05909 0.0
O730 O 0.02242 0.47092 0.01461 0.0
Mg731 Mg 0.96699 0.42157 0.04854 0.0
O732 O 0.9502 0.43531 0.02111 0.0
O733 O 0.9731 0.45034 0.07869 0.0
O734 O 0.0064 0.42629 0.03249 0.0
O735 O 0.925 0.38918 0.03545 0.0
C736 C 0.94264 0.50386 0.99479 0.0
C737 C 0.99079 0.46797 0.95569 0.0
C738 C 0.03853 0.55856 0.99645 0.0
C739 C 0.9849 0.4787 0.07932 0.0
C740 C 0.0259 0.44891 0.02058 0.0
C741 C 0.92747 0.40879 0.0192 0.0
O742 O 0.95928 0.50913 0.97587 0.0
O743 O 0.94914 0.49618 0.01549 0.0
O744 O 0.50591 0.47361 0.06768 0.0
Mg745 Mg 0.48125 0.44226 0.03988 0.0
O746 O 0.51443 0.51206 0.0435 0.0
Mg747 Mg 0.50349 0.49521 0.0012 0.0
O748 O 0.50452 0.45151 0.00744 0.0
O749 O 0.49382 0.4118 0.03136 0.0
O750 O 0.4945 0.47626 0.95903 0.0
O751 O 0.55317 0.51797 0.99353 0.0
Mg752 Mg 0.50711 0.52823 0.96234 0.0
O753 O 0.50482 0.54201 -0.00236 0.0
O754 O 0.46741 0.49407 0.94553 0.0
O755 O 0.55065 0.53444 0.95572 0.0
O756 O 0.50718 0.5671 0.96221 0.0
C757 C 0.43186 0.44964 0.01835 0.0
C758 C 0.51589 0.50138 0.06483 0.0
C759 C 0.50507 0.42689 0.01103 0.0
C760 C 0.47671 0.47602 0.94237 0.0
C761 C 0.56551 0.53053 0.9729 0.0
C762 C 0.50632 0.56524 0.98651 0.0
O763 O 0.43752 0.43259 0.03151 0.0
O764 O 0.45249 0.47284 0.00762 0.0
O765 O 0.12939 0.29139 0.27341 0.0
Mg766 Mg 0.16609 0.29766 0.29503 0.0
O767 O 0.15238 0.33656 0.28895 0.0
Mg768 Mg 0.16118 0.32892 0.33174 0.0
O769 O 0.16221 0.28326 0.33109 0.0
O770 O 0.16512 0.25831 0.29716 0.0
O771 O 0.17086 0.3227 0.37464 0.0
O772 O 0.1109 0.30186 0.33905 0.0
Mg773 Mg 0.1528 0.36204 0.3695 0.0
O774 O 0.16023 0.37396 0.33269 0.0
O775 O 0.18845 0.36711 0.3916 0.0
O776 O 0.10884 0.32485 0.37384 0.0
O777 O 0.1553 0.40185 0.36303 0.0
C778 C 0.22447 0.35402 0.30491 0.0
C779 C 0.13708 0.31861 0.27111 0.0
C780 C 0.1638 0.2608 0.32131 0.0
C781 C 0.18451 0.34097 0.39283 0.0
C782 C 0.09622 0.3039 0.35746 0.0
C783 C 0.15888 0.39754 0.33958 0.0
O784 O 0.21014 0.33383 0.28826 0.0
O785 O 0.21131 0.35593 0.32449 0.0
O786 O 0.67913 0.81656 0.29105 0.0
Mg787 Mg 0.66706 0.84694 0.3067 0.0
O788 O 0.63642 0.79411 0.30911 0.0
Mg789 Mg 0.6502 0.81935 0.34884 0.0
O790 O 0.68895 0.86887 0.33858 0.0
O791 O 0.69865 0.88921 0.29977 0.0
O792 O 0.6596 0.84183 0.38953 0.0
O793 O 0.68574 0.80614 0.35317 0.0
Mg794 Mg 0.63218 0.77388 0.39481 0.0
O795 O 0.61428 0.77263 0.36068 0.0
O796 O 0.62956 0.80656 0.4159 0.0
O797 O 0.67462 0.77823 0.38774 0.0
O798 O 0.59296 0.73465 0.38736 0.0
C799 C 0.60767 0.83791 0.32281 0.0
C800 C 0.6529 0.79505 0.29104 0.0
C801 C 0.70441 0.89145 0.32367 0.0
C802 C 0.6465 0.8339 0.41084 0.0
C803 C 0.69156 0.79145 0.36918 0.0
C804 C 0.59308 0.74586 0.36563 0.0
O805 O 0.62312 0.84101 0.30333 0.0
O806 O 0.61516 0.83258 0.34412 0.0
O807 O 0.13186 0.81824 0.38382 0.0
Mg808 Mg 0.13209 0.79252 0.35237 0.0
O809 O 0.178 0.84914 0.37434 0.0
Mg810 Mg 0.16762 0.83462 0.33238 0.0
O811 O 0.16638 0.78788 0.3404 0.0
O812 O 0.13278 0.75803 0.3688 0.0
O813 O 0.15735 0.81469 0.29072 0.0
O814 O 0.21703 0.85169 0.32602 0.0
Mg815 Mg 0.17527 0.86747 0.29441 0.0
O816 O 0.17539 0.88415 0.32895 0.0
O817 O 0.13466 0.83718 0.27657 0.0
O818 O 0.21579 0.86742 0.28759 0.0
O819 O 0.18149 0.90913 0.29268 0.0
C820 C 0.09385 0.79847 0.32758 0.0
C821 C 0.15698 0.83977 0.39007 0.0
C822 C 0.15507 0.76416 0.35458 0.0
C823 C 0.14087 0.81666 0.27394 0.0
C824 C 0.22962 0.86237 0.30497 0.0
C825 C 0.1802 0.90819 0.31701 0.0
O826 O 0.09638 0.77544 0.32682 0.0
O827 O 0.11661 0.82327 0.33407 0.0
O828 O 0.8413 0.6339 0.60184 0.0
Mg829 Mg 0.85847 0.6309 0.63641 0.0
O830 O 0.82886 0.66471 0.61974 0.0
Mg831 Mg 0.83377 0.66356 0.66422 0.0
O832 O 0.83211 0.61727 0.6675 0.0
O833 O 0.84566 0.58851 0.64564 0.0
O834 O 0.83746 0.65948 0.70848 0.0
O835 O 0.78328 0.63786 0.66818 0.0
Mg836 Mg 0.82809 0.69913 0.69588 0.0
O837 O 0.83335 0.70916 0.65865 0.0
O838 O 0.86447 0.70636 0.71905 0.0
O839 O 0.78381 0.66289 0.70251 0.0
O840 O 0.82951 0.73811 0.68877 0.0
C841 C 0.90683 0.68751 0.65723 0.0
C842 C 0.83158 0.65185 0.60001 0.0
C843 C 0.83316 0.5926 0.66508 0.0
C844 C 0.85434 0.67926 0.72453 0.0
C845 C 0.76979 0.64134 0.68684 0.0
C846 C 0.8318 0.73274 0.6653 0.0
O847 O 0.902 0.66323 0.64681 0.0
O848 O 0.88548 0.69184 0.66297 0.0
O849 O 0.30182 0.18502 0.62884 0.0
Mg850 Mg 0.32065 0.20324 0.66486 0.0
O851 O 0.31854 0.15395 0.63312 0.0
Mg852 Mg 0.31983 0.16118 0.67611 0.0
O853 O 0.36189 0.2121 0.67299 0.0
O854 O 0.35086 0.24506 0.65569 0.0
O855 O 0.32437 0.17532 0.7198 0.0
O856 O 0.35808 0.1515 0.67842 0.0
Mg857 Mg 0.30068 0.12315 0.70884 0.0
O858 O 0.28333 0.10885 0.67399 0.0
O859 O 0.28087 0.14105 0.73211 0.0
O860 O 0.34423 0.13031 0.71549 0.0
O861 O 0.27252 0.07902 0.70791 0.0
C862 C 0.27205 0.18341 0.68799 0.0
C863 C 0.30795 0.16628 0.61912 0.0
C864 C 0.37022 0.23867 0.66413 0.0
C865 C 0.30382 0.16588 0.73619 0.0
C866 C 0.36309 0.14031 0.69785 0.0
C867 C 0.26878 0.08257 0.68438 0.0
O868 O 0.2954 0.2071 0.69419 0.0
O869 O 0.27493 0.16358 0.67588 0.0
O870 O 0.79363 0.14343 0.71784 0.0
Mg871 Mg 0.79402 0.11996 0.68488 0.0
O872 O 0.83981 0.17516 0.70908 0.0
Mg873 Mg 0.82974 0.16331 0.66649 0.0
O874 O 0.8284 0.11594 0.67192 0.0
O875 O 0.79457 0.08461 0.6995 0.0
O876 O 0.8196 0.14585 0.62349 0.0
O877 O 0.87925 0.18074 0.66014 0.0
Mg878 Mg 0.83671 0.19669 0.63226 0.0
O879 O 0.83792 0.21385 0.66655 0.0
O880 O 0.79586 0.16889 0.6139 0.0
O881 O 0.87695 0.19753 0.62257 0.0
O882 O 0.84381 0.23844 0.63004 0.0
C883 C 0.7557 0.12741 0.66175 0.0
C884 C 0.81864 0.16465 0.72471 0.0
C885 C 0.81709 0.09158 0.68533 0.0
C886 C 0.80295 0.14962 0.60808 0.0
C887 C 0.89137 0.19219 0.63913 0.0
C888 C 0.84291 0.23783 0.65436 0.0
O889 O 0.75793 0.10426 0.65984 0.0
O890 O 0.77866 0.15183 0.6687 0.0
C891 C 0.35626 0.90153 0.01091 0.0
C892 C 0.34164 0.90379 0.03241 0.0
H893 H 0.39722 0.91935 0.99075 0.0
C894 C 0.35798 0.92631 0.05047 0.0
H895 H 0.34421 0.88448 0.9966 0.0
C896 C 0.38817 0.94615 0.04715 0.0
C897 C 0.40285 0.94401 0.02568 0.0
H898 H 0.34755 0.92828 0.06748 0.0
H899 H 0.39999 0.96318 0.06154 0.0
C900 C 0.38659 0.92148 0.00756 0.0
C901 C 0.10377 0.46457 0.02794 0.0
C902 C 0.10281 0.44135 0.013 0.0
H903 H 0.0796 0.48533 0.04175 0.0
C904 C 0.07807 0.42433 -0.00279 0.0
H905 H 0.12232 0.47777 0.04059 0.0
C906 C 0.05353 0.42834 -0.00169 0.0
C907 C 0.05372 0.44988 0.01473 0.0
H908 H 0.07693 0.4066 0.98526 0.0
H909 H 0.0338 0.41356 0.98738 0.0
C910 C 0.07935 0.46885 0.02872 0.0
C911 C 0.51872 0.64216 0.00103 0.0
C912 C 0.53404 0.64866 0.02417 0.0
H913 H 0.49724 0.61018 0.97122 0.0
C914 C 0.53674 0.62601 0.03644 0.0
H915 H 0.51636 0.65922 0.99116 0.0
C916 C 0.52549 0.59772 0.02512 0.0
C917 C 0.51177 0.5919 0.00123 0.0
H918 H 0.54804 0.63037 0.05452 0.0
H919 H 0.52905 0.58107 0.03439 0.0
C920 C 0.50775 0.61408 0.98964 0.0
C921 C 0.90395 0.37281 0.95679 0.0
C922 C 0.87415 0.35212 0.96218 0.0
H923 H 0.94496 0.40772 0.97167 0.0
C924 C 0.86067 0.35786 0.9828 0.0
H925 H 0.91479 0.36928 0.94078 0.0
C926 C 0.87787 0.38076 1e-05 0.0
C927 C 0.90856 0.39818 0.9967 0.0
H928 H 0.83777 0.34244 0.98755 0.0
H929 H 0.86786 0.38224 0.01748 0.0
C930 C 0.92117 0.39551 0.97416 0.0
C931 C 0.64235 0.56977 0.94462 0.0
C932 C 0.65863 0.56354 0.96234 0.0
H933 H 0.60016 0.56396 0.93388 0.0
C934 C 0.64404 0.54615 0.9835 0.0
H935 H 0.65294 0.58277 0.92795 0.0
C936 C 0.61375 0.53531 0.98693 0.0
C937 C 0.59743 0.54146 0.96914 0.0
H938 H 0.65611 0.54115 -0.00247 0.0
H939 H 0.60316 0.5221 0.00351 0.0
C940 C 0.61206 0.55877 0.94793 0.0
C941 C 0.48192 0.12437 0.98099 0.0
C942 C 0.46218 0.11197 0.96046 0.0
H943 H 0.50603 0.11704 0.01011 0.0
C944 C 0.45411 0.08304 0.95165 0.0
H945 H 0.48825 0.14654 0.98826 0.0
C946 C 0.46492 0.06637 0.96387 0.0
C947 C 0.48324 0.07826 0.98534 0.0
H948 H 0.43894 0.07314 0.93579 0.0
H949 H 0.4574 0.04356 0.95761 0.0
C950 C 0.49215 0.10758 0.99344 0.0
C951 C 0.6368 0.10714 0.98641 0.0
C952 C 0.6615 0.10405 0.99219 0.0
H953 H 0.58937 0.08554 0.98451 0.0
C954 C 0.65728 0.07824 0.00457 0.0
H955 H 0.63966 0.12699 0.97693 0.0
C956 C 0.62864 0.05444 0.0085 0.0
C957 C 0.6039 0.05638 0.00051 0.0
H958 H 0.67602 0.07538 0.00913 0.0
H959 H 0.62586 0.03376 0.01624 0.0
C960 C 0.60811 0.08352 0.99081 0.0
C961 C 0.88072 0.51087 0.96606 0.0
C962 C 0.88084 0.5333 0.98154 0.0
H963 H 0.90073 0.48414 0.95815 0.0
C964 C 0.89761 0.54158 0.00411 0.0
H965 H 0.86727 0.50311 0.94903 0.0
C966 C 0.91586 0.52963 0.00981 0.0
C967 C 0.91794 0.50974 0.99282 0.0
H968 H 0.8983 0.55878 0.01645 0.0
H969 H 0.93015 0.53784 0.02636 0.0
C970 C 0.89954 0.49966 0.97139 0.0
C971 C 0.49105 0.38071 0.95432 0.0
C972 C 0.49869 0.36014 0.96418 0.0
H973 H 0.48869 0.42032 0.96178 0.0
C974 C 0.51827 0.3688 0.9849 0.0
H975 H 0.47621 0.3748 0.93821 0.0
C976 C 0.52536 0.39491 -0.00164 0.0
C977 C 0.51306 0.41254 0.99108 0.0
H978 H 0.52526 0.35377 0.99239 0.0
H979 H 0.537 0.39904 0.01627 0.0
C980 C 0.49843 0.40704 0.96771 0.0
C981 C 0.10176 0.63825 0.99527 0.0
C982 C 0.10431 0.64669 0.02077 0.0
H983 H 0.07925 0.60362 0.96775 0.0
C984 C 0.08607 0.62533 0.03867 0.0
H985 H 0.11587 0.65405 0.98116 0.0
C986 C 0.06518 0.59618 0.03104 0.0
C987 C 0.06211 0.58811 0.0054 0.0
H988 H 0.08737 0.63138 0.05846 0.0
H989 H 0.05087 0.58034 0.04504 0.0
C990 C 0.08087 0.60929 0.98767 0.0
C991 C 0.36595 0.46097 0.02309 0.0
C992 C 0.34256 0.43118 0.02457 0.0
H993 H 0.41286 0.49022 0.01914 0.0
C994 C 0.34834 0.40759 0.0208 0.0
H995 H 0.36188 0.47947 0.02587 0.0
C996 C 0.37743 0.41369 0.0175 0.0
C997 C 0.40104 0.44346 0.01731 0.0
H998 H 0.33061 0.38446 0.0219 0.0
H999 H 0.38159 0.39512 0.01597 0.0
C1000 C 0.39499 0.46709 0.01914 0.0
C1001 C 0.51934 0.8948 0.05537 0.0
C1002 C 0.51732 0.86914 0.04388 0.0
H1003 H 0.5163 0.93434 0.04965 0.0
C1004 C 0.50265 0.85915 0.02049 0.0
H1005 H 0.53041 0.90281 0.07348 0.0
C1006 C 0.49429 0.87694 0.00707 0.0
C1007 C 0.50057 0.90492 0.01688 0.0
H1008 H 0.50026 0.83905 0.01152 0.0
H1009 H 0.4864 0.8706 0.98779 0.0
C1010 C 0.51088 0.91264 0.04188 0.0
C1011 C 0.01886 0.23876 0.34388 0.0
C1012 C 0.00299 0.24035 0.36471 0.0
H1013 H 0.06074 0.25753 0.3252 0.0
C1014 C 0.01794 0.26328 0.3828 0.0
H1015 H 0.00789 0.22148 0.32952 0.0
C1016 C 0.04812 0.28389 0.38036 0.0
C1017 C 0.06413 0.28207 0.35975 0.0
H1018 H 0.00651 0.26483 0.3993 0.0
H1019 H 0.05895 0.30105 0.39484 0.0
C1020 C 0.04912 0.25942 0.34141 0.0
C1021 C 0.75773 0.78339 0.38379 0.0
C1022 C 0.76419 0.77641 0.35986 0.0
H1023 H 0.72915 0.79345 0.40547 0.0
C1024 C 0.74832 0.77677 0.33859 0.0
H1025 H 0.76981 0.78301 0.40037 0.0
C1026 C 0.72546 0.7833 0.34142 0.0
C1027 C 0.71791 0.78862 0.36563 0.0
H1028 H 0.75299 0.77111 0.32006 0.0
H1029 H 0.71272 0.78266 0.32495 0.0
C1030 C 0.73452 0.78916 0.3867 0.0
C1031 C 0.19754 0.98717 0.33014 0.0
C1032 C 0.21124 0.99274 0.35399 0.0
H1033 H 0.17654 0.95572 0.29988 0.0
C1034 C 0.21192 0.96929 0.36679 0.0
H1035 H 0.19684 0.00491 0.31984 0.0
C1036 C 0.19996 0.94092 0.35546 0.0
C1037 C 0.18763 0.93586 0.33103 0.0
H1038 H 0.2221 0.97304 0.38535 0.0
H1039 H 0.20168 0.92346 0.36528 0.0
C1040 C 0.18596 0.95903 0.31872 0.0
C1041 C 0.52566 0.67993 0.33892 0.0
C1042 C 0.53762 0.67401 0.31738 0.0
H1043 H 0.53434 0.70848 0.3712 0.0
C1044 C 0.5657 0.69602 0.30886 0.0
H1045 H 0.50412 0.66337 0.34594 0.0
C1046 C 0.58288 0.72198 0.32326 0.0
C1047 C 0.57212 0.72608 0.34629 0.0
H1048 H 0.57523 0.69212 0.2921 0.0
H1049 H 0.60558 0.73697 0.31776 0.0
C1050 C 0.54291 0.70573 0.35336 0.0
C1051 C 0.30569 0.89721 0.2759 0.0
C1052 C 0.32216 0.89294 0.29476 0.0
H1053 H 0.26357 0.89044 0.26413 0.0
C1054 C 0.30769 0.87696 0.31655 0.0
H1055 H 0.31622 0.90897 0.25871 0.0
C1056 C 0.27737 0.86629 0.31976 0.0
C1057 C 0.26103 0.8712 0.30108 0.0
H1058 H 0.31997 0.87335 0.33134 0.0
H1059 H 0.26688 0.85467 0.33699 0.0
C1060 C 0.27546 0.88636 0.27896 0.0
C1061 C 0.15756 0.46392 0.31299 0.0
C1062 C 0.13802 0.45084 0.29238 0.0
H1063 H 0.17985 0.45709 0.344 0.0
C1064 C 0.12929 0.42125 0.28503 0.0
H1065 H 0.16438 0.48657 0.31924 0.0
C1066 C 0.13873 0.40451 0.299 0.0
C1067 C 0.15634 0.417 0.32079 0.0
H1068 H 0.11428 0.41076 0.26916 0.0
H1069 H 0.13034 0.38118 0.29394 0.0
C1070 C 0.16644 0.44709 0.32717 0.0
C1071 C 0.30193 0.38976 0.27822 0.0
C1072 C 0.31778 0.41472 0.29432 0.0
H1073 H 0.26023 0.35127 0.26883 0.0
C1074 C 0.30292 0.41904 0.31462 0.0
H1075 H 0.31286 0.38546 0.26271 0.0
C1076 C 0.27262 0.39923 0.31825 0.0
C1077 C 0.25663 0.3748 0.30163 0.0
H1078 H 0.31448 0.43818 0.32724 0.0
H1079 H 0.26165 0.40336 0.33383 0.0
C1080 C 0.27173 0.37012 0.28176 0.0
C1081 C 0.56238 0.87478 0.33469 0.0
C1082 C 0.54523 0.8671 0.31241 0.0
H1083 H 0.59548 0.87077 0.35564 0.0
C1084 C 0.54522 0.8455 0.29588 0.0
H1085 H 0.56301 0.89134 0.3478 0.0
C1086 C 0.56461 0.8347 0.29991 0.0
C1087 C 0.58334 0.84427 0.3211 0.0
H1088 H 0.53141 0.83819 0.27903 0.0
H1089 H 0.56576 0.81975 0.28602 0.0
C1090 C 0.58109 0.86314 0.33913 0.0
C1091 C 0.14621 0.68803 0.35739 0.0
C1092 C 0.15677 0.68641 0.3334 0.0
H1093 H 0.13866 0.71504 0.38362 0.0
C1094 C 0.17505 0.71323 0.32049 0.0
H1095 H 0.13239 0.66798 0.3681 0.0
C1096 C 0.17804 0.7403 0.32915 0.0
C1097 C 0.16313 0.74075 0.351 0.0
H1098 H 0.18454 0.71283 0.30242 0.0
H1099 H 0.18925 0.75992 0.31733 0.0
C1100 C 0.14963 0.71512 0.36623 0.0
C1101 C 0.75066 0.95559 0.36881 0.0
C1102 C 0.77037 0.97779 0.35215 0.0
H1103 H 0.71443 0.91069 0.37293 0.0
C1104 C 0.76917 0.97067 0.32638 0.0
H1105 H 0.75073 0.96047 0.38876 0.0
C1106 C 0.74816 0.94234 0.31732 0.0
C1107 C 0.72802 0.92041 0.33386 0.0
H1108 H 0.78438 0.98703 0.31313 0.0
H1109 H 0.74755 0.93775 0.29725 0.0
C1110 C 0.72978 0.9271 0.35977 0.0
C1111 C 0.0108 0.75972 0.32555 0.0
C1112 C 0.00569 0.77949 0.34022 0.0
H1113 H 0.04313 0.75071 0.30943 0.0
C1114 C 0.02965 0.80809 0.34629 0.0
H1115 H 0.99279 0.73756 0.32053 0.0
C1116 C 0.05856 0.81567 0.33991 0.0
C1117 C 0.06387 0.79463 0.32753 0.0
H1118 H 0.02619 0.82402 0.3571 0.0
H1119 H 0.07679 0.83702 0.34639 0.0
C1120 C 0.03966 0.76724 0.31925 0.0
C1121 C 0.2003 0.23935 0.37173 0.0
C1122 C 0.20032 0.21481 0.35989 0.0
H1123 H 0.18779 0.27303 0.36891 0.0
C1124 C 0.18292 0.20208 0.33808 0.0
H1125 H 0.21337 0.24947 0.38869 0.0
C1126 C 0.16817 0.21537 0.3269 0.0
C1127 C 0.17055 0.24167 0.33731 0.0
H1128 H 0.18179 0.18258 0.32902 0.0
H1129 H 0.15654 0.2062 0.30915 0.0
C1130 C 0.18544 0.25268 0.36053 0.0
C1131 C 0.69384 0.60187 0.71678 0.0
C1132 C 0.67836 0.57681 0.70076 0.0
H1133 H 0.73487 0.64183 0.72501 0.0
C1134 C 0.69265 0.574 0.67929 0.0
H1135 H 0.68352 0.60448 0.7336 0.0
C1136 C 0.72216 0.5953 0.67441 0.0
C1137 C 0.73798 0.61983 0.69092 0.0
H1138 H 0.6811 0.55509 0.66643 0.0
H1139 H 0.7327 0.59221 0.65796 0.0
C1140 C 0.72336 0.62315 0.71193 0.0
C1141 C 0.41384 0.11295 0.72024 0.0
C1142 C 0.43013 0.11573 0.6984 0.0
H1143 H 0.38044 0.11932 0.73739 0.0
C1144 C 0.42705 0.13017 0.67722 0.0
H1145 H 0.41645 0.10248 0.73699 0.0
C1146 C 0.40626 0.13984 0.67736 0.0
C1147 C 0.3886 0.13534 0.69878 0.0
H1148 H 0.4397 0.13273 0.66029 0.0
H1149 H 0.40313 0.14958 0.66038 0.0
C1150 C 0.39337 0.12275 0.72048 0.0
C1151 C 0.85741 0.31598 0.66654 0.0
C1152 C 0.87279 0.32304 0.68966 0.0
H1153 H 0.83549 0.28311 0.63743 0.0
C1154 C 0.87592 0.30088 0.70234 0.0
H1155 H 0.85478 0.33273 0.65641 0.0
C1156 C 0.86447 0.27225 0.69164 0.0
C1157 C 0.85026 0.2657 0.66795 0.0
H1158 H 0.88743 0.30581 0.72037 0.0
H1159 H 0.86794 0.25576 0.70131 0.0
C1160 C 0.84639 0.28763 0.65573 0.0
C1161 C 0.23869 0.02447 0.63227 0.0
C1162 C 0.21522 0.00037 0.64486 0.0
H1163 H 0.27394 0.07032 0.63492 0.0
C1164 C 0.20757 0.00481 0.66923 0.0
H1165 H 0.2448 0.02148 0.61338 0.0
C1166 C 0.22421 0.0323 0.68147 0.0
C1167 C 0.24855 0.05596 0.66946 0.0
H1168 H 0.18974 0.98652 0.6794 0.0
H1169 H 0.2187 0.03471 0.70075 0.0
C1170 C 0.25512 0.05231 0.64445 0.0
C1171 C 0.9694 0.20571 0.64764 0.0
C1172 C 0.98275 0.22038 0.62504 0.0
H1173 H 0.92992 0.18515 0.66988 0.0
C1174 C 0.96574 0.22517 0.60708 0.0
H1175 H 0.98212 0.20188 0.66187 0.0
C1176 C 0.93596 0.21552 0.61158 0.0
C1177 C 0.92256 0.20098 0.63421 0.0
H1178 H 0.97532 0.23597 0.58934 0.0
H1179 H 0.92352 0.21963 0.59728 0.0
C1180 C 0.93956 0.19614 0.65221 0.0
C1181 C 0.82811 0.79743 0.63759 0.0
C1182 C 0.80746 0.78328 0.61785 0.0
H1183 H 0.85236 0.79236 0.66797 0.0
C1184 C 0.79854 0.75339 0.61138 0.0
H1185 H 0.83511 0.82033 0.6432 0.0
C1186 C 0.809 0.73751 0.62535 0.0
C1187 C 0.82786 0.75116 0.6463 0.0
H1188 H 0.78266 0.74205 0.59621 0.0
H1189 H 0.80054 0.71399 0.62099 0.0
C1190 C 0.83802 0.78146 0.65178 0.0
C1191 C 0.98969 0.72582 0.66402 0.0
C1192 C -0.00215 0.75475 0.65581 0.0
H1193 H 0.9538 0.68144 0.67082 0.0
C1194 C 0.97593 0.76277 0.6525 0.0
H1195 H 0.00627 0.71921 0.66663 0.0
C1196 C 0.94599 0.74134 0.65526 0.0
C1197 C 0.93773 0.71157 0.66077 0.0
H1198 H 0.98189 0.78506 0.64619 0.0
H1199 H 0.92934 0.74746 0.65104 0.0
C1200 C 0.95976 0.70425 0.66622 0.0
C1201 C 0.2213 0.21479 0.68927 0.0
C1202 C 0.20023 0.19624 0.67108 0.0
H1203 H 0.26049 0.2245 0.70981 0.0
C1204 C 0.1984 0.16887 0.66435 0.0
H1205 H 0.22314 0.23589 0.69507 0.0
C1206 C 0.22012 0.1625 0.67257 0.0
C1207 C 0.2438 0.18343 0.68768 0.0
H1208 H 0.18171 0.15364 0.651 0.0
H1209 H 0.21992 0.14278 0.66504 0.0
C1210 C 0.24284 0.20831 0.69765 0.0
C1211 C 0.83982 0.04268 0.65106 0.0
C1212 C 0.82218 0.0155 0.66379 0.0
H1213 H 0.85218 0.08896 0.64802 0.0
C1214 C 0.81096 0.01644 0.68765 0.0
H1215 H 0.84985 0.04289 0.63312 0.0
C1216 C 0.81305 0.04297 0.69648 0.0
C1217 C 0.8259 0.06876 0.6814 0.0
H1218 H 0.79762 -0.00385 0.69823 0.0
H1219 H 0.80168 0.04226 0.71379 0.0
C1220 C 0.84143 0.06917 0.65969 0.0
C1221 C 0.43663 0.31527 0.65743 0.0
C1222 C 0.45597 0.3148 0.67576 0.0
H1223 H 0.39455 0.29124 0.63909 0.0
C1224 C 0.44938 0.28704 0.68622 0.0
H1225 H 0.44073 0.33602 0.64886 0.0
C1226 C 0.42216 0.2612 0.68104 0.0
C1227 C 0.40145 0.26282 0.66509 0.0
H1228 H 0.46427 0.28572 0.6998 0.0
H1229 H 0.41656 0.24068 0.69088 0.0
C1230 C 0.40976 0.28953 0.65209 0.0
C1231 C 0.69236 0.13878 0.6802 0.0
C1232 C 0.66796 0.11054 0.6739 0.0
H1233 H 0.73963 0.16669 0.68072 0.0
C1234 C 0.67259 0.09032 0.65942 0.0
H1235 H 0.68929 0.15501 0.69094 0.0
C1236 C 0.70132 0.09705 0.65347 0.0
C1237 C 0.7259 0.12411 0.66187 0.0
H1238 H 0.65422 0.06842 0.65427 0.0
H1239 H 0.70435 0.08019 0.64372 0.0
C1240 C 0.72113 0.14557 0.67415 0.0
C1241 C 0.82656 0.52566 0.69436 0.0
C1242 C 0.84648 0.5395 0.71457 0.0
H1243 H 0.80469 0.53211 0.66288 0.0
C1244 C 0.85251 0.5679 0.72314 0.0
H1245 H 0.82125 0.50353 0.68772 0.0
C1246 C 0.84266 0.5842 0.70903 0.0
C1247 C 0.82711 0.57216 0.68624 0.0
H1248 H 0.86768 0.57886 0.73884 0.0
H1249 H 0.851 0.60758 0.7139 0.0
C1250 C 0.81676 0.54186 0.68035 0.0
C1251 C 0.53118 0.02427 0.13031 0.0
C1252 C 0.51636 0.99453 0.13874 0.0
H1253 H 0.54499 0.05349 0.09857 0.0
C1254 C 0.50611 0.97097 0.12091 0.0
H1255 H 0.53973 0.04284 0.14367 0.0
C1256 C 0.50915 0.977 0.09509 0.0
C1257 C 0.52258 0.00671 0.0866 0.0
H1258 H 0.49446 0.94779 0.12687 0.0
H1259 H 0.49962 0.95831 0.08184 0.0
C1260 C 0.53442 0.03032 0.10448 0.0
C1261 C 0.00048 0.53269 0.13463 0.0
C1262 C 0.00143 0.51531 0.15468 0.0
H1263 H -0.00566 0.53478 0.0945 0.0
C1264 C -0.00198 0.48706 0.14934 0.0
H1265 H 0.00356 0.55481 0.13825 0.0
C1266 C 0.99315 0.47599 0.12487 0.0
C1267 C 0.99152 0.49274 0.10472 0.0
H1268 H -6e-05 0.47361 0.16407 0.0
H1269 H 0.99097 0.45413 0.1218 0.0
C1270 C -0.00455 0.52139 0.10969 0.0
C1271 C 0.53822 0.52005 0.13193 0.0
C1272 C 0.52067 0.53254 0.13875 0.0
H1273 H 0.55115 0.50099 0.10203 0.0
C1274 C 0.50861 0.54228 0.11969 0.0
H1275 H 0.54783 0.51241 0.14619 0.0
C1276 C 0.51083 0.53604 0.09432 0.0
C1277 C 0.52488 0.51976 0.08793 0.0
H1278 H 0.49542 0.55248 0.12454 0.0
H1279 H 0.4987 0.54081 0.08018 0.0
C1280 C 0.54022 0.51361 0.10665 0.0
C1281 C 0.96458 0.48228 0.89467 0.0
C1282 C 0.96852 0.46363 0.8776 0.0
H1283 H 0.96811 0.49749 0.93252 0.0
C1284 C 0.97913 0.44502 0.88668 0.0
H1285 H 0.95749 0.49767 0.88829 0.0
C1286 C 0.98563 0.44526 0.91248 0.0
C1287 C 0.98104 0.46368 0.9293 0.0
H1288 H 0.98236 0.43038 0.87392 0.0
H1289 H -0.00558 0.43141 0.91922 0.0
C1290 C 0.97054 0.48211 0.92014 0.0
C1291 C 0.5093 0.48996 0.87772 0.0
C1292 C 0.48903 0.46407 0.86429 0.0
H1293 H 0.52104 0.51343 0.91303 0.0
C1294 C 0.46489 0.44086 0.8772 0.0
H1295 H 0.5284 0.50794 0.86847 0.0
C1296 C 0.46083 0.44397 0.90302 0.0
C1297 C 0.48115 0.47009 0.91612 0.0
H1298 H 0.44894 0.42065 0.86724 0.0
H1299 H 0.4418 0.42633 0.9126 0.0
C1300 C 0.50537 0.4929 0.90331 0.0
C1301 C 0.51073 0.99065 0.86546 0.0
C1302 C 0.50044 0.01021 0.85925 0.0
H1303 H 0.51927 0.96762 0.89449 0.0
C1304 C 0.48837 0.02012 0.87816 0.0
H1305 H 0.51999 0.9827 0.85107 0.0
C1306 C 0.48816 0.01174 0.90339 0.0
C1307 C 0.49995 0.9933 0.90979 0.0
H1308 H 0.48036 0.03532 0.87358 0.0
H1309 H 0.4801 0.02075 0.91791 0.0
C1310 C 0.5103 0.98212 0.89037 0.0
C1311 C 0.19981 0.34157 0.46243 0.0
C1312 C 0.18239 0.31103 0.46822 0.0
H1313 H 0.21501 0.37493 0.4338 0.0
C1314 C 0.17017 0.28991 0.44833 0.0
H1315 H 0.21003 0.35827 0.47734 0.0
C1316 C 0.17305 0.29943 0.42325 0.0
C1317 C 0.18823 0.33023 0.41771 0.0
H1318 H 0.15665 0.26619 0.45225 0.0
H1319 H 0.16159 0.28281 0.4085 0.0
C1320 C 0.2028 0.35106 0.43745 0.0
C1321 C 0.64243 0.85862 0.47576 0.0
C1322 C 0.6727 0.87489 0.48194 0.0
H1323 H 0.61014 0.83366 0.44715 0.0
C1324 C 0.69373 0.8849 0.46242 0.0
H1325 H 0.62581 0.85116 0.49041 0.0
C1326 C 0.68476 0.87501 0.43757 0.0
C1327 C 0.65474 0.85501 0.4322 0.0
H1328 H 0.71726 0.89757 0.46671 0.0
H1329 H 0.70152 0.88001 0.42338 0.0
C1330 C 0.6335 0.84883 0.451 0.0
C1331 C 0.14016 0.85028 0.4564 0.0
C1332 C 0.16102 0.8458 0.46975 0.0
H1333 H 0.12287 0.8523 0.4202 0.0
C1334 C 0.18408 0.84534 0.45635 0.0
H1335 H 0.12277 0.85189 0.46617 0.0
C1336 C 0.18479 0.8469 0.42999 0.0
C1337 C 0.16223 0.84848 0.41676 0.0
H1338 H 0.20051 0.84194 0.46602 0.0
H1339 H 0.20142 0.84423 0.41992 0.0
C1340 C 0.14052 0.85117 0.43013 0.0
C1341 C 0.60571 0.78033 0.23373 0.0
C1342 C 0.62361 0.77831 0.21482 0.0
H1343 H 0.60017 0.78548 0.27301 0.0
C1344 C 0.64805 0.77538 0.22227 0.0
H1345 H 0.58695 0.78304 0.22903 0.0
C1346 C 0.65615 0.77773 0.24775 0.0
C1347 C 0.63946 0.78211 0.26629 0.0
H1348 H 0.66179 0.7727 0.2084 0.0
H1349 H 0.67647 0.77801 0.25282 0.0
C1350 C 0.61327 0.78168 0.25917 0.0
C1351 C 0.13021 0.80669 0.2037 0.0
C1352 C 0.1497 0.7962 0.19776 0.0
H1353 H 0.11105 0.82033 0.23285 0.0
C1354 C 0.16144 0.78691 0.21737 0.0
H1355 H 0.12018 0.8132 0.18891 0.0
C1356 C 0.15594 0.7906 0.24252 0.0
C1357 C 0.13879 0.80389 0.24848 0.0
H1358 H 0.17647 0.77862 0.21336 0.0
H1359 H 0.16703 0.78523 0.25721 0.0
C1360 C 0.1247 0.81041 0.22885 0.0
C1361 C 0.12973 0.31975 0.20033 0.0
C1362 C 0.14951 0.35011 0.19512 0.0
H1363 H 0.10957 0.28606 0.22854 0.0
C1364 C 0.16105 0.37073 0.21541 0.0
H1365 H 0.12043 0.30322 0.18521 0.0
C1366 C 0.15483 0.36086 0.24038 0.0
C1367 C 0.13701 0.33012 0.24555 0.0
H1368 H 0.17577 0.3944 0.21202 0.0
H1369 H 0.16548 0.37709 0.25555 0.0
C1370 C 0.1235 0.30989 0.22524 0.0
C1371 C 0.87442 0.67388 0.79217 0.0
C1372 C 0.84649 0.66171 0.80367 0.0
H1373 H 0.89897 0.68946 0.75762 0.0
C1374 C 0.82135 0.6541 0.78873 0.0
H1375 H 0.89406 0.67976 0.8034 0.0
C1376 C 0.82402 0.65862 0.76273 0.0
C1377 C 0.85196 0.67143 0.75131 0.0
H1378 H 0.79957 0.64441 0.79718 0.0
H1379 H 0.80434 0.65293 0.75161 0.0
C1380 C 0.87722 0.67923 0.76614 0.0
C1381 C 0.34521 0.21342 0.79248 0.0
C1382 C 0.3283 0.19445 0.81222 0.0
H1383 H 0.35056 0.21925 0.75248 0.0
C1384 C 0.30021 0.16979 0.80673 0.0
H1385 H 0.36661 0.2331 0.79631 0.0
C1386 C 0.2908 0.16222 0.78172 0.0
C1387 C 0.30953 0.17896 0.76184 0.0
H1388 H 0.28665 0.15479 0.8215 0.0
H1389 H 0.27003 0.14172 0.77802 0.0
C1390 C 0.336 0.2056 0.76743 0.0
C1391 C 0.80061 0.17599 0.79049 0.0
C1392 C 0.82199 0.17308 0.80455 0.0
H1393 H 0.78318 0.17601 0.75387 0.0
C1394 C 0.84532 0.17248 0.79174 0.0
H1395 H 0.78299 0.17769 0.79977 0.0
C1396 C 0.84596 0.17266 0.7653 0.0
C1397 C 0.82315 0.17315 0.75149 0.0
H1398 H 0.86218 0.17037 0.80204 0.0
H1399 H 0.86299 0.17021 0.75571 0.0
C1400 C 0.80098 0.17564 0.76424 0.0
C1401 C 0.30781 0.1363 0.55337 0.0
C1402 C 0.3027 0.15584 0.53854 0.0
H1403 H 0.31314 0.12397 0.5909 0.0
C1404 C 0.29981 0.17869 0.55041 0.0
H1405 H 0.31 0.11842 0.54465 0.0
C1406 C 0.30095 0.18144 0.57653 0.0
C1407 C 0.30555 0.16173 0.59152 0.0
H1408 H 0.29657 0.19455 0.53947 0.0
H1409 H 0.29858 0.19938 0.58491 0.0
C1410 C 0.3093 0.13928 0.57976 0.0
C1411 C 0.80875 0.11279 0.54809 0.0
C1412 C 0.81497 0.13551 0.53035 0.0
H1413 H 0.8001 0.09942 0.58695 0.0
C1414 C 0.81378 0.16099 0.53827 0.0
H1415 H 0.80872 0.09247 0.54263 0.0
C1416 C 0.80743 0.16413 0.56321 0.0
C1417 C 0.80298 0.14233 0.58117 0.0
H1418 H 0.81913 0.17937 0.52557 0.0
H1419 H 0.80803 0.18474 0.56876 0.0
C1420 C 0.80333 0.11644 0.57339 0.0
C1421 C 0.82429 0.64986 0.52916 0.0
C1422 C 0.83058 0.67914 0.5241 0.0
H1423 H 0.81938 0.61823 0.55728 0.0
C1424 C 0.83345 0.69832 0.54432 0.0
H1425 H 0.82218 0.63476 0.51388 0.0
C1426 C 0.83135 0.6887 0.56933 0.0
C1427 C 0.82702 0.66002 0.57435 0.0
H1428 H 0.83816 0.72098 0.54076 0.0
H1429 H 0.83492 0.70429 0.58462 0.0
C1430 C 0.82272 0.64046 0.55401 0.0
loop_
_geom_bond_atom_site_label_1
_geom_bond_atom_site_label_2
_geom_bond_distance
_geom_bond_site_symmetry_2
_ccdc_geom_bond_type
C0 C1 1.386 . S
C0 C2 1.397 . S
C0 H24 0.931 . S
C1 C0 1.386 . S
C1 C5 1.397 . S
C2 C0 1.397 . S
C2 C3 1.384 . S
C2 H25 0.930 . S
C3 C2 1.384 . S
C3 C4 1.377 . S
C3 C6 1.481 . S
C4 C3 1.377 . S
C4 C5 1.389 . S
C4 H26 0.929 . S
C5 C1 1.397 . S
C5 C4 1.389 . S
C5 H27 0.931 . S
C6 C3 1.481 . S
C6 C7 1.387 . S
C6 C11 1.390 . S
C7 C6 1.387 . S
C7 C8 1.401 . S
C7 H28 0.930 . S
C8 C7 1.401 . S
C8 C9 1.376 . S
C8 C17 1.511 . S
C9 C8 1.376 . S
C9 C10 1.392 . S
C9 H30 0.931 . S
C10 C9 1.392 . S
C10 C11 1.361 . S
C10 C12 1.500 . S
C11 C6 1.390 . S
C11 C10 1.361 . S
C11 H29 0.931 . S
C12 C10 1.500 . S
C12 C13 1.371 . S
C12 C14 1.365 . S
C13 C12 1.371 . S
C13 C23 1.386 . S
C13 H31 0.931 . S
C14 C12 1.365 . S
C14 C15 1.409 . S
C14 H32 0.929 . S
C15 C14 1.409 . S
C15 C16 1.380 . S
C15 H33 0.930 . S
C16 C15 1.380 . S
C16 C23 1.357 . S
C17 C8 1.511 . S
C17 C18 1.341 . S
C17 C19 1.371 . S
C18 C17 1.341 . S
C18 C22 1.394 . S
C18 H34 0.930 . S
C19 C17 1.371 . S
C19 C20 1.392 . S
C19 H35 0.931 . S
C20 C19 1.392 . S
C20 C21 1.331 . S
C20 H38 0.932 . S
C21 C20 1.331 . S
C21 C22 1.336 . S
C22 C18 1.394 . S
C22 C21 1.336 . S
C22 H37 0.929 . S
C23 C13 1.386 . S
C23 C16 1.357 . S
C23 H36 0.928 . S
H24 C0 0.931 . S
H25 C2 0.930 . S
H26 C4 0.929 . S
H27 C5 0.931 . S
H28 C7 0.930 . S
H29 C11 0.931 . S
H30 C9 0.931 . S
H31 C13 0.931 . S
H32 C14 0.929 . S
H33 C15 0.930 . S
H34 C18 0.930 . S
H35 C19 0.931 . S
H36 C23 0.928 . S
H37 C22 0.929 . S
H38 C20 0.932 . S
C39 C40 1.386 . S
C39 C41 1.397 . S
C39 H63 0.931 . S
C40 C39 1.386 . S
C40 C44 1.397 . S
C41 C39 1.397 . S
C41 C42 1.384 . S
C41 H64 0.930 . S
C42 C41 1.384 . S
C42 C43 1.377 . S
C42 C45 1.481 . S
C43 C42 1.377 . S
C43 C44 1.389 . S
C43 H65 0.929 . S
C44 C40 1.397 . S
C44 C43 1.389 . S
C44 H66 0.931 . S
C45 C42 1.481 . S
C45 C46 1.387 . S
C45 C50 1.390 . S
C46 C45 1.387 . S
C46 C47 1.401 . S
C46 H67 0.930 . S
C47 C46 1.401 . S
C47 C48 1.376 . S
C47 C56 1.511 . S
C48 C47 1.376 . S
C48 C49 1.392 . S
C48 H69 0.931 . S
C49 C48 1.392 . S
C49 C50 1.361 . S
C49 C51 1.500 . S
C50 C45 1.390 . S
C50 C49 1.361 . S
C50 H68 0.931 . S
C51 C49 1.500 . S
C51 C52 1.371 . S
C51 C53 1.365 . S
C52 C51 1.371 . S
C52 C62 1.386 . S
C52 H70 0.931 . S
C53 C51 1.365 . S
C53 C54 1.409 . S
C53 H71 0.929 . S
C54 C53 1.409 . S
C54 C55 1.380 . S
C54 H72 0.930 . S
C55 C54 1.380 . S
C55 C62 1.357 . S
C56 C47 1.511 . S
C56 C57 1.341 . S
C56 C58 1.371 . S
C57 C56 1.341 . S
C57 C61 1.394 . S
C57 H73 0.930 . S
C58 C56 1.371 . S
C58 C59 1.392 . S
C58 H74 0.931 . S
C59 C58 1.392 . S
C59 C60 1.331 . S
C59 H77 0.932 . S
C60 C59 1.331 . S
C60 C61 1.336 . S
C61 C57 1.394 . S
C61 C60 1.336 . S
C61 H76 0.929 . S
C62 C52 1.386 . S
C62 C55 1.357 . S
C62 H75 0.928 . S
H63 C39 0.931 . S
H64 C41 0.930 . S
H65 C43 0.929 . S
H66 C44 0.931 . S
H67 C46 0.930 . S
H68 C50 0.931 . S
H69 C48 0.931 . S
H70 C52 0.931 . S
H71 C53 0.929 . S
H72 C54 0.930 . S
H73 C57 0.930 . S
H74 C58 0.931 . S
H75 C62 0.928 . S
H76 C61 0.929 . S
H77 C59 0.932 . S
C78 C79 1.386 . S
C78 C80 1.397 . S
C78 H102 0.931 . S
C79 C78 1.386 . S
C79 C83 1.397 . S
C80 C78 1.397 . S
C80 C81 1.384 . S
C80 H103 0.930 . S
C81 C80 1.384 . S
C81 C82 1.377 . S
C81 C84 1.481 . S
C82 C81 1.377 . S
C82 C83 1.389 . S
C82 H104 0.929 . S
C83 C79 1.397 . S
C83 C82 1.389 . S
C83 H105 0.931 . S
C84 C81 1.481 . S
C84 C85 1.387 . S
C84 C89 1.390 . S
C85 C84 1.387 . S
C85 C86 1.401 . S
C85 H106 0.930 . S
C86 C85 1.401 . S
C86 C87 1.376 . S
C86 C95 1.511 . S
C87 C86 1.376 . S
C87 C88 1.392 . S
C87 H108 0.931 . S
C88 C87 1.392 . S
C88 C89 1.361 . S
C88 C90 1.500 . S
C89 C84 1.390 . S
C89 C88 1.361 . S
C89 H107 0.931 . S
C90 C88 1.500 . S
C90 C91 1.371 . S
C90 C92 1.365 . S
C91 C90 1.371 . S
C91 C101 1.386 . S
C91 H109 0.931 . S
C92 C90 1.365 . S
C92 C93 1.409 . S
C92 H110 0.929 . S
C93 C92 1.409 . S
C93 C94 1.380 . S
C93 H111 0.930 . S
C94 C93 1.380 . S
C94 C101 1.357 . S
C95 C86 1.511 . S
C95 C96 1.341 . S
C95 C97 1.371 . S
C96 C95 1.341 . S
C96 C100 1.394 . S
C96 H112 0.930 . S
C97 C95 1.371 . S
C97 C98 1.392 . S
C97 H113 0.931 . S
C98 C97 1.392 . S
C98 C99 1.331 . S
C98 H116 0.932 . S
C99 C98 1.331 . S
C99 C100 1.336 . S
C100 C96 1.394 . S
C100 C99 1.336 . S
C100 H115 0.929 . S
C101 C91 1.386 . S
C101 C94 1.357 . S
C101 H114 0.928 . S
H102 C78 0.931 . S
H103 C80 0.930 . S
H104 C82 0.929 . S
H105 C83 0.931 . S
H106 C85 0.930 . S
H107 C89 0.931 . S
H108 C87 0.931 . S
H109 C91 0.931 . S
H110 C92 0.929 . S
H111 C93 0.930 . S
H112 C96 0.930 . S
H113 C97 0.931 . S
H114 C101 0.928 . S
H115 C100 0.929 . S
H116 C98 0.932 . S
C117 C118 1.386 . S
C117 C119 1.397 . S
C117 H141 0.931 . S
C118 C117 1.386 . S
C118 C122 1.397 . S
C119 C117 1.397 . S
C119 C120 1.384 . S
C119 H142 0.930 . S
C120 C119 1.384 . S
C120 C121 1.377 . S
C120 C123 1.481 . S
C121 C120 1.377 . S
C121 C122 1.389 . S
C121 H143 0.929 . S
C122 C118 1.397 . S
C122 C121 1.389 . S
C122 H144 0.931 . S
C123 C120 1.481 . S
C123 C124 1.387 . S
C123 C128 1.390 . S
C124 C123 1.387 . S
C124 C125 1.401 . S
C124 H145 0.930 . S
C125 C124 1.401 . S
C125 C126 1.376 . S
C125 C134 1.511 . S
C126 C125 1.376 . S
C126 C127 1.392 . S
C126 H147 0.931 . S
C127 C126 1.392 . S
C127 C128 1.361 . S
C127 C129 1.500 . S
C128 C123 1.390 . S
C128 C127 1.361 . S
C128 H146 0.931 . S
C129 C127 1.500 . S
C129 C130 1.371 . S
C129 C131 1.365 . S
C130 C129 1.371 . S
C130 C140 1.386 . S
C130 H148 0.931 . S
C131 C129 1.365 . S
C131 C132 1.409 . S
C131 H149 0.929 . S
C132 C131 1.409 . S
C132 C133 1.380 . S
C132 H150 0.930 . S
C133 C132 1.380 . S
C133 C140 1.357 . S
C134 C125 1.511 . S
C134 C135 1.341 . S
C134 C136 1.371 . S
C135 C134 1.341 . S
C135 C139 1.394 . S
C135 H151 0.930 . S
C136 C134 1.371 . S
C136 C137 1.392 . S
C136 H152 0.931 . S
C137 C136 1.392 . S
C137 C138 1.331 . S
C137 H155 0.932 . S
C138 C137 1.331 . S
C138 C139 1.336 . S
C139 C135 1.394 . S
C139 C138 1.336 . S
C139 H154 0.929 . S
C140 C130 1.386 . S
C140 C133 1.357 . S
C140 H153 0.928 . S
H141 C117 0.931 . S
H142 C119 0.930 . S
H143 C121 0.929 . S
H144 C122 0.931 . S
H145 C124 0.930 . S
H146 C128 0.931 . S
H147 C126 0.931 . S
H148 C130 0.931 . S
H149 C131 0.929 . S
H150 C132 0.930 . S
H151 C135 0.930 . S
H152 C136 0.931 . S
H153 C140 0.928 . S
H154 C139 0.929 . S
H155 C137 0.932 . S
C156 C157 1.386 . S
C156 C158 1.397 . S
C156 H180 0.931 . S
C157 C156 1.386 . S
C157 C161 1.397 . S
C158 C156 1.397 . S
C158 C159 1.384 . S
C158 H181 0.930 . S
C159 C158 1.384 . S
C159 C160 1.377 . S
C159 C162 1.481 . S
C160 C159 1.377 . S
C160 C161 1.389 . S
C160 H182 0.929 . S
C161 C157 1.397 . S
C161 C160 1.389 . S
C161 H183 0.931 . S
C162 C159 1.481 . S
C162 C163 1.387 . S
C162 C167 1.390 . S
C163 C162 1.387 . S
C163 C164 1.401 . S
C163 H184 0.930 . S
C164 C163 1.401 . S
C164 C165 1.376 . S
C164 C173 1.511 . S
C165 C164 1.376 . S
C165 C166 1.392 . S
C165 H186 0.931 . S
C166 C165 1.392 . S
C166 C167 1.361 . S
C166 C168 1.500 . S
C167 C162 1.390 . S
C167 C166 1.361 . S
C167 H185 0.931 . S
C168 C166 1.500 . S
C168 C169 1.371 . S
C168 C170 1.365 . S
C169 C168 1.371 . S
C169 C179 1.386 . S
C169 H187 0.931 . S
C170 C168 1.365 . S
C170 C171 1.409 . S
C170 H188 0.929 . S
C171 C170 1.409 . S
C171 C172 1.380 . S
C171 H189 0.930 . S
C172 C171 1.380 . S
C172 C179 1.357 . S
C173 C164 1.511 . S
C173 C174 1.341 . S
C173 C175 1.371 . S
C174 C173 1.341 . S
C174 C178 1.394 . S
C174 H190 0.930 . S
C175 C173 1.371 . S
C175 C176 1.392 . S
C175 H191 0.931 . S
C176 C175 1.392 . S
C176 C177 1.331 . S
C176 H194 0.932 . S
C177 C176 1.331 . S
C177 C178 1.336 . S
C178 C174 1.394 . S
C178 C177 1.336 . S
C178 H193 0.929 . S
C179 C169 1.386 . S
C179 C172 1.357 . S
C179 H192 0.928 . S
H180 C156 0.931 . S
H181 C158 0.930 . S
H182 C160 0.929 . S
H183 C161 0.931 . S
H184 C163 0.930 . S
H185 C167 0.931 . S
H186 C165 0.931 . S
H187 C169 0.931 . S
H188 C170 0.929 . S
H189 C171 0.930 . S
H190 C174 0.930 . S
H191 C175 0.931 . S
H192 C179 0.928 . S
H193 C178 0.929 . S
H194 C176 0.932 . S
C195 C196 1.386 . S
C195 C197 1.397 . S
C195 H219 0.931 . S
C196 C195 1.386 . S
C196 C200 1.397 . S
C197 C195 1.397 . S
C197 C198 1.384 . S
C197 H220 0.930 . S
C198 C197 1.384 . S
C198 C199 1.377 . S
C198 C201 1.481 . S
C199 C198 1.377 . S
C199 C200 1.389 . S
C199 H221 0.929 . S
C200 C196 1.397 . S
C200 C199 1.389 . S
C200 H222 0.931 . S
C201 C198 1.481 . S
C201 C202 1.387 . S
C201 C206 1.390 . S
C202 C201 1.387 . S
C202 C203 1.401 . S
C202 H223 0.930 . S
C203 C202 1.401 . S
C203 C204 1.376 . S
C203 C212 1.511 . S
C204 C203 1.376 . S
C204 C205 1.392 . S
C204 H225 0.931 . S
C205 C204 1.392 . S
C205 C206 1.361 . S
C205 C207 1.500 . S
C206 C201 1.390 . S
C206 C205 1.361 . S
C206 H224 0.931 . S
C207 C205 1.500 . S
C207 C208 1.371 . S
C207 C209 1.365 . S
C208 C207 1.371 . S
C208 C218 1.386 . S
C208 H226 0.931 . S
C209 C207 1.365 . S
C209 C210 1.409 . S
C209 H227 0.929 . S
C210 C209 1.409 . S
C210 C211 1.380 . S
C210 H228 0.930 . S
C211 C210 1.380 . S
C211 C218 1.357 . S
C212 C203 1.511 . S
C212 C213 1.341 . S
C212 C214 1.371 . S
C213 C212 1.341 . S
C213 C217 1.394 . S
C213 H229 0.930 . S
C214 C212 1.371 . S
C214 C215 1.392 . S
C214 H230 0.931 . S
C215 C214 1.392 . S
C215 C216 1.331 . S
C215 H233 0.932 . S
C216 C215 1.331 . S
C216 C217 1.336 . S
C217 C213 1.394 . S
C217 C216 1.336 . S
C217 H232 0.929 . S
C218 C208 1.386 . S
C218 C211 1.357 . S
C218 H231 0.928 . S
H219 C195 0.931 . S
H220 C197 0.930 . S
H221 C199 0.929 . S
H222 C200 0.931 . S
H223 C202 0.930 . S
H224 C206 0.931 . S
H225 C204 0.931 . S
H226 C208 0.931 . S
H227 C209 0.929 . S
H228 C210 0.930 . S
H229 C213 0.930 . S
H230 C214 0.931 . S
H231 C218 0.928 . S
H232 C217 0.929 . S
H233 C215 0.932 . S
C234 C235 1.386 . S
C234 C236 1.397 . S
C234 H258 0.931 . S
C235 C234 1.386 . S
C235 C239 1.397 . S
C236 C234 1.397 . S
C236 C237 1.384 . S
C236 H259 0.930 . S
C237 C236 1.384 . S
C237 C238 1.377 . S
C237 C240 1.481 . S
C238 C237 1.377 . S
C238 C239 1.389 . S
C238 H260 0.929 . S
C239 C235 1.397 . S
C239 C238 1.389 . S
C239 H261 0.931 1_655 S
C240 C237 1.481 . S
C240 C241 1.387 . S
C240 C245 1.390 . S
C241 C240 1.387 . S
C241 C242 1.401 . S
C241 H262 0.930 . S
C242 C241 1.401 . S
C242 C243 1.376 . S
C242 C251 1.511 . S
C243 C242 1.376 . S
C243 C244 1.392 . S
C243 H264 0.931 . S
C244 C243 1.392 . S
C244 C245 1.361 . S
C244 C246 1.500 . S
C245 C240 1.390 . S
C245 C244 1.361 . S
C245 H263 0.931 . S
C246 C244 1.500 . S
C246 C247 1.371 . S
C246 C248 1.365 . S
C247 C246 1.371 . S
C247 C257 1.386 . S
C247 H265 0.931 . S
C248 C246 1.365 . S
C248 C249 1.409 . S
C248 H266 0.929 . S
C249 C248 1.409 . S
C249 C250 1.380 . S
C249 H267 0.930 . S
C250 C249 1.380 . S
C250 C257 1.357 . S
C251 C242 1.511 . S
C251 C252 1.341 . S
C251 C253 1.371 . S
C252 C251 1.341 . S
C252 C256 1.394 . S
C252 H268 0.930 . S
C253 C251 1.371 . S
C253 C254 1.392 . S
C253 H269 0.931 . S
C254 C253 1.392 . S
C254 C255 1.331 . S
C254 H272 0.932 . S
C255 C254 1.331 . S
C255 C256 1.336 . S
C256 C252 1.394 . S
C256 C255 1.336 . S
C256 H271 0.929 . S
C257 C247 1.386 . S
C257 C250 1.357 . S
C257 H270 0.928 . S
H258 C234 0.931 . S
H259 C236 0.930 . S
H260 C238 0.929 . S
H261 C239 0.931 1_455 S
H262 C241 0.930 . S
H263 C245 0.931 . S
H264 C243 0.931 . S
H265 C247 0.931 . S
H266 C248 0.929 . S
H267 C249 0.930 . S
H268 C252 0.930 . S
H269 C253 0.931 . S
H270 C257 0.928 . S
H271 C256 0.929 . S
H272 C254 0.932 . S
C273 C274 1.386 . S
C273 C275 1.397 . S
C273 H297 0.931 . S
C274 C273 1.386 . S
C274 C278 1.397 . S
C275 C273 1.397 . S
C275 C276 1.384 . S
C275 H298 0.930 . S
C276 C275 1.384 . S
C276 C277 1.377 . S
C276 C279 1.481 . S
C277 C276 1.377 . S
C277 C278 1.389 . S
C277 H299 0.929 . S
C278 C274 1.397 . S
C278 C277 1.389 . S
C278 H300 0.931 . S
C279 C276 1.481 . S
C279 C280 1.387 . S
C279 C284 1.390 . S
C280 C279 1.387 . S
C280 C281 1.401 . S
C280 H301 0.930 . S
C281 C280 1.401 . S
C281 C282 1.376 . S
C281 C290 1.511 . S
C282 C281 1.376 . S
C282 C283 1.392 . S
C282 H303 0.931 . S
C283 C282 1.392 . S
C283 C284 1.361 . S
C283 C285 1.500 . S
C284 C279 1.390 . S
C284 C283 1.361 . S
C284 H302 0.931 . S
C285 C283 1.500 . S
C285 C286 1.371 . S
C285 C287 1.365 . S
C286 C285 1.371 . S
C286 C296 1.386 . S
C286 H304 0.931 . S
C287 C285 1.365 . S
C287 C288 1.409 . S
C287 H305 0.929 . S
C288 C287 1.409 . S
C288 C289 1.380 . S
C288 H306 0.930 . S
C289 C288 1.380 . S
C289 C296 1.357 . S
C290 C281 1.511 . S
C290 C291 1.341 . S
C290 C292 1.371 . S
C291 C290 1.341 . S
C291 C295 1.394 . S
C291 H307 0.930 . S
C292 C290 1.371 . S
C292 C293 1.392 . S
C292 H308 0.931 . S
C293 C292 1.392 . S
C293 C294 1.331 . S
C293 H311 0.932 . S
C294 C293 1.331 . S
C294 C295 1.336 . S
C295 C291 1.394 . S
C295 C294 1.336 . S
C295 H310 0.929 . S
C296 C286 1.386 . S
C296 C289 1.357 . S
C296 H309 0.928 . S
H297 C273 0.931 . S
H298 C275 0.930 . S
H299 C277 0.929 . S
H300 C278 0.931 . S
H301 C280 0.930 . S
H302 C284 0.931 . S
H303 C282 0.931 . S
H304 C286 0.931 . S
H305 C287 0.929 . S
H306 C288 0.930 . S
H307 C291 0.930 . S
H308 C292 0.931 . S
H309 C296 0.928 . S
H310 C295 0.929 . S
H311 C293 0.932 . S
C312 C313 1.386 . S
C312 C314 1.397 . S
C312 H336 0.931 . S
C313 C312 1.386 . S
C313 C317 1.397 . S
C314 C312 1.397 . S
C314 C315 1.384 . S
C314 H337 0.930 . S
C315 C314 1.384 . S
C315 C316 1.377 . S
C315 C318 1.481 . S
C316 C315 1.377 . S
C316 C317 1.389 . S
C316 H338 0.929 . S
C317 C313 1.397 . S
C317 C316 1.389 . S
C317 H339 0.931 1_545 S
C318 C315 1.481 . S
C318 C319 1.387 . S
C318 C323 1.390 . S
C319 C318 1.387 . S
C319 C320 1.401 . S
C319 H340 0.930 . S
C320 C319 1.401 . S
C320 C321 1.376 . S
C320 C329 1.511 . S
C321 C320 1.376 . S
C321 C322 1.392 . S
C321 H342 0.931 . S
C322 C321 1.392 . S
C322 C323 1.361 . S
C322 C324 1.500 . S
C323 C318 1.390 . S
C323 C322 1.361 . S
C323 H341 0.931 . S
C324 C322 1.500 . S
C324 C325 1.371 . S
C324 C326 1.365 . S
C325 C324 1.371 . S
C325 C335 1.386 . S
C325 H343 0.931 . S
C326 C324 1.365 . S
C326 C327 1.409 . S
C326 H344 0.929 . S
C327 C326 1.409 . S
C327 C328 1.380 . S
C327 H345 0.930 . S
C328 C327 1.380 . S
C328 C335 1.357 . S
C329 C320 1.511 . S
C329 C330 1.341 . S
C329 C331 1.371 . S
C330 C329 1.341 . S
C330 C334 1.394 . S
C330 H346 0.930 . S
C331 C329 1.371 . S
C331 C332 1.392 . S
C331 H347 0.931 . S
C332 C331 1.392 . S
C332 C333 1.331 . S
C332 H350 0.932 . S
C333 C332 1.331 . S
C333 C334 1.336 . S
C334 C330 1.394 . S
C334 C333 1.336 . S
C334 H349 0.929 . S
C335 C325 1.386 . S
C335 C328 1.357 . S
C335 H348 0.928 . S
H336 C312 0.931 . S
H337 C314 0.930 . S
H338 C316 0.929 . S
H339 C317 0.931 1_565 S
H340 C319 0.930 . S
H341 C323 0.931 . S
H342 C321 0.931 . S
H343 C325 0.931 . S
H344 C326 0.929 . S
H345 C327 0.930 . S
H346 C330 0.930 . S
H347 C331 0.931 . S
H348 C335 0.928 . S
H349 C334 0.929 . S
H350 C332 0.932 . S
C351 C352 1.386 . S
C351 C353 1.397 . S
C351 H375 0.931 . S
C352 C351 1.386 . S
C352 C356 1.397 . S
C353 C351 1.397 . S
C353 C354 1.384 . S
C353 H376 0.930 . S
C354 C353 1.384 . S
C354 C355 1.377 . S
C354 C357 1.481 . S
C355 C354 1.377 . S
C355 C356 1.389 . S
C355 H377 0.929 . S
C356 C352 1.397 . S
C356 C355 1.389 . S
C356 H378 0.931 . S
C357 C354 1.481 . S
C357 C358 1.387 . S
C357 C362 1.390 . S
C358 C357 1.387 . S
C358 C359 1.401 . S
C358 H379 0.930 . S
C359 C358 1.401 . S
C359 C360 1.376 . S
C359 C368 1.511 . S
C360 C359 1.376 . S
C360 C361 1.392 . S
C360 H381 0.931 . S
C361 C360 1.392 . S
C361 C362 1.361 . S
C361 C363 1.500 . S
C362 C357 1.390 . S
C362 C361 1.361 . S
C362 H380 0.931 . S
C363 C361 1.500 . S
C363 C364 1.371 . S
C363 C365 1.365 . S
C364 C363 1.371 . S
C364 C374 1.386 . S
C364 H382 0.931 . S
C365 C363 1.365 . S
C365 C366 1.409 . S
C365 H383 0.929 . S
C366 C365 1.409 . S
C366 C367 1.380 . S
C366 H384 0.930 . S
C367 C366 1.380 . S
C367 C374 1.357 . S
C368 C359 1.511 . S
C368 C369 1.341 . S
C368 C370 1.371 . S
C369 C368 1.341 . S
C369 C373 1.394 . S
C369 H385 0.930 . S
C370 C368 1.371 . S
C370 C371 1.402 . S
C370 H386 0.931 . S
C371 C370 1.402 . S
C371 C372 1.341 . S
C371 H389 0.912 1_556 S
C372 C371 1.341 . S
C372 C373 1.336 . S
C373 C369 1.394 . S
C373 C372 1.336 . S
C373 H388 0.929 . S
C374 C364 1.386 . S
C374 C367 1.357 . S
C374 H387 0.931 . S
H375 C351 0.931 . S
H376 C353 0.930 . S
H377 C355 0.929 . S
H378 C356 0.931 . S
H379 C358 0.930 . S
H380 C362 0.931 . S
H381 C360 0.931 . S
H382 C364 0.931 . S
H383 C365 0.929 . S
H384 C366 0.930 . S
H385 C369 0.930 . S
H386 C370 0.931 . S
H387 C374 0.931 . S
H388 C373 0.929 . S
H389 C371 0.912 1_554 S
C390 C391 1.386 . S
C390 C392 1.397 . S
C390 H414 0.931 . S
C391 C390 1.386 . S
C391 C395 1.397 . S
C392 C390 1.397 . S
C392 C393 1.384 . S
C392 H415 0.930 . S
C393 C392 1.384 . S
C393 C394 1.377 . S
C393 C396 1.481 . S
C394 C393 1.377 . S
C394 C395 1.389 . S
C394 H416 0.929 . S
C395 C391 1.397 . S
C395 C394 1.389 . S
C395 H417 0.931 . S
C396 C393 1.481 . S
C396 C397 1.387 . S
C396 C401 1.390 . S
C397 C396 1.387 . S
C397 C398 1.401 . S
C397 H418 0.930 . S
C398 C397 1.401 . S
C398 C399 1.376 . S
C398 C407 1.511 . S
C399 C398 1.376 . S
C399 C400 1.392 . S
C399 H420 0.931 . S
C400 C399 1.392 . S
C400 C401 1.361 . S
C400 C402 1.500 . S
C401 C396 1.390 . S
C401 C400 1.361 . S
C401 H419 0.931 . S
C402 C400 1.500 . S
C402 C403 1.371 . S
C402 C404 1.365 . S
C403 C402 1.371 . S
C403 C413 1.386 1_556 S
C403 H421 0.947 . S
C404 C402 1.365 . S
C404 C405 1.409 . S
C404 H422 0.929 . S
C405 C404 1.409 . S
C405 C406 1.380 . S
C405 H423 0.930 . S
C406 C405 1.380 . S
C406 C413 1.357 1_556 S
C407 C398 1.511 . S
C407 C408 1.341 . S
C407 C409 1.371 . S
C408 C407 1.341 . S
C408 C412 1.394 . S
C408 H424 0.930 . S
C409 C407 1.371 . S
C409 C410 1.392 . S
C409 H425 0.931 . S
C410 C409 1.392 . S
C410 C411 1.331 . S
C410 H428 0.932 1_556 S
C411 C410 1.331 . S
C411 C412 1.336 . S
C412 C408 1.394 . S
C412 C411 1.336 . S
C412 H427 0.929 . S
C413 C403 1.386 1_554 S
C413 C406 1.357 1_554 S
C413 H426 0.928 . S
H414 C390 0.931 . S
H415 C392 0.930 . S
H416 C394 0.929 . S
H417 C395 0.931 . S
H418 C397 0.930 . S
H419 C401 0.931 . S
H420 C399 0.931 . S
H421 C403 0.947 . S
H422 C404 0.929 . S
H423 C405 0.930 . S
H424 C408 0.930 . S
H425 C409 0.931 . S
H426 C413 0.928 . S
H427 C412 0.929 . S
H428 C410 0.932 1_554 S
C429 C430 1.386 . S
C429 C431 1.397 . S
C429 H453 0.931 . S
C430 C429 1.386 . S
C430 C434 1.397 . S
C431 C429 1.397 . S
C431 C432 1.384 . S
C431 H454 0.930 . S
C432 C431 1.384 . S
C432 C433 1.377 . S
C432 C435 1.481 . S
C433 C432 1.377 . S
C433 C434 1.389 . S
C433 H455 0.929 . S
C434 C430 1.397 . S
C434 C433 1.389 . S
C434 H456 0.931 . S
C435 C432 1.481 . S
C435 C436 1.387 . S
C435 C440 1.390 . S
C436 C435 1.387 . S
C436 C437 1.401 . S
C436 H457 0.930 . S
C437 C436 1.401 . S
C437 C438 1.376 . S
C437 C446 1.511 . S
C438 C437 1.376 . S
C438 C439 1.392 . S
C438 H459 0.931 . S
C439 C438 1.392 . S
C439 C440 1.361 . S
C439 C441 1.500 . S
C440 C435 1.390 . S
C440 C439 1.361 . S
C440 H458 0.931 . S
C441 C439 1.500 . S
C441 C442 1.371 . S
C441 C443 1.365 . S
C442 C441 1.371 . S
C442 C452 1.386 . S
C442 H460 0.931 . S
C443 C441 1.365 . S
C443 C444 1.409 . S
C443 H461 0.929 . S
C444 C443 1.409 . S
C444 C445 1.380 . S
C444 H462 0.930 . S
C445 C444 1.380 . S
C445 C452 1.357 . S
C446 C437 1.511 . S
C446 C447 1.341 . S
C446 C448 1.371 . S
C447 C446 1.341 . S
C447 C451 1.394 . S
C447 H463 0.930 . S
C448 C446 1.371 . S
C448 C449 1.392 . S
C448 H464 0.931 . S
C449 C448 1.392 . S
C449 C450 1.331 . S
C449 H467 0.932 1_556 S
C450 C449 1.331 . S
C450 C451 1.336 . S
C451 C447 1.394 . S
C451 C450 1.336 . S
C451 H466 0.929 . S
C452 C442 1.386 . S
C452 C445 1.357 . S
C452 H465 0.921 1_556 S
H453 C429 0.931 . S
H454 C431 0.930 . S
H455 C433 0.929 . S
H456 C434 0.931 . S
H457 C436 0.930 . S
H458 C440 0.931 . S
H459 C438 0.931 . S
H460 C442 0.931 . S
H461 C443 0.929 . S
H462 C444 0.930 . S
H463 C447 0.930 . S
H464 C448 0.931 . S
H465 C452 0.921 1_554 S
H466 C451 0.929 . S
H467 C449 0.932 1_554 S
C468 C469 1.386 . S
C468 C470 1.397 . S
C468 H492 0.931 . S
C469 C468 1.386 . S
C469 C473 1.397 . S
C470 C468 1.397 . S
C470 C471 1.384 . S
C470 H493 0.930 . S
C471 C470 1.384 . S
C471 C472 1.377 . S
C471 C474 1.481 . S
C472 C471 1.377 . S
C472 C473 1.389 . S
C472 H494 0.929 . S
C473 C469 1.397 . S
C473 C472 1.389 . S
C473 H495 0.931 . S
C474 C471 1.481 . S
C474 C475 1.387 . S
C474 C479 1.390 . S
C475 C474 1.387 . S
C475 C476 1.401 . S
C475 H496 0.930 . S
C476 C475 1.401 . S
C476 C477 1.376 . S
C476 C485 1.511 . S
C477 C476 1.376 . S
C477 C478 1.392 . S
C477 H498 0.931 . S
C478 C477 1.392 . S
C478 C479 1.361 . S
C478 C480 1.500 . S
C479 C474 1.390 . S
C479 C478 1.361 . S
C479 H497 0.931 . S
C480 C478 1.500 . S
C480 C481 1.371 . S
C480 C482 1.365 . S
C481 C480 1.371 . S
C481 C491 1.386 . S
C481 H499 0.931 . S
C482 C480 1.365 . S
C482 C483 1.409 . S
C482 H500 0.929 . S
C483 C482 1.409 . S
C483 C484 1.380 . S
C483 H501 0.930 . S
C484 C483 1.380 . S
C484 C491 1.357 . S
C485 C476 1.511 . S
C485 C486 1.341 . S
C485 C487 1.371 . S
C486 C485 1.341 . S
C486 C490 1.394 . S
C486 H502 0.930 . S
C487 C485 1.371 . S
C487 C488 1.392 . S
C487 H503 0.931 . S
C488 C487 1.392 . S
C488 C489 1.331 . S
C488 H506 0.932 1_554 S
C489 C488 1.331 . S
C489 C490 1.336 . S
C490 C486 1.394 . S
C490 C489 1.336 . S
C490 H505 0.929 . S
C491 C481 1.386 . S
C491 C484 1.357 . S
C491 H504 0.928 . S
H492 C468 0.931 . S
H493 C470 0.930 . S
H494 C472 0.929 . S
H495 C473 0.931 . S
H496 C475 0.930 . S
H497 C479 0.931 . S
H498 C477 0.931 . S
H499 C481 0.931 . S
H500 C482 0.929 . S
H501 C483 0.930 . S
H502 C486 0.930 . S
H503 C487 0.931 . S
H504 C491 0.928 . S
H505 C490 0.929 . S
H506 C488 0.932 1_556 S
C507 C508 1.386 . S
C507 C509 1.397 . S
C507 H531 0.931 . S
C508 C507 1.386 . S
C508 C512 1.397 . S
C509 C507 1.397 . S
C509 C510 1.384 . S
C509 H532 0.930 . S
C510 C509 1.384 . S
C510 C511 1.377 . S
C510 C513 1.481 . S
C511 C510 1.377 . S
C511 C512 1.389 . S
C511 H533 0.929 . S
C512 C508 1.397 . S
C512 C511 1.389 . S
C512 H534 0.931 . S
C513 C510 1.481 . S
C513 C514 1.387 . S
C513 C518 1.390 . S
C514 C513 1.387 . S
C514 C515 1.401 . S
C514 H535 0.930 . S
C515 C514 1.401 . S
C515 C516 1.376 . S
C515 C524 1.511 . S
C516 C515 1.376 . S
C516 C517 1.392 . S
C516 H537 0.931 . S
C517 C516 1.392 . S
C517 C518 1.361 . S
C517 C519 1.500 . S
C518 C513 1.390 . S
C518 C517 1.361 . S
C518 H536 0.931 . S
C519 C517 1.500 . S
C519 C520 1.371 . S
C519 C521 1.365 . S
C520 C519 1.371 . S
C520 C530 1.386 . S
C520 H538 0.931 . S
C521 C519 1.365 . S
C521 C522 1.409 . S
C521 H539 0.929 . S
C522 C521 1.409 . S
C522 C523 1.380 . S
C522 H540 0.930 . S
C523 C522 1.380 . S
C523 C530 1.357 . S
C524 C515 1.511 . S
C524 C525 1.341 . S
C524 C526 1.371 . S
C525 C524 1.341 . S
C525 C529 1.394 . S
C525 H541 0.930 . S
C526 C524 1.371 . S
C526 C527 1.392 . S
C526 H542 0.931 . S
C527 C526 1.392 . S
C527 C528 1.331 . S
C527 H545 0.956 . S
C528 C527 1.331 . S
C528 C529 1.336 . S
C529 C525 1.394 . S
C529 C528 1.336 . S
C529 H544 0.929 . S
C530 C520 1.386 . S
C530 C523 1.357 . S
C530 H543 0.928 1_554 S
H531 C507 0.931 . S
H532 C509 0.930 . S
H533 C511 0.929 . S
H534 C512 0.931 . S
H535 C514 0.930 . S
H536 C518 0.931 . S
H537 C516 0.931 . S
H538 C520 0.931 . S
H539 C521 0.929 . S
H540 C522 0.930 . S
H541 C525 0.930 . S
H542 C526 0.931 . S
H543 C530 0.928 1_556 S
H544 C529 0.929 . S
H545 C527 0.956 . S
C546 C547 1.386 . S
C546 C548 1.397 . S
C546 H570 0.931 . S
C547 C546 1.386 . S
C547 C551 1.397 . S
C548 C546 1.397 . S
C548 C549 1.384 . S
C548 H571 0.930 . S
C549 C548 1.384 . S
C549 C550 1.377 . S
C549 C552 1.481 . S
C550 C549 1.377 . S
C550 C551 1.389 . S
C550 H572 0.929 . S
C551 C547 1.397 . S
C551 C550 1.389 . S
C551 H573 0.931 . S
C552 C549 1.481 . S
C552 C553 1.387 . S
C552 C557 1.390 . S
C553 C552 1.387 . S
C553 C554 1.401 . S
C553 H574 0.930 . S
C554 C553 1.401 . S
C554 C555 1.376 . S
C554 C563 1.511 . S
C555 C554 1.376 . S
C555 C556 1.392 . S
C555 H576 0.931 . S
C556 C555 1.392 . S
C556 C557 1.361 . S
C556 C558 1.500 . S
C557 C552 1.390 . S
C557 C556 1.361 . S
C557 H575 0.931 . S
C558 C556 1.500 . S
C558 C559 1.371 . S
C558 C560 1.365 . S
C559 C558 1.371 . S
C559 C569 1.386 . S
C559 H577 0.931 . S
C560 C558 1.365 . S
C560 C561 1.409 . S
C560 H578 0.929 . S
C561 C560 1.409 . S
C561 C562 1.380 . S
C561 H579 0.930 . S
C562 C561 1.380 . S
C562 C569 1.357 . S
C563 C554 1.511 . S
C563 C564 1.341 . S
C563 C565 1.371 . S
C564 C563 1.341 . S
C564 C568 1.394 . S
C564 H580 0.930 . S
C565 C563 1.371 . S
C565 C566 1.392 . S
C565 H581 0.931 . S
C566 C565 1.392 . S
C566 C567 1.331 . S
C566 H584 0.932 1_554 S
C567 C566 1.331 . S
C567 C568 1.336 . S
C568 C564 1.394 . S
C568 C567 1.336 . S
C568 H583 0.929 . S
C569 C559 1.386 . S
C569 C562 1.357 . S
C569 H582 0.928 . S
H570 C546 0.931 . S
H571 C548 0.930 . S
H572 C550 0.929 . S
H573 C551 0.931 . S
H574 C553 0.930 . S
H575 C557 0.931 . S
H576 C555 0.931 . S
H577 C559 0.931 . S
H578 C560 0.929 . S
H579 C561 0.930 . S
H580 C564 0.930 . S
H581 C565 0.931 . S
H582 C569 0.928 . S
H583 C568 0.929 . S
H584 C566 0.932 1_556 S
C585 C586 1.386 . S
C585 C587 1.397 . S
C585 H609 0.931 . S
C586 C585 1.386 . S
C586 C590 1.397 . S
C587 C585 1.397 . S
C587 C588 1.384 . S
C587 H610 0.930 . S
C588 C587 1.384 . S
C588 C589 1.377 . S
C588 C591 1.481 . S
C589 C588 1.377 . S
C589 C590 1.389 . S
C589 H611 0.929 . S
C590 C586 1.397 . S
C590 C589 1.389 . S
C590 H612 0.931 1_565 S
C591 C588 1.481 . S
C591 C592 1.387 . S
C591 C596 1.390 . S
C592 C591 1.387 . S
C592 C593 1.401 . S
C592 H613 0.930 . S
C593 C592 1.401 . S
C593 C594 1.376 . S
C593 C602 1.511 . S
C594 C593 1.376 . S
C594 C595 1.392 . S
C594 H615 0.931 . S
C595 C594 1.392 . S
C595 C596 1.361 . S
C595 C597 1.500 . S
C596 C591 1.390 . S
C596 C595 1.361 . S
C596 H614 0.931 . S
C597 C595 1.500 . S
C597 C598 1.371 . S
C597 C599 1.365 . S
C598 C597 1.371 . S
C598 C608 1.386 . S
C598 H616 0.931 . S
C599 C597 1.365 . S
C599 C600 1.409 . S
C599 H617 0.929 . S
C600 C599 1.409 . S
C600 C601 1.380 . S
C600 H618 0.930 . S
C601 C600 1.380 . S
C601 C608 1.357 . S
C602 C593 1.511 . S
C602 C603 1.341 . S
C602 C604 1.371 . S
C603 C602 1.341 . S
C603 C607 1.394 . S
C603 H619 0.930 . S
C604 C602 1.371 . S
C604 C605 1.392 . S
C604 H620 0.931 . S
C605 C604 1.392 . S
C605 C606 1.331 . S
C605 H623 0.932 . S
C606 C605 1.331 . S
C606 C607 1.336 . S
C607 C603 1.394 . S
C607 C606 1.336 . S
C607 H622 0.929 . S
C608 C598 1.386 . S
C608 C601 1.357 . S
C608 H621 0.928 . S
H609 C585 0.931 . S
H610 C587 0.930 . S
H611 C589 0.929 . S
H612 C590 0.931 1_545 S
H613 C592 0.930 . S
H614 C596 0.931 . S
H615 C594 0.931 . S
H616 C598 0.931 . S
H617 C599 0.929 . S
H618 C600 0.930 . S
H619 C603 0.930 . S
H620 C604 0.931 . S
H621 C608 0.928 . S
H622 C607 0.929 . S
H623 C605 0.932 . S
C624 C625 1.386 . S
C624 C626 1.397 . S
C624 H648 0.931 1_455 S
C625 C624 1.386 . S
C625 C629 1.397 . S
C626 C624 1.397 . S
C626 C627 1.384 . S
C626 H649 0.930 . S
C627 C626 1.384 . S
C627 C628 1.377 . S
C627 C630 1.481 . S
C628 C627 1.377 . S
C628 C629 1.389 . S
C628 H650 0.929 . S
C629 C625 1.397 . S
C629 C628 1.389 . S
C629 H651 0.931 . S
C630 C627 1.481 . S
C630 C631 1.387 . S
C630 C635 1.390 . S
C631 C630 1.387 . S
C631 C632 1.401 . S
C631 H652 0.930 . S
C632 C631 1.401 . S
C632 C633 1.376 . S
C632 C641 1.511 . S
C633 C632 1.376 . S
C633 C634 1.392 . S
C633 H654 0.931 . S
C634 C633 1.392 . S
C634 C635 1.361 . S
C634 C636 1.500 . S
C635 C630 1.390 . S
C635 C634 1.361 . S
C635 H653 0.931 . S
C636 C634 1.500 . S
C636 C637 1.371 . S
C636 C638 1.365 . S
C637 C636 1.371 . S
C637 C647 1.386 . S
C637 H655 0.931 . S
C638 C636 1.365 . S
C638 C639 1.409 . S
C638 H656 0.929 . S
C639 C638 1.409 . S
C639 C640 1.380 . S
C639 H657 0.930 . S
C640 C639 1.380 . S
C640 C647 1.357 . S
C641 C632 1.511 . S
C641 C642 1.341 . S
C641 C643 1.371 . S
C642 C641 1.341 . S
C642 C646 1.394 . S
C642 H658 0.930 . S
C643 C641 1.371 . S
C643 C644 1.392 . S
C643 H659 0.931 . S
C644 C643 1.392 . S
C644 C645 1.331 . S
C644 H662 0.932 . S
C645 C644 1.331 . S
C645 C646 1.336 . S
C646 C642 1.394 . S
C646 C645 1.336 . S
C646 H661 0.929 . S
C647 C637 1.386 . S
C647 C640 1.357 . S
C647 H660 0.928 . S
H648 C624 0.931 1_655 S
H649 C626 0.930 . S
H650 C628 0.929 . S
H651 C629 0.931 . S
H652 C631 0.930 . S
H653 C635 0.931 . S
H654 C633 0.931 . S
H655 C637 0.931 . S
H656 C638 0.929 . S
H657 C639 0.930 . S
H658 C642 0.930 . S
H659 C643 0.931 . S
H660 C647 0.928 . S
H661 C646 0.929 . S
H662 C644 0.932 . S
C663 C664 1.386 . S
C663 C665 1.397 . S
C663 H687 0.931 . S
C664 C663 1.386 . S
C664 C668 1.397 . S
C665 C663 1.397 . S
C665 C666 1.384 . S
C665 H688 0.930 . S
C666 C665 1.384 . S
C666 C667 1.377 . S
C666 C669 1.481 . S
C667 C666 1.377 . S
C667 C668 1.389 . S
C667 H689 0.929 . S
C668 C664 1.397 . S
C668 C667 1.389 . S
C668 H690 0.931 . S
C669 C666 1.481 . S
C669 C670 1.387 . S
C669 C674 1.390 . S
C670 C669 1.387 . S
C670 C671 1.401 . S
C670 H691 0.930 . S
C671 C670 1.401 . S
C671 C672 1.376 . S
C671 C680 1.511 . S
C672 C671 1.376 . S
C672 C673 1.392 . S
C672 H693 0.931 . S
C673 C672 1.392 . S
C673 C674 1.361 . S
C673 C675 1.500 . S
C674 C669 1.390 . S
C674 C673 1.361 . S
C674 H692 0.931 . S
C675 C673 1.500 . S
C675 C676 1.371 . S
C675 C677 1.365 . S
C676 C675 1.371 . S
C676 C686 1.386 . S
C676 H694 0.931 . S
C677 C675 1.365 . S
C677 C678 1.409 . S
C677 H695 0.929 . S
C678 C677 1.409 . S
C678 C679 1.380 . S
C678 H696 0.930 . S
C679 C678 1.380 . S
C679 C686 1.357 . S
C680 C671 1.511 . S
C680 C681 1.341 . S
C680 C682 1.371 . S
C681 C680 1.341 . S
C681 C685 1.394 . S
C681 H697 0.930 . S
C682 C680 1.371 . S
C682 C683 1.392 . S
C682 H698 0.931 . S
C683 C682 1.392 . S
C683 C684 1.331 . S
C683 H701 0.932 . S
C684 C683 1.331 . S
C684 C685 1.336 . S
C685 C681 1.394 . S
C685 C684 1.336 . S
C685 H700 0.929 . S
C686 C676 1.386 . S
C686 C679 1.357 . S
C686 H699 0.928 . S
H687 C663 0.931 . S
H688 C665 0.930 . S
H689 C667 0.929 . S
H690 C668 0.931 . S
H691 C670 0.930 . S
H692 C674 0.931 . S
H693 C672 0.931 . S
H694 C676 0.931 . S
H695 C677 0.929 . S
H696 C678 0.930 . S
H697 C681 0.930 . S
H698 C682 0.931 . S
H699 C686 0.928 . S
H700 C685 0.929 . S
H701 C683 0.932 . S
O702 Mg703 1.990 . S
O702 C716 1.220 1_565 S
Mg703 O702 1.990 . S
Mg703 O706 2.180 1_556 S
Mg703 O707 2.117 . S
Mg703 O721 2.030 1_565 S
O704 Mg705 2.072 1_556 S
O704 C716 1.277 . S
Mg705 O704 2.072 1_554 S
Mg705 O706 2.099 1_545 S
Mg705 O708 2.079 . S
Mg705 O709 2.072 1_545 S
Mg705 O711 2.099 . S
Mg705 O722 2.079 . S
O706 Mg703 2.180 1_554 S
O706 Mg705 2.099 1_565 S
O706 C717 1.285 . S
O707 Mg703 2.117 . S
O707 C717 1.214 1_556 S
O708 Mg705 2.079 . S
O708 C718 1.264 . S
O709 Mg705 2.072 1_565 S
O709 C719 1.260 . S
Mg710 O711 2.180 . S
Mg710 O712 2.030 . S
Mg710 O713 1.990 1_545 S
Mg710 O714 2.117 . S
O711 Mg705 2.099 . S
O711 Mg710 2.180 . S
O711 C720 1.279 . S
O712 Mg710 2.030 . S
O712 C718 1.248 . S
O713 Mg710 1.990 1_565 S
O713 C719 1.253 . S
O714 Mg710 2.117 . S
O714 C720 1.250 . S
C715 O721 1.248 . S
C715 O722 1.264 1_556 S
C716 O702 1.220 1_545 S
C716 O704 1.277 . S
C717 O706 1.285 . S
C717 O707 1.214 1_554 S
C718 O708 1.264 . S
C718 O712 1.248 . S
C719 O709 1.260 . S
C719 O713 1.253 . S
C720 O711 1.279 . S
C720 O714 1.250 . S
O721 Mg703 2.030 1_545 S
O721 C715 1.248 . S
O722 Mg705 2.079 . S
O722 C715 1.264 1_554 S
O723 Mg724 1.990 . S
O723 C737 1.253 . S
Mg724 O723 1.990 . S
Mg724 O727 2.180 1_556 S
Mg724 O728 2.117 . S
Mg724 O742 2.030 1_455 S
O725 Mg726 2.072 1_556 S
O725 C737 1.260 1_655 S
Mg726 O725 2.072 1_554 S
Mg726 O727 2.098 1_655 S
Mg726 O729 2.080 . S
Mg726 O730 2.060 1_655 S
Mg726 O732 2.100 . S
Mg726 O743 2.091 . S
O727 Mg724 2.180 1_554 S
O727 Mg726 2.098 1_455 S
O727 C738 1.279 . S
O728 Mg724 2.117 . S
O728 C738 1.250 1_556 S
O729 Mg726 2.080 . S
O729 C739 1.264 1_655 S
O730 Mg726 2.060 1_455 S
O730 C740 1.260 . S
Mg731 O732 2.180 . S
Mg731 O733 2.030 1_655 S
Mg731 O734 1.990 1_655 S
Mg731 O735 2.117 . S
O732 Mg726 2.100 . S
O732 Mg731 2.180 . S
O732 C741 1.279 . S
O733 Mg731 2.030 1_455 S
O733 C739 1.248 . S
O734 Mg731 1.990 1_455 S
O734 C740 1.253 . S
O735 Mg731 2.117 . S
O735 C741 1.250 . S
C736 O742 1.248 . S
C736 O743 1.264 1_556 S
C737 O723 1.253 . S
C737 O725 1.260 1_455 S
C738 O727 1.279 . S
C738 O728 1.250 1_554 S
C739 O729 1.264 1_455 S
C739 O733 1.248 . S
C740 O730 1.260 . S
C740 O734 1.253 . S
C741 O732 1.279 . S
C741 O735 1.250 . S
O742 Mg724 2.030 1_655 S
O742 C736 1.248 . S
O743 Mg726 2.091 . S
O743 C736 1.264 1_554 S
O744 Mg745 1.990 . S
O744 C758 1.253 . S
Mg745 O744 1.990 . S
Mg745 O748 2.180 . S
Mg745 O749 2.117 . S
Mg745 O763 2.030 . S
O746 Mg747 2.080 . S
O746 C758 1.260 . S
Mg747 O746 2.080 . S
Mg747 O748 2.100 . S
Mg747 O750 2.071 1_554 S
Mg747 O751 2.072 1_554 S
Mg747 O753 2.098 1_554 S
Mg747 O764 2.079 . S
O748 Mg745 2.180 . S
O748 Mg747 2.100 . S
O748 C759 1.279 . S
O749 Mg745 2.117 . S
O749 C759 1.250 . S
O750 Mg747 2.071 1_556 S
O750 C760 1.264 . S
O751 Mg747 2.072 1_556 S
O751 C761 1.260 . S
Mg752 O753 2.180 . S
Mg752 O754 2.030 . S
Mg752 O755 1.990 . S
Mg752 O756 2.111 1_556 S
O753 Mg747 2.098 1_556 S
O753 Mg752 2.180 . S
O753 C762 1.279 1_556 S
O754 Mg752 2.030 . S
O754 C760 1.248 . S
O755 Mg752 1.990 . S
O755 C761 1.253 . S
O756 Mg752 2.111 1_554 S
O756 C762 1.253 . S
C757 O763 1.248 . S
C757 O764 1.264 . S
C758 O744 1.253 . S
C758 O746 1.260 . S
C759 O748 1.279 . S
C759 O749 1.250 . S
C760 O750 1.264 . S
C760 O754 1.248 . S
C761 O751 1.260 . S
C761 O755 1.253 . S
C762 O753 1.279 1_554 S
C762 O756 1.253 . S
O763 Mg745 2.030 . S
O763 C757 1.248 . S
O764 Mg747 2.079 . S
O764 C757 1.264 . S
O765 Mg766 1.990 . S
O765 C779 1.253 . S
Mg766 O765 1.990 . S
Mg766 O769 2.180 . S
Mg766 O770 2.117 . S
Mg766 O784 2.030 . S
O767 Mg768 2.072 . S
O767 C779 1.260 . S
Mg768 O767 2.072 . S
Mg768 O769 2.099 . S
Mg768 O771 2.079 . S
Mg768 O772 2.072 . S
Mg768 O774 2.099 . S
Mg768 O785 2.079 . S
O769 Mg766 2.180 . S
O769 Mg768 2.099 . S
O769 C780 1.279 . S
O770 Mg766 2.117 . S
O770 C780 1.250 . S
O771 Mg768 2.079 . S
O771 C781 1.264 . S
O772 Mg768 2.072 . S
O772 C782 1.260 . S
Mg773 O774 2.180 . S
Mg773 O775 2.030 . S
Mg773 O776 1.990 . S
Mg773 O777 2.117 . S
O774 Mg768 2.099 . S
O774 Mg773 2.180 . S
O774 C783 1.279 . S
O775 Mg773 2.030 . S
O775 C781 1.248 . S
O776 Mg773 1.990 . S
O776 C782 1.253 . S
O777 Mg773 2.117 . S
O777 C783 1.250 . S
C778 O784 1.248 . S
C778 O785 1.264 . S
C779 O765 1.253 . S
C779 O767 1.260 . S
C780 O769 1.279 . S
C780 O770 1.250 . S
C781 O771 1.264 . S
C781 O775 1.248 . S
C782 O772 1.260 . S
C782 O776 1.253 . S
C783 O774 1.279 . S
C783 O777 1.250 . S
O784 Mg766 2.030 . S
O784 C778 1.248 . S
O785 Mg768 2.079 . S
O785 C778 1.264 . S
O786 Mg787 1.990 . S
O786 C800 1.253 . S
Mg787 O786 1.990 . S
Mg787 O790 2.180 . S
Mg787 O791 2.117 . S
Mg787 O805 2.030 . S
O788 Mg789 2.072 . S
O788 C800 1.260 . S
Mg789 O788 2.072 . S
Mg789 O790 2.099 . S
Mg789 O792 2.079 . S
Mg789 O793 2.072 . S
Mg789 O795 2.099 . S
Mg789 O806 2.079 . S
O790 Mg787 2.180 . S
O790 Mg789 2.099 . S
O790 C801 1.279 . S
O791 Mg787 2.117 . S
O791 C801 1.250 . S
O792 Mg789 2.079 . S
O792 C802 1.264 . S
O793 Mg789 2.072 . S
O793 C803 1.260 . S
Mg794 O795 2.180 . S
Mg794 O796 2.030 . S
Mg794 O797 1.990 . S
Mg794 O798 2.117 . S
O795 Mg789 2.099 . S
O795 Mg794 2.180 . S
O795 C804 1.279 . S
O796 Mg794 2.030 . S
O796 C802 1.248 . S
O797 Mg794 1.990 . S
O797 C803 1.253 . S
O798 Mg794 2.117 . S
O798 C804 1.250 . S
C799 O805 1.248 . S
C799 O806 1.264 . S
C800 O786 1.253 . S
C800 O788 1.260 . S
C801 O790 1.279 . S
C801 O791 1.250 . S
C802 O792 1.264 . S
C802 O796 1.248 . S
C803 O793 1.260 . S
C803 O797 1.253 . S
C804 O795 1.279 . S
C804 O798 1.250 . S
O805 Mg787 2.030 . S
O805 C799 1.248 . S
O806 Mg789 2.079 . S
O806 C799 1.264 . S
O807 Mg808 1.990 . S
O807 C821 1.253 . S
Mg808 O807 1.990 . S
Mg808 O811 2.180 . S
Mg808 O812 2.117 . S
Mg808 O826 2.030 . S
O809 Mg810 2.072 . S
O809 C821 1.260 . S
Mg810 O809 2.072 . S
Mg810 O811 2.099 . S
Mg810 O813 2.079 . S
Mg810 O814 2.072 . S
Mg810 O816 2.099 . S
Mg810 O827 2.079 . S
O811 Mg808 2.180 . S
O811 Mg810 2.099 . S
O811 C822 1.279 . S
O812 Mg808 2.117 . S
O812 C822 1.250 . S
O813 Mg810 2.079 . S
O813 C823 1.264 . S
O814 Mg810 2.072 . S
O814 C824 1.260 . S
Mg815 O816 2.180 . S
Mg815 O817 2.030 . S
Mg815 O818 1.990 . S
Mg815 O819 2.117 . S
O816 Mg810 2.099 . S
O816 Mg815 2.180 . S
O816 C825 1.279 . S
O817 Mg815 2.030 . S
O817 C823 1.248 . S
O818 Mg815 1.990 . S
O818 C824 1.253 . S
O819 Mg815 2.117 . S
O819 C825 1.250 . S
C820 O826 1.248 . S
C820 O827 1.264 . S
C821 O807 1.253 . S
C821 O809 1.260 . S
C822 O811 1.279 . S
C822 O812 1.250 . S
C823 O813 1.264 . S
C823 O817 1.248 . S
C824 O814 1.260 . S
C824 O818 1.253 . S
C825 O816 1.279 . S
C825 O819 1.250 . S
O826 Mg808 2.030 . S
O826 C820 1.248 . S
O827 Mg810 2.079 . S
O827 C820 1.264 . S
O828 Mg829 1.990 . S
O828 C842 1.253 . S
Mg829 O828 1.990 . S
Mg829 O832 2.180 . S
Mg829 O833 2.117 . S
Mg829 O847 2.030 . S
O830 Mg831 2.072 . S
O830 C842 1.260 . S
Mg831 O830 2.072 . S
Mg831 O832 2.099 . S
Mg831 O834 2.079 . S
Mg831 O835 2.072 . S
Mg831 O837 2.099 . S
Mg831 O848 2.079 . S
O832 Mg829 2.180 . S
O832 Mg831 2.099 . S
O832 C843 1.279 . S
O833 Mg829 2.117 . S
O833 C843 1.250 . S
O834 Mg831 2.079 . S
O834 C844 1.264 . S
O835 Mg831 2.072 . S
O835 C845 1.260 . S
Mg836 O837 2.180 . S
Mg836 O838 2.030 . S
Mg836 O839 1.990 . S
Mg836 O840 2.117 . S
O837 Mg831 2.099 . S
O837 Mg836 2.180 . S
O837 C846 1.279 . S
O838 Mg836 2.030 . S
O838 C844 1.248 . S
O839 Mg836 1.990 . S
O839 C845 1.253 . S
O840 Mg836 2.117 . S
O840 C846 1.250 . S
C841 O847 1.248 . S
C841 O848 1.264 . S
C842 O828 1.253 . S
C842 O830 1.260 . S
C843 O832 1.279 . S
C843 O833 1.250 . S
C844 O834 1.264 . S
C844 O838 1.248 . S
C845 O835 1.260 . S
C845 O839 1.253 . S
C846 O837 1.279 . S
C846 O840 1.250 . S
O847 Mg829 2.030 . S
O847 C841 1.248 . S
O848 Mg831 2.079 . S
O848 C841 1.264 . S
O849 Mg850 1.990 . S
O849 C863 1.253 . S
Mg850 O849 1.990 . S
Mg850 O853 2.180 . S
Mg850 O854 2.117 . S
Mg850 O868 2.030 . S
O851 Mg852 2.072 . S
O851 C863 1.260 . S
Mg852 O851 2.072 . S
Mg852 O853 2.099 . S
Mg852 O855 2.079 . S
Mg852 O856 2.072 . S
Mg852 O858 2.099 . S
Mg852 O869 2.079 . S
O853 Mg850 2.180 . S
O853 Mg852 2.099 . S
O853 C864 1.279 . S
O854 Mg850 2.117 . S
O854 C864 1.250 . S
O855 Mg852 2.079 . S
O855 C865 1.264 . S
O856 Mg852 2.072 . S
O856 C866 1.260 . S
Mg857 O858 2.180 . S
Mg857 O859 2.030 . S
Mg857 O860 1.990 . S
Mg857 O861 2.117 . S
O858 Mg852 2.099 . S
O858 Mg857 2.180 . S
O858 C867 1.279 . S
O859 Mg857 2.030 . S
O859 C865 1.248 . S
O860 Mg857 1.990 . S
O860 C866 1.253 . S
O861 Mg857 2.117 . S
O861 C867 1.250 . S
C862 O868 1.248 . S
C862 O869 1.264 . S
C863 O849 1.253 . S
C863 O851 1.260 . S
C864 O853 1.279 . S
C864 O854 1.250 . S
C865 O855 1.264 . S
C865 O859 1.248 . S
C866 O856 1.260 . S
C866 O860 1.253 . S
C867 O858 1.279 . S
C867 O861 1.250 . S
O868 Mg850 2.030 . S
O868 C862 1.248 . S
O869 Mg852 2.079 . S
O869 C862 1.264 . S
O870 Mg871 1.990 . S
O870 C884 1.253 . S
Mg871 O870 1.990 . S
Mg871 O874 2.180 . S
Mg871 O875 2.117 . S
Mg871 O889 2.030 . S
O872 Mg873 2.072 . S
O872 C884 1.260 . S
Mg873 O872 2.072 . S
Mg873 O874 2.099 . S
Mg873 O876 2.079 . S
Mg873 O877 2.072 . S
Mg873 O879 2.099 . S
Mg873 O890 2.079 . S
O874 Mg871 2.180 . S
O874 Mg873 2.099 . S
O874 C885 1.279 . S
O875 Mg871 2.117 . S
O875 C885 1.250 . S
O876 Mg873 2.079 . S
O876 C886 1.264 . S
O877 Mg873 2.072 . S
O877 C887 1.260 . S
Mg878 O879 2.180 . S
Mg878 O880 2.030 . S
Mg878 O881 1.990 . S
Mg878 O882 2.117 . S
O879 Mg873 2.099 . S
O879 Mg878 2.180 . S
O879 C888 1.279 . S
O880 Mg878 2.030 . S
O880 C886 1.248 . S
O881 Mg878 1.990 . S
O881 C887 1.253 . S
O882 Mg878 2.117 . S
O882 C888 1.250 . S
C883 O889 1.248 . S
C883 O890 1.264 . S
C884 O870 1.253 . S
C884 O872 1.260 . S
C885 O874 1.279 . S
C885 O875 1.250 . S
C886 O876 1.264 . S
C886 O880 1.248 . S
C887 O877 1.260 . S
C887 O881 1.253 . S
C888 O879 1.279 . S
C888 O882 1.250 . S
O889 Mg871 2.030 . S
O889 C883 1.248 . S
O890 Mg873 2.079 . S
O890 C883 1.264 . S
C891 C892 1.387 1_556 S
C891 H895 0.950 . S
C891 C900 1.390 . S
C892 C891 1.387 1_554 S
C892 C894 1.387 . S
H893 C900 0.950 . S
C894 C892 1.387 . S
C894 C896 1.390 . S
C894 H898 0.950 . S
H895 C891 0.950 . S
C896 C894 1.390 . S
C896 C897 1.387 . S
C896 H899 0.950 . S
C897 C896 1.387 . S
C897 C900 1.387 1_554 S
H898 C894 0.950 . S
H899 C896 0.950 . S
C900 C891 1.390 . S
C900 H893 0.950 . S
C900 C897 1.387 1_556 S
C901 C902 1.387 . S
C901 H905 0.950 . S
C901 C910 1.390 . S
C902 C901 1.387 . S
C902 C904 1.387 1_554 S
H903 C910 0.950 . S
C904 C902 1.387 1_556 S
C904 C906 1.390 . S
C904 H908 0.950 . S
H905 C901 0.950 . S
C906 C904 1.390 . S
C906 C907 1.387 1_556 S
C906 H909 0.950 . S
C907 C906 1.387 1_554 S
C907 C910 1.387 . S
H908 C904 0.950 . S
H909 C906 0.950 . S
C910 C901 1.390 . S
C910 H903 0.950 . S
C910 C907 1.387 . S
C911 C912 1.387 1_556 S
C911 H915 0.950 . S
C911 C920 1.390 . S
C912 C911 1.387 1_554 S
C912 C914 1.387 . S
H913 C920 0.950 . S
C914 C912 1.387 . S
C914 C916 1.390 . S
C914 H918 0.950 . S
H915 C911 0.950 . S
C916 C914 1.390 . S
C916 C917 1.387 . S
C916 H919 0.950 . S
C917 C916 1.387 . S
C917 C920 1.387 1_554 S
H918 C914 0.950 . S
H919 C916 0.950 . S
C920 C911 1.390 . S
C920 H913 0.950 . S
C920 C917 1.387 1_556 S
C921 C922 1.387 . S
C921 H925 0.950 . S
C921 C930 1.390 . S
C922 C921 1.387 . S
C922 C924 1.387 1_556 S
H923 C930 0.950 . S
C924 C922 1.387 1_554 S
C924 C926 1.390 . S
C924 H928 0.950 . S
H925 C921 0.950 . S
C926 C924 1.390 . S
C926 C927 1.387 1_554 S
C926 H929 0.950 . S
C927 C926 1.387 1_556 S
C927 C930 1.387 . S
H928 C924 0.950 . S
H929 C926 0.950 . S
C930 C921 1.390 . S
C930 H923 0.950 . S
C930 C927 1.387 . S
C931 C932 1.387 . S
C931 H935 0.950 . S
C931 C940 1.390 . S
C932 C931 1.387 . S
C932 C934 1.387 1_556 S
H933 C940 0.950 . S
C934 C932 1.387 1_554 S
C934 C936 1.390 . S
C934 H938 0.950 . S
H935 C931 0.950 . S
C936 C934 1.390 . S
C936 C937 1.387 1_554 S
C936 H939 0.950 . S
C937 C936 1.387 1_556 S
C937 C940 1.387 . S
H938 C934 0.950 . S
H939 C936 0.950 . S
C940 C931 1.390 . S
C940 H933 0.950 . S
C940 C937 1.387 . S
C941 C942 1.387 1_554 S
C941 H945 0.950 . S
C941 C950 1.390 . S
C942 C941 1.387 1_556 S
C942 C944 1.387 . S
H943 C950 0.950 . S
C944 C942 1.387 . S
C944 C946 1.390 . S
C944 H948 0.950 . S
H945 C941 0.950 . S
C946 C944 1.390 . S
C946 C947 1.387 . S
C946 H949 0.950 . S
C947 C946 1.387 . S
C947 C950 1.387 1_556 S
H948 C944 0.950 . S
H949 C946 0.950 . S
C950 C941 1.390 . S
C950 H943 0.950 . S
C950 C947 1.387 1_554 S
C951 C952 1.387 . S
C951 H955 0.950 . S
C951 C960 1.390 . S
C952 C951 1.387 . S
C952 C954 1.387 1_556 S
H953 C960 0.950 . S
C954 C952 1.387 1_554 S
C954 C956 1.390 . S
C954 H958 0.950 . S
H955 C951 0.950 . S
C956 C954 1.390 . S
C956 C957 1.387 1_554 S
C956 H959 0.950 . S
C957 C956 1.387 1_556 S
C957 C960 1.387 . S
H958 C954 0.950 . S
H959 C956 0.950 . S
C960 C951 1.390 . S
C960 H953 0.950 . S
C960 C957 1.387 . S
C961 C962 1.387 . S
C961 H965 0.950 . S
C961 C970 1.390 . S
C962 C961 1.387 . S
C962 C964 1.387 1_556 S
H963 C970 0.950 . S
C964 C962 1.387 1_554 S
C964 C966 1.390 . S
C964 H968 0.950 . S
H965 C961 0.950 . S
C966 C964 1.390 . S
C966 C967 1.387 1_554 S
C966 H969 0.950 . S
C967 C966 1.387 1_556 S
C967 C970 1.387 . S
H968 C964 0.950 . S
H969 C966 0.950 . S
C970 C961 1.390 . S
C970 H963 0.950 . S
C970 C967 1.387 . S
C971 C972 1.387 . S
C971 H975 0.950 . S
C971 C980 1.390 . S
C972 C971 1.387 . S
C972 C974 1.387 1_556 S
H973 C980 0.950 . S
C974 C972 1.387 1_554 S
C974 C976 1.390 . S
C974 H978 0.950 . S
H975 C971 0.950 . S
C976 C974 1.390 . S
C976 C977 1.387 1_554 S
C976 H979 0.950 . S
C977 C976 1.387 1_556 S
C977 C980 1.387 . S
H978 C974 0.950 . S
H979 C976 0.950 . S
C980 C971 1.390 . S
C980 H973 0.950 . S
C980 C977 1.387 . S
C981 C982 1.387 1_556 S
C981 H985 0.950 . S
C981 C990 1.390 . S
C982 C981 1.387 1_554 S
C982 C984 1.387 . S
H983 C990 0.950 . S
C984 C982 1.387 . S
C984 C986 1.390 . S
C984 H988 0.950 . S
H985 C981 0.950 . S
C986 C984 1.390 . S
C986 C987 1.387 . S
C986 H989 0.950 . S
C987 C986 1.387 . S
C987 C990 1.387 1_554 S
H988 C984 0.950 . S
H989 C986 0.950 . S
C990 C981 1.390 . S
C990 H983 0.950 . S
C990 C987 1.387 1_556 S
C991 C992 1.387 . S
C991 H995 0.950 . S
C991 C1000 1.390 . S
C992 C991 1.387 . S
C992 C994 1.401 . S
H993 C1000 0.950 . S
C994 C992 1.401 . S
C994 C996 1.389 1_554 S
C994 H998 0.938 1_554 S
H995 C991 0.950 . S
C996 C994 1.389 1_556 S
C996 C997 1.387 1_556 S
C996 H999 0.950 . S
C997 C996 1.387 1_554 S
C997 C1000 1.387 . S
H998 C994 0.938 1_556 S
H999 C996 0.950 . S
C1000 C991 1.390 . S
C1000 H993 0.950 . S
C1000 C997 1.387 . S
C1001 C1002 1.387 . S
C1001 H1005 0.950 . S
C1001 C1010 1.390 . S
C1002 C1001 1.387 . S
C1002 C1004 1.387 1_554 S
H1003 C1010 0.950 . S
C1004 C1002 1.387 1_556 S
C1004 C1006 1.390 . S
C1004 H1008 0.950 . S
H1005 C1001 0.950 . S
C1006 C1004 1.390 . S
C1006 C1007 1.387 1_556 S
C1006 H1009 0.950 . S
C1007 C1006 1.387 1_554 S
C1007 C1010 1.387 . S
H1008 C1004 0.950 . S
H1009 C1006 0.950 . S
C1010 C1001 1.390 . S
C1010 H1003 0.950 . S
C1010 C1007 1.387 . S
C1011 C1012 1.387 . S
C1011 H1015 0.950 . S
C1011 C1020 1.390 . S
C1012 C1011 1.387 . S
C1012 C1014 1.387 . S
H1013 C1020 0.950 . S
C1014 C1012 1.387 . S
C1014 C1016 1.390 . S
C1014 H1018 0.950 . S
H1015 C1011 0.950 . S
C1016 C1014 1.390 . S
C1016 C1017 1.387 . S
C1016 H1019 0.950 . S
C1017 C1016 1.387 . S
C1017 C1020 1.387 . S
H1018 C1014 0.950 . S
H1019 C1016 0.950 . S
C1020 C1011 1.390 . S
C1020 H1013 0.950 . S
C1020 C1017 1.387 . S
C1021 C1022 1.387 . S
C1021 H1025 0.950 . S
C1021 C1030 1.390 . S
C1022 C1021 1.387 . S
C1022 C1024 1.387 . S
H1023 C1030 0.950 . S
C1024 C1022 1.387 . S
C1024 C1026 1.390 . S
C1024 H1028 0.950 . S
H1025 C1021 0.950 . S
C1026 C1024 1.390 . S
C1026 C1027 1.387 . S
C1026 H1029 0.950 . S
C1027 C1026 1.387 . S
C1027 C1030 1.387 . S
H1028 C1024 0.950 . S
H1029 C1026 0.950 . S
C1030 C1021 1.390 . S
C1030 H1023 0.950 . S
C1030 C1027 1.387 . S
C1031 C1032 1.387 . S
C1031 H1035 0.950 . S
C1031 C1040 1.390 . S
C1032 C1031 1.387 . S
C1032 C1034 1.387 . S
H1033 C1040 0.950 . S
C1034 C1032 1.387 . S
C1034 C1036 1.390 . S
C1034 H1038 0.950 . S
H1035 C1031 0.950 . S
C1036 C1034 1.390 . S
C1036 C1037 1.387 . S
C1036 H1039 0.950 . S
C1037 C1036 1.387 . S
C1037 C1040 1.387 . S
H1038 C1034 0.950 . S
H1039 C1036 0.950 . S
C1040 C1031 1.390 . S
C1040 H1033 0.950 . S
C1040 C1037 1.387 . S
C1041 C1042 1.387 . S
C1041 H1045 0.950 . S
C1041 C1050 1.390 . S
C1042 C1041 1.387 . S
C1042 C1044 1.387 . S
H1043 C1050 0.950 . S
C1044 C1042 1.387 . S
C1044 C1046 1.390 . S
C1044 H1048 0.950 . S
H1045 C1041 0.950 . S
C1046 C1044 1.390 . S
C1046 C1047 1.387 . S
C1046 H1049 0.950 . S
C1047 C1046 1.387 . S
C1047 C1050 1.387 . S
H1048 C1044 0.950 . S
H1049 C1046 0.950 . S
C1050 C1041 1.390 . S
C1050 H1043 0.950 . S
C1050 C1047 1.387 . S
C1051 C1052 1.387 . S
C1051 H1055 0.950 . S
C1051 C1060 1.390 . S
C1052 C1051 1.387 . S
C1052 C1054 1.387 . S
H1053 C1060 0.950 . S
C1054 C1052 1.387 . S
C1054 C1056 1.390 . S
C1054 H1058 0.950 . S
H1055 C1051 0.950 . S
C1056 C1054 1.390 . S
C1056 C1057 1.387 . S
C1056 H1059 0.950 . S
C1057 C1056 1.387 . S
C1057 C1060 1.387 . S
H1058 C1054 0.950 . S
H1059 C1056 0.950 . S
C1060 C1051 1.390 . S
C1060 H1053 0.950 . S
C1060 C1057 1.387 . S
C1061 C1062 1.387 . S
C1061 H1065 0.950 . S
C1061 C1070 1.390 . S
C1062 C1061 1.387 . S
C1062 C1064 1.387 . S
H1063 C1070 0.950 . S
C1064 C1062 1.387 . S
C1064 C1066 1.390 . S
C1064 H1068 0.950 . S
H1065 C1061 0.950 . S
C1066 C1064 1.390 . S
C1066 C1067 1.387 . S
C1066 H1069 0.950 . S
C1067 C1066 1.387 . S
C1067 C1070 1.387 . S
H1068 C1064 0.950 . S
H1069 C1066 0.950 . S
C1070 C1061 1.390 . S
C1070 H1063 0.950 . S
C1070 C1067 1.387 . S
C1071 C1072 1.387 . S
C1071 H1075 0.950 . S
C1071 C1080 1.390 . S
C1072 C1071 1.387 . S
C1072 C1074 1.387 . S
H1073 C1080 0.950 . S
C1074 C1072 1.387 . S
C1074 C1076 1.390 . S
C1074 H1078 0.950 . S
H1075 C1071 0.950 . S
C1076 C1074 1.390 . S
C1076 C1077 1.387 . S
C1076 H1079 0.950 . S
C1077 C1076 1.387 . S
C1077 C1080 1.387 . S
H1078 C1074 0.950 . S
H1079 C1076 0.950 . S
C1080 C1071 1.390 . S
C1080 H1073 0.950 . S
C1080 C1077 1.387 . S
C1081 C1082 1.387 . S
C1081 H1085 0.950 . S
C1081 C1090 1.390 . S
C1082 C1081 1.387 . S
C1082 C1084 1.387 . S
H1083 C1090 0.950 . S
C1084 C1082 1.387 . S
C1084 C1086 1.390 . S
C1084 H1088 0.950 . S
H1085 C1081 0.950 . S
C1086 C1084 1.390 . S
C1086 C1087 1.387 . S
C1086 H1089 0.950 . S
C1087 C1086 1.387 . S
C1087 C1090 1.387 . S
H1088 C1084 0.950 . S
H1089 C1086 0.950 . S
C1090 C1081 1.390 . S
C1090 H1083 0.950 . S
C1090 C1087 1.387 . S
C1091 C1092 1.387 . S
C1091 H1095 0.950 . S
C1091 C1100 1.390 . S
C1092 C1091 1.387 . S
C1092 C1094 1.387 . S
H1093 C1100 0.950 . S
C1094 C1092 1.387 . S
C1094 C1096 1.390 . S
C1094 H1098 0.950 . S
H1095 C1091 0.950 . S
C1096 C1094 1.390 . S
C1096 C1097 1.387 . S
C1096 H1099 0.950 . S
C1097 C1096 1.387 . S
C1097 C1100 1.387 . S
H1098 C1094 0.950 . S
H1099 C1096 0.950 . S
C1100 C1091 1.390 . S
C1100 H1093 0.950 . S
C1100 C1097 1.387 . S
C1101 C1102 1.387 . S
C1101 H1105 0.950 . S
C1101 C1110 1.390 . S
C1102 C1101 1.387 . S
C1102 C1104 1.387 . S
H1103 C1110 0.950 . S
C1104 C1102 1.387 . S
C1104 C1106 1.390 . S
C1104 H1108 0.950 . S
H1105 C1101 0.950 . S
C1106 C1104 1.390 . S
C1106 C1107 1.387 . S
C1106 H1109 0.950 . S
C1107 C1106 1.387 . S
C1107 C1110 1.387 . S
H1108 C1104 0.950 . S
H1109 C1106 0.950 . S
C1110 C1101 1.390 . S
C1110 H1103 0.950 . S
C1110 C1107 1.387 . S
C1111 C1112 1.387 . S
C1111 H1115 0.950 . S
C1111 C1120 1.390 . S
C1112 C1111 1.387 . S
C1112 C1114 1.387 . S
H1113 C1120 0.950 . S
C1114 C1112 1.387 . S
C1114 C1116 1.390 . S
C1114 H1118 0.950 . S
H1115 C1111 0.950 . S
C1116 C1114 1.390 . S
C1116 C1117 1.387 . S
C1116 H1119 0.950 . S
C1117 C1116 1.387 . S
C1117 C1120 1.387 . S
H1118 C1114 0.950 . S
H1119 C1116 0.950 . S
C1120 C1111 1.390 . S
C1120 H1113 0.950 . S
C1120 C1117 1.387 . S
C1121 C1122 1.387 . S
C1121 H1125 0.950 . S
C1121 C1130 1.390 . S
C1122 C1121 1.387 . S
C1122 C1124 1.387 . S
H1123 C1130 0.950 . S
C1124 C1122 1.387 . S
C1124 C1126 1.390 . S
C1124 H1128 0.950 . S
H1125 C1121 0.950 . S
C1126 C1124 1.390 . S
C1126 C1127 1.387 . S
C1126 H1129 0.950 . S
C1127 C1126 1.387 . S
C1127 C1130 1.387 . S
H1128 C1124 0.950 . S
H1129 C1126 0.950 . S
C1130 C1121 1.390 . S
C1130 H1123 0.950 . S
C1130 C1127 1.387 . S
C1131 C1132 1.387 . S
C1131 H1135 0.950 . S
C1131 C1140 1.390 . S
C1132 C1131 1.387 . S
C1132 C1134 1.387 . S
H1133 C1140 0.950 . S
C1134 C1132 1.387 . S
C1134 C1136 1.390 . S
C1134 H1138 0.950 . S
H1135 C1131 0.950 . S
C1136 C1134 1.390 . S
C1136 C1137 1.387 . S
C1136 H1139 0.950 . S
C1137 C1136 1.387 . S
C1137 C1140 1.387 . S
H1138 C1134 0.950 . S
H1139 C1136 0.950 . S
C1140 C1131 1.390 . S
C1140 H1133 0.950 . S
C1140 C1137 1.387 . S
C1141 C1142 1.387 . S
C1141 H1145 0.950 . S
C1141 C1150 1.390 . S
C1142 C1141 1.387 . S
C1142 C1144 1.387 . S
H1143 C1150 0.950 . S
C1144 C1142 1.387 . S
C1144 C1146 1.390 . S
C1144 H1148 0.950 . S
H1145 C1141 0.950 . S
C1146 C1144 1.390 . S
C1146 C1147 1.387 . S
C1146 H1149 0.950 . S
C1147 C1146 1.387 . S
C1147 C1150 1.387 . S
H1148 C1144 0.950 . S
H1149 C1146 0.950 . S
C1150 C1141 1.390 . S
C1150 H1143 0.950 . S
C1150 C1147 1.387 . S
C1151 C1152 1.387 . S
C1151 H1155 0.950 . S
C1151 C1160 1.390 . S
C1152 C1151 1.387 . S
C1152 C1154 1.387 . S
H1153 C1160 0.950 . S
C1154 C1152 1.387 . S
C1154 C1156 1.390 . S
C1154 H1158 0.950 . S
H1155 C1151 0.950 . S
C1156 C1154 1.390 . S
C1156 C1157 1.387 . S
C1156 H1159 0.950 . S
C1157 C1156 1.387 . S
C1157 C1160 1.387 . S
H1158 C1154 0.950 . S
H1159 C1156 0.950 . S
C1160 C1151 1.390 . S
C1160 H1153 0.950 . S
C1160 C1157 1.387 . S
C1161 C1162 1.387 . S
C1161 H1165 0.950 . S
C1161 C1170 1.390 . S
C1162 C1161 1.387 . S
C1162 C1164 1.387 . S
H1163 C1170 0.950 . S
C1164 C1162 1.387 . S
C1164 C1166 1.390 . S
C1164 H1168 0.950 . S
H1165 C1161 0.950 . S
C1166 C1164 1.390 . S
C1166 C1167 1.387 . S
C1166 H1169 0.950 . S
C1167 C1166 1.387 . S
C1167 C1170 1.387 . S
H1168 C1164 0.950 . S
H1169 C1166 0.950 . S
C1170 C1161 1.390 . S
C1170 H1163 0.950 . S
C1170 C1167 1.387 . S
C1171 C1172 1.387 . S
C1171 H1175 0.950 . S
C1171 C1180 1.390 . S
C1172 C1171 1.387 . S
C1172 C1174 1.387 . S
H1173 C1180 0.950 . S
C1174 C1172 1.387 . S
C1174 C1176 1.390 . S
C1174 H1178 0.950 . S
H1175 C1171 0.950 . S
C1176 C1174 1.390 . S
C1176 C1177 1.387 . S
C1176 H1179 0.950 . S
C1177 C1176 1.387 . S
C1177 C1180 1.387 . S
H1178 C1174 0.950 . S
H1179 C1176 0.950 . S
C1180 C1171 1.390 . S
C1180 H1173 0.950 . S
C1180 C1177 1.387 . S
C1181 C1182 1.387 . S
C1181 H1185 0.950 . S
C1181 C1190 1.390 . S
C1182 C1181 1.387 . S
C1182 C1184 1.387 . S
H1183 C1190 0.950 . S
C1184 C1182 1.387 . S
C1184 C1186 1.390 . S
C1184 H1188 0.950 . S
H1185 C1181 0.950 . S
C1186 C1184 1.390 . S
C1186 C1187 1.387 . S
C1186 H1189 0.950 . S
C1187 C1186 1.387 . S
C1187 C1190 1.387 . S
H1188 C1184 0.950 . S
H1189 C1186 0.950 . S
C1190 C1181 1.390 . S
C1190 H1183 0.950 . S
C1190 C1187 1.387 . S
C1191 C1192 1.387 . S
C1191 H1195 0.950 . S
C1191 C1200 1.390 . S
C1192 C1191 1.387 . S
C1192 C1194 1.387 . S
H1193 C1200 0.950 . S
C1194 C1192 1.387 . S
C1194 C1196 1.390 . S
C1194 H1198 0.950 . S
H1195 C1191 0.950 . S
C1196 C1194 1.390 . S
C1196 C1197 1.387 . S
C1196 H1199 0.950 . S
C1197 C1196 1.387 . S
C1197 C1200 1.387 . S
H1198 C1194 0.950 . S
H1199 C1196 0.950 . S
C1200 C1191 1.390 . S
C1200 H1193 0.950 . S
C1200 C1197 1.387 . S
C1201 C1202 1.387 . S
C1201 H1205 0.950 . S
C1201 C1210 1.390 . S
C1202 C1201 1.387 . S
C1202 C1204 1.387 . S
H1203 C1210 0.950 . S
C1204 C1202 1.387 . S
C1204 C1206 1.390 . S
C1204 H1208 0.950 . S
H1205 C1201 0.950 . S
C1206 C1204 1.390 . S
C1206 C1207 1.387 . S
C1206 H1209 0.950 . S
C1207 C1206 1.387 . S
C1207 C1210 1.387 . S
H1208 C1204 0.950 . S
H1209 C1206 0.950 . S
C1210 C1201 1.390 . S
C1210 H1203 0.950 . S
C1210 C1207 1.387 . S
C1211 C1212 1.387 . S
C1211 H1215 0.950 . S
C1211 C1220 1.390 . S
C1212 C1211 1.387 . S
C1212 C1214 1.387 . S
H1213 C1220 0.950 . S
C1214 C1212 1.387 . S
C1214 C1216 1.390 . S
C1214 H1218 0.950 . S
H1215 C1211 0.950 . S
C1216 C1214 1.390 . S
C1216 C1217 1.387 . S
C1216 H1219 0.950 . S
C1217 C1216 1.387 . S
C1217 C1220 1.387 . S
H1218 C1214 0.950 . S
H1219 C1216 0.950 . S
C1220 C1211 1.390 . S
C1220 H1213 0.950 . S
C1220 C1217 1.387 . S
C1221 C1222 1.387 . S
C1221 H1225 0.950 . S
C1221 C1230 1.390 . S
C1222 C1221 1.387 . S
C1222 C1224 1.387 . S
H1223 C1230 0.950 . S
C1224 C1222 1.387 . S
C1224 C1226 1.390 . S
C1224 H1228 0.950 . S
H1225 C1221 0.950 . S
C1226 C1224 1.390 . S
C1226 C1227 1.387 . S
C1226 H1229 0.950 . S
C1227 C1226 1.387 . S
C1227 C1230 1.387 . S
H1228 C1224 0.950 . S
H1229 C1226 0.950 . S
C1230 C1221 1.390 . S
C1230 H1223 0.950 . S
C1230 C1227 1.387 . S
C1231 C1232 1.387 . S
C1231 H1235 0.950 . S
C1231 C1240 1.390 . S
C1232 C1231 1.387 . S
C1232 C1234 1.387 . S
H1233 C1240 0.950 . S
C1234 C1232 1.387 . S
C1234 C1236 1.390 . S
C1234 H1238 0.950 . S
H1235 C1231 0.950 . S
C1236 C1234 1.390 . S
C1236 C1237 1.387 . S
C1236 H1239 0.950 . S
C1237 C1236 1.387 . S
C1237 C1240 1.387 . S
H1238 C1234 0.950 . S
H1239 C1236 0.950 . S
C1240 C1231 1.390 . S
C1240 H1233 0.950 . S
C1240 C1237 1.387 . S
C1241 C1242 1.387 . S
C1241 H1245 0.950 . S
C1241 C1250 1.390 . S
C1242 C1241 1.387 . S
C1242 C1244 1.387 . S
H1243 C1250 0.950 . S
C1244 C1242 1.387 . S
C1244 C1246 1.390 . S
C1244 H1248 0.950 . S
H1245 C1241 0.950 . S
C1246 C1244 1.390 . S
C1246 C1247 1.387 . S
C1246 H1249 0.950 . S
C1247 C1246 1.387 . S
C1247 C1250 1.387 . S
H1248 C1244 0.950 . S
H1249 C1246 0.950 . S
C1250 C1241 1.390 . S
C1250 H1243 0.950 . S
C1250 C1247 1.387 . S
C1251 C1252 1.387 1_545 S
C1251 H1255 0.950 . S
C1251 C1260 1.390 . S
C1252 C1251 1.387 1_565 S
C1252 C1254 1.387 . S
H1253 C1260 0.950 . S
C1254 C1252 1.387 . S
C1254 C1256 1.390 . S
C1254 H1258 0.950 . S
H1255 C1251 0.950 . S
C1256 C1254 1.390 . S
C1256 C1257 1.395 . S
C1256 H1259 0.950 . S
C1257 C1256 1.395 . S
C1257 C1260 1.381 1_565 S
H1258 C1254 0.950 . S
H1259 C1256 0.950 . S
C1260 C1251 1.390 . S
C1260 H1253 0.950 . S
C1260 C1257 1.381 1_545 S
C1261 C1262 1.387 . S
C1261 H1265 0.950 . S
C1261 C1270 1.390 . S
C1262 C1261 1.387 . S
C1262 C1264 1.387 . S
H1263 C1270 0.950 . S
C1264 C1262 1.387 . S
C1264 C1266 1.390 . S
C1264 H1268 0.950 . S
H1265 C1261 0.950 . S
C1266 C1264 1.390 . S
C1266 C1267 1.387 . S
C1266 H1269 0.953 1_455 S
C1267 C1266 1.387 . S
C1267 C1270 1.387 . S
H1268 C1264 0.950 . S
H1269 C1266 0.953 1_655 S
C1270 C1261 1.390 . S
C1270 H1263 0.950 . S
C1270 C1267 1.387 . S
C1271 C1272 1.387 . S
C1271 H1275 0.950 . S
C1271 C1280 1.390 . S
C1272 C1271 1.387 . S
C1272 C1274 1.387 . S
H1273 C1280 0.950 . S
C1274 C1272 1.387 . S
C1274 C1276 1.390 . S
C1274 H1278 0.950 . S
H1275 C1271 0.950 . S
C1276 C1274 1.390 . S
C1276 C1277 1.387 . S
C1276 H1279 0.950 . S
C1277 C1276 1.387 . S
C1277 C1280 1.387 . S
H1278 C1274 0.950 . S
H1279 C1276 0.950 . S
C1280 C1271 1.390 . S
C1280 H1273 0.950 . S
C1280 C1277 1.387 . S
C1281 C1282 1.387 . S
C1281 H1285 0.950 1_655 S
C1281 C1290 1.390 1_655 S
C1282 C1281 1.387 . S
C1282 C1284 1.387 . S
H1283 C1290 0.950 . S
C1284 C1282 1.387 . S
C1284 C1286 1.390 . S
C1284 H1288 0.950 . S
H1285 C1281 0.950 1_455 S
C1286 C1284 1.390 . S
C1286 C1287 1.387 . S
C1286 H1289 0.950 . S
C1287 C1286 1.387 . S
C1287 C1290 1.387 1_655 S
H1288 C1284 0.950 . S
H1289 C1286 0.950 . S
C1290 C1281 1.390 1_455 S
C1290 H1283 0.950 . S
C1290 C1287 1.387 1_455 S
C1291 C1292 1.387 . S
C1291 H1295 0.950 . S
C1291 C1300 1.390 . S
C1292 C1291 1.387 . S
C1292 C1294 1.387 . S
H1293 C1300 0.950 . S
C1294 C1292 1.387 . S
C1294 C1296 1.390 . S
C1294 H1298 0.950 . S
H1295 C1291 0.950 . S
C1296 C1294 1.390 . S
C1296 C1297 1.387 . S
C1296 H1299 0.950 . S
C1297 C1296 1.387 . S
C1297 C1300 1.387 . S
H1298 C1294 0.950 . S
H1299 C1296 0.950 . S
C1300 C1291 1.390 . S
C1300 H1293 0.950 . S
C1300 C1297 1.387 . S
C1301 C1302 1.387 1_565 S
C1301 H1305 0.950 . S
C1301 C1310 1.390 . S
C1302 C1301 1.387 1_545 S
C1302 C1304 1.387 . S
H1303 C1310 0.950 . S
C1304 C1302 1.387 . S
C1304 C1306 1.390 . S
C1304 H1308 0.950 . S
H1305 C1301 0.950 . S
C1306 C1304 1.390 . S
C1306 C1307 1.387 . S
C1306 H1309 0.950 . S
C1307 C1306 1.387 . S
C1307 C1310 1.387 1_545 S
H1308 C1304 0.950 . S
H1309 C1306 0.950 . S
C1310 C1301 1.390 . S
C1310 H1303 0.950 . S
C1310 C1307 1.387 1_565 S
C1311 C1312 1.387 . S
C1311 H1315 0.950 . S
C1311 C1320 1.390 . S
C1312 C1311 1.387 . S
C1312 C1314 1.387 . S
H1313 C1320 0.950 . S
C1314 C1312 1.387 . S
C1314 C1316 1.390 . S
C1314 H1318 0.950 . S
H1315 C1311 0.950 . S
C1316 C1314 1.390 . S
C1316 C1317 1.387 . S
C1316 H1319 0.950 . S
C1317 C1316 1.387 . S
C1317 C1320 1.387 . S
H1318 C1314 0.950 . S
H1319 C1316 0.950 . S
C1320 C1311 1.390 . S
C1320 H1313 0.950 . S
C1320 C1317 1.387 . S
C1321 C1322 1.387 . S
C1321 H1325 0.950 . S
C1321 C1330 1.390 . S
C1322 C1321 1.387 . S
C1322 C1324 1.387 . S
H1323 C1330 0.950 . S
C1324 C1322 1.387 . S
C1324 C1326 1.390 . S
C1324 H1328 0.950 . S
H1325 C1321 0.950 . S
C1326 C1324 1.390 . S
C1326 C1327 1.387 . S
C1326 H1329 0.950 . S
C1327 C1326 1.387 . S
C1327 C1330 1.387 . S
H1328 C1324 0.950 . S
H1329 C1326 0.950 . S
C1330 C1321 1.390 . S
C1330 H1323 0.950 . S
C1330 C1327 1.387 . S
C1331 C1332 1.387 . S
C1331 H1335 0.950 . S
C1331 C1340 1.390 . S
C1332 C1331 1.387 . S
C1332 C1334 1.387 . S
H1333 C1340 0.950 . S
C1334 C1332 1.387 . S
C1334 C1336 1.390 . S
C1334 H1338 0.950 . S
H1335 C1331 0.950 . S
C1336 C1334 1.390 . S
C1336 C1337 1.387 . S
C1336 H1339 0.950 . S
C1337 C1336 1.387 . S
C1337 C1340 1.387 . S
H1338 C1334 0.950 . S
H1339 C1336 0.950 . S
C1340 C1331 1.390 . S
C1340 H1333 0.950 . S
C1340 C1337 1.387 . S
C1341 C1342 1.387 . S
C1341 H1345 0.950 . S
C1341 C1350 1.390 . S
C1342 C1341 1.387 . S
C1342 C1344 1.387 . S
H1343 C1350 0.950 . S
C1344 C1342 1.387 . S
C1344 C1346 1.390 . S
C1344 H1348 0.950 . S
H1345 C1341 0.950 . S
C1346 C1344 1.390 . S
C1346 C1347 1.387 . S
C1346 H1349 0.950 . S
C1347 C1346 1.387 . S
C1347 C1350 1.387 . S
H1348 C1344 0.950 . S
H1349 C1346 0.950 . S
C1350 C1341 1.390 . S
C1350 H1343 0.950 . S
C1350 C1347 1.387 . S
C1351 C1352 1.387 . S
C1351 H1355 0.950 . S
C1351 C1360 1.390 . S
C1352 C1351 1.387 . S
C1352 C1354 1.387 . S
H1353 C1360 0.950 . S
C1354 C1352 1.387 . S
C1354 C1356 1.390 . S
C1354 H1358 0.950 . S
H1355 C1351 0.950 . S
C1356 C1354 1.390 . S
C1356 C1357 1.387 . S
C1356 H1359 0.950 . S
C1357 C1356 1.387 . S
C1357 C1360 1.387 . S
H1358 C1354 0.950 . S
H1359 C1356 0.950 . S
C1360 C1351 1.390 . S
C1360 H1353 0.950 . S
C1360 C1357 1.387 . S
C1361 C1362 1.387 . S
C1361 H1365 0.950 . S
C1361 C1370 1.390 . S
C1362 C1361 1.387 . S
C1362 C1364 1.387 . S
H1363 C1370 0.950 . S
C1364 C1362 1.387 . S
C1364 C1366 1.390 . S
C1364 H1368 0.950 . S
H1365 C1361 0.950 . S
C1366 C1364 1.390 . S
C1366 C1367 1.387 . S
C1366 H1369 0.950 . S
C1367 C1366 1.387 . S
C1367 C1370 1.387 . S
H1368 C1364 0.950 . S
H1369 C1366 0.950 . S
C1370 C1361 1.390 . S
C1370 H1363 0.950 . S
C1370 C1367 1.387 . S
C1371 C1372 1.387 . S
C1371 H1375 0.950 . S
C1371 C1380 1.390 . S
C1372 C1371 1.387 . S
C1372 C1374 1.387 . S
H1373 C1380 0.950 . S
C1374 C1372 1.387 . S
C1374 C1376 1.390 . S
C1374 H1378 0.950 . S
H1375 C1371 0.950 . S
C1376 C1374 1.390 . S
C1376 C1377 1.387 . S
C1376 H1379 0.950 . S
C1377 C1376 1.387 . S
C1377 C1380 1.387 . S
H1378 C1374 0.950 . S
H1379 C1376 0.950 . S
C1380 C1371 1.390 . S
C1380 H1373 0.950 . S
C1380 C1377 1.387 . S
C1381 C1382 1.387 . S
C1381 H1385 0.950 . S
C1381 C1390 1.390 . S
C1382 C1381 1.387 . S
C1382 C1384 1.387 . S
H1383 C1390 0.950 . S
C1384 C1382 1.387 . S
C1384 C1386 1.390 . S
C1384 H1388 0.950 . S
H1385 C1381 0.950 . S
C1386 C1384 1.390 . S
C1386 C1387 1.387 . S
C1386 H1389 0.950 . S
C1387 C1386 1.387 . S
C1387 C1390 1.387 . S
H1388 C1384 0.950 . S
H1389 C1386 0.950 . S
C1390 C1381 1.390 . S
C1390 H1383 0.950 . S
C1390 C1387 1.387 . S
C1391 C1392 1.387 . S
C1391 H1395 0.950 . S
C1391 C1400 1.390 . S
C1392 C1391 1.387 . S
C1392 C1394 1.387 . S
H1393 C1400 0.950 . S
C1394 C1392 1.387 . S
C1394 C1396 1.390 . S
C1394 H1398 0.950 . S
H1395 C1391 0.950 . S
C1396 C1394 1.390 . S
C1396 C1397 1.387 . S
C1396 H1399 0.950 . S
C1397 C1396 1.387 . S
C1397 C1400 1.387 . S
H1398 C1394 0.950 . S
H1399 C1396 0.950 . S
C1400 C1391 1.390 . S
C1400 H1393 0.950 . S
C1400 C1397 1.387 . S
C1401 C1402 1.387 . S
C1401 H1405 0.950 . S
C1401 C1410 1.390 . S
C1402 C1401 1.387 . S
C1402 C1404 1.387 . S
H1403 C1410 0.950 . S
C1404 C1402 1.387 . S
C1404 C1406 1.390 . S
C1404 H1408 0.950 . S
H1405 C1401 0.950 . S
C1406 C1404 1.390 . S
C1406 C1407 1.387 . S
C1406 H1409 0.950 . S
C1407 C1406 1.387 . S
C1407 C1410 1.387 . S
H1408 C1404 0.950 . S
H1409 C1406 0.950 . S
C1410 C1401 1.390 . S
C1410 H1403 0.950 . S
C1410 C1407 1.387 . S
C1411 C1412 1.387 . S
C1411 H1415 0.950 . S
C1411 C1420 1.390 . S
C1412 C1411 1.387 . S
C1412 C1414 1.387 . S
H1413 C1420 0.950 . S
C1414 C1412 1.387 . S
C1414 C1416 1.390 . S
C1414 H1418 0.950 . S
H1415 C1411 0.950 . S
C1416 C1414 1.390 . S
C1416 C1417 1.387 . S
C1416 H1419 0.950 . S
C1417 C1416 1.387 . S
C1417 C1420 1.387 . S
H1418 C1414 0.950 . S
H1419 C1416 0.950 . S
C1420 C1411 1.390 . S
C1420 H1413 0.950 . S
C1420 C1417 1.387 . S
C1421 C1422 1.387 . S
C1421 H1425 0.950 . S
C1421 C1430 1.390 . S
C1422 C1421 1.387 . S
C1422 C1424 1.387 . S
H1423 C1430 0.950 . S
C1424 C1422 1.387 . S
C1424 C1426 1.390 . S
C1424 H1428 0.950 . S
H1425 C1421 0.950 . S
C1426 C1424 1.390 . S
C1426 C1427 1.387 . S
C1426 H1429 0.950 . S
C1427 C1426 1.387 . S
C1427 C1430 1.387 . S
H1428 C1424 0.950 . S
H1429 C1426 0.950 . S
C1430 C1421 1.390 . S
C1430 H1423 0.950 . S
C1430 C1427 1.387 . S
C892 C528 1.512 . S
C897 C719 1.417 . S
C902 C562 1.539 . S
C907 C740 1.438 . S
C912 C484 1.463 . S
C917 C762 1.183 . S
C922 C445 1.481 . S
C927 C741 1.189 1_556 S
C937 C761 1.449 . S
C932 C367 1.557 . S
C942 C411 1.480 . S
C947 C720 1.179 1_556 S
C957 C715 1.405 . S
C952 C450 1.484 . S
C967 C736 1.411 . S
C962 C372 1.469 . S
C972 C406 1.530 . S
C977 C759 1.220 1_556 S
C982 C523 1.482 . S
C987 C738 1.199 . S
C992 C567 1.444 . S
C997 C757 1.374 . S
C1007 C717 1.244 . S
C1002 C489 1.507 . S
C1017 C782 1.418 . S
C1012 C60 1.512 1_455 S
C1022 C94 1.539 . S
C1027 C803 1.438 . S
C1032 C16 1.463 1_565 S
C1037 C825 1.184 . S
C1042 C679 1.479 . S
C1047 C804 1.183 . S
C1052 C601 1.556 . S
C1057 C824 1.449 . S
C1062 C645 1.480 . S
C1067 C783 1.180 . S
C1072 C684 1.483 . S
C1077 C778 1.405 . S
C1082 C606 1.471 . S
C1087 C799 1.415 . S
C1097 C822 1.225 . S
C1092 C640 1.532 . S
C1102 C55 1.479 1_565 S
C1107 C801 1.192 . S
C1117 C820 1.379 . S
C1112 C99 1.445 1_455 S
C1122 C21 1.507 . S
C1127 C780 1.221 . S
C1137 C845 1.422 . S
C1132 C294 1.514 . S
C1142 C328 1.538 . S
C1147 C866 1.438 . S
C1157 C888 1.181 . S
C1152 C250 1.462 . S
C1167 C867 1.187 . S
C1162 C211 1.481 1_545 S
C1177 C887 1.444 . S
C1172 C133 1.555 1_655 S
C1182 C177 1.480 . S
C1187 C846 1.180 . S
C1192 C216 1.486 1_655 S
C1197 C841 1.409 . S
C1202 C138 1.471 . S
C1207 C862 1.415 . S
C1217 C885 1.221 . S
C1212 C172 1.531 1_545 S
C1222 C289 1.480 . S
C1227 C864 1.196 . S
C1232 C333 1.442 . S
C1237 C883 1.374 . S
C1242 C255 1.510 . S
C1247 C843 1.227 . S
C1252 C586 1.448 . S
C1257 C718 1.411 1_565 S
C1267 C739 1.438 . S
C1262 C625 1.472 . S
C1272 C664 1.523 . S
C1277 C758 1.496 . S
C1282 C235 1.566 . S
C1287 C737 1.535 1_655 S
C1292 C274 1.479 . S
C1297 C760 1.438 . S
C1307 C716 1.520 . S
C1302 C313 1.532 . S
C1312 C118 1.447 . S
C1317 C781 1.413 . S
C1322 C157 1.471 . S
C1327 C802 1.440 . S
C1332 C196 1.523 . S
C1337 C821 1.498 . S
C1342 C469 1.566 . S
C1347 C800 1.535 . S
C1357 C823 1.439 . S
C1352 C508 1.480 . S
C1362 C547 1.532 . S
C1367 C779 1.506 . S
C1372 C352 1.449 . S
C1377 C844 1.412 . S
C1382 C391 1.472 . S
C1387 C865 1.438 . S
C1397 C884 1.497 . S
C1392 C430 1.522 . S
C1402 C1 1.565 . S
C1407 C863 1.535 . S
C1412 C40 1.481 . S
C1417 C886 1.437 . S
C1422 C79 1.532 . S
C1427 C842 1.508 . S
