# Generated by pormake.
# Topology zzz, (3,6)-cn, num edge types: 1
# Building blocks:
#     Node 0, Type 0, BuildingBlock: KAKCAD_clean_linker_0, # of connection points: 3
#     Node 1, Type 0, BuildingBlock: KAKCAD_clean_linker_0, # of connection points: 3
#     Node 2, Type 0, BuildingBlock: KAKCAD_clean_linker_0, # of connection points: 3
#     Node 3, Type 0, BuildingBlock: KAKCAD_clean_linker_0, # of connection points: 3
#     Node 4, Type 0, BuildingBlock: KAKCAD_clean_linker_0, # of connection points: 3
#     Node 5, Type 0, BuildingBlock: KAKCAD_clean_linker_0, # of connection points: 3
#     Node 6, Type 0, BuildingBlock: KAKCAD_clean_linker_0, # of connection points: 3
#     Node 7, Type 0, BuildingBlock: KAKCAD_clean_linker_0, # of connection points: 3
#     Node 8, Type 1, BuildingBlock: KUMBUR_clean_sbu_1, # of connection points: 6
#     Node 9, Type 1, BuildingBlock: KUMBUR_clean_sbu_1, # of connection points: 6
#     Node 10, Type 1, BuildingBlock: KUMBUR_clean_sbu_1, # of connection points: 6
#     Node 11, Type 1, BuildingBlock: KUMBUR_clean_sbu_1, # of connection points: 6
#     Edge 12, Type (0, 1), BuildingBlock: ZUJKAS_clean_linker_0, # of connection points: 2
#     Edge 13, Type (0, 1), BuildingBlock: ZUJKAS_clean_linker_0, # of connection points: 2
#     Edge 14, Type (0, 1), BuildingBlock: ZUJKAS_clean_linker_0, # of connection points: 2
#     Edge 15, Type (0, 1), BuildingBlock: ZUJKAS_clean_linker_0, # of connection points: 2
#     Edge 16, Type (0, 1), BuildingBlock: ZUJKAS_clean_linker_0, # of connection points: 2
#     Edge 17, Type (0, 1), BuildingBlock: ZUJKAS_clean_linker_0, # of connection points: 2
#     Edge 18, Type (0, 1), BuildingBlock: ZUJKAS_clean_linker_0, # of connection points: 2
#     Edge 19, Type (0, 1), BuildingBlock: ZUJKAS_clean_linker_0, # of connection points: 2
#     Edge 20, Type (0, 1), BuildingBlock: ZUJKAS_clean_linker_0, # of connection points: 2
#     Edge 21, Type (0, 1), BuildingBlock: ZUJKAS_clean_linker_0, # of connection points: 2
#     Edge 22, Type (0, 1), BuildingBlock: ZUJKAS_clean_linker_0, # of connection points: 2
#     Edge 23, Type (0, 1), BuildingBlock: ZUJKAS_clean_linker_0, # of connection points: 2
#     Edge 24, Type (0, 1), BuildingBlock: ZUJKAS_clean_linker_0, # of connection points: 2
#     Edge 25, Type (0, 1), BuildingBlock: ZUJKAS_clean_linker_0, # of connection points: 2
#     Edge 26, Type (0, 1), BuildingBlock: ZUJKAS_clean_linker_0, # of connection points: 2
#     Edge 27, Type (0, 1), BuildingBlock: ZUJKAS_clean_linker_0, # of connection points: 2
#     Edge 28, Type (0, 1), BuildingBlock: ZUJKAS_clean_linker_0, # of connection points: 2
#     Edge 29, Type (0, 1), BuildingBlock: ZUJKAS_clean_linker_0, # of connection points: 2
#     Edge 30, Type (0, 1), BuildingBlock: ZUJKAS_clean_linker_0, # of connection points: 2
#     Edge 31, Type (0, 1), BuildingBlock: ZUJKAS_clean_linker_0, # of connection points: 2
#     Edge 32, Type (0, 1), BuildingBlock: ZUJKAS_clean_linker_0, # of connection points: 2
#     Edge 33, Type (0, 1), BuildingBlock: ZUJKAS_clean_linker_0, # of connection points: 2
#     Edge 34, Type (0, 1), BuildingBlock: ZUJKAS_clean_linker_0, # of connection points: 2
#     Edge 35, Type (0, 1), BuildingBlock: ZUJKAS_clean_linker_0, # of connection points: 2
# Relax obj value: 0.286
# Max RMSD: 0.209
# Mean RMSD: 0.179
data_MOF--net-zzz--node1-KUMBUR_clean_sbu_1--node2-KAKCAD_clean_linker_0--edge1-ZUJKAS_clean_linker_0
_symmetry_space_group_name_H-M    P1
_symmetry_Int_Tables_number       1
_symmetry_cell_setting            triclinic
loop_
_symmetry_equiv_pos_as_xyz
'x, y, z'
_cell_length_a     71.228972
_cell_length_b     71.266354
_cell_length_c     26.316108
_cell_angle_alpha  90.124158
_cell_angle_beta   89.992598
_cell_angle_gamma 90.400988
loop_
_atom_site_label
_atom_site_type_symbol
_atom_site_fract_x
_atom_site_fract_y
_atom_site_fract_z
_atom_type_partial_charge
C0 C 0.78402 0.57351 0.96139 0.0
C1 C 0.80227 0.56625 0.96002 0.0
C2 C 0.77274 0.57092 1.00442 0.0
C3 C 0.7794 0.56064 0.04633 0.0
C4 C 0.79795 0.55399 0.04519 0.0
C5 C 0.80926 0.55691 1.00281 0.0
C6 C 0.76679 0.55533 0.08923 0.0
C7 C 0.74789 0.55077 0.08038 0.0
C8 C 0.73648 0.54339 0.11908 0.0
C9 C 0.74436 0.53999 0.16759 0.0
C10 C 0.76326 0.54509 0.17735 0.0
C11 C 0.77405 0.55307 0.13833 0.0
C12 C 0.77305 0.54146 0.2263 0.0
C13 C 0.78044 0.55667 0.25412 0.0
C14 C 0.77939 0.52332 0.23757 0.0
C15 C 0.7937 0.52061 0.27356 0.0
C16 C 0.80198 0.53599 0.29917 0.0
C17 C 0.71656 0.53928 0.10593 0.0
C18 C 0.7047 0.55422 0.09312 0.0
C19 C 0.71071 0.5209 0.09439 0.0
C20 C 0.69377 0.51763 0.06819 0.0
C21 C 0.68233 0.5327 0.05288 0.0
C22 C 0.6878 0.55099 0.06723 0.0
C23 C 0.79462 0.55397 0.29028 0.0
H24 H 0.77834 0.58076 0.92875 0.0
H25 H 0.75867 0.57656 1.00425 0.0
H26 H 0.80352 0.54561 0.07586 0.0
H27 H 0.82315 0.55078 1.00235 0.0
H28 H 0.74205 0.55223 0.04257 0.0
H29 H 0.78852 0.55696 0.1461 0.0
H30 H 0.73586 0.53377 0.19734 0.0
H31 H 0.77614 0.57085 0.24529 0.0
H32 H 0.77428 0.5114 0.21589 0.0
H33 H 0.79879 0.50652 0.27986 0.0
H34 H 0.7091 0.56855 0.10047 0.0
H35 H 0.71977 0.50917 0.10279 0.0
H36 H 0.80067 0.56619 0.30871 0.0
H37 H 0.67961 0.563 0.05575 0.0
H38 H 0.68996 0.50334 0.05849 0.0
C39 C 0.95571 0.77787 0.95222 0.0
C40 C 0.96563 0.7945 0.94172 0.0
C41 C 0.95746 0.76924 0.99968 0.0
C42 C 0.96918 0.77709 0.03737 0.0
C43 C 0.97805 0.79439 0.02778 0.0
C44 C 0.97622 0.80302 0.98062 0.0
C45 C 0.97394 0.76641 0.084 0.0
C46 C 0.97767 0.74719 0.08045 0.0
C47 C 0.98458 0.73713 0.12201 0.0
C48 C 0.98772 0.74654 0.16873 0.0
C49 C 0.98384 0.76596 0.17294 0.0
C50 C 0.97683 0.77559 0.13058 0.0
C51 C 0.98802 0.77726 0.21929 0.0
C52 C 0.97432 0.77963 0.2571 0.0
C53 C 1.00389 0.78908 0.2199 0.0
C54 C 0.00574 0.80338 0.25633 0.0
C55 C 0.99165 0.80641 0.29304 0.0
C56 C 0.98934 0.71714 0.11256 0.0
C57 C 0.97554 0.70315 0.11857 0.0
C58 C 0.00536 0.71297 0.08358 0.0
C59 C 0.00705 0.69564 0.05869 0.0
C60 C 0.99269 0.68197 0.06187 0.0
C61 C 0.97724 0.68574 0.09384 0.0
C62 C 0.97614 0.79397 0.29365 0.0
H63 H 0.94739 0.77104 0.92304 0.0
H64 H 0.95018 0.75608 1.00623 0.0
H65 H 0.98728 0.80079 0.05564 0.0
H66 H 0.98369 0.81608 0.97398 0.0
H67 H 0.97606 0.74006 0.04424 0.0
H68 H 0.97402 0.79049 0.13374 0.0
H69 H 0.9935 0.73902 0.20078 0.0
H70 H 0.96173 0.77102 0.25677 0.0
H71 H 0.0144 0.78791 0.1903 0.0
H72 H 0.01775 0.81272 0.2538 0.0
H73 H 0.96282 0.70615 0.13955 0.0
H74 H 0.01592 0.72371 0.07696 0.0
H75 H 0.96511 0.79561 0.32158 0.0
H76 H 0.96604 0.67553 0.09818 0.0
H77 H 0.01905 0.69353 0.03416 0.0
C78 C 0.73216 0.93932 0.99551 0.0
C79 C 0.71692 0.9499 0.97797 0.0
C80 C 0.74396 0.94653 0.03355 0.0
C81 C 0.74038 0.9642 0.0552 0.0
C82 C 0.72516 0.9747 0.03753 0.0
C83 C 0.71361 0.96767 0.99927 0.0
C84 C 0.75238 0.97198 0.09603 0.0
C85 C 0.7718 0.97332 0.08953 0.0
C86 C 0.78312 0.98264 0.12548 0.0
C87 C 0.77466 0.99034 0.16958 0.0
C88 C 0.75504 0.9885 0.17699 0.0
C89 C 0.74417 0.97941 0.13988 0.0
C90 C 0.74488 0.99613 0.2218 0.0
C91 C 0.74389 0.98577 0.26711 0.0
C92 C 0.73221 0.01091 0.21467 0.0
C93 C 0.71811 0.01452 0.25045 0.0
C94 C 0.71619 1.00334 0.29423 0.0
C95 C 0.80341 0.98501 0.11301 0.0
C96 C 0.81401 0.96919 0.09941 0.0
C97 C 0.81105 1.00291 0.10397 0.0
C98 C 0.82834 1.00492 0.07866 0.0
C99 C 0.8384 0.98906 0.06206 0.0
C100 C 0.83126 0.97118 0.07446 0.0
C101 C 0.72975 0.9894 0.3031 0.0
H102 H 0.73493 0.92555 0.97979 0.0
H103 H 0.75565 0.93819 0.0467 0.0
H104 H 0.72222 0.98843 0.05328 0.0
H105 H 0.70176 0.976 0.98713 0.0
H106 H 0.77804 0.96795 0.05485 0.0
H107 H 0.72909 0.97822 0.14506 0.0
H108 H 0.78316 0.99771 0.19741 0.0
H109 H 0.75315 0.97398 0.27293 0.0
H110 H 0.73243 0.01888 0.17965 0.0
H111 H 0.70819 0.0256 0.24268 0.0
H112 H 0.80836 0.95521 0.10538 0.0
H113 H 0.80308 0.01534 0.11335 0.0
H114 H 0.72869 0.98042 0.33614 0.0
H115 H 0.83841 0.95861 0.06209 0.0
H116 H 0.8335 0.01893 0.07052 0.0
C117 C 0.51534 0.71135 0.21749 0.0
C118 C 0.52321 0.71331 0.26632 0.0
C119 C 0.51772 0.72534 0.18073 0.0
C120 C 0.52802 0.7418 0.1914 0.0
C121 C 0.53516 0.74429 0.24079 0.0
C122 C 0.53286 0.73018 0.27776 0.0
C123 C 0.53336 0.75473 0.14899 0.0
C124 C 0.5304 0.77439 0.15095 0.0
C125 C 0.53571 0.78579 0.10932 0.0
C126 C 0.54409 0.77752 0.0668 0.0
C127 C 0.54642 0.7581 0.06326 0.0
C128 C 0.54126 0.74686 0.10477 0.0
C129 C 0.55277 0.7496 0.01452 0.0
C130 C 0.54658 0.75709 0.96805 0.0
C131 C 0.5643 0.73366 0.01366 0.0
C132 C 0.5689 0.72503 0.96752 0.0
C133 C 0.56215 0.73223 0.92131 0.0
C134 C 0.53153 0.80613 0.10509 0.0
C135 C 0.5139 0.81165 0.08666 0.0
C136 C 0.54654 0.81898 0.10237 0.0
C137 C 0.5444 0.83631 0.07805 0.0
C138 C 0.5272 0.84119 0.05534 0.0
C139 C 0.51173 0.829 0.06217 0.0
C140 C 0.55137 0.74865 0.92214 0.0
H141 H 0.50801 0.6986 0.2067 0.0
H142 H 0.51202 0.72297 0.14307 0.0
H143 H 0.54328 0.75673 0.25011 0.0
H144 H 0.53891 0.73236 0.31506 0.0
H145 H 0.52377 0.78065 0.18386 0.0
H146 H 0.54299 0.73179 0.10233 0.0
H147 H 0.54825 0.78639 0.03523 0.0
H148 H 0.53743 0.76915 0.96697 0.0
H149 H 0.56953 0.72768 0.04864 0.0
H150 H 0.57711 0.7123 0.96827 0.0
H151 H 0.50223 0.80181 0.08685 0.0
H152 H 0.56039 0.81493 0.11521 0.0
H153 H 0.54616 0.75473 0.88724 0.0
H154 H 0.49829 0.83215 0.0451 0.0
H155 H 0.55653 0.84546 0.07462 0.0
C156 C 0.24567 0.46619 0.29451 0.0
C157 C 0.22787 0.45762 0.29565 0.0
C158 C 0.25472 0.46955 0.2485 0.0
C159 C 0.24646 0.464 0.2022 0.0
C160 C 0.22916 0.45437 0.2035 0.0
C161 C 0.21991 0.45129 0.24972 0.0
C162 C 0.25547 0.46939 0.15316 0.0
C163 C 0.27506 0.47041 0.14954 0.0
C164 C 0.28391 0.47839 0.10724 0.0
C165 C 0.27293 0.48434 0.06554 0.0
C166 C 0.2531 0.48252 0.0674 0.0
C167 C 0.24464 0.47525 0.11161 0.0
C168 C 0.24052 0.4887 0.02527 0.0
C169 C 0.22604 0.50145 0.03563 0.0
C170 C 0.24079 0.47981 0.97753 0.0
C171 C 0.22627 0.48282 0.94217 0.0
C172 C 0.21115 0.4948 0.95377 0.0
C173 C 0.30441 0.48196 0.11229 0.0
C174 C 0.31046 0.49886 0.13466 0.0
C175 C 0.31686 0.46676 0.11132 0.0
C176 C 0.33446 0.46804 0.13514 0.0
C177 C 0.33994 0.48444 0.16151 0.0
C178 C 0.32797 0.50011 0.15898 0.0
C179 C 0.21165 0.50453 1.00042 0.0
H180 H 0.25238 0.47094 0.32921 0.0
H181 H 0.26786 0.47727 0.24941 0.0
H182 H 0.22252 0.44958 0.16875 0.0
H183 H 0.20616 0.44473 0.24912 0.0
H184 H 0.28364 0.46572 0.18103 0.0
H185 H 0.22946 0.47469 0.114 0.0
H186 H 0.27963 0.49068 0.0328 0.0
H187 H 0.22545 0.50854 0.07206 0.0
H188 H 0.25163 0.46972 0.96874 0.0
H189 H 0.22641 0.47501 0.90683 0.0
H190 H 0.30093 0.5106 0.13747 0.0
H191 H 0.31239 0.45342 0.09549 0.0
H192 H 0.20063 0.51426 0.01041 0.0
H193 H 0.33142 0.51295 0.17901 0.0
H194 H 0.34337 0.4558 0.13495 0.0
C195 C 0.05727 0.22841 0.26707 0.0
C196 C 0.0714 0.21536 0.25658 0.0
C197 C 0.05231 0.24173 0.23099 0.0
C198 C 0.06132 0.24219 0.18352 0.0
C199 C 0.07629 0.22985 0.17426 0.0
C200 C 0.08136 0.21654 0.21073 0.0
C201 C 0.05352 0.254 0.14243 0.0
C202 C 0.04723 0.27215 0.15296 0.0
C203 C 0.03698 0.28235 0.11704 0.0
C204 C 0.03315 0.2742 0.06895 0.0
C205 C 0.03988 0.256 0.05746 0.0
C206 C 0.05011 0.24622 0.0944 0.0
C207 C 0.03551 0.24576 0.00937 0.0
C208 C 0.0171 0.23967 0.99889 0.0
C209 C 0.05029 0.23827 0.9805 0.0
C210 C 0.04695 0.22424 0.94417 0.0
C211 C 0.0287 0.21715 0.93585 0.0
C212 C 0.02995 0.30105 0.13331 0.0
C213 C 0.01748 0.30205 0.1746 0.0
C214 C 0.03891 0.31759 0.11703 0.0
C215 C 0.03624 0.33456 0.14342 0.0
C216 C 0.02461 0.33534 0.18685 0.0
C217 C 0.01481 0.31892 0.20091 0.0
C218 C 0.01374 0.2255 0.9626 0.0
H219 H 0.04942 0.22767 0.3023 0.0
H220 H 0.04059 0.25087 0.23914 0.0
H221 H 0.08357 0.23002 0.13811 0.0
H222 H 0.09224 0.2065 0.20194 0.0
H223 H 0.04996 0.27826 0.19005 0.0
H224 H 0.05443 0.23193 0.08667 0.0
H225 H 0.02489 0.28176 0.04127 0.0
H226 H 0.00547 0.24492 0.02117 0.0
H227 H 0.06466 0.24245 0.98838 0.0
H228 H 0.0589 0.21814 0.92496 0.0
H229 H 0.01072 0.28942 0.18867 0.0
H230 H 0.04889 0.31715 0.08601 0.0
H231 H 0.99946 0.22064 0.9568 0.0
H232 H 0.00593 0.31873 0.2343 0.0
H233 H 0.04381 0.34692 0.1308 0.0
C234 C 0.28901 0.07289 0.27095 0.0
C235 C 0.30426 0.08442 0.257 0.0
C236 C 0.27663 0.06591 0.23424 0.0
C237 C 0.27887 0.0707 0.18274 0.0
C238 C 0.29295 0.08377 0.16967 0.0
C239 C 0.30561 0.09038 0.20618 0.0
C240 C 0.26779 0.06082 0.14257 0.0
C241 C 0.24929 0.05488 0.15165 0.0
C242 C 0.2395 0.04384 0.11613 0.0
C243 C 0.24821 0.03904 0.06961 0.0
C244 C 0.26665 0.04547 0.05914 0.0
C245 C 0.27623 0.05607 0.09613 0.0
C246 C 0.27684 0.04124 0.01091 0.0
C247 C 0.2809 0.02271 0.99644 0.0
C248 C 0.28546 0.05601 0.98409 0.0
C249 C 0.29858 0.05245 0.94579 0.0
C250 C 0.30356 0.03396 0.93295 0.0
C251 C 0.22042 0.0373 0.13072 0.0
C252 C 0.21856 0.02276 0.16633 0.0
C253 C 0.20472 0.04838 0.11981 0.0
C254 C 0.18772 0.04554 0.14584 0.0
C255 C 0.18609 0.03165 0.18371 0.0
C256 C 0.2016 0.0199 0.19233 0.0
C257 C 0.29415 0.01911 0.95796 0.0
H258 H 0.28715 0.06842 0.30994 0.0
H259 H 0.26601 0.05591 0.24612 0.0
H260 H 0.29475 0.08831 0.13072 0.0
H261 H 0.31712 0.09922 0.19363 0.0
H262 H 0.24241 0.05865 0.18693 0.0
H263 H 0.29073 0.06001 0.08913 0.0
H264 H 0.24074 0.03053 0.04198 0.0
H265 H 0.27465 0.01104 0.0168 0.0
H266 H 0.28272 0.07045 0.99463 0.0
H267 H 0.30557 0.06432 0.92822 0.0
H268 H 0.23062 0.01438 0.17648 0.0
H269 H 0.20594 0.05997 0.09343 0.0
H270 H 0.29736 1.00467 0.94874 0.0
H271 H 0.20108 0.00923 0.22151 0.0
H272 H 0.17605 0.0547 0.13752 0.0
C273 C 0.47115 0.30065 0.943 0.0
C274 C 0.4892 0.30824 0.93473 0.0
C275 C 0.46819 0.2866 0.97931 0.0
C276 C 0.48318 0.27959 0.00819 0.0
C277 C 0.50143 0.28607 0.9974 0.0
C278 C 0.50442 0.30022 0.96099 0.0
C279 C 0.47909 0.26951 0.05657 0.0
C280 C 0.48609 0.25147 0.06819 0.0
C281 C 0.48249 0.24344 0.11644 0.0
C282 C 0.47238 0.25371 0.1527 0.0
C283 C 0.46563 0.27167 0.14187 0.0
C284 C 0.46867 0.2792 0.09341 0.0
C285 C 0.45732 0.28335 0.18286 0.0
C286 C 0.44545 0.27546 0.22 0.0
C287 C 0.46273 0.30225 0.18764 0.0
C288 C 0.45729 0.31273 0.22976 0.0
C289 C 0.44633 0.3046 0.26844 0.0
C290 C 0.48935 0.22465 0.13199 0.0
C291 C 0.47927 0.20841 0.1184 0.0
C292 C 0.50301 0.22339 0.17034 0.0
C293 C 0.50591 0.20649 0.19627 0.0
C294 C 0.49506 0.19042 0.18494 0.0
C295 C 0.48209 0.19147 0.14454 0.0
C296 C 0.44004 0.28598 0.26248 0.0
H297 H 0.45913 0.3061 0.92277 0.0
H298 H 0.45395 0.282 0.98708 0.0
H299 H 0.51319 0.28121 0.01977 0.0
H300 H 0.51851 0.3057 0.95586 0.0
H301 H 0.49428 0.24387 0.04035 0.0
H302 H 0.46347 0.2931 0.08475 0.0
H303 H 0.47036 0.24784 0.19032 0.0
H304 H 0.44082 0.261 0.21701 0.0
H305 H 0.47215 0.30872 0.16042 0.0
H306 H 0.4628 0.32687 0.23348 0.0
H307 H 0.46836 0.2091 0.0898 0.0
H308 H 0.51064 0.23583 0.18244 0.0
H309 H 0.43147 0.27936 0.29144 0.0
H310 H 0.47364 0.17936 0.13422 0.0
H311 H 0.51587 0.20639 0.22736 0.0
Tb312 Tb 0.99351 0.02359 0.57535 0.0
C313 C 0.05935 0.02992 0.70667 0.0
N314 N 0.05722 0.01817 0.66631 0.0
C315 C 0.08626 0.0297 0.63132 0.0
C316 C 0.07434 0.0429 0.70933 0.0
C317 C 0.07123 0.01695 0.63088 0.0
C318 C 0.08758 0.04305 0.67008 0.0
C319 C 0.04905 0.03933 0.7907 0.0
C320 C 0.04709 0.02807 0.74698 0.0
C321 C 0.06337 0.05296 0.79256 0.0
C322 C 0.07599 0.05476 0.75189 0.0
Tb323 Tb 0.03073 0.99946 0.66762 0.0
N324 N 0.03317 0.01506 0.74317 0.0
C325 C 0.03667 0.03635 0.8313 0.0
C326 C 0.02169 0.01136 0.78355 0.0
C327 C 0.0231 0.02212 0.82796 0.0
H328 H 0.07114 1.00599 0.60255 0.0
H329 H 0.01369 0.01948 0.85948 0.0
H330 H 0.95335 1.00253 0.60021 0.0
H331 H 0.02406 0.04211 0.39369 0.0
H332 H 0.01116 1.00043 0.78087 0.0
H333 H 0.03768 0.04472 0.86562 0.0
H334 H 0.01719 0.04653 0.48483 0.0
H335 H 0.09697 0.029 0.60222 0.0
H336 H 0.06504 0.0619 0.82562 0.0
H337 H 0.08727 0.06501 0.75434 0.0
H338 H 0.93092 0.98138 0.55578 0.0
H339 H 0.09933 0.05279 0.67061 0.0
H340 H 0.00781 0.017 0.34521 0.0
N341 N 0.97182 1.0046 0.53699 0.0
C342 C 0.97463 1.00063 0.48725 0.0
C343 C 0.94326 0.98657 0.53618 0.0
C344 C 0.96238 0.98862 0.46036 0.0
C345 C 0.95594 0.99852 0.56121 0.0
C346 C 0.94668 0.9813 0.48578 0.0
N347 N 0.99909 0.02269 0.48951 0.0
C348 C 0.01072 0.03496 0.46469 0.0
C349 C 0.99184 0.00727 0.41016 0.0
C350 C 0.98905 0.00983 0.46271 0.0
C351 C 0.00518 0.01853 0.38556 0.0
C352 C 0.01437 0.03272 0.41278 0.0
H353 H 0.93686 0.97206 0.46647 0.0
H354 H 0.95672 0.97558 0.38739 0.0
H355 H 0.98262 0.99191 0.34331 0.0
O356 O 0.97955 0.04548 0.53745 0.0
O357 O 0.99296 0.9925 0.58137 0.0
O358 O 0.02375 0.98514 0.59633 0.0
O359 O 0.97463 0.04022 0.61655 0.0
O360 O 0.02371 0.02921 0.56209 0.0
O361 O 0.03843 1.00215 0.58666 0.0
O362 O 0.02675 0.97377 0.70515 0.0
O363 O 0.01579 0.02542 0.68759 0.0
O364 O 0.01566 0.04024 0.61187 0.0
O365 O 0.0545 0.98411 0.68991 0.0
O366 O 1.00145 0.99218 0.68675 0.0
O367 O 0.98276 0.01532 0.65031 0.0
C368 C 0.00703 0.98062 0.57902 0.0
C369 C 0.97746 0.07158 0.5932 0.0
C370 C 0.99957 0.09795 0.58993 0.0
C371 C 0.98981 0.10649 0.63024 0.0
C372 C 0.96784 0.08043 0.63298 0.0
C373 C 0.974 0.09781 0.65131 0.0
C374 C 0.99319 0.08049 0.57156 0.0
C375 C 0.03694 0.01662 0.55584 0.0
C376 C 0.97265 0.05207 0.57961 0.0
C377 C 0.96579 0.98499 0.40868 0.0
C378 C 0.98056 0.99428 0.38361 0.0
C379 C 0.01689 0.04096 0.6614 0.0
C380 C 0.04843 0.9519 0.67389 0.0
C381 C 0.03822 0.92033 0.64972 0.0
C382 C 0.05242 0.91971 0.61281 0.0
C383 C 0.06277 0.95095 0.63715 0.0
C384 C 0.0364 0.93643 0.68018 0.0
C385 C 0.06472 0.93492 0.60695 0.0
C386 C 0.98572 1.0019 0.68391 0.0
C387 C 0.04442 0.9695 0.70167 0.0
H388 H 0.99455 0.11973 0.64611 0.0
H389 H 0.9559 0.07363 0.65084 0.0
H390 H 0.9667 0.10442 0.68258 0.0
H391 H 1.00058 0.07369 0.54071 0.0
H392 H 0.05416 0.90742 0.58903 0.0
H393 H 0.07218 0.96271 0.63082 0.0
H394 H 0.02514 0.9372 0.70782 0.0
H395 H 0.07567 0.93436 0.57849 0.0
Tb396 Tb 0.51866 0.0355 0.66763 0.0
C397 C 0.5117 0.95382 0.61421 0.0
N398 N 0.51938 0.96767 0.58528 0.0
C399 C 0.54657 0.9488 0.57019 0.0
C400 C 0.52148 0.93706 0.62357 0.0
C401 C 0.53643 0.96529 0.56247 0.0
C402 C 0.53913 0.93467 0.6011 0.0
C403 C 0.4861 0.94312 0.66765 0.0
C404 C 0.49434 0.95696 0.63637 0.0
C405 C 0.49588 0.92648 0.67773 0.0
C406 C 0.51352 0.92345 0.65568 0.0
Tb407 Tb 0.50183 0.99415 0.57634 0.0
N408 N 0.48548 0.97347 0.62687 0.0
C409 C 0.46814 0.94628 0.68716 0.0
C410 C 0.46722 0.97564 0.64152 0.0
C411 C 0.4585 0.96244 0.67308 0.0
H412 H 0.5422 0.97606 0.5382 0.0
H413 H 0.44419 0.96454 0.68557 0.0
H414 H 0.48401 0.04656 0.74646 0.0
H415 H 0.56151 0.07799 0.54209 0.0
H416 H 0.45897 0.98707 0.62751 0.0
H417 H 0.46131 0.93603 0.71137 0.0
H418 H 0.55269 0.04937 0.58797 0.0
H419 H 0.56013 0.94701 0.55235 0.0
H420 H 0.48986 0.9158 0.70215 0.0
H421 H 0.52089 0.91055 0.66376 0.0
H422 H 0.46425 0.07409 0.76426 0.0
H423 H 0.5471 0.92199 0.60737 0.0
H424 H 0.54335 0.10709 0.55453 0.0
N425 N 0.50058 0.06047 0.69071 0.0
C426 C 0.50452 0.07696 0.66715 0.0
C427 C 0.47546 0.07506 0.73659 0.0
C428 C 0.49385 0.09317 0.67679 0.0
C429 C 0.48649 0.05938 0.72582 0.0
C430 C 0.47908 0.09201 0.71175 0.0
N431 N 0.52884 0.0614 0.62383 0.0
C432 C 0.54419 0.06161 0.59275 0.0
C433 C 0.52397 0.09436 0.60786 0.0
C434 C 0.5193 0.07753 0.63304 0.0
C435 C 0.53921 0.09441 0.57434 0.0
C436 C 0.54945 0.078 0.5671 0.0
H437 H 0.47053 0.10414 0.72019 0.0
H438 H 0.49019 0.12252 0.65801 0.0
H439 H 0.5166 0.12357 0.59766 0.0
O440 O 0.54574 0.03346 0.69832 0.0
O441 O 0.50341 0.04458 0.59927 0.0
O442 O 0.50624 0.02128 0.53814 0.0
O443 O 0.52371 0.0471 0.74001 0.0
O444 O 0.54051 0.02023 0.62418 0.0
O445 O 0.52724 0.00834 0.55023 0.0
O446 O 0.47786 0.98708 0.53367 0.0
O447 O 0.5209 0.98913 0.64138 0.0
O448 O 0.50979 0.00893 0.70158 0.0
O449 O 0.50529 0.98072 0.50564 0.0
O450 O 0.47993 0.01281 0.60852 0.0
O451 O 0.49228 0.02117 0.68612 0.0
C452 C 0.50344 0.03886 0.55172 0.0
C453 C 0.54353 0.02693 0.78629 0.0
C454 C 0.55776 0.99864 0.82167 0.0
C455 C 0.54783 1.0016 0.86712 0.0
C456 C 0.53393 0.0297 0.83234 0.0
C457 C 0.53601 0.01703 0.87229 0.0
C458 C 0.55543 0.01134 0.78137 0.0
C459 C 0.54183 0.01406 0.57688 0.0
C460 C 0.54024 0.03956 0.74263 0.0
C461 C 0.49827 0.10993 0.65129 0.0
C462 C 0.51331 0.11054 0.61694 0.0
C463 C 0.5168 0.99267 0.68899 0.0
C464 C 0.48394 0.99308 0.44684 0.0
C465 C 0.4683 0.01891 0.40358 0.0
C466 C 0.48014 0.01639 0.3615 0.0
C467 C 0.49538 0.99049 0.40393 0.0
C468 C 0.47023 0.0072 0.446 0.0
C469 C 0.49349 1.00213 0.3616 0.0
C470 C 0.4778 0.01872 0.65578 0.0
C471 C 0.48771 0.98251 0.49398 0.0
H472 H 0.54958 0.9923 0.89922 0.0
H473 H 0.52464 0.04153 0.83726 0.0
H474 H 0.52852 0.01925 0.90757 0.0
H475 H 0.56278 0.00892 0.74593 0.0
H476 H 0.47885 0.02524 0.32828 0.0
H477 H 0.50611 0.97979 0.40367 0.0
H478 H 0.46137 0.00955 0.47887 0.0
H479 H 0.5025 1.00018 0.32892 0.0
Tb480 Tb 0.53098 0.50175 0.55713 0.0
C481 C 0.45331 0.50484 0.6816 0.0
N482 N 0.46016 0.51461 0.64146 0.0
C483 C 0.42982 0.51343 0.60168 0.0
C484 C 0.43457 0.49839 0.68278 0.0
C485 C 0.44844 0.51982 0.60293 0.0
C486 C 0.42292 0.50241 0.64144 0.0
C487 C 0.45807 0.49365 0.76738 0.0
C488 C 0.46481 0.50253 0.72313 0.0
C489 C 0.43966 0.48644 0.76816 0.0
C490 C 0.42793 0.48879 0.72586 0.0
Tb491 Tb 0.49114 0.52335 0.64592 0.0
N492 N 0.48249 0.50959 0.72066 0.0
C493 C 0.46998 0.49255 0.80958 0.0
C494 C 0.49382 0.50949 0.76256 0.0
C495 C 0.48787 0.5007 0.80732 0.0
H496 H 0.45332 0.52911 0.57331 0.0
H497 H 0.49705 0.50028 0.84006 0.0
H498 H 0.56796 0.52345 0.60474 0.0
H499 H 0.50024 0.50273 0.36818 0.0
H500 H 0.50759 0.51588 0.76113 0.0
H501 H 0.46538 0.4858 0.84431 0.0
H502 H 0.50645 0.48933 0.4522 0.0
H503 H 0.42074 0.51726 0.57046 0.0
H504 H 0.43426 0.47939 0.80159 0.0
H505 H 0.41361 0.48358 0.72738 0.0
H506 H 0.59017 0.5485 0.57833 0.0
H507 H 0.40843 0.49769 0.64076 0.0
H508 H 0.51772 0.53091 0.3397 0.0
N509 N 0.55161 0.52518 0.53737 0.0
C510 C 0.54994 0.53268 0.49019 0.0
C511 C 0.57882 0.54428 0.55337 0.0
C512 C 0.56217 0.54702 0.4736 0.0
C513 C 0.56623 0.53018 0.5683 0.0
C514 C 0.57667 0.55289 0.50603 0.0
N515 N 0.52485 0.51149 0.4756 0.0
C516 C 0.51309 0.50245 0.44234 0.0
C517 C 0.53348 0.5335 0.40973 0.0
C518 C 0.53575 0.52598 0.45886 0.0
C519 C 0.51995 0.52551 0.37767 0.0
C520 C 0.50999 0.50967 0.39371 0.0
H521 H 0.58637 0.56388 0.4947 0.0
H522 H 0.56863 0.56621 0.41215 0.0
H523 H 0.54357 0.5543 0.35609 0.0
O524 O 0.54366 0.48435 0.50262 0.0
O525 O 0.52786 0.53206 0.57489 0.0
O526 O 0.49655 0.53523 0.57136 0.0
O527 O 0.55531 0.48695 0.57733 0.0
O528 O 0.50221 0.49125 0.54128 0.0
O529 O 0.48476 0.51669 0.56602 0.0
O530 O 0.50243 0.5488 0.67262 0.0
O531 O 0.50046 0.49502 0.66747 0.0
O532 O 0.51331 0.48064 0.59585 0.0
O533 O 0.47251 0.54427 0.67083 0.0
O534 O 0.52027 0.52578 0.67465 0.0
O535 O 0.53881 0.50281 0.63714 0.0
C536 C 0.5132 0.54178 0.56066 0.0
C537 C 0.55857 0.4579 0.53692 0.0
C538 C 0.54528 0.42624 0.53715 0.0
C539 C 0.56352 0.41904 0.54302 0.0
C540 C 0.57657 0.45047 0.54302 0.0
C541 C 0.57901 0.4311 0.54613 0.0
C542 C 0.54298 0.4458 0.53434 0.0
C543 C 0.48649 0.50094 0.54029 0.0
C544 C 0.55627 0.47828 0.53406 0.0
C545 C 0.55953 0.555 0.4254 0.0
C546 C 0.54519 0.54828 0.39358 0.0
C547 C 0.50611 0.48005 0.6422 0.0
C548 C 0.48421 0.57393 0.64408 0.0
C549 C 0.49837 0.60326 0.61464 0.0
C550 C 0.48351 0.60546 0.58013 0.0
C551 C 0.46948 0.57631 0.60911 0.0
C552 C 0.49849 0.58754 0.64676 0.0
C553 C 0.46915 0.59204 0.57753 0.0
C554 C 0.53539 0.5151 0.67332 0.0
C555 C 0.48598 0.55664 0.67451 0.0
H556 H 0.56593 0.40406 0.54415 0.0
H557 H 0.58873 0.45966 0.54532 0.0
H558 H 0.59296 0.42541 0.55052 0.0
H559 H 0.52905 0.45169 0.53079 0.0
H560 H 0.48312 0.61742 0.55482 0.0
H561 H 0.45841 0.56591 0.60546 0.0
H562 H 0.50976 0.58582 0.67401 0.0
H563 H 0.45785 0.59372 0.55047 0.0
Tb564 Tb 0.01745 0.53283 0.56984 0.0
C565 C 0.00622 0.47339 0.7608 0.0
N566 N 0.0106 0.4715 0.7111 0.0
C567 C 0.03153 0.44634 0.73123 0.0
C568 C 0.01484 0.46233 0.79834 0.0
C569 C 0.02246 0.45765 0.69552 0.0
C570 C 0.02797 0.44893 0.78302 0.0
C571 C 0.98543 0.48662 0.82358 0.0
C572 C 0.9918 0.4852 0.77304 0.0
C573 C 0.99471 0.47662 0.86201 0.0
C574 C 0.00941 0.46445 0.84937 0.0
Tb575 Tb 0.99617 0.49114 0.65511 0.0
N576 N 0.98295 0.49398 0.73443 0.0
C577 C 0.96945 0.49734 0.83345 0.0
C578 C 0.96658 0.50338 0.74342 0.0
C579 C 0.95981 0.50551 0.79301 0.0
H580 H 0.02532 0.4557 0.65558 0.0
H581 H 0.94713 0.51339 0.79994 0.0
H582 H 0.02853 0.56914 0.6457 0.0
H583 H 0.97802 0.53637 0.39543 0.0
H584 H 0.95895 0.50971 0.71248 0.0
H585 H 0.96407 0.49883 0.87175 0.0
H586 H 1.00363 0.5255 0.45183 0.0
H587 H 0.04128 0.43569 0.71882 0.0
H588 H 0.99017 0.47765 0.90122 0.0
H589 H 0.01599 0.45626 0.879 0.0
H590 H 0.01301 0.59799 0.67612 0.0
H591 H 0.03491 0.44011 0.81062 0.0
H592 H 0.95686 0.56173 0.42416 0.0
N593 N 0.00632 0.56166 0.59518 0.0
C594 C 0.99092 0.56791 0.57053 0.0
C595 C 0.00644 0.5895 0.64687 0.0
C596 C 0.98179 0.58452 0.58525 0.0
C597 C 0.0151 0.57305 0.62989 0.0
C598 C 0.98939 0.59498 0.62546 0.0
N599 N 0.99664 0.54429 0.51159 0.0
C600 C 0.99458 0.53675 0.4641 0.0
C601 C 0.97124 0.56563 0.49597 0.0
C602 C 0.98591 0.55885 0.52655 0.0
C603 C 0.96807 0.55705 0.4488 0.0
C604 C 0.98005 0.54279 0.43234 0.0
H605 H 0.98282 0.60783 0.63817 0.0
H606 H 0.95871 0.60322 0.56844 0.0
H607 H 0.94931 0.58647 0.49021 0.0
O608 O 0.04196 0.52471 0.53181 0.0
O609 O 0.99179 0.51689 0.5517 0.0
O610 O 0.97712 0.51294 0.62693 0.0
O611 O 0.03351 0.55348 0.5321 0.0
O612 O 0.01349 0.50545 0.53338 0.0
O613 O 0.01862 0.4853 0.59951 0.0
O614 O 0.97872 0.46743 0.6639 0.0
O615 O 0.02692 0.49471 0.66565 0.0
O616 O 0.0363 0.52369 0.63164 0.0
O617 O 0.98425 0.47873 0.58986 0.0
O618 O 0.99045 0.5203 0.67825 0.0
O619 O 0.01655 0.53674 0.65279 0.0
C620 C 0.97646 0.51774 0.57896 0.0
C621 C 0.06585 0.54708 0.54437 0.0
C622 C 0.09721 0.53718 0.57014 0.0
C623 C 0.10036 0.5549 0.59209 0.0
C624 C 0.06925 0.56476 0.56655 0.0
C625 C 0.08644 0.5686 0.59013 0.0
C626 C 0.08003 0.53351 0.54581 0.0
C627 C 0.01823 0.48882 0.55043 0.0
C628 C 0.0472 0.54193 0.52367 0.0
C629 C 0.96618 0.59067 0.55728 0.0
C630 C 0.96087 0.58118 0.51265 0.0
C631 C 0.03948 0.50834 0.65876 0.0
C632 C 0.95446 0.46596 0.60301 0.0
C633 C 0.92253 0.47708 0.61638 0.0
C634 C 0.91662 0.46647 0.57405 0.0
C635 C 0.94838 0.45555 0.56084 0.0
C636 C 0.94151 0.47658 0.63069 0.0
C637 C 0.9295 0.45576 0.54659 0.0
C638 C 1.00285 0.53376 0.68524 0.0
C639 C 0.97449 0.4667 0.61581 0.0
H640 H 0.1135 0.55811 0.611 0.0
H641 H 0.05858 0.57551 0.56645 0.0
H642 H 0.08892 0.5822 0.60736 0.0
H643 H 0.07763 0.51996 0.52805 0.0
H644 H 0.90215 0.46673 0.56149 0.0
H645 H 0.95828 0.44745 0.53867 0.0
H646 H 0.94628 0.48447 0.66339 0.0
H647 H 0.92487 0.44779 0.51381 0.0
H648 H 0.16881 0.99996 0.22226 0.0
H649 H 0.14259 0.99821 0.28226 0.0
H650 H 0.13848 0.05851 0.28149 0.0
H651 H 0.16476 0.06043 0.22207 0.0
H652 H 0.14093 0.01354 0.37924 0.0
H653 H 0.08394 0.04262 0.25994 0.0
H654 H 0.10594 0.03477 0.23353 0.0
H655 H 0.10447 0.05731 0.26406 0.0
C656 C 0.16231 0.01288 0.23463 0.0
C657 C 0.16898 0.03034 0.21688 0.0
C658 C 0.14725 0.01184 0.2689 0.0
C659 C 0.13833 0.02821 0.28607 0.0
C660 C 0.14477 0.04564 0.26801 0.0
H661 H 0.05019 0.04924 0.51232 0.0
H662 H 0.07459 0.05241 0.4468 0.0
C663 C 0.15985 0.0467 0.2338 0.0
C664 C 0.12301 0.02707 0.32486 0.0
H665 H 0.07702 0.0381 0.34737 0.0
C666 C 0.12694 0.01883 0.3721 0.0
C667 C 0.10475 0.03412 0.31592 0.0
C668 C 0.09941 0.04256 0.26549 0.0
C669 C 0.11327 0.01761 0.41063 0.0
C670 C 0.09495 0.02445 0.40152 0.0
C671 C 0.09103 0.03285 0.35445 0.0
C672 C 0.07961 0.02259 0.43999 0.0
C673 C 0.11872 0.00934 0.46124 0.0
C674 C 0.07398 1.00479 0.45734 0.0
C675 C 0.06003 1.00296 0.49449 0.0
C676 C 0.05118 0.01887 0.51488 0.0
C677 C 0.05654 0.03669 0.49688 0.0
C678 C 0.07055 0.03852 0.4596 0.0
H679 H 0.13416 0.00981 0.46713 0.0
H680 H 0.11185 0.01688 0.4931 0.0
H681 H 0.11419 0.99442 0.46251 0.0
H682 H 0.08041 0.99225 0.44212 0.0
H683 H 0.05614 0.98902 0.50729 0.0
H684 H 0.52654 0.17434 0.22703 0.0
H685 H 0.52807 0.14772 0.28554 0.0
H686 H 0.46793 0.14127 0.27727 0.0
H687 H 0.46628 0.1678 0.21882 0.0
H688 H 0.51318 0.14348 0.37894 0.0
H689 H 0.48435 0.08798 0.25327 0.0
H690 H 0.49141 0.11071 0.22965 0.0
H691 H 0.46888 0.10759 0.25965 0.0
C692 C 0.51362 0.16722 0.23741 0.0
C693 C 0.49629 0.17324 0.21768 0.0
C694 C 0.51453 0.15194 0.27091 0.0
C695 C 0.49816 0.14221 0.28551 0.0
C696 C 0.48085 0.14814 0.26575 0.0
H697 H 0.48729 0.07359 0.5589 0.0
H698 H 0.48603 0.09812 0.49431 0.0
C699 C 0.47993 0.16337 0.23213 0.0
C700 C 0.49911 0.12641 0.32289 0.0
H701 H 0.48711 0.08038 0.34074 0.0
C702 C 0.50746 0.12967 0.37055 0.0
C703 C 0.49199 0.10823 0.31196 0.0
C704 C 0.48383 0.10332 0.26068 0.0
C705 C 0.50848 0.1155 0.40772 0.0
C706 C 0.50059 0.09754 0.39765 0.0
C707 C 0.49275 0.09415 0.34942 0.0
C708 C 0.50051 0.08213 0.43645 0.0
C709 C 0.51855 0.11979 0.45688 0.0
C710 C 0.50821 0.06447 0.42516 0.0
C711 C 0.50862 0.05022 0.46195 0.0
C712 C 0.50149 0.05333 0.51115 0.0
C713 C 0.49326 0.0708 0.52183 0.0
C714 C 0.49264 0.08493 0.48488 0.0
H715 H 0.52845 0.1318 0.45274 0.0
H716 H 0.50814 0.12357 0.48646 0.0
H717 H 0.52653 0.10742 0.47024 0.0
H718 H 0.5142 0.06178 0.38804 0.0
H719 H 0.515 0.03693 0.45223 0.0
H720 H 0.36418 0.51399 0.18296 0.0
H721 H 0.38994 0.51484 0.24411 0.0
H722 H 0.38086 0.45628 0.27728 0.0
H723 H 0.35438 0.45555 0.21866 0.0
H724 H 0.38534 0.475 0.36266 0.0
H725 H 0.44262 0.49684 0.23339 0.0
H726 H 0.42354 0.5131 0.23252 0.0
H727 H 0.41992 0.48944 0.21016 0.0
C728 C 0.36758 0.50124 0.20317 0.0
C729 C 0.35704 0.48467 0.19519 0.0
C730 C 0.38259 0.50169 0.2378 0.0
C731 C 0.38773 0.48553 0.26493 0.0
C732 C 0.37738 0.46894 0.25671 0.0
H733 H 0.47494 0.46696 0.50021 0.0
H734 H 0.4514 0.46163 0.43281 0.0
C735 C 0.36229 0.4685 0.22246 0.0
C736 C 0.40319 0.48612 0.30368 0.0
H737 H 0.44898 0.49945 0.3226 0.0
C738 C 0.39931 0.48012 0.35358 0.0
C739 C 0.42155 0.49272 0.29225 0.0
C740 C 0.42723 0.4982 0.23905 0.0
C741 C 0.41296 0.48114 0.39231 0.0
C742 C 0.43106 0.48828 0.38111 0.0
C743 C 0.43509 0.49398 0.33121 0.0
C744 C 0.44557 0.4911 0.42143 0.0
C745 C 0.4078 0.47518 0.4455 0.0
C746 C 0.45028 0.50936 0.43698 0.0
C747 C 0.4635 0.51238 0.47548 0.0
C748 C 0.47252 0.49722 0.49926 0.0
C749 C 0.46813 0.4789 0.48293 0.0
C750 C 0.45467 0.47586 0.44454 0.0
H751 H 0.39257 0.472 0.44936 0.0
H752 H 0.41579 0.46241 0.45568 0.0
H753 H 0.41167 0.48636 0.47313 0.0
H754 H 0.44357 0.52133 0.41958 0.0
H755 H 0.46682 0.5267 0.48624 0.0
H756 H 0.99432 0.34953 0.23965 0.0
H757 H 0.99391 0.37568 0.29972 0.0
H758 H 0.05233 0.38692 0.26873 0.0
H759 H 0.05313 0.3602 0.21043 0.0
H760 H 0.04589 0.38771 0.36879 0.0
H761 H 0.99213 0.43112 0.27431 0.0
H762 H 0.98381 0.40786 0.28794 0.0
H763 H 1.00277 0.4112 0.24354 0.0
C764 C 0.00713 0.35752 0.24546 0.0
C765 C 0.02376 0.35261 0.21972 0.0
C766 C 0.0068 0.37269 0.27954 0.0
C767 C 0.02301 0.38358 0.28847 0.0
C768 C 0.03957 0.37888 0.26246 0.0
H769 H 0.02347 0.49144 0.44766 0.0
H770 H 0.02549 0.46603 0.38537 0.0
C771 C 0.03995 0.36365 0.22853 0.0
C772 C 0.02292 0.39934 0.32633 0.0
H773 H 1.00042 0.43992 0.35886 0.0
C774 C 0.03599 0.39916 0.3664 0.0
C775 C 0.01021 0.41451 0.3232 0.0
C776 C 0.99656 0.41633 0.27965 0.0
C777 C 0.03651 0.41345 0.40357 0.0
C778 C 0.0233 0.42822 0.40154 0.0
C779 C 0.01043 0.42856 0.361 0.0
C780 C 0.02276 0.44364 0.44037 0.0
C781 C 0.0515 0.41274 0.44399 0.0
C782 C 0.02051 0.43971 0.49241 0.0
C783 C 0.01953 0.45428 0.52834 0.0
C784 C 0.02052 0.47318 0.51308 0.0
C785 C 0.02271 0.47708 0.46096 0.0
C786 C 0.02382 0.46252 0.42515 0.0
H787 H 0.06361 0.40408 0.43177 0.0
H788 H 0.05672 0.42702 0.45369 0.0
H789 H 0.04554 0.4063 0.47885 0.0
H790 H 0.01911 0.42535 0.50527 0.0
H791 H 0.01746 0.4507 0.56787 0.0
H792 H 0.84432 0.01407 0.98421 0.0
H793 H 0.87053 0.01526 0.92429 0.0
H794 H 0.89697 0.96938 1.00236 0.0
H795 H 0.87084 0.96814 0.06271 0.0
H796 H 0.90871 0.02095 0.93711 0.0
H797 H 0.89527 0.95002 0.85673 0.0
H798 H 0.87855 0.96182 0.89696 0.0
H799 H 0.89862 0.95052 0.92435 0.0
C800 C 0.85582 1.0044 0.98928 0.0
C801 C 0.85531 0.99094 0.02842 0.0
C802 C 0.87078 1.00501 0.95463 0.0
C803 C 0.8856 0.99215 0.95796 0.0
C804 C 0.88549 0.97914 0.99801 0.0
H805 H 0.98487 0.97615 0.7625 0.0
H806 H 0.96139 0.97343 0.83047 0.0
C807 C 0.87053 0.97848 0.03267 0.0
C808 C 0.90104 0.99242 0.91941 0.0
H809 H 0.92224 0.96611 0.82693 0.0
C810 C 0.91165 0.00894 0.91307 0.0
C811 C 0.905 0.97674 0.888 0.0
C812 C 0.89368 0.95881 0.89137 0.0
C813 C 0.92603 0.01022 0.8765 0.0
C814 C 0.92977 0.99467 0.8445 0.0
C815 C 0.91941 0.97802 0.85139 0.0
C816 C 0.9438 0.99575 0.80234 0.0
C817 C 0.93726 0.02821 0.87281 0.0
C818 C 0.94153 0.00881 0.76304 0.0
C819 C 0.95487 0.01041 0.72423 0.0
C820 C 0.9709 0.99891 0.72338 0.0
C821 C 0.97284 0.98535 0.76192 0.0
C822 C 0.9594 0.98377 0.80088 0.0
H823 H 0.93647 0.03651 0.90852 0.0
H824 H 0.95223 0.02534 0.86425 0.0
H825 H 0.93149 0.03692 0.84167 0.0
H826 H 0.92941 0.01791 0.7625 0.0
H827 H 0.95267 0.02093 0.69526 0.0
H828 H 0.49808 0.8663 0.04364 0.0
H829 H 0.49569 0.892 0.98205 0.0
H830 H 0.5511 0.87945 0.92639 0.0
H831 H 0.55344 0.85358 0.98659 0.0
H832 H 0.51866 0.92417 0.96813 0.0
H833 H 0.51938 0.87904 0.79633 0.0
H834 H 0.5152 0.86982 0.8592 0.0
H835 H 0.53872 0.87517 0.83873 0.0
C836 C 0.50974 0.86895 0.0182 0.0
C837 C 0.52597 0.85778 0.02042 0.0
C838 C 0.50838 0.88372 0.98308 0.0
C839 C 0.52309 0.88752 0.94888 0.0
C840 C 0.53942 0.87664 0.95165 0.0
H841 H 0.54289 0.9648 0.69745 0.0
H842 H 0.54405 0.93977 0.76121 0.0
C843 C 0.54082 0.86196 0.98678 0.0
C844 C 0.52153 0.90292 0.9106 0.0
H845 H 0.52238 0.91179 0.78288 0.0
C846 C 0.5194 0.92147 0.9276 0.0
C847 C 0.52246 0.89945 0.85764 0.0
C848 C 0.52389 0.87978 0.83671 0.0
C849 C 0.51873 0.93666 0.89341 0.0
C850 C 0.51981 0.93323 0.84025 0.0
C851 C 0.52172 0.91459 0.82337 0.0
C852 C 0.51905 0.9486 0.80144 0.0
C853 C 0.51724 0.9562 0.9153 0.0
C854 C 0.5045 0.96184 0.8018 0.0
C855 C 0.50405 0.97633 0.76591 0.0
C856 C 0.51779 0.97758 0.7277 0.0
C857 C 0.5321 0.96415 0.72643 0.0
C858 C 0.53272 0.94982 0.76286 0.0
H859 H 0.52389 0.95706 0.95343 0.0
H860 H 0.52385 0.96692 0.89057 0.0
H861 H 0.50218 0.95972 0.91996 0.0
H862 H 0.49337 0.96095 0.82969 0.0
H863 H 0.49265 0.9863 0.7673 0.0
H864 H 0.67846 0.50783 0.97325 0.0
H865 H 0.65235 0.50482 0.91335 0.0
H866 H 0.62227 0.54784 0.99407 0.0
H867 H 0.64823 0.55084 0.05451 0.0
H868 H 0.61432 0.49609 0.92636 0.0
H869 H 0.62272 0.56806 0.84893 0.0
H870 H 0.64034 0.55722 0.88819 0.0
H871 H 0.61966 0.56703 0.91661 0.0
C872 C 0.66619 0.51648 0.97892 0.0
C873 C 0.66562 0.52968 0.01887 0.0
C874 C 0.65128 0.51482 0.94427 0.0
C875 C 0.63544 0.52636 0.94837 0.0
C876 C 0.63451 0.53909 0.98915 0.0
H877 H 0.53568 0.5396 0.75488 0.0
H878 H 0.55904 0.54203 0.82306 0.0
C879 C 0.6494 0.54077 0.02384 0.0
C880 C 0.62001 0.52513 0.9098 0.0
H881 H 0.59672 0.55039 0.81925 0.0
C882 C 0.61049 0.50797 0.90294 0.0
C883 C 0.6149 0.54062 0.87918 0.0
C884 C 0.62501 0.55924 0.88311 0.0
C885 C 0.59599 0.50593 0.86684 0.0
C886 C 0.59105 0.52134 0.83572 0.0
C887 C 0.60042 0.53856 0.84299 0.0
C888 C 0.57663 0.51974 0.79445 0.0
C889 C 0.58587 0.48731 0.86309 0.0
C890 C 0.57877 0.50662 0.75499 0.0
C891 C 0.56541 0.50514 0.71607 0.0
C892 C 0.54955 0.51686 0.71514 0.0
C893 C 0.54757 0.53022 0.75432 0.0
C894 C 0.56097 0.53166 0.79339 0.0
H895 H 0.58716 0.47911 0.89878 0.0
H896 H 0.57073 0.48923 0.8546 0.0
H897 H 0.59217 0.47891 0.83198 0.0
H898 H 0.59092 0.49759 0.75395 0.0
H899 H 0.56762 0.49478 0.68656 0.0
H900 H 0.96313 0.66404 0.01411 0.0
H901 H 0.96402 0.63727 0.95614 0.0
H902 H 0.02415 0.63472 0.97252 0.0
H903 H 0.02331 0.66086 0.03262 0.0
H904 H 0.98028 0.63421 0.86531 0.0
H905 H 0.01108 0.58045 0.9911 0.0
H906 H 1.00243 0.60249 0.01509 0.0
H907 H 0.02544 0.60115 0.98697 0.0
C908 C 0.97654 0.65752 0.00664 0.0
C909 C 0.99314 0.6647 0.02881 0.0
C910 C 0.97704 0.64227 0.97283 0.0
C911 C 0.99412 0.63366 0.96016 0.0
C912 C 0.01071 0.64072 0.98231 0.0
H913 H 0.03077 0.55258 0.735 0.0
H914 H 0.0278 0.5762 0.80225 0.0
C915 C 0.01022 0.65592 0.01635 0.0
C916 C 0.99462 0.61797 0.92207 0.0
H917 H 0.01033 0.57318 0.90242 0.0
C918 C 0.98669 0.62081 0.87373 0.0
C919 C 1.00297 0.60038 0.93266 0.0
C920 C 0.01079 0.59583 0.98443 0.0
C921 C 0.9873 0.60687 0.83564 0.0
C922 C 0.99592 0.58946 0.84604 0.0
C923 C 1.00373 0.58652 0.89437 0.0
C924 C 0.99753 0.57442 0.80662 0.0
C925 C 0.97921 0.61107 0.78394 0.0
C926 C 0.98153 0.5652 0.78717 0.0
C927 C 0.9832 0.55158 0.74875 0.0
C928 C 1.00091 0.54698 0.72881 0.0
C929 C 0.01691 0.55591 0.74924 0.0
C930 C 0.01524 0.56939 0.7878 0.0
H931 H 0.97625 0.62624 0.779 0.0
H932 H 0.98897 0.60651 0.75348 0.0
H933 H 0.96585 0.60316 0.77908 0.0
H934 H 0.96771 0.56866 0.80144 0.0
H935 H 0.97059 0.54508 0.73363 0.0
H936 H 0.1027 0.20428 0.30942 0.0
H937 H 0.10439 0.17835 0.37148 0.0
H938 H 0.04641 0.16449 0.34059 0.0
H939 H 0.04473 0.19007 0.27968 0.0
H940 H 0.08141 0.17567 0.45892 0.0
H941 H 0.07154 0.11309 0.33909 0.0
H942 H 0.08033 0.13508 0.31408 0.0
H943 H 0.05542 0.13092 0.31987 0.0
C944 C 0.09051 0.1954 0.31557 0.0
C945 C 0.07356 0.19908 0.29035 0.0
C946 C 0.09148 0.18067 0.35074 0.0
C947 C 0.07563 0.16931 0.35979 0.0
C948 C 0.05894 0.17277 0.33327 0.0
H949 H 1.00504 0.13536 0.57216 0.0
H950 H 0.03073 0.15022 0.52661 0.0
C951 C 0.05791 0.18749 0.29892 0.0
C952 C 0.07518 0.1552 0.40078 0.0
H953 H 0.05509 0.11251 0.42184 0.0
C954 C 0.07634 0.16156 0.45116 0.0
C955 C 0.06916 0.13663 0.3909 0.0
C956 C 0.06926 0.12849 0.33797 0.0
C957 C 0.06908 0.15072 0.49113 0.0
C958 C 0.0601 0.13343 0.47987 0.0
C959 C 0.06148 0.126 0.43055 0.0
C960 C 0.04646 0.12463 0.51522 0.0
C961 C 0.0701 0.15843 0.54447 0.0
C962 C 0.04647 0.10519 0.52341 0.0
C963 C 0.0315 0.09655 0.5487 0.0
C964 C 0.01628 0.1072 0.56673 0.0
C965 C 0.01667 0.12674 0.55996 0.0
C966 C 0.03151 0.13532 0.53417 0.0
H967 H 0.0835 0.1662 0.55039 0.0
H968 H 0.05851 0.16853 0.55035 0.0
H969 H 0.06896 0.14715 0.57336 0.0
H970 H 0.05771 0.0966 0.50858 0.0
H971 H 0.03174 0.08146 0.55304 0.0
H972 H 0.31764 0.06059 0.3295 0.0
H973 H 0.347 0.06286 0.37498 0.0
H974 H 0.35756 0.11736 0.30978 0.0
H975 H 0.32744 0.11563 0.26506 0.0
H976 H 0.3844 0.09105 0.28637 0.0
H977 H 0.37218 0.0902 0.49281 0.0
H978 H 0.35708 0.0735 0.46188 0.0
H979 H 0.35465 0.09814 0.44815 0.0
C980 C 0.3256 0.07353 0.32643 0.0
C981 C 0.32009 0.08787 0.29299 0.0
C982 C 0.34252 0.0748 0.35273 0.0
C983 C 0.35442 0.09035 0.3462 0.0
C984 C 0.34851 0.10528 0.31559 0.0
H985 H 0.47237 0.05588 0.38036 0.0
H986 H 0.44767 0.07973 0.37499 0.0
C987 C 0.33137 0.10415 0.28963 0.0
C988 C 0.37417 0.08887 0.36308 0.0
H989 H 0.39958 0.07235 0.46292 0.0
C990 C 0.38801 0.08762 0.32529 0.0
C991 C 0.37882 0.08457 0.41387 0.0
C992 C 0.36489 0.08688 0.45652 0.0
C993 C 0.40563 0.07985 0.33573 0.0
C994 C 0.40955 0.07358 0.38563 0.0
C995 C 0.39647 0.0769 0.42454 0.0
C996 C 0.42522 0.06058 0.39594 0.0
C997 C 0.41909 0.07672 0.2922 0.0
C998 C 0.42098 0.04223 0.41183 0.0
C999 C 0.43508 0.02884 0.41561 0.0
C1000 C 0.45367 0.03351 0.40311 0.0
C1001 C 0.45806 0.05203 0.38921 0.0
C1002 C 0.44398 0.06556 0.38617 0.0
H1003 H 0.41271 0.08003 0.25479 0.0
H1004 H 0.43161 0.08587 0.29721 0.0
H1005 H 0.42385 0.06192 0.29143 0.0
H1006 H 0.4066 0.03804 0.41944 0.0
H1007 H 0.43134 0.01464 0.42644 0.0
H1008 H 0.43897 0.34191 0.28305 0.0
H1009 H 0.44728 0.35992 0.35869 0.0
H1010 H 0.45629 0.30859 0.44131 0.0
H1011 H 0.44916 0.29045 0.36486 0.0
H1012 H 0.44099 0.36406 0.46325 0.0
H1013 H 0.5092 0.32911 0.42181 0.0
H1014 H 0.48933 0.32686 0.37996 0.0
H1015 H 0.48994 0.31402 0.43867 0.0
C1016 C 0.44229 0.33443 0.31765 0.0
C1017 C 0.44416 0.31479 0.31736 0.0
C1018 C 0.44685 0.34475 0.36106 0.0
C1019 C 0.45306 0.33556 0.40497 0.0
C1020 C 0.452 0.31592 0.40726 0.0
H1021 H 0.53895 0.39271 0.58562 0.0
H1022 H 0.51397 0.36991 0.56846 0.0
C1023 C 0.44775 0.30556 0.36353 0.0
C1024 C 0.46419 0.34636 0.44262 0.0
H1025 H 0.50972 0.35451 0.47668 0.0
C1026 C 0.45595 0.36176 0.46722 0.0
C1027 C 0.48376 0.34336 0.44758 0.0
C1028 C 0.49368 0.32755 0.42044 0.0
C1029 C 0.46694 0.37475 0.49453 0.0
C1030 C 0.48661 0.37236 0.49652 0.0
C1031 C 0.49462 0.35628 0.47508 0.0
C1032 C 0.49958 0.38735 0.51398 0.0
C1033 C 0.45749 0.39121 0.51966 0.0
C1034 C 0.49977 0.40472 0.48902 0.0
C1035 C 0.51425 0.41761 0.49785 0.0
C1036 C 0.52886 0.41339 0.53186 0.0
C1037 C 0.52816 0.39628 0.5584 0.0
C1038 C 0.51375 0.38333 0.5492 0.0
H1039 H 0.44283 0.38765 0.53061 0.0
H1040 H 0.46528 0.3959 0.55403 0.0
H1041 H 0.45694 0.40307 0.49247 0.0
H1042 H 0.48936 0.40788 0.46035 0.0
H1043 H 0.51445 0.43045 0.47592 0.0
H1044 H 0.22616 0.48503 0.36759 0.0
H1045 H 0.20568 0.48669 0.44071 0.0
H1046 H 0.1832 0.43183 0.40552 0.0
H1047 H 0.20413 0.42988 0.33159 0.0
H1048 H 0.15639 0.45755 0.41326 0.0
H1049 H 0.20152 0.46532 0.58117 0.0
H1050 H 0.20994 0.48075 0.53251 0.0
H1051 H 0.21012 0.45572 0.522 0.0
C1052 C 0.21744 0.47294 0.37621 0.0
C1053 C 0.2169 0.45726 0.34369 0.0
C1054 C 0.20573 0.47389 0.41843 0.0
C1055 C 0.1932 0.4592 0.42945 0.0
C1056 C 0.19298 0.44321 0.39813 0.0
H1057 H 0.09349 0.4997 0.59126 0.0
H1058 H 0.11645 0.47509 0.57299 0.0
C1059 C 0.2048 0.44221 0.35567 0.0
C1060 C 0.17838 0.4624 0.46793 0.0
H1061 H 0.17239 0.48439 0.58198 0.0
C1062 C 0.15972 0.46272 0.45103 0.0
C1063 C 0.1827 0.46894 0.51738 0.0
C1064 C 0.20217 0.46744 0.53939 0.0
C1065 C 0.14573 0.47163 0.47952 0.0
C1066 C 0.1506 0.4802 0.52631 0.0
C1067 C 0.16877 0.478 0.5458 0.0
C1068 C 0.13828 0.49445 0.54941 0.0
C1069 C 0.12634 0.47348 0.45693 0.0
C1070 C 0.14338 0.51343 0.54497 0.0
C1071 C 0.13035 0.52746 0.55519 0.0
C1072 C 0.112 0.52269 0.56994 0.0
C1073 C 0.10744 0.50372 0.57876 0.0
C1074 C 0.12052 0.48967 0.5686 0.0
H1075 H 0.12535 0.46725 0.41828 0.0
H1076 H 0.11597 0.46625 0.48168 0.0
H1077 H 0.12236 0.48849 0.45465 0.0
H1078 H 0.15704 0.51738 0.53013 0.0
H1079 H 0.13425 0.54193 0.54802 0.0
H1080 H 0.99648 0.80691 0.89162 0.0
H1081 H 0.99805 0.82245 0.80981 0.0
H1082 H 0.93842 0.81425 0.78953 0.0
H1083 H 0.93663 0.79915 0.87347 0.0
H1084 H 0.98853 0.81267 0.71031 0.0
H1085 H 0.94412 0.87114 0.78307 0.0
H1086 H 0.95292 0.85361 0.82603 0.0
H1087 H 0.93483 0.84762 0.7812 0.0
C1088 C 0.98365 0.80846 0.86999 0.0
C1089 C 0.96635 0.8023 0.88959 0.0
C1090 C 0.98461 0.81708 0.82278 0.0
C1091 C 0.96833 0.81968 0.79372 0.0
C1092 C 0.95112 0.8126 0.81166 0.0
H1093 H 0.01952 0.89926 0.57762 0.0
H1094 H 0.99693 0.87358 0.59303 0.0
C1095 C 0.95013 0.80394 0.85943 0.0
C1096 C 0.96981 0.83173 0.74814 0.0
H1097 H 0.96647 0.87832 0.72135 0.0
C1098 C 0.98315 0.82687 0.7111 0.0
C1099 C 0.96248 0.85013 0.74874 0.0
C1100 C 0.9478 0.85608 0.78677 0.0
C1101 C 0.99155 0.84064 0.68037 0.0
C1102 C 0.98618 0.85952 0.68665 0.0
C1103 C 0.97069 0.86379 0.71742 0.0
C1104 C 0.99938 0.87498 0.67486 0.0
C1105 C 0.00767 0.83531 0.64622 0.0
C1106 C 0.00831 0.88402 0.7157 0.0
C1107 C 0.02111 0.89846 0.70716 0.0
C1108 C 0.02527 0.90426 0.6575 0.0
C1109 C 0.01658 0.89502 0.6163 0.0
C1110 C 1.00364 0.88045 0.62498 0.0
H1111 H 0.00989 0.8199 0.64504 0.0
H1112 H 1.00493 0.84029 0.607 0.0
H1113 H 0.02079 0.84219 0.65972 0.0
H1114 H 0.00544 0.87978 0.75449 0.0
H1115 H 0.02782 0.90507 0.73958 0.0
H1116 H 0.70409 0.96751 0.89362 0.0
H1117 H 0.67568 0.95959 0.84655 0.0
H1118 H 0.6711 0.90735 0.92832 0.0
H1119 H 0.69939 0.91559 0.97704 0.0
H1120 H 0.65848 0.93058 0.78884 0.0
H1121 H 0.62714 0.9378 0.98256 0.0
H1122 H 0.65145 0.94351 0.97124 0.0
H1123 H 0.64379 0.91943 0.97152 0.0
C1124 C 0.69731 0.95411 0.9006 0.0
C1125 C 0.70357 0.9424 0.93984 0.0
C1126 C 0.68117 0.9495 0.87338 0.0
C1127 C 0.67103 0.9331 0.88489 0.0
C1128 C 0.67856 0.92024 0.9196 0.0
H1129 H 0.55414 0.9624 0.85598 0.0
H1130 H 0.57844 0.93842 0.85919 0.0
C1131 C 0.69475 0.92491 0.94716 0.0
C1132 C 0.65121 0.93195 0.86823 0.0
H1133 H 0.60805 0.94366 0.91355 0.0
C1134 C 0.64726 0.93281 0.81602 0.0
C1135 C 0.6365 0.93459 0.90372 0.0
C1136 C 0.6398 0.93387 0.9604 0.0
C1137 C 0.62948 0.93822 0.79855 0.0
C1138 C 0.61554 0.94321 0.83429 0.0
C1139 C 0.6188 0.94004 0.88613 0.0
C1140 C 0.59944 0.95531 0.82077 0.0
C1141 C 0.62618 0.93957 0.7421 0.0
C1142 C 0.60296 0.97263 0.79712 0.0
C1143 C 0.58908 0.9863 0.79516 0.0
C1144 C 0.57143 0.98307 0.81745 0.0
C1145 C 0.56762 0.9654 0.83891 0.0
C1146 C 0.58146 0.9516 0.84035 0.0
H1147 H 0.63363 0.92814 0.72179 0.0
H1148 H 0.61101 0.93878 0.73258 0.0
H1149 H 0.63197 0.95309 0.72798 0.0
H1150 H 0.61686 0.97617 0.78337 0.0
H1151 H 0.59264 0.99985 0.77911 0.0
H1152 H 0.53616 0.72672 0.84687 0.0
H1153 H 0.53852 0.70681 0.7723 0.0
H1154 H 0.59562 0.69329 0.81147 0.0
H1155 H 0.5935 0.71362 0.88677 0.0
H1156 H 0.56383 0.70398 0.68618 0.0
H1157 H 0.5667 0.64286 0.81845 0.0
H1158 H 0.5607 0.66593 0.84117 0.0
H1159 H 0.58443 0.66087 0.82311 0.0
C1160 C 0.54946 0.72001 0.8391 0.0
C1161 C 0.56463 0.72172 0.87301 0.0
C1162 C 0.55076 0.7086 0.79633 0.0
C1163 C 0.56719 0.69853 0.78655 0.0
C1164 C 0.58276 0.70086 0.81868 0.0
H1165 H 0.53621 0.59777 0.62399 0.0
H1166 H 0.55988 0.62109 0.64819 0.0
C1167 C 0.58148 0.71237 0.86176 0.0
C1168 C 0.56658 0.68388 0.74676 0.0
H1169 H 0.55667 0.63727 0.73589 0.0
C1170 C 0.56283 0.68928 0.69649 0.0
C1171 C 0.56556 0.6647 0.76015 0.0
C1172 C 0.56949 0.65811 0.81359 0.0
C1173 C 0.55635 0.67619 0.66051 0.0
C1174 C 0.55317 0.65743 0.67575 0.0
C1175 C 0.55895 0.6517 0.72429 0.0
C1176 C 0.54071 0.64451 0.64693 0.0
C1177 C 0.55211 0.68276 0.60734 0.0
C1178 C 0.52222 0.65002 0.63625 0.0
C1179 C 0.5087 0.63674 0.62218 0.0
C1180 C 0.51336 0.61766 0.61936 0.0
C1181 C 0.53216 0.61235 0.62647 0.0
C1182 C 0.54573 0.62568 0.63994 0.0
H1183 H 0.56206 0.69403 0.59571 0.0
H1184 H 0.5529 0.67107 0.57946 0.0
H1185 H 0.53777 0.68873 0.60625 0.0
H1186 H 0.5178 0.66433 0.64273 0.0
H1187 H 0.49432 0.64123 0.6173 0.0
H1188 H 0.79053 0.55478 0.86659 0.0
H1189 H 0.81078 0.54492 0.79642 0.0
H1190 H 0.85922 0.56619 0.87677 0.0
H1191 H 0.83906 0.576 0.94723 0.0
H1192 H 0.84262 0.56109 0.73291 0.0
H1193 H 0.86214 0.50687 0.87521 0.0
H1194 H 0.84186 0.52165 0.88283 0.0
H1195 H 0.86495 0.53086 0.8952 0.0
C1196 C 0.80539 0.55808 0.86831 0.0
C1197 C 0.81332 0.5659 0.9125 0.0
C1198 C 0.81693 0.5524 0.82828 0.0
C1199 C 0.83646 0.55457 0.83204 0.0
C1200 C 0.84416 0.56427 0.87358 0.0
H1201 H 0.92891 0.51194 0.6569 0.0
H1202 H 0.90704 0.53163 0.70381 0.0
C1203 C 0.83267 0.56985 0.9137 0.0
C1204 C 0.84879 0.54385 0.7978 0.0
H1205 H 0.87741 0.50565 0.79592 0.0
C1206 C 0.85029 0.54901 0.74655 0.0
C1207 C 0.85846 0.52791 0.81581 0.0
C1208 C 0.85672 0.52133 0.87014 0.0
C1209 C 0.86164 0.53875 0.71294 0.0
C1210 C 0.87147 0.52303 0.73131 0.0
C1211 C 0.86978 0.51777 0.78228 0.0
C1212 C 0.88394 0.5119 0.69866 0.0
C1213 C 0.86298 0.54452 0.65799 0.0
C1214 C 0.87814 0.49425 0.68083 0.0
C1215 C 0.89062 0.48291 0.65395 0.0
C1216 C 0.90915 0.48901 0.64495 0.0
C1217 C 0.91481 0.50677 0.66311 0.0
C1218 C 0.9023 0.51813 0.68957 0.0
H1219 H 0.8537 0.55653 0.64903 0.0
H1220 H 0.87769 0.54852 0.64892 0.0
H1221 H 0.8591 0.53248 0.63318 0.0
H1222 H 0.86405 0.48917 0.68839 0.0
H1223 H 0.88587 0.46923 0.64114 0.0
H1224 H 0.04607 0.20823 0.84527 0.0
H1225 H 0.04325 0.17919 0.79594 0.0
H1226 H 1.00211 0.15825 0.9021 0.0
H1227 H 1.00491 0.18714 0.95174 0.0
H1228 H 0.05101 0.14339 0.82586 0.0
H1229 H 0.97637 0.14722 0.76802 0.0
H1230 H 0.98895 0.16714 0.79386 0.0
H1231 H 0.97967 0.14932 0.8354 0.0
C1232 C 0.03633 0.19751 0.85809 0.0
C1233 C 0.02568 0.2002 0.90265 0.0
C1234 C 0.0347 0.18088 0.82967 0.0
C1235 C 0.02229 0.1665 0.84472 0.0
C1236 C 0.01145 0.16923 0.88876 0.0
H1237 H 0.99892 0.0515 0.74837 0.0
H1238 H 1.00062 0.082 0.7919 0.0
C1239 C 0.01306 0.18586 0.9172 0.0
C1240 C 0.02145 0.14832 0.81601 0.0
H1241 H 0.99153 0.11788 0.75513 0.0
C1242 C 0.03801 0.13792 0.81005 0.0
C1243 C 1.00452 0.14104 0.79532 0.0
C1244 C 0.9864 0.15183 0.79797 0.0
C1245 C 0.03803 0.12035 0.78532 0.0
C1246 C 0.02107 0.113 0.76511 0.0
C1247 C 1.00453 0.12344 0.7707 0.0
C1248 C 0.02017 0.09443 0.73855 0.0
C1249 C 0.05614 0.10954 0.78238 0.0
C1250 C 0.03055 0.09117 0.69395 0.0
C1251 C 0.02953 0.07376 0.66909 0.0
C1252 C 0.01803 0.05931 0.68794 0.0
C1253 C 0.00781 0.06246 0.7328 0.0
C1254 C 0.00874 0.07989 0.75758 0.0
H1255 H 0.06662 0.11471 0.81047 0.0
H1256 H 0.05362 0.09436 0.78905 0.0
H1257 H 0.06228 0.11118 0.74388 0.0
H1258 H 0.03933 0.10215 0.67806 0.0
H1259 H 0.03799 0.07144 0.63556 0.0
H1260 H 0.31268 0.05354 0.84592 0.0
H1261 H 0.3405 0.05014 0.79239 0.0
H1262 H 0.35838 1.00317 0.88264 0.0
H1263 H 0.33082 0.00671 0.93724 0.0
H1264 H 0.37817 0.05284 0.82576 0.0
H1265 H 0.36405 0.98374 0.73539 0.0
H1266 H 0.34589 0.99733 0.7658 0.0
H1267 H 0.36199 0.98394 0.80346 0.0
C1268 C 0.32246 0.04243 0.85453 0.0
C1269 C 0.31938 0.03046 0.89637 0.0
C1270 C 0.33837 0.04046 0.82358 0.0
C1271 C 0.35153 0.02632 0.83308 0.0
C1272 C 0.34829 0.014 0.87384 0.0
H1273 H 0.46838 0.01627 0.75611 0.0
H1274 H 0.43741 0.0187 0.795 0.0
C1275 C 0.33243 0.01602 0.90505 0.0
C1276 C 0.36919 0.02524 0.80243 0.0
H1277 H 0.39487 0.99645 0.72501 0.0
C1278 C 0.38172 0.04056 0.80344 0.0
C1279 C 0.37385 0.00927 0.77293 0.0
C1280 C 0.3607 0.99267 0.7688 0.0
C1281 C 0.39894 0.04012 0.77717 0.0
C1282 C 0.40383 0.02396 0.74894 0.0
C1283 C 0.39112 0.00883 0.74669 0.0
C1284 C 0.42257 0.02225 0.72411 0.0
C1285 C 0.41195 0.05688 0.78007 0.0
C1286 C 0.42459 0.02326 0.67101 0.0
C1287 C 0.44247 0.02218 0.64843 0.0
C1288 C 0.45863 0.01993 0.67858 0.0
C1289 C 0.45638 0.01849 0.73163 0.0
C1290 C 0.43863 0.01974 0.75406 0.0
H1291 H 0.40481 0.06946 0.7956 0.0
H1292 H 0.42398 0.05352 0.80518 0.0
H1293 H 0.41766 0.06028 0.74188 0.0
H1294 H 0.41237 0.02512 0.64712 0.0
H1295 H 0.44366 0.02319 0.60749 0.0
H1296 H 0.51781 0.31657 0.86711 0.0
H1297 H 0.52195 0.34519 0.81626 0.0
H1298 H 0.47047 0.3672 0.87745 0.0
H1299 H 0.46643 0.33902 0.92887 0.0
H1300 H 0.49762 0.36117 0.74174 0.0
H1301 H 0.5084 0.40983 0.90392 0.0
H1302 H 0.51018 0.38468 0.91028 0.0
H1303 H 0.48754 0.39566 0.90876 0.0
C1304 C 0.50742 0.32755 0.86998 0.0
C1305 C 0.49174 0.32535 0.90215 0.0
C1306 C 0.50977 0.34389 0.84068 0.0
C1307 C 0.49666 0.35853 0.84342 0.0
C1308 C 0.48095 0.35629 0.87513 0.0
H1309 H 0.47996 0.46851 0.71182 0.0
H1310 H 0.47837 0.43902 0.75841 0.0
C1311 C 0.47854 0.33998 0.90412 0.0
C1312 C 0.49913 0.37605 0.81283 0.0
H1313 H 0.50339 0.42378 0.82317 0.0
C1314 C 0.49901 0.37485 0.75954 0.0
C1315 C 0.50095 0.39395 0.83589 0.0
C1316 C 0.50196 0.39618 0.89285 0.0
C1317 C 0.50005 0.39104 0.72886 0.0
C1318 C 0.50171 0.40898 0.75187 0.0
C1319 C 0.50208 0.41011 0.80523 0.0
C1320 C 0.50258 0.42681 0.7217 0.0
C1321 C 0.49902 0.38872 0.67205 0.0
C1322 C 0.51672 0.43004 0.68525 0.0
C1323 C 0.51766 0.44713 0.65868 0.0
C1324 C 0.50458 0.46145 0.66809 0.0
C1325 C 0.49043 0.45807 0.70423 0.0
C1326 C 0.48946 0.44106 0.73075 0.0
H1327 H 0.49233 0.37517 0.66108 0.0
H1328 H 0.49115 0.40032 0.654 0.0
H1329 H 0.51353 0.3888 0.65695 0.0
H1330 H 0.5273 0.41953 0.6781 0.0
H1331 H 0.529 0.44938 0.63206 0.0
H1332 H 0.21003 0.49556 0.84847 0.0
H1333 H 0.18239 0.49851 0.79337 0.0
H1334 H 0.14665 0.50042 0.92537 0.0
H1335 H 0.17397 0.49736 0.98037 0.0
H1336 H 0.15069 0.47646 0.7814 0.0
H1337 H 0.13003 0.54685 0.84936 0.0
H1338 H 0.15265 0.53685 0.86339 0.0
H1339 H 0.13235 0.53036 0.90034 0.0
C1340 C 0.19629 0.49656 0.86584 0.0
C1341 C 0.19441 0.49651 0.91919 0.0
C1342 C 0.18046 0.49831 0.8342 0.0
C1343 C 0.16236 0.50012 0.85504 0.0
C1344 C 0.16043 0.49962 0.90815 0.0
H1345 H 0.05278 0.48005 0.7203 0.0
H1346 H 0.08303 0.47818 0.76333 0.0
C1347 C 0.17618 0.4979 0.93969 0.0
C1348 C 0.14541 0.5022 0.82174 0.0
H1349 H 0.10692 0.52977 0.80193 0.0
C1350 C 0.14121 0.4882 0.78568 0.0
C1351 C 0.1331 0.51767 0.82631 0.0
C1352 C 0.13734 0.53389 0.86155 0.0
C1353 C 0.12478 0.48888 0.75573 0.0
C1354 C 0.11194 0.5038 0.7625 0.0
C1355 C 0.11652 0.51816 0.79711 0.0
C1356 C 0.09359 0.50467 0.73473 0.0
C1357 C 0.12142 0.47368 0.71674 0.0
C1358 C 0.08904 0.52037 0.70505 0.0
C1359 C 0.07158 0.52151 0.68053 0.0
C1360 C 0.05811 0.50699 0.68501 0.0
C1361 C 0.0627 0.49138 0.71514 0.0
C1362 C 0.08016 0.49024 0.73969 0.0
H1363 H 0.13474 0.46683 0.70532 0.0
H1364 H 0.11208 0.46276 0.73328 0.0
H1365 H 0.11453 0.47936 0.68225 0.0
H1366 H 0.09903 0.53178 0.70075 0.0
H1367 H 0.06863 0.5339 0.65827 0.0
H1368 H 0.0228 0.82232 0.33916 0.0
H1369 H 0.02452 0.85096 0.3905 0.0
H1370 H 0.96463 0.85747 0.37751 0.0
H1371 H 0.96277 0.82904 0.32565 0.0
H1372 H 0.01386 0.88716 0.36156 0.0
H1373 H 0.9725 0.8647 0.53013 0.0
H1374 H 0.98274 0.84814 0.48625 0.0
H1375 H 0.96166 0.86037 0.46966 0.0
C1376 C 0.00994 0.82977 0.34719 0.0
C1377 C 0.99262 0.82315 0.32803 0.0
C1378 C 0.01095 0.84616 0.37688 0.0
C1379 C 0.99468 0.85634 0.38871 0.0
C1380 C 0.97736 0.8497 0.37017 0.0
H1381 H 0.97438 0.96225 0.55077 0.0
H1382 H 0.9712 0.93262 0.50391 0.0
C1383 C 0.97633 0.83333 0.3404 0.0
C1384 C 0.99602 0.87441 0.41788 0.0
H1385 H 0.98129 0.89675 0.52608 0.0
C1386 C 0.00681 0.88919 0.39767 0.0
C1387 C 0.98669 0.87724 0.46484 0.0
C1388 C 0.97536 0.86176 0.4894 0.0
C1389 C 0.00834 0.90668 0.42252 0.0
C1390 C 0.99923 0.90946 0.46985 0.0
C1391 C 0.98832 0.89471 0.48996 0.0
C1392 C 1.00106 0.92748 0.49913 0.0
C1393 C 0.01931 0.9222 0.39691 0.0
C1394 C 0.01883 0.93447 0.51314 0.0
C1395 C 0.02065 0.95159 0.53905 0.0
C1396 C 1.00474 0.96218 0.55231 0.0
C1397 C 0.98693 0.95486 0.53987 0.0
C1398 C 0.9851 0.93774 0.51353 0.0
H1399 H 0.0204 0.91985 0.35526 0.0
H1400 H 0.01274 0.93607 0.40356 0.0
H1401 H 0.03377 0.92261 0.41256 0.0
H1402 H 0.03137 0.92665 0.50408 0.0
H1403 H 0.03462 0.95659 0.54829 0.0
H1404 H 0.71391 1.00167 0.39909 0.0
H1405 H 0.68555 1.0033 0.45222 0.0
H1406 H 0.65168 0.01051 0.31815 0.0
H1407 H 0.67972 0.00872 0.26502 0.0
H1408 H 0.65661 0.03349 0.45638 0.0
H1409 H 0.62802 0.96451 0.39432 0.0
H1410 H 0.65245 0.97089 0.38692 0.0
H1411 H 0.63519 0.97992 0.34383 0.0
C1412 C 0.70042 1.00358 0.38091 0.0
C1413 C 0.69921 1.00513 0.32762 0.0
C1414 C 0.68422 1.00459 0.41138 0.0
C1415 C 0.66643 0.00686 0.3892 0.0
C1416 C 0.6652 0.0086 0.33619 0.0
H1417 H 0.54957 0.01033 0.4755 0.0
H1418 H 0.58014 0.00891 0.43394 0.0
C1419 C 0.68134 0.00775 0.30584 0.0
C1420 C 0.64903 0.00731 0.42094 0.0
H1421 H 0.60759 0.98401 0.44156 0.0
C1422 C 0.64595 0.0226 0.45359 0.0
C1423 C 0.63508 0.99313 0.4172 0.0
C1424 C 0.63783 0.97608 0.38403 0.0
C1425 C 0.62902 0.02445 0.48105 0.0
C1426 C 0.61492 0.01036 0.4768 0.0
C1427 C 0.61826 0.99487 0.44492 0.0
C1428 C 0.59631 0.01168 0.5032 0.0
C1429 C 0.62613 0.04189 0.51262 0.0
C1430 C 0.59498 0.01362 0.55634 0.0
C1431 C 0.57737 0.0146 0.58037 0.0
C1432 C 0.56067 0.01337 0.55191 0.0
C1433 C 0.56207 0.01126 0.49882 0.0
C1434 C 0.57961 0.01044 0.47488 0.0
H1435 H 0.63576 0.05343 0.50095 0.0
H1436 H 0.61145 0.04692 0.50962 0.0
H1437 H 0.62904 0.03865 0.55306 0.0
H1438 H 0.60755 0.01412 0.57943 0.0
H1439 H 0.57686 0.01605 0.62133 0.0
H1440 H 0.49362 0.68905 0.28374 0.0
H1441 H 0.49293 0.66118 0.33763 0.0
H1442 H 0.54937 0.67317 0.38757 0.0
H1443 H 0.5503 0.70099 0.33314 0.0
H1444 H 0.51623 0.63046 0.32972 0.0
H1445 H 0.52266 0.66198 0.52193 0.0
H1446 H 0.51696 0.67571 0.46654 0.0
H1447 H 0.54082 0.66895 0.4784 0.0
C1448 C 0.50592 0.68586 0.30621 0.0
C1449 C 0.52206 0.69738 0.30362 0.0
C1450 C 0.50545 0.6699 0.3373 0.0
C1451 C 0.52102 0.66504 0.36718 0.0
C1452 C 0.53701 0.67673 0.36577 0.0
H1453 H 0.54249 0.56719 0.56264 0.0
H1454 H 0.54531 0.59669 0.51493 0.0
C1455 C 0.53751 0.69271 0.33453 0.0
C1456 C 0.52086 0.64712 0.39691 0.0
H1457 H 0.52464 0.62882 0.51665 0.0
C1458 C 0.51798 0.63015 0.37065 0.0
C1459 C 0.52336 0.64657 0.45033 0.0
C1460 C 0.52597 0.66427 0.48114 0.0
C1461 C 0.51759 0.61276 0.39599 0.0
C1462 C 0.51969 0.61221 0.44954 0.0
C1463 C 0.5229 0.62915 0.47578 0.0
C1464 C 0.5181 0.59426 0.47883 0.0
C1465 C 0.5153 0.5951 0.36479 0.0
C1466 C 0.5018 0.58309 0.47526 0.0
C1467 C 0.50032 0.56615 0.50188 0.0
C1468 C 0.51504 0.55993 0.53308 0.0
C1469 C 0.53113 0.57133 0.53786 0.0
C1470 C 0.53267 0.58829 0.51092 0.0
H1471 H 0.52002 0.59724 0.32496 0.0
H1472 H 0.52333 0.58332 0.38135 0.0
H1473 H 0.50023 0.59105 0.36375 0.0
H1474 H 0.4901 0.58755 0.45209 0.0
H1475 H 0.48761 0.55784 0.4978 0.0
H1476 H 0.81097 0.55355 0.38963 0.0
H1477 H 0.84024 0.55136 0.43825 0.0
H1478 H 0.86131 0.5109 0.33092 0.0
H1479 H 0.83233 0.51327 0.2816 0.0
H1480 H 0.85737 0.51998 0.48427 0.0
H1481 H 0.90355 0.55045 0.33574 0.0
H1482 H 0.8783 0.55242 0.33378 0.0
H1483 H 0.88942 0.53099 0.31447 0.0
C1484 C 0.82184 0.54422 0.37621 0.0
C1485 C 0.81919 0.53362 0.33145 0.0
C1486 C 0.83857 0.54294 0.4042 0.0
C1487 C 0.85319 0.53122 0.38787 0.0
C1488 C 0.85043 0.52032 0.3439 0.0
H1489 H 0.96546 0.50232 0.48885 0.0
H1490 H 0.93539 0.506 0.44488 0.0
C1491 C 0.83368 0.52151 0.31605 0.0
C1492 C 0.87119 0.53019 0.41706 0.0
H1493 H 0.91871 0.53682 0.4069 0.0
C1494 C 0.87076 0.52382 0.4675 0.0
C1495 C 0.88873 0.53513 0.39525 0.0
C1496 C 0.89011 0.5428 0.34199 0.0
C1497 C 0.88736 0.52168 0.49604 0.0
C1498 C 0.90496 0.52645 0.47418 0.0
C1499 C 0.90532 0.53309 0.4239 0.0
C1500 C 0.92318 0.52409 0.50204 0.0
C1501 C 0.88599 0.51333 0.54839 0.0
C1502 C 0.92661 0.53312 0.54884 0.0
C1503 C 0.9438 0.53084 0.57428 0.0
C1504 C 0.95801 0.5197 0.55322 0.0
C1505 C 0.95472 0.51093 0.50613 0.0
C1506 C 0.93752 0.51306 0.48094 0.0
H1507 H 0.87209 0.50667 0.55552 0.0
H1508 H 0.89704 0.50265 0.5533 0.0
H1509 H 0.88817 0.52448 0.57726 0.0
H1510 H 0.91612 0.54217 0.56543 0.0
H1511 H 0.94613 0.53809 0.60998 0.0
loop_
_geom_bond_atom_site_label_1
_geom_bond_atom_site_label_2
_geom_bond_distance
_geom_bond_site_symmetry_2
_ccdc_geom_bond_type
C0 C1 1.386 . S
C0 C2 1.397 . S
C0 H24 0.931 1_554 S
C1 C0 1.386 . S
C1 C5 1.397 . S
C2 C0 1.397 . S
C2 C3 1.384 . S
C2 H25 0.930 . S
C3 C2 1.384 . S
C3 C4 1.377 . S
C3 C6 1.481 . S
C4 C3 1.377 . S
C4 C5 1.389 . S
C4 H26 0.929 . S
C5 C1 1.397 . S
C5 C4 1.389 . S
C5 H27 0.931 . S
C6 C3 1.481 . S
C6 C7 1.387 . S
C6 C11 1.390 . S
C7 C6 1.387 . S
C7 C8 1.401 . S
C7 H28 0.930 . S
C8 C7 1.401 . S
C8 C9 1.376 . S
C8 C17 1.511 . S
C9 C8 1.376 . S
C9 C10 1.392 . S
C9 H30 0.931 . S
C10 C9 1.392 . S
C10 C11 1.361 . S
C10 C12 1.500 . S
C11 C6 1.390 . S
C11 C10 1.361 . S
C11 H29 0.931 . S
C12 C10 1.500 . S
C12 C13 1.371 . S
C12 C14 1.365 . S
C13 C12 1.371 . S
C13 C23 1.386 . S
C13 H31 0.931 . S
C14 C12 1.365 . S
C14 C15 1.409 . S
C14 H32 0.929 . S
C15 C14 1.409 . S
C15 C16 1.380 . S
C15 H33 0.930 . S
C16 C15 1.380 . S
C16 C23 1.357 . S
C17 C8 1.511 . S
C17 C18 1.341 . S
C17 C19 1.371 . S
C18 C17 1.341 . S
C18 C22 1.394 . S
C18 H34 0.930 . S
C19 C17 1.371 . S
C19 C20 1.392 . S
C19 H35 0.931 . S
C20 C19 1.392 . S
C20 C21 1.331 . S
C20 H38 0.932 . S
C21 C20 1.331 . S
C21 C22 1.336 . S
C22 C18 1.394 . S
C22 C21 1.336 . S
C22 H37 0.929 . S
C23 C13 1.386 . S
C23 C16 1.357 . S
C23 H36 0.928 . S
H24 C0 0.931 1_556 S
H25 C2 0.930 . S
H26 C4 0.929 . S
H27 C5 0.931 . S
H28 C7 0.930 . S
H29 C11 0.931 . S
H30 C9 0.931 . S
H31 C13 0.931 . S
H32 C14 0.929 . S
H33 C15 0.930 . S
H34 C18 0.930 . S
H35 C19 0.931 . S
H36 C23 0.928 . S
H37 C22 0.929 . S
H38 C20 0.932 . S
C39 C40 1.386 . S
C39 C41 1.397 . S
C39 H63 0.931 1_554 S
C40 C39 1.386 . S
C40 C44 1.397 . S
C41 C39 1.397 . S
C41 C42 1.384 . S
C41 H64 0.930 . S
C42 C41 1.384 . S
C42 C43 1.377 . S
C42 C45 1.481 . S
C43 C42 1.377 . S
C43 C44 1.389 . S
C43 H65 0.929 . S
C44 C40 1.397 . S
C44 C43 1.389 . S
C44 H66 0.931 . S
C45 C42 1.481 . S
C45 C46 1.387 . S
C45 C50 1.390 . S
C46 C45 1.387 . S
C46 C47 1.401 . S
C46 H67 0.930 . S
C47 C46 1.401 . S
C47 C48 1.376 . S
C47 C56 1.511 . S
C48 C47 1.376 . S
C48 C49 1.392 . S
C48 H69 0.931 . S
C49 C48 1.392 . S
C49 C50 1.361 . S
C49 C51 1.500 . S
C50 C45 1.390 . S
C50 C49 1.361 . S
C50 H68 0.931 . S
C51 C49 1.500 . S
C51 C52 1.371 . S
C51 C53 1.365 . S
C52 C51 1.371 . S
C52 C62 1.386 . S
C52 H70 0.931 . S
C53 C51 1.365 . S
C53 C54 1.409 . S
C53 H71 0.929 . S
C54 C53 1.409 . S
C54 C55 1.380 . S
C54 H72 0.930 . S
C55 C54 1.380 . S
C55 C62 1.357 . S
C56 C47 1.511 . S
C56 C57 1.341 . S
C56 C58 1.371 . S
C57 C56 1.341 . S
C57 C61 1.394 . S
C57 H73 0.930 . S
C58 C56 1.371 . S
C58 C59 1.392 . S
C58 H74 0.931 . S
C59 C58 1.392 . S
C59 C60 1.331 . S
C59 H77 0.932 . S
C60 C59 1.331 . S
C60 C61 1.336 . S
C61 C57 1.394 . S
C61 C60 1.336 . S
C61 H76 0.929 . S
C62 C52 1.386 . S
C62 C55 1.357 . S
C62 H75 0.928 . S
H63 C39 0.931 1_556 S
H64 C41 0.930 . S
H65 C43 0.929 . S
H66 C44 0.931 . S
H67 C46 0.930 . S
H68 C50 0.931 . S
H69 C48 0.931 . S
H70 C52 0.931 . S
H71 C53 0.929 . S
H72 C54 0.930 . S
H73 C57 0.930 . S
H74 C58 0.931 . S
H75 C62 0.928 . S
H76 C61 0.929 . S
H77 C59 0.932 . S
C78 C79 1.386 . S
C78 C80 1.397 . S
C78 H102 0.931 1_554 S
C79 C78 1.386 . S
C79 C83 1.397 . S
C80 C78 1.397 . S
C80 C81 1.384 . S
C80 H103 0.930 . S
C81 C80 1.384 . S
C81 C82 1.377 . S
C81 C84 1.481 . S
C82 C81 1.377 . S
C82 C83 1.389 . S
C82 H104 0.929 . S
C83 C79 1.397 . S
C83 C82 1.389 . S
C83 H105 0.931 . S
C84 C81 1.481 . S
C84 C85 1.387 . S
C84 C89 1.390 . S
C85 C84 1.387 . S
C85 C86 1.401 . S
C85 H106 0.930 . S
C86 C85 1.401 . S
C86 C87 1.376 . S
C86 C95 1.511 . S
C87 C86 1.376 . S
C87 C88 1.392 . S
C87 H108 0.931 . S
C88 C87 1.392 . S
C88 C89 1.361 . S
C88 C90 1.500 . S
C89 C84 1.390 . S
C89 C88 1.361 . S
C89 H107 0.931 . S
C90 C88 1.500 . S
C90 C91 1.371 . S
C90 C92 1.365 . S
C91 C90 1.371 . S
C91 C101 1.386 . S
C91 H109 0.931 . S
C92 C90 1.365 . S
C92 C93 1.409 . S
C92 H110 0.929 . S
C93 C92 1.409 . S
C93 C94 1.380 . S
C93 H111 0.930 . S
C94 C93 1.380 . S
C94 C101 1.357 . S
C95 C86 1.511 . S
C95 C96 1.341 . S
C95 C97 1.371 . S
C96 C95 1.341 . S
C96 C100 1.394 . S
C96 H112 0.930 . S
C97 C95 1.371 . S
C97 C98 1.392 . S
C97 H113 0.931 . S
C98 C97 1.392 . S
C98 C99 1.331 . S
C98 H116 0.932 . S
C99 C98 1.331 . S
C99 C100 1.336 . S
C100 C96 1.394 . S
C100 C99 1.336 . S
C100 H115 0.929 . S
C101 C91 1.386 . S
C101 C94 1.357 . S
C101 H114 0.928 . S
H102 C78 0.931 1_556 S
H103 C80 0.930 . S
H104 C82 0.929 . S
H105 C83 0.931 . S
H106 C85 0.930 . S
H107 C89 0.931 . S
H108 C87 0.931 . S
H109 C91 0.931 . S
H110 C92 0.929 . S
H111 C93 0.930 . S
H112 C96 0.930 . S
H113 C97 0.931 . S
H114 C101 0.928 . S
H115 C100 0.929 . S
H116 C98 0.932 . S
C117 C118 1.386 . S
C117 C119 1.397 . S
C117 H141 0.931 . S
C118 C117 1.386 . S
C118 C122 1.397 . S
C119 C117 1.397 . S
C119 C120 1.384 . S
C119 H142 0.930 . S
C120 C119 1.384 . S
C120 C121 1.377 . S
C120 C123 1.481 . S
C121 C120 1.377 . S
C121 C122 1.389 . S
C121 H143 0.929 . S
C122 C118 1.397 . S
C122 C121 1.389 . S
C122 H144 0.931 . S
C123 C120 1.481 . S
C123 C124 1.387 . S
C123 C128 1.390 . S
C124 C123 1.387 . S
C124 C125 1.401 . S
C124 H145 0.930 . S
C125 C124 1.401 . S
C125 C126 1.376 . S
C125 C134 1.511 . S
C126 C125 1.376 . S
C126 C127 1.392 . S
C126 H147 0.931 . S
C127 C126 1.392 . S
C127 C128 1.361 . S
C127 C129 1.500 . S
C128 C123 1.390 . S
C128 C127 1.361 . S
C128 H146 0.931 . S
C129 C127 1.500 . S
C129 C130 1.371 . S
C129 C131 1.365 . S
C130 C129 1.371 . S
C130 C140 1.386 . S
C130 H148 0.931 . S
C131 C129 1.365 . S
C131 C132 1.409 . S
C131 H149 0.929 . S
C132 C131 1.409 . S
C132 C133 1.380 . S
C132 H150 0.930 . S
C133 C132 1.380 . S
C133 C140 1.357 . S
C134 C125 1.511 . S
C134 C135 1.341 . S
C134 C136 1.371 . S
C135 C134 1.341 . S
C135 C139 1.394 . S
C135 H151 0.930 . S
C136 C134 1.371 . S
C136 C137 1.392 . S
C136 H152 0.931 . S
C137 C136 1.392 . S
C137 C138 1.331 . S
C137 H155 0.932 . S
C138 C137 1.331 . S
C138 C139 1.336 . S
C139 C135 1.394 . S
C139 C138 1.336 . S
C139 H154 0.929 . S
C140 C130 1.386 . S
C140 C133 1.357 . S
C140 H153 0.928 1_554 S
H141 C117 0.931 . S
H142 C119 0.930 . S
H143 C121 0.929 . S
H144 C122 0.931 . S
H145 C124 0.930 . S
H146 C128 0.931 . S
H147 C126 0.931 . S
H148 C130 0.931 . S
H149 C131 0.929 . S
H150 C132 0.930 . S
H151 C135 0.930 . S
H152 C136 0.931 . S
H153 C140 0.928 1_556 S
H154 C139 0.929 . S
H155 C137 0.932 . S
C156 C157 1.386 . S
C156 C158 1.397 . S
C156 H180 0.931 . S
C157 C156 1.386 . S
C157 C161 1.397 . S
C158 C156 1.397 . S
C158 C159 1.384 . S
C158 H181 0.930 . S
C159 C158 1.384 . S
C159 C160 1.377 . S
C159 C162 1.481 . S
C160 C159 1.377 . S
C160 C161 1.389 . S
C160 H182 0.929 . S
C161 C157 1.397 . S
C161 C160 1.389 . S
C161 H183 0.931 . S
C162 C159 1.481 . S
C162 C163 1.387 . S
C162 C167 1.390 . S
C163 C162 1.387 . S
C163 C164 1.401 . S
C163 H184 0.930 . S
C164 C163 1.401 . S
C164 C165 1.376 1_554 S
C164 C173 1.511 . S
C165 C164 1.376 1_556 S
C165 C166 1.392 . S
C165 H186 0.931 . S
C166 C165 1.392 . S
C166 C167 1.361 1_556 S
C166 C168 1.500 . S
C167 C162 1.390 . S
C167 C166 1.361 1_554 S
C167 H185 0.931 . S
C168 C166 1.500 . S
C168 C169 1.371 . S
C168 C170 1.365 . S
C169 C168 1.371 . S
C169 C179 1.386 . S
C169 H187 0.931 . S
C170 C168 1.365 . S
C170 C171 1.409 . S
C170 H188 0.929 . S
C171 C170 1.409 . S
C171 C172 1.380 . S
C171 H189 0.930 . S
C172 C171 1.380 . S
C172 C179 1.357 . S
C173 C164 1.511 . S
C173 C174 1.341 . S
C173 C175 1.371 . S
C174 C173 1.341 . S
C174 C178 1.394 . S
C174 H190 0.930 . S
C175 C173 1.371 . S
C175 C176 1.392 . S
C175 H191 0.931 1_554 S
C176 C175 1.392 . S
C176 C177 1.331 . S
C176 H194 0.932 . S
C177 C176 1.331 . S
C177 C178 1.336 . S
C178 C174 1.394 . S
C178 C177 1.336 . S
C178 H193 0.929 . S
C179 C169 1.386 . S
C179 C172 1.357 . S
C179 H192 0.928 . S
H180 C156 0.931 . S
H181 C158 0.930 . S
H182 C160 0.929 . S
H183 C161 0.931 . S
H184 C163 0.930 . S
H185 C167 0.931 . S
H186 C165 0.931 . S
H187 C169 0.931 . S
H188 C170 0.929 . S
H189 C171 0.930 . S
H190 C174 0.930 . S
H191 C175 0.931 1_556 S
H192 C179 0.928 . S
H193 C178 0.929 . S
H194 C176 0.932 . S
C195 C196 1.386 . S
C195 C197 1.397 . S
C195 H219 0.931 . S
C196 C195 1.386 . S
C196 C200 1.397 . S
C197 C195 1.397 . S
C197 C198 1.384 . S
C197 H220 0.930 . S
C198 C197 1.384 . S
C198 C199 1.377 . S
C198 C201 1.481 . S
C199 C198 1.377 . S
C199 C200 1.389 . S
C199 H221 0.929 . S
C200 C196 1.397 . S
C200 C199 1.389 . S
C200 H222 0.931 . S
C201 C198 1.481 . S
C201 C202 1.387 . S
C201 C206 1.390 . S
C202 C201 1.387 . S
C202 C203 1.401 . S
C202 H223 0.930 . S
C203 C202 1.401 . S
C203 C204 1.376 1_554 S
C203 C212 1.511 . S
C204 C203 1.376 1_556 S
C204 C205 1.392 . S
C204 H225 0.931 . S
C205 C204 1.392 . S
C205 C206 1.361 1_556 S
C205 C207 1.500 . S
C206 C201 1.390 . S
C206 C205 1.361 1_554 S
C206 H224 0.931 . S
C207 C205 1.500 . S
C207 C208 1.371 . S
C207 C209 1.365 . S
C208 C207 1.371 . S
C208 C218 1.386 . S
C208 H226 0.931 . S
C209 C207 1.365 . S
C209 C210 1.409 . S
C209 H227 0.929 . S
C210 C209 1.409 . S
C210 C211 1.380 . S
C210 H228 0.930 . S
C211 C210 1.380 . S
C211 C218 1.357 . S
C212 C203 1.511 . S
C212 C213 1.341 . S
C212 C214 1.371 . S
C213 C212 1.341 . S
C213 C217 1.394 . S
C213 H229 0.930 . S
C214 C212 1.371 . S
C214 C215 1.392 . S
C214 H230 0.931 1_554 S
C215 C214 1.392 . S
C215 C216 1.331 . S
C215 H233 0.932 . S
C216 C215 1.331 . S
C216 C217 1.336 . S
C217 C213 1.394 . S
C217 C216 1.336 . S
C217 H232 0.929 . S
C218 C208 1.386 . S
C218 C211 1.357 . S
C218 H231 0.928 . S
H219 C195 0.931 . S
H220 C197 0.930 . S
H221 C199 0.929 . S
H222 C200 0.931 . S
H223 C202 0.930 . S
H224 C206 0.931 . S
H225 C204 0.931 . S
H226 C208 0.931 . S
H227 C209 0.929 . S
H228 C210 0.930 . S
H229 C213 0.930 . S
H230 C214 0.931 1_556 S
H231 C218 0.928 . S
H232 C217 0.929 . S
H233 C215 0.932 . S
C234 C235 1.386 . S
C234 C236 1.397 . S
C234 H258 0.931 . S
C235 C234 1.386 . S
C235 C239 1.397 . S
C236 C234 1.397 . S
C236 C237 1.384 . S
C236 H259 0.930 . S
C237 C236 1.384 . S
C237 C238 1.377 . S
C237 C240 1.481 . S
C238 C237 1.377 . S
C238 C239 1.389 . S
C238 H260 0.929 . S
C239 C235 1.397 . S
C239 C238 1.389 . S
C239 H261 0.931 . S
C240 C237 1.481 . S
C240 C241 1.387 . S
C240 C245 1.390 . S
C241 C240 1.387 . S
C241 C242 1.401 . S
C241 H262 0.930 . S
C242 C241 1.401 . S
C242 C243 1.376 1_554 S
C242 C251 1.511 . S
C243 C242 1.376 1_556 S
C243 C244 1.392 . S
C243 H264 0.931 . S
C244 C243 1.392 . S
C244 C245 1.361 1_556 S
C244 C246 1.500 . S
C245 C240 1.390 . S
C245 C244 1.361 1_554 S
C245 H263 0.931 . S
C246 C244 1.500 . S
C246 C247 1.371 . S
C246 C248 1.365 . S
C247 C246 1.371 . S
C247 C257 1.386 . S
C247 H265 0.931 . S
C248 C246 1.365 . S
C248 C249 1.409 . S
C248 H266 0.929 . S
C249 C248 1.409 . S
C249 C250 1.380 . S
C249 H267 0.930 . S
C250 C249 1.380 . S
C250 C257 1.357 . S
C251 C242 1.511 . S
C251 C252 1.341 . S
C251 C253 1.371 . S
C252 C251 1.341 . S
C252 C256 1.394 . S
C252 H268 0.930 . S
C253 C251 1.371 . S
C253 C254 1.392 . S
C253 H269 0.931 1_554 S
C254 C253 1.392 . S
C254 C255 1.331 . S
C254 H272 0.932 . S
C255 C254 1.331 . S
C255 C256 1.336 . S
C256 C252 1.394 . S
C256 C255 1.336 . S
C256 H271 0.929 . S
C257 C247 1.386 . S
C257 C250 1.357 . S
C257 H270 0.928 . S
H258 C234 0.931 . S
H259 C236 0.930 . S
H260 C238 0.929 . S
H261 C239 0.931 . S
H262 C241 0.930 . S
H263 C245 0.931 . S
H264 C243 0.931 . S
H265 C247 0.931 . S
H266 C248 0.929 . S
H267 C249 0.930 . S
H268 C252 0.930 . S
H269 C253 0.931 1_556 S
H270 C257 0.928 . S
H271 C256 0.929 . S
H272 C254 0.932 . S
C273 C274 1.386 . S
C273 C275 1.397 . S
C273 H297 0.931 . S
C274 C273 1.386 . S
C274 C278 1.397 . S
C275 C273 1.397 . S
C275 C276 1.384 . S
C275 H298 0.930 . S
C276 C275 1.384 . S
C276 C277 1.377 . S
C276 C279 1.481 . S
C277 C276 1.377 . S
C277 C278 1.389 . S
C277 H299 0.929 . S
C278 C274 1.397 . S
C278 C277 1.389 . S
C278 H300 0.931 . S
C279 C276 1.481 . S
C279 C280 1.387 . S
C279 C284 1.390 1_556 S
C280 C279 1.387 . S
C280 C281 1.401 1_556 S
C280 H301 0.930 . S
C281 C280 1.401 1_554 S
C281 C282 1.376 . S
C281 C290 1.511 . S
C282 C281 1.376 . S
C282 C283 1.392 . S
C282 H303 0.931 . S
C283 C282 1.392 . S
C283 C284 1.361 . S
C283 C285 1.500 . S
C284 C279 1.390 1_554 S
C284 C283 1.361 . S
C284 H302 0.931 . S
C285 C283 1.500 . S
C285 C286 1.371 . S
C285 C287 1.365 . S
C286 C285 1.371 . S
C286 C296 1.386 . S
C286 H304 0.931 . S
C287 C285 1.365 . S
C287 C288 1.409 . S
C287 H305 0.929 . S
C288 C287 1.409 . S
C288 C289 1.380 . S
C288 H306 0.930 . S
C289 C288 1.380 . S
C289 C296 1.357 . S
C290 C281 1.511 . S
C290 C291 1.341 . S
C290 C292 1.371 . S
C291 C290 1.341 . S
C291 C295 1.394 . S
C291 H307 0.930 1_554 S
C292 C290 1.371 . S
C292 C293 1.392 . S
C292 H308 0.931 . S
C293 C292 1.392 . S
C293 C294 1.331 . S
C293 H311 0.932 . S
C294 C293 1.331 . S
C294 C295 1.336 . S
C295 C291 1.394 . S
C295 C294 1.336 . S
C295 H310 0.929 . S
C296 C286 1.386 . S
C296 C289 1.357 . S
C296 H309 0.928 . S
H297 C273 0.931 . S
H298 C275 0.930 . S
H299 C277 0.929 . S
H300 C278 0.931 . S
H301 C280 0.930 . S
H302 C284 0.931 . S
H303 C282 0.931 . S
H304 C286 0.931 . S
H305 C287 0.929 . S
H306 C288 0.930 . S
H307 C291 0.930 1_556 S
H308 C292 0.931 . S
H309 C296 0.928 . S
H310 C295 0.929 . S
H311 C293 0.932 . S
Tb312 N341 2.617 . S
Tb312 N347 2.572 . S
Tb312 O356 2.446 1_655 S
Tb312 O357 2.387 1_545 S
Tb312 O359 2.428 . S
Tb312 O360 2.308 1_655 S
Tb312 O364 2.349 1_655 S
Tb312 O367 2.393 . S
Tb312 C376 2.802 . S
C313 N314 1.379 1_545 S
C313 C316 1.416 . S
C313 C320 1.424 . S
N314 C313 1.379 1_565 S
N314 C317 1.334 . S
N314 Tb323 2.617 . S
C315 C317 1.390 1_545 S
C315 C318 1.339 . S
C315 H335 0.930 . S
C316 C313 1.416 . S
C316 C318 1.416 . S
C316 C322 1.448 . S
C317 N314 1.334 . S
C317 C315 1.390 1_565 S
C317 H328 0.930 . S
C318 C315 1.339 . S
C318 C316 1.416 . S
C318 H339 0.930 . S
C319 C320 1.413 . S
C319 C321 1.427 . S
C319 C325 1.416 . S
C320 C313 1.424 . S
C320 C319 1.413 . S
C320 N324 1.361 . S
C321 C319 1.427 . S
C321 C322 1.328 . S
C321 H336 0.929 . S
C322 C316 1.448 . S
C322 C321 1.328 . S
C322 H337 0.930 . S
Tb323 N314 2.617 . S
Tb323 N324 2.572 1_565 S
Tb323 O358 2.349 . S
Tb323 O361 2.393 . S
Tb323 O362 2.465 . S
Tb323 O363 2.387 1_565 S
Tb323 O365 2.428 . S
Tb323 O366 2.299 1_465 S
Tb323 C387 2.802 . S
N324 C320 1.361 . S
N324 Tb323 2.572 1_545 S
N324 C326 1.340 . S
C325 C319 1.416 . S
C325 C327 1.332 . S
C325 H333 0.931 . S
C326 N324 1.340 . S
C326 C327 1.407 . S
C326 H332 0.897 1_445 S
C327 C325 1.332 . S
C327 C326 1.407 . S
C327 H329 0.929 . S
H328 C317 0.930 . S
H329 C327 0.929 . S
H330 C345 0.930 . S
H331 C352 0.925 1_455 S
H332 C326 0.897 1_665 S
H333 C325 0.931 . S
H334 C348 0.955 . S
H335 C315 0.930 . S
H336 C321 0.929 . S
H337 C322 0.930 . S
H338 C343 0.930 . S
H339 C318 0.930 . S
H340 C351 0.931 . S
N341 Tb312 2.617 . S
N341 C342 1.379 . S
N341 C345 1.334 . S
C342 N341 1.379 . S
C342 C344 1.416 1_545 S
C342 C350 1.424 . S
C343 H338 0.930 . S
C343 C345 1.390 . S
C343 C346 1.341 1_545 S
C344 C342 1.416 1_565 S
C344 C346 1.416 . S
C344 C377 1.448 . S
C345 H330 0.930 . S
C345 N341 1.334 . S
C345 C343 1.390 . S
C346 C343 1.341 1_565 S
C346 C344 1.416 . S
C346 H353 0.928 . S
N347 Tb312 2.572 . S
N347 C348 1.317 1_655 S
N347 C350 1.361 . S
C348 H334 0.955 . S
C348 N347 1.317 1_455 S
C348 C352 1.388 1_445 S
C349 C350 1.413 1_565 S
C349 C351 1.416 . S
C349 C378 1.427 . S
C350 C342 1.424 . S
C350 N347 1.361 . S
C350 C349 1.413 1_545 S
C351 H340 0.931 . S
C351 C349 1.416 . S
C351 C352 1.357 . S
C352 H331 0.925 1_655 S
C352 C348 1.388 1_665 S
C352 C351 1.357 . S
H353 C346 0.928 . S
H354 C377 0.930 . S
H355 C378 0.929 . S
O356 Tb312 2.446 1_455 S
O356 C376 1.217 1_455 S
O357 Tb312 2.387 1_565 S
O357 C368 1.264 . S
O358 Tb323 2.349 . S
O358 C368 1.243 1_455 S
O359 Tb312 2.428 . S
O359 C376 1.256 . S
O360 Tb312 2.308 1_455 S
O360 C375 1.266 . S
O361 Tb323 2.393 . S
O361 C375 1.248 1_565 S
O362 Tb323 2.465 . S
O362 C387 1.264 . S
O363 Tb323 2.387 1_545 S
O363 C379 1.264 . S
O364 Tb312 2.349 1_455 S
O364 C379 1.243 . S
O365 Tb323 2.428 . S
O365 C387 1.256 . S
O366 Tb323 2.299 1_645 S
O366 C386 1.274 . S
O367 Tb312 2.393 . S
O367 C386 1.248 . S
C368 O357 1.264 . S
C368 O358 1.243 1_655 S
C369 C372 1.399 . S
C369 C374 1.407 . S
C369 C376 1.496 . S
C370 C371 1.399 . S
C370 C374 1.393 . S
C371 C370 1.399 . S
C371 C373 1.380 . S
C371 H388 0.929 . S
C372 C369 1.399 . S
C372 C373 1.392 . S
C372 H389 0.929 . S
C373 C371 1.380 . S
C373 C372 1.392 . S
C373 H390 0.929 . S
C374 C369 1.407 . S
C374 C370 1.393 . S
C374 H391 0.904 1_655 S
C375 O360 1.266 . S
C375 O361 1.248 1_545 S
C376 Tb312 2.802 . S
C376 O356 1.217 1_655 S
C376 O359 1.256 . S
C376 C369 1.496 . S
C377 C344 1.448 . S
C377 H354 0.930 . S
C377 C378 1.328 . S
C378 C349 1.427 . S
C378 H355 0.929 . S
C378 C377 1.328 . S
C379 O363 1.264 . S
C379 O364 1.243 . S
C380 C383 1.399 . S
C380 C384 1.383 . S
C380 C387 1.496 . S
C381 C382 1.399 . S
C381 C384 1.389 . S
C382 C381 1.399 . S
C382 C385 1.380 . S
C382 H392 0.929 . S
C383 C380 1.399 . S
C383 C385 1.392 . S
C383 H393 0.929 . S
C384 C380 1.383 . S
C384 C381 1.389 . S
C384 H394 0.975 . S
C385 C382 1.380 . S
C385 C383 1.392 . S
C385 H395 0.929 . S
C386 O366 1.274 . S
C386 O367 1.248 . S
C387 Tb323 2.802 . S
C387 O362 1.264 . S
C387 O365 1.256 . S
C387 C380 1.496 . S
H388 C371 0.929 . S
H389 C372 0.929 . S
H390 C373 0.929 . S
H391 C374 0.904 1_455 S
H392 C382 0.929 . S
H393 C383 0.929 . S
H394 C384 0.975 . S
H395 C385 0.929 . S
Tb396 N425 2.617 . S
Tb396 N431 2.572 . S
Tb396 O440 2.465 . S
Tb396 O441 2.387 . S
Tb396 O443 2.428 . S
Tb396 O444 2.308 . S
Tb396 O448 2.349 1_545 S
Tb396 O451 2.393 . S
Tb396 C460 2.802 . S
C397 N398 1.379 . S
C397 C400 1.416 . S
C397 C404 1.424 . S
N398 C397 1.379 . S
N398 C401 1.334 . S
N398 Tb407 2.617 . S
C399 C401 1.390 . S
C399 C402 1.339 . S
C399 H419 0.930 . S
C400 C397 1.416 . S
C400 C402 1.416 . S
C400 C406 1.448 . S
C401 N398 1.334 . S
C401 C399 1.390 . S
C401 H412 0.930 . S
C402 C399 1.339 . S
C402 C400 1.416 . S
C402 H423 0.930 . S
C403 C404 1.413 . S
C403 C405 1.427 . S
C403 C409 1.416 . S
C404 C397 1.424 . S
C404 C403 1.413 . S
C404 N408 1.361 . S
C405 C403 1.427 . S
C405 C406 1.328 . S
C405 H420 0.929 . S
C406 C400 1.448 . S
C406 C405 1.328 . S
C406 H421 0.930 . S
Tb407 N398 2.617 . S
Tb407 N408 2.572 . S
Tb407 O442 2.349 1_565 S
Tb407 O445 2.393 . S
Tb407 O446 2.465 . S
Tb407 O447 2.387 . S
Tb407 O449 2.428 . S
Tb407 O450 2.308 1_565 S
Tb407 C471 2.802 . S
N408 C404 1.361 . S
N408 Tb407 2.572 . S
N408 C410 1.340 . S
C409 C403 1.416 . S
C409 C411 1.332 . S
C409 H417 0.931 . S
C410 N408 1.340 . S
C410 C411 1.407 . S
C410 H416 0.930 . S
C411 C409 1.332 . S
C411 C410 1.407 . S
C411 H413 0.929 . S
H412 C401 0.930 . S
H413 C411 0.929 . S
H414 C429 0.930 . S
H415 C436 0.929 . S
H416 C410 0.930 . S
H417 C409 0.931 . S
H418 C432 0.930 . S
H419 C399 0.930 . S
H420 C405 0.929 . S
H421 C406 0.930 . S
H422 C427 0.930 . S
H423 C402 0.930 . S
H424 C435 0.931 . S
N425 Tb396 2.617 . S
N425 C426 1.379 . S
N425 C429 1.334 . S
C426 N425 1.379 . S
C426 C428 1.416 . S
C426 C434 1.424 . S
C427 H422 0.930 . S
C427 C429 1.390 . S
C427 C430 1.339 . S
C428 C426 1.416 . S
C428 C430 1.416 . S
C428 C461 1.448 . S
C429 H414 0.930 . S
C429 N425 1.334 . S
C429 C427 1.390 . S
C430 C427 1.339 . S
C430 C428 1.416 . S
C430 H437 0.930 . S
N431 Tb396 2.572 . S
N431 C432 1.340 . S
N431 C434 1.361 . S
C432 H418 0.930 . S
C432 N431 1.340 . S
C432 C436 1.407 . S
C433 C434 1.413 . S
C433 C435 1.416 . S
C433 C462 1.427 . S
C434 C426 1.424 . S
C434 N431 1.361 . S
C434 C433 1.413 . S
C435 H424 0.931 . S
C435 C433 1.416 . S
C435 C436 1.332 . S
C436 H415 0.929 . S
C436 C432 1.407 . S
C436 C435 1.332 . S
H437 C430 0.930 . S
H438 C461 0.930 . S
H439 C462 0.929 . S
O440 Tb396 2.465 . S
O440 C460 1.264 . S
O441 Tb396 2.387 . S
O441 C452 1.264 . S
O442 Tb407 2.349 1_545 S
O442 C452 1.243 . S
O443 Tb396 2.428 . S
O443 C460 1.256 . S
O444 Tb396 2.308 . S
O444 C459 1.266 1_545 S
O445 Tb407 2.393 . S
O445 C459 1.248 . S
O446 Tb407 2.465 . S
O446 C471 1.264 . S
O447 Tb407 2.387 . S
O447 C463 1.264 . S
O448 Tb396 2.349 1_565 S
O448 C463 1.243 . S
O449 Tb407 2.428 . S
O449 C471 1.256 . S
O450 Tb407 2.308 1_545 S
O450 C470 1.266 . S
O451 Tb396 2.393 . S
O451 C470 1.248 . S
C452 O441 1.264 . S
C452 O442 1.243 . S
C453 C456 1.399 . S
C453 C458 1.383 . S
C453 C460 1.496 . S
C454 C455 1.399 . S
C454 C458 1.389 . S
C455 C454 1.399 . S
C455 C457 1.380 . S
C455 H472 0.929 . S
C456 C453 1.399 . S
C456 C457 1.392 . S
C456 H473 0.929 . S
C457 C455 1.380 . S
C457 C456 1.392 . S
C457 H474 0.929 . S
C458 C453 1.383 . S
C458 C454 1.389 . S
C458 H475 0.931 . S
C459 O444 1.266 1_565 S
C459 O445 1.248 . S
C460 Tb396 2.802 . S
C460 O440 1.264 . S
C460 O443 1.256 . S
C460 C453 1.496 . S
C461 C428 1.448 . S
C461 H438 0.930 . S
C461 C462 1.328 . S
C462 C433 1.427 . S
C462 H439 0.929 . S
C462 C461 1.328 . S
C463 O447 1.264 . S
C463 O448 1.243 . S
C464 C467 1.399 . S
C464 C468 1.383 1_565 S
C464 C471 1.496 . S
C465 C466 1.399 1_545 S
C465 C468 1.389 . S
C466 C465 1.399 1_565 S
C466 C469 1.380 . S
C466 H476 0.929 . S
C467 C464 1.399 . S
C467 C469 1.392 . S
C467 H477 0.929 . S
C468 C464 1.383 1_545 S
C468 C465 1.389 . S
C468 H478 0.931 . S
C469 C466 1.380 . S
C469 C467 1.392 . S
C469 H479 0.929 . S
C470 O450 1.266 . S
C470 O451 1.248 . S
C471 Tb407 2.802 . S
C471 O446 1.264 . S
C471 O449 1.256 . S
C471 C464 1.496 . S
H472 C455 0.929 . S
H473 C456 0.929 . S
H474 C457 0.929 . S
H475 C458 0.931 . S
H476 C466 0.929 . S
H477 C467 0.929 . S
H478 C468 0.931 . S
H479 C469 0.929 . S
Tb480 N509 2.617 . S
Tb480 N515 2.572 . S
Tb480 O524 2.465 . S
Tb480 O525 2.387 . S
Tb480 O527 2.428 . S
Tb480 O528 2.308 . S
Tb480 O532 2.349 . S
Tb480 O535 2.393 . S
Tb480 C544 2.802 . S
C481 N482 1.379 . S
C481 C484 1.416 . S
C481 C488 1.424 . S
N482 C481 1.379 . S
N482 C485 1.334 . S
N482 Tb491 2.617 . S
C483 C485 1.390 . S
C483 C486 1.339 . S
C483 H503 0.930 . S
C484 C481 1.416 . S
C484 C486 1.416 . S
C484 C490 1.448 . S
C485 N482 1.334 . S
C485 C483 1.390 . S
C485 H496 0.930 . S
C486 C483 1.339 . S
C486 C484 1.416 . S
C486 H507 0.930 . S
C487 C488 1.413 . S
C487 C489 1.427 . S
C487 C493 1.416 . S
C488 C481 1.424 . S
C488 C487 1.413 . S
C488 N492 1.361 . S
C489 C487 1.427 . S
C489 C490 1.328 . S
C489 H504 0.929 . S
C490 C484 1.448 . S
C490 C489 1.328 . S
C490 H505 0.930 . S
Tb491 N482 2.617 . S
Tb491 N492 2.572 . S
Tb491 O526 2.349 . S
Tb491 O529 2.393 . S
Tb491 O530 2.465 . S
Tb491 O531 2.387 . S
Tb491 O533 2.428 . S
Tb491 O534 2.308 . S
Tb491 C555 2.802 . S
N492 C488 1.361 . S
N492 Tb491 2.572 . S
N492 C494 1.340 . S
C493 C487 1.416 . S
C493 C495 1.332 . S
C493 H501 0.931 . S
C494 N492 1.340 . S
C494 C495 1.407 . S
C494 H500 0.930 . S
C495 C493 1.332 . S
C495 C494 1.407 . S
C495 H497 0.929 . S
H496 C485 0.930 . S
H497 C495 0.929 . S
H498 C513 0.930 . S
H499 C520 0.929 . S
H500 C494 0.930 . S
H501 C493 0.931 . S
H502 C516 0.930 . S
H503 C483 0.930 . S
H504 C489 0.929 . S
H505 C490 0.930 . S
H506 C511 0.930 . S
H507 C486 0.930 . S
H508 C519 0.931 . S
N509 Tb480 2.617 . S
N509 C510 1.379 . S
N509 C513 1.334 . S
C510 N509 1.379 . S
C510 C512 1.416 . S
C510 C518 1.424 . S
C511 H506 0.930 . S
C511 C513 1.390 . S
C511 C514 1.339 . S
C512 C510 1.416 . S
C512 C514 1.416 . S
C512 C545 1.448 . S
C513 H498 0.930 . S
C513 N509 1.334 . S
C513 C511 1.390 . S
C514 C511 1.339 . S
C514 C512 1.416 . S
C514 H521 0.930 . S
N515 Tb480 2.572 . S
N515 C516 1.340 . S
N515 C518 1.361 . S
C516 H502 0.930 . S
C516 N515 1.340 . S
C516 C520 1.407 . S
C517 C518 1.413 . S
C517 C519 1.416 . S
C517 C546 1.427 . S
C518 C510 1.424 . S
C518 N515 1.361 . S
C518 C517 1.413 . S
C519 H508 0.931 . S
C519 C517 1.416 . S
C519 C520 1.332 . S
C520 H499 0.929 . S
C520 C516 1.407 . S
C520 C519 1.332 . S
H521 C514 0.930 . S
H522 C545 0.930 . S
H523 C546 0.929 . S
O524 Tb480 2.465 . S
O524 C544 1.264 . S
O525 Tb480 2.387 . S
O525 C536 1.264 . S
O526 Tb491 2.349 . S
O526 C536 1.243 . S
O527 Tb480 2.428 . S
O527 C544 1.256 . S
O528 Tb480 2.308 . S
O528 C543 1.266 . S
O529 Tb491 2.393 . S
O529 C543 1.248 . S
O530 Tb491 2.465 . S
O530 C555 1.264 . S
O531 Tb491 2.387 . S
O531 C547 1.264 . S
O532 Tb480 2.349 . S
O532 C547 1.243 . S
O533 Tb491 2.428 . S
O533 C555 1.256 . S
O534 Tb491 2.308 . S
O534 C554 1.266 . S
O535 Tb480 2.393 . S
O535 C554 1.248 . S
C536 O525 1.264 . S
C536 O526 1.243 . S
C537 C540 1.399 . S
C537 C542 1.383 . S
C537 C544 1.496 . S
C538 C539 1.399 . S
C538 C542 1.389 . S
C539 C538 1.399 . S
C539 C541 1.380 . S
C539 H556 0.929 . S
C540 C537 1.399 . S
C540 C541 1.392 . S
C540 H557 0.929 . S
C541 C539 1.380 . S
C541 C540 1.392 . S
C541 H558 0.929 . S
C542 C537 1.383 . S
C542 C538 1.389 . S
C542 H559 0.931 . S
C543 O528 1.266 . S
C543 O529 1.248 . S
C544 Tb480 2.802 . S
C544 O524 1.264 . S
C544 O527 1.256 . S
C544 C537 1.496 . S
C545 C512 1.448 . S
C545 H522 0.930 . S
C545 C546 1.328 . S
C546 C517 1.427 . S
C546 H523 0.929 . S
C546 C545 1.328 . S
C547 O531 1.264 . S
C547 O532 1.243 . S
C548 C551 1.399 . S
C548 C552 1.383 . S
C548 C555 1.496 . S
C549 C550 1.399 . S
C549 C552 1.389 . S
C550 C549 1.399 . S
C550 C553 1.380 . S
C550 H560 0.929 . S
C551 C548 1.399 . S
C551 C553 1.392 . S
C551 H561 0.929 . S
C552 C548 1.383 . S
C552 C549 1.389 . S
C552 H562 0.931 . S
C553 C550 1.380 . S
C553 C551 1.392 . S
C553 H563 0.929 . S
C554 O534 1.266 . S
C554 O535 1.248 . S
C555 Tb491 2.802 . S
C555 O530 1.264 . S
C555 O533 1.256 . S
C555 C548 1.496 . S
H556 C539 0.929 . S
H557 C540 0.929 . S
H558 C541 0.929 . S
H559 C542 0.931 . S
H560 C550 0.929 . S
H561 C551 0.929 . S
H562 C552 0.931 . S
H563 C553 0.929 . S
Tb564 N593 2.617 . S
Tb564 N599 2.572 . S
Tb564 O608 2.465 . S
Tb564 O609 2.387 1_455 S
Tb564 O611 2.428 . S
Tb564 O612 2.308 . S
Tb564 O616 2.349 . S
Tb564 O619 2.393 . S
Tb564 C628 2.802 . S
C565 N566 1.379 1_455 S
C565 C568 1.416 . S
C565 C572 1.424 . S
N566 C565 1.379 1_655 S
N566 C569 1.334 . S
N566 Tb575 2.617 . S
C567 C569 1.390 1_455 S
C567 C570 1.339 . S
C567 H587 0.931 . S
C568 C565 1.416 . S
C568 C570 1.416 . S
C568 C574 1.448 . S
C569 N566 1.334 . S
C569 C567 1.390 1_655 S
C569 H580 0.930 . S
C570 C567 1.339 . S
C570 C568 1.416 . S
C570 H591 0.930 . S
C571 C572 1.413 . S
C571 C573 1.427 . S
C571 C577 1.416 . S
C572 C565 1.424 . S
C572 C571 1.413 . S
C572 N576 1.361 . S
C573 C571 1.427 . S
C573 C574 1.328 . S
C573 H588 0.929 . S
C574 C568 1.448 . S
C574 C573 1.328 . S
C574 H589 0.930 . S
Tb575 N566 2.617 . S
Tb575 N576 2.572 1_655 S
Tb575 O610 2.349 . S
Tb575 O613 2.393 . S
Tb575 O614 2.465 . S
Tb575 O615 2.387 1_655 S
Tb575 O617 2.428 . S
Tb575 O618 2.296 1_655 S
Tb575 C639 2.802 . S
N576 C572 1.361 . S
N576 Tb575 2.572 1_455 S
N576 C578 1.340 . S
C577 C571 1.416 . S
C577 C579 1.332 . S
C577 H585 0.931 . S
C578 N576 1.340 . S
C578 C579 1.407 . S
C578 H584 0.917 1_455 S
C579 C577 1.332 . S
C579 C578 1.407 . S
C579 H581 0.929 . S
H580 C569 0.930 . S
H581 C579 0.929 . S
H582 C597 0.930 . S
H583 C604 0.931 . S
H584 C578 0.917 1_655 S
H585 C577 0.931 . S
H586 C600 0.930 . S
H587 C567 0.931 . S
H588 C573 0.929 . S
H589 C574 0.930 . S
H590 C595 0.930 . S
H591 C570 0.930 . S
H592 C603 0.931 . S
N593 Tb564 2.617 . S
N593 C594 1.379 . S
N593 C597 1.334 . S
C594 N593 1.379 . S
C594 C596 1.413 1_455 S
C594 C602 1.424 . S
C595 H590 0.930 . S
C595 C597 1.390 . S
C595 C598 1.339 . S
C596 C594 1.413 1_655 S
C596 C598 1.416 1_655 S
C596 C629 1.452 . S
C597 H582 0.930 . S
C597 N593 1.334 . S
C597 C595 1.390 . S
C598 C595 1.339 . S
C598 C596 1.416 1_455 S
C598 H605 0.930 1_455 S
N599 Tb564 2.572 . S
N599 C600 1.340 . S
N599 C602 1.361 . S
C600 H586 0.930 . S
C600 N599 1.340 . S
C600 C604 1.399 1_455 S
C601 C602 1.413 1_655 S
C601 C603 1.416 . S
C601 C630 1.427 . S
C602 C594 1.424 . S
C602 N599 1.361 . S
C602 C601 1.413 1_455 S
C603 H592 0.931 . S
C603 C601 1.416 . S
C603 C604 1.339 . S
C604 H583 0.931 . S
C604 C600 1.399 1_655 S
C604 C603 1.339 . S
H605 C598 0.930 1_655 S
H606 C629 0.930 . S
H607 C630 0.929 . S
O608 Tb564 2.465 . S
O608 C628 1.264 . S
O609 Tb564 2.387 1_655 S
O609 C620 1.264 . S
O610 Tb575 2.349 . S
O610 C620 1.243 . S
O611 Tb564 2.428 . S
O611 C628 1.256 . S
O612 Tb564 2.308 . S
O612 C627 1.266 . S
O613 Tb575 2.393 . S
O613 C627 1.248 1_655 S
O614 Tb575 2.465 . S
O614 C639 1.264 . S
O615 Tb575 2.387 1_455 S
O615 C631 1.264 . S
O616 Tb564 2.349 . S
O616 C631 1.243 . S
O617 Tb575 2.428 . S
O617 C639 1.256 . S
O618 Tb575 2.296 1_455 S
O618 C638 1.277 . S
O619 Tb564 2.393 . S
O619 C638 1.248 . S
C620 O609 1.264 . S
C620 O610 1.243 . S
C621 C624 1.399 . S
C621 C626 1.383 . S
C621 C628 1.496 . S
C622 C623 1.399 . S
C622 C626 1.389 . S
C623 C622 1.399 . S
C623 C625 1.380 . S
C623 H640 0.929 . S
C624 C621 1.399 . S
C624 C625 1.392 . S
C624 H641 0.929 . S
C625 C623 1.380 . S
C625 C624 1.392 . S
C625 H642 0.929 . S
C626 C621 1.383 . S
C626 C622 1.389 . S
C626 H643 0.931 . S
C627 O612 1.266 . S
C627 O613 1.248 1_455 S
C628 Tb564 2.802 . S
C628 O608 1.264 . S
C628 O611 1.256 . S
C628 C621 1.496 . S
C629 C596 1.452 . S
C629 H606 0.930 . S
C629 C630 1.328 . S
C630 C601 1.427 . S
C630 H607 0.929 . S
C630 C629 1.328 . S
C631 O615 1.264 . S
C631 O616 1.243 . S
C632 C635 1.399 . S
C632 C636 1.383 . S
C632 C639 1.496 . S
C633 C634 1.399 . S
C633 C636 1.389 . S
C634 C633 1.399 . S
C634 C637 1.380 . S
C634 H644 0.929 . S
C635 C632 1.399 . S
C635 C637 1.392 . S
C635 H645 0.929 . S
C636 C632 1.383 . S
C636 C633 1.389 . S
C636 H646 0.931 . S
C637 C634 1.380 . S
C637 C635 1.392 . S
C637 H647 0.929 . S
C638 O618 1.277 . S
C638 O619 1.248 . S
C639 Tb575 2.802 . S
C639 O614 1.264 . S
C639 O617 1.256 . S
C639 C632 1.496 . S
H640 C623 0.929 . S
H641 C624 0.929 . S
H642 C625 0.929 . S
H643 C626 0.931 . S
H644 C634 0.929 . S
H645 C635 0.929 . S
H646 C636 0.931 . S
H647 C637 0.929 . S
H648 C656 0.929 . S
H649 C658 0.930 . S
H650 C660 0.930 . S
H651 C663 0.929 . S
H652 C666 0.930 . S
H653 C668 0.960 . S
H654 C668 0.960 . S
H655 C668 0.960 . S
C656 H648 0.929 . S
C656 C657 1.377 . S
C656 C658 1.384 . S
C657 C656 1.377 . S
C657 C663 1.390 . S
C658 H649 0.930 . S
C658 C656 1.384 . S
C658 C659 1.372 . S
C659 C658 1.372 . S
C659 C660 1.400 . S
C659 C664 1.490 . S
C660 H650 0.930 . S
C660 C659 1.400 . S
C660 C663 1.386 . S
H661 C677 0.930 . S
H662 C678 0.931 . S
C663 H651 0.929 . S
C663 C657 1.390 . S
C663 C660 1.386 . S
C664 C659 1.490 . S
C664 C666 1.395 . S
C664 C667 1.403 . S
H665 C671 0.930 . S
C666 H652 0.930 . S
C666 C664 1.395 . S
C666 C669 1.403 . S
C667 C664 1.403 . S
C667 C668 1.524 . S
C667 C671 1.400 . S
C668 H653 0.960 . S
C668 H654 0.960 . S
C668 H655 0.960 . S
C668 C667 1.524 . S
C669 C666 1.403 . S
C669 C670 1.392 . S
C669 C673 1.495 . S
C670 C669 1.392 . S
C670 C671 1.385 . S
C670 C672 1.478 . S
C671 H665 0.930 . S
C671 C667 1.400 . S
C671 C670 1.385 . S
C672 C670 1.478 . S
C672 C674 1.381 . S
C672 C678 1.383 . S
C673 C669 1.495 . S
C673 H679 0.959 1_545 S
C673 H680 0.961 . S
C673 H681 0.960 1_545 S
C674 C672 1.381 . S
C674 C675 1.395 1_545 S
C674 H682 0.930 1_545 S
C675 C674 1.395 1_565 S
C675 C676 1.388 1_565 S
C675 H683 0.923 . S
C676 C675 1.388 1_545 S
C676 C677 1.377 . S
C677 H661 0.930 . S
C677 C676 1.377 . S
C677 C678 1.379 . S
C678 H662 0.931 . S
C678 C672 1.383 . S
C678 C677 1.379 . S
H679 C673 0.959 1_565 S
H680 C673 0.961 . S
H681 C673 0.960 1_565 S
H682 C674 0.930 1_565 S
H683 C675 0.923 . S
H684 C692 0.929 . S
H685 C694 0.930 . S
H686 C696 0.930 . S
H687 C699 0.929 . S
H688 C702 0.930 . S
H689 C704 0.960 . S
H690 C704 0.960 . S
H691 C704 0.960 . S
C692 H684 0.929 . S
C692 C693 1.377 . S
C692 C694 1.384 . S
C693 C692 1.377 . S
C693 C699 1.390 . S
C694 H685 0.930 . S
C694 C692 1.384 . S
C694 C695 1.372 . S
C695 C694 1.372 . S
C695 C696 1.400 . S
C695 C700 1.490 . S
C696 H686 0.930 . S
C696 C695 1.400 . S
C696 C699 1.386 . S
H697 C713 0.930 . S
H698 C714 0.931 . S
C699 H687 0.929 . S
C699 C693 1.390 . S
C699 C696 1.386 . S
C700 C695 1.490 . S
C700 C702 1.395 . S
C700 C703 1.403 . S
H701 C707 0.930 . S
C702 H688 0.930 . S
C702 C700 1.395 . S
C702 C705 1.403 . S
C703 C700 1.403 . S
C703 C704 1.524 . S
C703 C707 1.400 . S
C704 H689 0.960 . S
C704 H690 0.960 . S
C704 H691 0.960 . S
C704 C703 1.524 . S
C705 C702 1.403 . S
C705 C706 1.392 . S
C705 C709 1.495 . S
C706 C705 1.392 . S
C706 C707 1.385 . S
C706 C708 1.478 . S
C707 H701 0.930 . S
C707 C703 1.400 . S
C707 C706 1.385 . S
C708 C706 1.478 . S
C708 C710 1.381 . S
C708 C714 1.383 . S
C709 C705 1.495 . S
C709 H715 0.959 . S
C709 H716 0.961 . S
C709 H717 0.960 . S
C710 C708 1.381 . S
C710 C711 1.394 . S
C710 H718 0.930 . S
C711 C710 1.394 . S
C711 C712 1.383 . S
C711 H719 0.929 . S
C712 C711 1.383 . S
C712 C713 1.377 . S
C713 H697 0.930 . S
C713 C712 1.377 . S
C713 C714 1.379 . S
C714 H698 0.931 . S
C714 C708 1.383 . S
C714 C713 1.379 . S
H715 C709 0.959 . S
H716 C709 0.961 . S
H717 C709 0.960 . S
H718 C710 0.930 . S
H719 C711 0.929 . S
H720 C728 0.929 . S
H721 C730 0.930 . S
H722 C732 0.930 . S
H723 C735 0.929 . S
H724 C738 0.930 . S
H725 C740 0.960 . S
H726 C740 0.960 . S
H727 C740 0.960 . S
C728 H720 0.929 . S
C728 C729 1.377 . S
C728 C730 1.384 . S
C729 C728 1.377 . S
C729 C735 1.390 . S
C730 H721 0.930 . S
C730 C728 1.384 . S
C730 C731 1.372 . S
C731 C730 1.372 . S
C731 C732 1.400 . S
C731 C736 1.490 . S
C732 H722 0.930 . S
C732 C731 1.400 . S
C732 C735 1.386 . S
H733 C749 0.930 . S
H734 C750 0.931 . S
C735 H723 0.929 . S
C735 C729 1.390 . S
C735 C732 1.386 . S
C736 C731 1.490 . S
C736 C738 1.395 . S
C736 C739 1.403 . S
H737 C743 0.930 . S
C738 H724 0.930 . S
C738 C736 1.395 . S
C738 C741 1.403 . S
C739 C736 1.403 . S
C739 C740 1.524 . S
C739 C743 1.400 . S
C740 H725 0.960 . S
C740 H726 0.960 . S
C740 H727 0.960 . S
C740 C739 1.524 . S
C741 C738 1.403 . S
C741 C742 1.392 . S
C741 C745 1.495 . S
C742 C741 1.392 . S
C742 C743 1.385 . S
C742 C744 1.478 . S
C743 H737 0.930 . S
C743 C739 1.400 . S
C743 C742 1.385 . S
C744 C742 1.478 . S
C744 C746 1.381 . S
C744 C750 1.383 . S
C745 C741 1.495 . S
C745 H751 0.959 . S
C745 H752 0.961 . S
C745 H753 0.960 . S
C746 C744 1.381 . S
C746 C747 1.394 . S
C746 H754 0.930 . S
C747 C746 1.394 . S
C747 C748 1.383 . S
C747 H755 0.929 . S
C748 C747 1.383 . S
C748 C749 1.377 . S
C749 H733 0.930 . S
C749 C748 1.377 . S
C749 C750 1.379 . S
C750 H734 0.931 . S
C750 C744 1.383 . S
C750 C749 1.379 . S
H751 C745 0.959 . S
H752 C745 0.961 . S
H753 C745 0.960 . S
H754 C746 0.930 . S
H755 C747 0.929 . S
H756 C764 0.929 . S
H757 C766 0.930 . S
H758 C768 0.930 . S
H759 C771 0.929 . S
H760 C774 0.930 . S
H761 C776 0.960 . S
H762 C776 0.960 . S
H763 C776 0.960 . S
C764 H756 0.929 . S
C764 C765 1.377 . S
C764 C766 1.384 . S
C765 C764 1.377 . S
C765 C771 1.390 . S
C766 H757 0.930 . S
C766 C764 1.384 . S
C766 C767 1.372 . S
C767 C766 1.372 . S
C767 C768 1.400 . S
C767 C772 1.490 . S
C768 H758 0.930 . S
C768 C767 1.400 . S
C768 C771 1.386 . S
H769 C785 0.930 . S
H770 C786 0.931 . S
C771 H759 0.929 . S
C771 C765 1.390 . S
C771 C768 1.386 . S
C772 C767 1.490 . S
C772 C774 1.395 . S
C772 C775 1.403 . S
H773 C779 0.930 . S
C774 H760 0.930 . S
C774 C772 1.395 . S
C774 C777 1.403 . S
C775 C772 1.403 . S
C775 C776 1.524 . S
C775 C779 1.400 . S
C776 H761 0.960 . S
C776 H762 0.960 . S
C776 H763 0.960 . S
C776 C775 1.524 . S
C777 C774 1.403 . S
C777 C778 1.392 . S
C777 C781 1.495 . S
C778 C777 1.392 . S
C778 C779 1.385 . S
C778 C780 1.478 . S
C779 H773 0.930 . S
C779 C775 1.400 . S
C779 C778 1.385 . S
C780 C778 1.478 . S
C780 C782 1.381 . S
C780 C786 1.383 . S
C781 C777 1.495 . S
C781 H787 0.959 . S
C781 H788 0.961 . S
C781 H789 0.952 1_455 S
C782 C780 1.381 . S
C782 C783 1.386 1_455 S
C782 H790 0.930 1_455 S
C783 C782 1.386 1_655 S
C783 C784 1.341 1_655 S
C783 H791 0.981 . S
C784 C783 1.341 1_455 S
C784 C785 1.377 . S
C785 H769 0.930 . S
C785 C784 1.377 . S
C785 C786 1.379 . S
C786 H770 0.931 . S
C786 C780 1.383 . S
C786 C785 1.379 . S
H787 C781 0.959 . S
H788 C781 0.961 . S
H789 C781 0.952 1_655 S
H790 C782 0.930 1_655 S
H791 C783 0.981 . S
H792 C800 0.929 . S
H793 C802 0.891 1_545 S
H794 C804 0.930 . S
H795 C807 0.929 . S
H796 C810 0.930 . S
H797 C812 0.960 . S
H798 C812 0.960 . S
H799 C812 0.960 . S
C800 H792 0.929 . S
C800 C801 1.377 . S
C800 C802 1.384 . S
C801 C800 1.377 . S
C801 C807 1.390 . S
C802 H793 0.891 1_565 S
C802 C800 1.384 . S
C802 C803 1.372 1_554 S
C803 C802 1.372 1_556 S
C803 C804 1.400 . S
C803 C808 1.490 . S
C804 H794 0.930 . S
C804 C803 1.400 . S
C804 C807 1.386 1_556 S
H805 C821 0.930 . S
H806 C822 0.931 . S
C807 H795 0.929 . S
C807 C801 1.390 . S
C807 C804 1.386 1_554 S
C808 C803 1.490 . S
C808 C810 1.395 . S
C808 C811 1.403 . S
H809 C815 0.930 . S
C810 H796 0.930 . S
C810 C808 1.395 . S
C810 C813 1.403 . S
C811 C808 1.403 . S
C811 C812 1.524 . S
C811 C815 1.400 . S
C812 H797 0.960 . S
C812 H798 0.960 . S
C812 H799 0.960 . S
C812 C811 1.524 . S
C813 C810 1.403 . S
C813 C814 1.392 . S
C813 C817 1.495 . S
C814 C813 1.392 . S
C814 C815 1.385 . S
C814 C816 1.478 . S
C815 H809 0.930 . S
C815 C811 1.400 . S
C815 C814 1.385 . S
C816 C814 1.478 . S
C816 C818 1.381 1_565 S
C816 C822 1.383 . S
C817 C813 1.495 . S
C817 H823 0.959 . S
C817 H824 0.961 . S
C817 H825 0.960 1_565 S
C818 C816 1.381 1_545 S
C818 C819 1.394 . S
C818 H826 0.930 . S
C819 C818 1.394 . S
C819 C820 1.383 1_545 S
C819 H827 0.929 . S
C820 C819 1.383 1_565 S
C820 C821 1.377 . S
C821 H805 0.930 . S
C821 C820 1.377 . S
C821 C822 1.379 . S
C822 H806 0.931 . S
C822 C816 1.383 . S
C822 C821 1.379 . S
H823 C817 0.959 . S
H824 C817 0.961 . S
H825 C817 0.960 1_545 S
H826 C818 0.930 . S
H827 C819 0.929 . S
H828 C836 0.929 . S
H829 C838 0.930 . S
H830 C840 0.930 . S
H831 C843 0.929 . S
H832 C846 0.930 . S
H833 C848 0.960 . S
H834 C848 0.960 . S
H835 C848 0.960 . S
C836 H828 0.929 . S
C836 C837 1.377 . S
C836 C838 1.384 . S
C837 C836 1.377 . S
C837 C843 1.390 . S
C838 H829 0.930 . S
C838 C836 1.384 . S
C838 C839 1.372 1_554 S
C839 C838 1.372 1_556 S
C839 C840 1.400 . S
C839 C844 1.490 . S
C840 H830 0.930 . S
C840 C839 1.400 . S
C840 C843 1.386 1_556 S
H841 C857 0.930 . S
H842 C858 0.931 . S
C843 H831 0.929 . S
C843 C837 1.390 . S
C843 C840 1.386 1_554 S
C844 C839 1.490 . S
C844 C846 1.395 . S
C844 C847 1.403 . S
H845 C851 0.930 . S
C846 H832 0.930 . S
C846 C844 1.395 . S
C846 C849 1.403 . S
C847 C844 1.403 . S
C847 C848 1.524 . S
C847 C851 1.400 . S
C848 H833 0.960 . S
C848 H834 0.960 . S
C848 H835 0.960 . S
C848 C847 1.524 . S
C849 C846 1.403 . S
C849 C850 1.392 . S
C849 C853 1.495 . S
C850 C849 1.392 . S
C850 C851 1.385 . S
C850 C852 1.478 . S
C851 H845 0.930 . S
C851 C847 1.400 . S
C851 C850 1.385 . S
C852 C850 1.478 . S
C852 C854 1.381 . S
C852 C858 1.383 . S
C853 C849 1.495 . S
C853 H859 0.959 . S
C853 H860 0.961 . S
C853 H861 0.960 . S
C854 C852 1.381 . S
C854 C855 1.394 . S
C854 H862 0.930 . S
C855 C854 1.394 . S
C855 C856 1.383 . S
C855 H863 0.929 . S
C856 C855 1.383 . S
C856 C857 1.377 . S
C857 H841 0.930 . S
C857 C856 1.377 . S
C857 C858 1.379 . S
C858 H842 0.931 . S
C858 C852 1.383 . S
C858 C857 1.379 . S
H859 C853 0.959 . S
H860 C853 0.961 . S
H861 C853 0.960 . S
H862 C854 0.930 . S
H863 C855 0.929 . S
H864 C872 0.929 . S
H865 C874 0.930 . S
H866 C876 0.930 . S
H867 C879 0.929 . S
H868 C882 0.930 . S
H869 C884 0.960 . S
H870 C884 0.960 . S
H871 C884 0.960 . S
C872 H864 0.929 . S
C872 C873 1.377 . S
C872 C874 1.384 1_554 S
C873 C872 1.377 . S
C873 C879 1.390 . S
C874 H865 0.930 . S
C874 C872 1.384 1_556 S
C874 C875 1.372 . S
C875 C874 1.372 . S
C875 C876 1.400 1_556 S
C875 C880 1.490 . S
C876 H866 0.930 . S
C876 C875 1.400 1_554 S
C876 C879 1.386 . S
H877 C893 0.930 . S
H878 C894 0.931 . S
C879 H867 0.929 . S
C879 C873 1.390 . S
C879 C876 1.386 . S
C880 C875 1.490 . S
C880 C882 1.395 . S
C880 C883 1.403 . S
H881 C887 0.930 . S
C882 H868 0.930 . S
C882 C880 1.395 . S
C882 C885 1.403 . S
C883 C880 1.403 . S
C883 C884 1.524 . S
C883 C887 1.400 . S
C884 H869 0.960 . S
C884 H870 0.960 . S
C884 H871 0.960 . S
C884 C883 1.524 . S
C885 C882 1.403 . S
C885 C886 1.392 . S
C885 C889 1.495 . S
C886 C885 1.392 . S
C886 C887 1.385 . S
C886 C888 1.478 . S
C887 H881 0.930 . S
C887 C883 1.400 . S
C887 C886 1.385 . S
C888 C886 1.478 . S
C888 C890 1.381 . S
C888 C894 1.383 . S
C889 C885 1.495 . S
C889 H895 0.959 . S
C889 H896 0.961 . S
C889 H897 0.960 . S
C890 C888 1.381 . S
C890 C891 1.394 . S
C890 H898 0.930 . S
C891 C890 1.394 . S
C891 C892 1.383 . S
C891 H899 0.929 . S
C892 C891 1.383 . S
C892 C893 1.377 . S
C893 H877 0.930 . S
C893 C892 1.377 . S
C893 C894 1.379 . S
C894 H878 0.931 . S
C894 C888 1.383 . S
C894 C893 1.379 . S
H895 C889 0.959 . S
H896 C889 0.961 . S
H897 C889 0.960 . S
H898 C890 0.930 . S
H899 C891 0.929 . S
H900 C908 0.929 . S
H901 C910 0.919 1_556 S
H902 C912 0.930 1_455 S
H903 C915 0.929 . S
H904 C918 0.930 . S
H905 C920 0.960 . S
H906 C920 0.960 1_554 S
H907 C920 0.960 1_554 S
C908 H900 0.929 . S
C908 C909 1.377 . S
C908 C910 1.400 . S
C909 C908 1.377 . S
C909 C915 1.390 . S
C910 H901 0.919 1_554 S
C910 C908 1.400 . S
C910 C911 1.368 1_554 S
C911 C910 1.368 1_556 S
C911 C912 1.400 1_556 S
C911 C916 1.490 . S
C912 H902 0.930 1_655 S
C912 C911 1.400 1_554 S
C912 C915 1.386 . S
H913 C929 0.930 . S
H914 C930 0.931 . S
C915 H903 0.929 . S
C915 C909 1.390 . S
C915 C912 1.386 . S
C916 C911 1.490 . S
C916 C918 1.395 . S
C916 C919 1.403 . S
H917 C923 0.930 . S
C918 H904 0.930 . S
C918 C916 1.395 . S
C918 C921 1.403 . S
C919 C916 1.403 . S
C919 C920 1.524 . S
C919 C923 1.400 . S
C920 H905 0.960 . S
C920 H906 0.960 1_556 S
C920 H907 0.960 1_556 S
C920 C919 1.524 . S
C921 C918 1.403 . S
C921 C922 1.392 . S
C921 C925 1.495 . S
C922 C921 1.392 . S
C922 C923 1.385 . S
C922 C924 1.478 . S
C923 H917 0.930 . S
C923 C919 1.400 . S
C923 C922 1.385 . S
C924 C922 1.478 . S
C924 C926 1.381 . S
C924 C930 1.383 1_655 S
C925 C921 1.495 . S
C925 H931 0.959 . S
C925 H932 0.961 . S
C925 H933 0.960 . S
C926 C924 1.381 . S
C926 C927 1.394 . S
C926 H934 0.930 . S
C927 C926 1.394 . S
C927 C928 1.383 . S
C927 H935 0.929 . S
C928 C927 1.383 . S
C928 C929 1.377 1_655 S
C929 H913 0.930 . S
C929 C928 1.377 1_455 S
C929 C930 1.379 . S
C930 H914 0.931 . S
C930 C924 1.383 1_455 S
C930 C929 1.379 . S
H931 C925 0.959 . S
H932 C925 0.961 . S
H933 C925 0.960 . S
H934 C926 0.930 . S
H935 C927 0.929 . S
H936 C944 0.929 . S
H937 C946 0.930 . S
H938 C948 0.930 . S
H939 C951 0.929 . S
H940 C954 0.930 . S
H941 C956 0.960 . S
H942 C956 0.960 . S
H943 C956 0.960 . S
C944 H936 0.929 . S
C944 C945 1.377 . S
C944 C946 1.384 . S
C945 C944 1.377 . S
C945 C951 1.390 . S
C946 H937 0.930 . S
C946 C944 1.384 . S
C946 C947 1.372 . S
C947 C946 1.372 . S
C947 C948 1.400 . S
C947 C952 1.490 . S
C948 H938 0.930 . S
C948 C947 1.400 . S
C948 C951 1.386 . S
H949 C965 0.930 . S
H950 C966 0.931 . S
C951 H939 0.929 . S
C951 C945 1.390 . S
C951 C948 1.386 . S
C952 C947 1.490 . S
C952 C954 1.395 . S
C952 C955 1.403 . S
H953 C959 0.930 . S
C954 H940 0.930 . S
C954 C952 1.395 . S
C954 C957 1.403 . S
C955 C952 1.403 . S
C955 C956 1.524 . S
C955 C959 1.400 . S
C956 H941 0.960 . S
C956 H942 0.960 . S
C956 H943 0.960 . S
C956 C955 1.524 . S
C957 C954 1.403 . S
C957 C958 1.392 . S
C957 C961 1.495 . S
C958 C957 1.392 . S
C958 C959 1.385 . S
C958 C960 1.478 . S
C959 H953 0.930 . S
C959 C955 1.400 . S
C959 C958 1.385 . S
C960 C958 1.478 . S
C960 C962 1.381 . S
C960 C966 1.383 1_455 S
C961 C957 1.495 . S
C961 H967 0.959 . S
C961 H968 0.961 . S
C961 H969 0.960 . S
C962 C960 1.381 . S
C962 C963 1.394 . S
C962 H970 0.930 . S
C963 C962 1.394 . S
C963 C964 1.383 . S
C963 H971 0.929 . S
C964 C963 1.383 . S
C964 C965 1.377 1_455 S
C965 H949 0.930 . S
C965 C964 1.377 1_655 S
C965 C966 1.379 . S
C966 H950 0.931 . S
C966 C960 1.383 1_655 S
C966 C965 1.379 . S
H967 C961 0.959 . S
H968 C961 0.961 . S
H969 C961 0.960 . S
H970 C962 0.930 . S
H971 C963 0.929 . S
H972 C980 0.929 . S
H973 C982 0.930 . S
H974 C984 0.930 . S
H975 C987 0.929 . S
H976 C990 0.930 . S
H977 C992 0.960 . S
H978 C992 0.960 . S
H979 C992 0.960 . S
C980 H972 0.929 . S
C980 C981 1.377 . S
C980 C982 1.384 . S
C981 C980 1.377 . S
C981 C987 1.390 . S
C982 H973 0.930 . S
C982 C980 1.384 . S
C982 C983 1.372 . S
C983 C982 1.372 . S
C983 C984 1.400 . S
C983 C988 1.490 . S
C984 H974 0.930 . S
C984 C983 1.400 . S
C984 C987 1.386 . S
H985 C1001 0.930 . S
H986 C1002 0.931 . S
C987 H975 0.929 . S
C987 C981 1.390 . S
C987 C984 1.386 . S
C988 C983 1.490 . S
C988 C990 1.395 . S
C988 C991 1.403 . S
H989 C995 0.930 . S
C990 H976 0.930 . S
C990 C988 1.395 . S
C990 C993 1.403 . S
C991 C988 1.403 . S
C991 C992 1.524 . S
C991 C995 1.400 . S
C992 H977 0.960 . S
C992 H978 0.960 . S
C992 H979 0.960 . S
C992 C991 1.524 . S
C993 C990 1.403 . S
C993 C994 1.392 . S
C993 C997 1.495 . S
C994 C993 1.392 . S
C994 C995 1.385 . S
C994 C996 1.478 . S
C995 H989 0.930 . S
C995 C991 1.400 . S
C995 C994 1.385 . S
C996 C994 1.478 . S
C996 C998 1.381 1_545 S
C996 C1002 1.383 . S
C997 C993 1.495 . S
C997 H1003 0.959 . S
C997 H1004 0.961 . S
C997 H1005 0.960 1_545 S
C998 C996 1.381 1_565 S
C998 C999 1.394 . S
C998 H1006 0.930 . S
C999 C998 1.394 . S
C999 C1000 1.383 1_565 S
C999 H1007 0.929 . S
C1000 C999 1.383 1_545 S
C1000 C1001 1.377 . S
C1001 H985 0.930 . S
C1001 C1000 1.377 . S
C1001 C1002 1.379 . S
C1002 H986 0.931 . S
C1002 C996 1.383 . S
C1002 C1001 1.379 . S
H1003 C997 0.959 . S
H1004 C997 0.961 . S
H1005 C997 0.960 1_565 S
H1006 C998 0.930 . S
H1007 C999 0.929 . S
H1008 C1016 0.929 . S
H1009 C1018 0.930 . S
H1010 C1020 0.930 . S
H1011 C1023 0.929 . S
H1012 C1026 0.930 . S
H1013 C1028 0.960 . S
H1014 C1028 0.960 . S
H1015 C1028 0.960 . S
C1016 H1008 0.929 . S
C1016 C1017 1.377 . S
C1016 C1018 1.384 . S
C1017 C1016 1.377 . S
C1017 C1023 1.390 . S
C1018 H1009 0.930 . S
C1018 C1016 1.384 . S
C1018 C1019 1.372 . S
C1019 C1018 1.372 . S
C1019 C1020 1.400 . S
C1019 C1024 1.490 . S
C1020 H1010 0.930 . S
C1020 C1019 1.400 . S
C1020 C1023 1.386 . S
H1021 C1037 0.930 . S
H1022 C1038 0.931 . S
C1023 H1011 0.929 . S
C1023 C1017 1.390 . S
C1023 C1020 1.386 . S
C1024 C1019 1.490 . S
C1024 C1026 1.395 . S
C1024 C1027 1.403 . S
H1025 C1031 0.930 . S
C1026 H1012 0.930 . S
C1026 C1024 1.395 . S
C1026 C1029 1.403 . S
C1027 C1024 1.403 . S
C1027 C1028 1.524 . S
C1027 C1031 1.400 . S
C1028 H1013 0.960 . S
C1028 H1014 0.960 . S
C1028 H1015 0.960 . S
C1028 C1027 1.524 . S
C1029 C1026 1.403 . S
C1029 C1030 1.392 . S
C1029 C1033 1.495 . S
C1030 C1029 1.392 . S
C1030 C1031 1.385 . S
C1030 C1032 1.478 . S
C1031 H1025 0.930 . S
C1031 C1027 1.400 . S
C1031 C1030 1.385 . S
C1032 C1030 1.478 . S
C1032 C1034 1.381 . S
C1032 C1038 1.383 . S
C1033 C1029 1.495 . S
C1033 H1039 0.959 . S
C1033 H1040 0.961 . S
C1033 H1041 0.960 . S
C1034 C1032 1.381 . S
C1034 C1035 1.394 . S
C1034 H1042 0.930 . S
C1035 C1034 1.394 . S
C1035 C1036 1.383 . S
C1035 H1043 0.929 . S
C1036 C1035 1.383 . S
C1036 C1037 1.377 . S
C1037 H1021 0.930 . S
C1037 C1036 1.377 . S
C1037 C1038 1.379 . S
C1038 H1022 0.931 . S
C1038 C1032 1.383 . S
C1038 C1037 1.379 . S
H1039 C1033 0.959 . S
H1040 C1033 0.961 . S
H1041 C1033 0.960 . S
H1042 C1034 0.930 . S
H1043 C1035 0.929 . S
H1044 C1052 0.929 . S
H1045 C1054 0.930 . S
H1046 C1056 0.930 . S
H1047 C1059 0.929 . S
H1048 C1062 0.930 . S
H1049 C1064 0.960 . S
H1050 C1064 0.960 . S
H1051 C1064 0.960 . S
C1052 H1044 0.929 . S
C1052 C1053 1.377 . S
C1052 C1054 1.384 . S
C1053 C1052 1.377 . S
C1053 C1059 1.390 . S
C1054 H1045 0.930 . S
C1054 C1052 1.384 . S
C1054 C1055 1.372 . S
C1055 C1054 1.372 . S
C1055 C1056 1.400 . S
C1055 C1060 1.490 . S
C1056 H1046 0.930 . S
C1056 C1055 1.400 . S
C1056 C1059 1.386 . S
H1057 C1073 0.930 . S
H1058 C1074 0.931 . S
C1059 H1047 0.929 . S
C1059 C1053 1.390 . S
C1059 C1056 1.386 . S
C1060 C1055 1.490 . S
C1060 C1062 1.395 . S
C1060 C1063 1.403 . S
H1061 C1067 0.930 . S
C1062 H1048 0.930 . S
C1062 C1060 1.395 . S
C1062 C1065 1.403 . S
C1063 C1060 1.403 . S
C1063 C1064 1.524 . S
C1063 C1067 1.400 . S
C1064 H1049 0.960 . S
C1064 H1050 0.960 . S
C1064 H1051 0.960 . S
C1064 C1063 1.524 . S
C1065 C1062 1.403 . S
C1065 C1066 1.392 . S
C1065 C1069 1.495 . S
C1066 C1065 1.392 . S
C1066 C1067 1.385 . S
C1066 C1068 1.478 . S
C1067 H1061 0.930 . S
C1067 C1063 1.400 . S
C1067 C1066 1.385 . S
C1068 C1066 1.478 . S
C1068 C1070 1.381 . S
C1068 C1074 1.383 . S
C1069 C1065 1.495 . S
C1069 H1075 0.959 . S
C1069 H1076 0.961 . S
C1069 H1077 0.960 . S
C1070 C1068 1.381 . S
C1070 C1071 1.394 . S
C1070 H1078 0.930 . S
C1071 C1070 1.394 . S
C1071 C1072 1.383 . S
C1071 H1079 0.929 . S
C1072 C1071 1.383 . S
C1072 C1073 1.377 . S
C1073 H1057 0.930 . S
C1073 C1072 1.377 . S
C1073 C1074 1.379 . S
C1074 H1058 0.931 . S
C1074 C1068 1.383 . S
C1074 C1073 1.379 . S
H1075 C1069 0.959 . S
H1076 C1069 0.961 . S
H1077 C1069 0.960 . S
H1078 C1070 0.930 . S
H1079 C1071 0.929 . S
H1080 C1088 0.929 . S
H1081 C1090 0.987 . S
H1082 C1092 0.930 . S
H1083 C1095 0.929 . S
H1084 C1098 0.930 1_455 S
H1085 C1100 0.960 . S
H1086 C1100 0.960 1_554 S
H1087 C1100 0.960 . S
C1088 H1080 0.929 . S
C1088 C1089 1.377 . S
C1088 C1090 1.384 1_554 S
C1089 C1088 1.377 . S
C1089 C1095 1.390 1_554 S
C1090 H1081 0.987 . S
C1090 C1088 1.384 1_556 S
C1090 C1091 1.372 . S
C1091 C1090 1.372 . S
C1091 C1092 1.400 . S
C1091 C1096 1.490 . S
C1092 H1082 0.930 . S
C1092 C1091 1.400 . S
C1092 C1095 1.386 . S
H1093 C1109 0.930 . S
H1094 C1110 0.931 . S
C1095 H1083 0.929 . S
C1095 C1089 1.390 1_556 S
C1095 C1092 1.386 . S
C1096 C1091 1.490 . S
C1096 C1098 1.395 . S
C1096 C1099 1.403 . S
H1097 C1103 0.930 . S
C1098 H1084 0.930 1_655 S
C1098 C1096 1.395 . S
C1098 C1101 1.403 1_655 S
C1099 C1096 1.403 . S
C1099 C1100 1.524 . S
C1099 C1103 1.400 . S
C1100 H1085 0.960 . S
C1100 H1086 0.960 1_556 S
C1100 H1087 0.960 . S
C1100 C1099 1.524 . S
C1101 C1098 1.403 1_455 S
C1101 C1102 1.392 1_455 S
C1101 C1105 1.495 . S
C1102 C1101 1.392 1_655 S
C1102 C1103 1.385 . S
C1102 C1104 1.478 . S
C1103 H1097 0.930 . S
C1103 C1099 1.400 . S
C1103 C1102 1.385 . S
C1104 C1102 1.478 . S
C1104 C1106 1.380 1_655 S
C1104 C1110 1.383 . S
C1105 C1101 1.495 . S
C1105 H1111 0.959 . S
C1105 H1112 0.961 . S
C1105 H1113 0.960 . S
C1106 C1104 1.380 1_455 S
C1106 C1107 1.394 . S
C1106 H1114 0.930 . S
C1107 C1106 1.394 . S
C1107 C1108 1.383 . S
C1107 H1115 0.929 . S
C1108 C1107 1.383 . S
C1108 C1109 1.377 1_455 S
C1109 H1093 0.930 . S
C1109 C1108 1.377 1_655 S
C1109 C1110 1.379 . S
C1110 H1094 0.931 . S
C1110 C1104 1.383 . S
C1110 C1109 1.379 . S
H1111 C1105 0.959 . S
H1112 C1105 0.961 . S
H1113 C1105 0.960 . S
H1114 C1106 0.930 . S
H1115 C1107 0.929 . S
H1116 C1124 0.929 . S
H1117 C1126 0.930 . S
H1118 C1128 0.930 . S
H1119 C1131 0.929 . S
H1120 C1134 0.930 . S
H1121 C1136 0.960 . S
H1122 C1136 0.960 1_554 S
H1123 C1136 0.960 . S
C1124 H1116 0.929 . S
C1124 C1125 1.377 . S
C1124 C1126 1.384 1_554 S
C1125 C1124 1.377 . S
C1125 C1131 1.390 1_554 S
C1126 H1117 0.930 . S
C1126 C1124 1.384 1_556 S
C1126 C1127 1.372 . S
C1127 C1126 1.372 . S
C1127 C1128 1.400 . S
C1127 C1132 1.490 . S
C1128 H1118 0.930 . S
C1128 C1127 1.400 . S
C1128 C1131 1.386 . S
H1129 C1145 0.930 . S
H1130 C1146 0.931 . S
C1131 H1119 0.929 . S
C1131 C1125 1.390 1_556 S
C1131 C1128 1.386 . S
C1132 C1127 1.490 . S
C1132 C1134 1.395 . S
C1132 C1135 1.403 . S
H1133 C1139 0.930 . S
C1134 H1120 0.930 . S
C1134 C1132 1.395 . S
C1134 C1137 1.403 . S
C1135 C1132 1.403 . S
C1135 C1136 1.524 . S
C1135 C1139 1.400 . S
C1136 H1121 0.960 . S
C1136 H1122 0.960 1_556 S
C1136 H1123 0.960 . S
C1136 C1135 1.524 . S
C1137 C1134 1.403 . S
C1137 C1138 1.392 . S
C1137 C1141 1.495 1_565 S
C1138 C1137 1.392 . S
C1138 C1139 1.385 . S
C1138 C1140 1.478 . S
C1139 H1133 0.930 . S
C1139 C1135 1.400 . S
C1139 C1138 1.385 . S
C1140 C1138 1.478 . S
C1140 C1142 1.381 1_565 S
C1140 C1146 1.383 . S
C1141 C1137 1.495 1_545 S
C1141 H1147 0.959 . S
C1141 H1148 0.961 . S
C1141 H1149 0.960 . S
C1142 C1140 1.381 1_545 S
C1142 C1143 1.394 . S
C1142 H1150 0.930 . S
C1143 C1142 1.394 . S
C1143 C1144 1.383 . S
C1143 H1151 0.929 . S
C1144 C1143 1.383 . S
C1144 C1145 1.377 1_545 S
C1145 H1129 0.930 . S
C1145 C1144 1.377 1_565 S
C1145 C1146 1.379 . S
C1146 H1130 0.931 . S
C1146 C1140 1.383 . S
C1146 C1145 1.379 . S
H1147 C1141 0.959 . S
H1148 C1141 0.961 . S
H1149 C1141 0.960 . S
H1150 C1142 0.930 . S
H1151 C1143 0.929 . S
H1152 C1160 0.929 . S
H1153 C1162 0.930 . S
H1154 C1164 0.930 . S
H1155 C1167 0.929 . S
H1156 C1170 0.930 . S
H1157 C1172 0.960 . S
H1158 C1172 0.960 1_554 S
H1159 C1172 0.960 . S
C1160 H1152 0.929 . S
C1160 C1161 1.377 . S
C1160 C1162 1.384 1_554 S
C1161 C1160 1.377 . S
C1161 C1167 1.390 1_554 S
C1162 H1153 0.930 . S
C1162 C1160 1.384 1_556 S
C1162 C1163 1.372 . S
C1163 C1162 1.372 . S
C1163 C1164 1.400 . S
C1163 C1168 1.490 . S
C1164 H1154 0.930 . S
C1164 C1163 1.400 . S
C1164 C1167 1.386 . S
H1165 C1181 0.930 . S
H1166 C1182 0.931 . S
C1167 H1155 0.929 . S
C1167 C1161 1.390 1_556 S
C1167 C1164 1.386 . S
C1168 C1163 1.490 . S
C1168 C1170 1.395 . S
C1168 C1171 1.403 . S
H1169 C1175 0.930 . S
C1170 H1156 0.930 . S
C1170 C1168 1.395 . S
C1170 C1173 1.403 . S
C1171 C1168 1.403 . S
C1171 C1172 1.524 . S
C1171 C1175 1.400 . S
C1172 H1157 0.960 . S
C1172 H1158 0.960 1_556 S
C1172 H1159 0.960 . S
C1172 C1171 1.524 . S
C1173 C1170 1.403 . S
C1173 C1174 1.392 . S
C1173 C1177 1.495 . S
C1174 C1173 1.392 . S
C1174 C1175 1.385 . S
C1174 C1176 1.478 . S
C1175 H1169 0.930 . S
C1175 C1171 1.400 . S
C1175 C1174 1.385 . S
C1176 C1174 1.478 . S
C1176 C1178 1.381 . S
C1176 C1182 1.383 . S
C1177 C1173 1.495 . S
C1177 H1183 0.959 . S
C1177 H1184 0.961 . S
C1177 H1185 0.960 . S
C1178 C1176 1.381 . S
C1178 C1179 1.394 . S
C1178 H1186 0.930 . S
C1179 C1178 1.394 . S
C1179 C1180 1.383 . S
C1179 H1187 0.929 . S
C1180 C1179 1.383 . S
C1180 C1181 1.377 . S
C1181 H1165 0.930 . S
C1181 C1180 1.377 . S
C1181 C1182 1.379 . S
C1182 H1166 0.931 . S
C1182 C1176 1.383 . S
C1182 C1181 1.379 . S
H1183 C1177 0.959 . S
H1184 C1177 0.961 . S
H1185 C1177 0.960 . S
H1186 C1178 0.930 . S
H1187 C1179 0.929 . S
H1188 C1196 0.929 . S
H1189 C1198 0.930 . S
H1190 C1200 0.930 . S
H1191 C1203 0.929 . S
H1192 C1206 0.930 . S
H1193 C1208 0.960 . S
H1194 C1208 0.960 1_554 S
H1195 C1208 0.960 . S
C1196 H1188 0.929 . S
C1196 C1197 1.377 . S
C1196 C1198 1.384 1_554 S
C1197 C1196 1.377 . S
C1197 C1203 1.390 1_554 S
C1198 H1189 0.930 . S
C1198 C1196 1.384 1_556 S
C1198 C1199 1.372 . S
C1199 C1198 1.372 . S
C1199 C1200 1.400 . S
C1199 C1204 1.490 . S
C1200 H1190 0.930 . S
C1200 C1199 1.400 . S
C1200 C1203 1.386 . S
H1201 C1217 0.930 . S
H1202 C1218 0.931 . S
C1203 H1191 0.929 . S
C1203 C1197 1.390 1_556 S
C1203 C1200 1.386 . S
C1204 C1199 1.490 . S
C1204 C1206 1.395 . S
C1204 C1207 1.403 . S
H1205 C1211 0.930 . S
C1206 H1192 0.930 . S
C1206 C1204 1.395 . S
C1206 C1209 1.403 . S
C1207 C1204 1.403 . S
C1207 C1208 1.524 . S
C1207 C1211 1.400 . S
C1208 H1193 0.960 . S
C1208 H1194 0.960 1_556 S
C1208 H1195 0.960 . S
C1208 C1207 1.524 . S
C1209 C1206 1.403 . S
C1209 C1210 1.392 . S
C1209 C1213 1.495 . S
C1210 C1209 1.392 . S
C1210 C1211 1.385 . S
C1210 C1212 1.478 . S
C1211 H1205 0.930 . S
C1211 C1207 1.400 . S
C1211 C1210 1.385 . S
C1212 C1210 1.478 . S
C1212 C1214 1.381 . S
C1212 C1218 1.383 . S
C1213 C1209 1.495 . S
C1213 H1219 0.959 . S
C1213 H1220 0.961 . S
C1213 H1221 0.960 . S
C1214 C1212 1.381 . S
C1214 C1215 1.394 . S
C1214 H1222 0.930 . S
C1215 C1214 1.394 . S
C1215 C1216 1.383 . S
C1215 H1223 0.929 . S
C1216 C1215 1.383 . S
C1216 C1217 1.377 . S
C1217 H1201 0.930 . S
C1217 C1216 1.377 . S
C1217 C1218 1.379 . S
C1218 H1202 0.931 . S
C1218 C1212 1.383 . S
C1218 C1217 1.379 . S
H1219 C1213 0.959 . S
H1220 C1213 0.961 . S
H1221 C1213 0.960 . S
H1222 C1214 0.930 . S
H1223 C1215 0.929 . S
H1224 C1232 0.929 . S
H1225 C1234 0.930 . S
H1226 C1236 0.930 . S
H1227 C1239 0.929 . S
H1228 C1242 0.930 . S
H1229 C1244 0.960 1_655 S
H1230 C1244 0.960 1_655 S
H1231 C1244 0.960 . S
C1232 H1224 0.929 . S
C1232 C1233 1.377 . S
C1232 C1234 1.384 . S
C1233 C1232 1.377 . S
C1233 C1239 1.390 . S
C1234 H1225 0.930 . S
C1234 C1232 1.384 . S
C1234 C1235 1.372 . S
C1235 C1234 1.372 . S
C1235 C1236 1.400 . S
C1235 C1240 1.490 . S
C1236 H1226 0.930 . S
C1236 C1235 1.400 . S
C1236 C1239 1.386 . S
H1237 C1253 0.930 . S
H1238 C1254 0.931 . S
C1239 H1227 0.929 . S
C1239 C1233 1.390 . S
C1239 C1236 1.386 . S
C1240 C1235 1.490 . S
C1240 C1242 1.395 . S
C1240 C1243 1.403 . S
H1241 C1247 0.930 . S
C1242 H1228 0.930 . S
C1242 C1240 1.395 . S
C1242 C1245 1.403 . S
C1243 C1240 1.403 . S
C1243 C1244 1.524 . S
C1243 C1247 1.400 . S
C1244 H1229 0.960 1_455 S
C1244 H1230 0.960 1_455 S
C1244 H1231 0.960 . S
C1244 C1243 1.524 . S
C1245 C1242 1.403 . S
C1245 C1246 1.392 . S
C1245 C1249 1.495 . S
C1246 C1245 1.392 . S
C1246 C1247 1.385 . S
C1246 C1248 1.478 . S
C1247 H1241 0.930 . S
C1247 C1243 1.400 . S
C1247 C1246 1.385 . S
C1248 C1246 1.478 . S
C1248 C1250 1.381 . S
C1248 C1254 1.383 . S
C1249 C1245 1.495 . S
C1249 H1255 0.959 . S
C1249 H1256 0.961 . S
C1249 H1257 0.960 . S
C1250 C1248 1.381 . S
C1250 C1251 1.394 . S
C1250 H1258 0.930 . S
C1251 C1250 1.394 . S
C1251 C1252 1.383 . S
C1251 H1259 0.929 . S
C1252 C1251 1.383 . S
C1252 C1253 1.377 . S
C1253 H1237 0.930 . S
C1253 C1252 1.377 . S
C1253 C1254 1.379 . S
C1254 H1238 0.931 . S
C1254 C1248 1.383 . S
C1254 C1253 1.379 . S
H1255 C1249 0.959 . S
H1256 C1249 0.961 . S
H1257 C1249 0.960 . S
H1258 C1250 0.930 . S
H1259 C1251 0.929 . S
H1260 C1268 0.929 . S
H1261 C1270 0.930 . S
H1262 C1272 0.930 . S
H1263 C1275 0.929 . S
H1264 C1278 0.930 . S
H1265 C1280 0.960 1_565 S
H1266 C1280 0.960 . S
H1267 C1280 0.953 1_565 S
C1268 H1260 0.929 . S
C1268 C1269 1.377 . S
C1268 C1270 1.384 . S
C1269 C1268 1.377 . S
C1269 C1275 1.390 . S
C1270 H1261 0.930 . S
C1270 C1268 1.384 . S
C1270 C1271 1.372 . S
C1271 C1270 1.372 . S
C1271 C1272 1.400 . S
C1271 C1276 1.490 . S
C1272 H1262 0.930 . S
C1272 C1271 1.400 . S
C1272 C1275 1.386 . S
H1273 C1289 0.930 . S
H1274 C1290 0.931 . S
C1275 H1263 0.929 . S
C1275 C1269 1.390 . S
C1275 C1272 1.386 . S
C1276 C1271 1.490 . S
C1276 C1278 1.395 . S
C1276 C1279 1.403 . S
H1277 C1283 0.930 . S
C1278 H1264 0.930 . S
C1278 C1276 1.395 . S
C1278 C1281 1.403 . S
C1279 C1276 1.403 . S
C1279 C1280 1.524 . S
C1279 C1283 1.400 . S
C1280 H1265 0.960 1_545 S
C1280 H1266 0.960 . S
C1280 H1267 0.953 1_545 S
C1280 C1279 1.524 . S
C1281 C1278 1.403 . S
C1281 C1282 1.392 . S
C1281 C1285 1.495 . S
C1282 C1281 1.392 . S
C1282 C1283 1.385 . S
C1282 C1284 1.478 . S
C1283 H1277 0.930 . S
C1283 C1279 1.400 . S
C1283 C1282 1.385 . S
C1284 C1282 1.478 . S
C1284 C1286 1.381 . S
C1284 C1290 1.383 . S
C1285 C1281 1.495 . S
C1285 H1291 0.959 . S
C1285 H1292 0.961 . S
C1285 H1293 0.960 . S
C1286 C1284 1.381 . S
C1286 C1287 1.394 . S
C1286 H1294 0.930 . S
C1287 C1286 1.394 . S
C1287 C1288 1.383 . S
C1287 H1295 0.929 . S
C1288 C1287 1.383 . S
C1288 C1289 1.377 . S
C1289 H1273 0.930 . S
C1289 C1288 1.377 . S
C1289 C1290 1.379 . S
C1290 H1274 0.931 . S
C1290 C1284 1.383 . S
C1290 C1289 1.379 . S
H1291 C1285 0.959 . S
H1292 C1285 0.961 . S
H1293 C1285 0.960 . S
H1294 C1286 0.930 . S
H1295 C1287 0.929 . S
H1296 C1304 0.929 . S
H1297 C1306 0.930 . S
H1298 C1308 0.930 . S
H1299 C1311 0.929 . S
H1300 C1314 0.930 . S
H1301 C1316 0.960 . S
H1302 C1316 0.960 . S
H1303 C1316 0.960 . S
C1304 H1296 0.929 . S
C1304 C1305 1.377 . S
C1304 C1306 1.384 . S
C1305 C1304 1.377 . S
C1305 C1311 1.390 . S
C1306 H1297 0.930 . S
C1306 C1304 1.384 . S
C1306 C1307 1.372 . S
C1307 C1306 1.372 . S
C1307 C1308 1.400 . S
C1307 C1312 1.490 . S
C1308 H1298 0.930 . S
C1308 C1307 1.400 . S
C1308 C1311 1.386 . S
H1309 C1325 0.930 . S
H1310 C1326 0.931 . S
C1311 H1299 0.929 . S
C1311 C1305 1.390 . S
C1311 C1308 1.386 . S
C1312 C1307 1.490 . S
C1312 C1314 1.395 . S
C1312 C1315 1.403 . S
H1313 C1319 0.930 . S
C1314 H1300 0.930 . S
C1314 C1312 1.395 . S
C1314 C1317 1.403 . S
C1315 C1312 1.403 . S
C1315 C1316 1.524 . S
C1315 C1319 1.400 . S
C1316 H1301 0.960 . S
C1316 H1302 0.960 . S
C1316 H1303 0.960 . S
C1316 C1315 1.524 . S
C1317 C1314 1.403 . S
C1317 C1318 1.392 . S
C1317 C1321 1.495 . S
C1318 C1317 1.392 . S
C1318 C1319 1.385 . S
C1318 C1320 1.478 . S
C1319 H1313 0.930 . S
C1319 C1315 1.400 . S
C1319 C1318 1.385 . S
C1320 C1318 1.478 . S
C1320 C1322 1.381 . S
C1320 C1326 1.383 . S
C1321 C1317 1.495 . S
C1321 H1327 0.959 . S
C1321 H1328 0.961 . S
C1321 H1329 0.960 . S
C1322 C1320 1.381 . S
C1322 C1323 1.394 . S
C1322 H1330 0.930 . S
C1323 C1322 1.394 . S
C1323 C1324 1.383 . S
C1323 H1331 0.929 . S
C1324 C1323 1.383 . S
C1324 C1325 1.377 . S
C1325 H1309 0.930 . S
C1325 C1324 1.377 . S
C1325 C1326 1.379 . S
C1326 H1310 0.931 . S
C1326 C1320 1.383 . S
C1326 C1325 1.379 . S
H1327 C1321 0.959 . S
H1328 C1321 0.961 . S
H1329 C1321 0.960 . S
H1330 C1322 0.930 . S
H1331 C1323 0.929 . S
H1332 C1340 0.929 . S
H1333 C1342 0.930 . S
H1334 C1344 0.930 . S
H1335 C1347 0.929 . S
H1336 C1350 0.930 . S
H1337 C1352 0.960 . S
H1338 C1352 0.960 . S
H1339 C1352 0.960 . S
C1340 H1332 0.929 . S
C1340 C1341 1.377 . S
C1340 C1342 1.384 . S
C1341 C1340 1.377 . S
C1341 C1347 1.390 . S
C1342 H1333 0.930 . S
C1342 C1340 1.384 . S
C1342 C1343 1.372 . S
C1343 C1342 1.372 . S
C1343 C1344 1.400 . S
C1343 C1348 1.490 . S
C1344 H1334 0.930 . S
C1344 C1343 1.400 . S
C1344 C1347 1.386 . S
H1345 C1361 0.930 . S
H1346 C1362 0.931 . S
C1347 H1335 0.929 . S
C1347 C1341 1.390 . S
C1347 C1344 1.386 . S
C1348 C1343 1.490 . S
C1348 C1350 1.395 . S
C1348 C1351 1.403 . S
H1349 C1355 0.930 . S
C1350 H1336 0.930 . S
C1350 C1348 1.395 . S
C1350 C1353 1.403 . S
C1351 C1348 1.403 . S
C1351 C1352 1.524 . S
C1351 C1355 1.400 . S
C1352 H1337 0.960 . S
C1352 H1338 0.960 . S
C1352 H1339 0.960 . S
C1352 C1351 1.524 . S
C1353 C1350 1.403 . S
C1353 C1354 1.392 . S
C1353 C1357 1.495 . S
C1354 C1353 1.392 . S
C1354 C1355 1.385 . S
C1354 C1356 1.478 . S
C1355 H1349 0.930 . S
C1355 C1351 1.400 . S
C1355 C1354 1.385 . S
C1356 C1354 1.478 . S
C1356 C1358 1.381 . S
C1356 C1362 1.383 . S
C1357 C1353 1.495 . S
C1357 H1363 0.959 . S
C1357 H1364 0.961 . S
C1357 H1365 0.960 . S
C1358 C1356 1.381 . S
C1358 C1359 1.394 . S
C1358 H1366 0.930 . S
C1359 C1358 1.394 . S
C1359 C1360 1.383 . S
C1359 H1367 0.929 . S
C1360 C1359 1.383 . S
C1360 C1361 1.377 . S
C1361 H1345 0.930 . S
C1361 C1360 1.377 . S
C1361 C1362 1.379 . S
C1362 H1346 0.931 . S
C1362 C1356 1.383 . S
C1362 C1361 1.379 . S
H1363 C1357 0.959 . S
H1364 C1357 0.961 . S
H1365 C1357 0.960 . S
H1366 C1358 0.930 . S
H1367 C1359 0.929 . S
H1368 C1376 0.929 . S
H1369 C1378 0.950 . S
H1370 C1380 0.930 . S
H1371 C1383 0.929 . S
H1372 C1386 0.930 . S
H1373 C1388 0.960 . S
H1374 C1388 0.960 . S
H1375 C1388 0.960 . S
C1376 H1368 0.929 . S
C1376 C1377 1.377 . S
C1376 C1378 1.384 . S
C1377 C1376 1.377 . S
C1377 C1383 1.390 . S
C1378 H1369 0.950 . S
C1378 C1376 1.384 . S
C1378 C1379 1.372 . S
C1379 C1378 1.372 . S
C1379 C1380 1.400 . S
C1379 C1384 1.490 . S
C1380 H1370 0.930 . S
C1380 C1379 1.400 . S
C1380 C1383 1.386 . S
H1381 C1397 0.930 . S
H1382 C1398 0.931 . S
C1383 H1371 0.929 . S
C1383 C1377 1.390 . S
C1383 C1380 1.386 . S
C1384 C1379 1.490 . S
C1384 C1386 1.395 . S
C1384 C1387 1.403 . S
H1385 C1391 0.930 . S
C1386 H1372 0.930 . S
C1386 C1384 1.395 . S
C1386 C1389 1.403 . S
C1387 C1384 1.403 . S
C1387 C1388 1.524 . S
C1387 C1391 1.400 . S
C1388 H1373 0.960 . S
C1388 H1374 0.960 . S
C1388 H1375 0.960 . S
C1388 C1387 1.524 . S
C1389 C1386 1.403 . S
C1389 C1390 1.392 . S
C1389 C1393 1.495 . S
C1390 C1389 1.392 . S
C1390 C1391 1.385 . S
C1390 C1392 1.478 . S
C1391 H1385 0.930 . S
C1391 C1387 1.400 . S
C1391 C1390 1.385 . S
C1392 C1390 1.478 . S
C1392 C1394 1.381 1_655 S
C1392 C1398 1.383 . S
C1393 C1389 1.495 . S
C1393 H1399 0.959 . S
C1393 H1400 0.961 . S
C1393 H1401 0.960 . S
C1394 C1392 1.381 1_455 S
C1394 C1395 1.394 . S
C1394 H1402 0.930 . S
C1395 C1394 1.394 . S
C1395 C1396 1.383 1_455 S
C1395 H1403 0.929 . S
C1396 C1395 1.383 1_655 S
C1396 C1397 1.377 . S
C1397 H1381 0.930 . S
C1397 C1396 1.377 . S
C1397 C1398 1.379 . S
C1398 H1382 0.931 . S
C1398 C1392 1.383 . S
C1398 C1397 1.379 . S
H1399 C1393 0.959 . S
H1400 C1393 0.961 . S
H1401 C1393 0.960 . S
H1402 C1394 0.930 . S
H1403 C1395 0.929 . S
H1404 C1412 0.929 . S
H1405 C1414 0.930 . S
H1406 C1416 0.930 . S
H1407 C1419 0.929 . S
H1408 C1422 0.927 . S
H1409 C1424 0.960 . S
H1410 C1424 0.960 . S
H1411 C1424 0.960 . S
C1412 H1404 0.929 . S
C1412 C1413 1.377 . S
C1412 C1414 1.384 . S
C1413 C1412 1.377 . S
C1413 C1419 1.390 . S
C1414 H1405 0.930 . S
C1414 C1412 1.384 . S
C1414 C1415 1.372 . S
C1415 C1414 1.372 . S
C1415 C1416 1.400 . S
C1415 C1420 1.490 . S
C1416 H1406 0.930 . S
C1416 C1415 1.400 . S
C1416 C1419 1.386 . S
H1417 C1433 0.930 . S
H1418 C1434 0.931 . S
C1419 H1407 0.929 . S
C1419 C1413 1.390 . S
C1419 C1416 1.386 . S
C1420 C1415 1.490 . S
C1420 C1422 1.395 . S
C1420 C1423 1.403 . S
H1421 C1427 0.930 . S
C1422 H1408 0.927 . S
C1422 C1420 1.395 . S
C1422 C1425 1.403 . S
C1423 C1420 1.403 . S
C1423 C1424 1.524 . S
C1423 C1427 1.400 . S
C1424 H1409 0.960 . S
C1424 H1410 0.960 . S
C1424 H1411 0.960 . S
C1424 C1423 1.524 . S
C1425 C1422 1.403 . S
C1425 C1426 1.392 . S
C1425 C1429 1.495 1_565 S
C1426 C1425 1.392 . S
C1426 C1427 1.385 . S
C1426 C1428 1.478 . S
C1427 H1421 0.930 . S
C1427 C1423 1.400 . S
C1427 C1426 1.385 . S
C1428 C1426 1.478 . S
C1428 C1430 1.381 . S
C1428 C1434 1.383 . S
C1429 C1425 1.495 1_545 S
C1429 H1435 0.959 . S
C1429 H1436 0.961 . S
C1429 H1437 0.960 . S
C1430 C1428 1.381 . S
C1430 C1431 1.394 . S
C1430 H1438 0.930 . S
C1431 C1430 1.394 . S
C1431 C1432 1.383 . S
C1431 H1439 0.929 . S
C1432 C1431 1.383 . S
C1432 C1433 1.377 . S
C1433 H1417 0.930 . S
C1433 C1432 1.377 . S
C1433 C1434 1.379 . S
C1434 H1418 0.931 . S
C1434 C1428 1.383 . S
C1434 C1433 1.379 . S
H1435 C1429 0.959 . S
H1436 C1429 0.961 . S
H1437 C1429 0.960 . S
H1438 C1430 0.930 . S
H1439 C1431 0.929 . S
H1440 C1448 0.929 . S
H1441 C1450 0.930 . S
H1442 C1452 0.930 . S
H1443 C1455 0.929 . S
H1444 C1458 0.930 . S
H1445 C1460 0.960 . S
H1446 C1460 0.960 . S
H1447 C1460 0.960 . S
C1448 H1440 0.929 . S
C1448 C1449 1.377 . S
C1448 C1450 1.384 . S
C1449 C1448 1.377 . S
C1449 C1455 1.390 . S
C1450 H1441 0.930 . S
C1450 C1448 1.384 . S
C1450 C1451 1.372 . S
C1451 C1450 1.372 . S
C1451 C1452 1.400 . S
C1451 C1456 1.490 . S
C1452 H1442 0.930 . S
C1452 C1451 1.400 . S
C1452 C1455 1.386 . S
H1453 C1469 0.930 . S
H1454 C1470 0.931 . S
C1455 H1443 0.929 . S
C1455 C1449 1.390 . S
C1455 C1452 1.386 . S
C1456 C1451 1.490 . S
C1456 C1458 1.395 . S
C1456 C1459 1.403 . S
H1457 C1463 0.930 . S
C1458 H1444 0.930 . S
C1458 C1456 1.395 . S
C1458 C1461 1.403 . S
C1459 C1456 1.403 . S
C1459 C1460 1.524 . S
C1459 C1463 1.400 . S
C1460 H1445 0.960 . S
C1460 H1446 0.960 . S
C1460 H1447 0.960 . S
C1460 C1459 1.524 . S
C1461 C1458 1.403 . S
C1461 C1462 1.392 . S
C1461 C1465 1.495 . S
C1462 C1461 1.392 . S
C1462 C1463 1.385 . S
C1462 C1464 1.478 . S
C1463 H1457 0.930 . S
C1463 C1459 1.400 . S
C1463 C1462 1.385 . S
C1464 C1462 1.478 . S
C1464 C1466 1.381 . S
C1464 C1470 1.383 . S
C1465 C1461 1.495 . S
C1465 H1471 0.959 . S
C1465 H1472 0.961 . S
C1465 H1473 0.960 . S
C1466 C1464 1.381 . S
C1466 C1467 1.394 . S
C1466 H1474 0.930 . S
C1467 C1466 1.394 . S
C1467 C1468 1.383 . S
C1467 H1475 0.929 . S
C1468 C1467 1.383 . S
C1468 C1469 1.377 . S
C1469 H1453 0.930 . S
C1469 C1468 1.377 . S
C1469 C1470 1.379 . S
C1470 H1454 0.931 . S
C1470 C1464 1.383 . S
C1470 C1469 1.379 . S
H1471 C1465 0.959 . S
H1472 C1465 0.961 . S
H1473 C1465 0.960 . S
H1474 C1466 0.930 . S
H1475 C1467 0.929 . S
H1476 C1484 0.929 . S
H1477 C1486 0.930 . S
H1478 C1488 0.930 . S
H1479 C1491 0.929 . S
H1480 C1494 0.930 . S
H1481 C1496 0.960 . S
H1482 C1496 0.960 . S
H1483 C1496 0.960 . S
C1484 H1476 0.929 . S
C1484 C1485 1.377 . S
C1484 C1486 1.384 . S
C1485 C1484 1.377 . S
C1485 C1491 1.390 . S
C1486 H1477 0.930 . S
C1486 C1484 1.384 . S
C1486 C1487 1.372 . S
C1487 C1486 1.372 . S
C1487 C1488 1.400 . S
C1487 C1492 1.490 . S
C1488 H1478 0.930 . S
C1488 C1487 1.400 . S
C1488 C1491 1.386 . S
H1489 C1505 0.930 . S
H1490 C1506 0.931 . S
C1491 H1479 0.929 . S
C1491 C1485 1.390 . S
C1491 C1488 1.386 . S
C1492 C1487 1.490 . S
C1492 C1494 1.395 . S
C1492 C1495 1.403 . S
H1493 C1499 0.930 . S
C1494 H1480 0.930 . S
C1494 C1492 1.395 . S
C1494 C1497 1.403 . S
C1495 C1492 1.403 . S
C1495 C1496 1.524 . S
C1495 C1499 1.400 . S
C1496 H1481 0.960 . S
C1496 H1482 0.960 . S
C1496 H1483 0.960 . S
C1496 C1495 1.524 . S
C1497 C1494 1.403 . S
C1497 C1498 1.392 . S
C1497 C1501 1.495 . S
C1498 C1497 1.392 . S
C1498 C1499 1.385 . S
C1498 C1500 1.478 . S
C1499 H1493 0.930 . S
C1499 C1495 1.400 . S
C1499 C1498 1.385 . S
C1500 C1498 1.478 . S
C1500 C1502 1.381 . S
C1500 C1506 1.383 . S
C1501 C1497 1.495 . S
C1501 H1507 0.959 . S
C1501 H1508 0.961 . S
C1501 H1509 0.960 . S
C1502 C1500 1.381 . S
C1502 C1503 1.394 . S
C1502 H1510 0.930 . S
C1503 C1502 1.394 . S
C1503 C1504 1.383 . S
C1503 H1511 0.929 . S
C1504 C1503 1.383 . S
C1504 C1505 1.377 . S
C1505 H1489 0.930 . S
C1505 C1504 1.377 . S
C1505 C1506 1.379 . S
C1506 H1490 0.931 . S
C1506 C1500 1.383 . S
C1506 C1505 1.379 . S
H1507 C1501 0.959 . S
H1508 C1501 0.961 . S
H1509 C1501 0.960 . S
H1510 C1502 0.930 . S
H1511 C1503 0.929 . S
C657 C255 2.090 . S
C676 C375 2.196 . S
C712 C452 2.227 . S
C693 C294 2.097 . S
C748 C543 2.196 . S
C729 C177 2.074 . S
C784 C627 2.177 . S
C765 C216 2.068 . S
C820 C386 2.182 1_565 S
C801 C99 2.090 . S
C837 C138 2.083 . S
C856 C463 2.205 . S
C873 C21 2.080 . S
C892 C554 2.174 . S
C909 C60 2.076 . S
C928 C638 2.181 1_655 S
C964 C370 0.408 1_455 S
C945 C196 0.319 . S
C1000 C465 0.425 . S
C981 C235 0.292 . S
C1036 C538 0.514 . S
C1017 C289 0.302 . S
C1053 C157 0.296 . S
C1072 C622 0.463 . S
C1089 C40 0.282 . S
C1108 C381 0.343 . S
C1144 C454 0.611 . S
C1125 C79 0.263 . S
C1180 C549 0.348 . S
C1161 C133 0.294 . S
C1197 C1 0.272 . S
C1216 C633 0.352 . S
C1233 C211 2.420 . S
C1252 C379 2.648 . S
C1269 C250 2.405 . S
C1288 C470 2.659 . S
C1324 C547 2.669 . S
C1305 C274 2.446 . S
C1360 C631 2.675 . S
C1341 C172 2.443 . S
C1377 C55 2.417 . S
C1396 C368 2.660 . S
C1432 C459 2.655 . S
C1413 C94 2.401 . S
C1468 C536 2.684 . S
C1449 C118 2.448 . S
C1485 C16 2.437 . S
C1504 C620 2.667 . S
