# Generated by pormake.
# Topology eea, (3,6)-cn, num edge types: 1
# Building blocks:
#     Node 0, Type 0, BuildingBlock: CUQRIR_clean_linker_1, # of connection points: 3
#     Node 1, Type 0, BuildingBlock: CUQRIR_clean_linker_1, # of connection points: 3
#     Node 2, Type 0, BuildingBlock: CUQRIR_clean_linker_1, # of connection points: 3
#     Node 3, Type 0, BuildingBlock: CUQRIR_clean_linker_1, # of connection points: 3
#     Node 4, Type 0, BuildingBlock: CUQRIR_clean_linker_1, # of connection points: 3
#     Node 5, Type 0, BuildingBlock: CUQRIR_clean_linker_1, # of connection points: 3
#     Node 6, Type 0, BuildingBlock: CUQRIR_clean_linker_1, # of connection points: 3
#     Node 7, Type 0, BuildingBlock: CUQRIR_clean_linker_1, # of connection points: 3
#     Node 8, Type 0, BuildingBlock: CUQRIR_clean_linker_1, # of connection points: 3
#     Node 9, Type 0, BuildingBlock: CUQRIR_clean_linker_1, # of connection points: 3
#     Node 10, Type 0, BuildingBlock: CUQRIR_clean_linker_1, # of connection points: 3
#     Node 11, Type 0, BuildingBlock: CUQRIR_clean_linker_1, # of connection points: 3
#     Node 12, Type 0, BuildingBlock: CUQRIR_clean_linker_1, # of connection points: 3
#     Node 13, Type 0, BuildingBlock: CUQRIR_clean_linker_1, # of connection points: 3
#     Node 14, Type 0, BuildingBlock: CUQRIR_clean_linker_1, # of connection points: 3
#     Node 15, Type 0, BuildingBlock: CUQRIR_clean_linker_1, # of connection points: 3
#     Node 16, Type 0, BuildingBlock: CUQRIR_clean_linker_1, # of connection points: 3
#     Node 17, Type 0, BuildingBlock: CUQRIR_clean_linker_1, # of connection points: 3
#     Node 18, Type 1, BuildingBlock: KUMBOL_clean_sbu_0, # of connection points: 6
#     Node 19, Type 1, BuildingBlock: KUMBOL_clean_sbu_0, # of connection points: 6
#     Node 20, Type 1, BuildingBlock: KUMBOL_clean_sbu_0, # of connection points: 6
#     Node 21, Type 1, BuildingBlock: KUMBOL_clean_sbu_0, # of connection points: 6
#     Node 22, Type 1, BuildingBlock: KUMBOL_clean_sbu_0, # of connection points: 6
#     Node 23, Type 1, BuildingBlock: KUMBOL_clean_sbu_0, # of connection points: 6
#     Node 24, Type 1, BuildingBlock: KUMBOL_clean_sbu_0, # of connection points: 6
#     Node 25, Type 1, BuildingBlock: KUMBOL_clean_sbu_0, # of connection points: 6
#     Node 26, Type 1, BuildingBlock: KUMBOL_clean_sbu_0, # of connection points: 6
#     Edge 27, Type (0, 1), BuildingBlock: ZUJKAS_clean_linker_0, # of connection points: 2
#     Edge 28, Type (0, 1), BuildingBlock: ZUJKAS_clean_linker_0, # of connection points: 2
#     Edge 29, Type (0, 1), BuildingBlock: ZUJKAS_clean_linker_0, # of connection points: 2
#     Edge 30, Type (0, 1), BuildingBlock: ZUJKAS_clean_linker_0, # of connection points: 2
#     Edge 31, Type (0, 1), BuildingBlock: ZUJKAS_clean_linker_0, # of connection points: 2
#     Edge 32, Type (0, 1), BuildingBlock: ZUJKAS_clean_linker_0, # of connection points: 2
#     Edge 33, Type (0, 1), BuildingBlock: ZUJKAS_clean_linker_0, # of connection points: 2
#     Edge 34, Type (0, 1), BuildingBlock: ZUJKAS_clean_linker_0, # of connection points: 2
#     Edge 35, Type (0, 1), BuildingBlock: ZUJKAS_clean_linker_0, # of connection points: 2
#     Edge 36, Type (0, 1), BuildingBlock: ZUJKAS_clean_linker_0, # of connection points: 2
#     Edge 37, Type (0, 1), BuildingBlock: ZUJKAS_clean_linker_0, # of connection points: 2
#     Edge 38, Type (0, 1), BuildingBlock: ZUJKAS_clean_linker_0, # of connection points: 2
#     Edge 39, Type (0, 1), BuildingBlock: ZUJKAS_clean_linker_0, # of connection points: 2
#     Edge 40, Type (0, 1), BuildingBlock: ZUJKAS_clean_linker_0, # of connection points: 2
#     Edge 41, Type (0, 1), BuildingBlock: ZUJKAS_clean_linker_0, # of connection points: 2
#     Edge 42, Type (0, 1), BuildingBlock: ZUJKAS_clean_linker_0, # of connection points: 2
#     Edge 43, Type (0, 1), BuildingBlock: ZUJKAS_clean_linker_0, # of connection points: 2
#     Edge 44, Type (0, 1), BuildingBlock: ZUJKAS_clean_linker_0, # of connection points: 2
#     Edge 45, Type (0, 1), BuildingBlock: ZUJKAS_clean_linker_0, # of connection points: 2
#     Edge 46, Type (0, 1), BuildingBlock: ZUJKAS_clean_linker_0, # of connection points: 2
#     Edge 47, Type (0, 1), BuildingBlock: ZUJKAS_clean_linker_0, # of connection points: 2
#     Edge 48, Type (0, 1), BuildingBlock: ZUJKAS_clean_linker_0, # of connection points: 2
#     Edge 49, Type (0, 1), BuildingBlock: ZUJKAS_clean_linker_0, # of connection points: 2
#     Edge 50, Type (0, 1), BuildingBlock: ZUJKAS_clean_linker_0, # of connection points: 2
#     Edge 51, Type (0, 1), BuildingBlock: ZUJKAS_clean_linker_0, # of connection points: 2
#     Edge 52, Type (0, 1), BuildingBlock: ZUJKAS_clean_linker_0, # of connection points: 2
#     Edge 53, Type (0, 1), BuildingBlock: ZUJKAS_clean_linker_0, # of connection points: 2
#     Edge 54, Type (0, 1), BuildingBlock: ZUJKAS_clean_linker_0, # of connection points: 2
#     Edge 55, Type (0, 1), BuildingBlock: ZUJKAS_clean_linker_0, # of connection points: 2
#     Edge 56, Type (0, 1), BuildingBlock: ZUJKAS_clean_linker_0, # of connection points: 2
#     Edge 57, Type (0, 1), BuildingBlock: ZUJKAS_clean_linker_0, # of connection points: 2
#     Edge 58, Type (0, 1), BuildingBlock: ZUJKAS_clean_linker_0, # of connection points: 2
#     Edge 59, Type (0, 1), BuildingBlock: ZUJKAS_clean_linker_0, # of connection points: 2
#     Edge 60, Type (0, 1), BuildingBlock: ZUJKAS_clean_linker_0, # of connection points: 2
#     Edge 61, Type (0, 1), BuildingBlock: ZUJKAS_clean_linker_0, # of connection points: 2
#     Edge 62, Type (0, 1), BuildingBlock: ZUJKAS_clean_linker_0, # of connection points: 2
#     Edge 63, Type (0, 1), BuildingBlock: ZUJKAS_clean_linker_0, # of connection points: 2
#     Edge 64, Type (0, 1), BuildingBlock: ZUJKAS_clean_linker_0, # of connection points: 2
#     Edge 65, Type (0, 1), BuildingBlock: ZUJKAS_clean_linker_0, # of connection points: 2
#     Edge 66, Type (0, 1), BuildingBlock: ZUJKAS_clean_linker_0, # of connection points: 2
#     Edge 67, Type (0, 1), BuildingBlock: ZUJKAS_clean_linker_0, # of connection points: 2
#     Edge 68, Type (0, 1), BuildingBlock: ZUJKAS_clean_linker_0, # of connection points: 2
#     Edge 69, Type (0, 1), BuildingBlock: ZUJKAS_clean_linker_0, # of connection points: 2
#     Edge 70, Type (0, 1), BuildingBlock: ZUJKAS_clean_linker_0, # of connection points: 2
#     Edge 71, Type (0, 1), BuildingBlock: ZUJKAS_clean_linker_0, # of connection points: 2
#     Edge 72, Type (0, 1), BuildingBlock: ZUJKAS_clean_linker_0, # of connection points: 2
#     Edge 73, Type (0, 1), BuildingBlock: ZUJKAS_clean_linker_0, # of connection points: 2
#     Edge 74, Type (0, 1), BuildingBlock: ZUJKAS_clean_linker_0, # of connection points: 2
#     Edge 75, Type (0, 1), BuildingBlock: ZUJKAS_clean_linker_0, # of connection points: 2
#     Edge 76, Type (0, 1), BuildingBlock: ZUJKAS_clean_linker_0, # of connection points: 2
#     Edge 77, Type (0, 1), BuildingBlock: ZUJKAS_clean_linker_0, # of connection points: 2
#     Edge 78, Type (0, 1), BuildingBlock: ZUJKAS_clean_linker_0, # of connection points: 2
#     Edge 79, Type (0, 1), BuildingBlock: ZUJKAS_clean_linker_0, # of connection points: 2
#     Edge 80, Type (0, 1), BuildingBlock: ZUJKAS_clean_linker_0, # of connection points: 2
# Relax obj value: 0.039
# Max RMSD: 0.194
# Mean RMSD: 0.139
data_MOF--net-eea--node1-KUMBOL_clean_sbu_0--node2-CUQRIR_clean_linker_1--edge1-ZUJKAS_clean_linker_0
_symmetry_space_group_name_H-M    P1
_symmetry_Int_Tables_number       1
_symmetry_cell_setting            triclinic
loop_
_symmetry_equiv_pos_as_xyz
'x, y, z'
_cell_length_a     63.880598
_cell_length_b     67.896241
_cell_length_c     79.398084
_cell_angle_alpha  83.306236
_cell_angle_beta   90.006103
_cell_angle_gamma 118.82845
loop_
_atom_site_label
_atom_site_type_symbol
_atom_site_fract_x
_atom_site_fract_y
_atom_site_fract_z
_atom_type_partial_charge
C0 C 0.21749 0.10575 0.41377 0.0
N1 N 0.22609 0.12261 0.42372 0.0
N2 N 0.22424 0.09006 0.41908 0.0
C3 C 0.204 0.10539 0.39819 0.0
C4 C 0.23724 0.09797 0.43259 0.0
N5 N 0.23858 0.11786 0.43531 0.0
C6 C 0.24697 0.08531 0.44391 0.0
H7 H 0.18463 0.09737 0.40202 0.0
H8 H 0.2065 0.09544 0.38902 0.0
H9 H 0.20992 0.12287 0.39188 0.0
H10 H 0.26583 0.0913 0.43955 0.0
H11 H 0.23654 0.0668 0.44338 0.0
H12 H 0.24659 0.08847 0.45728 0.0
C13 C 0.90579 0.11713 0.41645 0.0
N14 N 0.91584 0.13364 0.42669 0.0
N15 N 0.88265 0.10239 0.42179 0.0
C16 C 0.91788 0.11633 0.40049 0.0
C17 C 0.87895 0.11056 0.4356 0.0
N18 N 0.89897 0.12963 0.43849 0.0
C19 C 0.85623 0.09908 0.44691 0.0
H20 H 0.90456 0.10704 0.3914 0.0
H21 H 0.92829 0.1074 0.40382 0.0
H22 H 0.93041 0.13371 0.39425 0.0
H23 H 0.84618 0.08063 0.44604 0.0
H24 H 0.84476 0.10666 0.44285 0.0
H25 H 0.86016 0.1016 0.46035 0.0
C26 C 0.93068 0.85691 0.41965 0.0
N27 N 0.94069 0.84788 0.43081 0.0
N28 N 0.91164 0.85683 0.42716 0.0
C29 C 0.93846 0.86438 0.40107 0.0
C30 C 0.91063 0.84761 0.44342 0.0
N31 N 0.92841 0.84227 0.44566 0.0
C32 C 0.88966 0.83994 0.45599 0.0
H33 H 0.95818 0.87194 0.39918 0.0
H34 H 0.93288 0.87687 0.39575 0.0
H35 H 0.93002 0.84944 0.39409 0.0
H36 H 0.87385 0.82527 0.45177 0.0
H37 H 0.88515 0.85374 0.45638 0.0
H38 H 0.89327 0.83485 0.46896 0.0
C39 C 0.08292 0.16217 0.62713 0.0
N40 N 0.1021 0.17205 0.61585 0.0
N41 N 0.06387 0.1628 0.62024 0.0
C42 C 0.08335 0.15373 0.64544 0.0
C43 C 0.07212 0.17311 0.60414 0.0
N44 N 0.09536 0.17867 0.60146 0.0
C45 C 0.05907 0.18187 0.5924 0.0
H46 H 0.09571 0.14654 0.64669 0.0
H47 H 0.06511 0.1407 0.65063 0.0
H48 H 0.08988 0.16809 0.65302 0.0
H49 H 0.06137 0.19796 0.59626 0.0
H50 H 0.03965 0.16955 0.5933 0.0
H51 H 0.06611 0.18521 0.57902 0.0
C52 C 0.79612 0.91074 0.6295 0.0
N53 N 0.7899 0.89464 0.619 0.0
N54 N 0.7927 0.928 0.62233 0.0
C55 C 0.80759 0.91069 0.64606 0.0
C56 C 0.7844 0.92195 0.60702 0.0
N57 N 0.78298 0.90184 0.60489 0.0
C58 C 0.77565 0.93467 0.59481 0.0
H59 H 0.7934 0.90179 0.65651 0.0
H60 H 0.81947 0.92826 0.64877 0.0
H61 H 0.81822 0.90174 0.6458 0.0
H62 H 0.7906 0.94669 0.58551 0.0
H63 H 0.76938 0.94446 0.60157 0.0
H64 H 0.76079 0.92288 0.58771 0.0
C65 C 0.11768 0.91646 0.63361 0.0
N66 N 0.1082 0.89942 0.62375 0.0
N67 N 0.13993 0.93259 0.62732 0.0
C68 C 0.10623 0.91651 0.65014 0.0
C69 C 0.14372 0.92479 0.61335 0.0
N70 N 0.12461 0.9046 0.61124 0.0
C71 C 0.16546 0.93764 0.60112 0.0
H72 H 0.09458 0.9243 0.64754 0.0
H73 H 0.11999 0.9266 0.6587 0.0
H74 H 0.09508 0.89898 0.65666 0.0
H75 H 0.17383 0.95617 0.60154 0.0
H76 H 0.16073 0.9342 0.58793 0.0
H77 H 0.17875 0.93206 0.60469 0.0
C78 C 0.88447 0.43991 0.74773 0.0
N79 N 0.89301 0.45728 0.7572 0.0
N80 N 0.89128 0.42445 0.75363 0.0
C81 C 0.871 0.43883 0.73202 0.0
C82 C 0.90425 0.43302 0.76702 0.0
N83 N 0.9055 0.45307 0.76909 0.0
C84 C 0.91407 0.4209 0.77881 0.0
H85 H 0.85161 0.43078 0.73578 0.0
H86 H 0.87367 0.42857 0.72322 0.0
H87 H 0.8768 0.4561 0.72531 0.0
H88 H 0.93287 0.42664 0.77447 0.0
H89 H 0.90358 0.40227 0.77882 0.0
H90 H 0.91385 0.42479 0.79198 0.0
C91 C 0.57225 0.45112 0.74905 0.0
N92 N 0.58239 0.46793 0.75907 0.0
N93 N 0.55122 0.43391 0.75643 0.0
C94 C 0.58397 0.45023 0.73291 0.0
C95 C 0.54903 0.44064 0.77142 0.0
N96 N 0.56801 0.4611 0.77315 0.0
C97 C 0.52742 0.42807 0.7838 0.0
H98 H 0.57832 0.45778 0.72191 0.0
H99 H 0.57843 0.43242 0.73119 0.0
H100 H 0.60377 0.45981 0.73303 0.0
H101 H 0.53036 0.41647 0.79331 0.0
H102 H 0.51108 0.41785 0.77721 0.0
H103 H 0.5245 0.43999 0.79062 0.0
C104 C 0.5956 0.18906 0.75408 0.0
N105 N 0.60556 0.17969 0.76498 0.0
N106 N 0.57624 0.18832 0.76165 0.0
C107 C 0.60356 0.19725 0.73558 0.0
C108 C 0.575 0.17838 0.7777 0.0
N109 N 0.59293 0.17322 0.77976 0.0
C110 C 0.55367 0.1696 0.79014 0.0
H111 H 0.59805 0.20992 0.73062 0.0
H112 H 0.59514 0.18268 0.72822 0.0
H113 H 0.62329 0.20482 0.73372 0.0
H114 H 0.53987 0.15266 0.78734 0.0
H115 H 0.54578 0.18105 0.78897 0.0
H116 H 0.5586 0.16783 0.8034 0.0
C117 C 0.74906 0.49875 0.95874 0.0
N118 N 0.76925 0.5085 0.9484 0.0
N119 N 0.73071 0.49898 0.95041 0.0
C120 C 0.74779 0.4914 0.97751 0.0
C121 C 0.74047 0.50894 0.93451 0.0
N122 N 0.76388 0.51462 0.93324 0.0
C123 C 0.72819 0.51642 0.9211 0.0
H124 H 0.7621 0.48708 0.98079 0.0
H125 H 0.73009 0.47648 0.98164 0.0
H126 H 0.74991 0.50541 0.98452 0.0
H127 H 0.73583 0.5351 0.92004 0.0
H128 H 0.70861 0.50813 0.92423 0.0
H129 H 0.73142 0.51228 0.90859 0.0
C130 C 0.46187 0.24379 0.96397 0.0
N131 N 0.45614 0.22813 0.95313 0.0
N132 N 0.45911 0.26147 0.95684 0.0
C133 C 0.47235 0.24297 0.98085 0.0
C134 C 0.45174 0.25614 0.94121 0.0
N135 N 0.45021 0.23606 0.93888 0.0
C136 C 0.44436 0.2697 0.92866 0.0
H137 H 0.4576 0.23381 0.99091 0.0
H138 H 0.48411 0.26032 0.98403 0.0
H139 H 0.48288 0.2339 0.98077 0.0
H140 H 0.46006 0.28177 0.91996 0.0
H141 H 0.43788 0.27948 0.93523 0.0
H142 H 0.43005 0.25851 0.9209 0.0
C143 C 0.78482 0.25211 0.96699 0.0
N144 N 0.77565 0.23461 0.95758 0.0
N145 N 0.8069 0.26839 0.96046 0.0
C146 C 0.77229 0.25326 0.98258 0.0
C147 C 0.81093 0.26008 0.94684 0.0
N148 N 0.7921 0.2395 0.94518 0.0
C149 C 0.83334 0.27193 0.93519 0.0
H150 H 0.75953 0.25936 0.9786 0.0
H151 H 0.78504 0.26514 0.99078 0.0
H152 H 0.762 0.23619 0.99004 0.0
H153 H 0.8448 0.2641 0.93851 0.0
H154 H 0.84387 0.29023 0.93632 0.0
H155 H 0.82878 0.2698 0.9218 0.0
C156 C 0.54939 0.77349 0.08175 0.0
N157 N 0.55837 0.79065 0.09141 0.0
N158 N 0.55529 0.75736 0.0876 0.0
C159 C 0.53494 0.7726 0.06662 0.0
C160 C 0.56834 0.76541 0.10108 0.0
N161 N 0.57042 0.78575 0.10329 0.0
C162 C 0.57925 0.75353 0.11202 0.0
H163 H 0.51656 0.76813 0.07114 0.0
H164 H 0.53366 0.75977 0.05864 0.0
H165 H 0.54294 0.78951 0.05881 0.0
H166 H 0.59843 0.76105 0.10783 0.0
H167 H 0.57048 0.73516 0.11103 0.0
H168 H 0.57813 0.75592 0.12551 0.0
C169 C 0.23965 0.78994 0.07956 0.0
N170 N 0.25014 0.8054 0.09055 0.0
N171 N 0.21888 0.77208 0.0867 0.0
C172 C 0.2506 0.7914 0.06237 0.0
C173 C 0.21715 0.77721 0.10245 0.0
N174 N 0.23629 0.79724 0.10492 0.0
C175 C 0.19555 0.76376 0.11476 0.0
H176 H 0.24484 0.80072 0.05274 0.0
H177 H 0.24467 0.77425 0.05881 0.0
H178 H 0.27044 0.80069 0.06217 0.0
H179 H 0.19855 0.75165 0.12368 0.0
H180 H 0.17921 0.75402 0.10802 0.0
H181 H 0.19253 0.77507 0.12227 0.0
C182 C 0.2637 0.52532 0.08878 0.0
N183 N 0.27242 0.51471 0.09977 0.0
N184 N 0.24216 0.52164 0.09484 0.0
C185 C 0.27416 0.53575 0.07093 0.0
C186 C 0.2381 0.50838 0.10987 0.0
N187 N 0.25634 0.50396 0.11281 0.0
C188 C 0.21543 0.49855 0.12106 0.0
H189 H 0.26477 0.54429 0.06442 0.0
H190 H 0.27285 0.52229 0.06359 0.0
H191 H 0.2934 0.54828 0.07115 0.0
H192 H 0.20215 0.48215 0.11707 0.0
H193 H 0.20766 0.51013 0.11976 0.0
H194 H 0.21888 0.4955 0.13455 0.0
C195 C 0.41902 0.83176 0.28602 0.0
N196 N 0.43941 0.84366 0.27591 0.0
N197 N 0.40186 0.83673 0.28034 0.0
C198 C 0.41658 0.81664 0.30218 0.0
C199 C 0.4126 0.85197 0.26624 0.0
N200 N 0.43544 0.8563 0.26369 0.0
C201 C 0.40123 0.86382 0.25576 0.0
H202 H 0.39754 0.80573 0.30682 0.0
H203 H 0.42663 0.82726 0.31205 0.0
H204 H 0.4245 0.80569 0.30005 0.0
H205 H 0.3959 0.87304 0.26395 0.0
H206 H 0.38486 0.85109 0.25051 0.0
H207 H 0.41318 0.8758 0.2449 0.0
C208 C 0.13273 0.57719 0.29657 0.0
N209 N 0.12602 0.56133 0.2858 0.0
N210 N 0.12903 0.5945 0.28999 0.0
C211 C 0.14242 0.5756 0.31365 0.0
C212 C 0.12 0.58873 0.27482 0.0
N213 N 0.11839 0.56873 0.27219 0.0
C214 C 0.1121 0.60231 0.26279 0.0
H215 H 0.12723 0.56652 0.32338 0.0
H216 H 0.1543 0.59264 0.31726 0.0
H217 H 0.15247 0.56607 0.31367 0.0
H218 H 0.12175 0.62051 0.26455 0.0
H219 H 0.09264 0.59577 0.26538 0.0
H220 H 0.11509 0.60055 0.24941 0.0
C221 C 0.45103 0.5828 0.30143 0.0
N222 N 0.4412 0.56548 0.29187 0.0
N223 N 0.47338 0.59855 0.295 0.0
C224 C 0.43969 0.58356 0.31777 0.0
C225 C 0.47681 0.59017 0.28122 0.0
N226 N 0.45743 0.57005 0.2794 0.0
C227 C 0.49849 0.6024 0.2689 0.0
H228 H 0.42805 0.59128 0.31483 0.0
H229 H 0.45349 0.59399 0.32617 0.0
H230 H 0.4285 0.56622 0.32461 0.0
H231 H 0.51146 0.59642 0.27255 0.0
H232 H 0.50734 0.62099 0.2691 0.0
H233 H 0.49356 0.59875 0.25578 0.0
Gd234 Gd 0.52757 0.02878 0.04262 0.0
Gd235 Gd 0.50526 1.00094 1.00417 0.0
C236 C 0.43357 0.93643 1.00383 0.0
C237 C 0.44607 0.90893 0.99867 0.0
C238 C 0.47577 0.94819 1.0001 0.0
C239 C 0.4578 0.95332 1.00327 0.0
C240 C 0.47013 0.92605 0.99739 0.0
C241 C 0.42782 0.9141 1.00191 0.0
C242 C 0.41585 0.94261 1.00587 0.0
C243 C 0.42251 0.96529 1.0067 0.0
N244 N 0.464 0.97509 1.00495 0.0
C245 C 0.4468 0.98145 1.00598 0.0
H246 H 0.45163 0.99888 1.0067 0.0
C247 C 0.51698 0.96154 0.99382 0.0
N248 N 0.49879 0.96514 0.99888 0.0
C249 C 0.5123 0.93985 0.99106 0.0
C250 C 0.48879 0.92195 0.99306 0.0
H251 H 0.53519 0.97529 0.99235 0.0
H252 H 0.40931 0.90084 1.00249 0.0
H253 H 0.5805 0.02954 0.03985 0.0
H254 H 0.39703 0.93014 1.00641 0.0
H255 H 0.40896 0.97033 0.00797 0.0
H256 H 0.44137 0.89176 0.99679 0.0
H257 H 0.4994 0.05546 0.05541 0.0
H258 H 0.6365 0.09795 0.03898 0.0
H259 H 0.62344 0.05738 0.03806 0.0
H260 H 0.59416 0.13813 0.04878 0.0
H261 H 0.52681 0.93694 0.98743 0.0
H262 H 0.4852 0.90518 0.99088 0.0
H263 H 0.62537 0.12809 0.04268 0.0
H264 H 0.50893 0.09415 0.0603 0.0
N265 N 0.56907 0.05406 0.04129 0.0
C266 C 0.61756 0.08578 0.03977 0.0
C267 C 0.61026 0.06289 0.0393 0.0
C268 C 0.60033 0.09256 0.04183 0.0
C269 C 0.57592 0.07604 0.04271 0.0
C270 C 0.58582 0.04713 0.04032 0.0
N271 N 0.53532 0.065 0.04786 0.0
C272 C 0.55845 0.08171 0.04606 0.0
C273 C 0.52302 0.09092 0.05622 0.0
C274 C 0.54661 0.10857 0.05357 0.0
C275 C 0.51769 0.06904 0.05348 0.0
C276 C 0.56475 0.10403 0.0487 0.0
H277 H 0.55071 0.12549 0.05575 0.0
O278 O 0.51286 0.02255 0.06855 0.0
O279 O 0.49791 1.00078 0.03149 0.0
O280 O 0.49347 0.02721 1.0071 0.0
O281 O 0.5207 0.0526 0.02404 0.0
O282 O 0.48799 0.01546 0.04885 0.0
O283 O 0.54107 0.0147 0.06294 0.0
O284 O 0.52345 1.01069 0.97911 0.0
O285 O 0.53449 0.02939 0.01527 0.0
O286 O 0.53849 1.00175 0.03953 0.0
O287 O 0.51029 0.9765 0.02305 0.0
O288 O 0.5451 0.01447 0.99858 0.0
O289 O 0.49007 0.01128 0.98272 0.0
C290 C 0.48004 0.99972 0.03918 0.0
C291 C 0.58896 0.12083 0.04699 0.0
C292 C 0.60672 0.1151 0.04353 0.0
C293 C 0.52759 0.01578 0.07472 0.0
C294 C 0.53952 0.02521 0.08989 0.0
C295 C 0.5548 0.04855 0.08964 0.0
C296 C 0.53568 1.01044 0.10483 0.0
C297 C 0.54692 0.01879 0.11963 0.0
C298 C 0.56605 0.057 0.10426 0.0
C299 C 0.56213 0.04225 0.11921 0.0
C300 C 0.50437 0.04734 0.01258 0.0
C301 C 0.55261 0.03067 0.00785 0.0
C302 C 0.50681 0.01382 0.97187 0.0
C303 C 0.49923 1.00416 0.95595 0.0
C304 C 0.48107 0.98173 0.9558 0.0
C305 C 0.511 0.01766 0.94064 0.0
C306 C 0.50481 1.009 0.92506 0.0
C307 C 0.47476 0.97297 0.94038 0.0
C308 C 0.4865 0.98648 0.92508 0.0
C309 C 0.52677 0.98145 0.03432 0.0
H310 H 0.55802 0.06018 0.07822 0.0
H311 H 0.5236 0.99244 0.10499 0.0
H312 H 0.57785 0.07503 0.10401 0.0
H313 H 0.57112 0.04916 0.13038 0.0
H314 H 0.47185 0.97105 0.96752 0.0
H315 H 0.52482 0.03508 0.94087 0.0
H316 H 0.46075 0.95564 0.9403 0.0
H317 H 0.48142 0.97927 0.91331 0.0
Gd318 Gd 0.99591 0.51725 0.04026 0.0
Gd319 Gd 0.02622 0.53278 0.99689 0.0
C320 C 0.09696 0.53235 0.98978 0.0
C321 C 0.12496 0.57233 0.98136 0.0
C322 C 0.08265 0.55964 0.9869 0.0
C323 C 0.07817 0.53756 0.9908 0.0
C324 C 0.10595 0.5772 0.98159 0.0
C325 C 0.12048 0.54993 0.98549 0.0
C326 C 0.09144 0.50958 0.9926 0.0
C327 C 0.06757 0.49267 0.99566 0.0
N328 N 0.0552 0.52101 0.99472 0.0
C329 C 0.04954 0.4987 0.99645 0.0
H330 H 0.03122 0.48545 0.99897 0.0
C331 C 0.06667 0.58447 0.98079 0.0
N332 N 0.06383 0.56365 0.98711 0.0
C333 C 0.08945 0.60248 0.97543 0.0
C334 C 0.10926 0.59892 0.97609 0.0
H335 H 0.0514 0.58729 0.9804 0.0
H336 H 0.1352 0.5463 0.98484 0.0
H337 H 0.99109 0.56464 0.03826 0.0
H338 H 0.10536 0.50487 0.99201 0.0
H339 H 0.06304 0.47499 0.99751 0.0
H340 H 0.14306 0.58563 0.97753 0.0
H341 H 0.97104 0.46258 0.05603 0.0
H342 H 0.91768 0.54551 0.04875 0.0
H343 H 0.95967 0.57523 0.04148 0.0
H344 H 0.87996 0.4647 0.06261 0.0
H345 H 0.09173 0.61909 0.97084 0.0
H346 H 0.12688 0.61288 0.97189 0.0
H347 H 0.88785 0.5041 0.056 0.0
H348 H 0.931 0.43084 0.06634 0.0
N349 N 0.96713 0.52909 0.04299 0.0
C350 C 0.93137 0.54069 0.04714 0.0
C351 C 0.95507 0.55753 0.04313 0.0
C352 C 0.92574 0.51789 0.04957 0.0
C353 C 0.94431 0.51258 0.04752 0.0
C354 C 0.97287 0.55141 0.04132 0.0
N355 N 0.95854 0.48633 0.05028 0.0
C356 C 0.93985 0.49045 0.05123 0.0
C357 C 0.93321 0.44749 0.06204 0.0
C358 C 0.9135 0.45117 0.06224 0.0
C359 C 0.95582 0.46546 0.05623 0.0
C360 C 0.91674 0.47295 0.05711 0.0
H361 H 0.89603 0.43726 0.06683 0.0
O362 O 0.00583 0.50564 0.06404 0.0
O363 O 0.02653 0.52215 0.02417 0.0
O364 O 0.99939 0.49478 1.00257 0.0
O365 O 0.97247 0.48966 0.02483 0.0
O366 O 0.0133 0.49488 0.04293 0.0
O367 O 0.00574 0.53771 0.06097 0.0
O368 O 0.01687 0.54417 0.97277 0.0
O369 O 0.99557 0.52812 0.01293 0.0
O370 O 0.02263 0.55522 0.03481 0.0
O371 O 0.04922 0.56077 0.01215 0.0
O372 O 0.00938 0.55551 0.99417 0.0
O373 O 0.01619 0.51178 0.97651 0.0
C374 C 0.02992 0.50638 0.03101 0.0
C375 C 0.8979 0.47794 0.0583 0.0
C376 C 0.9024 0.50038 0.05455 0.0
C377 C 0.00842 0.52282 0.07135 0.0
C378 C 0.99705 0.5173 0.08862 0.0
C379 C 0.97233 0.50893 0.09114 0.0
C380 C 0.01097 0.51993 0.10276 0.0
C381 C 1.00023 0.51402 0.1194 0.0
C382 C 0.96157 0.50303 0.10756 0.0
C383 C 0.97535 0.50548 0.12161 0.0
C384 C 0.97858 0.4827 0.01169 0.0
C385 C 0.99276 0.5443 1.00614 0.0
C386 C 0.01411 0.52671 0.96578 0.0
C387 C 0.02604 0.53172 0.94877 0.0
C388 C 0.05105 0.5421 0.94664 0.0
C389 C 0.01234 0.5262 0.93448 0.0
C390 C 0.02356 0.5311 0.91807 0.0
C391 C 0.06231 0.54721 0.93047 0.0
C392 C 0.04874 0.54185 0.91627 0.0
C393 C 0.04324 0.56747 0.02551 0.0
H394 H 0.96137 0.50697 0.08045 0.0
H395 H 0.03007 0.52628 0.10081 0.0
H396 H 0.94247 0.49658 0.1094 0.0
H397 H 0.96659 0.50106 0.13422 0.0
H398 H 0.06187 0.54626 0.95744 0.0
H399 H 0.99298 0.51779 0.93622 0.0
H400 H 0.08165 0.5554 0.92893 0.0
H401 H 0.05802 0.54632 0.90385 0.0
Gd402 Gd 0.49452 0.51234 1.00441 0.0
Gd403 Gd 0.50715 0.49762 0.04866 0.0
C404 C 0.57735 0.49699 0.05848 0.0
C405 C 0.56341 0.45711 0.06825 0.0
C406 C 0.5349 0.47033 0.06102 0.0
C407 C 0.55342 0.49215 0.05679 0.0
C408 C 0.53959 0.45264 0.06725 0.0
C409 C 0.58227 0.47926 0.06383 0.0
C410 C 0.59554 0.51956 0.05516 0.0
C411 C 0.58954 0.53668 0.05094 0.0
N412 N 0.54794 0.50884 0.05182 0.0
C413 C 0.56551 0.53102 0.04956 0.0
H414 H 0.56125 0.54447 0.04618 0.0
C415 C 0.49321 0.44613 0.06624 0.0
N416 N 0.51217 0.4667 0.06001 0.0
C417 C 0.49692 0.428 0.07249 0.0
C418 C 0.52021 0.43117 0.07277 0.0
H419 H 0.47517 0.44359 0.0659 0.0
H420 H 0.60055 0.4826 0.06503 0.0
H421 H 0.44034 0.46576 1.00626 0.0
H422 H 0.61416 0.52398 0.05623 0.0
H423 H 0.60343 0.55424 0.04868 0.0
H424 H 0.56742 0.4437 0.07282 0.0
H425 H 0.52708 0.56649 0.9876 0.0
H426 H 0.3879 0.48694 0.99643 0.0
H427 H 0.39824 0.45636 1.00361 0.0
H428 H 0.43528 0.5673 0.98063 0.0
H429 H 0.48183 0.41159 0.07704 0.0
H430 H 0.52305 0.41713 0.07766 0.0
H431 H 0.40188 0.52848 0.98815 0.0
H432 H 0.52081 0.59878 0.97656 0.0
N433 N 0.45387 0.50146 1.00118 0.0
C434 C 0.40646 0.4912 0.99764 0.0
C435 C 0.41224 0.4739 1.00162 0.0
C436 C 0.42479 0.51375 0.99464 0.0
C437 C 0.44863 0.51836 0.99642 0.0
C438 C 0.43619 0.47933 1.00309 0.0
N439 N 0.49 0.54363 0.99338 0.0
C440 C 0.46733 0.54016 0.99232 0.0
C441 C 0.50561 0.58241 0.98104 0.0
C442 C 0.48239 0.57944 0.98074 0.0
C443 C 0.50911 0.56413 0.98724 0.0
C444 C 0.46286 0.55802 0.98617 0.0
H445 H 0.47972 0.5936 0.97591 0.0
O446 O 0.51669 0.52302 0.9808 0.0
O447 O 0.51921 0.50713 0.02142 0.0
O448 O 0.52049 0.53561 0.04187 0.0
O449 O 0.49946 0.54053 0.0191 0.0
O450 O 0.53492 0.5339 1.00233 0.0
O451 O 0.48358 0.49115 0.98412 0.0
O452 O 0.48576 0.48704 0.07263 0.0
O453 O 0.4821 0.5023 0.03165 0.0
O454 O 0.48125 0.47438 0.01079 0.0
O455 O 0.50112 0.46886 0.03419 0.0
O456 O 0.467 0.47534 0.05071 0.0
O457 O 0.51729 0.52006 0.06808 0.0
C458 C 0.5391 0.52242 0.01468 0.0
C459 C 0.43911 0.55376 0.98514 0.0
C460 C 0.4201 0.53166 0.98941 0.0
C461 C 0.50166 0.50565 0.97367 0.0
C462 C 0.49607 0.51077 0.9562 0.0
C463 C 0.47846 0.51728 0.95348 0.0
C464 C 0.50859 0.50945 0.94212 0.0
C465 C 0.50362 0.51476 0.92537 0.0
C466 C 0.4734 0.52248 0.93701 0.0
C467 C 0.48581 0.52124 0.92306 0.0
C468 C 0.51245 0.54766 0.03231 0.0
C469 C 0.46242 0.48644 0.03832 0.0
C470 C 0.50008 0.50539 0.07905 0.0
C471 C 0.50704 0.50216 0.09642 0.0
C472 C 0.52357 0.49432 0.09932 0.0
C473 C 0.49754 0.50738 0.11019 0.0
C474 C 0.50485 0.50508 0.12676 0.0
C475 C 0.53062 0.49173 0.11568 0.0
C476 C 0.52142 0.49712 0.1293 0.0
C477 C 0.48864 0.46204 0.02068 0.0
H478 H 0.46857 0.51828 0.96408 0.0
H479 H 0.52234 0.5046 0.94423 0.0
H480 H 0.45971 0.5274 0.93503 0.0
H481 H 0.48116 0.52501 0.91043 0.0
H482 H 0.53113 0.49033 0.08894 0.0
H483 H 0.48494 0.51367 0.10796 0.0
H484 H 0.54336 0.48563 0.1178 0.0
H485 H 0.52716 0.49489 0.14188 0.0
Gd486 Gd 0.18946 0.35775 0.37619 0.0
Gd487 Gd 0.17177 0.33218 0.33655 0.0
C488 C 0.10036 0.26931 0.3315 0.0
C489 C 0.11284 0.24165 0.32682 0.0
C490 C 0.14246 0.28008 0.33074 0.0
C491 C 0.12446 0.28553 0.33291 0.0
C492 C 0.1369 0.25822 0.32734 0.0
C493 C 0.0946 0.24721 0.32885 0.0
C494 C 0.08285 0.27601 0.33222 0.0
C495 C 0.08956 0.29839 0.3342 0.0
N496 N 0.13065 0.30709 0.3353 0.0
C497 C 0.11368 0.31385 0.33553 0.0
H498 H 0.11853 0.3311 0.33694 0.0
C499 C 0.18395 0.29289 0.32673 0.0
N500 N 0.16551 0.2966 0.33094 0.0
C501 C 0.17935 0.2714 0.32348 0.0
C502 C 0.15572 0.2539 0.32399 0.0
H503 H 0.20224 0.30639 0.32633 0.0
H504 H 0.07615 0.23445 0.32795 0.0
H505 H 0.24298 0.35943 0.37542 0.0
H506 H 0.06418 0.26417 0.33092 0.0
H507 H 0.07618 0.30378 0.3346 0.0
H508 H 0.10819 0.22469 0.32437 0.0
H509 H 0.15926 0.38295 0.38827 0.0
H510 H 0.29757 0.42785 0.37706 0.0
H511 H 0.28562 0.38769 0.37528 0.0
H512 H 0.25301 0.46621 0.38607 0.0
H513 H 0.19402 0.26836 0.32057 0.0
H514 H 0.1522 0.23731 0.32135 0.0
H515 H 0.28522 0.45714 0.38088 0.0
H516 H 0.1674 0.42098 0.39392 0.0
N517 N 0.23066 0.38333 0.37677 0.0
C518 C 0.27876 0.41549 0.37714 0.0
C519 C 0.27208 0.39283 0.37618 0.0
C520 C 0.26104 0.42176 0.37876 0.0
C521 C 0.23684 0.40502 0.37868 0.0
C522 C 0.24781 0.37682 0.37628 0.0
N523 N 0.19583 0.39324 0.38227 0.0
C524 C 0.21881 0.41015 0.38152 0.0
C525 C 0.18202 0.4182 0.39037 0.0
C526 C 0.20553 0.43609 0.38882 0.0
C527 C 0.17748 0.39669 0.38721 0.0
C528 C 0.22433 0.43212 0.38461 0.0
H529 H 0.20902 0.45273 0.39131 0.0
O530 O 0.17168 0.34938 0.40135 0.0
O531 O 0.16149 0.3302 0.36357 0.0
O532 O 0.1598 0.35853 0.33866 0.0
O533 O 0.18417 0.38251 0.35758 0.0
O534 O 0.1494 0.3441 0.38012 0.0
O535 O 0.20163 0.34341 0.39723 0.0
O536 O 0.19255 0.34267 0.31247 0.0
O537 O 0.19935 0.36012 0.34907 0.0
O538 O 0.20145 0.33138 0.37352 0.0
O539 O 0.17542 0.30699 0.35558 0.0
O540 O 0.21189 0.34577 0.33319 0.0
O541 O 0.15897 0.34334 0.31405 0.0
C542 C 0.14275 0.32872 0.37018 0.0
C543 C 0.24839 0.44916 0.38391 0.0
C544 C 0.26672 0.44399 0.38096 0.0
C545 C 0.1863 0.34298 0.40829 0.0
C546 C 0.19576 0.35139 0.42431 0.0
C547 C 0.21205 0.37433 0.4249 0.0
C548 C 0.18856 0.33598 0.43925 0.0
C549 C 0.19741 0.34328 0.45488 0.0
C550 C 0.22102 0.38174 0.44035 0.0
C551 C 0.21379 0.36635 0.45527 0.0
C552 C 0.16941 0.37803 0.34509 0.0
C553 C 0.21821 0.3617 0.34263 0.0
C554 C 0.17678 0.34613 0.30418 0.0
C555 C 0.17105 0.337 0.28794 0.0
C556 C 0.15341 0.31457 0.28703 0.0
C557 C 0.18421 0.35097 0.27313 0.0
C558 C 0.18001 0.34273 0.25733 0.0
C559 C 0.14908 0.30622 0.2714 0.0
C560 C 0.16227 0.32017 0.25661 0.0
C561 C 0.19076 0.31148 0.36764 0.0
H562 H 0.21786 0.38642 0.41349 0.0
H563 H 0.17626 0.31821 0.43862 0.0
H564 H 0.23357 0.39947 0.44076 0.0
H565 H 0.22075 0.37255 0.46713 0.0
H566 H 0.14309 0.30356 0.29833 0.0
H567 H 0.19757 0.36839 0.27394 0.0
H568 H 0.1355 0.28887 0.27074 0.0
H569 H 0.15873 0.31324 0.24467 0.0
Gd570 Gd 0.6608 0.84703 0.3748 0.0
Gd571 Gd 0.69181 0.86334 0.33173 0.0
C572 C 0.76145 0.86173 0.32229 0.0
C573 C 0.78994 0.90168 0.31436 0.0
C574 C 0.74812 0.88969 0.32145 0.0
C575 C 0.74318 0.86737 0.32459 0.0
C576 C 0.77143 0.90705 0.31589 0.0
C577 C 0.78494 0.87904 0.31749 0.0
C578 C 0.75541 0.83882 0.32433 0.0
C579 C 0.73162 0.82221 0.3283 0.0
N580 N 0.72022 0.85104 0.32893 0.0
C581 C 0.71411 0.82863 0.33035 0.0
H582 H 0.69581 0.81556 0.33335 0.0
C583 C 0.73295 0.91538 0.31707 0.0
N584 N 0.7297 0.89417 0.32255 0.0
C585 C 0.7558 0.93324 0.31171 0.0
C586 C 0.77521 0.92913 0.31134 0.0
H587 H 0.71794 0.91858 0.31733 0.0
H588 H 0.79924 0.87506 0.31578 0.0
H589 H 0.65577 0.89436 0.37266 0.0
H590 H 0.76886 0.83377 0.3225 0.0
H591 H 0.72671 0.80443 0.3297 0.0
H592 H 0.80802 0.9148 0.31023 0.0
H593 H 0.63567 0.79228 0.39051 0.0
H594 H 0.58188 0.87493 0.38114 0.0
H595 H 0.62404 0.90479 0.37481 0.0
H596 H 0.54424 0.79413 0.39515 0.0
H597 H 0.75841 0.95013 0.30782 0.0
H598 H 0.79285 0.94295 0.30702 0.0
H599 H 0.55208 0.8335 0.38826 0.0
H600 H 0.59541 0.76042 0.40015 0.0
N601 N 0.63184 0.85878 0.37713 0.0
C602 C 0.59573 0.8702 0.38007 0.0
C603 C 0.61952 0.88711 0.37658 0.0
C604 C 0.5902 0.84743 0.38273 0.0
C605 C 0.60894 0.84222 0.38129 0.0
C606 C 0.63749 0.88108 0.3754 0.0
N607 N 0.62326 0.81607 0.38452 0.0
C608 C 0.6045 0.82013 0.3851 0.0
C609 C 0.59769 0.7771 0.39587 0.0
C610 C 0.57794 0.78074 0.39568 0.0
C611 C 0.62043 0.79515 0.39045 0.0
C612 C 0.58125 0.80254 0.39053 0.0
H613 H 0.56036 0.76676 0.39994 0.0
O614 O 0.67006 0.83511 0.39876 0.0
O615 O 0.69171 0.85201 0.35893 0.0
O616 O 0.66469 0.82535 0.33676 0.0
O617 O 0.6377 0.81957 0.3592 0.0
O618 O 0.67783 0.82436 0.37738 0.0
O619 O 0.6705 0.86742 0.39554 0.0
O620 O 0.68319 0.87594 0.30781 0.0
O621 O 0.66076 0.85827 0.34751 0.0
O622 O 0.68754 0.88501 0.36969 0.0
O623 O 0.71494 0.89036 0.34773 0.0
O624 O 0.67532 0.88635 0.32938 0.0
O625 O 0.68185 0.84325 0.31077 0.0
C626 C 0.69466 0.83589 0.36559 0.0
C627 C 0.56229 0.80744 0.39118 0.0
C628 C 0.56676 0.82986 0.38728 0.0
C629 C 0.67269 0.85232 0.40604 0.0
C630 C 0.66087 0.84687 0.42314 0.0
C631 C 0.6364 0.83993 0.42525 0.0
C632 C 0.67413 0.84836 0.43754 0.0
C633 C 0.66301 0.84285 0.45403 0.0
C634 C 0.62525 0.83441 0.44151 0.0
C635 C 0.63839 0.83584 0.45581 0.0
C636 C 0.64394 0.81296 0.34591 0.0
C637 C 0.65814 0.87464 0.3409 0.0
C638 C 0.68015 0.8587 0.30038 0.0
C639 C 0.69207 0.86414 0.28331 0.0
C640 C 0.71711 0.87555 0.28106 0.0
C641 C 0.67833 0.85811 0.26907 0.0
C642 C 0.68954 0.86358 0.2526 0.0
C643 C 0.72835 0.88117 0.26484 0.0
C644 C 0.71474 0.87535 0.25069 0.0
C645 C 0.7086 0.89709 0.36092 0.0
H646 H 0.62595 0.83883 0.41437 0.0
H647 H 0.69301 0.85356 0.43586 0.0
H648 H 0.60636 0.82912 0.44305 0.0
H649 H 0.62934 0.83183 0.46827 0.0
H650 H 0.72798 0.88019 0.29178 0.0
H651 H 0.65896 0.84895 0.27089 0.0
H652 H 0.74771 0.89016 0.26321 0.0
H653 H 0.72401 0.88029 0.23824 0.0
Gd654 Gd 0.16112 0.84327 0.33827 0.0
Gd655 Gd 0.1769 0.83048 0.38187 0.0
C656 C 0.24845 0.83259 0.39155 0.0
C657 C 0.23588 0.79318 0.40207 0.0
C658 C 0.20629 0.8049 0.39446 0.0
C659 C 0.22427 0.82694 0.38997 0.0
C660 C 0.21182 0.78784 0.40095 0.0
C661 C 0.25418 0.81552 0.39734 0.0
C662 C 0.2661 0.85528 0.38751 0.0
C663 C 0.25938 0.87173 0.38252 0.0
N664 N 0.21805 0.84298 0.38444 0.0
C665 C 0.23514 0.86529 0.38126 0.0
H666 H 0.23031 0.87823 0.37732 0.0
C667 C 0.16482 0.77954 0.39955 0.0
N668 N 0.18329 0.8004 0.39329 0.0
C669 C 0.16936 0.762 0.40603 0.0
C670 C 0.19297 0.76609 0.40654 0.0
H671 H 0.14654 0.77629 0.39912 0.0
H672 H 0.27266 0.81949 0.39852 0.0
H673 H 0.10809 0.79513 0.34133 0.0
H674 H 0.28489 0.86031 0.38849 0.0
H675 H 0.27287 0.88937 0.37961 0.0
H676 H 0.24052 0.78027 0.40688 0.0
H677 H 0.19098 0.89755 0.3212 0.0
H678 H 0.0529 0.81292 0.33271 0.0
H679 H 0.06539 0.78379 0.33963 0.0
H680 H 0.09658 0.89336 0.31602 0.0
H681 H 0.15467 0.74536 0.41061 0.0
H682 H 0.19646 0.75251 0.41161 0.0
H683 H 0.06471 0.85394 0.32409 0.0
H684 H 0.18244 0.92853 0.31058 0.0
N685 N 0.11992 0.83052 0.33588 0.0
C686 C 0.07174 0.81804 0.33344 0.0
C687 C 0.07873 0.80155 0.3373 0.0
C688 C 0.08921 0.84087 0.33 0.0
C689 C 0.11347 0.84661 0.33122 0.0
C690 C 0.10304 0.80809 0.33822 0.0
N691 N 0.15438 0.8733 0.32741 0.0
C692 C 0.1313 0.86873 0.32678 0.0
C693 C 0.16789 0.91181 0.31517 0.0
C694 C 0.14422 0.90766 0.31526 0.0
C695 C 0.17266 0.89426 0.32113 0.0
C696 C 0.12554 0.88582 0.32088 0.0
H697 H 0.14055 0.92127 0.31063 0.0
O698 O 0.18165 0.85463 0.31387 0.0
O699 O 0.18764 0.83977 0.35436 0.0
O700 O 0.18892 0.86813 0.37465 0.0
O701 O 0.1654 0.87122 0.35303 0.0
O702 O 0.20118 0.86639 0.33509 0.0
O703 O 0.15101 0.82097 0.31878 0.0
O704 O 0.1558 0.82035 0.40591 0.0
O705 O 0.15025 0.83363 0.36573 0.0
O706 O 0.14948 0.80568 0.3451 0.0
O707 O 0.17186 0.80198 0.36742 0.0
O708 O 0.13698 0.80685 0.38498 0.0
O709 O 0.18776 0.85306 0.40126 0.0
C710 C 0.20684 0.85557 0.34702 0.0
C711 C 0.1014 0.88043 0.32034 0.0
C712 C 0.08326 0.85798 0.32493 0.0
C713 C 0.16765 0.83605 0.30761 0.0
C714 C 0.16015 0.83879 0.29033 0.0
C715 C 0.14029 0.84213 0.28786 0.0
C716 C 0.17255 0.83748 0.27619 0.0
C717 C 0.16472 0.8389 0.25971 0.0
C718 C 0.13265 0.84382 0.27155 0.0
C719 C 0.14463 0.84206 0.25758 0.0
C720 C 0.17941 0.87925 0.36562 0.0
C721 C 0.1312 0.81731 0.37286 0.0
C722 C 0.17043 0.83864 0.41225 0.0
C723 C 0.17713 0.83527 0.42967 0.0
C724 C 0.19274 0.82639 0.4328 0.0
C725 C 0.16789 0.84093 0.44331 0.0
C726 C 0.17436 0.83785 0.46002 0.0
C727 C 0.19898 0.82305 0.44929 0.0
C728 C 0.18989 0.8287 0.46281 0.0
C729 C 0.15847 0.79433 0.35444 0.0
H730 H 0.13057 0.84323 0.29854 0.0
H731 H 0.18784 0.83479 0.27805 0.0
H732 H 0.11726 0.84633 0.26975 0.0
H733 H 0.1383 0.84332 0.24505 0.0
H734 H 0.20011 0.82206 0.42253 0.0
H735 H 0.15606 0.84806 0.44085 0.0
H736 H 0.21094 0.81605 0.45161 0.0
H737 H 0.1949 0.82571 0.4755 0.0
Gd738 Gd 0.85868 0.69342 0.70993 0.0
Gd739 Gd 0.83751 0.66731 0.6708 0.0
C740 C 0.7656 0.60398 0.66771 0.0
C741 C 0.77786 0.57666 0.66153 0.0
C742 C 0.80776 0.61527 0.66474 0.0
C743 C 0.78987 0.62051 0.66792 0.0
C744 C 0.80199 0.59342 0.66117 0.0
C745 C 0.75969 0.58193 0.66481 0.0
C746 C 0.74802 0.61025 0.67008 0.0
C747 C 0.75486 0.63266 0.67208 0.0
N748 N 0.79622 0.64201 0.6706 0.0
C749 C 0.77917 0.64848 0.67207 0.0
H750 H 0.78412 0.66571 0.67367 0.0
C751 C 0.84909 0.62823 0.65953 0.0
N752 N 0.83086 0.63187 0.66443 0.0
C753 C 0.84429 0.6068 0.65596 0.0
C754 C 0.82064 0.58923 0.65697 0.0
H755 H 0.86741 0.64171 0.65879 0.0
H756 H 0.74115 0.56896 0.66473 0.0
H757 H 0.91179 0.69479 0.70745 0.0
H758 H 0.72917 0.59804 0.67008 0.0
H759 H 0.74142 0.63778 0.67368 0.0
H760 H 0.77305 0.55971 0.65895 0.0
H761 H 0.8291 0.71906 0.72247 0.0
H762 H 0.96698 0.76242 0.71105 0.0
H763 H 0.95456 0.7225 0.70786 0.0
H764 H 0.92345 0.80138 0.7209 0.0
H765 H 0.85881 0.60385 0.65246 0.0
H766 H 0.81696 0.57267 0.65416 0.0
H767 H 0.95525 0.79193 0.71532 0.0
H768 H 0.8378 0.75701 0.72863 0.0
N769 N 0.89996 0.71884 0.70977 0.0
C770 C 0.94815 0.75034 0.7107 0.0
C771 C 0.9412 0.72782 0.70898 0.0
C772 C 0.93068 0.75688 0.7125 0.0
C773 C 0.90641 0.74045 0.71217 0.0
C774 C 0.91689 0.71214 0.70876 0.0
N775 N 0.86552 0.729 0.71618 0.0
C776 C 0.88859 0.74573 0.71542 0.0
C777 C 0.85226 0.7541 0.72486 0.0
C778 C 0.87587 0.77177 0.72341 0.0
C779 C 0.8474 0.73262 0.72139 0.0
C780 C 0.89444 0.76763 0.71892 0.0
H781 H 0.87961 0.78837 0.72619 0.0
O782 O 0.84263 0.68537 0.73564 0.0
O783 O 0.8292 0.6658 0.69823 0.0
O784 O 0.82588 0.69349 0.67431 0.0
O785 O 0.85318 0.71828 0.69148 0.0
O786 O 0.81916 0.68051 0.71549 0.0
O787 O 0.87191 0.67894 0.73015 0.0
O788 O 0.85636 0.6779 0.64593 0.0
O789 O 0.86667 0.69508 0.68257 0.0
O790 O 0.86975 0.66665 0.7063 0.0
O791 O 0.84187 0.64206 0.68929 0.0
O792 O 0.87733 0.68031 0.6658 0.0
O793 O 0.82336 0.67918 0.64951 0.0
C794 C 0.81126 0.66483 0.70577 0.0
C795 C 0.91858 0.7844 0.71839 0.0
C796 C 0.93669 0.77902 0.71521 0.0
C797 C 0.85745 0.67875 0.74183 0.0
C798 C 0.86812 0.68714 0.75761 0.0
C799 C 0.88561 0.70981 0.7578 0.0
C800 C 0.86087 0.67198 0.77268 0.0
C801 C 0.87094 0.67927 0.78803 0.0
C802 C 0.89578 0.71719 0.77297 0.0
C803 C 0.88855 0.70205 0.78802 0.0
C804 C 0.83703 0.71351 0.67992 0.0
C805 C 0.88485 0.6962 0.67535 0.0
C806 C 0.84023 0.68188 0.63872 0.0
C807 C 0.83292 0.67325 0.62241 0.0
C808 C 0.81422 0.65126 0.62152 0.0
C809 C 0.84538 0.68736 0.60746 0.0
C810 C 0.83928 0.67976 0.59153 0.0
C811 C 0.80802 0.64356 0.60574 0.0
C812 C 0.8204 0.6577 0.59081 0.0
C813 C 0.85813 0.64658 0.70071 0.0
H814 H 0.89143 0.72172 0.7463 0.0
H815 H 0.84758 0.65439 0.77238 0.0
H816 H 0.90926 0.73472 0.77307 0.0
H817 H 0.89647 0.70822 0.79967 0.0
H818 H 0.80445 0.64013 0.63294 0.0
H819 H 0.85963 0.70443 0.60825 0.0
H820 H 0.79358 0.62657 0.60509 0.0
H821 H 0.81537 0.65134 0.57872 0.0
Gd822 Gd 0.3272 0.18016 0.70781 0.0
Gd823 Gd 0.35842 0.19665 0.66478 0.0
C824 C 0.42755 0.19408 0.65537 0.0
C825 C 0.45648 0.23394 0.64758 0.0
C826 C 0.41475 0.2224 0.65454 0.0
C827 C 0.40949 0.2 0.65761 0.0
C828 C 0.43818 0.23959 0.64907 0.0
C829 C 0.45116 0.21121 0.65067 0.0
C830 C 0.4212 0.1711 0.65737 0.0
C831 C 0.3973 0.15469 0.66121 0.0
N832 N 0.38643 0.18388 0.66188 0.0
C833 C 0.38001 0.1614 0.66322 0.0
H834 H 0.36163 0.14848 0.66614 0.0
C835 C 0.40011 0.24852 0.65029 0.0
N836 N 0.39653 0.22717 0.65567 0.0
C837 C 0.42308 0.2662 0.64497 0.0
C838 C 0.44228 0.26179 0.64459 0.0
H839 H 0.38528 0.25196 0.65058 0.0
H840 H 0.46531 0.207 0.64901 0.0
H841 H 0.32341 0.22803 0.7064 0.0
H842 H 0.43449 0.16583 0.65559 0.0
H843 H 0.39216 0.13686 0.66257 0.0
H844 H 0.47464 0.24692 0.64353 0.0
H845 H 0.30095 0.12506 0.72262 0.0
H846 H 0.25007 0.20995 0.71574 0.0
H847 H 0.29242 0.23924 0.70933 0.0
H848 H 0.2107 0.1289 0.72811 0.0
H849 H 0.42595 0.28319 0.64115 0.0
H850 H 0.46002 0.27547 0.64033 0.0
H851 H 0.21952 0.16865 0.72213 0.0
H852 H 0.26036 0.09358 0.73198 0.0
N853 N 0.29886 0.19258 0.71044 0.0
C854 C 0.26357 0.20487 0.71425 0.0
C855 C 0.28748 0.22146 0.71073 0.0
C856 C 0.25748 0.18195 0.71635 0.0
C857 C 0.27582 0.17628 0.71449 0.0
C858 C 0.30503 0.21499 0.70909 0.0
N859 N 0.28927 0.14946 0.71704 0.0
C860 C 0.27083 0.15397 0.71782 0.0
C861 C 0.26303 0.11046 0.72794 0.0
C862 C 0.24361 0.11458 0.72794 0.0
C863 C 0.28595 0.12828 0.72268 0.0
C864 C 0.24743 0.13663 0.72317 0.0
H865 H 0.22589 0.10078 0.73213 0.0
O866 O 0.33599 0.16753 0.73166 0.0
O867 O 0.35799 0.18487 0.69194 0.0
O868 O 0.33095 0.15877 0.66965 0.0
O869 O 0.3038 0.15338 0.69182 0.0
O870 O 0.34362 0.15699 0.71019 0.0
O871 O 0.33692 0.20004 0.72889 0.0
O872 O 0.3502 0.20966 0.64086 0.0
O873 O 0.32763 0.19206 0.6806 0.0
O874 O 0.35455 0.21799 0.70304 0.0
O875 O 0.38177 0.22333 0.68094 0.0
O876 O 0.34256 0.2202 0.66254 0.0
O877 O 0.34782 0.17653 0.64384 0.0
C878 C 0.36059 0.16849 0.69849 0.0
C879 C 0.22886 0.14201 0.7242 0.0
C880 C 0.23389 0.16464 0.72082 0.0
C881 C 0.33884 0.18464 0.73919 0.0
C882 C 0.32695 0.17896 0.7563 0.0
C883 C 0.30203 0.16937 0.75845 0.0
C884 C 0.34062 0.18293 0.77065 0.0
C885 C 0.32944 0.17729 0.78715 0.0
C886 C 0.29079 0.16353 0.77469 0.0
C887 C 0.30432 0.16736 0.78895 0.0
C888 C 0.31 0.14667 0.67858 0.0
C889 C 0.32541 0.20871 0.6741 0.0
C890 C 0.34659 0.19224 0.63344 0.0
C891 C 0.35839 0.19734 0.61636 0.0
C892 C 0.38342 0.20906 0.61397 0.0
C893 C 0.34451 0.19052 0.60227 0.0
C894 C 0.3556 0.1954 0.58581 0.0
C895 C 0.39452 0.2141 0.59775 0.0
C896 C 0.38077 0.2074 0.58375 0.0
C897 C 0.37561 0.22996 0.69426 0.0
H898 H 0.29125 0.16636 0.74761 0.0
H899 H 0.35994 0.19071 0.76892 0.0
H900 H 0.27151 0.15596 0.77625 0.0
H901 H 0.29504 0.16238 0.80141 0.0
H902 H 0.39439 0.21436 0.62459 0.0
H903 H 0.32516 0.18117 0.60417 0.0
H904 H 0.41386 0.22329 0.59602 0.0
H905 H 0.38989 0.21181 0.57128 0.0
Gd906 Gd 0.82915 0.17872 0.67246 0.0
Gd907 Gd 0.84155 0.16286 0.71646 0.0
C908 C 0.91209 0.16357 0.7275 0.0
C909 C 0.89893 0.12358 0.73605 0.0
C910 C 0.86998 0.13608 0.7283 0.0
C911 C 0.88817 0.15823 0.725 0.0
C912 C 0.87504 0.11855 0.73429 0.0
C913 C 0.91743 0.14607 0.73268 0.0
C914 C 0.92982 0.18638 0.72522 0.0
C915 C 0.92341 0.20319 0.72095 0.0
N916 N 0.88231 0.17471 0.72022 0.0
C917 C 0.89941 0.19705 0.7187 0.0
H918 H 0.8948 0.21027 0.71541 0.0
C919 C 0.82833 0.1109 0.73225 0.0
N920 N 0.84712 0.13192 0.72678 0.0
C921 C 0.83242 0.09289 0.73814 0.0
C922 C 0.85589 0.09666 0.73893 0.0
H923 H 0.81016 0.10793 0.73161 0.0
H924 H 0.93572 0.14982 0.73453 0.0
H925 H 0.77542 0.13188 0.67323 0.0
H926 H 0.94839 0.19121 0.72711 0.0
H927 H 0.93693 0.2209 0.7194 0.0
H928 H 0.90323 0.11032 0.74048 0.0
H929 H 0.86138 0.23351 0.65709 0.0
H930 H 0.72246 0.15242 0.66359 0.0
H931 H 0.73327 0.12207 0.67026 0.0
H932 H 0.76908 0.23315 0.64949 0.0
H933 H 0.81749 0.07615 0.74206 0.0
H934 H 0.85903 0.08272 0.74359 0.0
H935 H 0.73598 0.19399 0.65603 0.0
H936 H 0.85475 0.2658 0.64685 0.0
N937 N 0.78852 0.16754 0.6688 0.0
C938 C 0.74105 0.15685 0.66489 0.0
C939 C 0.74709 0.13968 0.66861 0.0
C940 C 0.75916 0.17951 0.66233 0.0
C941 C 0.78305 0.18434 0.66428 0.0
C942 C 0.77108 0.14534 0.67027 0.0
N943 N 0.8243 0.21 0.66194 0.0
C944 C 0.80156 0.2063 0.66068 0.0
C945 C 0.83963 0.24917 0.65077 0.0
C946 C 0.8163 0.24587 0.6502 0.0
C947 C 0.84333 0.23088 0.65651 0.0
C948 C 0.79689 0.22415 0.65494 0.0
H949 H 0.81347 0.26005 0.64572 0.0
O950 O 0.8511 0.1904 0.64868 0.0
O951 O 0.85418 0.17397 0.68939 0.0
O952 O 0.85399 0.20079 0.71049 0.0
O953 O 0.83275 0.20581 0.6879 0.0
O954 O 0.86947 0.20116 0.67064 0.0
O955 O 0.81943 0.15736 0.65233 0.0
O956 O 0.81897 0.15127 0.7399 0.0
O957 O 0.81633 0.16753 0.69962 0.0
O958 O 0.81628 0.14081 0.67839 0.0
O959 O 0.83737 0.13551 0.701 0.0
O960 O 0.80156 0.13975 0.71805 0.0
O961 O 0.85137 0.18367 0.73701 0.0
C962 C 0.87393 0.18982 0.68292 0.0
C963 C 0.77308 0.21963 0.6537 0.0
C964 C 0.75424 0.19734 0.65742 0.0
C965 C 0.83699 0.17243 0.64176 0.0
C966 C 0.83077 0.17639 0.62428 0.0
C967 C 0.81332 0.18305 0.62133 0.0
C968 C 0.84202 0.17311 0.61041 0.0
C969 C 0.83551 0.17608 0.5937 0.0
C970 C 0.807 0.18627 0.60483 0.0
C971 C 0.8179 0.18275 0.59112 0.0
C972 C 0.84566 0.21277 0.70117 0.0
C973 C 0.79678 0.15109 0.70597 0.0
C974 C 0.83332 0.16871 0.74725 0.0
C975 C 0.8388 0.16367 0.76474 0.0
C976 C 0.85196 0.15218 0.76783 0.0
C977 C 0.83069 0.17016 0.77849 0.0
C978 C 0.83568 0.16513 0.7953 0.0
C979 C 0.85675 0.14694 0.78437 0.0
C980 C 0.84863 0.15324 0.798 0.0
C981 C 0.82464 0.12879 0.68759 0.0
H982 H 0.80448 0.18563 0.63179 0.0
H983 H 0.85539 0.16778 0.61268 0.0
H984 H 0.79351 0.19143 0.60266 0.0
H985 H 0.8127 0.18543 0.57843 0.0
H986 H 0.85846 0.14719 0.7575 0.0
H987 H 0.82083 0.17934 0.77604 0.0
H988 H 0.86674 0.13787 0.78664 0.0
H989 H 0.85233 0.14856 0.81071 0.0
H990 H 0.26097 0.83937 0.0652 0.0
H991 H 0.30046 0.87235 0.05692 0.0
H992 H 0.32962 0.85141 0.09999 0.0
H993 H 0.28984 0.8184 0.1083 0.0
H994 H 0.34691 0.89784 0.09489 0.0
H995 H 0.35515 0.86806 0.03443 0.0
H996 H 0.3286 0.87057 0.03662 0.0
H997 H 0.33232 0.85013 0.05103 0.0
C998 C 0.27582 0.84201 0.07294 0.0
C999 C 0.27251 0.82636 0.08729 0.0
C1000 C 0.2984 0.86071 0.06815 0.0
C1001 C 0.31823 0.86408 0.07755 0.0
C1002 C 0.31467 0.84907 0.09243 0.0
H1003 H 0.46819 0.9548 0.04083 0.0
H1004 H 0.42925 0.92155 0.05015 0.0
C1005 C 0.29198 0.83033 0.09725 0.0
C1006 C 0.34261 0.88311 0.0717 0.0
H1007 H 0.38412 0.9059 0.03784 0.0
C1008 C 0.35507 0.89953 0.08245 0.0
C1009 C 0.35355 0.88518 0.05556 0.0
C1010 C 0.34185 0.86743 0.0438 0.0
C1011 C 0.37775 0.91826 0.07733 0.0
C1012 C 0.38816 0.92089 0.06088 0.0
C1013 C 0.37604 0.90411 0.05034 0.0
C1014 C 0.41153 0.941 0.05441 0.0
C1015 C 0.39048 0.9349 0.08971 0.0
C1016 C 0.41444 0.963 0.05325 0.0
C1017 C 0.43661 0.98195 0.04784 0.0
C1018 C 0.45623 0.97934 0.04311 0.0
C1019 C 0.45326 0.95733 0.04399 0.0
C1020 C 0.43105 0.93833 0.04944 0.0
H1021 H 0.3836 0.92724 0.10303 0.0
H1022 H 0.41007 0.94111 0.08869 0.0
H1023 H 0.38748 0.9497 0.08682 0.0
H1024 H 0.39958 0.96553 0.05666 0.0
H1025 H 0.43847 0.99874 0.04742 0.0
H1026 H 0.20665 0.48682 0.08227 0.0
H1027 H 0.17368 0.48711 0.06667 0.0
H1028 H 0.20412 0.55887 0.06916 0.0
H1029 H 0.23699 0.55828 0.08514 0.0
H1030 H 0.15682 0.53409 0.08049 0.0
H1031 H 0.16966 0.51108 0.01814 0.0
H1032 H 0.16965 0.49178 0.03563 0.0
H1033 H 0.19294 0.52094 0.03294 0.0
C1034 C 0.20626 0.50261 0.07927 0.0
C1035 C 0.22393 0.52251 0.08483 0.0
C1036 C 0.1877 0.50286 0.07024 0.0
C1037 C 0.18675 0.52309 0.06649 0.0
C1038 C 0.20475 0.54315 0.07179 0.0
H1039 H 0.07262 0.54553 0.02783 0.0
H1040 H 0.11175 0.55 0.03408 0.0
C1041 C 0.22335 0.54286 0.08088 0.0
C1042 C 0.16554 0.52258 0.05874 0.0
H1043 H 0.13048 0.50591 0.02515 0.0
C1044 C 0.15125 0.52827 0.06828 0.0
C1045 C 0.15831 0.51484 0.04284 0.0
C1046 C 0.17358 0.50953 0.03172 0.0
C1047 C 0.12942 0.52564 0.06263 0.0
C1048 C 0.1219 0.51729 0.047 0.0
C1049 C 0.13636 0.51208 0.03722 0.0
C1050 C 0.09897 0.51409 0.04073 0.0
C1051 C 0.11421 0.53124 0.07359 0.0
C1052 C 0.07903 0.49232 0.04202 0.0
C1053 C 0.05652 0.48969 0.03827 0.0
C1054 C 0.05389 0.50878 0.03296 0.0
C1055 C 0.0741 0.53046 0.03136 0.0
C1056 C 0.0965 0.53308 0.03504 0.0
H1057 H 0.12082 0.53407 0.08651 0.0
H1058 H 0.11442 0.54691 0.06751 0.0
H1059 H 0.09534 0.51737 0.07482 0.0
H1060 H 0.08074 0.47752 0.04656 0.0
H1061 H 0.0411 0.47284 0.03982 0.0
H1062 H 0.57203 0.75371 0.05771 0.0
H1063 H 0.56396 0.71846 0.0467 0.0
H1064 H 0.51915 0.67951 0.09205 0.0
H1065 H 0.52651 0.71478 0.10256 0.0
H1066 H 0.57452 0.6866 0.05906 0.0
H1067 H 0.47616 0.64709 0.05644 0.0
H1068 H 0.49448 0.67632 0.05967 0.0
H1069 H 0.48554 0.65397 0.07723 0.0
C1070 C 0.56016 0.73752 0.06509 0.0
C1071 C 0.54971 0.73673 0.08086 0.0
C1072 C 0.55564 0.71745 0.05889 0.0
C1073 C 0.54063 0.69625 0.06841 0.0
C1074 C 0.53025 0.69555 0.08424 0.0
H1075 H 0.54049 0.57012 0.05732 0.0
H1076 H 0.54767 0.60626 0.06563 0.0
C1077 C 0.53458 0.71562 0.09032 0.0
C1078 C 0.53668 0.67496 0.06214 0.0
H1079 H 0.49314 0.6228 0.05437 0.0
C1080 C 0.55672 0.67272 0.05791 0.0
C1081 C 0.51348 0.65693 0.06037 0.0
C1082 C 0.49121 0.65876 0.06349 0.0
C1083 C 0.55421 0.65284 0.0523 0.0
C1084 C 0.53099 0.63438 0.05137 0.0
C1085 C 0.51096 0.6368 0.05527 0.0
C1086 C 0.52697 0.61248 0.04621 0.0
C1087 C 0.5765 0.65206 0.04713 0.0
C1088 C 0.51228 0.60345 0.03289 0.0
C1089 C 0.50771 0.58253 0.02834 0.0
C1090 C 0.51791 0.57019 0.03689 0.0
C1091 C 0.53256 0.57922 0.05028 0.0
C1092 C 0.53687 0.60005 0.05497 0.0
H1093 H 0.59183 0.66937 0.04348 0.0
H1094 H 0.58158 0.64381 0.05804 0.0
H1095 H 0.57355 0.64224 0.0363 0.0
H1096 H 0.50421 0.61257 0.02603 0.0
H1097 H 0.49585 0.57593 0.01828 0.0
H1098 H 0.82965 0.27427 0.98958 0.0
H1099 H 0.85784 0.31053 0.99923 0.0
H1100 H 0.84904 0.34655 0.9537 0.0
H1101 H 0.82006 0.31029 0.9446 0.0
H1102 H 0.89992 0.34276 0.98612 0.0
H1103 H 0.84052 0.38065 0.98818 0.0
H1104 H 0.82932 0.35127 0.98564 0.0
H1105 H 0.84241 0.37301 0.9676 0.0
C1106 C 0.8335 0.29003 0.98187 0.0
C1107 C 0.82261 0.28965 0.96648 0.0
C1108 C 0.84969 0.31072 0.98729 0.0
C1109 C 0.85538 0.33144 0.97737 0.0
C1110 C 0.84454 0.33095 0.96188 0.0
H1111 H 0.98424 0.46014 0.98691 0.0
H1112 H 0.95482 0.42374 0.9786 0.0
C1113 C 0.82814 0.31028 0.95659 0.0
C1114 C 0.87328 0.35345 0.98289 0.0
H1115 H 0.88232 0.40583 0.98941 0.0
C1116 C 0.89599 0.35648 0.98694 0.0
C1117 C 0.86818 0.37136 0.98424 0.0
C1118 C 0.8437 0.36885 0.98136 0.0
C1119 C 0.91373 0.37689 0.99203 0.0
C1120 C 0.90901 0.39517 0.9926 0.0
C1121 C 0.88618 0.39201 0.98879 0.0
C1122 C 0.92715 0.4175 0.99753 0.0
C1123 C 0.93714 0.37834 0.99716 0.0
C1124 C 0.92129 0.42676 0.0105 0.0
C1125 C 0.93791 0.44785 0.01502 0.0
C1126 C 0.96102 0.4602 1.00683 0.0
C1127 C 0.9668 0.45104 0.9937 0.0
C1128 C 0.95 0.43004 0.98902 0.0
H1129 H 0.93515 0.36125 1.00112 0.0
H1130 H 0.95048 0.38646 0.98614 0.0
H1131 H 0.94424 0.38858 0.00778 0.0
H1132 H 0.90376 0.41766 0.01718 0.0
H1133 H 0.93246 0.45453 0.02482 0.0
H1134 H 0.72796 0.53601 0.9549 0.0
H1135 H 0.69543 0.53752 0.97003 0.0
H1136 H 0.65707 0.46439 0.97996 0.0
H1137 H 0.68978 0.46302 0.96451 0.0
H1138 H 0.62961 0.48436 0.96692 0.0
H1139 H 0.67891 0.52499 0.02151 0.0
H1140 H 0.69419 0.53986 1.00128 0.0
H1141 H 0.68943 0.51167 0.00783 0.0
C1142 C 0.71243 0.52034 0.96025 0.0
C1143 C 0.71095 0.4994 0.95851 0.0
C1144 C 0.69411 0.52119 0.96904 0.0
C1145 C 0.67415 0.50109 0.97638 0.0
C1146 C 0.67251 0.48007 0.97451 0.0
H1147 H 0.54108 0.48294 0.02078 0.0
H1148 H 0.57463 0.47704 0.01442 0.0
C1149 C 0.69095 0.47925 0.96568 0.0
C1150 C 0.65447 0.50222 0.98511 0.0
H1151 H 0.64217 0.52576 0.01682 0.0
C1152 C 0.63219 0.49308 0.97799 0.0
C1153 C 0.65806 0.5137 0.9995 0.0
C1154 C 0.68138 0.52293 0.00809 0.0
C1155 C 0.61361 0.496 0.98443 0.0
C1156 C 0.61742 0.50803 0.99853 0.0
C1157 C 0.63947 0.51665 1.00596 0.0
C1158 C 0.59873 0.51231 1.00527 0.0
C1159 C 0.59037 0.48693 0.9757 0.0
C1160 C 0.60162 0.53431 1.003 0.0
C1161 C 0.58245 0.53781 1.00693 0.0
C1162 C 0.56031 0.51938 0.01334 0.0
C1163 C 0.55793 0.49756 0.01625 0.0
C1164 C 0.57707 0.4941 0.01247 0.0
H1165 H 0.59213 0.48228 0.96302 0.0
H1166 H 0.57647 0.4715 0.98363 0.0
H1167 H 0.58403 0.49962 0.9741 0.0
H1168 H 0.6183 0.54855 0.99741 0.0
H1169 H 0.58462 0.55474 1.00442 0.0
H1170 H 0.43614 0.19606 0.98028 0.0
H1171 H 0.44308 0.16388 0.98816 0.0
H1172 H 0.48358 0.17959 0.94036 0.0
H1173 H 0.47806 0.21289 0.9331 0.0
H1174 H 0.43321 0.12642 0.9767 0.0
H1175 H 0.53199 0.1801 0.97204 0.0
H1176 H 0.51212 0.192 0.97024 0.0
H1177 H 0.51877 0.18147 0.95232 0.0
C1178 C 0.44658 0.19263 0.97152 0.0
C1179 C 0.45699 0.20717 0.95627 0.0
C1180 C 0.45043 0.17416 0.97595 0.0
C1181 C 0.46447 0.16961 0.9651 0.0
C1182 C 0.47337 0.18316 0.94923 0.0
H1183 H 0.47249 0.04373 0.98837 0.0
H1184 H 0.46286 0.07273 0.97597 0.0
C1185 C 0.46988 0.20194 0.94494 0.0
C1186 C 0.47031 0.1512 0.97081 0.0
H1187 H 0.51688 0.14055 0.97802 0.0
C1188 C 0.45152 0.12952 0.97697 0.0
C1189 C 0.49423 0.15528 0.97149 0.0
C1190 C 0.51544 0.17851 0.96634 0.0
C1191 C 0.45593 0.11195 0.98394 0.0
C1192 C 0.47981 0.11585 0.98414 0.0
C1193 C 0.49857 0.13745 0.97779 0.0
C1194 C 0.4859 0.09812 0.99143 0.0
C1195 C 0.43495 0.08975 0.99163 0.0
C1196 C 0.50292 0.10291 1.00374 0.0
C1197 C 0.50902 0.08653 0.01051 0.0
C1198 C 0.49795 0.0648 1.00538 0.0
C1199 C 0.48112 0.06011 0.9929 0.0
C1200 C 0.47538 0.07667 0.98587 0.0
H1201 H 0.41943 0.09191 0.99522 0.0
H1202 H 0.42911 0.07763 0.98216 0.0
H1203 H 0.4398 0.08222 1.00311 0.0
H1204 H 0.51153 0.11938 0.00815 0.0
H1205 H 0.52257 0.09105 0.01968 0.0
H1206 H 0.73163 0.23049 0.96147 0.0
H1207 H 0.69387 0.19549 0.97004 0.0
H1208 H 0.73083 0.15658 0.96928 0.0
H1209 H 0.76876 0.19178 0.96135 0.0
H1210 H 0.66838 0.15754 0.95513 0.0
H1211 H 0.69785 0.13467 0.0165 0.0
H1212 H 0.71469 0.16213 1.00397 0.0
H1213 H 0.71685 0.13817 0.99848 0.0
C1214 C 0.73163 0.21444 0.96326 0.0
C1215 C 0.7531 0.21381 0.96101 0.0
C1216 C 0.71007 0.19444 0.96807 0.0
C1217 C 0.70951 0.17336 0.97072 0.0
C1218 C 0.73084 0.17264 0.96777 0.0
H1219 H 0.59541 0.03416 0.99894 0.0
H1220 H 0.63338 0.06884 0.98993 0.0
C1221 C 0.75244 0.19269 0.96303 0.0
C1222 C 0.6866 0.15224 0.97654 0.0
H1223 H 0.66032 0.10722 0.00815 0.0
C1224 C 0.66663 0.14661 0.96675 0.0
C1225 C 0.68418 0.13793 0.99177 0.0
C1226 C 0.70444 0.1436 1.00339 0.0
C1227 C 0.64455 0.12696 0.9716 0.0
C1228 C 0.64223 0.11262 0.98674 0.0
C1229 C 0.66214 0.1182 0.99653 0.0
C1230 C 0.61929 0.09168 0.99256 0.0
C1231 C 0.62397 0.12147 0.9603 0.0
C1232 C 0.59881 0.09298 0.9972 0.0
C1233 C 0.57718 0.07321 1.00241 0.0
C1234 C 0.5757 0.05177 1.00332 0.0
C1235 C 0.59616 0.05049 0.99858 0.0
C1236 C 0.61782 0.07027 0.99345 0.0
H1237 H 0.63006 0.13126 0.9474 0.0
H1238 H 0.61434 0.10309 0.95908 0.0
H1239 H 0.61109 0.12576 0.96604 0.0
H1240 H 0.59955 0.10931 0.9968 0.0
H1241 H 0.56161 0.07474 1.0056 0.0
H1242 H 0.79111 0.53671 0.97142 0.0
H1243 H 0.83066 0.54705 0.98204 0.0
H1244 H 0.8404 0.50692 0.94763 0.0
H1245 H 0.80074 0.49682 0.93694 0.0
H1246 H 0.84367 0.51681 0.99791 0.0
H1247 H 0.90372 0.5664 0.94055 0.0
H1248 H 0.87285 0.56006 0.94239 0.0
H1249 H 0.88018 0.53899 0.93704 0.0
C1250 C 0.80185 0.53023 0.96617 0.0
C1251 C 0.79305 0.51572 0.95367 0.0
C1252 C 0.82435 0.53618 0.97213 0.0
C1253 C 0.83844 0.52782 0.96556 0.0
C1254 C 0.82993 0.51382 0.95267 0.0
H1255 H 0.94869 0.50658 0.00978 0.0
H1256 H 0.91089 0.50438 1.00197 0.0
C1257 C 0.80737 0.50795 0.94665 0.0
C1258 C 0.86126 0.53251 0.97308 0.0
H1259 H 0.92106 0.55475 0.96357 0.0
C1260 C 0.86065 0.52528 0.99045 0.0
C1261 C 0.88335 0.54385 0.96334 0.0
C1262 C 0.88519 0.55299 0.94483 0.0
C1263 C 0.88151 0.52849 0.99828 0.0
C1264 C 0.90345 0.53889 0.98839 0.0
C1265 C 0.90418 0.54672 0.97112 0.0
C1266 C 0.92563 0.54065 0.99539 0.0
C1267 C 0.87992 0.52089 0.01708 0.0
C1268 C 0.9465 0.56178 0.9943 0.0
C1269 C 0.96823 0.56304 0.99875 0.0
C1270 C 0.96933 0.54323 1.00443 0.0
C1271 C 0.94829 0.52218 1.00595 0.0
C1272 C 0.92662 0.5209 1.00148 0.0
H1273 H 0.86357 0.51909 0.02357 0.0
H1274 H 0.87925 0.50414 0.0191 0.0
H1275 H 0.89582 0.53315 0.02306 0.0
H1276 H 0.94611 0.57719 0.98949 0.0
H1277 H 0.98433 0.57942 0.99724 0.0
H1278 H 0.48523 0.30536 0.94327 0.0
H1279 H 0.4896 0.33861 0.95548 0.0
H1280 H 0.44555 0.29497 0.99982 0.0
H1281 H 0.44028 0.26168 0.98717 0.0
H1282 H 0.4326 0.32607 0.98891 0.0
H1283 H 0.53099 0.36885 0.99279 0.0
H1284 H 0.52229 0.36325 0.97164 0.0
H1285 H 0.51401 0.33997 0.98835 0.0
C1286 C 0.47647 0.30297 0.95559 0.0
C1287 C 0.46249 0.28106 0.96433 0.0
C1288 C 0.47919 0.32194 0.96266 0.0
C1289 C 0.46828 0.31936 0.97873 0.0
C1290 C 0.45428 0.29742 0.98747 0.0
H1291 H 0.50493 0.43354 0.03481 0.0
H1292 H 0.49829 0.39792 0.02587 0.0
C1293 C 0.45141 0.27845 0.98033 0.0
C1294 C 0.47078 0.33944 0.98617 0.0
H1295 H 0.51197 0.39103 0.99658 0.0
C1296 C 0.44996 0.3402 0.9907 0.0
C1297 C 0.49341 0.35774 0.98878 0.0
C1298 C 0.51643 0.35736 0.98531 0.0
C1299 C 0.45114 0.35896 0.99739 0.0
C1300 C 0.47379 0.37776 0.99918 0.0
C1301 C 0.4946 0.37676 0.99503 0.0
C1302 C 0.4764 0.39869 1.00526 0.0
C1303 C 0.42808 0.35826 1.00269 0.0
C1304 C 0.46631 0.41105 0.99669 0.0
C1305 C 0.4697 0.43128 1.00198 0.0
C1306 C 0.48357 0.43976 0.01583 0.0
C1307 C 0.49372 0.42736 0.02435 0.0
C1308 C 0.49012 0.40703 0.01915 0.0
H1309 H 0.41323 0.34053 1.00555 0.0
H1310 H 0.43009 0.36696 0.01407 0.0
H1311 H 0.4229 0.36693 0.99213 0.0
H1312 H 0.45621 0.40533 0.98566 0.0
H1313 H 0.4618 0.44044 0.99499 0.0
H1314 H 0.20124 0.72855 0.10082 0.0
H1315 H 0.17157 0.69453 0.08948 0.0
H1316 H 0.17017 0.73618 0.04457 0.0
H1317 H 0.19903 0.77033 0.0564 0.0
H1318 H 0.12585 0.70477 0.05579 0.0
H1319 H 0.18118 0.66265 0.0534 0.0
H1320 H 0.17842 0.66893 0.07433 0.0
H1321 H 0.19358 0.69175 0.05723 0.0
C1322 C 0.19453 0.73037 0.08854 0.0
C1323 C 0.20243 0.75203 0.07946 0.0
C1324 C 0.17779 0.71092 0.08197 0.0
C1325 C 0.1689 0.71265 0.06598 0.0
C1326 C 0.17685 0.73433 0.05686 0.0
H1327 H 0.08957 0.5953 0.01271 0.0
H1328 H 0.11903 0.6311 0.02153 0.0
C1329 C 0.19346 0.75382 0.06353 0.0
C1330 C 0.15074 0.69193 0.05909 0.0
H1331 H 0.13933 0.63965 0.05038 0.0
C1332 C 0.12888 0.6906 0.05449 0.0
C1333 C 0.15472 0.6735 0.05712 0.0
C1334 C 0.17835 0.67434 0.06061 0.0
C1335 C 0.1108 0.67126 0.04835 0.0
C1336 C 0.11435 0.65239 0.04718 0.0
C1337 C 0.13639 0.65393 0.05146 0.0
C1338 C 0.09568 0.63103 0.04132 0.0
C1339 C 0.0883 0.6715 0.04286 0.0
C1340 C 0.07259 0.61882 0.04947 0.0
C1341 C 0.0554 0.59845 0.04416 0.0
C1342 C 0.06102 0.58963 0.03072 0.0
C1343 C 0.08427 0.60176 0.02277 0.0
C1344 C 0.10132 0.62221 0.02795 0.0
H1345 H 0.09141 0.6891 0.03954 0.0
H1346 H 0.0814 0.66227 0.03171 0.0
H1347 H 0.07432 0.66313 0.05348 0.0
H1348 H 0.06792 0.62482 0.06015 0.0
H1349 H 0.03783 0.5895 0.05077 0.0
H1350 H 0.26775 0.47482 0.09365 0.0
H1351 H 0.29944 0.46825 0.08253 0.0
H1352 H 0.35094 0.5386 0.08405 0.0
H1353 H 0.31922 0.54487 0.09553 0.0
H1354 H 0.327 0.49087 0.05176 0.0
H1355 H 0.38412 0.50453 0.10667 0.0
H1356 H 0.35361 0.49918 0.10872 0.0
H1357 H 0.37726 0.52697 0.1005 0.0
C1358 C 0.28602 0.48859 0.09205 0.0
C1359 C 0.2914 0.51023 0.09559 0.0
C1360 C 0.30398 0.48494 0.08557 0.0
C1361 C 0.32751 0.5029 0.08262 0.0
C1362 C 0.33296 0.52444 0.08653 0.0
H1363 H 0.45823 0.52485 0.03406 0.0
H1364 H 0.42335 0.52809 0.04236 0.0
C1365 C 0.31498 0.52805 0.09303 0.0
C1366 C 0.34608 0.49949 0.07451 0.0
H1367 H 0.40063 0.50305 0.08027 0.0
C1368 C 0.34301 0.49332 0.05803 0.0
C1369 C 0.36692 0.50279 0.08275 0.0
C1370 C 0.37065 0.50853 0.1007 0.0
C1371 C 0.36057 0.49078 0.04944 0.0
C1372 C 0.38148 0.49445 0.0576 0.0
C1373 C 0.38449 0.5004 0.0741 0.0
C1374 C 0.40057 0.49202 0.0494 0.0
C1375 C 0.35711 0.48471 0.0316 0.0
C1376 C 0.39889 0.47058 0.05021 0.0
C1377 C 0.41879 0.46867 0.04544 0.0
C1378 C 0.44045 0.48816 0.03968 0.0
C1379 C 0.44165 0.50951 0.03807 0.0
C1380 C 0.42179 0.51141 0.04289 0.0
H1381 H 0.33998 0.48286 0.02685 0.0
H1382 H 0.37217 0.49805 0.02293 0.0
H1383 H 0.35738 0.46854 0.03119 0.0
H1384 H 0.38262 0.45549 0.0554 0.0
H1385 H 0.4176 0.45209 0.04696 0.0
H1386 H 0.59549 0.83296 0.08465 0.0
H1387 H 0.59339 0.86818 0.07716 0.0
H1388 H 0.51633 0.82997 0.08382 0.0
H1389 H 0.51857 0.79489 0.09132 0.0
H1390 H 0.56707 0.87486 0.04891 0.0
H1391 H 0.53601 0.88511 0.11101 0.0
H1392 H 0.55059 0.86824 0.10923 0.0
H1393 H 0.51967 0.85722 0.10476 0.0
C1394 C 0.57821 0.83229 0.08473 0.0
C1395 C 0.55718 0.81141 0.08846 0.0
C1396 C 0.57699 0.85229 0.08043 0.0
C1397 C 0.55471 0.8517 0.08006 0.0
C1398 C 0.53371 0.83085 0.08422 0.0
H1399 H 0.50386 0.93688 0.02916 0.0
H1400 H 0.51297 0.90708 0.04032 0.0
C1401 C 0.53495 0.81086 0.08837 0.0
C1402 C 0.55323 0.87254 0.07422 0.0
H1403 H 0.53411 0.90809 0.0866 0.0
C1404 C 0.5601 0.88228 0.05719 0.0
C1405 C 0.54425 0.88223 0.08507 0.0
C1406 C 0.53737 0.87283 0.10359 0.0
C1407 C 0.5574 0.90098 0.05057 0.0
C1408 C 0.54761 0.91015 0.06125 0.0
C1409 C 0.54153 0.90094 0.07843 0.0
C1410 C 0.54243 0.92854 0.05452 0.0
C1411 C 0.56476 0.91068 0.03213 0.0
C1412 C 0.55585 0.95049 0.05895 0.0
C1413 C 0.55093 0.96779 0.05235 0.0
C1414 C 0.53233 0.96334 0.04133 0.0
C1415 C 0.51867 0.94115 0.03725 0.0
C1416 C 0.52375 0.924 0.0437 0.0
H1417 H 0.57625 0.9047 0.02649 0.0
H1418 H 0.5485 0.90537 0.02483 0.0
H1419 H 0.57456 0.92951 0.03068 0.0
H1420 H 0.57027 0.95427 0.06737 0.0
H1421 H 0.56172 0.98461 0.05587 0.0
H1422 H 0.95789 0.13358 0.42379 0.0
H1423 H 0.9974 0.16647 0.4152 0.0
H1424 H 0.96645 0.21069 0.41453 0.0
H1425 H 0.92701 0.1777 0.42322 0.0
H1426 H 0.00942 0.19505 0.38562 0.0
H1427 H 0.02616 0.24452 0.43955 0.0
H1428 H 1.00316 0.21523 0.44083 0.0
H1429 H 0.99794 0.23745 0.4307 0.0
C1430 C 0.95972 0.1504 0.42207 0.0
C1431 C 0.9395 0.15318 0.42418 0.0
C1432 C 0.98223 0.16917 0.41714 0.0
C1433 C 0.98506 0.19118 0.41431 0.0
C1434 C 0.96494 0.19401 0.41696 0.0
H1435 H 0.09985 0.32598 0.37687 0.0
H1436 H 0.06173 0.29202 0.3864 0.0
C1437 C 0.94241 0.1752 0.42193 0.0
C1438 C 0.00859 0.21082 0.40742 0.0
H1439 H 0.0516 0.26366 0.41443 0.0
C1440 C 0.01874 0.21 0.39198 0.0
C1441 C 0.02082 0.23036 0.41568 0.0
C1442 C 0.01161 0.23192 0.43269 0.0
C1443 C 0.04028 0.22833 0.38435 0.0
C1444 C 0.05238 0.24808 0.39245 0.0
C1445 C 0.04236 0.24872 0.40804 0.0
C1446 C 0.07519 0.26842 0.38503 0.0
C1447 C 0.04933 0.22657 0.36736 0.0
C1448 C 0.09558 0.26667 0.38075 0.0
C1449 C 0.11732 0.28612 0.37499 0.0
C1450 C 0.11921 0.30777 0.37355 0.0
C1451 C 0.09882 0.30949 0.37766 0.0
C1452 C 0.07706 0.29007 0.3832 0.0
H1453 H 0.03478 0.21382 0.3606 0.0
H1454 H 0.05745 0.24313 0.35918 0.0
H1455 H 0.06317 0.22124 0.36929 0.0
H1456 H 0.09499 0.25036 0.38246 0.0
H1457 H 0.13285 0.28426 0.37239 0.0
H1458 H 0.8919 0.88337 0.43112 0.0
H1459 H 0.8555 0.88045 0.41828 0.0
H1460 H 0.85056 0.8267 0.39155 0.0
H1461 H 0.88644 0.82937 0.40458 0.0
H1462 H 0.84411 0.86284 0.37165 0.0
H1463 H 0.78725 0.82336 0.43208 0.0
H1464 H 0.8149 0.84923 0.43281 0.0
H1465 H 0.81561 0.82407 0.42887 0.0
C1466 C 0.88301 0.87114 0.42239 0.0
C1467 C 0.89184 0.85674 0.41862 0.0
C1468 C 0.86236 0.86943 0.41513 0.0
C1469 C 0.85045 0.85328 0.40408 0.0
C1470 C 0.85964 0.8393 0.40001 0.0
H1471 H 0.70402 0.80135 0.37499 0.0
H1472 H 0.74278 0.80452 0.38242 0.0
C1473 C 0.88011 0.84092 0.40733 0.0
C1474 C 0.8279 0.85029 0.39711 0.0
H1475 H 0.76895 0.83069 0.40813 0.0
C1476 C 0.82765 0.85587 0.37958 0.0
C1477 C 0.80652 0.8408 0.40753 0.0
C1478 C 0.80586 0.83382 0.42636 0.0
C1479 C 0.80646 0.85253 0.37219 0.0
C1480 C 0.78514 0.84344 0.38265 0.0
C1481 C 0.78536 0.83757 0.40015 0.0
C1482 C 0.7626 0.84101 0.37593 0.0
C1483 C 0.80691 0.85838 0.35325 0.0
C1484 C 0.7611 0.86042 0.36974 0.0
C1485 C 0.73913 0.85864 0.36561 0.0
C1486 C 0.7183 0.83738 0.36741 0.0
C1487 C 0.71991 0.81787 0.37323 0.0
C1488 C 0.74195 0.81967 0.37746 0.0
H1489 H 0.82339 0.86067 0.34661 0.0
H1490 H 0.7911 0.84484 0.34806 0.0
H1491 H 0.8062 0.87444 0.3505 0.0
H1492 H 0.7767 0.8771 0.36889 0.0
H1493 H 0.73843 0.87405 0.36174 0.0
H1494 H 0.25646 0.07894 0.40801 0.0
H1495 H 0.24809 0.0434 0.39745 0.0
H1496 H 0.17229 0.01987 0.40378 0.0
H1497 H 0.18078 0.05547 0.41446 0.0
H1498 H 0.18784 0.98841 0.41843 0.0
H1499 H 0.22183 0.02201 0.35111 0.0
H1500 H 0.24199 0.03692 0.36662 0.0
H1501 H 0.21419 0.03737 0.36482 0.0
C1502 C 0.23806 0.06617 0.40701 0.0
C1503 C 0.21923 0.06978 0.41196 0.0
C1504 C 0.23329 0.046 0.40091 0.0
C1505 C 0.20957 0.0291 0.39967 0.0
C1506 C 0.19071 0.03276 0.40454 0.0
H1507 H 0.1593 0.90527 0.35323 0.0
H1508 H 0.16665 0.94163 0.36122 0.0
C1509 C 0.19552 0.05303 0.41055 0.0
C1510 C 0.20452 1.00724 0.39402 0.0
H1511 H 0.21236 0.98389 0.36032 0.0
C1512 C 0.19309 0.98739 0.40571 0.0
C1513 C 0.21126 1.00595 0.37739 0.0
C1514 C 0.22282 0.02664 0.36417 0.0
C1515 C 0.18869 0.96633 0.4013 0.0
C1516 C 0.19603 0.96515 0.38482 0.0
C1517 C 0.20696 0.9849 0.373 0.0
C1518 C 0.19231 0.94347 0.3796 0.0
C1519 C 0.17606 0.94545 0.41425 0.0
C1520 C 0.20461 0.93262 0.38709 0.0
C1521 C 0.2007 0.91193 0.38239 0.0
C1522 C 0.18439 0.90168 0.37009 0.0
C1523 C 0.17228 0.91277 0.36252 0.0
C1524 C 0.17633 0.93353 0.36714 0.0
H1525 H 0.16722 0.94837 0.42501 0.0
H1526 H 0.16237 0.93098 0.40829 0.0
H1527 H 0.1893 0.9406 0.41945 0.0
H1528 H 0.21722 0.94016 0.3966 0.0
H1529 H 0.21037 0.90394 0.38849 0.0
H1530 H 0.46557 0.63314 0.30023 0.0
H1531 H 0.49458 0.66961 0.30927 0.0
H1532 H 0.5475 0.64741 0.31267 0.0
H1533 H 0.51845 0.611 0.30367 0.0
H1534 H 0.54294 0.66892 0.34146 0.0
H1535 H 0.55446 0.71998 0.27867 0.0
H1536 H 0.52411 0.70174 0.28717 0.0
H1537 H 0.54198 0.68953 0.28118 0.0
C1538 C 0.48335 0.63609 0.30306 0.0
C1539 C 0.48989 0.61941 0.30124 0.0
C1540 C 0.49994 0.65691 0.30809 0.0
C1541 C 0.52332 0.66135 0.31146 0.0
C1542 C 0.52963 0.64442 0.31007 0.0
H1543 H 0.65066 0.79005 0.32187 0.0
H1544 H 0.62168 0.75324 0.3137 0.0
C1545 C 0.51311 0.6237 0.30491 0.0
C1546 C 0.54126 0.68365 0.31634 0.0
H1547 H 0.5742 0.74012 0.3013 0.0
C1548 C 0.54977 0.68449 0.3327 0.0
C1549 C 0.55038 0.70393 0.30482 0.0
C1550 C 0.54247 0.70389 0.28692 0.0
C1551 C 0.56682 0.7051 0.33792 0.0
C1552 C 0.5756 0.72544 0.32651 0.0
C1553 C 0.56738 0.72455 0.31006 0.0
C1554 C 0.59319 0.74782 0.33149 0.0
C1555 C 0.57557 0.70497 0.35556 0.0
C1556 C 0.58672 0.75719 0.34403 0.0
C1557 C 0.60315 0.77829 0.34864 0.0
C1558 C 0.62656 0.79049 0.34091 0.0
C1559 C 0.6329 0.78114 0.3282 0.0
C1560 C 0.61635 0.76007 0.32349 0.0
H1561 H 0.57104 0.6876 0.36144 0.0
H1562 H 0.59526 0.71606 0.3553 0.0
H1563 H 0.56704 0.71164 0.36375 0.0
H1564 H 0.56882 0.74828 0.35013 0.0
H1565 H 0.59732 0.78512 0.35813 0.0
H1566 H 0.35721 0.82172 0.26958 0.0
H1567 H 0.32455 0.82411 0.28355 0.0
H1568 H 0.36567 0.84345 0.3277 0.0
H1569 H 0.39948 0.84441 0.31269 0.0
H1570 H 0.29602 0.80581 0.30871 0.0
H1571 H 0.35332 0.89447 0.32048 0.0
H1572 H 0.36433 0.88024 0.30833 0.0
H1573 H 0.36345 0.87629 0.33126 0.0
C1574 C 0.35931 0.82684 0.28215 0.0
C1575 C 0.381 0.83337 0.28989 0.0
C1576 C 0.34058 0.82793 0.29024 0.0
C1577 C 0.34295 0.83483 0.30649 0.0
C1578 C 0.36377 0.83915 0.31488 0.0
H1579 H 0.21346 0.81894 0.35674 0.0
H1580 H 0.2478 0.81462 0.3499 0.0
C1581 C 0.38289 0.83909 0.30647 0.0
C1582 C 0.32392 0.8381 0.31433 0.0
H1583 H 0.31417 0.87536 0.33393 0.0
C1584 C 0.30001 0.82112 0.31409 0.0
C1585 C 0.329 0.85827 0.32109 0.0
C1586 C 0.35389 0.87842 0.32013 0.0
C1587 C 0.28106 0.82384 0.32012 0.0
C1588 C 0.28624 0.84342 0.32779 0.0
C1589 C 0.31017 0.86023 0.32828 0.0
C1590 C 0.26713 0.84743 0.33451 0.0
C1591 C 0.25583 0.80616 0.31732 0.0
C1592 C 0.26748 0.86818 0.32964 0.0
C1593 C 0.24851 0.87133 0.33476 0.0
C1594 C 0.22865 0.85365 0.34454 0.0
C1595 C 0.22865 0.83316 0.34969 0.0
C1596 C 0.24811 0.83042 0.34533 0.0
H1597 H 0.25546 0.79703 0.30648 0.0
H1598 H 0.24832 0.79335 0.3288 0.0
H1599 H 0.24406 0.81383 0.31472 0.0
H1600 H 0.28201 0.88169 0.32136 0.0
H1601 H 0.24887 0.88723 0.33041 0.0
H1602 H 0.14825 0.54633 0.26603 0.0
H1603 H 0.15251 0.51226 0.27286 0.0
H1604 H 0.11023 0.49562 0.31996 0.0
H1605 H 0.10483 0.5288 0.31254 0.0
H1606 H 0.17464 0.50388 0.29785 0.0
H1607 H 0.08112 0.43455 0.30513 0.0
H1608 H 0.08906 0.4629 0.2956 0.0
H1609 H 0.08521 0.45559 0.31839 0.0
C1610 C 0.13924 0.53491 0.27752 0.0
C1611 C 0.12619 0.54006 0.28876 0.0
C1612 C 0.14185 0.51559 0.28153 0.0
C1613 C 0.13147 0.50112 0.29686 0.0
C1614 C 0.11792 0.50607 0.30787 0.0
H1615 H 0.18665 0.42116 0.35322 0.0
H1616 H 0.17699 0.4502 0.34102 0.0
C1617 C 0.11508 0.52518 0.30375 0.0
C1618 C 0.1365 0.48208 0.3021 0.0
H1619 H 0.11012 0.42621 0.31897 0.0
C1620 C 0.16048 0.48682 0.30225 0.0
C1621 C 0.11811 0.45968 0.30761 0.0
C1622 C 0.09195 0.45284 0.30649 0.0
C1623 C 0.16658 0.47008 0.30828 0.0
C1624 C 0.14825 0.44811 0.31493 0.0
C1625 C 0.12424 0.44313 0.31419 0.0
C1626 C 0.15358 0.43011 0.32276 0.0
C1627 C 0.19264 0.47614 0.30724 0.0
C1628 C 0.14285 0.40868 0.31716 0.0
C1629 C 0.14776 0.39172 0.32453 0.0
C1630 C 0.16358 0.3958 0.33767 0.0
C1631 C 0.17417 0.41723 0.34332 0.0
C1632 C 0.16897 0.43406 0.33612 0.0
H1633 H 0.20298 0.49034 0.29696 0.0
H1634 H 0.20051 0.48174 0.3194 0.0
H1635 H 0.19485 0.46141 0.3049 0.0
H1636 H 0.13082 0.40513 0.30694 0.0
H1637 H 0.13927 0.37546 0.3198 0.0
H1638 H 0.39781 0.5623 0.29709 0.0
H1639 H 0.35981 0.52765 0.30603 0.0
H1640 H 0.39508 0.48754 0.30316 0.0
H1641 H 0.4332 0.52231 0.29475 0.0
H1642 H 0.33288 0.48946 0.29086 0.0
H1643 H 0.3642 0.4664 0.35131 0.0
H1644 H 0.38074 0.49387 0.33874 0.0
H1645 H 0.38251 0.4699 0.33285 0.0
C1646 C 0.39736 0.54605 0.29841 0.0
C1647 C 0.41842 0.54494 0.29539 0.0
C1648 C 0.37567 0.52626 0.30346 0.0
C1649 C 0.37461 0.50495 0.30566 0.0
C1650 C 0.3955 0.50378 0.30197 0.0
H1651 H 0.26164 0.36602 0.3346 0.0
H1652 H 0.29937 0.40106 0.32598 0.0
C1653 C 0.4172 0.52359 0.29694 0.0
C1654 C 0.35169 0.48405 0.31182 0.0
H1655 H 0.32613 0.43916 0.34358 0.0
C1656 C 0.3314 0.47853 0.30242 0.0
C1657 C 0.34965 0.46978 0.32698 0.0
C1658 C 0.37035 0.47534 0.33816 0.0
C1659 C 0.30937 0.45892 0.30751 0.0
C1660 C 0.30742 0.44456 0.32256 0.0
C1661 C 0.32764 0.45013 0.33202 0.0
C1662 C 0.28466 0.42344 0.32849 0.0
C1663 C 0.2885 0.45344 0.2965 0.0
C1664 C 0.26391 0.42435 0.33305 0.0
C1665 C 0.24237 0.40435 0.338 0.0
C1666 C 0.24125 0.38306 0.33875 0.0
C1667 C 0.26207 0.38221 0.33432 0.0
C1668 C 0.28361 0.4022 0.32941 0.0
H1669 H 0.29432 0.46314 0.28356 0.0
H1670 H 0.27868 0.43504 0.29535 0.0
H1671 H 0.27588 0.45791 0.30242 0.0
H1672 H 0.26433 0.44053 0.33268 0.0
H1673 H 0.22656 0.40558 0.34101 0.0
H1674 H 0.47201 0.88203 0.28658 0.0
H1675 H 0.5102 0.8892 0.29849 0.0
H1676 H 0.4967 0.82278 0.28945 0.0
H1677 H 0.45842 0.8157 0.27742 0.0
H1678 H 0.51005 0.84926 0.328 0.0
H1679 H 0.57025 0.88139 0.26886 0.0
H1680 H 0.54508 0.88642 0.27076 0.0
H1681 H 0.53997 0.85845 0.26885 0.0
C1682 C 0.47757 0.86924 0.28687 0.0
C1683 C 0.4627 0.84844 0.28109 0.0
C1684 C 0.49913 0.87324 0.29373 0.0
C1685 C 0.50605 0.85648 0.29481 0.0
C1686 C 0.4915 0.83586 0.28864 0.0
H1687 H 0.61414 0.83665 0.34463 0.0
H1688 H 0.57648 0.83373 0.33559 0.0
C1689 C 0.46985 0.83184 0.2818 0.0
C1690 C 0.52805 0.86028 0.30305 0.0
H1691 H 0.58733 0.87852 0.29472 0.0
C1692 C 0.52699 0.85565 0.3208 0.0
C1693 C 0.54997 0.86884 0.29351 0.0
C1694 C 0.55165 0.87417 0.27442 0.0
C1695 C 0.5475 0.85914 0.3293 0.0
C1696 C 0.5694 0.86736 0.31974 0.0
C1697 C 0.57047 0.87232 0.30199 0.0
C1698 C 0.59121 0.86975 0.32772 0.0
C1699 C 0.54575 0.85429 0.34843 0.0
C1700 C 0.61188 0.89102 0.32648 0.0
C1701 C 0.63347 0.89275 0.33181 0.0
C1702 C 0.63464 0.87323 0.3384 0.0
C1703 C 0.61372 0.85206 0.34007 0.0
C1704 C 0.59215 0.85035 0.33486 0.0
H1705 H 0.52891 0.85249 0.35409 0.0
H1706 H 0.54618 0.83825 0.35224 0.0
H1707 H 0.56119 0.86809 0.35376 0.0
H1708 H 0.61148 0.90614 0.32084 0.0
H1709 H 0.64945 0.90921 0.33019 0.0
H1710 H 0.17074 0.62985 0.29636 0.0
H1711 H 0.17609 0.66326 0.30907 0.0
H1712 H 0.09944 0.63591 0.31319 0.0
H1713 H 0.09428 0.6025 0.30062 0.0
H1714 H 0.16041 0.6944 0.29657 0.0
H1715 H 0.11989 0.6518 0.36135 0.0
H1716 H 0.12941 0.63882 0.34667 0.0
H1717 H 0.10154 0.63903 0.3444 0.0
C1718 C 0.15515 0.63101 0.30021 0.0
C1719 C 0.13213 0.61371 0.2978 0.0
C1720 C 0.15816 0.65001 0.30738 0.0
C1721 C 0.13814 0.65189 0.31232 0.0
C1722 C 0.1151 0.63459 0.30979 0.0
H1723 H 0.12968 0.77112 0.33012 0.0
H1724 H 0.1251 0.7365 0.32042 0.0
C1725 C 0.11214 0.61565 0.30257 0.0
C1726 C 0.14138 0.67235 0.31947 0.0
H1727 H 0.12829 0.6901 0.3546 0.0
C1728 C 0.15348 0.69348 0.30928 0.0
C1729 C 0.13253 0.67113 0.33612 0.0
C1730 C 0.12029 0.64903 0.34786 0.0
C1731 C 0.15647 0.71335 0.31515 0.0
C1732 C 0.14694 0.71201 0.33158 0.0
C1733 C 0.13536 0.691 0.34194 0.0
C1734 C 0.14882 0.73233 0.33813 0.0
C1735 C 0.16994 0.73569 0.30379 0.0
C1736 C 0.16323 0.74113 0.35161 0.0
C1737 C 0.16598 0.76101 0.35719 0.0
C1738 C 0.15413 0.7723 0.3495 0.0
C1739 C 0.13915 0.76298 0.33632 0.0
C1740 C 0.13654 0.74321 0.3307 0.0
H1741 H 0.18038 0.73458 0.2931 0.0
H1742 H 0.15699 0.7408 0.29836 0.0
H1743 H 0.18235 0.74919 0.31114 0.0
H1744 H 0.17284 0.73294 0.35751 0.0
H1745 H 0.17787 0.76777 0.36722 0.0
H1746 H 0.8392 0.09343 0.4112 0.0
H1747 H 0.80955 0.05877 0.40028 0.0
H1748 H 0.85846 0.03186 0.4053 0.0
H1749 H 0.88804 0.06654 0.41629 0.0
H1750 H 0.81472 0.03842 0.37115 0.0
H1751 H 0.79509 0.98232 0.43256 0.0
H1752 H 0.80954 0.01285 0.43121 0.0
H1753 H 0.82621 0.99933 0.42549 0.0
C1754 C 0.84352 0.08007 0.40993 0.0
C1755 C 0.86577 0.08251 0.41461 0.0
C1756 C 0.82667 0.06035 0.40367 0.0
C1757 C 0.83167 0.04261 0.40215 0.0
C1758 C 0.85409 0.0452 0.40655 0.0
H1759 H 0.75578 0.92413 0.34964 0.0
H1760 H 0.78501 0.9597 0.3591 0.0
C1761 C 0.87102 0.06501 0.4127 0.0
C1762 C 0.81334 0.02136 0.39607 0.0
H1763 H 0.77685 0.96465 0.4086 0.0
C1764 C 0.80644 0.02228 0.37933 0.0
C1765 C 0.80235 1.00036 0.40681 0.0
C1766 C 0.80845 0.99853 0.42507 0.0
C1767 C 0.78913 1.00271 0.37296 0.0
C1768 C 0.77848 0.98164 0.3836 0.0
C1769 C 0.78511 0.98078 0.40043 0.0
C1770 C 0.76042 0.96027 0.37751 0.0
C1771 C 0.78212 1.00476 0.35497 0.0
C1772 C 0.73687 0.94853 0.38483 0.0
C1773 C 0.71994 0.92821 0.3793 0.0
C1774 C 0.72627 0.91909 0.36642 0.0
C1775 C 0.75 0.93083 0.35926 0.0
C1776 C 0.76683 0.9512 0.3647 0.0
H1777 H 0.78793 0.02266 0.34974 0.0
H1778 H 0.79071 0.99815 0.34678 0.0
H1779 H 0.76243 0.99458 0.35429 0.0
H1780 H 0.73155 0.95513 0.3948 0.0
H1781 H 0.70194 0.91963 0.38521 0.0
H1782 H 0.98554 0.86381 0.44071 0.0
H1783 H 0.01608 0.85537 0.4298 0.0
H1784 H 0.9635 0.80724 0.40033 0.0
H1785 H 0.93331 0.81602 0.41107 0.0
H1786 H 0.01827 0.81506 0.43029 0.0
H1787 H 0.01632 0.852 0.36446 0.0
H1788 H 1.00265 0.85615 0.38264 0.0
H1789 H 0.98772 0.82995 0.37373 0.0
C1790 C 0.98067 0.85126 0.43208 0.0
C1791 C 0.95749 0.84073 0.42644 0.0
C1792 C 0.99796 0.84648 0.42584 0.0
C1793 C 0.9921 0.8311 0.41395 0.0
C1794 C 0.96848 0.81958 0.40915 0.0
H1795 H 0.0875 0.78167 0.38275 0.0
H1796 H 0.0514 0.78318 0.39122 0.0
C1797 C 0.95131 0.82446 0.41531 0.0
C1798 C 0.01085 0.82762 0.40616 0.0
H1799 H 0.04022 0.83408 0.36827 0.0
C1800 C 0.02304 0.81913 0.41673 0.0
C1801 C 0.01716 0.83325 0.38849 0.0
C1802 C 0.00546 0.84355 0.37666 0.0
C1803 C 0.04145 0.81608 0.41009 0.0
C1804 C 0.04741 0.82126 0.39237 0.0
C1805 C 0.03526 0.82979 0.3818 0.0
C1806 C 0.06752 0.8196 0.38485 0.0
C1807 C 0.05488 0.80804 0.42215 0.0
C1808 C 0.08795 0.8394 0.37768 0.0
C1809 C 0.10841 0.83854 0.37278 0.0
C1810 C 0.10858 0.8178 0.37473 0.0
C1811 C 0.08768 0.79782 0.38105 0.0
C1812 C 0.06719 0.79868 0.38595 0.0
H1813 H 0.05149 0.80946 0.43557 0.0
H1814 H 0.049 0.78996 0.4212 0.0
H1815 H 0.07445 0.81795 0.41883 0.0
H1816 H 0.0885 0.8557 0.37671 0.0
H1817 H 0.12435 0.85425 0.36829 0.0
H1818 H 0.26241 0.16553 0.41841 0.0
H1819 H 0.25919 0.20023 0.41138 0.0
H1820 H 0.18217 0.16008 0.416 0.0
H1821 H 0.18551 0.1255 0.42304 0.0
H1822 H 0.23387 0.20694 0.38255 0.0
H1823 H 0.19811 0.21369 0.44412 0.0
H1824 H 0.21376 0.19772 0.44258 0.0
H1825 H 0.18311 0.18609 0.43725 0.0
C1826 C 0.24487 0.16431 0.41821 0.0
C1827 C 0.22419 0.14304 0.42124 0.0
C1828 C 0.24302 0.18402 0.41414 0.0
C1829 C 0.22044 0.18273 0.4133 0.0
C1830 C 0.19976 0.16149 0.4168 0.0
H1831 H 0.16925 0.26734 0.3614 0.0
H1832 H 0.17852 0.23765 0.37264 0.0
C1833 C 0.20163 0.14179 0.42072 0.0
C1834 C 0.21839 0.20329 0.40757 0.0
H1835 H 0.19678 0.23709 0.41978 0.0
C1836 C 0.22599 0.21368 0.39073 0.0
C1837 C 0.2082 0.2121 0.41829 0.0
C1838 C 0.20048 0.20199 0.43662 0.0
C1839 C 0.2229 0.23217 0.38416 0.0
C1840 C 0.21194 0.24046 0.39471 0.0
C1841 C 0.20508 0.2306 0.41171 0.0
C1842 C 0.20654 0.25872 0.388 0.0
C1843 C 0.23114 0.24262 0.36594 0.0
C1844 C 0.21906 0.28039 0.39307 0.0
C1845 C 0.21406 0.29762 0.38645 0.0
C1846 C 0.19627 0.29339 0.37475 0.0
C1847 C 0.18345 0.27145 0.37003 0.0
C1848 C 0.18862 0.25436 0.37652 0.0
H1849 H 0.24338 0.2373 0.36053 0.0
H1850 H 0.21532 0.23723 0.35816 0.0
H1851 H 0.24043 0.26142 0.36489 0.0
H1852 H 0.23288 0.28402 0.402 0.0
H1853 H 0.22418 0.31423 0.39047 0.0
H1854 H 0.61951 0.48845 0.77913 0.0
H1855 H 0.65748 0.5234 0.77097 0.0
H1856 H 0.63363 0.5289 0.72062 0.0
H1857 H 0.59495 0.49591 0.72946 0.0
H1858 H 0.69193 0.53332 0.75082 0.0
H1859 H 0.65926 0.59198 0.72625 0.0
H1860 H 0.63936 0.56433 0.73742 0.0
H1861 H 0.6465 0.56803 0.71484 0.0
C1862 C 0.62212 0.49764 0.76654 0.0
C1863 C 0.60421 0.48938 0.75493 0.0
C1864 C 0.644 0.51748 0.76176 0.0
C1865 C 0.64859 0.52929 0.74517 0.0
C1866 C 0.63058 0.52087 0.73365 0.0
H1867 H 0.79726 0.61986 0.70345 0.0
H1868 H 0.75786 0.58696 0.71169 0.0
C1869 C 0.60852 0.50161 0.7386 0.0
C1870 C 0.6725 0.54957 0.73959 0.0
H1871 H 0.69915 0.60215 0.71619 0.0
C1872 C 0.69346 0.54851 0.74348 0.0
C1873 C 0.67489 0.56974 0.7302 0.0
C1874 C 0.65377 0.57366 0.72714 0.0
C1875 C 0.71643 0.56669 0.73816 0.0
C1876 C 0.71871 0.58616 0.7277 0.0
C1877 C 0.69773 0.58725 0.72393 0.0
C1878 C 0.74247 0.60615 0.72128 0.0
C1879 C 0.73787 0.56496 0.74443 0.0
C1880 C 0.74684 0.62826 0.72272 0.0
C1881 C 0.76884 0.64714 0.71695 0.0
C1882 C 0.78731 0.64454 0.70977 0.0
C1883 C 0.78318 0.62251 0.70842 0.0
C1884 C 0.76076 0.60358 0.71361 0.0
H1885 H 0.7332 0.55325 0.75651 0.0
H1886 H 0.74423 0.558 0.73488 0.0
H1887 H 0.75273 0.58174 0.74658 0.0
H1888 H 0.73332 0.631 0.7286 0.0
H1889 H 0.77161 0.66387 0.71845 0.0
H1890 H 0.55638 0.21488 0.76511 0.0
H1891 H 0.52015 0.21183 0.75189 0.0
H1892 H 0.51543 0.15755 0.72594 0.0
H1893 H 0.5512 0.1604 0.73932 0.0
H1894 H 0.50934 0.19365 0.70546 0.0
H1895 H 0.45169 0.15483 0.76559 0.0
H1896 H 0.47936 0.18066 0.76637 0.0
H1897 H 0.48003 0.15538 0.7627 0.0
C1898 C 0.54757 0.20251 0.75646 0.0
C1899 C 0.55639 0.18799 0.75303 0.0
C1900 C 0.52702 0.20072 0.74899 0.0
C1901 C 0.51521 0.18439 0.73805 0.0
C1902 C 0.52441 0.17028 0.73431 0.0
H1903 H 0.36924 0.13352 0.70793 0.0
H1904 H 0.4077 0.13611 0.71557 0.0
C1905 C 0.54478 0.17198 0.74185 0.0
C1906 C 0.49279 0.18136 0.73084 0.0
H1907 H 0.4338 0.16219 0.74139 0.0
C1908 C 0.49279 0.18682 0.71326 0.0
C1909 C 0.4713 0.17204 0.74111 0.0
C1910 C 0.47037 0.16519 0.75999 0.0
C1911 C 0.47175 0.18357 0.70568 0.0
C1912 C 0.45033 0.1747 0.71599 0.0
C1913 C 0.45029 0.1689 0.73354 0.0
C1914 C 0.42801 0.17258 0.70908 0.0
C1915 C 0.47246 0.18935 0.68671 0.0
C1916 C 0.42688 0.19217 0.70283 0.0
C1917 C 0.40508 0.19071 0.69861 0.0
C1918 C 0.38405 0.16962 0.70037 0.0
C1919 C 0.3853 0.14992 0.70622 0.0
C1920 C 0.40716 0.15139 0.71056 0.0
H1921 H 0.48891 0.19135 0.68022 0.0
H1922 H 0.45659 0.17593 0.68146 0.0
H1923 H 0.47206 0.20555 0.68382 0.0
H1924 H 0.44264 0.20873 0.70203 0.0
H1925 H 0.40468 0.20626 0.69471 0.0
H1926 H 0.84799 0.3895 0.74914 0.0
H1927 H 0.83984 0.35348 0.73939 0.0
H1928 H 0.91574 0.37714 0.73387 0.0
H1929 H 0.92378 0.41313 0.74349 0.0
H1930 H 0.88844 0.35583 0.70568 0.0
H1931 H 0.85035 0.30393 0.76862 0.0
H1932 H 0.83762 0.32148 0.76073 0.0
H1933 H 0.86828 0.33445 0.76616 0.0
C1934 C 0.86282 0.38696 0.74569 0.0
C1935 C 0.88646 0.40387 0.74709 0.0
C1936 C 0.85821 0.36642 0.74025 0.0
C1937 C 0.8772 0.36257 0.73611 0.0
C1938 C 0.90084 0.37974 0.73709 0.0
H1939 H 0.87582 0.23623 0.7249 0.0
H1940 H 0.88372 0.2728 0.73296 0.0
C1941 C 0.90543 0.40019 0.7426 0.0
C1942 C 0.8725 0.34058 0.73095 0.0
H1943 H 0.84923 0.28425 0.74565 0.0
C1944 C 0.87984 0.34016 0.71439 0.0
C1945 C 0.86155 0.32024 0.74242 0.0
C1946 C 0.85412 0.31992 0.76053 0.0
C1947 C 0.87623 0.31985 0.70893 0.0
C1948 C 0.86488 0.29945 0.72032 0.0
C1949 C 0.85781 0.29992 0.73693 0.0
C1950 C 0.86026 0.27743 0.71523 0.0
C1951 C 0.88489 0.3204 0.69112 0.0
C1952 C 0.84423 0.2678 0.70273 0.0
C1953 C 0.83957 0.24686 0.69815 0.0
C1954 C 0.85092 0.23514 0.70593 0.0
C1955 C 0.86686 0.2448 0.71856 0.0
C1956 C 0.8714 0.2657 0.7232 0.0
H1957 H 0.89779 0.33791 0.68529 0.0
H1958 H 0.89358 0.30964 0.69104 0.0
H1959 H 0.86936 0.31357 0.68308 0.0
H1960 H 0.83507 0.27634 0.69667 0.0
H1961 H 0.82676 0.23975 0.68868 0.0
H1962 H 0.18501 0.94532 0.63608 0.0
H1963 H 0.21356 0.98154 0.64557 0.0
H1964 H 0.15999 1.00295 0.64252 0.0
H1965 H 0.13146 0.96663 0.633 0.0
H1966 H 0.2075 0.03538 0.6257 0.0
H1967 H 0.21162 1.00336 0.69265 0.0
H1968 H 0.2152 0.98826 0.6767 0.0
H1969 H 0.18708 0.98767 0.67986 0.0
C1970 C 0.17939 0.95776 0.63757 0.0
C1971 C 0.15612 0.95329 0.63389 0.0
C1972 C 0.19561 0.97836 0.64304 0.0
C1973 C 0.18887 0.9949 0.64487 0.0
C1974 C 0.16555 0.9904 0.64126 0.0
H1975 H 0.26307 0.11952 0.69032 0.0
H1976 H 0.23423 0.0829 0.68215 0.0
C1977 C 0.14925 0.96969 0.63593 0.0
C1978 C 0.2064 0.01714 0.65004 0.0
H1979 H 0.2393 0.04182 0.683 0.0
C1980 C 0.21443 0.03681 0.63823 0.0
C1981 C 0.21533 0.01899 0.66642 0.0
C1982 C 0.2068 0.99852 0.67974 0.0
C1983 C 0.23142 0.05821 0.64229 0.0
C1984 C 0.24067 0.06 0.65857 0.0
C1985 C 0.23235 0.04039 0.67047 0.0
C1986 C 0.25856 0.08218 0.66362 0.0
C1987 C 0.23916 0.07884 0.62923 0.0
C1988 C 0.28197 0.09393 0.65603 0.0
C1989 C 0.29873 0.11482 0.66088 0.0
C1990 C 0.2924 0.12439 0.67344 0.0
C1991 C 0.26885 0.11255 0.68091 0.0
C1992 C 0.25221 0.09162 0.67617 0.0
H1993 H 0.22721 0.07527 0.61852 0.0
H1994 H 0.23944 0.093 0.63514 0.0
H1995 H 0.25759 0.08453 0.62401 0.0
H1996 H 0.28733 0.08687 0.64642 0.0
H1997 H 0.31664 0.1234 0.65481 0.0
H1998 H 0.01641 0.13673 0.61775 0.0
H1999 H 0.98435 0.14059 0.63177 0.0
H2000 H 0.03723 0.19408 0.65736 0.0
H2001 H 0.06903 0.19048 0.64317 0.0
H2002 H 0.99321 0.1589 0.67815 0.0
H2003 H 0.97803 0.1998 0.61792 0.0
H2004 H 0.97769 0.17326 0.61713 0.0
H2005 H 0.00499 0.19778 0.6209 0.0
C2006 C 0.02094 0.14904 0.62655 0.0
C2007 C 0.04491 0.16318 0.6296 0.0
C2008 C 1.0028 0.15127 0.63449 0.0
C2009 C 0.00859 0.16766 0.64552 0.0
C2010 C 0.0325 0.18126 0.64896 0.0
H2011 H 0.91912 0.22384 0.67404 0.0
H2012 H 0.95436 0.21987 0.66734 0.0
C2013 C 0.05055 0.17914 0.64096 0.0
C2014 C 0.99001 0.17171 0.65273 0.0
H2015 H 0.95289 0.19345 0.642 0.0
C2016 C 0.98431 0.16641 0.6703 0.0
C2017 C 0.97896 0.18196 0.64241 0.0
C2018 C 0.98526 0.18873 0.62355 0.0
C2019 C 0.96729 0.17067 0.67782 0.0
C2020 C 0.95579 0.1804 0.66744 0.0
C2021 C 0.96187 0.18609 0.64991 0.0
C2022 C 0.93616 0.18342 0.67418 0.0
C2023 C 0.96188 0.16496 0.69679 0.0
C2024 C 0.91452 0.1643 0.68037 0.0
C2025 C 0.89454 0.16653 0.68405 0.0
C2026 C 0.89588 0.18794 0.68182 0.0
C2027 C 0.91777 0.2072 0.67612 0.0
C2028 C 0.93782 0.20495 0.67233 0.0
H2029 H 0.97607 0.16267 0.70335 0.0
H2030 H 0.96 0.17851 0.70202 0.0
H2031 H 0.94472 0.1489 0.69963 0.0
H2032 H 0.91269 0.14748 0.68144 0.0
H2033 H 0.87785 0.1513 0.68785 0.0
H2034 H 0.77055 0.86343 0.64663 0.0
H2035 H 0.77759 0.8314 0.65497 0.0
H2036 H 0.8173 0.84578 0.60702 0.0
H2037 H 0.81149 0.87886 0.5992 0.0
H2038 H 0.76721 0.79346 0.64371 0.0
H2039 H 0.86604 0.84694 0.63894 0.0
H2040 H 0.84622 0.85889 0.63703 0.0
H2041 H 0.85267 0.84805 0.61924 0.0
C2042 C 0.78082 0.85971 0.63793 0.0
C2043 C 0.79089 0.87379 0.62246 0.0
C2044 C 0.78473 0.84135 0.64263 0.0
C2045 C 0.79857 0.83648 0.63185 0.0
C2046 C 0.80723 0.8496 0.61581 0.0
H2047 H 0.80596 0.71069 0.65534 0.0
H2048 H 0.79685 0.74003 0.643 0.0
C2049 C 0.8036 0.86826 0.61122 0.0
C2050 C 0.80434 0.8181 0.63779 0.0
H2051 H 0.85079 0.8074 0.6455 0.0
C2052 C 0.7855 0.79652 0.64408 0.0
C2053 C 0.82823 0.82215 0.6386 0.0
C2054 C 0.84947 0.8453 0.63326 0.0
C2055 C 0.78982 0.77899 0.65124 0.0
C2056 C 0.81367 0.78282 0.65156 0.0
C2057 C 0.8325 0.80436 0.64516 0.0
C2058 C 0.81957 0.76499 0.65885 0.0
C2059 C 0.76877 0.75685 0.65897 0.0
C2060 C 0.83624 0.76944 0.6714 0.0
C2061 C 0.84202 0.75283 0.6782 0.0
C2062 C 0.831 0.73125 0.67279 0.0
C2063 C 0.81454 0.72695 0.66007 0.0
C2064 C 0.80912 0.7437 0.65306 0.0
H2065 H 0.75329 0.7591 0.66248 0.0
H2066 H 0.76292 0.74466 0.64954 0.0
H2067 H 0.77355 0.74935 0.6705 0.0
H2068 H 0.84478 0.7858 0.67597 0.0
H2069 H 0.85522 0.75701 0.68761 0.0
H2070 H 0.10007 0.85631 0.62461 0.0
H2071 H 0.06187 0.82129 0.63183 0.0
H2072 H 0.02708 0.86101 0.63859 0.0
H2073 H 0.06488 0.89584 0.63027 0.0
H2074 H 0.03566 0.80557 0.66041 0.0
H2075 H 0.97939 0.81651 0.6114 0.0
H2076 H 0.01143 0.8344 0.61029 0.0
H2077 H 0.9923 0.84015 0.6232 0.0
C2078 C 0.08409 0.85747 0.62717 0.0
C2079 C 0.08541 0.87878 0.62683 0.0
C2080 C 0.06229 0.83747 0.63147 0.0
C2081 C 0.04134 0.83834 0.63557 0.0
C2082 C 0.04268 0.8597 0.63507 0.0
H2083 H 0.89582 0.7407 0.67505 0.0
H2084 H 0.93427 0.7747 0.66632 0.0
C2085 C 0.06439 0.87965 0.63055 0.0
C2086 C 0.01852 0.81704 0.64137 0.0
H2087 H 0.95856 0.78844 0.63534 0.0
C2088 C 0.01885 0.80178 0.6548 0.0
C2089 C 0.99647 0.81188 0.63409 0.0
C2090 C 0.99489 0.82649 0.61883 0.0
C2091 C 0.99786 0.78194 0.66142 0.0
C2092 C 0.97572 0.7771 0.65444 0.0
C2093 C 0.9754 0.79224 0.6409 0.0
C2094 C 0.95273 0.75632 0.66074 0.0
C2095 C 0.99972 0.76662 0.67599 0.0
C2096 C 0.95012 0.73458 0.66055 0.0
C2097 C 0.92822 0.71514 0.66579 0.0
C2098 C 0.90842 0.71697 0.67135 0.0
C2099 C 0.9109 0.7387 0.67134 0.0
C2100 C 0.93286 0.75816 0.66619 0.0
H2101 H 0.01527 0.77614 0.68353 0.0
H2102 H 0.9833 0.75807 0.68459 0.0
H2103 H 1.00231 0.75338 0.67084 0.0
H2104 H 0.9649 0.73261 0.65601 0.0
H2105 H 0.92667 0.6986 0.66531 0.0
H2106 H 0.12562 0.20296 0.6366 0.0
H2107 H 0.16568 0.2141 0.64653 0.0
H2108 H 0.17298 0.17 0.61478 0.0
H2109 H 0.13282 0.15916 0.60472 0.0
H2110 H 0.17761 0.18393 0.66399 0.0
H2111 H 0.23745 0.22844 0.60566 0.0
H2112 H 0.20694 0.2232 0.60732 0.0
H2113 H 0.21309 0.20093 0.60326 0.0
C2114 C 0.13603 0.19594 0.63168 0.0
C2115 C 0.12642 0.18011 0.62014 0.0
C2116 C 0.1588 0.20229 0.63726 0.0
C2117 C 0.17228 0.19295 0.63132 0.0
C2118 C 0.16298 0.17768 0.61929 0.0
H2119 H 0.28106 0.1713 0.67722 0.0
H2120 H 0.24372 0.16954 0.6687 0.0
C2121 C 0.14015 0.17141 0.61363 0.0
C2122 C 0.19507 0.19767 0.63891 0.0
H2123 H 0.25462 0.21813 0.62949 0.0
C2124 C 0.19451 0.19159 0.65648 0.0
C2125 C 0.21705 0.20792 0.62909 0.0
C2126 C 0.21881 0.21571 0.61031 0.0
C2127 C 0.21529 0.19488 0.66445 0.0
C2128 C 0.23709 0.20422 0.65454 0.0
C2129 C 0.23781 0.21093 0.63704 0.0
C2130 C 0.25903 0.20582 0.66182 0.0
C2131 C 0.21381 0.18844 0.68341 0.0
C2132 C 0.28002 0.22682 0.66086 0.0
C2133 C 0.30147 0.22786 0.66584 0.0
C2134 C 0.30217 0.20792 0.67184 0.0
C2135 C 0.28099 0.187 0.67316 0.0
C2136 C 0.25959 0.18597 0.66825 0.0
H2137 H 0.1974 0.18683 0.68967 0.0
H2138 H 0.21343 0.17187 0.68615 0.0
H2139 H 0.22968 0.20129 0.68907 0.0
H2140 H 0.27993 0.2423 0.65578 0.0
H2141 H 0.31768 0.24414 0.66447 0.0
H2142 H 0.77584 0.92907 0.65318 0.0
H2143 H 0.78143 0.96272 0.66538 0.0
H2144 H 0.8222 1.00519 0.61961 0.0
H2145 H 0.81759 0.97157 0.60781 0.0
H2146 H 0.84299 0.02337 0.64732 0.0
H2147 H 0.74653 0.99789 0.65331 0.0
H2148 H 0.75332 0.97734 0.66448 0.0
H2149 H 0.75775 0.98326 0.64168 0.0
C2150 C 0.78618 0.94565 0.64585 0.0
C2151 C 0.79622 0.94782 0.62956 0.0
C2152 C 0.78911 0.96482 0.65271 0.0
C2153 C 0.80179 0.98647 0.64327 0.0
C2154 C 0.81218 0.98866 0.62708 0.0
H2155 H 0.79723 0.10752 0.66204 0.0
H2156 H 0.7922 0.07313 0.65171 0.0
C2157 C 0.80944 0.9695 0.6203 0.0
C2158 C 0.8045 1.00688 0.65029 0.0
H2159 H 0.77296 0.03004 0.66629 0.0
C2160 C 0.82767 0.02485 0.65143 0.0
C2161 C 0.78451 1.00896 0.65543 0.0
C2162 C 0.75913 0.99094 0.65352 0.0
C2163 C 0.83142 0.04476 0.65767 0.0
C2164 C 0.81144 0.0465 0.66338 0.0
C2165 C 0.78827 0.02859 0.66212 0.0
C2166 C 0.81413 0.06707 0.67013 0.0
C2167 C 0.85673 0.06395 0.65763 0.0
C2168 C 0.82778 0.07493 0.68413 0.0
C2169 C 0.83096 0.09479 0.68996 0.0
C2170 C 0.82014 0.10698 0.68212 0.0
C2171 C 0.80588 0.09865 0.66841 0.0
C2172 C 0.80293 0.07893 0.66249 0.0
H2173 H 0.86902 0.06253 0.64855 0.0
H2174 H 0.85757 0.08066 0.65424 0.0
H2175 H 0.86336 0.06342 0.6705 0.0
H2176 H 0.83615 0.0658 0.6905 0.0
H2177 H 0.84226 0.10076 0.70041 0.0
H2178 H 0.53157 0.39073 0.77207 0.0
H2179 H 0.5018 0.35635 0.76109 0.0
H2180 H 0.50399 0.39665 0.71422 0.0
H2181 H 0.53291 0.43112 0.72559 0.0
H2182 H 0.45881 0.36662 0.725 0.0
H2183 H 0.51205 0.32192 0.7271 0.0
H2184 H 0.50848 0.32947 0.74739 0.0
H2185 H 0.52497 0.3514 0.73 0.0
C2186 C 0.5256 0.39217 0.75945 0.0
C2187 C 0.53455 0.41353 0.74965 0.0
C2188 C 0.50882 0.37251 0.75309 0.0
C2189 C 0.5009 0.37377 0.73667 0.0
C2190 C 0.50989 0.39516 0.72687 0.0
H2191 H 0.42269 0.2569 0.68275 0.0
H2192 H 0.45223 0.29218 0.69232 0.0
C2193 C 0.52654 0.41482 0.73329 0.0
C2194 C 0.48274 0.35293 0.72992 0.0
H2195 H 0.47068 0.30004 0.72232 0.0
C2196 C 0.46147 0.35211 0.72434 0.0
C2197 C 0.48627 0.33406 0.72879 0.0
C2198 C 0.50928 0.33429 0.73347 0.0
C2199 C 0.44357 0.3329 0.71796 0.0
C2200 C 0.44667 0.31366 0.71751 0.0
C2201 C 0.4681 0.31463 0.72283 0.0
C2202 C 0.42816 0.2925 0.71133 0.0
C2203 C 0.42175 0.33366 0.71142 0.0
C2204 C 0.40468 0.28069 0.71884 0.0
C2205 C 0.38753 0.26061 0.71315 0.0
C2206 C 0.39352 0.25172 0.69994 0.0
C2207 C 0.41716 0.26343 0.69263 0.0
C2208 C 0.43422 0.28357 0.69823 0.0
H2209 H 0.42534 0.35139 0.7079 0.0
H2210 H 0.41559 0.32455 0.70015 0.0
H2211 H 0.40703 0.32541 0.72154 0.0
H2212 H 0.39967 0.28681 0.72929 0.0
H2213 H 0.36963 0.25198 0.71925 0.0
H2214 H 0.65028 0.19535 0.7751 0.0
H2215 H 0.68119 0.18774 0.76369 0.0
H2216 H 0.62931 0.14104 0.73301 0.0
H2217 H 0.59875 0.14896 0.74429 0.0
H2218 H 0.68351 0.14754 0.76301 0.0
H2219 H 0.68267 0.18754 0.69803 0.0
H2220 H 0.66872 0.1908 0.71649 0.0
H2221 H 0.65395 0.16519 0.70684 0.0
C2222 C 0.64564 0.18328 0.7661 0.0
C2223 C 0.62255 0.17291 0.7603 0.0
C2224 C 0.66314 0.17898 0.75957 0.0
C2225 C 0.65758 0.16425 0.74721 0.0
C2226 C 0.63406 0.15288 0.74221 0.0
H2227 H 0.75249 0.11558 0.71417 0.0
H2228 H 0.71645 0.11727 0.72245 0.0
C2229 C 0.61667 0.15727 0.74867 0.0
C2230 C 0.67653 0.16125 0.7392 0.0
H2231 H 0.70648 0.16944 0.70118 0.0
C2232 C 0.68851 0.15225 0.74949 0.0
C2233 C 0.68313 0.16772 0.72159 0.0
C2234 C 0.67163 0.17855 0.71009 0.0
C2235 C 0.70696 0.14945 0.74263 0.0
C2236 C 0.7132 0.15543 0.72496 0.0
C2237 C 0.7013 0.16453 0.71466 0.0
C2238 C 0.73325 0.15385 0.71724 0.0
C2239 C 0.72012 0.14075 0.75442 0.0
C2240 C 0.75405 0.17375 0.71073 0.0
C2241 C 0.7745 0.17279 0.70595 0.0
C2242 C 0.77428 0.15188 0.70737 0.0
C2243 C 0.75299 0.13186 0.7129 0.0
C2244 C 0.73252 0.13282 0.71769 0.0
H2245 H 0.71655 0.14153 0.76795 0.0
H2246 H 0.71418 0.12279 0.75294 0.0
H2247 H 0.73973 0.15068 0.75127 0.0
H2248 H 0.75489 0.19013 0.71027 0.0
H2249 H 0.79075 0.18852 0.70205 0.0
H2250 H 0.92923 0.50019 0.7511 0.0
H2251 H 0.92587 0.53472 0.74349 0.0
H2252 H 0.84887 0.49442 0.74832 0.0
H2253 H 0.85234 0.45999 0.75592 0.0
H2254 H 0.89974 0.54073 0.71448 0.0
H2255 H 0.86564 0.54864 0.77634 0.0
H2256 H 0.8815 0.53287 0.77472 0.0
H2257 H 0.85069 0.52086 0.76973 0.0
C2258 C 0.91167 0.4989 0.75077 0.0
C2259 C 0.89102 0.47762 0.75406 0.0
C2260 C 0.90974 0.51851 0.74638 0.0
C2261 C 0.88713 0.51712 0.74547 0.0
C2262 C 0.86648 0.49589 0.74915 0.0
H2263 H 0.83602 0.60248 0.69429 0.0
H2264 H 0.84502 0.57248 0.70516 0.0
C2265 C 0.86843 0.47628 0.75338 0.0
C2266 C 0.88501 0.53762 0.73965 0.0
H2267 H 0.86436 0.57204 0.75204 0.0
C2268 C 0.89219 0.5477 0.72272 0.0
C2269 C 0.87528 0.54672 0.75046 0.0
C2270 C 0.86797 0.53689 0.76888 0.0
C2271 C 0.8892 0.56625 0.71616 0.0
C2272 C 0.87876 0.57489 0.72682 0.0
C2273 C 0.87226 0.56528 0.7439 0.0
C2274 C 0.87363 0.59336 0.72021 0.0
C2275 C 0.89703 0.57642 0.69784 0.0
C2276 C 0.88662 0.61502 0.72521 0.0
C2277 C 0.88176 0.63242 0.71881 0.0
C2278 C 0.86364 0.62835 0.70742 0.0
C2279 C 0.85043 0.60645 0.70271 0.0
C2280 C 0.85546 0.58919 0.70898 0.0
H2281 H 0.90886 0.57077 0.69227 0.0
H2282 H 0.88099 0.57117 0.6903 0.0
H2283 H 0.90663 0.59524 0.69667 0.0
H2284 H 0.90064 0.6185 0.73394 0.0
H2285 H 0.8922 0.649 0.7228 0.0
H2286 H 0.45227 0.90142 0.2599 0.0
H2287 H 0.47846 0.92904 0.23609 0.0
H2288 H 0.48541 0.87605 0.21582 0.0
H2289 H 0.45875 0.8484 0.23956 0.0
H2290 H 0.52553 0.9426 0.22229 0.0
H2291 H 0.4546 0.89896 0.17825 0.0
H2292 H 0.44898 0.89327 0.20103 0.0
H2293 H 0.46461 0.88157 0.19064 0.0
C2294 C 0.45962 0.89588 0.25037 0.0
C2295 C 0.45317 0.8729 0.25108 0.0
C2296 C 0.47461 0.91157 0.23689 0.0
C2297 C 0.48342 0.90445 0.22404 0.0
C2298 C 0.47838 0.88175 0.22546 0.0
H2299 H 0.54495 0.97737 0.1232 0.0
H2300 H 0.53315 0.94977 0.1489 0.0
C2301 C 0.46332 0.86605 0.23895 0.0
C2302 C 0.49614 0.92043 0.20856 0.0
H2303 H 0.48962 0.93137 0.16643 0.0
C2304 C 0.51784 0.9401 0.21002 0.0
C2305 C 0.48595 0.9171 0.19262 0.0
C2306 C 0.46217 0.8967 0.19046 0.0
C2307 C 0.52957 0.95667 0.19593 0.0
C2308 C 0.51905 0.95359 0.1801 0.0
C2309 C 0.49768 0.93364 0.17857 0.0
C2310 C 0.52898 0.97129 0.16513 0.0
C2311 C 0.55306 0.97731 0.19811 0.0
C2312 C 0.53068 0.99259 0.16577 0.0
C2313 C 0.53733 1.00835 0.15111 0.0
C2314 C 0.54215 1.00299 0.1355 0.0
C2315 C 0.54105 0.98187 0.135 0.0
C2316 C 0.53447 0.96615 0.14967 0.0
H2317 H 0.56213 0.97394 0.20914 0.0
H2318 H 0.56531 0.98299 0.18653 0.0
H2319 H 0.54967 0.99135 0.20046 0.0
H2320 H 0.52593 0.99669 0.17746 0.0
H2321 H 0.53769 0.02434 0.15184 0.0
H2322 H 0.14128 0.57281 0.24262 0.0
H2323 H 0.12242 0.55949 0.21619 0.0
H2324 H 0.05292 0.52653 0.2431 0.0
H2325 H 0.07197 0.53973 0.26952 0.0
H2326 H 0.08226 0.51037 0.2087 0.0
H2327 H 0.05971 0.58045 0.20385 0.0
H2328 H 0.0838 0.58104 0.2161 0.0
H2329 H 0.05332 0.56281 0.22402 0.0
C2330 C 0.12208 0.56198 0.2429 0.0
C2331 C 0.10798 0.55683 0.25798 0.0
C2332 C 0.11133 0.5545 0.22787 0.0
C2333 C 0.0863 0.54206 0.22773 0.0
C2334 C 0.07226 0.53602 0.243 0.0
H2335 H 0.98998 0.4845 0.14867 0.0
H2336 H 0.01227 0.4908 0.17439 0.0
C2337 C 0.08306 0.54339 0.25804 0.0
C2338 C 0.07481 0.53758 0.21138 0.0
H2339 H 0.04603 0.55606 0.18281 0.0
C2340 C 0.07431 0.52029 0.203 0.0
C2341 C 0.06478 0.55081 0.20394 0.0
C2342 C 0.06544 0.56994 0.21231 0.0
C2343 C 0.06359 0.51564 0.18742 0.0
C2344 C 0.05312 0.5286 0.18014 0.0
C2345 C 0.05403 0.54613 0.18843 0.0
C2346 C 0.04069 0.52405 0.1641 0.0
C2347 C 0.06374 0.49709 0.17875 0.0
C2348 C 0.04921 0.5407 0.14979 0.0
C2349 C 0.03649 0.53718 0.13508 0.0
C2350 C 0.0148 0.51705 0.13449 0.0
C2351 C 0.00652 0.50026 0.14877 0.0
C2352 C 0.01935 0.50373 0.16342 0.0
H2353 H 0.07708 0.49229 0.18389 0.0
H2354 H 0.04578 0.48183 0.18079 0.0
H2355 H 0.06776 0.50243 0.16485 0.0
H2356 H 0.06556 0.55658 0.15011 0.0
H2357 H 0.04321 0.55052 0.12437 0.0
H2358 H 0.48321 0.55023 0.27192 0.0
H2359 H 0.48402 0.53546 0.24524 0.0
H2360 H 0.42658 0.54758 0.22834 0.0
H2361 H 0.42575 0.56222 0.25521 0.0
H2362 H 0.44462 0.49965 0.22665 0.0
H2363 H 0.48812 0.5885 0.19384 0.0
H2364 H 0.48773 0.58213 0.2166 0.0
H2365 H 0.46095 0.57844 0.2069 0.0
C2366 C 0.47036 0.54909 0.26266 0.0
C2367 C 0.45439 0.55721 0.2655 0.0
C2368 C 0.47084 0.54074 0.24746 0.0
C2369 C 0.4555 0.54062 0.23476 0.0
C2370 C 0.43861 0.5476 0.23796 0.0
H2371 H 0.45837 0.49363 0.13569 0.0
H2372 H 0.44352 0.50172 0.16117 0.0
C2373 C 0.438 0.55578 0.25328 0.0
C2374 C 0.45889 0.53515 0.21773 0.0
H2375 H 0.48449 0.56019 0.17778 0.0
C2376 C 0.45296 0.51278 0.21587 0.0
C2377 C 0.47005 0.5524 0.20376 0.0
C2378 C 0.47726 0.57678 0.20525 0.0
C2379 C 0.45829 0.50729 0.20045 0.0
C2380 C 0.46991 0.52463 0.1866 0.0
C2381 C 0.47541 0.54691 0.18838 0.0
C2382 C 0.47853 0.52036 0.17076 0.0
C2383 C 0.45241 0.48318 0.19922 0.0
C2384 C 0.50312 0.52854 0.16757 0.0
C2385 C 0.5116 0.52391 0.15313 0.0
C2386 C 0.49568 0.51117 0.14146 0.0
C2387 C 0.47107 0.50356 0.1444 0.0
C2388 C 0.46256 0.50804 0.15899 0.0
H2389 H 0.4454 0.47211 0.21159 0.0
H2390 H 0.43872 0.47613 0.18981 0.0
H2391 H 0.46861 0.48275 0.19468 0.0
H2392 H 0.51576 0.53819 0.17644 0.0
H2393 H 0.53067 0.53025 0.15113 0.0
H2394 H 0.88501 0.46643 0.79168 0.0
H2395 H 0.90328 0.4853 0.81659 0.0
H2396 H 0.96952 0.48768 0.80169 0.0
H2397 H 0.95145 0.46957 0.77666 0.0
H2398 H 0.91989 0.46798 0.84241 0.0
H2399 H 0.99376 0.55078 0.81368 0.0
H2400 H 0.96946 0.53277 0.80164 0.0
H2401 H 0.99452 0.52784 0.8051 0.0
C2402 C 0.90365 0.47161 0.79358 0.0
C2403 C 0.91692 0.46662 0.7824 0.0
C2404 C 0.91402 0.48222 0.8078 0.0
C2405 C 0.93787 0.48815 0.81092 0.0
C2406 C 0.9513 0.48377 0.79938 0.0
H2407 H 0.03184 0.51433 0.89061 0.0
H2408 H 0.00943 0.50556 0.86512 0.0
C2409 C 0.94095 0.47324 0.7852 0.0
C2410 C 0.94818 0.4969 0.82696 0.0
H2411 H 0.99804 0.53788 0.84253 0.0
C2412 C 0.93672 0.48351 0.84247 0.0
C2413 C 0.97012 0.51719 0.82704 0.0
C2414 C 0.98253 0.53308 0.81097 0.0
C2415 C 0.94731 0.48922 0.85794 0.0
C2416 C 0.96984 0.50884 0.85787 0.0
C2417 C 0.98082 0.52273 0.84249 0.0
C2418 C 0.98312 0.51431 0.87346 0.0
C2419 C 0.93496 0.47371 0.87418 0.0
C2420 C 0.97571 0.52217 0.88659 0.0
C2421 C 0.98867 0.52747 0.90116 0.0
C2422 C 0.00925 0.52497 0.90284 0.0
C2423 C 0.01638 0.51687 0.88965 0.0
C2424 C 1.00353 0.51173 0.8751 0.0
H2425 H 0.91874 0.4579 0.87183 0.0
H2426 H 0.94745 0.46912 0.88107 0.0
H2427 H 0.92955 0.48268 0.88256 0.0
H2428 H 0.96008 0.52444 0.88547 0.0
H2429 H 0.98283 0.53393 0.91095 0.0
H2430 H 0.56871 0.50107 0.77423 0.0
H2431 H 0.56515 0.51631 0.80015 0.0
H2432 H 0.569 0.46146 0.83078 0.0
H2433 H 0.57304 0.44677 0.80496 0.0
H2434 H 0.52788 0.49357 0.82348 0.0
H2435 H 0.61086 0.51331 0.85605 0.0
H2436 H 0.60819 0.50899 0.83397 0.0
H2437 H 0.59669 0.48508 0.85047 0.0
C2438 C 0.56971 0.49291 0.78653 0.0
C2439 C 0.57136 0.47294 0.78772 0.0
C2440 C 0.56748 0.50144 0.80132 0.0
C2441 C 0.56705 0.4902 0.8175 0.0
C2442 C 0.56988 0.47083 0.81855 0.0
H2443 H 0.51596 0.48206 0.92051 0.0
H2444 H 0.53325 0.47795 0.89442 0.0
C2445 C 0.57211 0.46237 0.80382 0.0
C2446 C 0.56072 0.49686 0.8332 0.0
H2447 H 0.5772 0.50793 0.87353 0.0
C2448 C 0.53889 0.49708 0.83431 0.0
C2449 C 0.57491 0.50123 0.84746 0.0
C2450 C 0.59908 0.50237 0.84689 0.0
C2451 C 0.5305 0.50077 0.84936 0.0
C2452 C 0.54444 0.50467 0.86371 0.0
C2453 C 0.56646 0.50483 0.86257 0.0
C2454 C 0.53616 0.50834 0.88002 0.0
C2455 C 0.50633 0.49965 0.84996 0.0
C2456 C 0.53277 0.52716 0.88079 0.0
C2457 C 0.523 0.5296 0.89567 0.0
C2458 C 0.51641 0.51329 0.91019 0.0
C2459 C 0.52089 0.49499 0.90963 0.0
C2460 C 0.53069 0.49256 0.89469 0.0
H2461 H 0.49558 0.49148 0.83932 0.0
H2462 H 0.496 0.49011 0.86215 0.0
H2463 H 0.50887 0.51712 0.84901 0.0
H2464 H 0.53732 0.5398 0.86975 0.0
H2465 H 0.52034 0.54418 0.89573 0.0
H2466 H 0.57788 0.12914 0.77869 0.0
H2467 H 0.56857 0.10017 0.8034 0.0
H2468 H 0.59779 0.15264 0.836 0.0
H2469 H 0.60693 0.1815 0.81119 0.0
H2470 H 0.59478 0.09267 0.83196 0.0
H2471 H 0.52447 0.11374 0.85007 0.0
H2472 H 0.53992 0.12302 0.82927 0.0
H2473 H 0.55446 0.13717 0.84701 0.0
C2474 C 0.58308 0.13438 0.79108 0.0
C2475 C 0.59313 0.15731 0.79324 0.0
C2476 C 0.57771 0.11793 0.80514 0.0
C2477 C 0.58224 0.12431 0.8215 0.0
C2478 C 0.59403 0.14742 0.82347 0.0
H2479 H 0.55267 0.03874 0.91844 0.0
H2480 H 0.57225 0.06571 0.89281 0.0
C2481 C 0.59937 0.16384 0.80939 0.0
C2482 C 0.57186 0.1068 0.83652 0.0
H2483 H 0.52825 0.08612 0.86867 0.0
C2484 C 0.5803 0.09123 0.84005 0.0
C2485 C 0.55266 0.10477 0.8468 0.0
C2486 C 0.54213 0.12041 0.84308 0.0
C2487 C 0.57018 0.07376 0.85382 0.0
C2488 C 0.55129 0.07204 0.86429 0.0
C2489 C 0.54277 0.08753 0.86063 0.0
C2490 C 0.53996 0.05437 0.87918 0.0
C2491 C 0.57942 0.05706 0.85684 0.0
C2492 C 0.51528 0.03915 0.88006 0.0
C2493 C 0.50397 0.0239 0.89476 0.0
C2494 C 0.51714 0.02373 0.90891 0.0
C2495 C 0.54199 0.03863 0.90782 0.0
C2496 C 0.55327 0.05386 0.89311 0.0
H2497 H 0.5895 0.0572 0.84539 0.0
H2498 H 0.5917 0.06164 0.86733 0.0
H2499 H 0.56448 0.03958 0.8606 0.0
H2500 H 0.50466 0.03941 0.86948 0.0
H2501 H 0.48479 0.01285 0.89526 0.0
H2502 H 0.12626 0.22256 0.60284 0.0
H2503 H 0.14875 0.25159 0.5786 0.0
H2504 H 0.1213 0.20016 0.54506 0.0
H2505 H 0.09925 0.17112 0.56949 0.0
H2506 H 0.17062 0.23418 0.53734 0.0
H2507 H 0.10998 0.27032 0.54504 0.0
H2508 H 0.12537 0.26837 0.56357 0.0
H2509 H 0.10376 0.24293 0.55573 0.0
C2510 C 0.12571 0.21752 0.59033 0.0
C2511 C 0.11132 0.19482 0.58784 0.0
C2512 C 0.1383 0.23402 0.57653 0.0
C2513 C 0.13637 0.22801 0.56005 0.0
C2514 C 0.12299 0.2051 0.5577 0.0
H2515 H 0.15211 0.30916 0.46464 0.0
H2516 H 0.1389 0.28134 0.49017 0.0
C2517 C 0.11047 0.18859 0.57154 0.0
C2518 C 0.1466 0.24574 0.54514 0.0
H2519 H 0.14123 0.28943 0.52358 0.0
C2520 C 0.16433 0.24635 0.53433 0.0
C2521 C 0.13799 0.26131 0.54116 0.0
C2522 C 0.11808 0.26067 0.55187 0.0
C2523 C 0.17378 0.26226 0.51961 0.0
C2524 C 0.16544 0.27806 0.5158 0.0
C2525 C 0.14772 0.27741 0.52663 0.0
C2526 C 0.17395 0.29476 0.50021 0.0
C2527 C 0.19207 0.26159 0.50801 0.0
C2528 C 0.19802 0.31166 0.49748 0.0
C2529 C 0.20569 0.32753 0.4828 0.0
C2530 C 0.18937 0.32679 0.47066 0.0
C2531 C 0.16522 0.30997 0.47359 0.0
C2532 C 0.1576 0.29414 0.48822 0.0
H2533 H 0.19248 0.24535 0.51067 0.0
H2534 H 0.18833 0.26394 0.49448 0.0
H2535 H 0.21011 0.2756 0.50991 0.0
H2536 H 0.21084 0.31268 0.50674 0.0
H2537 H 0.22444 0.34019 0.48087 0.0
H2538 H 0.74462 0.86049 0.6044 0.0
H2539 H 0.72539 0.84396 0.57889 0.0
H2540 H 0.7818 0.90118 0.54723 0.0
H2541 H 0.80103 0.91724 0.57267 0.0
H2542 H 0.70846 0.86506 0.55599 0.0
H2543 H 0.77386 0.84952 0.52244 0.0
H2544 H 0.77562 0.85385 0.54452 0.0
H2545 H 0.7871 0.87773 0.52802 0.0
C2546 C 0.7532 0.869 0.59195 0.0
C2547 C 0.77423 0.89001 0.59035 0.0
C2548 C 0.74221 0.85969 0.57742 0.0
C2549 C 0.75226 0.87121 0.56111 0.0
C2550 C 0.77395 0.89169 0.55961 0.0
H2551 H 0.70796 0.87656 0.45921 0.0
H2552 H 0.72934 0.88109 0.48532 0.0
C2553 C 0.78487 0.90094 0.5741 0.0
C2554 C 0.73876 0.86351 0.54578 0.0
H2555 H 0.74397 0.85251 0.5055 0.0
C2556 C 0.71604 0.86191 0.54507 0.0
C2557 C 0.74876 0.85961 0.53145 0.0
C2558 C 0.77258 0.86004 0.53168 0.0
C2559 C 0.70347 0.85744 0.53024 0.0
C2560 C 0.7137 0.85408 0.51577 0.0
C2561 C 0.73619 0.85516 0.51658 0.0
C2562 C 0.70159 0.8502 0.49956 0.0
C2563 C 0.67976 0.85729 0.52995 0.0
C2564 C 0.6792 0.83103 0.49875 0.0
C2565 C 0.66697 0.82837 0.48386 0.0
C2566 C 0.67693 0.84479 0.4694 0.0
C2567 C 0.69983 0.86353 0.47005 0.0
C2568 C 0.71204 0.86618 0.48498 0.0
H2569 H 0.677 0.86514 0.54066 0.0
H2570 H 0.67846 0.86649 0.51783 0.0
H2571 H 0.66503 0.8395 0.53102 0.0
H2572 H 0.67103 0.81825 0.50974 0.0
H2573 H 0.6496 0.81351 0.48369 0.0
H2574 H 0.15246 0.88699 0.60358 0.0
H2575 H 0.15418 0.87257 0.57694 0.0
H2576 H 0.09399 0.8804 0.56045 0.0
H2577 H 0.09232 0.89487 0.58727 0.0
H2578 H 0.1043 0.83463 0.55596 0.0
H2579 H 0.16809 0.92394 0.52914 0.0
H2580 H 0.16903 0.91436 0.55115 0.0
H2581 H 0.14375 0.91715 0.54433 0.0
C2582 C 0.13925 0.88503 0.59442 0.0
C2583 C 0.12228 0.89196 0.59734 0.0
C2584 C 0.14023 0.87684 0.57926 0.0
C2585 C 0.12426 0.8755 0.56675 0.0
C2586 C 0.10638 0.88123 0.57001 0.0
H2587 H 0.12885 0.83089 0.46699 0.0
H2588 H 0.11411 0.8401 0.49186 0.0
C2589 C 0.10536 0.88936 0.58528 0.0
C2590 C 0.12813 0.87042 0.54974 0.0
H2591 H 0.16329 0.89535 0.51287 0.0
C2592 C 0.11688 0.84787 0.54638 0.0
C2593 C 0.14467 0.88777 0.53739 0.0
C2594 C 0.15714 0.91224 0.54052 0.0
C2595 C 0.12241 0.84212 0.53113 0.0
C2596 C 0.13948 0.85946 0.51894 0.0
C2597 C 0.15017 0.88209 0.52217 0.0
C2598 C 0.14812 0.8544 0.50346 0.0
C2599 C 0.11083 0.81748 0.52854 0.0
C2600 C 0.17226 0.86 0.50143 0.0
C2601 C 0.18074 0.85498 0.48722 0.0
C2602 C 0.16531 0.84426 0.47462 0.0
C2603 C 0.14123 0.83919 0.47643 0.0
C2604 C 0.13271 0.84421 0.49073 0.0
H2605 H 0.10151 0.80597 0.54042 0.0
H2606 H 0.09744 0.81419 0.51884 0.0
H2607 H 0.12438 0.81328 0.52385 0.0
H2608 H 0.18453 0.86804 0.511 0.0
H2609 H 0.19948 0.85952 0.48611 0.0
H2610 H 0.61639 0.80178 0.11093 0.0
H2611 H 0.63422 0.81866 0.13648 0.0
H2612 H 0.5683 0.81686 0.1514 0.0
H2613 H 0.55021 0.79906 0.12609 0.0
H2614 H 0.64219 0.85718 0.14933 0.0
H2615 H 0.5774 0.78058 0.19236 0.0
H2616 H 0.58001 0.78081 0.16971 0.0
H2617 H 0.56423 0.79365 0.17833 0.0
C2618 C 0.60582 0.80507 0.11969 0.0
C2619 C 0.58189 0.79882 0.11682 0.0
C2620 C 0.61599 0.8148 0.1342 0.0
C2621 C 0.60242 0.81853 0.14607 0.0
C2622 C 0.57892 0.81361 0.14264 0.0
H2623 H 0.64741 0.86399 0.24592 0.0
H2624 H 0.6249 0.85428 0.22035 0.0
C2625 C 0.5687 0.80373 0.12814 0.0
C2626 C 0.61274 0.82663 0.16227 0.0
H2627 H 0.60688 0.81066 0.20523 0.0
C2628 C 0.63435 0.8471 0.16156 0.0
C2629 C 0.60251 0.81342 0.17824 0.0
C2630 C 0.57988 0.7908 0.17979 0.0
C2631 C 0.64624 0.85448 0.17632 0.0
C2632 C 0.63634 0.84098 0.19218 0.0
C2633 C 0.61433 0.82095 0.19302 0.0
C2634 C 0.64954 0.84651 0.2078 0.0
C2635 C 0.66951 0.8765 0.17486 0.0
C2636 C 0.67049 0.84482 0.20932 0.0
C2637 C 0.68317 0.84999 0.22394 0.0
C2638 C 0.67525 0.85711 0.23737 0.0
C2639 C 0.65395 0.8584 0.23592 0.0
C2640 C 0.64114 0.85302 0.22128 0.0
H2641 H 0.67189 0.88734 0.16262 0.0
H2642 H 0.67043 0.88613 0.18548 0.0
H2643 H 0.68463 0.87278 0.17557 0.0
H2644 H 0.67699 0.83938 0.19918 0.0
H2645 H 0.69914 0.84827 0.22475 0.0
H2646 H 0.23743 0.77904 0.13655 0.0
H2647 H 0.2321 0.79185 0.16294 0.0
H2648 H 0.23867 0.85285 0.1343 0.0
H2649 H 0.2425 0.83912 0.10773 0.0
H2650 H 0.25375 0.82532 0.18078 0.0
H2651 H 0.17327 0.82737 0.15637 0.0
H2652 H 0.18934 0.81681 0.14502 0.0
H2653 H 0.2005 0.84689 0.14405 0.0
C2654 C 0.23812 0.79535 0.13597 0.0
C2655 C 0.23991 0.80791 0.12017 0.0
C2656 C 0.23511 0.80272 0.15105 0.0
C2657 C 0.23413 0.82299 0.15067 0.0
C2658 C 0.23848 0.83675 0.13494 0.0
H2659 H 0.21229 0.86314 0.24892 0.0
H2660 H 0.23124 0.86141 0.22263 0.0
C2661 C 0.2411 0.82914 0.11977 0.0
C2662 C 0.22655 0.82839 0.16654 0.0
H2663 H 0.18289 0.83671 0.18388 0.0
C2664 C 0.23833 0.82795 0.18144 0.0
C2665 C 0.20614 0.83142 0.16755 0.0
C2666 C 0.19141 0.83045 0.15246 0.0
C2667 C 0.23 0.82988 0.19728 0.0
C2668 C 0.20975 0.83315 0.19822 0.0
C2669 C 0.19843 0.83425 0.18323 0.0
C2670 C 0.19891 0.83404 0.21462 0.0
C2671 C 0.24234 0.82727 0.21291 0.0
C2672 C 0.17432 0.81963 0.21884 0.0
C2673 C 0.16343 0.821 0.23361 0.0
C2674 C 0.17688 0.83663 0.24467 0.0
C2675 C 0.20157 0.85074 0.24072 0.0
C2676 C 0.21243 0.84967 0.22572 0.0
H2677 H 0.25279 0.81852 0.21077 0.0
H2678 H 0.255 0.84432 0.21623 0.0
H2679 H 0.22923 0.81756 0.22391 0.0
H2680 H 0.16342 0.80737 0.2106 0.0
H2681 H 0.14439 0.80986 0.23637 0.0
H2682 H 0.28847 0.51058 0.13649 0.0
H2683 H 0.28533 0.48265 0.16059 0.0
H2684 H 0.22029 0.4321 0.14202 0.0
H2685 H 0.22393 0.45974 0.11795 0.0
H2686 H 0.24853 0.46286 0.18462 0.0
H2687 H 0.2536 0.39567 0.1549 0.0
H2688 H 0.26337 0.42366 0.14361 0.0
H2689 H 0.2322 0.40243 0.14504 0.0
C2690 C 0.27389 0.49333 0.13751 0.0
C2691 C 0.25621 0.4872 0.12572 0.0
C2692 C 0.27207 0.47744 0.15118 0.0
C2693 C 0.25271 0.45521 0.153 0.0
C2694 C 0.23565 0.44896 0.14072 0.0
H2695 H 0.16327 0.34621 0.226 0.0
H2696 H 0.1852 0.37347 0.20098 0.0
C2697 C 0.2375 0.46478 0.12713 0.0
C2698 C 0.2484 0.43924 0.16866 0.0
H2699 H 0.23121 0.38371 0.18242 0.0
C2700 C 0.24536 0.44572 0.18423 0.0
C2701 C 0.24427 0.41689 0.16813 0.0
C2702 C 0.2488 0.40935 0.15202 0.0
C2703 C 0.23666 0.43001 0.19905 0.0
C2704 C 0.23106 0.40732 0.19825 0.0
C2705 C 0.23534 0.40111 0.18291 0.0
C2706 C 0.21884 0.38949 0.21286 0.0
C2707 C 0.23216 0.43741 0.21525 0.0
C2708 C 0.23073 0.3892 0.22764 0.0
C2709 C 0.2183 0.37354 0.24193 0.0
C2710 C 0.19375 0.35796 0.24168 0.0
C2711 C 0.18218 0.35781 0.22659 0.0
C2712 C 0.19465 0.37342 0.2123 0.0
H2713 H 0.23466 0.4549 0.21319 0.0
H2714 H 0.21368 0.42563 0.22077 0.0
H2715 H 0.24477 0.43693 0.22469 0.0
H2716 H 0.24948 0.40134 0.22821 0.0
H2717 H 0.22787 0.37381 0.25324 0.0
H2718 H 0.76839 0.50786 0.90108 0.0
H2719 H 0.79258 0.53712 0.87739 0.0
H2720 H 0.82129 0.58693 0.91219 0.0
H2721 H 0.7965 0.55774 0.93565 0.0
H2722 H 0.80169 0.59945 0.8856 0.0
H2723 H 0.86341 0.57164 0.86181 0.0
H2724 H 0.83267 0.54972 0.86379 0.0
H2725 H 0.84756 0.56066 0.88249 0.0
C2726 C 0.78036 0.52498 0.90359 0.0
C2727 C 0.78094 0.53069 0.92004 0.0
C2728 C 0.79425 0.54162 0.89016 0.0
C2729 C 0.80899 0.56415 0.89307 0.0
C2730 C 0.81022 0.56961 0.90969 0.0
H2731 H 0.89848 0.67444 0.81294 0.0
H2732 H 0.88484 0.64756 0.8392 0.0
C2733 C 0.79626 0.55299 0.92308 0.0
C2734 C 0.82077 0.58241 0.8786 0.0
H2735 H 0.85837 0.59922 0.84302 0.0
C2736 C 0.81432 0.59955 0.87641 0.0
C2737 C 0.83737 0.58261 0.8667 0.0
C2738 C 0.84586 0.5653 0.86887 0.0
C2739 C 0.82338 0.61647 0.86233 0.0
C2740 C 0.83899 0.61599 0.84997 0.0
C2741 C 0.84617 0.59937 0.85245 0.0
C2742 C 0.84733 0.63218 0.83413 0.0
C2743 C 0.81606 0.63465 0.86078 0.0
C2744 C 0.83075 0.63223 0.82257 0.0
C2745 C 0.83843 0.64758 0.80767 0.0
C2746 C 0.86289 0.66311 0.80398 0.0
C2747 C 0.8795 0.66289 0.81554 0.0
C2748 C 0.87178 0.64746 0.83046 0.0
H2749 H 0.80964 0.6363 0.87327 0.0
H2750 H 0.83119 0.65135 0.85538 0.0
H2751 H 0.80122 0.63013 0.85214 0.0
H2752 H 0.81183 0.62033 0.82507 0.0
H2753 H 0.82517 0.64743 0.79911 0.0
H2754 H 0.4728 0.24978 0.90791 0.0
H2755 H 0.45502 0.23647 0.88129 0.0
H2756 H 0.39037 0.18505 0.90977 0.0
H2757 H 0.40863 0.19815 0.93643 0.0
H2758 H 0.40161 0.17056 0.88072 0.0
H2759 H 0.40447 0.25377 0.86542 0.0
H2760 H 0.4332 0.25581 0.86881 0.0
H2761 H 0.41064 0.24436 0.88608 0.0
C2762 C 0.45511 0.23518 0.90839 0.0
C2763 C 0.44198 0.22488 0.92403 0.0
C2764 C 0.44488 0.22772 0.89326 0.0
C2765 C 0.42116 0.21012 0.89353 0.0
C2766 C 0.40865 0.19872 0.90926 0.0
H2767 H 0.32222 0.19289 0.81567 0.0
H2768 H 0.34461 0.19937 0.84117 0.0
C2769 C 0.41904 0.20608 0.92445 0.0
C2770 C 0.4087 0.20519 0.8775 0.0
H2771 H 0.39074 0.22919 0.84444 0.0
C2772 C 0.39926 0.18336 0.87274 0.0
C2773 C 0.40529 0.22182 0.86726 0.0
C2774 C 0.41371 0.24519 0.87219 0.0
C2775 C 0.38663 0.17777 0.85795 0.0
C2776 C 0.38372 0.19458 0.84753 0.0
C2777 C 0.39315 0.21637 0.85234 0.0
C2778 C 0.3699 0.18978 0.83204 0.0
C2779 C 0.37591 0.15375 0.8539 0.0
C2780 C 0.37675 0.18241 0.81829 0.0
C2781 C 0.36374 0.17841 0.80368 0.0
C2782 C 0.34372 0.18186 0.80249 0.0
C2783 C 0.3372 0.18959 0.81622 0.0
C2784 C 0.35011 0.19347 0.8308 0.0
H2785 H 0.37455 0.14177 0.86519 0.0
H2786 H 0.3578 0.14799 0.84914 0.0
H2787 H 0.38749 0.15302 0.84385 0.0
H2788 H 0.39226 0.17992 0.81878 0.0
H2789 H 0.36921 0.17235 0.79341 0.0
H2790 H 0.82087 0.2227 0.93755 0.0
H2791 H 0.82174 0.20667 0.91162 0.0
H2792 H 0.75862 0.2101 0.89637 0.0
H2793 H 0.75838 0.22695 0.92219 0.0
H2794 H 0.79069 0.16919 0.89765 0.0
H2795 H 0.80587 0.24736 0.8561 0.0
H2796 H 0.80761 0.2462 0.87883 0.0
H2797 H 0.77896 0.23383 0.86978 0.0
C2798 C 0.80712 0.21983 0.92868 0.0
C2799 C 0.78978 0.22629 0.93163 0.0
C2800 C 0.80755 0.21064 0.91391 0.0
C2801 C 0.7906 0.20768 0.9018 0.0
C2802 C 0.77226 0.21275 0.9053 0.0
H2803 H 0.79301 0.16514 0.80088 0.0
H2804 H 0.77936 0.17456 0.82616 0.0
C2805 C 0.77191 0.22207 0.9201 0.0
C2806 C 0.79304 0.20023 0.88533 0.0
H2807 H 0.80526 0.21804 0.84259 0.0
C2808 C 0.79364 0.17978 0.88561 0.0
C2809 C 0.79695 0.21408 0.86956 0.0
C2810 C 0.79753 0.23668 0.86846 0.0
C2811 C 0.79856 0.17308 0.87067 0.0
C2812 C 0.80315 0.18723 0.85505 0.0
C2813 C 0.80166 0.20722 0.8546 0.0
C2814 C 0.81151 0.18241 0.83936 0.0
C2815 C 0.79926 0.15108 0.87173 0.0
C2816 C 0.83433 0.18432 0.83824 0.0
C2817 C 0.8423 0.17929 0.82379 0.0
C2818 C 0.82757 0.17205 0.81011 0.0
C2819 C 0.8049 0.17077 0.81108 0.0
C2820 C 0.79699 0.17599 0.82557 0.0
H2821 H 0.79012 0.13978 0.88373 0.0
H2822 H 0.79071 0.14196 0.86081 0.0
H2823 H 0.81819 0.15479 0.87127 0.0
H2824 H 0.84599 0.18966 0.84861 0.0
H2825 H 0.86008 0.18107 0.82337 0.0
H2826 H 0.28454 0.13414 0.4428 0.0
H2827 H 0.30204 0.14968 0.4689 0.0
H2828 H 0.2354 0.14549 0.48503 0.0
H2829 H 0.21779 0.12961 0.45892 0.0
H2830 H 0.285 0.1887 0.49001 0.0
H2831 H 0.27309 0.10396 0.51601 0.0
H2832 H 0.28612 0.11482 0.49461 0.0
H2833 H 0.25562 0.10771 0.4993 0.0
C2834 C 0.27384 0.1369 0.45183 0.0
C2835 C 0.24985 0.13056 0.44906 0.0
C2836 C 0.28378 0.14575 0.46667 0.0
C2837 C 0.2699 0.14848 0.47892 0.0
C2838 C 0.24636 0.14347 0.4757 0.0
H2839 H 0.31376 0.19591 0.57836 0.0
H2840 H 0.29086 0.1843 0.55318 0.0
C2841 C 0.23637 0.13453 0.46083 0.0
C2842 C 0.27953 0.15473 0.49558 0.0
H2843 H 0.29587 0.13431 0.53156 0.0
C2844 C 0.28718 0.17682 0.49923 0.0
C2845 C 0.28226 0.1391 0.5075 0.0
C2846 C 0.27372 0.11499 0.50431 0.0
C2847 C 0.29849 0.18399 0.51427 0.0
C2848 C 0.30175 0.16847 0.52603 0.0
C2849 C 0.2934 0.14619 0.52254 0.0
C2850 C 0.31512 0.17527 0.54152 0.0
C2851 C 0.30775 0.20834 0.51709 0.0
C2852 C 0.33591 0.17337 0.54359 0.0
C2853 C 0.34879 0.17963 0.55803 0.0
C2854 C 0.34118 0.18797 0.57078 0.0
C2855 C 0.32007 0.18948 0.56883 0.0
C2856 C 0.30713 0.18313 0.55435 0.0
H2857 H 0.30853 0.21921 0.50525 0.0
H2858 H 0.29563 0.20912 0.52668 0.0
H2859 H 0.32591 0.21543 0.52198 0.0
H2860 H 0.3423 0.16715 0.53393 0.0
H2861 H 0.36468 0.17782 0.55924 0.0
H2862 H 0.8764 0.15273 0.4452 0.0
H2863 H 0.87357 0.16509 0.47255 0.0
H2864 H 0.92367 0.14405 0.49221 0.0
H2865 H 0.92648 0.13181 0.46465 0.0
H2866 H 0.87921 0.12426 0.51165 0.0
H2867 H 0.91844 0.21768 0.49864 0.0
H2868 H 0.89752 0.20264 0.48356 0.0
H2869 H 0.92503 0.20155 0.48502 0.0
C2870 C 0.88743 0.15158 0.45521 0.0
C2871 C 0.90186 0.14164 0.45288 0.0
C2872 C 0.88582 0.15859 0.47082 0.0
C2873 C 0.89854 0.15567 0.48443 0.0
C2874 C 0.91384 0.14664 0.48186 0.0
H2875 H 0.88321 0.19127 0.58578 0.0
H2876 H 0.90116 0.18642 0.56022 0.0
C2877 C 0.91561 0.13984 0.46613 0.0
C2878 C 0.89358 0.15953 0.50173 0.0
H2879 H 0.89259 0.19931 0.52399 0.0
C2880 C 0.8825 0.14075 0.51443 0.0
C2881 C 0.89792 0.18104 0.5054 0.0
C2882 C 0.91059 0.20195 0.4925 0.0
C2883 C 0.87465 0.14271 0.53039 0.0
C2884 C 0.87789 0.16397 0.53375 0.0
C2885 C 0.88999 0.18298 0.52136 0.0
C2886 C 0.8673 0.16638 0.54955 0.0
C2887 C 0.86246 0.12191 0.54345 0.0
C2888 C 0.84236 0.15671 0.55202 0.0
C2889 C 0.83213 0.15956 0.56648 0.0
C2890 C 0.8466 0.17206 0.57887 0.0
C2891 C 0.87159 0.1814 0.57654 0.0
C2892 C 0.88186 0.17876 0.56191 0.0
H2893 H 0.86609 0.10821 0.54048 0.0
H2894 H 0.86841 0.12613 0.55632 0.0
H2895 H 0.84282 0.11535 0.54373 0.0
H2896 H 0.8308 0.14722 0.5426 0.0
H2897 H 0.81283 0.152 0.56795 0.0
H2898 H 0.94339 0.85256 0.47658 0.0
H2899 H 0.93584 0.82521 0.50212 0.0
H2900 H 0.9052 0.77042 0.47158 0.0
H2901 H 0.91309 0.7979 0.44617 0.0
H2902 H 0.89006 0.79371 0.51281 0.0
H2903 H 0.94312 0.75051 0.50381 0.0
H2904 H 0.94991 0.77739 0.49174 0.0
H2905 H 0.92641 0.75134 0.48581 0.0
C2906 C 0.93591 0.83473 0.47539 0.0
C2907 C 0.92898 0.82713 0.45961 0.0
C2908 C 0.9315 0.81915 0.48988 0.0
C2909 C 0.92015 0.79578 0.48873 0.0
C2910 C 0.91448 0.78836 0.47273 0.0
H2911 H 0.82028 0.68666 0.56201 0.0
H2912 H 0.84134 0.71451 0.53703 0.0
C2913 C 0.91893 0.80397 0.45825 0.0
C2914 C 0.91098 0.77914 0.50435 0.0
H2915 H 0.90973 0.7313 0.52458 0.0
C2916 C 0.89462 0.78024 0.51548 0.0
C2917 C 0.91697 0.76162 0.50785 0.0
C2918 C 0.93525 0.76022 0.49676 0.0
C2919 C 0.88351 0.76391 0.52973 0.0
C2920 C 0.88862 0.74578 0.53278 0.0
C2921 C 0.9056 0.74506 0.52203 0.0
C2922 C 0.87634 0.72748 0.54713 0.0
C2923 C 0.86633 0.76614 0.5414 0.0
C2924 C 0.88921 0.72508 0.56077 0.0
C2925 C 0.87725 0.70912 0.57501 0.0
C2926 C 0.85223 0.69521 0.57579 0.0
C2927 C 0.83955 0.69703 0.56176 0.0
C2928 C 0.85152 0.71304 0.54755 0.0
H2929 H 0.86871 0.78359 0.53962 0.0
H2930 H 0.84769 0.75427 0.53863 0.0
H2931 H 0.86873 0.76173 0.55491 0.0
H2932 H 0.9084 0.73601 0.5606 0.0
H2933 H 0.88755 0.70786 0.58551 0.0
loop_
_geom_bond_atom_site_label_1
_geom_bond_atom_site_label_2
_geom_bond_distance
_geom_bond_site_symmetry_2
_ccdc_geom_bond_type
C0 N1 1.317 . S
C0 N2 1.348 . S
C0 C3 1.485 . S
N1 C0 1.317 . S
N1 N5 1.370 . S
N2 C0 1.348 . S
N2 C4 1.346 . S
C3 C0 1.485 . S
C3 H7 0.960 . S
C3 H8 0.961 . S
C3 H9 0.960 . S
C4 N2 1.346 . S
C4 N5 1.307 . S
C4 C6 1.486 . S
N5 N1 1.370 . S
N5 C4 1.307 . S
C6 C4 1.486 . S
C6 H10 0.960 . S
C6 H11 0.960 . S
C6 H12 0.959 . S
H7 C3 0.960 . S
H8 C3 0.961 . S
H9 C3 0.960 . S
H10 C6 0.960 . S
H11 C6 0.960 . S
H12 C6 0.959 . S
C13 N14 1.317 . S
C13 N15 1.348 . S
C13 C16 1.485 . S
N14 C13 1.317 . S
N14 N18 1.370 . S
N15 C13 1.348 . S
N15 C17 1.346 . S
C16 C13 1.485 . S
C16 H20 0.960 . S
C16 H21 0.961 . S
C16 H22 0.960 . S
C17 N15 1.346 . S
C17 N18 1.307 . S
C17 C19 1.486 . S
N18 N14 1.370 . S
N18 C17 1.307 . S
C19 C17 1.486 . S
C19 H23 0.960 . S
C19 H24 0.960 . S
C19 H25 0.959 . S
H20 C16 0.960 . S
H21 C16 0.961 . S
H22 C16 0.960 . S
H23 C19 0.960 . S
H24 C19 0.960 . S
H25 C19 0.959 . S
C26 N27 1.317 . S
C26 N28 1.348 . S
C26 C29 1.485 . S
N27 C26 1.317 . S
N27 N31 1.370 . S
N28 C26 1.348 . S
N28 C30 1.346 . S
C29 C26 1.485 . S
C29 H33 0.960 . S
C29 H34 0.961 . S
C29 H35 0.960 . S
C30 N28 1.346 . S
C30 N31 1.307 . S
C30 C32 1.486 . S
N31 N27 1.370 . S
N31 C30 1.307 . S
C32 C30 1.486 . S
C32 H36 0.960 . S
C32 H37 0.960 . S
C32 H38 0.959 . S
H33 C29 0.960 . S
H34 C29 0.961 . S
H35 C29 0.960 . S
H36 C32 0.960 . S
H37 C32 0.960 . S
H38 C32 0.959 . S
C39 N40 1.317 . S
C39 N41 1.348 . S
C39 C42 1.485 . S
N40 C39 1.317 . S
N40 N44 1.370 . S
N41 C39 1.348 . S
N41 C43 1.346 . S
C42 C39 1.485 . S
C42 H46 0.960 . S
C42 H47 0.961 . S
C42 H48 0.960 . S
C43 N41 1.346 . S
C43 N44 1.307 . S
C43 C45 1.486 . S
N44 N40 1.370 . S
N44 C43 1.307 . S
C45 C43 1.486 . S
C45 H49 0.960 . S
C45 H50 0.960 . S
C45 H51 0.959 . S
H46 C42 0.960 . S
H47 C42 0.961 . S
H48 C42 0.960 . S
H49 C45 0.960 . S
H50 C45 0.960 . S
H51 C45 0.959 . S
C52 N53 1.317 . S
C52 N54 1.348 . S
C52 C55 1.485 . S
N53 C52 1.317 . S
N53 N57 1.370 . S
N54 C52 1.348 . S
N54 C56 1.346 . S
C55 C52 1.485 . S
C55 H59 0.960 . S
C55 H60 0.961 . S
C55 H61 0.960 . S
C56 N54 1.346 . S
C56 N57 1.307 . S
C56 C58 1.486 . S
N57 N53 1.370 . S
N57 C56 1.307 . S
C58 C56 1.486 . S
C58 H62 0.960 . S
C58 H63 0.960 . S
C58 H64 0.959 . S
H59 C55 0.960 . S
H60 C55 0.961 . S
H61 C55 0.960 . S
H62 C58 0.960 . S
H63 C58 0.960 . S
H64 C58 0.959 . S
C65 N66 1.317 . S
C65 N67 1.348 . S
C65 C68 1.485 . S
N66 C65 1.317 . S
N66 N70 1.370 . S
N67 C65 1.348 . S
N67 C69 1.346 . S
C68 C65 1.485 . S
C68 H72 0.960 . S
C68 H73 0.961 . S
C68 H74 0.960 . S
C69 N67 1.346 . S
C69 N70 1.307 . S
C69 C71 1.486 . S
N70 N66 1.370 . S
N70 C69 1.307 . S
C71 C69 1.486 . S
C71 H75 0.960 . S
C71 H76 0.960 . S
C71 H77 0.959 . S
H72 C68 0.960 . S
H73 C68 0.961 . S
H74 C68 0.960 . S
H75 C71 0.960 . S
H76 C71 0.960 . S
H77 C71 0.959 . S
C78 N79 1.317 . S
C78 N80 1.348 . S
C78 C81 1.485 . S
N79 C78 1.317 . S
N79 N83 1.370 . S
N80 C78 1.348 . S
N80 C82 1.346 . S
C81 C78 1.485 . S
C81 H85 0.960 . S
C81 H86 0.961 . S
C81 H87 0.960 . S
C82 N80 1.346 . S
C82 N83 1.307 . S
C82 C84 1.486 . S
N83 N79 1.370 . S
N83 C82 1.307 . S
C84 C82 1.486 . S
C84 H88 0.960 . S
C84 H89 0.960 . S
C84 H90 0.959 . S
H85 C81 0.960 . S
H86 C81 0.961 . S
H87 C81 0.960 . S
H88 C84 0.960 . S
H89 C84 0.960 . S
H90 C84 0.959 . S
C91 N92 1.317 . S
C91 N93 1.348 . S
C91 C94 1.485 . S
N92 C91 1.317 . S
N92 N96 1.370 . S
N93 C91 1.348 . S
N93 C95 1.346 . S
C94 C91 1.485 . S
C94 H98 0.960 . S
C94 H99 0.961 . S
C94 H100 0.960 . S
C95 N93 1.346 . S
C95 N96 1.307 . S
C95 C97 1.486 . S
N96 N92 1.370 . S
N96 C95 1.307 . S
C97 C95 1.486 . S
C97 H101 0.960 . S
C97 H102 0.960 . S
C97 H103 0.959 . S
H98 C94 0.960 . S
H99 C94 0.961 . S
H100 C94 0.960 . S
H101 C97 0.960 . S
H102 C97 0.960 . S
H103 C97 0.959 . S
C104 N105 1.317 . S
C104 N106 1.348 . S
C104 C107 1.485 . S
N105 C104 1.317 . S
N105 N109 1.370 . S
N106 C104 1.348 . S
N106 C108 1.346 . S
C107 C104 1.485 . S
C107 H111 0.960 . S
C107 H112 0.961 . S
C107 H113 0.960 . S
C108 N106 1.346 . S
C108 N109 1.307 . S
C108 C110 1.486 . S
N109 N105 1.370 . S
N109 C108 1.307 . S
C110 C108 1.486 . S
C110 H114 0.960 . S
C110 H115 0.960 . S
C110 H116 0.959 . S
H111 C107 0.960 . S
H112 C107 0.961 . S
H113 C107 0.960 . S
H114 C110 0.960 . S
H115 C110 0.960 . S
H116 C110 0.959 . S
C117 N118 1.317 . S
C117 N119 1.348 . S
C117 C120 1.485 . S
N118 C117 1.317 . S
N118 N122 1.370 . S
N119 C117 1.348 . S
N119 C121 1.346 . S
C120 C117 1.485 . S
C120 H124 0.960 . S
C120 H125 0.961 . S
C120 H126 0.960 . S
C121 N119 1.346 . S
C121 N122 1.307 . S
C121 C123 1.486 . S
N122 N118 1.370 . S
N122 C121 1.307 . S
C123 C121 1.486 . S
C123 H127 0.960 . S
C123 H128 0.960 . S
C123 H129 0.959 . S
H124 C120 0.960 . S
H125 C120 0.961 . S
H126 C120 0.960 . S
H127 C123 0.960 . S
H128 C123 0.960 . S
H129 C123 0.959 . S
C130 N131 1.317 . S
C130 N132 1.348 . S
C130 C133 1.485 . S
N131 C130 1.317 . S
N131 N135 1.370 . S
N132 C130 1.348 . S
N132 C134 1.346 . S
C133 C130 1.485 . S
C133 H137 0.960 . S
C133 H138 0.961 . S
C133 H139 0.960 . S
C134 N132 1.346 . S
C134 N135 1.307 . S
C134 C136 1.486 . S
N135 N131 1.370 . S
N135 C134 1.307 . S
C136 C134 1.486 . S
C136 H140 0.960 . S
C136 H141 0.960 . S
C136 H142 0.959 . S
H137 C133 0.960 . S
H138 C133 0.961 . S
H139 C133 0.960 . S
H140 C136 0.960 . S
H141 C136 0.960 . S
H142 C136 0.959 . S
C143 N144 1.317 . S
C143 N145 1.348 . S
C143 C146 1.485 . S
N144 C143 1.317 . S
N144 N148 1.370 . S
N145 C143 1.348 . S
N145 C147 1.346 . S
C146 C143 1.485 . S
C146 H150 0.960 . S
C146 H151 0.961 . S
C146 H152 0.960 . S
C147 N145 1.346 . S
C147 N148 1.307 . S
C147 C149 1.486 . S
N148 N144 1.370 . S
N148 C147 1.307 . S
C149 C147 1.486 . S
C149 H153 0.960 . S
C149 H154 0.960 . S
C149 H155 0.959 . S
H150 C146 0.960 . S
H151 C146 0.961 . S
H152 C146 0.960 . S
H153 C149 0.960 . S
H154 C149 0.960 . S
H155 C149 0.959 . S
C156 N157 1.317 . S
C156 N158 1.348 . S
C156 C159 1.485 . S
N157 C156 1.317 . S
N157 N161 1.370 . S
N158 C156 1.348 . S
N158 C160 1.346 . S
C159 C156 1.485 . S
C159 H163 0.960 . S
C159 H164 0.961 . S
C159 H165 0.960 . S
C160 N158 1.346 . S
C160 N161 1.307 . S
C160 C162 1.486 . S
N161 N157 1.370 . S
N161 C160 1.307 . S
C162 C160 1.486 . S
C162 H166 0.960 . S
C162 H167 0.960 . S
C162 H168 0.959 . S
H163 C159 0.960 . S
H164 C159 0.961 . S
H165 C159 0.960 . S
H166 C162 0.960 . S
H167 C162 0.960 . S
H168 C162 0.959 . S
C169 N170 1.317 . S
C169 N171 1.348 . S
C169 C172 1.485 . S
N170 C169 1.317 . S
N170 N174 1.370 . S
N171 C169 1.348 . S
N171 C173 1.346 . S
C172 C169 1.485 . S
C172 H176 0.960 . S
C172 H177 0.961 . S
C172 H178 0.960 . S
C173 N171 1.346 . S
C173 N174 1.307 . S
C173 C175 1.486 . S
N174 N170 1.370 . S
N174 C173 1.307 . S
C175 C173 1.486 . S
C175 H179 0.960 . S
C175 H180 0.960 . S
C175 H181 0.959 . S
H176 C172 0.960 . S
H177 C172 0.961 . S
H178 C172 0.960 . S
H179 C175 0.960 . S
H180 C175 0.960 . S
H181 C175 0.959 . S
C182 N183 1.317 . S
C182 N184 1.348 . S
C182 C185 1.485 . S
N183 C182 1.317 . S
N183 N187 1.370 . S
N184 C182 1.348 . S
N184 C186 1.346 . S
C185 C182 1.485 . S
C185 H189 0.960 . S
C185 H190 0.961 . S
C185 H191 0.960 . S
C186 N184 1.346 . S
C186 N187 1.307 . S
C186 C188 1.486 . S
N187 N183 1.370 . S
N187 C186 1.307 . S
C188 C186 1.486 . S
C188 H192 0.960 . S
C188 H193 0.960 . S
C188 H194 0.959 . S
H189 C185 0.960 . S
H190 C185 0.961 . S
H191 C185 0.960 . S
H192 C188 0.960 . S
H193 C188 0.960 . S
H194 C188 0.959 . S
C195 N196 1.317 . S
C195 N197 1.348 . S
C195 C198 1.485 . S
N196 C195 1.317 . S
N196 N200 1.370 . S
N197 C195 1.348 . S
N197 C199 1.346 . S
C198 C195 1.485 . S
C198 H202 0.960 . S
C198 H203 0.961 . S
C198 H204 0.960 . S
C199 N197 1.346 . S
C199 N200 1.307 . S
C199 C201 1.486 . S
N200 N196 1.370 . S
N200 C199 1.307 . S
C201 C199 1.486 . S
C201 H205 0.960 . S
C201 H206 0.960 . S
C201 H207 0.959 . S
H202 C198 0.960 . S
H203 C198 0.961 . S
H204 C198 0.960 . S
H205 C201 0.960 . S
H206 C201 0.960 . S
H207 C201 0.959 . S
C208 N209 1.317 . S
C208 N210 1.348 . S
C208 C211 1.485 . S
N209 C208 1.317 . S
N209 N213 1.370 . S
N210 C208 1.348 . S
N210 C212 1.346 . S
C211 C208 1.485 . S
C211 H215 0.960 . S
C211 H216 0.961 . S
C211 H217 0.960 . S
C212 N210 1.346 . S
C212 N213 1.307 . S
C212 C214 1.486 . S
N213 N209 1.370 . S
N213 C212 1.307 . S
C214 C212 1.486 . S
C214 H218 0.960 . S
C214 H219 0.960 . S
C214 H220 0.959 . S
H215 C211 0.960 . S
H216 C211 0.961 . S
H217 C211 0.960 . S
H218 C214 0.960 . S
H219 C214 0.960 . S
H220 C214 0.959 . S
C221 N222 1.317 . S
C221 N223 1.348 . S
C221 C224 1.485 . S
N222 C221 1.317 . S
N222 N226 1.370 . S
N223 C221 1.348 . S
N223 C225 1.346 . S
C224 C221 1.485 . S
C224 H228 0.960 . S
C224 H229 0.961 . S
C224 H230 0.960 . S
C225 N223 1.346 . S
C225 N226 1.307 . S
C225 C227 1.486 . S
N226 N222 1.370 . S
N226 C225 1.307 . S
C227 C225 1.486 . S
C227 H231 0.960 . S
C227 H232 0.960 . S
C227 H233 0.959 . S
H228 C224 0.960 . S
H229 C224 0.961 . S
H230 C224 0.960 . S
H231 C227 0.960 . S
H232 C227 0.960 . S
H233 C227 0.959 . S
Gd234 N265 2.661 . S
Gd234 N271 2.601 . S
Gd234 O278 2.545 . S
Gd234 O279 2.606 1_545 S
Gd234 O281 2.429 . S
Gd234 O282 2.545 1_545 S
Gd234 O283 2.412 1_545 S
Gd234 O285 2.362 . S
Gd234 O286 2.324 1_545 S
Gd234 C293 2.828 1_545 S
Gd235 N244 2.661 . S
Gd235 N248 2.601 . S
Gd235 O279 2.362 1_556 S
Gd235 O280 2.324 1_565 S
Gd235 O284 2.545 . S
Gd235 O285 2.606 1_566 S
Gd235 O287 2.429 1_556 S
Gd235 O288 2.545 1_565 S
Gd235 O289 2.412 1_565 S
Gd235 C302 2.828 1_565 S
C236 C239 1.417 . S
C236 C241 1.431 . S
C236 C242 1.412 . S
C237 C240 1.437 . S
C237 C241 1.317 . S
C237 H256 0.929 . S
C238 C239 1.426 . S
C238 C240 1.413 . S
C238 N248 1.359 . S
C239 C236 1.417 . S
C239 C238 1.426 . S
C239 N244 1.350 . S
C240 C237 1.437 . S
C240 C238 1.413 . S
C240 C250 1.391 . S
C241 C236 1.431 . S
C241 C237 1.317 . S
C241 H252 0.930 . S
C242 C236 1.412 . S
C242 C243 1.355 . S
C242 H254 0.930 . S
C243 C242 1.355 . S
C243 C245 1.402 . S
C243 H255 0.930 . S
N244 Gd235 2.661 . S
N244 C239 1.350 . S
N244 C245 1.307 . S
C245 C243 1.402 . S
C245 N244 1.307 . S
C245 H246 0.930 1_565 S
H246 C245 0.930 1_545 S
C247 N248 1.334 . S
C247 C249 1.394 . S
C247 H251 0.930 . S
N248 Gd235 2.601 . S
N248 C238 1.359 . S
N248 C247 1.334 . S
C249 C247 1.394 . S
C249 C250 1.359 . S
C249 H261 0.930 . S
C250 C240 1.391 . S
C250 C249 1.359 . S
C250 H262 0.929 . S
H251 C247 0.930 . S
H252 C241 0.930 . S
H253 C270 0.930 . S
H254 C242 0.930 . S
H255 C243 0.930 . S
H256 C237 0.929 . S
H257 C275 0.930 . S
H258 C266 0.930 . S
H259 C267 0.930 . S
H260 C291 0.929 . S
H261 C249 0.930 . S
H262 C250 0.929 . S
H263 C292 0.930 . S
H264 C273 0.930 . S
N265 Gd234 2.661 . S
N265 C269 1.350 . S
N265 C270 1.307 . S
C266 H258 0.930 . S
C266 C267 1.355 . S
C266 C268 1.412 . S
C267 H259 0.930 . S
C267 C266 1.355 . S
C267 C270 1.402 . S
C268 C266 1.412 . S
C268 C269 1.417 . S
C268 C292 1.431 . S
C269 N265 1.350 . S
C269 C268 1.417 . S
C269 C272 1.426 . S
C270 H253 0.930 . S
C270 N265 1.307 . S
C270 C267 1.402 . S
N271 Gd234 2.601 . S
N271 C272 1.359 . S
N271 C275 1.334 . S
C272 C269 1.426 . S
C272 N271 1.359 . S
C272 C276 1.413 . S
C273 H264 0.930 . S
C273 C274 1.359 . S
C273 C275 1.394 . S
C274 C273 1.359 . S
C274 C276 1.391 . S
C274 H277 0.929 . S
C275 H257 0.930 . S
C275 N271 1.334 . S
C275 C273 1.394 . S
C276 C272 1.413 . S
C276 C274 1.391 . S
C276 C291 1.437 . S
H277 C274 0.929 . S
O278 Gd234 2.545 . S
O278 C293 1.258 1_545 S
O279 Gd234 2.606 1_565 S
O279 Gd235 2.362 1_554 S
O279 C290 1.284 . S
O280 Gd235 2.324 1_545 S
O280 C300 1.254 1_556 S
O281 Gd234 2.429 . S
O281 C300 1.268 . S
O282 Gd234 2.545 1_565 S
O282 C290 1.250 . S
O283 Gd234 2.412 1_565 S
O283 C293 1.252 . S
O284 Gd235 2.545 . S
O284 C302 1.258 1_565 S
O285 Gd234 2.362 . S
O285 Gd235 2.606 1_544 S
O285 C301 1.284 . S
O286 Gd234 2.324 1_565 S
O286 C309 1.254 . S
O287 Gd235 2.429 1_554 S
O287 C309 1.268 . S
O288 Gd235 2.545 1_545 S
O288 C301 1.250 1_556 S
O289 Gd235 2.412 1_545 S
O289 C302 1.252 . S
C290 O279 1.284 . S
C290 O282 1.250 . S
C291 H260 0.929 . S
C291 C276 1.437 . S
C291 C292 1.317 . S
C292 H263 0.930 . S
C292 C268 1.431 . S
C292 C291 1.317 . S
C293 Gd234 2.828 1_565 S
C293 O278 1.258 1_565 S
C293 O283 1.252 . S
C293 C294 1.497 . S
C294 C293 1.497 . S
C294 C295 1.395 . S
C294 C296 1.380 . S
C295 C294 1.395 . S
C295 C298 1.398 . S
C295 H310 0.930 1_565 S
C296 C294 1.380 . S
C296 C297 1.391 . S
C296 H311 0.930 . S
C297 C296 1.391 . S
C297 C299 1.387 . S
C298 C295 1.398 . S
C298 C299 1.380 . S
C298 H312 0.930 . S
C299 C297 1.387 . S
C299 C298 1.380 . S
C299 H313 0.930 . S
C300 O280 1.254 1_554 S
C300 O281 1.268 . S
C301 O285 1.284 . S
C301 O288 1.250 1_554 S
C302 Gd235 2.828 1_545 S
C302 O284 1.258 1_545 S
C302 O289 1.252 . S
C302 C303 1.497 . S
C303 C302 1.497 . S
C303 C304 1.395 . S
C303 C305 1.380 . S
C304 C303 1.395 . S
C304 C307 1.398 . S
C304 H314 0.930 1_545 S
C305 C303 1.380 . S
C305 C306 1.391 . S
C305 H315 0.930 . S
C306 C305 1.391 . S
C306 C308 1.387 . S
C307 C304 1.398 . S
C307 C308 1.380 . S
C307 H316 0.930 . S
C308 C306 1.387 . S
C308 C307 1.380 . S
C308 H317 0.930 . S
C309 O286 1.254 . S
C309 O287 1.268 . S
H310 C295 0.930 1_545 S
H311 C296 0.930 . S
H312 C298 0.930 . S
H313 C299 0.930 . S
H314 C304 0.930 1_565 S
H315 C305 0.930 . S
H316 C307 0.930 . S
H317 C308 0.930 . S
Gd318 N349 2.661 . S
Gd318 N355 2.601 . S
Gd318 O362 2.545 . S
Gd318 O363 2.606 1_655 S
Gd318 O365 2.429 . S
Gd318 O366 2.545 1_655 S
Gd318 O367 2.412 1_655 S
Gd318 O369 2.362 . S
Gd318 O370 2.324 1_655 S
Gd318 C377 2.828 . S
Gd319 N328 2.661 . S
Gd319 N332 2.601 . S
Gd319 O363 2.362 1_556 S
Gd319 O364 2.324 1_455 S
Gd319 O368 2.545 . S
Gd319 O369 2.606 1_456 S
Gd319 O371 2.429 . S
Gd319 O372 2.545 1_455 S
Gd319 O373 2.412 . S
Gd319 C386 2.828 . S
C320 C323 1.417 . S
C320 C325 1.431 . S
C320 C326 1.412 . S
C321 C324 1.437 . S
C321 C325 1.317 . S
C321 H340 0.929 . S
C322 C323 1.426 . S
C322 C324 1.413 . S
C322 N332 1.359 . S
C323 C320 1.417 . S
C323 C322 1.426 . S
C323 N328 1.350 . S
C324 C321 1.437 . S
C324 C322 1.413 . S
C324 C334 1.391 . S
C325 C320 1.431 . S
C325 C321 1.317 . S
C325 H336 0.930 . S
C326 C320 1.412 . S
C326 C327 1.355 . S
C326 H338 0.930 . S
C327 C326 1.355 . S
C327 C329 1.402 . S
C327 H339 0.930 . S
N328 Gd319 2.661 . S
N328 C323 1.350 . S
N328 C329 1.307 . S
C329 C327 1.402 . S
C329 N328 1.307 . S
C329 H330 0.930 . S
H330 C329 0.930 . S
C331 N332 1.334 . S
C331 C333 1.394 . S
C331 H335 0.930 . S
N332 Gd319 2.601 . S
N332 C322 1.359 . S
N332 C331 1.334 . S
C333 C331 1.394 . S
C333 C334 1.359 . S
C333 H345 0.930 . S
C334 C324 1.391 . S
C334 C333 1.359 . S
C334 H346 0.929 . S
H335 C331 0.930 . S
H336 C325 0.930 . S
H337 C354 0.930 . S
H338 C326 0.930 . S
H339 C327 0.930 . S
H340 C321 0.929 . S
H341 C359 0.930 . S
H342 C350 0.930 . S
H343 C351 0.930 . S
H344 C375 0.929 . S
H345 C333 0.930 . S
H346 C334 0.929 . S
H347 C376 0.930 . S
H348 C357 0.930 . S
N349 Gd318 2.661 . S
N349 C353 1.350 . S
N349 C354 1.307 . S
C350 H342 0.930 . S
C350 C351 1.355 . S
C350 C352 1.412 . S
C351 H343 0.930 . S
C351 C350 1.355 . S
C351 C354 1.402 . S
C352 C350 1.412 . S
C352 C353 1.417 . S
C352 C376 1.431 . S
C353 N349 1.350 . S
C353 C352 1.417 . S
C353 C356 1.426 . S
C354 H337 0.930 . S
C354 N349 1.307 . S
C354 C351 1.402 . S
N355 Gd318 2.601 . S
N355 C356 1.359 . S
N355 C359 1.334 . S
C356 C353 1.426 . S
C356 N355 1.359 . S
C356 C360 1.413 . S
C357 H348 0.930 . S
C357 C358 1.359 . S
C357 C359 1.394 . S
C358 C357 1.359 . S
C358 C360 1.391 . S
C358 H361 0.929 . S
C359 H341 0.930 . S
C359 N355 1.334 . S
C359 C357 1.394 . S
C360 C356 1.413 . S
C360 C358 1.391 . S
C360 C375 1.437 . S
H361 C358 0.929 . S
O362 Gd318 2.545 . S
O362 C377 1.258 . S
O363 Gd318 2.606 1_455 S
O363 Gd319 2.362 1_554 S
O363 C374 1.284 . S
O364 Gd319 2.324 1_655 S
O364 C384 1.224 1_556 S
O365 Gd318 2.429 . S
O365 C384 1.317 . S
O366 Gd318 2.545 1_455 S
O366 C374 1.250 . S
O367 Gd318 2.412 1_455 S
O367 C377 1.252 1_455 S
O368 Gd319 2.545 . S
O368 C386 1.258 . S
O369 Gd318 2.362 . S
O369 Gd319 2.606 1_654 S
O369 C385 1.284 1_554 S
O370 Gd318 2.324 1_455 S
O370 C393 1.254 . S
O371 Gd319 2.429 . S
O371 C393 1.268 1_556 S
O372 Gd319 2.545 1_655 S
O372 C385 1.250 . S
O373 Gd319 2.412 . S
O373 C386 1.252 . S
C374 O363 1.284 . S
C374 O366 1.250 . S
C375 H344 0.929 . S
C375 C360 1.437 . S
C375 C376 1.317 . S
C376 H347 0.930 . S
C376 C352 1.431 . S
C376 C375 1.317 . S
C377 Gd318 2.828 . S
C377 O362 1.258 . S
C377 O367 1.252 1_655 S
C377 C378 1.497 1_655 S
C378 C377 1.497 1_455 S
C378 C379 1.395 1_455 S
C378 C380 1.380 . S
C379 C378 1.395 1_655 S
C379 C382 1.398 . S
C379 H394 0.930 . S
C380 C378 1.380 . S
C380 C381 1.391 . S
C380 H395 0.930 . S
C381 C380 1.391 . S
C381 C383 1.387 . S
C382 C379 1.398 . S
C382 C383 1.380 1_655 S
C382 H396 0.930 . S
C383 C381 1.387 . S
C383 C382 1.380 1_455 S
C383 H397 0.930 . S
C384 O364 1.224 1_554 S
C384 O365 1.317 . S
C385 O369 1.284 1_556 S
C385 O372 1.250 . S
C386 Gd319 2.828 . S
C386 O368 1.258 . S
C386 O373 1.252 . S
C386 C387 1.497 . S
C387 C386 1.497 . S
C387 C388 1.395 . S
C387 C389 1.380 1_455 S
C388 C387 1.395 . S
C388 C391 1.398 . S
C388 H398 0.930 . S
C389 C387 1.380 1_655 S
C389 C390 1.391 . S
C389 H399 0.930 . S
C390 C389 1.391 . S
C390 C392 1.387 1_655 S
C391 C388 1.398 . S
C391 C392 1.380 . S
C391 H400 0.930 . S
C392 C390 1.387 1_455 S
C392 C391 1.380 . S
C392 H401 0.930 . S
C393 O370 1.254 . S
C393 O371 1.268 1_554 S
H394 C379 0.930 . S
H395 C380 0.930 . S
H396 C382 0.930 . S
H397 C383 0.930 . S
H398 C388 0.930 . S
H399 C389 0.930 . S
H400 C391 0.930 . S
H401 C392 0.930 . S
Gd402 N433 2.652 1_554 S
Gd402 N439 2.601 1_554 S
Gd402 O446 2.545 1_554 S
Gd402 O447 2.606 . S
Gd402 O449 2.429 . S
Gd402 O450 2.545 1_554 S
Gd402 O451 2.412 1_554 S
Gd402 O453 2.362 . S
Gd402 O454 2.324 . S
Gd402 C461 2.828 1_554 S
Gd403 N412 2.661 . S
Gd403 N416 2.601 . S
Gd403 O447 2.362 . S
Gd403 O448 2.324 . S
Gd403 O452 2.545 . S
Gd403 O453 2.606 . S
Gd403 O455 2.429 . S
Gd403 O456 2.545 . S
Gd403 O457 2.412 . S
Gd403 C470 2.828 . S
C404 C407 1.417 . S
C404 C409 1.431 . S
C404 C410 1.412 . S
C405 C408 1.437 . S
C405 C409 1.317 . S
C405 H424 0.929 . S
C406 C407 1.426 . S
C406 C408 1.413 . S
C406 N416 1.359 . S
C407 C404 1.417 . S
C407 C406 1.426 . S
C407 N412 1.350 . S
C408 C405 1.437 . S
C408 C406 1.413 . S
C408 C418 1.391 . S
C409 C404 1.431 . S
C409 C405 1.317 . S
C409 H420 0.930 . S
C410 C404 1.412 . S
C410 C411 1.355 . S
C410 H422 0.930 . S
C411 C410 1.355 . S
C411 C413 1.402 . S
C411 H423 0.930 . S
N412 Gd403 2.661 . S
N412 C407 1.350 . S
N412 C413 1.307 . S
C413 C411 1.402 . S
C413 N412 1.307 . S
C413 H414 0.930 . S
H414 C413 0.930 . S
C415 N416 1.334 . S
C415 C417 1.394 . S
C415 H419 0.930 . S
N416 Gd403 2.601 . S
N416 C406 1.359 . S
N416 C415 1.334 . S
C417 C415 1.394 . S
C417 C418 1.359 . S
C417 H429 0.930 . S
C418 C408 1.391 . S
C418 C417 1.359 . S
C418 H430 0.929 . S
H419 C415 0.930 . S
H420 C409 0.930 . S
H421 C438 0.930 . S
H422 C410 0.930 . S
H423 C411 0.930 . S
H424 C405 0.929 . S
H425 C443 0.930 . S
H426 C434 0.930 . S
H427 C435 0.930 . S
H428 C459 0.929 . S
H429 C417 0.930 . S
H430 C418 0.929 . S
H431 C460 0.930 . S
H432 C441 0.930 . S
N433 Gd402 2.652 1_556 S
N433 C437 1.371 . S
N433 C438 1.298 1_556 S
C434 H426 0.930 . S
C434 C435 1.355 1_556 S
C434 C436 1.412 . S
C435 H427 0.930 . S
C435 C434 1.355 1_554 S
C435 C438 1.402 . S
C436 C434 1.412 . S
C436 C437 1.417 . S
C436 C460 1.431 . S
C437 N433 1.371 . S
C437 C436 1.417 . S
C437 C440 1.426 . S
C438 H421 0.930 . S
C438 N433 1.298 1_554 S
C438 C435 1.402 . S
N439 Gd402 2.601 1_556 S
N439 C440 1.359 . S
N439 C443 1.334 . S
C440 C437 1.426 . S
C440 N439 1.359 . S
C440 C444 1.413 . S
C441 H432 0.930 . S
C441 C442 1.359 . S
C441 C443 1.394 . S
C442 C441 1.359 . S
C442 C444 1.391 . S
C442 H445 0.929 . S
C443 H425 0.930 . S
C443 N439 1.334 . S
C443 C441 1.394 . S
C444 C440 1.413 . S
C444 C442 1.391 . S
C444 C459 1.437 . S
H445 C442 0.929 . S
O446 Gd402 2.545 1_556 S
O446 C461 1.258 . S
O447 Gd402 2.606 . S
O447 Gd403 2.362 . S
O447 C458 1.284 . S
O448 Gd403 2.324 . S
O448 C468 1.254 . S
O449 Gd402 2.429 . S
O449 C468 1.268 . S
O450 Gd402 2.545 1_556 S
O450 C458 1.250 1_556 S
O451 Gd402 2.412 1_556 S
O451 C461 1.252 . S
O452 Gd403 2.545 . S
O452 C470 1.258 . S
O453 Gd402 2.362 . S
O453 Gd403 2.606 . S
O453 C469 1.284 . S
O454 Gd402 2.324 . S
O454 C477 1.254 . S
O455 Gd403 2.429 . S
O455 C477 1.268 . S
O456 Gd403 2.545 . S
O456 C469 1.250 . S
O457 Gd403 2.412 . S
O457 C470 1.252 . S
C458 O447 1.284 . S
C458 O450 1.250 1_554 S
C459 H428 0.929 . S
C459 C444 1.437 . S
C459 C460 1.317 . S
C460 H431 0.930 . S
C460 C436 1.431 . S
C460 C459 1.317 . S
C461 Gd402 2.828 1_556 S
C461 O446 1.258 . S
C461 O451 1.252 . S
C461 C462 1.497 . S
C462 C461 1.497 . S
C462 C463 1.395 . S
C462 C464 1.380 . S
C463 C462 1.395 . S
C463 C466 1.398 . S
C463 H478 0.930 . S
C464 C462 1.380 . S
C464 C465 1.391 . S
C464 H479 0.930 . S
C465 C464 1.391 . S
C465 C467 1.387 . S
C466 C463 1.398 . S
C466 C467 1.380 . S
C466 H480 0.930 . S
C467 C465 1.387 . S
C467 C466 1.380 . S
C467 H481 0.930 . S
C468 O448 1.254 . S
C468 O449 1.268 . S
C469 O453 1.284 . S
C469 O456 1.250 . S
C470 Gd403 2.828 . S
C470 O452 1.258 . S
C470 O457 1.252 . S
C470 C471 1.497 . S
C471 C470 1.497 . S
C471 C472 1.395 . S
C471 C473 1.380 . S
C472 C471 1.395 . S
C472 C475 1.398 . S
C472 H482 0.930 . S
C473 C471 1.380 . S
C473 C474 1.391 . S
C473 H483 0.930 . S
C474 C473 1.391 . S
C474 C476 1.387 . S
C475 C472 1.398 . S
C475 C476 1.380 . S
C475 H484 0.930 . S
C476 C474 1.387 . S
C476 C475 1.380 . S
C476 H485 0.930 . S
C477 O454 1.254 . S
C477 O455 1.268 . S
H478 C463 0.930 . S
H479 C464 0.930 . S
H480 C466 0.930 . S
H481 C467 0.930 . S
H482 C472 0.930 . S
H483 C473 0.930 . S
H484 C475 0.930 . S
H485 C476 0.930 . S
Gd486 N517 2.661 . S
Gd486 N523 2.601 . S
Gd486 O530 2.545 . S
Gd486 O531 2.606 . S
Gd486 O533 2.429 . S
Gd486 O534 2.545 . S
Gd486 O535 2.412 . S
Gd486 O537 2.362 . S
Gd486 O538 2.324 . S
Gd486 C545 2.828 . S
Gd487 N496 2.661 . S
Gd487 N500 2.601 . S
Gd487 O531 2.362 . S
Gd487 O532 2.324 . S
Gd487 O536 2.545 . S
Gd487 O537 2.606 . S
Gd487 O539 2.429 . S
Gd487 O540 2.545 . S
Gd487 O541 2.412 . S
Gd487 C554 2.828 . S
C488 C491 1.417 . S
C488 C493 1.431 . S
C488 C494 1.412 . S
C489 C492 1.437 . S
C489 C493 1.317 . S
C489 H508 0.929 . S
C490 C491 1.426 . S
C490 C492 1.413 . S
C490 N500 1.359 . S
C491 C488 1.417 . S
C491 C490 1.426 . S
C491 N496 1.350 . S
C492 C489 1.437 . S
C492 C490 1.413 . S
C492 C502 1.391 . S
C493 C488 1.431 . S
C493 C489 1.317 . S
C493 H504 0.930 . S
C494 C488 1.412 . S
C494 C495 1.355 . S
C494 H506 0.930 . S
C495 C494 1.355 . S
C495 C497 1.402 . S
C495 H507 0.930 . S
N496 Gd487 2.661 . S
N496 C491 1.350 . S
N496 C497 1.307 . S
C497 C495 1.402 . S
C497 N496 1.307 . S
C497 H498 0.930 . S
H498 C497 0.930 . S
C499 N500 1.334 . S
C499 C501 1.394 . S
C499 H503 0.930 . S
N500 Gd487 2.601 . S
N500 C490 1.359 . S
N500 C499 1.334 . S
C501 C499 1.394 . S
C501 C502 1.359 . S
C501 H513 0.930 . S
C502 C492 1.391 . S
C502 C501 1.359 . S
C502 H514 0.929 . S
H503 C499 0.930 . S
H504 C493 0.930 . S
H505 C522 0.930 . S
H506 C494 0.930 . S
H507 C495 0.930 . S
H508 C489 0.929 . S
H509 C527 0.930 . S
H510 C518 0.930 . S
H511 C519 0.930 . S
H512 C543 0.929 . S
H513 C501 0.930 . S
H514 C502 0.929 . S
H515 C544 0.930 . S
H516 C525 0.930 . S
N517 Gd486 2.661 . S
N517 C521 1.350 . S
N517 C522 1.307 . S
C518 H510 0.930 . S
C518 C519 1.355 . S
C518 C520 1.412 . S
C519 H511 0.930 . S
C519 C518 1.355 . S
C519 C522 1.402 . S
C520 C518 1.412 . S
C520 C521 1.417 . S
C520 C544 1.431 . S
C521 N517 1.350 . S
C521 C520 1.417 . S
C521 C524 1.426 . S
C522 H505 0.930 . S
C522 N517 1.307 . S
C522 C519 1.402 . S
N523 Gd486 2.601 . S
N523 C524 1.359 . S
N523 C527 1.334 . S
C524 C521 1.426 . S
C524 N523 1.359 . S
C524 C528 1.413 . S
C525 H516 0.930 . S
C525 C526 1.359 . S
C525 C527 1.394 . S
C526 C525 1.359 . S
C526 C528 1.391 . S
C526 H529 0.929 . S
C527 H509 0.930 . S
C527 N523 1.334 . S
C527 C525 1.394 . S
C528 C524 1.413 . S
C528 C526 1.391 . S
C528 C543 1.437 . S
H529 C526 0.929 . S
O530 Gd486 2.545 . S
O530 C545 1.258 . S
O531 Gd486 2.606 . S
O531 Gd487 2.362 . S
O531 C542 1.284 . S
O532 Gd487 2.324 . S
O532 C552 1.254 . S
O533 Gd486 2.429 . S
O533 C552 1.268 . S
O534 Gd486 2.545 . S
O534 C542 1.250 . S
O535 Gd486 2.412 . S
O535 C545 1.252 . S
O536 Gd487 2.545 . S
O536 C554 1.258 . S
O537 Gd486 2.362 . S
O537 Gd487 2.606 . S
O537 C553 1.284 . S
O538 Gd486 2.324 . S
O538 C561 1.254 . S
O539 Gd487 2.429 . S
O539 C561 1.268 . S
O540 Gd487 2.545 . S
O540 C553 1.250 . S
O541 Gd487 2.412 . S
O541 C554 1.252 . S
C542 O531 1.284 . S
C542 O534 1.250 . S
C543 H512 0.929 . S
C543 C528 1.437 . S
C543 C544 1.317 . S
C544 H515 0.930 . S
C544 C520 1.431 . S
C544 C543 1.317 . S
C545 Gd486 2.828 . S
C545 O530 1.258 . S
C545 O535 1.252 . S
C545 C546 1.497 . S
C546 C545 1.497 . S
C546 C547 1.395 . S
C546 C548 1.380 . S
C547 C546 1.395 . S
C547 C550 1.398 . S
C547 H562 0.930 . S
C548 C546 1.380 . S
C548 C549 1.391 . S
C548 H563 0.930 . S
C549 C548 1.391 . S
C549 C551 1.387 . S
C550 C547 1.398 . S
C550 C551 1.380 . S
C550 H564 0.930 . S
C551 C549 1.387 . S
C551 C550 1.380 . S
C551 H565 0.930 . S
C552 O532 1.254 . S
C552 O533 1.268 . S
C553 O537 1.284 . S
C553 O540 1.250 . S
C554 Gd487 2.828 . S
C554 O536 1.258 . S
C554 O541 1.252 . S
C554 C555 1.497 . S
C555 C554 1.497 . S
C555 C556 1.395 . S
C555 C557 1.380 . S
C556 C555 1.395 . S
C556 C559 1.398 . S
C556 H566 0.930 . S
C557 C555 1.380 . S
C557 C558 1.391 . S
C557 H567 0.930 . S
C558 C557 1.391 . S
C558 C560 1.387 . S
C559 C556 1.398 . S
C559 C560 1.380 . S
C559 H568 0.930 . S
C560 C558 1.387 . S
C560 C559 1.380 . S
C560 H569 0.930 . S
C561 O538 1.254 . S
C561 O539 1.268 . S
H562 C547 0.930 . S
H563 C548 0.930 . S
H564 C550 0.930 . S
H565 C551 0.930 . S
H566 C556 0.930 . S
H567 C557 0.930 . S
H568 C559 0.930 . S
H569 C560 0.930 . S
Gd570 N601 2.661 . S
Gd570 N607 2.601 . S
Gd570 O614 2.545 . S
Gd570 O615 2.606 . S
Gd570 O617 2.429 . S
Gd570 O618 2.545 . S
Gd570 O619 2.412 . S
Gd570 O621 2.362 . S
Gd570 O622 2.324 . S
Gd570 C629 2.828 . S
Gd571 N580 2.661 . S
Gd571 N584 2.601 . S
Gd571 O615 2.362 . S
Gd571 O616 2.324 . S
Gd571 O620 2.545 . S
Gd571 O621 2.606 . S
Gd571 O623 2.429 . S
Gd571 O624 2.545 . S
Gd571 O625 2.412 . S
Gd571 C638 2.828 . S
C572 C575 1.417 . S
C572 C577 1.431 . S
C572 C578 1.412 . S
C573 C576 1.437 . S
C573 C577 1.317 . S
C573 H592 0.929 . S
C574 C575 1.426 . S
C574 C576 1.413 . S
C574 N584 1.359 . S
C575 C572 1.417 . S
C575 C574 1.426 . S
C575 N580 1.350 . S
C576 C573 1.437 . S
C576 C574 1.413 . S
C576 C586 1.391 . S
C577 C572 1.431 . S
C577 C573 1.317 . S
C577 H588 0.930 . S
C578 C572 1.412 . S
C578 C579 1.355 . S
C578 H590 0.930 . S
C579 C578 1.355 . S
C579 C581 1.402 . S
C579 H591 0.930 . S
N580 Gd571 2.661 . S
N580 C575 1.350 . S
N580 C581 1.307 . S
C581 C579 1.402 . S
C581 N580 1.307 . S
C581 H582 0.930 . S
H582 C581 0.930 . S
C583 N584 1.334 . S
C583 C585 1.394 . S
C583 H587 0.930 . S
N584 Gd571 2.601 . S
N584 C574 1.359 . S
N584 C583 1.334 . S
C585 C583 1.394 . S
C585 C586 1.359 . S
C585 H597 0.930 . S
C586 C576 1.391 . S
C586 C585 1.359 . S
C586 H598 0.929 . S
H587 C583 0.930 . S
H588 C577 0.930 . S
H589 C606 0.930 . S
H590 C578 0.930 . S
H591 C579 0.930 . S
H592 C573 0.929 . S
H593 C611 0.930 . S
H594 C602 0.930 . S
H595 C603 0.930 . S
H596 C627 0.929 . S
H597 C585 0.930 . S
H598 C586 0.929 . S
H599 C628 0.930 . S
H600 C609 0.930 . S
N601 Gd570 2.661 . S
N601 C605 1.350 . S
N601 C606 1.307 . S
C602 H594 0.930 . S
C602 C603 1.355 . S
C602 C604 1.412 . S
C603 H595 0.930 . S
C603 C602 1.355 . S
C603 C606 1.402 . S
C604 C602 1.412 . S
C604 C605 1.417 . S
C604 C628 1.431 . S
C605 N601 1.350 . S
C605 C604 1.417 . S
C605 C608 1.426 . S
C606 H589 0.930 . S
C606 N601 1.307 . S
C606 C603 1.402 . S
N607 Gd570 2.601 . S
N607 C608 1.359 . S
N607 C611 1.334 . S
C608 C605 1.426 . S
C608 N607 1.359 . S
C608 C612 1.413 . S
C609 H600 0.930 . S
C609 C610 1.359 . S
C609 C611 1.394 . S
C610 C609 1.359 . S
C610 C612 1.391 . S
C610 H613 0.929 . S
C611 H593 0.930 . S
C611 N607 1.334 . S
C611 C609 1.394 . S
C612 C608 1.413 . S
C612 C610 1.391 . S
C612 C627 1.437 . S
H613 C610 0.929 . S
O614 Gd570 2.545 . S
O614 C629 1.258 . S
O615 Gd570 2.606 . S
O615 Gd571 2.362 . S
O615 C626 1.284 . S
O616 Gd571 2.324 . S
O616 C636 1.254 . S
O617 Gd570 2.429 . S
O617 C636 1.268 . S
O618 Gd570 2.545 . S
O618 C626 1.250 . S
O619 Gd570 2.412 . S
O619 C629 1.252 . S
O620 Gd571 2.545 . S
O620 C638 1.258 . S
O621 Gd570 2.362 . S
O621 Gd571 2.606 . S
O621 C637 1.284 . S
O622 Gd570 2.324 . S
O622 C645 1.254 . S
O623 Gd571 2.429 . S
O623 C645 1.268 . S
O624 Gd571 2.545 . S
O624 C637 1.250 . S
O625 Gd571 2.412 . S
O625 C638 1.252 . S
C626 O615 1.284 . S
C626 O618 1.250 . S
C627 H596 0.929 . S
C627 C612 1.437 . S
C627 C628 1.317 . S
C628 H599 0.930 . S
C628 C604 1.431 . S
C628 C627 1.317 . S
C629 Gd570 2.828 . S
C629 O614 1.258 . S
C629 O619 1.252 . S
C629 C630 1.497 . S
C630 C629 1.497 . S
C630 C631 1.395 . S
C630 C632 1.380 . S
C631 C630 1.395 . S
C631 C634 1.398 . S
C631 H646 0.930 . S
C632 C630 1.380 . S
C632 C633 1.391 . S
C632 H647 0.930 . S
C633 C632 1.391 . S
C633 C635 1.387 . S
C634 C631 1.398 . S
C634 C635 1.380 . S
C634 H648 0.930 . S
C635 C633 1.387 . S
C635 C634 1.380 . S
C635 H649 0.930 . S
C636 O616 1.254 . S
C636 O617 1.268 . S
C637 O621 1.284 . S
C637 O624 1.250 . S
C638 Gd571 2.828 . S
C638 O620 1.258 . S
C638 O625 1.252 . S
C638 C639 1.497 . S
C639 C638 1.497 . S
C639 C640 1.395 . S
C639 C641 1.380 . S
C640 C639 1.395 . S
C640 C643 1.398 . S
C640 H650 0.930 . S
C641 C639 1.380 . S
C641 C642 1.391 . S
C641 H651 0.930 . S
C642 C641 1.391 . S
C642 C644 1.387 . S
C643 C640 1.398 . S
C643 C644 1.380 . S
C643 H652 0.930 . S
C644 C642 1.387 . S
C644 C643 1.380 . S
C644 H653 0.930 . S
C645 O622 1.254 . S
C645 O623 1.268 . S
H646 C631 0.930 . S
H647 C632 0.930 . S
H648 C634 0.930 . S
H649 C635 0.930 . S
H650 C640 0.930 . S
H651 C641 0.930 . S
H652 C643 0.930 . S
H653 C644 0.930 . S
Gd654 N685 2.661 . S
Gd654 N691 2.601 . S
Gd654 O698 2.545 . S
Gd654 O699 2.606 . S
Gd654 O701 2.429 . S
Gd654 O702 2.545 . S
Gd654 O703 2.412 . S
Gd654 O705 2.362 . S
Gd654 O706 2.324 . S
Gd654 C713 2.828 . S
Gd655 N664 2.661 . S
Gd655 N668 2.601 . S
Gd655 O699 2.362 . S
Gd655 O700 2.324 . S
Gd655 O704 2.545 . S
Gd655 O705 2.606 . S
Gd655 O707 2.429 . S
Gd655 O708 2.545 . S
Gd655 O709 2.412 . S
Gd655 C722 2.828 . S
C656 C659 1.417 . S
C656 C661 1.431 . S
C656 C662 1.412 . S
C657 C660 1.437 . S
C657 C661 1.317 . S
C657 H676 0.929 . S
C658 C659 1.426 . S
C658 C660 1.413 . S
C658 N668 1.359 . S
C659 C656 1.417 . S
C659 C658 1.426 . S
C659 N664 1.350 . S
C660 C657 1.437 . S
C660 C658 1.413 . S
C660 C670 1.391 . S
C661 C656 1.431 . S
C661 C657 1.317 . S
C661 H672 0.930 . S
C662 C656 1.412 . S
C662 C663 1.355 . S
C662 H674 0.930 . S
C663 C662 1.355 . S
C663 C665 1.402 . S
C663 H675 0.930 . S
N664 Gd655 2.661 . S
N664 C659 1.350 . S
N664 C665 1.307 . S
C665 C663 1.402 . S
C665 N664 1.307 . S
C665 H666 0.930 . S
H666 C665 0.930 . S
C667 N668 1.334 . S
C667 C669 1.394 . S
C667 H671 0.930 . S
N668 Gd655 2.601 . S
N668 C658 1.359 . S
N668 C667 1.334 . S
C669 C667 1.394 . S
C669 C670 1.359 . S
C669 H681 0.930 . S
C670 C660 1.391 . S
C670 C669 1.359 . S
C670 H682 0.929 . S
H671 C667 0.930 . S
H672 C661 0.930 . S
H673 C690 0.930 . S
H674 C662 0.930 . S
H675 C663 0.930 . S
H676 C657 0.929 . S
H677 C695 0.930 . S
H678 C686 0.930 . S
H679 C687 0.930 . S
H680 C711 0.929 . S
H681 C669 0.930 . S
H682 C670 0.929 . S
H683 C712 0.930 . S
H684 C693 0.930 . S
N685 Gd654 2.661 . S
N685 C689 1.350 . S
N685 C690 1.307 . S
C686 H678 0.930 . S
C686 C687 1.355 . S
C686 C688 1.412 . S
C687 H679 0.930 . S
C687 C686 1.355 . S
C687 C690 1.402 . S
C688 C686 1.412 . S
C688 C689 1.417 . S
C688 C712 1.431 . S
C689 N685 1.350 . S
C689 C688 1.417 . S
C689 C692 1.426 . S
C690 H673 0.930 . S
C690 N685 1.307 . S
C690 C687 1.402 . S
N691 Gd654 2.601 . S
N691 C692 1.359 . S
N691 C695 1.334 . S
C692 C689 1.426 . S
C692 N691 1.359 . S
C692 C696 1.413 . S
C693 H684 0.930 . S
C693 C694 1.359 . S
C693 C695 1.394 . S
C694 C693 1.359 . S
C694 C696 1.391 . S
C694 H697 0.929 . S
C695 H677 0.930 . S
C695 N691 1.334 . S
C695 C693 1.394 . S
C696 C692 1.413 . S
C696 C694 1.391 . S
C696 C711 1.437 . S
H697 C694 0.929 . S
O698 Gd654 2.545 . S
O698 C713 1.258 . S
O699 Gd654 2.606 . S
O699 Gd655 2.362 . S
O699 C710 1.284 . S
O700 Gd655 2.324 . S
O700 C720 1.254 . S
O701 Gd654 2.429 . S
O701 C720 1.268 . S
O702 Gd654 2.545 . S
O702 C710 1.250 . S
O703 Gd654 2.412 . S
O703 C713 1.252 . S
O704 Gd655 2.545 . S
O704 C722 1.258 . S
O705 Gd654 2.362 . S
O705 Gd655 2.606 . S
O705 C721 1.284 . S
O706 Gd654 2.324 . S
O706 C729 1.254 . S
O707 Gd655 2.429 . S
O707 C729 1.268 . S
O708 Gd655 2.545 . S
O708 C721 1.250 . S
O709 Gd655 2.412 . S
O709 C722 1.252 . S
C710 O699 1.284 . S
C710 O702 1.250 . S
C711 H680 0.929 . S
C711 C696 1.437 . S
C711 C712 1.317 . S
C712 H683 0.930 . S
C712 C688 1.431 . S
C712 C711 1.317 . S
C713 Gd654 2.828 . S
C713 O698 1.258 . S
C713 O703 1.252 . S
C713 C714 1.497 . S
C714 C713 1.497 . S
C714 C715 1.395 . S
C714 C716 1.380 . S
C715 C714 1.395 . S
C715 C718 1.398 . S
C715 H730 0.930 . S
C716 C714 1.380 . S
C716 C717 1.391 . S
C716 H731 0.930 . S
C717 C716 1.391 . S
C717 C719 1.387 . S
C718 C715 1.398 . S
C718 C719 1.380 . S
C718 H732 0.930 . S
C719 C717 1.387 . S
C719 C718 1.380 . S
C719 H733 0.930 . S
C720 O700 1.254 . S
C720 O701 1.268 . S
C721 O705 1.284 . S
C721 O708 1.250 . S
C722 Gd655 2.828 . S
C722 O704 1.258 . S
C722 O709 1.252 . S
C722 C723 1.497 . S
C723 C722 1.497 . S
C723 C724 1.395 . S
C723 C725 1.380 . S
C724 C723 1.395 . S
C724 C727 1.398 . S
C724 H734 0.930 . S
C725 C723 1.380 . S
C725 C726 1.391 . S
C725 H735 0.930 . S
C726 C725 1.391 . S
C726 C728 1.387 . S
C727 C724 1.398 . S
C727 C728 1.380 . S
C727 H736 0.930 . S
C728 C726 1.387 . S
C728 C727 1.380 . S
C728 H737 0.930 . S
C729 O706 1.254 . S
C729 O707 1.268 . S
H730 C715 0.930 . S
H731 C716 0.930 . S
H732 C718 0.930 . S
H733 C719 0.930 . S
H734 C724 0.930 . S
H735 C725 0.930 . S
H736 C727 0.930 . S
H737 C728 0.930 . S
Gd738 N769 2.661 . S
Gd738 N775 2.601 . S
Gd738 O782 2.545 . S
Gd738 O783 2.606 . S
Gd738 O785 2.429 . S
Gd738 O786 2.545 . S
Gd738 O787 2.412 . S
Gd738 O789 2.362 . S
Gd738 O790 2.324 . S
Gd738 C797 2.828 . S
Gd739 N748 2.661 . S
Gd739 N752 2.601 . S
Gd739 O783 2.362 . S
Gd739 O784 2.324 . S
Gd739 O788 2.545 . S
Gd739 O789 2.606 . S
Gd739 O791 2.429 . S
Gd739 O792 2.545 . S
Gd739 O793 2.412 . S
Gd739 C806 2.828 . S
C740 C743 1.417 . S
C740 C745 1.431 . S
C740 C746 1.412 . S
C741 C744 1.437 . S
C741 C745 1.317 . S
C741 H760 0.929 . S
C742 C743 1.426 . S
C742 C744 1.413 . S
C742 N752 1.359 . S
C743 C740 1.417 . S
C743 C742 1.426 . S
C743 N748 1.350 . S
C744 C741 1.437 . S
C744 C742 1.413 . S
C744 C754 1.391 . S
C745 C740 1.431 . S
C745 C741 1.317 . S
C745 H756 0.930 . S
C746 C740 1.412 . S
C746 C747 1.355 . S
C746 H758 0.930 . S
C747 C746 1.355 . S
C747 C749 1.402 . S
C747 H759 0.930 . S
N748 Gd739 2.661 . S
N748 C743 1.350 . S
N748 C749 1.307 . S
C749 C747 1.402 . S
C749 N748 1.307 . S
C749 H750 0.930 . S
H750 C749 0.930 . S
C751 N752 1.334 . S
C751 C753 1.394 . S
C751 H755 0.930 . S
N752 Gd739 2.601 . S
N752 C742 1.359 . S
N752 C751 1.334 . S
C753 C751 1.394 . S
C753 C754 1.359 . S
C753 H765 0.930 . S
C754 C744 1.391 . S
C754 C753 1.359 . S
C754 H766 0.929 . S
H755 C751 0.930 . S
H756 C745 0.930 . S
H757 C774 0.930 . S
H758 C746 0.930 . S
H759 C747 0.930 . S
H760 C741 0.929 . S
H761 C779 0.930 . S
H762 C770 0.930 . S
H763 C771 0.930 . S
H764 C795 0.929 . S
H765 C753 0.930 . S
H766 C754 0.929 . S
H767 C796 0.930 . S
H768 C777 0.930 . S
N769 Gd738 2.661 . S
N769 C773 1.350 . S
N769 C774 1.307 . S
C770 H762 0.930 . S
C770 C771 1.355 . S
C770 C772 1.412 . S
C771 H763 0.930 . S
C771 C770 1.355 . S
C771 C774 1.402 . S
C772 C770 1.412 . S
C772 C773 1.417 . S
C772 C796 1.431 . S
C773 N769 1.350 . S
C773 C772 1.417 . S
C773 C776 1.426 . S
C774 H757 0.930 . S
C774 N769 1.307 . S
C774 C771 1.402 . S
N775 Gd738 2.601 . S
N775 C776 1.359 . S
N775 C779 1.334 . S
C776 C773 1.426 . S
C776 N775 1.359 . S
C776 C780 1.413 . S
C777 H768 0.930 . S
C777 C778 1.359 . S
C777 C779 1.394 . S
C778 C777 1.359 . S
C778 C780 1.391 . S
C778 H781 0.929 . S
C779 H761 0.930 . S
C779 N775 1.334 . S
C779 C777 1.394 . S
C780 C776 1.413 . S
C780 C778 1.391 . S
C780 C795 1.437 . S
H781 C778 0.929 . S
O782 Gd738 2.545 . S
O782 C797 1.258 . S
O783 Gd738 2.606 . S
O783 Gd739 2.362 . S
O783 C794 1.284 . S
O784 Gd739 2.324 . S
O784 C804 1.254 . S
O785 Gd738 2.429 . S
O785 C804 1.268 . S
O786 Gd738 2.545 . S
O786 C794 1.250 . S
O787 Gd738 2.412 . S
O787 C797 1.252 . S
O788 Gd739 2.545 . S
O788 C806 1.258 . S
O789 Gd738 2.362 . S
O789 Gd739 2.606 . S
O789 C805 1.284 . S
O790 Gd738 2.324 . S
O790 C813 1.254 . S
O791 Gd739 2.429 . S
O791 C813 1.268 . S
O792 Gd739 2.545 . S
O792 C805 1.250 . S
O793 Gd739 2.412 . S
O793 C806 1.252 . S
C794 O783 1.284 . S
C794 O786 1.250 . S
C795 H764 0.929 . S
C795 C780 1.437 . S
C795 C796 1.317 . S
C796 H767 0.930 . S
C796 C772 1.431 . S
C796 C795 1.317 . S
C797 Gd738 2.828 . S
C797 O782 1.258 . S
C797 O787 1.252 . S
C797 C798 1.497 . S
C798 C797 1.497 . S
C798 C799 1.395 . S
C798 C800 1.380 . S
C799 C798 1.395 . S
C799 C802 1.398 . S
C799 H814 0.930 . S
C800 C798 1.380 . S
C800 C801 1.391 . S
C800 H815 0.930 . S
C801 C800 1.391 . S
C801 C803 1.387 . S
C802 C799 1.398 . S
C802 C803 1.380 . S
C802 H816 0.930 . S
C803 C801 1.387 . S
C803 C802 1.380 . S
C803 H817 0.930 . S
C804 O784 1.254 . S
C804 O785 1.268 . S
C805 O789 1.284 . S
C805 O792 1.250 . S
C806 Gd739 2.828 . S
C806 O788 1.258 . S
C806 O793 1.252 . S
C806 C807 1.497 . S
C807 C806 1.497 . S
C807 C808 1.395 . S
C807 C809 1.380 . S
C808 C807 1.395 . S
C808 C811 1.398 . S
C808 H818 0.930 . S
C809 C807 1.380 . S
C809 C810 1.391 . S
C809 H819 0.930 . S
C810 C809 1.391 . S
C810 C812 1.387 . S
C811 C808 1.398 . S
C811 C812 1.380 . S
C811 H820 0.930 . S
C812 C810 1.387 . S
C812 C811 1.380 . S
C812 H821 0.930 . S
C813 O790 1.254 . S
C813 O791 1.268 . S
H814 C799 0.930 . S
H815 C800 0.930 . S
H816 C802 0.930 . S
H817 C803 0.930 . S
H818 C808 0.930 . S
H819 C809 0.930 . S
H820 C811 0.930 . S
H821 C812 0.930 . S
Gd822 N853 2.661 . S
Gd822 N859 2.601 . S
Gd822 O866 2.545 . S
Gd822 O867 2.606 . S
Gd822 O869 2.429 . S
Gd822 O870 2.545 . S
Gd822 O871 2.412 . S
Gd822 O873 2.362 . S
Gd822 O874 2.324 . S
Gd822 C881 2.828 . S
Gd823 N832 2.661 . S
Gd823 N836 2.601 . S
Gd823 O867 2.362 . S
Gd823 O868 2.324 . S
Gd823 O872 2.545 . S
Gd823 O873 2.606 . S
Gd823 O875 2.429 . S
Gd823 O876 2.545 . S
Gd823 O877 2.412 . S
Gd823 C890 2.828 . S
C824 C827 1.417 . S
C824 C829 1.431 . S
C824 C830 1.412 . S
C825 C828 1.437 . S
C825 C829 1.317 . S
C825 H844 0.929 . S
C826 C827 1.426 . S
C826 C828 1.413 . S
C826 N836 1.359 . S
C827 C824 1.417 . S
C827 C826 1.426 . S
C827 N832 1.350 . S
C828 C825 1.437 . S
C828 C826 1.413 . S
C828 C838 1.391 . S
C829 C824 1.431 . S
C829 C825 1.317 . S
C829 H840 0.930 . S
C830 C824 1.412 . S
C830 C831 1.355 . S
C830 H842 0.930 . S
C831 C830 1.355 . S
C831 C833 1.402 . S
C831 H843 0.930 . S
N832 Gd823 2.661 . S
N832 C827 1.350 . S
N832 C833 1.307 . S
C833 C831 1.402 . S
C833 N832 1.307 . S
C833 H834 0.930 . S
H834 C833 0.930 . S
C835 N836 1.334 . S
C835 C837 1.394 . S
C835 H839 0.930 . S
N836 Gd823 2.601 . S
N836 C826 1.359 . S
N836 C835 1.334 . S
C837 C835 1.394 . S
C837 C838 1.359 . S
C837 H849 0.930 . S
C838 C828 1.391 . S
C838 C837 1.359 . S
C838 H850 0.929 . S
H839 C835 0.930 . S
H840 C829 0.930 . S
H841 C858 0.930 . S
H842 C830 0.930 . S
H843 C831 0.930 . S
H844 C825 0.929 . S
H845 C863 0.930 . S
H846 C854 0.930 . S
H847 C855 0.930 . S
H848 C879 0.929 . S
H849 C837 0.930 . S
H850 C838 0.929 . S
H851 C880 0.930 . S
H852 C861 0.930 . S
N853 Gd822 2.661 . S
N853 C857 1.350 . S
N853 C858 1.307 . S
C854 H846 0.930 . S
C854 C855 1.355 . S
C854 C856 1.412 . S
C855 H847 0.930 . S
C855 C854 1.355 . S
C855 C858 1.402 . S
C856 C854 1.412 . S
C856 C857 1.417 . S
C856 C880 1.431 . S
C857 N853 1.350 . S
C857 C856 1.417 . S
C857 C860 1.426 . S
C858 H841 0.930 . S
C858 N853 1.307 . S
C858 C855 1.402 . S
N859 Gd822 2.601 . S
N859 C860 1.359 . S
N859 C863 1.334 . S
C860 C857 1.426 . S
C860 N859 1.359 . S
C860 C864 1.413 . S
C861 H852 0.930 . S
C861 C862 1.359 . S
C861 C863 1.394 . S
C862 C861 1.359 . S
C862 C864 1.391 . S
C862 H865 0.929 . S
C863 H845 0.930 . S
C863 N859 1.334 . S
C863 C861 1.394 . S
C864 C860 1.413 . S
C864 C862 1.391 . S
C864 C879 1.437 . S
H865 C862 0.929 . S
O866 Gd822 2.545 . S
O866 C881 1.258 . S
O867 Gd822 2.606 . S
O867 Gd823 2.362 . S
O867 C878 1.284 . S
O868 Gd823 2.324 . S
O868 C888 1.254 . S
O869 Gd822 2.429 . S
O869 C888 1.268 . S
O870 Gd822 2.545 . S
O870 C878 1.250 . S
O871 Gd822 2.412 . S
O871 C881 1.252 . S
O872 Gd823 2.545 . S
O872 C890 1.258 . S
O873 Gd822 2.362 . S
O873 Gd823 2.606 . S
O873 C889 1.284 . S
O874 Gd822 2.324 . S
O874 C897 1.254 . S
O875 Gd823 2.429 . S
O875 C897 1.268 . S
O876 Gd823 2.545 . S
O876 C889 1.250 . S
O877 Gd823 2.412 . S
O877 C890 1.252 . S
C878 O867 1.284 . S
C878 O870 1.250 . S
C879 H848 0.929 . S
C879 C864 1.437 . S
C879 C880 1.317 . S
C880 H851 0.930 . S
C880 C856 1.431 . S
C880 C879 1.317 . S
C881 Gd822 2.828 . S
C881 O866 1.258 . S
C881 O871 1.252 . S
C881 C882 1.497 . S
C882 C881 1.497 . S
C882 C883 1.395 . S
C882 C884 1.380 . S
C883 C882 1.395 . S
C883 C886 1.398 . S
C883 H898 0.930 . S
C884 C882 1.380 . S
C884 C885 1.391 . S
C884 H899 0.930 . S
C885 C884 1.391 . S
C885 C887 1.387 . S
C886 C883 1.398 . S
C886 C887 1.380 . S
C886 H900 0.930 . S
C887 C885 1.387 . S
C887 C886 1.380 . S
C887 H901 0.930 . S
C888 O868 1.254 . S
C888 O869 1.268 . S
C889 O873 1.284 . S
C889 O876 1.250 . S
C890 Gd823 2.828 . S
C890 O872 1.258 . S
C890 O877 1.252 . S
C890 C891 1.497 . S
C891 C890 1.497 . S
C891 C892 1.395 . S
C891 C893 1.380 . S
C892 C891 1.395 . S
C892 C895 1.398 . S
C892 H902 0.930 . S
C893 C891 1.380 . S
C893 C894 1.391 . S
C893 H903 0.930 . S
C894 C893 1.391 . S
C894 C896 1.387 . S
C895 C892 1.398 . S
C895 C896 1.380 . S
C895 H904 0.930 . S
C896 C894 1.387 . S
C896 C895 1.380 . S
C896 H905 0.930 . S
C897 O874 1.254 . S
C897 O875 1.268 . S
H898 C883 0.930 . S
H899 C884 0.930 . S
H900 C886 0.930 . S
H901 C887 0.930 . S
H902 C892 0.930 . S
H903 C893 0.930 . S
H904 C895 0.930 . S
H905 C896 0.930 . S
Gd906 N937 2.661 . S
Gd906 N943 2.601 . S
Gd906 O950 2.545 . S
Gd906 O951 2.606 . S
Gd906 O953 2.429 . S
Gd906 O954 2.545 . S
Gd906 O955 2.412 . S
Gd906 O957 2.362 . S
Gd906 O958 2.324 . S
Gd906 C965 2.828 . S
Gd907 N916 2.661 . S
Gd907 N920 2.601 . S
Gd907 O951 2.362 . S
Gd907 O952 2.324 . S
Gd907 O956 2.545 . S
Gd907 O957 2.606 . S
Gd907 O959 2.429 . S
Gd907 O960 2.545 . S
Gd907 O961 2.412 . S
Gd907 C974 2.828 . S
C908 C911 1.417 . S
C908 C913 1.431 . S
C908 C914 1.412 . S
C909 C912 1.437 . S
C909 C913 1.317 . S
C909 H928 0.929 . S
C910 C911 1.426 . S
C910 C912 1.413 . S
C910 N920 1.359 . S
C911 C908 1.417 . S
C911 C910 1.426 . S
C911 N916 1.350 . S
C912 C909 1.437 . S
C912 C910 1.413 . S
C912 C922 1.391 . S
C913 C908 1.431 . S
C913 C909 1.317 . S
C913 H924 0.930 . S
C914 C908 1.412 . S
C914 C915 1.355 . S
C914 H926 0.930 . S
C915 C914 1.355 . S
C915 C917 1.402 . S
C915 H927 0.930 . S
N916 Gd907 2.661 . S
N916 C911 1.350 . S
N916 C917 1.307 . S
C917 C915 1.402 . S
C917 N916 1.307 . S
C917 H918 0.930 . S
H918 C917 0.930 . S
C919 N920 1.334 . S
C919 C921 1.394 . S
C919 H923 0.930 . S
N920 Gd907 2.601 . S
N920 C910 1.359 . S
N920 C919 1.334 . S
C921 C919 1.394 . S
C921 C922 1.359 . S
C921 H933 0.930 . S
C922 C912 1.391 . S
C922 C921 1.359 . S
C922 H934 0.929 . S
H923 C919 0.930 . S
H924 C913 0.930 . S
H925 C942 0.930 . S
H926 C914 0.930 . S
H927 C915 0.930 . S
H928 C909 0.929 . S
H929 C947 0.930 . S
H930 C938 0.930 . S
H931 C939 0.930 . S
H932 C963 0.929 . S
H933 C921 0.930 . S
H934 C922 0.929 . S
H935 C964 0.930 . S
H936 C945 0.930 . S
N937 Gd906 2.661 . S
N937 C941 1.350 . S
N937 C942 1.307 . S
C938 H930 0.930 . S
C938 C939 1.355 . S
C938 C940 1.412 . S
C939 H931 0.930 . S
C939 C938 1.355 . S
C939 C942 1.402 . S
C940 C938 1.412 . S
C940 C941 1.417 . S
C940 C964 1.431 . S
C941 N937 1.350 . S
C941 C940 1.417 . S
C941 C944 1.426 . S
C942 H925 0.930 . S
C942 N937 1.307 . S
C942 C939 1.402 . S
N943 Gd906 2.601 . S
N943 C944 1.359 . S
N943 C947 1.334 . S
C944 C941 1.426 . S
C944 N943 1.359 . S
C944 C948 1.413 . S
C945 H936 0.930 . S
C945 C946 1.359 . S
C945 C947 1.394 . S
C946 C945 1.359 . S
C946 C948 1.391 . S
C946 H949 0.929 . S
C947 H929 0.930 . S
C947 N943 1.334 . S
C947 C945 1.394 . S
C948 C944 1.413 . S
C948 C946 1.391 . S
C948 C963 1.437 . S
H949 C946 0.929 . S
O950 Gd906 2.545 . S
O950 C965 1.258 . S
O951 Gd906 2.606 . S
O951 Gd907 2.362 . S
O951 C962 1.284 . S
O952 Gd907 2.324 . S
O952 C972 1.254 . S
O953 Gd906 2.429 . S
O953 C972 1.268 . S
O954 Gd906 2.545 . S
O954 C962 1.250 . S
O955 Gd906 2.412 . S
O955 C965 1.252 . S
O956 Gd907 2.545 . S
O956 C974 1.258 . S
O957 Gd906 2.362 . S
O957 Gd907 2.606 . S
O957 C973 1.284 . S
O958 Gd906 2.324 . S
O958 C981 1.254 . S
O959 Gd907 2.429 . S
O959 C981 1.268 . S
O960 Gd907 2.545 . S
O960 C973 1.250 . S
O961 Gd907 2.412 . S
O961 C974 1.252 . S
C962 O951 1.284 . S
C962 O954 1.250 . S
C963 H932 0.929 . S
C963 C948 1.437 . S
C963 C964 1.317 . S
C964 H935 0.930 . S
C964 C940 1.431 . S
C964 C963 1.317 . S
C965 Gd906 2.828 . S
C965 O950 1.258 . S
C965 O955 1.252 . S
C965 C966 1.497 . S
C966 C965 1.497 . S
C966 C967 1.395 . S
C966 C968 1.380 . S
C967 C966 1.395 . S
C967 C970 1.398 . S
C967 H982 0.930 . S
C968 C966 1.380 . S
C968 C969 1.391 . S
C968 H983 0.930 . S
C969 C968 1.391 . S
C969 C971 1.387 . S
C970 C967 1.398 . S
C970 C971 1.380 . S
C970 H984 0.930 . S
C971 C969 1.387 . S
C971 C970 1.380 . S
C971 H985 0.930 . S
C972 O952 1.254 . S
C972 O953 1.268 . S
C973 O957 1.284 . S
C973 O960 1.250 . S
C974 Gd907 2.828 . S
C974 O956 1.258 . S
C974 O961 1.252 . S
C974 C975 1.497 . S
C975 C974 1.497 . S
C975 C976 1.395 . S
C975 C977 1.380 . S
C976 C975 1.395 . S
C976 C979 1.398 . S
C976 H986 0.930 . S
C977 C975 1.380 . S
C977 C978 1.391 . S
C977 H987 0.930 . S
C978 C977 1.391 . S
C978 C980 1.387 . S
C979 C976 1.398 . S
C979 C980 1.380 . S
C979 H988 0.930 . S
C980 C978 1.387 . S
C980 C979 1.380 . S
C980 H989 0.930 . S
C981 O958 1.254 . S
C981 O959 1.268 . S
H982 C967 0.930 . S
H983 C968 0.930 . S
H984 C970 0.930 . S
H985 C971 0.930 . S
H986 C976 0.930 . S
H987 C977 0.930 . S
H988 C979 0.930 . S
H989 C980 0.930 . S
H990 C998 0.929 . S
H991 C1000 0.930 . S
H992 C1002 0.930 . S
H993 C1005 0.929 . S
H994 C1008 0.930 . S
H995 C1010 0.960 . S
H996 C1010 0.960 . S
H997 C1010 0.960 . S
C998 H990 0.929 . S
C998 C999 1.377 . S
C998 C1000 1.384 . S
C999 C998 1.377 . S
C999 C1005 1.390 . S
C1000 H991 0.930 . S
C1000 C998 1.384 . S
C1000 C1001 1.372 . S
C1001 C1000 1.372 . S
C1001 C1002 1.400 . S
C1001 C1006 1.490 . S
C1002 H992 0.930 . S
C1002 C1001 1.400 . S
C1002 C1005 1.386 . S
H1003 C1019 0.930 . S
H1004 C1020 0.931 . S
C1005 H993 0.929 . S
C1005 C999 1.390 . S
C1005 C1002 1.386 . S
C1006 C1001 1.490 . S
C1006 C1008 1.395 . S
C1006 C1009 1.403 . S
H1007 C1013 0.930 . S
C1008 H994 0.930 . S
C1008 C1006 1.395 . S
C1008 C1011 1.403 . S
C1009 C1006 1.403 . S
C1009 C1010 1.524 . S
C1009 C1013 1.400 . S
C1010 H995 0.960 . S
C1010 H996 0.960 . S
C1010 H997 0.960 . S
C1010 C1009 1.524 . S
C1011 C1008 1.403 . S
C1011 C1012 1.392 . S
C1011 C1015 1.495 . S
C1012 C1011 1.392 . S
C1012 C1013 1.385 . S
C1012 C1014 1.478 . S
C1013 H1007 0.930 . S
C1013 C1009 1.400 . S
C1013 C1012 1.385 . S
C1014 C1012 1.478 . S
C1014 C1016 1.381 . S
C1014 C1020 1.383 . S
C1015 C1011 1.495 . S
C1015 H1021 0.959 . S
C1015 H1022 0.961 . S
C1015 H1023 0.960 . S
C1016 C1014 1.381 . S
C1016 C1017 1.394 . S
C1016 H1024 0.930 . S
C1017 C1016 1.394 . S
C1017 C1018 1.383 . S
C1017 H1025 0.929 . S
C1018 C1017 1.383 . S
C1018 C1019 1.377 . S
C1019 H1003 0.930 . S
C1019 C1018 1.377 . S
C1019 C1020 1.379 . S
C1020 H1004 0.931 . S
C1020 C1014 1.383 . S
C1020 C1019 1.379 . S
H1021 C1015 0.959 . S
H1022 C1015 0.961 . S
H1023 C1015 0.960 . S
H1024 C1016 0.930 . S
H1025 C1017 0.929 . S
H1026 C1034 0.929 . S
H1027 C1036 0.930 . S
H1028 C1038 0.930 . S
H1029 C1041 0.929 . S
H1030 C1044 0.930 . S
H1031 C1046 0.960 . S
H1032 C1046 0.960 . S
H1033 C1046 0.960 . S
C1034 H1026 0.929 . S
C1034 C1035 1.377 . S
C1034 C1036 1.384 . S
C1035 C1034 1.377 . S
C1035 C1041 1.390 . S
C1036 H1027 0.930 . S
C1036 C1034 1.384 . S
C1036 C1037 1.372 . S
C1037 C1036 1.372 . S
C1037 C1038 1.400 . S
C1037 C1042 1.490 . S
C1038 H1028 0.930 . S
C1038 C1037 1.400 . S
C1038 C1041 1.386 . S
H1039 C1055 0.973 . S
H1040 C1056 0.931 . S
C1041 H1029 0.929 . S
C1041 C1035 1.390 . S
C1041 C1038 1.386 . S
C1042 C1037 1.490 . S
C1042 C1044 1.395 . S
C1042 C1045 1.403 . S
H1043 C1049 0.930 . S
C1044 H1030 0.930 . S
C1044 C1042 1.395 . S
C1044 C1047 1.403 . S
C1045 C1042 1.403 . S
C1045 C1046 1.524 . S
C1045 C1049 1.400 . S
C1046 H1031 0.960 . S
C1046 H1032 0.960 . S
C1046 H1033 0.960 . S
C1046 C1045 1.524 . S
C1047 C1044 1.403 . S
C1047 C1048 1.392 . S
C1047 C1051 1.495 . S
C1048 C1047 1.392 . S
C1048 C1049 1.385 . S
C1048 C1050 1.478 . S
C1049 H1043 0.930 . S
C1049 C1045 1.400 . S
C1049 C1048 1.385 . S
C1050 C1048 1.478 . S
C1050 C1052 1.381 . S
C1050 C1056 1.383 . S
C1051 C1047 1.495 . S
C1051 H1057 0.959 . S
C1051 H1058 0.961 . S
C1051 H1059 0.960 . S
C1052 C1050 1.381 . S
C1052 C1053 1.394 . S
C1052 H1060 0.930 . S
C1053 C1052 1.394 . S
C1053 C1054 1.383 . S
C1053 H1061 0.929 . S
C1054 C1053 1.383 . S
C1054 C1055 1.377 . S
C1055 H1039 0.973 . S
C1055 C1054 1.377 . S
C1055 C1056 1.379 . S
C1056 H1040 0.931 . S
C1056 C1050 1.383 . S
C1056 C1055 1.379 . S
H1057 C1051 0.959 . S
H1058 C1051 0.961 . S
H1059 C1051 0.960 . S
H1060 C1052 0.930 . S
H1061 C1053 0.929 . S
H1062 C1070 0.929 . S
H1063 C1072 0.930 . S
H1064 C1074 0.930 . S
H1065 C1077 0.929 . S
H1066 C1080 0.930 . S
H1067 C1082 0.960 . S
H1068 C1082 0.960 . S
H1069 C1082 0.960 . S
C1070 H1062 0.929 . S
C1070 C1071 1.377 . S
C1070 C1072 1.384 . S
C1071 C1070 1.377 . S
C1071 C1077 1.390 . S
C1072 H1063 0.930 . S
C1072 C1070 1.384 . S
C1072 C1073 1.372 . S
C1073 C1072 1.372 . S
C1073 C1074 1.400 . S
C1073 C1078 1.490 . S
C1074 H1064 0.930 . S
C1074 C1073 1.400 . S
C1074 C1077 1.386 . S
H1075 C1091 0.930 . S
H1076 C1092 0.931 . S
C1077 H1065 0.929 . S
C1077 C1071 1.390 . S
C1077 C1074 1.386 . S
C1078 C1073 1.490 . S
C1078 C1080 1.395 . S
C1078 C1081 1.403 . S
H1079 C1085 0.930 . S
C1080 H1066 0.930 . S
C1080 C1078 1.395 . S
C1080 C1083 1.403 . S
C1081 C1078 1.403 . S
C1081 C1082 1.524 . S
C1081 C1085 1.400 . S
C1082 H1067 0.960 . S
C1082 H1068 0.960 . S
C1082 H1069 0.960 . S
C1082 C1081 1.524 . S
C1083 C1080 1.403 . S
C1083 C1084 1.392 . S
C1083 C1087 1.495 . S
C1084 C1083 1.392 . S
C1084 C1085 1.385 . S
C1084 C1086 1.478 . S
C1085 H1079 0.930 . S
C1085 C1081 1.400 . S
C1085 C1084 1.385 . S
C1086 C1084 1.478 . S
C1086 C1088 1.381 . S
C1086 C1092 1.383 . S
C1087 C1083 1.495 . S
C1087 H1093 0.959 . S
C1087 H1094 0.961 . S
C1087 H1095 0.960 . S
C1088 C1086 1.381 . S
C1088 C1089 1.394 . S
C1088 H1096 0.930 . S
C1089 C1088 1.394 . S
C1089 C1090 1.383 . S
C1089 H1097 0.929 . S
C1090 C1089 1.383 . S
C1090 C1091 1.377 . S
C1091 H1075 0.930 . S
C1091 C1090 1.377 . S
C1091 C1092 1.379 . S
C1092 H1076 0.931 . S
C1092 C1086 1.383 . S
C1092 C1091 1.379 . S
H1093 C1087 0.959 . S
H1094 C1087 0.961 . S
H1095 C1087 0.960 . S
H1096 C1088 0.930 . S
H1097 C1089 0.929 . S
H1098 C1106 0.929 . S
H1099 C1108 0.927 . S
H1100 C1110 0.930 . S
H1101 C1113 0.929 . S
H1102 C1116 0.930 . S
H1103 C1118 0.960 . S
H1104 C1118 0.960 . S
H1105 C1118 0.960 . S
C1106 H1098 0.929 . S
C1106 C1107 1.377 . S
C1106 C1108 1.384 . S
C1107 C1106 1.377 . S
C1107 C1113 1.390 . S
C1108 H1099 0.927 . S
C1108 C1106 1.384 . S
C1108 C1109 1.372 . S
C1109 C1108 1.372 . S
C1109 C1110 1.400 . S
C1109 C1114 1.490 . S
C1110 H1100 0.930 . S
C1110 C1109 1.400 . S
C1110 C1113 1.386 . S
H1111 C1127 0.930 . S
H1112 C1128 0.931 . S
C1113 H1101 0.929 . S
C1113 C1107 1.390 . S
C1113 C1110 1.386 . S
C1114 C1109 1.490 . S
C1114 C1116 1.395 . S
C1114 C1117 1.403 . S
H1115 C1121 0.930 . S
C1116 H1102 0.930 . S
C1116 C1114 1.395 . S
C1116 C1119 1.403 . S
C1117 C1114 1.403 . S
C1117 C1118 1.524 . S
C1117 C1121 1.400 . S
C1118 H1103 0.960 . S
C1118 H1104 0.960 . S
C1118 H1105 0.960 . S
C1118 C1117 1.524 . S
C1119 C1116 1.403 . S
C1119 C1120 1.392 . S
C1119 C1123 1.495 . S
C1120 C1119 1.392 . S
C1120 C1121 1.385 . S
C1120 C1122 1.478 . S
C1121 H1115 0.930 . S
C1121 C1117 1.400 . S
C1121 C1120 1.385 . S
C1122 C1120 1.478 . S
C1122 C1124 1.381 1_556 S
C1122 C1128 1.383 . S
C1123 C1119 1.495 . S
C1123 H1129 0.959 . S
C1123 H1130 0.961 . S
C1123 H1131 0.960 1_556 S
C1124 C1122 1.381 1_554 S
C1124 C1125 1.394 . S
C1124 H1132 0.930 . S
C1125 C1124 1.394 . S
C1125 C1126 1.383 1_554 S
C1125 H1133 0.929 . S
C1126 C1125 1.383 1_556 S
C1126 C1127 1.377 . S
C1127 H1111 0.930 . S
C1127 C1126 1.377 . S
C1127 C1128 1.379 . S
C1128 H1112 0.931 . S
C1128 C1122 1.383 . S
C1128 C1127 1.379 . S
H1129 C1123 0.959 . S
H1130 C1123 0.961 . S
H1131 C1123 0.960 1_554 S
H1132 C1124 0.930 . S
H1133 C1125 0.929 . S
H1134 C1142 0.929 . S
H1135 C1144 0.930 . S
H1136 C1146 0.930 . S
H1137 C1149 0.929 . S
H1138 C1152 0.930 . S
H1139 C1154 0.960 . S
H1140 C1154 0.960 . S
H1141 C1154 0.960 . S
C1142 H1134 0.929 . S
C1142 C1143 1.377 . S
C1142 C1144 1.384 . S
C1143 C1142 1.377 . S
C1143 C1149 1.390 . S
C1144 H1135 0.930 . S
C1144 C1142 1.384 . S
C1144 C1145 1.372 . S
C1145 C1144 1.372 . S
C1145 C1146 1.400 . S
C1145 C1150 1.490 . S
C1146 H1136 0.930 . S
C1146 C1145 1.400 . S
C1146 C1149 1.386 . S
H1147 C1163 0.930 . S
H1148 C1164 0.931 . S
C1149 H1137 0.929 . S
C1149 C1143 1.390 . S
C1149 C1146 1.386 . S
C1150 C1145 1.490 . S
C1150 C1152 1.395 . S
C1150 C1153 1.403 . S
H1151 C1157 0.886 1_554 S
C1152 H1138 0.930 . S
C1152 C1150 1.395 . S
C1152 C1155 1.403 . S
C1153 C1150 1.403 . S
C1153 C1154 1.524 1_556 S
C1153 C1157 1.414 . S
C1154 H1139 0.960 . S
C1154 H1140 0.960 . S
C1154 H1141 0.960 . S
C1154 C1153 1.524 1_554 S
C1155 C1152 1.403 . S
C1155 C1156 1.392 . S
C1155 C1159 1.495 . S
C1156 C1155 1.392 . S
C1156 C1157 1.414 . S
C1156 C1158 1.478 . S
C1157 H1151 0.886 1_556 S
C1157 C1153 1.414 . S
C1157 C1156 1.414 . S
C1158 C1156 1.478 . S
C1158 C1160 1.381 . S
C1158 C1164 1.383 1_556 S
C1159 C1155 1.495 . S
C1159 H1165 0.959 . S
C1159 H1166 0.961 . S
C1159 H1167 0.960 . S
C1160 C1158 1.381 . S
C1160 C1161 1.407 . S
C1160 H1168 0.930 . S
C1161 C1160 1.407 . S
C1161 C1162 1.367 1_556 S
C1161 H1169 0.933 . S
C1162 C1161 1.367 1_554 S
C1162 C1163 1.377 . S
C1163 H1147 0.930 . S
C1163 C1162 1.377 . S
C1163 C1164 1.379 . S
C1164 H1148 0.931 . S
C1164 C1158 1.383 1_554 S
C1164 C1163 1.379 . S
H1165 C1159 0.959 . S
H1166 C1159 0.961 . S
H1167 C1159 0.960 . S
H1168 C1160 0.930 . S
H1169 C1161 0.933 . S
H1170 C1178 0.929 . S
H1171 C1180 0.930 . S
H1172 C1182 0.930 . S
H1173 C1185 0.929 . S
H1174 C1188 0.930 . S
H1175 C1190 0.960 . S
H1176 C1190 0.960 . S
H1177 C1190 0.960 . S
C1178 H1170 0.929 . S
C1178 C1179 1.377 . S
C1178 C1180 1.384 . S
C1179 C1178 1.377 . S
C1179 C1185 1.390 . S
C1180 H1171 0.930 . S
C1180 C1178 1.384 . S
C1180 C1181 1.372 . S
C1181 C1180 1.372 . S
C1181 C1182 1.400 . S
C1181 C1186 1.490 . S
C1182 H1172 0.930 . S
C1182 C1181 1.400 . S
C1182 C1185 1.386 . S
H1183 C1199 0.930 . S
H1184 C1200 0.931 . S
C1185 H1173 0.929 . S
C1185 C1179 1.390 . S
C1185 C1182 1.386 . S
C1186 C1181 1.490 . S
C1186 C1188 1.395 . S
C1186 C1189 1.403 . S
H1187 C1193 0.930 . S
C1188 H1174 0.930 . S
C1188 C1186 1.395 . S
C1188 C1191 1.403 . S
C1189 C1186 1.403 . S
C1189 C1190 1.524 . S
C1189 C1193 1.400 . S
C1190 H1175 0.960 . S
C1190 H1176 0.960 . S
C1190 H1177 0.960 . S
C1190 C1189 1.524 . S
C1191 C1188 1.403 . S
C1191 C1192 1.392 . S
C1191 C1195 1.495 1_556 S
C1192 C1191 1.392 . S
C1192 C1193 1.385 . S
C1192 C1194 1.478 . S
C1193 H1187 0.930 . S
C1193 C1189 1.400 . S
C1193 C1192 1.385 . S
C1194 C1192 1.478 . S
C1194 C1196 1.381 1_556 S
C1194 C1200 1.383 . S
C1195 C1191 1.495 1_554 S
C1195 H1201 0.959 . S
C1195 H1202 0.961 1_554 S
C1195 H1203 0.960 . S
C1196 C1194 1.381 1_554 S
C1196 C1197 1.394 . S
C1196 H1204 0.930 . S
C1197 C1196 1.394 . S
C1197 C1198 1.383 . S
C1197 H1205 0.929 . S
C1198 C1197 1.383 . S
C1198 C1199 1.377 1_554 S
C1199 H1183 0.930 . S
C1199 C1198 1.377 1_556 S
C1199 C1200 1.379 . S
C1200 H1184 0.931 . S
C1200 C1194 1.383 . S
C1200 C1199 1.379 . S
H1201 C1195 0.959 . S
H1202 C1195 0.961 1_556 S
H1203 C1195 0.960 . S
H1204 C1196 0.930 . S
H1205 C1197 0.929 . S
H1206 C1214 0.929 . S
H1207 C1216 0.930 . S
H1208 C1218 0.930 . S
H1209 C1221 0.929 . S
H1210 C1224 0.930 . S
H1211 C1226 0.960 . S
H1212 C1226 0.960 . S
H1213 C1226 0.960 . S
C1214 H1206 0.929 . S
C1214 C1215 1.377 . S
C1214 C1216 1.384 . S
C1215 C1214 1.377 . S
C1215 C1221 1.390 . S
C1216 H1207 0.930 . S
C1216 C1214 1.384 . S
C1216 C1217 1.372 . S
C1217 C1216 1.372 . S
C1217 C1218 1.400 . S
C1217 C1222 1.490 . S
C1218 H1208 0.930 . S
C1218 C1217 1.400 . S
C1218 C1221 1.386 . S
H1219 C1235 0.930 . S
H1220 C1236 0.931 . S
C1221 H1209 0.929 . S
C1221 C1215 1.390 . S
C1221 C1218 1.386 . S
C1222 C1217 1.490 . S
C1222 C1224 1.395 . S
C1222 C1225 1.403 . S
H1223 C1229 0.930 . S
C1224 H1210 0.930 . S
C1224 C1222 1.395 . S
C1224 C1227 1.403 . S
C1225 C1222 1.403 . S
C1225 C1226 1.524 . S
C1225 C1229 1.400 . S
C1226 H1211 0.960 . S
C1226 H1212 0.960 . S
C1226 H1213 0.960 . S
C1226 C1225 1.524 . S
C1227 C1224 1.403 . S
C1227 C1228 1.392 . S
C1227 C1231 1.495 . S
C1228 C1227 1.392 . S
C1228 C1229 1.385 . S
C1228 C1230 1.478 . S
C1229 H1223 0.930 . S
C1229 C1225 1.400 . S
C1229 C1228 1.385 . S
C1230 C1228 1.478 . S
C1230 C1232 1.381 1_556 S
C1230 C1236 1.383 . S
C1231 C1227 1.495 . S
C1231 H1237 0.959 . S
C1231 H1238 0.961 . S
C1231 H1239 0.960 . S
C1232 C1230 1.381 1_554 S
C1232 C1233 1.394 . S
C1232 H1240 0.930 . S
C1233 C1232 1.394 . S
C1233 C1234 1.383 . S
C1233 H1241 0.929 . S
C1234 C1233 1.383 . S
C1234 C1235 1.377 1_554 S
C1235 H1219 0.930 . S
C1235 C1234 1.377 1_556 S
C1235 C1236 1.379 . S
C1236 H1220 0.931 . S
C1236 C1230 1.383 . S
C1236 C1235 1.379 . S
H1237 C1231 0.959 . S
H1238 C1231 0.961 . S
H1239 C1231 0.960 . S
H1240 C1232 0.930 . S
H1241 C1233 0.929 . S
H1242 C1250 0.929 . S
H1243 C1252 0.930 . S
H1244 C1254 0.930 . S
H1245 C1257 0.929 . S
H1246 C1260 0.930 . S
H1247 C1262 0.960 . S
H1248 C1262 0.960 . S
H1249 C1262 0.960 . S
C1250 H1242 0.929 . S
C1250 C1251 1.377 . S
C1250 C1252 1.384 . S
C1251 C1250 1.377 . S
C1251 C1257 1.390 . S
C1252 H1243 0.930 . S
C1252 C1250 1.384 . S
C1252 C1253 1.372 . S
C1253 C1252 1.372 . S
C1253 C1254 1.400 . S
C1253 C1258 1.490 . S
C1254 H1244 0.930 . S
C1254 C1253 1.400 . S
C1254 C1257 1.386 . S
H1255 C1271 0.930 . S
H1256 C1272 0.931 . S
C1257 H1245 0.929 . S
C1257 C1251 1.390 . S
C1257 C1254 1.386 . S
C1258 C1253 1.490 . S
C1258 C1260 1.395 . S
C1258 C1261 1.403 . S
H1259 C1265 0.930 . S
C1260 H1246 0.930 . S
C1260 C1258 1.395 . S
C1260 C1263 1.403 . S
C1261 C1258 1.403 . S
C1261 C1262 1.524 . S
C1261 C1265 1.400 . S
C1262 H1247 0.960 . S
C1262 H1248 0.960 . S
C1262 H1249 0.960 . S
C1262 C1261 1.524 . S
C1263 C1260 1.403 . S
C1263 C1264 1.392 . S
C1263 C1267 1.524 . S
C1264 C1263 1.392 . S
C1264 C1265 1.385 . S
C1264 C1266 1.478 . S
C1265 H1259 0.930 . S
C1265 C1261 1.400 . S
C1265 C1264 1.385 . S
C1266 C1264 1.478 . S
C1266 C1268 1.381 . S
C1266 C1272 1.383 . S
C1267 C1263 1.524 . S
C1267 H1273 0.948 1_556 S
C1267 H1274 0.939 1_556 S
C1267 H1275 0.965 . S
C1268 C1266 1.381 . S
C1268 C1269 1.394 . S
C1268 H1276 0.930 . S
C1269 C1268 1.394 . S
C1269 C1270 1.383 . S
C1269 H1277 0.929 . S
C1270 C1269 1.383 . S
C1270 C1271 1.377 . S
C1271 H1255 0.930 . S
C1271 C1270 1.377 . S
C1271 C1272 1.379 . S
C1272 H1256 0.931 . S
C1272 C1266 1.383 . S
C1272 C1271 1.379 . S
H1273 C1267 0.948 1_554 S
H1274 C1267 0.939 1_554 S
H1275 C1267 0.965 . S
H1276 C1268 0.930 . S
H1277 C1269 0.929 . S
H1278 C1286 0.929 . S
H1279 C1288 0.930 . S
H1280 C1290 0.930 1_554 S
H1281 C1293 0.929 . S
H1282 C1296 0.930 . S
H1283 C1298 0.960 . S
H1284 C1298 0.960 . S
H1285 C1298 0.960 . S
C1286 H1278 0.929 . S
C1286 C1287 1.377 . S
C1286 C1288 1.384 . S
C1287 C1286 1.377 . S
C1287 C1293 1.390 . S
C1288 H1279 0.930 . S
C1288 C1286 1.384 . S
C1288 C1289 1.372 . S
C1289 C1288 1.372 . S
C1289 C1290 1.400 . S
C1289 C1294 1.490 . S
C1290 H1280 0.930 1_556 S
C1290 C1289 1.400 . S
C1290 C1293 1.386 . S
H1291 C1307 0.930 . S
H1292 C1308 0.931 . S
C1293 H1281 0.929 . S
C1293 C1287 1.390 . S
C1293 C1290 1.386 . S
C1294 C1289 1.490 . S
C1294 C1296 1.395 . S
C1294 C1297 1.403 . S
H1295 C1301 0.930 . S
C1296 H1282 0.930 . S
C1296 C1294 1.395 . S
C1296 C1299 1.403 . S
C1297 C1294 1.403 . S
C1297 C1298 1.524 . S
C1297 C1301 1.400 . S
C1298 H1283 0.960 . S
C1298 H1284 0.960 . S
C1298 H1285 0.960 . S
C1298 C1297 1.524 . S
C1299 C1296 1.403 . S
C1299 C1300 1.392 . S
C1299 C1303 1.495 . S
C1300 C1299 1.392 . S
C1300 C1301 1.385 . S
C1300 C1302 1.478 1_556 S
C1301 H1295 0.930 . S
C1301 C1297 1.400 . S
C1301 C1300 1.385 . S
C1302 C1300 1.478 1_554 S
C1302 C1304 1.381 1_554 S
C1302 C1308 1.383 . S
C1303 C1299 1.495 . S
C1303 H1309 0.959 . S
C1303 H1310 0.961 1_556 S
C1303 H1311 0.960 . S
C1304 C1302 1.381 1_556 S
C1304 C1305 1.400 . S
C1304 H1312 0.930 . S
C1305 C1304 1.400 . S
C1305 C1306 1.370 1_556 S
C1305 H1313 0.936 . S
C1306 C1305 1.370 1_554 S
C1306 C1307 1.377 . S
C1307 H1291 0.930 . S
C1307 C1306 1.377 . S
C1307 C1308 1.379 . S
C1308 H1292 0.931 . S
C1308 C1302 1.383 . S
C1308 C1307 1.379 . S
H1309 C1303 0.959 . S
H1310 C1303 0.961 1_554 S
H1311 C1303 0.960 . S
H1312 C1304 0.930 . S
H1313 C1305 0.936 . S
H1314 C1322 0.929 . S
H1315 C1324 0.930 . S
H1316 C1326 0.930 . S
H1317 C1329 0.929 . S
H1318 C1332 0.930 . S
H1319 C1334 0.960 . S
H1320 C1334 0.960 . S
H1321 C1334 0.960 . S
C1322 H1314 0.929 . S
C1322 C1323 1.377 . S
C1322 C1324 1.384 . S
C1323 C1322 1.377 . S
C1323 C1329 1.390 . S
C1324 H1315 0.930 . S
C1324 C1322 1.384 . S
C1324 C1325 1.372 . S
C1325 C1324 1.372 . S
C1325 C1326 1.400 . S
C1325 C1330 1.490 . S
C1326 H1316 0.930 . S
C1326 C1325 1.400 . S
C1326 C1329 1.386 . S
H1327 C1343 0.893 1_556 S
H1328 C1344 0.931 . S
C1329 H1317 0.929 . S
C1329 C1323 1.390 . S
C1329 C1326 1.386 . S
C1330 C1325 1.490 . S
C1330 C1332 1.395 . S
C1330 C1333 1.403 . S
H1331 C1337 0.930 . S
C1332 H1318 0.930 . S
C1332 C1330 1.395 . S
C1332 C1335 1.403 . S
C1333 C1330 1.403 . S
C1333 C1334 1.524 . S
C1333 C1337 1.400 . S
C1334 H1319 0.960 . S
C1334 H1320 0.960 . S
C1334 H1321 0.960 . S
C1334 C1333 1.524 . S
C1335 C1332 1.403 . S
C1335 C1336 1.392 . S
C1335 C1339 1.495 . S
C1336 C1335 1.392 . S
C1336 C1337 1.385 . S
C1336 C1338 1.478 . S
C1337 H1331 0.930 . S
C1337 C1333 1.400 . S
C1337 C1336 1.385 . S
C1338 C1336 1.478 . S
C1338 C1340 1.381 . S
C1338 C1344 1.383 . S
C1339 C1335 1.495 . S
C1339 H1345 0.959 . S
C1339 H1346 0.961 . S
C1339 H1347 0.960 . S
C1340 C1338 1.381 . S
C1340 C1341 1.394 . S
C1340 H1348 0.930 . S
C1341 C1340 1.394 . S
C1341 C1342 1.383 . S
C1341 H1349 0.929 . S
C1342 C1341 1.383 . S
C1342 C1343 1.377 . S
C1343 H1327 0.893 1_554 S
C1343 C1342 1.377 . S
C1343 C1344 1.379 . S
C1344 H1328 0.931 . S
C1344 C1338 1.383 . S
C1344 C1343 1.379 . S
H1345 C1339 0.959 . S
H1346 C1339 0.961 . S
H1347 C1339 0.960 . S
H1348 C1340 0.930 . S
H1349 C1341 0.929 . S
H1350 C1358 0.929 . S
H1351 C1360 0.930 . S
H1352 C1362 0.930 . S
H1353 C1365 0.929 . S
H1354 C1368 0.930 . S
H1355 C1370 0.960 . S
H1356 C1370 0.960 . S
H1357 C1370 0.960 . S
C1358 H1350 0.929 . S
C1358 C1359 1.377 . S
C1358 C1360 1.384 . S
C1359 C1358 1.377 . S
C1359 C1365 1.390 . S
C1360 H1351 0.930 . S
C1360 C1358 1.384 . S
C1360 C1361 1.372 . S
C1361 C1360 1.372 . S
C1361 C1362 1.400 . S
C1361 C1366 1.490 . S
C1362 H1352 0.930 . S
C1362 C1361 1.400 . S
C1362 C1365 1.386 . S
H1363 C1379 0.930 . S
H1364 C1380 0.931 . S
C1365 H1353 0.929 . S
C1365 C1359 1.390 . S
C1365 C1362 1.386 . S
C1366 C1361 1.490 . S
C1366 C1368 1.395 . S
C1366 C1369 1.403 . S
H1367 C1373 0.930 . S
C1368 H1354 0.930 . S
C1368 C1366 1.395 . S
C1368 C1371 1.403 . S
C1369 C1366 1.403 . S
C1369 C1370 1.524 . S
C1369 C1373 1.400 . S
C1370 H1355 0.960 . S
C1370 H1356 0.960 . S
C1370 H1357 0.960 . S
C1370 C1369 1.524 . S
C1371 C1368 1.403 . S
C1371 C1372 1.392 . S
C1371 C1375 1.495 . S
C1372 C1371 1.392 . S
C1372 C1373 1.385 . S
C1372 C1374 1.478 . S
C1373 H1367 0.930 . S
C1373 C1369 1.400 . S
C1373 C1372 1.385 . S
C1374 C1372 1.478 . S
C1374 C1376 1.381 . S
C1374 C1380 1.383 . S
C1375 C1371 1.495 . S
C1375 H1381 0.959 . S
C1375 H1382 0.961 . S
C1375 H1383 0.960 . S
C1376 C1374 1.381 . S
C1376 C1377 1.394 . S
C1376 H1384 0.930 . S
C1377 C1376 1.394 . S
C1377 C1378 1.383 . S
C1377 H1385 0.929 . S
C1378 C1377 1.383 . S
C1378 C1379 1.377 . S
C1379 H1363 0.930 . S
C1379 C1378 1.377 . S
C1379 C1380 1.379 . S
C1380 H1364 0.931 . S
C1380 C1374 1.383 . S
C1380 C1379 1.379 . S
H1381 C1375 0.959 . S
H1382 C1375 0.961 . S
H1383 C1375 0.960 . S
H1384 C1376 0.930 . S
H1385 C1377 0.929 . S
H1386 C1394 0.929 . S
H1387 C1396 0.930 . S
H1388 C1398 0.930 . S
H1389 C1401 0.929 . S
H1390 C1404 0.930 . S
H1391 C1406 0.960 . S
H1392 C1406 0.960 . S
H1393 C1406 0.960 . S
C1394 H1386 0.929 . S
C1394 C1395 1.377 . S
C1394 C1396 1.384 . S
C1395 C1394 1.377 . S
C1395 C1401 1.390 . S
C1396 H1387 0.930 . S
C1396 C1394 1.384 . S
C1396 C1397 1.372 . S
C1397 C1396 1.372 . S
C1397 C1398 1.400 . S
C1397 C1402 1.490 . S
C1398 H1388 0.930 . S
C1398 C1397 1.400 . S
C1398 C1401 1.386 . S
H1399 C1415 0.930 . S
H1400 C1416 0.931 . S
C1401 H1389 0.929 . S
C1401 C1395 1.390 . S
C1401 C1398 1.386 . S
C1402 C1397 1.490 . S
C1402 C1404 1.395 . S
C1402 C1405 1.403 . S
H1403 C1409 0.930 . S
C1404 H1390 0.930 . S
C1404 C1402 1.395 . S
C1404 C1407 1.403 . S
C1405 C1402 1.403 . S
C1405 C1406 1.524 . S
C1405 C1409 1.400 . S
C1406 H1391 0.960 . S
C1406 H1392 0.960 . S
C1406 H1393 0.960 . S
C1406 C1405 1.524 . S
C1407 C1404 1.403 . S
C1407 C1408 1.392 . S
C1407 C1411 1.495 . S
C1408 C1407 1.392 . S
C1408 C1409 1.385 . S
C1408 C1410 1.478 . S
C1409 H1403 0.930 . S
C1409 C1405 1.400 . S
C1409 C1408 1.385 . S
C1410 C1408 1.478 . S
C1410 C1412 1.381 . S
C1410 C1416 1.383 . S
C1411 C1407 1.495 . S
C1411 H1417 0.959 . S
C1411 H1418 0.961 . S
C1411 H1419 0.960 . S
C1412 C1410 1.381 . S
C1412 C1413 1.394 . S
C1412 H1420 0.930 . S
C1413 C1412 1.394 . S
C1413 C1414 1.383 . S
C1413 H1421 0.929 . S
C1414 C1413 1.383 . S
C1414 C1415 1.377 . S
C1415 H1399 0.930 . S
C1415 C1414 1.377 . S
C1415 C1416 1.379 . S
C1416 H1400 0.931 . S
C1416 C1410 1.383 . S
C1416 C1415 1.379 . S
H1417 C1411 0.959 . S
H1418 C1411 0.961 . S
H1419 C1411 0.960 . S
H1420 C1412 0.930 . S
H1421 C1413 0.929 . S
H1422 C1430 0.929 . S
H1423 C1432 0.930 . S
H1424 C1434 0.930 . S
H1425 C1437 0.929 . S
H1426 C1440 0.914 1_655 S
H1427 C1442 0.960 . S
H1428 C1442 0.960 . S
H1429 C1442 0.960 1_655 S
C1430 H1422 0.929 . S
C1430 C1431 1.377 . S
C1430 C1432 1.384 . S
C1431 C1430 1.377 . S
C1431 C1437 1.390 . S
C1432 H1423 0.930 . S
C1432 C1430 1.384 . S
C1432 C1433 1.372 . S
C1433 C1432 1.372 . S
C1433 C1434 1.400 . S
C1433 C1438 1.490 . S
C1434 H1424 0.930 . S
C1434 C1433 1.400 . S
C1434 C1437 1.386 . S
H1435 C1451 0.930 . S
H1436 C1452 0.931 . S
C1437 H1425 0.929 . S
C1437 C1431 1.390 . S
C1437 C1434 1.386 . S
C1438 C1433 1.490 . S
C1438 C1440 1.394 1_655 S
C1438 C1441 1.403 1_655 S
H1439 C1445 0.930 . S
C1440 H1426 0.914 1_455 S
C1440 C1438 1.394 1_455 S
C1440 C1443 1.420 . S
C1441 C1438 1.403 1_455 S
C1441 C1442 1.524 . S
C1441 C1445 1.400 . S
C1442 H1427 0.960 . S
C1442 H1428 0.960 . S
C1442 H1429 0.960 1_455 S
C1442 C1441 1.524 . S
C1443 C1440 1.420 . S
C1443 C1444 1.392 . S
C1443 C1447 1.495 . S
C1444 C1443 1.392 . S
C1444 C1445 1.385 . S
C1444 C1446 1.478 . S
C1445 H1439 0.930 . S
C1445 C1441 1.400 . S
C1445 C1444 1.385 . S
C1446 C1444 1.478 . S
C1446 C1448 1.381 . S
C1446 C1452 1.383 . S
C1447 C1443 1.495 . S
C1447 H1453 0.959 . S
C1447 H1454 0.961 . S
C1447 H1455 0.960 . S
C1448 C1446 1.381 . S
C1448 C1449 1.394 . S
C1448 H1456 0.930 . S
C1449 C1448 1.394 . S
C1449 C1450 1.383 . S
C1449 H1457 0.929 . S
C1450 C1449 1.383 . S
C1450 C1451 1.377 . S
C1451 H1435 0.930 . S
C1451 C1450 1.377 . S
C1451 C1452 1.379 . S
C1452 H1436 0.931 . S
C1452 C1446 1.383 . S
C1452 C1451 1.379 . S
H1453 C1447 0.959 . S
H1454 C1447 0.961 . S
H1455 C1447 0.960 . S
H1456 C1448 0.930 . S
H1457 C1449 0.929 . S
H1458 C1466 0.929 . S
H1459 C1468 0.930 . S
H1460 C1470 0.930 . S
H1461 C1473 0.929 . S
H1462 C1476 0.930 . S
H1463 C1478 0.960 . S
H1464 C1478 0.960 . S
H1465 C1478 0.960 . S
C1466 H1458 0.929 . S
C1466 C1467 1.377 . S
C1466 C1468 1.384 . S
C1467 C1466 1.377 . S
C1467 C1473 1.390 . S
C1468 H1459 0.930 . S
C1468 C1466 1.384 . S
C1468 C1469 1.372 . S
C1469 C1468 1.372 . S
C1469 C1470 1.400 . S
C1469 C1474 1.490 . S
C1470 H1460 0.930 . S
C1470 C1469 1.400 . S
C1470 C1473 1.386 . S
H1471 C1487 0.930 . S
H1472 C1488 0.931 . S
C1473 H1461 0.929 . S
C1473 C1467 1.390 . S
C1473 C1470 1.386 . S
C1474 C1469 1.490 . S
C1474 C1476 1.395 . S
C1474 C1477 1.403 . S
H1475 C1481 0.930 . S
C1476 H1462 0.930 . S
C1476 C1474 1.395 . S
C1476 C1479 1.403 . S
C1477 C1474 1.403 . S
C1477 C1478 1.524 . S
C1477 C1481 1.400 . S
C1478 H1463 0.960 . S
C1478 H1464 0.960 . S
C1478 H1465 0.960 . S
C1478 C1477 1.524 . S
C1479 C1476 1.403 . S
C1479 C1480 1.392 . S
C1479 C1483 1.495 . S
C1480 C1479 1.392 . S
C1480 C1481 1.385 . S
C1480 C1482 1.478 . S
C1481 H1475 0.930 . S
C1481 C1477 1.400 . S
C1481 C1480 1.385 . S
C1482 C1480 1.478 . S
C1482 C1484 1.381 . S
C1482 C1488 1.383 . S
C1483 C1479 1.495 . S
C1483 H1489 0.959 . S
C1483 H1490 0.961 . S
C1483 H1491 0.960 . S
C1484 C1482 1.381 . S
C1484 C1485 1.394 . S
C1484 H1492 0.930 . S
C1485 C1484 1.394 . S
C1485 C1486 1.383 . S
C1485 H1493 0.929 . S
C1486 C1485 1.383 . S
C1486 C1487 1.377 . S
C1487 H1471 0.930 . S
C1487 C1486 1.377 . S
C1487 C1488 1.379 . S
C1488 H1472 0.931 . S
C1488 C1482 1.383 . S
C1488 C1487 1.379 . S
H1489 C1483 0.959 . S
H1490 C1483 0.961 . S
H1491 C1483 0.960 . S
H1492 C1484 0.930 . S
H1493 C1485 0.929 . S
H1494 C1502 0.929 . S
H1495 C1504 0.930 . S
H1496 C1506 0.930 . S
H1497 C1509 0.929 . S
H1498 C1512 0.930 . S
H1499 C1514 0.960 1_565 S
H1500 C1514 0.960 . S
H1501 C1514 0.960 . S
C1502 H1494 0.929 . S
C1502 C1503 1.377 . S
C1502 C1504 1.384 . S
C1503 C1502 1.377 . S
C1503 C1509 1.390 . S
C1504 H1495 0.930 . S
C1504 C1502 1.384 . S
C1504 C1505 1.372 . S
C1505 C1504 1.372 . S
C1505 C1506 1.400 . S
C1505 C1510 1.490 1_545 S
C1506 H1496 0.930 . S
C1506 C1505 1.400 . S
C1506 C1509 1.386 . S
H1507 C1523 0.930 . S
H1508 C1524 0.931 . S
C1509 H1497 0.929 . S
C1509 C1503 1.390 . S
C1509 C1506 1.386 . S
C1510 C1505 1.490 1_565 S
C1510 C1512 1.395 . S
C1510 C1513 1.403 . S
H1511 C1517 0.930 . S
C1512 H1498 0.930 . S
C1512 C1510 1.395 . S
C1512 C1515 1.403 . S
C1513 C1510 1.403 . S
C1513 C1514 1.524 1_565 S
C1513 C1517 1.400 . S
C1514 H1499 0.960 1_545 S
C1514 H1500 0.960 . S
C1514 H1501 0.960 . S
C1514 C1513 1.524 1_545 S
C1515 C1512 1.403 . S
C1515 C1516 1.392 . S
C1515 C1519 1.495 . S
C1516 C1515 1.392 . S
C1516 C1517 1.385 . S
C1516 C1518 1.478 . S
C1517 H1511 0.930 . S
C1517 C1513 1.400 . S
C1517 C1516 1.385 . S
C1518 C1516 1.478 . S
C1518 C1520 1.381 . S
C1518 C1524 1.383 . S
C1519 C1515 1.495 . S
C1519 H1525 0.959 . S
C1519 H1526 0.961 . S
C1519 H1527 0.960 . S
C1520 C1518 1.381 . S
C1520 C1521 1.394 . S
C1520 H1528 0.930 . S
C1521 C1520 1.394 . S
C1521 C1522 1.383 . S
C1521 H1529 0.929 . S
C1522 C1521 1.383 . S
C1522 C1523 1.377 . S
C1523 H1507 0.930 . S
C1523 C1522 1.377 . S
C1523 C1524 1.379 . S
C1524 H1508 0.931 . S
C1524 C1518 1.383 . S
C1524 C1523 1.379 . S
H1525 C1519 0.959 . S
H1526 C1519 0.961 . S
H1527 C1519 0.960 . S
H1528 C1520 0.930 . S
H1529 C1521 0.929 . S
H1530 C1538 0.929 . S
H1531 C1540 0.930 . S
H1532 C1542 0.930 . S
H1533 C1545 0.929 . S
H1534 C1548 0.930 . S
H1535 C1550 0.960 . S
H1536 C1550 0.960 . S
H1537 C1550 0.960 . S
C1538 H1530 0.929 . S
C1538 C1539 1.377 . S
C1538 C1540 1.384 . S
C1539 C1538 1.377 . S
C1539 C1545 1.390 . S
C1540 H1531 0.930 . S
C1540 C1538 1.384 . S
C1540 C1541 1.372 . S
C1541 C1540 1.372 . S
C1541 C1542 1.400 . S
C1541 C1546 1.490 . S
C1542 H1532 0.930 . S
C1542 C1541 1.400 . S
C1542 C1545 1.386 . S
H1543 C1559 0.930 . S
H1544 C1560 0.931 . S
C1545 H1533 0.929 . S
C1545 C1539 1.390 . S
C1545 C1542 1.386 . S
C1546 C1541 1.490 . S
C1546 C1548 1.395 . S
C1546 C1549 1.403 . S
H1547 C1553 0.930 . S
C1548 H1534 0.930 . S
C1548 C1546 1.395 . S
C1548 C1551 1.403 . S
C1549 C1546 1.403 . S
C1549 C1550 1.524 . S
C1549 C1553 1.400 . S
C1550 H1535 0.960 . S
C1550 H1536 0.960 . S
C1550 H1537 0.960 . S
C1550 C1549 1.524 . S
C1551 C1548 1.403 . S
C1551 C1552 1.392 . S
C1551 C1555 1.495 . S
C1552 C1551 1.392 . S
C1552 C1553 1.385 . S
C1552 C1554 1.478 . S
C1553 H1547 0.930 . S
C1553 C1549 1.400 . S
C1553 C1552 1.385 . S
C1554 C1552 1.478 . S
C1554 C1556 1.381 . S
C1554 C1560 1.383 . S
C1555 C1551 1.495 . S
C1555 H1561 0.959 . S
C1555 H1562 0.961 . S
C1555 H1563 0.960 . S
C1556 C1554 1.381 . S
C1556 C1557 1.394 . S
C1556 H1564 0.930 . S
C1557 C1556 1.394 . S
C1557 C1558 1.383 . S
C1557 H1565 0.929 . S
C1558 C1557 1.383 . S
C1558 C1559 1.377 . S
C1559 H1543 0.930 . S
C1559 C1558 1.377 . S
C1559 C1560 1.379 . S
C1560 H1544 0.931 . S
C1560 C1554 1.383 . S
C1560 C1559 1.379 . S
H1561 C1555 0.959 . S
H1562 C1555 0.961 . S
H1563 C1555 0.960 . S
H1564 C1556 0.930 . S
H1565 C1557 0.929 . S
H1566 C1574 0.929 . S
H1567 C1576 0.930 . S
H1568 C1578 0.930 . S
H1569 C1581 0.929 . S
H1570 C1584 0.930 . S
H1571 C1586 0.960 . S
H1572 C1586 0.960 . S
H1573 C1586 0.960 . S
C1574 H1566 0.929 . S
C1574 C1575 1.377 . S
C1574 C1576 1.384 . S
C1575 C1574 1.377 . S
C1575 C1581 1.390 . S
C1576 H1567 0.930 . S
C1576 C1574 1.384 . S
C1576 C1577 1.372 . S
C1577 C1576 1.372 . S
C1577 C1578 1.400 . S
C1577 C1582 1.490 . S
C1578 H1568 0.930 . S
C1578 C1577 1.400 . S
C1578 C1581 1.386 . S
H1579 C1595 0.930 . S
H1580 C1596 0.931 . S
C1581 H1569 0.929 . S
C1581 C1575 1.390 . S
C1581 C1578 1.386 . S
C1582 C1577 1.490 . S
C1582 C1584 1.395 . S
C1582 C1585 1.403 . S
H1583 C1589 0.930 . S
C1584 H1570 0.930 . S
C1584 C1582 1.395 . S
C1584 C1587 1.403 . S
C1585 C1582 1.403 . S
C1585 C1586 1.524 . S
C1585 C1589 1.400 . S
C1586 H1571 0.960 . S
C1586 H1572 0.960 . S
C1586 H1573 0.960 . S
C1586 C1585 1.524 . S
C1587 C1584 1.403 . S
C1587 C1588 1.392 . S
C1587 C1591 1.495 . S
C1588 C1587 1.392 . S
C1588 C1589 1.385 . S
C1588 C1590 1.478 . S
C1589 H1583 0.930 . S
C1589 C1585 1.400 . S
C1589 C1588 1.385 . S
C1590 C1588 1.478 . S
C1590 C1592 1.381 . S
C1590 C1596 1.383 . S
C1591 C1587 1.495 . S
C1591 H1597 0.959 . S
C1591 H1598 0.961 . S
C1591 H1599 0.960 . S
C1592 C1590 1.381 . S
C1592 C1593 1.394 . S
C1592 H1600 0.930 . S
C1593 C1592 1.394 . S
C1593 C1594 1.383 . S
C1593 H1601 0.929 . S
C1594 C1593 1.383 . S
C1594 C1595 1.377 . S
C1595 H1579 0.930 . S
C1595 C1594 1.377 . S
C1595 C1596 1.379 . S
C1596 H1580 0.931 . S
C1596 C1590 1.383 . S
C1596 C1595 1.379 . S
H1597 C1591 0.959 . S
H1598 C1591 0.961 . S
H1599 C1591 0.960 . S
H1600 C1592 0.930 . S
H1601 C1593 0.929 . S
H1602 C1610 0.929 . S
H1603 C1612 0.930 . S
H1604 C1614 0.930 . S
H1605 C1617 0.929 . S
H1606 C1620 0.930 . S
H1607 C1622 0.960 . S
H1608 C1622 0.960 . S
H1609 C1622 0.960 . S
C1610 H1602 0.929 . S
C1610 C1611 1.377 . S
C1610 C1612 1.384 . S
C1611 C1610 1.377 . S
C1611 C1617 1.390 . S
C1612 H1603 0.930 . S
C1612 C1610 1.384 . S
C1612 C1613 1.372 . S
C1613 C1612 1.372 . S
C1613 C1614 1.400 . S
C1613 C1618 1.490 . S
C1614 H1604 0.930 . S
C1614 C1613 1.400 . S
C1614 C1617 1.386 . S
H1615 C1631 0.930 . S
H1616 C1632 0.931 . S
C1617 H1605 0.929 . S
C1617 C1611 1.390 . S
C1617 C1614 1.386 . S
C1618 C1613 1.490 . S
C1618 C1620 1.395 . S
C1618 C1621 1.403 . S
H1619 C1625 0.930 . S
C1620 H1606 0.930 . S
C1620 C1618 1.395 . S
C1620 C1623 1.403 . S
C1621 C1618 1.403 . S
C1621 C1622 1.524 . S
C1621 C1625 1.400 . S
C1622 H1607 0.960 . S
C1622 H1608 0.960 . S
C1622 H1609 0.960 . S
C1622 C1621 1.524 . S
C1623 C1620 1.403 . S
C1623 C1624 1.392 . S
C1623 C1627 1.495 . S
C1624 C1623 1.392 . S
C1624 C1625 1.385 . S
C1624 C1626 1.478 . S
C1625 H1619 0.930 . S
C1625 C1621 1.400 . S
C1625 C1624 1.385 . S
C1626 C1624 1.478 . S
C1626 C1628 1.381 . S
C1626 C1632 1.383 . S
C1627 C1623 1.495 . S
C1627 H1633 0.959 . S
C1627 H1634 0.961 . S
C1627 H1635 0.960 . S
C1628 C1626 1.381 . S
C1628 C1629 1.394 . S
C1628 H1636 0.930 . S
C1629 C1628 1.394 . S
C1629 C1630 1.383 . S
C1629 H1637 0.929 . S
C1630 C1629 1.383 . S
C1630 C1631 1.377 . S
C1631 H1615 0.930 . S
C1631 C1630 1.377 . S
C1631 C1632 1.379 . S
C1632 H1616 0.931 . S
C1632 C1626 1.383 . S
C1632 C1631 1.379 . S
H1633 C1627 0.959 . S
H1634 C1627 0.961 . S
H1635 C1627 0.960 . S
H1636 C1628 0.930 . S
H1637 C1629 0.929 . S
H1638 C1646 0.929 . S
H1639 C1648 0.930 . S
H1640 C1650 0.930 . S
H1641 C1653 0.929 . S
H1642 C1656 0.930 . S
H1643 C1658 0.960 . S
H1644 C1658 0.960 . S
H1645 C1658 0.960 . S
C1646 H1638 0.929 . S
C1646 C1647 1.377 . S
C1646 C1648 1.384 . S
C1647 C1646 1.377 . S
C1647 C1653 1.390 . S
C1648 H1639 0.930 . S
C1648 C1646 1.384 . S
C1648 C1649 1.372 . S
C1649 C1648 1.372 . S
C1649 C1650 1.400 . S
C1649 C1654 1.490 . S
C1650 H1640 0.930 . S
C1650 C1649 1.400 . S
C1650 C1653 1.386 . S
H1651 C1667 0.930 . S
H1652 C1668 0.931 . S
C1653 H1641 0.929 . S
C1653 C1647 1.390 . S
C1653 C1650 1.386 . S
C1654 C1649 1.490 . S
C1654 C1656 1.395 . S
C1654 C1657 1.403 . S
H1655 C1661 0.930 . S
C1656 H1642 0.930 . S
C1656 C1654 1.395 . S
C1656 C1659 1.403 . S
C1657 C1654 1.403 . S
C1657 C1658 1.524 . S
C1657 C1661 1.400 . S
C1658 H1643 0.960 . S
C1658 H1644 0.960 . S
C1658 H1645 0.960 . S
C1658 C1657 1.524 . S
C1659 C1656 1.403 . S
C1659 C1660 1.392 . S
C1659 C1663 1.495 . S
C1660 C1659 1.392 . S
C1660 C1661 1.385 . S
C1660 C1662 1.478 . S
C1661 H1655 0.930 . S
C1661 C1657 1.400 . S
C1661 C1660 1.385 . S
C1662 C1660 1.478 . S
C1662 C1664 1.381 . S
C1662 C1668 1.383 . S
C1663 C1659 1.495 . S
C1663 H1669 0.959 . S
C1663 H1670 0.961 . S
C1663 H1671 0.960 . S
C1664 C1662 1.381 . S
C1664 C1665 1.394 . S
C1664 H1672 0.930 . S
C1665 C1664 1.394 . S
C1665 C1666 1.383 . S
C1665 H1673 0.929 . S
C1666 C1665 1.383 . S
C1666 C1667 1.377 . S
C1667 H1651 0.930 . S
C1667 C1666 1.377 . S
C1667 C1668 1.379 . S
C1668 H1652 0.931 . S
C1668 C1662 1.383 . S
C1668 C1667 1.379 . S
H1669 C1663 0.959 . S
H1670 C1663 0.961 . S
H1671 C1663 0.960 . S
H1672 C1664 0.930 . S
H1673 C1665 0.929 . S
H1674 C1682 0.929 . S
H1675 C1684 0.930 . S
H1676 C1686 0.930 . S
H1677 C1689 0.929 . S
H1678 C1692 0.930 . S
H1679 C1694 0.960 . S
H1680 C1694 0.960 . S
H1681 C1694 0.960 . S
C1682 H1674 0.929 . S
C1682 C1683 1.377 . S
C1682 C1684 1.384 . S
C1683 C1682 1.377 . S
C1683 C1689 1.390 . S
C1684 H1675 0.930 . S
C1684 C1682 1.384 . S
C1684 C1685 1.372 . S
C1685 C1684 1.372 . S
C1685 C1686 1.400 . S
C1685 C1690 1.490 . S
C1686 H1676 0.930 . S
C1686 C1685 1.400 . S
C1686 C1689 1.386 . S
H1687 C1703 0.930 . S
H1688 C1704 0.931 . S
C1689 H1677 0.929 . S
C1689 C1683 1.390 . S
C1689 C1686 1.386 . S
C1690 C1685 1.490 . S
C1690 C1692 1.395 . S
C1690 C1693 1.403 . S
H1691 C1697 0.930 . S
C1692 H1678 0.930 . S
C1692 C1690 1.395 . S
C1692 C1695 1.403 . S
C1693 C1690 1.403 . S
C1693 C1694 1.524 . S
C1693 C1697 1.400 . S
C1694 H1679 0.960 . S
C1694 H1680 0.960 . S
C1694 H1681 0.960 . S
C1694 C1693 1.524 . S
C1695 C1692 1.403 . S
C1695 C1696 1.392 . S
C1695 C1699 1.495 . S
C1696 C1695 1.392 . S
C1696 C1697 1.385 . S
C1696 C1698 1.478 . S
C1697 H1691 0.930 . S
C1697 C1693 1.400 . S
C1697 C1696 1.385 . S
C1698 C1696 1.478 . S
C1698 C1700 1.381 . S
C1698 C1704 1.383 . S
C1699 C1695 1.495 . S
C1699 H1705 0.959 . S
C1699 H1706 0.961 . S
C1699 H1707 0.960 . S
C1700 C1698 1.381 . S
C1700 C1701 1.394 . S
C1700 H1708 0.930 . S
C1701 C1700 1.394 . S
C1701 C1702 1.383 . S
C1701 H1709 0.929 . S
C1702 C1701 1.383 . S
C1702 C1703 1.377 . S
C1703 H1687 0.930 . S
C1703 C1702 1.377 . S
C1703 C1704 1.379 . S
C1704 H1688 0.931 . S
C1704 C1698 1.383 . S
C1704 C1703 1.379 . S
H1705 C1699 0.959 . S
H1706 C1699 0.961 . S
H1707 C1699 0.960 . S
H1708 C1700 0.930 . S
H1709 C1701 0.929 . S
H1710 C1718 0.929 . S
H1711 C1720 0.930 . S
H1712 C1722 0.930 . S
H1713 C1725 0.929 . S
H1714 C1728 0.930 . S
H1715 C1730 0.960 . S
H1716 C1730 0.960 . S
H1717 C1730 0.960 . S
C1718 H1710 0.929 . S
C1718 C1719 1.377 . S
C1718 C1720 1.384 . S
C1719 C1718 1.377 . S
C1719 C1725 1.390 . S
C1720 H1711 0.930 . S
C1720 C1718 1.384 . S
C1720 C1721 1.372 . S
C1721 C1720 1.372 . S
C1721 C1722 1.400 . S
C1721 C1726 1.490 . S
C1722 H1712 0.930 . S
C1722 C1721 1.400 . S
C1722 C1725 1.386 . S
H1723 C1739 0.930 . S
H1724 C1740 0.931 . S
C1725 H1713 0.929 . S
C1725 C1719 1.390 . S
C1725 C1722 1.386 . S
C1726 C1721 1.490 . S
C1726 C1728 1.395 . S
C1726 C1729 1.403 . S
H1727 C1733 0.930 . S
C1728 H1714 0.930 . S
C1728 C1726 1.395 . S
C1728 C1731 1.403 . S
C1729 C1726 1.403 . S
C1729 C1730 1.524 . S
C1729 C1733 1.400 . S
C1730 H1715 0.960 . S
C1730 H1716 0.960 . S
C1730 H1717 0.960 . S
C1730 C1729 1.524 . S
C1731 C1728 1.403 . S
C1731 C1732 1.392 . S
C1731 C1735 1.495 . S
C1732 C1731 1.392 . S
C1732 C1733 1.385 . S
C1732 C1734 1.478 . S
C1733 H1727 0.930 . S
C1733 C1729 1.400 . S
C1733 C1732 1.385 . S
C1734 C1732 1.478 . S
C1734 C1736 1.381 . S
C1734 C1740 1.383 . S
C1735 C1731 1.495 . S
C1735 H1741 0.959 . S
C1735 H1742 0.961 . S
C1735 H1743 0.960 . S
C1736 C1734 1.381 . S
C1736 C1737 1.394 . S
C1736 H1744 0.930 . S
C1737 C1736 1.394 . S
C1737 C1738 1.383 . S
C1737 H1745 0.929 . S
C1738 C1737 1.383 . S
C1738 C1739 1.377 . S
C1739 H1723 0.930 . S
C1739 C1738 1.377 . S
C1739 C1740 1.379 . S
C1740 H1724 0.931 . S
C1740 C1734 1.383 . S
C1740 C1739 1.379 . S
H1741 C1735 0.959 . S
H1742 C1735 0.961 . S
H1743 C1735 0.960 . S
H1744 C1736 0.930 . S
H1745 C1737 0.929 . S
H1746 C1754 0.929 . S
H1747 C1756 0.930 . S
H1748 C1758 0.930 . S
H1749 C1761 0.929 . S
H1750 C1764 0.930 . S
H1751 C1766 0.960 . S
H1752 C1766 0.960 . S
H1753 C1766 0.960 . S
C1754 H1746 0.929 . S
C1754 C1755 1.377 . S
C1754 C1756 1.384 . S
C1755 C1754 1.377 . S
C1755 C1761 1.390 . S
C1756 H1747 0.930 . S
C1756 C1754 1.384 . S
C1756 C1757 1.372 . S
C1757 C1756 1.372 . S
C1757 C1758 1.400 . S
C1757 C1762 1.490 . S
C1758 H1748 0.930 . S
C1758 C1757 1.400 . S
C1758 C1761 1.386 . S
H1759 C1775 0.930 . S
H1760 C1776 0.931 . S
C1761 H1749 0.929 . S
C1761 C1755 1.390 . S
C1761 C1758 1.386 . S
C1762 C1757 1.490 . S
C1762 C1764 1.395 . S
C1762 C1765 1.403 1_545 S
H1763 C1769 0.930 . S
C1764 H1750 0.930 . S
C1764 C1762 1.395 . S
C1764 C1767 1.403 1_545 S
C1765 C1762 1.403 1_565 S
C1765 C1766 1.524 . S
C1765 C1769 1.400 . S
C1766 H1751 0.960 . S
C1766 H1752 0.960 . S
C1766 H1753 0.960 . S
C1766 C1765 1.524 . S
C1767 C1764 1.403 1_565 S
C1767 C1768 1.392 . S
C1767 C1771 1.495 . S
C1768 C1767 1.392 . S
C1768 C1769 1.385 . S
C1768 C1770 1.478 . S
C1769 H1763 0.930 . S
C1769 C1765 1.400 . S
C1769 C1768 1.385 . S
C1770 C1768 1.478 . S
C1770 C1772 1.381 . S
C1770 C1776 1.383 . S
C1771 C1767 1.495 . S
C1771 H1777 0.959 1_565 S
C1771 H1778 0.961 . S
C1771 H1779 0.960 . S
C1772 C1770 1.381 . S
C1772 C1773 1.394 . S
C1772 H1780 0.930 . S
C1773 C1772 1.394 . S
C1773 C1774 1.383 . S
C1773 H1781 0.929 . S
C1774 C1773 1.383 . S
C1774 C1775 1.377 . S
C1775 H1759 0.930 . S
C1775 C1774 1.377 . S
C1775 C1776 1.379 . S
C1776 H1760 0.931 . S
C1776 C1770 1.383 . S
C1776 C1775 1.379 . S
H1777 C1771 0.959 1_545 S
H1778 C1771 0.961 . S
H1779 C1771 0.960 . S
H1780 C1772 0.930 . S
H1781 C1773 0.929 . S
H1782 C1790 0.929 . S
H1783 C1792 0.930 1_455 S
H1784 C1794 0.930 . S
H1785 C1797 0.929 . S
H1786 C1800 0.930 . S
H1787 C1802 0.983 . S
H1788 C1802 0.960 . S
H1789 C1802 0.960 . S
C1790 H1782 0.929 . S
C1790 C1791 1.377 . S
C1790 C1792 1.384 . S
C1791 C1790 1.377 . S
C1791 C1797 1.390 . S
C1792 H1783 0.930 1_655 S
C1792 C1790 1.384 . S
C1792 C1793 1.372 . S
C1793 C1792 1.372 . S
C1793 C1794 1.400 . S
C1793 C1798 1.490 1_655 S
C1794 H1784 0.930 . S
C1794 C1793 1.400 . S
C1794 C1797 1.386 . S
H1795 C1811 0.930 . S
H1796 C1812 0.931 . S
C1797 H1785 0.929 . S
C1797 C1791 1.390 . S
C1797 C1794 1.386 . S
C1798 C1793 1.490 1_455 S
C1798 C1800 1.395 . S
C1798 C1801 1.403 . S
H1799 C1805 0.930 . S
C1800 H1786 0.930 . S
C1800 C1798 1.395 . S
C1800 C1803 1.403 . S
C1801 C1798 1.403 . S
C1801 C1802 1.524 1_455 S
C1801 C1805 1.400 . S
C1802 H1787 0.983 . S
C1802 H1788 0.960 . S
C1802 H1789 0.960 . S
C1802 C1801 1.524 1_655 S
C1803 C1800 1.403 . S
C1803 C1804 1.392 . S
C1803 C1807 1.495 . S
C1804 C1803 1.392 . S
C1804 C1805 1.385 . S
C1804 C1806 1.478 . S
C1805 H1799 0.930 . S
C1805 C1801 1.400 . S
C1805 C1804 1.385 . S
C1806 C1804 1.478 . S
C1806 C1808 1.381 . S
C1806 C1812 1.383 . S
C1807 C1803 1.495 . S
C1807 H1813 0.959 . S
C1807 H1814 0.961 . S
C1807 H1815 0.960 . S
C1808 C1806 1.381 . S
C1808 C1809 1.394 . S
C1808 H1816 0.930 . S
C1809 C1808 1.394 . S
C1809 C1810 1.383 . S
C1809 H1817 0.929 . S
C1810 C1809 1.383 . S
C1810 C1811 1.377 . S
C1811 H1795 0.930 . S
C1811 C1810 1.377 . S
C1811 C1812 1.379 . S
C1812 H1796 0.931 . S
C1812 C1806 1.383 . S
C1812 C1811 1.379 . S
H1813 C1807 0.959 . S
H1814 C1807 0.961 . S
H1815 C1807 0.960 . S
H1816 C1808 0.930 . S
H1817 C1809 0.929 . S
H1818 C1826 0.929 . S
H1819 C1828 0.930 . S
H1820 C1830 0.930 . S
H1821 C1833 0.929 . S
H1822 C1836 0.930 . S
H1823 C1838 0.960 . S
H1824 C1838 0.960 . S
H1825 C1838 0.960 . S
C1826 H1818 0.929 . S
C1826 C1827 1.377 . S
C1826 C1828 1.384 . S
C1827 C1826 1.377 . S
C1827 C1833 1.390 . S
C1828 H1819 0.930 . S
C1828 C1826 1.384 . S
C1828 C1829 1.372 . S
C1829 C1828 1.372 . S
C1829 C1830 1.400 . S
C1829 C1834 1.490 . S
C1830 H1820 0.930 . S
C1830 C1829 1.400 . S
C1830 C1833 1.386 . S
H1831 C1847 0.930 . S
H1832 C1848 0.931 . S
C1833 H1821 0.929 . S
C1833 C1827 1.390 . S
C1833 C1830 1.386 . S
C1834 C1829 1.490 . S
C1834 C1836 1.395 . S
C1834 C1837 1.403 . S
H1835 C1841 0.930 . S
C1836 H1822 0.930 . S
C1836 C1834 1.395 . S
C1836 C1839 1.403 . S
C1837 C1834 1.403 . S
C1837 C1838 1.524 . S
C1837 C1841 1.400 . S
C1838 H1823 0.960 . S
C1838 H1824 0.960 . S
C1838 H1825 0.960 . S
C1838 C1837 1.524 . S
C1839 C1836 1.403 . S
C1839 C1840 1.392 . S
C1839 C1843 1.495 . S
C1840 C1839 1.392 . S
C1840 C1841 1.385 . S
C1840 C1842 1.478 . S
C1841 H1835 0.930 . S
C1841 C1837 1.400 . S
C1841 C1840 1.385 . S
C1842 C1840 1.478 . S
C1842 C1844 1.381 . S
C1842 C1848 1.383 . S
C1843 C1839 1.495 . S
C1843 H1849 0.959 . S
C1843 H1850 0.961 . S
C1843 H1851 0.960 . S
C1844 C1842 1.381 . S
C1844 C1845 1.394 . S
C1844 H1852 0.930 . S
C1845 C1844 1.394 . S
C1845 C1846 1.383 . S
C1845 H1853 0.929 . S
C1846 C1845 1.383 . S
C1846 C1847 1.377 . S
C1847 H1831 0.930 . S
C1847 C1846 1.377 . S
C1847 C1848 1.379 . S
C1848 H1832 0.931 . S
C1848 C1842 1.383 . S
C1848 C1847 1.379 . S
H1849 C1843 0.959 . S
H1850 C1843 0.961 . S
H1851 C1843 0.960 . S
H1852 C1844 0.930 . S
H1853 C1845 0.929 . S
H1854 C1862 0.929 . S
H1855 C1864 0.930 . S
H1856 C1866 0.930 . S
H1857 C1869 0.929 . S
H1858 C1872 0.930 . S
H1859 C1874 0.960 . S
H1860 C1874 0.960 . S
H1861 C1874 0.960 . S
C1862 H1854 0.929 . S
C1862 C1863 1.377 . S
C1862 C1864 1.384 . S
C1863 C1862 1.377 . S
C1863 C1869 1.390 . S
C1864 H1855 0.930 . S
C1864 C1862 1.384 . S
C1864 C1865 1.372 . S
C1865 C1864 1.372 . S
C1865 C1866 1.400 . S
C1865 C1870 1.490 . S
C1866 H1856 0.930 . S
C1866 C1865 1.400 . S
C1866 C1869 1.386 . S
H1867 C1883 0.930 . S
H1868 C1884 0.931 . S
C1869 H1857 0.929 . S
C1869 C1863 1.390 . S
C1869 C1866 1.386 . S
C1870 C1865 1.490 . S
C1870 C1872 1.395 . S
C1870 C1873 1.403 . S
H1871 C1877 0.930 . S
C1872 H1858 0.930 . S
C1872 C1870 1.395 . S
C1872 C1875 1.403 . S
C1873 C1870 1.403 . S
C1873 C1874 1.524 . S
C1873 C1877 1.400 . S
C1874 H1859 0.960 . S
C1874 H1860 0.960 . S
C1874 H1861 0.960 . S
C1874 C1873 1.524 . S
C1875 C1872 1.403 . S
C1875 C1876 1.392 . S
C1875 C1879 1.495 . S
C1876 C1875 1.392 . S
C1876 C1877 1.385 . S
C1876 C1878 1.478 . S
C1877 H1871 0.930 . S
C1877 C1873 1.400 . S
C1877 C1876 1.385 . S
C1878 C1876 1.478 . S
C1878 C1880 1.381 . S
C1878 C1884 1.383 . S
C1879 C1875 1.495 . S
C1879 H1885 0.959 . S
C1879 H1886 0.961 . S
C1879 H1887 0.960 . S
C1880 C1878 1.381 . S
C1880 C1881 1.394 . S
C1880 H1888 0.930 . S
C1881 C1880 1.394 . S
C1881 C1882 1.383 . S
C1881 H1889 0.929 . S
C1882 C1881 1.383 . S
C1882 C1883 1.377 . S
C1883 H1867 0.930 . S
C1883 C1882 1.377 . S
C1883 C1884 1.379 . S
C1884 H1868 0.931 . S
C1884 C1878 1.383 . S
C1884 C1883 1.379 . S
H1885 C1879 0.959 . S
H1886 C1879 0.961 . S
H1887 C1879 0.960 . S
H1888 C1880 0.930 . S
H1889 C1881 0.929 . S
H1890 C1898 0.929 . S
H1891 C1900 0.930 . S
H1892 C1902 0.930 . S
H1893 C1905 0.929 . S
H1894 C1908 0.930 . S
H1895 C1910 0.960 . S
H1896 C1910 0.960 . S
H1897 C1910 0.960 . S
C1898 H1890 0.929 . S
C1898 C1899 1.377 . S
C1898 C1900 1.384 . S
C1899 C1898 1.377 . S
C1899 C1905 1.390 . S
C1900 H1891 0.930 . S
C1900 C1898 1.384 . S
C1900 C1901 1.372 . S
C1901 C1900 1.372 . S
C1901 C1902 1.400 . S
C1901 C1906 1.490 . S
C1902 H1892 0.930 . S
C1902 C1901 1.400 . S
C1902 C1905 1.386 . S
H1903 C1919 0.930 . S
H1904 C1920 0.931 . S
C1905 H1893 0.929 . S
C1905 C1899 1.390 . S
C1905 C1902 1.386 . S
C1906 C1901 1.490 . S
C1906 C1908 1.395 . S
C1906 C1909 1.403 . S
H1907 C1913 0.930 . S
C1908 H1894 0.930 . S
C1908 C1906 1.395 . S
C1908 C1911 1.403 . S
C1909 C1906 1.403 . S
C1909 C1910 1.524 . S
C1909 C1913 1.400 . S
C1910 H1895 0.960 . S
C1910 H1896 0.960 . S
C1910 H1897 0.960 . S
C1910 C1909 1.524 . S
C1911 C1908 1.403 . S
C1911 C1912 1.392 . S
C1911 C1915 1.495 . S
C1912 C1911 1.392 . S
C1912 C1913 1.385 . S
C1912 C1914 1.478 . S
C1913 H1907 0.930 . S
C1913 C1909 1.400 . S
C1913 C1912 1.385 . S
C1914 C1912 1.478 . S
C1914 C1916 1.381 . S
C1914 C1920 1.383 . S
C1915 C1911 1.495 . S
C1915 H1921 0.959 . S
C1915 H1922 0.961 . S
C1915 H1923 0.960 . S
C1916 C1914 1.381 . S
C1916 C1917 1.394 . S
C1916 H1924 0.930 . S
C1917 C1916 1.394 . S
C1917 C1918 1.383 . S
C1917 H1925 0.929 . S
C1918 C1917 1.383 . S
C1918 C1919 1.377 . S
C1919 H1903 0.930 . S
C1919 C1918 1.377 . S
C1919 C1920 1.379 . S
C1920 H1904 0.931 . S
C1920 C1914 1.383 . S
C1920 C1919 1.379 . S
H1921 C1915 0.959 . S
H1922 C1915 0.961 . S
H1923 C1915 0.960 . S
H1924 C1916 0.930 . S
H1925 C1917 0.929 . S
H1926 C1934 0.929 . S
H1927 C1936 0.930 . S
H1928 C1938 0.930 . S
H1929 C1941 0.929 . S
H1930 C1944 0.930 . S
H1931 C1946 0.960 . S
H1932 C1946 0.960 . S
H1933 C1946 0.960 . S
C1934 H1926 0.929 . S
C1934 C1935 1.377 . S
C1934 C1936 1.384 . S
C1935 C1934 1.377 . S
C1935 C1941 1.390 . S
C1936 H1927 0.930 . S
C1936 C1934 1.384 . S
C1936 C1937 1.372 . S
C1937 C1936 1.372 . S
C1937 C1938 1.400 . S
C1937 C1942 1.490 . S
C1938 H1928 0.930 . S
C1938 C1937 1.400 . S
C1938 C1941 1.386 . S
H1939 C1955 0.930 . S
H1940 C1956 0.931 . S
C1941 H1929 0.929 . S
C1941 C1935 1.390 . S
C1941 C1938 1.386 . S
C1942 C1937 1.490 . S
C1942 C1944 1.395 . S
C1942 C1945 1.403 . S
H1943 C1949 0.930 . S
C1944 H1930 0.930 . S
C1944 C1942 1.395 . S
C1944 C1947 1.403 . S
C1945 C1942 1.403 . S
C1945 C1946 1.524 . S
C1945 C1949 1.400 . S
C1946 H1931 0.960 . S
C1946 H1932 0.960 . S
C1946 H1933 0.960 . S
C1946 C1945 1.524 . S
C1947 C1944 1.403 . S
C1947 C1948 1.392 . S
C1947 C1951 1.495 . S
C1948 C1947 1.392 . S
C1948 C1949 1.385 . S
C1948 C1950 1.478 . S
C1949 H1943 0.930 . S
C1949 C1945 1.400 . S
C1949 C1948 1.385 . S
C1950 C1948 1.478 . S
C1950 C1952 1.381 . S
C1950 C1956 1.383 . S
C1951 C1947 1.495 . S
C1951 H1957 0.959 . S
C1951 H1958 0.961 . S
C1951 H1959 0.960 . S
C1952 C1950 1.381 . S
C1952 C1953 1.394 . S
C1952 H1960 0.930 . S
C1953 C1952 1.394 . S
C1953 C1954 1.383 . S
C1953 H1961 0.929 . S
C1954 C1953 1.383 . S
C1954 C1955 1.377 . S
C1955 H1939 0.930 . S
C1955 C1954 1.377 . S
C1955 C1956 1.379 . S
C1956 H1940 0.931 . S
C1956 C1950 1.383 . S
C1956 C1955 1.379 . S
H1957 C1951 0.959 . S
H1958 C1951 0.961 . S
H1959 C1951 0.960 . S
H1960 C1952 0.930 . S
H1961 C1953 0.929 . S
H1962 C1970 0.929 . S
H1963 C1972 0.930 . S
H1964 C1974 0.930 . S
H1965 C1977 0.929 . S
H1966 C1980 0.930 . S
H1967 C1982 0.960 . S
H1968 C1982 0.960 1_565 S
H1969 C1982 0.960 . S
C1970 H1962 0.929 . S
C1970 C1971 1.377 . S
C1970 C1972 1.384 . S
C1971 C1970 1.377 . S
C1971 C1977 1.390 . S
C1972 H1963 0.930 . S
C1972 C1970 1.384 . S
C1972 C1973 1.372 . S
C1973 C1972 1.372 . S
C1973 C1974 1.400 . S
C1973 C1978 1.490 1_565 S
C1974 H1964 0.930 . S
C1974 C1973 1.400 . S
C1974 C1977 1.386 . S
H1975 C1991 0.930 . S
H1976 C1992 0.931 . S
C1977 H1965 0.929 . S
C1977 C1971 1.390 . S
C1977 C1974 1.386 . S
C1978 C1973 1.490 1_545 S
C1978 C1980 1.395 . S
C1978 C1981 1.403 . S
H1979 C1985 0.930 . S
C1980 H1966 0.930 . S
C1980 C1978 1.395 . S
C1980 C1983 1.403 . S
C1981 C1978 1.403 . S
C1981 C1982 1.524 . S
C1981 C1985 1.400 . S
C1982 H1967 0.960 . S
C1982 H1968 0.960 1_545 S
C1982 H1969 0.960 . S
C1982 C1981 1.524 . S
C1983 C1980 1.403 . S
C1983 C1984 1.392 . S
C1983 C1987 1.495 . S
C1984 C1983 1.392 . S
C1984 C1985 1.385 . S
C1984 C1986 1.478 . S
C1985 H1979 0.930 . S
C1985 C1981 1.400 . S
C1985 C1984 1.385 . S
C1986 C1984 1.478 . S
C1986 C1988 1.381 . S
C1986 C1992 1.383 . S
C1987 C1983 1.495 . S
C1987 H1993 0.959 . S
C1987 H1994 0.961 . S
C1987 H1995 0.960 . S
C1988 C1986 1.381 . S
C1988 C1989 1.394 . S
C1988 H1996 0.930 . S
C1989 C1988 1.394 . S
C1989 C1990 1.383 . S
C1989 H1997 0.929 . S
C1990 C1989 1.383 . S
C1990 C1991 1.377 . S
C1991 H1975 0.930 . S
C1991 C1990 1.377 . S
C1991 C1992 1.379 . S
C1992 H1976 0.931 . S
C1992 C1986 1.383 . S
C1992 C1991 1.379 . S
H1993 C1987 0.959 . S
H1994 C1987 0.961 . S
H1995 C1987 0.960 . S
H1996 C1988 0.930 . S
H1997 C1989 0.929 . S
H1998 C2006 0.929 . S
H1999 C2008 0.930 . S
H2000 C2010 0.930 . S
H2001 C2013 0.929 . S
H2002 C2016 0.930 . S
H2003 C2018 0.960 . S
H2004 C2018 0.960 . S
H2005 C2018 0.960 . S
C2006 H1998 0.929 . S
C2006 C2007 1.377 . S
C2006 C2008 1.384 1_455 S
C2007 C2006 1.377 . S
C2007 C2013 1.390 . S
C2008 H1999 0.930 . S
C2008 C2006 1.384 1_655 S
C2008 C2009 1.372 . S
C2009 C2008 1.372 . S
C2009 C2010 1.400 1_655 S
C2009 C2014 1.490 . S
C2010 H2000 0.930 . S
C2010 C2009 1.400 1_455 S
C2010 C2013 1.386 . S
H2011 C2027 0.930 . S
H2012 C2028 0.931 . S
C2013 H2001 0.929 . S
C2013 C2007 1.390 . S
C2013 C2010 1.386 . S
C2014 C2009 1.490 . S
C2014 C2016 1.395 . S
C2014 C2017 1.403 . S
H2015 C2021 0.930 . S
C2016 H2002 0.930 . S
C2016 C2014 1.395 . S
C2016 C2019 1.403 . S
C2017 C2014 1.403 . S
C2017 C2018 1.524 . S
C2017 C2021 1.400 . S
C2018 H2003 0.960 . S
C2018 H2004 0.960 . S
C2018 H2005 0.960 . S
C2018 C2017 1.524 . S
C2019 C2016 1.403 . S
C2019 C2020 1.392 . S
C2019 C2023 1.495 . S
C2020 C2019 1.392 . S
C2020 C2021 1.385 . S
C2020 C2022 1.478 . S
C2021 H2015 0.930 . S
C2021 C2017 1.400 . S
C2021 C2020 1.385 . S
C2022 C2020 1.478 . S
C2022 C2024 1.381 . S
C2022 C2028 1.383 . S
C2023 C2019 1.495 . S
C2023 H2029 0.959 . S
C2023 H2030 0.961 . S
C2023 H2031 0.960 . S
C2024 C2022 1.381 . S
C2024 C2025 1.394 . S
C2024 H2032 0.930 . S
C2025 C2024 1.394 . S
C2025 C2026 1.383 . S
C2025 H2033 0.929 . S
C2026 C2025 1.383 . S
C2026 C2027 1.377 . S
C2027 H2011 0.930 . S
C2027 C2026 1.377 . S
C2027 C2028 1.379 . S
C2028 H2012 0.931 . S
C2028 C2022 1.383 . S
C2028 C2027 1.379 . S
H2029 C2023 0.959 . S
H2030 C2023 0.961 . S
H2031 C2023 0.960 . S
H2032 C2024 0.930 . S
H2033 C2025 0.929 . S
H2034 C2042 0.929 . S
H2035 C2044 0.930 . S
H2036 C2046 0.930 . S
H2037 C2049 0.929 . S
H2038 C2052 0.930 . S
H2039 C2054 0.960 . S
H2040 C2054 0.960 . S
H2041 C2054 0.960 . S
C2042 H2034 0.929 . S
C2042 C2043 1.377 . S
C2042 C2044 1.384 . S
C2043 C2042 1.377 . S
C2043 C2049 1.390 . S
C2044 H2035 0.930 . S
C2044 C2042 1.384 . S
C2044 C2045 1.372 . S
C2045 C2044 1.372 . S
C2045 C2046 1.400 . S
C2045 C2050 1.490 . S
C2046 H2036 0.930 . S
C2046 C2045 1.400 . S
C2046 C2049 1.386 . S
H2047 C2063 0.930 . S
H2048 C2064 0.931 . S
C2049 H2037 0.929 . S
C2049 C2043 1.390 . S
C2049 C2046 1.386 . S
C2050 C2045 1.490 . S
C2050 C2052 1.395 . S
C2050 C2053 1.403 . S
H2051 C2057 0.930 . S
C2052 H2038 0.930 . S
C2052 C2050 1.395 . S
C2052 C2055 1.403 . S
C2053 C2050 1.403 . S
C2053 C2054 1.524 . S
C2053 C2057 1.400 . S
C2054 H2039 0.960 . S
C2054 H2040 0.960 . S
C2054 H2041 0.960 . S
C2054 C2053 1.524 . S
C2055 C2052 1.403 . S
C2055 C2056 1.392 . S
C2055 C2059 1.495 . S
C2056 C2055 1.392 . S
C2056 C2057 1.385 . S
C2056 C2058 1.478 . S
C2057 H2051 0.930 . S
C2057 C2053 1.400 . S
C2057 C2056 1.385 . S
C2058 C2056 1.478 . S
C2058 C2060 1.381 . S
C2058 C2064 1.383 . S
C2059 C2055 1.495 . S
C2059 H2065 0.959 . S
C2059 H2066 0.961 . S
C2059 H2067 0.960 . S
C2060 C2058 1.381 . S
C2060 C2061 1.394 . S
C2060 H2068 0.930 . S
C2061 C2060 1.394 . S
C2061 C2062 1.383 . S
C2061 H2069 0.929 . S
C2062 C2061 1.383 . S
C2062 C2063 1.377 . S
C2063 H2047 0.930 . S
C2063 C2062 1.377 . S
C2063 C2064 1.379 . S
C2064 H2048 0.931 . S
C2064 C2058 1.383 . S
C2064 C2063 1.379 . S
H2065 C2059 0.959 . S
H2066 C2059 0.961 . S
H2067 C2059 0.960 . S
H2068 C2060 0.930 . S
H2069 C2061 0.929 . S
H2070 C2078 0.929 . S
H2071 C2080 0.930 . S
H2072 C2082 0.930 . S
H2073 C2085 0.929 . S
H2074 C2088 0.930 . S
H2075 C2090 0.973 . S
H2076 C2090 0.960 . S
H2077 C2090 0.960 . S
C2078 H2070 0.929 . S
C2078 C2079 1.377 . S
C2078 C2080 1.384 . S
C2079 C2078 1.377 . S
C2079 C2085 1.390 . S
C2080 H2071 0.930 . S
C2080 C2078 1.384 . S
C2080 C2081 1.372 . S
C2081 C2080 1.372 . S
C2081 C2082 1.400 . S
C2081 C2086 1.490 . S
C2082 H2072 0.930 . S
C2082 C2081 1.400 . S
C2082 C2085 1.386 . S
H2083 C2099 0.930 . S
H2084 C2100 0.931 . S
C2085 H2073 0.929 . S
C2085 C2079 1.390 . S
C2085 C2082 1.386 . S
C2086 C2081 1.490 . S
C2086 C2088 1.395 . S
C2086 C2089 1.403 . S
H2087 C2093 0.930 . S
C2088 H2074 0.930 . S
C2088 C2086 1.395 . S
C2088 C2091 1.403 . S
C2089 C2086 1.403 . S
C2089 C2090 1.524 . S
C2089 C2093 1.400 1_455 S
C2090 H2075 0.973 . S
C2090 H2076 0.960 . S
C2090 H2077 0.960 . S
C2090 C2089 1.524 . S
C2091 C2088 1.403 . S
C2091 C2092 1.392 1_455 S
C2091 C2095 1.495 . S
C2092 C2091 1.392 1_655 S
C2092 C2093 1.385 . S
C2092 C2094 1.478 . S
C2093 H2087 0.930 . S
C2093 C2089 1.400 1_655 S
C2093 C2092 1.385 . S
C2094 C2092 1.478 . S
C2094 C2096 1.381 . S
C2094 C2100 1.383 . S
C2095 C2091 1.495 . S
C2095 H2101 0.959 . S
C2095 H2102 0.961 . S
C2095 H2103 0.960 1_455 S
C2096 C2094 1.381 . S
C2096 C2097 1.394 . S
C2096 H2104 0.930 . S
C2097 C2096 1.394 . S
C2097 C2098 1.383 . S
C2097 H2105 0.929 . S
C2098 C2097 1.383 . S
C2098 C2099 1.377 . S
C2099 H2083 0.930 . S
C2099 C2098 1.377 . S
C2099 C2100 1.379 . S
C2100 H2084 0.931 . S
C2100 C2094 1.383 . S
C2100 C2099 1.379 . S
H2101 C2095 0.959 . S
H2102 C2095 0.961 . S
H2103 C2095 0.960 1_655 S
H2104 C2096 0.930 . S
H2105 C2097 0.929 . S
H2106 C2114 0.929 . S
H2107 C2116 0.930 . S
H2108 C2118 0.930 . S
H2109 C2121 0.929 . S
H2110 C2124 0.930 . S
H2111 C2126 0.960 . S
H2112 C2126 0.960 . S
H2113 C2126 0.960 . S
C2114 H2106 0.929 . S
C2114 C2115 1.377 . S
C2114 C2116 1.384 . S
C2115 C2114 1.377 . S
C2115 C2121 1.390 . S
C2116 H2107 0.930 . S
C2116 C2114 1.384 . S
C2116 C2117 1.372 . S
C2117 C2116 1.372 . S
C2117 C2118 1.400 . S
C2117 C2122 1.490 . S
C2118 H2108 0.930 . S
C2118 C2117 1.400 . S
C2118 C2121 1.386 . S
H2119 C2135 0.930 . S
H2120 C2136 0.931 . S
C2121 H2109 0.929 . S
C2121 C2115 1.390 . S
C2121 C2118 1.386 . S
C2122 C2117 1.490 . S
C2122 C2124 1.395 . S
C2122 C2125 1.403 . S
H2123 C2129 0.930 . S
C2124 H2110 0.930 . S
C2124 C2122 1.395 . S
C2124 C2127 1.403 . S
C2125 C2122 1.403 . S
C2125 C2126 1.524 . S
C2125 C2129 1.400 . S
C2126 H2111 0.960 . S
C2126 H2112 0.960 . S
C2126 H2113 0.960 . S
C2126 C2125 1.524 . S
C2127 C2124 1.403 . S
C2127 C2128 1.392 . S
C2127 C2131 1.495 . S
C2128 C2127 1.392 . S
C2128 C2129 1.385 . S
C2128 C2130 1.478 . S
C2129 H2123 0.930 . S
C2129 C2125 1.400 . S
C2129 C2128 1.385 . S
C2130 C2128 1.478 . S
C2130 C2132 1.381 . S
C2130 C2136 1.383 . S
C2131 C2127 1.495 . S
C2131 H2137 0.959 . S
C2131 H2138 0.961 . S
C2131 H2139 0.960 . S
C2132 C2130 1.381 . S
C2132 C2133 1.394 . S
C2132 H2140 0.930 . S
C2133 C2132 1.394 . S
C2133 C2134 1.383 . S
C2133 H2141 0.929 . S
C2134 C2133 1.383 . S
C2134 C2135 1.377 . S
C2135 H2119 0.930 . S
C2135 C2134 1.377 . S
C2135 C2136 1.379 . S
C2136 H2120 0.931 . S
C2136 C2130 1.383 . S
C2136 C2135 1.379 . S
H2137 C2131 0.959 . S
H2138 C2131 0.961 . S
H2139 C2131 0.960 . S
H2140 C2132 0.930 . S
H2141 C2133 0.929 . S
H2142 C2150 0.929 . S
H2143 C2152 0.930 . S
H2144 C2154 0.930 . S
H2145 C2157 0.929 . S
H2146 C2160 0.908 1_565 S
H2147 C2162 0.960 . S
H2148 C2162 0.960 . S
H2149 C2162 0.960 . S
C2150 H2142 0.929 . S
C2150 C2151 1.377 . S
C2150 C2152 1.384 . S
C2151 C2150 1.377 . S
C2151 C2157 1.390 . S
C2152 H2143 0.930 . S
C2152 C2150 1.384 . S
C2152 C2153 1.372 . S
C2153 C2152 1.372 . S
C2153 C2154 1.400 . S
C2153 C2158 1.490 . S
C2154 H2144 0.930 . S
C2154 C2153 1.400 . S
C2154 C2157 1.386 . S
H2155 C2171 0.930 . S
H2156 C2172 0.931 . S
C2157 H2145 0.929 . S
C2157 C2151 1.390 . S
C2157 C2154 1.386 . S
C2158 C2153 1.490 . S
C2158 C2160 1.395 1_565 S
C2158 C2161 1.403 . S
H2159 C2165 0.930 . S
C2160 H2146 0.908 1_545 S
C2160 C2158 1.395 1_545 S
C2160 C2163 1.403 . S
C2161 C2158 1.403 . S
C2161 C2162 1.524 . S
C2161 C2165 1.400 1_565 S
C2162 H2147 0.960 . S
C2162 H2148 0.960 . S
C2162 H2149 0.960 . S
C2162 C2161 1.524 . S
C2163 C2160 1.403 . S
C2163 C2164 1.392 . S
C2163 C2167 1.495 . S
C2164 C2163 1.392 . S
C2164 C2165 1.385 . S
C2164 C2166 1.478 . S
C2165 H2159 0.930 . S
C2165 C2161 1.400 1_545 S
C2165 C2164 1.385 . S
C2166 C2164 1.478 . S
C2166 C2168 1.381 . S
C2166 C2172 1.383 . S
C2167 C2163 1.495 . S
C2167 H2173 0.959 . S
C2167 H2174 0.961 . S
C2167 H2175 0.960 . S
C2168 C2166 1.381 . S
C2168 C2169 1.394 . S
C2168 H2176 0.930 . S
C2169 C2168 1.394 . S
C2169 C2170 1.383 . S
C2169 H2177 0.929 . S
C2170 C2169 1.383 . S
C2170 C2171 1.377 . S
C2171 H2155 0.930 . S
C2171 C2170 1.377 . S
C2171 C2172 1.379 . S
C2172 H2156 0.931 . S
C2172 C2166 1.383 . S
C2172 C2171 1.379 . S
H2173 C2167 0.959 . S
H2174 C2167 0.961 . S
H2175 C2167 0.960 . S
H2176 C2168 0.930 . S
H2177 C2169 0.929 . S
H2178 C2186 0.929 . S
H2179 C2188 0.930 . S
H2180 C2190 0.930 . S
H2181 C2193 0.929 . S
H2182 C2196 0.930 . S
H2183 C2198 0.960 . S
H2184 C2198 0.960 . S
H2185 C2198 0.960 . S
C2186 H2178 0.929 . S
C2186 C2187 1.377 . S
C2186 C2188 1.384 . S
C2187 C2186 1.377 . S
C2187 C2193 1.390 . S
C2188 H2179 0.930 . S
C2188 C2186 1.384 . S
C2188 C2189 1.372 . S
C2189 C2188 1.372 . S
C2189 C2190 1.400 . S
C2189 C2194 1.490 . S
C2190 H2180 0.930 . S
C2190 C2189 1.400 . S
C2190 C2193 1.386 . S
H2191 C2207 0.930 . S
H2192 C2208 0.931 . S
C2193 H2181 0.929 . S
C2193 C2187 1.390 . S
C2193 C2190 1.386 . S
C2194 C2189 1.490 . S
C2194 C2196 1.395 . S
C2194 C2197 1.403 . S
H2195 C2201 0.930 . S
C2196 H2182 0.930 . S
C2196 C2194 1.395 . S
C2196 C2199 1.403 . S
C2197 C2194 1.403 . S
C2197 C2198 1.524 . S
C2197 C2201 1.400 . S
C2198 H2183 0.960 . S
C2198 H2184 0.960 . S
C2198 H2185 0.960 . S
C2198 C2197 1.524 . S
C2199 C2196 1.403 . S
C2199 C2200 1.392 . S
C2199 C2203 1.495 . S
C2200 C2199 1.392 . S
C2200 C2201 1.385 . S
C2200 C2202 1.478 . S
C2201 H2195 0.930 . S
C2201 C2197 1.400 . S
C2201 C2200 1.385 . S
C2202 C2200 1.478 . S
C2202 C2204 1.381 . S
C2202 C2208 1.383 . S
C2203 C2199 1.495 . S
C2203 H2209 0.959 . S
C2203 H2210 0.961 . S
C2203 H2211 0.960 . S
C2204 C2202 1.381 . S
C2204 C2205 1.394 . S
C2204 H2212 0.930 . S
C2205 C2204 1.394 . S
C2205 C2206 1.383 . S
C2205 H2213 0.929 . S
C2206 C2205 1.383 . S
C2206 C2207 1.377 . S
C2207 H2191 0.930 . S
C2207 C2206 1.377 . S
C2207 C2208 1.379 . S
C2208 H2192 0.931 . S
C2208 C2202 1.383 . S
C2208 C2207 1.379 . S
H2209 C2203 0.959 . S
H2210 C2203 0.961 . S
H2211 C2203 0.960 . S
H2212 C2204 0.930 . S
H2213 C2205 0.929 . S
H2214 C2222 0.929 . S
H2215 C2224 0.930 . S
H2216 C2226 0.930 . S
H2217 C2229 0.929 . S
H2218 C2232 0.930 . S
H2219 C2234 0.960 . S
H2220 C2234 0.960 . S
H2221 C2234 0.960 . S
C2222 H2214 0.929 . S
C2222 C2223 1.377 . S
C2222 C2224 1.384 . S
C2223 C2222 1.377 . S
C2223 C2229 1.390 . S
C2224 H2215 0.930 . S
C2224 C2222 1.384 . S
C2224 C2225 1.372 . S
C2225 C2224 1.372 . S
C2225 C2226 1.400 . S
C2225 C2230 1.490 . S
C2226 H2216 0.930 . S
C2226 C2225 1.400 . S
C2226 C2229 1.386 . S
H2227 C2243 0.930 . S
H2228 C2244 0.931 . S
C2229 H2217 0.929 . S
C2229 C2223 1.390 . S
C2229 C2226 1.386 . S
C2230 C2225 1.490 . S
C2230 C2232 1.395 . S
C2230 C2233 1.403 . S
H2231 C2237 0.930 . S
C2232 H2218 0.930 . S
C2232 C2230 1.395 . S
C2232 C2235 1.403 . S
C2233 C2230 1.403 . S
C2233 C2234 1.524 . S
C2233 C2237 1.400 . S
C2234 H2219 0.960 . S
C2234 H2220 0.960 . S
C2234 H2221 0.960 . S
C2234 C2233 1.524 . S
C2235 C2232 1.403 . S
C2235 C2236 1.392 . S
C2235 C2239 1.495 . S
C2236 C2235 1.392 . S
C2236 C2237 1.385 . S
C2236 C2238 1.478 . S
C2237 H2231 0.930 . S
C2237 C2233 1.400 . S
C2237 C2236 1.385 . S
C2238 C2236 1.478 . S
C2238 C2240 1.381 . S
C2238 C2244 1.383 . S
C2239 C2235 1.495 . S
C2239 H2245 0.959 . S
C2239 H2246 0.961 . S
C2239 H2247 0.960 . S
C2240 C2238 1.381 . S
C2240 C2241 1.394 . S
C2240 H2248 0.930 . S
C2241 C2240 1.394 . S
C2241 C2242 1.383 . S
C2241 H2249 0.929 . S
C2242 C2241 1.383 . S
C2242 C2243 1.377 . S
C2243 H2227 0.930 . S
C2243 C2242 1.377 . S
C2243 C2244 1.379 . S
C2244 H2228 0.931 . S
C2244 C2238 1.383 . S
C2244 C2243 1.379 . S
H2245 C2239 0.959 . S
H2246 C2239 0.961 . S
H2247 C2239 0.960 . S
H2248 C2240 0.930 . S
H2249 C2241 0.929 . S
H2250 C2258 0.929 . S
H2251 C2260 0.930 . S
H2252 C2262 0.930 . S
H2253 C2265 0.929 . S
H2254 C2268 0.930 . S
H2255 C2270 0.960 . S
H2256 C2270 0.960 . S
H2257 C2270 0.960 . S
C2258 H2250 0.929 . S
C2258 C2259 1.377 . S
C2258 C2260 1.384 . S
C2259 C2258 1.377 . S
C2259 C2265 1.390 . S
C2260 H2251 0.930 . S
C2260 C2258 1.384 . S
C2260 C2261 1.372 . S
C2261 C2260 1.372 . S
C2261 C2262 1.400 . S
C2261 C2266 1.490 . S
C2262 H2252 0.930 . S
C2262 C2261 1.400 . S
C2262 C2265 1.386 . S
H2263 C2279 0.930 . S
H2264 C2280 0.931 . S
C2265 H2253 0.929 . S
C2265 C2259 1.390 . S
C2265 C2262 1.386 . S
C2266 C2261 1.490 . S
C2266 C2268 1.395 . S
C2266 C2269 1.403 . S
H2267 C2273 0.930 . S
C2268 H2254 0.930 . S
C2268 C2266 1.395 . S
C2268 C2271 1.403 . S
C2269 C2266 1.403 . S
C2269 C2270 1.524 . S
C2269 C2273 1.400 . S
C2270 H2255 0.960 . S
C2270 H2256 0.960 . S
C2270 H2257 0.960 . S
C2270 C2269 1.524 . S
C2271 C2268 1.403 . S
C2271 C2272 1.392 . S
C2271 C2275 1.495 . S
C2272 C2271 1.392 . S
C2272 C2273 1.385 . S
C2272 C2274 1.478 . S
C2273 H2267 0.930 . S
C2273 C2269 1.400 . S
C2273 C2272 1.385 . S
C2274 C2272 1.478 . S
C2274 C2276 1.381 . S
C2274 C2280 1.383 . S
C2275 C2271 1.495 . S
C2275 H2281 0.959 . S
C2275 H2282 0.961 . S
C2275 H2283 0.960 . S
C2276 C2274 1.381 . S
C2276 C2277 1.394 . S
C2276 H2284 0.930 . S
C2277 C2276 1.394 . S
C2277 C2278 1.383 . S
C2277 H2285 0.929 . S
C2278 C2277 1.383 . S
C2278 C2279 1.377 . S
C2279 H2263 0.930 . S
C2279 C2278 1.377 . S
C2279 C2280 1.379 . S
C2280 H2264 0.931 . S
C2280 C2274 1.383 . S
C2280 C2279 1.379 . S
H2281 C2275 0.959 . S
H2282 C2275 0.961 . S
H2283 C2275 0.960 . S
H2284 C2276 0.930 . S
H2285 C2277 0.929 . S
H2286 C2294 0.929 . S
H2287 C2296 0.930 . S
H2288 C2298 0.930 . S
H2289 C2301 0.929 . S
H2290 C2304 0.930 . S
H2291 C2306 0.960 . S
H2292 C2306 0.960 . S
H2293 C2306 0.960 . S
C2294 H2286 0.929 . S
C2294 C2295 1.377 . S
C2294 C2296 1.384 . S
C2295 C2294 1.377 . S
C2295 C2301 1.390 . S
C2296 H2287 0.930 . S
C2296 C2294 1.384 . S
C2296 C2297 1.372 . S
C2297 C2296 1.372 . S
C2297 C2298 1.400 . S
C2297 C2302 1.490 . S
C2298 H2288 0.930 . S
C2298 C2297 1.400 . S
C2298 C2301 1.386 . S
H2299 C2315 0.930 . S
H2300 C2316 0.931 . S
C2301 H2289 0.929 . S
C2301 C2295 1.390 . S
C2301 C2298 1.386 . S
C2302 C2297 1.490 . S
C2302 C2304 1.395 . S
C2302 C2305 1.403 . S
H2303 C2309 0.930 . S
C2304 H2290 0.930 . S
C2304 C2302 1.395 . S
C2304 C2307 1.403 . S
C2305 C2302 1.403 . S
C2305 C2306 1.524 . S
C2305 C2309 1.400 . S
C2306 H2291 0.960 . S
C2306 H2292 0.960 . S
C2306 H2293 0.960 . S
C2306 C2305 1.524 . S
C2307 C2304 1.403 . S
C2307 C2308 1.392 . S
C2307 C2311 1.495 . S
C2308 C2307 1.392 . S
C2308 C2309 1.385 . S
C2308 C2310 1.478 . S
C2309 H2303 0.930 . S
C2309 C2305 1.400 . S
C2309 C2308 1.385 . S
C2310 C2308 1.478 . S
C2310 C2312 1.381 . S
C2310 C2316 1.383 . S
C2311 C2307 1.495 . S
C2311 H2317 0.959 . S
C2311 H2318 0.961 . S
C2311 H2319 0.960 . S
C2312 C2310 1.381 . S
C2312 C2313 1.394 . S
C2312 H2320 0.930 . S
C2313 C2312 1.394 . S
C2313 C2314 1.383 . S
C2313 H2321 0.929 . S
C2314 C2313 1.383 . S
C2314 C2315 1.377 . S
C2315 H2299 0.930 . S
C2315 C2314 1.377 . S
C2315 C2316 1.379 . S
C2316 H2300 0.931 . S
C2316 C2310 1.383 . S
C2316 C2315 1.379 . S
H2317 C2311 0.959 . S
H2318 C2311 0.961 . S
H2319 C2311 0.960 . S
H2320 C2312 0.930 . S
H2321 C2313 0.929 . S
H2322 C2330 0.929 . S
H2323 C2332 0.930 . S
H2324 C2334 0.930 . S
H2325 C2337 0.929 . S
H2326 C2340 0.930 . S
H2327 C2342 0.960 . S
H2328 C2342 0.960 . S
H2329 C2342 0.960 . S
C2330 H2322 0.929 . S
C2330 C2331 1.377 . S
C2330 C2332 1.384 . S
C2331 C2330 1.377 . S
C2331 C2337 1.390 . S
C2332 H2323 0.930 . S
C2332 C2330 1.384 . S
C2332 C2333 1.372 . S
C2333 C2332 1.372 . S
C2333 C2334 1.400 . S
C2333 C2338 1.490 . S
C2334 H2324 0.930 . S
C2334 C2333 1.400 . S
C2334 C2337 1.386 . S
H2335 C2351 0.930 . S
H2336 C2352 0.931 . S
C2337 H2325 0.929 . S
C2337 C2331 1.390 . S
C2337 C2334 1.386 . S
C2338 C2333 1.490 . S
C2338 C2340 1.395 . S
C2338 C2341 1.403 . S
H2339 C2345 0.930 . S
C2340 H2326 0.930 . S
C2340 C2338 1.395 . S
C2340 C2343 1.403 . S
C2341 C2338 1.403 . S
C2341 C2342 1.524 . S
C2341 C2345 1.400 . S
C2342 H2327 0.960 . S
C2342 H2328 0.960 . S
C2342 H2329 0.960 . S
C2342 C2341 1.524 . S
C2343 C2340 1.403 . S
C2343 C2344 1.392 . S
C2343 C2347 1.495 . S
C2344 C2343 1.392 . S
C2344 C2345 1.385 . S
C2344 C2346 1.478 . S
C2345 H2339 0.930 . S
C2345 C2341 1.400 . S
C2345 C2344 1.385 . S
C2346 C2344 1.478 . S
C2346 C2348 1.381 . S
C2346 C2352 1.383 . S
C2347 C2343 1.495 . S
C2347 H2353 0.959 . S
C2347 H2354 0.961 . S
C2347 H2355 0.960 . S
C2348 C2346 1.381 . S
C2348 C2349 1.394 . S
C2348 H2356 0.930 . S
C2349 C2348 1.394 . S
C2349 C2350 1.383 . S
C2349 H2357 0.929 . S
C2350 C2349 1.383 . S
C2350 C2351 1.377 . S
C2351 H2335 0.930 . S
C2351 C2350 1.377 . S
C2351 C2352 1.379 . S
C2352 H2336 0.931 . S
C2352 C2346 1.383 . S
C2352 C2351 1.379 . S
H2353 C2347 0.959 . S
H2354 C2347 0.961 . S
H2355 C2347 0.960 . S
H2356 C2348 0.930 . S
H2357 C2349 0.929 . S
H2358 C2366 0.929 . S
H2359 C2368 0.930 . S
H2360 C2370 0.930 . S
H2361 C2373 0.929 . S
H2362 C2376 0.930 . S
H2363 C2378 0.960 . S
H2364 C2378 0.960 . S
H2365 C2378 0.960 . S
C2366 H2358 0.929 . S
C2366 C2367 1.377 . S
C2366 C2368 1.384 . S
C2367 C2366 1.377 . S
C2367 C2373 1.390 . S
C2368 H2359 0.930 . S
C2368 C2366 1.384 . S
C2368 C2369 1.372 . S
C2369 C2368 1.372 . S
C2369 C2370 1.400 . S
C2369 C2374 1.490 . S
C2370 H2360 0.930 . S
C2370 C2369 1.400 . S
C2370 C2373 1.386 . S
H2371 C2387 0.930 . S
H2372 C2388 0.931 . S
C2373 H2361 0.929 . S
C2373 C2367 1.390 . S
C2373 C2370 1.386 . S
C2374 C2369 1.490 . S
C2374 C2376 1.395 . S
C2374 C2377 1.403 . S
H2375 C2381 0.930 . S
C2376 H2362 0.930 . S
C2376 C2374 1.395 . S
C2376 C2379 1.403 . S
C2377 C2374 1.403 . S
C2377 C2378 1.524 . S
C2377 C2381 1.400 . S
C2378 H2363 0.960 . S
C2378 H2364 0.960 . S
C2378 H2365 0.960 . S
C2378 C2377 1.524 . S
C2379 C2376 1.403 . S
C2379 C2380 1.392 . S
C2379 C2383 1.495 . S
C2380 C2379 1.392 . S
C2380 C2381 1.385 . S
C2380 C2382 1.478 . S
C2381 H2375 0.930 . S
C2381 C2377 1.400 . S
C2381 C2380 1.385 . S
C2382 C2380 1.478 . S
C2382 C2384 1.381 . S
C2382 C2388 1.383 . S
C2383 C2379 1.495 . S
C2383 H2389 0.959 . S
C2383 H2390 0.961 . S
C2383 H2391 0.960 . S
C2384 C2382 1.381 . S
C2384 C2385 1.394 . S
C2384 H2392 0.930 . S
C2385 C2384 1.394 . S
C2385 C2386 1.383 . S
C2385 H2393 0.929 . S
C2386 C2385 1.383 . S
C2386 C2387 1.377 . S
C2387 H2371 0.930 . S
C2387 C2386 1.377 . S
C2387 C2388 1.379 . S
C2388 H2372 0.931 . S
C2388 C2382 1.383 . S
C2388 C2387 1.379 . S
H2389 C2383 0.959 . S
H2390 C2383 0.961 . S
H2391 C2383 0.960 . S
H2392 C2384 0.930 . S
H2393 C2385 0.929 . S
H2394 C2402 0.929 . S
H2395 C2404 0.930 . S
H2396 C2406 0.930 . S
H2397 C2409 0.929 . S
H2398 C2412 0.930 . S
H2399 C2414 0.968 . S
H2400 C2414 0.960 . S
H2401 C2414 0.960 . S
C2402 H2394 0.929 . S
C2402 C2403 1.377 . S
C2402 C2404 1.384 . S
C2403 C2402 1.377 . S
C2403 C2409 1.390 . S
C2404 H2395 0.930 . S
C2404 C2402 1.384 . S
C2404 C2405 1.372 . S
C2405 C2404 1.372 . S
C2405 C2406 1.400 . S
C2405 C2410 1.490 . S
C2406 H2396 0.930 . S
C2406 C2405 1.400 . S
C2406 C2409 1.386 . S
H2407 C2423 0.930 . S
H2408 C2424 0.931 . S
C2409 H2397 0.929 . S
C2409 C2403 1.390 . S
C2409 C2406 1.386 . S
C2410 C2405 1.490 . S
C2410 C2412 1.395 . S
C2410 C2413 1.403 . S
H2411 C2417 0.930 . S
C2412 H2398 0.930 . S
C2412 C2410 1.395 . S
C2412 C2415 1.403 . S
C2413 C2410 1.403 . S
C2413 C2414 1.524 . S
C2413 C2417 1.400 . S
C2414 H2399 0.968 . S
C2414 H2400 0.960 . S
C2414 H2401 0.960 . S
C2414 C2413 1.524 . S
C2415 C2412 1.403 . S
C2415 C2416 1.392 . S
C2415 C2419 1.495 . S
C2416 C2415 1.392 . S
C2416 C2417 1.385 . S
C2416 C2418 1.478 . S
C2417 H2411 0.930 . S
C2417 C2413 1.400 . S
C2417 C2416 1.385 . S
C2418 C2416 1.478 . S
C2418 C2420 1.381 . S
C2418 C2424 1.383 . S
C2419 C2415 1.495 . S
C2419 H2425 0.959 . S
C2419 H2426 0.961 . S
C2419 H2427 0.960 . S
C2420 C2418 1.381 . S
C2420 C2421 1.394 . S
C2420 H2428 0.930 . S
C2421 C2420 1.394 . S
C2421 C2422 1.383 . S
C2421 H2429 0.929 . S
C2422 C2421 1.383 . S
C2422 C2423 1.377 . S
C2423 H2407 0.930 . S
C2423 C2422 1.377 . S
C2423 C2424 1.379 . S
C2424 H2408 0.931 . S
C2424 C2418 1.383 . S
C2424 C2423 1.379 . S
H2425 C2419 0.959 . S
H2426 C2419 0.961 . S
H2427 C2419 0.960 . S
H2428 C2420 0.930 . S
H2429 C2421 0.929 . S
H2430 C2438 0.929 . S
H2431 C2440 0.930 . S
H2432 C2442 0.930 . S
H2433 C2445 0.929 . S
H2434 C2448 0.930 . S
H2435 C2450 0.960 . S
H2436 C2450 0.960 . S
H2437 C2450 0.960 . S
C2438 H2430 0.929 . S
C2438 C2439 1.377 . S
C2438 C2440 1.384 . S
C2439 C2438 1.377 . S
C2439 C2445 1.390 . S
C2440 H2431 0.930 . S
C2440 C2438 1.384 . S
C2440 C2441 1.372 . S
C2441 C2440 1.372 . S
C2441 C2442 1.400 . S
C2441 C2446 1.490 . S
C2442 H2432 0.930 . S
C2442 C2441 1.400 . S
C2442 C2445 1.386 . S
H2443 C2459 0.930 . S
H2444 C2460 0.931 . S
C2445 H2433 0.929 . S
C2445 C2439 1.390 . S
C2445 C2442 1.386 . S
C2446 C2441 1.490 . S
C2446 C2448 1.395 . S
C2446 C2449 1.403 . S
H2447 C2453 0.930 . S
C2448 H2434 0.930 . S
C2448 C2446 1.395 . S
C2448 C2451 1.403 . S
C2449 C2446 1.403 . S
C2449 C2450 1.524 . S
C2449 C2453 1.400 . S
C2450 H2435 0.960 . S
C2450 H2436 0.960 . S
C2450 H2437 0.960 . S
C2450 C2449 1.524 . S
C2451 C2448 1.403 . S
C2451 C2452 1.392 . S
C2451 C2455 1.495 . S
C2452 C2451 1.392 . S
C2452 C2453 1.385 . S
C2452 C2454 1.478 . S
C2453 H2447 0.930 . S
C2453 C2449 1.400 . S
C2453 C2452 1.385 . S
C2454 C2452 1.478 . S
C2454 C2456 1.381 . S
C2454 C2460 1.383 . S
C2455 C2451 1.495 . S
C2455 H2461 0.959 . S
C2455 H2462 0.961 . S
C2455 H2463 0.960 . S
C2456 C2454 1.381 . S
C2456 C2457 1.394 . S
C2456 H2464 0.930 . S
C2457 C2456 1.394 . S
C2457 C2458 1.383 . S
C2457 H2465 0.929 . S
C2458 C2457 1.383 . S
C2458 C2459 1.377 . S
C2459 H2443 0.930 . S
C2459 C2458 1.377 . S
C2459 C2460 1.379 . S
C2460 H2444 0.931 . S
C2460 C2454 1.383 . S
C2460 C2459 1.379 . S
H2461 C2455 0.959 . S
H2462 C2455 0.961 . S
H2463 C2455 0.960 . S
H2464 C2456 0.930 . S
H2465 C2457 0.929 . S
H2466 C2474 0.929 . S
H2467 C2476 0.930 . S
H2468 C2478 0.930 . S
H2469 C2481 0.929 . S
H2470 C2484 0.930 . S
H2471 C2486 0.960 . S
H2472 C2486 0.960 . S
H2473 C2486 0.960 . S
C2474 H2466 0.929 . S
C2474 C2475 1.377 . S
C2474 C2476 1.384 . S
C2475 C2474 1.377 . S
C2475 C2481 1.390 . S
C2476 H2467 0.930 . S
C2476 C2474 1.384 . S
C2476 C2477 1.372 . S
C2477 C2476 1.372 . S
C2477 C2478 1.400 . S
C2477 C2482 1.490 . S
C2478 H2468 0.930 . S
C2478 C2477 1.400 . S
C2478 C2481 1.386 . S
H2479 C2495 0.930 . S
H2480 C2496 0.931 . S
C2481 H2469 0.929 . S
C2481 C2475 1.390 . S
C2481 C2478 1.386 . S
C2482 C2477 1.490 . S
C2482 C2484 1.395 . S
C2482 C2485 1.403 . S
H2483 C2489 0.930 . S
C2484 H2470 0.930 . S
C2484 C2482 1.395 . S
C2484 C2487 1.403 . S
C2485 C2482 1.403 . S
C2485 C2486 1.524 . S
C2485 C2489 1.400 . S
C2486 H2471 0.960 . S
C2486 H2472 0.960 . S
C2486 H2473 0.960 . S
C2486 C2485 1.524 . S
C2487 C2484 1.403 . S
C2487 C2488 1.392 . S
C2487 C2491 1.495 . S
C2488 C2487 1.392 . S
C2488 C2489 1.385 . S
C2488 C2490 1.478 . S
C2489 H2483 0.930 . S
C2489 C2485 1.400 . S
C2489 C2488 1.385 . S
C2490 C2488 1.478 . S
C2490 C2492 1.381 . S
C2490 C2496 1.383 . S
C2491 C2487 1.495 . S
C2491 H2497 0.959 . S
C2491 H2498 0.961 . S
C2491 H2499 0.960 . S
C2492 C2490 1.381 . S
C2492 C2493 1.394 . S
C2492 H2500 0.930 . S
C2493 C2492 1.394 . S
C2493 C2494 1.383 . S
C2493 H2501 0.929 . S
C2494 C2493 1.383 . S
C2494 C2495 1.377 . S
C2495 H2479 0.930 . S
C2495 C2494 1.377 . S
C2495 C2496 1.379 . S
C2496 H2480 0.931 . S
C2496 C2490 1.383 . S
C2496 C2495 1.379 . S
H2497 C2491 0.959 . S
H2498 C2491 0.961 . S
H2499 C2491 0.960 . S
H2500 C2492 0.930 . S
H2501 C2493 0.929 . S
H2502 C2510 0.929 . S
H2503 C2512 0.930 . S
H2504 C2514 0.930 . S
H2505 C2517 0.929 . S
H2506 C2520 0.930 . S
H2507 C2522 0.960 . S
H2508 C2522 0.960 . S
H2509 C2522 0.960 . S
C2510 H2502 0.929 . S
C2510 C2511 1.377 . S
C2510 C2512 1.384 . S
C2511 C2510 1.377 . S
C2511 C2517 1.390 . S
C2512 H2503 0.930 . S
C2512 C2510 1.384 . S
C2512 C2513 1.372 . S
C2513 C2512 1.372 . S
C2513 C2514 1.400 . S
C2513 C2518 1.490 . S
C2514 H2504 0.930 . S
C2514 C2513 1.400 . S
C2514 C2517 1.386 . S
H2515 C2531 0.930 . S
H2516 C2532 0.931 . S
C2517 H2505 0.929 . S
C2517 C2511 1.390 . S
C2517 C2514 1.386 . S
C2518 C2513 1.490 . S
C2518 C2520 1.395 . S
C2518 C2521 1.403 . S
H2519 C2525 0.930 . S
C2520 H2506 0.930 . S
C2520 C2518 1.395 . S
C2520 C2523 1.403 . S
C2521 C2518 1.403 . S
C2521 C2522 1.524 . S
C2521 C2525 1.400 . S
C2522 H2507 0.960 . S
C2522 H2508 0.960 . S
C2522 H2509 0.960 . S
C2522 C2521 1.524 . S
C2523 C2520 1.403 . S
C2523 C2524 1.392 . S
C2523 C2527 1.495 . S
C2524 C2523 1.392 . S
C2524 C2525 1.385 . S
C2524 C2526 1.478 . S
C2525 H2519 0.930 . S
C2525 C2521 1.400 . S
C2525 C2524 1.385 . S
C2526 C2524 1.478 . S
C2526 C2528 1.381 . S
C2526 C2532 1.383 . S
C2527 C2523 1.495 . S
C2527 H2533 0.959 . S
C2527 H2534 0.961 . S
C2527 H2535 0.960 . S
C2528 C2526 1.381 . S
C2528 C2529 1.394 . S
C2528 H2536 0.930 . S
C2529 C2528 1.394 . S
C2529 C2530 1.383 . S
C2529 H2537 0.929 . S
C2530 C2529 1.383 . S
C2530 C2531 1.377 . S
C2531 H2515 0.930 . S
C2531 C2530 1.377 . S
C2531 C2532 1.379 . S
C2532 H2516 0.931 . S
C2532 C2526 1.383 . S
C2532 C2531 1.379 . S
H2533 C2527 0.959 . S
H2534 C2527 0.961 . S
H2535 C2527 0.960 . S
H2536 C2528 0.930 . S
H2537 C2529 0.929 . S
H2538 C2546 0.929 . S
H2539 C2548 0.930 . S
H2540 C2550 0.930 . S
H2541 C2553 0.929 . S
H2542 C2556 0.930 . S
H2543 C2558 0.960 . S
H2544 C2558 0.960 . S
H2545 C2558 0.960 . S
C2546 H2538 0.929 . S
C2546 C2547 1.377 . S
C2546 C2548 1.384 . S
C2547 C2546 1.377 . S
C2547 C2553 1.390 . S
C2548 H2539 0.930 . S
C2548 C2546 1.384 . S
C2548 C2549 1.372 . S
C2549 C2548 1.372 . S
C2549 C2550 1.400 . S
C2549 C2554 1.490 . S
C2550 H2540 0.930 . S
C2550 C2549 1.400 . S
C2550 C2553 1.386 . S
H2551 C2567 0.930 . S
H2552 C2568 0.931 . S
C2553 H2541 0.929 . S
C2553 C2547 1.390 . S
C2553 C2550 1.386 . S
C2554 C2549 1.490 . S
C2554 C2556 1.395 . S
C2554 C2557 1.403 . S
H2555 C2561 0.930 . S
C2556 H2542 0.930 . S
C2556 C2554 1.395 . S
C2556 C2559 1.403 . S
C2557 C2554 1.403 . S
C2557 C2558 1.524 . S
C2557 C2561 1.400 . S
C2558 H2543 0.960 . S
C2558 H2544 0.960 . S
C2558 H2545 0.960 . S
C2558 C2557 1.524 . S
C2559 C2556 1.403 . S
C2559 C2560 1.392 . S
C2559 C2563 1.495 . S
C2560 C2559 1.392 . S
C2560 C2561 1.385 . S
C2560 C2562 1.478 . S
C2561 H2555 0.930 . S
C2561 C2557 1.400 . S
C2561 C2560 1.385 . S
C2562 C2560 1.478 . S
C2562 C2564 1.381 . S
C2562 C2568 1.383 . S
C2563 C2559 1.495 . S
C2563 H2569 0.959 . S
C2563 H2570 0.961 . S
C2563 H2571 0.960 . S
C2564 C2562 1.381 . S
C2564 C2565 1.394 . S
C2564 H2572 0.930 . S
C2565 C2564 1.394 . S
C2565 C2566 1.383 . S
C2565 H2573 0.929 . S
C2566 C2565 1.383 . S
C2566 C2567 1.377 . S
C2567 H2551 0.930 . S
C2567 C2566 1.377 . S
C2567 C2568 1.379 . S
C2568 H2552 0.931 . S
C2568 C2562 1.383 . S
C2568 C2567 1.379 . S
H2569 C2563 0.959 . S
H2570 C2563 0.961 . S
H2571 C2563 0.960 . S
H2572 C2564 0.930 . S
H2573 C2565 0.929 . S
H2574 C2582 0.929 . S
H2575 C2584 0.930 . S
H2576 C2586 0.930 . S
H2577 C2589 0.929 . S
H2578 C2592 0.930 . S
H2579 C2594 0.960 . S
H2580 C2594 0.960 . S
H2581 C2594 0.960 . S
C2582 H2574 0.929 . S
C2582 C2583 1.377 . S
C2582 C2584 1.384 . S
C2583 C2582 1.377 . S
C2583 C2589 1.390 . S
C2584 H2575 0.930 . S
C2584 C2582 1.384 . S
C2584 C2585 1.372 . S
C2585 C2584 1.372 . S
C2585 C2586 1.400 . S
C2585 C2590 1.490 . S
C2586 H2576 0.930 . S
C2586 C2585 1.400 . S
C2586 C2589 1.386 . S
H2587 C2603 0.930 . S
H2588 C2604 0.931 . S
C2589 H2577 0.929 . S
C2589 C2583 1.390 . S
C2589 C2586 1.386 . S
C2590 C2585 1.490 . S
C2590 C2592 1.395 . S
C2590 C2593 1.403 . S
H2591 C2597 0.930 . S
C2592 H2578 0.930 . S
C2592 C2590 1.395 . S
C2592 C2595 1.403 . S
C2593 C2590 1.403 . S
C2593 C2594 1.524 . S
C2593 C2597 1.400 . S
C2594 H2579 0.960 . S
C2594 H2580 0.960 . S
C2594 H2581 0.960 . S
C2594 C2593 1.524 . S
C2595 C2592 1.403 . S
C2595 C2596 1.392 . S
C2595 C2599 1.495 . S
C2596 C2595 1.392 . S
C2596 C2597 1.385 . S
C2596 C2598 1.478 . S
C2597 H2591 0.930 . S
C2597 C2593 1.400 . S
C2597 C2596 1.385 . S
C2598 C2596 1.478 . S
C2598 C2600 1.381 . S
C2598 C2604 1.383 . S
C2599 C2595 1.495 . S
C2599 H2605 0.959 . S
C2599 H2606 0.961 . S
C2599 H2607 0.960 . S
C2600 C2598 1.381 . S
C2600 C2601 1.394 . S
C2600 H2608 0.930 . S
C2601 C2600 1.394 . S
C2601 C2602 1.383 . S
C2601 H2609 0.929 . S
C2602 C2601 1.383 . S
C2602 C2603 1.377 . S
C2603 H2587 0.930 . S
C2603 C2602 1.377 . S
C2603 C2604 1.379 . S
C2604 H2588 0.931 . S
C2604 C2598 1.383 . S
C2604 C2603 1.379 . S
H2605 C2599 0.959 . S
H2606 C2599 0.961 . S
H2607 C2599 0.960 . S
H2608 C2600 0.930 . S
H2609 C2601 0.929 . S
H2610 C2618 0.929 . S
H2611 C2620 0.930 . S
H2612 C2622 0.930 . S
H2613 C2625 0.929 . S
H2614 C2628 0.930 . S
H2615 C2630 0.960 . S
H2616 C2630 0.960 . S
H2617 C2630 0.960 . S
C2618 H2610 0.929 . S
C2618 C2619 1.377 . S
C2618 C2620 1.384 . S
C2619 C2618 1.377 . S
C2619 C2625 1.390 . S
C2620 H2611 0.930 . S
C2620 C2618 1.384 . S
C2620 C2621 1.372 . S
C2621 C2620 1.372 . S
C2621 C2622 1.400 . S
C2621 C2626 1.490 . S
C2622 H2612 0.930 . S
C2622 C2621 1.400 . S
C2622 C2625 1.386 . S
H2623 C2639 0.930 . S
H2624 C2640 0.931 . S
C2625 H2613 0.929 . S
C2625 C2619 1.390 . S
C2625 C2622 1.386 . S
C2626 C2621 1.490 . S
C2626 C2628 1.395 . S
C2626 C2629 1.403 . S
H2627 C2633 0.930 . S
C2628 H2614 0.930 . S
C2628 C2626 1.395 . S
C2628 C2631 1.403 . S
C2629 C2626 1.403 . S
C2629 C2630 1.524 . S
C2629 C2633 1.400 . S
C2630 H2615 0.960 . S
C2630 H2616 0.960 . S
C2630 H2617 0.960 . S
C2630 C2629 1.524 . S
C2631 C2628 1.403 . S
C2631 C2632 1.392 . S
C2631 C2635 1.495 . S
C2632 C2631 1.392 . S
C2632 C2633 1.385 . S
C2632 C2634 1.478 . S
C2633 H2627 0.930 . S
C2633 C2629 1.400 . S
C2633 C2632 1.385 . S
C2634 C2632 1.478 . S
C2634 C2636 1.381 . S
C2634 C2640 1.383 . S
C2635 C2631 1.495 . S
C2635 H2641 0.959 . S
C2635 H2642 0.961 . S
C2635 H2643 0.960 . S
C2636 C2634 1.381 . S
C2636 C2637 1.394 . S
C2636 H2644 0.930 . S
C2637 C2636 1.394 . S
C2637 C2638 1.383 . S
C2637 H2645 0.929 . S
C2638 C2637 1.383 . S
C2638 C2639 1.377 . S
C2639 H2623 0.930 . S
C2639 C2638 1.377 . S
C2639 C2640 1.379 . S
C2640 H2624 0.931 . S
C2640 C2634 1.383 . S
C2640 C2639 1.379 . S
H2641 C2635 0.959 . S
H2642 C2635 0.961 . S
H2643 C2635 0.960 . S
H2644 C2636 0.930 . S
H2645 C2637 0.929 . S
H2646 C2654 0.929 . S
H2647 C2656 0.930 . S
H2648 C2658 0.930 . S
H2649 C2661 0.929 . S
H2650 C2664 0.930 . S
H2651 C2666 0.960 . S
H2652 C2666 0.960 . S
H2653 C2666 0.960 . S
C2654 H2646 0.929 . S
C2654 C2655 1.377 . S
C2654 C2656 1.384 . S
C2655 C2654 1.377 . S
C2655 C2661 1.390 . S
C2656 H2647 0.930 . S
C2656 C2654 1.384 . S
C2656 C2657 1.372 . S
C2657 C2656 1.372 . S
C2657 C2658 1.400 . S
C2657 C2662 1.490 . S
C2658 H2648 0.930 . S
C2658 C2657 1.400 . S
C2658 C2661 1.386 . S
H2659 C2675 0.930 . S
H2660 C2676 0.931 . S
C2661 H2649 0.929 . S
C2661 C2655 1.390 . S
C2661 C2658 1.386 . S
C2662 C2657 1.490 . S
C2662 C2664 1.395 . S
C2662 C2665 1.403 . S
H2663 C2669 0.930 . S
C2664 H2650 0.930 . S
C2664 C2662 1.395 . S
C2664 C2667 1.403 . S
C2665 C2662 1.403 . S
C2665 C2666 1.524 . S
C2665 C2669 1.400 . S
C2666 H2651 0.960 . S
C2666 H2652 0.960 . S
C2666 H2653 0.960 . S
C2666 C2665 1.524 . S
C2667 C2664 1.403 . S
C2667 C2668 1.392 . S
C2667 C2671 1.495 . S
C2668 C2667 1.392 . S
C2668 C2669 1.385 . S
C2668 C2670 1.478 . S
C2669 H2663 0.930 . S
C2669 C2665 1.400 . S
C2669 C2668 1.385 . S
C2670 C2668 1.478 . S
C2670 C2672 1.381 . S
C2670 C2676 1.383 . S
C2671 C2667 1.495 . S
C2671 H2677 0.959 . S
C2671 H2678 0.961 . S
C2671 H2679 0.960 . S
C2672 C2670 1.381 . S
C2672 C2673 1.394 . S
C2672 H2680 0.930 . S
C2673 C2672 1.394 . S
C2673 C2674 1.383 . S
C2673 H2681 0.929 . S
C2674 C2673 1.383 . S
C2674 C2675 1.377 . S
C2675 H2659 0.930 . S
C2675 C2674 1.377 . S
C2675 C2676 1.379 . S
C2676 H2660 0.931 . S
C2676 C2670 1.383 . S
C2676 C2675 1.379 . S
H2677 C2671 0.959 . S
H2678 C2671 0.961 . S
H2679 C2671 0.960 . S
H2680 C2672 0.930 . S
H2681 C2673 0.929 . S
H2682 C2690 0.929 . S
H2683 C2692 0.930 . S
H2684 C2694 0.930 . S
H2685 C2697 0.929 . S
H2686 C2700 0.930 . S
H2687 C2702 0.960 . S
H2688 C2702 0.960 . S
H2689 C2702 0.960 . S
C2690 H2682 0.929 . S
C2690 C2691 1.377 . S
C2690 C2692 1.384 . S
C2691 C2690 1.377 . S
C2691 C2697 1.390 . S
C2692 H2683 0.930 . S
C2692 C2690 1.384 . S
C2692 C2693 1.372 . S
C2693 C2692 1.372 . S
C2693 C2694 1.400 . S
C2693 C2698 1.490 . S
C2694 H2684 0.930 . S
C2694 C2693 1.400 . S
C2694 C2697 1.386 . S
H2695 C2711 0.930 . S
H2696 C2712 0.931 . S
C2697 H2685 0.929 . S
C2697 C2691 1.390 . S
C2697 C2694 1.386 . S
C2698 C2693 1.490 . S
C2698 C2700 1.395 . S
C2698 C2701 1.403 . S
H2699 C2705 0.930 . S
C2700 H2686 0.930 . S
C2700 C2698 1.395 . S
C2700 C2703 1.403 . S
C2701 C2698 1.403 . S
C2701 C2702 1.524 . S
C2701 C2705 1.400 . S
C2702 H2687 0.960 . S
C2702 H2688 0.960 . S
C2702 H2689 0.960 . S
C2702 C2701 1.524 . S
C2703 C2700 1.403 . S
C2703 C2704 1.392 . S
C2703 C2707 1.495 . S
C2704 C2703 1.392 . S
C2704 C2705 1.385 . S
C2704 C2706 1.478 . S
C2705 H2699 0.930 . S
C2705 C2701 1.400 . S
C2705 C2704 1.385 . S
C2706 C2704 1.478 . S
C2706 C2708 1.381 . S
C2706 C2712 1.383 . S
C2707 C2703 1.495 . S
C2707 H2713 0.959 . S
C2707 H2714 0.961 . S
C2707 H2715 0.960 . S
C2708 C2706 1.381 . S
C2708 C2709 1.394 . S
C2708 H2716 0.930 . S
C2709 C2708 1.394 . S
C2709 C2710 1.383 . S
C2709 H2717 0.929 . S
C2710 C2709 1.383 . S
C2710 C2711 1.377 . S
C2711 H2695 0.930 . S
C2711 C2710 1.377 . S
C2711 C2712 1.379 . S
C2712 H2696 0.931 . S
C2712 C2706 1.383 . S
C2712 C2711 1.379 . S
H2713 C2707 0.959 . S
H2714 C2707 0.961 . S
H2715 C2707 0.960 . S
H2716 C2708 0.930 . S
H2717 C2709 0.929 . S
H2718 C2726 0.929 . S
H2719 C2728 0.930 . S
H2720 C2730 0.930 . S
H2721 C2733 0.929 . S
H2722 C2736 0.930 . S
H2723 C2738 0.960 . S
H2724 C2738 0.960 . S
H2725 C2738 0.960 . S
C2726 H2718 0.929 . S
C2726 C2727 1.377 . S
C2726 C2728 1.384 . S
C2727 C2726 1.377 . S
C2727 C2733 1.390 . S
C2728 H2719 0.930 . S
C2728 C2726 1.384 . S
C2728 C2729 1.372 . S
C2729 C2728 1.372 . S
C2729 C2730 1.400 . S
C2729 C2734 1.490 . S
C2730 H2720 0.930 . S
C2730 C2729 1.400 . S
C2730 C2733 1.386 . S
H2731 C2747 0.930 . S
H2732 C2748 0.931 . S
C2733 H2721 0.929 . S
C2733 C2727 1.390 . S
C2733 C2730 1.386 . S
C2734 C2729 1.490 . S
C2734 C2736 1.395 . S
C2734 C2737 1.403 . S
H2735 C2741 0.930 . S
C2736 H2722 0.930 . S
C2736 C2734 1.395 . S
C2736 C2739 1.403 . S
C2737 C2734 1.403 . S
C2737 C2738 1.524 . S
C2737 C2741 1.400 . S
C2738 H2723 0.960 . S
C2738 H2724 0.960 . S
C2738 H2725 0.960 . S
C2738 C2737 1.524 . S
C2739 C2736 1.403 . S
C2739 C2740 1.392 . S
C2739 C2743 1.495 . S
C2740 C2739 1.392 . S
C2740 C2741 1.385 . S
C2740 C2742 1.478 . S
C2741 H2735 0.930 . S
C2741 C2737 1.400 . S
C2741 C2740 1.385 . S
C2742 C2740 1.478 . S
C2742 C2744 1.381 . S
C2742 C2748 1.383 . S
C2743 C2739 1.495 . S
C2743 H2749 0.959 . S
C2743 H2750 0.961 . S
C2743 H2751 0.960 . S
C2744 C2742 1.381 . S
C2744 C2745 1.394 . S
C2744 H2752 0.930 . S
C2745 C2744 1.394 . S
C2745 C2746 1.383 . S
C2745 H2753 0.929 . S
C2746 C2745 1.383 . S
C2746 C2747 1.377 . S
C2747 H2731 0.930 . S
C2747 C2746 1.377 . S
C2747 C2748 1.379 . S
C2748 H2732 0.931 . S
C2748 C2742 1.383 . S
C2748 C2747 1.379 . S
H2749 C2743 0.959 . S
H2750 C2743 0.961 . S
H2751 C2743 0.960 . S
H2752 C2744 0.930 . S
H2753 C2745 0.929 . S
H2754 C2762 0.929 . S
H2755 C2764 0.930 . S
H2756 C2766 0.930 . S
H2757 C2769 0.929 . S
H2758 C2772 0.930 . S
H2759 C2774 0.960 . S
H2760 C2774 0.960 . S
H2761 C2774 0.960 . S
C2762 H2754 0.929 . S
C2762 C2763 1.377 . S
C2762 C2764 1.384 . S
C2763 C2762 1.377 . S
C2763 C2769 1.390 . S
C2764 H2755 0.930 . S
C2764 C2762 1.384 . S
C2764 C2765 1.372 . S
C2765 C2764 1.372 . S
C2765 C2766 1.400 . S
C2765 C2770 1.490 . S
C2766 H2756 0.930 . S
C2766 C2765 1.400 . S
C2766 C2769 1.386 . S
H2767 C2783 0.930 . S
H2768 C2784 0.931 . S
C2769 H2757 0.929 . S
C2769 C2763 1.390 . S
C2769 C2766 1.386 . S
C2770 C2765 1.490 . S
C2770 C2772 1.395 . S
C2770 C2773 1.403 . S
H2771 C2777 0.930 . S
C2772 H2758 0.930 . S
C2772 C2770 1.395 . S
C2772 C2775 1.403 . S
C2773 C2770 1.403 . S
C2773 C2774 1.524 . S
C2773 C2777 1.400 . S
C2774 H2759 0.960 . S
C2774 H2760 0.960 . S
C2774 H2761 0.960 . S
C2774 C2773 1.524 . S
C2775 C2772 1.403 . S
C2775 C2776 1.392 . S
C2775 C2779 1.495 . S
C2776 C2775 1.392 . S
C2776 C2777 1.385 . S
C2776 C2778 1.478 . S
C2777 H2771 0.930 . S
C2777 C2773 1.400 . S
C2777 C2776 1.385 . S
C2778 C2776 1.478 . S
C2778 C2780 1.381 . S
C2778 C2784 1.383 . S
C2779 C2775 1.495 . S
C2779 H2785 0.959 . S
C2779 H2786 0.961 . S
C2779 H2787 0.960 . S
C2780 C2778 1.381 . S
C2780 C2781 1.394 . S
C2780 H2788 0.930 . S
C2781 C2780 1.394 . S
C2781 C2782 1.383 . S
C2781 H2789 0.929 . S
C2782 C2781 1.383 . S
C2782 C2783 1.377 . S
C2783 H2767 0.930 . S
C2783 C2782 1.377 . S
C2783 C2784 1.379 . S
C2784 H2768 0.931 . S
C2784 C2778 1.383 . S
C2784 C2783 1.379 . S
H2785 C2779 0.959 . S
H2786 C2779 0.961 . S
H2787 C2779 0.960 . S
H2788 C2780 0.930 . S
H2789 C2781 0.929 . S
H2790 C2798 0.929 . S
H2791 C2800 0.930 . S
H2792 C2802 0.930 . S
H2793 C2805 0.929 . S
H2794 C2808 0.930 . S
H2795 C2810 0.960 . S
H2796 C2810 0.960 . S
H2797 C2810 0.960 . S
C2798 H2790 0.929 . S
C2798 C2799 1.377 . S
C2798 C2800 1.384 . S
C2799 C2798 1.377 . S
C2799 C2805 1.390 . S
C2800 H2791 0.930 . S
C2800 C2798 1.384 . S
C2800 C2801 1.372 . S
C2801 C2800 1.372 . S
C2801 C2802 1.400 . S
C2801 C2806 1.490 . S
C2802 H2792 0.930 . S
C2802 C2801 1.400 . S
C2802 C2805 1.386 . S
H2803 C2819 0.930 . S
H2804 C2820 0.931 . S
C2805 H2793 0.929 . S
C2805 C2799 1.390 . S
C2805 C2802 1.386 . S
C2806 C2801 1.490 . S
C2806 C2808 1.395 . S
C2806 C2809 1.403 . S
H2807 C2813 0.930 . S
C2808 H2794 0.930 . S
C2808 C2806 1.395 . S
C2808 C2811 1.403 . S
C2809 C2806 1.403 . S
C2809 C2810 1.524 . S
C2809 C2813 1.400 . S
C2810 H2795 0.960 . S
C2810 H2796 0.960 . S
C2810 H2797 0.960 . S
C2810 C2809 1.524 . S
C2811 C2808 1.403 . S
C2811 C2812 1.392 . S
C2811 C2815 1.495 . S
C2812 C2811 1.392 . S
C2812 C2813 1.385 . S
C2812 C2814 1.478 . S
C2813 H2807 0.930 . S
C2813 C2809 1.400 . S
C2813 C2812 1.385 . S
C2814 C2812 1.478 . S
C2814 C2816 1.381 . S
C2814 C2820 1.383 . S
C2815 C2811 1.495 . S
C2815 H2821 0.959 . S
C2815 H2822 0.961 . S
C2815 H2823 0.960 . S
C2816 C2814 1.381 . S
C2816 C2817 1.394 . S
C2816 H2824 0.930 . S
C2817 C2816 1.394 . S
C2817 C2818 1.383 . S
C2817 H2825 0.929 . S
C2818 C2817 1.383 . S
C2818 C2819 1.377 . S
C2819 H2803 0.930 . S
C2819 C2818 1.377 . S
C2819 C2820 1.379 . S
C2820 H2804 0.931 . S
C2820 C2814 1.383 . S
C2820 C2819 1.379 . S
H2821 C2815 0.959 . S
H2822 C2815 0.961 . S
H2823 C2815 0.960 . S
H2824 C2816 0.930 . S
H2825 C2817 0.929 . S
H2826 C2834 0.929 . S
H2827 C2836 0.930 . S
H2828 C2838 0.930 . S
H2829 C2841 0.929 . S
H2830 C2844 0.930 . S
H2831 C2846 0.960 . S
H2832 C2846 0.960 . S
H2833 C2846 0.960 . S
C2834 H2826 0.929 . S
C2834 C2835 1.377 . S
C2834 C2836 1.384 . S
C2835 C2834 1.377 . S
C2835 C2841 1.390 . S
C2836 H2827 0.930 . S
C2836 C2834 1.384 . S
C2836 C2837 1.372 . S
C2837 C2836 1.372 . S
C2837 C2838 1.400 . S
C2837 C2842 1.490 . S
C2838 H2828 0.930 . S
C2838 C2837 1.400 . S
C2838 C2841 1.386 . S
H2839 C2855 0.930 . S
H2840 C2856 0.931 . S
C2841 H2829 0.929 . S
C2841 C2835 1.390 . S
C2841 C2838 1.386 . S
C2842 C2837 1.490 . S
C2842 C2844 1.395 . S
C2842 C2845 1.403 . S
H2843 C2849 0.930 . S
C2844 H2830 0.930 . S
C2844 C2842 1.395 . S
C2844 C2847 1.403 . S
C2845 C2842 1.403 . S
C2845 C2846 1.524 . S
C2845 C2849 1.400 . S
C2846 H2831 0.960 . S
C2846 H2832 0.960 . S
C2846 H2833 0.960 . S
C2846 C2845 1.524 . S
C2847 C2844 1.403 . S
C2847 C2848 1.392 . S
C2847 C2851 1.495 . S
C2848 C2847 1.392 . S
C2848 C2849 1.385 . S
C2848 C2850 1.478 . S
C2849 H2843 0.930 . S
C2849 C2845 1.400 . S
C2849 C2848 1.385 . S
C2850 C2848 1.478 . S
C2850 C2852 1.381 . S
C2850 C2856 1.383 . S
C2851 C2847 1.495 . S
C2851 H2857 0.959 . S
C2851 H2858 0.961 . S
C2851 H2859 0.960 . S
C2852 C2850 1.381 . S
C2852 C2853 1.394 . S
C2852 H2860 0.930 . S
C2853 C2852 1.394 . S
C2853 C2854 1.383 . S
C2853 H2861 0.929 . S
C2854 C2853 1.383 . S
C2854 C2855 1.377 . S
C2855 H2839 0.930 . S
C2855 C2854 1.377 . S
C2855 C2856 1.379 . S
C2856 H2840 0.931 . S
C2856 C2850 1.383 . S
C2856 C2855 1.379 . S
H2857 C2851 0.959 . S
H2858 C2851 0.961 . S
H2859 C2851 0.960 . S
H2860 C2852 0.930 . S
H2861 C2853 0.929 . S
H2862 C2870 0.929 . S
H2863 C2872 0.930 . S
H2864 C2874 0.930 . S
H2865 C2877 0.929 . S
H2866 C2880 0.930 . S
H2867 C2882 0.960 . S
H2868 C2882 0.960 . S
H2869 C2882 0.960 . S
C2870 H2862 0.929 . S
C2870 C2871 1.377 . S
C2870 C2872 1.384 . S
C2871 C2870 1.377 . S
C2871 C2877 1.390 . S
C2872 H2863 0.930 . S
C2872 C2870 1.384 . S
C2872 C2873 1.372 . S
C2873 C2872 1.372 . S
C2873 C2874 1.400 . S
C2873 C2878 1.490 . S
C2874 H2864 0.930 . S
C2874 C2873 1.400 . S
C2874 C2877 1.386 . S
H2875 C2891 0.930 . S
H2876 C2892 0.931 . S
C2877 H2865 0.929 . S
C2877 C2871 1.390 . S
C2877 C2874 1.386 . S
C2878 C2873 1.490 . S
C2878 C2880 1.395 . S
C2878 C2881 1.403 . S
H2879 C2885 0.930 . S
C2880 H2866 0.930 . S
C2880 C2878 1.395 . S
C2880 C2883 1.403 . S
C2881 C2878 1.403 . S
C2881 C2882 1.524 . S
C2881 C2885 1.400 . S
C2882 H2867 0.960 . S
C2882 H2868 0.960 . S
C2882 H2869 0.960 . S
C2882 C2881 1.524 . S
C2883 C2880 1.403 . S
C2883 C2884 1.392 . S
C2883 C2887 1.495 . S
C2884 C2883 1.392 . S
C2884 C2885 1.385 . S
C2884 C2886 1.478 . S
C2885 H2879 0.930 . S
C2885 C2881 1.400 . S
C2885 C2884 1.385 . S
C2886 C2884 1.478 . S
C2886 C2888 1.381 . S
C2886 C2892 1.383 . S
C2887 C2883 1.495 . S
C2887 H2893 0.959 . S
C2887 H2894 0.961 . S
C2887 H2895 0.960 . S
C2888 C2886 1.381 . S
C2888 C2889 1.394 . S
C2888 H2896 0.930 . S
C2889 C2888 1.394 . S
C2889 C2890 1.383 . S
C2889 H2897 0.929 . S
C2890 C2889 1.383 . S
C2890 C2891 1.377 . S
C2891 H2875 0.930 . S
C2891 C2890 1.377 . S
C2891 C2892 1.379 . S
C2892 H2876 0.931 . S
C2892 C2886 1.383 . S
C2892 C2891 1.379 . S
H2893 C2887 0.959 . S
H2894 C2887 0.961 . S
H2895 C2887 0.960 . S
H2896 C2888 0.930 . S
H2897 C2889 0.929 . S
H2898 C2906 0.929 . S
H2899 C2908 0.930 . S
H2900 C2910 0.930 . S
H2901 C2913 0.929 . S
H2902 C2916 0.930 . S
H2903 C2918 0.960 . S
H2904 C2918 0.960 . S
H2905 C2918 0.960 . S
C2906 H2898 0.929 . S
C2906 C2907 1.377 . S
C2906 C2908 1.384 . S
C2907 C2906 1.377 . S
C2907 C2913 1.390 . S
C2908 H2899 0.930 . S
C2908 C2906 1.384 . S
C2908 C2909 1.372 . S
C2909 C2908 1.372 . S
C2909 C2910 1.400 . S
C2909 C2914 1.490 . S
C2910 H2900 0.930 . S
C2910 C2909 1.400 . S
C2910 C2913 1.386 . S
H2911 C2927 0.930 . S
H2912 C2928 0.931 . S
C2913 H2901 0.929 . S
C2913 C2907 1.390 . S
C2913 C2910 1.386 . S
C2914 C2909 1.490 . S
C2914 C2916 1.395 . S
C2914 C2917 1.403 . S
H2915 C2921 0.930 . S
C2916 H2902 0.930 . S
C2916 C2914 1.395 . S
C2916 C2919 1.403 . S
C2917 C2914 1.403 . S
C2917 C2918 1.524 . S
C2917 C2921 1.400 . S
C2918 H2903 0.960 . S
C2918 H2904 0.960 . S
C2918 H2905 0.960 . S
C2918 C2917 1.524 . S
C2919 C2916 1.403 . S
C2919 C2920 1.392 . S
C2919 C2923 1.495 . S
C2920 C2919 1.392 . S
C2920 C2921 1.385 . S
C2920 C2922 1.478 . S
C2921 H2915 0.930 . S
C2921 C2917 1.400 . S
C2921 C2920 1.385 . S
C2922 C2920 1.478 . S
C2922 C2924 1.381 . S
C2922 C2928 1.383 . S
C2923 C2919 1.495 . S
C2923 H2929 0.959 . S
C2923 H2930 0.961 . S
C2923 H2931 0.960 . S
C2924 C2922 1.381 . S
C2924 C2925 1.394 . S
C2924 H2932 0.930 . S
C2925 C2924 1.394 . S
C2925 C2926 1.383 . S
C2925 H2933 0.929 . S
C2926 C2925 1.383 . S
C2926 C2927 1.377 . S
C2927 H2911 0.930 . S
C2927 C2926 1.377 . S
C2927 C2928 1.379 . S
C2928 H2912 0.931 . S
C2928 C2922 1.383 . S
C2928 C2927 1.379 . S
H2929 C2923 0.959 . S
H2930 C2923 0.961 . S
H2931 C2923 0.960 . S
H2932 C2924 0.930 . S
H2933 C2925 0.929 . S
C999 N170 2.070 . S
C1018 C290 1.976 . S
C1035 N184 0.812 . S
C1054 C374 0.785 . S
C1071 N158 1.562 . S
C1090 C468 1.515 . S
C1107 N145 1.531 . S
C1126 C384 1.465 1_556 S
C1162 C458 0.706 . S
C1143 N119 0.754 . S
C1179 N131 2.019 . S
C1198 C300 1.959 . S
C1234 C301 1.598 . S
C1215 N144 1.663 . S
C1270 C385 1.306 . S
C1251 N118 1.315 . S
C1287 N132 1.409 . S
C1306 C477 1.384 . S
C1323 N171 1.389 . S
C1342 C393 1.372 . S
C1359 N183 1.257 . S
C1378 C469 1.255 . S
C1414 C309 1.560 . S
C1395 N157 1.615 . S
C1450 C542 2.003 . S
C1431 N14 2.069 . S
C1467 N28 0.816 . S
C1486 C626 0.846 . S
C1503 N2 1.561 . S
C1522 C720 1.540 . S
C1539 N223 1.529 . S
C1558 C636 1.500 . S
C1575 N197 0.754 . S
C1594 C710 0.751 . S
C1611 N209 2.023 . S
C1630 C552 1.998 . S
C1647 N222 1.663 . S
C1666 C553 1.587 . S
C1683 N196 1.313 . S
C1702 C637 1.310 . S
C1738 C729 1.415 . S
C1719 N210 1.413 . S
C1755 N15 1.391 . S
C1774 C645 1.374 . S
C1810 C721 1.201 . S
C1791 N27 1.257 . S
C1827 N1 1.615 . S
C1846 C561 1.560 . S
C1882 C794 1.992 . S
C1863 N92 2.074 . S
C1899 N106 0.818 . S
C1918 C878 0.857 . S
C1954 C972 1.528 . S
C1935 N80 1.559 . S
C1990 C888 1.496 . S
C1971 N67 1.532 . S
C2026 C962 0.812 . S
C2007 N41 0.759 . S
C2043 N53 2.020 . S
C2062 C804 1.962 . S
C2079 N66 1.664 . S
C2098 C805 1.577 . S
C2115 N40 1.317 . S
C2134 C889 1.276 . S
C2170 C981 1.416 . S
C2151 N54 1.413 . S
C2187 N93 1.389 . S
C2206 C897 1.365 . S
C2223 N105 1.258 . S
C2242 C973 1.199 . S
C2259 N79 1.615 . S
C2278 C813 1.562 . S
C2295 N200 1.158 . S
C2314 C297 1.022 . S
C2350 C381 1.706 . S
C2331 N213 1.865 . S
C2367 N226 1.481 . S
C2386 C474 1.331 . S
C2403 N83 1.522 . S
C2422 C390 1.430 . S
C2439 N96 1.843 . S
C2458 C465 1.640 . S
C2494 C306 1.085 . S
C2475 N109 1.177 . S
C2511 N44 1.159 . S
C2530 C549 1.098 . S
C2547 N57 1.869 . S
C2566 C633 1.645 . S
C2583 N70 1.483 . S
C2602 C726 1.347 . S
C2619 N161 1.517 . S
C2638 C642 1.348 . S
C2674 C717 1.692 . S
C2655 N174 1.837 . S
C2691 N187 1.184 . S
C2710 C558 1.144 . S
C2727 N122 1.166 . S
C2746 C801 1.046 . S
C2763 N135 1.866 . S
C2782 C885 1.665 . S
C2818 C978 1.326 . S
C2799 N148 1.481 . S
C2835 N5 1.519 . S
C2854 C894 1.370 . S
C2871 N18 1.839 . S
C2890 C969 1.697 . S
C2907 N31 1.185 . S
C2926 C810 1.119 . S
