# Generated by pormake.
# Topology nom, (4,4)-cn, num edge types: 1
# Building blocks:
#     Node 0, Type 0, BuildingBlock: GIZVER_clean_linker_0, # of connection points: 4
#     Node 1, Type 0, BuildingBlock: GIZVER_clean_linker_0, # of connection points: 4
#     Node 2, Type 0, BuildingBlock: GIZVER_clean_linker_0, # of connection points: 4
#     Node 3, Type 0, BuildingBlock: GIZVER_clean_linker_0, # of connection points: 4
#     Node 4, Type 0, BuildingBlock: GIZVER_clean_linker_0, # of connection points: 4
#     Node 5, Type 0, BuildingBlock: GIZVER_clean_linker_0, # of connection points: 4
#     Node 6, Type 1, BuildingBlock: QUQFOY_clean_sbu_3, # of connection points: 4
#     Node 7, Type 1, BuildingBlock: QUQFOY_clean_sbu_3, # of connection points: 4
#     Node 8, Type 1, BuildingBlock: QUQFOY_clean_sbu_3, # of connection points: 4
#     Node 9, Type 1, BuildingBlock: QUQFOY_clean_sbu_3, # of connection points: 4
#     Node 10, Type 1, BuildingBlock: QUQFOY_clean_sbu_3, # of connection points: 4
#     Node 11, Type 1, BuildingBlock: QUQFOY_clean_sbu_3, # of connection points: 4
#     Edge 12, Type (0, 1), BuildingBlock: TEMPAE_clean_linker_10, # of connection points: 2
#     Edge 13, Type (0, 1), BuildingBlock: TEMPAE_clean_linker_10, # of connection points: 2
#     Edge 14, Type (0, 1), BuildingBlock: TEMPAE_clean_linker_10, # of connection points: 2
#     Edge 15, Type (0, 1), BuildingBlock: TEMPAE_clean_linker_10, # of connection points: 2
#     Edge 16, Type (0, 1), BuildingBlock: TEMPAE_clean_linker_10, # of connection points: 2
#     Edge 17, Type (0, 1), BuildingBlock: TEMPAE_clean_linker_10, # of connection points: 2
#     Edge 18, Type (0, 1), BuildingBlock: TEMPAE_clean_linker_10, # of connection points: 2
#     Edge 19, Type (0, 1), BuildingBlock: TEMPAE_clean_linker_10, # of connection points: 2
#     Edge 20, Type (0, 1), BuildingBlock: TEMPAE_clean_linker_10, # of connection points: 2
#     Edge 21, Type (0, 1), BuildingBlock: TEMPAE_clean_linker_10, # of connection points: 2
#     Edge 22, Type (0, 1), BuildingBlock: TEMPAE_clean_linker_10, # of connection points: 2
#     Edge 23, Type (0, 1), BuildingBlock: TEMPAE_clean_linker_10, # of connection points: 2
#     Edge 24, Type (0, 1), BuildingBlock: TEMPAE_clean_linker_10, # of connection points: 2
#     Edge 25, Type (0, 1), BuildingBlock: TEMPAE_clean_linker_10, # of connection points: 2
#     Edge 26, Type (0, 1), BuildingBlock: TEMPAE_clean_linker_10, # of connection points: 2
#     Edge 27, Type (0, 1), BuildingBlock: TEMPAE_clean_linker_10, # of connection points: 2
#     Edge 28, Type (0, 1), BuildingBlock: TEMPAE_clean_linker_10, # of connection points: 2
#     Edge 29, Type (0, 1), BuildingBlock: TEMPAE_clean_linker_10, # of connection points: 2
#     Edge 30, Type (0, 1), BuildingBlock: TEMPAE_clean_linker_10, # of connection points: 2
#     Edge 31, Type (0, 1), BuildingBlock: TEMPAE_clean_linker_10, # of connection points: 2
#     Edge 32, Type (0, 1), BuildingBlock: TEMPAE_clean_linker_10, # of connection points: 2
#     Edge 33, Type (0, 1), BuildingBlock: TEMPAE_clean_linker_10, # of connection points: 2
#     Edge 34, Type (0, 1), BuildingBlock: TEMPAE_clean_linker_10, # of connection points: 2
#     Edge 35, Type (0, 1), BuildingBlock: TEMPAE_clean_linker_10, # of connection points: 2
# Relax obj value: 0.004
# Max RMSD: 0.069
# Mean RMSD: 0.046
data_MOF--net-nom--node1-QUQFOY_clean_sbu_3--node2-GIZVER_clean_linker_0--edge1-TEMPAE_clean_linker_10
_symmetry_space_group_name_H-M    P1
_symmetry_Int_Tables_number       1
_symmetry_cell_setting            triclinic
loop_
_symmetry_equiv_pos_as_xyz
'x, y, z'
_cell_length_a     47.327612
_cell_length_b     48.494564
_cell_length_c     46.676219
_cell_angle_alpha  89.978035
_cell_angle_beta   90.022524
_cell_angle_gamma 119.96734
loop_
_atom_site_label
_atom_site_type_symbol
_atom_site_fract_x
_atom_site_fract_y
_atom_site_fract_z
_atom_type_partial_charge
H0 H 0.9418 0.55132 0.35712 0.0
H1 H 0.97903 0.5643 0.27096 0.0
H2 H 0.88853 0.48106 0.29259 0.0
H3 H 0.98749 0.60097 0.34429 0.0
H4 H 0.99154 0.61053 0.30715 0.0
H5 H 0.02288 0.58327 0.3673 0.0
H6 H 0.11438 0.61313 0.3251 0.0
H7 H 0.03606 0.61302 0.27878 0.0
C8 C 0.94041 0.54217 0.33566 0.0
C9 C 0.91257 0.51369 0.32738 0.0
C10 C 0.96493 0.56039 0.31549 0.0
C11 C 0.96144 0.54955 0.28707 0.0
C12 C 0.93422 0.52065 0.27897 0.0
C13 C 0.91036 0.50258 0.29931 0.0
C14 C 0.99183 0.5935 0.32296 0.0
C15 C 0.02504 0.59623 0.32267 0.0
C16 C 0.03759 0.59064 0.348 0.0
C17 C 0.07001 0.59725 0.34905 0.0
C18 C 0.08914 0.60759 0.32426 0.0
C19 C 0.07706 0.61314 0.29895 0.0
C20 C 0.04495 0.60739 0.29804 0.0
H21 H 0.38398 0.94235 0.5194 0.0
H22 H 0.40721 0.97626 0.43232 0.0
H23 H 0.39407 0.88477 0.45477 0.0
H24 H 0.38131 0.98889 0.505 0.0
H25 H 0.38117 0.99698 0.46769 0.0
H26 H 0.43289 0.0136 0.53242 0.0
H27 H 0.51254 0.09844 0.49686 0.0
H28 H 0.4301 0.03822 0.44405 0.0
C29 C 0.39009 0.93953 0.49763 0.0
C30 C 0.3889 0.91107 0.48955 0.0
C31 C 0.3971 0.96345 0.47706 0.0
C32 C 0.40313 0.95862 0.44852 0.0
C33 C 0.40262 0.93052 0.44064 0.0
C34 C 0.3959 0.90711 0.46123 0.0
C35 C 0.39501 0.99261 0.48465 0.0
C36 C 0.42854 0.0215 0.48743 0.0
C37 C 0.44465 0.02868 0.51402 0.0
C38 C 0.47504 0.05629 0.5173 0.0
C39 C 0.48982 0.07623 0.49378 0.0
C40 C 0.47369 0.07014 0.46742 0.0
C41 C 0.44307 0.04258 0.46418 0.0
H42 H 0.3961 0.43821 0.64177 0.0
H43 H 0.42475 0.44348 0.73014 0.0
H44 H 0.41641 0.51997 0.69253 0.0
H45 H 0.38897 0.39062 0.66705 0.0
H46 H 0.39932 0.39256 0.70412 0.0
H47 H 0.43385 0.4134 0.62978 0.0
H48 H 0.51885 0.40778 0.6517 0.0
H49 H 0.45069 0.3972 0.71748 0.0
C50 C 0.40449 0.45137 0.66167 0.0
C51 C 0.40662 0.48122 0.66413 0.0
C52 C 0.41192 0.43796 0.68524 0.0
C53 C 0.42062 0.45434 0.71148 0.0
C54 C 0.4225 0.48401 0.71407 0.0
C55 C 0.41641 0.4977 0.69016 0.0
C56 C 0.40789 0.40512 0.68324 0.0
C57 C 0.4396 0.40702 0.67488 0.0
C58 C 0.44927 0.41157 0.64596 0.0
C59 C 0.47804 0.41223 0.63773 0.0
C60 C 0.49747 0.40889 0.65843 0.0
C61 C 0.48763 0.40308 0.6871 0.0
C62 C 0.45876 0.4024 0.69541 0.0
H63 H 0.97898 0.40402 0.77843 0.0
H64 H 0.98235 0.42623 0.86824 0.0
H65 H 0.90039 0.41086 0.81684 0.0
H66 H 0.01755 0.39993 0.81034 0.0
H67 H 0.01628 0.40551 0.84801 0.0
H68 H 0.04104 0.45047 0.77806 0.0
H69 H 0.12905 0.5268 0.81402 0.0
H70 H 0.06079 0.45161 0.86837 0.0
C71 C 0.96887 0.40979 0.79678 0.0
C72 C 0.93847 0.40805 0.79439 0.0
C73 C 0.98539 0.41738 0.82329 0.0
C74 C 0.97071 0.42234 0.84747 0.0
C75 C 0.93975 0.41941 0.8453 0.0
C76 C 0.92456 0.41364 0.8185 0.0
C77 C 0.01635 0.41594 0.82675 0.0
C78 C 0.04634 0.44841 0.82385 0.0
C79 C 0.05588 0.46253 0.79662 0.0
C80 C 0.08589 0.49061 0.79294 0.0
C81 C 0.1055 0.50547 0.81688 0.0
C82 C 0.09661 0.4916 0.84403 0.0
C83 C 0.067 0.46305 0.84756 0.0
H84 H 0.62369 0.06985 0.01349 0.0
H85 H 0.60636 0.03734 0.92582 0.0
H86 H 0.61356 0.12648 0.94787 0.0
H87 H 0.6304 0.02567 -0.00028 0.0
H88 H 0.6337 0.0192 0.96259 0.0
H89 H 0.57947 0.99354 0.02549 0.0
H90 H 0.50754 0.90737 0.98497 0.0
H91 H 0.5863 0.97873 0.93509 0.0
C92 C 0.61814 0.07257 0.9915 0.0
C93 C 0.61848 0.10057 0.98315 0.0
C94 C 0.61327 0.04927 0.9709 0.0
C95 C 0.60842 0.05424 0.94205 0.0
C96 C 0.60789 0.08176 0.93386 0.0
C97 C 0.6124 0.10447 0.95451 0.0
C98 C 0.61768 0.02146 0.97875 0.0
C99 C 0.58555 0.99061 0.97983 0.0
C100 C 0.56927 0.97956 0.00622 0.0
C101 C 0.54151 0.94927 0.00813 0.0
C102 C 0.52872 0.93106 0.98333 0.0
C103 C 0.54455 0.94148 0.95698 0.0
C104 C 0.57314 0.97125 0.95519 0.0
H105 H 0.61592 0.5752 0.14112 0.0
H106 H 0.58428 0.56603 0.22889 0.0
H107 H 0.59225 0.49052 0.18869 0.0
H108 H 0.62357 0.62189 0.16832 0.0
H109 H 0.61167 0.61819 0.20509 0.0
H110 H 0.57942 0.60044 0.12964 0.0
H111 H 0.4968 0.61082 0.14984 0.0
H112 H 0.56162 0.61675 0.21702 0.0
C113 C 0.60652 0.56105 0.16042 0.0
C114 C 0.60368 0.53083 0.1618 0.0
C115 C 0.59862 0.57357 0.18436 0.0
C116 C 0.58872 0.55588 0.2099 0.0
C117 C 0.58619 0.52583 0.21145 0.0
C118 C 0.59272 0.51308 0.18711 0.0
C119 C 0.60375 0.6069 0.18363 0.0
C120 C 0.57299 0.60665 0.17464 0.0
C121 C 0.56415 0.60299 0.14551 0.0
C122 C 0.53646 0.6041 0.1367 0.0
C123 C 0.51732 0.60843 0.15698 0.0
C124 C 0.52639 0.61334 0.18585 0.0
C125 C 0.55413 0.6122 0.19478 0.0
C126 C 0.69851 0.42014 0.42929 0.0
O127 O 0.69203 0.4391 0.44267 0.0
Cd128 Cd 0.63866 0.42998 0.45393 0.0
O129 O 0.67554 0.39299 0.42116 0.0
Cd130 Cd 0.61454 0.36327 0.4245 0.0
C131 C 0.60767 0.41809 0.38569 0.0
O132 O 0.60627 0.37782 0.4725 0.0
O133 O 0.56563 0.36204 0.44347 0.0
O134 O 0.60944 0.31296 0.43956 0.0
C135 C 0.57662 0.36981 0.46873 0.0
O136 O 0.61478 0.43407 0.40886 0.0
C137 C 0.59154 0.29644 0.4189 0.0
O138 O 0.60889 0.39245 0.38404 0.0
O139 O 0.58549 0.31129 0.39963 0.0
C140 C 0.28763 0.57144 0.56037 0.0
O141 O 0.26438 0.55149 0.54481 0.0
Cd142 Cd 0.21634 0.55465 0.53542 0.0
O143 O 0.28832 0.59675 0.56897 0.0
Cd144 Cd 0.25597 0.62419 0.56073 0.0
C145 C 0.19778 0.56959 0.60328 0.0
O146 O 0.23128 0.60436 0.51351 0.0
O147 O 0.2078 0.62284 0.54077 0.0
O148 O 0.30302 0.67392 0.54478 0.0
C149 C 0.20951 0.61213 0.51648 0.0
O150 O 0.19077 0.55072 0.58206 0.0
C151 C 0.29942 0.69172 0.5626 0.0
O152 O 0.22192 0.59787 0.60215 0.0
O153 O 0.27651 0.67789 0.58073 0.0
C154 C 0.72636 0.28599 0.70007 0.0
O155 O 0.72056 0.26216 0.68469 0.0
Cd156 Cd 0.66723 0.21629 0.67911 0.0
O157 O 0.70304 0.28805 0.71159 0.0
Cd158 Cd 0.64218 0.25709 0.71154 0.0
C159 C 0.64334 0.19914 0.74977 0.0
O160 O 0.62906 0.23173 0.66441 0.0
O161 O 0.59294 0.20833 0.69753 0.0
O162 O 0.63278 0.30009 0.69712 0.0
C163 C 0.60064 0.20995 0.67132 0.0
O164 O 0.64997 0.19048 0.72612 0.0
C165 C 0.61746 0.29985 0.71953 0.0
O166 O 0.64187 0.22463 0.75153 0.0
O167 O 0.61481 0.28059 0.73923 0.0
C168 C 0.31508 0.59686 0.9335 0.0
O169 O 0.32118 0.57965 0.94996 0.0
Cd170 Cd 0.37456 0.58709 0.95803 0.0
O171 O 0.33822 0.62166 0.92174 0.0
Cd172 Cd 0.39935 0.65138 0.92348 0.0
C173 C 0.40075 0.59192 0.88819 0.0
O174 O 0.40993 0.6405 0.97209 0.0
O175 O 0.44862 0.65264 0.94162 0.0
O176 O 0.40569 0.70308 0.93497 0.0
C177 C 0.43903 0.64709 0.96742 0.0
O178 O 0.39386 0.57762 0.91228 0.0
C179 C 0.42331 0.7178 0.91353 0.0
O180 O 0.40155 0.61843 0.88512 0.0
O181 O 0.4285 0.70123 0.89545 0.0
C182 C 0.72183 0.43986 0.05762 0.0
O183 O 0.74575 0.45931 0.04235 0.0
Cd184 Cd 0.79163 0.45332 0.02981 0.0
O185 O 0.71928 0.41353 0.06561 0.0
Cd186 Cd 0.74933 0.38401 0.05739 0.0
C187 C 0.8122 0.43843 0.09661 0.0
O188 O 0.77189 0.40229 0.00934 0.0
O189 O 0.79461 0.38175 0.035 0.0
O190 O 0.70005 0.33469 0.04411 0.0
C191 C 0.79262 0.39304 0.01109 0.0
O192 O 0.82024 0.45604 0.07439 0.0
C193 C 0.70438 0.31694 0.06146 0.0
O194 O 0.78569 0.41178 0.0975 0.0
O195 O 0.72863 0.33072 0.07831 0.0
C196 C 0.29063 0.7361 0.20406 0.0
O197 O 0.29694 0.76135 0.19067 0.0
Cd198 Cd 0.35039 0.80641 0.18358 0.0
O199 O 0.31366 0.73223 0.21371 0.0
Cd200 Cd 0.37467 0.7621 0.21325 0.0
C201 C 0.37698 0.82109 0.25347 0.0
O202 O 0.38489 0.78767 0.16643 0.0
O203 O 0.42527 0.80776 0.19603 0.0
O204 O 0.38129 0.71734 0.19865 0.0
C205 C 0.41471 0.80755 0.17102 0.0
O206 O 0.37004 0.83084 0.23061 0.0
C207 C 0.39743 0.71766 0.22051 0.0
O208 O 0.3776 0.79511 0.25394 0.0
O209 O 0.40171 0.73771 0.23997 0.0
C210 C 0.10647 0.61282 0.25473 0.0
C211 C 0.10061 0.62991 0.27576 0.0
C212 C 0.1348 0.62783 0.23776 0.0
C213 C 0.15792 0.66033 0.24263 0.0
C214 C 0.15089 0.678 0.26269 0.0
C215 C 0.12221 0.66255 0.27891 0.0
C216 C 0.14101 0.60838 0.2161 0.0
C217 C 0.17491 0.71258 0.26881 0.0
C218 C 0.24871 0.69216 0.23437 0.0
C219 C 0.2562 0.71265 0.21086 0.0
C220 C 0.21646 0.67365 0.24403 0.0
C221 C 0.19098 0.6752 0.22948 0.0
C222 C 0.1981 0.69401 0.20447 0.0
C223 C 0.23067 0.71279 0.19562 0.0
C224 C 0.20998 0.65412 0.27097 0.0
C225 C 0.17156 0.69563 0.18793 0.0
H226 H 0.08993 0.58742 0.25274 0.0
H227 H 0.11778 0.67548 0.29562 0.0
H228 H 0.151 0.622 0.19596 0.0
H229 H 0.15935 0.60271 0.22474 0.0
H230 H 0.11844 0.58565 0.21107 0.0
H231 H 0.16468 0.72345 0.28345 0.0
H232 H 0.19715 0.71465 0.27885 0.0
H233 H 0.18248 0.72649 0.24863 0.0
H234 H 0.26827 0.69192 0.24626 0.0
H235 H 0.23623 0.72829 0.17721 0.0
H236 H 0.19019 0.6293 0.26729 0.0
H237 H 0.20173 0.66421 0.28824 0.0
H238 H 0.23199 0.65366 0.27857 0.0
H239 H 0.1503 0.67143 0.18477 0.0
H240 H 0.18021 0.70709 0.16666 0.0
H241 H 0.16298 0.70959 0.20028 0.0
C242 C 0.47068 0.11393 0.4431 0.0
C243 C 0.48657 0.09632 0.44626 0.0
C244 C 0.48739 0.14519 0.43248 0.0
C245 C 0.52056 0.15877 0.42434 0.0
C246 C 0.53535 0.13959 0.42423 0.0
C247 C 0.51832 0.10868 0.43566 0.0
C248 C 0.4707 0.16478 0.43331 0.0
C249 C 0.57025 0.15271 0.41483 0.0
C250 C 0.56114 0.24322 0.39435 0.0
C251 C 0.57607 0.26127 0.41899 0.0
C252 C 0.5441 0.2097 0.3953 0.0
C253 C 0.54114 0.19403 0.42168 0.0
C254 C 0.55674 0.21222 0.44645 0.0
C255 C 0.57432 0.24551 0.44468 0.0
C256 C 0.52869 0.19114 0.36829 0.0
C257 C 0.55391 0.19659 0.47517 0.0
H258 H 0.44629 0.10452 0.45173 0.0
H259 H 0.53066 0.09507 0.43831 0.0
H260 H 0.48036 0.18158 0.45163 0.0
H261 H 0.47574 0.17913 0.41351 0.0
H262 H 0.44386 0.1497 0.43591 0.0
H263 H 0.57565 0.13339 0.40999 0.0
H264 H 0.57567 0.16799 0.39559 0.0
H265 H 0.58686 0.16763 0.43221 0.0
H266 H 0.56255 0.25528 0.3744 0.0
H267 H 0.58563 0.25927 0.46385 0.0
H268 H 0.50178 0.17975 0.3698 0.0
H269 H 0.53461 0.17185 0.36558 0.0
H270 H 0.53691 0.20655 0.34895 0.0
H271 H 0.52787 0.18237 0.48149 0.0
H272 H 0.56733 0.21418 0.49237 0.0
H273 H 0.5636 0.18001 0.47373 0.0
C274 C 0.4132 0.52263 0.62864 0.0
C275 C 0.39333 0.49313 0.64176 0.0
C276 C 0.39955 0.53691 0.61158 0.0
C277 C 0.36521 0.52183 0.60862 0.0
C278 C 0.34523 0.49146 0.62108 0.0
C279 C 0.35962 0.47732 0.63722 0.0
C280 C 0.42175 0.56875 0.59786 0.0
C281 C 0.3085 0.47482 0.61899 0.0
C282 C 0.3239 0.57115 0.59898 0.0
C283 C 0.31192 0.56318 0.57096 0.0
C284 C 0.3423 0.55871 0.6112 0.0
C285 C 0.34976 0.53866 0.59466 0.0
C286 C 0.33971 0.53246 0.56567 0.0
C287 C 0.32038 0.54432 0.55432 0.0
C288 C 0.35192 0.56537 0.64237 0.0
C289 C 0.3482 0.51221 0.54702 0.0
H290 H 0.43928 0.53491 0.63245 0.0
H291 H 0.34431 0.45476 0.64786 0.0
H292 H 0.41453 0.56888 0.57526 0.0
H293 H 0.41961 0.58763 0.60935 0.0
H294 H 0.4477 0.57481 0.59841 0.0
H295 H 0.29657 0.45082 0.62898 0.0
H296 H 0.29953 0.48935 0.62985 0.0
H297 H 0.30079 0.47229 0.59626 0.0
H298 H 0.31715 0.58549 0.61197 0.0
H299 H 0.31132 0.53831 0.53256 0.0
H300 H 0.37852 0.575 0.64487 0.0
H301 H 0.33934 0.54283 0.65475 0.0
H302 H 0.34554 0.58256 0.65188 0.0
H303 H 0.37442 0.51974 0.54926 0.0
H304 H 0.34282 0.51357 0.52406 0.0
H305 H 0.33396 0.487 0.55396 0.0
C306 C 0.90711 0.41214 0.75339 0.0
C307 C 0.91731 0.39408 0.76912 0.0
C308 C 0.87906 0.39722 0.73614 0.0
C309 C 0.86029 0.36355 0.73562 0.0
C310 C 0.87208 0.34539 0.7497 0.0
C311 C 0.90072 0.36096 0.76605 0.0
C312 C 0.86804 0.41748 0.72057 0.0
C313 C 0.85266 0.30946 0.75015 0.0
C314 C 0.76806 0.3244 0.73406 0.0
C315 C 0.76058 0.30955 0.7072 0.0
C316 C 0.80052 0.34282 0.74318 0.0
C317 C 0.82619 0.34735 0.7246 0.0
C318 C 0.81883 0.33418 0.6967 0.0
C319 C 0.78605 0.31492 0.68851 0.0
C320 C 0.80721 0.35594 0.77333 0.0
C321 C 0.84548 0.33946 0.67591 0.0
H322 H 0.9198 0.43777 0.75612 0.0
H323 H 0.90834 0.34707 0.77873 0.0
H324 H 0.85808 0.40739 0.69914 0.0
H325 H 0.84833 0.41802 0.73295 0.0
H326 H 0.88831 0.44235 0.71792 0.0
H327 H 0.8668 0.29893 0.75937 0.0
H328 H 0.83036 0.30159 0.76326 0.0
H329 H 0.84474 0.29989 0.72824 0.0
H330 H 0.74846 0.32013 0.74866 0.0
H331 H 0.78034 0.30365 0.66761 0.0
H332 H 0.82371 0.38209 0.77293 0.0
H333 H 0.8197 0.34552 0.78564 0.0
H334 H 0.78455 0.3507 0.78489 0.0
H335 H 0.86482 0.3649 0.67567 0.0
H336 H 0.836 0.33214 0.65378 0.0
H337 H 0.85699 0.32544 0.68274 0.0
C338 C 0.54862 0.89926 0.93127 0.0
C339 C 0.53352 0.91767 0.93377 0.0
C340 C 0.53141 0.86809 0.92052 0.0
C341 C 0.49857 0.85544 0.91167 0.0
C342 C 0.48504 0.87569 0.91027 0.0
C343 C 0.50254 0.90652 0.9218 0.0
C344 C 0.54688 0.84746 0.92248 0.0
C345 C 0.45065 0.86362 0.89988 0.0
C346 C 0.45487 0.76912 0.88616 0.0
C347 C 0.43961 0.75298 0.91152 0.0
C348 C 0.47296 0.80263 0.8853 0.0
C349 C 0.47668 0.82023 0.91062 0.0
C350 C 0.46065 0.80397 0.93607 0.0
C351 C 0.44202 0.77067 0.93607 0.0
C352 C 0.48878 0.81903 0.85755 0.0
C353 C 0.46418 0.82165 0.96374 0.0
H354 H 0.57241 0.90777 0.94094 0.0
H355 H 0.49077 0.92069 0.92399 0.0
H356 H 0.53665 0.83134 0.94122 0.0
H357 H 0.54142 0.8324 0.90312 0.0
H358 H 0.57376 0.86187 0.92513 0.0
H359 H 0.4466 0.88352 0.89378 0.0
H360 H 0.44507 0.84754 0.88121 0.0
H361 H 0.43326 0.84983 0.91723 0.0
H362 H 0.453 0.75557 0.86707 0.0
H363 H 0.43044 0.7584 0.95578 0.0
H364 H 0.5152 0.82708 0.85834 0.0
H365 H 0.48632 0.8404 0.85421 0.0
H366 H 0.47805 0.8029 0.83886 0.0
H367 H 0.49028 0.83549 0.96997 0.0
H368 H 0.45033 0.80541 0.98166 0.0
H369 H 0.4554 0.83882 0.96081 0.0
C370 C 0.65137 0.53523 0.13576 0.0
C371 C 0.6175 0.51972 0.13924 0.0
C372 C 0.666 0.52143 0.1195 0.0
C373 C 0.64615 0.49176 0.10585 0.0
C374 C 0.61175 0.47709 0.10772 0.0
C375 C 0.59781 0.49098 0.1249 0.0
C376 C 0.70277 0.53756 0.11862 0.0
C377 C 0.58973 0.44603 0.09273 0.0
C378 C 0.69174 0.46971 0.05197 0.0
C379 C 0.6986 0.44946 0.06829 0.0
C380 C 0.67286 0.4821 0.06328 0.0
C381 C 0.66165 0.47499 0.09191 0.0
C382 C 0.66769 0.45375 0.10814 0.0
C383 C 0.68566 0.44084 0.09595 0.0
C384 C 0.66592 0.50368 0.04493 0.0
C385 C 0.65682 0.44609 0.13897 0.0
H386 H 0.66651 0.55717 0.14734 0.0
H387 H 0.5716 0.47892 0.12789 0.0
H388 H 0.71087 0.52233 0.12948 0.0
H389 H 0.71143 0.54075 0.09615 0.0
H390 H 0.71463 0.5612 0.12928 0.0
H391 H 0.56392 0.44043 0.09257 0.0
H392 H 0.59786 0.44675 0.07031 0.0
H393 H 0.59094 0.4264 0.10379 0.0
H394 H 0.70154 0.47622 0.03047 0.0
H395 H 0.69116 0.42541 0.10869 0.0
H396 H 0.68016 0.52848 0.05291 0.0
H397 H 0.63972 0.49653 0.04625 0.0
H398 H 0.6724 0.50333 0.02212 0.0
H399 H 0.66913 0.46815 0.15201 0.0
H400 H 0.66249 0.42834 0.14832 0.0
H401 H 0.63019 0.43671 0.14067 0.0
C402 C 0.39499 0.88113 0.53066 0.0
C403 C 0.37587 0.88322 0.50882 0.0
C404 C 0.38486 0.85209 0.54499 0.0
C405 C 0.35512 0.82476 0.537 0.0
C406 C 0.33495 0.82751 0.5161 0.0
C407 C 0.34563 0.85669 0.50227 0.0
C408 C 0.40685 0.85022 0.56735 0.0
C409 C 0.30304 0.79912 0.50692 0.0
C410 C 0.34179 0.74105 0.53824 0.0
C411 C 0.31848 0.72691 0.56004 0.0
C412 C 0.35577 0.77357 0.53191 0.0
C413 C 0.34632 0.79251 0.54783 0.0
C414 C 0.32478 0.77895 0.57132 0.0
C415 C 0.31102 0.74625 0.57712 0.0
C416 C 0.37876 0.78705 0.50674 0.0
C417 C 0.31448 0.79841 0.58909 0.0
H418 H 0.41852 0.90169 0.53548 0.0
H419 H 0.331 0.85846 0.48524 0.0
H420 H 0.39252 0.8364 0.58623 0.0
H421 H 0.41902 0.83769 0.55829 0.0
H422 H 0.42597 0.87422 0.57457 0.0
H423 H 0.28912 0.80584 0.49207 0.0
H424 H 0.30784 0.78156 0.49598 0.0
H425 H 0.28759 0.78716 0.52588 0.0
H426 H 0.34794 0.72639 0.52509 0.0
H427 H 0.29321 0.73559 0.59415 0.0
H428 H 0.40085 0.80968 0.51276 0.0
H429 H 0.36656 0.79241 0.48906 0.0
H430 H 0.38644 0.77026 0.4986 0.0
H431 H 0.33579 0.82196 0.59436 0.0
H432 H 0.30237 0.78613 0.60932 0.0
H433 H 0.2971 0.80274 0.57662 0.0
C434 C 0.53793 0.41159 0.71197 0.0
C435 C 0.50472 0.39174 0.70605 0.0
C436 C 0.55733 0.39876 0.72088 0.0
C437 C 0.54331 0.36529 0.72288 0.0
C438 C 0.50916 0.34548 0.71943 0.0
C439 C 0.4902 0.35904 0.71131 0.0
C440 C 0.59339 0.42082 0.72532 0.0
C441 C 0.49317 0.30968 0.72091 0.0
C442 C 0.59447 0.33043 0.69599 0.0
C443 C 0.60109 0.31907 0.72126 0.0
C444 C 0.57608 0.34583 0.69642 0.0
C445 C 0.56469 0.35083 0.7229 0.0
C446 C 0.57252 0.3407 0.74867 0.0
C447 C 0.59022 0.32446 0.74752 0.0
C448 C 0.56789 0.35575 0.66831 0.0
C449 C 0.56171 0.34649 0.77735 0.0
H450 H 0.54916 0.43687 0.70761 0.0
H451 H 0.46461 0.34369 0.70623 0.0
H452 H 0.60247 0.41284 0.74365 0.0
H453 H 0.60683 0.42067 0.70591 0.0
H454 H 0.5991 0.44568 0.72924 0.0
H455 H 0.46616 0.29806 0.72196 0.0
H456 H 0.49979 0.3009 0.70152 0.0
H457 H 0.50191 0.30222 0.73981 0.0
H458 H 0.6026 0.32619 0.67561 0.0
H459 H 0.59542 0.31585 0.76713 0.0
H460 H 0.57725 0.38176 0.66824 0.0
H461 H 0.54103 0.34373 0.66559 0.0
H462 H 0.57837 0.34983 0.64959 0.0
H463 H 0.56797 0.37174 0.77922 0.0
H464 H 0.57307 0.34069 0.79547 0.0
H465 H 0.53483 0.33165 0.77928 0.0
C466 C 0.13113 0.5339 0.87916 0.0
C467 C 0.1217 0.50431 0.86666 0.0
C468 C 0.16039 0.55015 0.89474 0.0
C469 C 0.18109 0.53692 0.89679 0.0
C470 C 0.17066 0.5062 0.88543 0.0
C471 C 0.14088 0.49014 0.87074 0.0
C472 C 0.17007 0.5823 0.90738 0.0
C473 C 0.19216 0.49141 0.88662 0.0
C474 C 0.273 0.59103 0.89803 0.0
C475 C 0.28076 0.58586 0.92573 0.0
C476 C 0.24047 0.5761 0.88866 0.0
C477 C 0.21505 0.55631 0.90777 0.0
C478 C 0.22265 0.55288 0.93641 0.0
C479 C 0.25547 0.56725 0.94491 0.0
C480 C 0.2335 0.57993 0.85777 0.0
C481 C 0.19623 0.53297 0.9577 0.0
H482 H 0.11641 0.54498 0.87556 0.0
H483 H 0.13377 0.46753 0.86047 0.0
H484 H 0.18042 0.5846 0.92916 0.0
H485 H 0.18919 0.60123 0.89386 0.0
H486 H 0.14906 0.58647 0.90862 0.0
H487 H 0.17957 0.46657 0.87847 0.0
H488 H 0.21434 0.50575 0.8735 0.0
H489 H 0.20027 0.4914 0.9089 0.0
H490 H 0.29248 0.60519 0.88308 0.0
H491 H 0.2614 0.56341 0.96645 0.0
H492 H 0.21552 0.58819 0.85654 0.0
H493 H 0.22264 0.55655 0.84675 0.0
H494 H 0.25584 0.5971 0.84599 0.0
H495 H 0.1763 0.53871 0.95675 0.0
H496 H 0.20572 0.53663 0.97998 0.0
H497 H 0.18549 0.5074 0.95229 0.0
C498 C 0.61198 0.12822 0.02611 0.0
C499 C 0.63029 0.12831 0.00252 0.0
C500 C 0.62112 0.1565 0.04146 0.0
C501 C 0.64911 0.18523 0.03284 0.0
C502 C 0.66852 0.18477 0.00996 0.0
C503 C 0.65884 0.15637 -0.00488 0.0
C504 C 0.59996 0.15595 0.06585 0.0
C505 C 0.69868 0.21467 9e-05 0.0
C506 C 0.65957 0.26752 0.03913 0.0
C507 C 0.68488 0.28173 0.05926 0.0
C508 C 0.64554 0.23515 0.03215 0.0
C509 C 0.65708 0.21648 0.04562 0.0
C510 C 0.68048 0.22997 0.06784 0.0
C511 C 0.69416 0.26248 0.07439 0.0
C512 C 0.62042 0.22171 0.00852 0.0
C513 C 0.69311 0.21081 0.08303 0.0
H514 H 0.58982 0.10647 0.03171 0.0
H515 H 0.67302 0.15626 0.97691 0.0
H516 H 0.61512 0.16969 0.0844 0.0
H517 H 0.58581 0.16738 0.05889 0.0
H518 H 0.58252 0.13129 0.07292 0.0
H519 H 0.71213 0.20983 0.98317 0.0
H520 H 0.6917 0.23176 0.99145 0.0
H521 H 0.71542 0.22637 0.0184 0.0
H522 H 0.65197 0.2821 0.02755 0.0
H523 H 0.71351 0.27316 0.09016 0.0
H524 H 0.59973 0.19818 0.01477 0.0
H525 H 0.63164 0.21816 0.98902 0.0
H526 H 0.61079 0.23777 0.00303 0.0
H527 H 0.67285 0.18662 0.08827 0.0
H528 H 0.70625 0.22257 0.10309 0.0
H529 H 0.71023 0.20801 0.06873 0.0
C530 C 0.5239 0.65838 0.20781 0.0
C531 C 0.50979 0.62543 0.20448 0.0
C532 C 0.50492 0.67191 0.21592 0.0
C533 C 0.47117 0.65185 0.22134 0.0
C534 C 0.4577 0.61837 0.22101 0.0
C535 C 0.47708 0.60552 0.21203 0.0
C536 C 0.52027 0.70769 0.21551 0.0
C537 C 0.42215 0.59613 0.22757 0.0
C538 C 0.42596 0.69371 0.24754 0.0
C539 C 0.41313 0.69779 0.2218 0.0
C540 C 0.44361 0.67741 0.24811 0.0
C541 C 0.44934 0.66579 0.22221 0.0
C542 C 0.43575 0.66922 0.19631 0.0
C543 C 0.4175 0.68478 0.19651 0.0
C544 C 0.45682 0.67336 0.27625 0.0
C545 C 0.44163 0.65766 0.16807 0.0
H546 H 0.54906 0.67372 0.20137 0.0
H547 H 0.46612 0.58003 0.20906 0.0
H548 H 0.51144 0.71486 0.19644 0.0
H549 H 0.51311 0.71616 0.23473 0.0
H550 H 0.54732 0.71984 0.21455 0.0
H551 H 0.41721 0.57167 0.23236 0.0
H552 H 0.41416 0.60494 0.24604 0.0
H553 H 0.40718 0.59489 0.20879 0.0
H554 H 0.42252 0.70358 0.26719 0.0
H555 H 0.40781 0.68796 0.17651 0.0
H556 H 0.48374 0.68869 0.27657 0.0
H557 H 0.45123 0.64838 0.27884 0.0
H558 H 0.44662 0.67983 0.29482 0.0
H559 H 0.46818 0.66989 0.16349 0.0
H560 H 0.42921 0.66203 0.14989 0.0
H561 H 0.43284 0.63177 0.16918 0.0
C562 C 0.85357 0.49384 0.33495 0.0
C563 C 0.8832 0.49843 0.34588 0.0
C564 C 0.82511 0.47965 0.35147 0.0
C565 C 0.82612 0.46947 0.37968 0.0
C566 C 0.85597 0.47391 0.39091 0.0
C567 C 0.88436 0.4887 0.37392 0.0
C568 C 0.79402 0.47595 0.33876 0.0
C569 C 0.85784 0.46301 0.42077 0.0
C570 C 0.75689 0.4631 0.42507 0.0
C571 C 0.73279 0.43118 0.42079 0.0
C572 C 0.78822 0.47543 0.41341 0.0
C573 C 0.79587 0.45529 0.39734 0.0
C574 C 0.7725 0.42251 0.39477 0.0
C575 C 0.74114 0.41087 0.40636 0.0
C576 C 0.81224 0.51057 0.41644 0.0
C577 C 0.77992 0.40015 0.37822 0.0
H578 H 0.85277 0.50185 0.31342 0.0
H579 H 0.9073 0.49227 0.38234 0.0
H580 H 0.7748 0.45049 0.33864 0.0
H581 H 0.78499 0.48889 0.35208 0.0
H582 H 0.79744 0.48516 0.31649 0.0
H583 H 0.88261 0.46727 0.42599 0.0
H584 H 0.85107 0.47569 0.43669 0.0
H585 H 0.84011 0.43722 0.42306 0.0
H586 H 0.75085 0.47902 0.43633 0.0
H587 H 0.72285 0.3861 0.40321 0.0
H588 H 0.81513 0.52247 0.39545 0.0
H589 H 0.83658 0.51458 0.42284 0.0
H590 H 0.80414 0.52212 0.43245 0.0
H591 H 0.78041 0.4051 0.35496 0.0
H592 H 0.76139 0.37481 0.38203 0.0
H593 H 0.8043 0.40389 0.38413 0.0
C594 C 0.11492 0.62513 0.38408 0.0
C595 C 0.08586 0.59764 0.37646 0.0
C596 C 0.13253 0.6257 0.40832 0.0
C597 C 0.12077 0.59806 0.42544 0.0
C598 C 0.09072 0.57055 0.41854 0.0
C599 C 0.07346 0.57069 0.39405 0.0
C600 C 0.16427 0.65564 0.41507 0.0
C601 C 0.07743 0.54073 0.43645 0.0
C602 C 0.18753 0.59435 0.46705 0.0
C603 C 0.18543 0.60641 0.49375 0.0
C604 C 0.16556 0.59005 0.44499 0.0
C605 C 0.14092 0.59798 0.4498 0.0
C606 C 0.13797 0.60909 0.47702 0.0
C607 C 0.16031 0.61325 0.49866 0.0
C608 C 0.16953 0.57822 0.41618 0.0
C609 C 0.11202 0.6178 0.48294 0.0
H610 H 0.12418 0.64615 0.37067 0.0
H611 H 0.05094 0.54949 0.3881 0.0
H612 H 0.16383 0.66351 0.43729 0.0
H613 H 0.18477 0.65076 0.41365 0.0
H614 H 0.16925 0.67547 0.40021 0.0
H615 H 0.05265 0.52225 0.42948 0.0
H616 H 0.09396 0.53073 0.4349 0.0
H617 H 0.07643 0.54634 0.45934 0.0
H618 H 0.20676 0.58884 0.46318 0.0
H619 H 0.15839 0.62236 0.51933 0.0
H620 H 0.17708 0.59744 0.40003 0.0
H621 H 0.14595 0.55792 0.40896 0.0
H622 H 0.18806 0.57056 0.41664 0.0
H623 H 0.1172 0.63924 0.47035 0.0
H624 H 0.11084 0.62289 0.50598 0.0
H625 H 0.08775 0.59829 0.47612 0.0
C626 C 0.51972 0.07407 0.55314 0.0
C627 C 0.48865 0.06858 0.54587 0.0
C628 C 0.53663 0.09353 0.57653 0.0
C629 C 0.52246 0.10861 0.59216 0.0
C630 C 0.49026 0.10156 0.58583 0.0
C631 C 0.47358 0.08127 0.56288 0.0
C632 C 0.57051 0.0997 0.5832 0.0
C633 C 0.47455 0.11766 0.60153 0.0
C634 C 0.56033 0.15304 0.66132 0.0
C635 C 0.58024 0.18417 0.65123 0.0
C636 C 0.54184 0.12798 0.6423 0.0
C637 C 0.54256 0.1345 0.61268 0.0
C638 C 0.56224 0.16604 0.60248 0.0
C639 C 0.5813 0.19043 0.62188 0.0
C640 C 0.52193 0.09453 0.65379 0.0
C641 C 0.56299 0.17408 0.57111 0.0
H642 H 0.53139 0.06447 0.53963 0.0
H643 H 0.44978 0.07744 0.55674 0.0
H644 H 0.58874 0.12397 0.57591 0.0
H645 H 0.57373 0.09858 0.60664 0.0
H646 H 0.57574 0.08234 0.57238 0.0
H647 H 0.44829 0.10708 0.5961 0.0
H648 H 0.47689 0.11614 0.62503 0.0
H649 H 0.48723 0.14329 0.59575 0.0
H650 H 0.55986 0.14814 0.68403 0.0
H651 H 0.59665 0.21453 0.61416 0.0
H652 H 0.52949 0.07876 0.6432 0.0
H653 H 0.49575 0.08494 0.64882 0.0
H654 H 0.52466 0.09338 0.67734 0.0
H655 H 0.57234 0.1611 0.55828 0.0
H656 H 0.57859 0.19997 0.56688 0.0
H657 H 0.53792 0.16638 0.56345 0.0
C658 C 0.45 0.5293 0.74838 0.0
C659 C 0.42495 0.49834 0.74245 0.0
C660 C 0.44934 0.54496 0.77345 0.0
C661 C 0.4224 0.52958 0.79231 0.0
C662 C 0.39756 0.49791 0.78672 0.0
C663 C 0.39937 0.48252 0.76198 0.0
C664 C 0.47675 0.57836 0.77914 0.0
C665 C 0.36805 0.48095 0.80591 0.0
C666 C 0.42313 0.55933 0.86764 0.0
C667 C 0.4077 0.5773 0.8635 0.0
C668 C 0.42931 0.5447 0.84446 0.0
C669 C 0.41879 0.54725 0.81671 0.0
C670 C 0.40331 0.56551 0.81242 0.0
C671 C 0.39844 0.58077 0.83585 0.0
C672 C 0.44679 0.52628 0.84968 0.0
C673 C 0.39099 0.56812 0.78326 0.0
H674 H 0.46962 0.54148 0.73304 0.0
H675 H 0.37976 0.45875 0.75698 0.0
H676 H 0.46783 0.59543 0.77626 0.0
H677 H 0.48536 0.5806 0.8016 0.0
H678 H 0.49774 0.58529 0.7645 0.0
H679 H 0.35166 0.45588 0.79923 0.0
H680 H 0.37566 0.48107 0.8284 0.0
H681 H 0.354 0.49366 0.80547 0.0
H682 H 0.43065 0.55697 0.88902 0.0
H683 H 0.38636 0.59454 0.8327 0.0
H684 H 0.46791 0.53465 0.83495 0.0
H685 H 0.43017 0.50067 0.84514 0.0
H686 H 0.45565 0.5287 0.87209 0.0
H687 H 0.41134 0.57832 0.76763 0.0
H688 H 0.37945 0.58323 0.78358 0.0
H689 H 0.37279 0.54407 0.77544 0.0
C690 C 0.88906 0.3912 0.87417 0.0
C691 C 0.92069 0.41724 0.87119 0.0
C692 C 0.8697 0.38852 0.89779 0.0
C693 C 0.88226 0.41249 0.91904 0.0
C694 C 0.91443 0.43862 0.91649 0.0
C695 C 0.93343 0.44061 0.89256 0.0
C696 C 0.83569 0.36008 0.89986 0.0
C697 C 0.92851 0.46461 0.93878 0.0
C698 C 0.81728 0.41632 0.9635 0.0
C699 C 0.81629 0.39902 0.98792 0.0
C700 C 0.83964 0.42204 0.94139 0.0
C701 C 0.86129 0.40996 0.94371 0.0
C702 C 0.8608 0.39298 0.96854 0.0
C703 C 0.83832 0.38776 0.99038 0.0
C704 C 0.8395 0.44029 0.91522 0.0
C705 C 0.8833 0.37947 0.97165 0.0
H706 H 0.87943 0.37274 0.85793 0.0
H707 H 0.95792 0.46067 0.89024 0.0
H708 H 0.83297 0.34702 0.92013 0.0
H709 H 0.81748 0.36812 0.90023 0.0
H710 H 0.82985 0.34331 0.88167 0.0
H711 H 0.95411 0.48298 0.93393 0.0
H712 H 0.91353 0.47632 0.94011 0.0
H713 H 0.92778 0.4543 0.96017 0.0
H714 H 0.80048 0.42529 0.96158 0.0
H715 H 0.83774 0.37445 0.00925 0.0
H716 H 0.83158 0.42437 0.89625 0.0
H717 H 0.86449 0.46014 0.91076 0.0
H718 H 0.82293 0.45018 0.91769 0.0
H719 H 0.87724 0.36083 0.95519 0.0
H720 H 0.88144 0.36881 0.99312 0.0
H721 H 0.90896 0.39833 0.96803 0.0
C722 C 0.51453 0.94613 0.05522 0.0
C723 C 0.52823 0.93392 0.03603 0.0
C724 C 0.49773 0.92861 0.07966 0.0
C725 C 0.4949 0.8985 0.08477 0.0
C726 C 0.51037 0.88709 0.06618 0.0
C727 C 0.52684 0.90497 0.04206 0.0
C728 C 0.48164 0.94152 0.09914 0.0
C729 C 0.50811 0.85522 0.07089 0.0
C730 C 0.46739 0.85468 0.15565 0.0
C731 C 0.43491 0.83188 0.14953 0.0
C732 C 0.48693 0.87752 0.13519 0.0
C733 C 0.47365 0.87745 0.10801 0.0
C734 C 0.44063 0.85502 0.102 0.0
C735 C 0.42168 0.83249 0.12283 0.0
C736 C 0.52205 0.90103 0.14231 0.0
C737 C 0.42562 0.85411 0.0732 0.0
H738 H 0.51568 0.96854 0.05042 0.0
H739 H 0.53782 0.8958 0.02725 0.0
H740 H 0.45476 0.9269 0.09688 0.0
H741 H 0.48764 0.94 0.12185 0.0
H742 H 0.48916 0.96665 0.09408 0.0
H743 H 0.52361 0.85101 0.05567 0.0
H744 H 0.51558 0.85353 0.09305 0.0
H745 H 0.48247 0.8359 0.06816 0.0
H746 H 0.47772 0.85445 0.17632 0.0
H747 H 0.39654 0.81507 0.11803 0.0
H748 H 0.52767 0.92562 0.1373 0.0
H749 H 0.53836 0.89604 0.12895 0.0
H750 H 0.52777 0.8999 0.16522 0.0
H751 H 0.42945 0.878 0.0677 0.0
H752 H 0.39904 0.83672 0.07266 0.0
H753 H 0.43771 0.84751 0.05635 0.0
C754 C 0.55818 0.4786 0.24377 0.0
C755 C 0.58281 0.51014 0.23933 0.0
C756 C 0.55814 0.46196 0.26842 0.0
C757 C 0.58399 0.47697 0.2884 0.0
C758 C 0.60843 0.50915 0.28428 0.0
C759 C 0.60729 0.52546 0.25993 0.0
C760 C 0.53112 0.42803 0.27256 0.0
C761 C 0.63679 0.52582 0.30473 0.0
C762 C 0.58149 0.44656 0.36371 0.0
C763 C 0.59878 0.43026 0.36034 0.0
C764 C 0.57484 0.46037 0.34015 0.0
C765 C 0.58678 0.45875 0.31278 0.0
C766 C 0.60365 0.4417 0.30917 0.0
C767 C 0.60899 0.42719 0.33298 0.0
C768 C 0.55584 0.47742 0.34467 0.0
C769 C 0.61745 0.44009 0.28045 0.0
H770 H 0.53941 0.4668 0.22763 0.0
H771 H 0.62664 0.5497 0.25612 0.0
H772 H 0.5409 0.41164 0.26978 0.0
H773 H 0.52118 0.42457 0.29462 0.0
H774 H 0.51089 0.42121 0.25704 0.0
H775 H 0.6533 0.55111 0.29879 0.0
H776 H 0.62783 0.52497 0.32684 0.0
H777 H 0.65113 0.51339 0.30495 0.0
H778 H 0.57326 0.44861 0.38487 0.0
H779 H 0.62251 0.41472 0.33043 0.0
H780 H 0.53593 0.46938 0.32865 0.0
H781 H 0.57212 0.50338 0.34159 0.0
H782 H 0.54509 0.47337 0.36648 0.0
H783 H 0.59795 0.43042 0.26399 0.0
H784 H 0.62904 0.42504 0.28106 0.0
H785 H 0.63598 0.46443 0.27354 0.0
C786 C 0.37731 0.91468 0.39267 0.0
C787 C 0.40421 0.92292 0.41039 0.0
C788 C 0.37484 0.90065 0.36585 0.0
C789 C 0.40024 0.8954 0.35648 0.0
C790 C 0.42846 0.90568 0.37361 0.0
C791 C 0.42987 0.91888 0.40068 0.0
C792 C 0.34408 0.88947 0.3485 0.0
C793 C 0.4564 0.90127 0.364 0.0
C794 C 0.37671 0.82541 0.3067 0.0
C795 C 0.38415 0.84023 0.27984 0.0
C796 C 0.38196 0.84317 0.33184 0.0
C797 C 0.39586 0.87665 0.33004 0.0
C798 C 0.40441 0.89185 0.303 0.0
C799 C 0.39799 0.87338 0.27815 0.0
C800 C 0.37186 0.82602 0.36025 0.0
C801 C 0.42014 0.92756 0.30034 0.0
H802 H 0.35729 0.91739 0.4006 0.0
H803 H 0.45048 0.92507 0.41468 0.0
H804 H 0.35008 0.89856 0.32624 0.0
H805 H 0.33069 0.86308 0.34733 0.0
H806 H 0.32764 0.89725 0.35791 0.0
H807 H 0.47823 0.91442 0.37786 0.0
H808 H 0.44881 0.87562 0.36463 0.0
H809 H 0.46324 0.90946 0.34156 0.0
H810 H 0.36586 0.79977 0.30801 0.0
H811 H 0.4041 0.88492 0.25737 0.0
H812 H 0.35361 0.83069 0.37072 0.0
H813 H 0.39321 0.83508 0.37478 0.0
H814 H 0.36117 0.79987 0.35791 0.0
H815 H 0.40309 0.9354 0.308 0.0
H816 H 0.42718 0.93584 0.27792 0.0
H817 H 0.44222 0.93937 0.31405 0.0
C818 C 0.46773 0.38095 0.59338 0.0
C819 C 0.48536 0.4102 0.60744 0.0
C820 C 0.47968 0.37481 0.56815 0.0
C821 C 0.50963 0.39879 0.55662 0.0
C822 C 0.52592 0.42936 0.56942 0.0
C823 C 0.51384 0.43455 0.59507 0.0
C824 C 0.46188 0.34173 0.55552 0.0
C825 C 0.55742 0.45582 0.55731 0.0
C826 C 0.56466 0.37371 0.51995 0.0
C827 C 0.55832 0.37583 0.49101 0.0
C828 C 0.54842 0.38051 0.54148 0.0
C829 C 0.52606 0.39064 0.53378 0.0
C830 C 0.51968 0.39299 0.50453 0.0
C831 C 0.53557 0.38507 0.48343 0.0
C832 C 0.55526 0.37693 0.57248 0.0
C833 C 0.49671 0.40453 0.49555 0.0
H834 H 0.44601 0.362 0.60341 0.0
H835 H 0.52755 0.45701 0.60629 0.0
H836 H 0.45976 0.34274 0.53194 0.0
H837 H 0.47597 0.32952 0.55993 0.0
H838 H 0.43706 0.32718 0.56472 0.0
H839 H 0.56392 0.47929 0.56674 0.0
H840 H 0.5775 0.45091 0.56192 0.0
H841 H 0.55571 0.4572 0.53369 0.0
H842 H 0.58219 0.36646 0.52575 0.0
H843 H 0.53097 0.38709 0.46099 0.0
H844 H 0.53214 0.36084 0.58378 0.0
H845 H 0.56635 0.40037 0.58338 0.0
H846 H 0.57204 0.36725 0.57478 0.0
H847 H 0.47221 0.38915 0.50497 0.0
H848 H 0.49422 0.40479 0.4719 0.0
H849 H 0.50571 0.42898 0.50382 0.0
C850 C 0.13043 0.50679 0.75742 0.0
C851 C 0.09938 0.50194 0.76399 0.0
C852 C 0.14433 0.51771 0.73043 0.0
C853 C 0.12681 0.52415 0.70946 0.0
C854 C 0.09528 0.51908 0.71583 0.0
C855 C 0.08176 0.50773 0.74307 0.0
C856 C 0.1778 0.52233 0.72437 0.0
C857 C 0.07608 0.52596 0.694 0.0
C858 C 0.18102 0.5798 0.65118 0.0
C859 C 0.17777 0.55826 0.62962 0.0
C860 C 0.16317 0.56914 0.67674 0.0
C861 C 0.14189 0.53615 0.68095 0.0
C862 C 0.13773 0.51438 0.65894 0.0
C863 C 0.1556 0.52572 0.63348 0.0
C864 C 0.16799 0.59309 0.69966 0.0
C865 C 0.11556 0.47897 0.66279 0.0
H866 H 0.14379 0.5017 0.77346 0.0
H867 H 0.05772 0.50391 0.74822 0.0
H868 H 0.1767 0.50771 0.70567 0.0
H869 H 0.19493 0.54758 0.71887 0.0
H870 H 0.18788 0.51571 0.74293 0.0
H871 H 0.05186 0.52063 0.70228 0.0
H872 H 0.08997 0.5514 0.68764 0.0
H873 H 0.07241 0.51166 0.67438 0.0
H874 H 0.1978 0.60502 0.64824 0.0
H875 H 0.15286 0.5089 0.61691 0.0
H876 H 0.18058 0.58991 0.71834 0.0
H877 H 0.14407 0.58921 0.70727 0.0
H878 H 0.18273 0.618 0.69194 0.0
H879 H 0.12557 0.47017 0.6797 0.0
H880 H 0.1129 0.4655 0.64277 0.0
H881 H 0.09103 0.47375 0.66994 0.0
C882 C 0.63593 0.09811 0.88697 0.0
C883 C 0.60817 0.09 0.90346 0.0
C884 C 0.64044 0.11321 0.86038 0.0
C885 C 0.61624 0.11968 0.84994 0.0
C886 C 0.58707 0.10939 0.86568 0.0
C887 C 0.58361 0.0951 0.89256 0.0
C888 C 0.67214 0.12434 0.84454 0.0
C889 C 0.56035 0.1151 0.85491 0.0
C890 C 0.64329 0.19233 0.80276 0.0
C891 C 0.63651 0.17885 0.77533 0.0
C892 C 0.63707 0.1733 0.82719 0.0
C893 C 0.62286 0.1399 0.8241 0.0
C894 C 0.61543 0.1261 0.79646 0.0
C895 C 0.62278 0.14582 0.77235 0.0
C896 C 0.64603 0.18899 0.8563 0.0
C897 C 0.59944 0.09053 0.79241 0.0
H898 H 0.65511 0.0946 0.89579 0.0
H899 H 0.56231 0.08899 0.90559 0.0
H900 H 0.66745 0.11677 0.8218 0.0
H901 H 0.68645 0.15074 0.84478 0.0
H902 H 0.68718 0.11507 0.85429 0.0
H903 H 0.53756 0.10176 0.86757 0.0
H904 H 0.5685 0.14085 0.85628 0.0
H905 H 0.55488 0.10803 0.83208 0.0
H906 H 0.65405 0.21788 0.80508 0.0
H907 H 0.61716 0.1353 0.75114 0.0
H908 H 0.66295 0.18286 0.86733 0.0
H909 H 0.62389 0.18002 0.86981 0.0
H910 H 0.65783 0.21533 0.85491 0.0
H911 H 0.61531 0.08177 0.80118 0.0
H912 H 0.59442 0.0835 0.76951 0.0
H913 H 0.57611 0.07841 0.80444 0.0
C914 C 0.50182 0.58235 0.09336 0.0
C915 C 0.52998 0.60655 0.10627 0.0
C916 C 0.49023 0.58792 0.06759 0.0
C917 C 0.50673 0.6187 0.05518 0.0
C918 C 0.53645 0.64251 0.06722 0.0
C919 C 0.54787 0.63601 0.0926 0.0
C920 C 0.45892 0.56167 0.05499 0.0
C921 C 0.55449 0.67575 0.05497 0.0
C922 C 0.48083 0.63269 0.98203 0.0
C923 C 0.4579 0.64169 0.98964 0.0
C924 C 0.49698 0.62503 0.0031 0.0
C925 C 0.49055 0.62721 0.03236 0.0
C926 C 0.46812 0.63722 0.04011 0.0
C927 C 0.45175 0.64394 0.01862 0.0
C928 C 0.52018 0.61378 0.99408 0.0
C929 C 0.46115 0.64056 0.07112 0.0
H930 H 0.48789 0.55972 0.10429 0.0
H931 H 0.56934 0.65483 0.10306 0.0
H932 H 0.4388 0.56655 0.05943 0.0
H933 H 0.46103 0.56062 0.03139 0.0
H934 H 0.45224 0.53805 0.06422 0.0
H935 H 0.57928 0.69003 0.06432 0.0
H936 H 0.55673 0.67509 0.03137 0.0
H937 H 0.54053 0.68805 0.05957 0.0
H938 H 0.48537 0.63063 0.95959 0.0
H939 H 0.43412 0.65102 0.02449 0.0
H940 H 0.51099 0.58909 0.00179 0.0
H941 H 0.54446 0.62887 0.00399 0.0
H942 H 0.52317 0.61422 0.97045 0.0
H943 H 0.45002 0.61703 0.08187 0.0
H944 H 0.44436 0.65021 0.07347 0.0
H945 H 0.48422 0.65656 0.08254 0.0
C946 C 0.91829 0.53037 0.23123 0.0
C947 C 0.92664 0.51199 0.24856 0.0
C948 C 0.90282 0.5188 0.2048 0.0
C949 C 0.8963 0.48843 0.19532 0.0
C950 C 0.90714 0.47094 0.21177 0.0
C951 C 0.9217 0.48271 0.23855 0.0
C952 C 0.89107 0.53792 0.18822 0.0
C953 C 0.90157 0.43896 0.20194 0.0
C954 C 0.82073 0.44229 0.14947 0.0
C955 C 0.83387 0.44956 0.12181 0.0
C956 C 0.8409 0.45457 0.1736 0.0
C957 C 0.8751 0.4737 0.16992 0.0
C958 C 0.88859 0.47996 0.14203 0.0
C959 C 0.86773 0.46825 0.11825 0.0
C960 C 0.8255 0.44796 0.20299 0.0
C961 C 0.92497 0.49934 0.13733 0.0
H962 H 0.92164 0.55277 0.23936 0.0
H963 H 0.92798 0.46847 0.25221 0.0
H964 H 0.89883 0.54037 0.16551 0.0
H965 H 0.86401 0.52526 0.18846 0.0
H966 H 0.90032 0.56208 0.19737 0.0
H967 H 0.91608 0.43102 0.21464 0.0
H968 H 0.87539 0.4209 0.20426 0.0
H969 H 0.90799 0.43981 0.17897 0.0
H970 H 0.79453 0.42796 0.1522 0.0
H971 H 0.87792 0.47355 0.09682 0.0
H972 H 0.83155 0.47072 0.21363 0.0
H973 H 0.83544 0.43602 0.21657 0.0
H974 H 0.79854 0.43269 0.20213 0.0
H975 H 0.93416 0.52422 0.14442 0.0
H976 H 0.93169 0.49966 0.11448 0.0
H977 H 0.93759 0.48961 0.15039 0.0
loop_
_geom_bond_atom_site_label_1
_geom_bond_atom_site_label_2
_geom_bond_distance
_geom_bond_site_symmetry_2
_ccdc_geom_bond_type
H0 C8 0.930 . S
H1 C11 0.930 . S
H2 C13 0.930 . S
H3 C14 0.970 . S
H4 C14 0.970 . S
H5 C16 0.930 . S
H6 C18 0.930 . S
H7 C20 0.930 . S
C8 H0 0.930 . S
C8 C9 1.382 . S
C8 C10 1.426 . S
C9 C8 1.382 . S
C9 C13 1.389 . S
C10 C8 1.426 . S
C10 C11 1.375 . S
C10 C14 1.532 1_655 S
C11 H1 0.930 . S
C11 C10 1.375 . S
C11 C12 1.416 . S
C12 C11 1.416 . S
C12 C13 1.371 . S
C13 H2 0.930 . S
C13 C9 1.389 . S
C13 C12 1.371 . S
C14 H3 0.970 . S
C14 H4 0.970 . S
C14 C10 1.532 1_455 S
C14 C15 1.499 . S
C15 C14 1.499 . S
C15 C16 1.370 . S
C15 C20 1.415 . S
C16 H5 0.930 . S
C16 C15 1.370 . S
C16 C17 1.407 . S
C17 C16 1.407 . S
C17 C18 1.365 . S
C18 H6 0.930 . S
C18 C17 1.365 . S
C18 C19 1.393 . S
C19 C18 1.393 . S
C19 C20 1.387 . S
C20 H7 0.930 . S
C20 C15 1.415 . S
C20 C19 1.387 . S
H21 C29 0.930 . S
H22 C32 0.930 . S
H23 C34 0.930 . S
H24 C35 0.970 . S
H25 C35 0.970 . S
H26 C37 0.930 . S
H27 C39 0.930 . S
H28 C41 0.930 . S
C29 H21 0.930 . S
C29 C30 1.382 . S
C29 C31 1.426 . S
C30 C29 1.382 . S
C30 C34 1.389 . S
C31 C29 1.426 . S
C31 C32 1.375 . S
C31 C35 1.532 1_565 S
C32 H22 0.930 . S
C32 C31 1.375 . S
C32 C33 1.416 . S
C33 C32 1.416 . S
C33 C34 1.371 . S
C34 H23 0.930 . S
C34 C30 1.389 . S
C34 C33 1.371 . S
C35 H24 0.970 . S
C35 H25 0.970 . S
C35 C31 1.532 1_545 S
C35 C36 1.499 . S
C36 C35 1.499 . S
C36 C37 1.370 . S
C36 C41 1.415 . S
C37 H26 0.930 . S
C37 C36 1.370 . S
C37 C38 1.407 . S
C38 C37 1.407 . S
C38 C39 1.365 . S
C39 H27 0.930 . S
C39 C38 1.365 . S
C39 C40 1.393 . S
C40 C39 1.393 . S
C40 C41 1.387 . S
C41 H28 0.930 . S
C41 C36 1.415 . S
C41 C40 1.387 . S
H42 C50 0.930 . S
H43 C53 0.930 . S
H44 C55 0.930 . S
H45 C56 0.970 . S
H46 C56 0.970 . S
H47 C58 0.930 . S
H48 C60 0.930 . S
H49 C62 0.930 . S
C50 H42 0.930 . S
C50 C51 1.382 . S
C50 C52 1.426 . S
C51 C50 1.382 . S
C51 C55 1.389 . S
C52 C50 1.426 . S
C52 C53 1.375 . S
C52 C56 1.532 . S
C53 H43 0.930 . S
C53 C52 1.375 . S
C53 C54 1.416 . S
C54 C53 1.416 . S
C54 C55 1.371 . S
C55 H44 0.930 . S
C55 C51 1.389 . S
C55 C54 1.371 . S
C56 H45 0.970 . S
C56 H46 0.970 . S
C56 C52 1.532 . S
C56 C57 1.499 . S
C57 C56 1.499 . S
C57 C58 1.370 . S
C57 C62 1.415 . S
C58 H47 0.930 . S
C58 C57 1.370 . S
C58 C59 1.407 . S
C59 C58 1.407 . S
C59 C60 1.365 . S
C60 H48 0.930 . S
C60 C59 1.365 . S
C60 C61 1.393 . S
C61 C60 1.393 . S
C61 C62 1.387 . S
C62 H49 0.930 . S
C62 C57 1.415 . S
C62 C61 1.387 . S
H63 C71 0.930 . S
H64 C74 0.930 . S
H65 C76 0.930 . S
H66 C77 0.970 . S
H67 C77 0.970 . S
H68 C79 0.930 . S
H69 C81 0.930 . S
H70 C83 0.930 . S
C71 H63 0.930 . S
C71 C72 1.382 . S
C71 C73 1.426 . S
C72 C71 1.382 . S
C72 C76 1.389 . S
C73 C71 1.426 . S
C73 C74 1.375 . S
C73 C77 1.532 1_655 S
C74 H64 0.930 . S
C74 C73 1.375 . S
C74 C75 1.416 . S
C75 C74 1.416 . S
C75 C76 1.371 . S
C76 H65 0.930 . S
C76 C72 1.389 . S
C76 C75 1.371 . S
C77 H66 0.970 . S
C77 H67 0.970 . S
C77 C73 1.532 1_455 S
C77 C78 1.499 . S
C78 C77 1.499 . S
C78 C79 1.370 . S
C78 C83 1.415 . S
C79 H68 0.930 . S
C79 C78 1.370 . S
C79 C80 1.407 . S
C80 C79 1.407 . S
C80 C81 1.365 . S
C81 H69 0.930 . S
C81 C80 1.365 . S
C81 C82 1.393 . S
C82 C81 1.393 . S
C82 C83 1.387 . S
C83 H70 0.930 . S
C83 C78 1.415 . S
C83 C82 1.387 . S
H84 C92 0.930 . S
H85 C95 0.930 . S
H86 C97 0.930 . S
H87 C98 0.970 1_554 S
H88 C98 0.987 . S
H89 C100 0.930 . S
H90 C102 0.930 . S
H91 C104 0.930 . S
C92 H84 0.930 . S
C92 C93 1.382 1_554 S
C92 C94 1.426 1_554 S
C93 C92 1.382 1_556 S
C93 C97 1.389 . S
C94 C92 1.426 1_556 S
C94 C95 1.375 . S
C94 C98 1.532 . S
C95 H85 0.930 . S
C95 C94 1.375 . S
C95 C96 1.416 . S
C96 C95 1.416 . S
C96 C97 1.371 . S
C97 H86 0.930 . S
C97 C93 1.389 . S
C97 C96 1.371 . S
C98 H87 0.970 1_556 S
C98 H88 0.987 . S
C98 C94 1.532 . S
C98 C99 1.504 1_545 S
C99 C98 1.504 1_565 S
C99 C100 1.352 1_556 S
C99 C104 1.429 . S
C100 H89 0.930 . S
C100 C99 1.352 1_554 S
C100 C101 1.407 . S
C101 C100 1.407 . S
C101 C102 1.365 . S
C102 H90 0.930 . S
C102 C101 1.365 . S
C102 C103 1.393 1_554 S
C103 C102 1.393 1_556 S
C103 C104 1.387 . S
C104 H91 0.930 . S
C104 C99 1.429 . S
C104 C103 1.387 . S
H105 C113 0.930 . S
H106 C116 0.930 . S
H107 C118 0.930 . S
H108 C119 0.970 . S
H109 C119 0.970 . S
H110 C121 0.930 . S
H111 C123 0.930 . S
H112 C125 0.930 . S
C113 H105 0.930 . S
C113 C114 1.382 . S
C113 C115 1.426 . S
C114 C113 1.382 . S
C114 C118 1.389 . S
C115 C113 1.426 . S
C115 C116 1.375 . S
C115 C119 1.532 . S
C116 H106 0.930 . S
C116 C115 1.375 . S
C116 C117 1.416 . S
C117 C116 1.416 . S
C117 C118 1.371 . S
C118 H107 0.930 . S
C118 C114 1.389 . S
C118 C117 1.371 . S
C119 H108 0.970 . S
C119 H109 0.970 . S
C119 C115 1.532 . S
C119 C120 1.499 . S
C120 C119 1.499 . S
C120 C121 1.370 . S
C120 C125 1.415 . S
C121 H110 0.930 . S
C121 C120 1.370 . S
C121 C122 1.407 . S
C122 C121 1.407 . S
C122 C123 1.365 . S
C123 H111 0.930 . S
C123 C122 1.365 . S
C123 C124 1.393 . S
C124 C123 1.393 . S
C124 C125 1.387 . S
C125 H112 0.930 . S
C125 C120 1.415 . S
C125 C124 1.387 . S
C126 O127 1.306 . S
C126 O129 1.160 . S
O127 C126 1.306 . S
O127 Cd128 2.228 . S
Cd128 O127 2.228 . S
Cd128 O132 2.273 . S
Cd128 O136 2.277 . S
O129 C126 1.160 . S
O129 Cd130 2.203 . S
Cd130 O129 2.203 . S
Cd130 O132 2.411 . S
Cd130 O133 2.333 . S
Cd130 O134 2.352 . S
Cd130 O138 2.277 . S
Cd130 O139 2.356 . S
C131 O136 1.209 . S
C131 O138 1.226 . S
O132 Cd128 2.273 . S
O132 Cd130 2.411 . S
O132 C135 1.320 . S
O133 Cd130 2.333 . S
O133 C135 1.214 . S
O134 Cd130 2.352 . S
O134 C137 1.258 . S
C135 O132 1.320 . S
C135 O133 1.214 . S
O136 Cd128 2.277 . S
O136 C131 1.209 . S
C137 O134 1.258 . S
C137 O139 1.282 . S
O138 Cd130 2.277 . S
O138 C131 1.226 . S
O139 Cd130 2.356 . S
O139 C137 1.282 . S
C140 O141 1.306 . S
C140 O143 1.160 . S
O141 C140 1.306 . S
O141 Cd142 2.228 . S
Cd142 O141 2.228 . S
Cd142 O146 2.273 . S
Cd142 O150 2.277 . S
O143 C140 1.160 . S
O143 Cd144 2.203 . S
Cd144 O143 2.203 . S
Cd144 O146 2.411 . S
Cd144 O147 2.333 . S
Cd144 O148 2.352 . S
Cd144 O152 2.277 . S
Cd144 O153 2.356 . S
C145 O150 1.209 . S
C145 O152 1.226 . S
O146 Cd142 2.273 . S
O146 Cd144 2.411 . S
O146 C149 1.320 . S
O147 Cd144 2.333 . S
O147 C149 1.214 . S
O148 Cd144 2.352 . S
O148 C151 1.258 . S
C149 O146 1.320 . S
C149 O147 1.214 . S
O150 Cd142 2.277 . S
O150 C145 1.209 . S
C151 O148 1.258 . S
C151 O153 1.282 . S
O152 Cd144 2.277 . S
O152 C145 1.226 . S
O153 Cd144 2.356 . S
O153 C151 1.282 . S
C154 O155 1.306 . S
C154 O157 1.160 . S
O155 C154 1.306 . S
O155 Cd156 2.228 . S
Cd156 O155 2.228 . S
Cd156 O160 2.273 . S
Cd156 O164 2.277 . S
O157 C154 1.160 . S
O157 Cd158 2.203 . S
Cd158 O157 2.203 . S
Cd158 O160 2.411 . S
Cd158 O161 2.333 . S
Cd158 O162 2.352 . S
Cd158 O166 2.277 . S
Cd158 O167 2.356 . S
C159 O164 1.209 . S
C159 O166 1.226 . S
O160 Cd156 2.273 . S
O160 Cd158 2.411 . S
O160 C163 1.320 . S
O161 Cd158 2.333 . S
O161 C163 1.214 . S
O162 Cd158 2.352 . S
O162 C165 1.258 . S
C163 O160 1.320 . S
C163 O161 1.214 . S
O164 Cd156 2.277 . S
O164 C159 1.209 . S
C165 O162 1.258 . S
C165 O167 1.282 . S
O166 Cd158 2.277 . S
O166 C159 1.226 . S
O167 Cd158 2.356 . S
O167 C165 1.282 . S
C168 O169 1.306 . S
C168 O171 1.160 . S
O169 C168 1.306 . S
O169 Cd170 2.228 . S
Cd170 O169 2.228 . S
Cd170 O174 2.273 . S
Cd170 O178 2.277 . S
O171 C168 1.160 . S
O171 Cd172 2.203 . S
Cd172 O171 2.203 . S
Cd172 O174 2.411 . S
Cd172 O175 2.333 . S
Cd172 O176 2.352 . S
Cd172 O180 2.277 . S
Cd172 O181 2.356 . S
C173 O178 1.209 . S
C173 O180 1.226 . S
O174 Cd170 2.273 . S
O174 Cd172 2.411 . S
O174 C177 1.320 . S
O175 Cd172 2.333 . S
O175 C177 1.214 . S
O176 Cd172 2.352 . S
O176 C179 1.258 . S
C177 O174 1.320 . S
C177 O175 1.214 . S
O178 Cd170 2.277 . S
O178 C173 1.209 . S
C179 O176 1.258 . S
C179 O181 1.282 . S
O180 Cd172 2.277 . S
O180 C173 1.226 . S
O181 Cd172 2.356 . S
O181 C179 1.282 . S
C182 O183 1.306 . S
C182 O185 1.160 . S
O183 C182 1.306 . S
O183 Cd184 2.228 . S
Cd184 O183 2.228 . S
Cd184 O188 2.273 . S
Cd184 O192 2.277 . S
O185 C182 1.160 . S
O185 Cd186 2.203 . S
Cd186 O185 2.203 . S
Cd186 O188 2.411 . S
Cd186 O189 2.333 . S
Cd186 O190 2.352 . S
Cd186 O194 2.277 . S
Cd186 O195 2.356 . S
C187 O192 1.209 . S
C187 O194 1.226 . S
O188 Cd184 2.273 . S
O188 Cd186 2.411 . S
O188 C191 1.320 . S
O189 Cd186 2.333 . S
O189 C191 1.214 . S
O190 Cd186 2.352 . S
O190 C193 1.258 . S
C191 O188 1.320 . S
C191 O189 1.214 . S
O192 Cd184 2.277 . S
O192 C187 1.209 . S
C193 O190 1.258 . S
C193 O195 1.282 . S
O194 Cd186 2.277 . S
O194 C187 1.226 . S
O195 Cd186 2.356 . S
O195 C193 1.282 . S
C196 O197 1.306 . S
C196 O199 1.160 . S
O197 C196 1.306 . S
O197 Cd198 2.228 . S
Cd198 O197 2.228 . S
Cd198 O202 2.273 . S
Cd198 O206 2.277 . S
O199 C196 1.160 . S
O199 Cd200 2.203 . S
Cd200 O199 2.203 . S
Cd200 O202 2.411 . S
Cd200 O203 2.333 . S
Cd200 O204 2.352 . S
Cd200 O208 2.277 . S
Cd200 O209 2.356 . S
C201 O206 1.209 . S
C201 O208 1.226 . S
O202 Cd198 2.273 . S
O202 Cd200 2.411 . S
O202 C205 1.320 . S
O203 Cd200 2.333 . S
O203 C205 1.214 . S
O204 Cd200 2.352 . S
O204 C207 1.258 . S
C205 O202 1.320 . S
C205 O203 1.214 . S
O206 Cd198 2.277 . S
O206 C201 1.209 . S
C207 O204 1.258 . S
C207 O209 1.282 . S
O208 Cd200 2.277 . S
O208 C201 1.226 . S
O209 Cd200 2.356 . S
O209 C207 1.282 . S
C210 C211 1.391 . S
C210 C212 1.394 . S
C210 H226 0.931 . S
C211 C210 1.391 . S
C211 C215 1.376 . S
C212 C210 1.394 . S
C212 C213 1.369 . S
C212 C216 1.531 . S
C213 C212 1.369 . S
C213 C214 1.410 . S
C213 C221 1.503 . S
C214 C213 1.410 . S
C214 C215 1.392 . S
C214 C217 1.511 . S
C215 C211 1.376 . S
C215 C214 1.392 . S
C215 H227 0.929 . S
C216 C212 1.531 . S
C216 H228 0.960 . S
C216 H229 0.962 . S
C216 H230 0.960 . S
C217 C214 1.511 . S
C217 H231 0.961 . S
C217 H232 0.961 . S
C217 H233 0.961 . S
C218 C219 1.370 . S
C218 C220 1.363 . S
C218 H234 0.931 . S
C219 C218 1.370 . S
C219 C223 1.408 . S
C220 C218 1.363 . S
C220 C221 1.370 . S
C220 C224 1.524 . S
C221 C213 1.503 . S
C221 C220 1.370 . S
C221 C222 1.403 . S
C222 C221 1.403 . S
C222 C223 1.404 . S
C222 C225 1.539 . S
C223 C219 1.408 . S
C223 C222 1.404 . S
C223 H235 0.930 . S
C224 C220 1.524 . S
C224 H236 0.956 . S
C224 H237 0.961 . S
C224 H238 0.961 . S
C225 C222 1.539 . S
C225 H239 0.958 . S
C225 H240 0.961 . S
C225 H241 0.960 . S
H226 C210 0.931 . S
H227 C215 0.929 . S
H228 C216 0.960 . S
H229 C216 0.962 . S
H230 C216 0.960 . S
H231 C217 0.961 . S
H232 C217 0.961 . S
H233 C217 0.961 . S
H234 C218 0.931 . S
H235 C223 0.930 . S
H236 C224 0.956 . S
H237 C224 0.961 . S
H238 C224 0.961 . S
H239 C225 0.958 . S
H240 C225 0.961 . S
H241 C225 0.960 . S
C242 C243 1.391 . S
C242 C244 1.394 . S
C242 H258 0.931 . S
C243 C242 1.391 . S
C243 C247 1.376 . S
C244 C242 1.394 . S
C244 C245 1.369 . S
C244 C248 1.531 . S
C245 C244 1.369 . S
C245 C246 1.410 . S
C245 C253 1.503 . S
C246 C245 1.410 . S
C246 C247 1.392 . S
C246 C249 1.511 . S
C247 C243 1.376 . S
C247 C246 1.392 . S
C247 H259 0.929 . S
C248 C244 1.531 . S
C248 H260 0.960 . S
C248 H261 0.962 . S
C248 H262 0.960 . S
C249 C246 1.511 . S
C249 H263 0.961 . S
C249 H264 0.961 . S
C249 H265 0.961 . S
C250 C251 1.370 . S
C250 C252 1.363 . S
C250 H266 0.931 . S
C251 C250 1.370 . S
C251 C255 1.408 . S
C252 C250 1.363 . S
C252 C253 1.370 . S
C252 C256 1.524 . S
C253 C245 1.503 . S
C253 C252 1.370 . S
C253 C254 1.403 . S
C254 C253 1.403 . S
C254 C255 1.404 . S
C254 C257 1.539 . S
C255 C251 1.408 . S
C255 C254 1.404 . S
C255 H267 0.930 . S
C256 C252 1.524 . S
C256 H268 0.956 . S
C256 H269 0.961 . S
C256 H270 0.961 . S
C257 C254 1.539 . S
C257 H271 0.958 . S
C257 H272 0.961 . S
C257 H273 0.960 . S
H258 C242 0.931 . S
H259 C247 0.929 . S
H260 C248 0.960 . S
H261 C248 0.962 . S
H262 C248 0.960 . S
H263 C249 0.961 . S
H264 C249 0.961 . S
H265 C249 0.961 . S
H266 C250 0.931 . S
H267 C255 0.930 . S
H268 C256 0.956 . S
H269 C256 0.961 . S
H270 C256 0.961 . S
H271 C257 0.958 . S
H272 C257 0.961 . S
H273 C257 0.960 . S
C274 C275 1.391 . S
C274 C276 1.394 . S
C274 H290 0.931 . S
C275 C274 1.391 . S
C275 C279 1.376 . S
C276 C274 1.394 . S
C276 C277 1.369 . S
C276 C280 1.531 . S
C277 C276 1.369 . S
C277 C278 1.410 . S
C277 C285 1.503 . S
C278 C277 1.410 . S
C278 C279 1.392 . S
C278 C281 1.511 . S
C279 C275 1.376 . S
C279 C278 1.392 . S
C279 H291 0.929 . S
C280 C276 1.531 . S
C280 H292 0.960 . S
C280 H293 0.962 . S
C280 H294 0.960 . S
C281 C278 1.511 . S
C281 H295 0.961 . S
C281 H296 0.961 . S
C281 H297 0.961 . S
C282 C283 1.370 . S
C282 C284 1.363 . S
C282 H298 0.931 . S
C283 C282 1.370 . S
C283 C287 1.408 . S
C284 C282 1.363 . S
C284 C285 1.370 . S
C284 C288 1.524 . S
C285 C277 1.503 . S
C285 C284 1.370 . S
C285 C286 1.403 . S
C286 C285 1.403 . S
C286 C287 1.404 . S
C286 C289 1.539 . S
C287 C283 1.408 . S
C287 C286 1.404 . S
C287 H299 0.930 . S
C288 C284 1.524 . S
C288 H300 0.956 . S
C288 H301 0.961 . S
C288 H302 0.961 . S
C289 C286 1.539 . S
C289 H303 0.958 . S
C289 H304 0.961 . S
C289 H305 0.960 . S
H290 C274 0.931 . S
H291 C279 0.929 . S
H292 C280 0.960 . S
H293 C280 0.962 . S
H294 C280 0.960 . S
H295 C281 0.961 . S
H296 C281 0.961 . S
H297 C281 0.961 . S
H298 C282 0.931 . S
H299 C287 0.930 . S
H300 C288 0.956 . S
H301 C288 0.961 . S
H302 C288 0.961 . S
H303 C289 0.958 . S
H304 C289 0.961 . S
H305 C289 0.960 . S
C306 C307 1.391 . S
C306 C308 1.394 . S
C306 H322 0.931 . S
C307 C306 1.391 . S
C307 C311 1.376 . S
C308 C306 1.394 . S
C308 C309 1.369 . S
C308 C312 1.531 . S
C309 C308 1.369 . S
C309 C310 1.410 . S
C309 C317 1.503 . S
C310 C309 1.410 . S
C310 C311 1.392 . S
C310 C313 1.511 . S
C311 C307 1.376 . S
C311 C310 1.392 . S
C311 H323 0.929 . S
C312 C308 1.531 . S
C312 H324 0.960 . S
C312 H325 0.962 . S
C312 H326 0.960 . S
C313 C310 1.511 . S
C313 H327 0.961 . S
C313 H328 0.961 . S
C313 H329 0.961 . S
C314 C315 1.370 . S
C314 C316 1.363 . S
C314 H330 0.931 . S
C315 C314 1.370 . S
C315 C319 1.408 . S
C316 C314 1.363 . S
C316 C317 1.370 . S
C316 C320 1.524 . S
C317 C309 1.503 . S
C317 C316 1.370 . S
C317 C318 1.403 . S
C318 C317 1.403 . S
C318 C319 1.404 . S
C318 C321 1.539 . S
C319 C315 1.408 . S
C319 C318 1.404 . S
C319 H331 0.930 . S
C320 C316 1.524 . S
C320 H332 0.956 . S
C320 H333 0.961 . S
C320 H334 0.961 . S
C321 C318 1.539 . S
C321 H335 0.958 . S
C321 H336 0.961 . S
C321 H337 0.960 . S
H322 C306 0.931 . S
H323 C311 0.929 . S
H324 C312 0.960 . S
H325 C312 0.962 . S
H326 C312 0.960 . S
H327 C313 0.961 . S
H328 C313 0.961 . S
H329 C313 0.961 . S
H330 C314 0.931 . S
H331 C319 0.930 . S
H332 C320 0.956 . S
H333 C320 0.961 . S
H334 C320 0.961 . S
H335 C321 0.958 . S
H336 C321 0.961 . S
H337 C321 0.960 . S
C338 C339 1.391 . S
C338 C340 1.394 . S
C338 H354 0.954 . S
C339 C338 1.391 . S
C339 C343 1.376 . S
C340 C338 1.394 . S
C340 C341 1.369 . S
C340 C344 1.531 . S
C341 C340 1.369 . S
C341 C342 1.410 . S
C341 C349 1.503 . S
C342 C341 1.410 . S
C342 C343 1.392 . S
C342 C345 1.511 . S
C343 C339 1.376 . S
C343 C342 1.392 . S
C343 H355 0.929 . S
C344 C340 1.531 . S
C344 H356 0.960 . S
C344 H357 0.962 . S
C344 H358 0.960 1_556 S
C345 C342 1.511 . S
C345 H359 0.961 . S
C345 H360 0.961 . S
C345 H361 0.961 . S
C346 C347 1.370 . S
C346 C348 1.363 . S
C346 H362 0.931 . S
C347 C346 1.370 . S
C347 C351 1.408 . S
C348 C346 1.363 . S
C348 C349 1.370 . S
C348 C352 1.524 . S
C349 C341 1.503 . S
C349 C348 1.370 . S
C349 C350 1.403 . S
C350 C349 1.403 . S
C350 C351 1.404 . S
C350 C353 1.539 . S
C351 C347 1.408 . S
C351 C350 1.404 . S
C351 H363 0.930 . S
C352 C348 1.524 . S
C352 H364 0.956 . S
C352 H365 0.961 . S
C352 H366 0.961 . S
C353 C350 1.539 . S
C353 H367 0.958 1_556 S
C353 H368 0.961 . S
C353 H369 0.960 . S
H354 C338 0.954 . S
H355 C343 0.929 . S
H356 C344 0.960 . S
H357 C344 0.962 . S
H358 C344 0.960 1_554 S
H359 C345 0.961 . S
H360 C345 0.961 . S
H361 C345 0.961 . S
H362 C346 0.931 . S
H363 C351 0.930 . S
H364 C352 0.956 . S
H365 C352 0.961 . S
H366 C352 0.961 . S
H367 C353 0.958 1_554 S
H368 C353 0.961 . S
H369 C353 0.960 . S
C370 C371 1.391 . S
C370 C372 1.394 . S
C370 H386 0.931 . S
C371 C370 1.391 . S
C371 C375 1.376 . S
C372 C370 1.394 . S
C372 C373 1.369 . S
C372 C376 1.531 . S
C373 C372 1.369 . S
C373 C374 1.410 . S
C373 C381 1.503 . S
C374 C373 1.410 . S
C374 C375 1.392 . S
C374 C377 1.511 . S
C375 C371 1.376 . S
C375 C374 1.392 . S
C375 H387 0.929 . S
C376 C372 1.531 . S
C376 H388 0.960 . S
C376 H389 0.962 . S
C376 H390 0.960 . S
C377 C374 1.511 . S
C377 H391 0.961 . S
C377 H392 0.961 . S
C377 H393 0.961 . S
C378 C379 1.370 . S
C378 C380 1.363 . S
C378 H394 0.931 . S
C379 C378 1.370 . S
C379 C383 1.408 . S
C380 C378 1.363 . S
C380 C381 1.370 . S
C380 C384 1.524 . S
C381 C373 1.503 . S
C381 C380 1.370 . S
C381 C382 1.403 . S
C382 C381 1.403 . S
C382 C383 1.404 . S
C382 C385 1.539 . S
C383 C379 1.408 . S
C383 C382 1.404 . S
C383 H395 0.930 . S
C384 C380 1.524 . S
C384 H396 0.956 . S
C384 H397 0.961 . S
C384 H398 0.961 . S
C385 C382 1.539 . S
C385 H399 0.958 . S
C385 H400 0.961 . S
C385 H401 0.960 . S
H386 C370 0.931 . S
H387 C375 0.929 . S
H388 C376 0.960 . S
H389 C376 0.962 . S
H390 C376 0.960 . S
H391 C377 0.961 . S
H392 C377 0.961 . S
H393 C377 0.961 . S
H394 C378 0.931 . S
H395 C383 0.930 . S
H396 C384 0.956 . S
H397 C384 0.961 . S
H398 C384 0.961 . S
H399 C385 0.958 . S
H400 C385 0.961 . S
H401 C385 0.960 . S
C402 C403 1.391 . S
C402 C404 1.394 . S
C402 H418 0.931 . S
C403 C402 1.391 . S
C403 C407 1.376 . S
C404 C402 1.394 . S
C404 C405 1.369 . S
C404 C408 1.531 . S
C405 C404 1.369 . S
C405 C406 1.410 . S
C405 C413 1.503 . S
C406 C405 1.410 . S
C406 C407 1.392 . S
C406 C409 1.511 . S
C407 C403 1.376 . S
C407 C406 1.392 . S
C407 H419 0.929 . S
C408 C404 1.531 . S
C408 H420 0.960 . S
C408 H421 0.962 . S
C408 H422 0.960 . S
C409 C406 1.511 . S
C409 H423 0.961 . S
C409 H424 0.961 . S
C409 H425 0.961 . S
C410 C411 1.370 . S
C410 C412 1.363 . S
C410 H426 0.931 . S
C411 C410 1.370 . S
C411 C415 1.408 . S
C412 C410 1.363 . S
C412 C413 1.370 . S
C412 C416 1.524 . S
C413 C405 1.503 . S
C413 C412 1.370 . S
C413 C414 1.403 . S
C414 C413 1.403 . S
C414 C415 1.404 . S
C414 C417 1.539 . S
C415 C411 1.408 . S
C415 C414 1.404 . S
C415 H427 0.930 . S
C416 C412 1.524 . S
C416 H428 0.956 . S
C416 H429 0.961 . S
C416 H430 0.961 . S
C417 C414 1.539 . S
C417 H431 0.958 . S
C417 H432 0.961 . S
C417 H433 0.960 . S
H418 C402 0.931 . S
H419 C407 0.929 . S
H420 C408 0.960 . S
H421 C408 0.962 . S
H422 C408 0.960 . S
H423 C409 0.961 . S
H424 C409 0.961 . S
H425 C409 0.961 . S
H426 C410 0.931 . S
H427 C415 0.930 . S
H428 C416 0.956 . S
H429 C416 0.961 . S
H430 C416 0.961 . S
H431 C417 0.958 . S
H432 C417 0.961 . S
H433 C417 0.960 . S
C434 C435 1.391 . S
C434 C436 1.394 . S
C434 H450 0.931 . S
C435 C434 1.391 . S
C435 C439 1.376 . S
C436 C434 1.394 . S
C436 C437 1.369 . S
C436 C440 1.531 . S
C437 C436 1.369 . S
C437 C438 1.410 . S
C437 C445 1.503 . S
C438 C437 1.410 . S
C438 C439 1.392 . S
C438 C441 1.511 . S
C439 C435 1.376 . S
C439 C438 1.392 . S
C439 H451 0.929 . S
C440 C436 1.531 . S
C440 H452 0.960 . S
C440 H453 0.962 . S
C440 H454 0.960 . S
C441 C438 1.511 . S
C441 H455 0.961 . S
C441 H456 0.961 . S
C441 H457 0.961 . S
C442 C443 1.370 . S
C442 C444 1.363 . S
C442 H458 0.931 . S
C443 C442 1.370 . S
C443 C447 1.408 . S
C444 C442 1.363 . S
C444 C445 1.370 . S
C444 C448 1.524 . S
C445 C437 1.503 . S
C445 C444 1.370 . S
C445 C446 1.403 . S
C446 C445 1.403 . S
C446 C447 1.404 . S
C446 C449 1.539 . S
C447 C443 1.408 . S
C447 C446 1.404 . S
C447 H459 0.930 . S
C448 C444 1.524 . S
C448 H460 0.956 . S
C448 H461 0.961 . S
C448 H462 0.961 . S
C449 C446 1.539 . S
C449 H463 0.958 . S
C449 H464 0.961 . S
C449 H465 0.960 . S
H450 C434 0.931 . S
H451 C439 0.929 . S
H452 C440 0.960 . S
H453 C440 0.962 . S
H454 C440 0.960 . S
H455 C441 0.961 . S
H456 C441 0.961 . S
H457 C441 0.961 . S
H458 C442 0.931 . S
H459 C447 0.930 . S
H460 C448 0.956 . S
H461 C448 0.961 . S
H462 C448 0.961 . S
H463 C449 0.958 . S
H464 C449 0.961 . S
H465 C449 0.960 . S
C466 C467 1.391 . S
C466 C468 1.394 . S
C466 H482 0.931 . S
C467 C466 1.391 . S
C467 C471 1.376 . S
C468 C466 1.394 . S
C468 C469 1.369 . S
C468 C472 1.531 . S
C469 C468 1.369 . S
C469 C470 1.410 . S
C469 C477 1.503 . S
C470 C469 1.410 . S
C470 C471 1.392 . S
C470 C473 1.511 . S
C471 C467 1.376 . S
C471 C470 1.392 . S
C471 H483 0.929 . S
C472 C468 1.531 . S
C472 H484 0.960 . S
C472 H485 0.962 . S
C472 H486 0.960 . S
C473 C470 1.511 . S
C473 H487 0.961 . S
C473 H488 0.961 . S
C473 H489 0.961 . S
C474 C475 1.370 . S
C474 C476 1.363 . S
C474 H490 0.931 . S
C475 C474 1.370 . S
C475 C479 1.408 . S
C476 C474 1.363 . S
C476 C477 1.370 . S
C476 C480 1.524 . S
C477 C469 1.503 . S
C477 C476 1.370 . S
C477 C478 1.403 . S
C478 C477 1.403 . S
C478 C479 1.404 . S
C478 C481 1.539 . S
C479 C475 1.408 . S
C479 C478 1.404 . S
C479 H491 0.930 . S
C480 C476 1.524 . S
C480 H492 0.956 . S
C480 H493 0.961 . S
C480 H494 0.961 . S
C481 C478 1.539 . S
C481 H495 0.958 . S
C481 H496 0.961 . S
C481 H497 0.960 . S
H482 C466 0.931 . S
H483 C471 0.929 . S
H484 C472 0.960 . S
H485 C472 0.962 . S
H486 C472 0.960 . S
H487 C473 0.961 . S
H488 C473 0.961 . S
H489 C473 0.961 . S
H490 C474 0.931 . S
H491 C479 0.930 . S
H492 C480 0.956 . S
H493 C480 0.961 . S
H494 C480 0.961 . S
H495 C481 0.958 . S
H496 C481 0.961 . S
H497 C481 0.960 . S
C498 C499 1.391 . S
C498 C500 1.394 . S
C498 H514 0.931 . S
C499 C498 1.391 . S
C499 C503 1.376 1_554 S
C500 C498 1.394 . S
C500 C501 1.369 . S
C500 C504 1.531 . S
C501 C500 1.369 . S
C501 C502 1.371 1_554 S
C501 C509 1.503 . S
C502 C501 1.371 1_556 S
C502 C503 1.401 . S
C502 C505 1.541 . S
C503 C499 1.376 1_556 S
C503 C502 1.401 . S
C503 H515 0.929 . S
C504 C500 1.531 . S
C504 H516 0.960 . S
C504 H517 0.962 . S
C504 H518 0.960 . S
C505 C502 1.541 . S
C505 H519 0.961 . S
C505 H520 0.961 . S
C505 H521 0.961 . S
C506 C507 1.370 . S
C506 C508 1.363 . S
C506 H522 0.931 . S
C507 C506 1.370 . S
C507 C511 1.408 . S
C508 C506 1.363 . S
C508 C509 1.370 . S
C508 C512 1.524 . S
C509 C501 1.503 . S
C509 C508 1.370 . S
C509 C510 1.403 . S
C510 C509 1.403 . S
C510 C511 1.404 . S
C510 C513 1.539 . S
C511 C507 1.408 . S
C511 C510 1.404 . S
C511 H523 0.930 . S
C512 C508 1.524 . S
C512 H524 0.956 . S
C512 H525 0.961 . S
C512 H526 0.961 . S
C513 C510 1.539 . S
C513 H527 0.958 . S
C513 H528 0.961 . S
C513 H529 0.960 . S
H514 C498 0.931 . S
H515 C503 0.929 . S
H516 C504 0.960 . S
H517 C504 0.962 . S
H518 C504 0.960 . S
H519 C505 0.961 . S
H520 C505 0.961 . S
H521 C505 0.961 . S
H522 C506 0.931 . S
H523 C511 0.930 . S
H524 C512 0.956 . S
H525 C512 0.961 . S
H526 C512 0.961 . S
H527 C513 0.958 . S
H528 C513 0.961 . S
H529 C513 0.960 . S
C530 C531 1.391 . S
C530 C532 1.394 . S
C530 H546 0.931 . S
C531 C530 1.391 . S
C531 C535 1.376 . S
C532 C530 1.394 . S
C532 C533 1.369 . S
C532 C536 1.531 . S
C533 C532 1.369 . S
C533 C534 1.410 . S
C533 C541 1.503 . S
C534 C533 1.410 . S
C534 C535 1.392 . S
C534 C537 1.511 . S
C535 C531 1.376 . S
C535 C534 1.392 . S
C535 H547 0.929 . S
C536 C532 1.531 . S
C536 H548 0.960 . S
C536 H549 0.962 . S
C536 H550 0.960 . S
C537 C534 1.511 . S
C537 H551 0.961 . S
C537 H552 0.961 . S
C537 H553 0.961 . S
C538 C539 1.370 . S
C538 C540 1.363 . S
C538 H554 0.931 . S
C539 C538 1.370 . S
C539 C543 1.408 . S
C540 C538 1.363 . S
C540 C541 1.370 . S
C540 C544 1.524 . S
C541 C533 1.503 . S
C541 C540 1.370 . S
C541 C542 1.403 . S
C542 C541 1.403 . S
C542 C543 1.404 . S
C542 C545 1.539 . S
C543 C539 1.408 . S
C543 C542 1.404 . S
C543 H555 0.930 . S
C544 C540 1.524 . S
C544 H556 0.956 . S
C544 H557 0.961 . S
C544 H558 0.961 . S
C545 C542 1.539 . S
C545 H559 0.958 . S
C545 H560 0.961 . S
C545 H561 0.960 . S
H546 C530 0.931 . S
H547 C535 0.929 . S
H548 C536 0.960 . S
H549 C536 0.962 . S
H550 C536 0.960 . S
H551 C537 0.961 . S
H552 C537 0.961 . S
H553 C537 0.961 . S
H554 C538 0.931 . S
H555 C543 0.930 . S
H556 C544 0.956 . S
H557 C544 0.961 . S
H558 C544 0.961 . S
H559 C545 0.958 . S
H560 C545 0.961 . S
H561 C545 0.960 . S
C562 C563 1.391 . S
C562 C564 1.394 . S
C562 H578 0.931 . S
C563 C562 1.391 . S
C563 C567 1.376 . S
C564 C562 1.394 . S
C564 C565 1.369 . S
C564 C568 1.531 . S
C565 C564 1.369 . S
C565 C566 1.410 . S
C565 C573 1.503 . S
C566 C565 1.410 . S
C566 C567 1.392 . S
C566 C569 1.511 . S
C567 C563 1.376 . S
C567 C566 1.392 . S
C567 H579 0.929 . S
C568 C564 1.531 . S
C568 H580 0.960 . S
C568 H581 0.962 . S
C568 H582 0.960 . S
C569 C566 1.511 . S
C569 H583 0.961 . S
C569 H584 0.961 . S
C569 H585 0.961 . S
C570 C571 1.370 . S
C570 C572 1.363 . S
C570 H586 0.931 . S
C571 C570 1.370 . S
C571 C575 1.408 . S
C572 C570 1.363 . S
C572 C573 1.370 . S
C572 C576 1.524 . S
C573 C565 1.503 . S
C573 C572 1.370 . S
C573 C574 1.403 . S
C574 C573 1.403 . S
C574 C575 1.404 . S
C574 C577 1.539 . S
C575 C571 1.408 . S
C575 C574 1.404 . S
C575 H587 0.930 . S
C576 C572 1.524 . S
C576 H588 0.956 . S
C576 H589 0.961 . S
C576 H590 0.961 . S
C577 C574 1.539 . S
C577 H591 0.958 . S
C577 H592 0.961 . S
C577 H593 0.960 . S
H578 C562 0.931 . S
H579 C567 0.929 . S
H580 C568 0.960 . S
H581 C568 0.962 . S
H582 C568 0.960 . S
H583 C569 0.961 . S
H584 C569 0.961 . S
H585 C569 0.961 . S
H586 C570 0.931 . S
H587 C575 0.930 . S
H588 C576 0.956 . S
H589 C576 0.961 . S
H590 C576 0.961 . S
H591 C577 0.958 . S
H592 C577 0.961 . S
H593 C577 0.960 . S
C594 C595 1.391 . S
C594 C596 1.394 . S
C594 H610 0.931 . S
C595 C594 1.391 . S
C595 C599 1.376 . S
C596 C594 1.394 . S
C596 C597 1.369 . S
C596 C600 1.531 . S
C597 C596 1.369 . S
C597 C598 1.410 . S
C597 C605 1.503 . S
C598 C597 1.410 . S
C598 C599 1.392 . S
C598 C601 1.511 . S
C599 C595 1.376 . S
C599 C598 1.392 . S
C599 H611 0.929 . S
C600 C596 1.531 . S
C600 H612 0.960 . S
C600 H613 0.962 . S
C600 H614 0.960 . S
C601 C598 1.511 . S
C601 H615 0.961 . S
C601 H616 0.961 . S
C601 H617 0.961 . S
C602 C603 1.370 . S
C602 C604 1.363 . S
C602 H618 0.931 . S
C603 C602 1.370 . S
C603 C607 1.408 . S
C604 C602 1.363 . S
C604 C605 1.370 . S
C604 C608 1.524 . S
C605 C597 1.503 . S
C605 C604 1.370 . S
C605 C606 1.403 . S
C606 C605 1.403 . S
C606 C607 1.404 . S
C606 C609 1.539 . S
C607 C603 1.408 . S
C607 C606 1.404 . S
C607 H619 0.930 . S
C608 C604 1.524 . S
C608 H620 0.956 . S
C608 H621 0.961 . S
C608 H622 0.961 . S
C609 C606 1.539 . S
C609 H623 0.958 . S
C609 H624 0.961 . S
C609 H625 0.960 . S
H610 C594 0.931 . S
H611 C599 0.929 . S
H612 C600 0.960 . S
H613 C600 0.962 . S
H614 C600 0.960 . S
H615 C601 0.961 . S
H616 C601 0.961 . S
H617 C601 0.961 . S
H618 C602 0.931 . S
H619 C607 0.930 . S
H620 C608 0.956 . S
H621 C608 0.961 . S
H622 C608 0.961 . S
H623 C609 0.958 . S
H624 C609 0.961 . S
H625 C609 0.960 . S
C626 C627 1.391 . S
C626 C628 1.394 . S
C626 H642 0.931 . S
C627 C626 1.391 . S
C627 C631 1.376 . S
C628 C626 1.394 . S
C628 C629 1.369 . S
C628 C632 1.531 . S
C629 C628 1.369 . S
C629 C630 1.410 . S
C629 C637 1.503 . S
C630 C629 1.410 . S
C630 C631 1.392 . S
C630 C633 1.511 . S
C631 C627 1.376 . S
C631 C630 1.392 . S
C631 H643 0.929 . S
C632 C628 1.531 . S
C632 H644 0.960 . S
C632 H645 0.962 . S
C632 H646 0.960 . S
C633 C630 1.511 . S
C633 H647 0.961 . S
C633 H648 0.961 . S
C633 H649 0.961 . S
C634 C635 1.370 . S
C634 C636 1.363 . S
C634 H650 0.931 . S
C635 C634 1.370 . S
C635 C639 1.408 . S
C636 C634 1.363 . S
C636 C637 1.370 . S
C636 C640 1.524 . S
C637 C629 1.503 . S
C637 C636 1.370 . S
C637 C638 1.403 . S
C638 C637 1.403 . S
C638 C639 1.404 . S
C638 C641 1.539 . S
C639 C635 1.408 . S
C639 C638 1.404 . S
C639 H651 0.930 . S
C640 C636 1.524 . S
C640 H652 0.956 . S
C640 H653 0.961 . S
C640 H654 0.961 . S
C641 C638 1.539 . S
C641 H655 0.958 . S
C641 H656 0.961 . S
C641 H657 0.960 . S
H642 C626 0.931 . S
H643 C631 0.929 . S
H644 C632 0.960 . S
H645 C632 0.962 . S
H646 C632 0.960 . S
H647 C633 0.961 . S
H648 C633 0.961 . S
H649 C633 0.961 . S
H650 C634 0.931 . S
H651 C639 0.930 . S
H652 C640 0.956 . S
H653 C640 0.961 . S
H654 C640 0.961 . S
H655 C641 0.958 . S
H656 C641 0.961 . S
H657 C641 0.960 . S
C658 C659 1.391 . S
C658 C660 1.394 . S
C658 H674 0.931 . S
C659 C658 1.391 . S
C659 C663 1.376 . S
C660 C658 1.394 . S
C660 C661 1.369 . S
C660 C664 1.531 . S
C661 C660 1.369 . S
C661 C662 1.410 . S
C661 C669 1.503 . S
C662 C661 1.410 . S
C662 C663 1.392 . S
C662 C665 1.511 . S
C663 C659 1.376 . S
C663 C662 1.392 . S
C663 H675 0.929 . S
C664 C660 1.531 . S
C664 H676 0.960 . S
C664 H677 0.962 . S
C664 H678 0.960 . S
C665 C662 1.511 . S
C665 H679 0.961 . S
C665 H680 0.961 . S
C665 H681 0.961 . S
C666 C667 1.370 . S
C666 C668 1.363 . S
C666 H682 0.931 . S
C667 C666 1.370 . S
C667 C671 1.408 . S
C668 C666 1.363 . S
C668 C669 1.370 . S
C668 C672 1.524 . S
C669 C661 1.503 . S
C669 C668 1.370 . S
C669 C670 1.403 . S
C670 C669 1.403 . S
C670 C671 1.404 . S
C670 C673 1.539 . S
C671 C667 1.408 . S
C671 C670 1.404 . S
C671 H683 0.930 . S
C672 C668 1.524 . S
C672 H684 0.956 . S
C672 H685 0.961 . S
C672 H686 0.961 . S
C673 C670 1.539 . S
C673 H687 0.958 . S
C673 H688 0.961 . S
C673 H689 0.960 . S
H674 C658 0.931 . S
H675 C663 0.929 . S
H676 C664 0.960 . S
H677 C664 0.962 . S
H678 C664 0.960 . S
H679 C665 0.961 . S
H680 C665 0.961 . S
H681 C665 0.961 . S
H682 C666 0.931 . S
H683 C671 0.930 . S
H684 C672 0.956 . S
H685 C672 0.961 . S
H686 C672 0.961 . S
H687 C673 0.958 . S
H688 C673 0.961 . S
H689 C673 0.960 . S
C690 C691 1.391 . S
C690 C692 1.394 . S
C690 H706 0.931 . S
C691 C690 1.391 . S
C691 C695 1.376 . S
C692 C690 1.394 . S
C692 C693 1.369 . S
C692 C696 1.531 . S
C693 C692 1.369 . S
C693 C694 1.410 . S
C693 C701 1.503 . S
C694 C693 1.410 . S
C694 C695 1.392 . S
C694 C697 1.511 . S
C695 C691 1.376 . S
C695 C694 1.392 . S
C695 H707 0.929 . S
C696 C692 1.531 . S
C696 H708 0.960 . S
C696 H709 0.962 . S
C696 H710 0.960 . S
C697 C694 1.511 . S
C697 H711 0.961 . S
C697 H712 0.961 . S
C697 H713 0.961 . S
C698 C699 1.370 1_556 S
C698 C700 1.363 . S
C698 H714 0.931 1_556 S
C699 C698 1.370 1_554 S
C699 C703 1.408 1_554 S
C700 C698 1.363 . S
C700 C701 1.370 . S
C700 C704 1.524 . S
C701 C693 1.503 . S
C701 C700 1.370 . S
C701 C702 1.403 . S
C702 C701 1.403 . S
C702 C703 1.404 . S
C702 C705 1.539 . S
C703 C699 1.408 1_556 S
C703 C702 1.404 . S
C703 H715 0.930 1_556 S
C704 C700 1.524 . S
C704 H716 0.956 . S
C704 H717 0.961 . S
C704 H718 0.961 . S
C705 C702 1.539 . S
C705 H719 0.958 . S
C705 H720 0.961 . S
C705 H721 0.960 . S
H706 C690 0.931 . S
H707 C695 0.929 . S
H708 C696 0.960 . S
H709 C696 0.962 . S
H710 C696 0.960 . S
H711 C697 0.961 . S
H712 C697 0.961 . S
H713 C697 0.961 . S
H714 C698 0.931 1_554 S
H715 C703 0.930 1_554 S
H716 C704 0.956 . S
H717 C704 0.961 . S
H718 C704 0.961 . S
H719 C705 0.958 . S
H720 C705 0.961 . S
H721 C705 0.960 . S
C722 C723 1.391 . S
C722 C724 1.394 . S
C722 H738 0.931 . S
C723 C722 1.391 . S
C723 C727 1.376 . S
C724 C722 1.394 . S
C724 C725 1.369 . S
C724 C728 1.531 . S
C725 C724 1.369 . S
C725 C726 1.410 . S
C725 C733 1.503 . S
C726 C725 1.410 . S
C726 C727 1.392 . S
C726 C729 1.511 . S
C727 C723 1.376 . S
C727 C726 1.392 . S
C727 H739 0.929 . S
C728 C724 1.531 . S
C728 H740 0.960 . S
C728 H741 0.962 . S
C728 H742 0.960 . S
C729 C726 1.511 . S
C729 H743 0.961 . S
C729 H744 0.961 . S
C729 H745 0.961 . S
C730 C731 1.370 . S
C730 C732 1.363 . S
C730 H746 0.931 . S
C731 C730 1.370 . S
C731 C735 1.408 . S
C732 C730 1.363 . S
C732 C733 1.370 . S
C732 C736 1.524 . S
C733 C725 1.503 . S
C733 C732 1.370 . S
C733 C734 1.403 . S
C734 C733 1.403 . S
C734 C735 1.404 . S
C734 C737 1.539 . S
C735 C731 1.408 . S
C735 C734 1.404 . S
C735 H747 0.930 . S
C736 C732 1.524 . S
C736 H748 0.956 . S
C736 H749 0.961 . S
C736 H750 0.961 . S
C737 C734 1.539 . S
C737 H751 0.958 . S
C737 H752 0.961 . S
C737 H753 0.960 . S
H738 C722 0.931 . S
H739 C727 0.929 . S
H740 C728 0.960 . S
H741 C728 0.962 . S
H742 C728 0.960 . S
H743 C729 0.961 . S
H744 C729 0.961 . S
H745 C729 0.961 . S
H746 C730 0.931 . S
H747 C735 0.930 . S
H748 C736 0.956 . S
H749 C736 0.961 . S
H750 C736 0.961 . S
H751 C737 0.958 . S
H752 C737 0.961 . S
H753 C737 0.960 . S
C754 C755 1.391 . S
C754 C756 1.394 . S
C754 H770 0.931 . S
C755 C754 1.391 . S
C755 C759 1.376 . S
C756 C754 1.394 . S
C756 C757 1.369 . S
C756 C760 1.531 . S
C757 C756 1.369 . S
C757 C758 1.410 . S
C757 C765 1.503 . S
C758 C757 1.410 . S
C758 C759 1.392 . S
C758 C761 1.511 . S
C759 C755 1.376 . S
C759 C758 1.392 . S
C759 H771 0.929 . S
C760 C756 1.531 . S
C760 H772 0.960 . S
C760 H773 0.962 . S
C760 H774 0.960 . S
C761 C758 1.511 . S
C761 H775 0.961 . S
C761 H776 0.961 . S
C761 H777 0.961 . S
C762 C763 1.370 . S
C762 C764 1.363 . S
C762 H778 0.931 . S
C763 C762 1.370 . S
C763 C767 1.408 . S
C764 C762 1.363 . S
C764 C765 1.370 . S
C764 C768 1.524 . S
C765 C757 1.503 . S
C765 C764 1.370 . S
C765 C766 1.403 . S
C766 C765 1.403 . S
C766 C767 1.404 . S
C766 C769 1.539 . S
C767 C763 1.408 . S
C767 C766 1.404 . S
C767 H779 0.930 . S
C768 C764 1.524 . S
C768 H780 0.956 . S
C768 H781 0.961 . S
C768 H782 0.961 . S
C769 C766 1.539 . S
C769 H783 0.958 . S
C769 H784 0.961 . S
C769 H785 0.960 . S
H770 C754 0.931 . S
H771 C759 0.929 . S
H772 C760 0.960 . S
H773 C760 0.962 . S
H774 C760 0.960 . S
H775 C761 0.961 . S
H776 C761 0.961 . S
H777 C761 0.961 . S
H778 C762 0.931 . S
H779 C767 0.930 . S
H780 C768 0.956 . S
H781 C768 0.961 . S
H782 C768 0.961 . S
H783 C769 0.958 . S
H784 C769 0.961 . S
H785 C769 0.960 . S
C786 C787 1.391 . S
C786 C788 1.394 . S
C786 H802 0.931 . S
C787 C786 1.391 . S
C787 C791 1.376 . S
C788 C786 1.394 . S
C788 C789 1.369 . S
C788 C792 1.531 . S
C789 C788 1.369 . S
C789 C790 1.410 . S
C789 C797 1.503 . S
C790 C789 1.410 . S
C790 C791 1.392 . S
C790 C793 1.511 . S
C791 C787 1.376 . S
C791 C790 1.392 . S
C791 H803 0.929 . S
C792 C788 1.531 . S
C792 H804 0.960 . S
C792 H805 0.962 . S
C792 H806 0.960 . S
C793 C790 1.511 . S
C793 H807 0.961 . S
C793 H808 0.961 . S
C793 H809 0.961 . S
C794 C795 1.370 . S
C794 C796 1.363 . S
C794 H810 0.931 . S
C795 C794 1.370 . S
C795 C799 1.408 . S
C796 C794 1.363 . S
C796 C797 1.370 . S
C796 C800 1.524 . S
C797 C789 1.503 . S
C797 C796 1.370 . S
C797 C798 1.403 . S
C798 C797 1.403 . S
C798 C799 1.404 . S
C798 C801 1.539 . S
C799 C795 1.408 . S
C799 C798 1.404 . S
C799 H811 0.930 . S
C800 C796 1.524 . S
C800 H812 0.956 . S
C800 H813 0.961 . S
C800 H814 0.961 . S
C801 C798 1.539 . S
C801 H815 0.958 . S
C801 H816 0.961 . S
C801 H817 0.960 . S
H802 C786 0.931 . S
H803 C791 0.929 . S
H804 C792 0.960 . S
H805 C792 0.962 . S
H806 C792 0.960 . S
H807 C793 0.961 . S
H808 C793 0.961 . S
H809 C793 0.961 . S
H810 C794 0.931 . S
H811 C799 0.930 . S
H812 C800 0.956 . S
H813 C800 0.961 . S
H814 C800 0.961 . S
H815 C801 0.958 . S
H816 C801 0.961 . S
H817 C801 0.960 . S
C818 C819 1.391 . S
C818 C820 1.394 . S
C818 H834 0.931 . S
C819 C818 1.391 . S
C819 C823 1.376 . S
C820 C818 1.394 . S
C820 C821 1.369 . S
C820 C824 1.531 . S
C821 C820 1.369 . S
C821 C822 1.410 . S
C821 C829 1.503 . S
C822 C821 1.410 . S
C822 C823 1.392 . S
C822 C825 1.511 . S
C823 C819 1.376 . S
C823 C822 1.392 . S
C823 H835 0.929 . S
C824 C820 1.531 . S
C824 H836 0.960 . S
C824 H837 0.962 . S
C824 H838 0.960 . S
C825 C822 1.511 . S
C825 H839 0.961 . S
C825 H840 0.961 . S
C825 H841 0.961 . S
C826 C827 1.370 . S
C826 C828 1.363 . S
C826 H842 0.931 . S
C827 C826 1.370 . S
C827 C831 1.408 . S
C828 C826 1.363 . S
C828 C829 1.370 . S
C828 C832 1.524 . S
C829 C821 1.503 . S
C829 C828 1.370 . S
C829 C830 1.403 . S
C830 C829 1.403 . S
C830 C831 1.404 . S
C830 C833 1.539 . S
C831 C827 1.408 . S
C831 C830 1.404 . S
C831 H843 0.930 . S
C832 C828 1.524 . S
C832 H844 0.956 . S
C832 H845 0.961 . S
C832 H846 0.961 . S
C833 C830 1.539 . S
C833 H847 0.958 . S
C833 H848 0.961 . S
C833 H849 0.960 . S
H834 C818 0.931 . S
H835 C823 0.929 . S
H836 C824 0.960 . S
H837 C824 0.962 . S
H838 C824 0.960 . S
H839 C825 0.961 . S
H840 C825 0.961 . S
H841 C825 0.961 . S
H842 C826 0.931 . S
H843 C831 0.930 . S
H844 C832 0.956 . S
H845 C832 0.961 . S
H846 C832 0.961 . S
H847 C833 0.958 . S
H848 C833 0.961 . S
H849 C833 0.960 . S
C850 C851 1.391 . S
C850 C852 1.394 . S
C850 H866 0.931 . S
C851 C850 1.391 . S
C851 C855 1.376 . S
C852 C850 1.394 . S
C852 C853 1.369 . S
C852 C856 1.531 . S
C853 C852 1.369 . S
C853 C854 1.410 . S
C853 C861 1.503 . S
C854 C853 1.410 . S
C854 C855 1.392 . S
C854 C857 1.511 . S
C855 C851 1.376 . S
C855 C854 1.392 . S
C855 H867 0.929 . S
C856 C852 1.531 . S
C856 H868 0.960 . S
C856 H869 0.962 . S
C856 H870 0.960 . S
C857 C854 1.511 . S
C857 H871 0.961 . S
C857 H872 0.961 . S
C857 H873 0.961 . S
C858 C859 1.370 . S
C858 C860 1.363 . S
C858 H874 0.931 . S
C859 C858 1.370 . S
C859 C863 1.408 . S
C860 C858 1.363 . S
C860 C861 1.370 . S
C860 C864 1.524 . S
C861 C853 1.503 . S
C861 C860 1.370 . S
C861 C862 1.403 . S
C862 C861 1.403 . S
C862 C863 1.404 . S
C862 C865 1.539 . S
C863 C859 1.408 . S
C863 C862 1.404 . S
C863 H875 0.930 . S
C864 C860 1.524 . S
C864 H876 0.956 . S
C864 H877 0.961 . S
C864 H878 0.961 . S
C865 C862 1.539 . S
C865 H879 0.958 . S
C865 H880 0.961 . S
C865 H881 0.960 . S
H866 C850 0.931 . S
H867 C855 0.929 . S
H868 C856 0.960 . S
H869 C856 0.962 . S
H870 C856 0.960 . S
H871 C857 0.961 . S
H872 C857 0.961 . S
H873 C857 0.961 . S
H874 C858 0.931 . S
H875 C863 0.930 . S
H876 C864 0.956 . S
H877 C864 0.961 . S
H878 C864 0.961 . S
H879 C865 0.958 . S
H880 C865 0.961 . S
H881 C865 0.960 . S
C882 C883 1.391 . S
C882 C884 1.394 . S
C882 H898 0.931 . S
C883 C882 1.391 . S
C883 C887 1.376 . S
C884 C882 1.394 . S
C884 C885 1.369 . S
C884 C888 1.531 . S
C885 C884 1.369 . S
C885 C886 1.410 . S
C885 C893 1.503 . S
C886 C885 1.410 . S
C886 C887 1.392 . S
C886 C889 1.511 . S
C887 C883 1.376 . S
C887 C886 1.392 . S
C887 H899 0.929 . S
C888 C884 1.531 . S
C888 H900 0.960 . S
C888 H901 0.962 . S
C888 H902 0.960 . S
C889 C886 1.511 . S
C889 H903 0.961 . S
C889 H904 0.961 . S
C889 H905 0.961 . S
C890 C891 1.370 . S
C890 C892 1.363 . S
C890 H906 0.931 . S
C891 C890 1.370 . S
C891 C895 1.408 . S
C892 C890 1.363 . S
C892 C893 1.370 . S
C892 C896 1.524 . S
C893 C885 1.503 . S
C893 C892 1.370 . S
C893 C894 1.403 . S
C894 C893 1.403 . S
C894 C895 1.404 . S
C894 C897 1.539 . S
C895 C891 1.408 . S
C895 C894 1.404 . S
C895 H907 0.930 . S
C896 C892 1.524 . S
C896 H908 0.956 . S
C896 H909 0.961 . S
C896 H910 0.961 . S
C897 C894 1.539 . S
C897 H911 0.958 . S
C897 H912 0.961 . S
C897 H913 0.960 . S
H898 C882 0.931 . S
H899 C887 0.929 . S
H900 C888 0.960 . S
H901 C888 0.962 . S
H902 C888 0.960 . S
H903 C889 0.961 . S
H904 C889 0.961 . S
H905 C889 0.961 . S
H906 C890 0.931 . S
H907 C895 0.930 . S
H908 C896 0.956 . S
H909 C896 0.961 . S
H910 C896 0.961 . S
H911 C897 0.958 . S
H912 C897 0.961 . S
H913 C897 0.960 . S
C914 C915 1.391 . S
C914 C916 1.394 . S
C914 H930 0.931 . S
C915 C914 1.391 . S
C915 C919 1.376 . S
C916 C914 1.394 . S
C916 C917 1.369 . S
C916 C920 1.531 . S
C917 C916 1.369 . S
C917 C918 1.410 . S
C917 C925 1.503 . S
C918 C917 1.410 . S
C918 C919 1.392 . S
C918 C921 1.511 . S
C919 C915 1.376 . S
C919 C918 1.392 . S
C919 H931 0.929 . S
C920 C916 1.531 . S
C920 H932 0.960 . S
C920 H933 0.962 . S
C920 H934 0.960 . S
C921 C918 1.511 . S
C921 H935 0.961 . S
C921 H936 0.961 . S
C921 H937 0.961 . S
C922 C923 1.370 . S
C922 C924 1.363 . S
C922 H938 0.931 . S
C923 C922 1.370 . S
C923 C927 1.408 . S
C924 C922 1.363 . S
C924 C925 1.370 1_556 S
C924 C928 1.524 . S
C925 C917 1.503 . S
C925 C924 1.370 1_554 S
C925 C926 1.403 . S
C926 C925 1.403 . S
C926 C927 1.404 1_554 S
C926 C929 1.539 . S
C927 C923 1.408 . S
C927 C926 1.404 1_556 S
C927 H939 0.930 . S
C928 C924 1.524 . S
C928 H940 0.956 . S
C928 H941 0.961 1_556 S
C928 H942 0.961 . S
C929 C926 1.539 . S
C929 H943 0.958 . S
C929 H944 0.961 . S
C929 H945 0.960 . S
H930 C914 0.931 . S
H931 C919 0.929 . S
H932 C920 0.960 . S
H933 C920 0.962 . S
H934 C920 0.960 . S
H935 C921 0.961 . S
H936 C921 0.961 . S
H937 C921 0.961 . S
H938 C922 0.931 . S
H939 C927 0.930 . S
H940 C928 0.956 . S
H941 C928 0.961 1_554 S
H942 C928 0.961 . S
H943 C929 0.958 . S
H944 C929 0.961 . S
H945 C929 0.960 . S
C946 C947 1.391 . S
C946 C948 1.394 . S
C946 H962 0.931 . S
C947 C946 1.391 . S
C947 C951 1.376 . S
C948 C946 1.394 . S
C948 C949 1.369 . S
C948 C952 1.531 . S
C949 C948 1.369 . S
C949 C950 1.410 . S
C949 C957 1.503 . S
C950 C949 1.410 . S
C950 C951 1.392 . S
C950 C953 1.511 . S
C951 C947 1.376 . S
C951 C950 1.392 . S
C951 H963 0.929 . S
C952 C948 1.531 . S
C952 H964 0.960 . S
C952 H965 0.962 . S
C952 H966 0.960 . S
C953 C950 1.511 . S
C953 H967 0.961 . S
C953 H968 0.961 . S
C953 H969 0.961 . S
C954 C955 1.370 . S
C954 C956 1.363 . S
C954 H970 0.931 . S
C955 C954 1.370 . S
C955 C959 1.408 . S
C956 C954 1.363 . S
C956 C957 1.370 . S
C956 C960 1.524 . S
C957 C949 1.503 . S
C957 C956 1.370 . S
C957 C958 1.403 . S
C958 C957 1.403 . S
C958 C959 1.404 . S
C958 C961 1.539 . S
C959 C955 1.408 . S
C959 C958 1.404 . S
C959 H971 0.930 . S
C960 C956 1.524 . S
C960 H972 0.956 . S
C960 H973 0.961 . S
C960 H974 0.961 . S
C961 C958 1.539 . S
C961 H975 0.958 . S
C961 H976 0.961 . S
C961 H977 0.960 . S
H962 C946 0.931 . S
H963 C951 0.929 . S
H964 C952 0.960 . S
H965 C952 0.962 . S
H966 C952 0.960 . S
H967 C953 0.961 . S
H968 C953 0.961 . S
H969 C953 0.961 . S
H970 C954 0.931 . S
H971 C959 0.930 . S
H972 C960 0.956 . S
H973 C960 0.961 . S
H974 C960 0.961 . S
H975 C961 0.958 . S
H976 C961 0.961 . S
H977 C961 0.960 . S
C219 C196 1.591 . S
C211 C19 1.523 . S
C243 C40 1.489 . S
C251 C137 1.595 . S
C275 C51 1.488 . S
C283 C140 1.587 . S
C307 C72 1.510 . S
C315 C154 1.596 . S
C347 C179 1.594 . S
C339 C103 1.486 . S
C371 C114 1.455 . S
C379 C182 1.586 . S
C403 C30 1.448 . S
C411 C151 1.575 . S
C435 C61 1.522 . S
C443 C165 1.579 . S
C467 C82 1.483 . S
C475 C168 1.562 . S
C507 C193 1.569 . S
C499 C93 1.428 1_554 S
C539 C207 1.582 . S
C531 C124 1.503 . S
C571 C126 1.576 . S
C563 C9 1.484 . S
C595 C17 1.456 . S
C603 C149 1.507 . S
C627 C38 1.388 . S
C635 C163 1.513 . S
C667 C173 1.516 . S
C659 C54 1.384 . S
C691 C75 1.391 . S
C699 C191 1.503 . S
C731 C205 1.517 . S
C723 C101 1.421 . S
C763 C131 1.517 . S
C755 C117 1.380 . S
C795 C201 1.536 . S
C787 C33 1.473 . S
C819 C59 1.464 . S
C827 C135 1.528 . S
C859 C145 1.533 . S
C851 C80 1.419 . S
C883 C96 1.475 . S
C891 C159 1.537 . S
C915 C122 1.415 . S
C923 C177 1.525 . S
C947 C12 1.456 . S
C955 C187 1.531 . S
