# Generated by pormake.
# Topology pto, (3,4)-cn, num edge types: 1
# Building blocks:
#     Node 0, Type 0, BuildingBlock: BETDIP_clean_linker_0, # of connection points: 3
#     Node 1, Type 0, BuildingBlock: BETDIP_clean_linker_0, # of connection points: 3
#     Node 2, Type 0, BuildingBlock: BETDIP_clean_linker_0, # of connection points: 3
#     Node 3, Type 0, BuildingBlock: BETDIP_clean_linker_0, # of connection points: 3
#     Node 4, Type 0, BuildingBlock: BETDIP_clean_linker_0, # of connection points: 3
#     Node 5, Type 0, BuildingBlock: BETDIP_clean_linker_0, # of connection points: 3
#     Node 6, Type 0, BuildingBlock: BETDIP_clean_linker_0, # of connection points: 3
#     Node 7, Type 0, BuildingBlock: BETDIP_clean_linker_0, # of connection points: 3
#     Node 8, Type 1, BuildingBlock: NAWXER_clean_sbu_0, # of connection points: 4
#     Node 9, Type 1, BuildingBlock: NAWXER_clean_sbu_0, # of connection points: 4
#     Node 10, Type 1, BuildingBlock: NAWXER_clean_sbu_0, # of connection points: 4
#     Node 11, Type 1, BuildingBlock: NAWXER_clean_sbu_0, # of connection points: 4
#     Node 12, Type 1, BuildingBlock: NAWXER_clean_sbu_0, # of connection points: 4
#     Node 13, Type 1, BuildingBlock: NAWXER_clean_sbu_0, # of connection points: 4
#     Edge 14, Type (0, 1), BuildingBlock: XIVTED_clean_linker_0, # of connection points: 2
#     Edge 15, Type (0, 1), BuildingBlock: XIVTED_clean_linker_0, # of connection points: 2
#     Edge 16, Type (0, 1), BuildingBlock: XIVTED_clean_linker_0, # of connection points: 2
#     Edge 17, Type (0, 1), BuildingBlock: XIVTED_clean_linker_0, # of connection points: 2
#     Edge 18, Type (0, 1), BuildingBlock: XIVTED_clean_linker_0, # of connection points: 2
#     Edge 19, Type (0, 1), BuildingBlock: XIVTED_clean_linker_0, # of connection points: 2
#     Edge 20, Type (0, 1), BuildingBlock: XIVTED_clean_linker_0, # of connection points: 2
#     Edge 21, Type (0, 1), BuildingBlock: XIVTED_clean_linker_0, # of connection points: 2
#     Edge 22, Type (0, 1), BuildingBlock: XIVTED_clean_linker_0, # of connection points: 2
#     Edge 23, Type (0, 1), BuildingBlock: XIVTED_clean_linker_0, # of connection points: 2
#     Edge 24, Type (0, 1), BuildingBlock: XIVTED_clean_linker_0, # of connection points: 2
#     Edge 25, Type (0, 1), BuildingBlock: XIVTED_clean_linker_0, # of connection points: 2
#     Edge 26, Type (0, 1), BuildingBlock: XIVTED_clean_linker_0, # of connection points: 2
#     Edge 27, Type (0, 1), BuildingBlock: XIVTED_clean_linker_0, # of connection points: 2
#     Edge 28, Type (0, 1), BuildingBlock: XIVTED_clean_linker_0, # of connection points: 2
#     Edge 29, Type (0, 1), BuildingBlock: XIVTED_clean_linker_0, # of connection points: 2
#     Edge 30, Type (0, 1), BuildingBlock: XIVTED_clean_linker_0, # of connection points: 2
#     Edge 31, Type (0, 1), BuildingBlock: XIVTED_clean_linker_0, # of connection points: 2
#     Edge 32, Type (0, 1), BuildingBlock: XIVTED_clean_linker_0, # of connection points: 2
#     Edge 33, Type (0, 1), BuildingBlock: XIVTED_clean_linker_0, # of connection points: 2
#     Edge 34, Type (0, 1), BuildingBlock: XIVTED_clean_linker_0, # of connection points: 2
#     Edge 35, Type (0, 1), BuildingBlock: XIVTED_clean_linker_0, # of connection points: 2
#     Edge 36, Type (0, 1), BuildingBlock: XIVTED_clean_linker_0, # of connection points: 2
#     Edge 37, Type (0, 1), BuildingBlock: XIVTED_clean_linker_0, # of connection points: 2
# Relax obj value: 0.016
# Max RMSD: 0.144
# Mean RMSD: 0.062
data_MOF--net-pto--node1-NAWXER_clean_sbu_0--node2-BETDIP_clean_linker_0--edge1-XIVTED_clean_linker_0
_symmetry_space_group_name_H-M    P1
_symmetry_Int_Tables_number       1
_symmetry_cell_setting            triclinic
loop_
_symmetry_equiv_pos_as_xyz
'x, y, z'
_cell_length_a     42.34951
_cell_length_b     40.575884
_cell_length_c     38.361367
_cell_angle_alpha  101.0381
_cell_angle_beta   101.05317
_cell_angle_gamma 102.41547
loop_
_atom_site_label
_atom_site_type_symbol
_atom_site_fract_x
_atom_site_fract_y
_atom_site_fract_z
_atom_type_partial_charge
H0 H 0.23023 0.32992 0.33769 0.0
H1 H 0.29921 0.28717 0.287 0.0
H2 H 0.25941 0.36529 0.24665 0.0
H3 H 0.26328 0.23706 0.29735 0.0
C4 C 0.26741 0.24839 0.32647 0.0
C5 C 0.24482 0.32939 0.31735 0.0
C6 C 0.24245 0.35071 0.29256 0.0
C7 C 0.26438 0.30572 0.3146 0.0
C8 C 0.28296 0.30444 0.28802 0.0
C9 C 0.2814 0.32584 0.26342 0.0
C10 C 0.26101 0.3489 0.2658 0.0
N11 N 0.26472 0.28283 0.33829 0.0
H12 H 0.22971 0.73322 0.67376 0.0
H13 H 0.33407 0.76418 0.72579 0.0
H14 H 0.2702 0.67449 0.74441 0.0
H15 H 0.33825 0.80261 0.69162 0.0
C16 C 0.31354 0.80502 0.68048 0.0
C17 C 0.25095 0.72855 0.691 0.0
C18 C 0.24622 0.7014 0.70874 0.0
C19 C 0.28249 0.7508 0.69627 0.0
C20 C 0.30999 0.74584 0.71984 0.0
C21 C 0.30601 0.71818 0.73744 0.0
C22 C 0.27397 0.69564 0.73093 0.0
N23 N 0.28452 0.77917 0.67934 0.0
H24 H 0.80052 0.74907 0.24221 0.0
H25 H 0.8553 0.81301 0.34884 0.0
H26 H 0.77347 0.84115 0.28797 0.0
H27 H 0.8792 0.77118 0.35388 0.0
C28 C 0.87552 0.75397 0.32724 0.0
C29 C 0.80438 0.7717 0.26436 0.0
C30 C 0.78375 0.79436 0.2613 0.0
C31 C 0.83036 0.77812 0.29564 0.0
C32 C 0.83563 0.80766 0.32441 0.0
C33 C 0.81492 0.83036 0.32201 0.0
C34 C 0.7894 0.82365 0.29016 0.0
N35 N 0.85064 0.75439 0.29669 0.0
H36 H 0.75275 0.2362 0.8748 0.0
H37 H 0.7668 0.34717 0.90221 0.0
H38 H 0.82109 0.30177 0.83113 0.0
H39 H 0.7549 0.32728 0.95998 0.0
C40 C 0.73169 0.30949 0.94296 0.0
C41 C 0.7653 0.26179 0.87283 0.0
C42 C 0.78894 0.26539 0.85169 0.0
C43 C 0.7577 0.29111 0.89169 0.0
C44 C 0.77345 0.32449 0.8889 0.0
C45 C 0.79597 0.32814 0.86656 0.0
C46 C 0.80393 0.29869 0.84867 0.0
N47 N 0.73196 0.28608 0.91049 0.0
H48 H 0.78277 0.80033 0.8561 0.0
H49 H 0.81375 0.83074 0.76419 0.0
H50 H 0.73078 0.86097 0.79739 0.0
H51 H 0.83917 0.78958 0.76378 0.0
C52 C 0.84469 0.78498 0.79095 0.0
C53 C 0.77954 0.81353 0.83415 0.0
C54 C 0.75388 0.83042 0.82937 0.0
C55 C 0.80105 0.81308 0.81068 0.0
C56 C 0.79723 0.83056 0.78239 0.0
C57 C 0.77194 0.84802 0.77734 0.0
C58 C 0.75042 0.84778 0.80106 0.0
N59 N 0.82607 0.7948 0.8165 0.0
H60 H 0.69874 0.31688 0.35584 0.0
H61 H 0.80184 0.31857 0.3639 0.0
H62 H 0.75489 0.37407 0.29412 0.0
H63 H 0.79851 0.30904 0.41981 0.0
C64 C 0.77444 0.29027 0.41372 0.0
C65 C 0.72184 0.32571 0.34811 0.0
C66 C 0.72336 0.34707 0.32327 0.0
C67 C 0.75009 0.31589 0.36357 0.0
C68 C 0.78016 0.32704 0.35341 0.0
C69 C 0.78196 0.34801 0.32828 0.0
C70 C 0.75355 0.35801 0.31363 0.0
N71 N 0.74707 0.2936 0.38792 0.0
H72 H 0.16989 0.34939 0.77645 0.0
H73 H 0.26316 0.32445 0.80553 0.0
H74 H 0.23862 0.40226 0.8808 0.0
H75 H 0.25534 0.32111 0.74096 0.0
C76 C 0.2316 0.30168 0.73464 0.0
C77 C 0.19325 0.35347 0.79618 0.0
C78 C 0.2016 0.37882 0.82963 0.0
C79 C 0.21556 0.33425 0.78717 0.0
C80 C 0.24607 0.33963 0.81229 0.0
C81 C 0.25464 0.36399 0.84616 0.0
C82 C 0.2324 0.38378 0.85449 0.0
N83 N 0.20694 0.309 0.75318 0.0
H84 H 0.27731 0.85389 0.23193 0.0
H85 H 0.24369 0.75087 0.16158 0.0
H86 H 0.18249 0.78662 0.22945 0.0
H87 H 0.30063 0.75744 0.17898 0.0
C88 C 0.30968 0.78271 0.17366 0.0
C89 C 0.25802 0.82972 0.22081 0.0
C90 C 0.22898 0.82386 0.23411 0.0
C91 C 0.26369 0.80354 0.19497 0.0
C92 C 0.2397 0.7713 0.1816 0.0
C93 C 0.21049 0.76507 0.19415 0.0
C94 C 0.20498 0.79167 0.21967 0.0
N95 N 0.29421 0.80968 0.18387 0.0
C96 C 0.97947 0.47531 0.25843 0.0
C97 C 0.05883 0.55678 0.218 0.0
O98 O 0.00229 0.49656 0.285 0.0
Zn99 Zn 0.04516 0.53882 0.29287 0.0
O100 O 0.97961 0.47707 0.22572 0.0
Zn101 Zn 0.01884 0.51565 0.2371 0.0
O102 O 0.05849 0.494 0.25784 0.0
O103 O 0.08098 0.52168 0.31577 0.0
O104 O 0.03316 0.53378 0.19784 0.0
O105 O 0.06566 0.56068 0.25282 0.0
O106 O 0.03326 0.57776 0.3206 0.0
O107 O 0.00261 0.55773 0.26391 0.0
C108 C 0.08013 0.49843 0.28791 0.0
C109 C 0.0098 0.57926 0.29521 0.0
C110 C 0.95019 0.51664 0.80752 0.0
C111 C 0.03856 0.57997 0.76196 0.0
O112 O 0.97282 0.53939 0.83307 0.0
Zn113 Zn 0.01808 0.57785 0.83828 0.0
O114 O 0.95252 0.51303 0.77452 0.0
Zn115 Zn 0.99396 0.54784 0.78357 0.0
O116 O 0.02856 0.52634 0.81362 0.0
O117 O 0.05189 0.56191 0.86812 0.0
O118 O 0.014 0.55479 0.74328 0.0
O119 O 0.04218 0.59065 0.79653 0.0
O120 O 0.00678 0.62086 0.85699 0.0
O121 O 0.98029 0.59524 0.79947 0.0
C122 C 0.04917 0.53384 0.84489 0.0
C123 C 0.9865 0.62054 0.82769 0.0
C124 C 0.28568 0.00316 0.56648 0.0
C125 C 0.27944 0.08813 0.4929 0.0
O126 O 0.25565 0.00348 0.55291 0.0
Zn127 Zn 0.23033 0.03106 0.51971 0.0
O128 O 0.30973 0.02467 0.561 0.0
Zn129 Zn 0.28357 0.04751 0.53122 0.0
O130 O 0.26184 0.07639 0.56795 0.0
O131 O 0.20723 0.05563 0.5512 0.0
O132 O 0.30591 0.08413 0.51178 0.0
O133 O 0.25081 0.07028 0.49381 0.0
O134 O 0.20528 0.99403 0.47689 0.0
O135 O 0.25963 0.00785 0.48164 0.0
C136 C 0.23293 0.07761 0.57269 0.0
C137 C 0.23011 0.98998 0.46398 0.0
C138 C 0.58086 0.75892 0.05931 0.0
C139 C 0.49194 0.73771 0.9491 0.0
O140 O 0.5633 0.72946 0.0393 0.0
Zn141 Zn 0.53464 0.74686 0.00546 0.0
O142 O 0.57433 0.78676 0.05234 0.0
Zn143 Zn 0.5405 0.80184 0.01302 0.0
O144 O 0.51364 0.82367 0.04163 0.0
O145 O 0.50472 0.76743 0.03792 0.0
O146 O 0.50457 0.77006 0.96469 0.0
O147 O 0.50139 0.71481 0.96382 0.0
O148 O 0.56989 0.77325 0.98 0.0
O149 O 0.57167 0.8292 0.99165 0.0
C150 C 0.49856 0.79654 0.04965 0.0
C151 C 0.5819 0.80401 0.9767 0.0
C152 C 0.76478 0.99717 0.59877 0.0
C153 C 0.7691 0.0972 0.54342 0.0
O154 O 0.73949 0.00514 0.58215 0.0
Zn155 Zn 0.76456 0.04609 0.56996 0.0
O156 O 0.79413 0.01583 0.60171 0.0
Zn157 Zn 0.81869 0.061 0.58744 0.0
O158 O 0.84026 0.09199 0.63578 0.0
O159 O 0.78524 0.07909 0.62315 0.0
O160 O 0.79763 0.09414 0.55877 0.0
O161 O 0.7428 0.0749 0.54324 0.0
O162 O 0.78957 0.02374 0.53254 0.0
O163 O 0.8441 0.04151 0.55524 0.0
C164 C 0.81354 0.09446 0.64543 0.0
C165 C 0.81912 0.02345 0.52948 0.0
C166 C 0.53887 0.37232 0.13984 0.0
C167 C 0.46172 0.37062 0.02653 0.0
O168 O 0.52155 0.34193 0.12145 0.0
Zn169 Zn 0.48584 0.31742 0.07131 0.0
O170 O 0.53642 0.39862 0.12704 0.0
Zn171 Zn 0.50226 0.37316 0.08231 0.0
O172 O 0.46093 0.35278 0.1036 0.0
O173 O 0.44865 0.29535 0.08867 0.0
O174 O 0.48168 0.39754 0.04917 0.0
O175 O 0.46175 0.34038 0.03187 0.0
O176 O 0.50954 0.28947 0.04512 0.0
O177 O 0.52933 0.34578 0.0507 0.0
C178 C 0.44285 0.32329 0.10427 0.0
C179 C 0.53001 0.31423 0.03893 0.0
H180 H 0.23234 0.39307 0.35225 0.0
H181 H 0.08745 0.45079 0.23152 0.0
H182 H 0.19955 0.35979 0.23445 0.0
H183 H 0.12749 0.49654 0.3473 0.0
H184 H 0.12707 0.41545 0.23329 0.0
H185 H 0.19288 0.42936 0.35218 0.0
C186 C 0.21683 0.39339 0.32641 0.0
C187 C 0.21934 0.3735 0.29329 0.0
C188 C 0.12729 0.43321 0.25836 0.0
C189 C 0.17427 0.41485 0.29301 0.0
C190 C 0.10456 0.4534 0.25741 0.0
C191 C 0.1041 0.47673 0.28934 0.0
C192 C 0.1498 0.43611 0.29152 0.0
C193 C 0.12699 0.47893 0.32202 0.0
C194 C 0.19445 0.4142 0.32638 0.0
C195 C 0.19884 0.37508 0.26058 0.0
N196 N 0.14891 0.45881 0.3223 0.0
N197 N 0.17716 0.39528 0.2613 0.0
H198 H 0.19422 0.72852 0.7182 0.0
H199 H 0.06588 0.54947 0.70915 0.0
H200 H 0.22054 0.63078 0.69822 0.0
H201 H 0.06942 0.6485 0.77745 0.0
H202 H 0.11437 0.57807 0.68901 0.0
H203 H 0.13962 0.69804 0.72328 0.0
C204 C 0.18827 0.70051 0.71417 0.0
C205 C 0.21197 0.68213 0.70785 0.0
C206 C 0.10411 0.59346 0.70798 0.0
C207 C 0.14957 0.64719 0.71393 0.0
C208 C 0.07642 0.5773 0.71921 0.0
C209 C 0.06391 0.59678 0.74501 0.0
C210 C 0.11858 0.62932 0.72211 0.0
C211 C 0.07854 0.63262 0.75765 0.0
C212 C 0.1572 0.68321 0.71733 0.0
C213 C 0.20304 0.64591 0.70345 0.0
N214 N 0.10509 0.64775 0.74607 0.0
N215 N 0.17248 0.62954 0.70669 0.0
H216 H 0.92421 0.74563 0.38 0.0
H217 H 0.96002 0.58899 0.245 0.0
H218 H 0.87328 0.70504 0.2659 0.0
H219 H 0.01547 0.62924 0.35779 0.0
H220 H 0.92802 0.63153 0.25328 0.0
H221 H 0.95789 0.70352 0.37352 0.0
C222 C 0.92016 0.72786 0.35363 0.0
C223 C 0.89594 0.72877 0.3235 0.0
C224 C 0.94716 0.63119 0.27631 0.0
C225 C 0.93416 0.68072 0.31585 0.0
C226 C 0.96552 0.6068 0.27162 0.0
C227 C 0.99055 0.60546 0.30078 0.0
C228 C 0.95367 0.65462 0.31046 0.0
C229 C 0.99643 0.62934 0.33457 0.0
C230 C 0.93934 0.70389 0.34995 0.0
C231 C 0.89162 0.70529 0.28992 0.0
N232 N 0.97807 0.65298 0.33851 0.0
N233 N 0.91051 0.68226 0.28706 0.0
H234 H 0.78887 0.34457 0.8009 0.0
H235 H 0.93994 0.51568 0.87567 0.0
H236 H 0.83628 0.38751 0.91546 0.0
H237 H 0.89706 0.46601 0.76111 0.0
H238 H 0.89645 0.47507 0.89126 0.0
H239 H 0.82157 0.39538 0.78666 0.0
C240 C 0.80579 0.36519 0.82311 0.0
C241 C 0.81022 0.36194 0.85933 0.0
C242 C 0.89638 0.47326 0.86271 0.0
C243 C 0.84825 0.41974 0.8433 0.0
C244 C 0.92123 0.49642 0.85374 0.0
C245 C 0.92241 0.49398 0.81699 0.0
C246 C 0.87249 0.44745 0.83476 0.0
C247 C 0.89735 0.46866 0.7898 0.0
C248 C 0.82456 0.39408 0.815 0.0
C249 C 0.83226 0.38923 0.88721 0.0
N250 N 0.87358 0.44623 0.79926 0.0
N251 N 0.85091 0.41686 0.87856 0.0
H252 H 0.29092 0.26777 0.40147 0.0
H253 H 0.2382 0.07735 0.42651 0.0
H254 H 0.25439 0.17844 0.30936 0.0
H255 H 0.32315 0.15202 0.50312 0.0
H256 H 0.23767 0.11695 0.386 0.0
H257 H 0.29728 0.2286 0.44254 0.0
C258 C 0.28418 0.23995 0.38997 0.0
C259 C 0.27184 0.22609 0.35212 0.0
C260 C 0.25655 0.12461 0.41157 0.0
C261 C 0.27881 0.18167 0.39854 0.0
C262 C 0.25679 0.10216 0.43473 0.0
C263 C 0.28075 0.11159 0.4681 0.0
C264 C 0.27994 0.1571 0.42223 0.0
C265 C 0.30442 0.14387 0.47744 0.0
C266 C 0.28806 0.21776 0.4133 0.0
C267 C 0.26383 0.19 0.33845 0.0
N268 N 0.30318 0.16584 0.45474 0.0
N269 N 0.26707 0.16895 0.36169 0.0
H270 H 0.37275 0.7327 0.73714 0.0
H271 H 0.43561 0.68325 0.92529 0.0
H272 H 0.30506 0.69587 0.801 0.0
H273 H 0.49053 0.7707 0.89397 0.0
H274 H 0.39057 0.67295 0.86999 0.0
H275 H 0.41945 0.73253 0.7857 0.0
C276 C 0.36753 0.72443 0.76112 0.0
C277 C 0.33463 0.71467 0.76484 0.0
C278 C 0.41276 0.69406 0.87513 0.0
C279 C 0.38812 0.71324 0.81985 0.0
C280 C 0.43841 0.6998 0.90642 0.0
C281 C 0.46655 0.72799 0.91415 0.0
C282 C 0.41587 0.71614 0.85118 0.0
C283 C 0.46901 0.74888 0.88906 0.0
C284 C 0.39424 0.7241 0.78865 0.0
C285 C 0.3297 0.70319 0.7963 0.0
N286 N 0.44401 0.74252 0.85865 0.0
N287 N 0.35613 0.70286 0.82257 0.0
H288 H 0.87286 0.8757 0.36796 0.0
H289 H 0.77287 0.99561 0.46527 0.0
H290 H 0.76559 0.8534 0.34727 0.0
H291 H 0.87316 0.99813 0.51867 0.0
H292 H 0.77439 0.95077 0.4143 0.0
H293 H 0.87723 0.92603 0.41773 0.0
C294 C 0.85028 0.88124 0.37387 0.0
C295 C 0.81877 0.86045 0.35299 0.0
C296 C 0.79617 0.96114 0.43705 0.0
C297 C 0.82372 0.91814 0.40907 0.0
C298 C 0.7954 0.9869 0.46618 0.0
C299 C 0.82275 0.00026 0.49659 0.0
C300 C 0.82449 0.94839 0.43807 0.0
C301 C 0.85147 0.98835 0.4958 0.0
C302 C 0.85285 0.91003 0.40209 0.0
C303 C 0.79041 0.86908 0.36177 0.0
N304 N 0.85152 0.96271 0.46704 0.0
N305 N 0.7936 0.89726 0.3889 0.0
H306 H 0.72642 0.3216 0.01357 0.0
H307 H 0.54465 0.33659 0.98012 0.0
H308 H 0.66743 0.29141 0.90218 0.0
H309 H 0.57563 0.27856 0.05743 0.0
H310 H 0.59293 0.33149 0.95452 0.0
H311 H 0.67487 0.31766 0.03513 0.0
C312 C 0.7026 0.31411 0.99375 0.0
C313 C 0.70095 0.30661 0.95616 0.0
C314 C 0.58881 0.31953 0.97677 0.0
C315 C 0.64257 0.30298 0.98041 0.0
C316 C 0.56143 0.32239 0.99128 0.0
C317 C 0.55618 0.30756 0.02049 0.0
C318 C 0.61164 0.303 0.99265 0.0
C319 C 0.57873 0.28984 0.03451 0.0
C320 C 0.67337 0.3117 0.006 0.0
C321 C 0.66959 0.29709 0.93142 0.0
N322 N 0.60596 0.28858 0.02089 0.0
N323 N 0.64156 0.29608 0.94399 0.0
H324 H 0.25583 0.82164 0.65335 0.0
H325 H 0.3454 0.9901 0.59496 0.0
H326 H 0.36277 0.85725 0.67301 0.0
H327 H 0.23936 0.95504 0.58361 0.0
H328 H 0.35326 0.94287 0.62448 0.0
H329 H 0.25023 0.87118 0.62814 0.0
C330 C 0.27823 0.83989 0.65235 0.0
C331 C 0.30989 0.83524 0.66519 0.0
C332 C 0.32833 0.94571 0.61566 0.0
C333 C 0.30359 0.89242 0.63622 0.0
C334 C 0.32383 0.97269 0.59888 0.0
C335 C 0.29165 0.9765 0.58664 0.0
C336 C 0.30045 0.92242 0.62013 0.0
C337 C 0.26462 0.95313 0.59242 0.0
C338 C 0.275 0.86833 0.63797 0.0
C339 C 0.33793 0.85993 0.6633 0.0
N340 N 0.26964 0.92711 0.60856 0.0
N341 N 0.33415 0.88748 0.64895 0.0
H342 H 0.7657 0.84105 0.22401 0.0
H343 H 0.60378 0.70662 0.08397 0.0
H344 H 0.73799 0.73234 0.22415 0.0
H345 H 0.62524 0.81839 0.10229 0.0
H346 H 0.65445 0.71369 0.13149 0.0
H347 H 0.71656 0.83126 0.1746 0.0
C348 C 0.74924 0.81505 0.21359 0.0
C349 C 0.75577 0.78757 0.22859 0.0
C350 C 0.6479 0.73658 0.12506 0.0
C351 C 0.69926 0.77604 0.17164 0.0
C352 C 0.61898 0.73258 0.09803 0.0
C353 C 0.61015 0.76194 0.08911 0.0
C354 C 0.66818 0.77014 0.14299 0.0
C355 C 0.63088 0.79494 0.10817 0.0
C356 C 0.72115 0.80945 0.18531 0.0
C357 C 0.73395 0.75425 0.21334 0.0
N358 N 0.65885 0.79809 0.134 0.0
N359 N 0.70651 0.74943 0.1858 0.0
H360 H 0.84932 0.25753 0.84045 0.0
H361 H 0.76331 0.08657 0.67987 0.0
H362 H 0.74486 0.20353 0.81255 0.0
H363 H 0.8641 0.14722 0.69443 0.0
H364 H 0.76018 0.12292 0.73655 0.0
H365 H 0.8587 0.21147 0.79537 0.0
C366 C 0.82842 0.23578 0.82516 0.0
C367 C 0.79611 0.23471 0.82984 0.0
C368 C 0.78312 0.12826 0.72762 0.0
C369 C 0.8068 0.18188 0.77853 0.0
C370 C 0.78493 0.10754 0.69514 0.0
C371 C 0.81382 0.11435 0.68203 0.0
C372 C 0.81028 0.15634 0.74721 0.0
C373 C 0.84127 0.14133 0.70343 0.0
C374 C 0.83385 0.2095 0.79952 0.0
C375 C 0.77016 0.20551 0.80997 0.0
N376 N 0.83867 0.16175 0.73483 0.0
N377 N 0.77602 0.1805 0.7849 0.0
H378 H 0.29143 0.26794 0.22151 0.0
H379 H 0.42206 0.37851 0.13491 0.0
H380 H 0.31726 0.37996 0.24229 0.0
H381 H 0.40237 0.26698 0.11843 0.0
H382 H 0.38 0.37847 0.16995 0.0
H383 H 0.32824 0.26618 0.17965 0.0
C384 C 0.30482 0.29218 0.21724 0.0
C385 C 0.30149 0.3242 0.23571 0.0
C386 C 0.38472 0.35394 0.15862 0.0
C387 C 0.34341 0.3223 0.1876 0.0
C388 C 0.40882 0.35391 0.13856 0.0
C389 C 0.41598 0.32268 0.1239 0.0
C390 C 0.36757 0.32255 0.16428 0.0
C391 C 0.39774 0.29166 0.12935 0.0
C392 C 0.3257 0.29112 0.19322 0.0
C393 C 0.31888 0.3547 0.22851 0.0
N394 N 0.37446 0.29239 0.14931 0.0
N395 N 0.33923 0.35299 0.20521 0.0
H396 H 0.87714 0.75648 0.74408 0.0
H397 H 0.97537 0.66743 0.88345 0.0
H398 H 0.86729 0.76654 0.85521 0.0
H399 H 0.95894 0.63748 0.76592 0.0
H400 H 0.94328 0.71073 0.87656 0.0
H401 H 0.91502 0.7198 0.75472 0.0
C402 C 0.8831 0.75103 0.77079 0.0
C403 C 0.86885 0.76424 0.79864 0.0
C404 C 0.94692 0.69472 0.85239 0.0
C405 C 0.91226 0.7223 0.81116 0.0
C406 C 0.96532 0.67018 0.85631 0.0
C407 C 0.96961 0.64866 0.8252 0.0
C408 C 0.93326 0.69798 0.81718 0.0
C409 C 0.95599 0.65323 0.79066 0.0
C410 C 0.90467 0.73006 0.77686 0.0
C411 C 0.87755 0.75661 0.83287 0.0
N412 N 0.9385 0.67731 0.78762 0.0
N413 N 0.89868 0.73601 0.83817 0.0
H414 H 0.84539 0.37432 0.37193 0.0
H415 H 0.92216 0.43179 0.21085 0.0
H416 H 0.78996 0.34897 0.25926 0.0
H417 H 0.97516 0.46213 0.32477 0.0
H418 H 0.87578 0.39503 0.22667 0.0
H419 H 0.89562 0.39989 0.35372 0.0
C420 C 0.8439 0.3737 0.34329 0.0
C421 C 0.81337 0.35994 0.31716 0.0
C422 C 0.8977 0.40953 0.24814 0.0
C423 C 0.87059 0.38949 0.29614 0.0
C424 C 0.9242 0.43047 0.2391 0.0
C425 C 0.95245 0.45037 0.26656 0.0
C426 C 0.89949 0.40847 0.28489 0.0
C427 C 0.95375 0.44755 0.30272 0.0
C428 C 0.87252 0.38849 0.33292 0.0
C429 C 0.81285 0.35998 0.28043 0.0
N430 N 0.92759 0.42723 0.31084 0.0
N431 N 0.84094 0.37479 0.27107 0.0
H432 H 0.13327 0.35844 0.81544 0.0
H433 H 0.11263 0.54954 0.88898 0.0
H434 H 0.21691 0.44842 0.86382 0.0
H435 H 0.03434 0.4644 0.81576 0.0
H436 H 0.14989 0.51062 0.8911 0.0
H437 H 0.09555 0.39503 0.82584 0.0
C438 C 0.14376 0.38588 0.82823 0.0
C439 C 0.1784 0.40036 0.83828 0.0
C440 C 0.12441 0.50045 0.87497 0.0
C441 C 0.13519 0.44245 0.85083 0.0
C442 C 0.10312 0.52254 0.874 0.0
C443 C 0.07049 0.51021 0.85193 0.0
C444 C 0.11273 0.46581 0.85408 0.0
C445 C 0.05944 0.47507 0.83282 0.0
C446 C 0.12218 0.40675 0.83438 0.0
C447 C 0.19043 0.43601 0.85572 0.0
N448 N 0.08052 0.45421 0.8342 0.0
N449 N 0.16887 0.45587 0.86122 0.0
H450 H 0.22737 0.70417 0.19552 0.0
H451 H 0.04066 0.59006 0.16464 0.0
H452 H 0.14205 0.7455 0.17212 0.0
H453 H 0.12618 0.57768 0.2373 0.0
H454 H 0.07759 0.63739 0.14822 0.0
H455 H 0.18989 0.64762 0.19082 0.0
C456 C 0.2007 0.7011 0.18844 0.0
C457 C 0.18775 0.7296 0.18453 0.0
C458 C 0.08821 0.62373 0.16716 0.0
C459 C 0.14489 0.66512 0.17934 0.0
C460 C 0.06728 0.59671 0.17632 0.0
C461 C 0.08055 0.5803 0.20246 0.0
C462 C 0.12252 0.6336 0.18373 0.0
C463 C 0.11507 0.58998 0.21721 0.0
C464 C 0.17939 0.66892 0.18602 0.0
C465 C 0.15299 0.72423 0.17578 0.0
N466 N 0.13488 0.61607 0.20772 0.0
N467 N 0.13269 0.69263 0.17376 0.0
H468 H 0.7141 0.85295 0.73338 0.0
H469 H 0.81217 0.96437 0.61848 0.0
H470 H 0.82132 0.88593 0.75303 0.0
H471 H 0.711 0.96473 0.62211 0.0
H472 H 0.81186 0.92463 0.65842 0.0
H473 H 0.70931 0.88495 0.68532 0.0
C474 C 0.73663 0.86692 0.72776 0.0
C475 C 0.76822 0.86665 0.74747 0.0
C476 C 0.7896 0.93315 0.65036 0.0
C477 C 0.76271 0.90246 0.69186 0.0
C478 C 0.78967 0.95577 0.62739 0.0
C479 C 0.7617 0.96832 0.61736 0.0
C480 C 0.76137 0.92284 0.66365 0.0
C481 C 0.73312 0.95576 0.62931 0.0
C482 C 0.7338 0.88495 0.70013 0.0
C483 C 0.79643 0.88471 0.73831 0.0
N484 N 0.73378 0.93391 0.65225 0.0
N485 N 0.79297 0.90176 0.71123 0.0
H486 H 0.71873 0.40948 0.30742 0.0
H487 H 0.53352 0.32758 0.18371 0.0
H488 H 0.65927 0.30594 0.298 0.0
H489 H 0.59673 0.4233 0.17596 0.0
H490 H 0.57542 0.32615 0.23606 0.0
H491 H 0.67089 0.42094 0.26934 0.0
C492 C 0.69556 0.38924 0.29762 0.0
C493 C 0.69325 0.35642 0.30541 0.0
C494 C 0.58011 0.34771 0.22325 0.0
C495 C 0.63834 0.36965 0.26229 0.0
C496 C 0.55618 0.34856 0.19332 0.0
C497 C 0.56197 0.37529 0.17506 0.0
C498 C 0.61036 0.37358 0.23495 0.0
C499 C 0.59144 0.40212 0.18914 0.0
C500 C 0.66825 0.39591 0.27604 0.0
C501 C 0.66232 0.3316 0.29283 0.0
N502 N 0.61488 0.4003 0.218 0.0
N503 N 0.63624 0.33862 0.27161 0.0
H504 H 0.17595 0.24522 0.70659 0.0
H505 H 0.28356 0.1239 0.6256 0.0
H506 H 0.28059 0.27925 0.71056 0.0
H507 H 0.17677 0.09831 0.58426 0.0
H508 H 0.2813 0.1765 0.66647 0.0
H509 H 0.17425 0.1877 0.66948 0.0
C510 C 0.19848 0.24059 0.69965 0.0
C511 C 0.2285 0.26694 0.71152 0.0
C512 C 0.25827 0.15937 0.64862 0.0
C513 C 0.22683 0.20157 0.67 0.0
C514 C 0.2595 0.12914 0.6253 0.0
C515 C 0.23034 0.10675 0.60103 0.0
C516 C 0.22767 0.16757 0.64797 0.0
C517 C 0.19988 0.11491 0.60238 0.0
C518 C 0.19749 0.20786 0.67854 0.0
C519 C 0.25695 0.25967 0.70185 0.0
N520 N 0.19933 0.14488 0.62531 0.0
N521 N 0.25545 0.22771 0.68188 0.0
H522 H 0.34103 0.84107 0.15361 0.0
H523 H 0.47043 0.74531 0.07916 0.0
H524 H 0.34501 0.73653 0.15768 0.0
H525 H 0.46874 0.84928 0.06974 0.0
H526 H 0.42637 0.74409 0.11129 0.0
H527 H 0.38912 0.84688 0.12583 0.0
C528 C 0.35211 0.81944 0.14881 0.0
C529 C 0.33909 0.78821 0.15788 0.0
C530 C 0.43556 0.76731 0.10238 0.0
C531 C 0.39381 0.79466 0.12629 0.0
C532 C 0.46085 0.76803 0.08394 0.0
C533 C 0.47324 0.79738 0.07145 0.0
C534 C 0.42215 0.79607 0.10843 0.0
C535 C 0.4599 0.8261 0.07885 0.0
C536 C 0.3795 0.82276 0.13296 0.0
C537 C 0.35428 0.76102 0.15105 0.0
N538 N 0.43487 0.82466 0.0967 0.0
N539 N 0.38071 0.76485 0.13568 0.0
H540 H 0.71884 0.23704 0.40757 0.0
H541 H 0.82017 0.15316 0.54955 0.0
H542 H 0.82216 0.28006 0.46509 0.0
H543 H 0.71557 0.10875 0.49773 0.0
H544 H 0.81991 0.20043 0.51941 0.0
H545 H 0.71573 0.1906 0.44054 0.0
C546 C 0.74081 0.23679 0.42723 0.0
C547 C 0.77089 0.26238 0.43365 0.0
C548 C 0.7969 0.1805 0.51456 0.0
C549 C 0.76749 0.20946 0.47127 0.0
C550 C 0.79701 0.15333 0.5318 0.0
C551 C 0.76785 0.12671 0.52605 0.0
C552 C 0.76744 0.18129 0.49103 0.0
C553 C 0.73862 0.12869 0.50293 0.0
C554 C 0.739 0.2103 0.44602 0.0
C555 C 0.79853 0.26082 0.45933 0.0
N556 N 0.73918 0.15545 0.48606 0.0
N557 N 0.79619 0.23483 0.47708 0.0
H558 H 0.29943 0.42398 0.89097 0.0
H559 H 0.42692 0.31955 0.96633 0.0
H560 H 0.28246 0.31232 0.86236 0.0
H561 H 0.43731 0.42707 0.01733 0.0
H562 H 0.37821 0.31992 0.92134 0.0
H563 H 0.3529 0.42846 0.93274 0.0
C564 C 0.30683 0.40044 0.89354 0.0
C565 C 0.28652 0.36772 0.8728 0.0
C566 C 0.39115 0.34357 0.94218 0.0
C567 C 0.34769 0.37276 0.91985 0.0
C568 C 0.41914 0.34344 0.96782 0.0
C569 C 0.436 0.37322 0.99589 0.0
C570 C 0.37962 0.37367 0.94452 0.0
C571 C 0.42497 0.40352 0.99614 0.0
C572 C 0.33741 0.40306 0.91716 0.0
C573 C 0.29751 0.33815 0.87705 0.0
N574 N 0.39716 0.4029 0.97102 0.0
N575 N 0.32727 0.34142 0.89991 0.0
H576 H 0.24937 0.89562 0.24954 0.0
H577 H 0.18106 0.92952 0.42985 0.0
H578 H 0.19997 0.8117 0.29054 0.0
H579 H 0.26917 0.99703 0.41613 0.0
H580 H 0.1772 0.88967 0.37109 0.0
H581 H 0.24657 0.93704 0.3036 0.0
C582 C 0.23784 0.88578 0.26966 0.0
C583 C 0.22503 0.84986 0.26521 0.0
C584 C 0.19721 0.91336 0.381 0.0
C585 C 0.221 0.89739 0.32669 0.0
C586 C 0.19935 0.93605 0.41434 0.0
C587 C 0.22568 0.96631 0.42797 0.0
C588 C 0.22109 0.92155 0.36093 0.0
C589 C 0.24875 0.97368 0.40683 0.0
C590 C 0.2361 0.9095 0.3004 0.0
C591 C 0.20968 0.839 0.29208 0.0
N592 N 0.24587 0.95152 0.37434 0.0
N593 N 0.20811 0.86262 0.3216 0.0
H594 H 0.72795 0.88242 0.86022 0.0
H595 H 0.61003 0.75535 0.94571 0.0
H596 H 0.72456 0.77404 0.85176 0.0
H597 H 0.61303 0.86429 0.9601 0.0
H598 H 0.65239 0.76288 0.91144 0.0
H599 H 0.68641 0.87741 0.89686 0.0
C600 C 0.71848 0.85759 0.86605 0.0
C601 C 0.7298 0.82859 0.85292 0.0
C602 C 0.64392 0.78525 0.92203 0.0
C603 C 0.68247 0.82277 0.89488 0.0
C604 C 0.61957 0.78097 0.94165 0.0
C605 C 0.60781 0.80925 0.95582 0.0
C606 C 0.65679 0.81806 0.91624 0.0
C607 C 0.62134 0.84177 0.94964 0.0
C608 C 0.6949 0.85481 0.88708 0.0
C609 C 0.71697 0.79721 0.86168 0.0
N610 N 0.64514 0.84531 0.93021 0.0
N611 N 0.69399 0.79515 0.88197 0.0
loop_
_geom_bond_atom_site_label_1
_geom_bond_atom_site_label_2
_geom_bond_distance
_geom_bond_site_symmetry_2
_ccdc_geom_bond_type
H0 C5 0.930 . S
H1 C8 0.930 . S
H2 C10 0.930 . S
H3 C4 1.016 . S
C4 H3 1.016 . S
C4 N11 1.286 . S
C5 H0 0.930 . S
C5 C6 1.397 . S
C5 C7 1.361 . S
C6 C5 1.397 . S
C6 C10 1.390 . S
C7 C5 1.361 . S
C7 C8 1.393 . S
C7 N11 1.413 . S
C8 H1 0.930 . S
C8 C7 1.393 . S
C8 C9 1.399 . S
C9 C8 1.399 . S
C9 C10 1.381 . S
C10 H2 0.930 . S
C10 C6 1.390 . S
C10 C9 1.381 . S
N11 C4 1.286 . S
N11 C7 1.413 . S
H12 C17 0.930 . S
H13 C20 0.930 . S
H14 C22 0.930 . S
H15 C16 1.016 . S
C16 H15 1.016 . S
C16 N23 1.286 . S
C17 H12 0.930 . S
C17 C18 1.397 . S
C17 C19 1.361 . S
C18 C17 1.397 . S
C18 C22 1.390 . S
C19 C17 1.361 . S
C19 C20 1.393 . S
C19 N23 1.413 . S
C20 H13 0.930 . S
C20 C19 1.393 . S
C20 C21 1.399 . S
C21 C20 1.399 . S
C21 C22 1.381 . S
C22 H14 0.930 . S
C22 C18 1.390 . S
C22 C21 1.381 . S
N23 C16 1.286 . S
N23 C19 1.413 . S
H24 C29 0.930 . S
H25 C32 0.930 . S
H26 C34 0.930 . S
H27 C28 1.016 . S
C28 H27 1.016 . S
C28 N35 1.286 . S
C29 H24 0.930 . S
C29 C30 1.397 . S
C29 C31 1.361 . S
C30 C29 1.397 . S
C30 C34 1.390 . S
C31 C29 1.361 . S
C31 C32 1.393 . S
C31 N35 1.413 . S
C32 H25 0.930 . S
C32 C31 1.393 . S
C32 C33 1.399 . S
C33 C32 1.399 . S
C33 C34 1.381 . S
C34 H26 0.930 . S
C34 C30 1.390 . S
C34 C33 1.381 . S
N35 C28 1.286 . S
N35 C31 1.413 . S
H36 C41 0.930 . S
H37 C44 0.930 . S
H38 C46 0.930 . S
H39 C40 1.016 . S
C40 H39 1.016 . S
C40 N47 1.286 . S
C41 H36 0.930 . S
C41 C42 1.397 . S
C41 C43 1.361 . S
C42 C41 1.397 . S
C42 C46 1.390 . S
C43 C41 1.361 . S
C43 C44 1.393 . S
C43 N47 1.413 . S
C44 H37 0.930 . S
C44 C43 1.393 . S
C44 C45 1.399 . S
C45 C44 1.399 . S
C45 C46 1.381 . S
C46 H38 0.930 . S
C46 C42 1.390 . S
C46 C45 1.381 . S
N47 C40 1.286 . S
N47 C43 1.413 . S
H48 C53 0.930 . S
H49 C56 0.930 . S
H50 C58 0.930 . S
H51 C52 1.016 . S
C52 H51 1.016 . S
C52 N59 1.286 . S
C53 H48 0.930 . S
C53 C54 1.397 . S
C53 C55 1.361 . S
C54 C53 1.397 . S
C54 C58 1.390 . S
C55 C53 1.361 . S
C55 C56 1.393 . S
C55 N59 1.413 . S
C56 H49 0.930 . S
C56 C55 1.393 . S
C56 C57 1.399 . S
C57 C56 1.399 . S
C57 C58 1.381 . S
C58 H50 0.930 . S
C58 C54 1.390 . S
C58 C57 1.381 . S
N59 C52 1.286 . S
N59 C55 1.413 . S
H60 C65 0.930 . S
H61 C68 0.930 . S
H62 C70 0.930 . S
H63 C64 1.016 . S
C64 H63 1.016 . S
C64 N71 1.286 . S
C65 H60 0.930 . S
C65 C66 1.397 . S
C65 C67 1.361 . S
C66 C65 1.397 . S
C66 C70 1.390 . S
C67 C65 1.361 . S
C67 C68 1.393 . S
C67 N71 1.413 . S
C68 H61 0.930 . S
C68 C67 1.393 . S
C68 C69 1.399 . S
C69 C68 1.399 . S
C69 C70 1.381 . S
C70 H62 0.930 . S
C70 C66 1.390 . S
C70 C69 1.381 . S
N71 C64 1.286 . S
N71 C67 1.413 . S
H72 C77 0.930 . S
H73 C80 0.930 . S
H74 C82 0.930 . S
H75 C76 1.016 . S
C76 H75 1.016 . S
C76 N83 1.286 . S
C77 H72 0.930 . S
C77 C78 1.397 . S
C77 C79 1.361 . S
C78 C77 1.397 . S
C78 C82 1.390 . S
C79 C77 1.361 . S
C79 C80 1.393 . S
C79 N83 1.413 . S
C80 H73 0.930 . S
C80 C79 1.393 . S
C80 C81 1.399 . S
C81 C80 1.399 . S
C81 C82 1.381 . S
C82 H74 0.930 . S
C82 C78 1.390 . S
C82 C81 1.381 . S
N83 C76 1.286 . S
N83 C79 1.413 . S
H84 C89 0.930 . S
H85 C92 0.930 . S
H86 C94 0.930 . S
H87 C88 1.016 . S
C88 H87 1.016 . S
C88 N95 1.286 . S
C89 H84 0.930 . S
C89 C90 1.397 . S
C89 C91 1.361 . S
C90 C89 1.397 . S
C90 C94 1.390 . S
C91 C89 1.361 . S
C91 C92 1.393 . S
C91 N95 1.413 . S
C92 H85 0.930 . S
C92 C91 1.393 . S
C92 C93 1.399 . S
C93 C92 1.399 . S
C93 C94 1.381 . S
C94 H86 0.930 . S
C94 C90 1.390 . S
C94 C93 1.381 . S
N95 C88 1.286 . S
N95 C91 1.413 . S
C96 O98 1.247 . S
C96 O100 1.258 . S
C97 O104 1.247 . S
C97 O105 1.258 . S
O98 C96 1.247 . S
O98 Zn99 2.028 1_655 S
Zn99 O98 2.028 1_455 S
Zn99 O103 2.035 . S
Zn99 O105 2.035 . S
Zn99 O106 2.028 . S
O100 C96 1.258 . S
O100 Zn101 2.035 1_655 S
Zn101 O100 2.035 1_455 S
Zn101 O102 2.028 . S
Zn101 O104 2.028 . S
Zn101 O107 2.035 1_455 S
O102 Zn101 2.028 . S
O102 C108 1.247 . S
O103 Zn99 2.035 . S
O103 C108 1.258 . S
O104 C97 1.247 . S
O104 Zn101 2.028 . S
O105 C97 1.258 . S
O105 Zn99 2.035 . S
O106 Zn99 2.028 . S
O106 C109 1.247 1_455 S
O107 Zn101 2.035 1_655 S
O107 C109 1.258 . S
C108 O102 1.247 . S
C108 O103 1.258 . S
C109 O106 1.247 1_655 S
C109 O107 1.258 . S
C110 O112 1.247 . S
C110 O114 1.258 . S
C111 O118 1.247 . S
C111 O119 1.258 . S
O112 C110 1.247 . S
O112 Zn113 2.028 . S
Zn113 O112 2.028 . S
Zn113 O117 2.035 . S
Zn113 O119 2.035 . S
Zn113 O120 2.028 . S
O114 C110 1.258 . S
O114 Zn115 2.035 . S
Zn115 O114 2.035 . S
Zn115 O116 2.028 . S
Zn115 O118 2.028 . S
Zn115 O121 2.035 . S
O116 Zn115 2.028 . S
O116 C122 1.247 . S
O117 Zn113 2.035 . S
O117 C122 1.258 . S
O118 C111 1.247 . S
O118 Zn115 2.028 . S
O119 C111 1.258 . S
O119 Zn113 2.035 . S
O120 Zn113 2.028 . S
O120 C123 1.247 . S
O121 Zn115 2.035 . S
O121 C123 1.258 . S
C122 O116 1.247 . S
C122 O117 1.258 . S
C123 O120 1.247 . S
C123 O121 1.258 . S
C124 O126 1.247 . S
C124 O128 1.258 . S
C125 O132 1.247 . S
C125 O133 1.258 . S
O126 C124 1.247 . S
O126 Zn127 2.028 . S
Zn127 O126 2.028 . S
Zn127 O131 2.035 1_565 S
Zn127 O133 2.035 1_565 S
Zn127 O134 2.028 . S
O128 C124 1.258 . S
O128 Zn129 2.035 1_565 S
Zn129 O128 2.035 1_545 S
Zn129 O130 2.028 . S
Zn129 O132 2.028 . S
Zn129 O135 2.035 1_545 S
O130 Zn129 2.028 . S
O130 C136 1.247 . S
O131 Zn127 2.035 1_545 S
O131 C136 1.258 . S
O132 C125 1.247 . S
O132 Zn129 2.028 . S
O133 C125 1.258 . S
O133 Zn127 2.035 1_545 S
O134 Zn127 2.028 . S
O134 C137 1.247 . S
O135 Zn129 2.035 1_565 S
O135 C137 1.258 . S
C136 O130 1.247 . S
C136 O131 1.258 . S
C137 O134 1.247 . S
C137 O135 1.258 . S
C138 O140 1.247 . S
C138 O142 1.258 . S
C139 O146 1.247 . S
C139 O147 1.258 . S
O140 C138 1.247 . S
O140 Zn141 2.028 1_554 S
Zn141 O140 2.028 1_556 S
Zn141 O145 2.035 1_556 S
Zn141 O147 2.035 . S
Zn141 O148 2.028 . S
O142 C138 1.258 . S
O142 Zn143 2.035 . S
Zn143 O142 2.035 . S
Zn143 O144 2.028 . S
Zn143 O146 2.028 1_554 S
Zn143 O149 2.035 1_554 S
O144 Zn143 2.028 . S
O144 C150 1.247 . S
O145 Zn141 2.035 1_554 S
O145 C150 1.258 . S
O146 C139 1.247 . S
O146 Zn143 2.028 1_556 S
O147 C139 1.258 . S
O147 Zn141 2.035 . S
O148 Zn141 2.028 . S
O148 C151 1.247 . S
O149 Zn143 2.035 1_556 S
O149 C151 1.258 . S
C150 O144 1.247 . S
C150 O145 1.258 . S
C151 O148 1.247 . S
C151 O149 1.258 . S
C152 O154 1.247 . S
C152 O156 1.258 1_565 S
C153 O160 1.247 . S
C153 O161 1.258 . S
O154 C152 1.247 . S
O154 Zn155 2.028 1_565 S
Zn155 O154 2.028 1_545 S
Zn155 O159 2.035 . S
Zn155 O161 2.035 . S
Zn155 O162 2.028 1_545 S
O156 C152 1.258 1_545 S
O156 Zn157 2.035 . S
Zn157 O156 2.035 . S
Zn157 O158 2.028 . S
Zn157 O160 2.028 . S
Zn157 O163 2.035 . S
O158 Zn157 2.028 . S
O158 C164 1.247 . S
O159 Zn155 2.035 . S
O159 C164 1.258 . S
O160 C153 1.247 . S
O160 Zn157 2.028 . S
O161 C153 1.258 . S
O161 Zn155 2.035 . S
O162 Zn155 2.028 1_565 S
O162 C165 1.247 . S
O163 Zn157 2.035 . S
O163 C165 1.258 1_545 S
C164 O158 1.247 . S
C164 O159 1.258 . S
C165 O162 1.247 . S
C165 O163 1.258 1_565 S
C166 O168 1.247 . S
C166 O170 1.258 . S
C167 O174 1.247 . S
C167 O175 1.258 . S
O168 C166 1.247 . S
O168 Zn169 2.028 . S
Zn169 O168 2.028 . S
Zn169 O173 2.035 . S
Zn169 O175 2.035 . S
Zn169 O176 2.028 . S
O170 C166 1.258 . S
O170 Zn171 2.035 . S
Zn171 O170 2.035 . S
Zn171 O172 2.028 . S
Zn171 O174 2.028 . S
Zn171 O177 2.035 . S
O172 Zn171 2.028 . S
O172 C178 1.247 . S
O173 Zn169 2.035 . S
O173 C178 1.258 . S
O174 C167 1.247 . S
O174 Zn171 2.028 . S
O175 C167 1.258 . S
O175 Zn169 2.035 . S
O176 Zn169 2.028 . S
O176 C179 1.247 . S
O177 Zn171 2.035 . S
O177 C179 1.258 . S
C178 O172 1.247 . S
C178 O173 1.258 . S
C179 O176 1.247 . S
C179 O177 1.258 . S
H180 C186 0.930 . S
H181 C190 0.930 . S
H182 C195 0.929 . S
H183 C193 0.929 . S
H184 C188 0.929 . S
H185 C194 0.929 . S
C186 H180 0.930 . S
C186 C187 1.367 . S
C186 C194 1.378 . S
C187 C186 1.367 . S
C187 C195 1.433 . S
C188 H184 0.929 . S
C188 C190 1.378 . S
C188 C192 1.350 . S
C189 C192 1.463 . S
C189 C194 1.350 . S
C189 N197 1.427 . S
C190 H181 0.930 . S
C190 C188 1.378 . S
C190 C191 1.367 . S
C191 C190 1.367 . S
C191 C193 1.433 . S
C192 C188 1.350 . S
C192 C189 1.463 . S
C192 N196 1.427 . S
C193 H183 0.929 . S
C193 C191 1.433 . S
C193 N196 1.384 . S
C194 H185 0.929 . S
C194 C186 1.378 . S
C194 C189 1.350 . S
C195 H182 0.929 . S
C195 C187 1.433 . S
C195 N197 1.384 . S
N196 C192 1.427 . S
N196 C193 1.384 . S
N197 C189 1.427 . S
N197 C195 1.384 . S
H198 C204 0.930 . S
H199 C208 0.930 . S
H200 C213 0.929 . S
H201 C211 0.929 . S
H202 C206 0.929 . S
H203 C212 0.929 . S
C204 H198 0.930 . S
C204 C205 1.367 . S
C204 C212 1.378 . S
C205 C204 1.367 . S
C205 C213 1.433 . S
C206 H202 0.929 . S
C206 C208 1.378 . S
C206 C210 1.350 . S
C207 C210 1.463 . S
C207 C212 1.350 . S
C207 N215 1.427 . S
C208 H199 0.930 . S
C208 C206 1.378 . S
C208 C209 1.367 . S
C209 C208 1.367 . S
C209 C211 1.433 . S
C210 C206 1.350 . S
C210 C207 1.463 . S
C210 N214 1.427 . S
C211 H201 0.929 . S
C211 C209 1.433 . S
C211 N214 1.384 . S
C212 H203 0.929 . S
C212 C204 1.378 . S
C212 C207 1.350 . S
C213 H200 0.929 . S
C213 C205 1.433 . S
C213 N215 1.384 . S
N214 C210 1.427 . S
N214 C211 1.384 . S
N215 C207 1.427 . S
N215 C213 1.384 . S
H216 C222 0.930 . S
H217 C226 0.930 . S
H218 C231 0.929 . S
H219 C229 0.929 . S
H220 C224 0.929 . S
H221 C230 0.929 . S
C222 H216 0.930 . S
C222 C223 1.367 . S
C222 C230 1.378 . S
C223 C222 1.367 . S
C223 C231 1.433 . S
C224 H220 0.929 . S
C224 C226 1.378 . S
C224 C228 1.350 . S
C225 C228 1.463 . S
C225 C230 1.350 . S
C225 N233 1.427 . S
C226 H217 0.930 . S
C226 C224 1.378 . S
C226 C227 1.367 . S
C227 C226 1.367 . S
C227 C229 1.433 . S
C228 C224 1.350 . S
C228 C225 1.463 . S
C228 N232 1.427 . S
C229 H219 0.929 . S
C229 C227 1.433 . S
C229 N232 1.384 . S
C230 H221 0.929 . S
C230 C222 1.378 . S
C230 C225 1.350 . S
C231 H218 0.929 . S
C231 C223 1.433 . S
C231 N233 1.384 . S
N232 C228 1.427 . S
N232 C229 1.384 . S
N233 C225 1.427 . S
N233 C231 1.384 . S
H234 C240 0.930 . S
H235 C244 0.930 . S
H236 C249 0.929 . S
H237 C247 0.929 . S
H238 C242 0.929 . S
H239 C248 0.929 . S
C240 H234 0.930 . S
C240 C241 1.367 . S
C240 C248 1.378 . S
C241 C240 1.367 . S
C241 C249 1.433 . S
C242 H238 0.929 . S
C242 C244 1.378 . S
C242 C246 1.350 . S
C243 C246 1.463 . S
C243 C248 1.350 . S
C243 N251 1.427 . S
C244 H235 0.930 . S
C244 C242 1.378 . S
C244 C245 1.367 . S
C245 C244 1.367 . S
C245 C247 1.433 . S
C246 C242 1.350 . S
C246 C243 1.463 . S
C246 N250 1.427 . S
C247 H237 0.929 . S
C247 C245 1.433 . S
C247 N250 1.384 . S
C248 H239 0.929 . S
C248 C240 1.378 . S
C248 C243 1.350 . S
C249 H236 0.929 . S
C249 C241 1.433 . S
C249 N251 1.384 . S
N250 C246 1.427 . S
N250 C247 1.384 . S
N251 C243 1.427 . S
N251 C249 1.384 . S
H252 C258 0.930 . S
H253 C262 0.930 . S
H254 C267 0.929 . S
H255 C265 0.929 . S
H256 C260 0.929 . S
H257 C266 0.929 . S
C258 H252 0.930 . S
C258 C259 1.367 . S
C258 C266 1.378 . S
C259 C258 1.367 . S
C259 C267 1.433 . S
C260 H256 0.929 . S
C260 C262 1.378 . S
C260 C264 1.350 . S
C261 C264 1.463 . S
C261 C266 1.350 . S
C261 N269 1.427 . S
C262 H253 0.930 . S
C262 C260 1.378 . S
C262 C263 1.367 . S
C263 C262 1.367 . S
C263 C265 1.433 . S
C264 C260 1.350 . S
C264 C261 1.463 . S
C264 N268 1.427 . S
C265 H255 0.929 . S
C265 C263 1.433 . S
C265 N268 1.384 . S
C266 H257 0.929 . S
C266 C258 1.378 . S
C266 C261 1.350 . S
C267 H254 0.929 . S
C267 C259 1.433 . S
C267 N269 1.384 . S
N268 C264 1.427 . S
N268 C265 1.384 . S
N269 C261 1.427 . S
N269 C267 1.384 . S
H270 C276 0.930 . S
H271 C280 0.930 . S
H272 C285 0.929 . S
H273 C283 0.929 . S
H274 C278 0.929 . S
H275 C284 0.929 . S
C276 H270 0.930 . S
C276 C277 1.367 . S
C276 C284 1.378 . S
C277 C276 1.367 . S
C277 C285 1.433 . S
C278 H274 0.929 . S
C278 C280 1.378 . S
C278 C282 1.350 . S
C279 C282 1.463 . S
C279 C284 1.350 . S
C279 N287 1.427 . S
C280 H271 0.930 . S
C280 C278 1.378 . S
C280 C281 1.367 . S
C281 C280 1.367 . S
C281 C283 1.433 . S
C282 C278 1.350 . S
C282 C279 1.463 . S
C282 N286 1.427 . S
C283 H273 0.929 . S
C283 C281 1.433 . S
C283 N286 1.384 . S
C284 H275 0.929 . S
C284 C276 1.378 . S
C284 C279 1.350 . S
C285 H272 0.929 . S
C285 C277 1.433 . S
C285 N287 1.384 . S
N286 C282 1.427 . S
N286 C283 1.384 . S
N287 C279 1.427 . S
N287 C285 1.384 . S
H288 C294 0.930 . S
H289 C298 0.930 . S
H290 C303 0.929 . S
H291 C301 0.929 . S
H292 C296 0.929 . S
H293 C302 0.929 . S
C294 H288 0.930 . S
C294 C295 1.367 . S
C294 C302 1.378 . S
C295 C294 1.367 . S
C295 C303 1.433 . S
C296 H292 0.929 . S
C296 C298 1.378 . S
C296 C300 1.350 . S
C297 C300 1.463 . S
C297 C302 1.350 . S
C297 N305 1.427 . S
C298 H289 0.930 . S
C298 C296 1.378 . S
C298 C299 1.367 . S
C299 C298 1.367 . S
C299 C301 1.433 . S
C300 C296 1.350 . S
C300 C297 1.463 . S
C300 N304 1.427 . S
C301 H291 0.929 . S
C301 C299 1.433 . S
C301 N304 1.384 . S
C302 H293 0.929 . S
C302 C294 1.378 . S
C302 C297 1.350 . S
C303 H290 0.929 . S
C303 C295 1.433 . S
C303 N305 1.384 . S
N304 C300 1.427 . S
N304 C301 1.384 . S
N305 C297 1.427 . S
N305 C303 1.384 . S
H306 C312 0.930 . S
H307 C316 0.930 . S
H308 C321 0.929 . S
H309 C319 0.929 . S
H310 C314 0.929 . S
H311 C320 0.929 . S
C312 H306 0.930 . S
C312 C313 1.367 . S
C312 C320 1.378 1_556 S
C313 C312 1.367 . S
C313 C321 1.433 . S
C314 H310 0.929 . S
C314 C316 1.378 1_556 S
C314 C318 1.350 1_556 S
C315 C318 1.463 1_556 S
C315 C320 1.350 1_556 S
C315 N323 1.427 . S
C316 H307 0.930 . S
C316 C314 1.378 1_554 S
C316 C317 1.367 . S
C317 C316 1.367 . S
C317 C319 1.433 . S
C318 C314 1.350 1_554 S
C318 C315 1.463 1_554 S
C318 N322 1.427 . S
C319 H309 0.929 . S
C319 C317 1.433 . S
C319 N322 1.384 . S
C320 H311 0.929 . S
C320 C312 1.378 1_554 S
C320 C315 1.350 1_554 S
C321 H308 0.929 . S
C321 C313 1.433 . S
C321 N323 1.384 . S
N322 C318 1.427 . S
N322 C319 1.384 . S
N323 C315 1.427 . S
N323 C321 1.384 . S
H324 C330 0.930 . S
H325 C334 0.930 . S
H326 C339 0.929 . S
H327 C337 0.929 . S
H328 C332 0.929 . S
H329 C338 0.929 . S
C330 H324 0.930 . S
C330 C331 1.367 . S
C330 C338 1.378 . S
C331 C330 1.367 . S
C331 C339 1.433 . S
C332 H328 0.929 . S
C332 C334 1.378 . S
C332 C336 1.350 . S
C333 C336 1.463 . S
C333 C338 1.350 . S
C333 N341 1.427 . S
C334 H325 0.930 . S
C334 C332 1.378 . S
C334 C335 1.367 . S
C335 C334 1.367 . S
C335 C337 1.433 . S
C336 C332 1.350 . S
C336 C333 1.463 . S
C336 N340 1.427 . S
C337 H327 0.929 . S
C337 C335 1.433 . S
C337 N340 1.384 . S
C338 H329 0.929 . S
C338 C330 1.378 . S
C338 C333 1.350 . S
C339 H326 0.929 . S
C339 C331 1.433 . S
C339 N341 1.384 . S
N340 C336 1.427 . S
N340 C337 1.384 . S
N341 C333 1.427 . S
N341 C339 1.384 . S
H342 C348 0.930 . S
H343 C352 0.930 . S
H344 C357 0.929 . S
H345 C355 0.929 . S
H346 C350 0.929 . S
H347 C356 0.929 . S
C348 H342 0.930 . S
C348 C349 1.367 . S
C348 C356 1.378 . S
C349 C348 1.367 . S
C349 C357 1.433 . S
C350 H346 0.929 . S
C350 C352 1.378 . S
C350 C354 1.350 . S
C351 C354 1.463 . S
C351 C356 1.350 . S
C351 N359 1.427 . S
C352 H343 0.930 . S
C352 C350 1.378 . S
C352 C353 1.367 . S
C353 C352 1.367 . S
C353 C355 1.433 . S
C354 C350 1.350 . S
C354 C351 1.463 . S
C354 N358 1.427 . S
C355 H345 0.929 . S
C355 C353 1.433 . S
C355 N358 1.384 . S
C356 H347 0.929 . S
C356 C348 1.378 . S
C356 C351 1.350 . S
C357 H344 0.929 . S
C357 C349 1.433 . S
C357 N359 1.384 . S
N358 C354 1.427 . S
N358 C355 1.384 . S
N359 C351 1.427 . S
N359 C357 1.384 . S
H360 C366 0.930 . S
H361 C370 0.930 . S
H362 C375 0.929 . S
H363 C373 0.929 . S
H364 C368 0.929 . S
H365 C374 0.929 . S
C366 H360 0.930 . S
C366 C367 1.367 . S
C366 C374 1.378 . S
C367 C366 1.367 . S
C367 C375 1.433 . S
C368 H364 0.929 . S
C368 C370 1.378 . S
C368 C372 1.350 . S
C369 C372 1.463 . S
C369 C374 1.350 . S
C369 N377 1.427 . S
C370 H361 0.930 . S
C370 C368 1.378 . S
C370 C371 1.367 . S
C371 C370 1.367 . S
C371 C373 1.433 . S
C372 C368 1.350 . S
C372 C369 1.463 . S
C372 N376 1.427 . S
C373 H363 0.929 . S
C373 C371 1.433 . S
C373 N376 1.384 . S
C374 H365 0.929 . S
C374 C366 1.378 . S
C374 C369 1.350 . S
C375 H362 0.929 . S
C375 C367 1.433 . S
C375 N377 1.384 . S
N376 C372 1.427 . S
N376 C373 1.384 . S
N377 C369 1.427 . S
N377 C375 1.384 . S
H378 C384 0.930 . S
H379 C388 0.930 . S
H380 C393 0.929 . S
H381 C391 0.929 . S
H382 C386 0.929 . S
H383 C392 0.929 . S
C384 H378 0.930 . S
C384 C385 1.367 . S
C384 C392 1.378 . S
C385 C384 1.367 . S
C385 C393 1.433 . S
C386 H382 0.929 . S
C386 C388 1.378 . S
C386 C390 1.350 . S
C387 C390 1.463 . S
C387 C392 1.350 . S
C387 N395 1.427 . S
C388 H379 0.930 . S
C388 C386 1.378 . S
C388 C389 1.367 . S
C389 C388 1.367 . S
C389 C391 1.433 . S
C390 C386 1.350 . S
C390 C387 1.463 . S
C390 N394 1.427 . S
C391 H381 0.929 . S
C391 C389 1.433 . S
C391 N394 1.384 . S
C392 H383 0.929 . S
C392 C384 1.378 . S
C392 C387 1.350 . S
C393 H380 0.929 . S
C393 C385 1.433 . S
C393 N395 1.384 . S
N394 C390 1.427 . S
N394 C391 1.384 . S
N395 C387 1.427 . S
N395 C393 1.384 . S
H396 C402 0.930 . S
H397 C406 0.930 . S
H398 C411 0.929 . S
H399 C409 0.929 . S
H400 C404 0.929 . S
H401 C410 0.929 . S
C402 H396 0.930 . S
C402 C403 1.367 . S
C402 C410 1.378 . S
C403 C402 1.367 . S
C403 C411 1.433 . S
C404 H400 0.929 . S
C404 C406 1.378 . S
C404 C408 1.350 . S
C405 C408 1.463 . S
C405 C410 1.350 . S
C405 N413 1.427 . S
C406 H397 0.930 . S
C406 C404 1.378 . S
C406 C407 1.367 . S
C407 C406 1.367 . S
C407 C409 1.433 . S
C408 C404 1.350 . S
C408 C405 1.463 . S
C408 N412 1.427 . S
C409 H399 0.929 . S
C409 C407 1.433 . S
C409 N412 1.384 . S
C410 H401 0.929 . S
C410 C402 1.378 . S
C410 C405 1.350 . S
C411 H398 0.929 . S
C411 C403 1.433 . S
C411 N413 1.384 . S
N412 C408 1.427 . S
N412 C409 1.384 . S
N413 C405 1.427 . S
N413 C411 1.384 . S
H414 C420 0.930 . S
H415 C424 0.930 . S
H416 C429 0.929 . S
H417 C427 0.929 . S
H418 C422 0.929 . S
H419 C428 0.929 . S
C420 H414 0.930 . S
C420 C421 1.367 . S
C420 C428 1.378 . S
C421 C420 1.367 . S
C421 C429 1.433 . S
C422 H418 0.929 . S
C422 C424 1.378 . S
C422 C426 1.350 . S
C423 C426 1.463 . S
C423 C428 1.350 . S
C423 N431 1.427 . S
C424 H415 0.930 . S
C424 C422 1.378 . S
C424 C425 1.367 . S
C425 C424 1.367 . S
C425 C427 1.433 . S
C426 C422 1.350 . S
C426 C423 1.463 . S
C426 N430 1.427 . S
C427 H417 0.929 . S
C427 C425 1.433 . S
C427 N430 1.384 . S
C428 H419 0.929 . S
C428 C420 1.378 . S
C428 C423 1.350 . S
C429 H416 0.929 . S
C429 C421 1.433 . S
C429 N431 1.384 . S
N430 C426 1.427 . S
N430 C427 1.384 . S
N431 C423 1.427 . S
N431 C429 1.384 . S
H432 C438 0.930 . S
H433 C442 0.930 . S
H434 C447 0.929 . S
H435 C445 0.929 . S
H436 C440 0.929 . S
H437 C446 0.929 . S
C438 H432 0.930 . S
C438 C439 1.367 . S
C438 C446 1.378 . S
C439 C438 1.367 . S
C439 C447 1.433 . S
C440 H436 0.929 . S
C440 C442 1.378 . S
C440 C444 1.350 . S
C441 C444 1.463 . S
C441 C446 1.350 . S
C441 N449 1.427 . S
C442 H433 0.930 . S
C442 C440 1.378 . S
C442 C443 1.367 . S
C443 C442 1.367 . S
C443 C445 1.433 . S
C444 C440 1.350 . S
C444 C441 1.463 . S
C444 N448 1.427 . S
C445 H435 0.929 . S
C445 C443 1.433 . S
C445 N448 1.384 . S
C446 H437 0.929 . S
C446 C438 1.378 . S
C446 C441 1.350 . S
C447 H434 0.929 . S
C447 C439 1.433 . S
C447 N449 1.384 . S
N448 C444 1.427 . S
N448 C445 1.384 . S
N449 C441 1.427 . S
N449 C447 1.384 . S
H450 C456 0.930 . S
H451 C460 0.930 . S
H452 C465 0.929 . S
H453 C463 0.929 . S
H454 C458 0.929 . S
H455 C464 0.929 . S
C456 H450 0.930 . S
C456 C457 1.367 . S
C456 C464 1.378 . S
C457 C456 1.367 . S
C457 C465 1.433 . S
C458 H454 0.929 . S
C458 C460 1.378 . S
C458 C462 1.350 . S
C459 C462 1.463 . S
C459 C464 1.350 . S
C459 N467 1.427 . S
C460 H451 0.930 . S
C460 C458 1.378 . S
C460 C461 1.367 . S
C461 C460 1.367 . S
C461 C463 1.433 . S
C462 C458 1.350 . S
C462 C459 1.463 . S
C462 N466 1.427 . S
C463 H453 0.929 . S
C463 C461 1.433 . S
C463 N466 1.384 . S
C464 H455 0.929 . S
C464 C456 1.378 . S
C464 C459 1.350 . S
C465 H452 0.929 . S
C465 C457 1.433 . S
C465 N467 1.384 . S
N466 C462 1.427 . S
N466 C463 1.384 . S
N467 C459 1.427 . S
N467 C465 1.384 . S
H468 C474 0.930 . S
H469 C478 0.952 . S
H470 C483 0.929 . S
H471 C481 0.929 . S
H472 C476 0.929 . S
H473 C482 0.929 . S
C474 H468 0.930 . S
C474 C475 1.367 . S
C474 C482 1.378 . S
C475 C474 1.367 . S
C475 C483 1.433 . S
C476 H472 0.929 . S
C476 C478 1.378 . S
C476 C480 1.350 . S
C477 C480 1.463 . S
C477 C482 1.350 . S
C477 N485 1.427 . S
C478 H469 0.952 . S
C478 C476 1.378 . S
C478 C479 1.367 . S
C479 C478 1.367 . S
C479 C481 1.433 . S
C480 C476 1.350 . S
C480 C477 1.463 . S
C480 N484 1.427 . S
C481 H471 0.929 . S
C481 C479 1.433 . S
C481 N484 1.384 . S
C482 H473 0.929 . S
C482 C474 1.378 . S
C482 C477 1.350 . S
C483 H470 0.929 . S
C483 C475 1.433 . S
C483 N485 1.384 . S
N484 C480 1.427 . S
N484 C481 1.384 . S
N485 C477 1.427 . S
N485 C483 1.384 . S
H486 C492 0.930 . S
H487 C496 0.930 . S
H488 C501 0.929 . S
H489 C499 0.929 . S
H490 C494 0.929 . S
H491 C500 0.929 . S
C492 H486 0.930 . S
C492 C493 1.367 . S
C492 C500 1.378 . S
C493 C492 1.367 . S
C493 C501 1.433 . S
C494 H490 0.929 . S
C494 C496 1.378 . S
C494 C498 1.350 . S
C495 C498 1.463 . S
C495 C500 1.350 . S
C495 N503 1.427 . S
C496 H487 0.930 . S
C496 C494 1.378 . S
C496 C497 1.367 . S
C497 C496 1.367 . S
C497 C499 1.433 . S
C498 C494 1.350 . S
C498 C495 1.463 . S
C498 N502 1.427 . S
C499 H489 0.929 . S
C499 C497 1.433 . S
C499 N502 1.384 . S
C500 H491 0.929 . S
C500 C492 1.378 . S
C500 C495 1.350 . S
C501 H488 0.929 . S
C501 C493 1.433 . S
C501 N503 1.384 . S
N502 C498 1.427 . S
N502 C499 1.384 . S
N503 C495 1.427 . S
N503 C501 1.384 . S
H504 C510 0.930 . S
H505 C514 0.930 . S
H506 C519 0.929 . S
H507 C517 0.929 . S
H508 C512 0.929 . S
H509 C518 0.929 . S
C510 H504 0.930 . S
C510 C511 1.367 . S
C510 C518 1.378 . S
C511 C510 1.367 . S
C511 C519 1.433 . S
C512 H508 0.929 . S
C512 C514 1.378 . S
C512 C516 1.350 . S
C513 C516 1.463 . S
C513 C518 1.350 . S
C513 N521 1.427 . S
C514 H505 0.930 . S
C514 C512 1.378 . S
C514 C515 1.367 . S
C515 C514 1.367 . S
C515 C517 1.433 . S
C516 C512 1.350 . S
C516 C513 1.463 . S
C516 N520 1.427 . S
C517 H507 0.929 . S
C517 C515 1.433 . S
C517 N520 1.384 . S
C518 H509 0.929 . S
C518 C510 1.378 . S
C518 C513 1.350 . S
C519 H506 0.929 . S
C519 C511 1.433 . S
C519 N521 1.384 . S
N520 C516 1.427 . S
N520 C517 1.384 . S
N521 C513 1.427 . S
N521 C519 1.384 . S
H522 C528 0.930 . S
H523 C532 0.930 . S
H524 C537 0.929 . S
H525 C535 0.929 . S
H526 C530 0.929 . S
H527 C536 0.929 . S
C528 H522 0.930 . S
C528 C529 1.367 . S
C528 C536 1.378 . S
C529 C528 1.367 . S
C529 C537 1.433 . S
C530 H526 0.929 . S
C530 C532 1.378 . S
C530 C534 1.350 . S
C531 C534 1.463 . S
C531 C536 1.350 . S
C531 N539 1.427 . S
C532 H523 0.930 . S
C532 C530 1.378 . S
C532 C533 1.367 . S
C533 C532 1.367 . S
C533 C535 1.433 . S
C534 C530 1.350 . S
C534 C531 1.463 . S
C534 N538 1.427 . S
C535 H525 0.929 . S
C535 C533 1.433 . S
C535 N538 1.384 . S
C536 H527 0.929 . S
C536 C528 1.378 . S
C536 C531 1.350 . S
C537 H524 0.929 . S
C537 C529 1.433 . S
C537 N539 1.384 . S
N538 C534 1.427 . S
N538 C535 1.384 . S
N539 C531 1.427 . S
N539 C537 1.384 . S
H540 C546 0.930 . S
H541 C550 0.930 . S
H542 C555 0.929 . S
H543 C553 0.929 . S
H544 C548 0.929 . S
H545 C554 0.929 . S
C546 H540 0.930 . S
C546 C547 1.367 . S
C546 C554 1.378 . S
C547 C546 1.367 . S
C547 C555 1.433 . S
C548 H544 0.929 . S
C548 C550 1.378 . S
C548 C552 1.350 . S
C549 C552 1.463 . S
C549 C554 1.350 . S
C549 N557 1.427 . S
C550 H541 0.930 . S
C550 C548 1.378 . S
C550 C551 1.367 . S
C551 C550 1.367 . S
C551 C553 1.433 . S
C552 C548 1.350 . S
C552 C549 1.463 . S
C552 N556 1.427 . S
C553 H543 0.929 . S
C553 C551 1.433 . S
C553 N556 1.384 . S
C554 H545 0.929 . S
C554 C546 1.378 . S
C554 C549 1.350 . S
C555 H542 0.929 . S
C555 C547 1.433 . S
C555 N557 1.384 . S
N556 C552 1.427 . S
N556 C553 1.384 . S
N557 C549 1.427 . S
N557 C555 1.384 . S
H558 C564 0.930 . S
H559 C568 0.930 . S
H560 C573 0.929 . S
H561 C571 0.929 . S
H562 C566 0.929 . S
H563 C572 0.929 . S
C564 H558 0.930 . S
C564 C565 1.367 . S
C564 C572 1.378 . S
C565 C564 1.367 . S
C565 C573 1.433 . S
C566 H562 0.929 . S
C566 C568 1.378 1_556 S
C566 C570 1.350 . S
C567 C570 1.463 . S
C567 C572 1.350 . S
C567 N575 1.427 . S
C568 H559 0.930 . S
C568 C566 1.378 1_554 S
C568 C569 1.367 . S
C569 C568 1.367 . S
C569 C571 1.433 . S
C570 C566 1.350 . S
C570 C567 1.463 . S
C570 N574 1.427 . S
C571 H561 0.929 . S
C571 C569 1.433 . S
C571 N574 1.384 1_554 S
C572 H563 0.929 . S
C572 C564 1.378 . S
C572 C567 1.350 . S
C573 H560 0.929 . S
C573 C565 1.433 . S
C573 N575 1.384 . S
N574 C570 1.427 . S
N574 C571 1.384 1_556 S
N575 C567 1.427 . S
N575 C573 1.384 . S
H576 C582 0.930 . S
H577 C586 0.930 . S
H578 C591 0.929 . S
H579 C589 0.929 . S
H580 C584 0.929 . S
H581 C590 0.929 . S
C582 H576 0.930 . S
C582 C583 1.367 . S
C582 C590 1.378 . S
C583 C582 1.367 . S
C583 C591 1.433 . S
C584 H580 0.929 . S
C584 C586 1.378 . S
C584 C588 1.350 . S
C585 C588 1.463 . S
C585 C590 1.350 . S
C585 N593 1.427 . S
C586 H577 0.930 . S
C586 C584 1.378 . S
C586 C587 1.367 . S
C587 C586 1.367 . S
C587 C589 1.433 . S
C588 C584 1.350 . S
C588 C585 1.463 . S
C588 N592 1.427 . S
C589 H579 0.929 . S
C589 C587 1.433 . S
C589 N592 1.384 . S
C590 H581 0.929 . S
C590 C582 1.378 . S
C590 C585 1.350 . S
C591 H578 0.929 . S
C591 C583 1.433 . S
C591 N593 1.384 . S
N592 C588 1.427 . S
N592 C589 1.384 . S
N593 C585 1.427 . S
N593 C591 1.384 . S
H594 C600 0.930 . S
H595 C604 0.930 . S
H596 C609 0.929 . S
H597 C607 0.929 . S
H598 C602 0.929 . S
H599 C608 0.929 . S
C600 H594 0.930 . S
C600 C601 1.367 . S
C600 C608 1.378 . S
C601 C600 1.367 . S
C601 C609 1.433 . S
C602 H598 0.929 . S
C602 C604 1.378 . S
C602 C606 1.350 . S
C603 C606 1.463 . S
C603 C608 1.350 . S
C603 N611 1.427 . S
C604 H595 0.930 . S
C604 C602 1.378 . S
C604 C605 1.367 . S
C605 C604 1.367 . S
C605 C607 1.433 . S
C606 C602 1.350 . S
C606 C603 1.463 . S
C606 N610 1.427 . S
C607 H597 0.929 . S
C607 C605 1.433 . S
C607 N610 1.384 . S
C608 H599 0.929 . S
C608 C600 1.378 . S
C608 C603 1.350 . S
C609 H596 0.929 . S
C609 C601 1.433 . S
C609 N611 1.384 . S
N610 C606 1.427 . S
N610 C607 1.384 . S
N611 C603 1.427 . S
N611 C609 1.384 . S
C191 C108 1.565 . S
C187 C6 1.570 . S
C209 C111 1.594 . S
C205 C18 1.594 . S
C227 C109 1.536 . S
C223 C28 1.544 . S
C245 C110 1.653 1_655 S
C241 C45 1.655 . S
C263 C125 1.418 . S
C259 C4 1.427 . S
C281 C139 1.618 . S
C277 C21 1.615 . S
C295 C33 1.679 . S
C299 C165 1.690 . S
C317 C179 1.688 . S
C313 C40 1.690 . S
C335 C124 1.543 . S
C331 C16 1.523 . S
C349 C30 1.604 . S
C353 C138 1.588 . S
C371 C164 1.661 . S
C367 C42 1.654 . S
C389 C178 1.695 . S
C385 C9 1.704 . S
C403 C52 1.661 . S
C407 C123 1.648 1_655 S
C425 C96 1.709 . S
C421 C69 1.691 . S
C439 C78 1.550 . S
C443 C122 1.543 . S
C457 C93 1.341 . S
C461 C97 1.356 . S
C479 C152 1.737 . S
C475 C57 1.722 . S
C497 C166 1.732 . S
C493 C66 1.747 . S
C515 C136 1.433 . S
C511 C76 1.436 . S
C529 C88 1.411 . S
C533 C150 1.393 . S
C551 C153 1.661 . S
C547 C64 1.643 . S
C569 C167 1.633 . S
C565 C81 1.644 . S
C587 C137 1.346 . S
C583 C90 1.344 . S
C601 C54 1.597 . S
C605 C151 1.594 . S
