# Generated by pormake.
# Topology zzz, (3,6)-cn, num edge types: 1
# Building blocks:
#     Node 0, Type 0, BuildingBlock: CUQRIR_clean_linker_1, # of connection points: 3
#     Node 1, Type 0, BuildingBlock: CUQRIR_clean_linker_1, # of connection points: 3
#     Node 2, Type 0, BuildingBlock: CUQRIR_clean_linker_1, # of connection points: 3
#     Node 3, Type 0, BuildingBlock: CUQRIR_clean_linker_1, # of connection points: 3
#     Node 4, Type 0, BuildingBlock: CUQRIR_clean_linker_1, # of connection points: 3
#     Node 5, Type 0, BuildingBlock: CUQRIR_clean_linker_1, # of connection points: 3
#     Node 6, Type 0, BuildingBlock: CUQRIR_clean_linker_1, # of connection points: 3
#     Node 7, Type 0, BuildingBlock: CUQRIR_clean_linker_1, # of connection points: 3
#     Node 8, Type 1, BuildingBlock: CUKXOW_clean_sbu_0, # of connection points: 6
#     Node 9, Type 1, BuildingBlock: CUKXOW_clean_sbu_0, # of connection points: 6
#     Node 10, Type 1, BuildingBlock: CUKXOW_clean_sbu_0, # of connection points: 6
#     Node 11, Type 1, BuildingBlock: CUKXOW_clean_sbu_0, # of connection points: 6
#     Edge 12, Type (0, 1), BuildingBlock: XUDNAN_clean_linker_2, # of connection points: 2
#     Edge 13, Type (0, 1), BuildingBlock: XUDNAN_clean_linker_2, # of connection points: 2
#     Edge 14, Type (0, 1), BuildingBlock: XUDNAN_clean_linker_2, # of connection points: 2
#     Edge 15, Type (0, 1), BuildingBlock: XUDNAN_clean_linker_2, # of connection points: 2
#     Edge 16, Type (0, 1), BuildingBlock: XUDNAN_clean_linker_2, # of connection points: 2
#     Edge 17, Type (0, 1), BuildingBlock: XUDNAN_clean_linker_2, # of connection points: 2
#     Edge 18, Type (0, 1), BuildingBlock: XUDNAN_clean_linker_2, # of connection points: 2
#     Edge 19, Type (0, 1), BuildingBlock: XUDNAN_clean_linker_2, # of connection points: 2
#     Edge 20, Type (0, 1), BuildingBlock: XUDNAN_clean_linker_2, # of connection points: 2
#     Edge 21, Type (0, 1), BuildingBlock: XUDNAN_clean_linker_2, # of connection points: 2
#     Edge 22, Type (0, 1), BuildingBlock: XUDNAN_clean_linker_2, # of connection points: 2
#     Edge 23, Type (0, 1), BuildingBlock: XUDNAN_clean_linker_2, # of connection points: 2
#     Edge 24, Type (0, 1), BuildingBlock: XUDNAN_clean_linker_2, # of connection points: 2
#     Edge 25, Type (0, 1), BuildingBlock: XUDNAN_clean_linker_2, # of connection points: 2
#     Edge 26, Type (0, 1), BuildingBlock: XUDNAN_clean_linker_2, # of connection points: 2
#     Edge 27, Type (0, 1), BuildingBlock: XUDNAN_clean_linker_2, # of connection points: 2
#     Edge 28, Type (0, 1), BuildingBlock: XUDNAN_clean_linker_2, # of connection points: 2
#     Edge 29, Type (0, 1), BuildingBlock: XUDNAN_clean_linker_2, # of connection points: 2
#     Edge 30, Type (0, 1), BuildingBlock: XUDNAN_clean_linker_2, # of connection points: 2
#     Edge 31, Type (0, 1), BuildingBlock: XUDNAN_clean_linker_2, # of connection points: 2
#     Edge 32, Type (0, 1), BuildingBlock: XUDNAN_clean_linker_2, # of connection points: 2
#     Edge 33, Type (0, 1), BuildingBlock: XUDNAN_clean_linker_2, # of connection points: 2
#     Edge 34, Type (0, 1), BuildingBlock: XUDNAN_clean_linker_2, # of connection points: 2
#     Edge 35, Type (0, 1), BuildingBlock: XUDNAN_clean_linker_2, # of connection points: 2
# Relax obj value: 0.065
# Max RMSD: 0.109
# Mean RMSD: 0.083
data_MOF--net-zzz--node1-CUKXOW_clean_sbu_0--node2-CUQRIR_clean_linker_1--edge1-XUDNAN_clean_linker_2
_symmetry_space_group_name_H-M    P1
_symmetry_Int_Tables_number       1
_symmetry_cell_setting            triclinic
loop_
_symmetry_equiv_pos_as_xyz
'x, y, z'
_cell_length_a     47.336884
_cell_length_b     49.545353
_cell_length_c     14.125343
_cell_angle_alpha  93.752505
_cell_angle_beta   86.359373
_cell_angle_gamma 93.600861
loop_
_atom_site_label
_atom_site_type_symbol
_atom_site_fract_x
_atom_site_fract_y
_atom_site_fract_z
_atom_type_partial_charge
C0 C 0.72276 0.50681 0.15455 0.0
N1 N 0.7512 0.50963 0.16145 0.0
N2 N 0.71634 0.50261 0.06244 0.0
C3 C 0.70114 0.50867 0.23694 0.0
C4 C 0.74188 0.50275 0.01346 0.0
N5 N 0.76306 0.50702 0.07363 0.0
C6 C 0.74613 0.49637 0.90811 0.0
H7 H 0.69604 0.48813 0.26252 0.0
H8 H 0.68129 0.51651 0.21466 0.0
H9 H 0.70944 0.52201 0.29631 0.0
H10 H 0.72783 0.48391 0.88022 0.0
H11 H 0.76581 0.48556 0.89087 0.0
H12 H 0.74818 0.51566 0.87183 0.0
C13 C 0.98862 0.78541 0.05704 0.0
N14 N 0.99028 0.81284 0.0662 0.0
N15 N 0.98187 0.77659 0.96791 0.0
C16 C 0.99178 0.76727 0.13652 0.0
C17 C 0.97964 0.79969 0.92315 0.0
N18 N 0.98465 0.82164 0.9829 0.0
C19 C 0.97306 0.80084 0.82083 0.0
H20 H 0.01416 0.76176 0.1352 0.0
H21 H 0.97813 0.74835 0.12773 0.0
H22 H 0.98628 0.77772 0.20655 0.0
H23 H 0.94984 0.80202 0.81689 0.0
H24 H 0.97978 0.78246 0.77834 0.0
H25 H 0.98367 0.81911 0.78981 0.0
C26 C 0.76518 0.9824 0.1152 0.0
N27 N 0.73683 0.97739 0.11153 0.0
N28 N 0.7772 0.98686 0.02741 0.0
C29 C 0.78066 0.9853 0.20526 0.0
C30 C 0.75507 0.98471 0.97061 0.0
N31 N 0.73055 0.97894 0.02176 0.0
C32 C 0.75728 0.98977 0.86657 0.0
H33 H 0.77438 0.004 0.24677 0.0
H34 H 0.80398 0.98647 0.19036 0.0
H35 H 0.77461 0.96794 0.24946 0.0
H36 H 0.77757 0.98294 0.83255 0.0
H37 H 0.75676 0.01186 0.85863 0.0
H38 H 0.73934 0.97924 0.82956 0.0
C39 C 0.54408 0.73367 0.1626 0.0
N40 N 0.53807 0.70674 0.16695 0.0
N41 N 0.5371 0.74214 0.07823 0.0
C42 C 0.55752 0.75156 0.23949 0.0
C43 C 0.5267 0.71927 0.03132 0.0
N44 N 0.5275 0.69781 0.08507 0.0
C45 C 0.51254 0.7185 0.93849 0.0
H46 H 0.54076 0.75939 0.29055 0.0
H47 H 0.56981 0.76907 0.20887 0.0
H48 H 0.57167 0.73989 0.27898 0.0
H49 H 0.5291 0.71928 0.87938 0.0
H50 H 0.49957 0.7363 0.93609 0.0
H51 H 0.4988 0.69976 0.92694 0.0
C52 C 0.24522 0.52137 0.24982 0.0
N53 N 0.21668 0.5225 0.24885 0.0
N54 N 0.25259 0.515 0.33659 0.0
C55 C 0.26547 0.52419 0.16437 0.0
C56 C 0.22758 0.51229 0.38795 0.0
N57 N 0.20591 0.51684 0.33496 0.0
C58 C 0.2242 0.50385 0.48858 0.0
H59 H 0.28579 0.515 0.17403 0.0
H60 H 0.26994 0.54605 0.15332 0.0
H61 H 0.25581 0.51464 0.0999 0.0
H62 H 0.24381 0.50915 0.5265 0.0
H63 H 0.21975 0.48158 0.4875 0.0
H64 H 0.20606 0.51362 0.52755 0.0
C65 C 0.0473 0.28491 0.35573 0.0
N66 N 0.04768 0.25766 0.33896 0.0
N67 N 0.03984 0.29142 0.44825 0.0
C68 C 0.05216 0.30525 0.28108 0.0
C69 C 0.03582 0.26709 0.48725 0.0
N70 N 0.0407 0.24665 0.42121 0.0
C71 C 0.02367 0.26315 0.58668 0.0
H72 H 0.06371 0.32381 0.31023 0.0
H73 H 0.03136 0.31113 0.25964 0.0
H74 H 0.06444 0.29682 0.21764 0.0
H75 H 0.00107 0.25584 0.58394 0.0
H76 H 0.02515 0.28233 0.63174 0.0
H77 H 0.03501 0.24753 0.61934 0.0
C78 C 0.27902 0.03009 0.20873 0.0
N79 N 0.306 0.0223 0.19569 0.0
N80 N 0.27008 0.02971 0.30177 0.0
C81 C 0.26178 0.03889 0.13193 0.0
C82 C 0.29247 0.02138 0.34465 0.0
N83 N 0.31424 0.01679 0.28018 0.0
C84 C 0.2926 0.01674 0.44875 0.0
H85 H 0.24595 0.05326 0.16158 0.0
H86 H 0.25024 0.02081 0.09923 0.0
H87 H 0.27568 0.04844 0.0757 0.0
H88 H 0.27076 0.01247 0.47965 0.0
H89 H 0.30178 0.03529 0.48634 0.0
H90 H 0.30582 -0.00032 0.46041 0.0
C91 C 0.49942 0.23876 0.20145 0.0
N92 N 0.49184 0.2647 0.21488 0.0
N93 N 0.5077 0.23002 0.28356 0.0
C94 C 0.50078 0.22266 0.10754 0.0
C95 C 0.50486 0.25136 0.34735 0.0
N96 N 0.49525 0.27241 0.30566 0.0
C97 C 0.51054 0.25128 0.4509 0.0
H98 H 0.47959 0.21258 0.09571 0.0
H99 H 0.51635 0.2068 0.10671 0.0
H100 H 0.50656 0.23609 0.0486 0.0
H101 H 0.53296 0.25829 0.46028 0.0
H102 H 0.50706 0.23055 0.47648 0.0
H103 H 0.49675 0.26519 0.49457 0.0
Tb104 Tb 0.02164 0.00869 0.63667 0.0
C105 C 0.08252 0.03872 0.63175 0.0
Tb106 Tb 0.03289 0.05844 0.77877 0.0
O107 O 0.0256 0.03401 0.51373 0.0
O108 O 0.01373 0.05022 0.64891 0.0
O109 O 0.06721 0.01611 0.6084 0.0
C110 C 0.04053 0.10785 0.86363 0.0
O111 O 0.07269 0.05837 0.69122 0.0
C112 C 0.03095 0.01056 0.84958 0.0
C113 C 0.97146 0.03038 0.77714 0.0
O114 O 0.0528 0.08651 0.88522 0.0
O115 O 0.02442 0.10137 0.79369 0.0
O116 O 0.02456 0.03267 0.89873 0.0
O117 O 0.04043 0.01671 0.76795 0.0
O118 O 0.98703 0.05315 0.79563 0.0
O119 O 0.98154 0.00932 0.72478 0.0
C120 C 0.01455 0.95874 0.55518 0.0
O121 O 0.99925 0.97892 0.54206 0.0
O122 O 0.03345 0.96663 0.61529 0.0
C123 C 0.02164 0.05617 0.56594 0.0
Tb124 Tb 0.52187 0.01113 0.6265 0.0
C125 C 0.56437 0.9694 0.5288 0.0
Tb126 Tb 0.51391 0.95134 0.6679 0.0
O127 O 0.53756 0.02162 0.76772 0.0
O128 O 0.54316 0.98375 0.70111 0.0
O129 O 0.55086 0.99167 0.5192 0.0
C130 C 0.51138 0.90825 0.77108 0.0
O131 O 0.5559 0.9523 0.59489 0.0
C132 C 0.489 0.96426 0.5178 0.0
C133 C 0.46964 0.99389 0.76141 0.0
O134 O 0.51657 0.90765 0.67949 0.0
O135 O 0.5073 0.93283 0.80345 0.0
O136 O 0.49629 0.93983 0.52972 0.0
O137 O 0.49289 0.9783 0.59349 0.0
O138 O 0.47867 0.96887 0.75568 0.0
O139 O 0.48242 0.01393 0.71383 0.0
C140 C 0.52778 0.05741 0.53994 0.0
O141 O 0.54523 0.04938 0.59782 0.0
O142 O 0.50668 0.03959 0.53172 0.0
C143 C 0.54594 0.99754 0.77812 0.0
Tb144 Tb 0.49417 0.50877 0.6421 0.0
C145 C 0.42738 0.49119 0.64278 0.0
Tb146 Tb 0.46824 0.46589 0.77502 0.0
O147 O 0.51342 0.47728 0.5453 0.0
O148 O 0.47654 0.46908 0.62846 0.0
O149 O 0.44856 0.50863 0.61577 0.0
C150 C 0.45754 0.41956 0.85946 0.0
O151 O 0.43058 0.47174 0.70105 0.0
C152 C 0.46701 0.51617 0.84276 0.0
C153 C 0.5347 0.48079 0.76467 0.0
O154 O 0.46718 0.44221 0.90008 0.0
O155 O 0.45336 0.42305 0.77136 0.0
O156 O 0.44826 0.49727 0.8686 0.0
O157 O 0.48615 0.5057 0.78955 0.0
O158 O 0.51413 0.4615 0.7757 0.0
O159 O 0.53046 0.50364 0.72493 0.0
C160 C 0.50569 0.55666 0.5693 0.0
O161 O 0.51631 0.53414 0.5362 0.0
O162 O 0.4886 0.55214 0.64269 0.0
C163 C 0.4952 0.4584 0.57457 0.0
Tb164 Tb 0.9583 0.52857 0.64337 0.0
C165 C 0.99026 0.47568 0.65888 0.0
Tb166 Tb 0.01163 0.53155 0.76301 0.0
O167 O 0.98424 0.51929 0.5134 0.0
O168 O 0.00148 0.54226 0.6271 0.0
O169 O 0.96546 0.48583 0.64722 0.0
C170 C 0.06373 0.53209 0.82672 0.0
O171 O 0.01234 0.49072 0.69133 0.0
C172 C 0.96237 0.52763 0.85819 0.0
C173 C 0.97862 0.5843 0.75207 0.0
O174 O 0.04243 0.51568 0.85115 0.0
O175 O 0.05576 0.54814 0.76564 0.0
O176 O 0.98541 0.53715 0.8968 0.0
O177 O 0.96881 0.51744 0.7769 0.0
O178 O 0.00317 0.5744 0.76904 0.0
O179 O 0.95765 0.56936 0.71247 0.0
C180 C 0.90628 0.52688 0.57986 0.0
O181 O 0.92822 0.54079 0.54484 0.0
O182 O 0.9136 0.51417 0.65117 0.0
C183 C 0.0073 0.5307 0.54678 0.0
H184 H 0.21993 0.00053 0.2995 0.0
H185 H 0.26126 0.07525 0.4098 0.0
H186 H 0.21686 0.08677 0.50264 0.0
H187 H 0.14889 0.02597 0.28423 0.0
H188 H 0.13086 0.99503 0.32213 0.0
H189 H 0.16501 0.9941 0.25829 0.0
H190 H 0.18424 0.96956 0.39516 0.0
H191 H 0.15026 0.97065 0.45974 0.0
H192 H 0.18167 0.98488 0.51449 0.0
H193 H 0.16892 0.08889 0.58847 0.0
H194 H 0.12071 0.08187 0.66251 0.0
H195 H 0.11056 0.00464 0.5002 0.0
C196 C 0.21919 0.01954 0.34174 0.0
C197 C 0.24351 0.03739 0.34699 0.0
C198 C 0.24247 0.06173 0.40457 0.0
C199 C 0.21746 0.0683 0.45736 0.0
C200 C 0.19381 0.05013 0.45204 0.0
C201 C 0.19441 0.02624 0.39563 0.0
C202 C 0.16655 0.00957 0.40684 0.0
C203 C 0.15197 0.00596 0.31224 0.0
C204 C 0.17096 0.98204 0.44643 0.0
C205 C 0.1503 0.02769 0.4789 0.0
C206 C 0.16637 0.05104 0.5035 0.0
C207 C 0.1561 0.07071 0.56958 0.0
C208 C 0.12866 0.06646 0.61151 0.0
C209 C 0.11173 0.04263 0.58777 0.0
C210 C 0.12287 0.02305 0.52033 0.0
H211 H 0.4784 0.18169 0.27744 0.0
H212 H 0.55998 0.22174 0.33296 0.0
H213 H 0.57618 0.17923 0.38846 0.0
H214 H 0.47107 0.1466 0.47937 0.0
H215 H 0.45429 0.11588 0.42797 0.0
H216 H 0.45082 0.14758 0.37589 0.0
H217 H 0.47104 0.12753 0.21335 0.0
H218 H 0.47421 0.0956 0.26496 0.0
H219 H 0.50474 0.11225 0.206 0.0
H220 H 0.58082 0.13551 0.45892 0.0
H221 H 0.57454 0.09201 0.53563 0.0
H222 H 0.48971 0.07965 0.43495 0.0
C223 C 0.49996 0.18095 0.29804 0.0
C224 C 0.51828 0.20445 0.30024 0.0
C225 C 0.54604 0.20355 0.33031 0.0
C226 C 0.55531 0.1796 0.3616 0.0
C227 C 0.53648 0.15684 0.36175 0.0
C228 C 0.50945 0.15715 0.3299 0.0
C229 C 0.4925 0.13075 0.34679 0.0
C230 C 0.4656 0.13551 0.41137 0.0
C231 C 0.4852 0.11564 0.25213 0.0
C232 C 0.51382 0.11608 0.39661 0.0
C233 C 0.53915 0.13137 0.40331 0.0
C234 C 0.56132 0.12308 0.45257 0.0
C235 C 0.55751 0.09849 0.49634 0.0
C236 C 0.53172 0.08262 0.4906 0.0
C237 C 0.50975 0.09136 0.43926 0.0
H238 H 0.30031 0.54629 0.37236 0.0
H239 H 0.26361 0.46404 0.36468 0.0
H240 H 0.30564 0.44892 0.43722 0.0
H241 H 0.37581 0.52775 0.32353 0.0
H242 H 0.38916 0.55494 0.40266 0.0
H243 H 0.35763 0.55875 0.34079 0.0
H244 H 0.33027 0.57 0.50173 0.0
H245 H 0.36154 0.56578 0.56421 0.0
H246 H 0.32909 0.54631 0.59373 0.0
H247 H 0.34762 0.44381 0.52711 0.0
H248 H 0.39106 0.4473 0.61442 0.0
H249 H 0.40312 0.53271 0.56058 0.0
C250 C 0.30177 0.52503 0.38356 0.0
C251 C 0.27912 0.50611 0.36282 0.0
C252 C 0.28106 0.47854 0.37986 0.0
C253 C 0.30472 0.46989 0.42111 0.0
C254 C 0.32636 0.48909 0.44392 0.0
C255 C 0.32549 0.516 0.42436 0.0
C256 C 0.35128 0.53248 0.46 0.0
C257 C 0.36956 0.54417 0.37677 0.0
C258 C 0.3425 0.55497 0.53433 0.0
C259 C 0.36625 0.51073 0.50483 0.0
C260 C 0.35134 0.48593 0.49468 0.0
C261 C 0.35975 0.463 0.5344 0.0
C262 C 0.38435 0.4653 0.58478 0.0
C263 C 0.40048 0.4903 0.59456 0.0
C264 C 0.3913 0.51332 0.55374 0.0
H265 H 0.06833 0.3397 0.49016 0.0
H266 H 0.98473 0.29907 0.4862 0.0
H267 H 0.96317 0.34174 0.54456 0.0
H268 H 0.05444 0.38332 0.70433 0.0
H269 H 0.07523 0.41213 0.66059 0.0
H270 H 0.08429 0.3783 0.62058 0.0
H271 H 0.08087 0.38994 0.44538 0.0
H272 H 0.07213 0.42381 0.48555 0.0
H273 H 0.04884 0.40331 0.41015 0.0
H274 H 0.95065 0.38837 0.59666 0.0
H275 H 0.94731 0.43682 0.64331 0.0
H276 H 0.03915 0.44837 0.61699 0.0
C277 C 0.04554 0.33999 0.5023 0.0
C278 C 0.028 0.3163 0.48481 0.0
C279 C 0.99828 0.31712 0.50053 0.0
C280 C 0.98596 0.34119 0.53327 0.0
C281 C 0.00372 0.36428 0.54995 0.0
C282 C 0.03286 0.36399 0.53533 0.0
C283 C 0.04688 0.3919 0.558 0.0
C284 C 0.06636 0.39137 0.64082 0.0
C285 C 0.06313 0.40288 0.46947 0.0
C286 C 0.02102 0.40786 0.58684 0.0
C287 C 0.99641 0.39143 0.58142 0.0
C288 C 0.96975 0.40144 0.60171 0.0
C289 C 0.9681 0.42905 0.62792 0.0
C290 C 0.99295 0.44641 0.6342 0.0
C291 C 0.01979 0.43556 0.61395 0.0
H292 H 0.81805 0.96082 0.9214 0.0
H293 H 0.7997 0.03629 0.07795 0.0
H294 H 0.84775 0.05564 0.03067 0.0
H295 H 0.89265 0.96151 0.97786 0.0
H296 H 0.90421 0.94718 0.86244 0.0
H297 H 0.86877 0.93908 0.91078 0.0
H298 H 0.84827 0.95566 0.76036 0.0
H299 H 0.88363 0.96391 0.71181 0.0
H300 H 0.85797 0.98948 0.72514 0.0
H301 H 0.89646 0.06706 0.96259 0.0
H302 H 0.94418 0.06995 0.88368 0.0
H303 H 0.93213 0.98653 0.77097 0.0
C304 C 0.82445 0.98133 0.94582 0.0
C305 C 0.80556 0.99726 0.00319 0.0
C306 C 0.81421 0.02399 0.03431 0.0
C307 C 0.8413 0.03504 0.00764 0.0
C308 C 0.85945 0.01895 0.95022 0.0
C309 C 0.85156 0.9926 0.92018 0.0
C310 C 0.87523 0.97982 0.85853 0.0
C311 C 0.88584 0.95546 0.90521 0.0
C312 C 0.8657 0.97175 0.75799 0.0
C313 C 0.89747 0.00324 0.85765 0.0
C314 C 0.88784 0.02555 0.91113 0.0
C315 C 0.9043 0.0497 0.9208 0.0
C316 C 0.93144 0.05111 0.87531 0.0
C317 C 0.94205 0.02848 0.8206 0.0
C318 C 0.92468 0.00424 0.81169 0.0
H319 H 0.55451 0.76383 0.912 0.0
H320 H 0.51165 0.78139 0.18717 0.0
H321 H 0.50212 0.82687 0.13993 0.0
H322 H 0.5846 0.83239 0.87098 0.0
H323 H 0.57781 0.82946 0.74649 0.0
H324 H 0.58447 0.79973 0.80664 0.0
H325 H 0.53692 0.77676 0.75288 0.0
H326 H 0.52995 0.80651 0.69353 0.0
H327 H 0.50449 0.79349 0.78208 0.0
H328 H 0.4953 0.86919 0.06101 0.0
H329 H 0.49128 0.90612 0.95432 0.0
H330 H 0.53465 0.85959 0.72463 0.0
C331 C 0.54348 0.77749 0.96238 0.0
C332 C 0.53432 0.76949 0.05381 0.0
C333 C 0.51966 0.7876 0.11803 0.0
C334 C 0.51389 0.8133 0.09141 0.0
C335 C 0.52261 0.82034 0.99989 0.0
C336 C 0.53705 0.803 0.93617 0.0
C337 C 0.54224 0.81481 0.83999 0.0
C338 C 0.57418 0.81937 0.81456 0.0
C339 C 0.52752 0.79682 0.76257 0.0
C340 C 0.52825 0.84141 0.85951 0.0
C341 C 0.51734 0.84427 0.95252 0.0
C342 C 0.50372 0.86722 0.988 0.0
C343 C 0.50146 0.88799 0.92696 0.0
C344 C 0.51243 0.88543 0.83152 0.0
C345 C 0.52579 0.8618 0.79714 0.0
H346 H 0.68801 0.5298 0.94223 0.0
H347 H 0.68389 0.45784 0.10138 0.0
H348 H 0.63764 0.4431 0.03579 0.0
H349 H 0.61323 0.54173 0.97568 0.0
H350 H 0.61101 0.55376 0.85887 0.0
H351 H 0.64395 0.55807 0.91674 0.0
H352 H 0.66935 0.53309 0.77155 0.0
H353 H 0.6364 0.52851 0.71368 0.0
H354 H 0.65619 0.49957 0.73208 0.0
H355 H 0.59244 0.43619 0.95202 0.0
H356 H 0.54917 0.43895 0.86592 0.0
H357 H 0.58179 0.51641 0.76382 0.0
C358 C 0.67717 0.511 0.96285 0.0
C359 C 0.68912 0.49483 0.02652 0.0
C360 C 0.67468 0.4704 0.05299 0.0
C361 C 0.64861 0.46189 0.01576 0.0
C362 C 0.63731 0.47821 0.95267 0.0
C363 C 0.65093 0.5024 0.92713 0.0
C364 C 0.63366 0.51656 0.86065 0.0
C365 C 0.62494 0.54416 0.9057 0.0
C366 C 0.64987 0.5196 0.76374 0.0
C367 C 0.60825 0.49652 0.85268 0.0
C368 C 0.61092 0.47445 0.90571 0.0
C369 C 0.59009 0.45337 0.91026 0.0
C370 C 0.56559 0.45511 0.86075 0.0
C371 C 0.562 0.47789 0.80784 0.0
C372 C 0.58387 0.49866 0.80311 0.0
H373 H 0.01713 0.73542 0.96417 0.0
H374 H 0.93411 0.7559 0.88998 0.0
H375 H 0.92421 0.70873 0.826 0.0
H376 H 0.03182 0.69002 0.75965 0.0
H377 H 0.04949 0.66652 0.82437 0.0
H378 H 0.04994 0.70181 0.86438 0.0
H379 H 0.02861 0.68888 0.02995 0.0
H380 H 0.02815 0.65354 0.99046 0.0
H381 H 0.99595 0.66816 0.03838 0.0
H382 H 0.92338 0.65962 0.77132 0.0
H383 H 0.93141 0.6117 0.72758 0.0
H384 H 0.01534 0.62263 0.83752 0.0
C385 C 0.99688 0.72978 0.9347 0.0
C386 C 0.97634 0.7491 0.93123 0.0
C387 C 0.95011 0.7413 0.89192 0.0
C388 C 0.94433 0.71461 0.85598 0.0
C389 C 0.96503 0.696 0.8601 0.0
C390 C 0.9908 0.70319 0.89841 0.0
C391 C 0.00938 0.67923 0.89382 0.0
C392 C 0.03678 0.68473 0.83185 0.0
C393 C 0.0159 0.67203 0.99412 0.0
C394 C 0.99005 0.65747 0.84681 0.0
C395 C 0.96457 0.66761 0.82821 0.0
C396 C 0.94326 0.65145 0.7854 0.0
C397 C 0.94808 0.62419 0.76074 0.0
C398 C 0.97407 0.61326 0.7787 0.0
C399 C 0.99527 0.63027 0.82249 0.0
H400 H 0.06641 0.21325 0.52773 0.0
H401 H 0.99851 0.21658 0.33858 0.0
H402 H 0.98729 0.16727 0.34939 0.0
H403 H 0.08896 0.14655 0.44364 0.0
H404 H 0.09601 0.13716 0.5606 0.0
H405 H 0.0995 0.17225 0.53292 0.0
H406 H 0.06464 0.18407 0.67572 0.0
H407 H 0.06036 0.14902 0.70313 0.0
H408 H 0.02975 0.16732 0.68229 0.0
H409 H 0.98476 0.11739 0.37726 0.0
H410 H 0.98751 0.07134 0.43416 0.0
H411 H 0.05438 0.10146 0.61577 0.0
C412 C 0.04911 0.20345 0.48935 0.0
C413 C 0.03332 0.21834 0.43201 0.0
C414 C 0.01085 0.20519 0.3822 0.0
C415 C 0.00442 0.17732 0.38788 0.0
C416 C 0.02056 0.16304 0.44445 0.0
C417 C 0.04227 0.17569 0.49504 0.0
C418 C 0.05559 0.15594 0.5537 0.0
C419 C 0.08687 0.1528 0.52071 0.0
C420 C 0.05238 0.16459 0.66009 0.0
C421 C 0.03764 0.13032 0.52966 0.0
C422 C 0.01801 0.13469 0.46473 0.0
C423 C 0.99983 0.11378 0.42884 0.0
C424 C 0.00155 0.08778 0.46119 0.0
C425 C 0.02082 0.08321 0.52998 0.0
C426 C 0.03913 0.10466 0.56432 0.0
H427 H 0.35333 0.03812 0.39934 0.0
H428 H 0.33466 0.97092 0.19739 0.0
H429 H 0.38099 0.95244 0.22132 0.0
H430 H 0.43009 0.04576 0.33926 0.0
H431 H 0.43825 0.05354 0.46122 0.0
H432 H 0.4049 0.06241 0.42068 0.0
H433 H 0.37817 0.03528 0.55429 0.0
H434 H 0.41156 0.02655 0.59429 0.0
H435 H 0.3852 0.00021 0.56298 0.0
H436 H 0.42764 0.93972 0.27701 0.0
H437 H 0.46988 0.93269 0.36556 0.0
H438 H 0.45771 0.00856 0.52989 0.0
C439 C 0.35917 0.01953 0.36053 0.0
C440 C 0.34076 0.0058 0.29669 0.0
C441 C 0.34881 0.98162 0.24623 0.0
C442 C 0.37501 0.97112 0.25914 0.0
C443 C 0.39284 0.98517 0.3226 0.0
C444 C 0.38523 0.00883 0.37264 0.0
C445 C 0.40741 0.01916 0.44075 0.0
C446 C 0.42095 0.04685 0.41381 0.0
C447 C 0.39483 0.02035 0.54415 0.0
C448 C 0.42829 0.99724 0.42305 0.0
C449 C 0.41976 0.97797 0.35389 0.0
C450 C 0.43477 0.95487 0.33035 0.0
C451 C 0.4587 0.95104 0.38074 0.0
C452 C 0.46717 0.9702 0.45365 0.0
C453 C 0.45212 0.99384 0.47309 0.0
H454 H 0.53247 0.30826 0.39023 0.0
H455 H 0.4451 0.29525 0.31687 0.0
H456 H 0.43564 0.342 0.37889 0.0
H457 H 0.51833 0.35129 0.60936 0.0
H458 H 0.55002 0.37281 0.58998 0.0
H459 H 0.54919 0.33775 0.54662 0.0
H460 H 0.56373 0.35227 0.37571 0.0
H461 H 0.56493 0.38714 0.4208 0.0
H462 H 0.54322 0.37631 0.32386 0.0
H463 H 0.43591 0.38946 0.44647 0.0
H464 H 0.44571 0.43602 0.51429 0.0
H465 H 0.53398 0.41975 0.53522 0.0
C466 C 0.51128 0.31526 0.38956 0.0
C467 C 0.48928 0.29845 0.3504 0.0
C468 C 0.46192 0.30807 0.34775 0.0
C469 C 0.45648 0.33444 0.38252 0.0
C470 C 0.47873 0.35078 0.41926 0.0
C471 C 0.5056 0.34165 0.42318 0.0
C472 C 0.52593 0.36374 0.46319 0.0
C473 C 0.53648 0.35593 0.55791 0.0
C474 C 0.5509 0.37022 0.39155 0.0
C475 C 0.50647 0.38695 0.47841 0.0
C476 C 0.47924 0.3788 0.45406 0.0
C477 C 0.45714 0.39616 0.46528 0.0
C478 C 0.46292 0.4225 0.50357 0.0
C479 C 0.49065 0.43132 0.52818 0.0
C480 C 0.51278 0.41349 0.51475 0.0
H481 H 0.17292 0.5555 0.41511 0.0
H482 H 0.17364 0.4704 0.32597 0.0
H483 H 0.1221 0.46458 0.3696 0.0
H484 H 0.12398 0.54414 0.62438 0.0
H485 H 0.10711 0.57544 0.61646 0.0
H486 H 0.14374 0.57284 0.57563 0.0
H487 H 0.13225 0.58785 0.41037 0.0
H488 H 0.09557 0.59028 0.45047 0.0
H489 H 0.10494 0.56913 0.34585 0.0
H490 H 0.07023 0.46956 0.40623 0.0
H491 H 0.02215 0.48258 0.46197 0.0
H492 H 0.05622 0.56288 0.55083 0.0
C493 C 0.16195 0.53578 0.40484 0.0
C494 C 0.1764 0.51355 0.36374 0.0
C495 C 0.16222 0.48768 0.35443 0.0
C496 C 0.13319 0.48424 0.37932 0.0
C497 C 0.11917 0.50674 0.41716 0.0
C498 C 0.13319 0.53182 0.43284 0.0
C499 C 0.11343 0.55221 0.48019 0.0
C500 C 0.12262 0.56171 0.58007 0.0
C501 C 0.11143 0.57628 0.41798 0.0
C502 C 0.08591 0.53493 0.48537 0.0
C503 C 0.08968 0.50886 0.4475 0.0
C504 C 0.06707 0.4897 0.43801 0.0
C505 C 0.0399 0.49731 0.46919 0.0
C506 C 0.03581 0.52357 0.51133 0.0
C507 C 0.05906 0.54256 0.51998 0.0
H508 H 0.02871 0.85066 0.90109 0.0
H509 H 0.94152 0.85468 0.00956 0.0
H510 H 0.94381 0.90406 0.98736 0.0
H511 H 0.05631 0.91357 0.99366 0.0
H512 H 0.07819 0.92194 0.8893 0.0
H513 H 0.06969 0.887 0.91293 0.0
H514 H 0.04882 0.87819 0.74744 0.0
H515 H 0.05772 0.91304 0.72298 0.0
H516 H 0.02178 0.89923 0.71439 0.0
H517 H 0.95812 0.9534 0.97409 0.0
H518 H 0.97989 0.99863 0.94049 0.0
H519 H 0.05519 0.96186 0.81407 0.0
C520 C 0.01017 0.8621 0.91913 0.0
C521 C 0.98525 0.84953 0.96032 0.0
C522 C 0.96098 0.86451 0.98099 0.0
C523 C 0.9621 0.89237 0.96815 0.0
C524 C 0.98734 0.90452 0.93054 0.0
C525 C 0.01062 0.88974 0.90311 0.0
C526 C 0.03468 0.9076 0.8604 0.0
C527 C 0.06129 0.90752 0.91751 0.0
C528 C 0.04112 0.89899 0.75505 0.0
C529 C 0.02168 0.93489 0.87153 0.0
C530 C 0.99448 0.93266 0.91339 0.0
C531 C 0.97907 0.95532 0.93893 0.0
C532 C 0.99164 0.9809 0.91989 0.0
C533 C 0.01889 0.98351 0.87288 0.0
C534 C 0.03407 0.96023 0.84824 0.0
H535 H 0.70426 0.01692 0.9363 0.0
H536 H 0.69303 0.93625 0.03832 0.0
H537 H 0.64244 0.93399 0.00104 0.0
H538 H 0.63578 0.04068 0.01923 0.0
H539 H 0.63222 0.0589 0.91504 0.0
H540 H 0.66696 0.05386 0.9536 0.0
H541 H 0.6805 0.03192 0.7854 0.0
H542 H 0.64551 0.03683 0.74902 0.0
H543 H 0.65892 0.00345 0.73874 0.0
H544 H 0.59396 0.94006 0.94882 0.0
H545 H 0.55121 0.95283 0.8754 0.0
H546 H 0.59336 0.03004 0.80951 0.0
C547 C 0.69113 0.99868 0.949 0.0
C548 C 0.70227 0.9766 0.98917 0.0
C549 C 0.68462 0.95319 0.00693 0.0
C550 C 0.65597 0.95185 0.98662 0.0
C551 C 0.64543 0.97415 0.94848 0.0
C552 C 0.66249 0.99704 0.92893 0.0
C553 C 0.64607 0.01775 0.88457 0.0
C554 C 0.64523 0.04435 0.94691 0.0
C555 C 0.65848 0.02277 0.78344 0.0
C556 C 0.61707 0.00301 0.88296 0.0
C557 C 0.6172 0.9779 0.92023 0.0
C558 C 0.59348 0.9598 0.92057 0.0
C559 C 0.56925 0.96722 0.87904 0.0
C560 C 0.56883 0.99258 0.83906 0.0
C561 C 0.59284 0.01091 0.84282 0.0
H562 H 0.54708 0.6595 0.95877 0.0
H563 H 0.47884 0.67702 0.16739 0.0
H564 H 0.4553 0.63169 0.12943 0.0
H565 H 0.5058 0.62489 0.78682 0.0
H566 H 0.53065 0.59946 0.75042 0.0
H567 H 0.54324 0.63235 0.7975 0.0
H568 H 0.5686 0.61094 0.92973 0.0
H569 H 0.55743 0.57807 0.8783 0.0
H570 H 0.54895 0.58671 0.00211 0.0
H571 H 0.43854 0.58527 0.06243 0.0
H572 H 0.43098 0.54021 0.97768 0.0
H573 H 0.51108 0.55332 0.81559 0.0
C574 C 0.52728 0.65349 0.99639 0.0
C575 C 0.51447 0.67129 0.06541 0.0
C576 C 0.48866 0.66328 0.11424 0.0
C577 C 0.47529 0.63772 0.09315 0.0
C578 C 0.48829 0.62057 0.02368 0.0
C579 C 0.51391 0.62798 0.97692 0.0
C580 C 0.52329 0.60601 0.90458 0.0
C581 C 0.52588 0.61629 0.80383 0.0
C582 C 0.55122 0.59479 0.9303 0.0
C583 C 0.49869 0.58529 0.91653 0.0
C584 C 0.47874 0.59396 0.98565 0.0
C585 C 0.45408 0.5782 0.00846 0.0
C586 C 0.44991 0.55274 0.95993 0.0
C587 C 0.47034 0.54346 0.8899 0.0
C588 C 0.49493 0.56002 0.8681 0.0
H589 H 0.79567 0.53796 0.95384 0.0
H590 H 0.79748 0.47223 0.14021 0.0
H591 H 0.84966 0.47202 0.11221 0.0
H592 H 0.84862 0.51304 0.78217 0.0
H593 H 0.86434 0.54609 0.75664 0.0
H594 H 0.82732 0.54207 0.79421 0.0
H595 H 0.83451 0.57767 0.9341 0.0
H596 H 0.87155 0.58224 0.89729 0.0
H597 H 0.86112 0.57333 0.01675 0.0
H598 H 0.9017 0.48064 0.06983 0.0
H599 H 0.94954 0.49297 0.99746 0.0
H600 H 0.9133 0.55059 0.82922 0.0
C601 C 0.80718 0.52342 0.98767 0.0
C602 C 0.79293 0.50532 0.04992 0.0
C603 C 0.80835 0.48644 0.09329 0.0
C604 C 0.83786 0.48622 0.07787 0.0
C605 C 0.85147 0.50482 0.01792 0.0
C606 C 0.83662 0.52276 0.97221 0.0
C607 C 0.85623 0.53987 0.90831 0.0
C608 C 0.84869 0.53499 0.80409 0.0
C609 C 0.85582 0.57007 0.94112 0.0
C610 C 0.8844 0.52864 0.92481 0.0
C611 C 0.88127 0.50883 0.98982 0.0
C612 C 0.90442 0.49598 0.01834 0.0
C613 C 0.93142 0.50316 0.97757 0.0
C614 C 0.93475 0.52263 0.90847 0.0
C615 C 0.91108 0.53562 0.88214 0.0
H616 H 0.07909 0.21463 0.28972 0.0
H617 H 0.01743 0.26496 0.18756 0.0
H618 H 0.0135 0.23433 0.04357 0.0
H619 H 0.11232 0.19041 0.05596 0.0
H620 H 0.11458 0.15658 0.09354 0.0
H621 H 0.11676 0.18515 0.17913 0.0
H622 H 0.07472 0.16357 0.28155 0.0
H623 H 0.07296 0.13493 0.19654 0.0
H624 H 0.04194 0.15369 0.22698 0.0
H625 H 0.0111 0.19549 0.92339 0.0
H626 H 0.01084 0.15119 0.83298 0.0
H627 H 0.07268 0.12437 0.01457 0.0
C628 C 0.06551 0.21955 0.23522 0.0
C629 C 0.04924 0.24259 0.24804 0.0
C630 C 0.03094 0.24807 0.17715 0.0
C631 C 0.02834 0.23059 0.09572 0.0
C632 C 0.04397 0.20755 0.08676 0.0
C633 C 0.06224 0.20196 0.15449 0.0
C634 C 0.07399 0.17428 0.13339 0.0
C635 C 0.10634 0.17677 0.11434 0.0
C636 C 0.06539 0.15552 0.21443 0.0
C637 C 0.05918 0.16504 0.04383 0.0
C638 C 0.04214 0.18467 0.01793 0.0
C639 C 0.02482 0.18021 0.94168 0.0
C640 C 0.02487 0.15502 0.89057 0.0
C641 C 0.04222 0.13468 0.91543 0.0
C642 C 0.05966 0.13981 0.99287 0.0
H643 H 0.35791 0.04688 0.16623 0.0
H644 H 0.2948 0.99264 0.03363 0.0
H645 H 0.32935 0.98244 0.89846 0.0
H646 H 0.39535 0.0718 0.94602 0.0
H647 H 0.42956 0.07175 0.99528 0.0
H648 H 0.3985 0.07794 0.07226 0.0
H649 H 0.40952 0.03838 0.17314 0.0
H650 H 0.44054 0.03214 0.09641 0.0
H651 H 0.41378 0.00522 0.11564 0.0
H652 H 0.37255 0.97326 0.79147 0.0
H653 H 0.42037 0.96804 0.71337 0.0
H654 H 0.45583 0.02843 0.91532 0.0
C655 C 0.35124 0.03354 0.10698 0.0
C656 C 0.32374 0.02073 0.10899 0.0
C657 C 0.31563 0.00299 0.03178 0.0
C658 C 0.33519 0.99697 0.95547 0.0
C659 C 0.36263 0.00902 0.95771 0.0
C660 C 0.37057 0.0272 0.03099 0.0
C661 C 0.40194 0.03554 0.02102 0.0
C662 C 0.4066 0.06607 0.00782 0.0
C663 C 0.41734 0.02732 0.10661 0.0
C664 C 0.41059 0.01896 0.9311 0.0
C665 C 0.38757 0.00378 0.89585 0.0
C666 C 0.39059 0.98537 0.81751 0.0
C667 C 0.41777 0.98241 0.77407 0.0
C668 C 0.44148 0.99794 0.80846 0.0
C669 C 0.43785 0.01665 0.88722 0.0
H670 H 0.51552 0.31446 0.18519 0.0
H671 H 0.45141 0.2549 0.08663 0.0
H672 H 0.43601 0.28759 0.97686 0.0
H673 H 0.4688 0.36881 0.20026 0.0
H674 H 0.49695 0.39368 0.17129 0.0
H675 H 0.50449 0.36395 0.22952 0.0
H676 H 0.54262 0.35284 0.09444 0.0
H677 H 0.53453 0.38222 0.035 0.0
H678 H 0.53251 0.34923 0.97307 0.0
H679 H 0.42791 0.32819 0.87903 0.0
H680 H 0.42568 0.37308 0.81157 0.0
H681 H 0.48995 0.40671 0.99802 0.0
C682 C 0.49821 0.30832 0.14061 0.0
C683 C 0.48458 0.28229 0.14406 0.0
C684 C 0.46234 0.27471 0.08359 0.0
C685 C 0.45337 0.29319 0.02188 0.0
C686 C 0.46656 0.3192 0.02343 0.0
C687 C 0.48829 0.32676 0.08235 0.0
C688 C 0.49728 0.35643 0.07849 0.0
C689 C 0.49152 0.37164 0.17562 0.0
C690 C 0.52859 0.3604 0.04309 0.0
C691 C 0.47766 0.36445 0.00662 0.0
C692 C 0.46029 0.34274 0.9744 0.0
C693 C 0.44118 0.34536 0.90469 0.0
C694 C 0.43998 0.37082 0.86704 0.0
C695 C 0.45724 0.39323 0.9013 0.0
C696 C 0.47607 0.38997 0.97225 0.0
H697 H 0.17702 0.48793 0.16954 0.0
H698 H 0.21957 0.56728 0.14811 0.0
H699 H 0.18779 0.57698 0.02246 0.0
H700 H 0.15872 0.47458 0.92379 0.0
H701 H 0.12424 0.45924 0.95665 0.0
H702 H 0.15317 0.4573 0.03246 0.0
H703 H 0.12298 0.4785 0.17315 0.0
H704 H 0.09399 0.48132 0.09886 0.0
H705 H 0.10863 0.51099 0.16352 0.0
H706 H 0.14883 0.57852 0.90571 0.0
H707 H 0.10476 0.57347 0.81864 0.0
H708 H 0.08489 0.49502 0.93329 0.0
C709 C 0.17942 0.50743 0.13919 0.0
C710 C 0.20032 0.52708 0.16929 0.0
C711 C 0.20368 0.55198 0.1252 0.0
C712 C 0.1857 0.55762 0.05424 0.0
C713 C 0.16443 0.53813 0.02894 0.0
C714 C 0.16118 0.51358 0.07075 0.0
C715 C 0.13514 0.49707 0.0387 0.0
C716 C 0.14332 0.47048 0.98467 0.0
C717 C 0.11393 0.49168 0.12359 0.0
C718 C 0.12392 0.51623 0.97291 0.0
C719 C 0.14138 0.53958 0.96647 0.0
C720 C 0.13508 0.5603 0.91028 0.0
C721 C 0.11006 0.55726 0.86097 0.0
C722 C 0.09147 0.53392 0.86973 0.0
C723 C 0.09875 0.51308 0.92546 0.0
H724 H 0.95777 0.85004 0.16129 0.0
H725 H 0.03826 0.81326 0.15998 0.0
H726 H 0.05144 0.84395 0.29842 0.0
H727 H 0.98682 0.91727 0.19943 0.0
H728 H 0.95679 0.92908 0.27183 0.0
H729 H 0.95186 0.90176 0.18307 0.0
H730 H 0.92811 0.87096 0.30951 0.0
H731 H 0.93249 0.89813 0.3996 0.0
H732 H 0.94642 0.86572 0.41429 0.0
H733 H 0.05621 0.88013 0.43263 0.0
H734 H 0.05461 0.92133 0.54114 0.0
H735 H 0.97297 0.93755 0.44127 0.0
C736 C 0.97834 0.84882 0.189 0.0
C737 C 0.99729 0.82975 0.1493 0.0
C738 C 0.02354 0.82781 0.19011 0.0
C739 C 0.03112 0.84512 0.26839 0.0
C740 C 0.01222 0.86434 0.30417 0.0
C741 C 0.98648 0.86643 0.26506 0.0
C742 C 0.97103 0.89024 0.31073 0.0
C743 C 0.96638 0.91081 0.23689 0.0
C744 C 0.94284 0.88068 0.36156 0.0
C745 C 0.99221 0.90148 0.38123 0.0
C746 C 0.01556 0.88591 0.3778 0.0
C747 C 0.03803 0.89243 0.43592 0.0
C748 C 0.03689 0.91579 0.49754 0.0
C749 C 0.01367 0.93252 0.49934 0.0
C750 C 0.99092 0.92504 0.44135 0.0
H751 H 0.69364 0.00915 0.16382 0.0
H752 H 0.73255 0.93655 0.2302 0.0
H753 H 0.69272 0.92655 0.34813 0.0
H754 H 0.66213 0.02793 0.39883 0.0
H755 H 0.63017 0.0384 0.35278 0.0
H756 H 0.66318 0.04093 0.28226 0.0
H757 H 0.64045 0.01149 0.14455 0.0
H758 H 0.60735 0.00952 0.21473 0.0
H759 H 0.62333 0.97895 0.16809 0.0
H760 H 0.64691 0.92342 0.45134 0.0
H761 H 0.60012 0.92815 0.53656 0.0
H762 H 0.59024 0.00179 0.39423 0.0
C763 C 0.69393 0.99148 0.20487 0.0
C764 C 0.71622 0.9738 0.18984 0.0
C765 C 0.71592 0.9506 0.24307 0.0
C766 C 0.69327 0.94467 0.3091 0.0
C767 C 0.67107 0.96209 0.32003 0.0
C768 C 0.6713 0.98507 0.26947 0.0
C769 C 0.64418 -0.00041 0.28951 0.0
C770 C 0.65029 0.02842 0.3335 0.0
C771 C 0.62784 -0.0001 0.19886 0.0
C772 C 0.62874 0.98146 0.3605 0.0
C773 C 0.64452 0.95988 0.37696 0.0
C774 C 0.63444 0.9403 0.4392 0.0
C775 C 0.60776 0.94312 0.48701 0.0
C776 C 0.59142 0.96534 0.47227 0.0
C777 C 0.60209 0.98455 0.40727 0.0
H778 H 0.56019 0.65827 0.17614 0.0
H779 H 0.51273 0.71905 0.33936 0.0
H780 H 0.50401 0.68844 0.47059 0.0
H781 H 0.51275 0.60514 0.22942 0.0
H782 H 0.53871 0.58019 0.2333 0.0
H783 H 0.54621 0.60887 0.16211 0.0
H784 H 0.59202 0.62156 0.25039 0.0
H785 H 0.58463 0.59288 0.32213 0.0
H786 H 0.58987 0.62641 0.37822 0.0
H787 H 0.49405 0.6492 0.57115 0.0
H788 H 0.48534 0.60449 0.6386 0.0
H789 H 0.53831 0.56835 0.40868 0.0
C790 C 0.5488 0.6653 0.24106 0.0
C791 C 0.53766 0.6911 0.24921 0.0
C792 C 0.52222 0.69966 0.33361 0.0
C793 C 0.51696 0.68231 0.4079 0.0
C794 C 0.52727 0.65651 0.39615 0.0
C795 C 0.54306 0.64806 0.31513 0.0
C796 C 0.54879 0.61836 0.3152 0.0
C797 C 0.53583 0.60218 0.23001 0.0
C798 C 0.58073 0.61459 0.31661 0.0
C799 C 0.53331 0.61127 0.40812 0.0
C800 C 0.52119 0.63362 0.45393 0.0
C801 C 0.50397 0.63169 0.53717 0.0
C802 C 0.49912 0.60626 0.57483 0.0
C803 C 0.51159 0.58324 0.52961 0.0
C804 C 0.52897 0.5858 0.44548 0.0
H805 H 0.79418 0.54661 0.1976 0.0
H806 H 0.74438 0.4789 0.31348 0.0
H807 H 0.77606 0.47967 0.44645 0.0
H808 H 0.8597 0.52168 0.23579 0.0
H809 H 0.87709 0.55448 0.26115 0.0
H810 H 0.84749 0.55124 0.18658 0.0
H811 H 0.82218 0.58701 0.29972 0.0
H812 H 0.85171 0.58958 0.37498 0.0
H813 H 0.81644 0.58124 0.42439 0.0
H814 H 0.81644 0.48393 0.55386 0.0
H815 H 0.8624 0.49128 0.62807 0.0
H816 H 0.88751 0.55484 0.43765 0.0
C817 C 0.78962 0.53248 0.25262 0.0
C818 C 0.76662 0.51301 0.2467 0.0
C819 C 0.76142 0.49444 0.31856 0.0
C820 C 0.77945 0.49461 0.39369 0.0
C821 C 0.80266 0.51339 0.39539 0.0
C822 C 0.80778 0.53202 0.32672 0.0
C823 C 0.83582 0.54801 0.33856 0.0
C824 C 0.8562 0.54358 0.25027 0.0
C825 C 0.83125 0.57826 0.36077 0.0
C826 C 0.84594 0.53513 0.42366 0.0
C827 C 0.82634 0.51543 0.45603 0.0
C828 C 0.8317 0.49964 0.53027 0.0
C829 C 0.8578 0.50399 0.57214 0.0
C830 C 0.87819 0.52391 0.53961 0.0
C831 C 0.87208 0.53975 0.46482 0.0
loop_
_geom_bond_atom_site_label_1
_geom_bond_atom_site_label_2
_geom_bond_distance
_geom_bond_site_symmetry_2
_ccdc_geom_bond_type
C0 N1 1.317 . S
C0 N2 1.348 . S
C0 C3 1.485 . S
N1 C0 1.317 . S
N1 N5 1.370 . S
N2 C0 1.348 . S
N2 C4 1.346 1_554 S
C3 C0 1.485 . S
C3 H7 0.960 . S
C3 H8 0.961 . S
C3 H9 0.960 . S
C4 N2 1.346 1_556 S
C4 N5 1.307 1_556 S
C4 C6 1.486 . S
N5 N1 1.370 . S
N5 C4 1.307 1_554 S
C6 C4 1.486 . S
C6 H10 0.960 . S
C6 H11 0.960 . S
C6 H12 0.959 . S
H7 C3 0.960 . S
H8 C3 0.961 . S
H9 C3 0.960 . S
H10 C6 0.960 . S
H11 C6 0.960 . S
H12 C6 0.959 . S
C13 N14 1.317 . S
C13 N15 1.348 1_554 S
C13 C16 1.485 . S
N14 C13 1.317 . S
N14 N18 1.370 1_554 S
N15 C13 1.348 1_556 S
N15 C17 1.346 . S
C16 C13 1.485 . S
C16 H20 0.960 . S
C16 H21 0.961 . S
C16 H22 0.960 . S
C17 N15 1.346 . S
C17 N18 1.307 . S
C17 C19 1.486 . S
N18 N14 1.370 1_556 S
N18 C17 1.307 . S
C19 C17 1.486 . S
C19 H23 0.960 . S
C19 H24 0.960 . S
C19 H25 0.959 . S
H20 C16 0.960 . S
H21 C16 0.961 . S
H22 C16 0.960 . S
H23 C19 0.960 . S
H24 C19 0.960 . S
H25 C19 0.959 . S
C26 N27 1.317 . S
C26 N28 1.348 . S
C26 C29 1.485 . S
N27 C26 1.317 . S
N27 N31 1.370 . S
N28 C26 1.348 . S
N28 C30 1.346 1_554 S
C29 C26 1.485 . S
C29 H33 0.960 . S
C29 H34 0.961 . S
C29 H35 0.960 . S
C30 N28 1.346 1_556 S
C30 N31 1.307 1_556 S
C30 C32 1.486 . S
N31 N27 1.370 . S
N31 C30 1.307 1_554 S
C32 C30 1.486 . S
C32 H36 0.960 . S
C32 H37 0.960 . S
C32 H38 0.959 . S
H33 C29 0.960 . S
H34 C29 0.961 . S
H35 C29 0.960 . S
H36 C32 0.960 . S
H37 C32 0.960 . S
H38 C32 0.959 . S
C39 N40 1.317 . S
C39 N41 1.348 . S
C39 C42 1.485 . S
N40 C39 1.317 . S
N40 N44 1.370 . S
N41 C39 1.348 . S
N41 C43 1.346 1_554 S
C42 C39 1.485 . S
C42 H46 0.960 . S
C42 H47 0.961 . S
C42 H48 0.960 . S
C43 N41 1.346 1_556 S
C43 N44 1.307 1_556 S
C43 C45 1.486 . S
N44 N40 1.370 . S
N44 C43 1.307 1_554 S
C45 C43 1.486 . S
C45 H49 0.960 . S
C45 H50 0.960 . S
C45 H51 0.959 . S
H46 C42 0.960 . S
H47 C42 0.961 . S
H48 C42 0.960 . S
H49 C45 0.960 . S
H50 C45 0.960 . S
H51 C45 0.959 . S
C52 N53 1.317 . S
C52 N54 1.348 . S
C52 C55 1.485 . S
N53 C52 1.317 . S
N53 N57 1.370 . S
N54 C52 1.348 . S
N54 C56 1.346 . S
C55 C52 1.485 . S
C55 H59 0.960 . S
C55 H60 0.961 . S
C55 H61 0.960 . S
C56 N54 1.346 . S
C56 N57 1.307 . S
C56 C58 1.486 . S
N57 N53 1.370 . S
N57 C56 1.307 . S
C58 C56 1.486 . S
C58 H62 0.960 . S
C58 H63 0.960 . S
C58 H64 0.959 . S
H59 C55 0.960 . S
H60 C55 0.961 . S
H61 C55 0.960 . S
H62 C58 0.960 . S
H63 C58 0.960 . S
H64 C58 0.959 . S
C65 N66 1.317 . S
C65 N67 1.348 . S
C65 C68 1.485 . S
N66 C65 1.317 . S
N66 N70 1.370 . S
N67 C65 1.348 . S
N67 C69 1.346 . S
C68 C65 1.485 . S
C68 H72 0.960 . S
C68 H73 0.961 . S
C68 H74 0.960 . S
C69 N67 1.346 . S
C69 N70 1.307 . S
C69 C71 1.486 . S
N70 N66 1.370 . S
N70 C69 1.307 . S
C71 C69 1.486 . S
C71 H75 0.960 . S
C71 H76 0.960 . S
C71 H77 0.959 . S
H72 C68 0.960 . S
H73 C68 0.961 . S
H74 C68 0.960 . S
H75 C71 0.960 . S
H76 C71 0.960 . S
H77 C71 0.959 . S
C78 N79 1.317 . S
C78 N80 1.348 . S
C78 C81 1.485 . S
N79 C78 1.317 . S
N79 N83 1.370 . S
N80 C78 1.348 . S
N80 C82 1.346 . S
C81 C78 1.485 . S
C81 H85 0.960 . S
C81 H86 0.961 . S
C81 H87 0.960 . S
C82 N80 1.346 . S
C82 N83 1.307 . S
C82 C84 1.486 . S
N83 N79 1.370 . S
N83 C82 1.307 . S
C84 C82 1.486 . S
C84 H88 0.960 . S
C84 H89 0.960 . S
C84 H90 0.959 . S
H85 C81 0.960 . S
H86 C81 0.961 . S
H87 C81 0.960 . S
H88 C84 0.960 . S
H89 C84 0.960 . S
H90 C84 0.959 . S
C91 N92 1.317 . S
C91 N93 1.348 . S
C91 C94 1.485 . S
N92 C91 1.317 . S
N92 N96 1.370 . S
N93 C91 1.348 . S
N93 C95 1.346 . S
C94 C91 1.485 . S
C94 H98 0.960 . S
C94 H99 0.961 . S
C94 H100 0.960 . S
C95 N93 1.346 . S
C95 N96 1.307 . S
C95 C97 1.486 . S
N96 N92 1.370 . S
N96 C95 1.307 . S
C97 C95 1.486 . S
C97 H101 0.960 . S
C97 H102 0.960 . S
C97 H103 0.959 . S
H98 C94 0.960 . S
H99 C94 0.961 . S
H100 C94 0.960 . S
H101 C97 0.960 . S
H102 C97 0.960 . S
H103 C97 0.959 . S
Tb104 O107 2.423 1_565 S
Tb104 O108 2.575 1_665 S
Tb104 O109 2.374 1_665 S
Tb104 O117 2.358 1_655 S
Tb104 O119 2.349 1_565 S
Tb104 O121 2.451 . S
Tb104 O122 2.539 1_655 S
C105 O109 1.251 . S
C105 O111 1.263 . S
Tb106 O108 2.343 . S
Tb106 O111 2.353 . S
Tb106 O114 2.427 . S
Tb106 O115 2.512 . S
Tb106 O116 2.453 1_545 S
Tb106 O117 2.596 1_545 S
Tb106 O118 2.374 1_455 S
O107 Tb104 2.423 1_545 S
O107 C123 1.245 1_655 S
O108 Tb104 2.575 1_445 S
O108 Tb106 2.343 . S
O108 C123 1.259 . S
O109 Tb104 2.374 1_445 S
O109 C105 1.251 . S
C110 O114 1.275 . S
C110 O115 1.245 . S
O111 C105 1.263 . S
O111 Tb106 2.353 . S
C112 O116 1.245 . S
C112 O117 1.259 . S
C113 O118 1.250 . S
C113 O119 1.263 . S
O114 Tb106 2.427 . S
O114 C110 1.275 . S
O115 Tb106 2.512 . S
O115 C110 1.245 . S
O116 Tb106 2.453 1_565 S
O116 C112 1.245 . S
O117 Tb104 2.358 1_455 S
O117 Tb106 2.596 1_565 S
O117 C112 1.259 . S
O118 Tb106 2.374 1_655 S
O118 C113 1.250 . S
O119 Tb104 2.349 1_545 S
O119 C113 1.263 . S
C120 O121 1.275 . S
C120 O122 1.246 1_655 S
O121 Tb104 2.451 . S
O121 C120 1.275 . S
O122 Tb104 2.539 1_455 S
O122 C120 1.246 1_455 S
C123 O107 1.245 1_455 S
C123 O108 1.259 . S
Tb124 O127 2.453 . S
Tb124 O128 2.561 1_545 S
Tb124 O129 2.374 . S
Tb124 O137 2.343 . S
Tb124 O139 2.353 . S
Tb124 O141 2.427 . S
Tb124 O142 2.513 . S
C125 O129 1.265 . S
C125 O131 1.251 1_545 S
Tb126 O128 2.363 . S
Tb126 O131 2.353 . S
Tb126 O134 2.427 . S
Tb126 O135 2.513 . S
Tb126 O136 2.453 . S
Tb126 O137 2.596 1_565 S
Tb126 O138 2.374 . S
O127 Tb124 2.453 . S
O127 C143 1.245 . S
O128 Tb124 2.561 1_565 S
O128 Tb126 2.363 . S
O128 C143 1.249 1_565 S
O129 Tb124 2.374 . S
O129 C125 1.265 . S
C130 O134 1.275 . S
C130 O135 1.246 . S
O131 C125 1.251 1_565 S
O131 Tb126 2.353 . S
C132 O136 1.245 1_545 S
C132 O137 1.259 . S
C133 O138 1.250 1_545 S
C133 O139 1.263 . S
O134 Tb126 2.427 . S
O134 C130 1.275 . S
O135 Tb126 2.513 . S
O135 C130 1.246 . S
O136 Tb126 2.453 . S
O136 C132 1.245 1_565 S
O137 Tb124 2.343 . S
O137 Tb126 2.596 1_545 S
O137 C132 1.259 . S
O138 Tb126 2.374 . S
O138 C133 1.250 1_565 S
O139 Tb124 2.353 . S
O139 C133 1.263 . S
C140 O141 1.275 . S
C140 O142 1.246 . S
O141 Tb124 2.427 . S
O141 C140 1.275 . S
O142 Tb124 2.513 . S
O142 C140 1.246 . S
C143 O127 1.245 . S
C143 O128 1.249 1_545 S
Tb144 O147 2.453 . S
Tb144 O148 2.596 . S
Tb144 O149 2.374 . S
Tb144 O157 2.343 . S
Tb144 O159 2.353 . S
Tb144 O161 2.427 . S
Tb144 O162 2.513 . S
C145 O149 1.251 . S
C145 O151 1.263 . S
Tb146 O148 2.343 . S
Tb146 O151 2.353 . S
Tb146 O154 2.427 . S
Tb146 O155 2.513 . S
Tb146 O156 2.453 . S
Tb146 O157 2.596 . S
Tb146 O158 2.374 . S
O147 Tb144 2.453 . S
O147 C163 1.245 . S
O148 Tb144 2.596 . S
O148 Tb146 2.343 . S
O148 C163 1.259 . S
O149 Tb144 2.374 . S
O149 C145 1.251 . S
C150 O154 1.275 . S
C150 O155 1.246 . S
O151 C145 1.263 . S
O151 Tb146 2.353 . S
C152 O156 1.245 . S
C152 O157 1.259 . S
C153 O158 1.250 . S
C153 O159 1.263 . S
O154 Tb146 2.427 . S
O154 C150 1.275 . S
O155 Tb146 2.513 . S
O155 C150 1.246 . S
O156 Tb146 2.453 . S
O156 C152 1.245 . S
O157 Tb144 2.343 . S
O157 Tb146 2.596 . S
O157 C152 1.259 . S
O158 Tb146 2.374 . S
O158 C153 1.250 . S
O159 Tb144 2.353 . S
O159 C153 1.263 . S
C160 O161 1.275 . S
C160 O162 1.246 . S
O161 Tb144 2.427 . S
O161 C160 1.275 . S
O162 Tb144 2.513 . S
O162 C160 1.246 . S
C163 O147 1.245 . S
C163 O148 1.259 . S
Tb164 O167 2.453 1_655 S
Tb164 O168 2.596 1_655 S
Tb164 O169 2.374 1_655 S
Tb164 O177 2.343 . S
Tb164 O179 2.353 1_655 S
Tb164 O181 2.427 . S
Tb164 O182 2.513 . S
C165 O169 1.251 . S
C165 O171 1.263 . S
Tb166 O168 2.343 . S
Tb166 O171 2.353 . S
Tb166 O174 2.427 . S
Tb166 O175 2.513 . S
Tb166 O176 2.453 1_455 S
Tb166 O177 2.596 1_455 S
Tb166 O178 2.374 . S
O167 Tb164 2.453 1_455 S
O167 C183 1.245 . S
O168 Tb164 2.596 1_455 S
O168 Tb166 2.343 . S
O168 C183 1.259 . S
O169 Tb164 2.374 1_455 S
O169 C165 1.251 . S
C170 O174 1.275 . S
C170 O175 1.246 . S
O171 C165 1.263 . S
O171 Tb166 2.353 . S
C172 O176 1.245 . S
C172 O177 1.259 . S
C173 O178 1.250 . S
C173 O179 1.263 . S
O174 Tb166 2.427 . S
O174 C170 1.275 . S
O175 Tb166 2.513 . S
O175 C170 1.246 . S
O176 Tb166 2.453 1_655 S
O176 C172 1.245 . S
O177 Tb164 2.343 . S
O177 Tb166 2.596 1_655 S
O177 C172 1.259 . S
O178 Tb166 2.374 . S
O178 C173 1.250 . S
O179 Tb164 2.353 1_455 S
O179 C173 1.263 . S
C180 O181 1.275 . S
C180 O182 1.246 . S
O181 Tb164 2.427 . S
O181 C180 1.275 . S
O182 Tb164 2.513 . S
O182 C180 1.246 . S
C183 O167 1.245 . S
C183 O168 1.259 . S
H184 C196 0.930 . S
H185 C198 0.930 . S
H186 C199 0.930 . S
H187 C203 0.959 . S
H188 C203 0.959 . S
H189 C203 0.961 . S
H190 C204 0.960 . S
H191 C204 0.961 . S
H192 C204 0.959 . S
H193 C207 0.929 . S
H194 C208 0.931 . S
H195 C210 0.930 . S
C196 H184 0.930 . S
C196 C197 1.399 . S
C196 C201 1.399 . S
C197 C196 1.399 . S
C197 C198 1.376 . S
C198 H185 0.930 . S
C198 C197 1.376 . S
C198 C199 1.388 . S
C199 H186 0.930 . S
C199 C198 1.388 . S
C199 C200 1.390 . S
C200 C199 1.390 . S
C200 C201 1.394 . S
C200 C206 1.465 . S
C201 C196 1.399 . S
C201 C200 1.394 . S
C201 C202 1.516 . S
C202 C201 1.516 . S
C202 C203 1.502 . S
C202 C204 1.561 1_545 S
C202 C205 1.526 . S
C203 H187 0.959 . S
C203 H188 0.959 . S
C203 H189 0.961 . S
C203 C202 1.502 . S
C204 H190 0.960 . S
C204 H191 0.961 . S
C204 H192 0.959 . S
C204 C202 1.561 1_565 S
C205 C202 1.526 . S
C205 C206 1.396 . S
C205 C210 1.390 . S
C206 C200 1.465 . S
C206 C205 1.396 . S
C206 C207 1.399 . S
C207 H193 0.929 . S
C207 C206 1.399 . S
C207 C208 1.385 . S
C208 H194 0.931 . S
C208 C207 1.385 . S
C208 C209 1.389 . S
C209 C208 1.389 . S
C209 C210 1.387 . S
C210 H195 0.930 . S
C210 C205 1.390 . S
C210 C209 1.387 . S
H211 C223 0.930 . S
H212 C225 0.930 . S
H213 C226 0.930 . S
H214 C230 0.959 . S
H215 C230 0.959 . S
H216 C230 0.961 . S
H217 C231 0.960 . S
H218 C231 0.961 . S
H219 C231 0.959 . S
H220 C234 0.929 . S
H221 C235 0.931 . S
H222 C237 0.930 . S
C223 H211 0.930 . S
C223 C224 1.399 . S
C223 C228 1.399 . S
C224 C223 1.399 . S
C224 C225 1.376 . S
C225 H212 0.930 . S
C225 C224 1.376 . S
C225 C226 1.388 . S
C226 H213 0.930 . S
C226 C225 1.388 . S
C226 C227 1.390 . S
C227 C226 1.390 . S
C227 C228 1.394 . S
C227 C233 1.465 . S
C228 C223 1.399 . S
C228 C227 1.394 . S
C228 C229 1.516 . S
C229 C228 1.516 . S
C229 C230 1.502 . S
C229 C231 1.561 . S
C229 C232 1.526 . S
C230 H214 0.959 . S
C230 H215 0.959 . S
C230 H216 0.961 . S
C230 C229 1.502 . S
C231 H217 0.960 . S
C231 H218 0.961 . S
C231 H219 0.959 . S
C231 C229 1.561 . S
C232 C229 1.526 . S
C232 C233 1.396 . S
C232 C237 1.390 . S
C233 C227 1.465 . S
C233 C232 1.396 . S
C233 C234 1.399 . S
C234 H220 0.929 . S
C234 C233 1.399 . S
C234 C235 1.385 . S
C235 H221 0.931 . S
C235 C234 1.385 . S
C235 C236 1.389 . S
C236 C235 1.389 . S
C236 C237 1.387 . S
C237 H222 0.930 . S
C237 C232 1.390 . S
C237 C236 1.387 . S
H238 C250 0.930 . S
H239 C252 0.930 . S
H240 C253 0.930 . S
H241 C257 0.959 . S
H242 C257 0.959 . S
H243 C257 0.961 . S
H244 C258 0.960 . S
H245 C258 0.961 . S
H246 C258 0.959 . S
H247 C261 0.929 . S
H248 C262 0.931 . S
H249 C264 0.930 . S
C250 H238 0.930 . S
C250 C251 1.399 . S
C250 C255 1.399 . S
C251 C250 1.399 . S
C251 C252 1.376 . S
C252 H239 0.930 . S
C252 C251 1.376 . S
C252 C253 1.388 . S
C253 H240 0.930 . S
C253 C252 1.388 . S
C253 C254 1.390 . S
C254 C253 1.390 . S
C254 C255 1.394 . S
C254 C260 1.465 . S
C255 C250 1.399 . S
C255 C254 1.394 . S
C255 C256 1.516 . S
C256 C255 1.516 . S
C256 C257 1.502 . S
C256 C258 1.561 . S
C256 C259 1.526 . S
C257 H241 0.959 . S
C257 H242 0.959 . S
C257 H243 0.961 . S
C257 C256 1.502 . S
C258 H244 0.960 . S
C258 H245 0.961 . S
C258 H246 0.959 . S
C258 C256 1.561 . S
C259 C256 1.526 . S
C259 C260 1.396 . S
C259 C264 1.390 . S
C260 C254 1.465 . S
C260 C259 1.396 . S
C260 C261 1.399 . S
C261 H247 0.929 . S
C261 C260 1.399 . S
C261 C262 1.385 . S
C262 H248 0.931 . S
C262 C261 1.385 . S
C262 C263 1.389 . S
C263 C262 1.389 . S
C263 C264 1.387 . S
C264 H249 0.930 . S
C264 C259 1.390 . S
C264 C263 1.387 . S
H265 C277 0.930 . S
H266 C279 0.930 . S
H267 C280 0.930 . S
H268 C284 0.959 . S
H269 C284 0.959 . S
H270 C284 0.961 . S
H271 C285 0.960 . S
H272 C285 0.961 . S
H273 C285 0.943 1_655 S
H274 C288 0.929 . S
H275 C289 0.931 . S
H276 C291 0.930 . S
C277 H265 0.930 . S
C277 C278 1.399 . S
C277 C282 1.399 . S
C278 C277 1.399 . S
C278 C279 1.376 . S
C279 H266 0.930 . S
C279 C278 1.376 . S
C279 C280 1.388 . S
C280 H267 0.930 . S
C280 C279 1.388 . S
C280 C281 1.390 . S
C281 C280 1.390 . S
C281 C282 1.394 . S
C281 C287 1.465 . S
C282 C277 1.399 . S
C282 C281 1.394 . S
C282 C283 1.516 . S
C283 C282 1.516 . S
C283 C284 1.502 . S
C283 C285 1.561 . S
C283 C286 1.526 . S
C284 H268 0.959 . S
C284 H269 0.959 . S
C284 H270 0.961 . S
C284 C283 1.502 . S
C285 H271 0.960 . S
C285 H272 0.961 . S
C285 H273 0.943 1_455 S
C285 C283 1.561 . S
C286 C283 1.526 . S
C286 C287 1.396 . S
C286 C291 1.390 . S
C287 C281 1.465 . S
C287 C286 1.396 . S
C287 C288 1.399 . S
C288 H274 0.929 . S
C288 C287 1.399 . S
C288 C289 1.385 . S
C289 H275 0.931 . S
C289 C288 1.385 . S
C289 C290 1.389 . S
C290 C289 1.389 . S
C290 C291 1.387 . S
C291 H276 0.930 . S
C291 C286 1.390 . S
C291 C290 1.387 . S
H292 C304 0.930 . S
H293 C306 0.927 1_544 S
H294 C307 0.930 . S
H295 C311 0.959 . S
H296 C311 0.959 . S
H297 C311 0.961 . S
H298 C312 0.960 . S
H299 C312 0.961 . S
H300 C312 0.959 . S
H301 C315 0.929 . S
H302 C316 0.931 . S
H303 C318 0.930 . S
C304 H292 0.930 . S
C304 C305 1.399 . S
C304 C309 1.399 . S
C305 C304 1.399 . S
C305 C306 1.382 . S
C306 H293 0.927 1_566 S
C306 C305 1.382 . S
C306 C307 1.386 1_565 S
C307 H294 0.930 . S
C307 C306 1.386 1_545 S
C307 C308 1.390 1_545 S
C308 C307 1.390 1_565 S
C308 C309 1.394 . S
C308 C314 1.465 . S
C309 C304 1.399 . S
C309 C308 1.394 . S
C309 C310 1.516 . S
C310 C309 1.516 . S
C310 C311 1.502 . S
C310 C312 1.561 . S
C310 C313 1.526 . S
C311 H295 0.959 . S
C311 H296 0.959 . S
C311 H297 0.961 . S
C311 C310 1.502 . S
C312 H298 0.960 . S
C312 H299 0.961 . S
C312 H300 0.959 . S
C312 C310 1.561 . S
C313 C310 1.526 . S
C313 C314 1.396 . S
C313 C318 1.390 . S
C314 C308 1.465 . S
C314 C313 1.396 . S
C314 C315 1.399 1_565 S
C315 H301 0.929 . S
C315 C314 1.399 1_545 S
C315 C316 1.385 . S
C316 H302 0.931 . S
C316 C315 1.385 . S
C316 C317 1.383 1_545 S
C317 C316 1.383 1_565 S
C317 C318 1.393 . S
C318 H303 0.930 . S
C318 C313 1.390 . S
C318 C317 1.393 . S
H319 C331 0.930 . S
H320 C333 0.930 . S
H321 C334 0.930 . S
H322 C338 0.959 . S
H323 C338 0.959 . S
H324 C338 0.961 . S
H325 C339 0.960 . S
H326 C339 0.961 . S
H327 C339 0.959 . S
H328 C342 0.929 1_554 S
H329 C343 0.931 . S
H330 C345 0.930 . S
C331 H319 0.930 . S
C331 C332 1.399 1_556 S
C331 C336 1.399 . S
C332 C331 1.399 1_554 S
C332 C333 1.376 . S
C333 H320 0.930 . S
C333 C332 1.376 . S
C333 C334 1.388 . S
C334 H321 0.930 . S
C334 C333 1.388 . S
C334 C335 1.390 1_554 S
C335 C334 1.390 1_556 S
C335 C336 1.394 . S
C335 C341 1.465 . S
C336 C331 1.399 . S
C336 C335 1.394 . S
C336 C337 1.516 . S
C337 C336 1.516 . S
C337 C338 1.502 . S
C337 C339 1.561 . S
C337 C340 1.526 . S
C338 H322 0.959 . S
C338 H323 0.959 . S
C338 H324 0.961 . S
C338 C337 1.502 . S
C339 H325 0.960 . S
C339 H326 0.961 . S
C339 H327 0.959 . S
C339 C337 1.561 . S
C340 C337 1.526 . S
C340 C341 1.396 . S
C340 C345 1.390 . S
C341 C335 1.465 . S
C341 C340 1.396 . S
C341 C342 1.399 . S
C342 H328 0.929 1_556 S
C342 C341 1.399 . S
C342 C343 1.385 . S
C343 H329 0.931 . S
C343 C342 1.385 . S
C343 C344 1.389 . S
C344 C343 1.389 . S
C344 C345 1.387 . S
C345 H330 0.930 . S
C345 C340 1.390 . S
C345 C344 1.387 . S
H346 C358 0.930 . S
H347 C360 0.930 . S
H348 C361 0.930 . S
H349 C365 0.959 . S
H350 C365 0.959 . S
H351 C365 0.961 . S
H352 C366 0.960 . S
H353 C366 0.961 . S
H354 C366 0.959 . S
H355 C369 0.929 . S
H356 C370 0.931 . S
H357 C372 0.930 . S
C358 H346 0.930 . S
C358 C359 1.399 1_554 S
C358 C363 1.399 1_554 S
C359 C358 1.399 1_556 S
C359 C360 1.376 . S
C360 H347 0.930 . S
C360 C359 1.376 . S
C360 C361 1.388 . S
C361 H348 0.930 . S
C361 C360 1.388 . S
C361 C362 1.390 . S
C362 C361 1.390 . S
C362 C363 1.394 . S
C362 C368 1.465 . S
C363 C358 1.399 1_556 S
C363 C362 1.394 . S
C363 C364 1.516 . S
C364 C363 1.516 . S
C364 C365 1.502 1_556 S
C364 C366 1.561 . S
C364 C367 1.526 . S
C365 H349 0.959 . S
C365 H350 0.959 . S
C365 H351 0.961 . S
C365 C364 1.502 1_554 S
C366 H352 0.960 . S
C366 H353 0.961 . S
C366 H354 0.959 . S
C366 C364 1.561 . S
C367 C364 1.526 . S
C367 C368 1.396 . S
C367 C372 1.390 . S
C368 C362 1.465 . S
C368 C367 1.396 . S
C368 C369 1.399 . S
C369 H355 0.929 . S
C369 C368 1.399 . S
C369 C370 1.385 . S
C370 H356 0.931 . S
C370 C369 1.385 . S
C370 C371 1.389 . S
C371 C370 1.389 . S
C371 C372 1.387 . S
C372 H357 0.930 . S
C372 C367 1.390 . S
C372 C371 1.387 . S
H373 C385 0.930 1_554 S
H374 C387 0.930 . S
H375 C388 0.930 . S
H376 C392 0.959 1_556 S
H377 C392 0.959 . S
H378 C392 0.961 . S
H379 C393 0.960 . S
H380 C393 0.961 . S
H381 C393 0.959 . S
H382 C396 0.929 . S
H383 C397 0.931 . S
H384 C399 0.930 1_455 S
C385 H373 0.930 1_556 S
C385 C386 1.399 . S
C385 C390 1.399 . S
C386 C385 1.399 . S
C386 C387 1.376 . S
C387 H374 0.930 . S
C387 C386 1.376 . S
C387 C388 1.388 . S
C388 H375 0.930 . S
C388 C387 1.388 . S
C388 C389 1.390 . S
C389 C388 1.390 . S
C389 C390 1.394 . S
C389 C395 1.465 . S
C390 C385 1.399 . S
C390 C389 1.394 . S
C390 C391 1.516 . S
C391 C390 1.516 . S
C391 C392 1.502 1_656 S
C391 C393 1.561 1_556 S
C391 C394 1.526 . S
C392 H376 0.959 1_554 S
C392 H377 0.959 . S
C392 H378 0.961 . S
C392 C391 1.502 1_454 S
C393 H379 0.960 . S
C393 H380 0.961 . S
C393 H381 0.959 . S
C393 C391 1.561 1_554 S
C394 C391 1.526 . S
C394 C395 1.396 . S
C394 C399 1.390 . S
C395 C389 1.465 . S
C395 C394 1.396 . S
C395 C396 1.399 . S
C396 H382 0.929 . S
C396 C395 1.399 . S
C396 C397 1.385 . S
C397 H383 0.931 . S
C397 C396 1.385 . S
C397 C398 1.389 . S
C398 C397 1.389 . S
C398 C399 1.387 . S
C399 H384 0.930 1_655 S
C399 C394 1.390 . S
C399 C398 1.387 . S
H400 C412 0.930 . S
H401 C414 0.930 . S
H402 C415 0.930 . S
H403 C419 0.959 . S
H404 C419 0.959 . S
H405 C419 0.961 . S
H406 C420 0.960 . S
H407 C420 0.961 . S
H408 C420 0.959 . S
H409 C423 0.929 1_655 S
H410 C424 0.931 1_655 S
H411 C426 0.930 . S
C412 H400 0.930 . S
C412 C413 1.399 . S
C412 C417 1.399 . S
C413 C412 1.399 . S
C413 C414 1.376 . S
C414 H401 0.930 . S
C414 C413 1.376 . S
C414 C415 1.388 . S
C415 H402 0.930 . S
C415 C414 1.388 . S
C415 C416 1.390 . S
C416 C415 1.390 . S
C416 C417 1.394 . S
C416 C422 1.465 . S
C417 C412 1.399 . S
C417 C416 1.394 . S
C417 C418 1.516 . S
C418 C417 1.516 . S
C418 C419 1.502 . S
C418 C420 1.561 . S
C418 C421 1.526 . S
C419 H403 0.959 . S
C419 H404 0.959 . S
C419 H405 0.961 . S
C419 C418 1.502 . S
C420 H406 0.960 . S
C420 H407 0.961 . S
C420 H408 0.959 . S
C420 C418 1.561 . S
C421 C418 1.526 . S
C421 C422 1.396 . S
C421 C426 1.390 . S
C422 C416 1.465 . S
C422 C421 1.396 . S
C422 C423 1.399 . S
C423 H409 0.929 1_455 S
C423 C422 1.399 . S
C423 C424 1.385 . S
C424 H410 0.931 1_455 S
C424 C423 1.385 . S
C424 C425 1.389 . S
C425 C424 1.389 . S
C425 C426 1.387 . S
C426 H411 0.930 . S
C426 C421 1.390 . S
C426 C425 1.387 . S
H427 C439 0.930 . S
H428 C441 0.930 . S
H429 C442 0.930 1_565 S
H430 C446 0.959 . S
H431 C446 0.959 . S
H432 C446 0.961 . S
H433 C447 0.960 . S
H434 C447 0.961 . S
H435 C447 0.959 . S
H436 C450 0.929 . S
H437 C451 0.931 . S
H438 C453 0.930 . S
C439 H427 0.930 . S
C439 C440 1.399 . S
C439 C444 1.399 . S
C440 C439 1.399 . S
C440 C441 1.376 . S
C441 H428 0.930 . S
C441 C440 1.376 . S
C441 C442 1.388 . S
C442 H429 0.930 1_545 S
C442 C441 1.388 . S
C442 C443 1.390 . S
C443 C442 1.390 . S
C443 C444 1.394 . S
C443 C449 1.465 . S
C444 C439 1.399 . S
C444 C443 1.394 . S
C444 C445 1.516 . S
C445 C444 1.516 . S
C445 C446 1.502 . S
C445 C447 1.561 . S
C445 C448 1.526 . S
C446 H430 0.959 . S
C446 H431 0.959 . S
C446 H432 0.961 . S
C446 C445 1.502 . S
C447 H433 0.960 . S
C447 H434 0.961 . S
C447 H435 0.959 . S
C447 C445 1.561 . S
C448 C445 1.526 . S
C448 C449 1.396 . S
C448 C453 1.390 . S
C449 C443 1.465 . S
C449 C448 1.396 . S
C449 C450 1.399 1_545 S
C450 H436 0.929 . S
C450 C449 1.399 1_565 S
C450 C451 1.385 . S
C451 H437 0.931 . S
C451 C450 1.385 . S
C451 C452 1.389 1_565 S
C452 C451 1.389 1_545 S
C452 C453 1.387 . S
C453 H438 0.930 . S
C453 C448 1.390 . S
C453 C452 1.387 . S
H454 C466 0.930 . S
H455 C468 0.930 . S
H456 C469 0.930 . S
H457 C473 0.959 . S
H458 C473 0.959 . S
H459 C473 0.961 . S
H460 C474 0.960 . S
H461 C474 0.961 . S
H462 C474 0.959 . S
H463 C477 0.929 . S
H464 C478 0.931 . S
H465 C480 0.930 . S
C466 H454 0.930 . S
C466 C467 1.399 . S
C466 C471 1.399 . S
C467 C466 1.399 . S
C467 C468 1.376 . S
C468 H455 0.930 . S
C468 C467 1.376 . S
C468 C469 1.388 . S
C469 H456 0.930 . S
C469 C468 1.388 . S
C469 C470 1.390 . S
C470 C469 1.390 . S
C470 C471 1.394 . S
C470 C476 1.465 . S
C471 C466 1.399 . S
C471 C470 1.394 . S
C471 C472 1.516 . S
C472 C471 1.516 . S
C472 C473 1.502 . S
C472 C474 1.561 . S
C472 C475 1.526 . S
C473 H457 0.959 . S
C473 H458 0.959 . S
C473 H459 0.961 . S
C473 C472 1.502 . S
C474 H460 0.960 . S
C474 H461 0.961 . S
C474 H462 0.959 . S
C474 C472 1.561 . S
C475 C472 1.526 . S
C475 C476 1.396 . S
C475 C480 1.390 . S
C476 C470 1.465 . S
C476 C475 1.396 . S
C476 C477 1.399 . S
C477 H463 0.929 . S
C477 C476 1.399 . S
C477 C478 1.385 . S
C478 H464 0.931 . S
C478 C477 1.385 . S
C478 C479 1.389 . S
C479 C478 1.389 . S
C479 C480 1.387 . S
C480 H465 0.930 . S
C480 C475 1.390 . S
C480 C479 1.387 . S
H481 C493 0.930 . S
H482 C495 0.930 . S
H483 C496 0.930 . S
H484 C500 0.959 . S
H485 C500 0.959 . S
H486 C500 0.961 . S
H487 C501 0.960 . S
H488 C501 0.961 . S
H489 C501 0.959 . S
H490 C504 0.929 . S
H491 C505 0.931 . S
H492 C507 0.930 . S
C493 H481 0.930 . S
C493 C494 1.399 . S
C493 C498 1.399 . S
C494 C493 1.399 . S
C494 C495 1.376 . S
C495 H482 0.930 . S
C495 C494 1.376 . S
C495 C496 1.388 . S
C496 H483 0.930 . S
C496 C495 1.388 . S
C496 C497 1.390 . S
C497 C496 1.390 . S
C497 C498 1.394 . S
C497 C503 1.465 . S
C498 C493 1.399 . S
C498 C497 1.394 . S
C498 C499 1.516 . S
C499 C498 1.516 . S
C499 C500 1.502 . S
C499 C501 1.561 . S
C499 C502 1.526 . S
C500 H484 0.959 . S
C500 H485 0.959 . S
C500 H486 0.961 . S
C500 C499 1.502 . S
C501 H487 0.960 . S
C501 H488 0.961 . S
C501 H489 0.959 . S
C501 C499 1.561 . S
C502 C499 1.526 . S
C502 C503 1.396 . S
C502 C507 1.390 . S
C503 C497 1.465 . S
C503 C502 1.396 . S
C503 C504 1.399 . S
C504 H490 0.929 . S
C504 C503 1.399 . S
C504 C505 1.385 . S
C505 H491 0.931 . S
C505 C504 1.385 . S
C505 C506 1.389 . S
C506 C505 1.389 . S
C506 C507 1.387 . S
C507 H492 0.930 . S
C507 C502 1.390 . S
C507 C506 1.387 . S
H508 C520 0.934 . S
H509 C522 0.930 . S
H510 C523 0.930 . S
H511 C527 0.959 . S
H512 C527 0.959 . S
H513 C527 0.961 . S
H514 C528 0.960 . S
H515 C528 0.961 . S
H516 C528 0.959 . S
H517 C531 0.929 . S
H518 C532 0.931 . S
H519 C534 0.930 . S
C520 H508 0.934 . S
C520 C521 1.399 . S
C520 C525 1.399 . S
C521 C520 1.399 . S
C521 C522 1.376 . S
C522 H509 0.930 . S
C522 C521 1.376 . S
C522 C523 1.388 . S
C523 H510 0.930 . S
C523 C522 1.388 . S
C523 C524 1.390 . S
C524 C523 1.390 . S
C524 C525 1.394 . S
C524 C530 1.465 . S
C525 C520 1.399 . S
C525 C524 1.394 . S
C525 C526 1.516 1_655 S
C526 C525 1.516 1_455 S
C526 C527 1.502 . S
C526 C528 1.561 . S
C526 C529 1.526 1_455 S
C527 H511 0.959 . S
C527 H512 0.959 . S
C527 H513 0.961 . S
C527 C526 1.502 . S
C528 H514 0.960 . S
C528 H515 0.961 . S
C528 H516 0.959 . S
C528 C526 1.561 . S
C529 C526 1.526 1_655 S
C529 C530 1.396 . S
C529 C534 1.390 1_655 S
C530 C524 1.465 . S
C530 C529 1.396 . S
C530 C531 1.399 . S
C531 H517 0.929 . S
C531 C530 1.399 . S
C531 C532 1.385 . S
C532 H518 0.931 . S
C532 C531 1.385 . S
C532 C533 1.389 . S
C533 C532 1.389 . S
C533 C534 1.387 1_655 S
C534 H519 0.930 . S
C534 C529 1.390 1_455 S
C534 C533 1.387 1_455 S
H535 C547 0.930 . S
H536 C549 0.930 . S
H537 C550 0.930 . S
H538 C554 0.959 . S
H539 C554 0.960 1_545 S
H540 C554 0.961 . S
H541 C555 0.960 . S
H542 C555 0.961 . S
H543 C555 0.959 1_556 S
H544 C558 0.929 . S
H545 C559 0.931 . S
H546 C561 0.930 . S
C547 H535 0.930 . S
C547 C548 1.399 1_554 S
C547 C552 1.399 1_554 S
C548 C547 1.399 1_556 S
C548 C549 1.376 . S
C549 H536 0.930 . S
C549 C548 1.376 . S
C549 C550 1.388 . S
C550 H537 0.930 . S
C550 C549 1.388 . S
C550 C551 1.390 . S
C551 C550 1.390 . S
C551 C552 1.394 . S
C551 C557 1.465 . S
C552 C547 1.399 1_556 S
C552 C551 1.394 . S
C552 C553 1.522 . S
C553 C552 1.522 . S
C553 C554 1.506 1_556 S
C553 C555 1.551 1_566 S
C553 C556 1.526 . S
C554 H538 0.959 . S
C554 H539 0.960 1_565 S
C554 H540 0.961 . S
C554 C553 1.506 1_554 S
C555 H541 0.960 . S
C555 H542 0.961 . S
C555 H543 0.959 1_554 S
C555 C553 1.551 1_544 S
C556 C553 1.526 . S
C556 C557 1.396 . S
C556 C561 1.390 1_565 S
C557 C551 1.465 . S
C557 C556 1.396 . S
C557 C558 1.399 . S
C558 H544 0.929 . S
C558 C557 1.399 . S
C558 C559 1.385 . S
C559 H545 0.931 . S
C559 C558 1.385 . S
C559 C560 1.389 . S
C560 C559 1.389 . S
C560 C561 1.387 1_565 S
C561 H546 0.930 . S
C561 C556 1.390 1_545 S
C561 C560 1.387 1_545 S
H562 C574 0.930 . S
H563 C576 0.930 . S
H564 C577 0.930 . S
H565 C581 0.959 . S
H566 C581 0.959 . S
H567 C581 0.961 . S
H568 C582 0.960 . S
H569 C582 0.961 . S
H570 C582 0.959 . S
H571 C585 0.929 1_554 S
H572 C586 0.931 . S
H573 C588 0.930 . S
C574 H562 0.930 . S
C574 C575 1.400 1_556 S
C574 C579 1.399 . S
C575 C574 1.400 1_554 S
C575 C576 1.376 . S
C576 H563 0.930 . S
C576 C575 1.376 . S
C576 C577 1.388 . S
C577 H564 0.930 . S
C577 C576 1.388 . S
C577 C578 1.390 1_554 S
C578 C577 1.390 1_556 S
C578 C579 1.394 . S
C578 C584 1.465 . S
C579 C574 1.399 . S
C579 C578 1.394 . S
C579 C580 1.516 . S
C580 C579 1.516 . S
C580 C581 1.502 . S
C580 C582 1.561 . S
C580 C583 1.526 . S
C581 H565 0.959 . S
C581 H566 0.959 . S
C581 H567 0.961 . S
C581 C580 1.502 . S
C582 H568 0.960 . S
C582 H569 0.961 . S
C582 H570 0.959 . S
C582 C580 1.561 . S
C583 C580 1.526 . S
C583 C584 1.396 . S
C583 C588 1.390 . S
C584 C578 1.465 . S
C584 C583 1.396 . S
C584 C585 1.399 . S
C585 H571 0.929 1_556 S
C585 C584 1.399 . S
C585 C586 1.385 . S
C586 H572 0.931 . S
C586 C585 1.385 . S
C586 C587 1.389 . S
C587 C586 1.389 . S
C587 C588 1.387 . S
C588 H573 0.930 . S
C588 C583 1.390 . S
C588 C587 1.387 . S
H589 C601 0.930 . S
H590 C603 0.930 . S
H591 C604 0.930 . S
H592 C608 0.959 . S
H593 C608 0.959 . S
H594 C608 0.961 . S
H595 C609 0.960 . S
H596 C609 0.961 . S
H597 C609 0.959 . S
H598 C612 0.929 . S
H599 C613 0.931 . S
H600 C615 0.930 . S
C601 H589 0.930 . S
C601 C602 1.399 . S
C601 C606 1.399 . S
C602 C601 1.399 . S
C602 C603 1.376 1_556 S
C603 H590 0.930 . S
C603 C602 1.376 1_554 S
C603 C604 1.388 . S
C604 H591 0.930 . S
C604 C603 1.388 . S
C604 C605 1.390 1_554 S
C605 C604 1.390 1_556 S
C605 C606 1.394 . S
C605 C611 1.465 . S
C606 C601 1.399 . S
C606 C605 1.394 . S
C606 C607 1.516 . S
C607 C606 1.516 . S
C607 C608 1.502 . S
C607 C609 1.561 . S
C607 C610 1.526 . S
C608 H592 0.959 . S
C608 H593 0.959 . S
C608 H594 0.961 . S
C608 C607 1.502 . S
C609 H595 0.960 . S
C609 H596 0.961 . S
C609 H597 0.959 . S
C609 C607 1.561 . S
C610 C607 1.526 . S
C610 C611 1.396 . S
C610 C615 1.390 . S
C611 C605 1.465 . S
C611 C610 1.396 . S
C611 C612 1.399 . S
C612 H598 0.929 . S
C612 C611 1.399 . S
C612 C613 1.385 . S
C613 H599 0.931 . S
C613 C612 1.385 . S
C613 C614 1.389 . S
C614 C613 1.389 . S
C614 C615 1.387 . S
C615 H600 0.930 . S
C615 C610 1.390 . S
C615 C614 1.387 . S
H616 C628 0.930 . S
H617 C630 0.930 . S
H618 C631 0.930 . S
H619 C635 0.959 . S
H620 C635 0.959 . S
H621 C635 0.961 . S
H622 C636 0.960 . S
H623 C636 0.961 . S
H624 C636 0.959 . S
H625 C639 0.929 . S
H626 C640 0.931 . S
H627 C642 0.930 . S
C628 H616 0.930 . S
C628 C629 1.399 . S
C628 C633 1.399 . S
C629 C628 1.399 . S
C629 C630 1.376 . S
C630 H617 0.930 . S
C630 C629 1.376 . S
C630 C631 1.388 . S
C631 H618 0.930 . S
C631 C630 1.388 . S
C631 C632 1.390 . S
C632 C631 1.390 . S
C632 C633 1.394 . S
C632 C638 1.465 . S
C633 C628 1.399 . S
C633 C632 1.394 . S
C633 C634 1.516 . S
C634 C633 1.516 . S
C634 C635 1.502 . S
C634 C636 1.561 . S
C634 C637 1.526 . S
C635 H619 0.959 . S
C635 H620 0.959 . S
C635 H621 0.961 . S
C635 C634 1.502 . S
C636 H622 0.960 . S
C636 H623 0.961 . S
C636 H624 0.959 . S
C636 C634 1.561 . S
C637 C634 1.526 . S
C637 C638 1.396 . S
C637 C642 1.390 . S
C638 C632 1.465 . S
C638 C637 1.396 . S
C638 C639 1.399 1_554 S
C639 H625 0.929 . S
C639 C638 1.399 1_556 S
C639 C640 1.385 . S
C640 H626 0.931 . S
C640 C639 1.385 . S
C640 C641 1.389 . S
C641 C640 1.389 . S
C641 C642 1.387 1_556 S
C642 H627 0.930 . S
C642 C637 1.390 . S
C642 C641 1.387 1_554 S
H643 C655 0.930 . S
H644 C657 0.930 . S
H645 C658 0.930 1_565 S
H646 C662 0.959 . S
H647 C662 0.959 . S
H648 C662 0.961 . S
H649 C663 0.960 . S
H650 C663 0.961 . S
H651 C663 0.959 . S
H652 C666 0.929 . S
H653 C667 0.931 . S
H654 C669 0.930 . S
C655 H643 0.930 . S
C655 C656 1.399 . S
C655 C660 1.399 . S
C656 C655 1.399 . S
C656 C657 1.376 . S
C657 H644 0.930 . S
C657 C656 1.376 . S
C657 C658 1.388 . S
C658 H645 0.930 1_545 S
C658 C657 1.388 . S
C658 C659 1.390 . S
C659 C658 1.390 . S
C659 C660 1.394 . S
C659 C665 1.465 . S
C660 C655 1.399 . S
C660 C659 1.394 . S
C660 C661 1.516 . S
C661 C660 1.516 . S
C661 C662 1.502 1_554 S
C661 C663 1.561 . S
C661 C664 1.526 1_554 S
C662 H646 0.959 . S
C662 H647 0.959 . S
C662 H648 0.961 . S
C662 C661 1.502 1_556 S
C663 H649 0.960 . S
C663 H650 0.961 . S
C663 H651 0.959 . S
C663 C661 1.561 . S
C664 C661 1.526 1_556 S
C664 C665 1.396 1_556 S
C664 C669 1.390 . S
C665 C659 1.465 . S
C665 C664 1.396 1_554 S
C665 C666 1.399 1_545 S
C666 H652 0.929 . S
C666 C665 1.399 1_565 S
C666 C667 1.385 1_554 S
C667 H653 0.931 . S
C667 C666 1.385 1_556 S
C667 C668 1.389 1_565 S
C668 C667 1.389 1_545 S
C668 C669 1.387 . S
C669 H654 0.930 . S
C669 C664 1.390 . S
C669 C668 1.387 . S
H670 C682 0.930 . S
H671 C684 0.930 . S
H672 C685 0.930 1_556 S
H673 C689 0.959 . S
H674 C689 0.959 . S
H675 C689 0.961 . S
H676 C690 0.960 . S
H677 C690 0.961 . S
H678 C690 0.959 . S
H679 C693 0.929 . S
H680 C694 0.931 . S
H681 C696 0.930 1_554 S
C682 H670 0.930 . S
C682 C683 1.399 . S
C682 C687 1.399 . S
C683 C682 1.399 . S
C683 C684 1.376 . S
C684 H671 0.930 . S
C684 C683 1.376 . S
C684 C685 1.388 . S
C685 H672 0.930 1_554 S
C685 C684 1.388 . S
C685 C686 1.390 . S
C686 C685 1.390 . S
C686 C687 1.394 . S
C686 C692 1.465 1_554 S
C687 C682 1.399 . S
C687 C686 1.394 . S
C687 C688 1.516 . S
C688 C687 1.516 . S
C688 C689 1.502 . S
C688 C690 1.561 . S
C688 C691 1.526 . S
C689 H673 0.959 . S
C689 H674 0.959 . S
C689 H675 0.961 . S
C689 C688 1.502 . S
C690 H676 0.960 . S
C690 H677 0.961 . S
C690 H678 0.959 . S
C690 C688 1.561 . S
C691 C688 1.526 . S
C691 C692 1.396 1_554 S
C691 C696 1.390 1_554 S
C692 C686 1.465 1_556 S
C692 C691 1.396 1_556 S
C692 C693 1.399 . S
C693 H679 0.929 . S
C693 C692 1.399 . S
C693 C694 1.385 . S
C694 H680 0.931 . S
C694 C693 1.385 . S
C694 C695 1.389 . S
C695 C694 1.389 . S
C695 C696 1.387 . S
C696 H681 0.930 1_556 S
C696 C691 1.390 1_556 S
C696 C695 1.387 . S
H697 C709 0.930 . S
H698 C711 0.930 . S
H699 C712 0.930 . S
H700 C716 0.959 . S
H701 C716 0.959 . S
H702 C716 0.961 . S
H703 C717 0.960 . S
H704 C717 0.961 1_556 S
H705 C717 0.959 . S
H706 C720 0.929 . S
H707 C721 0.930 . S
H708 C723 0.930 . S
C709 H697 0.930 . S
C709 C710 1.399 . S
C709 C714 1.399 . S
C710 C709 1.399 . S
C710 C711 1.376 . S
C711 H698 0.930 . S
C711 C710 1.376 . S
C711 C712 1.388 . S
C712 H699 0.930 . S
C712 C711 1.388 . S
C712 C713 1.390 . S
C713 C712 1.390 . S
C713 C714 1.394 . S
C713 C719 1.465 . S
C714 C709 1.399 . S
C714 C713 1.394 . S
C714 C715 1.516 1_554 S
C715 C714 1.516 1_556 S
C715 C716 1.502 . S
C715 C717 1.561 1_556 S
C715 C718 1.526 . S
C716 H700 0.959 . S
C716 H701 0.959 . S
C716 H702 0.961 . S
C716 C715 1.502 . S
C717 H703 0.960 . S
C717 H704 0.961 1_554 S
C717 H705 0.959 . S
C717 C715 1.561 1_554 S
C718 C715 1.526 . S
C718 C719 1.396 1_556 S
C718 C723 1.390 . S
C719 C713 1.465 . S
C719 C718 1.396 1_554 S
C719 C720 1.399 . S
C720 H706 0.929 . S
C720 C719 1.399 . S
C720 C721 1.385 1_554 S
C721 H707 0.930 . S
C721 C720 1.385 1_556 S
C721 C722 1.389 . S
C722 C721 1.389 . S
C722 C723 1.387 . S
C723 H708 0.930 . S
C723 C718 1.390 . S
C723 C722 1.387 . S
H724 C736 0.930 . S
H725 C738 0.930 . S
H726 C739 0.930 . S
H727 C743 0.959 1_455 S
H728 C743 0.959 . S
H729 C743 0.961 . S
H730 C744 0.960 . S
H731 C744 0.961 . S
H732 C744 0.959 . S
H733 C747 0.929 . S
H734 C748 0.931 . S
H735 C750 0.930 . S
C736 H724 0.930 . S
C736 C737 1.399 . S
C736 C741 1.399 . S
C737 C736 1.399 . S
C737 C738 1.376 . S
C738 H725 0.930 . S
C738 C737 1.376 . S
C738 C739 1.388 . S
C739 H726 0.930 . S
C739 C738 1.388 . S
C739 C740 1.390 . S
C740 C739 1.390 . S
C740 C741 1.394 . S
C740 C746 1.465 . S
C741 C736 1.399 . S
C741 C740 1.394 . S
C741 C742 1.516 . S
C742 C741 1.516 . S
C742 C743 1.502 . S
C742 C744 1.561 . S
C742 C745 1.526 . S
C743 H727 0.959 1_655 S
C743 H728 0.959 . S
C743 H729 0.961 . S
C743 C742 1.502 . S
C744 H730 0.960 . S
C744 H731 0.961 . S
C744 H732 0.959 . S
C744 C742 1.561 . S
C745 C742 1.526 . S
C745 C746 1.396 . S
C745 C750 1.390 . S
C746 C740 1.465 . S
C746 C745 1.396 . S
C746 C747 1.399 . S
C747 H733 0.929 . S
C747 C746 1.399 . S
C747 C748 1.385 . S
C748 H734 0.931 . S
C748 C747 1.385 . S
C748 C749 1.389 . S
C749 C748 1.389 . S
C749 C750 1.387 . S
C750 H735 0.930 . S
C750 C745 1.390 . S
C750 C749 1.387 . S
H751 C763 0.930 1_545 S
H752 C765 0.930 . S
H753 C766 0.930 . S
H754 C770 0.959 . S
H755 C770 0.959 . S
H756 C770 0.961 . S
H757 C771 0.960 . S
H758 C771 0.961 . S
H759 C771 0.959 . S
H760 C774 0.929 . S
H761 C775 0.931 . S
H762 C777 0.930 . S
C763 H751 0.930 1_565 S
C763 C764 1.399 . S
C763 C768 1.399 . S
C764 C763 1.399 . S
C764 C765 1.376 . S
C765 H752 0.930 . S
C765 C764 1.376 . S
C765 C766 1.388 . S
C766 H753 0.930 . S
C766 C765 1.388 . S
C766 C767 1.390 . S
C767 C766 1.390 . S
C767 C768 1.394 . S
C767 C773 1.465 . S
C768 C763 1.399 . S
C768 C767 1.394 . S
C768 C769 1.516 1_565 S
C769 C768 1.516 1_545 S
C769 C770 1.502 . S
C769 C771 1.561 . S
C769 C772 1.526 1_545 S
C770 H754 0.959 . S
C770 H755 0.959 . S
C770 H756 0.961 . S
C770 C769 1.502 . S
C771 H757 0.960 . S
C771 H758 0.961 . S
C771 H759 0.959 . S
C771 C769 1.561 . S
C772 C769 1.526 1_565 S
C772 C773 1.396 . S
C772 C777 1.390 1_565 S
C773 C767 1.465 . S
C773 C772 1.396 . S
C773 C774 1.399 . S
C774 H760 0.929 . S
C774 C773 1.399 . S
C774 C775 1.385 . S
C775 H761 0.931 . S
C775 C774 1.385 . S
C775 C776 1.389 . S
C776 C775 1.389 . S
C776 C777 1.387 1_565 S
C777 H762 0.930 . S
C777 C772 1.390 1_545 S
C777 C776 1.387 1_545 S
H778 C790 0.930 . S
H779 C792 0.930 . S
H780 C793 0.930 . S
H781 C797 0.959 . S
H782 C797 0.959 . S
H783 C797 0.961 . S
H784 C798 0.960 . S
H785 C798 0.961 . S
H786 C798 0.959 . S
H787 C801 0.929 . S
H788 C802 0.931 . S
H789 C804 0.930 . S
C790 H778 0.930 . S
C790 C791 1.399 . S
C790 C795 1.399 . S
C791 C790 1.399 . S
C791 C792 1.376 . S
C792 H779 0.930 . S
C792 C791 1.376 . S
C792 C793 1.388 . S
C793 H780 0.930 . S
C793 C792 1.388 . S
C793 C794 1.390 . S
C794 C793 1.390 . S
C794 C795 1.394 . S
C794 C800 1.465 . S
C795 C790 1.399 . S
C795 C794 1.394 . S
C795 C796 1.516 . S
C796 C795 1.516 . S
C796 C797 1.502 . S
C796 C798 1.561 . S
C796 C799 1.526 . S
C797 H781 0.959 . S
C797 H782 0.959 . S
C797 H783 0.961 . S
C797 C796 1.502 . S
C798 H784 0.960 . S
C798 H785 0.961 . S
C798 H786 0.959 . S
C798 C796 1.561 . S
C799 C796 1.526 . S
C799 C800 1.396 . S
C799 C804 1.390 . S
C800 C794 1.465 . S
C800 C799 1.396 . S
C800 C801 1.399 . S
C801 H787 0.929 . S
C801 C800 1.399 . S
C801 C802 1.385 . S
C802 H788 0.931 . S
C802 C801 1.385 . S
C802 C803 1.389 . S
C803 C802 1.389 . S
C803 C804 1.387 . S
C804 H789 0.930 . S
C804 C799 1.390 . S
C804 C803 1.387 . S
H805 C817 0.930 . S
H806 C819 0.930 . S
H807 C820 0.930 . S
H808 C824 0.959 . S
H809 C824 0.959 . S
H810 C824 0.961 . S
H811 C825 0.960 . S
H812 C825 0.961 . S
H813 C825 0.959 . S
H814 C828 0.929 . S
H815 C829 0.931 . S
H816 C831 0.930 . S
C817 H805 0.930 . S
C817 C818 1.399 . S
C817 C822 1.399 . S
C818 C817 1.399 . S
C818 C819 1.376 . S
C819 H806 0.930 . S
C819 C818 1.376 . S
C819 C820 1.388 . S
C820 H807 0.930 . S
C820 C819 1.388 . S
C820 C821 1.390 . S
C821 C820 1.390 . S
C821 C822 1.394 . S
C821 C827 1.465 . S
C822 C817 1.399 . S
C822 C821 1.394 . S
C822 C823 1.516 . S
C823 C822 1.516 . S
C823 C824 1.502 . S
C823 C825 1.561 . S
C823 C826 1.526 . S
C824 H808 0.959 . S
C824 H809 0.959 . S
C824 H810 0.961 . S
C824 C823 1.502 . S
C825 H811 0.960 . S
C825 H812 0.961 . S
C825 H813 0.959 . S
C825 C823 1.561 . S
C826 C823 1.526 . S
C826 C827 1.396 . S
C826 C831 1.390 . S
C827 C821 1.465 . S
C827 C826 1.396 . S
C827 C828 1.399 . S
C828 H814 0.929 . S
C828 C827 1.399 . S
C828 C829 1.385 . S
C829 H815 0.931 . S
C829 C828 1.385 . S
C829 C830 1.389 . S
C830 C829 1.389 . S
C830 C831 1.387 . S
C831 H816 0.930 . S
C831 C826 1.390 . S
C831 C830 1.387 . S
C197 N80 1.568 . S
C209 C105 1.601 . S
C236 C140 1.548 . S
C224 N93 1.509 . S
C263 C145 1.367 . S
C251 N54 1.333 . S
C290 C165 1.460 . S
C278 N67 1.432 . S
C317 C113 1.579 1_565 S
C305 N28 1.574 1_556 S
C332 N41 1.555 . S
C344 C130 1.563 . S
C359 N2 1.328 1_556 S
C371 C153 1.347 . S
C386 N15 1.463 . S
C398 C173 1.469 1_655 S
C425 C123 1.155 . S
C413 N70 1.204 . S
C452 C132 0.921 . S
C440 N83 0.956 . S
C479 C163 1.268 . S
C467 N96 1.290 . S
C494 N57 1.001 . S
C506 C183 0.968 . S
C521 N18 1.251 . S
C533 C112 1.228 1_655 S
C560 C143 0.988 1_565 S
C548 N31 0.982 1_556 S
C587 C152 1.205 . S
C575 N44 1.274 . S
C602 N5 0.984 1_556 S
C614 C172 0.910 . S
C629 N66 1.453 . S
C641 C110 1.469 . S
C656 N79 1.446 . S
C668 C133 1.484 . S
C695 C150 1.555 . S
C683 N92 1.535 . S
C722 C170 1.536 . S
C710 N53 1.555 . S
C737 N14 1.486 . S
C749 C120 1.479 . S
C776 C125 1.491 1_565 S
C764 N27 1.487 . S
C803 C160 1.554 . S
C791 N40 1.562 . S
C818 N1 1.588 . S
C830 C180 1.565 . S
