# Generated by pormake.
# Topology rtl, (3,6)-cn, num edge types: 1
# Building blocks:
#     Node 0, Type 0, BuildingBlock: PAMTOO_clean_linker_0, # of connection points: 3
#     Node 1, Type 0, BuildingBlock: PAMTOO_clean_linker_0, # of connection points: 3
#     Node 2, Type 0, BuildingBlock: PAMTOO_clean_linker_0, # of connection points: 3
#     Node 3, Type 0, BuildingBlock: PAMTOO_clean_linker_0, # of connection points: 3
#     Node 4, Type 1, BuildingBlock: VOLQOD_clean_sbu_1, # of connection points: 6
#     Node 5, Type 1, BuildingBlock: VOLQOD_clean_sbu_1, # of connection points: 6
#     Edge 6, Type (0, 1), BuildingBlock: KIFKEQ_clean_linker_1, # of connection points: 2
#     Edge 7, Type (0, 1), BuildingBlock: KIFKEQ_clean_linker_1, # of connection points: 2
#     Edge 8, Type (0, 1), BuildingBlock: KIFKEQ_clean_linker_1, # of connection points: 2
#     Edge 9, Type (0, 1), BuildingBlock: KIFKEQ_clean_linker_1, # of connection points: 2
#     Edge 10, Type (0, 1), BuildingBlock: KIFKEQ_clean_linker_1, # of connection points: 2
#     Edge 11, Type (0, 1), BuildingBlock: KIFKEQ_clean_linker_1, # of connection points: 2
#     Edge 12, Type (0, 1), BuildingBlock: KIFKEQ_clean_linker_1, # of connection points: 2
#     Edge 13, Type (0, 1), BuildingBlock: KIFKEQ_clean_linker_1, # of connection points: 2
#     Edge 14, Type (0, 1), BuildingBlock: KIFKEQ_clean_linker_1, # of connection points: 2
#     Edge 15, Type (0, 1), BuildingBlock: KIFKEQ_clean_linker_1, # of connection points: 2
#     Edge 16, Type (0, 1), BuildingBlock: KIFKEQ_clean_linker_1, # of connection points: 2
#     Edge 17, Type (0, 1), BuildingBlock: KIFKEQ_clean_linker_1, # of connection points: 2
# Relax obj value: 0.042
# Max RMSD: 0.144
# Mean RMSD: 0.095
data_MOF--net-rtl--node1-VOLQOD_clean_sbu_1--node2-PAMTOO_clean_linker_0--edge1-KIFKEQ_clean_linker_1
_symmetry_space_group_name_H-M    P1
_symmetry_Int_Tables_number       1
_symmetry_cell_setting            triclinic
loop_
_symmetry_equiv_pos_as_xyz
'x, y, z'
_cell_length_a     38.026095
_cell_length_b     38.625931
_cell_length_c     22.676373
_cell_angle_alpha  92.446909
_cell_angle_beta   90.641921
_cell_angle_gamma 89.935223
loop_
_atom_site_label
_atom_site_type_symbol
_atom_site_fract_x
_atom_site_fract_y
_atom_site_fract_z
_atom_type_partial_charge
H0 H 0.14311 0.86417 -0.0055 0.0
H1 H 0.2101 0.79307 0.08379 0.0
H2 H 0.21316 0.79721 0.89487 0.0
H3 H 0.21555 0.72724 0.94473 0.0
C4 C 0.23169 0.73343 0.98508 0.0
O5 O 0.24 0.76822 -0.0124 0.0
H6 H 0.21596 0.72708 0.02426 0.0
C7 C 0.16251 0.84358 -0.0072 0.0
C8 C 0.17588 0.83201 0.93804 0.0
C9 C 0.17399 0.8294 0.04555 0.0
C10 C 0.20076 0.80437 0.0436 0.0
C11 C 0.21485 0.79293 -0.01076 0.0
C12 C 0.20247 0.80671 0.93659 0.0
H13 H 0.65982 0.63045 0.49826 0.0
H14 H 0.73199 0.69533 0.40847 0.0
H15 H 0.7218 0.70637 0.59674 0.0
H16 H 0.72622 0.77114 0.54173 0.0
C17 C 0.74178 0.76396 0.5018 0.0
O18 O 0.75285 0.72999 0.50416 0.0
H19 H 0.72461 0.76678 0.46217 0.0
C20 C 0.67965 0.6506 0.49945 0.0
C21 C 0.68889 0.66697 0.55382 0.0
C22 C 0.69498 0.66029 0.4466 0.0
C23 C 0.71999 0.68708 0.44863 0.0
C24 C 0.72963 0.70352 0.50278 0.0
C25 C 0.71449 0.69315 0.55532 0.0
H26 H 0.87441 0.14567 0.00767 0.0
H27 H 0.81047 0.22022 0.91998 0.0
H28 H 0.79314 0.20113 0.1025 0.0
H29 H 0.72887 0.207 0.02938 0.0
C30 C 0.73822 0.22594 -0.00261 0.0
O31 O 0.77207 0.23606 0.01213 0.0
H32 H 0.73764 0.21301 0.95256 0.0
C33 C 0.8535 0.16476 0.00875 0.0
C34 C 0.83507 0.17122 0.06136 0.0
C35 C 0.84507 0.18216 0.95736 0.0
C36 C 0.81761 0.20651 0.95906 0.0
C37 C 0.79897 0.21321 0.01134 0.0
C38 C 0.8079 0.19587 0.06251 0.0
H39 H 0.3572 0.38119 0.4615 0.0
H40 H 0.30158 0.30624 0.56067 0.0
H41 H 0.28682 0.30881 0.3728 0.0
H42 H 0.2218 0.3006 0.43634 0.0
C43 C 0.23154 0.28678 0.47536 0.0
O44 O 0.26691 0.27966 0.46939 0.0
H45 H 0.22739 0.30391 0.51545 0.0
C46 C 0.33896 0.35972 0.46345 0.0
C47 C 0.32305 0.34672 0.41115 0.0
C48 C 0.33215 0.34502 0.51772 0.0
C49 C 0.30756 0.31792 0.51938 0.0
C50 C 0.29094 0.30526 0.46727 0.0
C51 C 0.29929 0.31911 0.41302 0.0
O52 O 0.93146 0.97083 0.5072 0.0
Zn53 Zn 0.95895 0.01523 0.50552 0.0
O54 O 0.00949 0.00602 0.50089 0.0
Zn55 Zn 0.03365 0.02867 0.56891 0.0
Zn56 Zn 0.01764 0.95595 0.50069 0.0
Zn57 Zn 0.02752 0.02417 0.42799 0.0
O58 O 0.06932 0.06325 0.54277 0.0
O59 O 0.06315 0.06197 0.44525 0.0
O60 O 0.94735 0.04463 0.57784 0.0
O61 O 0.9993 0.05563 0.62031 0.0
O62 O 0.05864 0.99353 0.61836 0.0
O63 O 0.04759 0.94348 0.56976 0.0
O64 O 0.04412 0.93925 0.42882 0.0
O65 O 0.94138 0.04087 0.43551 0.0
O66 O 0.05084 0.98665 0.37806 0.0
O67 O 0.98864 0.04446 0.37953 0.0
C68 C 0.93983 0.93887 0.50586 0.0
C69 C 0.07754 0.07429 0.49261 0.0
C70 C 0.06206 0.96073 0.61247 0.0
C71 C 0.96601 0.05934 0.61854 0.0
C72 C 0.05559 0.95436 0.38414 0.0
C73 C 0.95609 0.05004 0.38853 0.0
O74 O 0.9719 0.92931 0.50337 0.0
O75 O 0.58485 0.46183 0.9842 0.0
Zn76 Zn 0.56141 0.50888 -0.01417 0.0
O77 O 0.51003 0.50468 -0.0139 0.0
Zn78 Zn 0.49078 0.52705 0.91733 0.0
Zn79 Zn 0.49696 0.45571 0.98224 0.0
Zn80 Zn 0.49081 0.52689 0.05813 0.0
O81 O 0.4543 0.5624 0.94096 0.0
O82 O 0.45588 0.56453 0.03891 0.0
O83 O 0.5783 0.53559 0.91702 0.0
O84 O 0.52844 0.55196 0.87459 0.0
O85 O 0.4678 0.49222 0.86035 0.0
O86 O 0.47033 0.44307 0.90756 0.0
O87 O 0.46567 0.44397 0.0492 0.0
O88 O 0.57825 0.53546 0.0589 0.0
O89 O 0.46393 0.4926 0.10484 0.0
O90 O 0.52977 0.54734 0.1099 0.0
C91 C 0.57285 0.43106 0.98515 0.0
C92 C 0.44357 0.57504 -0.0097 0.0
C93 C 0.46098 0.46005 0.86314 0.0
C94 C 0.56187 0.55238 0.87821 0.0
C95 C 0.45527 0.46101 0.095 0.0
C96 C 0.56303 0.54893 0.10405 0.0
O97 O 0.53988 0.42525 0.98534 0.0
H98 H 0.22811 0.23261 0.39416 0.0
H99 H 0.18905 0.26671 0.56479 0.0
H100 H 0.19378 0.17923 0.39833 0.0
H101 H 0.15387 0.21408 0.56855 0.0
H102 H 0.11805 0.10327 0.58225 0.0
H103 H 0.15764 0.15261 0.57836 0.0
H104 H 0.13359 0.16065 0.39273 0.0
H105 H 0.09482 0.11074 0.39618 0.0
C106 C 0.21218 0.22852 0.43256 0.0
C107 C 0.21128 0.25355 0.47923 0.0
C108 C 0.19235 0.19816 0.43486 0.0
C109 C 0.17102 0.19233 0.48378 0.0
C110 C 0.17042 0.21741 0.53065 0.0
C111 C 0.19036 0.24767 0.5284 0.0
C112 C 0.12139 0.11539 0.54049 0.0
C113 C 0.10313 0.10307 0.48958 0.0
C114 C 0.14395 0.14384 0.53834 0.0
C115 C 0.14867 0.16078 0.48532 0.0
C116 C 0.13096 0.148 0.43416 0.0
C117 C 0.10854 0.11944 0.43622 0.0
H118 H 0.25319 0.68424 0.90231 0.0
H119 H 0.28413 0.73429 0.06847 0.0
H120 H 0.30562 0.6479 0.90464 0.0
H121 H 0.33741 0.69867 0.07031 0.0
H122 H 0.40519 0.59995 0.08462 0.0
H123 H 0.3553 0.63962 0.08323 0.0
H124 H 0.36821 0.64986 0.89568 0.0
H125 H 0.41734 0.60953 0.89673 0.0
C126 C 0.27151 0.68768 0.93901 0.0
C127 C 0.26483 0.71211 0.98509 0.0
C128 C 0.30167 0.66704 0.94025 0.0
C129 C 0.32588 0.67043 -0.01244 0.0
C130 C 0.31918 0.6951 0.03353 0.0
C131 C 0.28889 0.71566 0.03236 0.0
C132 C 0.39754 0.61087 0.04317 0.0
C133 C 0.41512 0.60133 -0.00927 0.0
C134 C 0.36901 0.63375 0.04241 0.0
C135 C 0.35753 0.64776 -0.01076 0.0
C136 C 0.37586 0.63903 0.93719 0.0
C137 C 0.4042 0.61603 0.93788 0.0
H138 H 0.80034 0.76582 0.57353 0.0
H139 H 0.75222 0.81704 0.42767 0.0
H140 H 0.84906 0.80735 0.5746 0.0
H141 H 0.80077 0.85842 0.42844 0.0
H142 H 0.86892 0.94939 0.49722 0.0
H143 H 0.82233 0.90622 0.49556 0.0
H144 H 0.89967 0.82521 0.51262 0.0
H145 H 0.94656 0.86849 0.51468 0.0
C146 C 0.80053 0.78569 0.54122 0.0
C147 C 0.7729 0.78795 0.49992 0.0
C148 C 0.82834 0.80939 0.54176 0.0
C149 C 0.82873 0.83614 0.5016 0.0
C150 C 0.80106 0.83828 0.46026 0.0
C151 C 0.77342 0.81448 0.4595 0.0
C152 C 0.87611 0.92241 0.50075 0.0
C153 C 0.91155 0.91244 0.50599 0.0
C154 C 0.84936 0.89764 0.4994 0.0
C155 C 0.85735 0.86231 0.50363 0.0
C156 C 0.89271 0.85229 0.50962 0.0
C157 C 0.91956 0.87708 0.51053 0.0
H158 H 0.74036 0.27982 0.92356 0.0
H159 H 0.6831 0.24208 0.07082 0.0
H160 H 0.70093 0.32997 0.92059 0.0
H161 H 0.64382 0.29217 0.0684 0.0
H162 H 0.55712 0.3628 -0.00139 0.0
H163 H 0.59763 0.31406 0.00222 0.0
H164 H 0.68523 0.38315 0.97984 0.0
H165 H 0.64469 0.43207 0.97563 0.0
C166 C 0.7194 0.28247 0.9554 0.0
C167 C 0.71457 0.25717 -0.00282 0.0
C168 C 0.69698 0.31115 0.95395 0.0
C169 C 0.66919 0.31494 -0.00587 0.0
C170 C 0.66468 0.28972 0.03635 0.0
C171 C 0.68721 0.26117 0.03796 0.0
C172 C 0.585 0.36769 -0.00564 0.0
C173 C 0.59761 0.40141 -0.01317 0.0
C174 C 0.60823 0.33974 -0.00318 0.0
C175 C 0.64463 0.34478 -0.00848 0.0
C176 C 0.65729 0.37842 0.98357 0.0
C177 C 0.63405 0.40645 0.98146 0.0
H178 H 0.20556 0.84556 0.15304 0.0
H179 H 0.10426 0.83974 0.06476 0.0
H180 H 0.17763 0.87326 0.24022 0.0
H181 H 0.07705 0.86842 0.15045 0.0
H182 H 0.06385 0.96989 0.26919 0.0
H183 H 0.09352 0.93535 0.19194 0.0
H184 H 0.12065 0.8586 0.3175 0.0
H185 H 0.09022 0.89278 0.39516 0.0
C186 C 0.17738 0.84961 0.15262 0.0
C187 C 0.15721 0.84115 0.10167 0.0
C188 C 0.1615 0.86551 0.20225 0.0
C189 C 0.12543 0.87332 0.20117 0.0
C190 C 0.10503 0.86306 0.15172 0.0
C191 C 0.12067 0.84682 0.10274 0.0
C192 C 0.07622 0.94574 0.28048 0.0
C193 C 0.07456 0.93393 0.33809 0.0
C194 C 0.09308 0.926 0.23632 0.0
C195 C 0.10917 0.89445 0.24915 0.0
C196 C 0.10843 0.88294 0.3069 0.0
C197 C 0.09089 0.90238 0.35099 0.0
H198 H 0.71781 0.65482 0.66259 0.0
H199 H 0.61891 0.65596 0.56725 0.0
H200 H 0.68801 0.6317 0.7476 0.0
H201 H 0.58968 0.63122 0.6498 0.0
H202 H 0.53781 0.60665 0.81654 0.0
H203 H 0.56957 0.64016 0.74618 0.0
H204 H 0.66252 0.57818 0.77456 0.0
H205 H 0.63103 0.54572 0.84732 0.0
C206 C 0.6897 0.65045 0.66005 0.0
C207 C 0.67078 0.65673 0.60802 0.0
C208 C 0.67268 0.63682 0.70839 0.0
C209 C 0.63645 0.62926 0.70551 0.0
C210 C 0.61747 0.637 0.65418 0.0
C211 C 0.63435 0.65078 0.60634 0.0
C212 C 0.56508 0.60027 0.80794 0.0
C213 C 0.5818 0.57325 0.83688 0.0
C214 C 0.58331 0.61944 0.76745 0.0
C215 C 0.61854 0.61166 0.75399 0.0
C216 C 0.63556 0.58521 0.78425 0.0
C217 C 0.61744 0.56637 0.82558 0.0
H218 H 0.84336 0.19661 0.17562 0.0
H219 H 0.84927 0.10225 0.06673 0.0
H220 H 0.86898 0.16618 0.25863 0.0
H221 H 0.87561 0.07242 0.14882 0.0
H222 H 0.97174 0.05581 0.27251 0.0
H223 H 0.93722 0.0841 0.19721 0.0
H224 H 0.85848 0.11225 0.32623 0.0
H225 H 0.89287 0.08343 0.40208 0.0
C226 C 0.84945 0.16929 0.16976 0.0
C227 C 0.84497 0.15199 0.11437 0.0
C228 C 0.86416 0.15195 0.21713 0.0
C229 C 0.87476 0.11719 0.20956 0.0
C230 C 0.86824 0.09941 0.15536 0.0
C231 C 0.85327 0.11653 0.10842 0.0
C232 C 0.94708 0.06798 0.28496 0.0
C233 C 0.935 0.06733 0.34319 0.0
C234 C 0.92725 0.08398 0.24177 0.0
C235 C 0.89516 0.10013 0.25602 0.0
C236 C 0.88317 0.09997 0.31431 0.0
C237 C 0.90277 0.08338 0.35747 0.0
H238 H 0.30661 0.35599 0.63009 0.0
H239 H 0.40129 0.36345 0.52754 0.0
H240 H 0.33773 0.38228 0.71602 0.0
H241 H 0.43156 0.39075 0.61239 0.0
H242 H 0.45302 0.48048 0.75003 0.0
H243 H 0.42154 0.45029 0.66869 0.0
H244 H 0.39303 0.36907 0.78399 0.0
H245 H 0.4249 0.39896 0.86552 0.0
C246 C 0.33405 0.36287 0.62598 0.0
C247 C 0.35127 0.35814 0.57165 0.0
C248 C 0.35176 0.37801 0.67503 0.0
C249 C 0.3868 0.38895 0.6703 0.0
C250 C 0.40432 0.38314 0.61674 0.0
C251 C 0.38688 0.36764 0.56817 0.0
C252 C 0.44002 0.45622 0.75811 0.0
C253 C 0.44157 0.44202 0.81408 0.0
C254 C 0.42215 0.43892 0.71155 0.0
C255 C 0.405 0.40738 0.72026 0.0
C256 C 0.40595 0.39343 0.77636 0.0
C257 C 0.42436 0.41044 0.82276 0.0
H258 H 0.68118 0.69037 0.34106 0.0
H259 H 0.68108 0.59159 0.4239 0.0
H260 H 0.65207 0.66336 0.2537 0.0
H261 H 0.6506 0.56541 0.33801 0.0
H262 H 0.54714 0.55814 0.22053 0.0
H263 H 0.58384 0.58479 0.29919 0.0
H264 H 0.66399 0.60626 0.17272 0.0
H265 H 0.62771 0.57875 0.09378 0.0
C266 C 0.67563 0.66286 0.34027 0.0
C267 C 0.6829 0.64327 0.3899 0.0
C268 C 0.65881 0.64753 0.29048 0.0
C269 C 0.64871 0.61257 0.28998 0.0
C270 C 0.65771 0.59257 0.33798 0.0
C271 C 0.675 0.60764 0.38712 0.0
C272 C 0.57252 0.56862 0.20941 0.0
C273 C 0.58462 0.56627 0.1511 0.0
C274 C 0.59351 0.58369 0.25438 0.0
C275 C 0.62663 0.59736 0.24167 0.0
C276 C 0.63849 0.59586 0.18331 0.0
C277 C 0.61781 0.58005 0.13842 0.0
H278 H 0.91545 0.17033 0.944 0.0
H279 H 0.8177 0.17292 0.84538 0.0
H280 H 0.94458 0.14406 0.85881 0.0
H281 H 0.84751 0.14893 0.75821 0.0
H282 H 0.897 0.05878 0.64997 0.0
H283 H 0.86857 0.09419 0.72671 0.0
H284 H 0.96684 0.14746 0.76417 0.0
H285 H 0.99559 0.11065 0.68933 0.0
C286 C 0.9003 0.16584 0.90366 0.0
C287 C 0.86405 0.17298 0.90193 0.0
C288 C 0.91717 0.15116 0.85436 0.0
C289 C 0.89836 0.14379 0.80158 0.0
C290 C 0.86265 0.15339 0.79853 0.0
C291 C 0.84564 0.16769 0.84826 0.0
C292 C 0.9125 0.07811 0.67457 0.0
C293 C 0.94862 0.08165 0.66408 0.0
C294 C 0.89611 0.09874 0.71825 0.0
C295 C 0.91531 0.12384 0.75188 0.0
C296 C 0.95129 0.128 0.74006 0.0
C297 C 0.96782 0.10694 0.69704 0.0
H298 H 0.35568 0.31417 0.31839 0.0
H299 H 0.31451 0.41313 0.37978 0.0
H300 H 0.38461 0.34179 0.23703 0.0
H301 H 0.34193 0.44082 0.29719 0.0
H302 H 0.43776 0.48403 0.20636 0.0
H303 H 0.40054 0.45569 0.276 0.0
H304 H 0.3818 0.3716 0.14751 0.0
H305 H 0.42025 0.39943 0.07852 0.0
C306 C 0.35186 0.34166 0.31303 0.0
C307 C 0.3331 0.36165 0.35504 0.0
C308 C 0.36841 0.35756 0.26653 0.0
C309 C 0.36615 0.39369 0.26109 0.0
C310 C 0.34505 0.41312 0.30092 0.0
C311 C 0.32897 0.3973 0.34775 0.0
C312 C 0.42566 0.45953 0.19288 0.0
C313 C 0.43215 0.44393 0.13701 0.0
C314 C 0.40398 0.44338 0.23265 0.0
C315 C 0.38788 0.41141 0.21731 0.0
C316 C 0.39406 0.39599 0.16109 0.0
C317 C 0.41606 0.412 0.12148 0.0
H318 H 0.10714 0.84551 0.91304 0.0
H319 H 0.21127 0.8517 0.83951 0.0
H320 H 0.0834 0.87752 0.83134 0.0
H321 H 0.18668 0.88256 0.75573 0.0
H322 H 0.0933 0.89735 0.59748 0.0
H323 H 0.12448 0.86448 0.67199 0.0
H324 H 0.10819 0.94811 0.80086 0.0
H325 H 0.0777 0.98153 0.72639 0.0
C326 C 0.12496 0.85352 0.87928 0.0
C327 C 0.16126 0.84671 0.88345 0.0
C328 C 0.11128 0.87169 0.83254 0.0
C329 C 0.1334 0.88274 0.78821 0.0
C330 C 0.1693 0.8743 0.78994 0.0
C331 C 0.18323 0.8565 0.8375 0.0
C332 C 0.0967 0.9089 0.64155 0.0
C333 C 0.08286 0.94193 0.6563 0.0
C334 C 0.11471 0.89018 0.68382 0.0
C335 C 0.11861 0.90398 0.74162 0.0
C336 C 0.10549 0.93718 0.75623 0.0
C337 C 0.08809 0.9562 0.71373 0.0
loop_
_geom_bond_atom_site_label_1
_geom_bond_atom_site_label_2
_geom_bond_distance
_geom_bond_site_symmetry_2
_ccdc_geom_bond_type
H0 C7 0.929 . S
H1 C10 0.930 . S
H2 C12 0.929 . S
H3 C4 0.969 . S
C4 H3 0.969 . S
C4 O5 1.550 1_554 S
C4 H6 0.973 . S
O5 C4 1.550 1_556 S
O5 C11 1.412 . S
H6 C4 0.973 . S
C7 H0 0.929 . S
C7 C8 1.400 1_554 S
C7 C9 1.364 . S
C8 C7 1.400 1_556 S
C8 C12 1.377 . S
C9 C7 1.364 . S
C9 C10 1.374 . S
C10 H1 0.930 . S
C10 C9 1.374 . S
C10 C11 1.383 1_554 S
C11 O5 1.412 . S
C11 C10 1.383 1_556 S
C11 C12 1.394 . S
C12 H2 0.929 . S
C12 C8 1.377 . S
C12 C11 1.394 . S
H13 C20 0.929 . S
H14 C23 0.930 . S
H15 C25 0.929 . S
H16 C17 0.969 . S
C17 H16 0.969 . S
C17 O18 1.550 . S
C17 H19 0.973 . S
O18 C17 1.550 . S
O18 C24 1.412 . S
H19 C17 0.973 . S
C20 H13 0.929 . S
C20 C21 1.400 . S
C20 C22 1.364 . S
C21 C20 1.400 . S
C21 C25 1.377 . S
C22 C20 1.364 . S
C22 C23 1.374 . S
C23 H14 0.930 . S
C23 C22 1.374 . S
C23 C24 1.383 . S
C24 O18 1.412 . S
C24 C23 1.383 . S
C24 C25 1.394 . S
C25 H15 0.929 . S
C25 C21 1.377 . S
C25 C24 1.394 . S
H26 C33 0.929 . S
H27 C36 0.930 . S
H28 C38 0.929 . S
H29 C30 0.969 . S
C30 H29 0.969 . S
C30 O31 1.550 1_556 S
C30 H32 0.973 . S
O31 C30 1.550 1_554 S
O31 C37 1.412 . S
H32 C30 0.973 . S
C33 H26 0.929 . S
C33 C34 1.400 . S
C33 C35 1.364 1_554 S
C34 C33 1.400 . S
C34 C38 1.377 . S
C35 C33 1.364 1_556 S
C35 C36 1.374 . S
C36 H27 0.930 . S
C36 C35 1.374 . S
C36 C37 1.383 1_556 S
C37 O31 1.412 . S
C37 C36 1.383 1_554 S
C37 C38 1.394 . S
C38 H28 0.929 . S
C38 C34 1.377 . S
C38 C37 1.394 . S
H39 C46 0.929 . S
H40 C49 0.930 . S
H41 C51 0.929 . S
H42 C43 0.969 . S
C43 H42 0.969 . S
C43 O44 1.550 . S
C43 H45 0.973 . S
O44 C43 1.550 . S
O44 C50 1.412 . S
H45 C43 0.973 . S
C46 H39 0.929 . S
C46 C47 1.400 . S
C46 C48 1.364 . S
C47 C46 1.400 . S
C47 C51 1.377 . S
C48 C46 1.364 . S
C48 C49 1.374 . S
C49 H40 0.930 . S
C49 C48 1.374 . S
C49 C50 1.383 . S
C50 O44 1.412 . S
C50 C49 1.383 . S
C50 C51 1.394 . S
C51 H41 0.929 . S
C51 C47 1.377 . S
C51 C50 1.394 . S
O52 Zn53 1.953 1_565 S
O52 C68 1.225 . S
Zn53 O52 1.953 1_545 S
Zn53 O54 1.949 1_655 S
Zn53 O60 1.919 . S
Zn53 O65 1.924 . S
O54 Zn53 1.949 1_455 S
O54 Zn55 1.923 . S
O54 Zn56 1.950 1_545 S
O54 Zn57 1.945 . S
Zn55 O54 1.923 . S
Zn55 O58 1.933 . S
Zn55 O61 1.955 . S
Zn55 O62 1.965 1_545 S
Zn56 O54 1.950 1_565 S
Zn56 O63 1.938 . S
Zn56 O64 1.906 . S
Zn56 O74 1.953 1_455 S
Zn57 O54 1.945 . S
Zn57 O59 1.932 . S
Zn57 O66 1.977 1_545 S
Zn57 O67 1.910 1_455 S
O58 Zn55 1.933 . S
O58 C69 1.226 . S
O59 Zn57 1.932 . S
O59 C69 1.307 . S
O60 Zn53 1.919 . S
O60 C71 1.253 . S
O61 Zn55 1.955 . S
O61 C71 1.263 1_455 S
O62 Zn55 1.965 1_565 S
O62 C70 1.303 . S
O63 Zn56 1.938 . S
O63 C70 1.247 . S
O64 Zn56 1.906 . S
O64 C72 1.304 . S
O65 Zn53 1.924 . S
O65 C73 1.311 . S
O66 Zn57 1.977 1_565 S
O66 C72 1.272 . S
O67 Zn57 1.910 1_655 S
O67 C73 1.231 . S
C68 O52 1.225 . S
C68 O74 1.298 . S
C69 O58 1.226 . S
C69 O59 1.307 . S
C70 O62 1.303 . S
C70 O63 1.247 . S
C71 O60 1.253 . S
C71 O61 1.263 1_655 S
C72 O64 1.304 . S
C72 O66 1.272 . S
C73 O65 1.311 . S
C73 O67 1.231 . S
O74 Zn56 1.953 1_655 S
O74 C68 1.298 . S
O75 Zn76 1.953 . S
O75 C91 1.225 1_556 S
Zn76 O75 1.953 . S
Zn76 O77 1.949 1_556 S
Zn76 O83 1.919 . S
Zn76 O88 1.924 1_556 S
O77 Zn76 1.949 1_554 S
O77 Zn78 1.923 1_554 S
O77 Zn79 1.950 . S
O77 Zn80 1.945 . S
Zn78 O77 1.923 1_556 S
Zn78 O81 1.933 . S
Zn78 O84 1.941 . S
Zn78 O85 1.965 . S
Zn79 O77 1.950 . S
Zn79 O86 1.938 1_554 S
Zn79 O87 1.906 . S
Zn79 O97 1.953 . S
Zn80 O77 1.945 . S
Zn80 O82 1.932 . S
Zn80 O89 1.977 . S
Zn80 O90 1.910 . S
O81 Zn78 1.933 . S
O81 C92 1.226 1_556 S
O82 Zn80 1.932 . S
O82 C92 1.307 . S
O83 Zn76 1.919 . S
O83 C94 1.253 . S
O84 Zn78 1.941 . S
O84 C94 1.283 . S
O85 Zn78 1.965 . S
O85 C93 1.303 . S
O86 Zn79 1.938 1_556 S
O86 C93 1.247 . S
O87 Zn79 1.906 . S
O87 C95 1.304 . S
O88 Zn76 1.924 1_554 S
O88 C96 1.311 . S
O89 Zn80 1.977 . S
O89 C95 1.272 . S
O90 Zn80 1.910 . S
O90 C96 1.231 . S
C91 O75 1.225 1_554 S
C91 O97 1.298 . S
C92 O81 1.226 1_554 S
C92 O82 1.307 . S
C93 O85 1.303 . S
C93 O86 1.247 . S
C94 O83 1.253 . S
C94 O84 1.283 . S
C95 O87 1.304 . S
C95 O89 1.272 . S
C96 O88 1.311 . S
C96 O90 1.231 . S
O97 Zn79 1.953 . S
O97 C91 1.298 . S
H98 C106 0.950 . S
H99 C111 0.950 . S
H100 C108 0.950 . S
H101 C110 0.950 . S
H102 C112 0.950 . S
H103 C114 0.950 . S
H104 C116 0.950 . S
H105 C117 0.950 . S
C106 H98 0.950 . S
C106 C107 1.386 . S
C106 C108 1.391 . S
C107 C106 1.386 . S
C107 C111 1.393 . S
C108 H100 0.950 . S
C108 C106 1.391 . S
C108 C109 1.400 . S
C109 C108 1.400 . S
C109 C110 1.398 . S
C109 C115 1.491 . S
C110 H101 0.950 . S
C110 C109 1.398 . S
C110 C111 1.391 . S
C111 H99 0.950 . S
C111 C107 1.393 . S
C111 C110 1.391 . S
C112 H102 0.950 . S
C112 C113 1.386 . S
C112 C114 1.391 . S
C113 C112 1.386 . S
C113 C117 1.393 . S
C114 H103 0.950 . S
C114 C112 1.391 . S
C114 C115 1.400 . S
C115 C109 1.491 . S
C115 C114 1.400 . S
C115 C116 1.398 . S
C116 H104 0.950 . S
C116 C115 1.398 . S
C116 C117 1.391 . S
C117 H105 0.950 . S
C117 C113 1.393 . S
C117 C116 1.391 . S
H118 C126 0.950 . S
H119 C131 0.950 . S
H120 C128 0.950 . S
H121 C130 0.950 . S
H122 C132 0.950 . S
H123 C134 0.950 . S
H124 C136 0.950 . S
H125 C137 0.950 . S
C126 H118 0.950 . S
C126 C127 1.386 1_556 S
C126 C128 1.391 . S
C127 C126 1.386 1_554 S
C127 C131 1.393 . S
C128 H120 0.950 . S
C128 C126 1.391 . S
C128 C129 1.400 1_556 S
C129 C128 1.400 1_554 S
C129 C130 1.398 . S
C129 C135 1.491 . S
C130 H121 0.950 . S
C130 C129 1.398 . S
C130 C131 1.391 . S
C131 H119 0.950 . S
C131 C127 1.393 . S
C131 C130 1.391 . S
C132 H122 0.950 . S
C132 C133 1.386 . S
C132 C134 1.391 . S
C133 C132 1.386 . S
C133 C137 1.393 1_554 S
C134 H123 0.950 . S
C134 C132 1.391 . S
C134 C135 1.400 . S
C135 C129 1.491 . S
C135 C134 1.400 . S
C135 C136 1.398 1_554 S
C136 H124 0.950 . S
C136 C135 1.398 1_556 S
C136 C137 1.391 . S
C137 H125 0.950 . S
C137 C133 1.393 1_556 S
C137 C136 1.391 . S
H138 C146 0.950 . S
H139 C151 0.950 . S
H140 C148 0.950 . S
H141 C150 0.950 . S
H142 C152 0.950 . S
H143 C154 0.950 . S
H144 C156 0.950 . S
H145 C157 0.950 . S
C146 H138 0.950 . S
C146 C147 1.386 . S
C146 C148 1.391 . S
C147 C146 1.386 . S
C147 C151 1.393 . S
C148 H140 0.950 . S
C148 C146 1.391 . S
C148 C149 1.400 . S
C149 C148 1.400 . S
C149 C150 1.398 . S
C149 C155 1.491 . S
C150 H141 0.950 . S
C150 C149 1.398 . S
C150 C151 1.391 . S
C151 H139 0.950 . S
C151 C147 1.393 . S
C151 C150 1.391 . S
C152 H142 0.950 . S
C152 C153 1.386 . S
C152 C154 1.391 . S
C153 C152 1.386 . S
C153 C157 1.393 . S
C154 H143 0.950 . S
C154 C152 1.391 . S
C154 C155 1.400 . S
C155 C149 1.491 . S
C155 C154 1.400 . S
C155 C156 1.398 . S
C156 H144 0.950 . S
C156 C155 1.398 . S
C156 C157 1.391 . S
C157 H145 0.950 . S
C157 C153 1.393 . S
C157 C156 1.391 . S
H158 C166 0.950 . S
H159 C171 0.950 . S
H160 C168 0.950 . S
H161 C170 0.950 . S
H162 C172 0.950 . S
H163 C174 0.950 . S
H164 C176 0.950 . S
H165 C177 0.950 . S
C166 H158 0.950 . S
C166 C167 1.386 . S
C166 C168 1.391 . S
C167 C166 1.386 . S
C167 C171 1.393 1_556 S
C168 H160 0.950 . S
C168 C166 1.391 . S
C168 C169 1.401 1_556 S
C169 C168 1.401 1_554 S
C169 C170 1.397 . S
C169 C175 1.491 . S
C170 H161 0.950 . S
C170 C169 1.397 . S
C170 C171 1.391 . S
C171 H159 0.950 . S
C171 C167 1.393 1_554 S
C171 C170 1.391 . S
C172 H162 0.950 . S
C172 C173 1.386 . S
C172 C174 1.391 . S
C173 C172 1.386 . S
C173 C177 1.393 1_554 S
C174 H163 0.950 . S
C174 C172 1.391 . S
C174 C175 1.400 . S
C175 C169 1.491 . S
C175 C174 1.400 . S
C175 C176 1.398 1_554 S
C176 H164 0.950 . S
C176 C175 1.398 1_556 S
C176 C177 1.391 . S
C177 H165 0.950 . S
C177 C173 1.393 1_556 S
C177 C176 1.391 . S
H178 C186 0.950 . S
H179 C191 0.950 . S
H180 C188 0.950 . S
H181 C190 0.950 . S
H182 C192 0.950 . S
H183 C194 0.950 . S
H184 C196 0.950 . S
H185 C197 0.950 . S
C186 H178 0.950 . S
C186 C187 1.386 . S
C186 C188 1.391 . S
C187 C186 1.386 . S
C187 C191 1.393 . S
C188 H180 0.950 . S
C188 C186 1.391 . S
C188 C189 1.400 . S
C189 C188 1.400 . S
C189 C190 1.398 . S
C189 C195 1.491 . S
C190 H181 0.950 . S
C190 C189 1.398 . S
C190 C191 1.391 . S
C191 H179 0.950 . S
C191 C187 1.393 . S
C191 C190 1.391 . S
C192 H182 0.950 . S
C192 C193 1.386 . S
C192 C194 1.391 . S
C193 C192 1.386 . S
C193 C197 1.393 . S
C194 H183 0.950 . S
C194 C192 1.391 . S
C194 C195 1.400 . S
C195 C189 1.491 . S
C195 C194 1.400 . S
C195 C196 1.398 . S
C196 H184 0.950 . S
C196 C195 1.398 . S
C196 C197 1.391 . S
C197 H185 0.950 . S
C197 C193 1.393 . S
C197 C196 1.391 . S
H198 C206 0.950 . S
H199 C211 0.950 . S
H200 C208 0.950 . S
H201 C210 0.950 . S
H202 C212 0.950 . S
H203 C214 0.950 . S
H204 C216 0.950 . S
H205 C217 0.950 . S
C206 H198 0.950 . S
C206 C207 1.386 . S
C206 C208 1.391 . S
C207 C206 1.386 . S
C207 C211 1.393 . S
C208 H200 0.950 . S
C208 C206 1.391 . S
C208 C209 1.400 . S
C209 C208 1.400 . S
C209 C210 1.398 . S
C209 C215 1.491 . S
C210 H201 0.950 . S
C210 C209 1.398 . S
C210 C211 1.391 . S
C211 H199 0.950 . S
C211 C207 1.393 . S
C211 C210 1.391 . S
C212 H202 0.950 . S
C212 C213 1.386 . S
C212 C214 1.391 . S
C213 C212 1.386 . S
C213 C217 1.393 . S
C214 H203 0.950 . S
C214 C212 1.391 . S
C214 C215 1.400 . S
C215 C209 1.491 . S
C215 C214 1.400 . S
C215 C216 1.398 . S
C216 H204 0.950 . S
C216 C215 1.398 . S
C216 C217 1.391 . S
C217 H205 0.950 . S
C217 C213 1.393 . S
C217 C216 1.391 . S
H218 C226 0.950 . S
H219 C231 0.950 . S
H220 C228 0.950 . S
H221 C230 0.950 . S
H222 C232 0.950 . S
H223 C234 0.950 . S
H224 C236 0.950 . S
H225 C237 0.950 . S
C226 H218 0.950 . S
C226 C227 1.386 . S
C226 C228 1.391 . S
C227 C226 1.386 . S
C227 C231 1.393 . S
C228 H220 0.950 . S
C228 C226 1.391 . S
C228 C229 1.400 . S
C229 C228 1.400 . S
C229 C230 1.398 . S
C229 C235 1.491 . S
C230 H221 0.950 . S
C230 C229 1.398 . S
C230 C231 1.391 . S
C231 H219 0.950 . S
C231 C227 1.393 . S
C231 C230 1.391 . S
C232 H222 0.950 . S
C232 C233 1.386 . S
C232 C234 1.391 . S
C233 C232 1.386 . S
C233 C237 1.393 . S
C234 H223 0.950 . S
C234 C232 1.391 . S
C234 C235 1.400 . S
C235 C229 1.491 . S
C235 C234 1.400 . S
C235 C236 1.398 . S
C236 H224 0.950 . S
C236 C235 1.398 . S
C236 C237 1.391 . S
C237 H225 0.950 . S
C237 C233 1.393 . S
C237 C236 1.391 . S
H238 C246 0.950 . S
H239 C251 0.950 . S
H240 C248 0.950 . S
H241 C250 0.950 . S
H242 C252 0.950 . S
H243 C254 0.950 . S
H244 C256 0.950 . S
H245 C257 0.950 . S
C246 H238 0.950 . S
C246 C247 1.386 . S
C246 C248 1.391 . S
C247 C246 1.386 . S
C247 C251 1.393 . S
C248 H240 0.950 . S
C248 C246 1.391 . S
C248 C249 1.400 . S
C249 C248 1.400 . S
C249 C250 1.398 . S
C249 C255 1.491 . S
C250 H241 0.950 . S
C250 C249 1.398 . S
C250 C251 1.391 . S
C251 H239 0.950 . S
C251 C247 1.393 . S
C251 C250 1.391 . S
C252 H242 0.950 . S
C252 C253 1.386 . S
C252 C254 1.391 . S
C253 C252 1.386 . S
C253 C257 1.393 . S
C254 H243 0.950 . S
C254 C252 1.391 . S
C254 C255 1.400 . S
C255 C249 1.491 . S
C255 C254 1.400 . S
C255 C256 1.398 . S
C256 H244 0.950 . S
C256 C255 1.398 . S
C256 C257 1.391 . S
C257 H245 0.950 . S
C257 C253 1.393 . S
C257 C256 1.391 . S
H258 C266 0.950 . S
H259 C271 0.950 . S
H260 C268 0.950 . S
H261 C270 0.950 . S
H262 C272 0.950 . S
H263 C274 0.950 . S
H264 C276 0.950 . S
H265 C277 0.950 . S
C266 H258 0.950 . S
C266 C267 1.386 . S
C266 C268 1.391 . S
C267 C266 1.386 . S
C267 C271 1.393 . S
C268 H260 0.950 . S
C268 C266 1.391 . S
C268 C269 1.400 . S
C269 C268 1.400 . S
C269 C270 1.398 . S
C269 C275 1.491 . S
C270 H261 0.950 . S
C270 C269 1.398 . S
C270 C271 1.391 . S
C271 H259 0.950 . S
C271 C267 1.393 . S
C271 C270 1.391 . S
C272 H262 0.950 . S
C272 C273 1.386 . S
C272 C274 1.391 . S
C273 C272 1.386 . S
C273 C277 1.393 . S
C274 H263 0.950 . S
C274 C272 1.391 . S
C274 C275 1.400 . S
C275 C269 1.491 . S
C275 C274 1.400 . S
C275 C276 1.398 . S
C276 H264 0.950 . S
C276 C275 1.398 . S
C276 C277 1.391 . S
C277 H265 0.950 . S
C277 C273 1.393 . S
C277 C276 1.391 . S
H278 C286 0.950 . S
H279 C291 0.950 . S
H280 C288 0.950 . S
H281 C290 0.950 . S
H282 C292 0.950 . S
H283 C294 0.950 . S
H284 C296 0.950 . S
H285 C297 0.950 . S
C286 H278 0.950 . S
C286 C287 1.386 . S
C286 C288 1.391 . S
C287 C286 1.386 . S
C287 C291 1.393 . S
C288 H280 0.950 . S
C288 C286 1.391 . S
C288 C289 1.400 . S
C289 C288 1.400 . S
C289 C290 1.398 . S
C289 C295 1.491 . S
C290 H281 0.950 . S
C290 C289 1.398 . S
C290 C291 1.391 . S
C291 H279 0.950 . S
C291 C287 1.393 . S
C291 C290 1.391 . S
C292 H282 0.950 . S
C292 C293 1.386 . S
C292 C294 1.391 . S
C293 C292 1.386 . S
C293 C297 1.393 . S
C294 H283 0.950 . S
C294 C292 1.391 . S
C294 C295 1.400 . S
C295 C289 1.491 . S
C295 C294 1.400 . S
C295 C296 1.398 . S
C296 H284 0.950 . S
C296 C295 1.398 . S
C296 C297 1.391 . S
C297 H285 0.950 . S
C297 C293 1.393 . S
C297 C296 1.391 . S
H298 C306 0.950 . S
H299 C311 0.950 . S
H300 C308 0.950 . S
H301 C310 0.950 . S
H302 C312 0.950 . S
H303 C314 0.950 . S
H304 C316 0.950 . S
H305 C317 0.950 . S
C306 H298 0.950 . S
C306 C307 1.386 . S
C306 C308 1.391 . S
C307 C306 1.386 . S
C307 C311 1.393 . S
C308 H300 0.950 . S
C308 C306 1.391 . S
C308 C309 1.400 . S
C309 C308 1.400 . S
C309 C310 1.398 . S
C309 C315 1.491 . S
C310 H301 0.950 . S
C310 C309 1.398 . S
C310 C311 1.391 . S
C311 H299 0.950 . S
C311 C307 1.393 . S
C311 C310 1.391 . S
C312 H302 0.950 . S
C312 C313 1.386 . S
C312 C314 1.391 . S
C313 C312 1.386 . S
C313 C317 1.393 . S
C314 H303 0.950 . S
C314 C312 1.391 . S
C314 C315 1.400 . S
C315 C309 1.491 . S
C315 C314 1.400 . S
C315 C316 1.398 . S
C316 H304 0.950 . S
C316 C315 1.398 . S
C316 C317 1.391 . S
C317 H305 0.950 . S
C317 C313 1.393 . S
C317 C316 1.391 . S
H318 C326 0.950 . S
H319 C331 0.950 . S
H320 C328 0.950 . S
H321 C330 0.950 . S
H322 C332 0.950 . S
H323 C334 0.950 . S
H324 C336 0.950 . S
H325 C337 0.950 . S
C326 H318 0.950 . S
C326 C327 1.386 . S
C326 C328 1.391 . S
C327 C326 1.386 . S
C327 C331 1.393 . S
C328 H320 0.950 . S
C328 C326 1.391 . S
C328 C329 1.400 . S
C329 C328 1.400 . S
C329 C330 1.398 . S
C329 C335 1.491 . S
C330 H321 0.950 . S
C330 C329 1.398 . S
C330 C331 1.391 . S
C331 H319 0.950 . S
C331 C327 1.393 . S
C331 C330 1.391 . S
C332 H322 0.950 . S
C332 C333 1.386 . S
C332 C334 1.391 . S
C333 C332 1.386 . S
C333 C337 1.393 . S
C334 H323 0.950 . S
C334 C332 1.391 . S
C334 C335 1.400 . S
C335 C329 1.491 . S
C335 C334 1.400 . S
C335 C336 1.398 . S
C336 H324 0.950 . S
C336 C335 1.398 . S
C336 C337 1.391 . S
C337 H325 0.950 . S
C337 C333 1.393 . S
C337 C336 1.391 . S
C113 C69 1.483 . S
C107 C43 1.431 . S
C127 C4 1.450 . S
C133 C92 1.484 . S
C147 C17 1.467 . S
C153 C68 1.520 . S
C167 C30 1.460 . S
C173 C91 1.517 . S
C193 C72 1.429 . S
C187 C9 1.442 . S
C213 C94 1.462 . S
C207 C21 1.517 . S
C227 C34 1.484 . S
C233 C73 1.426 . S
C247 C48 1.508 . S
C253 C93 1.460 . S
C273 C96 1.422 . S
C267 C22 1.462 . S
C293 C71 1.471 . S
C287 C35 1.501 . S
C313 C95 1.420 . S
C307 C47 1.470 . S
C327 C8 1.507 . S
C333 C70 1.466 . S
